0:0
     RDKit          3D

 44 46  0  0  0  0  0  0  0  0999 V2000
   -9.7321   18.7087  -31.3755 H   0  0  0  0  0  0  0  0  0  0  0  0
   -8.7700   19.0780  -31.7600 C   0  0  0  0  0  0  0  0  0  0  0  0
   -8.6120   20.5400  -31.9440 C   0  0  0  0  0  0  0  0  0  0  0  0
   -9.4770   21.1350  -32.6460 O   0  0  0  0  0  0  0  0  0  0  0  0
   -7.4860   21.2790  -31.4030 N   0  0  0  0  0  0  0  0  0  0  0  0
   -6.8830   20.6200  -30.8590 H   0  0  0  0  0  0  0  0  0  0  0  0
   -6.6950   21.8630  -32.5150 C   0  0  0  0  0  0  0  0  0  0  0  0
   -7.3891   22.3050  -33.2450 H   0  0  0  0  0  0  0  0  0  0  0  0
   -6.0979   21.0516  -32.9567 H   0  0  0  0  0  0  0  0  0  0  0  0
   -5.7120   22.9580  -32.0440 C   0  0  0  0  0  0  0  0  0  0  0  0
   -6.1026   23.9430  -32.3392 H   0  0  0  0  0  0  0  0  0  0  0  0
   -4.7335   22.7750  -32.5121 H   0  0  0  0  0  0  0  0  0  0  0  0
   -5.5460   22.9250  -30.5870 N   0  0  0  0  0  0  0  0  0  0  0  0
   -4.2350   22.9660  -30.0030 C   0  0  0  0  0  0  0  0  0  0  0  0
   -3.6880   21.8090  -29.4290 C   0  0  0  0  0  0  0  0  0  0  0  0
   -4.2671   20.8738  -29.4254 H   0  0  0  0  0  0  0  0  0  0  0  0
   -2.4120   21.8380  -28.8620 C   0  0  0  0  0  0  0  0  0  0  0  0
   -1.9919   20.9294  -28.4060 H   0  0  0  0  0  0  0  0  0  0  0  0
   -1.6700   23.0200  -28.8740 C   0  0  0  0  0  0  0  0  0  0  0  0
   -0.6652   23.0416  -28.4270 H   0  0  0  0  0  0  0  0  0  0  0  0
   -2.2010   24.1770  -29.4530 C   0  0  0  0  0  0  0  0  0  0  0  0
   -1.6123   25.1062  -29.4585 H   0  0  0  0  0  0  0  0  0  0  0  0
   -3.4860   24.1580  -30.0290 C   0  0  0  0  0  0  0  0  0  0  0  0
   -4.0410   25.2910  -30.6490 O   0  0  0  0  0  0  0  0  0  0  0  0
   -5.3450   25.7970  -30.3900 C   0  0  0  0  0  0  0  0  0  0  0  0
   -5.5051   25.8591  -29.3035 H   0  0  0  0  0  0  0  0  0  0  0  0
   -5.4442   26.7989  -30.8331 H   0  0  0  0  0  0  0  0  0  0  0  0
   -6.0940   25.1243  -30.8331 H   0  0  0  0  0  0  0  0  0  0  0  0
   -6.7320   22.9360  -29.7270 C   0  0  0  0  0  0  0  0  0  0  0  0
   -6.9655   23.9734  -29.4456 H   0  0  0  0  0  0  0  0  0  0  0  0
   -6.5253   22.3367  -28.8280 H   0  0  0  0  0  0  0  0  0  0  0  0
   -7.9370   22.3280  -30.4640 C   0  0  0  0  0  0  0  0  0  0  0  0
   -8.4563   23.1188  -31.0251 H   0  0  0  0  0  0  0  0  0  0  0  0
   -8.6195   21.8800  -29.7268 H   0  0  0  0  0  0  0  0  0  0  0  0
   -7.8160   18.1770  -32.0320 C   0  0  0  0  0  0  0  0  0  0  0  0
   -8.0392   17.1113  -31.8758 H   0  0  0  0  0  0  0  0  0  0  0  0
   -6.4790   18.5520  -32.5320 C   0  0  0  0  0  0  0  0  0  0  0  0
   -5.5940   19.1790  -31.7910 O   0  0  0  0  0  0  0  0  0  0  0  0
   -4.5100   19.3800  -32.5050 C   0  0  0  0  0  0  0  0  0  0  0  0
   -3.5996   19.8824  -32.1463 H   0  0  0  0  0  0  0  0  0  0  0  0
   -4.6860   18.8660  -33.7720 C   0  0  0  0  0  0  0  0  0  0  0  0
   -3.9599   18.8814  -34.5981 H   0  0  0  0  0  0  0  0  0  0  0  0
   -5.9550   18.3290  -33.7950 C   0  0  0  0  0  0  0  0  0  0  0  0
   -6.4491   17.8276  -34.6403 H   0  0  0  0  0  0  0  0  0  0  0  0
  1  2  1  0
  2  3  1  0
  3  4  2  0
  3  5  1  0
  5  6  1  0
  5  7  1  0
  7  8  1  0
  7  9  1  0
  7 10  1  0
 10 11  1  0
 10 12  1  0
 10 13  1  0
 13 14  1  0
 14 15  2  0
 15 16  1  0
 15 17  1  0
 17 18  1  0
 17 19  2  0
 19 20  1  0
 19 21  1  0
 21 22  1  0
 21 23  2  0
 23 24  1  0
 24 25  1  0
 25 26  1  0
 25 27  1  0
 25 28  1  0
 13 29  1  0
 29 30  1  0
 29 31  1  0
 29 32  1  0
 32 33  1  0
 32 34  1  0
  2 35  2  0
 35 36  1  0
 35 37  1  0
 37 38  1  0
 38 39  1  0
 39 40  1  0
 39 41  2  0
 41 42  1  0
 41 43  1  0
 43 44  1  0
 32  5  1  0
 43 37  2  0
 23 14  1  0
M  CHG  1   5   1
M  END
>  <UniqueID>  (1) 
1

>  <SMILES>  (1) 
COc1ccccc1N1CC[NH+](C(=O)/C=C/c2ccco2)CC1

>  <Energy>  (1) 
83.16587357095405

>  <Genealogy>  (1) 
COc1ccccc1N1CC[NH+](C(=O)C=Cc2ccco2)CC1 (protonated)
COc1ccccc1N1CC[NH+](C(=O)/C=C/c2ccco2)CC1 (cis-trans isomerization)
COc1ccccc1N1CC[NH+](C(=O)/C=C/c2ccco2)CC1 (3D coordinates assigned)
COc1ccccc1N1CC[NH+](C(=O)/C=C/c2ccco2)CC1 (nonaromatic ring conformer: 83.16587357095405 kcal/mol)

>  <smiles>  (1) 
COc1ccccc1N1CCN(C(=O)C=Cc2ccco2)CC1

>  <score_type>  (1) 
oracle

>  <origin>  (1) 
adg

>  <m_score__min__energy>  (1) 
-6.9199999999999999

>  <m_primary>  (1) 
energy

$$$$
1:0
     RDKit          3D

 30 32  0  0  0  0  0  0  0  0999 V2000
   -2.1420   24.5850  -28.8950 C   0  0  0  0  0  0  0  0  0  0  0  0
   -3.1210   25.1960  -29.7280 O   0  0  0  0  0  0  0  0  0  0  0  0
   -4.3300   24.5750  -30.0530 C   0  0  0  0  0  0  0  0  0  0  0  0
   -4.3750   23.5940  -30.9960 N   0  0  0  0  0  0  0  0  0  0  0  0
   -5.5300   22.9640  -31.3420 C   0  0  0  0  0  0  0  0  0  0  0  0
   -6.7130   23.3590  -30.6830 C   0  0  0  0  0  0  0  0  0  0  0  0
   -6.6570   24.3650  -29.7180 C   0  0  0  0  0  0  0  0  0  0  0  0
   -5.4710   24.9540  -29.4200 N   0  0  0  0  0  0  0  0  0  0  0  0
   -7.8890   22.7690  -30.9850 N   0  0  0  0  0  0  0  0  0  0  0  0
   -7.9620   21.7930  -31.9180 C   0  0  0  0  0  0  0  0  0  0  0  0
   -9.2920   21.1680  -32.2180 C   0  0  0  0  0  0  0  0  0  0  0  0
   -6.7940   21.3830  -32.5880 C   0  0  0  0  0  0  0  0  0  0  0  0
   -6.8890   20.4690  -33.4540 O   0  0  0  0  0  0  0  0  0  0  0  0
   -5.5720   21.9640  -32.3050 N   0  0  0  0  0  0  0  0  0  0  0  0
   -4.4010   21.4420  -33.0850 C   0  0  0  0  0  0  0  0  0  0  0  0
   -3.1170   21.1230  -32.3310 C   0  0  0  0  0  0  0  0  0  0  0  0
   -3.9890   19.9900  -32.8830 C   0  0  0  0  0  0  0  0  0  0  0  0
   -2.4047   24.7490  -27.8395 H   0  0  0  0  0  0  0  0  0  0  0  0
   -2.1078   23.5050  -29.1009 H   0  0  0  0  0  0  0  0  0  0  0  0
   -1.1568   25.0288  -29.1009 H   0  0  0  0  0  0  0  0  0  0  0  0
   -7.5739   24.6808  -29.1987 H   0  0  0  0  0  0  0  0  0  0  0  0
   -5.4370   25.7050  -28.6950 H   0  0  0  0  0  0  0  0  0  0  0  0
   -9.8049   20.9270  -31.2752 H   0  0  0  0  0  0  0  0  0  0  0  0
   -9.9053   21.8722  -32.7994 H   0  0  0  0  0  0  0  0  0  0  0  0
   -9.1413   20.2465  -32.7994 H   0  0  0  0  0  0  0  0  0  0  0  0
   -4.6546   22.0619  -33.9576 H   0  0  0  0  0  0  0  0  0  0  0  0
   -2.1409   21.3399  -32.7895 H   0  0  0  0  0  0  0  0  0  0  0  0
   -2.7092   21.3814  -31.3426 H   0  0  0  0  0  0  0  0  0  0  0  0
   -3.6394   19.3928  -33.7381 H   0  0  0  0  0  0  0  0  0  0  0  0
   -4.4678   19.0965  -32.4558 H   0  0  0  0  0  0  0  0  0  0  0  0
  1  2  1  0
  2  3  1  0
  3  4  2  0
  4  5  1  0
  5  6  2  0
  6  7  1  0
  7  8  2  0
  6  9  1  0
  9 10  2  0
 10 11  1  0
 10 12  1  0
 12 13  2  0
 12 14  1  0
 14 15  1  0
 15 16  1  0
 16 17  1  0
  8  3  1  0
 17 15  1  0
 14  5  1  0
  1 18  1  0
  1 19  1  0
  1 20  1  0
  7 21  1  0
  8 22  1  0
 11 23  1  0
 11 24  1  0
 11 25  1  0
 15 26  1  0
 16 27  1  0
 16 28  1  0
 17 29  1  0
 17 30  1  0
M  CHG  1   8   1
M  END
>  <UniqueID>  (2) 
2

>  <SMILES>  (2) 
COc1nc2c(c[nH+]1)nc(C)c(=O)n2C1CC1

>  <Energy>  (2) 
313.3742833441285

>  <Genealogy>  (2) 
COc1nc2c(c[nH+]1)nc(C)c(=O)n2C1CC1 (protonated)
COc1nc2c(c[nH+]1)nc(C)c(=O)n2C1CC1 (3D coordinates assigned)
COc1nc2c(c[nH+]1)nc(C)c(=O)n2C1CC1 (nonaromatic ring conformer: 313.3742833441285 kcal/mol)

>  <smiles>  (2) 
COc1ncc2nc(C)c(=O)n(C3CC3)c2n1

>  <score_type>  (2) 
oracle

>  <origin>  (2) 
adg

>  <m_score__min__energy>  (2) 
-6.0700000000000003

>  <m_primary>  (2) 
energy

$$$$
2:0
     RDKit          3D

 53 55  0  0  0  0  0  0  0  0999 V2000
   -3.4170   17.0900  -34.9720 C   0  0  0  0  0  0  0  0  0  0  0  0
   -3.8930   18.2980  -34.2290 C   0  0  0  0  0  0  0  0  0  0  0  0
   -5.2080   18.3700  -33.7650 C   0  0  0  0  0  0  0  0  0  0  0  0
   -5.6200   19.5130  -33.0620 C   0  0  0  0  0  0  0  0  0  0  0  0
   -6.9770   19.6170  -32.5670 N   0  0  0  0  0  0  0  0  0  0  0  0
   -7.6930   18.4830  -32.0010 C   0  0  0  0  0  0  0  0  0  0  0  0
   -9.1620   18.8680  -32.0190 C   0  0  0  0  0  0  0  0  0  0  0  0
   -9.1920   20.3870  -32.1360 C   0  0  0  0  0  0  0  0  0  0  0  0
   -7.8270   20.7980  -32.7130 C   0  0  1  0  0  0  0  0  0  0  0  0
   -7.2100   22.0150  -31.9680 C   0  0  0  0  0  0  0  0  0  0  0  0
   -6.4460   21.6320  -30.7690 N   0  0  0  0  0  0  0  0  0  0  0  0
   -6.3720   22.7050  -29.7720 C   0  0  0  0  0  0  0  0  0  0  0  0
   -5.0460   23.3960  -29.8850 C   0  0  0  0  0  0  0  0  0  0  0  0
   -4.7900   24.6590  -30.3950 C   0  0  0  0  0  0  0  0  0  0  0  0
   -5.8030   25.6400  -30.8880 C   0  0  0  0  0  0  0  0  0  0  0  0
   -3.4650   24.9030  -30.3620 N   0  0  0  0  0  0  0  0  0  0  0  0
   -2.8720   23.8290  -29.8630 N   0  0  0  0  0  0  0  0  0  0  0  0
   -1.4290   23.7150  -29.6890 C   0  0  0  0  0  0  0  0  0  0  0  0
   -3.7960   22.8820  -29.5880 C   0  0  0  0  0  0  0  0  0  0  0  0
   -3.5050   21.5420  -28.9810 C   0  0  0  0  0  0  0  0  0  0  0  0
   -4.7210   20.5220  -32.8520 N   0  0  0  0  0  0  0  0  0  0  0  0
   -3.4380   20.4280  -33.3040 C   0  0  0  0  0  0  0  0  0  0  0  0
   -2.4740   21.5450  -33.0700 C   0  0  0  0  0  0  0  0  0  0  0  0
   -3.0390   19.3240  -33.9870 N   0  0  0  0  0  0  0  0  0  0  0  0
   -3.1115   16.3147  -34.2540 H   0  0  0  0  0  0  0  0  0  0  0  0
   -4.2304   16.7043  -35.6042 H   0  0  0  0  0  0  0  0  0  0  0  0
   -2.5591   17.3628  -35.6042 H   0  0  0  0  0  0  0  0  0  0  0  0
   -5.9105   17.5435  -33.9476 H   0  0  0  0  0  0  0  0  0  0  0  0
   -7.5259   17.5823  -32.6099 H   0  0  0  0  0  0  0  0  0  0  0  0
   -7.3475   18.2548  -30.9819 H   0  0  0  0  0  0  0  0  0  0  0  0
   -9.6681   18.4075  -32.8803 H   0  0  0  0  0  0  0  0  0  0  0  0
   -9.6823   18.5214  -31.1139 H   0  0  0  0  0  0  0  0  0  0  0  0
  -10.0019   20.7019  -32.8105 H   0  0  0  0  0  0  0  0  0  0  0  0
   -9.3750   20.8614  -31.1606 H   0  0  0  0  0  0  0  0  0  0  0  0
   -7.9264   21.1186  -33.7606 H   0  0  0  0  0  0  0  0  0  0  0  0
   -6.5361   22.5431  -32.6585 H   0  0  0  0  0  0  0  0  0  0  0  0
   -8.0426   22.6528  -31.6363 H   0  0  0  0  0  0  0  0  0  0  0  0
   -5.4770   21.3430  -31.0420 H   0  0  0  0  0  0  0  0  0  0  0  0
   -7.1802   23.4293  -29.9511 H   0  0  0  0  0  0  0  0  0  0  0  0
   -6.4808   22.2792  -28.7636 H   0  0  0  0  0  0  0  0  0  0  0  0
   -6.2975   26.1189  -30.0300 H   0  0  0  0  0  0  0  0  0  0  0  0
   -5.3039   26.4069  -31.4985 H   0  0  0  0  0  0  0  0  0  0  0  0
   -6.5535   25.1165  -31.4985 H   0  0  0  0  0  0  0  0  0  0  0  0
   -1.1895   23.6961  -28.6156 H   0  0  0  0  0  0  0  0  0  0  0  0
   -1.0751   22.7861  -30.1601 H   0  0  0  0  0  0  0  0  0  0  0  0
   -0.9337   24.5768  -30.1601 H   0  0  0  0  0  0  0  0  0  0  0  0
   -3.5229   21.6246  -27.8843 H   0  0  0  0  0  0  0  0  0  0  0  0
   -4.2670   20.8186  -29.3067 H   0  0  0  0  0  0  0  0  0  0  0  0
   -2.5116   21.1998  -29.3067 H   0  0  0  0  0  0  0  0  0  0  0  0
   -5.0060   21.3880  -32.3470 H   0  0  0  0  0  0  0  0  0  0  0  0
   -2.3435   21.6962  -31.9883 H   0  0  0  0  0  0  0  0  0  0  0  0
   -1.5044   21.2938  -33.5247 H   0  0  0  0  0  0  0  0  0  0  0  0
   -2.8643   22.4675  -33.5247 H   0  0  0  0  0  0  0  0  0  0  0  0
  1  2  1  0
  2  3  2  0
  3  4  1  0
  4  5  1  0
  5  6  1  0
  6  7  1  0
  7  8  1  0
  8  9  1  0
  9 10  1  0
 10 11  1  0
 11 12  1  0
 12 13  1  0
 13 14  1  0
 14 15  1  0
 14 16  2  0
 16 17  1  0
 17 18  1  0
 17 19  1  0
 19 20  1  0
  4 21  2  0
 21 22  1  0
 22 23  1  0
 22 24  2  0
 24  2  1  0
  9  5  1  0
 19 13  2  0
  1 25  1  0
  1 26  1  0
  1 27  1  0
  3 28  1  0
  6 29  1  0
  6 30  1  0
  7 31  1  0
  7 32  1  0
  8 33  1  0
  8 34  1  0
  9 35  1  6
 10 36  1  0
 10 37  1  0
 11 38  1  0
 12 39  1  0
 12 40  1  0
 15 41  1  0
 15 42  1  0
 15 43  1  0
 18 44  1  0
 18 45  1  0
 18 46  1  0
 20 47  1  0
 20 48  1  0
 20 49  1  0
 21 50  1  0
 23 51  1  0
 23 52  1  0
 23 53  1  0
M  CHG  1  21   1
M  END
>  <UniqueID>  (3) 
3

>  <SMILES>  (3) 
Cc1cc(N2CCC[C@H]2CNCc2c(C)nn(C)c2C)[nH+]c(C)n1

>  <Energy>  (3) 
80.59902508146152

>  <Genealogy>  (3) 
Cc1cc(N2CCCC2CNCc2c(C)nn(C)c2C)[nH+]c(C)n1 (protonated)
Cc1cc(N2CCC[C@H]2CNCc2c(C)nn(C)c2C)[nH+]c(C)n1 (chirality)
Cc1cc(N2CCC[C@H]2CNCc2c(C)nn(C)c2C)[nH+]c(C)n1 (3D coordinates assigned)
Cc1cc(N2CCC[C@H]2CNCc2c(C)nn(C)c2C)[nH+]c(C)n1 (nonaromatic ring conformer: 80.59902508146152 kcal/mol)

>  <smiles>  (3) 
Cc1cc(N2CCCC2CNCc2c(C)nn(C)c2C)nc(C)n1

>  <score_type>  (3) 
oracle

>  <origin>  (3) 
adg

>  <m_score__min__energy>  (3) 
-7.6600000000000001

>  <m_primary>  (3) 
energy

$$$$
3:0
     RDKit          3D

 53 56  0  0  0  0  0  0  0  0999 V2000
   -9.4830   18.1750  -31.8940 C   0  0  0  0  0  0  0  0  0  0  0  0
   -8.0880   18.5110  -32.3530 C   0  0  0  0  0  0  0  0  0  0  0  0
   -7.3880   17.5810  -33.1400 C   0  0  0  0  0  0  0  0  0  0  0  0
   -6.0950   17.8510  -33.5870 C   0  0  0  0  0  0  0  0  0  0  0  0
   -5.4650   19.0580  -33.2570 C   0  0  0  0  0  0  0  0  0  0  0  0
   -4.0610   19.3340  -33.7480 C   0  0  0  0  0  0  0  0  0  0  0  0
   -3.0720   19.0550  -32.6850 N   0  0  0  0  0  0  0  0  0  0  0  0
   -1.9400   18.2420  -33.1990 C   0  0  0  0  0  0  0  0  0  0  0  0
   -0.6940   18.3990  -32.3210 C   0  0  0  0  0  0  0  0  0  0  0  0
   -0.2030   19.7970  -32.3350 N   0  0  0  0  0  0  0  0  0  0  0  0
    0.6130   20.0630  -31.1410 C   0  0  0  0  0  0  0  0  0  0  0  0
   -1.2810   20.8050  -32.4910 C   0  0  0  0  0  0  0  0  0  0  0  0
   -2.6400   20.2940  -31.9890 C   0  0  0  0  0  0  0  0  0  0  0  0
   -6.1460   19.9980  -32.4600 C   0  0  0  0  0  0  0  0  0  0  0  0
   -5.5380   21.1680  -32.1230 N   0  0  0  0  0  0  0  0  0  0  0  0
   -6.1310   22.1230  -31.3580 C   0  0  0  0  0  0  0  0  0  0  0  0
   -5.4050   23.3360  -31.0460 N   0  0  0  0  0  0  0  0  0  0  0  0
   -3.9620   23.2490  -30.7750 C   0  0  0  0  0  0  0  0  0  0  0  0
   -3.4870   24.4500  -29.9510 C   0  0  0  0  0  0  0  0  0  0  0  0
   -3.9270   25.6640  -30.5250 O   0  0  0  0  0  0  0  0  0  0  0  0
   -5.3350   25.7350  -30.4430 C   0  0  0  0  0  0  0  0  0  0  0  0
   -5.9880   24.6600  -31.3170 C   0  0  0  0  0  0  0  0  0  0  0  0
   -7.4410   21.9020  -30.9010 C   0  0  0  0  0  0  0  0  0  0  0  0
   -8.0970   20.7130  -31.2180 C   0  0  0  0  0  0  0  0  0  0  0  0
   -7.4600   19.7340  -32.0050 C   0  0  0  0  0  0  0  0  0  0  0  0
   -9.5153   18.1672  -30.7945 H   0  0  0  0  0  0  0  0  0  0  0  0
  -10.1864   18.9294  -32.2762 H   0  0  0  0  0  0  0  0  0  0  0  0
   -9.7658   17.1831  -32.2762 H   0  0  0  0  0  0  0  0  0  0  0  0
   -7.8664   16.6271  -33.4071 H   0  0  0  0  0  0  0  0  0  0  0  0
   -5.5653   17.1101  -34.2039 H   0  0  0  0  0  0  0  0  0  0  0  0
   -3.8492   18.6922  -34.6159 H   0  0  0  0  0  0  0  0  0  0  0  0
   -3.9870   20.3945  -34.0308 H   0  0  0  0  0  0  0  0  0  0  0  0
   -2.2372   17.1830  -33.2123 H   0  0  0  0  0  0  0  0  0  0  0  0
   -1.6951   18.5919  -34.2127 H   0  0  0  0  0  0  0  0  0  0  0  0
   -0.9449   18.1169  -31.2878 H   0  0  0  0  0  0  0  0  0  0  0  0
    0.0977   17.7471  -32.7189 H   0  0  0  0  0  0  0  0  0  0  0  0
    0.0158   19.8683  -30.2380 H   0  0  0  0  0  0  0  0  0  0  0  0
    1.4952   19.4059  -31.1459 H   0  0  0  0  0  0  0  0  0  0  0  0
    0.9384   21.1137  -31.1459 H   0  0  0  0  0  0  0  0  0  0  0  0
   -1.0088   21.7042  -31.9189 H   0  0  0  0  0  0  0  0  0  0  0  0
   -1.3815   21.0241  -33.5643 H   0  0  0  0  0  0  0  0  0  0  0  0
   -2.5628   20.0853  -30.9117 H   0  0  0  0  0  0  0  0  0  0  0  0
   -3.3883   21.0731  -32.1963 H   0  0  0  0  0  0  0  0  0  0  0  0
   -3.7557   22.3244  -30.2159 H   0  0  0  0  0  0  0  0  0  0  0  0
   -3.4238   23.2461  -31.7344 H   0  0  0  0  0  0  0  0  0  0  0  0
   -3.8895   24.3679  -28.9306 H   0  0  0  0  0  0  0  0  0  0  0  0
   -2.3872   24.4494  -29.9327 H   0  0  0  0  0  0  0  0  0  0  0  0
   -5.6429   25.5853  -29.3976 H   0  0  0  0  0  0  0  0  0  0  0  0
   -5.6586   26.7235  -30.8010 H   0  0  0  0  0  0  0  0  0  0  0  0
   -7.0667   24.6289  -31.1037 H   0  0  0  0  0  0  0  0  0  0  0  0
   -5.8119   24.9116  -32.3733 H   0  0  0  0  0  0  0  0  0  0  0  0
   -7.9486   22.6660  -30.2938 H   0  0  0  0  0  0  0  0  0  0  0  0
   -9.1191   20.5385  -30.8508 H   0  0  0  0  0  0  0  0  0  0  0  0
  1  2  1  0
  2  3  2  0
  3  4  1  0
  4  5  2  0
  5  6  1  0
  6  7  1  0
  7  8  1  0
  8  9  1  0
  9 10  1  0
 10 11  1  0
 10 12  1  0
 12 13  1  0
  5 14  1  0
 14 15  2  0
 15 16  1  0
 16 17  1  0
 17 18  1  0
 18 19  1  0
 19 20  1  0
 20 21  1  0
 21 22  1  0
 16 23  2  0
 23 24  1  0
 24 25  2  0
 25  2  1  0
 13  7  1  0
 25 14  1  0
 22 17  1  0
  1 26  1  0
  1 27  1  0
  1 28  1  0
  3 29  1  0
  4 30  1  0
  6 31  1  0
  6 32  1  0
  8 33  1  0
  8 34  1  0
  9 35  1  0
  9 36  1  0
 11 37  1  0
 11 38  1  0
 11 39  1  0
 12 40  1  0
 12 41  1  0
 13 42  1  0
 13 43  1  0
 18 44  1  0
 18 45  1  0
 19 46  1  0
 19 47  1  0
 21 48  1  0
 21 49  1  0
 22 50  1  0
 22 51  1  0
 23 52  1  0
 24 53  1  0
M  END
>  <UniqueID>  (4) 
4

>  <SMILES>  (4) 
Cc1ccc(CN2CCN(C)CC2)c2nc(N3CCOCC3)ccc12

>  <Energy>  (4) 
75.36242747984508

>  <Genealogy>  (4) 
Cc1ccc(CN2CCN(C)CC2)c2nc(N3CCOCC3)ccc12 (3D coordinates assigned)
Cc1ccc(CN2CCN(C)CC2)c2nc(N3CCOCC3)ccc12 (nonaromatic ring conformer: 75.36242747984508 kcal/mol)

>  <smiles>  (4) 
Cc1ccc(CN2CCN(C)CC2)c2nc(N3CCOCC3)ccc12

>  <score_type>  (4) 
oracle

>  <origin>  (4) 
adg

>  <m_score__min__energy>  (4) 
-8.4800000000000004

>  <m_primary>  (4) 
energy

$$$$
4:0
     RDKit          3D

 47 49  0  0  0  0  0  0  0  0999 V2000
    0.7822   25.4697  -24.5723 H   0  0  0  0  0  0  0  0  0  0  0  0
    0.1870   25.2060  -25.4590 C   0  0  0  0  0  0  0  0  0  0  0  0
    0.7910   24.6480  -26.5400 N   0  0  0  0  0  0  0  0  0  0  0  0
    0.0890   24.3020  -27.6530 C   0  0  0  0  0  0  0  0  0  0  0  0
    0.6121   23.8565  -28.5120 H   0  0  0  0  0  0  0  0  0  0  0  0
   -1.3010   24.5100  -27.7130 C   0  0  0  0  0  0  0  0  0  0  0  0
   -2.0570   24.1370  -28.9350 C   0  0  0  0  0  0  0  0  0  0  0  0
   -3.0790   24.9320  -29.3520 N   0  0  0  0  0  0  0  0  0  0  0  0
   -3.7990   24.6410  -30.4660 C   0  0  0  0  0  0  0  0  0  0  0  0
   -4.7660   25.4320  -30.8230 N   0  0  0  0  0  0  0  0  0  0  0  0
   -6.1540   25.3210  -30.3680 C   0  0  0  0  0  0  0  0  0  0  0  0
   -6.8119   25.7931  -31.1125 H   0  0  0  0  0  0  0  0  0  0  0  0
   -6.2362   25.8241  -29.3933 H   0  0  0  0  0  0  0  0  0  0  0  0
   -6.5810   23.8460  -30.1860 C   0  0  0  0  0  0  0  0  0  0  0  0
   -7.5585   23.8298  -29.6818 H   0  0  0  0  0  0  0  0  0  0  0  0
   -5.7893   23.3586  -29.5981 H   0  0  0  0  0  0  0  0  0  0  0  0
   -6.6990   23.0860  -31.4520 N   0  0  0  0  0  0  0  0  0  0  0  0
   -6.0320   21.7620  -31.4010 C   0  0  0  0  0  0  0  0  0  0  0  0
   -6.4850   21.1539  -30.6041 H   0  0  0  0  0  0  0  0  0  0  0  0
   -4.9605   21.8996  -31.1938 H   0  0  0  0  0  0  0  0  0  0  0  0
   -6.2030   21.0540  -32.7390 C   0  0  0  0  0  0  0  0  0  0  0  0
   -6.4580   19.9982  -32.5652 H   0  0  0  0  0  0  0  0  0  0  0  0
   -7.0103   21.5372  -33.3090 H   0  0  0  0  0  0  0  0  0  0  0  0
   -5.2642   21.1154  -33.3090 H   0  0  0  0  0  0  0  0  0  0  0  0
   -8.0860   23.0310  -31.9630 C   0  0  0  0  0  0  0  0  0  0  0  0
   -8.5514   24.0210  -31.8476 H   0  0  0  0  0  0  0  0  0  0  0  0
   -8.0575   22.7398  -33.0234 H   0  0  0  0  0  0  0  0  0  0  0  0
   -8.9110   21.9990  -31.1970 C   0  0  0  0  0  0  0  0  0  0  0  0
   -8.7843   22.1575  -30.1159 H   0  0  0  0  0  0  0  0  0  0  0  0
   -9.9730   22.1089  -31.4617 H   0  0  0  0  0  0  0  0  0  0  0  0
   -8.5699   20.9873  -31.4617 H   0  0  0  0  0  0  0  0  0  0  0  0
   -3.4990   23.5310  -31.1900 N   0  0  0  0  0  0  0  0  0  0  0  0
   -2.4850   22.6990  -30.8320 C   0  0  0  0  0  0  0  0  0  0  0  0
   -2.2030   21.5170  -31.6740 C   0  0  0  0  0  0  0  0  0  0  0  0
   -1.0620   20.3350  -31.3040 S   0  0  0  0  0  0  0  0  0  0  0  0
   -1.3150   19.3830  -32.6640 C   0  0  0  0  0  0  0  0  0  0  0  0
   -0.7890   18.4471  -32.9038 H   0  0  0  0  0  0  0  0  0  0  0  0
   -2.3030   19.9820  -33.4330 C   0  0  0  0  0  0  0  0  0  0  0  0
   -2.6613   19.5619  -34.3844 H   0  0  0  0  0  0  0  0  0  0  0  0
   -2.8020   21.1720  -32.8850 C   0  0  0  0  0  0  0  0  0  0  0  0
   -3.5885   21.7742  -33.3632 H   0  0  0  0  0  0  0  0  0  0  0  0
   -1.7330   22.9950  -29.6860 C   0  0  0  0  0  0  0  0  0  0  0  0
   -0.9019   22.3427  -29.3798 H   0  0  0  0  0  0  0  0  0  0  0  0
   -1.9310   25.0980  -26.6010 C   0  0  0  0  0  0  0  0  0  0  0  0
   -3.0148   25.2852  -26.6213 H   0  0  0  0  0  0  0  0  0  0  0  0
   -1.1870   25.4450  -25.4720 C   0  0  0  0  0  0  0  0  0  0  0  0
   -1.6795   25.9024  -24.6012 H   0  0  0  0  0  0  0  0  0  0  0  0
  1  2  1  0
  2  3  2  0
  3  4  1  0
  4  5  1  0
  4  6  2  0
  6  7  1  0
  7  8  2  0
  8  9  1  0
  9 10  2  0
 10 11  1  0
 11 12  1  0
 11 13  1  0
 11 14  1  0
 14 15  1  0
 14 16  1  0
 14 17  1  0
 17 18  1  0
 18 19  1  0
 18 20  1  0
 18 21  1  0
 21 22  1  0
 21 23  1  0
 21 24  1  0
 17 25  1  0
 25 26  1  0
 25 27  1  0
 25 28  1  0
 28 29  1  0
 28 30  1  0
 28 31  1  0
  9 32  1  0
 32 33  1  0
 33 34  1  0
 34 35  1  0
 35 36  1  0
 36 37  1  0
 36 38  2  0
 38 39  1  0
 38 40  1  0
 40 41  1  0
 33 42  2  0
 42 43  1  0
  6 44  1  0
 44 45  1  0
 44 46  2  0
 46 47  1  0
 46  2  1  0
 42  7  1  0
 40 34  2  0
M  CHG  1  32  -1
M  END
>  <UniqueID>  (5) 
5

>  <SMILES>  (5) 
CCN(CC)CC/N=c1/nc(-c2cccnc2)cc(-c2cccs2)[n-]1

>  <Energy>  (5) 
81.4286920081338

>  <Genealogy>  (5) 
CCN(CC)CCN=c1nc(-c2cccnc2)cc(-c2cccs2)[n-]1 (protonated)
CCN(CC)CC/N=c1/nc(-c2cccnc2)cc(-c2cccs2)[n-]1 (cis-trans isomerization)
CCN(CC)CC/N=c1/nc(-c2cccnc2)cc(-c2cccs2)[n-]1 (3D coordinates assigned)
CCN(CC)CC/N=c1/nc(-c2cccnc2)cc(-c2cccs2)[n-]1 (optimized conformer: 81.4286920081338 kcal/mol)

>  <smiles>  (5) 
CCN(CC)CCN=c1nc(-c2cccnc2)cc(-c2cccs2)[nH]1

>  <score_type>  (5) 
oracle

>  <origin>  (5) 
adg

>  <m_score__min__energy>  (5) 
-8.6400000000000006

>  <m_primary>  (5) 
energy

$$$$
5:0
     RDKit          3D

 40 42  0  0  0  0  0  0  0  0999 V2000
   -9.4830   21.1750  -31.6480 C   0  0  0  0  0  0  0  0  0  0  0  0
   -9.4170   19.9080  -32.0670 C   0  0  0  0  0  0  0  0  0  0  0  0
   -8.7760   18.8380  -31.2280 C   0  0  0  0  0  0  0  0  0  0  0  0
   -7.9230   18.0120  -32.0200 O   0  0  0  0  0  0  0  0  0  0  0  0
   -6.5520   18.2480  -32.1740 C   0  0  0  0  0  0  0  0  0  0  0  0
   -5.7400   17.8680  -31.2840 O   0  0  0  0  0  0  0  0  0  0  0  0
   -6.0770   18.8840  -33.3830 N   0  0  2  0  0  0  0  0  0  0  0  0
   -4.6020   19.0740  -33.3430 C   0  0  0  0  0  0  0  0  0  0  0  0
   -4.1450   20.1050  -32.2860 C   0  0  0  0  0  0  0  0  0  0  0  0
   -5.0440   21.2970  -32.3200 C   0  0  0  0  0  0  0  0  0  0  0  0
   -6.2930   21.2970  -32.9040 C   0  0  0  0  0  0  0  0  0  0  0  0
   -6.9180   22.4820  -32.7240 N   0  0  0  0  0  0  0  0  0  0  0  0
   -6.0640   23.2230  -31.9910 C   0  0  0  0  0  0  0  0  0  0  0  0
   -6.2570   24.5200  -31.5250 C   0  0  0  0  0  0  0  0  0  0  0  0
   -5.2350   25.1050  -30.7540 C   0  0  0  0  0  0  0  0  0  0  0  0
   -4.0410   24.3850  -30.4650 C   0  0  0  0  0  0  0  0  0  0  0  0
   -3.0040   24.9360  -29.6980 O   0  0  0  0  0  0  0  0  0  0  0  0
   -2.6610   24.5080  -28.3850 C   0  0  0  0  0  0  0  0  0  0  0  0
   -3.8810   23.0750  -30.9560 C   0  0  0  0  0  0  0  0  0  0  0  0
   -4.9100   22.5280  -31.7180 C   0  0  0  0  0  0  0  0  0  0  0  0
   -6.8160   20.1360  -33.6930 C   0  0  0  0  0  0  0  0  0  0  0  0
   -9.9574   21.9396  -32.2808 H   0  0  0  0  0  0  0  0  0  0  0  0
   -9.0630   21.4535  -30.6702 H   0  0  0  0  0  0  0  0  0  0  0  0
   -9.8407   19.6422  -33.0467 H   0  0  0  0  0  0  0  0  0  0  0  0
   -8.1815   19.3117  -30.4329 H   0  0  0  0  0  0  0  0  0  0  0  0
   -9.5682   18.2105  -30.7936 H   0  0  0  0  0  0  0  0  0  0  0  0
   -6.2750   18.2190  -34.1690 H   0  0  0  0  0  0  0  0  0  0  0  0
   -4.1318   18.1066  -33.1127 H   0  0  0  0  0  0  0  0  0  0  0  0
   -4.2973   19.4603  -34.3268 H   0  0  0  0  0  0  0  0  0  0  0  0
   -4.1848   19.6460  -31.2871 H   0  0  0  0  0  0  0  0  0  0  0  0
   -3.1149   20.4206  -32.5082 H   0  0  0  0  0  0  0  0  0  0  0  0
   -7.8620   22.7610  -33.0760 H   0  0  0  0  0  0  0  0  0  0  0  0
   -7.1810   25.0718  -31.7525 H   0  0  0  0  0  0  0  0  0  0  0  0
   -5.3599   26.1285  -30.3709 H   0  0  0  0  0  0  0  0  0  0  0  0
   -3.1711   25.1445  -27.6469 H   0  0  0  0  0  0  0  0  0  0  0  0
   -2.9743   23.4627  -28.2465 H   0  0  0  0  0  0  0  0  0  0  0  0
   -1.5725   24.5860  -28.2465 H   0  0  0  0  0  0  0  0  0  0  0  0
   -2.9680   22.4995  -30.7434 H   0  0  0  0  0  0  0  0  0  0  0  0
   -7.8795   19.9913  -33.4522 H   0  0  0  0  0  0  0  0  0  0  0  0
   -6.6810   20.3586  -34.7617 H   0  0  0  0  0  0  0  0  0  0  0  0
  1  2  2  0
  2  3  1  0
  3  4  1  0
  4  5  1  0
  5  6  2  0
  5  7  1  0
  7  8  1  0
  8  9  1  0
  9 10  1  0
 10 11  2  0
 11 12  1  0
 12 13  1  0
 13 14  2  0
 14 15  1  0
 15 16  2  0
 16 17  1  0
 17 18  1  0
 16 19  1  0
 19 20  2  0
 11 21  1  0
 21  7  1  0
 20 10  1  0
 20 13  1  0
  1 22  1  0
  1 23  1  0
  2 24  1  0
  3 25  1  0
  3 26  1  0
  7 27  1  6
  8 28  1  0
  8 29  1  0
  9 30  1  0
  9 31  1  0
 12 32  1  0
 14 33  1  0
 15 34  1  0
 18 35  1  0
 18 36  1  0
 18 37  1  0
 19 38  1  0
 21 39  1  0
 21 40  1  0
M  CHG  1   7   1
M  END
>  <UniqueID>  (6) 
6

>  <SMILES>  (6) 
C=CCOC(=O)[N@@H+]1CCc2c([nH]c3ccc(OC)cc23)C1

>  <Energy>  (6) 
77.12868985874462

>  <Genealogy>  (6) 
C=CCOC(=O)[NH+]1CCc2c([nH]c3ccc(OC)cc23)C1 (protonated)
C=CCOC(=O)[N@@H+]1CCc2c([nH]c3ccc(OC)cc23)C1 (chirality)
C=CCOC(=O)[N@@H+]1CCc2c([nH]c3ccc(OC)cc23)C1 (3D coordinates assigned)
C=CCOC(=O)[N@@H+]1CCc2c([nH]c3ccc(OC)cc23)C1 (nonaromatic ring conformer: 77.12868985874462 kcal/mol)

>  <smiles>  (6) 
C=CCOC(=O)N1CCc2c([nH]c3ccc(OC)cc23)C1

>  <score_type>  (6) 
oracle

>  <origin>  (6) 
adg

>  <m_score__min__energy>  (6) 
-7.7000000000000002

>  <m_primary>  (6) 
energy

$$$$
6:0
     RDKit          3D

 48 50  0  0  0  0  0  0  0  0999 V2000
   -5.4680   25.2030  -30.7460 C   0  0  0  0  0  0  0  0  0  0  0  0
   -4.3150   24.3740  -30.8450 O   0  0  0  0  0  0  0  0  0  0  0  0
   -3.7170   23.7020  -29.7660 C   0  0  0  0  0  0  0  0  0  0  0  0
   -3.7120   24.2560  -28.4690 C   0  0  0  0  0  0  0  0  0  0  0  0
   -3.1590   23.5510  -27.3990 C   0  0  0  0  0  0  0  0  0  0  0  0
   -2.6170   22.2830  -27.6040 C   0  0  0  0  0  0  0  0  0  0  0  0
   -2.6080   21.7250  -28.8820 C   0  0  0  0  0  0  0  0  0  0  0  0
   -3.1200   22.4370  -29.9830 C   0  0  0  0  0  0  0  0  0  0  0  0
   -3.0930   21.7980  -31.3680 C   0  0  0  0  0  0  0  0  0  0  0  0
   -4.4250   21.6590  -32.0220 N   0  0  0  0  0  0  0  0  0  0  0  0
   -4.3210   21.1880  -33.4350 C   0  0  0  0  0  0  0  0  0  0  0  0
   -4.6230   19.7120  -33.5510 C   0  0  0  0  0  0  0  0  0  0  0  0
   -3.7120   18.7700  -33.0430 C   0  0  0  0  0  0  0  0  0  0  0  0
   -3.9990   17.4030  -33.1120 C   0  0  0  0  0  0  0  0  0  0  0  0
   -5.1990   16.9680  -33.6810 C   0  0  0  0  0  0  0  0  0  0  0  0
   -6.1150   17.8990  -34.1770 C   0  0  0  0  0  0  0  0  0  0  0  0
   -5.8310   19.2670  -34.1090 C   0  0  0  0  0  0  0  0  0  0  0  0
   -5.3580   20.8250  -31.2220 C   0  0  0  0  0  0  0  0  0  0  0  0
   -6.8050   21.1760  -31.4950 C   0  0  0  0  0  0  0  0  0  0  0  0
   -7.7700   20.1600  -31.6040 C   0  0  0  0  0  0  0  0  0  0  0  0
   -9.1110   20.4820  -31.8310 C   0  0  0  0  0  0  0  0  0  0  0  0
   -9.5000   21.8170  -31.9560 C   0  0  0  0  0  0  0  0  0  0  0  0
   -8.5470   22.8350  -31.8560 C   0  0  0  0  0  0  0  0  0  0  0  0
   -7.2050   22.5180  -31.6280 C   0  0  0  0  0  0  0  0  0  0  0  0
   -5.7064   25.3744  -29.6859 H   0  0  0  0  0  0  0  0  0  0  0  0
   -5.2700   26.1668  -31.2378 H   0  0  0  0  0  0  0  0  0  0  0  0
   -6.3186   24.7084  -31.2378 H   0  0  0  0  0  0  0  0  0  0  0  0
   -4.1475   25.2518  -28.2994 H   0  0  0  0  0  0  0  0  0  0  0  0
   -3.1508   23.9961  -26.3931 H   0  0  0  0  0  0  0  0  0  0  0  0
   -2.1959   21.7220  -26.7567 H   0  0  0  0  0  0  0  0  0  0  0  0
   -2.1958   20.7162  -29.0315 H   0  0  0  0  0  0  0  0  0  0  0  0
   -2.4566   22.4171  -32.0174 H   0  0  0  0  0  0  0  0  0  0  0  0
   -2.7101   20.7763  -31.2285 H   0  0  0  0  0  0  0  0  0  0  0  0
   -4.8230   22.6290  -32.0190 H   0  0  0  0  0  0  0  0  0  0  0  0
   -5.0380   21.7490  -34.0524 H   0  0  0  0  0  0  0  0  0  0  0  0
   -3.2903   21.3573  -33.7800 H   0  0  0  0  0  0  0  0  0  0  0  0
   -2.7692   19.1094  -32.5892 H   0  0  0  0  0  0  0  0  0  0  0  0
   -3.2798   16.6698  -32.7182 H   0  0  0  0  0  0  0  0  0  0  0  0
   -5.4224   15.8924  -33.7384 H   0  0  0  0  0  0  0  0  0  0  0  0
   -7.0608   17.5558  -34.6216 H   0  0  0  0  0  0  0  0  0  0  0  0
   -6.5579   19.9970  -34.4947 H   0  0  0  0  0  0  0  0  0  0  0  0
   -5.1950   19.7669  -31.4748 H   0  0  0  0  0  0  0  0  0  0  0  0
   -5.1565   21.0141  -30.1573 H   0  0  0  0  0  0  0  0  0  0  0  0
   -7.4684   19.1063  -31.5102 H   0  0  0  0  0  0  0  0  0  0  0  0
   -9.8615   19.6818  -31.9113 H   0  0  0  0  0  0  0  0  0  0  0  0
  -10.5563   22.0678  -32.1332 H   0  0  0  0  0  0  0  0  0  0  0  0
   -8.8537   23.8866  -31.9569 H   0  0  0  0  0  0  0  0  0  0  0  0
   -6.4580   23.3219  -31.5522 H   0  0  0  0  0  0  0  0  0  0  0  0
  1  2  1  0
  2  3  1  0
  3  4  2  0
  4  5  1  0
  5  6  2  0
  6  7  1  0
  7  8  2  0
  8  9  1  0
  9 10  1  0
 10 11  1  0
 11 12  1  0
 12 13  2  0
 13 14  1  0
 14 15  2  0
 15 16  1  0
 16 17  2  0
 10 18  1  0
 18 19  1  0
 19 20  2  0
 20 21  1  0
 21 22  2  0
 22 23  1  0
 23 24  2  0
  8  3  1  0
 17 12  1  0
 24 19  1  0
  1 25  1  0
  1 26  1  0
  1 27  1  0
  4 28  1  0
  5 29  1  0
  6 30  1  0
  7 31  1  0
  9 32  1  0
  9 33  1  0
 10 34  1  0
 11 35  1  0
 11 36  1  0
 13 37  1  0
 14 38  1  0
 15 39  1  0
 16 40  1  0
 17 41  1  0
 18 42  1  0
 18 43  1  0
 20 44  1  0
 21 45  1  0
 22 46  1  0
 23 47  1  0
 24 48  1  0
M  CHG  1  10   1
M  END
>  <UniqueID>  (7) 
7

>  <SMILES>  (7) 
COc1ccccc1C[NH+](Cc1ccccc1)Cc1ccccc1

>  <Energy>  (7) 
57.797983943955174

>  <Genealogy>  (7) 
COc1ccccc1C[NH+](Cc1ccccc1)Cc1ccccc1 (protonated)
COc1ccccc1C[NH+](Cc1ccccc1)Cc1ccccc1 (3D coordinates assigned)
COc1ccccc1C[NH+](Cc1ccccc1)Cc1ccccc1 (optimized conformer: 57.797983943955174 kcal/mol)

>  <smiles>  (7) 
COc1ccccc1CN(Cc1ccccc1)Cc1ccccc1

>  <score_type>  (7) 
oracle

>  <origin>  (7) 
adg

>  <m_score__min__energy>  (7) 
-7.5599999999999996

>  <m_primary>  (7) 
energy

$$$$
7:0
     RDKit          3D

 52 54  0  0  0  0  0  0  0  0999 V2000
   -1.2630   23.3770  -29.4840 C   0  0  0  0  0  0  0  0  0  0  0  0
   -1.9150   22.1250  -29.6650 O   0  0  0  0  0  0  0  0  0  0  0  0
   -1.8230   21.0430  -28.7730 C   0  0  0  0  0  0  0  0  0  0  0  0
   -2.6240   20.9650  -27.6160 C   0  0  0  0  0  0  0  0  0  0  0  0
   -2.5210   19.8680  -26.7580 C   0  0  0  0  0  0  0  0  0  0  0  0
   -1.6220   18.8400  -27.0390 C   0  0  0  0  0  0  0  0  0  0  0  0
   -0.8180   18.9070  -28.1780 C   0  0  0  0  0  0  0  0  0  0  0  0
   -0.9080   20.0050  -29.0510 C   0  0  0  0  0  0  0  0  0  0  0  0
   -0.0630   20.0400  -30.3030 C   0  0  0  0  0  0  0  0  0  0  0  0
   -0.9150   20.0910  -31.4990 N   0  0  0  0  0  0  0  0  0  0  0  0
   -0.1150   20.2320  -32.7230 C   0  0  0  0  0  0  0  0  0  0  0  0
   -1.0140   20.6810  -33.8790 C   0  0  0  0  0  0  0  0  0  0  0  0
   -2.1190   21.4430  -33.3920 O   0  0  0  0  0  0  0  0  0  0  0  0
   -3.3800   20.9220  -33.0460 C   0  0  0  0  0  0  0  0  0  0  0  0
   -3.8600   19.7130  -33.5920 C   0  0  0  0  0  0  0  0  0  0  0  0
   -5.1240   19.2230  -33.2450 C   0  0  0  0  0  0  0  0  0  0  0  0
   -5.6000   18.0210  -33.7920 C   0  0  0  0  0  0  0  0  0  0  0  0
   -6.8710   17.5500  -33.4510 C   0  0  0  0  0  0  0  0  0  0  0  0
   -7.6710   18.2700  -32.5600 C   0  0  0  0  0  0  0  0  0  0  0  0
   -7.2050   19.4630  -32.0030 C   0  0  0  0  0  0  0  0  0  0  0  0
   -5.9290   19.9480  -32.3390 C   0  0  0  0  0  0  0  0  0  0  0  0
   -5.4520   21.1430  -31.7870 C   0  0  0  0  0  0  0  0  0  0  0  0
   -4.1760   21.6330  -32.1240 C   0  0  0  0  0  0  0  0  0  0  0  0
   -3.6860   22.8690  -31.5680 N   0  0  0  0  0  0  0  0  0  0  0  0
   -4.7030   24.0680  -30.8300 S   0  0  0  0  0  0  0  0  0  0  0  0
   -5.3670   23.4550  -29.2960 C   0  0  0  0  0  0  0  0  0  0  0  0
   -3.8790   25.2880  -30.5360 O   0  0  0  0  0  0  0  0  0  0  0  0
   -5.8150   24.4470  -31.7680 O   0  0  0  0  0  0  0  0  0  0  0  0
   -1.1559   23.5826  -28.4087 H   0  0  0  0  0  0  0  0  0  0  0  0
   -0.2680   23.3432  -29.9517 H   0  0  0  0  0  0  0  0  0  0  0  0
   -1.8612   24.1729  -29.9517 H   0  0  0  0  0  0  0  0  0  0  0  0
   -3.3345   21.7730  -27.3875 H   0  0  0  0  0  0  0  0  0  0  0  0
   -3.1510   19.8148  -25.8578 H   0  0  0  0  0  0  0  0  0  0  0  0
   -1.5463   17.9757  -26.3627 H   0  0  0  0  0  0  0  0  0  0  0  0
   -0.1087   18.0945  -28.3941 H   0  0  0  0  0  0  0  0  0  0  0  0
    0.5815   20.9311  -30.2797 H   0  0  0  0  0  0  0  0  0  0  0  0
    0.5510   19.1282  -30.3428 H   0  0  0  0  0  0  0  0  0  0  0  0
   -1.5320   20.9330  -31.4200 H   0  0  0  0  0  0  0  0  0  0  0  0
    0.6731   20.9819  -32.5602 H   0  0  0  0  0  0  0  0  0  0  0  0
    0.3425   19.2633  -32.9726 H   0  0  0  0  0  0  0  0  0  0  0  0
   -0.4270   21.2996  -34.5738 H   0  0  0  0  0  0  0  0  0  0  0  0
   -1.3992   19.7890  -34.3947 H   0  0  0  0  0  0  0  0  0  0  0  0
   -3.2335   19.1490  -34.2986 H   0  0  0  0  0  0  0  0  0  0  0  0
   -4.9716   17.4487  -34.4903 H   0  0  0  0  0  0  0  0  0  0  0  0
   -7.2424   16.6101  -33.8852 H   0  0  0  0  0  0  0  0  0  0  0  0
   -8.6713   17.8959  -32.2963 H   0  0  0  0  0  0  0  0  0  0  0  0
   -7.8378   20.0243  -31.2998 H   0  0  0  0  0  0  0  0  0  0  0  0
   -6.0816   21.7055  -31.0818 H   0  0  0  0  0  0  0  0  0  0  0  0
   -2.6570   23.0240  -31.4880 H   0  0  0  0  0  0  0  0  0  0  0  0
   -4.8472   23.9349  -28.4537 H   0  0  0  0  0  0  0  0  0  0  0  0
   -6.4413   23.6856  -29.2433 H   0  0  0  0  0  0  0  0  0  0  0  0
   -5.2228   22.3658  -29.2433 H   0  0  0  0  0  0  0  0  0  0  0  0
  1  2  1  0
  2  3  1  0
  3  4  2  0
  4  5  1  0
  5  6  2  0
  6  7  1  0
  7  8  2  0
  8  9  1  0
  9 10  1  0
 10 11  1  0
 11 12  1  0
 12 13  1  0
 13 14  1  0
 14 15  2  0
 15 16  1  0
 16 17  2  0
 17 18  1  0
 18 19  2  0
 19 20  1  0
 20 21  2  0
 21 22  1  0
 22 23  2  0
 23 24  1  0
 24 25  1  0
 25 26  1  0
 25 27  2  0
 25 28  2  0
  8  3  1  0
 23 14  1  0
 21 16  1  0
  1 29  1  0
  1 30  1  0
  1 31  1  0
  4 32  1  0
  5 33  1  0
  6 34  1  0
  7 35  1  0
  9 36  1  0
  9 37  1  0
 10 38  1  0
 11 39  1  0
 11 40  1  0
 12 41  1  0
 12 42  1  0
 15 43  1  0
 17 44  1  0
 18 45  1  0
 19 46  1  0
 20 47  1  0
 22 48  1  0
 24 49  1  0
 26 50  1  0
 26 51  1  0
 26 52  1  0
M  END
>  <UniqueID>  (8) 
8

>  <SMILES>  (8) 
COc1ccccc1CNCCOc1cc2ccccc2cc1NS(C)(=O)=O

>  <Energy>  (8) 
51.73669158829393

>  <Genealogy>  (8) 
COc1ccccc1CNCCOc1cc2ccccc2cc1NS(C)(=O)=O (3D coordinates assigned)
COc1ccccc1CNCCOc1cc2ccccc2cc1NS(C)(=O)=O (optimized conformer: 51.73669158829393 kcal/mol)

>  <smiles>  (8) 
COc1ccccc1CNCCOc1cc2ccccc2cc1NS(C)(=O)=O

>  <score_type>  (8) 
oracle

>  <origin>  (8) 
adg

>  <m_score__min__energy>  (8) 
-9.9399999999999995

>  <m_primary>  (8) 
energy

$$$$
8:0
     RDKit          3D

 54 57  0  0  0  0  0  0  0  0999 V2000
   -0.4930   24.1550  -24.4270 C   0  0  0  0  0  0  0  0  0  0  0  0
   -0.2810   25.4420  -24.7430 C   0  0  0  0  0  0  0  0  0  0  0  0
   -1.4150   26.4260  -24.6440 C   0  0  0  0  0  0  0  0  0  0  0  0
    1.0680   25.8980  -25.2470 C   0  0  0  0  0  0  0  0  0  0  0  0
    1.0920   25.9220  -26.6750 O   0  0  0  0  0  0  0  0  0  0  0  0
    0.2700   25.1540  -27.5140 C   0  0  0  0  0  0  0  0  0  0  0  0
   -0.8940   25.6650  -28.1130 C   0  0  0  0  0  0  0  0  0  0  0  0
   -1.6790   24.8540  -28.9380 C   0  0  0  0  0  0  0  0  0  0  0  0
   -1.3170   23.5170  -29.1870 C   0  0  0  0  0  0  0  0  0  0  0  0
   -2.1590   22.6630  -30.0640 C   0  0  0  0  0  0  0  0  0  0  0  0
   -1.7620   22.0190  -31.2390 C   0  0  0  0  0  0  0  0  0  0  0  0
   -2.7840   21.2820  -31.8520 C   0  0  0  0  0  0  0  0  0  0  0  0
   -3.9950   21.3360  -31.1720 C   0  0  0  0  0  0  0  0  0  0  0  0
   -5.2430   20.6620  -31.5830 C   0  0  0  0  0  0  0  0  0  0  0  0
   -6.4930   21.3160  -31.4830 C   0  0  0  0  0  0  0  0  0  0  0  0
   -7.6180   20.6070  -31.9000 C   0  0  0  0  0  0  0  0  0  0  0  0
   -7.5240   19.3390  -32.3880 C   0  0  0  0  0  0  0  0  0  0  0  0
   -8.8120   18.9740  -32.7270 C   0  0  0  0  0  0  0  0  0  0  0  0
   -9.6370   20.0100  -32.4440 N   0  0  0  0  0  0  0  0  0  0  0  0
   -8.9070   20.9960  -31.9320 N   0  0  0  0  0  0  0  0  0  0  0  0
   -9.4540   22.2990  -31.5590 C   0  0  0  0  0  0  0  0  0  0  0  0
   -8.7600   23.4070  -32.3400 C   0  0  0  0  0  0  0  0  0  0  0  0
   -6.2920   18.6910  -32.4790 C   0  0  0  0  0  0  0  0  0  0  0  0
   -6.1540   17.3090  -33.0480 C   0  0  0  0  0  0  0  0  0  0  0  0
   -5.7690   17.3700  -34.5230 C   0  0  0  0  0  0  0  0  0  0  0  0
   -5.1830   19.3830  -32.0770 N   0  0  0  0  0  0  0  0  0  0  0  0
   -3.7880   22.3030  -29.8100 S   0  0  0  0  0  0  0  0  0  0  0  0
   -0.1490   23.0130  -28.5850 C   0  0  0  0  0  0  0  0  0  0  0  0
    0.6330   23.8260  -27.7600 C   0  0  0  0  0  0  0  0  0  0  0  0
    0.3303   23.4288  -24.4965 H   0  0  0  0  0  0  0  0  0  0  0  0
   -1.4900   23.8264  -24.0985 H   0  0  0  0  0  0  0  0  0  0  0  0
   -1.6398   26.6211  -23.5850 H   0  0  0  0  0  0  0  0  0  0  0  0
   -1.1285   27.3665  -25.1373 H   0  0  0  0  0  0  0  0  0  0  0  0
   -2.3057   26.0098  -25.1373 H   0  0  0  0  0  0  0  0  0  0  0  0
    1.2731   26.9091  -24.8654 H   0  0  0  0  0  0  0  0  0  0  0  0
    1.8346   25.1933  -24.8923 H   0  0  0  0  0  0  0  0  0  0  0  0
   -1.1892   26.7090  -27.9317 H   0  0  0  0  0  0  0  0  0  0  0  0
   -2.5897   25.2655  -29.3976 H   0  0  0  0  0  0  0  0  0  0  0  0
   -0.7418   22.0846  -31.6450 H   0  0  0  0  0  0  0  0  0  0  0  0
   -2.6414   20.7143  -32.7834 H   0  0  0  0  0  0  0  0  0  0  0  0
   -6.5738   22.3412  -31.0925 H   0  0  0  0  0  0  0  0  0  0  0  0
   -9.1159   18.0069  -33.1540 H   0  0  0  0  0  0  0  0  0  0  0  0
  -10.5310   22.3177  -31.7820 H   0  0  0  0  0  0  0  0  0  0  0  0
   -9.2888   22.4618  -30.4837 H   0  0  0  0  0  0  0  0  0  0  0  0
   -8.3106   24.1245  -31.6377 H   0  0  0  0  0  0  0  0  0  0  0  0
   -7.9729   22.9716  -32.9732 H   0  0  0  0  0  0  0  0  0  0  0  0
   -9.4952   23.9252  -32.9732 H   0  0  0  0  0  0  0  0  0  0  0  0
   -5.3745   16.7661  -32.4933 H   0  0  0  0  0  0  0  0  0  0  0  0
   -7.1194   16.7900  -32.9553 H   0  0  0  0  0  0  0  0  0  0  0  0
   -4.6862   17.5416  -34.6125 H   0  0  0  0  0  0  0  0  0  0  0  0
   -6.0311   16.4191  -35.0100 H   0  0  0  0  0  0  0  0  0  0  0  0
   -6.3122   18.1933  -35.0100 H   0  0  0  0  0  0  0  0  0  0  0  0
    0.1510   21.9702  -28.7654 H   0  0  0  0  0  0  0  0  0  0  0  0
    1.5441   23.4169  -27.2990 H   0  0  0  0  0  0  0  0  0  0  0  0
  1  2  2  0
  2  3  1  0
  2  4  1  0
  4  5  1  0
  5  6  1  0
  6  7  2  0
  7  8  1  0
  8  9  2  0
  9 10  1  0
 10 11  2  0
 11 12  1  0
 12 13  2  0
 13 14  1  0
 14 15  2  0
 15 16  1  0
 16 17  2  0
 17 18  1  0
 18 19  2  0
 19 20  1  0
 20 21  1  0
 21 22  1  0
 17 23  1  0
 23 24  1  0
 24 25  1  0
 23 26  2  0
 13 27  1  0
  9 28  1  0
 28 29  2  0
 29  6  1  0
 27 10  1  0
 26 14  1  0
 20 16  1  0
  1 30  1  0
  1 31  1  0
  3 32  1  0
  3 33  1  0
  3 34  1  0
  4 35  1  0
  4 36  1  0
  7 37  1  0
  8 38  1  0
 11 39  1  0
 12 40  1  0
 15 41  1  0
 18 42  1  0
 21 43  1  0
 21 44  1  0
 22 45  1  0
 22 46  1  0
 22 47  1  0
 24 48  1  0
 24 49  1  0
 25 50  1  0
 25 51  1  0
 25 52  1  0
 28 53  1  0
 29 54  1  0
M  END
>  <UniqueID>  (9) 
9

>  <SMILES>  (9) 
C=C(C)COc1ccc(-c2ccc(-c3cc4c(cnn4CC)c(CC)n3)s2)cc1

>  <Energy>  (9) 
115.526601126576

>  <Genealogy>  (9) 
C=C(C)COc1ccc(-c2ccc(-c3cc4c(cnn4CC)c(CC)n3)s2)cc1 (3D coordinates assigned)
C=C(C)COc1ccc(-c2ccc(-c3cc4c(cnn4CC)c(CC)n3)s2)cc1 (optimized conformer: 115.526601126576 kcal/mol)

>  <smiles>  (9) 
C=C(C)COc1ccc(-c2ccc(-c3cc4c(cnn4CC)c(CC)n3)s2)cc1

>  <score_type>  (9) 
oracle

>  <origin>  (9) 
adg

>  <m_score__min__energy>  (9) 
-8.3300000000000001

>  <m_primary>  (9) 
energy

$$$$
9:0
     RDKit          3D

 46 47  0  0  0  0  0  0  0  0999 V2000
   -8.9580   18.9730  -31.9700 C   0  0  0  0  0  0  0  0  0  0  0  0
   -7.6680   18.2020  -31.7280 C   0  0  0  0  0  0  0  0  0  0  0  0
   -7.2560   17.2810  -32.9010 C   0  0  0  0  0  0  0  0  0  0  0  0
   -5.8160   17.2580  -33.2590 N   0  0  0  0  0  0  0  0  0  0  0  0
   -5.2950   15.9730  -33.7610 C   0  0  0  0  0  0  0  0  0  0  0  0
   -4.7010   15.1330  -32.6320 C   0  0  0  0  0  0  0  0  0  0  0  0
   -5.2420   18.6840  -34.1170 S   0  0  0  0  0  0  0  0  0  0  0  0
   -3.8400   18.4440  -34.6070 O   0  0  0  0  0  0  0  0  0  0  0  0
   -6.1000   18.9060  -35.3290 O   0  0  0  0  0  0  0  0  0  0  0  0
   -5.2610   20.1650  -33.1540 C   0  0  0  0  0  0  0  0  0  0  0  0
   -4.1180   20.5520  -32.4200 C   0  0  0  0  0  0  0  0  0  0  0  0
   -4.1310   21.7220  -31.6450 C   0  0  0  0  0  0  0  0  0  0  0  0
   -5.2940   22.4990  -31.6240 C   0  0  0  0  0  0  0  0  0  0  0  0
   -6.4230   22.0920  -32.2820 C   0  0  0  0  0  0  0  0  0  0  0  0
   -6.4390   20.9300  -33.0530 C   0  0  0  0  0  0  0  0  0  0  0  0
   -7.5580   23.0120  -32.0030 C   0  0  0  0  0  0  0  0  0  0  0  0
   -6.9540   24.0340  -31.0110 C   0  0  0  0  0  0  0  0  0  0  0  0
   -5.5400   23.6810  -30.8740 N   0  0  0  0  0  0  0  0  0  0  0  0
   -4.5910   24.5100  -30.1820 C   0  0  0  0  0  0  0  0  0  0  0  0
   -3.8680   25.3000  -30.8470 O   0  0  0  0  0  0  0  0  0  0  0  0
   -4.3440   24.3680  -28.7060 C   0  0  0  0  0  0  0  0  0  0  0  0
   -4.1340   22.9070  -28.3140 C   0  0  0  0  0  0  0  0  0  0  0  0
   -9.4103   19.2433  -31.0044 H   0  0  0  0  0  0  0  0  0  0  0  0
   -8.7372   19.8874  -32.5402 H   0  0  0  0  0  0  0  0  0  0  0  0
   -9.6587   18.3455  -32.5402 H   0  0  0  0  0  0  0  0  0  0  0  0
   -6.8586   18.9270  -31.5567 H   0  0  0  0  0  0  0  0  0  0  0  0
   -7.8445   17.5511  -30.8590 H   0  0  0  0  0  0  0  0  0  0  0  0
   -7.5499   16.2543  -32.6372 H   0  0  0  0  0  0  0  0  0  0  0  0
   -7.7658   17.6936  -33.7841 H   0  0  0  0  0  0  0  0  0  0  0  0
   -6.1170   15.4122  -34.2299 H   0  0  0  0  0  0  0  0  0  0  0  0
   -4.4996   16.1835  -34.4911 H   0  0  0  0  0  0  0  0  0  0  0  0
   -5.0010   15.5572  -31.6625 H   0  0  0  0  0  0  0  0  0  0  0  0
   -5.0704   14.0999  -32.7102 H   0  0  0  0  0  0  0  0  0  0  0  0
   -3.6038   15.1370  -32.7102 H   0  0  0  0  0  0  0  0  0  0  0  0
   -3.2105   19.9315  -32.4561 H   0  0  0  0  0  0  0  0  0  0  0  0
   -3.2450   22.0218  -31.0661 H   0  0  0  0  0  0  0  0  0  0  0  0
   -7.3560   20.6164  -33.5733 H   0  0  0  0  0  0  0  0  0  0  0  0
   -7.8970   23.5097  -32.9235 H   0  0  0  0  0  0  0  0  0  0  0  0
   -8.4422   22.4947  -31.6022 H   0  0  0  0  0  0  0  0  0  0  0  0
   -7.0558   25.0555  -31.4063 H   0  0  0  0  0  0  0  0  0  0  0  0
   -7.4709   24.0053  -30.0404 H   0  0  0  0  0  0  0  0  0  0  0  0
   -3.4461   24.9435  -28.4364 H   0  0  0  0  0  0  0  0  0  0  0  0
   -5.2263   24.7469  -28.1694 H   0  0  0  0  0  0  0  0  0  0  0  0
   -4.1215   22.8197  -27.2175 H   0  0  0  0  0  0  0  0  0  0  0  0
   -4.9537   22.2967  -28.7211 H   0  0  0  0  0  0  0  0  0  0  0  0
   -3.1756   22.5523  -28.7211 H   0  0  0  0  0  0  0  0  0  0  0  0
  1  2  1  0
  2  3  1  0
  3  4  1  0
  4  5  1  0
  5  6  1  0
  4  7  1  0
  7  8  2  0
  7  9  2  0
  7 10  1  0
 10 11  2  0
 11 12  1  0
 12 13  2  0
 13 14  1  0
 14 15  2  0
 14 16  1  0
 16 17  1  0
 17 18  1  0
 18 19  1  0
 19 20  2  0
 19 21  1  0
 21 22  1  0
 15 10  1  0
 18 13  1  0
  1 23  1  0
  1 24  1  0
  1 25  1  0
  2 26  1  0
  2 27  1  0
  3 28  1  0
  3 29  1  0
  5 30  1  0
  5 31  1  0
  6 32  1  0
  6 33  1  0
  6 34  1  0
 11 35  1  0
 12 36  1  0
 15 37  1  0
 16 38  1  0
 16 39  1  0
 17 40  1  0
 17 41  1  0
 21 42  1  0
 21 43  1  0
 22 44  1  0
 22 45  1  0
 22 46  1  0
M  END
>  <UniqueID>  (10) 
10

>  <SMILES>  (10) 
CCCN(CC)S(=O)(=O)c1ccc2c(c1)CCN2C(=O)CC

>  <Energy>  (10) 
65.03503135694055

>  <Genealogy>  (10) 
CCCN(CC)S(=O)(=O)c1ccc2c(c1)CCN2C(=O)CC (3D coordinates assigned)
CCCN(CC)S(=O)(=O)c1ccc2c(c1)CCN2C(=O)CC (nonaromatic ring conformer: 65.03503135694055 kcal/mol)

>  <smiles>  (10) 
CCCN(CC)S(=O)(=O)c1ccc2c(c1)CCN2C(=O)CC

>  <score_type>  (10) 
oracle

>  <origin>  (10) 
adg

>  <m_score__min__energy>  (10) 
-8.5600000000000005

>  <m_primary>  (10) 
energy

$$$$
10:0
     RDKit          3D

 28 28  0  0  0  0  0  0  0  0999 V2000
   -2.7380   21.4060  -27.6360 C   0  0  0  0  0  0  0  0  0  0  0  0
   -2.3990   22.7340  -28.2320 C   0  0  0  0  0  0  0  0  0  0  0  0
   -1.1990   23.3730  -27.9050 C   0  0  0  0  0  0  0  0  0  0  0  0
   -0.9290   24.6150  -28.4790 C   0  0  0  0  0  0  0  0  0  0  0  0
    0.1410   25.2190  -28.2080 O   0  0  0  0  0  0  0  0  0  0  0  0
   -1.8250   25.1760  -29.3320 N   0  0  0  0  0  0  0  0  0  0  0  0
   -2.9900   24.5480  -29.6420 C   0  0  0  0  0  0  0  0  0  0  0  0
   -3.8820   25.1710  -30.5260 O   0  0  0  0  0  0  0  0  0  0  0  0
   -5.2630   24.9260  -30.5990 C   0  0  0  0  0  0  0  0  0  0  0  0
   -6.0910   25.8020  -30.2210 O   0  0  0  0  0  0  0  0  0  0  0  0
   -5.7690   23.5780  -31.0740 C   0  0  0  0  0  0  0  0  0  0  0  0
   -6.9180   23.7780  -32.0840 C   0  0  0  0  0  0  0  0  0  0  0  0
   -6.2820   22.7820  -29.8600 C   0  0  0  0  0  0  0  0  0  0  0  0
   -4.6370   22.7850  -31.7600 C   0  0  0  0  0  0  0  0  0  0  0  0
   -3.2680   23.3350  -29.0890 N   0  0  0  0  0  0  0  0  0  0  0  0
   -2.7189   21.4809  -26.5387 H   0  0  0  0  0  0  0  0  0  0  0  0
   -3.7426   21.1020  -27.9653 H   0  0  0  0  0  0  0  0  0  0  0  0
   -2.0021   20.6577  -27.9653 H   0  0  0  0  0  0  0  0  0  0  0  0
   -0.4843   22.9067  -27.2109 H   0  0  0  0  0  0  0  0  0  0  0  0
   -7.8599   23.9420  -31.5401 H   0  0  0  0  0  0  0  0  0  0  0  0
   -6.7026   24.6522  -32.7160 H   0  0  0  0  0  0  0  0  0  0  0  0
   -7.0107   22.8825  -32.7160 H   0  0  0  0  0  0  0  0  0  0  0  0
   -5.9612   23.2798  -28.9330 H   0  0  0  0  0  0  0  0  0  0  0  0
   -7.3806   22.7353  -29.8898 H   0  0  0  0  0  0  0  0  0  0  0  0
   -5.8707   21.7622  -29.8898 H   0  0  0  0  0  0  0  0  0  0  0  0
   -3.9904   22.3320  -30.9941 H   0  0  0  0  0  0  0  0  0  0  0  0
   -5.0721   21.9932  -32.3875 H   0  0  0  0  0  0  0  0  0  0  0  0
   -4.0415   23.4644  -32.3875 H   0  0  0  0  0  0  0  0  0  0  0  0
  1  2  1  0
  2  3  2  0
  3  4  1  0
  4  5  2  0
  4  6  1  0
  6  7  2  0
  7  8  1  0
  8  9  1  0
  9 10  2  0
  9 11  1  0
 11 12  1  0
 11 13  1  0
 11 14  1  0
  7 15  1  0
 15  2  1  0
  1 16  1  0
  1 17  1  0
  1 18  1  0
  3 19  1  0
 12 20  1  0
 12 21  1  0
 12 22  1  0
 13 23  1  0
 13 24  1  0
 13 25  1  0
 14 26  1  0
 14 27  1  0
 14 28  1  0
M  CHG  1  15  -1
M  END
>  <UniqueID>  (11) 
11

>  <SMILES>  (11) 
Cc1cc(=O)nc(OC(=O)C(C)(C)C)[n-]1

>  <Energy>  (11) 
22.912058960207432

>  <Genealogy>  (11) 
Cc1cc(=O)nc(OC(=O)C(C)(C)C)[n-]1 (protonated)
Cc1cc(=O)nc(OC(=O)C(C)(C)C)[n-]1 (3D coordinates assigned)
Cc1cc(=O)nc(OC(=O)C(C)(C)C)[n-]1 (optimized conformer: 22.912058960207432 kcal/mol)

>  <smiles>  (11) 
Cc1cc(=O)nc(OC(=O)C(C)(C)C)[nH]1

>  <score_type>  (11) 
oracle

>  <origin>  (11) 
adg

>  <m_score__min__energy>  (11) 
-7.3099999999999996

>  <m_primary>  (11) 
energy

$$$$
11:0
     RDKit          3D

 54 56  0  0  0  0  0  0  0  0999 V2000
   -1.7782   21.4712  -30.2610 H   0  0  0  0  0  0  0  0  0  0  0  0
   -2.1090   20.8970  -31.1390 C   0  0  0  0  0  0  0  0  0  0  0  0
   -3.3720   20.6750  -31.3280 N   0  0  0  0  0  0  0  0  0  0  0  0
   -4.2000   21.4560  -32.2000 C   0  0  0  0  0  0  0  0  0  0  0  0
   -3.7950   21.7900  -33.3480 O   0  0  0  0  0  0  0  0  0  0  0  0
   -5.5280   21.9120  -31.7330 C   0  0  0  0  0  0  0  0  0  0  0  0
   -6.6610   21.0750  -31.8980 C   0  0  0  0  0  0  0  0  0  0  0  0
   -6.5840   19.7620  -32.5840 C   0  0  0  0  0  0  0  0  0  0  0  0
   -6.1650   19.6780  -33.9220 C   0  0  0  0  0  0  0  0  0  0  0  0
   -5.8891   20.5924  -34.4676 H   0  0  0  0  0  0  0  0  0  0  0  0
   -6.0970   18.4390  -34.5630 C   0  0  0  0  0  0  0  0  0  0  0  0
   -5.7605   18.3844  -35.6089 H   0  0  0  0  0  0  0  0  0  0  0  0
   -6.4530   17.2660  -33.8870 C   0  0  0  0  0  0  0  0  0  0  0  0
   -6.3640   16.0470  -34.5750 O   0  0  0  0  0  0  0  0  0  0  0  0
   -5.8030   14.8570  -34.0290 C   0  0  0  0  0  0  0  0  0  0  0  0
   -5.8281   14.9103  -32.9306 H   0  0  0  0  0  0  0  0  0  0  0  0
   -6.3862   13.9879  -34.3674 H   0  0  0  0  0  0  0  0  0  0  0  0
   -4.7614   14.7539  -34.3674 H   0  0  0  0  0  0  0  0  0  0  0  0
   -6.8870   17.3500  -32.5500 C   0  0  0  0  0  0  0  0  0  0  0  0
   -7.1744   16.4365  -32.0088 H   0  0  0  0  0  0  0  0  0  0  0  0
   -6.9540   18.5900  -31.9080 C   0  0  0  0  0  0  0  0  0  0  0  0
   -7.2994   18.6470  -30.8652 H   0  0  0  0  0  0  0  0  0  0  0  0
   -7.9080   21.5130  -31.4310 C   0  0  0  0  0  0  0  0  0  0  0  0
   -8.7890   20.8634  -31.5399 H   0  0  0  0  0  0  0  0  0  0  0  0
   -8.0390   22.7280  -30.8470 N   0  0  0  0  0  0  0  0  0  0  0  0
   -6.9820   23.5600  -30.6720 C   0  0  0  0  0  0  0  0  0  0  0  0
   -7.1790   24.8000  -30.0520 C   0  0  0  0  0  0  0  0  0  0  0  0
   -8.1889   25.0999  -29.7355 H   0  0  0  0  0  0  0  0  0  0  0  0
   -6.0990   25.6570  -29.8340 C   0  0  0  0  0  0  0  0  0  0  0  0
   -6.2601   26.6331  -29.3530 H   0  0  0  0  0  0  0  0  0  0  0  0
   -4.8150   25.2760  -30.2260 C   0  0  0  0  0  0  0  0  0  0  0  0
   -3.9645   25.9496  -30.0444 H   0  0  0  0  0  0  0  0  0  0  0  0
   -4.6050   24.0430  -30.8480 C   0  0  0  0  0  0  0  0  0  0  0  0
   -3.5875   23.7479  -31.1441 H   0  0  0  0  0  0  0  0  0  0  0  0
   -5.6880   23.1720  -31.1000 C   0  0  0  0  0  0  0  0  0  0  0  0
   -1.0960   20.3720  -32.1160 C   0  0  0  0  0  0  0  0  0  0  0  0
   -0.5236   19.5638  -31.6372 H   0  0  0  0  0  0  0  0  0  0  0  0
   -0.4355   21.2023  -32.4064 H   0  0  0  0  0  0  0  0  0  0  0  0
   -1.7440   19.8420  -33.3440 N   0  0  0  0  0  0  0  0  0  0  0  0
   -2.7580   20.1140  -33.3260 H   0  0  0  0  0  0  0  0  0  0  0  0
   -1.1060   20.4310  -34.5530 C   0  0  0  0  0  0  0  0  0  0  0  0
   -1.8232   21.1111  -35.0359 H   0  0  0  0  0  0  0  0  0  0  0  0
   -0.8241   19.6044  -35.2218 H   0  0  0  0  0  0  0  0  0  0  0  0
    0.1670   21.2160  -34.2140 C   0  0  0  0  0  0  0  0  0  0  0  0
    0.2762   21.2834  -33.1215 H   0  0  0  0  0  0  0  0  0  0  0  0
    1.0404   20.6994  -34.6387 H   0  0  0  0  0  0  0  0  0  0  0  0
    0.0975   22.2283  -34.6387 H   0  0  0  0  0  0  0  0  0  0  0  0
   -1.6460   18.3570  -33.3750 C   0  0  0  0  0  0  0  0  0  0  0  0
   -1.0291   18.0610  -34.2363 H   0  0  0  0  0  0  0  0  0  0  0  0
   -1.1950   18.0295  -32.4266 H   0  0  0  0  0  0  0  0  0  0  0  0
   -3.0190   17.6860  -33.4980 C   0  0  0  0  0  0  0  0  0  0  0  0
   -3.4221   17.4890  -32.4937 H   0  0  0  0  0  0  0  0  0  0  0  0
   -3.7044   18.3507  -34.0443 H   0  0  0  0  0  0  0  0  0  0  0  0
   -2.9156   16.7369  -34.0443 H   0  0  0  0  0  0  0  0  0  0  0  0
  1  2  1  0
  2  3  2  0
  3  4  1  0
  4  5  2  0
  4  6  1  0
  6  7  2  0
  7  8  1  0
  8  9  2  0
  9 10  1  0
  9 11  1  0
 11 12  1  0
 11 13  2  0
 13 14  1  0
 14 15  1  0
 15 16  1  0
 15 17  1  0
 15 18  1  0
 13 19  1  0
 19 20  1  0
 19 21  2  0
 21 22  1  0
  7 23  1  0
 23 24  1  0
 23 25  2  0
 25 26  1  0
 26 27  2  0
 27 28  1  0
 27 29  1  0
 29 30  1  0
 29 31  2  0
 31 32  1  0
 31 33  1  0
 33 34  1  0
 33 35  2  0
  2 36  1  0
 36 37  1  0
 36 38  1  0
 36 39  1  0
 39 40  1  0
 39 41  1  0
 41 42  1  0
 41 43  1  0
 41 44  1  0
 44 45  1  0
 44 46  1  0
 44 47  1  0
 39 48  1  0
 48 49  1  0
 48 50  1  0
 48 51  1  0
 51 52  1  0
 51 53  1  0
 51 54  1  0
 35  6  1  0
 21  8  1  0
 35 26  1  0
M  CHG  1  39   1
M  END
>  <UniqueID>  (12) 
12

>  <SMILES>  (12) 
CC[NH+](CC)C/C=N/C(=O)c1c(-c2ccc(OC)cc2)cnc2ccccc12

>  <Energy>  (12) 
73.72355987061616

>  <Genealogy>  (12) 
CC[NH+](CC)CC=NC(=O)c1c(-c2ccc(OC)cc2)cnc2ccccc12 (protonated)
CC[NH+](CC)C/C=N/C(=O)c1c(-c2ccc(OC)cc2)cnc2ccccc12 (cis-trans isomerization)
CC[NH+](CC)C/C=N/C(=O)c1c(-c2ccc(OC)cc2)cnc2ccccc12 (3D coordinates assigned)
CC[NH+](CC)C/C=N/C(=O)c1c(-c2ccc(OC)cc2)cnc2ccccc12 (optimized conformer: 73.72355987061616 kcal/mol)

>  <smiles>  (12) 
CCN(CC)CC=NC(=O)c1c(-c2ccc(OC)cc2)cnc2ccccc12

>  <score_type>  (12) 
oracle

>  <origin>  (12) 
adg

>  <m_score__min__energy>  (12) 
-7.0899999999999999

>  <m_primary>  (12) 
energy

$$$$
12:0
     RDKit          3D

 45 47  0  0  0  0  0  0  0  0999 V2000
   -9.1000   19.6940  -31.9610 C   0  0  0  0  0  0  0  0  0  0  0  0
   -7.7730   19.3120  -31.6120 O   0  0  0  0  0  0  0  0  0  0  0  0
   -6.6840   19.2740  -32.5010 C   0  0  0  0  0  0  0  0  0  0  0  0
   -6.5250   18.2020  -33.3980 C   0  0  0  0  0  0  0  0  0  0  0  0
   -5.4060   18.1260  -34.2180 C   0  0  0  0  0  0  0  0  0  0  0  0
   -4.4110   19.0920  -34.1310 C   0  0  0  0  0  0  0  0  0  0  0  0
   -4.5340   20.1770  -33.2420 C   0  0  0  0  0  0  0  0  0  0  0  0
   -3.4790   21.0940  -33.0950 O   0  0  0  0  0  0  0  0  0  0  0  0
   -2.2400   20.8240  -32.4450 C   0  0  0  0  0  0  0  0  0  0  0  0
   -5.7260   20.3230  -32.4720 C   0  0  0  0  0  0  0  0  0  0  0  0
   -5.9620   21.5030  -31.5130 C   0  0  1  0  0  0  0  0  0  0  0  0
   -4.7660   22.2970  -31.2250 N   0  0  0  0  0  0  0  0  0  0  0  0
   -5.2360   23.4920  -30.5240 C   0  0  1  0  0  0  0  0  0  0  0  0
   -4.1380   24.5190  -30.3480 C   0  0  0  0  0  0  0  0  0  0  0  0
   -4.2730   25.6750  -30.8340 O   0  0  0  0  0  0  0  0  0  0  0  0
   -2.9190   24.2140  -29.5770 C   0  0  0  0  0  0  0  0  0  0  0  0
   -2.5850   23.0010  -28.9980 C   0  0  0  0  0  0  0  0  0  0  0  0
   -1.3980   23.1500  -28.3860 N   0  0  0  0  0  0  0  0  0  0  0  0
   -0.6360   22.1150  -27.6890 C   0  0  0  0  0  0  0  0  0  0  0  0
   -0.2360   20.9960  -28.6490 C   0  0  0  0  0  0  0  0  0  0  0  0
   -1.1760   19.9820  -28.6140 F   0  0  0  0  0  0  0  0  0  0  0  0
    0.9910   20.4830  -28.2730 F   0  0  0  0  0  0  0  0  0  0  0  0
   -0.1420   21.4860  -29.9390 F   0  0  0  0  0  0  0  0  0  0  0  0
   -1.0410   24.4300  -28.6160 C   0  0  0  0  0  0  0  0  0  0  0  0
    0.0360   24.9380  -28.2020 O   0  0  0  0  0  0  0  0  0  0  0  0
   -1.9450   25.1200  -29.3370 N   0  0  0  0  0  0  0  0  0  0  0  0
   -6.4170   24.0590  -31.3070 C   0  0  0  0  0  0  0  0  0  0  0  0
   -7.2270   22.6690  -32.1450 S   0  0  0  0  0  0  0  0  0  0  0  0
   -9.6858   19.8626  -31.0454 H   0  0  0  0  0  0  0  0  0  0  0  0
   -9.0711   20.6203  -32.5536 H   0  0  0  0  0  0  0  0  0  0  0  0
   -9.5680   18.8941  -32.5536 H   0  0  0  0  0  0  0  0  0  0  0  0
   -7.2936   17.4168  -33.4506 H   0  0  0  0  0  0  0  0  0  0  0  0
   -5.3076   17.2997  -34.9373 H   0  0  0  0  0  0  0  0  0  0  0  0
   -3.5158   19.0080  -34.7647 H   0  0  0  0  0  0  0  0  0  0  0  0
   -2.3834   20.8553  -31.3548 H   0  0  0  0  0  0  0  0  0  0  0  0
   -1.8813   19.8266  -32.7392 H   0  0  0  0  0  0  0  0  0  0  0  0
   -1.4988   21.5817  -32.7392 H   0  0  0  0  0  0  0  0  0  0  0  0
   -6.2975   21.0098  -30.5888 H   0  0  0  0  0  0  0  0  0  0  0  0
   -4.3780   22.6110  -32.1490 H   0  0  0  0  0  0  0  0  0  0  0  0
   -5.5530   23.2211  -29.5061 H   0  0  0  0  0  0  0  0  0  0  0  0
   -3.1847   22.0795  -29.0329 H   0  0  0  0  0  0  0  0  0  0  0  0
    0.2720   22.5634  -27.2596 H   0  0  0  0  0  0  0  0  0  0  0  0
   -1.2657   21.6890  -26.8940 H   0  0  0  0  0  0  0  0  0  0  0  0
   -7.1237   24.5480  -30.6204 H   0  0  0  0  0  0  0  0  0  0  0  0
   -6.0763   24.8082  -32.0368 H   0  0  0  0  0  0  0  0  0  0  0  0
  1  2  1  0
  2  3  1  0
  3  4  2  0
  4  5  1  0
  5  6  2  0
  6  7  1  0
  7  8  1  0
  8  9  1  0
  7 10  2  0
 10 11  1  0
 11 12  1  0
 12 13  1  0
 13 14  1  0
 14 15  2  0
 14 16  1  0
 16 17  2  0
 17 18  1  0
 18 19  1  0
 19 20  1  0
 20 21  1  0
 20 22  1  0
 20 23  1  0
 18 24  1  0
 24 25  2  0
 24 26  1  0
 13 27  1  0
 27 28  1  0
 10  3  1  0
 28 11  1  0
 26 16  1  0
  1 29  1  0
  1 30  1  0
  1 31  1  0
  4 32  1  0
  5 33  1  0
  6 34  1  0
  9 35  1  0
  9 36  1  0
  9 37  1  0
 11 38  1  1
 12 39  1  0
 13 40  1  1
 17 41  1  0
 19 42  1  0
 19 43  1  0
 27 44  1  0
 27 45  1  0
M  CHG  1  26  -1
M  END
>  <UniqueID>  (13) 
13

>  <SMILES>  (13) 
COc1cccc(OC)c1[C@H]1N[C@@H](C(=O)c2cn(CC(F)(F)F)c(=O)[n-]2)CS1

>  <Energy>  (13) 
79.1761254309234

>  <Genealogy>  (13) 
COc1cccc(OC)c1C1NC(C(=O)c2cn(CC(F)(F)F)c(=O)[n-]2)CS1 (protonated)
COc1cccc(OC)c1[C@H]1N[C@@H](C(=O)c2cn(CC(F)(F)F)c(=O)[n-]2)CS1 (chirality)
COc1cccc(OC)c1[C@H]1N[C@@H](C(=O)c2cn(CC(F)(F)F)c(=O)[n-]2)CS1 (3D coordinates assigned)
COc1cccc(OC)c1[C@H]1N[C@@H](C(=O)c2cn(CC(F)(F)F)c(=O)[n-]2)CS1 (nonaromatic ring conformer: 79.1761254309234 kcal/mol)

>  <smiles>  (13) 
COc1cccc(OC)c1C1NC(C(=O)c2cn(CC(F)(F)F)c(=O)[nH]2)CS1

>  <score_type>  (13) 
oracle

>  <origin>  (13) 
adg

>  <m_score__min__energy>  (13) 
-9.0700000000000003

>  <m_primary>  (13) 
energy

$$$$
13:0
     RDKit          3D

 51 53  0  0  0  0  0  0  0  0999 V2000
   -0.8920   24.5160  -25.8690 C   0  0  0  0  0  0  0  0  0  0  0  0
   -1.2380   25.6540  -26.7290 N   0  0  0  0  0  0  0  0  0  0  0  0
   -1.1900   27.0180  -26.1960 C   0  0  0  0  0  0  0  0  0  0  0  0
   -1.4870   25.4590  -28.1370 C   0  0  0  0  0  0  0  0  0  0  0  0
   -1.2370   26.3920  -28.9490 O   0  0  0  0  0  0  0  0  0  0  0  0
   -2.0090   24.1820  -28.6620 C   0  0  0  0  0  0  0  0  0  0  0  0
   -1.1740   23.0590  -28.7720 C   0  0  0  0  0  0  0  0  0  0  0  0
   -1.6690   21.8590  -29.2900 C   0  0  0  0  0  0  0  0  0  0  0  0
   -3.0090   21.7610  -29.6960 C   0  0  0  0  0  0  0  0  0  0  0  0
   -3.5200   20.4960  -30.3450 C   0  0  0  0  0  0  0  0  0  0  0  0
   -2.6850   20.0920  -31.4900 N   0  0  0  0  0  0  0  0  0  0  0  0
   -2.2570   21.2500  -32.2930 C   0  0  0  0  0  0  0  0  0  0  0  0
   -3.2160   21.4880  -33.4660 C   0  0  0  0  0  0  0  0  0  0  0  0
   -4.4510   20.8040  -33.2490 O   0  0  0  0  0  0  0  0  0  0  0  0
   -5.6080   21.3640  -32.6730 C   0  0  0  0  0  0  0  0  0  0  0  0
   -5.6650   22.7190  -32.2830 C   0  0  0  0  0  0  0  0  0  0  0  0
   -6.8270   23.2490  -31.7180 C   0  0  0  0  0  0  0  0  0  0  0  0
   -6.8610   24.5520  -31.3450 F   0  0  0  0  0  0  0  0  0  0  0  0
   -7.9500   22.4450  -31.5320 C   0  0  0  0  0  0  0  0  0  0  0  0
   -7.9180   21.0940  -31.9040 C   0  0  0  0  0  0  0  0  0  0  0  0
   -9.0480   20.2800  -31.7130 C   0  0  0  0  0  0  0  0  0  0  0  0
   -9.0150   18.9350  -32.0850 C   0  0  0  0  0  0  0  0  0  0  0  0
   -7.8600   18.3900  -32.6480 C   0  0  0  0  0  0  0  0  0  0  0  0
   -6.7280   19.1860  -32.8440 C   0  0  0  0  0  0  0  0  0  0  0  0
   -6.7410   20.5460  -32.4760 C   0  0  0  0  0  0  0  0  0  0  0  0
   -3.8530   22.8740  -29.5560 C   0  0  0  0  0  0  0  0  0  0  0  0
   -3.3580   24.0720  -29.0330 C   0  0  0  0  0  0  0  0  0  0  0  0
   -0.9823   24.8131  -24.8137 H   0  0  0  0  0  0  0  0  0  0  0  0
   -1.5765   23.6798  -26.0744 H   0  0  0  0  0  0  0  0  0  0  0  0
    0.1421   24.2023  -26.0744 H   0  0  0  0  0  0  0  0  0  0  0  0
   -1.1913   26.9823  -25.0966 H   0  0  0  0  0  0  0  0  0  0  0  0
   -0.2738   27.5163  -26.5456 H   0  0  0  0  0  0  0  0  0  0  0  0
   -2.0689   27.5794  -26.5456 H   0  0  0  0  0  0  0  0  0  0  0  0
   -0.1246   23.1238  -28.4488 H   0  0  0  0  0  0  0  0  0  0  0  0
   -1.0049   20.9867  -29.3800 H   0  0  0  0  0  0  0  0  0  0  0  0
   -3.5172   19.6872  -29.5994 H   0  0  0  0  0  0  0  0  0  0  0  0
   -4.5376   20.6890  -30.7154 H   0  0  0  0  0  0  0  0  0  0  0  0
   -1.8350   19.6060  -31.1180 H   0  0  0  0  0  0  0  0  0  0  0  0
   -3.2150   19.4180  -32.0900 H   0  0  0  0  0  0  0  0  0  0  0  0
   -2.2409   22.1451  -31.6538 H   0  0  0  0  0  0  0  0  0  0  0  0
   -1.2537   21.0467  -32.6954 H   0  0  0  0  0  0  0  0  0  0  0  0
   -3.4112   22.5664  -33.5609 H   0  0  0  0  0  0  0  0  0  0  0  0
   -2.7536   21.1039  -34.3872 H   0  0  0  0  0  0  0  0  0  0  0  0
   -4.7855   23.3641  -32.4254 H   0  0  0  0  0  0  0  0  0  0  0  0
   -8.8636   22.8716  -31.0923 H   0  0  0  0  0  0  0  0  0  0  0  0
   -9.9608   20.7041  -31.2692 H   0  0  0  0  0  0  0  0  0  0  0  0
   -9.9022   18.3025  -31.9339 H   0  0  0  0  0  0  0  0  0  0  0  0
   -7.8405   17.3293  -32.9387 H   0  0  0  0  0  0  0  0  0  0  0  0
   -5.8218   18.7482  -33.2881 H   0  0  0  0  0  0  0  0  0  0  0  0
   -4.9080   22.8031  -29.8591 H   0  0  0  0  0  0  0  0  0  0  0  0
   -4.0302   24.9342  -28.9114 H   0  0  0  0  0  0  0  0  0  0  0  0
  1  2  1  0
  2  3  1  0
  2  4  1  0
  4  5  2  0
  4  6  1  0
  6  7  2  0
  7  8  1  0
  8  9  2  0
  9 10  1  0
 10 11  1  0
 11 12  1  0
 12 13  1  0
 13 14  1  0
 14 15  1  0
 15 16  2  0
 16 17  1  0
 17 18  1  0
 17 19  2  0
 19 20  1  0
 20 21  2  0
 21 22  1  0
 22 23  2  0
 23 24  1  0
 24 25  2  0
  9 26  1  0
 26 27  2  0
 27  6  1  0
 25 15  1  0
 25 20  1  0
  1 28  1  0
  1 29  1  0
  1 30  1  0
  3 31  1  0
  3 32  1  0
  3 33  1  0
  7 34  1  0
  8 35  1  0
 10 36  1  0
 10 37  1  0
 11 38  1  0
 11 39  1  0
 12 40  1  0
 12 41  1  0
 13 42  1  0
 13 43  1  0
 16 44  1  0
 19 45  1  0
 21 46  1  0
 22 47  1  0
 23 48  1  0
 24 49  1  0
 26 50  1  0
 27 51  1  0
M  CHG  1  11   1
M  END
>  <UniqueID>  (14) 
14

>  <SMILES>  (14) 
CN(C)C(=O)c1ccc(C[NH2+]CCOc2cc(F)cc3ccccc23)cc1

>  <Energy>  (14) 
56.84835710694262

>  <Genealogy>  (14) 
CN(C)C(=O)c1ccc(C[NH2+]CCOc2cc(F)cc3ccccc23)cc1 (protonated)
CN(C)C(=O)c1ccc(C[NH2+]CCOc2cc(F)cc3ccccc23)cc1 (3D coordinates assigned)
CN(C)C(=O)c1ccc(C[NH2+]CCOc2cc(F)cc3ccccc23)cc1 (optimized conformer: 56.84835710694262 kcal/mol)

>  <smiles>  (14) 
CN(C)C(=O)c1ccc(CNCCOc2cc(F)cc3ccccc23)cc1

>  <score_type>  (14) 
oracle

>  <origin>  (14) 
adg

>  <m_score__min__energy>  (14) 
-8.1300000000000008

>  <m_primary>  (14) 
energy

$$$$
14:0
     RDKit          3D

 38 37  0  0  0  0  0  0  0  0999 V2000
   -7.6390   23.4210  -32.2660 C   0  0  0  0  0  0  0  0  0  0  0  0
   -6.5950   22.7520  -31.4510 N   0  0  0  0  0  0  0  0  0  0  0  0
   -5.4430   22.4380  -32.3290 C   0  0  0  0  0  0  0  0  0  0  0  0
   -7.1290   21.4820  -30.9060 C   0  0  0  0  0  0  0  0  0  0  0  0
   -6.1180   23.6460  -30.3540 C   0  0  0  0  0  0  0  0  0  0  0  0
   -4.7200   24.1750  -30.5510 C   0  0  0  0  0  0  0  0  0  0  0  0
   -4.5500   25.3870  -30.8590 O   0  0  0  0  0  0  0  0  0  0  0  0
   -3.6270   23.3120  -30.4050 O   0  0  0  0  0  0  0  0  0  0  0  0
   -3.6140   22.1800  -29.5250 C   0  0  0  0  0  0  0  0  0  0  0  0
   -2.9320   22.4730  -28.2310 N   0  0  0  0  0  0  0  0  0  0  0  0
   -3.7580   23.4170  -27.4380 C   0  0  0  0  0  0  0  0  0  0  0  0
   -2.7550   21.2060  -27.4760 C   0  0  0  0  0  0  0  0  0  0  0  0
   -1.6040   23.0830  -28.5570 C   0  0  0  0  0  0  0  0  0  0  0  0
   -1.4720   24.5930  -28.2740 C   0  0  0  0  0  0  0  0  0  0  0  0
   -2.0830   25.2980  -29.2940 F   0  0  0  0  0  0  0  0  0  0  0  0
   -8.3766   23.8936  -31.6007 H   0  0  0  0  0  0  0  0  0  0  0  0
   -7.1726   24.1889  -32.9007 H   0  0  0  0  0  0  0  0  0  0  0  0
   -8.1418   22.6764  -32.9007 H   0  0  0  0  0  0  0  0  0  0  0  0
   -4.5652   22.1987  -31.7107 H   0  0  0  0  0  0  0  0  0  0  0  0
   -5.6906   21.5746  -32.9640 H   0  0  0  0  0  0  0  0  0  0  0  0
   -5.2182   23.3076  -32.9640 H   0  0  0  0  0  0  0  0  0  0  0  0
   -7.1133   21.5194  -29.8067 H   0  0  0  0  0  0  0  0  0  0  0  0
   -8.1630   21.3400  -31.2533 H   0  0  0  0  0  0  0  0  0  0  0  0
   -6.5072   20.6437  -31.2533 H   0  0  0  0  0  0  0  0  0  0  0  0
   -6.8043   24.5028  -30.2843 H   0  0  0  0  0  0  0  0  0  0  0  0
   -6.0996   23.0387  -29.4370 H   0  0  0  0  0  0  0  0  0  0  0  0
   -4.6523   21.8820  -29.3175 H   0  0  0  0  0  0  0  0  0  0  0  0
   -3.0552   21.3742  -30.0235 H   0  0  0  0  0  0  0  0  0  0  0  0
   -3.5972   23.2332  -26.3655 H   0  0  0  0  0  0  0  0  0  0  0  0
   -3.4686   24.4502  -27.6804 H   0  0  0  0  0  0  0  0  0  0  0  0
   -4.8205   23.2673  -27.6804 H   0  0  0  0  0  0  0  0  0  0  0  0
   -2.7842   21.4153  -26.3965 H   0  0  0  0  0  0  0  0  0  0  0  0
   -3.5644   20.5080  -27.7362 H   0  0  0  0  0  0  0  0  0  0  0  0
   -1.7853   20.7565  -27.7362 H   0  0  0  0  0  0  0  0  0  0  0  0
   -0.8381   22.5604  -27.9652 H   0  0  0  0  0  0  0  0  0  0  0  0
   -1.4824   22.9709  -29.6445 H   0  0  0  0  0  0  0  0  0  0  0  0
   -1.9588   24.8327  -27.3172 H   0  0  0  0  0  0  0  0  0  0  0  0
   -0.4086   24.8685  -28.2175 H   0  0  0  0  0  0  0  0  0  0  0  0
  1  2  1  0
  2  3  1  0
  2  4  1  0
  2  5  1  0
  5  6  1  0
  6  7  2  0
  6  8  1  0
  8  9  1  0
  9 10  1  0
 10 11  1  0
 10 12  1  0
 10 13  1  0
 13 14  1  0
 14 15  1  0
  1 16  1  0
  1 17  1  0
  1 18  1  0
  3 19  1  0
  3 20  1  0
  3 21  1  0
  4 22  1  0
  4 23  1  0
  4 24  1  0
  5 25  1  0
  5 26  1  0
  9 27  1  0
  9 28  1  0
 11 29  1  0
 11 30  1  0
 11 31  1  0
 12 32  1  0
 12 33  1  0
 12 34  1  0
 13 35  1  0
 13 36  1  0
 14 37  1  0
 14 38  1  0
M  CHG  2   2   1  10   1
M  END
>  <UniqueID>  (15) 
15

>  <SMILES>  (15) 
C[N+](C)(C)CC(=O)OC[N+](C)(C)CCF

>  <Energy>  (15) 
44.374461338272006

>  <Genealogy>  (15) 
C[N+](C)(C)CC(=O)OC[N+](C)(C)CCF (3D coordinates assigned)
C[N+](C)(C)CC(=O)OC[N+](C)(C)CCF (optimized conformer: 44.374461338272006 kcal/mol)

>  <smiles>  (15) 
C[N+](C)(C)CC(=O)OC[N+](C)(C)CCF

>  <score_type>  (15) 
oracle

>  <origin>  (15) 
adg

>  <m_score__min__energy>  (15) 
-2.6000000000000001

>  <m_primary>  (15) 
energy

$$$$
15:0
     RDKit          3D

 50 53  0  0  0  0  0  0  0  0999 V2000
   -9.3890   18.1890  -31.5940 C   0  0  0  0  0  0  0  0  0  0  0  0
   -8.1650   18.3360  -32.3060 O   0  0  0  0  0  0  0  0  0  0  0  0
   -7.1770   19.2810  -31.9950 C   0  0  0  0  0  0  0  0  0  0  0  0
   -7.5850   20.5600  -31.5680 C   0  0  0  0  0  0  0  0  0  0  0  0
   -6.6360   21.5390  -31.2380 C   0  0  0  0  0  0  0  0  0  0  0  0
   -5.2790   21.2280  -31.3580 C   0  0  0  0  0  0  0  0  0  0  0  0
   -4.8720   19.9850  -31.7690 C   0  0  0  0  0  0  0  0  0  0  0  0
   -5.7960   18.9890  -32.0900 C   0  0  0  0  0  0  0  0  0  0  0  0
   -3.3900   19.8600  -31.7800 C   0  0  0  0  0  0  0  0  0  0  0  0
   -2.8880   21.3400  -31.6780 C   0  0  2  0  0  0  0  0  0  0  0  0
   -2.6360   21.8960  -33.1140 C   0  0  0  0  0  0  0  0  0  0  0  0
   -1.4960   21.1770  -33.8700 C   0  0  0  0  0  0  0  0  0  0  0  0
   -0.4100   20.5770  -32.9440 C   0  0  1  0  0  0  0  0  0  0  0  0
    0.8400   20.5610  -33.6120 O   0  0  0  0  0  0  0  0  0  0  0  0
    0.7500   21.2260  -34.8540 C   0  0  0  0  0  0  0  0  0  0  0  0
   -0.2660   21.4210  -31.6740 C   0  0  0  0  0  0  0  0  0  0  0  0
   -1.5660   21.4670  -30.8430 C   0  0  0  0  0  0  0  0  0  0  0  0
   -4.1120   22.0800  -31.0040 C   0  0  1  0  0  0  0  0  0  0  0  0
   -4.2830   23.4650  -31.4550 N   0  0  0  0  0  0  0  0  0  0  0  0
   -4.3070   24.2600  -30.4290 C   0  0  0  0  0  0  0  0  0  0  0  0
   -4.4300   25.6750  -30.5770 N   0  0  0  0  0  0  0  0  0  0  0  0
   -4.1960   23.6090  -29.1650 N   0  0  0  0  0  0  0  0  0  0  0  0
   -3.7480   24.2180  -27.9190 C   0  0  0  0  0  0  0  0  0  0  0  0
   -4.0370   22.2470  -29.5180 C   0  0  0  0  0  0  0  0  0  0  0  0
   -3.8640   21.3190  -28.6810 O   0  0  0  0  0  0  0  0  0  0  0  0
   -9.1893   18.2130  -30.5126 H   0  0  0  0  0  0  0  0  0  0  0  0
  -10.0688   19.0120  -31.8597 H   0  0  0  0  0  0  0  0  0  0  0  0
   -9.8546   17.2285  -31.8597 H   0  0  0  0  0  0  0  0  0  0  0  0
   -8.6574   20.7931  -31.4927 H   0  0  0  0  0  0  0  0  0  0  0  0
   -6.9542   22.5332  -30.8912 H   0  0  0  0  0  0  0  0  0  0  0  0
   -5.4559   17.9935  -32.4115 H   0  0  0  0  0  0  0  0  0  0  0  0
   -3.0405   19.2679  -30.9214 H   0  0  0  0  0  0  0  0  0  0  0  0
   -3.0138   19.3446  -32.6760 H   0  0  0  0  0  0  0  0  0  0  0  0
   -3.5625   21.7849  -33.6965 H   0  0  0  0  0  0  0  0  0  0  0  0
   -2.3328   22.9474  -33.0018 H   0  0  0  0  0  0  0  0  0  0  0  0
   -1.9345   20.3612  -34.4634 H   0  0  0  0  0  0  0  0  0  0  0  0
   -1.0000   21.9343  -34.4949 H   0  0  0  0  0  0  0  0  0  0  0  0
   -0.7130   19.5533  -32.6788 H   0  0  0  0  0  0  0  0  0  0  0  0
    0.6043   22.3029  -34.6836 H   0  0  0  0  0  0  0  0  0  0  0  0
    1.6778   21.0671  -35.4231 H   0  0  0  0  0  0  0  0  0  0  0  0
   -0.1022   20.8262  -35.4231 H   0  0  0  0  0  0  0  0  0  0  0  0
    0.5340   20.9908  -31.0536 H   0  0  0  0  0  0  0  0  0  0  0  0
   -0.0303   22.4503  -31.9822 H   0  0  0  0  0  0  0  0  0  0  0  0
   -1.5383   20.6394  -30.1189 H   0  0  0  0  0  0  0  0  0  0  0  0
   -1.5944   22.4592  -30.3690 H   0  0  0  0  0  0  0  0  0  0  0  0
   -4.5030   26.0980  -31.5280 H   0  0  0  0  0  0  0  0  0  0  0  0
   -4.4520   26.3020  -29.7440 H   0  0  0  0  0  0  0  0  0  0  0  0
   -4.1607   23.6570  -27.0675 H   0  0  0  0  0  0  0  0  0  0  0  0
   -2.6491   24.1961  -27.8745 H   0  0  0  0  0  0  0  0  0  0  0  0
   -4.0961   25.2605  -27.8745 H   0  0  0  0  0  0  0  0  0  0  0  0
  1  2  1  0
  2  3  1  0
  3  4  2  0
  4  5  1  0
  5  6  2  0
  6  7  1  0
  7  8  2  0
  7  9  1  0
 10  9  1  6
 10 11  1  0
 11 12  1  0
 12 13  1  0
 13 14  1  0
 14 15  1  0
 13 16  1  0
 16 17  1  0
 18 10  1  0
 18 19  1  6
 19 20  2  0
 20 21  1  0
 20 22  1  0
 22 23  1  0
 22 24  1  0
 24 25  2  0
  8  3  1  0
 17 10  1  0
 24 18  1  0
 18  6  1  0
  1 26  1  0
  1 27  1  0
  1 28  1  0
  4 29  1  0
  5 30  1  0
  8 31  1  0
  9 32  1  0
  9 33  1  0
 11 34  1  0
 11 35  1  0
 12 36  1  0
 12 37  1  0
 13 38  1  1
 15 39  1  0
 15 40  1  0
 15 41  1  0
 16 42  1  0
 16 43  1  0
 17 44  1  0
 17 45  1  0
 21 46  1  0
 21 47  1  0
 23 48  1  0
 23 49  1  0
 23 50  1  0
M  END
>  <UniqueID>  (16) 
16

>  <SMILES>  (16) 
COc1ccc2c(c1)CC1(CCC(OC)CC1)[C@@]21N=C(N)N(C)C1=O

>  <Energy>  (16) 
93.80911510844466

>  <Genealogy>  (16) 
COc1ccc2c(c1)CC1(CCC(OC)CC1)[C@@]21N=C(N)N(C)C1=O (chirality)
COc1ccc2c(c1)CC1(CCC(OC)CC1)[C@@]21N=C(N)N(C)C1=O (3D coordinates assigned)
COc1ccc2c(c1)CC1(CCC(OC)CC1)[C@@]21N=C(N)N(C)C1=O (nonaromatic ring conformer: 93.80911510844466 kcal/mol)

>  <smiles>  (16) 
COc1ccc2c(c1)CC1(CCC(OC)CC1)C21N=C(N)N(C)C1=O

>  <score_type>  (16) 
oracle

>  <origin>  (16) 
adg

>  <m_score__min__energy>  (16) 
-7.4400000000000004

>  <m_primary>  (16) 
energy

$$$$
16:0
     RDKit          3D

 50 53  0  0  0  0  0  0  0  0999 V2000
   -4.3870   17.5800  -34.9610 C   0  0  0  0  0  0  0  0  0  0  0  0
   -5.5270   18.5420  -34.6560 C   0  0  0  0  0  0  0  0  0  0  0  0
   -5.9170   18.4570  -33.2430 N   0  0  0  0  0  0  0  0  0  0  0  0
   -6.1660   17.1570  -32.6060 C   0  0  0  0  0  0  0  0  0  0  0  0
   -6.1340   17.2840  -31.0870 C   0  0  0  0  0  0  0  0  0  0  0  0
   -6.3710   19.6470  -32.5820 C   0  0  0  0  0  0  0  0  0  0  0  0
   -5.4710   20.5210  -32.0470 N   0  0  0  0  0  0  0  0  0  0  0  0
   -5.8570   21.6700  -31.4070 C   0  0  0  0  0  0  0  0  0  0  0  0
   -4.8260   22.5870  -30.8690 C   0  0  0  0  0  0  0  0  0  0  0  0
   -5.1620   23.9250  -30.6080 C   0  0  0  0  0  0  0  0  0  0  0  0
   -4.2110   24.8070  -30.0870 C   0  0  0  0  0  0  0  0  0  0  0  0
   -2.9030   24.3790  -29.8460 C   0  0  0  0  0  0  0  0  0  0  0  0
   -1.9820   25.2920  -29.3110 O   0  0  0  0  0  0  0  0  0  0  0  0
   -1.7950   25.5490  -27.9460 C   0  0  0  0  0  0  0  0  0  0  0  0
   -0.6880   26.3080  -27.5470 C   0  0  0  0  0  0  0  0  0  0  0  0
   -0.4570   26.5640  -26.1910 C   0  0  0  0  0  0  0  0  0  0  0  0
   -1.3230   26.0450  -25.2250 C   0  0  0  0  0  0  0  0  0  0  0  0
   -2.4220   25.2750  -25.6120 C   0  0  0  0  0  0  0  0  0  0  0  0
   -2.6580   25.0240  -26.9680 C   0  0  0  0  0  0  0  0  0  0  0  0
   -2.5600   23.0410  -30.1040 C   0  0  0  0  0  0  0  0  0  0  0  0
   -3.5090   22.1510  -30.6180 C   0  0  0  0  0  0  0  0  0  0  0  0
   -3.1260   20.8800  -30.8990 F   0  0  0  0  0  0  0  0  0  0  0  0
   -7.2320   21.9730  -31.3180 C   0  0  0  0  0  0  0  0  0  0  0  0
   -8.1080   21.0890  -31.8570 N   0  0  0  0  0  0  0  0  0  0  0  0
   -9.4490   21.1280  -31.9250 C   0  0  0  0  0  0  0  0  0  0  0  0
   -9.8600   19.9860  -32.5980 C   0  0  0  0  0  0  0  0  0  0  0  0
   -8.7750   19.2550  -32.9400 N   0  0  0  0  0  0  0  0  0  0  0  0
   -7.7270   19.9600  -32.4710 C   0  0  0  0  0  0  0  0  0  0  0  0
   -3.9537   17.2143  -34.0184 H   0  0  0  0  0  0  0  0  0  0  0  0
   -4.7711   16.7289  -35.5425 H   0  0  0  0  0  0  0  0  0  0  0  0
   -3.6126   18.1017  -35.5425 H   0  0  0  0  0  0  0  0  0  0  0  0
   -5.2018   19.5689  -34.8792 H   0  0  0  0  0  0  0  0  0  0  0  0
   -6.3930   18.2709  -35.2777 H   0  0  0  0  0  0  0  0  0  0  0  0
   -7.1542   16.7866  -32.9163 H   0  0  0  0  0  0  0  0  0  0  0  0
   -5.3789   16.4547  -32.9180 H   0  0  0  0  0  0  0  0  0  0  0  0
   -6.3788   16.3126  -30.6326 H   0  0  0  0  0  0  0  0  0  0  0  0
   -5.1292   17.5961  -30.7662 H   0  0  0  0  0  0  0  0  0  0  0  0
   -6.8710   18.0350  -30.7662 H   0  0  0  0  0  0  0  0  0  0  0  0
   -6.1816   24.2820  -30.8151 H   0  0  0  0  0  0  0  0  0  0  0  0
   -4.4946   25.8463  -29.8650 H   0  0  0  0  0  0  0  0  0  0  0  0
    0.0041   26.7053  -28.3041 H   0  0  0  0  0  0  0  0  0  0  0  0
    0.4061   27.1737  -25.8855 H   0  0  0  0  0  0  0  0  0  0  0  0
   -1.1390   26.2431  -24.1587 H   0  0  0  0  0  0  0  0  0  0  0  0
   -3.1022   24.8658  -24.8505 H   0  0  0  0  0  0  0  0  0  0  0  0
   -3.5219   24.4137  -27.2701 H   0  0  0  0  0  0  0  0  0  0  0  0
   -1.5374   22.6907  -29.9002 H   0  0  0  0  0  0  0  0  0  0  0  0
   -7.5814   22.8941  -30.8285 H   0  0  0  0  0  0  0  0  0  0  0  0
  -10.1000   21.9179  -31.5223 H   0  0  0  0  0  0  0  0  0  0  0  0
  -10.9038   19.7178  -32.8185 H   0  0  0  0  0  0  0  0  0  0  0  0
   -8.7640   18.3500  -33.4580 H   0  0  0  0  0  0  0  0  0  0  0  0
  1  2  1  0
  2  3  1  0
  3  4  1  0
  4  5  1  0
  3  6  1  0
  6  7  2  0
  7  8  1  0
  8  9  1  0
  9 10  2  0
 10 11  1  0
 11 12  2  0
 12 13  1  0
 13 14  1  0
 14 15  2  0
 15 16  1  0
 16 17  2  0
 17 18  1  0
 18 19  2  0
 12 20  1  0
 20 21  2  0
 21 22  1  0
  8 23  2  0
 23 24  1  0
 24 25  1  0
 25 26  2  0
 26 27  1  0
 27 28  2  0
 28  6  1  0
 21  9  1  0
 28 24  1  0
 19 14  1  0
  1 29  1  0
  1 30  1  0
  1 31  1  0
  2 32  1  0
  2 33  1  0
  4 34  1  0
  4 35  1  0
  5 36  1  0
  5 37  1  0
  5 38  1  0
 10 39  1  0
 11 40  1  0
 15 41  1  0
 16 42  1  0
 17 43  1  0
 18 44  1  0
 19 45  1  0
 20 46  1  0
 23 47  1  0
 25 48  1  0
 26 49  1  0
 27 50  1  0
M  CHG  1  27   1
M  END
>  <UniqueID>  (17) 
17

>  <SMILES>  (17) 
CCN(CC)c1nc(-c2ccc(Oc3ccccc3)cc2F)cn2cc[nH+]c12

>  <Energy>  (17) 
101.65486575915564

>  <Genealogy>  (17) 
CCN(CC)c1nc(-c2ccc(Oc3ccccc3)cc2F)cn2cc[nH+]c12 (protonated)
CCN(CC)c1nc(-c2ccc(Oc3ccccc3)cc2F)cn2cc[nH+]c12 (3D coordinates assigned)
CCN(CC)c1nc(-c2ccc(Oc3ccccc3)cc2F)cn2cc[nH+]c12 (optimized conformer: 101.65486575915564 kcal/mol)

>  <smiles>  (17) 
CCN(CC)c1nc(-c2ccc(Oc3ccccc3)cc2F)cn2ccnc12

>  <score_type>  (17) 
oracle

>  <origin>  (17) 
adg

>  <m_score__min__energy>  (17) 
-8

>  <m_primary>  (17) 
energy

$$$$
17:0
     RDKit          3D

 31 33  0  0  0  0  0  0  0  0999 V2000
   -9.3220   21.4430  -31.1390 C   0  0  0  0  0  0  0  0  0  0  0  0
   -8.1660   21.0810  -31.9580 N   0  0  0  0  0  0  0  0  0  0  0  0
   -7.2170   21.9030  -32.4840 C   0  0  0  0  0  0  0  0  0  0  0  0
   -7.2080   23.3990  -32.3380 C   0  0  0  0  0  0  0  0  0  0  0  0
   -6.2540   23.8170  -31.2530 C   0  0  0  0  0  0  0  0  0  0  0  0
   -4.9820   23.2250  -31.1670 C   0  0  0  0  0  0  0  0  0  0  0  0
   -4.0990   23.5960  -30.1480 C   0  0  0  0  0  0  0  0  0  0  0  0
   -4.4790   24.5570  -29.2090 C   0  0  0  0  0  0  0  0  0  0  0  0
   -5.7420   25.1500  -29.2860 C   0  0  0  0  0  0  0  0  0  0  0  0
   -6.6280   24.7830  -30.3030 C   0  0  0  0  0  0  0  0  0  0  0  0
   -6.2020   21.2350  -33.0930 N   0  0  0  0  0  0  0  0  0  0  0  0
   -6.5450   19.9450  -32.9290 C   0  0  0  0  0  0  0  0  0  0  0  0
   -5.8350   18.8210  -33.3440 C   0  0  0  0  0  0  0  0  0  0  0  0
   -6.3640   17.5560  -33.0260 C   0  0  0  0  0  0  0  0  0  0  0  0
   -7.5730   17.4500  -32.3010 C   0  0  0  0  0  0  0  0  0  0  0  0
   -8.2650   18.6050  -31.8930 C   0  0  0  0  0  0  0  0  0  0  0  0
   -7.7170   19.8440  -32.2370 C   0  0  0  0  0  0  0  0  0  0  0  0
   -9.0575   21.3602  -30.0745 H   0  0  0  0  0  0  0  0  0  0  0  0
   -9.6206   22.4777  -31.3632 H   0  0  0  0  0  0  0  0  0  0  0  0
  -10.1574   20.7635  -31.3632 H   0  0  0  0  0  0  0  0  0  0  0  0
   -6.8955   23.8536  -33.2896 H   0  0  0  0  0  0  0  0  0  0  0  0
   -8.2203   23.7363  -32.0708 H   0  0  0  0  0  0  0  0  0  0  0  0
   -4.6799   22.4667  -31.9043 H   0  0  0  0  0  0  0  0  0  0  0  0
   -3.1043   23.1304  -30.0862 H   0  0  0  0  0  0  0  0  0  0  0  0
   -3.7835   24.8476  -28.4079 H   0  0  0  0  0  0  0  0  0  0  0  0
   -6.0394   25.9068  -28.5452 H   0  0  0  0  0  0  0  0  0  0  0  0
   -7.6214   25.2519  -30.3600 H   0  0  0  0  0  0  0  0  0  0  0  0
   -4.8920   18.9186  -33.9019 H   0  0  0  0  0  0  0  0  0  0  0  0
   -5.8342   16.6456  -33.3431 H   0  0  0  0  0  0  0  0  0  0  0  0
   -7.9758   16.4567  -32.0539 H   0  0  0  0  0  0  0  0  0  0  0  0
   -9.2037   18.5355  -31.3237 H   0  0  0  0  0  0  0  0  0  0  0  0
  1  2  1  0
  2  3  1  0
  3  4  1  0
  4  5  1  0
  5  6  2  0
  6  7  1  0
  7  8  2  0
  8  9  1  0
  9 10  2  0
  3 11  2  0
 11 12  1  0
 12 13  2  0
 13 14  1  0
 14 15  2  0
 15 16  1  0
 16 17  2  0
 17  2  1  0
 10  5  1  0
 17 12  1  0
  1 18  1  0
  1 19  1  0
  1 20  1  0
  4 21  1  0
  4 22  1  0
  6 23  1  0
  7 24  1  0
  8 25  1  0
  9 26  1  0
 10 27  1  0
 13 28  1  0
 14 29  1  0
 15 30  1  0
 16 31  1  0
M  END
>  <UniqueID>  (18) 
18

>  <SMILES>  (18) 
Cn1c(Cc2ccccc2)nc2ccccc21

>  <Energy>  (18) 
68.84248027461105

>  <Genealogy>  (18) 
Cn1c(Cc2ccccc2)nc2ccccc21 (3D coordinates assigned)
Cn1c(Cc2ccccc2)nc2ccccc21 (optimized conformer: 68.84248027461105 kcal/mol)

>  <smiles>  (18) 
Cn1c(Cc2ccccc2)nc2ccccc21

>  <score_type>  (18) 
oracle

>  <origin>  (18) 
adg

>  <m_score__min__energy>  (18) 
-6.9800000000000004

>  <m_primary>  (18) 
energy

$$$$
18:0
     RDKit          3D

 25 26  0  0  0  0  0  0  0  0999 V2000
   -3.6980   25.0830  -30.8390 O   0  0  0  0  0  0  0  0  0  0  0  0
   -4.9010   24.4220  -30.9770 N   0  0  0  0  0  0  0  0  0  0  0  0
   -5.9920   24.8990  -30.3150 C   0  0  0  0  0  0  0  0  0  0  0  0
   -7.2290   24.2660  -30.4450 C   0  0  0  0  0  0  0  0  0  0  0  0
   -7.3370   23.1340  -31.2510 C   0  0  0  0  0  0  0  0  0  0  0  0
   -6.2100   22.6320  -31.9090 C   0  0  0  0  0  0  0  0  0  0  0  0
   -6.3370   21.4800  -32.7620 N   0  0  0  0  0  0  0  0  0  0  0  0
   -7.1940   20.3580  -32.4910 C   0  0  0  0  0  0  0  0  0  0  0  0
   -8.5790   20.4870  -32.6790 C   0  0  0  0  0  0  0  0  0  0  0  0
   -9.4340   19.4180  -32.3950 C   0  0  0  0  0  0  0  0  0  0  0  0
   -8.9140   18.2160  -31.9070 C   0  0  0  0  0  0  0  0  0  0  0  0
   -7.5390   18.0850  -31.6940 C   0  0  0  0  0  0  0  0  0  0  0  0
   -6.6810   19.1530  -31.9770 C   0  0  0  0  0  0  0  0  0  0  0  0
   -4.9890   23.3140  -31.7710 C   0  0  0  0  0  0  0  0  0  0  0  0
   -3.3030   25.6250  -31.5980 H   0  0  0  0  0  0  0  0  0  0  0  0
   -5.8974   25.7882  -29.6743 H   0  0  0  0  0  0  0  0  0  0  0  0
   -8.1108   24.6569  -29.9162 H   0  0  0  0  0  0  0  0  0  0  0  0
   -8.3101   22.6349  -31.3696 H   0  0  0  0  0  0  0  0  0  0  0  0
   -5.7670   21.4580  -33.6390 H   0  0  0  0  0  0  0  0  0  0  0  0
   -8.9941   21.4349  -33.0520 H   0  0  0  0  0  0  0  0  0  0  0  0
  -10.5171   19.5230  -32.5558 H   0  0  0  0  0  0  0  0  0  0  0  0
   -9.5869   17.3732  -31.6906 H   0  0  0  0  0  0  0  0  0  0  0  0
   -7.1310   17.1411  -31.3034 H   0  0  0  0  0  0  0  0  0  0  0  0
   -5.6007   19.0502  -31.7969 H   0  0  0  0  0  0  0  0  0  0  0  0
   -4.0982   22.9531  -32.3060 H   0  0  0  0  0  0  0  0  0  0  0  0
  1  2  1  0
  2  3  2  0
  3  4  1  0
  4  5  2  0
  5  6  1  0
  6  7  1  0
  7  8  1  0
  8  9  2  0
  9 10  1  0
 10 11  2  0
 11 12  1  0
 12 13  2  0
  6 14  2  0
 14  2  1  0
 13  8  1  0
  1 15  1  0
  3 16  1  0
  4 17  1  0
  5 18  1  0
  7 19  1  0
  9 20  1  0
 10 21  1  0
 11 22  1  0
 12 23  1  0
 13 24  1  0
 14 25  1  0
M  CHG  1   2   1
M  END
>  <UniqueID>  (19) 
19

>  <SMILES>  (19) 
O[n+]1cccc(Nc2ccccc2)c1

>  <Energy>  (19) 
30.944188223890958

>  <Genealogy>  (19) 
O[n+]1cccc(Nc2ccccc2)c1 (protonated)
O[n+]1cccc(Nc2ccccc2)c1 (3D coordinates assigned)
O[n+]1cccc(Nc2ccccc2)c1 (optimized conformer: 30.944188223890958 kcal/mol)

>  <smiles>  (19) 
[O-][n+]1cccc(Nc2ccccc2)c1

>  <score_type>  (19) 
oracle

>  <origin>  (19) 
adg

>  <m_score__min__energy>  (19) 
-6.3799999999999999

>  <m_primary>  (19) 
energy

$$$$
19:0
     RDKit          3D

 40 41  0  0  0  0  0  0  0  0999 V2000
   -1.9910   25.0840  -27.1110 C   0  0  0  0  0  0  0  0  0  0  0  0
   -2.0740   24.9140  -28.6240 C   0  0  0  0  0  0  0  0  0  0  0  0
   -3.2210   24.0840  -28.9840 N   0  0  0  0  0  0  0  0  0  0  0  0
   -4.0790   24.3900  -30.0940 C   0  0  0  0  0  0  0  0  0  0  0  0
   -3.8670   25.4200  -30.7920 O   0  0  0  0  0  0  0  0  0  0  0  0
   -5.2020   23.4540  -30.4590 C   0  0  1  0  0  0  0  0  0  0  0  0
   -6.4790   24.2240  -30.8150 C   0  0  0  0  0  0  0  0  0  0  0  0
   -7.5920   23.2440  -31.1790 C   0  0  0  0  0  0  0  0  0  0  0  0
   -7.1620   22.3450  -32.3450 C   0  0  0  0  0  0  0  0  0  0  0  0
   -5.8700   21.6720  -32.1000 N   0  0  0  0  0  0  0  0  0  0  0  0
   -5.9170   20.2910  -31.5670 C   0  0  0  0  0  0  0  0  0  0  0  0
   -5.8730   19.2120  -32.6300 C   0  0  0  0  0  0  0  0  0  0  0  0
   -4.7770   19.1690  -33.5140 C   0  0  0  0  0  0  0  0  0  0  0  0
   -4.6960   18.1840  -34.5010 C   0  0  0  0  0  0  0  0  0  0  0  0
   -5.7160   17.2440  -34.6360 C   0  0  0  0  0  0  0  0  0  0  0  0
   -6.8300   17.2960  -33.7970 C   0  0  0  0  0  0  0  0  0  0  0  0
   -6.9240   18.2800  -32.8030 C   0  0  0  0  0  0  0  0  0  0  0  0
   -8.3910   18.3210  -31.8310 Cl  0  0  0  0  0  0  0  0  0  0  0  0
   -4.7750   22.5440  -31.6290 C   0  0  0  0  0  0  0  0  0  0  0  0
   -2.4225   24.2001  -26.6185 H   0  0  0  0  0  0  0  0  0  0  0  0
   -0.9382   25.1932  -26.8115 H   0  0  0  0  0  0  0  0  0  0  0  0
   -2.5524   25.9813  -26.8115 H   0  0  0  0  0  0  0  0  0  0  0  0
   -2.1811   25.9028  -29.0939 H   0  0  0  0  0  0  0  0  0  0  0  0
   -1.1552   24.4233  -28.9775 H   0  0  0  0  0  0  0  0  0  0  0  0
   -3.4410   23.2570  -28.3830 H   0  0  0  0  0  0  0  0  0  0  0  0
   -5.4237   22.8286  -29.5816 H   0  0  0  0  0  0  0  0  0  0  0  0
   -6.7932   24.8285  -29.9514 H   0  0  0  0  0  0  0  0  0  0  0  0
   -6.2786   24.8802  -31.6748 H   0  0  0  0  0  0  0  0  0  0  0  0
   -7.8212   22.6169  -30.3048 H   0  0  0  0  0  0  0  0  0  0  0  0
   -8.4817   23.8155  -31.4821 H   0  0  0  0  0  0  0  0  0  0  0  0
   -7.9345   21.5776  -32.5010 H   0  0  0  0  0  0  0  0  0  0  0  0
   -7.0400   22.9856  -33.2308 H   0  0  0  0  0  0  0  0  0  0  0  0
   -5.0558   20.1505  -30.8972 H   0  0  0  0  0  0  0  0  0  0  0  0
   -6.8819   20.1851  -31.0495 H   0  0  0  0  0  0  0  0  0  0  0  0
   -3.9769   19.9187  -33.4261 H   0  0  0  0  0  0  0  0  0  0  0  0
   -3.8257   18.1502  -35.1729 H   0  0  0  0  0  0  0  0  0  0  0  0
   -5.6430   16.4604  -35.4045 H   0  0  0  0  0  0  0  0  0  0  0  0
   -7.6391   16.5605  -33.9164 H   0  0  0  0  0  0  0  0  0  0  0  0
   -3.9392   21.9111  -31.2960 H   0  0  0  0  0  0  0  0  0  0  0  0
   -4.4833   23.1941  -32.4670 H   0  0  0  0  0  0  0  0  0  0  0  0
  1  2  1  0
  2  3  1  0
  3  4  1  0
  4  5  2  0
  4  6  1  0
  6  7  1  0
  7  8  1  0
  8  9  1  0
  9 10  1  0
 10 11  1  0
 11 12  1  0
 12 13  2  0
 13 14  1  0
 14 15  2  0
 15 16  1  0
 16 17  2  0
 17 18  1  0
 10 19  1  0
 19  6  1  0
 17 12  1  0
  1 20  1  0
  1 21  1  0
  1 22  1  0
  2 23  1  0
  2 24  1  0
  3 25  1  0
  6 26  1  1
  7 27  1  0
  7 28  1  0
  8 29  1  0
  8 30  1  0
  9 31  1  0
  9 32  1  0
 11 33  1  0
 11 34  1  0
 13 35  1  0
 14 36  1  0
 15 37  1  0
 16 38  1  0
 19 39  1  0
 19 40  1  0
M  END
>  <UniqueID>  (20) 
20

>  <SMILES>  (20) 
CCNC(=O)[C@H]1CCCN(Cc2ccccc2Cl)C1

>  <Energy>  (20) 
40.59237892316875

>  <Genealogy>  (20) 
CCNC(=O)[C@H]1CCCN(Cc2ccccc2Cl)C1 (chirality)
CCNC(=O)[C@H]1CCCN(Cc2ccccc2Cl)C1 (3D coordinates assigned)
CCNC(=O)[C@H]1CCCN(Cc2ccccc2Cl)C1 (nonaromatic ring conformer: 40.59237892316875 kcal/mol)

>  <smiles>  (20) 
CCNC(=O)C1CCCN(Cc2ccccc2Cl)C1

>  <score_type>  (20) 
oracle

>  <origin>  (20) 
adg

>  <m_score__min__energy>  (20) 
-7.96

>  <m_primary>  (20) 
energy

$$$$
20:0
     RDKit          3D

 40 42  0  0  0  0  0  0  0  0999 V2000
   -2.6610   22.2200  -30.8720 C   0  0  0  0  0  0  0  0  0  0  0  0
   -2.1920   22.4150  -29.4560 C   0  0  0  0  0  0  0  0  0  0  0  0
   -1.6510   21.3240  -28.7550 C   0  0  0  0  0  0  0  0  0  0  0  0
   -1.2220   21.4740  -27.4340 C   0  0  0  0  0  0  0  0  0  0  0  0
   -1.3210   22.7130  -26.8020 C   0  0  0  0  0  0  0  0  0  0  0  0
   -1.8330   23.8120  -27.4950 C   0  0  0  0  0  0  0  0  0  0  0  0
   -2.2470   23.6790  -28.8260 C   0  0  0  0  0  0  0  0  0  0  0  0
   -2.7520   24.8300  -29.5120 N   0  0  0  0  0  0  0  0  0  0  0  0
   -4.0860   24.9370  -30.0220 C   0  0  0  0  0  0  0  0  0  0  0  0
   -4.2550   25.3090  -31.2130 O   0  0  0  0  0  0  0  0  0  0  0  0
   -5.2800   24.5500  -29.2000 C   0  0  0  0  0  0  0  0  0  0  0  0
   -6.8050   24.9100  -30.1270 S   0  0  0  0  0  0  0  0  0  0  0  0
   -7.0280   23.2020  -30.6230 C   0  0  0  0  0  0  0  0  0  0  0  0
   -7.9570   22.3830  -30.0940 N   0  0  0  0  0  0  0  0  0  0  0  0
   -7.8430   21.2160  -30.7160 N   0  0  0  0  0  0  0  0  0  0  0  0
   -6.8420   21.3360  -31.6150 C   0  0  0  0  0  0  0  0  0  0  0  0
   -6.3980   20.2320  -32.4890 C   0  0  0  0  0  0  0  0  0  0  0  0
   -7.2300   19.1180  -32.6840 C   0  0  0  0  0  0  0  0  0  0  0  0
   -6.8110   18.0570  -33.4910 C   0  0  0  0  0  0  0  0  0  0  0  0
   -5.5520   18.0920  -34.0960 C   0  0  0  0  0  0  0  0  0  0  0  0
   -4.7080   19.1860  -33.8880 C   0  0  0  0  0  0  0  0  0  0  0  0
   -5.1250   20.2500  -33.0820 C   0  0  0  0  0  0  0  0  0  0  0  0
   -6.3150   22.5760  -31.5740 N   0  0  0  0  0  0  0  0  0  0  0  0
   -5.3680   23.1520  -32.4380 N   0  0  0  0  0  0  0  0  0  0  0  0
   -3.6767   21.7977  -30.8670 H   0  0  0  0  0  0  0  0  0  0  0  0
   -2.6694   23.1892  -31.3922 H   0  0  0  0  0  0  0  0  0  0  0  0
   -1.9798   21.5305  -31.3922 H   0  0  0  0  0  0  0  0  0  0  0  0
   -1.5647   20.3453  -29.2497 H   0  0  0  0  0  0  0  0  0  0  0  0
   -0.8052   20.6128  -26.8912 H   0  0  0  0  0  0  0  0  0  0  0  0
   -0.9957   22.8248  -25.7572 H   0  0  0  0  0  0  0  0  0  0  0  0
   -1.9115   24.7874  -26.9926 H   0  0  0  0  0  0  0  0  0  0  0  0
   -5.2350   23.4745  -28.9734 H   0  0  0  0  0  0  0  0  0  0  0  0
   -5.2790   25.1252  -28.2624 H   0  0  0  0  0  0  0  0  0  0  0  0
   -8.2166   19.0803  -32.1991 H   0  0  0  0  0  0  0  0  0  0  0  0
   -7.4731   17.1931  -33.6502 H   0  0  0  0  0  0  0  0  0  0  0  0
   -5.2255   17.2588  -34.7357 H   0  0  0  0  0  0  0  0  0  0  0  0
   -3.7142   19.2103  -34.3589 H   0  0  0  0  0  0  0  0  0  0  0  0
   -4.4534   21.1044  -32.9118 H   0  0  0  0  0  0  0  0  0  0  0  0
   -4.7490   23.9220  -32.1060 H   0  0  0  0  0  0  0  0  0  0  0  0
   -5.3240   22.8860  -33.4450 H   0  0  0  0  0  0  0  0  0  0  0  0
  1  2  1  0
  2  3  2  0
  3  4  1  0
  4  5  2  0
  5  6  1  0
  6  7  2  0
  7  8  1  0
  8  9  1  0
  9 10  2  0
  9 11  1  0
 11 12  1  0
 12 13  1  0
 13 14  2  0
 14 15  1  0
 15 16  2  0
 16 17  1  0
 17 18  2  0
 18 19  1  0
 19 20  2  0
 20 21  1  0
 21 22  2  0
 16 23  1  0
 23 24  1  0
  7  2  1  0
 23 13  1  0
 22 17  1  0
  1 25  1  0
  1 26  1  0
  1 27  1  0
  3 28  1  0
  4 29  1  0
  5 30  1  0
  6 31  1  0
 11 32  1  0
 11 33  1  0
 18 34  1  0
 19 35  1  0
 20 36  1  0
 21 37  1  0
 22 38  1  0
 24 39  1  0
 24 40  1  0
M  CHG  1   8  -1
M  END
>  <UniqueID>  (21) 
21

>  <SMILES>  (21) 
Cc1ccccc1[N-]C(=O)CSc1nnc(-c2ccccc2)n1N

>  <Energy>  (21) 
83.64762049986184

>  <Genealogy>  (21) 
Cc1ccccc1[N-]C(=O)CSc1nnc(-c2ccccc2)n1N (protonated)
Cc1ccccc1[N-]C(=O)CSc1nnc(-c2ccccc2)n1N (3D coordinates assigned)
Cc1ccccc1[N-]C(=O)CSc1nnc(-c2ccccc2)n1N (optimized conformer: 83.64762049986184 kcal/mol)

>  <smiles>  (21) 
Cc1ccccc1NC(=O)CSc1nnc(-c2ccccc2)n1N

>  <score_type>  (21) 
oracle

>  <origin>  (21) 
adg

>  <m_score__min__energy>  (21) 
-10.130000000000001

>  <m_primary>  (21) 
energy

$$$$
21:0
     RDKit          3D

 36 39  0  0  0  0  0  0  0  0999 V2000
   -9.1110   18.2210  -31.2790 C   0  0  0  0  0  0  0  0  0  0  0  0
   -9.3470   19.3030  -32.7220 S   0  0  0  0  0  0  0  0  0  0  0  0
   -7.6090   19.7350  -32.8280 C   0  0  0  0  0  0  0  0  0  0  0  0
   -6.4670   18.8330  -33.6800 S   0  0  0  0  0  0  0  0  0  0  0  0
   -5.1940   19.8650  -33.3210 C   0  0  0  0  0  0  0  0  0  0  0  0
   -3.9160   19.7390  -33.7570 N   0  0  0  0  0  0  0  0  0  0  0  0
   -2.9760   20.6710  -33.4110 C   0  0  0  0  0  0  0  0  0  0  0  0
   -1.5860   20.5280  -33.9110 C   0  0  0  0  0  0  0  0  0  0  0  0
   -0.6200   21.5350  -33.7240 C   0  0  0  0  0  0  0  0  0  0  0  0
    0.6760   21.3450  -34.2090 C   0  0  0  0  0  0  0  0  0  0  0  0
    1.0050   20.1600  -34.8690 C   0  0  0  0  0  0  0  0  0  0  0  0
    0.0300   19.1760  -35.0280 C   0  0  0  0  0  0  0  0  0  0  0  0
   -1.2260   19.3780  -34.5500 N   0  0  0  0  0  0  0  0  0  0  0  0
   -3.3530   21.7680  -32.6010 C   0  0  0  0  0  0  0  0  0  0  0  0
   -4.6740   21.8930  -32.1350 C   0  0  0  0  0  0  0  0  0  0  0  0
   -5.0000   23.0090  -31.2350 C   0  0  0  0  0  0  0  0  0  0  0  0
   -5.6670   24.1720  -31.5960 C   0  0  0  0  0  0  0  0  0  0  0  0
   -5.7420   25.1050  -30.5560 C   0  0  0  0  0  0  0  0  0  0  0  0
   -5.1150   24.6910  -29.3880 C   0  0  0  0  0  0  0  0  0  0  0  0
   -4.4630   23.1620  -29.6480 S   0  0  0  0  0  0  0  0  0  0  0  0
   -5.6180   20.9210  -32.5250 C   0  0  0  0  0  0  0  0  0  0  0  0
   -7.0030   20.8550  -32.2520 C   0  0  0  0  0  0  0  0  0  0  0  0
   -7.7630   21.8510  -31.5380 C   0  0  0  0  0  0  0  0  0  0  0  0
   -8.3730   22.6440  -30.9580 N   0  0  0  0  0  0  0  0  0  0  0  0
   -9.2388   18.8067  -30.3567 H   0  0  0  0  0  0  0  0  0  0  0  0
   -9.8533   17.4096  -31.3038 H   0  0  0  0  0  0  0  0  0  0  0  0
   -8.0982   17.7924  -31.3038 H   0  0  0  0  0  0  0  0  0  0  0  0
   -3.6630   18.9200  -34.3540 H   0  0  0  0  0  0  0  0  0  0  0  0
   -0.8841   22.4651  -33.1995 H   0  0  0  0  0  0  0  0  0  0  0  0
    1.4361   22.1280  -34.0710 H   0  0  0  0  0  0  0  0  0  0  0  0
    2.0216   20.0042  -35.2592 H   0  0  0  0  0  0  0  0  0  0  0  0
    0.2778   18.2350  -35.5410 H   0  0  0  0  0  0  0  0  0  0  0  0
   -2.6062   22.5300  -32.3333 H   0  0  0  0  0  0  0  0  0  0  0  0
   -6.0924   24.3423  -32.5960 H   0  0  0  0  0  0  0  0  0  0  0  0
   -6.2501   26.0757  -30.6543 H   0  0  0  0  0  0  0  0  0  0  0  0
   -5.0549   25.2653  -28.4518 H   0  0  0  0  0  0  0  0  0  0  0  0
  1  2  1  0
  2  3  1  0
  3  4  1  0
  4  5  1  0
  5  6  2  0
  6  7  1  0
  7  8  1  0
  8  9  2  0
  9 10  1  0
 10 11  2  0
 11 12  1  0
 12 13  2  0
  7 14  2  0
 14 15  1  0
 15 16  1  0
 16 17  2  0
 17 18  1  0
 18 19  2  0
 19 20  1  0
 15 21  2  0
 21 22  1  0
 22 23  1  0
 23 24  3  0
 22  3  2  0
 21  5  1  0
 13  8  1  0
 20 16  1  0
  1 25  1  0
  1 26  1  0
  1 27  1  0
  6 28  1  0
  9 29  1  0
 10 30  1  0
 11 31  1  0
 12 32  1  0
 14 33  1  0
 17 34  1  0
 18 35  1  0
 19 36  1  0
M  CHG  1   6   1
M  END
>  <UniqueID>  (22) 
22

>  <SMILES>  (22) 
CSc1sc2[nH+]c(-c3ccccn3)cc(-c3cccs3)c2c1C#N

>  <Energy>  (22) 
107.93248527955583

>  <Genealogy>  (22) 
CSc1sc2[nH+]c(-c3ccccn3)cc(-c3cccs3)c2c1C#N (protonated)
CSc1sc2[nH+]c(-c3ccccn3)cc(-c3cccs3)c2c1C#N (3D coordinates assigned)
CSc1sc2[nH+]c(-c3ccccn3)cc(-c3cccs3)c2c1C#N (optimized conformer: 107.93248527955583 kcal/mol)

>  <smiles>  (22) 
CSc1sc2nc(-c3ccccn3)cc(-c3cccs3)c2c1C#N

>  <score_type>  (22) 
oracle

>  <origin>  (22) 
adg

>  <m_score__min__energy>  (22) 
-7.4400000000000004

>  <m_primary>  (22) 
energy

$$$$
22:0
     RDKit          3D

 50 52  0  0  0  0  0  0  0  0999 V2000
   -0.9780   18.2370  -27.1510 C   0  0  0  0  0  0  0  0  0  0  0  0
   -2.1300   19.1490  -27.0640 N   0  0  0  0  0  0  0  0  0  0  0  0
   -3.0280   18.7040  -25.9840 C   0  0  0  0  0  0  0  0  0  0  0  0
   -1.6660   20.5350  -26.8350 C   0  0  0  0  0  0  0  0  0  0  0  0
   -0.3530   20.8190  -27.5820 C   0  0  0  0  0  0  0  0  0  0  0  0
   -0.6120   21.5000  -28.8690 N   0  0  0  0  0  0  0  0  0  0  0  0
   -0.3170   20.5920  -29.9920 C   0  0  0  0  0  0  0  0  0  0  0  0
   -2.0020   22.0020  -28.9550 C   0  0  0  0  0  0  0  0  0  0  0  0
   -2.1190   23.0280  -30.0840 C   0  0  0  0  0  0  0  0  0  0  0  0
   -3.1190   22.6000  -31.0610 N   0  0  0  0  0  0  0  0  0  0  0  0
   -4.4460   23.1470  -31.0340 C   0  0  0  0  0  0  0  0  0  0  0  0
   -4.6040   24.5030  -30.6960 C   0  0  0  0  0  0  0  0  0  0  0  0
   -3.4910   25.3000  -30.4580 O   0  0  0  0  0  0  0  0  0  0  0  0
   -5.8780   25.0580  -30.5790 C   0  0  0  0  0  0  0  0  0  0  0  0
   -7.0080   24.2750  -30.7930 C   0  0  0  0  0  0  0  0  0  0  0  0
   -6.8770   22.9320  -31.1570 C   0  0  0  0  0  0  0  0  0  0  0  0
   -7.9980   22.1970  -31.3770 N   0  0  0  0  0  0  0  0  0  0  0  0
   -7.9490   20.8970  -31.7590 C   0  0  0  0  0  0  0  0  0  0  0  0
   -9.1380   20.1890  -31.9650 C   0  0  0  0  0  0  0  0  0  0  0  0
   -9.0970   18.8530  -32.3710 C   0  0  0  0  0  0  0  0  0  0  0  0
   -7.8690   18.2210  -32.5770 C   0  0  0  0  0  0  0  0  0  0  0  0
   -6.6760   18.9200  -32.3750 C   0  0  0  0  0  0  0  0  0  0  0  0
   -6.7020   20.2670  -31.9610 C   0  0  0  0  0  0  0  0  0  0  0  0
   -5.5190   21.0020  -31.7490 C   0  0  0  0  0  0  0  0  0  0  0  0
   -4.4040   20.4590  -31.9800 O   0  0  0  0  0  0  0  0  0  0  0  0
   -5.5920   22.3480  -31.3070 C   0  0  0  0  0  0  0  0  0  0  0  0
   -0.6430   17.9718  -26.1374 H   0  0  0  0  0  0  0  0  0  0  0  0
   -1.2725   17.3246  -27.6903 H   0  0  0  0  0  0  0  0  0  0  0  0
   -0.1576   18.7330  -27.6903 H   0  0  0  0  0  0  0  0  0  0  0  0
   -2.5703   18.9308  -25.0098 H   0  0  0  0  0  0  0  0  0  0  0  0
   -3.9908   19.2292  -26.0679 H   0  0  0  0  0  0  0  0  0  0  0  0
   -3.1933   17.6197  -26.0679 H   0  0  0  0  0  0  0  0  0  0  0  0
   -2.4378   21.2338  -27.1900 H   0  0  0  0  0  0  0  0  0  0  0  0
   -1.4859   20.6656  -25.7577 H   0  0  0  0  0  0  0  0  0  0  0  0
    0.2847   21.4615  -26.9570 H   0  0  0  0  0  0  0  0  0  0  0  0
    0.1478   19.8613  -27.7869 H   0  0  0  0  0  0  0  0  0  0  0  0
    0.0005   19.6147  -29.5996 H   0  0  0  0  0  0  0  0  0  0  0  0
   -1.2199   20.4643  -30.6072 H   0  0  0  0  0  0  0  0  0  0  0  0
    0.4885   21.0194  -30.6072 H   0  0  0  0  0  0  0  0  0  0  0  0
   -2.6814   21.1605  -29.1557 H   0  0  0  0  0  0  0  0  0  0  0  0
   -2.2725   22.4810  -28.0024 H   0  0  0  0  0  0  0  0  0  0  0  0
   -2.4174   23.9989  -29.6617 H   0  0  0  0  0  0  0  0  0  0  0  0
   -1.1448   23.1174  -30.5868 H   0  0  0  0  0  0  0  0  0  0  0  0
   -2.7660   22.2250  -31.9710 H   0  0  0  0  0  0  0  0  0  0  0  0
   -5.9901   26.1202  -30.3162 H   0  0  0  0  0  0  0  0  0  0  0  0
   -8.0092   24.7151  -30.6751 H   0  0  0  0  0  0  0  0  0  0  0  0
  -10.1069   20.6853  -31.8070 H   0  0  0  0  0  0  0  0  0  0  0  0
  -10.0335   18.2980  -32.5287 H   0  0  0  0  0  0  0  0  0  0  0  0
   -7.8407   17.1697  -32.8993 H   0  0  0  0  0  0  0  0  0  0  0  0
   -5.7120   18.4166  -32.5399 H   0  0  0  0  0  0  0  0  0  0  0  0
  1  2  1  0
  2  3  1  0
  2  4  1  0
  4  5  1  0
  5  6  1  0
  6  7  1  0
  6  8  1  0
  8  9  1  0
  9 10  1  0
 10 11  1  0
 11 12  2  0
 12 13  1  0
 12 14  1  0
 14 15  2  0
 15 16  1  0
 16 17  1  0
 17 18  1  0
 18 19  2  0
 19 20  1  0
 20 21  2  0
 21 22  1  0
 22 23  2  0
 23 24  1  0
 24 25  2  0
 24 26  1  0
 26 11  1  0
 26 16  2  0
 23 18  1  0
  1 27  1  0
  1 28  1  0
  1 29  1  0
  3 30  1  0
  3 31  1  0
  3 32  1  0
  4 33  1  0
  4 34  1  0
  5 35  1  0
  5 36  1  0
  7 37  1  0
  7 38  1  0
  7 39  1  0
  8 40  1  0
  8 41  1  0
  9 42  1  0
  9 43  1  0
 10 44  1  0
 14 45  1  0
 15 46  1  0
 19 47  1  0
 20 48  1  0
 21 49  1  0
 22 50  1  0
M  CHG  2  13  -1  17  -1
M  END
>  <UniqueID>  (23) 
23

>  <SMILES>  (23) 
CN(C)CCN(C)CCNc1c([O-])ccc2[n-]c3ccccc3c(=O)c12

>  <Energy>  (23) 
66.88257432436555

>  <Genealogy>  (23) 
CN(C)CCN(C)CCNc1c([O-])ccc2[n-]c3ccccc3c(=O)c12 (protonated)
CN(C)CCN(C)CCNc1c([O-])ccc2[n-]c3ccccc3c(=O)c12 (3D coordinates assigned)
CN(C)CCN(C)CCNc1c([O-])ccc2[n-]c3ccccc3c(=O)c12 (optimized conformer: 66.88257432436555 kcal/mol)

>  <smiles>  (23) 
CN(C)CCN(C)CCNc1c(O)ccc2[nH]c3ccccc3c(=O)c12

>  <score_type>  (23) 
oracle

>  <origin>  (23) 
adg

>  <m_score__min__energy>  (23) 
-11.029999999999999

>  <m_primary>  (23) 
energy

$$$$
23:0
     RDKit          3D

 56 59  0  0  0  0  0  0  0  0999 V2000
   -2.2160   24.1650  -29.2350 C   0  0  0  0  0  0  0  0  0  0  0  0
   -3.1440   24.9200  -30.0050 O   0  0  0  0  0  0  0  0  0  0  0  0
   -4.4580   24.5160  -30.2880 C   0  0  0  0  0  0  0  0  0  0  0  0
   -5.5710   25.3340  -30.0240 C   0  0  0  0  0  0  0  0  0  0  0  0
   -6.8620   24.8840  -30.3170 C   0  0  0  0  0  0  0  0  0  0  0  0
   -7.0570   23.6210  -30.8760 C   0  0  0  0  0  0  0  0  0  0  0  0
   -5.9570   22.7970  -31.1550 C   0  0  0  0  0  0  0  0  0  0  0  0
   -6.1580   21.4960  -31.7420 N   0  0  0  0  0  0  0  0  0  0  0  0
   -7.3500   20.8600  -31.5300 C   0  0  0  0  0  0  0  0  0  0  0  0
   -7.5970   19.6070  -32.0800 C   0  0  0  0  0  0  0  0  0  0  0  0
   -6.6220   18.9940  -32.8700 C   0  0  0  0  0  0  0  0  0  0  0  0
   -6.8590   17.7360  -33.4410 C   0  0  0  0  0  0  0  0  0  0  0  0
   -5.8910   17.1350  -34.2460 C   0  0  0  0  0  0  0  0  0  0  0  0
   -4.6730   17.7840  -34.5030 C   0  0  0  0  0  0  0  0  0  0  0  0
   -3.6800   17.1640  -35.3470 N   0  0  0  0  0  0  0  0  0  0  0  0
   -2.9620   16.1180  -34.6020 C   0  0  0  0  0  0  0  0  0  0  0  0
   -1.5760   16.6090  -34.1520 C   0  0  0  0  0  0  0  0  0  0  0  0
   -1.5260   18.0850  -34.0670 N   0  0  0  0  0  0  0  0  0  0  0  0
   -1.5650   18.5490  -32.6560 C   0  0  0  0  0  0  0  0  0  0  0  0
   -1.0670   20.0010  -32.4860 C   0  0  0  0  0  0  0  0  0  0  0  0
   -1.2400   20.7960  -33.7790 C   0  0  0  0  0  0  0  0  0  0  0  0
   -0.4660   20.1410  -34.9410 C   0  0  0  0  0  0  0  0  0  0  0  0
   -0.3460   18.6170  -34.7760 C   0  0  0  0  0  0  0  0  0  0  0  0
   -4.4230   19.0350  -33.9120 C   0  0  0  0  0  0  0  0  0  0  0  0
   -5.3950   19.6520  -33.0980 C   0  0  0  0  0  0  0  0  0  0  0  0
   -5.1810   20.9170  -32.5130 C   0  0  0  0  0  0  0  0  0  0  0  0
   -4.0920   21.5260  -32.7160 O   0  0  0  0  0  0  0  0  0  0  0  0
   -4.6610   23.2510  -30.8530 C   0  0  0  0  0  0  0  0  0  0  0  0
   -2.4122   24.3247  -28.1645 H   0  0  0  0  0  0  0  0  0  0  0  0
   -2.3259   23.0966  -29.4726 H   0  0  0  0  0  0  0  0  0  0  0  0
   -1.1923   24.4900  -29.4726 H   0  0  0  0  0  0  0  0  0  0  0  0
   -5.4253   26.3321  -29.5851 H   0  0  0  0  0  0  0  0  0  0  0  0
   -7.7277   25.5289  -30.1057 H   0  0  0  0  0  0  0  0  0  0  0  0
   -8.0757   23.2706  -31.0985 H   0  0  0  0  0  0  0  0  0  0  0  0
   -8.1232   21.3458  -30.9166 H   0  0  0  0  0  0  0  0  0  0  0  0
   -8.5558   19.1010  -31.8938 H   0  0  0  0  0  0  0  0  0  0  0  0
   -7.8124   17.2204  -33.2536 H   0  0  0  0  0  0  0  0  0  0  0  0
   -6.0838   16.1441  -34.6831 H   0  0  0  0  0  0  0  0  0  0  0  0
   -4.1410   16.7420  -36.1840 H   0  0  0  0  0  0  0  0  0  0  0  0
   -3.0010   17.8940  -35.6740 H   0  0  0  0  0  0  0  0  0  0  0  0
   -3.5503   15.8412  -33.7147 H   0  0  0  0  0  0  0  0  0  0  0  0
   -2.8265   15.2495  -35.2633 H   0  0  0  0  0  0  0  0  0  0  0  0
   -1.3508   16.1859  -33.1619 H   0  0  0  0  0  0  0  0  0  0  0  0
   -0.8349   16.2804  -34.8955 H   0  0  0  0  0  0  0  0  0  0  0  0
   -2.6026   18.4895  -32.2957 H   0  0  0  0  0  0  0  0  0  0  0  0
   -0.8922   17.8997  -32.0766 H   0  0  0  0  0  0  0  0  0  0  0  0
   -1.6436   20.4872  -31.6853 H   0  0  0  0  0  0  0  0  0  0  0  0
    0.0028   19.9762  -32.2313 H   0  0  0  0  0  0  0  0  0  0  0  0
   -2.3088   20.8354  -34.0363 H   0  0  0  0  0  0  0  0  0  0  0  0
   -0.8426   21.8096  -33.6218 H   0  0  0  0  0  0  0  0  0  0  0  0
   -0.9936   20.3545  -35.8823 H   0  0  0  0  0  0  0  0  0  0  0  0
    0.5510   20.5601  -34.9467 H   0  0  0  0  0  0  0  0  0  0  0  0
   -0.2774   18.1486  -35.7689 H   0  0  0  0  0  0  0  0  0  0  0  0
    0.5566   18.3901  -34.1896 H   0  0  0  0  0  0  0  0  0  0  0  0
   -3.4600   19.5372  -34.0863 H   0  0  0  0  0  0  0  0  0  0  0  0
   -3.7961   22.6046  -31.0631 H   0  0  0  0  0  0  0  0  0  0  0  0
  1  2  1  0
  2  3  1  0
  3  4  2  0
  4  5  1  0
  5  6  2  0
  6  7  1  0
  7  8  1  0
  8  9  1  0
  9 10  2  0
 10 11  1  0
 11 12  2  0
 12 13  1  0
 13 14  2  0
 14 15  1  0
 15 16  1  0
 16 17  1  0
 17 18  1  0
 18 19  1  0
 19 20  1  0
 20 21  1  0
 21 22  1  0
 22 23  1  0
 14 24  1  0
 24 25  2  0
 25 26  1  0
 26 27  2  0
  7 28  2  0
 28  3  1  0
 26  8  1  0
 25 11  1  0
 23 18  1  0
  1 29  1  0
  1 30  1  0
  1 31  1  0
  4 32  1  0
  5 33  1  0
  6 34  1  0
  9 35  1  0
 10 36  1  0
 12 37  1  0
 13 38  1  0
 15 39  1  0
 15 40  1  0
 16 41  1  0
 16 42  1  0
 17 43  1  0
 17 44  1  0
 19 45  1  0
 19 46  1  0
 20 47  1  0
 20 48  1  0
 21 49  1  0
 21 50  1  0
 22 51  1  0
 22 52  1  0
 23 53  1  0
 23 54  1  0
 24 55  1  0
 28 56  1  0
M  CHG  1  15   1
M  END
>  <UniqueID>  (24) 
24

>  <SMILES>  (24) 
COc1cccc(-n2ccc3ccc([NH2+]CCN4CCCCC4)cc3c2=O)c1

>  <Energy>  (24) 
76.010986345769

>  <Genealogy>  (24) 
COc1cccc(-n2ccc3ccc([NH2+]CCN4CCCCC4)cc3c2=O)c1 (protonated)
COc1cccc(-n2ccc3ccc([NH2+]CCN4CCCCC4)cc3c2=O)c1 (3D coordinates assigned)
COc1cccc(-n2ccc3ccc([NH2+]CCN4CCCCC4)cc3c2=O)c1 (nonaromatic ring conformer: 76.010986345769 kcal/mol)

>  <smiles>  (24) 
COc1cccc(-n2ccc3ccc(NCCN4CCCCC4)cc3c2=O)c1

>  <score_type>  (24) 
oracle

>  <origin>  (24) 
adg

>  <m_score__min__energy>  (24) 
-8.5

>  <m_primary>  (24) 
energy

$$$$
24:0
     RDKit          3D

 37 37  0  0  0  0  0  0  0  0999 V2000
    1.3510   26.2620  -24.6440 C   0  0  0  0  0  0  0  0  0  0  0  0
    0.2270   25.8190  -23.8000 N   0  0  0  0  0  0  0  0  0  0  0  0
   -0.5160   26.9960  -23.3100 C   0  0  0  0  0  0  0  0  0  0  0  0
   -0.6470   24.9000  -24.5690 C   0  0  0  0  0  0  0  0  0  0  0  0
   -1.6020   25.6520  -25.5190 C   0  0  0  0  0  0  0  0  0  0  0  0
   -2.1400   24.7620  -26.6550 C   0  0  0  0  0  0  0  0  0  0  0  0
   -1.7580   25.2270  -28.0720 C   0  0  0  0  0  0  0  0  0  0  0  0
   -2.2300   24.2600  -29.1650 C   0  0  0  0  0  0  0  0  0  0  0  0
   -3.1270   24.9160  -30.0620 O   0  0  0  0  0  0  0  0  0  0  0  0
   -4.4640   24.5510  -30.2960 C   0  0  0  0  0  0  0  0  0  0  0  0
   -5.5520   25.3240  -29.8400 C   0  0  0  0  0  0  0  0  0  0  0  0
   -6.8640   24.9200  -30.1000 C   0  0  0  0  0  0  0  0  0  0  0  0
   -7.1080   23.7460  -30.8160 C   0  0  0  0  0  0  0  0  0  0  0  0
   -6.0380   22.9750  -31.2760 C   0  0  0  0  0  0  0  0  0  0  0  0
   -4.7210   23.3730  -31.0190 C   0  0  0  0  0  0  0  0  0  0  0  0
   -3.2790   22.2920  -31.6620 Br  0  0  0  0  0  0  0  0  0  0  0  0
    2.1832   26.5900  -24.0038 H   0  0  0  0  0  0  0  0  0  0  0  0
    1.6837   25.4277  -25.2791 H   0  0  0  0  0  0  0  0  0  0  0  0
    1.0250   27.0989  -25.2791 H   0  0  0  0  0  0  0  0  0  0  0  0
    0.6300   25.3100  -22.9770 H   0  0  0  0  0  0  0  0  0  0  0  0
   -0.5168   26.9973  -22.2100 H   0  0  0  0  0  0  0  0  0  0  0  0
   -0.0331   27.9135  -23.6774 H   0  0  0  0  0  0  0  0  0  0  0  0
   -1.5520   26.9546  -23.6774 H   0  0  0  0  0  0  0  0  0  0  0  0
   -0.0136   24.2268  -25.1653 H   0  0  0  0  0  0  0  0  0  0  0  0
   -1.2626   24.3419  -23.8482 H   0  0  0  0  0  0  0  0  0  0  0  0
   -2.4543   26.0285  -24.9343 H   0  0  0  0  0  0  0  0  0  0  0  0
   -1.0307   26.4698  -25.9824 H   0  0  0  0  0  0  0  0  0  0  0  0
   -1.7456   23.7454  -26.5100 H   0  0  0  0  0  0  0  0  0  0  0  0
   -3.2373   24.8128  -26.5965 H   0  0  0  0  0  0  0  0  0  0  0  0
   -2.2143   26.2114  -28.2533 H   0  0  0  0  0  0  0  0  0  0  0  0
   -0.6599   25.2696  -28.1206 H   0  0  0  0  0  0  0  0  0  0  0  0
   -1.3575   23.8963  -29.7276 H   0  0  0  0  0  0  0  0  0  0  0  0
   -2.7548   23.4174  -28.6911 H   0  0  0  0  0  0  0  0  0  0  0  0
   -5.3666   26.2503  -29.2764 H   0  0  0  0  0  0  0  0  0  0  0  0
   -7.7069   25.5282  -29.7398 H   0  0  0  0  0  0  0  0  0  0  0  0
   -8.1418   23.4288  -31.0175 H   0  0  0  0  0  0  0  0  0  0  0  0
   -6.2311   22.0519  -31.8422 H   0  0  0  0  0  0  0  0  0  0  0  0
  1  2  1  0
  2  3  1  0
  2  4  1  0
  4  5  1  0
  5  6  1  0
  6  7  1  0
  7  8  1  0
  8  9  1  0
  9 10  1  0
 10 11  2  0
 11 12  1  0
 12 13  2  0
 13 14  1  0
 14 15  2  0
 15 16  1  0
 15 10  1  0
  1 17  1  0
  1 18  1  0
  1 19  1  0
  2 20  1  0
  3 21  1  0
  3 22  1  0
  3 23  1  0
  4 24  1  0
  4 25  1  0
  5 26  1  0
  5 27  1  0
  6 28  1  0
  6 29  1  0
  7 30  1  0
  7 31  1  0
  8 32  1  0
  8 33  1  0
 11 34  1  0
 12 35  1  0
 13 36  1  0
 14 37  1  0
M  CHG  1   2   1
M  END
>  <UniqueID>  (25) 
25

>  <SMILES>  (25) 
C[NH+](C)CCCCCOc1ccccc1Br

>  <Energy>  (25) 
30.469888762829616

>  <Genealogy>  (25) 
C[NH+](C)CCCCCOc1ccccc1Br (protonated)
C[NH+](C)CCCCCOc1ccccc1Br (3D coordinates assigned)
C[NH+](C)CCCCCOc1ccccc1Br (optimized conformer: 30.469888762829616 kcal/mol)

>  <smiles>  (25) 
CN(C)CCCCCOc1ccccc1Br

>  <score_type>  (25) 
oracle

>  <origin>  (25) 
adg

>  <m_score__min__energy>  (25) 
-6.4199999999999999

>  <m_primary>  (25) 
energy

$$$$
25:0
     RDKit          3D

 44 45  0  0  0  0  0  0  0  0999 V2000
   -2.8070   18.7290  -25.9880 C   0  0  0  0  0  0  0  0  0  0  0  0
   -1.7690   19.6670  -26.6050 C   0  0  0  0  0  0  0  0  0  0  0  0
   -2.0660   19.9790  -28.0880 C   0  0  0  0  0  0  0  0  0  0  0  0
   -1.2220   21.0800  -28.6300 N   0  0  2  0  0  0  0  0  0  0  0  0
   -1.3930   22.2990  -27.7980 C   0  0  0  0  0  0  0  0  0  0  0  0
   -2.8670   22.6480  -27.5040 C   0  0  0  0  0  0  0  0  0  0  0  0
   -3.8680   22.2910  -28.6210 C   0  0  0  0  0  0  0  0  0  0  0  0
   -3.4670   22.8440  -29.9250 N   0  0  0  0  0  0  0  0  0  0  0  0
   -4.4640   23.4470  -30.7750 C   0  0  0  0  0  0  0  0  0  0  0  0
   -4.2950   24.6200  -31.2080 O   0  0  0  0  0  0  0  0  0  0  0  0
   -5.7110   22.7340  -31.1180 C   0  0  0  0  0  0  0  0  0  0  0  0
   -6.9280   23.2430  -30.6470 C   0  0  0  0  0  0  0  0  0  0  0  0
   -8.1230   22.5870  -30.9300 C   0  0  0  0  0  0  0  0  0  0  0  0
   -8.1200   21.4190  -31.6920 C   0  0  0  0  0  0  0  0  0  0  0  0
   -6.9150   20.8910  -32.1930 C   0  0  0  0  0  0  0  0  0  0  0  0
   -6.9280   19.6330  -33.0370 C   0  0  0  0  0  0  0  0  0  0  0  0
   -6.1310   18.6700  -32.4460 F   0  0  0  0  0  0  0  0  0  0  0  0
   -6.4540   19.8650  -34.3160 F   0  0  0  0  0  0  0  0  0  0  0  0
   -8.2220   19.1550  -33.1390 F   0  0  0  0  0  0  0  0  0  0  0  0
   -5.7000   21.5660  -31.9130 C   0  0  0  0  0  0  0  0  0  0  0  0
   -4.1780   20.9930  -32.6120 Cl  0  0  0  0  0  0  0  0  0  0  0  0
   -2.0990   22.6560  -30.4480 C   0  0  0  0  0  0  0  0  0  0  0  0
   -1.4750   21.2880  -30.0870 C   0  0  0  0  0  0  0  0  0  0  0  0
   -2.7454   18.7846  -24.8911 H   0  0  0  0  0  0  0  0  0  0  0  0
   -3.8133   19.0301  -26.3145 H   0  0  0  0  0  0  0  0  0  0  0  0
   -2.6090   17.6974  -26.3145 H   0  0  0  0  0  0  0  0  0  0  0  0
   -1.7648   20.6104  -26.0394 H   0  0  0  0  0  0  0  0  0  0  0  0
   -0.7918   19.1643  -26.5570 H   0  0  0  0  0  0  0  0  0  0  0  0
   -1.8817   19.0712  -28.6812 H   0  0  0  0  0  0  0  0  0  0  0  0
   -3.1146   20.3051  -28.1527 H   0  0  0  0  0  0  0  0  0  0  0  0
   -0.2170   20.8030  -28.5340 H   0  0  0  0  0  0  0  0  0  0  0  0
   -0.8759   22.1409  -26.8401 H   0  0  0  0  0  0  0  0  0  0  0  0
   -0.9715   23.1394  -28.3690 H   0  0  0  0  0  0  0  0  0  0  0  0
   -3.1681   22.1088  -26.5938 H   0  0  0  0  0  0  0  0  0  0  0  0
   -2.9043   23.7427  -27.4029 H   0  0  0  0  0  0  0  0  0  0  0  0
   -3.9298   21.1959  -28.7045 H   0  0  0  0  0  0  0  0  0  0  0  0
   -4.8416   22.7278  -28.3541 H   0  0  0  0  0  0  0  0  0  0  0  0
   -6.9397   24.1667  -30.0498 H   0  0  0  0  0  0  0  0  0  0  0  0
   -9.0731   22.9915  -30.5511 H   0  0  0  0  0  0  0  0  0  0  0  0
   -9.0691   20.9049  -31.9038 H   0  0  0  0  0  0  0  0  0  0  0  0
   -2.1317   22.7438  -31.5440 H   0  0  0  0  0  0  0  0  0  0  0  0
   -1.4691   23.4282  -29.9822 H   0  0  0  0  0  0  0  0  0  0  0  0
   -2.1588   20.4983  -30.4317 H   0  0  0  0  0  0  0  0  0  0  0  0
   -0.4920   21.2564  -30.5796 H   0  0  0  0  0  0  0  0  0  0  0  0
  1  2  1  0
  2  3  1  0
  3  4  1  0
  4  5  1  0
  5  6  1  0
  6  7  1  0
  7  8  1  0
  8  9  1  0
  9 10  2  0
  9 11  1  0
 11 12  2  0
 12 13  1  0
 13 14  2  0
 14 15  1  0
 15 16  1  0
 16 17  1  0
 16 18  1  0
 16 19  1  0
 15 20  2  0
 20 21  1  0
  8 22  1  0
 22 23  1  0
 23  4  1  0
 20 11  1  0
  1 24  1  0
  1 25  1  0
  1 26  1  0
  2 27  1  0
  2 28  1  0
  3 29  1  0
  3 30  1  0
  4 31  1  6
  5 32  1  0
  5 33  1  0
  6 34  1  0
  6 35  1  0
  7 36  1  0
  7 37  1  0
 12 38  1  0
 13 39  1  0
 14 40  1  0
 22 41  1  0
 22 42  1  0
 23 43  1  0
 23 44  1  0
M  CHG  1   4   1
M  END
>  <UniqueID>  (26) 
26

>  <SMILES>  (26) 
CCC[N@@H+]1CCCN(C(=O)c2cccc(C(F)(F)F)c2Cl)CC1

>  <Energy>  (26) 
64.17276307155177

>  <Genealogy>  (26) 
CCC[NH+]1CCCN(C(=O)c2cccc(C(F)(F)F)c2Cl)CC1 (protonated)
CCC[N@@H+]1CCCN(C(=O)c2cccc(C(F)(F)F)c2Cl)CC1 (chirality)
CCC[N@@H+]1CCCN(C(=O)c2cccc(C(F)(F)F)c2Cl)CC1 (3D coordinates assigned)
CCC[N@@H+]1CCCN(C(=O)c2cccc(C(F)(F)F)c2Cl)CC1 (nonaromatic ring conformer: 64.17276307155177 kcal/mol)

>  <smiles>  (26) 
CCCN1CCCN(C(=O)c2cccc(C(F)(F)F)c2Cl)CC1

>  <score_type>  (26) 
oracle

>  <origin>  (26) 
adg

>  <m_score__min__energy>  (26) 
-4.2000000000000002

>  <m_primary>  (26) 
energy

$$$$
26:0
     RDKit          3D

 53 56  0  0  0  0  0  0  0  0999 V2000
   -1.5020   21.2040  -31.9050 C   0  0  0  0  0  0  0  0  0  0  0  0
   -1.8730   21.0150  -33.1730 C   0  0  0  0  0  0  0  0  0  0  0  0
   -3.1400   20.2830  -33.5090 C   0  0  0  0  0  0  0  0  0  0  0  0
   -3.0530   18.9160  -33.1110 O   0  0  0  0  0  0  0  0  0  0  0  0
   -2.6520   17.8470  -33.9310 C   0  0  0  0  0  0  0  0  0  0  0  0
   -1.2940   17.5450  -34.1580 C   0  0  0  0  0  0  0  0  0  0  0  0
   -0.9370   16.4580  -34.9600 C   0  0  0  0  0  0  0  0  0  0  0  0
   -1.9240   15.6640  -35.5450 C   0  0  0  0  0  0  0  0  0  0  0  0
   -3.2730   15.9550  -35.3300 C   0  0  0  0  0  0  0  0  0  0  0  0
   -3.6440   17.0480  -34.5310 C   0  0  0  0  0  0  0  0  0  0  0  0
   -5.0370   17.3300  -34.3120 N   0  0  0  0  0  0  0  0  0  0  0  0
   -5.8020   16.4960  -33.3740 C   0  0  0  0  0  0  0  0  0  0  0  0
   -7.2290   17.0260  -33.1940 C   0  0  0  0  0  0  0  0  0  0  0  0
   -7.2030   18.4870  -33.0250 N   0  0  0  0  0  0  0  0  0  0  0  0
   -7.8570   19.1100  -31.8970 C   0  0  0  0  0  0  0  0  0  0  0  0
   -8.1890   18.4240  -30.8930 O   0  0  0  0  0  0  0  0  0  0  0  0
   -8.1270   20.5550  -31.8810 C   0  0  0  0  0  0  0  0  0  0  0  0
   -9.4020   21.0780  -32.0830 C   0  0  0  0  0  0  0  0  0  0  0  0
   -9.3150   22.7540  -31.9610 S   0  0  0  0  0  0  0  0  0  0  0  0
   -7.6660   22.8260  -31.6450 C   0  0  0  0  0  0  0  0  0  0  0  0
   -7.1450   21.5380  -31.6670 C   0  0  0  0  0  0  0  0  0  0  0  0
   -5.6790   21.2680  -31.4340 C   0  0  0  0  0  0  0  0  0  0  0  0
   -4.8320   22.5290  -31.6790 C   0  0  0  0  0  0  0  0  0  0  0  0
   -5.4430   23.7580  -30.9840 C   0  0  0  0  0  0  0  0  0  0  0  0
   -6.8430   24.0740  -31.5380 C   0  0  0  0  0  0  0  0  0  0  0  0
   -6.4410   19.3150  -33.9770 C   0  0  0  0  0  0  0  0  0  0  0  0
   -5.6840   18.4560  -34.9960 C   0  0  0  0  0  0  0  0  0  0  0  0
   -0.5700   21.7429  -31.6791 H   0  0  0  0  0  0  0  0  0  0  0  0
   -2.1282   20.8209  -31.0858 H   0  0  0  0  0  0  0  0  0  0  0  0
   -1.2401   21.4019  -33.9852 H   0  0  0  0  0  0  0  0  0  0  0  0
   -3.9819   20.7589  -32.9848 H   0  0  0  0  0  0  0  0  0  0  0  0
   -3.2951   20.3254  -34.5972 H   0  0  0  0  0  0  0  0  0  0  0  0
   -0.5112   18.1684  -33.7013 H   0  0  0  0  0  0  0  0  0  0  0  0
    0.1250   16.2276  -35.1307 H   0  0  0  0  0  0  0  0  0  0  0  0
   -1.6396   14.8087  -36.1756 H   0  0  0  0  0  0  0  0  0  0  0  0
   -4.0487   15.3245  -35.7891 H   0  0  0  0  0  0  0  0  0  0  0  0
   -5.8479   15.4683  -33.7636 H   0  0  0  0  0  0  0  0  0  0  0  0
   -5.2970   16.5196  -32.3970 H   0  0  0  0  0  0  0  0  0  0  0  0
   -7.8270   16.7721  -34.0817 H   0  0  0  0  0  0  0  0  0  0  0  0
   -7.6761   16.5660  -32.3004 H   0  0  0  0  0  0  0  0  0  0  0  0
  -10.3117   20.4943  -32.2876 H   0  0  0  0  0  0  0  0  0  0  0  0
   -5.5364   20.9370  -30.3947 H   0  0  0  0  0  0  0  0  0  0  0  0
   -5.3533   20.4889  -32.1389 H   0  0  0  0  0  0  0  0  0  0  0  0
   -3.8186   22.3618  -31.2851 H   0  0  0  0  0  0  0  0  0  0  0  0
   -4.8025   22.7219  -32.7616 H   0  0  0  0  0  0  0  0  0  0  0  0
   -5.5212   23.5578  -29.9052 H   0  0  0  0  0  0  0  0  0  0  0  0
   -4.7911   24.6237  -31.1725 H   0  0  0  0  0  0  0  0  0  0  0  0
   -7.3468   24.7817  -30.8632 H   0  0  0  0  0  0  0  0  0  0  0  0
   -6.7351   24.5128  -32.5409 H   0  0  0  0  0  0  0  0  0  0  0  0
   -7.1389   19.9737  -34.5146 H   0  0  0  0  0  0  0  0  0  0  0  0
   -5.7043   19.9013  -33.4082 H   0  0  0  0  0  0  0  0  0  0  0  0
   -6.3906   18.0708  -35.7459 H   0  0  0  0  0  0  0  0  0  0  0  0
   -4.9173   19.0700  -35.4911 H   0  0  0  0  0  0  0  0  0  0  0  0
  1  2  2  0
  2  3  1  0
  3  4  1  0
  4  5  1  0
  5  6  2  0
  6  7  1  0
  7  8  2  0
  8  9  1  0
  9 10  2  0
 10 11  1  0
 11 12  1  0
 12 13  1  0
 13 14  1  0
 14 15  1  0
 15 16  2  0
 15 17  1  0
 17 18  2  0
 18 19  1  0
 19 20  1  0
 20 21  2  0
 21 22  1  0
 22 23  1  0
 23 24  1  0
 24 25  1  0
 14 26  1  0
 26 27  1  0
 10  5  1  0
 27 11  1  0
 21 17  1  0
 25 20  1  0
  1 28  1  0
  1 29  1  0
  2 30  1  0
  3 31  1  0
  3 32  1  0
  6 33  1  0
  7 34  1  0
  8 35  1  0
  9 36  1  0
 12 37  1  0
 12 38  1  0
 13 39  1  0
 13 40  1  0
 18 41  1  0
 22 42  1  0
 22 43  1  0
 23 44  1  0
 23 45  1  0
 24 46  1  0
 24 47  1  0
 25 48  1  0
 25 49  1  0
 26 50  1  0
 26 51  1  0
 27 52  1  0
 27 53  1  0
M  END
>  <UniqueID>  (27) 
27

>  <SMILES>  (27) 
C=CCOc1ccccc1N1CCN(C(=O)c2csc3c2CCCC3)CC1

>  <Energy>  (27) 
88.36548597399165

>  <Genealogy>  (27) 
C=CCOc1ccccc1N1CCN(C(=O)c2csc3c2CCCC3)CC1 (3D coordinates assigned)
C=CCOc1ccccc1N1CCN(C(=O)c2csc3c2CCCC3)CC1 (nonaromatic ring conformer: 88.36548597399165 kcal/mol)

>  <smiles>  (27) 
C=CCOc1ccccc1N1CCN(C(=O)c2csc3c2CCCC3)CC1

>  <score_type>  (27) 
oracle

>  <origin>  (27) 
adg

>  <m_score__min__energy>  (27) 
-8.5299999999999994

>  <m_primary>  (27) 
energy

$$$$
27:0
     RDKit          3D

 41 44  0  0  0  0  0  0  0  0999 V2000
    0.9620   21.1900  -33.5090 C   0  0  0  0  0  0  0  0  0  0  0  0
   -0.5050   21.1200  -33.2070 C   0  0  0  0  0  0  0  0  0  0  0  0
   -1.3910   20.5460  -34.1320 C   0  0  0  0  0  0  0  0  0  0  0  0
   -2.7540   20.4470  -33.8340 C   0  0  0  0  0  0  0  0  0  0  0  0
   -3.2480   20.9230  -32.6110 C   0  0  0  0  0  0  0  0  0  0  0  0
   -4.6860   20.8090  -32.3080 C   0  0  0  0  0  0  0  0  0  0  0  0
   -5.3870   19.6680  -32.5090 N   0  0  0  0  0  0  0  0  0  0  0  0
   -6.6470   20.0050  -32.1630 C   0  0  0  0  0  0  0  0  0  0  0  0
   -7.7570   19.1580  -32.2040 C   0  0  0  0  0  0  0  0  0  0  0  0
   -7.6150   17.4840  -32.7100 Cl  0  0  0  0  0  0  0  0  0  0  0  0
   -9.0000   19.6930  -31.8280 C   0  0  0  0  0  0  0  0  0  0  0  0
   -9.1040   21.0380  -31.4340 C   0  0  0  0  0  0  0  0  0  0  0  0
   -7.9580   21.8450  -31.4150 C   0  0  0  0  0  0  0  0  0  0  0  0
   -6.7690   21.2870  -31.7750 N   0  0  0  0  0  0  0  0  0  0  0  0
   -5.5350   21.8200  -31.8630 C   0  0  0  0  0  0  0  0  0  0  0  0
   -5.1920   23.2720  -31.6350 C   0  0  0  0  0  0  0  0  0  0  0  0
   -4.4860   23.5020  -30.3210 C   0  0  0  0  0  0  0  0  0  0  0  0
   -4.8510   22.7870  -29.1640 C   0  0  0  0  0  0  0  0  0  0  0  0
   -4.2060   23.0320  -27.9490 C   0  0  0  0  0  0  0  0  0  0  0  0
   -3.2020   24.0010  -27.8710 C   0  0  0  0  0  0  0  0  0  0  0  0
   -2.8470   24.7320  -29.0060 C   0  0  0  0  0  0  0  0  0  0  0  0
   -1.8790   25.6770  -28.9270 F   0  0  0  0  0  0  0  0  0  0  0  0
   -3.4910   24.4920  -30.2250 C   0  0  0  0  0  0  0  0  0  0  0  0
   -2.3560   21.4560  -31.6690 C   0  0  0  0  0  0  0  0  0  0  0  0
   -0.9930   21.5560  -31.9660 C   0  0  0  0  0  0  0  0  0  0  0  0
    1.5294   21.2171  -32.5670 H   0  0  0  0  0  0  0  0  0  0  0  0
    1.2592   20.3050  -34.0908 H   0  0  0  0  0  0  0  0  0  0  0  0
    1.1736   22.0993  -34.0908 H   0  0  0  0  0  0  0  0  0  0  0  0
   -1.0120   20.1726  -35.0948 H   0  0  0  0  0  0  0  0  0  0  0  0
   -3.4419   19.9934  -34.5627 H   0  0  0  0  0  0  0  0  0  0  0  0
   -9.8967   19.0560  -31.8420 H   0  0  0  0  0  0  0  0  0  0  0  0
  -10.0791   21.4551  -31.1422 H   0  0  0  0  0  0  0  0  0  0  0  0
   -8.0176   22.9022  -31.1169 H   0  0  0  0  0  0  0  0  0  0  0  0
   -4.5372   23.6117  -32.4510 H   0  0  0  0  0  0  0  0  0  0  0  0
   -6.1353   23.8373  -31.6099 H   0  0  0  0  0  0  0  0  0  0  0  0
   -5.6485   22.0312  -29.2171 H   0  0  0  0  0  0  0  0  0  0  0  0
   -4.4890   22.4612  -27.0523 H   0  0  0  0  0  0  0  0  0  0  0  0
   -2.6913   24.1878  -26.9148 H   0  0  0  0  0  0  0  0  0  0  0  0
   -3.2177   25.0807  -31.1131 H   0  0  0  0  0  0  0  0  0  0  0  0
   -2.7301   21.7969  -30.6923 H   0  0  0  0  0  0  0  0  0  0  0  0
   -0.3004   21.9785  -31.2232 H   0  0  0  0  0  0  0  0  0  0  0  0
  1  2  1  0
  2  3  2  0
  3  4  1  0
  4  5  2  0
  5  6  1  0
  6  7  1  0
  7  8  2  0
  8  9  1  0
  9 10  1  0
  9 11  2  0
 11 12  1  0
 12 13  2  0
 13 14  1  0
 14 15  1  0
 15 16  1  0
 16 17  1  0
 17 18  2  0
 18 19  1  0
 19 20  2  0
 20 21  1  0
 21 22  1  0
 21 23  2  0
  5 24  1  0
 24 25  2  0
 25  2  1  0
 15  6  2  0
 23 17  1  0
 14  8  1  0
  1 26  1  0
  1 27  1  0
  1 28  1  0
  3 29  1  0
  4 30  1  0
 11 31  1  0
 12 32  1  0
 13 33  1  0
 16 34  1  0
 16 35  1  0
 18 36  1  0
 19 37  1  0
 20 38  1  0
 23 39  1  0
 24 40  1  0
 25 41  1  0
M  END
>  <UniqueID>  (28) 
28

>  <SMILES>  (28) 
Cc1ccc(-c2nc3c(Cl)cccn3c2Cc2cccc(F)c2)cc1

>  <Energy>  (28) 
84.46204531104515

>  <Genealogy>  (28) 
Cc1ccc(-c2nc3c(Cl)cccn3c2Cc2cccc(F)c2)cc1 (3D coordinates assigned)
Cc1ccc(-c2nc3c(Cl)cccn3c2Cc2cccc(F)c2)cc1 (optimized conformer: 84.46204531104515 kcal/mol)

>  <smiles>  (28) 
Cc1ccc(-c2nc3c(Cl)cccn3c2Cc2cccc(F)c2)cc1

>  <score_type>  (28) 
oracle

>  <origin>  (28) 
adg

>  <m_score__min__energy>  (28) 
-8.1899999999999995

>  <m_primary>  (28) 
energy

$$$$
28:0
     RDKit          3D

 50 53  0  0  0  0  0  0  0  0999 V2000
   -1.8890   25.0090  -27.4470 C   0  0  0  0  0  0  0  0  0  0  0  0
   -3.2450   24.3760  -27.7360 C   0  0  0  0  0  0  0  0  0  0  0  0
   -3.1990   23.6080  -28.9790 N   0  0  0  0  0  0  0  0  0  0  0  0
   -2.9240   22.1850  -29.0550 C   0  0  0  0  0  0  0  0  0  0  0  0
   -2.8720   21.8480  -30.5740 C   0  0  1  0  0  0  0  0  0  0  0  0
   -1.4460   21.6270  -31.0710 C   0  0  0  0  0  0  0  0  0  0  0  0
   -1.6230   20.7420  -32.2920 C   0  0  0  0  0  0  0  0  0  0  0  0
   -2.8520   19.9510  -32.0950 N   0  0  0  0  0  0  0  0  0  0  0  0
   -3.6950   19.9490  -33.3070 C   0  0  0  0  0  0  0  0  0  0  0  0
   -5.1160   20.2850  -32.9560 C   0  0  0  0  0  0  0  0  0  0  0  0
   -5.5290   21.5630  -32.7480 N   0  0  0  0  0  0  0  0  0  0  0  0
   -6.8330   21.4140  -32.4530 C   0  0  0  0  0  0  0  0  0  0  0  0
   -7.7560   22.4170  -32.1640 C   0  0  0  0  0  0  0  0  0  0  0  0
   -9.0840   22.0300  -31.9020 C   0  0  0  0  0  0  0  0  0  0  0  0
   -9.4510   20.6660  -31.9370 C   0  0  0  0  0  0  0  0  0  0  0  0
   -8.4950   19.6770  -32.2320 C   0  0  0  0  0  0  0  0  0  0  0  0
   -7.1860   20.0960  -32.4820 C   0  0  0  0  0  0  0  0  0  0  0  0
   -6.1030   19.3620  -32.7870 N   0  0  0  0  0  0  0  0  0  0  0  0
   -6.0330   17.9130  -32.9910 C   0  0  0  0  0  0  0  0  0  0  0  0
   -6.1290   17.5810  -34.4750 C   0  0  0  0  0  0  0  0  0  0  0  0
   -3.5480   20.5170  -30.9240 C   0  0  0  0  0  0  0  0  0  0  0  0
   -3.5350   23.0550  -31.3030 C   0  0  0  0  0  0  0  0  0  0  0  0
   -3.5490   24.1010  -30.2590 C   0  0  0  0  0  0  0  0  0  0  0  0
   -3.8600   25.3020  -30.4750 O   0  0  0  0  0  0  0  0  0  0  0  0
   -1.7410   25.0781  -26.3592 H   0  0  0  0  0  0  0  0  0  0  0  0
   -1.0938   24.3890  -27.8866 H   0  0  0  0  0  0  0  0  0  0  0  0
   -1.8536   26.0167  -27.8866 H   0  0  0  0  0  0  0  0  0  0  0  0
   -3.5154   23.7059  -26.9066 H   0  0  0  0  0  0  0  0  0  0  0  0
   -3.9946   25.1744  -27.8395 H   0  0  0  0  0  0  0  0  0  0  0  0
   -1.9603   21.9543  -28.5775 H   0  0  0  0  0  0  0  0  0  0  0  0
   -3.6915   21.5942  -28.5335 H   0  0  0  0  0  0  0  0  0  0  0  0
   -0.9734   22.5820  -31.3441 H   0  0  0  0  0  0  0  0  0  0  0  0
   -0.7941   21.1757  -30.3085 H   0  0  0  0  0  0  0  0  0  0  0  0
   -1.7174   21.3631  -33.1949 H   0  0  0  0  0  0  0  0  0  0  0  0
   -0.7537   20.0800  -32.4186 H   0  0  0  0  0  0  0  0  0  0  0  0
   -3.3106   20.6959  -34.0172 H   0  0  0  0  0  0  0  0  0  0  0  0
   -3.6664   18.9471  -33.7602 H   0  0  0  0  0  0  0  0  0  0  0  0
   -7.4572   23.4754  -32.1413 H   0  0  0  0  0  0  0  0  0  0  0  0
   -9.8403   22.7939  -31.6687 H   0  0  0  0  0  0  0  0  0  0  0  0
  -10.4919   20.3753  -31.7321 H   0  0  0  0  0  0  0  0  0  0  0  0
   -8.7684   18.6120  -32.2646 H   0  0  0  0  0  0  0  0  0  0  0  0
   -5.0775   17.5370  -32.5964 H   0  0  0  0  0  0  0  0  0  0  0  0
   -6.8728   17.4371  -32.4635 H   0  0  0  0  0  0  0  0  0  0  0  0
   -6.4327   16.5308  -34.5969 H   0  0  0  0  0  0  0  0  0  0  0  0
   -6.8746   18.2357  -34.9497 H   0  0  0  0  0  0  0  0  0  0  0  0
   -5.1490   17.7368  -34.9497 H   0  0  0  0  0  0  0  0  0  0  0  0
   -4.6076   20.6877  -31.1651 H   0  0  0  0  0  0  0  0  0  0  0  0
   -3.4931   19.8230  -30.0724 H   0  0  0  0  0  0  0  0  0  0  0  0
   -2.9378   23.3700  -32.1714 H   0  0  0  0  0  0  0  0  0  0  0  0
   -4.5336   22.8265  -31.7037 H   0  0  0  0  0  0  0  0  0  0  0  0
  1  2  1  0
  2  3  1  0
  3  4  1  0
  5  4  1  1
  5  6  1  0
  6  7  1  0
  7  8  1  0
  8  9  1  0
  9 10  1  0
 10 11  2  0
 11 12  1  0
 12 13  2  0
 13 14  1  0
 14 15  2  0
 15 16  1  0
 16 17  2  0
 17 18  1  0
 18 19  1  0
 19 20  1  0
  8 21  1  0
  5 22  1  0
 22 23  1  0
 23 24  2  0
 23  3  1  0
 21  5  1  0
 18 10  1  0
 17 12  1  0
  1 25  1  0
  1 26  1  0
  1 27  1  0
  2 28  1  0
  2 29  1  0
  4 30  1  0
  4 31  1  0
  6 32  1  0
  6 33  1  0
  7 34  1  0
  7 35  1  0
  9 36  1  0
  9 37  1  0
 13 38  1  0
 14 39  1  0
 15 40  1  0
 16 41  1  0
 19 42  1  0
 19 43  1  0
 20 44  1  0
 20 45  1  0
 20 46  1  0
 21 47  1  0
 21 48  1  0
 22 49  1  0
 22 50  1  0
M  END
>  <UniqueID>  (29) 
29

>  <SMILES>  (29) 
CCN1C[C@]2(CCN(Cc3nc4ccccc4n3CC)C2)CC1=O

>  <Energy>  (29) 
94.70437050373319

>  <Genealogy>  (29) 
CCN1C[C@]2(CCN(Cc3nc4ccccc4n3CC)C2)CC1=O (chirality)
CCN1C[C@]2(CCN(Cc3nc4ccccc4n3CC)C2)CC1=O (3D coordinates assigned)
CCN1C[C@]2(CCN(Cc3nc4ccccc4n3CC)C2)CC1=O (nonaromatic ring conformer: 94.70437050373319 kcal/mol)

>  <smiles>  (29) 
CCN1CC2(CCN(Cc3nc4ccccc4n3CC)C2)CC1=O

>  <score_type>  (29) 
oracle

>  <origin>  (29) 
adg

>  <m_score__min__energy>  (29) 
-8.5099999999999998

>  <m_primary>  (29) 
energy

$$$$
29:0
     RDKit          3D

 32 32  0  0  0  0  0  0  0  0999 V2000
   -6.1690   24.9090  -30.2660 C   0  0  0  0  0  0  0  0  0  0  0  0
   -6.5630   24.1700  -31.5380 C   0  0  0  0  0  0  0  0  0  0  0  0
   -5.3580   23.7200  -32.2470 N   0  0  0  0  0  0  0  0  0  0  0  0
   -4.4970   22.8960  -31.3840 C   0  0  0  0  0  0  0  0  0  0  0  0
   -3.4840   22.0830  -32.2140 C   0  0  0  0  0  0  0  0  0  0  0  0
   -4.0490   21.5610  -33.4720 N   0  0  0  0  0  0  0  0  0  0  0  0
   -4.2080   20.0970  -33.4600 C   0  0  0  0  0  0  0  0  0  0  0  0
   -5.6310   19.7240  -33.1350 C   0  0  0  0  0  0  0  0  0  0  0  0
   -6.0630   18.3940  -33.2660 C   0  0  0  0  0  0  0  0  0  0  0  0
   -7.3750   18.0440  -32.9310 C   0  0  0  0  0  0  0  0  0  0  0  0
   -8.2590   19.0140  -32.4520 C   0  0  0  0  0  0  0  0  0  0  0  0
   -7.8330   20.3370  -32.3040 C   0  0  0  0  0  0  0  0  0  0  0  0
   -9.0380   21.6600  -31.6370 Br  0  0  0  0  0  0  0  0  0  0  0  0
   -6.5210   20.6920  -32.6390 C   0  0  0  0  0  0  0  0  0  0  0  0
   -6.4817   24.3226  -29.3895 H   0  0  0  0  0  0  0  0  0  0  0  0
   -5.0778   25.0466  -30.2449 H   0  0  0  0  0  0  0  0  0  0  0  0
   -6.6629   25.8916  -30.2449 H   0  0  0  0  0  0  0  0  0  0  0  0
   -7.1800   23.2976  -31.2770 H   0  0  0  0  0  0  0  0  0  0  0  0
   -7.1348   24.8478  -32.1888 H   0  0  0  0  0  0  0  0  0  0  0  0
   -5.6670   23.1240  -33.0510 H   0  0  0  0  0  0  0  0  0  0  0  0
   -3.9485   23.5532  -30.6932 H   0  0  0  0  0  0  0  0  0  0  0  0
   -5.1345   22.1922  -30.8288 H   0  0  0  0  0  0  0  0  0  0  0  0
   -2.6302   22.7325  -32.4573 H   0  0  0  0  0  0  0  0  0  0  0  0
   -3.1843   21.2165  -31.6062 H   0  0  0  0  0  0  0  0  0  0  0  0
   -4.9910   22.0000  -33.6010 H   0  0  0  0  0  0  0  0  0  0  0  0
   -3.4480   21.8460  -34.2810 H   0  0  0  0  0  0  0  0  0  0  0  0
   -3.9457   19.6962  -34.4502 H   0  0  0  0  0  0  0  0  0  0  0  0
   -3.5446   19.6731  -32.6918 H   0  0  0  0  0  0  0  0  0  0  0  0
   -5.3672   17.6252  -33.6332 H   0  0  0  0  0  0  0  0  0  0  0  0
   -7.7115   17.0030  -33.0449 H   0  0  0  0  0  0  0  0  0  0  0  0
   -9.2909   18.7364  -32.1912 H   0  0  0  0  0  0  0  0  0  0  0  0
   -6.1855   21.7321  -32.5136 H   0  0  0  0  0  0  0  0  0  0  0  0
  1  2  1  0
  2  3  1  0
  3  4  1  0
  4  5  1  0
  5  6  1  0
  6  7  1  0
  7  8  1  0
  8  9  2  0
  9 10  1  0
 10 11  2  0
 11 12  1  0
 12 13  1  0
 12 14  2  0
 14  8  1  0
  1 15  1  0
  1 16  1  0
  1 17  1  0
  2 18  1  0
  2 19  1  0
  3 20  1  0
  4 21  1  0
  4 22  1  0
  5 23  1  0
  5 24  1  0
  6 25  1  0
  6 26  1  0
  7 27  1  0
  7 28  1  0
  9 29  1  0
 10 30  1  0
 11 31  1  0
 14 32  1  0
M  CHG  1   6   1
M  END
>  <UniqueID>  (30) 
30

>  <SMILES>  (30) 
CCNCC[NH2+]Cc1cccc(Br)c1

>  <Energy>  (30) 
25.587707788421177

>  <Genealogy>  (30) 
CCNCC[NH2+]Cc1cccc(Br)c1 (protonated)
CCNCC[NH2+]Cc1cccc(Br)c1 (3D coordinates assigned)
CCNCC[NH2+]Cc1cccc(Br)c1 (optimized conformer: 25.587707788421177 kcal/mol)

>  <smiles>  (30) 
CCNCCNCc1cccc(Br)c1

>  <score_type>  (30) 
oracle

>  <origin>  (30) 
adg

>  <m_score__min__energy>  (30) 
-6.0999999999999996

>  <m_primary>  (30) 
energy

$$$$
30:0
     RDKit          3D

 42 45  0  0  0  0  0  0  0  0999 V2000
   -9.4990   21.4970  -31.5600 C   0  0  0  0  0  0  0  0  0  0  0  0
   -8.8360   22.6860  -31.1900 O   0  0  0  0  0  0  0  0  0  0  0  0
   -7.4500   22.4450  -31.0340 C   0  0  2  0  0  0  0  0  0  0  0  0
   -6.8240   23.6370  -30.6040 O   0  0  0  0  0  0  0  0  0  0  0  0
   -5.7270   23.8980  -31.3940 C   0  0  0  0  0  0  0  0  0  0  0  0
   -4.9890   24.9040  -31.2180 O   0  0  0  0  0  0  0  0  0  0  0  0
   -5.5020   22.9430  -32.4310 N   0  0  1  0  0  0  0  0  0  0  0  0
   -4.2900   22.1740  -32.1770 C   0  0  0  0  0  0  0  0  0  0  0  0
   -3.9020   21.7980  -30.8710 C   0  0  0  0  0  0  0  0  0  0  0  0
   -2.7770   20.9940  -30.6670 C   0  0  0  0  0  0  0  0  0  0  0  0
   -2.0300   20.5320  -31.7590 C   0  0  0  0  0  0  0  0  0  0  0  0
   -0.8060   19.6950  -31.5360 C   0  0  0  0  0  0  0  0  0  0  0  0
   -2.4020   20.9070  -33.0560 C   0  0  0  0  0  0  0  0  0  0  0  0
   -3.5260   21.7100  -33.2640 C   0  0  0  0  0  0  0  0  0  0  0  0
   -6.7620   22.1490  -32.3980 C   0  0  1  0  0  0  0  0  0  0  0  0
   -6.5900   20.6790  -32.7280 C   0  0  0  0  0  0  0  0  0  0  0  0
   -6.8480   19.5890  -31.8910 C   0  0  0  0  0  0  0  0  0  0  0  0
   -6.4730   18.4940  -32.6310 C   0  0  0  0  0  0  0  0  0  0  0  0
   -6.4840   17.1360  -32.3210 C   0  0  0  0  0  0  0  0  0  0  0  0
   -6.0200   16.2380  -33.3000 C   0  0  0  0  0  0  0  0  0  0  0  0
   -5.5590   16.7150  -34.5480 C   0  0  0  0  0  0  0  0  0  0  0  0
   -5.5580   18.0950  -34.8270 C   0  0  0  0  0  0  0  0  0  0  0  0
   -6.0240   18.9580  -33.8380 C   0  0  0  0  0  0  0  0  0  0  0  0
   -6.0960   20.2640  -33.8820 O   0  0  0  0  0  0  0  0  0  0  0  0
   -9.8038   20.9504  -30.6554 H   0  0  0  0  0  0  0  0  0  0  0  0
  -10.3895   21.7442  -32.1566 H   0  0  0  0  0  0  0  0  0  0  0  0
   -8.8207   20.8693  -32.1566 H   0  0  0  0  0  0  0  0  0  0  0  0
   -7.3535   21.6014  -30.3347 H   0  0  0  0  0  0  0  0  0  0  0  0
   -5.4300   23.4590  -33.3400 H   0  0  0  0  0  0  0  0  0  0  0  0
   -4.4906   22.1412  -30.0074 H   0  0  0  0  0  0  0  0  0  0  0  0
   -2.4765   20.7226  -29.6443 H   0  0  0  0  0  0  0  0  0  0  0  0
   -0.6340   19.5774  -30.4559 H   0  0  0  0  0  0  0  0  0  0  0  0
   -0.9500   18.7054  -31.9942 H   0  0  0  0  0  0  0  0  0  0  0  0
    0.0639   20.1882  -31.9942 H   0  0  0  0  0  0  0  0  0  0  0  0
   -1.8058   20.5674  -33.9158 H   0  0  0  0  0  0  0  0  0  0  0  0
   -3.8172   21.9827  -34.2891 H   0  0  0  0  0  0  0  0  0  0  0  0
   -7.4262   22.4652  -33.2158 H   0  0  0  0  0  0  0  0  0  0  0  0
   -7.2585   19.6048  -30.8706 H   0  0  0  0  0  0  0  0  0  0  0  0
   -6.8429   16.7780  -31.3448 H   0  0  0  0  0  0  0  0  0  0  0  0
   -6.0161   15.1577  -33.0926 H   0  0  0  0  0  0  0  0  0  0  0  0
   -5.1988   16.0038  -35.3059 H   0  0  0  0  0  0  0  0  0  0  0  0
   -5.2010   18.4789  -35.7940 H   0  0  0  0  0  0  0  0  0  0  0  0
  1  2  1  0
  2  3  1  0
  3  4  1  0
  4  5  1  0
  5  6  2  0
  5  7  1  0
  7  8  1  0
  8  9  2  0
  9 10  1  0
 10 11  2  0
 11 12  1  0
 11 13  1  0
 13 14  2  0
  7 15  1  0
 15 16  1  0
 16 17  2  0
 17 18  1  0
 18 19  2  0
 19 20  1  0
 20 21  2  0
 21 22  1  0
 22 23  2  0
 23 24  1  0
 15  3  1  0
 24 16  1  0
 14  8  1  0
 23 18  1  0
  1 25  1  0
  1 26  1  0
  1 27  1  0
  3 28  1  1
  7 29  1  6
  9 30  1  0
 10 31  1  0
 12 32  1  0
 12 33  1  0
 12 34  1  0
 13 35  1  0
 14 36  1  0
 15 37  1  6
 17 38  1  0
 19 39  1  0
 20 40  1  0
 21 41  1  0
 22 42  1  0
M  CHG  1   7   1
M  END
>  <UniqueID>  (31) 
31

>  <SMILES>  (31) 
CO[C@@H]1OC(=O)[N@@H+](c2ccc(C)cc2)C1c1cc2ccccc2o1

>  <Energy>  (31) 
98.91330484472137

>  <Genealogy>  (31) 
COC1OC(=O)[NH+](c2ccc(C)cc2)C1c1cc2ccccc2o1 (protonated)
CO[C@@H]1OC(=O)[N@@H+](c2ccc(C)cc2)C1c1cc2ccccc2o1 (chirality)
CO[C@@H]1OC(=O)[N@@H+](c2ccc(C)cc2)C1c1cc2ccccc2o1 (3D coordinates assigned)
CO[C@@H]1OC(=O)[N@@H+](c2ccc(C)cc2)C1c1cc2ccccc2o1 (nonaromatic ring conformer: 98.91330484472137 kcal/mol)

>  <smiles>  (31) 
COC1OC(=O)N(c2ccc(C)cc2)C1c1cc2ccccc2o1

>  <score_type>  (31) 
oracle

>  <origin>  (31) 
adg

>  <m_score__min__energy>  (31) 
-7.9000000000000004

>  <m_primary>  (31) 
energy

$$$$
31:0
     RDKit          3D

 28 30  0  0  0  0  0  0  0  0999 V2000
   -0.4780   18.2050  -27.6340 C   0  0  0  0  0  0  0  0  0  0  0  0
   -1.1220   19.5560  -27.5240 C   0  0  0  0  0  0  0  0  0  0  0  0
   -2.5190   19.6750  -27.5380 C   0  0  0  0  0  0  0  0  0  0  0  0
   -3.1190   20.9360  -27.4720 C   0  0  0  0  0  0  0  0  0  0  0  0
   -2.3320   22.1000  -27.4120 C   0  0  0  0  0  0  0  0  0  0  0  0
   -2.9980   23.4590  -27.3180 C   0  0  1  0  0  0  0  0  0  0  0  0
   -1.9840   24.5530  -26.8830 C   0  0  0  0  0  0  0  0  0  0  0  0
   -1.2420   25.1720  -28.0460 C   0  0  0  0  0  0  0  0  0  0  0  0
   -0.0910   25.6510  -27.8750 O   0  0  0  0  0  0  0  0  0  0  0  0
   -1.8750   25.2940  -29.3240 N   0  0  0  0  0  0  0  0  0  0  0  0
   -3.1130   24.6220  -29.5150 C   0  0  0  0  0  0  0  0  0  0  0  0
   -3.8600   24.6780  -30.6310 N   0  0  0  0  0  0  0  0  0  0  0  0
   -4.8750   23.8370  -30.3110 C   0  0  0  0  0  0  0  0  0  0  0  0
   -4.7430   23.2930  -29.0790 N   0  0  0  0  0  0  0  0  0  0  0  0
   -3.6320   23.8110  -28.5910 N   0  0  0  0  0  0  0  0  0  0  0  0
   -0.9310   21.9730  -27.4060 C   0  0  0  0  0  0  0  0  0  0  0  0
   -0.3320   20.7120  -27.4710 C   0  0  0  0  0  0  0  0  0  0  0  0
   -0.2879   17.8063  -26.6266 H   0  0  0  0  0  0  0  0  0  0  0  0
   -1.1477   17.5227  -28.1780 H   0  0  0  0  0  0  0  0  0  0  0  0
    0.4737   18.2957  -28.1780 H   0  0  0  0  0  0  0  0  0  0  0  0
   -3.1452   18.7728  -27.6011 H   0  0  0  0  0  0  0  0  0  0  0  0
   -4.2159   21.0184  -27.4670 H   0  0  0  0  0  0  0  0  0  0  0  0
   -3.7796   23.4019  -26.5461 H   0  0  0  0  0  0  0  0  0  0  0  0
   -2.5316   25.3474  -26.3547 H   0  0  0  0  0  0  0  0  0  0  0  0
   -1.2361   24.0684  -26.2381 H   0  0  0  0  0  0  0  0  0  0  0  0
   -5.7181   23.6197  -30.9833 H   0  0  0  0  0  0  0  0  0  0  0  0
   -0.3018   22.8736  -27.3497 H   0  0  0  0  0  0  0  0  0  0  0  0
    0.7646   20.6266  -27.4806 H   0  0  0  0  0  0  0  0  0  0  0  0
  1  2  1  0
  2  3  2  0
  3  4  1  0
  4  5  2  0
  5  6  1  0
  6  7  1  0
  7  8  1  0
  8  9  2  0
  8 10  1  0
 10 11  1  0
 11 12  2  0
 12 13  1  0
 13 14  2  0
 14 15  1  0
  5 16  1  0
 16 17  2  0
 17  2  1  0
 15  6  1  0
 15 11  1  0
  1 18  1  0
  1 19  1  0
  1 20  1  0
  3 21  1  0
  4 22  1  0
  6 23  1  1
  7 24  1  0
  7 25  1  0
 13 26  1  0
 16 27  1  0
 17 28  1  0
M  CHG  1  10  -1
M  END
>  <UniqueID>  (32) 
32

>  <SMILES>  (32) 
Cc1ccc([C@H]2CC(=O)[N-]c3ncnn32)cc1

>  <Energy>  (32) 
65.40741380701577

>  <Genealogy>  (32) 
Cc1ccc(C2CC(=O)[N-]c3ncnn32)cc1 (protonated)
Cc1ccc([C@H]2CC(=O)[N-]c3ncnn32)cc1 (chirality)
Cc1ccc([C@H]2CC(=O)[N-]c3ncnn32)cc1 (3D coordinates assigned)
Cc1ccc([C@H]2CC(=O)[N-]c3ncnn32)cc1 (nonaromatic ring conformer: 65.40741380701577 kcal/mol)

>  <smiles>  (32) 
Cc1ccc(C2CC(=O)Nc3ncnn32)cc1

>  <score_type>  (32) 
oracle

>  <origin>  (32) 
adg

>  <m_score__min__energy>  (32) 
-7.2599999999999998

>  <m_primary>  (32) 
energy

$$$$
32:0
     RDKit          3D

 44 45  0  0  0  0  0  0  0  0999 V2000
   -1.3100   25.6590  -27.2840 C   0  0  0  0  0  0  0  0  0  0  0  0
   -2.0540   24.6110  -28.1060 C   0  0  0  0  0  0  0  0  0  0  0  0
   -2.5400   25.1750  -29.3230 O   0  0  0  0  0  0  0  0  0  0  0  0
   -3.7920   24.8670  -29.8720 C   0  0  0  0  0  0  0  0  0  0  0  0
   -4.2180   25.4740  -30.8910 O   0  0  0  0  0  0  0  0  0  0  0  0
   -4.6500   23.8340  -29.2110 C   0  0  0  0  0  0  0  0  0  0  0  0
   -6.0670   24.0720  -29.5160 N   0  0  0  0  0  0  0  0  0  0  0  0
   -6.6240   22.9270  -30.1930 C   0  0  0  0  0  0  0  0  0  0  0  0
   -7.9880   22.6120  -30.0560 C   0  0  0  0  0  0  0  0  0  0  0  0
   -8.5210   21.4880  -30.6930 C   0  0  0  0  0  0  0  0  0  0  0  0
   -7.6960   20.6550  -31.4610 C   0  0  0  0  0  0  0  0  0  0  0  0
   -8.3560   19.2510  -32.2910 S   0  0  0  0  0  0  0  0  0  0  0  0
   -9.0000   18.3330  -31.2890 O   0  0  0  0  0  0  0  0  0  0  0  0
   -9.4010   19.6670  -33.2880 O   0  0  0  0  0  0  0  0  0  0  0  0
   -7.0500   18.4190  -33.1290 C   0  0  0  0  0  0  0  0  0  0  0  0
   -6.3110   19.0780  -34.1200 C   0  0  0  0  0  0  0  0  0  0  0  0
   -5.2970   18.4050  -34.8070 C   0  0  0  0  0  0  0  0  0  0  0  0
   -5.0130   17.0570  -34.5110 C   0  0  0  0  0  0  0  0  0  0  0  0
   -4.0100   16.3360  -35.1760 O   0  0  0  0  0  0  0  0  0  0  0  0
   -3.6970   14.9710  -34.9160 C   0  0  0  0  0  0  0  0  0  0  0  0
   -5.7570   16.4050  -33.5220 C   0  0  0  0  0  0  0  0  0  0  0  0
   -6.7720   17.0790  -32.8360 C   0  0  0  0  0  0  0  0  0  0  0  0
   -6.3350   20.9580  -31.5910 C   0  0  0  0  0  0  0  0  0  0  0  0
   -5.8010   22.0840  -30.9600 C   0  0  0  0  0  0  0  0  0  0  0  0
   -1.4547   25.4552  -26.2128 H   0  0  0  0  0  0  0  0  0  0  0  0
   -0.2371   25.6188  -27.5233 H   0  0  0  0  0  0  0  0  0  0  0  0
   -1.7018   26.6586  -27.5233 H   0  0  0  0  0  0  0  0  0  0  0  0
   -1.3688   23.7830  -28.3403 H   0  0  0  0  0  0  0  0  0  0  0  0
   -2.9098   24.2447  -27.5200 H   0  0  0  0  0  0  0  0  0  0  0  0
   -4.3633   22.8370  -29.5768 H   0  0  0  0  0  0  0  0  0  0  0  0
   -4.5050   23.8941  -28.1223 H   0  0  0  0  0  0  0  0  0  0  0  0
   -6.5940   24.2500  -28.6280 H   0  0  0  0  0  0  0  0  0  0  0  0
   -6.1630   24.9200  -30.1250 H   0  0  0  0  0  0  0  0  0  0  0  0
   -8.6388   23.2539  -29.4441 H   0  0  0  0  0  0  0  0  0  0  0  0
   -9.5915   21.2564  -30.5913 H   0  0  0  0  0  0  0  0  0  0  0  0
   -6.5297   20.1294  -34.3584 H   0  0  0  0  0  0  0  0  0  0  0  0
   -4.7185   18.9296  -35.5817 H   0  0  0  0  0  0  0  0  0  0  0  0
   -3.6587   14.8041  -33.8294 H   0  0  0  0  0  0  0  0  0  0  0  0
   -4.4707   14.3266  -35.3589 H   0  0  0  0  0  0  0  0  0  0  0  0
   -2.7198   14.7281  -35.3589 H   0  0  0  0  0  0  0  0  0  0  0  0
   -5.5418   15.3533  -33.2820 H   0  0  0  0  0  0  0  0  0  0  0  0
   -7.3537   16.5545  -32.0637 H   0  0  0  0  0  0  0  0  0  0  0  0
   -5.6838   20.3067  -32.1924 H   0  0  0  0  0  0  0  0  0  0  0  0
   -4.7300   22.3125  -31.0639 H   0  0  0  0  0  0  0  0  0  0  0  0
  1  2  1  0
  2  3  1  0
  3  4  1  0
  4  5  2  0
  4  6  1  0
  6  7  1  0
  7  8  1  0
  8  9  2  0
  9 10  1  0
 10 11  2  0
 11 12  1  0
 12 13  2  0
 12 14  2  0
 12 15  1  0
 15 16  2  0
 16 17  1  0
 17 18  2  0
 18 19  1  0
 19 20  1  0
 18 21  1  0
 21 22  2  0
 11 23  1  0
 23 24  2  0
 24  8  1  0
 22 15  1  0
  1 25  1  0
  1 26  1  0
  1 27  1  0
  2 28  1  0
  2 29  1  0
  6 30  1  0
  6 31  1  0
  7 32  1  0
  7 33  1  0
  9 34  1  0
 10 35  1  0
 16 36  1  0
 17 37  1  0
 20 38  1  0
 20 39  1  0
 20 40  1  0
 21 41  1  0
 22 42  1  0
 23 43  1  0
 24 44  1  0
M  CHG  1   7   1
M  END
>  <UniqueID>  (33) 
33

>  <SMILES>  (33) 
CCOC(=O)C[NH2+]c1ccc(S(=O)(=O)c2ccc(OC)cc2)cc1

>  <Energy>  (33) 
40.65802808329495

>  <Genealogy>  (33) 
CCOC(=O)C[NH2+]c1ccc(S(=O)(=O)c2ccc(OC)cc2)cc1 (protonated)
CCOC(=O)C[NH2+]c1ccc(S(=O)(=O)c2ccc(OC)cc2)cc1 (3D coordinates assigned)
CCOC(=O)C[NH2+]c1ccc(S(=O)(=O)c2ccc(OC)cc2)cc1 (optimized conformer: 40.65802808329495 kcal/mol)

>  <smiles>  (33) 
CCOC(=O)CNc1ccc(S(=O)(=O)c2ccc(OC)cc2)cc1

>  <score_type>  (33) 
oracle

>  <origin>  (33) 
adg

>  <m_score__min__energy>  (33) 
-7.5700000000000003

>  <m_primary>  (33) 
energy

$$$$
33:0
     RDKit          3D

 45 48  0  0  0  0  0  0  0  0999 V2000
    0.3520   15.3050  -32.0340 C   0  0  0  0  0  0  0  0  0  0  0  0
   -0.5400   14.3690  -32.6310 O   0  0  0  0  0  0  0  0  0  0  0  0
   -1.9050   14.2630  -32.3200 C   0  0  0  0  0  0  0  0  0  0  0  0
   -2.3300   13.1570  -31.5770 C   0  0  0  0  0  0  0  0  0  0  0  0
   -3.6760   13.0050  -31.2430 C   0  0  0  0  0  0  0  0  0  0  0  0
   -4.6120   13.9570  -31.6480 C   0  0  0  0  0  0  0  0  0  0  0  0
   -4.2110   15.0790  -32.3940 C   0  0  0  0  0  0  0  0  0  0  0  0
   -5.2250   16.0750  -32.8140 C   0  0  0  0  0  0  0  0  0  0  0  0
   -6.1480   15.9490  -33.8410 C   0  0  0  0  0  0  0  0  0  0  0  0
   -6.8690   17.1230  -33.8490 C   0  0  0  0  0  0  0  0  0  0  0  0
   -6.3470   17.8970  -32.8290 C   0  0  0  0  0  0  0  0  0  0  0  0
   -6.7790   19.2500  -32.4240 C   0  0  0  0  0  0  0  0  0  0  0  0
   -8.1250   19.6200  -32.3040 C   0  0  0  0  0  0  0  0  0  0  0  0
   -8.5620   20.9070  -31.9170 C   0  0  0  0  0  0  0  0  0  0  0  0
   -9.8040   21.1090  -31.8510 O   0  0  0  0  0  0  0  0  0  0  0  0
   -7.7030   21.9830  -31.6020 C   0  0  0  0  0  0  0  0  0  0  0  0
   -6.3040   21.9110  -31.6360 C   0  0  0  0  0  0  0  0  0  0  0  0
   -5.4710   23.0360  -31.2880 N   0  0  0  0  0  0  0  0  0  0  0  0
   -5.9870   24.4060  -31.3860 C   0  0  0  0  0  0  0  0  0  0  0  0
   -5.2650   25.3090  -30.3820 C   0  0  0  0  0  0  0  0  0  0  0  0
   -3.8620   25.1980  -30.5240 O   0  0  0  0  0  0  0  0  0  0  0  0
   -3.4510   23.8890  -30.1800 C   0  0  0  0  0  0  0  0  0  0  0  0
   -4.0180   22.8630  -31.1660 C   0  0  0  0  0  0  0  0  0  0  0  0
   -5.6170   20.4300  -32.0820 S   0  0  0  0  0  0  0  0  0  0  0  0
   -5.3730   17.2450  -32.2350 O   0  0  0  0  0  0  0  0  0  0  0  0
   -2.8500   15.2250  -32.7280 C   0  0  0  0  0  0  0  0  0  0  0  0
    0.2817   15.2313  -30.9387 H   0  0  0  0  0  0  0  0  0  0  0  0
    1.3818   15.0837  -32.3511 H   0  0  0  0  0  0  0  0  0  0  0  0
    0.0814   16.3230  -32.3511 H   0  0  0  0  0  0  0  0  0  0  0  0
   -1.5982   12.4020  -31.2538 H   0  0  0  0  0  0  0  0  0  0  0  0
   -4.0004   12.1315  -30.6583 H   0  0  0  0  0  0  0  0  0  0  0  0
   -5.6715   13.8287  -31.3816 H   0  0  0  0  0  0  0  0  0  0  0  0
   -6.2781   15.0874  -34.5124 H   0  0  0  0  0  0  0  0  0  0  0  0
   -7.6920   17.3901  -34.5282 H   0  0  0  0  0  0  0  0  0  0  0  0
   -8.8898   18.8609  -32.5249 H   0  0  0  0  0  0  0  0  0  0  0  0
   -8.1619   22.9394  -31.3112 H   0  0  0  0  0  0  0  0  0  0  0  0
   -5.8198   24.7865  -32.4045 H   0  0  0  0  0  0  0  0  0  0  0  0
   -7.0638   24.4039  -31.1614 H   0  0  0  0  0  0  0  0  0  0  0  0
   -5.5635   26.3532  -30.5567 H   0  0  0  0  0  0  0  0  0  0  0  0
   -5.5419   24.9963  -29.3644 H   0  0  0  0  0  0  0  0  0  0  0  0
   -2.3523   23.8392  -30.2000 H   0  0  0  0  0  0  0  0  0  0  0  0
   -3.8271   23.6550  -29.1731 H   0  0  0  0  0  0  0  0  0  0  0  0
   -3.5498   23.0065  -32.1510 H   0  0  0  0  0  0  0  0  0  0  0  0
   -3.8041   21.8493  -30.7963 H   0  0  0  0  0  0  0  0  0  0  0  0
   -2.5225   16.0975  -33.3123 H   0  0  0  0  0  0  0  0  0  0  0  0
  1  2  1  0
  2  3  1  0
  3  4  2  0
  4  5  1  0
  5  6  2  0
  6  7  1  0
  7  8  1  0
  8  9  2  0
  9 10  1  0
 10 11  2  0
 11 12  1  0
 12 13  2  0
 13 14  1  0
 14 15  2  0
 14 16  1  0
 16 17  2  0
 17 18  1  0
 18 19  1  0
 19 20  1  0
 20 21  1  0
 21 22  1  0
 22 23  1  0
 17 24  1  0
 11 25  1  0
  7 26  2  0
 26  3  1  0
 25  8  1  0
 24 12  1  0
 23 18  1  0
  1 27  1  0
  1 28  1  0
  1 29  1  0
  4 30  1  0
  5 31  1  0
  6 32  1  0
  9 33  1  0
 10 34  1  0
 13 35  1  0
 16 36  1  0
 19 37  1  0
 19 38  1  0
 20 39  1  0
 20 40  1  0
 22 41  1  0
 22 42  1  0
 23 43  1  0
 23 44  1  0
 26 45  1  0
M  END
>  <UniqueID>  (34) 
34

>  <SMILES>  (34) 
COc1cccc(-c2ccc(-c3cc(=O)cc(N4CCOCC4)s3)o2)c1

>  <Energy>  (34) 
82.15705703239358

>  <Genealogy>  (34) 
COc1cccc(-c2ccc(-c3cc(=O)cc(N4CCOCC4)s3)o2)c1 (3D coordinates assigned)
COc1cccc(-c2ccc(-c3cc(=O)cc(N4CCOCC4)s3)o2)c1 (nonaromatic ring conformer: 82.15705703239358 kcal/mol)

>  <smiles>  (34) 
COc1cccc(-c2ccc(-c3cc(=O)cc(N4CCOCC4)s3)o2)c1

>  <score_type>  (34) 
oracle

>  <origin>  (34) 
adg

>  <m_score__min__energy>  (34) 
-8.5999999999999996

>  <m_primary>  (34) 
energy

$$$$
34:0
     RDKit          3D

 39 40  0  0  0  0  0  0  0  0999 V2000
   -5.7400   16.7010  -31.5300 C   0  0  0  0  0  0  0  0  0  0  0  0
   -6.4760   17.1300  -32.7950 C   0  0  0  0  0  0  0  0  0  0  0  0
   -6.8440   18.5480  -32.7180 N   0  0  0  0  0  0  0  0  0  0  0  0
   -6.0990   19.5930  -33.1480 C   0  0  0  0  0  0  0  0  0  0  0  0
   -4.7750   19.4760  -33.8420 C   0  0  0  0  0  0  0  0  0  0  0  0
   -6.7640   20.7820  -32.9280 C   0  0  0  0  0  0  0  0  0  0  0  0
   -7.9520   20.4550  -32.3010 C   0  0  0  0  0  0  0  0  0  0  0  0
   -9.0420   21.4300  -31.9500 C   0  0  0  0  0  0  0  0  0  0  0  0
   -8.4890   22.7270  -31.5310 N   0  0  0  0  0  0  0  0  0  0  0  0
   -7.6130   22.6320  -30.3510 C   0  0  0  0  0  0  0  0  0  0  0  0
   -6.3760   23.4900  -30.4750 C   0  0  0  0  0  0  0  0  0  0  0  0
   -6.4690   24.8870  -30.3840 C   0  0  0  0  0  0  0  0  0  0  0  0
   -5.3100   25.6600  -30.4820 C   0  0  0  0  0  0  0  0  0  0  0  0
   -4.1030   25.0620  -30.6630 N   0  0  0  0  0  0  0  0  0  0  0  0
   -3.9840   23.7120  -30.7560 C   0  0  0  0  0  0  0  0  0  0  0  0
   -5.1170   22.9010  -30.6650 C   0  0  0  0  0  0  0  0  0  0  0  0
   -7.9730   19.0700  -32.1760 C   0  0  0  0  0  0  0  0  0  0  0  0
   -9.1220   18.2570  -31.6490 C   0  0  0  0  0  0  0  0  0  0  0  0
   -6.3062   17.0310  -30.6466 H   0  0  0  0  0  0  0  0  0  0  0  0
   -5.6437   15.6053  -31.5155 H   0  0  0  0  0  0  0  0  0  0  0  0
   -4.7392   17.1572  -31.5155 H   0  0  0  0  0  0  0  0  0  0  0  0
   -5.8223   16.9722  -33.6655 H   0  0  0  0  0  0  0  0  0  0  0  0
   -7.3919   16.5292  -32.8954 H   0  0  0  0  0  0  0  0  0  0  0  0
   -3.9731   19.4051  -33.0924 H   0  0  0  0  0  0  0  0  0  0  0  0
   -4.7694   18.5739  -34.4714 H   0  0  0  0  0  0  0  0  0  0  0  0
   -4.6112   20.3632  -34.4714 H   0  0  0  0  0  0  0  0  0  0  0  0
   -6.4174   21.7904  -33.1981 H   0  0  0  0  0  0  0  0  0  0  0  0
   -9.6830   21.5822  -32.8309 H   0  0  0  0  0  0  0  0  0  0  0  0
   -9.6211   21.0142  -31.1123 H   0  0  0  0  0  0  0  0  0  0  0  0
   -9.2860   23.3700  -31.3130 H   0  0  0  0  0  0  0  0  0  0  0  0
   -8.1790   22.9559  -29.4651 H   0  0  0  0  0  0  0  0  0  0  0  0
   -7.2852   21.5857  -30.2629 H   0  0  0  0  0  0  0  0  0  0  0  0
   -7.4466   25.3694  -30.2367 H   0  0  0  0  0  0  0  0  0  0  0  0
   -5.3742   26.7559  -30.4125 H   0  0  0  0  0  0  0  0  0  0  0  0
   -2.9934   23.2570  -30.9032 H   0  0  0  0  0  0  0  0  0  0  0  0
   -5.0230   21.8077  -30.7418 H   0  0  0  0  0  0  0  0  0  0  0  0
   -9.1055   18.2687  -30.5492 H   0  0  0  0  0  0  0  0  0  0  0  0
  -10.0695   18.6868  -32.0061 H   0  0  0  0  0  0  0  0  0  0  0  0
   -9.0320   17.2205  -32.0061 H   0  0  0  0  0  0  0  0  0  0  0  0
  1  2  1  0
  2  3  1  0
  3  4  1  0
  4  5  1  0
  4  6  2  0
  6  7  1  0
  7  8  1  0
  8  9  1  0
  9 10  1  0
 10 11  1  0
 11 12  2  0
 12 13  1  0
 13 14  2  0
 14 15  1  0
 15 16  2  0
  7 17  2  0
 17 18  1  0
 17  3  1  0
 16 11  1  0
  1 19  1  0
  1 20  1  0
  1 21  1  0
  2 22  1  0
  2 23  1  0
  5 24  1  0
  5 25  1  0
  5 26  1  0
  6 27  1  0
  8 28  1  0
  8 29  1  0
  9 30  1  0
 10 31  1  0
 10 32  1  0
 12 33  1  0
 13 34  1  0
 15 35  1  0
 16 36  1  0
 18 37  1  0
 18 38  1  0
 18 39  1  0
M  END
>  <UniqueID>  (35) 
35

>  <SMILES>  (35) 
CCn1c(C)cc(CNCc2ccncc2)c1C

>  <Energy>  (35) 
60.63146344352574

>  <Genealogy>  (35) 
CCn1c(C)cc(CNCc2ccncc2)c1C (3D coordinates assigned)
CCn1c(C)cc(CNCc2ccncc2)c1C (optimized conformer: 60.63146344352574 kcal/mol)

>  <smiles>  (35) 
CCn1c(C)cc(CNCc2ccncc2)c1C

>  <score_type>  (35) 
oracle

>  <origin>  (35) 
adg

>  <m_score__min__energy>  (35) 
-7.3499999999999996

>  <m_primary>  (35) 
energy

$$$$
35:0
     RDKit          3D

 30 31  0  0  0  0  0  0  0  0999 V2000
   -0.5200   21.2140  -27.1250 C   0  0  0  0  0  0  0  0  0  0  0  0
   -1.6030   21.9800  -27.8170 C   0  0  0  0  0  0  0  0  0  0  0  0
   -2.4080   22.8680  -27.1030 C   0  0  0  0  0  0  0  0  0  0  0  0
   -3.3990   23.6050  -27.7680 C   0  0  0  0  0  0  0  0  0  0  0  0
   -4.2310   24.5660  -26.9580 C   0  0  0  0  0  0  0  0  0  0  0  0
   -3.6010   23.4090  -29.1610 C   0  0  0  0  0  0  0  0  0  0  0  0
   -4.8930   24.2910  -30.0230 S   0  0  0  0  0  0  0  0  0  0  0  0
   -5.6270   25.2430  -29.1220 O   0  0  0  0  0  0  0  0  0  0  0  0
   -4.2810   25.1070  -31.1280 O   0  0  0  0  0  0  0  0  0  0  0  0
   -6.0430   23.1340  -30.6880 C   0  0  0  0  0  0  0  0  0  0  0  0
   -7.1840   22.7830  -29.9530 C   0  0  0  0  0  0  0  0  0  0  0  0
   -8.0990   21.8610  -30.4710 C   0  0  0  0  0  0  0  0  0  0  0  0
   -7.8810   21.2880  -31.7270 C   0  0  0  0  0  0  0  0  0  0  0  0
   -9.1320   20.0290  -32.4340 Br  0  0  0  0  0  0  0  0  0  0  0  0
   -6.7470   21.6390  -32.4670 C   0  0  0  0  0  0  0  0  0  0  0  0
   -5.8290   22.5600  -31.9510 C   0  0  0  0  0  0  0  0  0  0  0  0
   -2.7240   22.5300  -29.8440 C   0  0  0  0  0  0  0  0  0  0  0  0
   -2.7670   22.2830  -31.5830 Cl  0  0  0  0  0  0  0  0  0  0  0  0
   -1.7690   21.8520  -29.1570 N   0  0  0  0  0  0  0  0  0  0  0  0
   -0.6462   21.3033  -26.0359 H   0  0  0  0  0  0  0  0  0  0  0  0
   -0.5774   20.1545  -27.4152 H   0  0  0  0  0  0  0  0  0  0  0  0
    0.4599   21.6210  -27.4152 H   0  0  0  0  0  0  0  0  0  0  0  0
   -2.2656   22.9901  -26.0191 H   0  0  0  0  0  0  0  0  0  0  0  0
   -4.0686   24.3784  -25.8863 H   0  0  0  0  0  0  0  0  0  0  0  0
   -3.9368   25.5983  -27.1983 H   0  0  0  0  0  0  0  0  0  0  0  0
   -5.2948   24.4226  -27.1983 H   0  0  0  0  0  0  0  0  0  0  0  0
   -7.3602   23.2344  -28.9655 H   0  0  0  0  0  0  0  0  0  0  0  0
   -8.9913   21.5864  -29.8893 H   0  0  0  0  0  0  0  0  0  0  0  0
   -6.5767   21.1900  -33.4566 H   0  0  0  0  0  0  0  0  0  0  0  0
   -4.9386   22.8346  -32.5356 H   0  0  0  0  0  0  0  0  0  0  0  0
  1  2  1  0
  2  3  2  0
  3  4  1  0
  4  5  1  0
  4  6  2  0
  6  7  1  0
  7  8  2  0
  7  9  2  0
  7 10  1  0
 10 11  2  0
 11 12  1  0
 12 13  2  0
 13 14  1  0
 13 15  1  0
 15 16  2  0
  6 17  1  0
 17 18  1  0
 17 19  2  0
 19  2  1  0
 16 10  1  0
  1 20  1  0
  1 21  1  0
  1 22  1  0
  3 23  1  0
  5 24  1  0
  5 25  1  0
  5 26  1  0
 11 27  1  0
 12 28  1  0
 15 29  1  0
 16 30  1  0
M  END
>  <UniqueID>  (36) 
36

>  <SMILES>  (36) 
Cc1cc(C)c(S(=O)(=O)c2ccc(Br)cc2)c(Cl)n1

>  <Energy>  (36) 
36.75648612564547

>  <Genealogy>  (36) 
Cc1cc(C)c(S(=O)(=O)c2ccc(Br)cc2)c(Cl)n1 (3D coordinates assigned)
Cc1cc(C)c(S(=O)(=O)c2ccc(Br)cc2)c(Cl)n1 (optimized conformer: 36.75648612564547 kcal/mol)

>  <smiles>  (36) 
Cc1cc(C)c(S(=O)(=O)c2ccc(Br)cc2)c(Cl)n1

>  <score_type>  (36) 
oracle

>  <origin>  (36) 
adg

>  <m_score__min__energy>  (36) 
-8.0600000000000005

>  <m_primary>  (36) 
energy

$$$$
36:0
     RDKit          3D

 46 48  0  0  0  0  0  0  0  0999 V2000
   -2.2500   24.1910  -29.2420 C   0  0  0  0  0  0  0  0  0  0  0  0
   -3.1500   24.9380  -30.0550 O   0  0  0  0  0  0  0  0  0  0  0  0
   -4.4680   24.5500  -30.3380 C   0  0  0  0  0  0  0  0  0  0  0  0
   -5.5130   25.2750  -29.7510 C   0  0  0  0  0  0  0  0  0  0  0  0
   -6.8440   24.9340  -30.0100 C   0  0  0  0  0  0  0  0  0  0  0  0
   -7.1420   23.8630  -30.8540 C   0  0  0  0  0  0  0  0  0  0  0  0
   -6.1090   23.1150  -31.4390 C   0  0  0  0  0  0  0  0  0  0  0  0
   -6.4310   21.9830  -32.3820 C   0  0  0  0  0  0  0  0  0  0  0  0
   -7.4340   21.0000  -31.7410 C   0  0  1  0  0  0  0  0  0  0  0  0
   -8.8970   21.2620  -32.0770 C   0  0  0  0  0  0  0  0  0  0  0  0
   -9.6050   20.0400  -31.9990 O   0  0  0  0  0  0  0  0  0  0  0  0
   -8.6690   19.0360  -31.6690 C   0  0  0  0  0  0  0  0  0  0  0  0
   -7.2830   19.5220  -32.0600 C   0  0  1  0  0  0  0  0  0  0  0  0
   -6.8590   19.0930  -33.5030 C   0  0  0  0  0  0  0  0  0  0  0  0
   -5.4160   18.6460  -33.7340 C   0  0  0  0  0  0  0  0  0  0  0  0
   -4.3940   19.5930  -33.5170 C   0  0  0  0  0  0  0  0  0  0  0  0
   -3.0560   19.2850  -33.7590 C   0  0  0  0  0  0  0  0  0  0  0  0
   -2.7010   18.0090  -34.1830 C   0  0  0  0  0  0  0  0  0  0  0  0
   -3.6780   17.0260  -34.3170 C   0  0  0  0  0  0  0  0  0  0  0  0
   -5.0310   17.3080  -34.0490 C   0  0  0  0  0  0  0  0  0  0  0  0
   -5.9870   16.1450  -34.0860 C   0  0  0  0  0  0  0  0  0  0  0  0
   -4.7720   23.4690  -31.1880 C   0  0  0  0  0  0  0  0  0  0  0  0
   -2.4738   24.3768  -28.1812 H   0  0  0  0  0  0  0  0  0  0  0  0
   -2.3642   23.1186  -29.4585 H   0  0  0  0  0  0  0  0  0  0  0  0
   -1.2170   24.5008  -29.4585 H   0  0  0  0  0  0  0  0  0  0  0  0
   -5.2850   26.1179  -29.0820 H   0  0  0  0  0  0  0  0  0  0  0  0
   -7.6582   25.5112  -29.5475 H   0  0  0  0  0  0  0  0  0  0  0  0
   -8.1908   23.6043  -31.0614 H   0  0  0  0  0  0  0  0  0  0  0  0
   -6.8692   22.3951  -33.3029 H   0  0  0  0  0  0  0  0  0  0  0  0
   -5.5020   21.4392  -32.6083 H   0  0  0  0  0  0  0  0  0  0  0  0
   -7.1723   21.2034  -30.6921 H   0  0  0  0  0  0  0  0  0  0  0  0
   -9.3188   21.9809  -31.3592 H   0  0  0  0  0  0  0  0  0  0  0  0
   -8.9801   21.6798  -33.0912 H   0  0  0  0  0  0  0  0  0  0  0  0
   -8.7018   18.8392  -30.5873 H   0  0  0  0  0  0  0  0  0  0  0  0
   -8.9081   18.1064  -32.2063 H   0  0  0  0  0  0  0  0  0  0  0  0
   -6.4241   19.0827  -31.5315 H   0  0  0  0  0  0  0  0  0  0  0  0
   -7.5097   18.2566  -33.7980 H   0  0  0  0  0  0  0  0  0  0  0  0
   -6.9554   20.0132  -34.0979 H   0  0  0  0  0  0  0  0  0  0  0  0
   -4.6579   20.5955  -33.1492 H   0  0  0  0  0  0  0  0  0  0  0  0
   -2.2806   20.0518  -33.6145 H   0  0  0  0  0  0  0  0  0  0  0  0
   -1.6505   17.7767  -34.4121 H   0  0  0  0  0  0  0  0  0  0  0  0
   -3.3884   16.0142  -34.6370 H   0  0  0  0  0  0  0  0  0  0  0  0
   -6.2359   15.8422  -33.0582 H   0  0  0  0  0  0  0  0  0  0  0  0
   -6.9055   16.4420  -34.6134 H   0  0  0  0  0  0  0  0  0  0  0  0
   -5.5179   15.3013  -34.6134 H   0  0  0  0  0  0  0  0  0  0  0  0
   -3.9580   22.8981  -31.6585 H   0  0  0  0  0  0  0  0  0  0  0  0
  1  2  1  0
  2  3  1  0
  3  4  2  0
  4  5  1  0
  5  6  2  0
  6  7  1  0
  7  8  1  0
  8  9  1  0
  9 10  1  0
 10 11  1  0
 11 12  1  0
 12 13  1  0
 13 14  1  0
 14 15  1  0
 15 16  2  0
 16 17  1  0
 17 18  2  0
 18 19  1  0
 19 20  2  0
 20 21  1  0
  7 22  2  0
 22  3  1  0
 13  9  1  0
 20 15  1  0
  1 23  1  0
  1 24  1  0
  1 25  1  0
  4 26  1  0
  5 27  1  0
  6 28  1  0
  8 29  1  0
  8 30  1  0
  9 31  1  1
 10 32  1  0
 10 33  1  0
 12 34  1  0
 12 35  1  0
 13 36  1  1
 14 37  1  0
 14 38  1  0
 16 39  1  0
 17 40  1  0
 18 41  1  0
 19 42  1  0
 21 43  1  0
 21 44  1  0
 21 45  1  0
 22 46  1  0
M  END
>  <UniqueID>  (37) 
37

>  <SMILES>  (37) 
COc1cccc(C[C@H]2COC[C@H]2Cc2ccccc2C)c1

>  <Energy>  (37) 
59.55132453595417

>  <Genealogy>  (37) 
COc1cccc(C[C@H]2COC[C@H]2Cc2ccccc2C)c1 (chirality)
COc1cccc(C[C@H]2COC[C@H]2Cc2ccccc2C)c1 (3D coordinates assigned)
COc1cccc(C[C@H]2COC[C@H]2Cc2ccccc2C)c1 (nonaromatic ring conformer: 59.55132453595417 kcal/mol)

>  <smiles>  (37) 
COc1cccc(CC2COCC2Cc2ccccc2C)c1

>  <score_type>  (37) 
oracle

>  <origin>  (37) 
adg

>  <m_score__min__energy>  (37) 
-9.0099999999999998

>  <m_primary>  (37) 
energy

$$$$
37:0
     RDKit          3D

 44 45  0  0  0  0  0  0  0  0999 V2000
   -7.0210   18.9870  -32.7710 C   0  0  0  0  0  0  0  0  0  0  0  0
   -6.4380   20.3760  -33.0050 C   0  0  0  0  0  0  0  0  0  0  0  0
   -7.2860   21.4060  -32.3620 N   0  0  0  0  0  0  0  0  0  0  0  0
   -8.5980   20.8440  -31.9670 C   0  0  0  0  0  0  0  0  0  0  0  0
   -9.4240   21.9040  -31.2440 C   0  0  0  0  0  0  0  0  0  0  0  0
   -6.5900   22.0180  -31.2060 C   0  0  0  0  0  0  0  0  0  0  0  0
   -6.0560   23.4070  -31.5600 C   0  0  0  0  0  0  0  0  0  0  0  0
   -4.6330   23.3880  -31.5990 O   0  0  0  0  0  0  0  0  0  0  0  0
   -3.8450   23.9810  -30.6070 C   0  0  0  0  0  0  0  0  0  0  0  0
   -3.8580   25.2330  -30.4430 O   0  0  0  0  0  0  0  0  0  0  0  0
   -2.9240   23.1420  -29.7790 C   0  0  0  0  0  0  0  0  0  0  0  0
   -2.0910   23.9760  -28.9150 N   0  0  0  0  0  0  0  0  0  0  0  0
   -0.7830   24.2980  -29.0820 C   0  0  0  0  0  0  0  0  0  0  0  0
   -0.2900   25.0860  -28.0870 N   0  0  0  0  0  0  0  0  0  0  0  0
   -1.3600   25.2570  -27.2870 C   0  0  0  0  0  0  0  0  0  0  0  0
   -1.4670   25.9580  -26.0930 C   0  0  0  0  0  0  0  0  0  0  0  0
   -0.0530   26.7940  -25.3690 S   0  0  0  0  0  0  0  0  0  0  0  0
   -0.4310   28.3850  -26.1630 C   0  0  0  0  0  0  0  0  0  0  0  0
   -2.6850   25.9680  -25.4690 N   0  0  0  0  0  0  0  0  0  0  0  0
   -3.7650   25.3070  -26.0030 C   0  0  0  0  0  0  0  0  0  0  0  0
   -3.6430   24.6100  -27.1740 N   0  0  0  0  0  0  0  0  0  0  0  0
   -2.4350   24.6040  -27.7850 C   0  0  0  0  0  0  0  0  0  0  0  0
   -7.0996   18.7997  -31.6899 H   0  0  0  0  0  0  0  0  0  0  0  0
   -8.0202   18.9271  -33.2271 H   0  0  0  0  0  0  0  0  0  0  0  0
   -6.3639   18.2319  -33.2271 H   0  0  0  0  0  0  0  0  0  0  0  0
   -5.4256   20.4211  -32.5772 H   0  0  0  0  0  0  0  0  0  0  0  0
   -6.3996   20.5696  -34.0872 H   0  0  0  0  0  0  0  0  0  0  0  0
   -9.1378   20.5124  -32.8663 H   0  0  0  0  0  0  0  0  0  0  0  0
   -8.4366   19.9902  -31.2925 H   0  0  0  0  0  0  0  0  0  0  0  0
   -9.3204   21.7711  -30.1570 H   0  0  0  0  0  0  0  0  0  0  0  0
   -9.0650   22.9045  -31.5269 H   0  0  0  0  0  0  0  0  0  0  0  0
  -10.4819   21.8004  -31.5269 H   0  0  0  0  0  0  0  0  0  0  0  0
   -7.2959   22.1071  -30.3671 H   0  0  0  0  0  0  0  0  0  0  0  0
   -5.7407   21.3763  -30.9286 H   0  0  0  0  0  0  0  0  0  0  0  0
   -6.4431   23.7055  -32.5454 H   0  0  0  0  0  0  0  0  0  0  0  0
   -6.3860   24.1256  -30.7953 H   0  0  0  0  0  0  0  0  0  0  0  0
   -3.5212   22.4611  -29.1546 H   0  0  0  0  0  0  0  0  0  0  0  0
   -2.2685   22.5712  -30.4531 H   0  0  0  0  0  0  0  0  0  0  0  0
   -0.1808   23.9561  -29.9367 H   0  0  0  0  0  0  0  0  0  0  0  0
   -0.6119   29.1466  -25.3902 H   0  0  0  0  0  0  0  0  0  0  0  0
    0.4189   28.6932  -26.7896 H   0  0  0  0  0  0  0  0  0  0  0  0
   -1.3287   28.2779  -26.7896 H   0  0  0  0  0  0  0  0  0  0  0  0
   -2.8010   26.4860  -24.5700 H   0  0  0  0  0  0  0  0  0  0  0  0
   -4.7349   25.3385  -25.4851 H   0  0  0  0  0  0  0  0  0  0  0  0
  1  2  1  0
  2  3  1  0
  3  4  1  0
  4  5  1  0
  3  6  1  0
  6  7  1  0
  7  8  1  0
  8  9  1  0
  9 10  2  0
  9 11  1  0
 11 12  1  0
 12 13  1  0
 13 14  2  0
 14 15  1  0
 15 16  2  0
 16 17  1  0
 17 18  1  0
 16 19  1  0
 19 20  2  0
 20 21  1  0
 21 22  2  0
 22 12  1  0
 22 15  1  0
  1 23  1  0
  1 24  1  0
  1 25  1  0
  2 26  1  0
  2 27  1  0
  4 28  1  0
  4 29  1  0
  5 30  1  0
  5 31  1  0
  5 32  1  0
  6 33  1  0
  6 34  1  0
  7 35  1  0
  7 36  1  0
 11 37  1  0
 11 38  1  0
 13 39  1  0
 18 40  1  0
 18 41  1  0
 18 42  1  0
 19 43  1  0
 20 44  1  0
M  CHG  1  19   1
M  END
>  <UniqueID>  (38) 
38

>  <SMILES>  (38) 
CCN(CC)CCOC(=O)Cn1cnc2c(SC)[nH+]cnc21

>  <Energy>  (38) 
68.69350265585102

>  <Genealogy>  (38) 
CCN(CC)CCOC(=O)Cn1cnc2c(SC)[nH+]cnc21 (protonated)
CCN(CC)CCOC(=O)Cn1cnc2c(SC)[nH+]cnc21 (3D coordinates assigned)
CCN(CC)CCOC(=O)Cn1cnc2c(SC)[nH+]cnc21 (optimized conformer: 68.69350265585102 kcal/mol)

>  <smiles>  (38) 
CCN(CC)CCOC(=O)Cn1cnc2c(SC)ncnc21

>  <score_type>  (38) 
oracle

>  <origin>  (38) 
adg

>  <m_score__min__energy>  (38) 
-6.5099999999999998

>  <m_primary>  (38) 
energy

$$$$
38:0
     RDKit          3D

 46 48  0  0  0  0  0  0  0  0999 V2000
   -4.0430   25.6640  -30.8500 O   0  0  0  0  0  0  0  0  0  0  0  0
   -4.8010   24.7650  -30.3980 C   0  0  0  0  0  0  0  0  0  0  0  0
   -6.2740   24.8510  -30.4150 C   0  0  0  0  0  0  0  0  0  0  0  0
   -6.7120   23.5480  -29.7260 C   0  0  0  0  0  0  0  0  0  0  0  0
   -5.4460   22.6980  -29.5040 C   0  0  0  0  0  0  0  0  0  0  0  0
   -4.3250   23.5520  -29.8480 N   0  0  0  0  0  0  0  0  0  0  0  0
   -2.9200   23.1470  -29.7790 C   0  0  0  0  0  0  0  0  0  0  0  0
   -2.7470   21.7010  -30.2620 C   0  0  0  0  0  0  0  0  0  0  0  0
   -2.7890   21.6200  -31.7400 N   0  0  0  0  0  0  0  0  0  0  0  0
   -4.0880   22.0950  -32.2790 C   0  0  0  0  0  0  0  0  0  0  0  0
   -5.1130   20.9620  -32.4270 C   0  0  0  0  0  0  0  0  0  0  0  0
   -4.5680   19.8730  -33.2500 N   0  0  0  0  0  0  0  0  0  0  0  0
   -5.4360   18.9040  -33.8790 C   0  0  0  0  0  0  0  0  0  0  0  0
   -4.9890   18.1810  -34.8120 O   0  0  0  0  0  0  0  0  0  0  0  0
   -6.8800   18.7410  -33.4720 C   0  0  1  0  0  0  0  0  0  0  0  0
   -6.9990   18.1590  -32.0750 C   0  0  0  0  0  0  0  0  0  0  0  0
   -8.2850   18.7510  -31.5700 C   0  0  0  0  0  0  0  0  0  0  0  0
   -8.5410   19.9280  -32.5000 C   0  0  0  0  0  0  0  0  0  0  0  0
   -7.5240   19.9910  -33.4750 O   0  0  0  0  0  0  0  0  0  0  0  0
   -3.1220   19.8350  -33.4970 C   0  0  0  0  0  0  0  0  0  0  0  0
   -2.3750   20.2770  -32.2320 C   0  0  0  0  0  0  0  0  0  0  0  0
   -6.6239   25.7302  -29.8542 H   0  0  0  0  0  0  0  0  0  0  0  0
   -6.6872   24.9622  -31.4284 H   0  0  0  0  0  0  0  0  0  0  0  0
   -7.1873   23.7744  -28.7602 H   0  0  0  0  0  0  0  0  0  0  0  0
   -7.4408   23.0058  -30.3464 H   0  0  0  0  0  0  0  0  0  0  0  0
   -5.3773   22.3823  -28.4525 H   0  0  0  0  0  0  0  0  0  0  0  0
   -5.4606   21.7857  -30.1184 H   0  0  0  0  0  0  0  0  0  0  0  0
   -2.3204   23.8143  -30.4155 H   0  0  0  0  0  0  0  0  0  0  0  0
   -2.5844   23.2127  -28.7335 H   0  0  0  0  0  0  0  0  0  0  0  0
   -1.7777   21.3187  -29.9094 H   0  0  0  0  0  0  0  0  0  0  0  0
   -3.5731   21.0980  -29.8571 H   0  0  0  0  0  0  0  0  0  0  0  0
   -4.4971   22.8537  -31.5957 H   0  0  0  0  0  0  0  0  0  0  0  0
   -3.9023   22.5105  -33.2805 H   0  0  0  0  0  0  0  0  0  0  0  0
   -5.3647   20.5703  -31.4304 H   0  0  0  0  0  0  0  0  0  0  0  0
   -6.0126   21.3608  -32.9186 H   0  0  0  0  0  0  0  0  0  0  0  0
   -7.3487   18.0570  -34.1948 H   0  0  0  0  0  0  0  0  0  0  0  0
   -7.0553   17.0609  -32.1077 H   0  0  0  0  0  0  0  0  0  0  0  0
   -6.1349   18.3895  -31.4345 H   0  0  0  0  0  0  0  0  0  0  0  0
   -9.1033   18.0186  -31.6325 H   0  0  0  0  0  0  0  0  0  0  0  0
   -8.2255   19.0522  -30.5137 H   0  0  0  0  0  0  0  0  0  0  0  0
   -9.5149   19.7984  -32.9948 H   0  0  0  0  0  0  0  0  0  0  0  0
   -8.5454   20.8603  -31.9163 H   0  0  0  0  0  0  0  0  0  0  0  0
   -2.8219   18.8101  -33.7607 H   0  0  0  0  0  0  0  0  0  0  0  0
   -2.8737   20.5146  -34.3256 H   0  0  0  0  0  0  0  0  0  0  0  0
   -2.5672   19.5403  -31.4381 H   0  0  0  0  0  0  0  0  0  0  0  0
   -1.3077   20.3405  -32.4905 H   0  0  0  0  0  0  0  0  0  0  0  0
  1  2  2  0
  2  3  1  0
  3  4  1  0
  4  5  1  0
  5  6  1  0
  6  7  1  0
  7  8  1  0
  8  9  1  0
  9 10  1  0
 10 11  1  0
 11 12  1  0
 12 13  1  0
 13 14  2  0
 13 15  1  0
 15 16  1  0
 16 17  1  0
 17 18  1  0
 18 19  1  0
 12 20  1  0
 20 21  1  0
  6  2  1  0
 21  9  1  0
 19 15  1  0
  3 22  1  0
  3 23  1  0
  4 24  1  0
  4 25  1  0
  5 26  1  0
  5 27  1  0
  7 28  1  0
  7 29  1  0
  8 30  1  0
  8 31  1  0
 10 32  1  0
 10 33  1  0
 11 34  1  0
 11 35  1  0
 15 36  1  6
 16 37  1  0
 16 38  1  0
 17 39  1  0
 17 40  1  0
 18 41  1  0
 18 42  1  0
 20 43  1  0
 20 44  1  0
 21 45  1  0
 21 46  1  0
M  END
>  <UniqueID>  (39) 
39

>  <SMILES>  (39) 
O=C1CCCN1CCN1CCN(C(=O)[C@H]2CCCO2)CC1

>  <Energy>  (39) 
55.15922519666488

>  <Genealogy>  (39) 
O=C1CCCN1CCN1CCN(C(=O)[C@H]2CCCO2)CC1 (chirality)
O=C1CCCN1CCN1CCN(C(=O)[C@H]2CCCO2)CC1 (3D coordinates assigned)
O=C1CCCN1CCN1CCN(C(=O)[C@H]2CCCO2)CC1 (nonaromatic ring conformer: 55.15922519666488 kcal/mol)

>  <smiles>  (39) 
O=C1CCCN1CCN1CCN(C(=O)C2CCCO2)CC1

>  <score_type>  (39) 
oracle

>  <origin>  (39) 
adg

>  <m_score__min__energy>  (39) 
-8.1500000000000004

>  <m_primary>  (39) 
energy

$$$$
39:0
     RDKit          3D

 27 28  0  0  0  0  0  0  0  0999 V2000
   -5.4540   23.8890  -31.2060 C   0  0  0  0  0  0  0  0  0  0  0  0
   -6.5310   22.8500  -31.2940 C   0  0  0  0  0  0  0  0  0  0  0  0
   -7.6110   22.8760  -30.3990 C   0  0  0  0  0  0  0  0  0  0  0  0
   -8.6280   21.9230  -30.4970 C   0  0  0  0  0  0  0  0  0  0  0  0
   -8.5860   20.9520  -31.5020 C   0  0  0  0  0  0  0  0  0  0  0  0
   -7.5320   20.9410  -32.4320 C   0  0  0  0  0  0  0  0  0  0  0  0
   -7.4570   19.9390  -33.4600 N   0  0  0  0  0  0  0  0  0  0  0  0
   -6.2800   19.1750  -33.7610 C   0  0  0  0  0  0  0  0  0  0  0  0
   -5.3500   18.9260  -32.9040 N   0  0  0  0  0  0  0  0  0  0  0  0
   -4.3390   18.0610  -33.4970 C   0  0  0  0  0  0  0  0  0  0  0  0
   -4.8440   17.7930  -34.9270 C   0  0  0  0  0  0  0  0  0  0  0  0
   -6.0920   18.5300  -35.0030 N   0  0  0  0  0  0  0  0  0  0  0  0
   -6.5020   21.8840  -32.3120 C   0  0  0  0  0  0  0  0  0  0  0  0
   -5.2344   24.1009  -30.1492 H   0  0  0  0  0  0  0  0  0  0  0  0
   -4.5451   23.5179  -31.7021 H   0  0  0  0  0  0  0  0  0  0  0  0
   -5.7922   24.8107  -31.7021 H   0  0  0  0  0  0  0  0  0  0  0  0
   -7.6573   23.6490  -29.6178 H   0  0  0  0  0  0  0  0  0  0  0  0
   -9.4636   21.9367  -29.7818 H   0  0  0  0  0  0  0  0  0  0  0  0
   -9.3806   20.1939  -31.5652 H   0  0  0  0  0  0  0  0  0  0  0  0
   -8.3180   19.7380  -34.0190 H   0  0  0  0  0  0  0  0  0  0  0  0
   -5.3380   19.2520  -31.9130 H   0  0  0  0  0  0  0  0  0  0  0  0
   -3.3616   18.5651  -33.5189 H   0  0  0  0  0  0  0  0  0  0  0  0
   -4.1980   17.1324  -32.9245 H   0  0  0  0  0  0  0  0  0  0  0  0
   -4.1246   18.1645  -35.6717 H   0  0  0  0  0  0  0  0  0  0  0  0
   -4.9723   16.7208  -35.1365 H   0  0  0  0  0  0  0  0  0  0  0  0
   -6.7320   18.5770  -35.8270 H   0  0  0  0  0  0  0  0  0  0  0  0
   -5.6626   21.8669  -33.0227 H   0  0  0  0  0  0  0  0  0  0  0  0
  1  2  1  0
  2  3  2  0
  3  4  1  0
  4  5  2  0
  5  6  1  0
  6  7  1  0
  7  8  1  0
  8  9  2  0
  9 10  1  0
 10 11  1  0
 11 12  1  0
  6 13  2  0
 13  2  1  0
 12  8  1  0
  1 14  1  0
  1 15  1  0
  1 16  1  0
  3 17  1  0
  4 18  1  0
  5 19  1  0
  7 20  1  0
  9 21  1  0
 10 22  1  0
 10 23  1  0
 11 24  1  0
 11 25  1  0
 12 26  1  0
 13 27  1  0
M  CHG  1   9   1
M  END
>  <UniqueID>  (40) 
40

>  <SMILES>  (40) 
Cc1cccc(NC2=[NH+]CCN2)c1

>  <Energy>  (40) 
40.42836983346786

>  <Genealogy>  (40) 
Cc1cccc(NC2=[NH+]CCN2)c1 (protonated)
Cc1cccc(NC2=[NH+]CCN2)c1 (3D coordinates assigned)
Cc1cccc(NC2=[NH+]CCN2)c1 (nonaromatic ring conformer: 40.42836983346786 kcal/mol)

>  <smiles>  (40) 
Cc1cccc(NC2=NCCN2)c1

>  <score_type>  (40) 
oracle

>  <origin>  (40) 
adg

>  <m_score__min__energy>  (40) 
-5.2800000000000002

>  <m_primary>  (40) 
energy

$$$$
40:0
     RDKit          3D

 75 74  0  0  0  0  0  0  0  0999 V2000
   -9.5251   18.7547  -31.1951 H   0  0  0  0  0  0  0  0  0  0  0  0
   -8.5720   18.9320  -31.7150 C   0  0  0  0  0  0  0  0  0  0  0  0
   -7.2370   17.1820  -32.8510 C   0  0  0  0  0  0  0  0  0  0  0  0
   -8.1081   16.9446  -33.4793 H   0  0  0  0  0  0  0  0  0  0  0  0
   -7.2700   20.4330  -33.2970 C   0  0  0  0  0  0  0  0  0  0  0  0
   -6.6080   19.5586  -33.3822 H   0  0  0  0  0  0  0  0  0  0  0  0
   -7.6473   20.7553  -34.2787 H   0  0  0  0  0  0  0  0  0  0  0  0
   -6.4680   21.6000  -32.7030 C   0  0  0  0  0  0  0  0  0  0  0  0
   -5.4269   21.5249  -33.0500 H   0  0  0  0  0  0  0  0  0  0  0  0
   -6.9408   22.5347  -33.0389 H   0  0  0  0  0  0  0  0  0  0  0  0
   -6.4760   21.6000  -31.1660 C   0  0  0  0  0  0  0  0  0  0  0  0
   -6.8532   20.6271  -30.8179 H   0  0  0  0  0  0  0  0  0  0  0  0
   -5.4441   21.7850  -30.8327 H   0  0  0  0  0  0  0  0  0  0  0  0
   -3.6690   19.8960  -32.4750 C   0  0  0  0  0  0  0  0  0  0  0  0
   -3.0416   19.8380  -31.5733 H   0  0  0  0  0  0  0  0  0  0  0  0
   -4.6920   20.2226  -32.2368 H   0  0  0  0  0  0  0  0  0  0  0  0
   -3.0600   20.9330  -33.4330 C   0  0  0  0  0  0  0  0  0  0  0  0
   -3.6138   21.8773  -33.3258 H   0  0  0  0  0  0  0  0  0  0  0  0
   -3.1373   20.5257  -34.4519 H   0  0  0  0  0  0  0  0  0  0  0  0
   -1.5790   21.2020  -33.1580 C   0  0  0  0  0  0  0  0  0  0  0  0
   -1.4075   21.2331  -32.0719 H   0  0  0  0  0  0  0  0  0  0  0  0
   -0.9719   20.3994  -33.6022 H   0  0  0  0  0  0  0  0  0  0  0  0
   -1.2929   22.1668  -33.6022 H   0  0  0  0  0  0  0  0  0  0  0  0
   -7.4860   17.8980  -31.5480 C   0  0  0  0  0  0  0  0  0  0  0  0
   -7.7954   17.1672  -30.7863 H   0  0  0  0  0  0  0  0  0  0  0  0
   -6.5594   18.4013  -31.2348 H   0  0  0  0  0  0  0  0  0  0  0  0
   -8.4660   20.0540  -32.4500 C   0  0  0  0  0  0  0  0  0  0  0  0
   -9.3164   20.7516  -32.4341 H   0  0  0  0  0  0  0  0  0  0  0  0
   -6.0220   16.8130  -33.2990 C   0  0  0  0  0  0  0  0  0  0  0  0
   -5.4322   16.1312  -32.6687 H   0  0  0  0  0  0  0  0  0  0  0  0
   -5.4090   17.2660  -34.6030 C   0  0  0  0  0  0  0  0  0  0  0  0
   -6.2143   17.4832  -35.3201 H   0  0  0  0  0  0  0  0  0  0  0  0
   -4.7586   16.4614  -34.9766 H   0  0  0  0  0  0  0  0  0  0  0  0
   -4.5560   18.5260  -34.4150 C   0  0  0  0  0  0  0  0  0  0  0  0
   -5.2180   19.4045  -34.4093 H   0  0  0  0  0  0  0  0  0  0  0  0
   -3.8356   18.5733  -35.2449 H   0  0  0  0  0  0  0  0  0  0  0  0
   -3.7610   18.4970  -33.1010 C   0  0  0  0  0  0  0  0  0  0  0  0
   -2.7450   18.1278  -33.3047 H   0  0  0  0  0  0  0  0  0  0  0  0
   -4.2812   17.8335  -32.3945 H   0  0  0  0  0  0  0  0  0  0  0  0
   -7.3600   22.7130  -30.5650 C   0  0  0  0  0  0  0  0  0  0  0  0
   -8.4048   22.5020  -30.8368 H   0  0  0  0  0  0  0  0  0  0  0  0
   -7.1767   22.6967  -29.4805 H   0  0  0  0  0  0  0  0  0  0  0  0
   -7.0240   24.1430  -31.0350 C   0  0  0  0  0  0  0  0  0  0  0  0
   -6.2905   24.0795  -31.8522 H   0  0  0  0  0  0  0  0  0  0  0  0
   -7.9648   24.6104  -31.3611 H   0  0  0  0  0  0  0  0  0  0  0  0
   -6.4380   25.0230  -29.9190 C   0  0  0  0  0  0  0  0  0  0  0  0
   -7.2456   25.6201  -29.4704 H   0  0  0  0  0  0  0  0  0  0  0  0
   -5.9763   24.3698  -29.1639 H   0  0  0  0  0  0  0  0  0  0  0  0
   -5.3660   25.9650  -30.4690 C   0  0  0  0  0  0  0  0  0  0  0  0
   -5.6583   26.3056  -31.4733 H   0  0  0  0  0  0  0  0  0  0  0  0
   -5.2647   26.8328  -29.8006 H   0  0  0  0  0  0  0  0  0  0  0  0
   -4.0910   25.2630  -30.5470 N   0  0  0  0  0  0  0  0  0  0  0  0
   -3.9980   23.8410  -30.5050 C   0  0  0  0  0  0  0  0  0  0  0  0
   -3.6460   23.2180  -31.5420 O   0  0  0  0  0  0  0  0  0  0  0  0
   -4.2680   23.1550  -29.3130 O   0  0  0  0  0  0  0  0  0  0  0  0
   -3.2850   22.4400  -28.5610 C   0  0  0  0  0  0  0  0  0  0  0  0
   -3.7865   21.6832  -27.9399 H   0  0  0  0  0  0  0  0  0  0  0  0
   -2.5865   21.9593  -29.2617 H   0  0  0  0  0  0  0  0  0  0  0  0
   -2.4880   23.3980  -27.6470 C   0  0  1  0  0  0  0  0  0  0  0  0
   -1.8678   22.8008  -26.9624 H   0  0  0  0  0  0  0  0  0  0  0  0
   -1.5450   24.2890  -28.4940 C   0  0  0  0  0  0  0  0  0  0  0  0
   -0.5365   24.2587  -28.0559 H   0  0  0  0  0  0  0  0  0  0  0  0
   -1.5380   23.9013  -29.5234 H   0  0  0  0  0  0  0  0  0  0  0  0
   -1.9910   25.6350  -28.5300 O   0  0  0  0  0  0  0  0  0  0  0  0
   -1.1390   26.4620  -27.7680 C   0  0  0  0  0  0  0  0  0  0  0  0
   -1.3195   26.2868  -26.6971 H   0  0  0  0  0  0  0  0  0  0  0  0
   -0.0910   26.2275  -28.0064 H   0  0  0  0  0  0  0  0  0  0  0  0
   -1.3422   27.5165  -28.0064 H   0  0  0  0  0  0  0  0  0  0  0  0
   -3.4520   24.2570  -26.7850 C   0  0  0  0  0  0  0  0  0  0  0  0
   -3.9326   23.6066  -26.0393 H   0  0  0  0  0  0  0  0  0  0  0  0
   -2.8568   25.0493  -26.3076 H   0  0  0  0  0  0  0  0  0  0  0  0
   -4.4950   24.9050  -27.5850 N   0  0  0  0  0  0  0  0  0  0  0  0
   -5.2790   24.2290  -27.7350 H   0  0  0  0  0  0  0  0  0  0  0  0
   -4.1220   25.1730  -28.5240 H   0  0  0  0  0  0  0  0  0  0  0  0
   -4.8710   25.7450  -27.0890 H   0  0  0  0  0  0  0  0  0  0  0  0
  1  2  1  0
  2  3  2  0
  3  4  1  0
  3  5  1  0
  5  6  1  0
  5  7  1  0
  5  8  1  0
  8  9  1  0
  8 10  1  0
  8 11  1  0
 11 12  1  0
 11 13  1  0
 11 14  1  0
 14 15  1  0
 14 16  1  0
 14 17  1  0
 17 18  1  0
 17 19  1  0
 17 20  1  0
 20 21  1  0
 20 22  1  0
 20 23  1  0
  2 24  1  0
 24 25  1  0
 24 26  1  0
 24 27  1  0
 27 28  1  0
 27 29  2  0
 29 30  1  0
 29 31  1  0
 31 32  1  0
 31 33  1  0
 31 34  1  0
 34 35  1  0
 34 36  1  0
 34 37  1  0
 37 38  1  0
 37 39  1  0
 37 40  1  0
 40 41  1  0
 40 42  1  0
 40 43  1  0
 43 44  1  0
 43 45  1  0
 43 46  1  0
 46 47  1  0
 46 48  1  0
 46 49  1  0
 49 50  1  0
 49 51  1  0
 49 52  1  0
 52 53  1  0
 53 54  2  0
 53 55  1  0
 55 56  1  0
 56 57  1  0
 56 58  1  0
 56 59  1  0
 59 60  1  1
 59 61  1  0
 61 62  1  0
 61 63  1  0
 61 64  1  0
 64 65  1  0
 65 66  1  0
 65 67  1  0
 65 68  1  0
 59 69  1  0
 69 70  1  0
 69 71  1  0
 69 72  1  0
 72 73  1  0
 72 74  1  0
 72 75  1  0
M  CHG  2  52  -1  72   1
M  END
>  <UniqueID>  (41) 
41

>  <SMILES>  (41) 
CCCCCC/C=C\C/C=C\CCCCCCC[N-]C(=O)OC[C@H](C[NH3+])COC

>  <Energy>  (41) 
39.55143226915811

>  <Genealogy>  (41) 
CCCCCCC=CCC=CCCCCCCC[N-]C(=O)OCC(C[NH3+])COC (protonated)
CCCCCCC=CCC=CCCCCCCC[N-]C(=O)OC[C@H](C[NH3+])COC (chirality)
CCCCCC/C=C\C/C=C\CCCCCCC[N-]C(=O)OC[C@H](C[NH3+])COC (cis-trans isomerization)
CCCCCC/C=C\C/C=C\CCCCCCC[N-]C(=O)OC[C@H](C[NH3+])COC (3D coordinates assigned)
CCCCCC/C=C\C/C=C\CCCCCCC[N-]C(=O)OC[C@H](C[NH3+])COC (optimized conformer: 39.55143226915811 kcal/mol)

>  <smiles>  (41) 
CCCCCCC=CCC=CCCCCCCCNC(=O)OCC(CN)COC

>  <score_type>  (41) 
oracle

>  <origin>  (41) 
adg

>  <m_score__min__energy>  (41) 
-8.5199999999999996

>  <m_primary>  (41) 
energy

$$$$
41:0
     RDKit          3D

 48 51  0  0  0  0  0  0  0  0999 V2000
    1.7515   25.4691  -26.0529 H   0  0  0  0  0  0  0  0  0  0  0  0
    0.6660   25.3610  -26.1940 C   0  0  0  0  0  0  0  0  0  0  0  0
   -0.1580   25.1090  -25.0960 C   0  0  0  0  0  0  0  0  0  0  0  0
    0.2777   25.0285  -24.0892 H   0  0  0  0  0  0  0  0  0  0  0  0
   -1.5340   24.9590  -25.2740 C   0  0  0  0  0  0  0  0  0  0  0  0
   -2.1777   24.7532  -24.4061 H   0  0  0  0  0  0  0  0  0  0  0  0
   -2.1030   25.0690  -26.5540 C   0  0  0  0  0  0  0  0  0  0  0  0
   -3.5870   24.9070  -26.7330 C   0  0  0  0  0  0  0  0  0  0  0  0
   -4.0716   24.8541  -25.7469 H   0  0  0  0  0  0  0  0  0  0  0  0
   -3.9850   25.7670  -27.2915 H   0  0  0  0  0  0  0  0  0  0  0  0
   -3.7901   23.9814  -27.2915 H   0  0  0  0  0  0  0  0  0  0  0  0
   -1.2770   25.3590  -27.6610 C   0  0  0  0  0  0  0  0  0  0  0  0
   -1.8610   25.4450  -28.9730 N   0  0  0  0  0  0  0  0  0  0  0  0
   -2.6380   24.5670  -29.5400 C   0  0  0  0  0  0  0  0  0  0  0  0
   -3.8500   24.9130  -30.0700 N   0  0  0  0  0  0  0  0  0  0  0  0
   -4.6780   23.9890  -30.6400 C   0  0  0  0  0  0  0  0  0  0  0  0
   -5.9050   24.3780  -31.1790 C   0  0  0  0  0  0  0  0  0  0  0  0
   -6.2082   25.4349  -31.1471 H   0  0  0  0  0  0  0  0  0  0  0  0
   -6.7490   23.4280  -31.7590 C   0  0  0  0  0  0  0  0  0  0  0  0
   -7.7138   23.7448  -32.1820 H   0  0  0  0  0  0  0  0  0  0  0  0
   -6.3800   22.0690  -31.8090 C   0  0  0  0  0  0  0  0  0  0  0  0
   -7.2680   21.0910  -32.3990 N   0  0  0  0  0  0  0  0  0  0  0  0
   -8.6690   20.9840  -31.9600 C   0  0  0  0  0  0  0  0  0  0  0  0
   -9.2291   21.8575  -32.3251 H   0  0  0  0  0  0  0  0  0  0  0  0
   -8.6922   20.9464  -30.8609 H   0  0  0  0  0  0  0  0  0  0  0  0
   -9.3130   19.7120  -32.5070 C   0  0  0  0  0  0  0  0  0  0  0  0
   -9.6354   19.0751  -31.6701 H   0  0  0  0  0  0  0  0  0  0  0  0
  -10.1850   19.9780  -33.1225 H   0  0  0  0  0  0  0  0  0  0  0  0
   -8.5824   19.1666  -33.1225 H   0  0  0  0  0  0  0  0  0  0  0  0
   -6.7780   20.1870  -33.4510 C   0  0  0  0  0  0  0  0  0  0  0  0
   -7.6209   19.8937  -34.0941 H   0  0  0  0  0  0  0  0  0  0  0  0
   -6.0110   20.7151  -34.0365 H   0  0  0  0  0  0  0  0  0  0  0  0
   -6.1500   18.9320  -32.8480 C   0  0  0  0  0  0  0  0  0  0  0  0
   -6.1825   18.9969  -31.7504 H   0  0  0  0  0  0  0  0  0  0  0  0
   -6.7108   18.0457  -33.1797 H   0  0  0  0  0  0  0  0  0  0  0  0
   -5.1044   18.8496  -33.1797 H   0  0  0  0  0  0  0  0  0  0  0  0
   -5.1390   21.6770  -31.2690 C   0  0  0  0  0  0  0  0  0  0  0  0
   -4.8352   20.6204  -31.3058 H   0  0  0  0  0  0  0  0  0  0  0  0
   -4.2880   22.6290  -30.6840 C   0  0  0  0  0  0  0  0  0  0  0  0
   -3.0790   22.3070  -30.1410 N   0  0  0  0  0  0  0  0  0  0  0  0
   -2.4330   21.1290  -30.0160 C   0  0  0  0  0  0  0  0  0  0  0  0
   -2.8296   20.1684  -30.3764 H   0  0  0  0  0  0  0  0  0  0  0  0
   -1.2380   21.2700  -29.3940 N   0  0  0  0  0  0  0  0  0  0  0  0
   -1.1380   22.5910  -29.1230 C   0  0  0  0  0  0  0  0  0  0  0  0
   -0.2922   23.0805  -28.6180 H   0  0  0  0  0  0  0  0  0  0  0  0
   -2.2720   23.2210  -29.5850 C   0  0  0  0  0  0  0  0  0  0  0  0
    0.1140   25.4760  -27.4710 C   0  0  0  0  0  0  0  0  0  0  0  0
    0.7697   25.6593  -28.3350 H   0  0  0  0  0  0  0  0  0  0  0  0
  1  2  1  0
  2  3  2  0
  3  4  1  0
  3  5  1  0
  5  6  1  0
  5  7  2  0
  7  8  1  0
  8  9  1  0
  8 10  1  0
  8 11  1  0
  7 12  1  0
 12 13  1  0
 13 14  2  0
 14 15  1  0
 15 16  1  0
 16 17  2  0
 17 18  1  0
 17 19  1  0
 19 20  1  0
 19 21  2  0
 21 22  1  0
 22 23  1  0
 23 24  1  0
 23 25  1  0
 23 26  1  0
 26 27  1  0
 26 28  1  0
 26 29  1  0
 22 30  1  0
 30 31  1  0
 30 32  1  0
 30 33  1  0
 33 34  1  0
 33 35  1  0
 33 36  1  0
 21 37  1  0
 37 38  1  0
 37 39  2  0
 39 40  1  0
 40 41  1  0
 41 42  1  0
 41 43  2  0
 43 44  1  0
 44 45  1  0
 44 46  2  0
 12 47  2  0
 47 48  1  0
 47  2  1  0
 46 14  1  0
 39 16  1  0
 46 40  1  0
M  CHG  1  15  -1
M  END
>  <UniqueID>  (42) 
42

>  <SMILES>  (42) 
CCN(CC)c1ccc2[n-]/c(=N\c3ccccc3C)c3cncn3c2c1

>  <Energy>  (42) 
96.48481154038521

>  <Genealogy>  (42) 
CCN(CC)c1ccc2[n-]c(=Nc3ccccc3C)c3cncn3c2c1 (protonated)
CCN(CC)c1ccc2[n-]/c(=N\c3ccccc3C)c3cncn3c2c1 (cis-trans isomerization)
CCN(CC)c1ccc2[n-]/c(=N\c3ccccc3C)c3cncn3c2c1 (3D coordinates assigned)
CCN(CC)c1ccc2[n-]/c(=N\c3ccccc3C)c3cncn3c2c1 (optimized conformer: 96.48481154038521 kcal/mol)

>  <smiles>  (42) 
CCN(CC)c1ccc2[nH]c(=Nc3ccccc3C)c3cncn3c2c1

>  <score_type>  (42) 
oracle

>  <origin>  (42) 
adg

>  <m_score__min__energy>  (42) 
-9.8900000000000006

>  <m_primary>  (42) 
energy

$$$$
42:0
     RDKit          3D

 35 36  0  0  0  0  0  0  0  0999 V2000
   -4.3123   20.6027  -33.2779 H   0  0  0  0  0  0  0  0  0  0  0  0
   -5.2330   21.0340  -32.8580 C   0  0  0  0  0  0  0  0  0  0  0  0
   -6.3990   20.2680  -32.8030 C   0  0  0  0  0  0  0  0  0  0  0  0
   -6.3925   19.2361  -33.1839 H   0  0  0  0  0  0  0  0  0  0  0  0
   -7.5760   20.8030  -32.2670 C   0  0  0  0  0  0  0  0  0  0  0  0
   -8.7190   19.9890  -32.2250 O   0  0  0  0  0  0  0  0  0  0  0  0
   -8.7370   18.6540  -31.7320 C   0  0  0  0  0  0  0  0  0  0  0  0
   -8.7368   18.6693  -30.6321 H   0  0  0  0  0  0  0  0  0  0  0  0
   -9.6421   18.1426  -32.0914 H   0  0  0  0  0  0  0  0  0  0  0  0
   -7.8460   18.1183  -32.0914 H   0  0  0  0  0  0  0  0  0  0  0  0
   -7.5750   22.1290  -31.7870 C   0  0  0  0  0  0  0  0  0  0  0  0
   -8.4933   22.5564  -31.3580 H   0  0  0  0  0  0  0  0  0  0  0  0
   -6.4070   22.9070  -31.8540 C   0  0  0  0  0  0  0  0  0  0  0  0
   -6.3970   24.3050  -31.3020 C   0  0  0  0  0  0  0  0  0  0  0  0
   -6.5854   25.0202  -32.1163 H   0  0  0  0  0  0  0  0  0  0  0  0
   -7.1817   24.3983  -30.5368 H   0  0  0  0  0  0  0  0  0  0  0  0
   -5.0680   24.5970  -30.6830 C   0  0  0  0  0  0  0  0  0  0  0  0
   -4.4710   25.6700  -30.9690 O   0  0  0  0  0  0  0  0  0  0  0  0
   -4.4730   23.6230  -29.8110 N   0  0  0  0  0  0  0  0  0  0  0  0
   -3.4510   23.7570  -29.0080 C   0  0  0  0  0  0  0  0  0  0  0  0
   -3.0280   22.7300  -28.1360 C   0  0  0  0  0  0  0  0  0  0  0  0
   -3.5726   21.7749  -28.0998 H   0  0  0  0  0  0  0  0  0  0  0  0
   -1.9150   22.9350  -27.3210 C   0  0  0  0  0  0  0  0  0  0  0  0
   -1.5803   22.1400  -26.6384 H   0  0  0  0  0  0  0  0  0  0  0  0
   -1.2270   24.1440  -27.3700 C   0  0  0  0  0  0  0  0  0  0  0  0
   -0.3488   24.3095  -26.7285 H   0  0  0  0  0  0  0  0  0  0  0  0
   -1.6630   25.1470  -28.2430 C   0  0  0  0  0  0  0  0  0  0  0  0
   -0.9010   26.4370  -28.3440 C   0  0  0  0  0  0  0  0  0  0  0  0
   -0.6795   26.8120  -27.3339 H   0  0  0  0  0  0  0  0  0  0  0  0
    0.0406   26.2652  -28.8860 H   0  0  0  0  0  0  0  0  0  0  0  0
   -1.5060   27.1788  -28.8860 H   0  0  0  0  0  0  0  0  0  0  0  0
   -2.7410   24.9230  -29.0490 N   0  0  0  0  0  0  0  0  0  0  0  0
   -3.0410   25.6730  -29.7150 H   0  0  0  0  0  0  0  0  0  0  0  0
   -5.2330   22.3470  -32.3810 C   0  0  0  0  0  0  0  0  0  0  0  0
   -4.3098   22.9439  -32.4186 H   0  0  0  0  0  0  0  0  0  0  0  0
  1  2  1  0
  2  3  2  0
  3  4  1  0
  3  5  1  0
  5  6  1  0
  6  7  1  0
  7  8  1  0
  7  9  1  0
  7 10  1  0
  5 11  2  0
 11 12  1  0
 11 13  1  0
 13 14  1  0
 14 15  1  0
 14 16  1  0
 14 17  1  0
 17 18  2  0
 17 19  1  0
 19 20  2  0
 20 21  1  0
 21 22  1  0
 21 23  2  0
 23 24  1  0
 23 25  1  0
 25 26  1  0
 25 27  2  0
 27 28  1  0
 28 29  1  0
 28 30  1  0
 28 31  1  0
 27 32  1  0
 32 33  1  0
 13 34  2  0
 34 35  1  0
 34  2  1  0
 32 20  1  0
M  END
>  <UniqueID>  (43) 
43

>  <SMILES>  (43) 
COc1cccc(CC(=O)/N=c2\cccc(C)[nH]2)c1

>  <Energy>  (43) 
39.5103798458516

>  <Genealogy>  (43) 
COc1cccc(CC(=O)/N=c2\cccc(C)[nH]2)c1 (cis-trans isomerization)
COc1cccc(CC(=O)/N=c2\cccc(C)[nH]2)c1 (3D coordinates assigned)
COc1cccc(CC(=O)/N=c2\cccc(C)[nH]2)c1 (optimized conformer: 39.5103798458516 kcal/mol)

>  <smiles>  (43) 
COc1cccc(CC(=O)N=c2cccc(C)[nH]2)c1

>  <score_type>  (43) 
oracle

>  <origin>  (43) 
adg

>  <m_score__min__energy>  (43) 
-7.7999999999999998

>  <m_primary>  (43) 
energy

$$$$
43:0
     RDKit          3D

 57 60  0  0  0  0  0  0  0  0999 V2000
    1.9290   24.4140  -27.7370 C   0  0  0  0  0  0  0  0  0  0  0  0
    0.6100   24.8970  -27.9720 O   0  0  0  0  0  0  0  0  0  0  0  0
   -0.2350   25.4270  -26.9790 C   0  0  0  0  0  0  0  0  0  0  0  0
    0.2310   26.3390  -26.0100 C   0  0  0  0  0  0  0  0  0  0  0  0
   -0.6330   26.8230  -25.0210 C   0  0  0  0  0  0  0  0  0  0  0  0
   -1.9670   26.4080  -24.9920 C   0  0  0  0  0  0  0  0  0  0  0  0
   -2.4420   25.5120  -25.9530 C   0  0  0  0  0  0  0  0  0  0  0  0
   -1.5850   25.0220  -26.9510 C   0  0  0  0  0  0  0  0  0  0  0  0
   -2.0880   24.0990  -27.9300 N   0  0  0  0  0  0  0  0  0  0  0  0
   -2.9230   22.9710  -27.5130 C   0  0  0  0  0  0  0  0  0  0  0  0
   -3.8650   22.5710  -28.6580 C   0  0  0  0  0  0  0  0  0  0  0  0
   -3.1550   22.2630  -29.9300 N   0  0  0  0  0  0  0  0  0  0  0  0
   -3.9940   22.5400  -31.1270 C   0  0  0  0  0  0  0  0  0  0  0  0
   -4.5450   21.2390  -31.8060 C   0  0  2  0  0  0  0  0  0  0  0  0
   -4.0810   20.1240  -31.0740 O   0  0  0  0  0  0  0  0  0  0  0  0
   -3.9280   21.1230  -33.2260 C   0  0  0  0  0  0  0  0  0  0  0  0
   -2.4830   20.9000  -33.1690 N   0  0  0  0  0  0  0  0  0  0  0  0
   -1.6320   20.8020  -34.2070 C   0  0  0  0  0  0  0  0  0  0  0  0
   -0.3750   20.5430  -33.7880 N   0  0  0  0  0  0  0  0  0  0  0  0
   -0.5150   20.4900  -32.4440 C   0  0  0  0  0  0  0  0  0  0  0  0
   -1.7860   20.7050  -32.0660 N   0  0  0  0  0  0  0  0  0  0  0  0
   -6.0830   21.2290  -31.9280 C   0  0  0  0  0  0  0  0  0  0  0  0
   -6.8590   22.2450  -31.3220 C   0  0  0  0  0  0  0  0  0  0  0  0
   -8.2540   22.2260  -31.3970 C   0  0  0  0  0  0  0  0  0  0  0  0
   -8.9060   21.1870  -32.0580 C   0  0  0  0  0  0  0  0  0  0  0  0
  -10.2600   21.1700  -32.1250 F   0  0  0  0  0  0  0  0  0  0  0  0
   -8.1650   20.1570  -32.6370 C   0  0  0  0  0  0  0  0  0  0  0  0
   -6.7690   20.1640  -32.5660 C   0  0  0  0  0  0  0  0  0  0  0  0
   -6.1040   19.1110  -33.1040 F   0  0  0  0  0  0  0  0  0  0  0  0
   -1.8060   22.8860  -30.0390 C   0  0  0  0  0  0  0  0  0  0  0  0
   -1.7300   24.2490  -29.3430 C   0  0  0  0  0  0  0  0  0  0  0  0
    2.1079   24.3485  -26.6536 H   0  0  0  0  0  0  0  0  0  0  0  0
    2.0401   23.4168  -28.1879 H   0  0  0  0  0  0  0  0  0  0  0  0
    2.6578   25.1036  -28.1879 H   0  0  0  0  0  0  0  0  0  0  0  0
    1.2792   26.6719  -26.0314 H   0  0  0  0  0  0  0  0  0  0  0  0
   -0.2615   27.5310  -24.2656 H   0  0  0  0  0  0  0  0  0  0  0  0
   -2.6437   26.7871  -24.2120 H   0  0  0  0  0  0  0  0  0  0  0  0
   -3.4931   25.1888  -25.9274 H   0  0  0  0  0  0  0  0  0  0  0  0
   -2.2802   22.1169  -27.2535 H   0  0  0  0  0  0  0  0  0  0  0  0
   -3.5199   23.2648  -26.6370 H   0  0  0  0  0  0  0  0  0  0  0  0
   -4.4293   21.6787  -28.3492 H   0  0  0  0  0  0  0  0  0  0  0  0
   -4.5211   23.4320  -28.8535 H   0  0  0  0  0  0  0  0  0  0  0  0
   -4.8471   23.1629  -30.8201 H   0  0  0  0  0  0  0  0  0  0  0  0
   -3.3560   23.0497  -31.8640 H   0  0  0  0  0  0  0  0  0  0  0  0
   -4.1090   20.3430  -30.1060 H   0  0  0  0  0  0  0  0  0  0  0  0
   -4.3989   20.2794  -33.7520 H   0  0  0  0  0  0  0  0  0  0  0  0
   -4.1094   22.0684  -33.7582 H   0  0  0  0  0  0  0  0  0  0  0  0
   -1.9232   20.9180  -35.2614 H   0  0  0  0  0  0  0  0  0  0  0  0
    0.3116   20.2945  -31.7451 H   0  0  0  0  0  0  0  0  0  0  0  0
   -2.1660   20.7100  -31.0920 H   0  0  0  0  0  0  0  0  0  0  0  0
   -6.3565   23.0622  -30.7837 H   0  0  0  0  0  0  0  0  0  0  0  0
   -8.8392   23.0335  -30.9329 H   0  0  0  0  0  0  0  0  0  0  0  0
   -8.6822   19.3343  -33.1525 H   0  0  0  0  0  0  0  0  0  0  0  0
   -1.0685   22.2129  -29.5775 H   0  0  0  0  0  0  0  0  0  0  0  0
   -1.5969   23.0446  -31.1072 H   0  0  0  0  0  0  0  0  0  0  0  0
   -0.7063   24.6438  -29.4215 H   0  0  0  0  0  0  0  0  0  0  0  0
   -2.4309   24.9458  -29.8259 H   0  0  0  0  0  0  0  0  0  0  0  0
  1  2  1  0
  2  3  1  0
  3  4  2  0
  4  5  1  0
  5  6  2  0
  6  7  1  0
  7  8  2  0
  8  9  1  0
  9 10  1  0
 10 11  1  0
 11 12  1  0
 12 13  1  0
 13 14  1  0
 14 15  1  1
 14 16  1  0
 16 17  1  0
 17 18  1  0
 18 19  2  0
 19 20  1  0
 20 21  2  0
 14 22  1  0
 22 23  2  0
 23 24  1  0
 24 25  2  0
 25 26  1  0
 25 27  1  0
 27 28  2  0
 28 29  1  0
 12 30  1  0
 30 31  1  0
  8  3  1  0
 31  9  1  0
 21 17  1  0
 28 22  1  0
  1 32  1  0
  1 33  1  0
  1 34  1  0
  4 35  1  0
  5 36  1  0
  6 37  1  0
  7 38  1  0
 10 39  1  0
 10 40  1  0
 11 41  1  0
 11 42  1  0
 13 43  1  0
 13 44  1  0
 15 45  1  0
 16 46  1  0
 16 47  1  0
 18 48  1  0
 20 49  1  0
 21 50  1  0
 23 51  1  0
 24 52  1  0
 27 53  1  0
 30 54  1  0
 30 55  1  0
 31 56  1  0
 31 57  1  0
M  CHG  1  21   1
M  END
>  <UniqueID>  (44) 
44

>  <SMILES>  (44) 
COc1ccccc1N1CCN(C[C@](O)(Cn2cnc[nH+]2)c2ccc(F)cc2F)CC1

>  <Energy>  (44) 
113.16020186158372

>  <Genealogy>  (44) 
COc1ccccc1N1CCN(CC(O)(Cn2cnc[nH+]2)c2ccc(F)cc2F)CC1 (protonated)
COc1ccccc1N1CCN(C[C@](O)(Cn2cnc[nH+]2)c2ccc(F)cc2F)CC1 (chirality)
COc1ccccc1N1CCN(C[C@](O)(Cn2cnc[nH+]2)c2ccc(F)cc2F)CC1 (3D coordinates assigned)
COc1ccccc1N1CCN(C[C@](O)(Cn2cnc[nH+]2)c2ccc(F)cc2F)CC1 (nonaromatic ring conformer: 113.16020186158372 kcal/mol)

>  <smiles>  (44) 
COc1ccccc1N1CCN(CC(O)(Cn2cncn2)c2ccc(F)cc2F)CC1

>  <score_type>  (44) 
oracle

>  <origin>  (44) 
adg

>  <m_score__min__energy>  (44) 
-8.1999999999999993

>  <m_primary>  (44) 
energy

$$$$
44:0
     RDKit          3D

 43 45  0  0  0  0  0  0  0  0999 V2000
   -5.0170   14.3530  -33.2290 C   0  0  0  0  0  0  0  0  0  0  0  0
   -5.9610   14.1030  -34.3950 C   0  0  0  0  0  0  0  0  0  0  0  0
   -6.8000   15.2400  -34.5810 O   0  0  0  0  0  0  0  0  0  0  0  0
   -6.5120   16.5250  -34.0970 C   0  0  0  0  0  0  0  0  0  0  0  0
   -5.5290   17.3490  -34.6780 C   0  0  0  0  0  0  0  0  0  0  0  0
   -5.2800   18.6220  -34.1580 C   0  0  0  0  0  0  0  0  0  0  0  0
   -6.0050   19.0950  -33.0530 C   0  0  0  0  0  0  0  0  0  0  0  0
   -5.7460   20.4400  -32.4990 C   0  0  0  0  0  0  0  0  0  0  0  0
   -4.5580   20.8080  -31.9480 N   0  0  0  0  0  0  0  0  0  0  0  0
   -4.7940   22.0830  -31.5960 C   0  0  0  0  0  0  0  0  0  0  0  0
   -3.9220   22.9770  -30.9800 C   0  0  0  0  0  0  0  0  0  0  0  0
   -4.3970   24.2740  -30.6920 C   0  0  0  0  0  0  0  0  0  0  0  0
   -3.4980   25.2090  -30.0780 N   0  0  0  0  0  0  0  0  0  0  0  0
   -2.5570   24.9270  -29.0330 C   0  0  0  0  0  0  0  0  0  0  0  0
   -1.3960   25.4150  -29.0660 O   0  0  0  0  0  0  0  0  0  0  0  0
   -2.9800   24.1030  -27.8480 C   0  0  0  0  0  0  0  0  0  0  0  0
   -2.1560   22.8140  -27.7730 C   0  0  0  0  0  0  0  0  0  0  0  0
   -2.8490   24.9140  -26.5550 C   0  0  0  0  0  0  0  0  0  0  0  0
   -5.7200   24.6380  -31.0660 C   0  0  0  0  0  0  0  0  0  0  0  0
   -6.5720   23.7050  -31.6880 C   0  0  0  0  0  0  0  0  0  0  0  0
   -6.0630   22.4340  -31.9320 C   0  0  0  0  0  0  0  0  0  0  0  0
   -6.6480   21.4110  -32.4920 O   0  0  0  0  0  0  0  0  0  0  0  0
   -6.9850   18.2720  -32.4750 C   0  0  0  0  0  0  0  0  0  0  0  0
   -7.2340   16.9970  -32.9960 C   0  0  0  0  0  0  0  0  0  0  0  0
   -5.5580   14.2097  -32.2820 H   0  0  0  0  0  0  0  0  0  0  0  0
   -4.1752   13.6468  -33.2808 H   0  0  0  0  0  0  0  0  0  0  0  0
   -4.6351   15.3833  -33.2808 H   0  0  0  0  0  0  0  0  0  0  0  0
   -5.3753   13.9263  -35.3092 H   0  0  0  0  0  0  0  0  0  0  0  0
   -6.5822   13.2209  -34.1804 H   0  0  0  0  0  0  0  0  0  0  0  0
   -4.9549   16.9893  -35.5446 H   0  0  0  0  0  0  0  0  0  0  0  0
   -4.5098   19.2584  -34.6182 H   0  0  0  0  0  0  0  0  0  0  0  0
   -2.8936   22.6809  -30.7255 H   0  0  0  0  0  0  0  0  0  0  0  0
   -4.0378   23.8274  -27.9709 H   0  0  0  0  0  0  0  0  0  0  0  0
   -1.9861   22.5482  -26.7192 H   0  0  0  0  0  0  0  0  0  0  0  0
   -2.7018   22.0003  -28.2730 H   0  0  0  0  0  0  0  0  0  0  0  0
   -1.1883   22.9678  -28.2730 H   0  0  0  0  0  0  0  0  0  0  0  0
   -2.9572   24.2440  -25.6894 H   0  0  0  0  0  0  0  0  0  0  0  0
   -1.8612   25.3970  -26.5236 H   0  0  0  0  0  0  0  0  0  0  0  0
   -3.6345   25.6834  -26.5236 H   0  0  0  0  0  0  0  0  0  0  0  0
   -6.0812   25.6579  -30.8676 H   0  0  0  0  0  0  0  0  0  0  0  0
   -7.6012   23.9715  -31.9702 H   0  0  0  0  0  0  0  0  0  0  0  0
   -7.5598   18.6311  -31.6086 H   0  0  0  0  0  0  0  0  0  0  0  0
   -8.0042   16.3607  -32.5356 H   0  0  0  0  0  0  0  0  0  0  0  0
  1  2  1  0
  2  3  1  0
  3  4  1  0
  4  5  2  0
  5  6  1  0
  6  7  2  0
  7  8  1  0
  8  9  2  0
  9 10  1  0
 10 11  2  0
 11 12  1  0
 12 13  1  0
 13 14  1  0
 14 15  2  0
 14 16  1  0
 16 17  1  0
 16 18  1  0
 12 19  2  0
 19 20  1  0
 20 21  2  0
 21 22  1  0
  7 23  1  0
 23 24  2  0
 24  4  1  0
 22  8  1  0
 21 10  1  0
  1 25  1  0
  1 26  1  0
  1 27  1  0
  2 28  1  0
  2 29  1  0
  5 30  1  0
  6 31  1  0
 11 32  1  0
 16 33  1  0
 17 34  1  0
 17 35  1  0
 17 36  1  0
 18 37  1  0
 18 38  1  0
 18 39  1  0
 19 40  1  0
 20 41  1  0
 23 42  1  0
 24 43  1  0
M  CHG  1  13  -1
M  END
>  <UniqueID>  (45) 
45

>  <SMILES>  (45) 
CCOc1ccc(-c2nc3cc([N-]C(=O)C(C)C)ccc3o2)cc1

>  <Energy>  (45) 
77.14690519659752

>  <Genealogy>  (45) 
CCOc1ccc(-c2nc3cc([N-]C(=O)C(C)C)ccc3o2)cc1 (protonated)
CCOc1ccc(-c2nc3cc([N-]C(=O)C(C)C)ccc3o2)cc1 (3D coordinates assigned)
CCOc1ccc(-c2nc3cc([N-]C(=O)C(C)C)ccc3o2)cc1 (optimized conformer: 77.14690519659752 kcal/mol)

>  <smiles>  (45) 
CCOc1ccc(-c2nc3cc(NC(=O)C(C)C)ccc3o2)cc1

>  <score_type>  (45) 
oracle

>  <origin>  (45) 
adg

>  <m_score__min__energy>  (45) 
-9.5500000000000007

>  <m_primary>  (45) 
energy

$$$$
45:0
     RDKit          3D

 47 49  0  0  0  0  0  0  0  0999 V2000
   -2.3570   24.9080  -28.5910 C   0  0  0  0  0  0  0  0  0  0  0  0
   -3.1510   25.2870  -29.7100 O   0  0  0  0  0  0  0  0  0  0  0  0
   -4.3360   24.6440  -30.0990 C   0  0  0  0  0  0  0  0  0  0  0  0
   -5.6040   25.2190  -29.8840 C   0  0  0  0  0  0  0  0  0  0  0  0
   -6.7610   24.5510  -30.2860 C   0  0  0  0  0  0  0  0  0  0  0  0
   -6.6750   23.2960  -30.9030 C   0  0  0  0  0  0  0  0  0  0  0  0
   -7.9280   22.5960  -31.3550 C   0  0  0  0  0  0  0  0  0  0  0  0
   -7.7840   21.1500  -31.1990 N   0  0  0  0  0  0  0  0  0  0  0  0
   -8.6170   20.2130  -31.8960 C   0  0  0  0  0  0  0  0  0  0  0  0
   -9.4880   20.6180  -32.7130 O   0  0  0  0  0  0  0  0  0  0  0  0
   -8.4210   18.7410  -31.6970 C   0  0  0  0  0  0  0  0  0  0  0  0
   -7.2290   18.2690  -32.4820 C   0  0  0  0  0  0  0  0  0  0  0  0
   -7.2440   17.0120  -33.1040 C   0  0  0  0  0  0  0  0  0  0  0  0
   -6.1240   16.5620  -33.8030 C   0  0  0  0  0  0  0  0  0  0  0  0
   -4.9770   17.3550  -33.8820 C   0  0  0  0  0  0  0  0  0  0  0  0
   -4.9350   18.6160  -33.2570 C   0  0  0  0  0  0  0  0  0  0  0  0
   -3.7180   19.4650  -33.3270 C   0  0  0  0  0  0  0  0  0  0  0  0
   -2.3900   19.0320  -33.3350 C   0  0  0  0  0  0  0  0  0  0  0  0
   -1.4590   20.0740  -33.4100 C   0  0  0  0  0  0  0  0  0  0  0  0
   -2.0310   21.3370  -33.4620 C   0  0  0  0  0  0  0  0  0  0  0  0
   -3.6990   21.1510  -33.4150 S   0  0  0  0  0  0  0  0  0  0  0  0
   -6.0710   19.0600  -32.5520 C   0  0  0  0  0  0  0  0  0  0  0  0
   -5.4160   22.7200  -31.1250 C   0  0  0  0  0  0  0  0  0  0  0  0
   -4.2420   23.3900  -30.7240 C   0  0  0  0  0  0  0  0  0  0  0  0
   -2.9660   22.8440  -30.9310 O   0  0  0  0  0  0  0  0  0  0  0  0
   -2.3850   21.8210  -30.1280 C   0  0  0  0  0  0  0  0  0  0  0  0
   -2.8882   25.1616  -27.6618 H   0  0  0  0  0  0  0  0  0  0  0  0
   -2.1715   23.8242  -28.6233 H   0  0  0  0  0  0  0  0  0  0  0  0
   -1.3977   25.4453  -28.6233 H   0  0  0  0  0  0  0  0  0  0  0  0
   -5.6824   26.2016  -29.3957 H   0  0  0  0  0  0  0  0  0  0  0  0
   -7.7455   25.0119  -30.1177 H   0  0  0  0  0  0  0  0  0  0  0  0
   -8.7772   22.9439  -30.7485 H   0  0  0  0  0  0  0  0  0  0  0  0
   -8.1043   22.8262  -32.4161 H   0  0  0  0  0  0  0  0  0  0  0  0
   -7.0360   20.7900  -30.5650 H   0  0  0  0  0  0  0  0  0  0  0  0
   -8.2574   18.5367  -30.6286 H   0  0  0  0  0  0  0  0  0  0  0  0
   -9.3172   18.2074  -32.0466 H   0  0  0  0  0  0  0  0  0  0  0  0
   -8.1416   16.3793  -33.0404 H   0  0  0  0  0  0  0  0  0  0  0  0
   -6.1442   15.5780  -34.2943 H   0  0  0  0  0  0  0  0  0  0  0  0
   -4.0995   16.9915  -34.4369 H   0  0  0  0  0  0  0  0  0  0  0  0
   -2.1029   17.9712  -33.2868 H   0  0  0  0  0  0  0  0  0  0  0  0
   -0.3719   19.9069  -33.4263 H   0  0  0  0  0  0  0  0  0  0  0  0
   -1.4877   22.2915  -33.5232 H   0  0  0  0  0  0  0  0  0  0  0  0
   -6.0506   20.0386  -32.0501 H   0  0  0  0  0  0  0  0  0  0  0  0
   -5.3437   21.7381  -31.6156 H   0  0  0  0  0  0  0  0  0  0  0  0
   -2.5242   22.0661  -29.0647 H   0  0  0  0  0  0  0  0  0  0  0  0
   -2.8721   20.8599  -30.3496 H   0  0  0  0  0  0  0  0  0  0  0  0
   -1.3101   21.7470  -30.3496 H   0  0  0  0  0  0  0  0  0  0  0  0
  1  2  1  0
  2  3  1  0
  3  4  2  0
  4  5  1  0
  5  6  2  0
  6  7  1  0
  7  8  1  0
  8  9  1  0
  9 10  2  0
  9 11  1  0
 11 12  1  0
 12 13  2  0
 13 14  1  0
 14 15  2  0
 15 16  1  0
 16 17  1  0
 17 18  2  0
 18 19  1  0
 19 20  2  0
 20 21  1  0
 16 22  2  0
  6 23  1  0
 23 24  2  0
 24 25  1  0
 25 26  1  0
 24  3  1  0
 22 12  1  0
 21 17  1  0
  1 27  1  0
  1 28  1  0
  1 29  1  0
  4 30  1  0
  5 31  1  0
  7 32  1  0
  7 33  1  0
  8 34  1  0
 11 35  1  0
 11 36  1  0
 13 37  1  0
 14 38  1  0
 15 39  1  0
 18 40  1  0
 19 41  1  0
 20 42  1  0
 22 43  1  0
 23 44  1  0
 26 45  1  0
 26 46  1  0
 26 47  1  0
M  END
>  <UniqueID>  (46) 
46

>  <SMILES>  (46) 
COc1ccc(CNC(=O)Cc2cccc(-c3cccs3)c2)cc1OC

>  <Energy>  (46) 
71.30030737341663

>  <Genealogy>  (46) 
COc1ccc(CNC(=O)Cc2cccc(-c3cccs3)c2)cc1OC (3D coordinates assigned)
COc1ccc(CNC(=O)Cc2cccc(-c3cccs3)c2)cc1OC (optimized conformer: 71.30030737341663 kcal/mol)

>  <smiles>  (46) 
COc1ccc(CNC(=O)Cc2cccc(-c3cccs3)c2)cc1OC

>  <score_type>  (46) 
oracle

>  <origin>  (46) 
adg

>  <m_score__min__energy>  (46) 
-9.3100000000000005

>  <m_primary>  (46) 
energy

$$$$
46:0
     RDKit          3D

 55 58  0  0  0  0  0  0  0  0999 V2000
   -5.3550   25.6080  -30.4720 C   0  0  0  0  0  0  0  0  0  0  0  0
   -4.0950   24.9850  -30.6960 O   0  0  0  0  0  0  0  0  0  0  0  0
   -3.8830   23.5960  -30.7150 C   0  0  0  0  0  0  0  0  0  0  0  0
   -4.1310   22.8230  -31.8670 C   0  0  0  0  0  0  0  0  0  0  0  0
   -3.9040   21.4370  -31.8690 C   0  0  0  0  0  0  0  0  0  0  0  0
   -4.1990   20.6790  -33.0550 N   0  0  0  0  0  0  0  0  0  0  0  0
   -5.4750   19.5060  -33.1530 S   0  0  0  0  0  0  0  0  0  0  0  0
   -5.6110   19.0350  -34.5740 O   0  0  0  0  0  0  0  0  0  0  0  0
   -5.1320   18.3320  -32.2770 O   0  0  0  0  0  0  0  0  0  0  0  0
   -6.9960   20.2390  -32.6530 C   0  0  0  0  0  0  0  0  0  0  0  0
   -7.0530   21.5940  -32.2940 C   0  0  0  0  0  0  0  0  0  0  0  0
   -8.2760   22.1740  -31.9320 C   0  0  0  0  0  0  0  0  0  0  0  0
   -9.4420   21.4030  -31.9210 C   0  0  0  0  0  0  0  0  0  0  0  0
   -9.3880   20.0500  -32.2690 C   0  0  0  0  0  0  0  0  0  0  0  0
   -8.1670   19.4680  -32.6310 C   0  0  0  0  0  0  0  0  0  0  0  0
   -3.3940   20.8270  -30.7090 C   0  0  0  0  0  0  0  0  0  0  0  0
   -3.1470   21.5850  -29.5640 C   0  0  0  0  0  0  0  0  0  0  0  0
   -3.4000   22.9630  -29.5520 C   0  0  0  0  0  0  0  0  0  0  0  0
   -3.1640   23.7320  -28.3100 C   0  0  0  0  0  0  0  0  0  0  0  0
   -4.2620   24.1740  -27.5520 C   0  0  0  0  0  0  0  0  0  0  0  0
   -4.0600   24.9220  -26.3900 C   0  0  0  0  0  0  0  0  0  0  0  0
   -2.7650   25.2400  -25.9780 C   0  0  0  0  0  0  0  0  0  0  0  0
   -1.6640   24.8170  -26.7300 C   0  0  0  0  0  0  0  0  0  0  0  0
   -1.8530   24.0670  -27.9090 C   0  0  0  0  0  0  0  0  0  0  0  0
   -0.7730   23.6530  -28.7100 O   0  0  0  0  0  0  0  0  0  0  0  0
    0.2620   22.7570  -28.3060 C   0  0  0  0  0  0  0  0  0  0  0  0
   -0.3180   21.4340  -27.8770 C   0  0  0  0  0  0  0  0  0  0  0  0
   -1.0530   21.3300  -26.6830 C   0  0  0  0  0  0  0  0  0  0  0  0
   -1.5870   20.0970  -26.2920 C   0  0  0  0  0  0  0  0  0  0  0  0
   -1.3980   18.9650  -27.0890 C   0  0  0  0  0  0  0  0  0  0  0  0
   -0.6780   19.0650  -28.2840 C   0  0  0  0  0  0  0  0  0  0  0  0
   -0.1450   20.2960  -28.6820 C   0  0  0  0  0  0  0  0  0  0  0  0
   -5.5333   25.6961  -29.3901 H   0  0  0  0  0  0  0  0  0  0  0  0
   -5.3547   26.6098  -30.9264 H   0  0  0  0  0  0  0  0  0  0  0  0
   -6.1508   24.9996  -30.9264 H   0  0  0  0  0  0  0  0  0  0  0  0
   -4.5077   23.3121  -32.7774 H   0  0  0  0  0  0  0  0  0  0  0  0
   -3.6970   20.9120  -33.9460 H   0  0  0  0  0  0  0  0  0  0  0  0
   -6.1363   22.2019  -32.2967 H   0  0  0  0  0  0  0  0  0  0  0  0
   -8.3187   23.2379  -31.6560 H   0  0  0  0  0  0  0  0  0  0  0  0
  -10.4016   21.8606  -31.6387 H   0  0  0  0  0  0  0  0  0  0  0  0
  -10.3050   19.4425  -32.2584 H   0  0  0  0  0  0  0  0  0  0  0  0
   -8.1263   18.4020  -32.8991 H   0  0  0  0  0  0  0  0  0  0  0  0
   -3.1887   19.7463  -30.7044 H   0  0  0  0  0  0  0  0  0  0  0  0
   -2.7499   21.0961  -28.6622 H   0  0  0  0  0  0  0  0  0  0  0  0
   -5.2847   23.9298  -27.8753 H   0  0  0  0  0  0  0  0  0  0  0  0
   -4.9231   25.2611  -25.7984 H   0  0  0  0  0  0  0  0  0  0  0  0
   -2.6097   25.8249  -25.0594 H   0  0  0  0  0  0  0  0  0  0  0  0
   -0.6458   25.0707  -26.4000 H   0  0  0  0  0  0  0  0  0  0  0  0
    0.9485   22.5940  -29.1499 H   0  0  0  0  0  0  0  0  0  0  0  0
    0.8017   23.1995  -27.4558 H   0  0  0  0  0  0  0  0  0  0  0  0
   -1.2086   22.2196  -26.0549 H   0  0  0  0  0  0  0  0  0  0  0  0
   -2.1572   20.0187  -25.3546 H   0  0  0  0  0  0  0  0  0  0  0  0
   -1.8150   17.9961  -26.7770 H   0  0  0  0  0  0  0  0  0  0  0  0
   -0.5305   18.1741  -28.9122 H   0  0  0  0  0  0  0  0  0  0  0  0
    0.4111   20.3728  -29.6280 H   0  0  0  0  0  0  0  0  0  0  0  0
  1  2  1  0
  2  3  1  0
  3  4  2  0
  4  5  1  0
  5  6  1  0
  6  7  1  0
  7  8  2  0
  7  9  2  0
  7 10  1  0
 10 11  2  0
 11 12  1  0
 12 13  2  0
 13 14  1  0
 14 15  2  0
  5 16  2  0
 16 17  1  0
 17 18  2  0
 18 19  1  0
 19 20  2  0
 20 21  1  0
 21 22  2  0
 22 23  1  0
 23 24  2  0
 24 25  1  0
 25 26  1  0
 26 27  1  0
 27 28  2  0
 28 29  1  0
 29 30  2  0
 30 31  1  0
 31 32  2  0
 18  3  1  0
 24 19  1  0
 32 27  1  0
 15 10  1  0
  1 33  1  0
  1 34  1  0
  1 35  1  0
  4 36  1  0
  6 37  1  0
 11 38  1  0
 12 39  1  0
 13 40  1  0
 14 41  1  0
 15 42  1  0
 16 43  1  0
 17 44  1  0
 20 45  1  0
 21 46  1  0
 22 47  1  0
 23 48  1  0
 26 49  1  0
 26 50  1  0
 28 51  1  0
 29 52  1  0
 30 53  1  0
 31 54  1  0
 32 55  1  0
M  END
>  <UniqueID>  (47) 
47

>  <SMILES>  (47) 
COc1cc(NS(=O)(=O)c2ccccc2)ccc1-c1ccccc1OCc1ccccc1

>  <Energy>  (47) 
67.87001668242027

>  <Genealogy>  (47) 
COc1cc(NS(=O)(=O)c2ccccc2)ccc1-c1ccccc1OCc1ccccc1 (3D coordinates assigned)
COc1cc(NS(=O)(=O)c2ccccc2)ccc1-c1ccccc1OCc1ccccc1 (optimized conformer: 67.87001668242027 kcal/mol)

>  <smiles>  (47) 
COc1cc(NS(=O)(=O)c2ccccc2)ccc1-c1ccccc1OCc1ccccc1

>  <score_type>  (47) 
oracle

>  <origin>  (47) 
adg

>  <m_score__min__energy>  (47) 
-10.369999999999999

>  <m_primary>  (47) 
energy

$$$$
