0:0
     RDKit          3D

 48 50  0  0  0  0  0  0  0  0999 V2000
   -1.9770   22.9030  -30.3740 O   0  0  0  0  0  0  0  0  0  0  0  0
   -3.1040   22.6640  -30.8850 C   0  0  0  0  0  0  0  0  0  0  0  0
   -3.2380   21.5140  -31.8120 C   0  0  0  0  0  0  0  0  0  0  0  0
   -2.4780   21.4320  -32.9880 C   0  0  0  0  0  0  0  0  0  0  0  0
   -2.6160   20.3330  -33.8330 C   0  0  0  0  0  0  0  0  0  0  0  0
   -3.5040   19.3120  -33.4940 C   0  0  0  0  0  0  0  0  0  0  0  0
   -4.2330   19.3810  -32.3390 N   0  0  0  0  0  0  0  0  0  0  0  0
   -5.1740   18.3030  -32.0000 C   0  0  0  0  0  0  0  0  0  0  0  0
   -5.9020   17.7810  -33.2480 C   0  0  0  0  0  0  0  0  0  0  0  0
   -7.4310   17.8200  -33.0870 C   0  0  0  0  0  0  0  0  0  0  0  0
   -7.8650   18.2670  -31.6830 C   0  0  0  0  0  0  0  0  0  0  0  0
   -9.0630   19.2270  -31.7110 C   0  0  0  0  0  0  0  0  0  0  0  0
   -8.6020   20.6370  -31.9640 C   0  0  0  0  0  0  0  0  0  0  0  0
   -7.2740   20.8910  -32.3500 C   0  0  0  0  0  0  0  0  0  0  0  0
   -6.8400   22.2040  -32.5520 C   0  0  0  0  0  0  0  0  0  0  0  0
   -7.7200   23.2720  -32.3620 C   0  0  0  0  0  0  0  0  0  0  0  0
   -9.0380   23.0290  -31.9640 C   0  0  0  0  0  0  0  0  0  0  0  0
   -9.4770   21.7170  -31.7600 C   0  0  0  0  0  0  0  0  0  0  0  0
   -4.1070   20.4550  -31.5010 C   0  0  0  0  0  0  0  0  0  0  0  0
   -4.2590   23.5180  -30.5220 C   0  0  0  0  0  0  0  0  0  0  0  0
   -5.3790   22.9730  -29.8700 C   0  0  0  0  0  0  0  0  0  0  0  0
   -6.4620   23.7980  -29.5600 C   0  0  0  0  0  0  0  0  0  0  0  0
   -6.4280   25.1500  -29.9030 C   0  0  0  0  0  0  0  0  0  0  0  0
   -5.3060   25.6590  -30.5580 C   0  0  0  0  0  0  0  0  0  0  0  0
   -4.2610   24.8410  -30.8510 N   0  0  0  0  0  0  0  0  0  0  0  0
   -1.7723   22.2362  -33.2433 H   0  0  0  0  0  0  0  0  0  0  0  0
   -2.0288   20.2708  -34.7611 H   0  0  0  0  0  0  0  0  0  0  0  0
   -3.6187   18.4447  -34.1608 H   0  0  0  0  0  0  0  0  0  0  0  0
   -4.6175   17.4745  -31.5376 H   0  0  0  0  0  0  0  0  0  0  0  0
   -5.9250   18.7053  -31.3042 H   0  0  0  0  0  0  0  0  0  0  0  0
   -5.6204   18.4046  -34.1093 H   0  0  0  0  0  0  0  0  0  0  0  0
   -5.6048   16.7327  -33.3988 H   0  0  0  0  0  0  0  0  0  0  0  0
   -7.8453   18.5232  -33.8245 H   0  0  0  0  0  0  0  0  0  0  0  0
   -7.8090   16.7990  -33.2437 H   0  0  0  0  0  0  0  0  0  0  0  0
   -8.1413   17.3762  -31.0998 H   0  0  0  0  0  0  0  0  0  0  0  0
   -7.0192   18.8041  -31.2289 H   0  0  0  0  0  0  0  0  0  0  0  0
   -9.7526   18.9223  -32.5120 H   0  0  0  0  0  0  0  0  0  0  0  0
   -9.5729   19.1885  -30.7371 H   0  0  0  0  0  0  0  0  0  0  0  0
   -6.5748   20.0540  -32.4934 H   0  0  0  0  0  0  0  0  0  0  0  0
   -5.8022   22.3970  -32.8616 H   0  0  0  0  0  0  0  0  0  0  0  0
   -7.3761   24.3040  -32.5255 H   0  0  0  0  0  0  0  0  0  0  0  0
   -9.7301   23.8703  -31.8112 H   0  0  0  0  0  0  0  0  0  0  0  0
  -10.5121   21.5298  -31.4383 H   0  0  0  0  0  0  0  0  0  0  0  0
   -4.6939   20.4898  -30.5713 H   0  0  0  0  0  0  0  0  0  0  0  0
   -5.4019   21.9053  -29.6062 H   0  0  0  0  0  0  0  0  0  0  0  0
   -7.3412   23.3824  -29.0458 H   0  0  0  0  0  0  0  0  0  0  0  0
   -7.2760   25.8071  -29.6598 H   0  0  0  0  0  0  0  0  0  0  0  0
   -5.2673   26.7223  -30.8372 H   0  0  0  0  0  0  0  0  0  0  0  0
  1  2  2  0
  2  3  1  0
  3  4  2  0
  4  5  1  0
  5  6  2  0
  6  7  1  0
  7  8  1  0
  8  9  1  0
  9 10  1  0
 10 11  1  0
 11 12  1  0
 12 13  1  0
 13 14  2  0
 14 15  1  0
 15 16  2  0
 16 17  1  0
 17 18  2  0
  7 19  2  0
  2 20  1  0
 20 21  2  0
 21 22  1  0
 22 23  2  0
 23 24  1  0
 24 25  2  0
 19  3  1  0
 25 20  1  0
 18 13  1  0
  4 26  1  0
  5 27  1  0
  6 28  1  0
  8 29  1  0
  8 30  1  0
  9 31  1  0
  9 32  1  0
 10 33  1  0
 10 34  1  0
 11 35  1  0
 11 36  1  0
 12 37  1  0
 12 38  1  0
 14 39  1  0
 15 40  1  0
 16 41  1  0
 17 42  1  0
 18 43  1  0
 19 44  1  0
 21 45  1  0
 22 46  1  0
 23 47  1  0
 24 48  1  0
M  CHG  1   7   1
M  END
>  <UniqueID>  (1) 
1

>  <SMILES>  (1) 
O=C(c1ccc[n+](CCCCCc2ccccc2)c1)c1ccccn1

>  <Energy>  (1) 
48.600494962302946

>  <Genealogy>  (1) 
O=C(c1ccc[n+](CCCCCc2ccccc2)c1)c1ccccn1 (3D coordinates assigned)
O=C(c1ccc[n+](CCCCCc2ccccc2)c1)c1ccccn1 (optimized conformer: 48.600494962302946 kcal/mol)

>  <smiles>  (1) 
O=C(c1ccc[n+](CCCCCc2ccccc2)c1)c1ccccn1

>  <score_type>  (1) 
oracle

>  <origin>  (1) 
adg

>  <m_score__min__energy>  (1) 
-8.6899999999999995

>  <m_primary>  (1) 
energy

$$$$
1:0
     RDKit          3D

 29 30  0  0  0  0  0  0  0  0999 V2000
   -9.6920   21.5690  -30.9310 O   0  0  0  0  0  0  0  0  0  0  0  0
   -8.6080   21.8510  -31.5080 C   0  0  0  0  0  0  0  0  0  0  0  0
   -8.2040   23.2180  -31.5990 N   0  0  0  0  0  0  0  0  0  0  0  0
   -6.9130   23.7340  -31.2450 C   0  0  0  0  0  0  0  0  0  0  0  0
   -6.8400   24.9030  -30.4740 C   0  0  0  0  0  0  0  0  0  0  0  0
   -5.6000   25.4240  -30.0930 C   0  0  0  0  0  0  0  0  0  0  0  0
   -4.4220   24.7710  -30.4660 C   0  0  0  0  0  0  0  0  0  0  0  0
   -3.1890   25.2900  -30.0880 O   0  0  0  0  0  0  0  0  0  0  0  0
   -4.4840   23.5910  -31.2140 C   0  0  0  0  0  0  0  0  0  0  0  0
   -5.7230   23.0690  -31.5970 C   0  0  0  0  0  0  0  0  0  0  0  0
   -7.8370   20.8430  -32.1010 O   0  0  0  0  0  0  0  0  0  0  0  0
   -8.1570   19.4570  -32.0140 C   0  0  0  0  0  0  0  0  0  0  0  0
   -7.2160   18.6500  -32.8660 C   0  0  0  0  0  0  0  0  0  0  0  0
   -6.3900   19.2780  -33.8130 C   0  0  0  0  0  0  0  0  0  0  0  0
   -5.5370   18.5150  -34.6170 C   0  0  0  0  0  0  0  0  0  0  0  0
   -5.5060   17.1240  -34.4850 C   0  0  0  0  0  0  0  0  0  0  0  0
   -6.3300   16.4930  -33.5480 C   0  0  0  0  0  0  0  0  0  0  0  0
   -7.1840   17.2520  -32.7430 C   0  0  0  0  0  0  0  0  0  0  0  0
   -7.7647   25.4135  -30.1669 H   0  0  0  0  0  0  0  0  0  0  0  0
   -5.5514   26.3487  -29.4992 H   0  0  0  0  0  0  0  0  0  0  0  0
   -3.5570   23.0731  -31.5012 H   0  0  0  0  0  0  0  0  0  0  0  0
   -5.7684   22.1347  -32.1758 H   0  0  0  0  0  0  0  0  0  0  0  0
   -8.0705   19.1295  -30.9674 H   0  0  0  0  0  0  0  0  0  0  0  0
   -9.1855   19.3038  -32.3727 H   0  0  0  0  0  0  0  0  0  0  0  0
   -6.4141   20.3723  -33.9224 H   0  0  0  0  0  0  0  0  0  0  0  0
   -4.8891   19.0108  -35.3548 H   0  0  0  0  0  0  0  0  0  0  0  0
   -4.8338   16.5260  -35.1178 H   0  0  0  0  0  0  0  0  0  0  0  0
   -6.3061   15.3982  -33.4443 H   0  0  0  0  0  0  0  0  0  0  0  0
   -7.8338   16.7517  -32.0099 H   0  0  0  0  0  0  0  0  0  0  0  0
  1  2  2  0
  2  3  1  0
  3  4  1  0
  4  5  2  0
  5  6  1  0
  6  7  2  0
  7  8  1  0
  7  9  1  0
  9 10  2  0
  2 11  1  0
 11 12  1  0
 12 13  1  0
 13 14  2  0
 14 15  1  0
 15 16  2  0
 16 17  1  0
 17 18  2  0
 10  4  1  0
 18 13  1  0
  5 19  1  0
  6 20  1  0
  9 21  1  0
 10 22  1  0
 12 23  1  0
 12 24  1  0
 14 25  1  0
 15 26  1  0
 16 27  1  0
 17 28  1  0
 18 29  1  0
M  CHG  2   3  -1   8  -1
M  END
>  <UniqueID>  (2) 
2

>  <SMILES>  (2) 
O=C([N-]c1ccc([O-])cc1)OCc1ccccc1

>  <Energy>  (2) 
30.334287398918764

>  <Genealogy>  (2) 
O=C([N-]c1ccc([O-])cc1)OCc1ccccc1 (protonated)
O=C([N-]c1ccc([O-])cc1)OCc1ccccc1 (3D coordinates assigned)
O=C([N-]c1ccc([O-])cc1)OCc1ccccc1 (optimized conformer: 30.334287398918764 kcal/mol)

>  <smiles>  (2) 
O=C(Nc1ccc(O)cc1)OCc1ccccc1

>  <score_type>  (2) 
oracle

>  <origin>  (2) 
adg

>  <m_score__min__energy>  (2) 
-9.8599999999999994

>  <m_primary>  (2) 
energy

$$$$
2:0
     RDKit          3D

 41 42  0  0  0  0  0  0  0  0999 V2000
   -5.7110   18.9380  -34.3390 C   0  0  0  0  0  0  0  0  0  0  0  0
   -6.6890   19.9770  -33.7820 C   0  0  0  0  0  0  0  0  0  0  0  0
   -7.7120   19.3740  -32.8990 N   0  0  1  0  0  0  0  0  0  0  0  0
   -7.1400   18.3410  -32.0210 C   0  0  0  0  0  0  0  0  0  0  0  0
   -8.4520   20.6200  -31.9220 S   0  0  0  0  0  0  0  0  0  0  0  0
   -9.5760   21.2650  -32.6850 O   0  0  0  0  0  0  0  0  0  0  0  0
   -9.0230   20.0150  -30.6690 O   0  0  0  0  0  0  0  0  0  0  0  0
   -7.2800   21.8510  -31.4800 C   0  0  0  0  0  0  0  0  0  0  0  0
   -5.9090   21.7460  -31.5860 C   0  0  0  0  0  0  0  0  0  0  0  0
   -5.3980   22.9600  -31.1550 C   0  0  0  0  0  0  0  0  0  0  0  0
   -3.9540   23.2780  -31.1110 C   0  0  0  0  0  0  0  0  0  0  0  0
   -3.1390   22.5160  -31.6970 O   0  0  0  0  0  0  0  0  0  0  0  0
   -3.4880   24.4680  -30.4620 N   0  0  0  0  0  0  0  0  0  0  0  0
   -2.9600   24.5690  -29.1310 C   0  0  0  0  0  0  0  0  0  0  0  0
   -3.7720   24.4220  -27.9910 C   0  0  0  0  0  0  0  0  0  0  0  0
   -3.2200   24.5520  -26.7120 C   0  0  0  0  0  0  0  0  0  0  0  0
   -1.8610   24.8450  -26.5610 C   0  0  0  0  0  0  0  0  0  0  0  0
   -1.1710   25.0100  -24.9570 Cl  0  0  0  0  0  0  0  0  0  0  0  0
   -1.0550   25.0170  -27.6910 C   0  0  0  0  0  0  0  0  0  0  0  0
   -1.6050   24.8870  -28.9700 C   0  0  0  0  0  0  0  0  0  0  0  0
   -6.4150   23.7830  -30.7940 N   0  0  0  0  0  0  0  0  0  0  0  0
   -6.3300   25.1510  -30.2860 C   0  0  0  0  0  0  0  0  0  0  0  0
   -7.5640   23.1080  -30.9930 C   0  0  0  0  0  0  0  0  0  0  0  0
   -5.2184   18.4147  -33.5062 H   0  0  0  0  0  0  0  0  0  0  0  0
   -6.2601   18.2110  -34.9554 H   0  0  0  0  0  0  0  0  0  0  0  0
   -4.9521   19.4422  -34.9554 H   0  0  0  0  0  0  0  0  0  0  0  0
   -6.1215   20.7232  -33.2066 H   0  0  0  0  0  0  0  0  0  0  0  0
   -7.2110   20.4363  -34.6344 H   0  0  0  0  0  0  0  0  0  0  0  0
   -8.4710   18.9440  -33.4800 H   0  0  0  0  0  0  0  0  0  0  0  0
   -7.2972   18.6250  -30.9700 H   0  0  0  0  0  0  0  0  0  0  0  0
   -7.6333   17.3778  -32.2183 H   0  0  0  0  0  0  0  0  0  0  0  0
   -6.0618   18.2480  -32.2183 H   0  0  0  0  0  0  0  0  0  0  0  0
   -5.3373   20.8757  -31.9405 H   0  0  0  0  0  0  0  0  0  0  0  0
   -4.8441   24.2042  -28.1059 H   0  0  0  0  0  0  0  0  0  0  0  0
   -3.8560   24.4235  -25.8238 H   0  0  0  0  0  0  0  0  0  0  0  0
    0.0125   25.2548  -27.5735 H   0  0  0  0  0  0  0  0  0  0  0  0
   -0.9696   25.0354  -29.8556 H   0  0  0  0  0  0  0  0  0  0  0  0
   -6.3310   25.1344  -29.1861 H   0  0  0  0  0  0  0  0  0  0  0  0
   -5.4011   25.6183  -30.6448 H   0  0  0  0  0  0  0  0  0  0  0  0
   -7.1939   25.7297  -30.6448 H   0  0  0  0  0  0  0  0  0  0  0  0
   -8.5729   23.5000  -30.7969 H   0  0  0  0  0  0  0  0  0  0  0  0
  1  2  1  0
  2  3  1  0
  3  4  1  0
  3  5  1  0
  5  6  2  0
  5  7  2  0
  5  8  1  0
  8  9  1  0
  9 10  2  0
 10 11  1  0
 11 12  2  0
 11 13  1  0
 13 14  1  0
 14 15  2  0
 15 16  1  0
 16 17  2  0
 17 18  1  0
 17 19  1  0
 19 20  2  0
 10 21  1  0
 21 22  1  0
 21 23  1  0
 23  8  2  0
 20 14  1  0
  1 24  1  0
  1 25  1  0
  1 26  1  0
  2 27  1  0
  2 28  1  0
  3 29  1  6
  4 30  1  0
  4 31  1  0
  4 32  1  0
  9 33  1  0
 15 34  1  0
 16 35  1  0
 19 36  1  0
 20 37  1  0
 22 38  1  0
 22 39  1  0
 22 40  1  0
 23 41  1  0
M  CHG  2   3   1  13  -1
M  END
>  <UniqueID>  (3) 
3

>  <SMILES>  (3) 
CC[N@@H+](C)S(=O)(=O)c1cc(C(=O)[N-]c2ccc(Cl)cc2)n(C)c1

>  <Energy>  (3) 
67.35090628885969

>  <Genealogy>  (3) 
CC[NH+](C)S(=O)(=O)c1cc(C(=O)[N-]c2ccc(Cl)cc2)n(C)c1 (protonated)
CC[N@@H+](C)S(=O)(=O)c1cc(C(=O)[N-]c2ccc(Cl)cc2)n(C)c1 (chirality)
CC[N@@H+](C)S(=O)(=O)c1cc(C(=O)[N-]c2ccc(Cl)cc2)n(C)c1 (3D coordinates assigned)
CC[N@@H+](C)S(=O)(=O)c1cc(C(=O)[N-]c2ccc(Cl)cc2)n(C)c1 (optimized conformer: 67.35090628885969 kcal/mol)

>  <smiles>  (3) 
CCN(C)S(=O)(=O)c1cc(C(=O)Nc2ccc(Cl)cc2)n(C)c1

>  <score_type>  (3) 
oracle

>  <origin>  (3) 
adg

>  <m_score__min__energy>  (3) 
-9.3100000000000005

>  <m_primary>  (3) 
energy

$$$$
3:0
     RDKit          3D

 48 50  0  0  0  0  0  0  0  0999 V2000
   -2.9250   20.8800  -27.8070 C   0  0  0  0  0  0  0  0  0  0  0  0
   -3.0280   21.8850  -28.9510 C   0  0  0  0  0  0  0  0  0  0  0  0
   -1.7090   22.5060  -29.2090 N   0  0  0  0  0  0  0  0  0  0  0  0
   -1.0290   21.8800  -30.3680 C   0  0  0  0  0  0  0  0  0  0  0  0
   -0.4190   20.5250  -30.0100 C   0  0  0  0  0  0  0  0  0  0  0  0
   -1.7910   23.9860  -29.2820 C   0  0  0  0  0  0  0  0  0  0  0  0
   -3.2240   24.5440  -29.1700 C   0  0  0  0  0  0  0  0  0  0  0  0
   -3.7260   24.9130  -30.4870 N   0  0  0  0  0  0  0  0  0  0  0  0
   -4.9890   24.4800  -31.0060 C   0  0  0  0  0  0  0  0  0  0  0  0
   -6.0000   25.2280  -30.9150 O   0  0  0  0  0  0  0  0  0  0  0  0
   -5.1300   23.1280  -31.5910 C   0  0  0  0  0  0  0  0  0  0  0  0
   -3.9810   22.5170  -32.1120 C   0  0  0  0  0  0  0  0  0  0  0  0
   -4.0610   21.2710  -32.7460 C   0  0  0  0  0  0  0  0  0  0  0  0
   -2.8300   20.6570  -33.3010 C   0  0  0  0  0  0  0  0  0  0  0  0
   -1.5920   21.2600  -33.4550 C   0  0  0  0  0  0  0  0  0  0  0  0
   -0.7730   20.3000  -34.0070 C   0  0  0  0  0  0  0  0  0  0  0  0
   -1.5520   19.1730  -34.1590 C   0  0  0  0  0  0  0  0  0  0  0  0
   -2.7680   19.4160  -33.7300 O   0  0  0  0  0  0  0  0  0  0  0  0
   -5.2710   20.6470  -32.8510 N   0  0  0  0  0  0  0  0  0  0  0  0
   -6.4100   21.1920  -32.3330 C   0  0  0  0  0  0  0  0  0  0  0  0
   -7.6280   20.5000  -32.4420 C   0  0  0  0  0  0  0  0  0  0  0  0
   -8.7940   21.0280  -31.8860 C   0  0  0  0  0  0  0  0  0  0  0  0
   -8.7530   22.2430  -31.2050 C   0  0  0  0  0  0  0  0  0  0  0  0
   -7.5520   22.9480  -31.0900 C   0  0  0  0  0  0  0  0  0  0  0  0
   -6.3680   22.4480  -31.6730 C   0  0  0  0  0  0  0  0  0  0  0  0
   -2.9795   21.4119  -26.8457 H   0  0  0  0  0  0  0  0  0  0  0  0
   -3.7541   20.1603  -27.8754 H   0  0  0  0  0  0  0  0  0  0  0  0
   -1.9672   20.3435  -27.8754 H   0  0  0  0  0  0  0  0  0  0  0  0
   -3.3693   21.3671  -29.8595 H   0  0  0  0  0  0  0  0  0  0  0  0
   -3.7457   22.6711  -28.6735 H   0  0  0  0  0  0  0  0  0  0  0  0
   -1.7622   21.7373  -31.1755 H   0  0  0  0  0  0  0  0  0  0  0  0
   -0.2136   22.5469  -30.6846 H   0  0  0  0  0  0  0  0  0  0  0  0
   -0.3724   20.4215  -28.9159 H   0  0  0  0  0  0  0  0  0  0  0  0
   -1.0418   19.7205  -30.4282 H   0  0  0  0  0  0  0  0  0  0  0  0
    0.5962   20.4579  -30.4282 H   0  0  0  0  0  0  0  0  0  0  0  0
   -1.1917   24.4060  -28.4607 H   0  0  0  0  0  0  0  0  0  0  0  0
   -1.4147   24.2757  -30.2742 H   0  0  0  0  0  0  0  0  0  0  0  0
   -3.8796   23.7761  -28.7336 H   0  0  0  0  0  0  0  0  0  0  0  0
   -3.2116   25.4372  -28.5280 H   0  0  0  0  0  0  0  0  0  0  0  0
   -3.0074   23.0210  -32.0220 H   0  0  0  0  0  0  0  0  0  0  0  0
   -1.3195   22.2925  -33.1909 H   0  0  0  0  0  0  0  0  0  0  0  0
    0.2886   20.4104  -34.2729 H   0  0  0  0  0  0  0  0  0  0  0  0
   -1.2068   18.2156  -34.5764 H   0  0  0  0  0  0  0  0  0  0  0  0
   -5.3340   19.7210  -33.3290 H   0  0  0  0  0  0  0  0  0  0  0  0
   -7.6627   19.5353  -32.9693 H   0  0  0  0  0  0  0  0  0  0  0  0
   -9.7455   20.4850  -31.9853 H   0  0  0  0  0  0  0  0  0  0  0  0
   -9.6710   22.6494  -30.7555 H   0  0  0  0  0  0  0  0  0  0  0  0
   -7.5292   23.9006  -30.5405 H   0  0  0  0  0  0  0  0  0  0  0  0
  1  2  1  0
  2  3  1  0
  3  4  1  0
  4  5  1  0
  3  6  1  0
  6  7  1  0
  7  8  1  0
  8  9  1  0
  9 10  2  0
  9 11  1  0
 11 12  2  0
 12 13  1  0
 13 14  1  0
 14 15  2  0
 15 16  1  0
 16 17  2  0
 17 18  1  0
 13 19  2  0
 19 20  1  0
 20 21  2  0
 21 22  1  0
 22 23  2  0
 23 24  1  0
 24 25  2  0
 25 11  1  0
 18 14  1  0
 25 20  1  0
  1 26  1  0
  1 27  1  0
  1 28  1  0
  2 29  1  0
  2 30  1  0
  4 31  1  0
  4 32  1  0
  5 33  1  0
  5 34  1  0
  5 35  1  0
  6 36  1  0
  6 37  1  0
  7 38  1  0
  7 39  1  0
 12 40  1  0
 15 41  1  0
 16 42  1  0
 17 43  1  0
 19 44  1  0
 21 45  1  0
 22 46  1  0
 23 47  1  0
 24 48  1  0
M  CHG  2   8  -1  19   1
M  END
>  <UniqueID>  (4) 
4

>  <SMILES>  (4) 
CCN(CC)CC[N-]C(=O)c1cc(-c2ccco2)[nH+]c2ccccc12

>  <Energy>  (4) 
85.31419218905083

>  <Genealogy>  (4) 
CCN(CC)CC[N-]C(=O)c1cc(-c2ccco2)[nH+]c2ccccc12 (protonated)
CCN(CC)CC[N-]C(=O)c1cc(-c2ccco2)[nH+]c2ccccc12 (3D coordinates assigned)
CCN(CC)CC[N-]C(=O)c1cc(-c2ccco2)[nH+]c2ccccc12 (optimized conformer: 85.31419218905083 kcal/mol)

>  <smiles>  (4) 
CCN(CC)CCNC(=O)c1cc(-c2ccco2)nc2ccccc12

>  <score_type>  (4) 
oracle

>  <origin>  (4) 
adg

>  <m_score__min__energy>  (4) 
-8.5999999999999996

>  <m_primary>  (4) 
energy

$$$$
4:0
     RDKit          3D

 42 44  0  0  0  0  0  0  0  0999 V2000
   -5.7270   16.7160  -31.6310 C   0  0  0  0  0  0  0  0  0  0  0  0
   -6.5460   17.9210  -31.1670 C   0  0  0  0  0  0  0  0  0  0  0  0
   -7.5490   18.3350  -32.1790 N   0  0  0  0  0  0  0  0  0  0  0  0
   -6.9610   18.6880  -33.4930 C   0  0  0  0  0  0  0  0  0  0  0  0
   -6.0580   19.9300  -33.4010 C   0  0  0  0  0  0  0  0  0  0  0  0
   -6.5980   20.8860  -32.4290 N   0  0  0  0  0  0  0  0  0  0  0  0
   -5.7360   21.8680  -31.8210 C   0  0  0  0  0  0  0  0  0  0  0  0
   -6.2740   22.8970  -31.0310 C   0  0  0  0  0  0  0  0  0  0  0  0
   -5.4370   23.8390  -30.4280 C   0  0  0  0  0  0  0  0  0  0  0  0
   -4.0420   23.7590  -30.5900 C   0  0  0  0  0  0  0  0  0  0  0  0
   -3.1610   24.7300  -30.0000 N   0  0  0  0  0  0  0  0  0  0  0  0
   -2.2570   24.4400  -28.9210 C   0  0  0  0  0  0  0  0  0  0  0  0
   -1.9650   23.2460  -28.6400 O   0  0  0  0  0  0  0  0  0  0  0  0
   -1.6230   25.5240  -28.1550 C   0  0  0  0  0  0  0  0  0  0  0  0
   -1.3340   25.5360  -26.8050 C   0  0  0  0  0  0  0  0  0  0  0  0
   -0.7460   26.7670  -26.6060 C   0  0  0  0  0  0  0  0  0  0  0  0
   -0.6940   27.4330  -27.7750 N   0  0  0  0  0  0  0  0  0  0  0  0
   -1.2260   26.6600  -28.6790 O   0  0  0  0  0  0  0  0  0  0  0  0
   -3.5070   22.7400  -31.3900 C   0  0  0  0  0  0  0  0  0  0  0  0
   -4.3440   21.7950  -31.9920 C   0  0  0  0  0  0  0  0  0  0  0  0
   -8.0290   20.8320  -32.1160 C   0  0  0  0  0  0  0  0  0  0  0  0
   -8.4360   19.4120  -31.6630 C   0  0  0  0  0  0  0  0  0  0  0  0
   -5.3537   16.1668  -30.7541 H   0  0  0  0  0  0  0  0  0  0  0  0
   -6.3619   16.0523  -32.2364 H   0  0  0  0  0  0  0  0  0  0  0  0
   -4.8762   17.0621  -32.2364 H   0  0  0  0  0  0  0  0  0  0  0  0
   -7.0690   17.6575  -30.2359 H   0  0  0  0  0  0  0  0  0  0  0  0
   -5.8542   18.7619  -31.0108 H   0  0  0  0  0  0  0  0  0  0  0  0
   -6.3625   17.8389  -33.8547 H   0  0  0  0  0  0  0  0  0  0  0  0
   -7.7847   18.9154  -34.1856 H   0  0  0  0  0  0  0  0  0  0  0  0
   -5.0503   19.6224  -33.0849 H   0  0  0  0  0  0  0  0  0  0  0  0
   -6.0146   20.4125  -34.3886 H   0  0  0  0  0  0  0  0  0  0  0  0
   -7.3625   22.9617  -30.8860 H   0  0  0  0  0  0  0  0  0  0  0  0
   -5.8715   24.6483  -29.8228 H   0  0  0  0  0  0  0  0  0  0  0  0
   -3.1080   25.6720  -30.4490 H   0  0  0  0  0  0  0  0  0  0  0  0
   -1.5275   24.7480  -26.0623 H   0  0  0  0  0  0  0  0  0  0  0  0
   -0.3766   27.1462  -25.6418 H   0  0  0  0  0  0  0  0  0  0  0  0
   -2.4196   22.6831  -31.5457 H   0  0  0  0  0  0  0  0  0  0  0  0
   -3.9095   20.9900  -32.6029 H   0  0  0  0  0  0  0  0  0  0  0  0
   -8.2491   21.5456  -31.3083 H   0  0  0  0  0  0  0  0  0  0  0  0
   -8.5988   21.0915  -33.0205 H   0  0  0  0  0  0  0  0  0  0  0  0
   -8.4151   19.3803  -30.5637 H   0  0  0  0  0  0  0  0  0  0  0  0
   -9.4389   19.2222  -32.0731 H   0  0  0  0  0  0  0  0  0  0  0  0
  1  2  1  0
  2  3  1  0
  3  4  1  0
  4  5  1  0
  5  6  1  0
  6  7  1  0
  7  8  2  0
  8  9  1  0
  9 10  2  0
 10 11  1  0
 11 12  1  0
 12 13  2  0
 12 14  1  0
 14 15  2  0
 15 16  1  0
 16 17  2  0
 17 18  1  0
 10 19  1  0
 19 20  2  0
  6 21  1  0
 21 22  1  0
 22  3  1  0
 20  7  1  0
 18 14  1  0
  1 23  1  0
  1 24  1  0
  1 25  1  0
  2 26  1  0
  2 27  1  0
  4 28  1  0
  4 29  1  0
  5 30  1  0
  5 31  1  0
  8 32  1  0
  9 33  1  0
 11 34  1  0
 15 35  1  0
 16 36  1  0
 19 37  1  0
 20 38  1  0
 21 39  1  0
 21 40  1  0
 22 41  1  0
 22 42  1  0
M  END
>  <UniqueID>  (5) 
5

>  <SMILES>  (5) 
CCN1CCN(c2ccc(NC(=O)c3ccno3)cc2)CC1

>  <Energy>  (5) 
87.46353492534729

>  <Genealogy>  (5) 
CCN1CCN(c2ccc(NC(=O)c3ccno3)cc2)CC1 (3D coordinates assigned)
CCN1CCN(c2ccc(NC(=O)c3ccno3)cc2)CC1 (nonaromatic ring conformer: 87.46353492534729 kcal/mol)

>  <smiles>  (5) 
CCN1CCN(c2ccc(NC(=O)c3ccno3)cc2)CC1

>  <score_type>  (5) 
oracle

>  <origin>  (5) 
adg

>  <m_score__min__energy>  (5) 
-7.7599999999999998

>  <m_primary>  (5) 
energy

$$$$
5:0
     RDKit          3D

 41 44  0  0  0  0  0  0  0  0999 V2000
   -6.8090   24.0160  -30.3130 C   0  0  0  0  0  0  0  0  0  0  0  0
   -6.9850   23.7810  -31.6790 C   0  0  0  0  0  0  0  0  0  0  0  0
   -6.1480   22.8840  -32.3490 C   0  0  0  0  0  0  0  0  0  0  0  0
   -5.1350   22.2020  -31.6500 C   0  0  0  0  0  0  0  0  0  0  0  0
   -4.2310   21.2650  -32.3500 C   0  0  0  0  0  0  0  0  0  0  0  0
   -2.9270   21.6190  -32.5100 N   0  0  0  0  0  0  0  0  0  0  0  0
   -2.0560   20.8420  -33.2040 C   0  0  0  0  0  0  0  0  0  0  0  0
   -0.7210   21.2310  -33.3600 C   0  0  0  0  0  0  0  0  0  0  0  0
    0.1580   20.4220  -34.0900 C   0  0  0  0  0  0  0  0  0  0  0  0
   -0.2960   19.2280  -34.6640 C   0  0  0  0  0  0  0  0  0  0  0  0
   -1.6300   18.8370  -34.5090 C   0  0  0  0  0  0  0  0  0  0  0  0
   -2.5120   19.6420  -33.7800 C   0  0  0  0  0  0  0  0  0  0  0  0
   -3.8070   19.2730  -33.6070 N   0  0  0  0  0  0  0  0  0  0  0  0
   -4.6800   20.0380  -32.8980 C   0  0  0  0  0  0  0  0  0  0  0  0
   -6.0160   19.5520  -32.6830 N   0  0  0  0  0  0  0  0  0  0  0  0
   -7.1380   20.0850  -33.4700 C   0  0  0  0  0  0  0  0  0  0  0  0
   -8.3060   20.4270  -32.5420 C   0  0  0  0  0  0  0  0  0  0  0  0
   -8.7440   19.2280  -31.6730 C   0  0  0  0  0  0  0  0  0  0  0  0
   -7.6990   18.1000  -31.5940 C   0  0  0  0  0  0  0  0  0  0  0  0
   -6.2690   18.6490  -31.5520 C   0  0  0  0  0  0  0  0  0  0  0  0
   -4.9510   22.4620  -30.2820 C   0  0  0  0  0  0  0  0  0  0  0  0
   -5.7910   23.3600  -29.6160 C   0  0  0  0  0  0  0  0  0  0  0  0
   -7.4722   24.7178  -29.7860 H   0  0  0  0  0  0  0  0  0  0  0  0
   -7.7831   24.3024  -32.2278 H   0  0  0  0  0  0  0  0  0  0  0  0
   -6.2818   22.7106  -33.4270 H   0  0  0  0  0  0  0  0  0  0  0  0
   -0.3634   22.1692  -32.9106 H   0  0  0  0  0  0  0  0  0  0  0  0
    1.2082   20.7251  -34.2131 H   0  0  0  0  0  0  0  0  0  0  0  0
    0.3979   18.5963  -35.2380 H   0  0  0  0  0  0  0  0  0  0  0  0
   -1.9850   17.8983  -34.9594 H   0  0  0  0  0  0  0  0  0  0  0  0
   -6.8140   20.9933  -33.9991 H   0  0  0  0  0  0  0  0  0  0  0  0
   -7.4628   19.3275  -34.1985 H   0  0  0  0  0  0  0  0  0  0  0  0
   -8.0001   21.2497  -31.8790 H   0  0  0  0  0  0  0  0  0  0  0  0
   -9.1610   20.7114  -33.1730 H   0  0  0  0  0  0  0  0  0  0  0  0
   -8.9385   19.5920  -30.6533 H   0  0  0  0  0  0  0  0  0  0  0  0
   -9.6400   18.8006  -32.1469 H   0  0  0  0  0  0  0  0  0  0  0  0
   -7.8805   17.5100  -30.6835 H   0  0  0  0  0  0  0  0  0  0  0  0
   -7.7994   17.4780  -32.4957 H   0  0  0  0  0  0  0  0  0  0  0  0
   -6.1236   19.2012  -30.6118 H   0  0  0  0  0  0  0  0  0  0  0  0
   -5.5681   17.8037  -31.6161 H   0  0  0  0  0  0  0  0  0  0  0  0
   -4.1429   21.9572  -29.7323 H   0  0  0  0  0  0  0  0  0  0  0  0
   -5.6501   23.5502  -28.5418 H   0  0  0  0  0  0  0  0  0  0  0  0
  1  2  2  0
  2  3  1  0
  3  4  2  0
  4  5  1  0
  5  6  2  0
  6  7  1  0
  7  8  2  0
  8  9  1  0
  9 10  2  0
 10 11  1  0
 11 12  2  0
 12 13  1  0
 13 14  2  0
 14 15  1  0
 15 16  1  0
 16 17  1  0
 17 18  1  0
 18 19  1  0
 19 20  1  0
  4 21  1  0
 21 22  2  0
 22  1  1  0
 14  5  1  0
 20 15  1  0
 12  7  1  0
  1 23  1  0
  2 24  1  0
  3 25  1  0
  8 26  1  0
  9 27  1  0
 10 28  1  0
 11 29  1  0
 16 30  1  0
 16 31  1  0
 17 32  1  0
 17 33  1  0
 18 34  1  0
 18 35  1  0
 19 36  1  0
 19 37  1  0
 20 38  1  0
 20 39  1  0
 21 40  1  0
 22 41  1  0
M  END
>  <UniqueID>  (6) 
6

>  <SMILES>  (6) 
c1ccc(-c2nc3ccccc3nc2N2CCCCC2)cc1

>  <Energy>  (6) 
58.02427829414604

>  <Genealogy>  (6) 
c1ccc(-c2nc3ccccc3nc2N2CCCCC2)cc1 (3D coordinates assigned)
c1ccc(-c2nc3ccccc3nc2N2CCCCC2)cc1 (nonaromatic ring conformer: 58.02427829414604 kcal/mol)

>  <smiles>  (6) 
c1ccc(-c2nc3ccccc3nc2N2CCCCC2)cc1

>  <score_type>  (6) 
oracle

>  <origin>  (6) 
adg

>  <m_score__min__energy>  (6) 
-7.8899999999999997

>  <m_primary>  (6) 
energy

$$$$
6:0
     RDKit          3D

 40 42  0  0  1  0  0  0  0  0999 V2000
   -2.2120   24.7400  -28.1720 C   0  0  0  0  0  0  0  0  0  0  0  0
   -2.7650   25.2800  -29.3440 O   0  0  0  0  0  0  0  0  0  0  0  0
   -3.7940   24.6820  -30.0740 C   0  0  0  0  0  0  0  0  0  0  0  0
   -3.5710   23.4660  -30.6510 C   0  0  0  0  0  0  0  0  0  0  0  0
   -4.5310   22.8160  -31.3820 C   0  0  0  0  0  0  0  0  0  0  0  0
   -5.8000   23.4270  -31.5460 C   0  0  0  0  0  0  0  0  0  0  0  0
   -6.7730   22.9130  -32.3450 N   0  0  0  0  0  0  0  0  0  0  0  0
   -7.5730   21.9860  -32.2280 C   0  0  0  0  0  0  0  0  0  0  0  0
   -8.8100   22.2390  -31.7480 N   0  0  0  0  0  0  0  0  0  0  0  0
   -9.7570   21.3090  -31.5770 C   0  0  0  0  0  0  0  0  0  0  0  0
   -9.4550   20.0480  -31.9050 N   0  0  0  0  0  0  0  0  0  0  0  0
   -8.2370   19.7580  -32.3840 C   0  0  0  0  0  0  0  0  0  0  0  0
   -7.9790   18.4500  -32.7040 C   0  0  0  0  0  0  0  0  0  0  0  0
   -6.7300   18.1610  -33.1950 C   0  0  0  0  0  0  0  0  0  0  0  0
   -6.4760   16.8330  -33.5150 O   0  0  0  0  0  0  0  0  0  0  0  0
   -5.4800   16.0990  -32.8130 C   0  0  0  0  0  0  0  0  0  0  0  0
   -5.7240   19.0470  -33.3940 C   0  0  0  0  0  0  0  0  0  0  0  0
   -4.5130   18.6450  -33.8910 O   0  0  0  0  0  0  0  0  0  0  0  0
   -3.3180   19.3060  -33.4720 C   0  0  0  0  0  0  0  0  0  0  0  0
   -6.0080   20.3860  -33.0600 C   0  0  0  0  0  0  0  0  0  0  0  0
   -7.2390   20.7080  -32.5700 C   0  0  0  0  0  0  0  0  0  0  0  0
   -6.0230   24.6900  -30.9420 C   0  0  0  0  0  0  0  0  0  0  0  0
   -5.0230   25.2840  -30.2260 C   0  0  0  0  0  0  0  0  0  0  0  0
   -2.6870   25.2038  -27.2949 H   0  0  0  0  0  0  0  0  0  0  0  0
   -2.3853   23.6539  -28.1514 H   0  0  0  0  0  0  0  0  0  0  0  0
   -1.1304   24.9391  -28.1514 H   0  0  0  0  0  0  0  0  0  0  0  0
   -2.5869   22.9909  -30.5252 H   0  0  0  0  0  0  0  0  0  0  0  0
   -4.3203   21.8357  -31.8344 H   0  0  0  0  0  0  0  0  0  0  0  0
   -9.0750   23.2180  -31.4830 H   0  0  0  0  0  0  0  0  0  0  0  0
  -10.7488   21.5724  -31.1807 H   0  0  0  0  0  0  0  0  0  0  0  0
   -8.7397   17.6663  -32.5730 H   0  0  0  0  0  0  0  0  0  0  0  0
   -5.6353   16.2134  -31.7300 H   0  0  0  0  0  0  0  0  0  0  0  0
   -5.5501   15.0350  -33.0831 H   0  0  0  0  0  0  0  0  0  0  0  0
   -4.4844   16.4810  -33.0831 H   0  0  0  0  0  0  0  0  0  0  0  0
   -3.2775   19.3284  -32.3730 H   0  0  0  0  0  0  0  0  0  0  0  0
   -2.4434   18.7634  -33.8602 H   0  0  0  0  0  0  0  0  0  0  0  0
   -3.3129   20.3352  -33.8602 H   0  0  0  0  0  0  0  0  0  0  0  0
   -5.2430   21.1651  -33.1934 H   0  0  0  0  0  0  0  0  0  0  0  0
   -6.9972   25.1894  -31.0495 H   0  0  0  0  0  0  0  0  0  0  0  0
   -5.2033   26.2643  -29.7608 H   0  0  0  0  0  0  0  0  0  0  0  0
  1  2  1  0
  2  3  1  0
  3  4  2  0
  4  5  1  0
  5  6  2  0
  6  7  1  0
  7  8  2  0
  8  9  1  0
  9 10  1  0
 10 11  2  0
 11 12  1  0
 12 13  2  0
 13 14  1  0
 14 15  1  0
 15 16  1  0
 14 17  2  0
 17 18  1  0
 18 19  1  0
 17 20  1  0
 20 21  2  0
  6 22  1  0
 22 23  2  0
 23  3  1  0
 21  8  1  0
 21 12  1  0
  1 24  1  0
  1 25  1  0
  1 26  1  0
  4 27  1  0
  5 28  1  0
  9 29  1  0
 10 30  1  0
 13 31  1  0
 16 32  1  0
 16 33  1  0
 16 34  1  0
 19 35  1  0
 19 36  1  0
 19 37  1  0
 20 38  1  0
 22 39  1  0
 23 40  1  0
M  END
>  <smiles>  (7) 
COc1ccc(N=c2[nH]cnc3cc(OC)c(OC)cc23)cc1

>  <score_type>  (7) 
oracle

>  <origin>  (7) 
adg

>  <m_score__min__energy>  (7) 
-7.5300000000000002

>  <m_primary>  (7) 
energy

$$$$
7:0
     RDKit          3D

 54 56  0  0  0  0  0  0  0  0999 V2000
   -6.1420   17.8650  -31.2720 C   0  0  0  0  0  0  0  0  0  0  0  0
   -6.0680   18.2330  -32.7270 C   0  0  0  0  0  0  0  0  0  0  0  0
   -6.7430   19.2700  -33.3630 C   0  0  0  0  0  0  0  0  0  0  0  0
   -7.6190   20.2980  -32.7600 C   0  0  0  0  0  0  0  0  0  0  0  0
   -7.0860   21.5560  -32.4300 C   0  0  0  0  0  0  0  0  0  0  0  0
   -7.8950   22.5370  -31.8500 C   0  0  0  0  0  0  0  0  0  0  0  0
   -9.2470   22.2770  -31.6100 C   0  0  0  0  0  0  0  0  0  0  0  0
   -9.7920   21.0390  -31.9560 C   0  0  0  0  0  0  0  0  0  0  0  0
   -8.9850   20.0540  -32.5330 C   0  0  0  0  0  0  0  0  0  0  0  0
   -6.4810   19.2020  -34.6830 N   0  0  0  0  0  0  0  0  0  0  0  0
   -5.6900   18.1270  -34.8460 C   0  0  0  0  0  0  0  0  0  0  0  0
   -5.4070   17.5260  -33.6730 N   0  0  0  0  0  0  0  0  0  0  0  0
   -4.6160   16.3040  -33.5040 C   0  0  0  0  0  0  0  0  0  0  0  0
   -3.1000   16.5840  -33.5070 C   0  0  0  0  0  0  0  0  0  0  0  0
   -2.6880   17.8700  -32.7640 C   0  0  0  0  0  0  0  0  0  0  0  0
   -2.2620   19.0500  -33.6580 C   0  0  0  0  0  0  0  0  0  0  0  0
   -3.2720   20.2090  -33.7480 C   0  0  0  0  0  0  0  0  0  0  0  0
   -2.8430   21.4300  -32.9160 C   0  0  0  0  0  0  0  0  0  0  0  0
   -3.7710   21.7020  -31.7200 C   0  0  0  0  0  0  0  0  0  0  0  0
   -3.3110   22.8710  -30.8360 C   0  0  0  0  0  0  0  0  0  0  0  0
   -4.3900   23.8260  -30.5830 N   0  0  0  0  0  0  0  0  0  0  0  0
   -5.5110   23.5750  -29.8820 C   0  0  0  0  0  0  0  0  0  0  0  0
   -6.2110   24.7530  -29.7490 C   0  0  0  0  0  0  0  0  0  0  0  0
   -5.4400   25.6970  -30.3990 C   0  0  0  0  0  0  0  0  0  0  0  0
   -4.3290   25.1140  -30.8860 N   0  0  0  0  0  0  0  0  0  0  0  0
   -5.9621   18.7597  -30.6579 H   0  0  0  0  0  0  0  0  0  0  0  0
   -7.1396   17.4600  -31.0465 H   0  0  0  0  0  0  0  0  0  0  0  0
   -5.3785   17.1059  -31.0465 H   0  0  0  0  0  0  0  0  0  0  0  0
   -6.0256   21.7697  -32.6295 H   0  0  0  0  0  0  0  0  0  0  0  0
   -7.4673   23.5144  -31.5822 H   0  0  0  0  0  0  0  0  0  0  0  0
   -9.8818   23.0477  -31.1485 H   0  0  0  0  0  0  0  0  0  0  0  0
  -10.8582   20.8383  -31.7743 H   0  0  0  0  0  0  0  0  0  0  0  0
   -9.4209   19.0830  -32.8109 H   0  0  0  0  0  0  0  0  0  0  0  0
   -6.8510   19.8240  -35.4360 H   0  0  0  0  0  0  0  0  0  0  0  0
   -5.3179   17.7792  -35.8210 H   0  0  0  0  0  0  0  0  0  0  0  0
   -4.8876   15.8363  -32.5461 H   0  0  0  0  0  0  0  0  0  0  0  0
   -4.8374   15.6395  -34.3522 H   0  0  0  0  0  0  0  0  0  0  0  0
   -2.5922   15.7331  -33.0294 H   0  0  0  0  0  0  0  0  0  0  0  0
   -2.8086   16.7223  -34.5587 H   0  0  0  0  0  0  0  0  0  0  0  0
   -3.5440   18.1982  -32.1561 H   0  0  0  0  0  0  0  0  0  0  0  0
   -1.7984   17.6039  -32.1742 H   0  0  0  0  0  0  0  0  0  0  0  0
   -1.3181   19.4525  -33.2617 H   0  0  0  0  0  0  0  0  0  0  0  0
   -2.1762   18.6431  -34.6764 H   0  0  0  0  0  0  0  0  0  0  0  0
   -3.3655   20.5145  -34.8006 H   0  0  0  0  0  0  0  0  0  0  0  0
   -4.2302   19.8495  -33.3447 H   0  0  0  0  0  0  0  0  0  0  0  0
   -1.8254   21.2550  -32.5367 H   0  0  0  0  0  0  0  0  0  0  0  0
   -2.8916   22.3093  -33.5752 H   0  0  0  0  0  0  0  0  0  0  0  0
   -4.7755   21.9318  -32.1049 H   0  0  0  0  0  0  0  0  0  0  0  0
   -3.7592   20.7992  -31.0916 H   0  0  0  0  0  0  0  0  0  0  0  0
   -2.9582   22.4710  -29.8739 H   0  0  0  0  0  0  0  0  0  0  0  0
   -2.5062   23.4011  -31.3664 H   0  0  0  0  0  0  0  0  0  0  0  0
   -5.8158   22.5961  -29.4835 H   0  0  0  0  0  0  0  0  0  0  0  0
   -7.1725   24.9083  -29.2377 H   0  0  0  0  0  0  0  0  0  0  0  0
   -5.6950   26.7620  -30.5027 H   0  0  0  0  0  0  0  0  0  0  0  0
  1  2  1  0
  2  3  2  0
  3  4  1  0
  4  5  2  0
  5  6  1  0
  6  7  2  0
  7  8  1  0
  8  9  2  0
  3 10  1  0
 10 11  2  0
 11 12  1  0
 12 13  1  0
 13 14  1  0
 14 15  1  0
 15 16  1  0
 16 17  1  0
 17 18  1  0
 18 19  1  0
 19 20  1  0
 20 21  1  0
 21 22  1  0
 22 23  2  0
 23 24  1  0
 24 25  2  0
 12  2  1  0
 25 21  1  0
  9  4  1  0
  1 26  1  0
  1 27  1  0
  1 28  1  0
  5 29  1  0
  6 30  1  0
  7 31  1  0
  8 32  1  0
  9 33  1  0
 10 34  1  0
 11 35  1  0
 13 36  1  0
 13 37  1  0
 14 38  1  0
 14 39  1  0
 15 40  1  0
 15 41  1  0
 16 42  1  0
 16 43  1  0
 17 44  1  0
 17 45  1  0
 18 46  1  0
 18 47  1  0
 19 48  1  0
 19 49  1  0
 20 50  1  0
 20 51  1  0
 22 52  1  0
 23 53  1  0
 24 54  1  0
M  CHG  1  10   1
M  END
>  <UniqueID>  (8) 
7

>  <SMILES>  (8) 
Cc1c(-c2ccccc2)[nH+]cn1CCCCCCCCn1cccn1

>  <Energy>  (8) 
105.78047449978138

>  <Genealogy>  (8) 
Cc1c(-c2ccccc2)[nH+]cn1CCCCCCCCn1cccn1 (protonated)
Cc1c(-c2ccccc2)[nH+]cn1CCCCCCCCn1cccn1 (3D coordinates assigned)
Cc1c(-c2ccccc2)[nH+]cn1CCCCCCCCn1cccn1 (optimized conformer: 105.78047449978138 kcal/mol)

>  <smiles>  (8) 
Cc1c(-c2ccccc2)ncn1CCCCCCCCn1cccn1

>  <score_type>  (8) 
oracle

>  <origin>  (8) 
adg

>  <m_score__min__energy>  (8) 
-7.7699999999999996

>  <m_primary>  (8) 
energy

$$$$
8:0
     RDKit          3D

 49 52  0  0  1  0  0  0  0  0999 V2000
   -2.0360   25.0210  -28.0940 C   0  0  0  0  0  0  0  0  0  0  0  0
   -2.6530   25.1930  -29.3380 O   0  0  0  0  0  0  0  0  0  0  0  0
   -3.1200   24.1700  -30.1520 C   0  0  0  0  0  0  0  0  0  0  0  0
   -2.3760   23.0500  -30.4610 C   0  0  0  0  0  0  0  0  0  0  0  0
   -2.9480   22.0960  -31.2820 C   0  0  0  0  0  0  0  0  0  0  0  0
   -2.2530   20.9840  -31.6090 N   0  0  0  0  0  0  0  0  0  0  0  0
   -2.7820   20.0210  -32.4170 C   0  0  0  0  0  0  0  0  0  0  0  0
   -1.9290   18.9030  -32.6710 N   0  0  0  0  0  0  0  0  0  0  0  0
   -2.3980   17.7650  -33.4650 C   0  0  0  0  0  0  0  0  0  0  0  0
   -1.1610   17.0780  -34.0210 C   0  0  0  0  0  0  0  0  0  0  0  0
   -0.3690   16.5580  -33.0040 O   0  0  0  0  0  0  0  0  0  0  0  0
   -0.2720   17.3610  -31.8960 C   0  0  0  0  0  0  0  0  0  0  0  0
   -0.5710   18.8250  -32.1650 C   0  0  0  0  0  0  0  0  0  0  0  0
   -4.0210   20.1250  -32.9300 N   0  0  0  0  0  0  0  0  0  0  0  0
   -4.7420   21.2140  -32.6280 C   0  0  0  0  0  0  0  0  0  0  0  0
   -5.9400   21.4280  -33.0520 N   0  0  0  0  0  0  0  0  0  0  0  0
   -6.9700   20.5270  -32.6680 C   0  0  0  0  0  0  0  0  0  0  0  0
   -6.8190   19.1690  -32.9530 C   0  0  0  0  0  0  0  0  0  0  0  0
   -7.7920   18.2480  -32.6000 C   0  0  0  0  0  0  0  0  0  0  0  0
   -8.9540   18.6510  -31.9470 C   0  0  0  0  0  0  0  0  0  0  0  0
   -9.0990   20.0010  -31.6660 C   0  0  0  0  0  0  0  0  0  0  0  0
   -8.1250   20.9120  -32.0220 C   0  0  0  0  0  0  0  0  0  0  0  0
   -8.3030   22.6290  -31.6680 Cl  0  0  0  0  0  0  0  0  0  0  0  0
   -4.2130   22.2130  -31.8010 C   0  0  0  0  0  0  0  0  0  0  0  0
   -4.9620   23.3390  -31.4900 C   0  0  0  0  0  0  0  0  0  0  0  0
   -4.3940   24.3100  -30.6600 C   0  0  0  0  0  0  0  0  0  0  0  0
   -5.1580   25.4340  -30.3570 O   0  0  0  0  0  0  0  0  0  0  0  0
   -6.3920   25.2380  -29.7340 C   0  0  0  0  0  0  0  0  0  0  0  0
   -2.7625   25.2235  -27.2933 H   0  0  0  0  0  0  0  0  0  0  0  0
   -1.6714   23.9870  -28.0054 H   0  0  0  0  0  0  0  0  0  0  0  0
   -1.1890   25.7173  -28.0054 H   0  0  0  0  0  0  0  0  0  0  0  0
   -1.3577   22.9199  -30.0658 H   0  0  0  0  0  0  0  0  0  0  0  0
   -1.2930   20.9030  -31.2110 H   0  0  0  0  0  0  0  0  0  0  0  0
   -2.9650   17.0683  -32.8301 H   0  0  0  0  0  0  0  0  0  0  0  0
   -3.0633   18.0967  -34.2757 H   0  0  0  0  0  0  0  0  0  0  0  0
   -1.4745   16.2588  -34.6847 H   0  0  0  0  0  0  0  0  0  0  0  0
   -0.5699   17.8235  -34.5731 H   0  0  0  0  0  0  0  0  0  0  0  0
   -0.9838   16.9958  -31.1410 H   0  0  0  0  0  0  0  0  0  0  0  0
    0.7725   17.3074  -31.5551 H   0  0  0  0  0  0  0  0  0  0  0  0
   -0.4824   19.4044  -31.2341 H   0  0  0  0  0  0  0  0  0  0  0  0
    0.1404   19.2398  -32.8943 H   0  0  0  0  0  0  0  0  0  0  0  0
   -5.9103   18.8235  -33.4676 H   0  0  0  0  0  0  0  0  0  0  0  0
   -7.6446   17.1844  -32.8387 H   0  0  0  0  0  0  0  0  0  0  0  0
   -9.7295   17.9240  -31.6641 H   0  0  0  0  0  0  0  0  0  0  0  0
  -10.0053   20.3519  -31.1508 H   0  0  0  0  0  0  0  0  0  0  0  0
   -5.9799   23.4647  -31.8876 H   0  0  0  0  0  0  0  0  0  0  0  0
   -6.2590   25.2591  -28.6423 H   0  0  0  0  0  0  0  0  0  0  0  0
   -7.0855   26.0373  -30.0344 H   0  0  0  0  0  0  0  0  0  0  0  0
   -6.8037   24.2632  -30.0344 H   0  0  0  0  0  0  0  0  0  0  0  0
  1  2  1  0
  2  3  1  0
  3  4  2  0
  4  5  1  0
  5  6  1  0
  6  7  1  0
  7  8  1  0
  8  9  1  0
  9 10  1  0
 10 11  1  0
 11 12  1  0
 12 13  1  0
  7 14  2  0
 14 15  1  0
 15 16  2  0
 16 17  1  0
 17 18  2  0
 18 19  1  0
 19 20  2  0
 20 21  1  0
 21 22  2  0
 22 23  1  0
 15 24  1  0
 24 25  1  0
 25 26  2  0
 26 27  1  0
 27 28  1  0
 26  3  1  0
 24  5  2  0
 13  8  1  0
 22 17  1  0
  1 29  1  0
  1 30  1  0
  1 31  1  0
  4 32  1  0
  6 33  1  0
  9 34  1  0
  9 35  1  0
 10 36  1  0
 10 37  1  0
 12 38  1  0
 12 39  1  0
 13 40  1  0
 13 41  1  0
 18 42  1  0
 19 43  1  0
 20 44  1  0
 21 45  1  0
 25 46  1  0
 28 47  1  0
 28 48  1  0
 28 49  1  0
M  END
>  <smiles>  (9) 
COc1cc2[nH]c(N3CCOCC3)nc(=Nc3ccccc3Cl)c2cc1OC

>  <score_type>  (9) 
oracle

>  <origin>  (9) 
adg

>  <m_score__min__energy>  (9) 
-8.4399999999999995

>  <m_primary>  (9) 
energy

$$$$
9:0
     RDKit          3D

 36 37  0  0  0  0  0  0  0  0999 V2000
   -0.7800   26.6860  -27.8120 C   0  0  0  0  0  0  0  0  0  0  0  0
   -1.2910   26.0440  -28.9600 O   0  0  0  0  0  0  0  0  0  0  0  0
   -1.7880   24.7610  -28.6280 C   0  0  0  0  0  0  0  0  0  0  0  0
   -2.7190   24.2550  -29.7340 C   0  0  0  0  0  0  0  0  0  0  0  0
   -3.7420   25.2520  -30.0450 N   0  0  0  0  0  0  0  0  0  0  0  0
   -4.9210   25.0260  -30.8300 C   0  0  0  0  0  0  0  0  0  0  0  0
   -5.6420   26.0130  -31.1360 O   0  0  0  0  0  0  0  0  0  0  0  0
   -5.3110   23.6820  -31.3000 C   0  0  0  0  0  0  0  0  0  0  0  0
   -6.6620   23.3240  -31.4080 C   0  0  0  0  0  0  0  0  0  0  0  0
   -7.0220   22.0530  -31.8660 C   0  0  0  0  0  0  0  0  0  0  0  0
   -6.0320   21.1210  -32.2250 C   0  0  0  0  0  0  0  0  0  0  0  0
   -6.3760   19.8140  -32.7180 N   0  0  0  0  0  0  0  0  0  0  0  0
   -5.5210   19.0290  -33.5670 C   0  0  0  0  0  0  0  0  0  0  0  0
   -4.5650   19.5740  -34.1830 O   0  0  0  0  0  0  0  0  0  0  0  0
   -5.7670   17.5920  -33.7680 C   0  0  0  0  0  0  0  0  0  0  0  0
   -4.8300   16.6310  -34.1030 C   0  0  0  0  0  0  0  0  0  0  0  0
   -5.5270   15.4460  -34.1880 C   0  0  0  0  0  0  0  0  0  0  0  0
   -6.8410   15.7530  -33.9030 C   0  0  0  0  0  0  0  0  0  0  0  0
   -6.9530   17.0380  -33.6590 O   0  0  0  0  0  0  0  0  0  0  0  0
   -4.6840   21.4990  -32.1600 C   0  0  0  0  0  0  0  0  0  0  0  0
   -4.3240   22.7690  -31.7030 C   0  0  0  0  0  0  0  0  0  0  0  0
   -1.1727   26.1927  -26.9106 H   0  0  0  0  0  0  0  0  0  0  0  0
    0.3182   26.6236  -27.8152 H   0  0  0  0  0  0  0  0  0  0  0  0
   -1.0872   27.7422  -27.8152 H   0  0  0  0  0  0  0  0  0  0  0  0
   -0.9457   24.0629  -28.5138 H   0  0  0  0  0  0  0  0  0  0  0  0
   -2.3508   24.8258  -27.6851 H   0  0  0  0  0  0  0  0  0  0  0  0
   -2.1273   24.0505  -30.6385 H   0  0  0  0  0  0  0  0  0  0  0  0
   -3.2146   23.3366  -29.3863 H   0  0  0  0  0  0  0  0  0  0  0  0
   -7.4433   24.0471  -31.1309 H   0  0  0  0  0  0  0  0  0  0  0  0
   -8.0848   21.7807  -31.9459 H   0  0  0  0  0  0  0  0  0  0  0  0
   -7.3410   19.4620  -32.5290 H   0  0  0  0  0  0  0  0  0  0  0  0
   -3.7528   16.7818  -34.2673 H   0  0  0  0  0  0  0  0  0  0  0  0
   -5.1181   14.4548  -34.4336 H   0  0  0  0  0  0  0  0  0  0  0  0
   -7.6700   15.0303  -33.8831 H   0  0  0  0  0  0  0  0  0  0  0  0
   -3.9030   20.7897  -32.4714 H   0  0  0  0  0  0  0  0  0  0  0  0
   -3.2627   23.0547  -31.6588 H   0  0  0  0  0  0  0  0  0  0  0  0
  1  2  1  0
  2  3  1  0
  3  4  1  0
  4  5  1  0
  5  6  1  0
  6  7  2  0
  6  8  1  0
  8  9  2  0
  9 10  1  0
 10 11  2  0
 11 12  1  0
 12 13  1  0
 13 14  2  0
 13 15  1  0
 15 16  2  0
 16 17  1  0
 17 18  2  0
 18 19  1  0
 11 20  1  0
 20 21  2  0
 21  8  1  0
 19 15  1  0
  1 22  1  0
  1 23  1  0
  1 24  1  0
  3 25  1  0
  3 26  1  0
  4 27  1  0
  4 28  1  0
  9 29  1  0
 10 30  1  0
 12 31  1  0
 16 32  1  0
 17 33  1  0
 18 34  1  0
 20 35  1  0
 21 36  1  0
M  CHG  1   5  -1
M  END
>  <UniqueID>  (10) 
8

>  <SMILES>  (10) 
COCC[N-]C(=O)c1ccc(NC(=O)c2ccco2)cc1

>  <Energy>  (10) 
69.10116008291223

>  <Genealogy>  (10) 
COCC[N-]C(=O)c1ccc(NC(=O)c2ccco2)cc1 (protonated)
COCC[N-]C(=O)c1ccc(NC(=O)c2ccco2)cc1 (3D coordinates assigned)
COCC[N-]C(=O)c1ccc(NC(=O)c2ccco2)cc1 (optimized conformer: 69.10116008291223 kcal/mol)

>  <smiles>  (10) 
COCCNC(=O)c1ccc(NC(=O)c2ccco2)cc1

>  <score_type>  (10) 
oracle

>  <origin>  (10) 
adg

>  <m_score__min__energy>  (10) 
-8.4600000000000009

>  <m_primary>  (10) 
energy

$$$$
10:0
     RDKit          3D

 37 40  0  0  0  0  0  0  0  0999 V2000
   -0.9530   20.4610  -30.8390 C   0  0  0  0  0  0  0  0  0  0  0  0
   -2.0270   21.4580  -30.9020 N   0  0  0  0  0  0  0  0  0  0  0  0
   -2.8830   21.5580  -32.0610 C   0  0  0  0  0  0  0  0  0  0  0  0
   -2.3960   21.4210  -33.2160 O   0  0  0  0  0  0  0  0  0  0  0  0
   -4.3310   21.8150  -31.9330 C   0  0  0  0  0  0  0  0  0  0  0  0
   -5.2700   20.8220  -32.2750 C   0  0  0  0  0  0  0  0  0  0  0  0
   -6.6560   21.0720  -32.1570 C   0  0  0  0  0  0  0  0  0  0  0  0
   -7.5980   20.0840  -32.4790 C   0  0  0  0  0  0  0  0  0  0  0  0
   -8.9640   20.3540  -32.3590 C   0  0  0  0  0  0  0  0  0  0  0  0
   -9.4000   21.6070  -31.9170 C   0  0  0  0  0  0  0  0  0  0  0  0
   -8.4740   22.6020  -31.5910 C   0  0  0  0  0  0  0  0  0  0  0  0
   -7.0970   22.3420  -31.7070 C   0  0  0  0  0  0  0  0  0  0  0  0
   -6.1500   23.2750  -31.4110 N   0  0  0  0  0  0  0  0  0  0  0  0
   -6.2330   24.5570  -31.0100 C   0  0  0  0  0  0  0  0  0  0  0  0
   -4.9980   25.0930  -30.8860 N   0  0  0  0  0  0  0  0  0  0  0  0
   -4.1170   24.1520  -31.2040 N   0  0  0  0  0  0  0  0  0  0  0  0
   -4.8310   23.0530  -31.5120 C   0  0  0  0  0  0  0  0  0  0  0  0
   -2.2460   22.3070  -29.7640 C   0  0  0  0  0  0  0  0  0  0  0  0
   -1.4800   23.4720  -29.5970 C   0  0  0  0  0  0  0  0  0  0  0  0
   -1.6980   24.3090  -28.4980 C   0  0  0  0  0  0  0  0  0  0  0  0
   -2.6870   23.9920  -27.5620 C   0  0  0  0  0  0  0  0  0  0  0  0
   -3.4610   22.8400  -27.7270 C   0  0  0  0  0  0  0  0  0  0  0  0
   -3.2450   22.0000  -28.8240 C   0  0  0  0  0  0  0  0  0  0  0  0
   -0.7172   20.2421  -29.7871 H   0  0  0  0  0  0  0  0  0  0  0  0
   -1.2792   19.5384  -31.3413 H   0  0  0  0  0  0  0  0  0  0  0  0
   -0.0571   20.8549  -31.3413 H   0  0  0  0  0  0  0  0  0  0  0  0
   -4.9214   19.8435  -32.6370 H   0  0  0  0  0  0  0  0  0  0  0  0
   -7.2614   19.0960  -32.8262 H   0  0  0  0  0  0  0  0  0  0  0  0
   -9.6998   19.5770  -32.6135 H   0  0  0  0  0  0  0  0  0  0  0  0
  -10.4771   21.8106  -31.8254 H   0  0  0  0  0  0  0  0  0  0  0  0
   -8.8218   23.5864  -31.2444 H   0  0  0  0  0  0  0  0  0  0  0  0
   -7.1728   25.0930  -30.8112 H   0  0  0  0  0  0  0  0  0  0  0  0
   -0.7046   23.7275  -30.3342 H   0  0  0  0  0  0  0  0  0  0  0  0
   -1.0909   25.2173  -28.3699 H   0  0  0  0  0  0  0  0  0  0  0  0
   -2.8559   24.6490  -26.6961 H   0  0  0  0  0  0  0  0  0  0  0  0
   -4.2418   22.5935  -26.9924 H   0  0  0  0  0  0  0  0  0  0  0  0
   -3.8588   21.0962  -28.9517 H   0  0  0  0  0  0  0  0  0  0  0  0
  1  2  1  0
  2  3  1  0
  3  4  2  0
  3  5  1  0
  5  6  2  0
  6  7  1  0
  7  8  2  0
  8  9  1  0
  9 10  2  0
 10 11  1  0
 11 12  2  0
 12 13  1  0
 13 14  1  0
 14 15  2  0
 15 16  1  0
 16 17  2  0
  2 18  1  0
 18 19  2  0
 19 20  1  0
 20 21  2  0
 21 22  1  0
 22 23  2  0
 17  5  1  0
 23 18  1  0
 12  7  1  0
 17 13  1  0
  1 24  1  0
  1 25  1  0
  1 26  1  0
  6 27  1  0
  8 28  1  0
  9 29  1  0
 10 30  1  0
 11 31  1  0
 14 32  1  0
 19 33  1  0
 20 34  1  0
 21 35  1  0
 22 36  1  0
 23 37  1  0
M  END
>  <UniqueID>  (11) 
9

>  <SMILES>  (11) 
CN(C(=O)c1cc2ccccc2n2cnnc12)c1ccccc1

>  <Energy>  (11) 
98.00811561056402

>  <Genealogy>  (11) 
CN(C(=O)c1cc2ccccc2n2cnnc12)c1ccccc1 (3D coordinates assigned)
CN(C(=O)c1cc2ccccc2n2cnnc12)c1ccccc1 (optimized conformer: 98.00811561056402 kcal/mol)

>  <smiles>  (11) 
CN(C(=O)c1cc2ccccc2n2cnnc12)c1ccccc1

>  <score_type>  (11) 
oracle

>  <origin>  (11) 
adg

>  <m_score__min__energy>  (11) 
-8.6699999999999999

>  <m_primary>  (11) 
energy

$$$$
11:0
     RDKit          3D

 18 19  0  0  0  0  0  0  0  0999 V2000
   -9.4870   19.2890  -32.7070 Cl  0  0  0  0  0  0  0  0  0  0  0  0
   -8.3380   20.5410  -32.2740 C   0  0  0  0  0  0  0  0  0  0  0  0
   -8.7690   21.6770  -31.5830 C   0  0  0  0  0  0  0  0  0  0  0  0
   -7.8560   22.6770  -31.2370 C   0  0  0  0  0  0  0  0  0  0  0  0
   -6.4950   22.5530  -31.5780 C   0  0  0  0  0  0  0  0  0  0  0  0
   -5.5500   23.5820  -31.2210 N   0  0  0  0  0  0  0  0  0  0  0  0
   -5.7320   24.9180  -31.2160 C   0  0  0  0  0  0  0  0  0  0  0  0
   -4.6170   25.5590  -30.8230 N   0  0  0  0  0  0  0  0  0  0  0  0
   -3.7040   24.6330  -30.5680 N   0  0  0  0  0  0  0  0  0  0  0  0
   -4.2740   23.4390  -30.8120 C   0  0  0  0  0  0  0  0  0  0  0  0
   -6.0740   21.4030  -32.2730 C   0  0  0  0  0  0  0  0  0  0  0  0
   -6.9910   20.4060  -32.6190 C   0  0  0  0  0  0  0  0  0  0  0  0
   -9.8294   21.7842  -31.3109 H   0  0  0  0  0  0  0  0  0  0  0  0
   -8.2032   23.5683  -30.6938 H   0  0  0  0  0  0  0  0  0  0  0  0
   -6.6704   25.4185  -31.4968 H   0  0  0  0  0  0  0  0  0  0  0  0
   -3.7645   22.4714  -30.6930 H   0  0  0  0  0  0  0  0  0  0  0  0
   -5.0146   21.2881  -32.5460 H   0  0  0  0  0  0  0  0  0  0  0  0
   -6.6511   19.5131  -33.1642 H   0  0  0  0  0  0  0  0  0  0  0  0
  1  2  1  0
  2  3  2  0
  3  4  1  0
  4  5  2  0
  5  6  1  0
  6  7  1  0
  7  8  2  0
  8  9  1  0
  9 10  2  0
  5 11  1  0
 11 12  2  0
 12  2  1  0
 10  6  1  0
  3 13  1  0
  4 14  1  0
  7 15  1  0
 10 16  1  0
 11 17  1  0
 12 18  1  0
M  END
>  <UniqueID>  (12) 
10

>  <SMILES>  (12) 
Clc1ccc(-n2cnnc2)cc1

>  <Energy>  (12) 
56.020280676255474

>  <Genealogy>  (12) 
Clc1ccc(-n2cnnc2)cc1 (3D coordinates assigned)
Clc1ccc(-n2cnnc2)cc1 (optimized conformer: 56.020280676255474 kcal/mol)

>  <smiles>  (12) 
Clc1ccc(-n2cnnc2)cc1

>  <score_type>  (12) 
oracle

>  <origin>  (12) 
adg

>  <m_score__min__energy>  (12) 
-6.2999999999999998

>  <m_primary>  (12) 
energy

$$$$
12:0
     RDKit          3D

 44 47  0  0  0  0  0  0  0  0999 V2000
   -0.0580   24.0480  -28.7350 H   0  0  0  0  0  0  0  0  0  0  0  0
    0.8430   24.4340  -28.5860 O   0  0  0  0  0  0  0  0  0  0  0  0
    1.0990   24.3070  -27.2130 C   0  0  0  0  0  0  0  0  0  0  0  0
    1.3315   25.2973  -26.7945 H   0  0  0  0  0  0  0  0  0  0  0  0
    1.9516   23.6268  -27.0703 H   0  0  0  0  0  0  0  0  0  0  0  0
   -0.1240   23.7290  -26.4930 C   0  0  2  0  0  0  0  0  0  0  0  0
    0.2298   22.9303  -25.8245 H   0  0  0  0  0  0  0  0  0  0  0  0
   -1.0300   23.2130  -27.4470 O   0  0  0  0  0  0  0  0  0  0  0  0
   -2.3230   23.6320  -27.0700 C   0  0  2  0  0  0  0  0  0  0  0  0
   -2.7993   22.8548  -26.4543 H   0  0  0  0  0  0  0  0  0  0  0  0
   -3.1780   23.8350  -28.2560 N   0  0  0  0  0  0  0  0  0  0  0  0
   -4.4170   23.2370  -28.3110 C   0  0  0  0  0  0  0  0  0  0  0  0
   -4.7892   22.6298  -27.4727 H   0  0  0  0  0  0  0  0  0  0  0  0
   -5.1810   23.4210  -29.4500 C   0  0  0  0  0  0  0  0  0  0  0  0
   -4.7110   24.1510  -30.4780 C   0  0  0  0  0  0  0  0  0  0  0  0
   -3.4910   24.7290  -30.4570 N   0  0  0  0  0  0  0  0  0  0  0  0
   -2.7140   24.5660  -29.3420 C   0  0  0  0  0  0  0  0  0  0  0  0
   -1.5680   25.0880  -29.3220 O   0  0  0  0  0  0  0  0  0  0  0  0
   -5.5970   24.1800  -31.4410 O   0  0  0  0  0  0  0  0  0  0  0  0
   -6.6200   23.4620  -31.0000 C   0  0  0  0  0  0  0  0  0  0  0  0
   -7.8370   23.2470  -31.8050 C   0  0  0  0  0  0  0  0  0  0  0  0
   -8.1398   24.0304  -32.5153 H   0  0  0  0  0  0  0  0  0  0  0  0
   -8.5920   22.1430  -31.7130 C   0  0  0  0  0  0  0  0  0  0  0  0
   -9.6232   22.2471  -31.3446 H   0  0  0  0  0  0  0  0  0  0  0  0
   -8.1120   20.7890  -32.0810 C   0  0  0  0  0  0  0  0  0  0  0  0
   -6.9440   20.5790  -32.8440 C   0  0  0  0  0  0  0  0  0  0  0  0
   -6.3588   21.4409  -33.1971 H   0  0  0  0  0  0  0  0  0  0  0  0
   -6.5260   19.2800  -33.1540 C   0  0  0  0  0  0  0  0  0  0  0  0
   -5.6172   19.1250  -33.7540 H   0  0  0  0  0  0  0  0  0  0  0  0
   -7.2590   18.1800  -32.7040 C   0  0  0  0  0  0  0  0  0  0  0  0
   -6.9311   17.1602  -32.9541 H   0  0  0  0  0  0  0  0  0  0  0  0
   -8.4090   18.3760  -31.9360 C   0  0  0  0  0  0  0  0  0  0  0  0
   -8.9841   17.5093  -31.5781 H   0  0  0  0  0  0  0  0  0  0  0  0
   -8.8310   19.6710  -31.6210 C   0  0  0  0  0  0  0  0  0  0  0  0
   -9.7328   19.8169  -31.0083 H   0  0  0  0  0  0  0  0  0  0  0  0
   -6.4040   22.9610  -29.7510 N   0  0  0  0  0  0  0  0  0  0  0  0
   -7.0180   22.3600  -29.1580 H   0  0  0  0  0  0  0  0  0  0  0  0
   -2.1970   24.9150  -26.2700 C   0  0  0  0  0  0  0  0  0  0  0  0
   -2.2376   25.7963  -26.9271 H   0  0  0  0  0  0  0  0  0  0  0  0
   -3.0103   25.0540  -25.5426 H   0  0  0  0  0  0  0  0  0  0  0  0
   -0.8400   24.7810  -25.6260 C   0  0  1  0  0  0  0  0  0  0  0  0
   -0.2949   25.7355  -25.5846 H   0  0  0  0  0  0  0  0  0  0  0  0
   -0.9460   24.3600  -24.2860 O   0  0  0  0  0  0  0  0  0  0  0  0
   -0.0770   24.5340  -23.8370 H   0  0  0  0  0  0  0  0  0  0  0  0
  1  2  1  0
  2  3  1  0
  3  4  1  0
  3  5  1  0
  3  6  1  0
  6  7  1  1
  6  8  1  0
  8  9  1  0
  9 10  1  1
  9 11  1  0
 11 12  1  0
 12 13  1  0
 12 14  2  0
 14 15  1  0
 15 16  2  0
 16 17  1  0
 17 18  2  0
 15 19  1  0
 19 20  1  0
 20 21  1  0
 21 22  1  0
 21 23  2  0
 23 24  1  0
 23 25  1  0
 25 26  2  0
 26 27  1  0
 26 28  1  0
 28 29  1  0
 28 30  2  0
 30 31  1  0
 30 32  1  0
 32 33  1  0
 32 34  2  0
 34 35  1  0
 20 36  2  0
 36 37  1  0
  9 38  1  0
 38 39  1  0
 38 40  1  0
 38 41  1  0
 41 42  1  1
 41 43  1  0
 43 44  1  0
 41  6  1  0
 17 11  1  0
 34 25  1  0
 36 14  1  0
M  CHG  1  36   1
M  END
>  <UniqueID>  (13) 
11

>  <SMILES>  (13) 
O=c1nc2oc(/C=C/c3ccccc3)[nH+]c2cn1[C@@H]1C[C@@H](O)C(CO)O1

>  <Energy>  (13) 
95.49824069838442

>  <Genealogy>  (13) 
O=c1nc2oc(C=Cc3ccccc3)[nH+]c2cn1C1CC(O)C(CO)O1 (protonated)
O=c1nc2oc(C=Cc3ccccc3)[nH+]c2cn1[C@@H]1C[C@@H](O)C(CO)O1 (chirality)
O=c1nc2oc(/C=C/c3ccccc3)[nH+]c2cn1[C@@H]1C[C@@H](O)C(CO)O1 (cis-trans isomerization)
O=c1nc2oc(/C=C/c3ccccc3)[nH+]c2cn1[C@@H]1C[C@@H](O)C(CO)O1 (3D coordinates assigned)
O=c1nc2oc(/C=C/c3ccccc3)[nH+]c2cn1[C@@H]1C[C@@H](O)C(CO)O1 (nonaromatic ring conformer: 95.49824069838442 kcal/mol)

>  <smiles>  (13) 
O=c1nc2oc(C=Cc3ccccc3)nc2cn1C1CC(O)C(CO)O1

>  <score_type>  (13) 
oracle

>  <origin>  (13) 
adg

>  <m_score__min__energy>  (13) 
-8.3000000000000007

>  <m_primary>  (13) 
energy

$$$$
13:0
     RDKit          3D

 51 53  0  0  0  0  0  0  0  0999 V2000
   -1.0510   24.0480  -28.7730 C   0  0  0  0  0  0  0  0  0  0  0  0
   -2.3640   23.9000  -29.4590 C   0  0  0  0  0  0  0  0  0  0  0  0
   -3.2080   24.9290  -29.6870 N   0  0  0  0  0  0  0  0  0  0  0  0
   -4.3610   24.5240  -30.2870 C   0  0  0  0  0  0  0  0  0  0  0  0
   -5.4810   25.4920  -30.5130 C   0  0  0  0  0  0  0  0  0  0  0  0
   -4.4340   23.1480  -30.5280 C   0  0  0  0  0  0  0  0  0  0  0  0
   -5.5890   22.3930  -31.0280 C   0  0  0  0  0  0  0  0  0  0  0  0
   -6.8550   22.6650  -30.6140 N   0  0  0  0  0  0  0  0  0  0  0  0
   -7.5980   21.7780  -31.2990 C   0  0  0  0  0  0  0  0  0  0  0  0
   -8.9780   21.6030  -31.2400 C   0  0  0  0  0  0  0  0  0  0  0  0
   -9.5440   20.5840  -32.0280 C   0  0  0  0  0  0  0  0  0  0  0  0
   -8.7220   19.7700  -32.8410 C   0  0  0  0  0  0  0  0  0  0  0  0
   -7.3300   19.9700  -32.8750 C   0  0  0  0  0  0  0  0  0  0  0  0
   -6.8030   20.9980  -32.0870 C   0  0  0  0  0  0  0  0  0  0  0  0
   -5.5210   21.3740  -31.9290 N   0  0  0  0  0  0  0  0  0  0  0  0
   -4.3330   20.7080  -32.4730 C   0  0  0  0  0  0  0  0  0  0  0  0
   -3.5280   21.6670  -33.3570 C   0  0  0  0  0  0  0  0  0  0  0  0
   -2.5360   20.9230  -34.1500 N   0  0  0  0  0  0  0  0  0  0  0  0
   -1.7300   20.0430  -33.2920 C   0  0  0  0  0  0  0  0  0  0  0  0
   -0.5380   19.4780  -34.0670 C   0  0  0  0  0  0  0  0  0  0  0  0
   -0.4550   20.1010  -35.3970 N   0  0  0  0  0  0  0  0  0  0  0  0
    0.9170   20.5150  -35.7440 C   0  0  0  0  0  0  0  0  0  0  0  0
    1.1370   22.0330  -35.6250 C   0  0  0  0  0  0  0  0  0  0  0  0
   -0.1100   22.7170  -35.2980 N   0  0  0  0  0  0  0  0  0  0  0  0
   -3.0280   22.4340  -29.9440 S   0  0  0  0  0  0  0  0  0  0  0  0
   -1.2025   24.0309  -27.6836 H   0  0  0  0  0  0  0  0  0  0  0  0
   -0.3896   23.2187  -29.0643 H   0  0  0  0  0  0  0  0  0  0  0  0
   -0.5908   25.0037  -29.0643 H   0  0  0  0  0  0  0  0  0  0  0  0
   -5.8736   25.8314  -29.5431 H   0  0  0  0  0  0  0  0  0  0  0  0
   -5.1087   26.3574  -31.0809 H   0  0  0  0  0  0  0  0  0  0  0  0
   -6.2833   24.9983  -31.0809 H   0  0  0  0  0  0  0  0  0  0  0  0
   -9.6048   22.2401  -30.5988 H   0  0  0  0  0  0  0  0  0  0  0  0
  -10.6315   20.4198  -32.0115 H   0  0  0  0  0  0  0  0  0  0  0  0
   -9.1743   18.9745  -33.4514 H   0  0  0  0  0  0  0  0  0  0  0  0
   -6.6792   19.3401  -33.4993 H   0  0  0  0  0  0  0  0  0  0  0  0
   -3.6990   20.3658  -31.6417 H   0  0  0  0  0  0  0  0  0  0  0  0
   -4.6572   19.8531  -33.0845 H   0  0  0  0  0  0  0  0  0  0  0  0
   -4.2131   22.1950  -34.0366 H   0  0  0  0  0  0  0  0  0  0  0  0
   -3.0025   22.3887  -32.7144 H   0  0  0  0  0  0  0  0  0  0  0  0
   -1.8870   21.6170  -34.5890 H   0  0  0  0  0  0  0  0  0  0  0  0
   -1.3608   20.6181  -32.4301 H   0  0  0  0  0  0  0  0  0  0  0  0
   -2.3591   19.2075  -32.9513 H   0  0  0  0  0  0  0  0  0  0  0  0
    0.3881   19.6848  -33.5105 H   0  0  0  0  0  0  0  0  0  0  0  0
   -0.6699   18.3925  -34.1869 H   0  0  0  0  0  0  0  0  0  0  0  0
   -1.1010   20.9210  -35.4390 H   0  0  0  0  0  0  0  0  0  0  0  0
    1.6184   20.0054  -35.0670 H   0  0  0  0  0  0  0  0  0  0  0  0
    1.0868   20.2401  -36.7955 H   0  0  0  0  0  0  0  0  0  0  0  0
    1.8736   22.2289  -34.8319 H   0  0  0  0  0  0  0  0  0  0  0  0
    1.5020   22.4115  -36.5912 H   0  0  0  0  0  0  0  0  0  0  0  0
   -0.5610   23.0250  -36.1890 H   0  0  0  0  0  0  0  0  0  0  0  0
   -0.7590   22.0150  -34.8740 H   0  0  0  0  0  0  0  0  0  0  0  0
  1  2  1  0
  2  3  2  0
  3  4  1  0
  4  5  1  0
  4  6  2  0
  6  7  1  0
  7  8  2  0
  8  9  1  0
  9 10  2  0
 10 11  1  0
 11 12  2  0
 12 13  1  0
 13 14  2  0
 14 15  1  0
 15 16  1  0
 16 17  1  0
 17 18  1  0
 18 19  1  0
 19 20  1  0
 20 21  1  0
 21 22  1  0
 22 23  1  0
 23 24  1  0
  6 25  1  0
 25  2  1  0
 15  7  1  0
 14  9  1  0
  1 26  1  0
  1 27  1  0
  1 28  1  0
  5 29  1  0
  5 30  1  0
  5 31  1  0
 10 32  1  0
 11 33  1  0
 12 34  1  0
 13 35  1  0
 16 36  1  0
 16 37  1  0
 17 38  1  0
 17 39  1  0
 18 40  1  0
 19 41  1  0
 19 42  1  0
 20 43  1  0
 20 44  1  0
 21 45  1  0
 22 46  1  0
 22 47  1  0
 23 48  1  0
 23 49  1  0
 24 50  1  0
 24 51  1  0
M  END
>  <UniqueID>  (14) 
12

>  <SMILES>  (14) 
Cc1nc(C)c(-c2nc3ccccc3n2CCNCCNCCN)s1

>  <Energy>  (14) 
114.85507515322455

>  <Genealogy>  (14) 
Cc1nc(C)c(-c2nc3ccccc3n2CCNCCNCCN)s1 (3D coordinates assigned)
Cc1nc(C)c(-c2nc3ccccc3n2CCNCCNCCN)s1 (optimized conformer: 114.85507515322455 kcal/mol)

>  <smiles>  (14) 
Cc1nc(C)c(-c2nc3ccccc3n2CCNCCNCCN)s1

>  <score_type>  (14) 
oracle

>  <origin>  (14) 
adg

>  <m_score__min__energy>  (14) 
-8.3399999999999999

>  <m_primary>  (14) 
energy

$$$$
14:0
     RDKit          3D

 34 35  0  0  1  0  0  0  0  0999 V2000
   -3.0450   24.4660  -28.2160 C   0  0  0  0  0  0  0  0  0  0  0  0
   -3.1000   25.0140  -29.5430 O   0  0  0  0  0  0  0  0  0  0  0  0
   -3.7600   24.1790  -30.4620 C   0  0  0  0  0  0  0  0  0  0  0  0
   -3.1600   23.0500  -30.9810 C   0  0  0  0  0  0  0  0  0  0  0  0
   -3.8250   22.2340  -31.8880 C   0  0  0  0  0  0  0  0  0  0  0  0
   -5.0780   22.5510  -32.2680 N   0  0  0  0  0  0  0  0  0  0  0  0
   -5.7210   23.6460  -31.7940 C   0  0  0  0  0  0  0  0  0  0  0  0
   -6.9150   23.9000  -32.1810 N   0  0  0  0  0  0  0  0  0  0  0  0
   -7.9440   22.9410  -32.0460 C   0  0  0  0  0  0  0  0  0  0  0  0
   -9.4760   23.4540  -32.3320 S   0  0  0  0  0  0  0  0  0  0  0  0
   -7.6870   21.5740  -31.6810 N   0  0  0  0  0  0  0  0  0  0  0  0
   -8.7910   20.6320  -31.5540 C   0  0  0  0  0  0  0  0  0  0  0  0
   -8.6800   19.4420  -32.4460 C   0  0  0  0  0  0  0  0  0  0  0  0
   -7.2570   19.0410  -32.7150 C   0  0  0  0  0  0  0  0  0  0  0  0
   -6.6610   17.8130  -32.5400 C   0  0  0  0  0  0  0  0  0  0  0  0
   -5.3750   17.9470  -32.9130 N   0  0  0  0  0  0  0  0  0  0  0  0
   -5.2060   19.2080  -33.2970 C   0  0  0  0  0  0  0  0  0  0  0  0
   -6.3260   19.9310  -33.1980 N   0  0  0  0  0  0  0  0  0  0  0  0
   -5.0480   24.4500  -30.8900 C   0  0  0  0  0  0  0  0  0  0  0  0
   -3.1266   25.2792  -27.4798 H   0  0  0  0  0  0  0  0  0  0  0  0
   -3.8768   23.7599  -28.0761 H   0  0  0  0  0  0  0  0  0  0  0  0
   -2.0895   23.9393  -28.0761 H   0  0  0  0  0  0  0  0  0  0  0  0
   -2.1368   22.7913  -30.6711 H   0  0  0  0  0  0  0  0  0  0  0  0
   -3.3327   21.3372  -32.2922 H   0  0  0  0  0  0  0  0  0  0  0  0
   -5.5200   21.8920  -32.9570 H   0  0  0  0  0  0  0  0  0  0  0  0
   -6.6890   21.3190  -31.5220 H   0  0  0  0  0  0  0  0  0  0  0  0
   -8.8277   20.2809  -30.5122 H   0  0  0  0  0  0  0  0  0  0  0  0
   -9.7031   21.1692  -31.8529 H   0  0  0  0  0  0  0  0  0  0  0  0
   -9.1983   18.5969  -31.9693 H   0  0  0  0  0  0  0  0  0  0  0  0
   -9.1344   19.7105  -33.4111 H   0  0  0  0  0  0  0  0  0  0  0  0
   -7.1433   16.8975  -32.1668 H   0  0  0  0  0  0  0  0  0  0  0  0
   -4.6850   17.1470  -32.8780 H   0  0  0  0  0  0  0  0  0  0  0  0
   -4.2487   19.6128  -33.6571 H   0  0  0  0  0  0  0  0  0  0  0  0
   -5.5581   25.3412  -30.4955 H   0  0  0  0  0  0  0  0  0  0  0  0
  1  2  1  0
  2  3  1  0
  3  4  1  0
  4  5  2  0
  5  6  1  0
  6  7  1  0
  7  8  2  0
  8  9  1  0
  9 10  2  0
  9 11  1  0
 11 12  1  0
 12 13  1  0
 13 14  1  0
 14 15  2  0
 15 16  1  0
 16 17  1  0
 17 18  2  0
  7 19  1  0
 19  3  2  0
 18 14  1  0
  1 20  1  0
  1 21  1  0
  1 22  1  0
  4 23  1  0
  5 24  1  0
  6 25  1  0
 11 26  1  0
 12 27  1  0
 12 28  1  0
 13 29  1  0
 13 30  1  0
 15 31  1  0
 16 32  1  0
 17 33  1  0
 19 34  1  0
M  END
>  <smiles>  (15) 
COc1cc[nH]c(=NC(=S)NCCc2c[nH]cn2)c1

>  <score_type>  (15) 
oracle

>  <origin>  (15) 
adg

>  <m_score__min__energy>  (15) 
-5.9500000000000002

>  <m_primary>  (15) 
energy

$$$$
15:0
     RDKit          3D

 32 34  0  0  0  0  0  0  0  0999 V2000
   -5.3470   25.6380  -30.4640 C   0  0  0  0  0  0  0  0  0  0  0  0
   -4.0780   24.9990  -30.5680 O   0  0  0  0  0  0  0  0  0  0  0  0
   -3.8990   23.6200  -30.7550 C   0  0  0  0  0  0  0  0  0  0  0  0
   -3.2990   22.7990  -29.7820 C   0  0  0  0  0  0  0  0  0  0  0  0
   -3.1420   21.4310  -30.0170 C   0  0  0  0  0  0  0  0  0  0  0  0
   -3.5780   20.8690  -31.2190 C   0  0  0  0  0  0  0  0  0  0  0  0
   -4.1840   21.6720  -32.2000 C   0  0  0  0  0  0  0  0  0  0  0  0
   -4.6070   21.1020  -33.4550 N   0  0  0  0  0  0  0  0  0  0  0  0
   -5.8340   20.3760  -33.2680 C   0  0  0  0  0  0  0  0  0  0  0  0
   -6.9610   20.8040  -32.7100 C   0  0  0  0  0  0  0  0  0  0  0  0
   -7.3050   22.0790  -32.2550 C   0  0  0  0  0  0  0  0  0  0  0  0
   -8.5810   22.2630  -31.6950 C   0  0  0  0  0  0  0  0  0  0  0  0
   -9.4810   21.1820  -31.5970 C   0  0  0  0  0  0  0  0  0  0  0  0
   -9.1170   19.9070  -32.0590 C   0  0  0  0  0  0  0  0  0  0  0  0
   -7.8490   19.7370  -32.6130 C   0  0  0  0  0  0  0  0  0  0  0  0
   -7.3770   18.6150  -33.0620 N   0  0  0  0  0  0  0  0  0  0  0  0
   -6.0660   18.9590  -33.4980 C   0  0  0  0  0  0  0  0  0  0  0  0
   -5.2520   18.1440  -34.0030 O   0  0  0  0  0  0  0  0  0  0  0  0
   -4.3360   23.0500  -31.9570 C   0  0  0  0  0  0  0  0  0  0  0  0
   -5.6060   25.7684  -29.4029 H   0  0  0  0  0  0  0  0  0  0  0  0
   -5.3035   26.6217  -30.9544 H   0  0  0  0  0  0  0  0  0  0  0  0
   -6.1114   25.0173  -30.9544 H   0  0  0  0  0  0  0  0  0  0  0  0
   -2.9527   23.2358  -28.8337 H   0  0  0  0  0  0  0  0  0  0  0  0
   -2.6732   20.7940  -29.2525 H   0  0  0  0  0  0  0  0  0  0  0  0
   -3.4463   19.7918  -31.3987 H   0  0  0  0  0  0  0  0  0  0  0  0
   -4.7330   21.8500  -34.1750 H   0  0  0  0  0  0  0  0  0  0  0  0
   -3.8770   20.4460  -33.8140 H   0  0  0  0  0  0  0  0  0  0  0  0
   -6.5963   22.9167  -32.3328 H   0  0  0  0  0  0  0  0  0  0  0  0
   -8.8795   23.2571  -31.3307 H   0  0  0  0  0  0  0  0  0  0  0  0
  -10.4761   21.3388  -31.1551 H   0  0  0  0  0  0  0  0  0  0  0  0
   -9.8166   19.0613  -31.9855 H   0  0  0  0  0  0  0  0  0  0  0  0
   -4.8042   23.6875  -32.7214 H   0  0  0  0  0  0  0  0  0  0  0  0
  1  2  1  0
  2  3  1  0
  3  4  2  0
  4  5  1  0
  5  6  2  0
  6  7  1  0
  7  8  1  0
  8  9  1  0
  9 10  2  0
 10 11  1  0
 11 12  2  0
 12 13  1  0
 13 14  2  0
 14 15  1  0
 15 16  2  0
 16 17  1  0
 17 18  2  0
  7 19  2  0
 19  3  1  0
 17  9  1  0
 15 10  1  0
  1 20  1  0
  1 21  1  0
  1 22  1  0
  4 23  1  0
  5 24  1  0
  6 25  1  0
  8 26  1  0
  8 27  1  0
 11 28  1  0
 12 29  1  0
 13 30  1  0
 14 31  1  0
 19 32  1  0
M  CHG  1   8   1
M  END
>  <UniqueID>  (16) 
13

>  <SMILES>  (16) 
COc1cccc([NH2+]C2=c3ccccc3=NC2=O)c1

>  <Energy>  (16) 
68.79721312365916

>  <Genealogy>  (16) 
COc1cccc([NH2+]C2=c3ccccc3=NC2=O)c1 (protonated)
COc1cccc([NH2+]C2=c3ccccc3=NC2=O)c1 (3D coordinates assigned)
COc1cccc([NH2+]C2=c3ccccc3=NC2=O)c1 (nonaromatic ring conformer: 68.79721312365916 kcal/mol)

>  <smiles>  (16) 
COc1cccc(NC2=c3ccccc3=NC2=O)c1

>  <score_type>  (16) 
oracle

>  <origin>  (16) 
adg

>  <m_score__min__energy>  (16) 
-7.8799999999999999

>  <m_primary>  (16) 
energy

$$$$
16:0
     RDKit          3D

 28 30  0  0  0  0  0  0  0  0999 V2000
  -10.4915   19.0213  -32.9209 H   0  0  0  0  0  0  0  0  0  0  0  0
   -9.4920   19.4060  -32.6700 C   0  0  0  0  0  0  0  0  0  0  0  0
   -8.3870   18.5520  -32.7160 C   0  0  0  0  0  0  0  0  0  0  0  0
   -8.5204   17.4987  -33.0035 H   0  0  0  0  0  0  0  0  0  0  0  0
   -7.1120   19.0310  -32.3980 C   0  0  0  0  0  0  0  0  0  0  0  0
   -6.2464   18.3533  -32.4358 H   0  0  0  0  0  0  0  0  0  0  0  0
   -6.9340   20.3730  -32.0310 C   0  0  0  0  0  0  0  0  0  0  0  0
   -5.6510   20.8610  -31.7090 C   0  0  0  0  0  0  0  0  0  0  0  0
   -4.7752   20.1962  -31.7417 H   0  0  0  0  0  0  0  0  0  0  0  0
   -5.5110   22.2020  -31.3480 C   0  0  0  0  0  0  0  0  0  0  0  0
   -6.6160   23.0390  -31.3070 C   0  0  0  0  0  0  0  0  0  0  0  0
   -6.1310   24.5800  -30.8410 S   0  0  0  0  0  0  0  0  0  0  0  0
   -4.5040   24.1030  -30.7120 C   0  0  0  0  0  0  0  0  0  0  0  0
   -3.5140   24.8680  -30.3580 N   0  0  0  0  0  0  0  0  0  0  0  0
   -2.5930   24.5990  -29.2550 C   0  0  0  0  0  0  0  0  0  0  0  0
   -2.0409   25.5192  -29.0132 H   0  0  0  0  0  0  0  0  0  0  0  0
   -1.8963   23.8051  -29.5620 H   0  0  0  0  0  0  0  0  0  0  0  0
   -3.3540   24.1320  -28.0180 C   0  0  0  0  0  0  0  0  0  0  0  0
   -2.8202   24.4596  -27.1137 H   0  0  0  0  0  0  0  0  0  0  0  0
   -4.3650   24.5653  -28.0242 H   0  0  0  0  0  0  0  0  0  0  0  0
   -3.4255   23.0343  -28.0242 H   0  0  0  0  0  0  0  0  0  0  0  0
   -4.3340   22.7940  -31.0160 N   0  0  0  0  0  0  0  0  0  0  0  0
   -3.4120   22.3030  -30.9960 H   0  0  0  0  0  0  0  0  0  0  0  0
   -7.8960   22.5940  -31.6170 C   0  0  0  0  0  0  0  0  0  0  0  0
   -8.7564   23.2781  -31.5761 H   0  0  0  0  0  0  0  0  0  0  0  0
   -8.0630   21.2440  -31.9850 C   0  0  0  0  0  0  0  0  0  0  0  0
   -9.3340   20.7460  -32.3070 C   0  0  0  0  0  0  0  0  0  0  0  0
  -10.2088   21.4121  -32.2737 H   0  0  0  0  0  0  0  0  0  0  0  0
  1  2  1  0
  2  3  2  0
  3  4  1  0
  3  5  1  0
  5  6  1  0
  5  7  2  0
  7  8  1  0
  8  9  1  0
  8 10  2  0
 10 11  1  0
 11 12  1  0
 12 13  1  0
 13 14  2  0
 14 15  1  0
 15 16  1  0
 15 17  1  0
 15 18  1  0
 18 19  1  0
 18 20  1  0
 18 21  1  0
 13 22  1  0
 22 23  1  0
 11 24  2  0
 24 25  1  0
 24 26  1  0
 26 27  2  0
 27 28  1  0
 27  2  1  0
 26  7  1  0
 22 10  1  0
M  END
>  <UniqueID>  (17) 
14

>  <SMILES>  (17) 
CC/N=c1/[nH]c2cc3ccccc3cc2s1

>  <Energy>  (17) 
65.30239059264967

>  <Genealogy>  (17) 
CC/N=c1/[nH]c2cc3ccccc3cc2s1 (cis-trans isomerization)
CC/N=c1/[nH]c2cc3ccccc3cc2s1 (3D coordinates assigned)
CC/N=c1/[nH]c2cc3ccccc3cc2s1 (optimized conformer: 65.30239059264967 kcal/mol)

>  <smiles>  (17) 
CCN=c1[nH]c2cc3ccccc3cc2s1

>  <score_type>  (17) 
oracle

>  <origin>  (17) 
adg

>  <m_score__min__energy>  (17) 
-7.0099999999999998

>  <m_primary>  (17) 
energy

$$$$
17:0
     RDKit          3D

 30 31  0  0  0  0  0  0  0  0999 V2000
   -3.8630   25.3260  -30.7320 O   0  0  0  0  0  0  0  0  0  0  0  0
   -4.9400   24.7300  -30.4610 C   0  0  0  0  0  0  0  0  0  0  0  0
   -5.8570   24.3880  -31.5040 N   0  0  0  0  0  0  0  0  0  0  0  0
   -5.7560   23.1650  -32.2920 C   0  0  0  0  0  0  0  0  0  0  0  0
   -7.0110   22.3610  -32.1570 C   0  0  0  0  0  0  0  0  0  0  0  0
   -8.2040   22.8060  -31.6020 C   0  0  0  0  0  0  0  0  0  0  0  0
   -9.1900   21.8140  -31.5510 C   0  0  0  0  0  0  0  0  0  0  0  0
   -8.7750   20.5880  -32.0560 C   0  0  0  0  0  0  0  0  0  0  0  0
   -7.1790   20.7390  -32.5650 S   0  0  0  0  0  0  0  0  0  0  0  0
   -5.2530   24.3830  -29.1070 N   0  0  0  0  0  0  0  0  0  0  0  0
   -4.2960   24.5430  -28.0150 C   0  0  0  0  0  0  0  0  0  0  0  0
   -3.0570   23.7270  -28.2840 C   0  0  0  0  0  0  0  0  0  0  0  0
   -3.0930   22.3340  -28.0970 C   0  0  0  0  0  0  0  0  0  0  0  0
   -1.9650   21.5560  -28.3730 C   0  0  0  0  0  0  0  0  0  0  0  0
   -0.7950   22.1590  -28.8410 C   0  0  0  0  0  0  0  0  0  0  0  0
   -0.7500   23.5420  -29.0340 C   0  0  0  0  0  0  0  0  0  0  0  0
   -1.8750   24.3280  -28.7590 C   0  0  0  0  0  0  0  0  0  0  0  0
   -1.8080   25.6680  -28.9590 F   0  0  0  0  0  0  0  0  0  0  0  0
   -5.6027   23.4253  -33.3497 H   0  0  0  0  0  0  0  0  0  0  0  0
   -4.9062   22.5701  -31.9260 H   0  0  0  0  0  0  0  0  0  0  0  0
   -8.3581   23.8331  -31.2396 H   0  0  0  0  0  0  0  0  0  0  0  0
  -10.1988   21.9886  -31.1488 H   0  0  0  0  0  0  0  0  0  0  0  0
   -9.3857   19.6749  -32.1132 H   0  0  0  0  0  0  0  0  0  0  0  0
   -6.1850   23.9570  -28.9000 H   0  0  0  0  0  0  0  0  0  0  0  0
   -4.0200   25.6041  -27.9264 H   0  0  0  0  0  0  0  0  0  0  0  0
   -4.7582   24.1955  -27.0792 H   0  0  0  0  0  0  0  0  0  0  0  0
   -4.0130   21.8542  -27.7318 H   0  0  0  0  0  0  0  0  0  0  0  0
   -1.9987   20.4670  -28.2214 H   0  0  0  0  0  0  0  0  0  0  0  0
    0.0913   21.5446  -29.0577 H   0  0  0  0  0  0  0  0  0  0  0  0
    0.1722   24.0145  -29.4031 H   0  0  0  0  0  0  0  0  0  0  0  0
  1  2  2  0
  2  3  1  0
  3  4  1  0
  4  5  1  0
  5  6  2  0
  6  7  1  0
  7  8  2  0
  8  9  1  0
  2 10  1  0
 10 11  1  0
 11 12  1  0
 12 13  2  0
 13 14  1  0
 14 15  2  0
 15 16  1  0
 16 17  2  0
 17 18  1  0
  9  5  1  0
 17 12  1  0
  4 19  1  0
  4 20  1  0
  6 21  1  0
  7 22  1  0
  8 23  1  0
 10 24  1  0
 11 25  1  0
 11 26  1  0
 13 27  1  0
 14 28  1  0
 15 29  1  0
 16 30  1  0
M  CHG  1   3  -1
M  END
>  <UniqueID>  (18) 
15

>  <SMILES>  (18) 
O=C([N-]Cc1cccs1)NCc1ccccc1F

>  <Energy>  (18) 
50.336722568970885

>  <Genealogy>  (18) 
O=C([N-]Cc1cccs1)NCc1ccccc1F (protonated)
O=C([N-]Cc1cccs1)NCc1ccccc1F (3D coordinates assigned)
O=C([N-]Cc1cccs1)NCc1ccccc1F (optimized conformer: 50.336722568970885 kcal/mol)

>  <smiles>  (18) 
O=C(NCc1cccs1)NCc1ccccc1F

>  <score_type>  (18) 
oracle

>  <origin>  (18) 
adg

>  <m_score__min__energy>  (18) 
-8.4700000000000006

>  <m_primary>  (18) 
energy

$$$$
18:0
     RDKit          3D

 43 45  0  0  1  0  0  0  0  0999 V2000
   -6.3380   25.3080  -29.7250 C   0  0  0  0  0  0  0  0  0  0  0  0
   -4.7610   24.4830  -29.8650 S   0  0  0  0  0  0  0  0  0  0  0  0
   -3.9190   25.3000  -30.7980 O   0  0  0  0  0  0  0  0  0  0  0  0
   -4.1160   24.3590  -28.5140 O   0  0  0  0  0  0  0  0  0  0  0  0
   -5.0210   22.9590  -30.5650 N   0  0  0  0  0  0  0  0  0  0  0  0
   -3.9610   22.0220  -30.4390 C   0  0  0  0  0  0  0  0  0  0  0  0
   -4.0350   21.1870  -31.6970 C   0  0  0  0  0  0  0  0  0  0  0  0
   -4.4030   22.2440  -32.7250 C   0  0  0  0  0  0  0  0  0  0  0  0
   -5.4300   23.0320  -31.9590 C   0  0  1  0  0  0  0  0  0  0  0  0
   -6.7940   22.4890  -32.0240 C   0  0  0  0  0  0  0  0  0  0  0  0
   -7.1410   21.1800  -32.1860 C   0  0  0  0  0  0  0  0  0  0  0  0
   -8.4650   20.7580  -32.2360 C   0  0  0  0  0  0  0  0  0  0  0  0
   -8.8050   19.5410  -32.3870 N   0  0  0  0  0  0  0  0  0  0  0  0
   -8.0610   18.4970  -31.7480 C   0  0  0  0  0  0  0  0  0  0  0  0
   -6.8900   18.0600  -32.5410 C   0  0  0  0  0  0  0  0  0  0  0  0
   -6.0960   17.0410  -32.0110 C   0  0  0  0  0  0  0  0  0  0  0  0
   -4.9930   16.5930  -32.7060 C   0  0  0  0  0  0  0  0  0  0  0  0
   -4.6400   17.1170  -33.9180 C   0  0  0  0  0  0  0  0  0  0  0  0
   -5.4130   18.1150  -34.4460 C   0  0  0  0  0  0  0  0  0  0  0  0
   -6.5350   18.5810  -33.7530 C   0  0  0  0  0  0  0  0  0  0  0  0
   -9.4420   21.6830  -32.1180 N   0  0  0  0  0  0  0  0  0  0  0  0
   -9.0940   22.9630  -31.9590 C   0  0  0  0  0  0  0  0  0  0  0  0
   -7.8170   23.3820  -31.9100 N   0  0  0  0  0  0  0  0  0  0  0  0
   -6.5898   25.4397  -28.6623 H   0  0  0  0  0  0  0  0  0  0  0  0
   -6.2816   26.2921  -30.2132 H   0  0  0  0  0  0  0  0  0  0  0  0
   -7.1143   24.7005  -30.2132 H   0  0  0  0  0  0  0  0  0  0  0  0
   -2.9922   22.5389  -30.3730 H   0  0  0  0  0  0  0  0  0  0  0  0
   -4.0514   21.4115  -29.5285 H   0  0  0  0  0  0  0  0  0  0  0  0
   -3.0672   20.7182  -31.9283 H   0  0  0  0  0  0  0  0  0  0  0  0
   -4.7395   20.3440  -31.6411 H   0  0  0  0  0  0  0  0  0  0  0  0
   -3.5362   22.8642  -32.9968 H   0  0  0  0  0  0  0  0  0  0  0  0
   -4.7585   21.8427  -33.6855 H   0  0  0  0  0  0  0  0  0  0  0  0
   -5.4683   24.0423  -32.3925 H   0  0  0  0  0  0  0  0  0  0  0  0
   -6.3427   20.4291  -32.2808 H   0  0  0  0  0  0  0  0  0  0  0  0
   -7.7082   18.8631  -30.7725 H   0  0  0  0  0  0  0  0  0  0  0  0
   -8.7305   17.6308  -31.6406 H   0  0  0  0  0  0  0  0  0  0  0  0
   -6.3508   16.5954  -31.0381 H   0  0  0  0  0  0  0  0  0  0  0  0
   -4.3788   15.7901  -32.2723 H   0  0  0  0  0  0  0  0  0  0  0  0
   -3.7556   16.7453  -34.4561 H   0  0  0  0  0  0  0  0  0  0  0  0
   -5.1507   18.5530  -35.4203 H   0  0  0  0  0  0  0  0  0  0  0  0
   -7.1445   19.3840  -34.1932 H   0  0  0  0  0  0  0  0  0  0  0  0
  -10.4580   21.3940  -32.1520 H   0  0  0  0  0  0  0  0  0  0  0  0
   -9.8931   23.7128  -31.8632 H   0  0  0  0  0  0  0  0  0  0  0  0
  1  2  1  0
  2  3  2  0
  2  4  2  0
  2  5  1  0
  5  6  1  0
  6  7  1  0
  7  8  1  0
  8  9  1  0
  9 10  1  0
 10 11  2  0
 11 12  1  0
 12 13  2  0
 13 14  1  0
 14 15  1  0
 15 16  2  0
 16 17  1  0
 17 18  2  0
 18 19  1  0
 19 20  2  0
 12 21  1  0
 21 22  1  0
 22 23  2  0
  9  5  1  0
 23 10  1  0
 20 15  1  0
  1 24  1  0
  1 25  1  0
  1 26  1  0
  6 27  1  0
  6 28  1  0
  7 29  1  0
  7 30  1  0
  8 31  1  0
  8 32  1  0
  9 33  1  6
 11 34  1  0
 14 35  1  0
 14 36  1  0
 16 37  1  0
 17 38  1  0
 18 39  1  0
 19 40  1  0
 20 41  1  0
 21 42  1  0
 22 43  1  0
M  END
>  <smiles>  (19) 
CS(=O)(=O)N1CCCC1c1cc(=NCc2ccccc2)[nH]cn1

>  <score_type>  (19) 
oracle

>  <origin>  (19) 
adg

>  <m_score__min__energy>  (19) 
-9.2899999999999991

>  <m_primary>  (19) 
energy

$$$$
19:0
     RDKit          3D

 32 33  0  0  0  0  0  0  0  0999 V2000
   -2.8350   19.2700  -26.7140 C   0  0  0  0  0  0  0  0  0  0  0  0
   -1.3830   19.8930  -27.6170 S   0  0  0  0  0  0  0  0  0  0  0  0
   -2.2980   21.2140  -28.4160 C   0  0  0  0  0  0  0  0  0  0  0  0
   -1.8680   21.7180  -29.6470 C   0  0  0  0  0  0  0  0  0  0  0  0
   -2.5820   22.7440  -30.2730 C   0  0  0  0  0  0  0  0  0  0  0  0
   -3.7420   23.2780  -29.6790 C   0  0  0  0  0  0  0  0  0  0  0  0
   -4.4940   24.3630  -30.3640 C   0  0  0  0  0  0  0  0  0  0  0  0
   -3.8690   25.3480  -30.8400 O   0  0  0  0  0  0  0  0  0  0  0  0
   -5.9920   24.3290  -30.5130 C   0  0  0  0  0  0  0  0  0  0  0  0
   -6.3650   23.7650  -31.7720 O   0  0  0  0  0  0  0  0  0  0  0  0
   -7.1050   22.5840  -31.9480 C   0  0  0  0  0  0  0  0  0  0  0  0
   -8.4900   22.5170  -31.6970 C   0  0  0  0  0  0  0  0  0  0  0  0
   -9.1850   21.3200  -31.8910 C   0  0  0  0  0  0  0  0  0  0  0  0
   -8.5090   20.1810  -32.3330 C   0  0  0  0  0  0  0  0  0  0  0  0
   -7.1360   20.2360  -32.5810 C   0  0  0  0  0  0  0  0  0  0  0  0
   -6.4340   21.4320  -32.3900 C   0  0  0  0  0  0  0  0  0  0  0  0
   -4.7090   21.4780  -32.7220 Cl  0  0  0  0  0  0  0  0  0  0  0  0
   -4.1630   22.7620  -28.4370 C   0  0  0  0  0  0  0  0  0  0  0  0
   -3.4470   21.7350  -27.8150 C   0  0  0  0  0  0  0  0  0  0  0  0
   -2.6546   19.3474  -25.6317 H   0  0  0  0  0  0  0  0  0  0  0  0
   -3.7181   19.8684  -26.9823 H   0  0  0  0  0  0  0  0  0  0  0  0
   -3.0099   18.2176  -26.9823 H   0  0  0  0  0  0  0  0  0  0  0  0
   -0.9662   21.3065  -30.1239 H   0  0  0  0  0  0  0  0  0  0  0  0
   -2.2343   23.1382  -31.2393 H   0  0  0  0  0  0  0  0  0  0  0  0
   -6.4210   23.7197  -29.7038 H   0  0  0  0  0  0  0  0  0  0  0  0
   -6.3745   25.3591  -30.4614 H   0  0  0  0  0  0  0  0  0  0  0  0
   -9.0267   23.4110  -31.3467 H   0  0  0  0  0  0  0  0  0  0  0  0
  -10.2665   21.2751  -31.6951 H   0  0  0  0  0  0  0  0  0  0  0  0
   -9.0582   19.2402  -32.4859 H   0  0  0  0  0  0  0  0  0  0  0  0
   -6.6046   19.3373  -32.9273 H   0  0  0  0  0  0  0  0  0  0  0  0
   -5.0623   23.1707  -27.9531 H   0  0  0  0  0  0  0  0  0  0  0  0
   -3.7893   21.3355  -26.8489 H   0  0  0  0  0  0  0  0  0  0  0  0
  1  2  1  0
  2  3  1  0
  3  4  2  0
  4  5  1  0
  5  6  2  0
  6  7  1  0
  7  8  2  0
  7  9  1  0
  9 10  1  0
 10 11  1  0
 11 12  2  0
 12 13  1  0
 13 14  2  0
 14 15  1  0
 15 16  2  0
 16 17  1  0
  6 18  1  0
 18 19  2  0
 19  3  1  0
 16 11  1  0
  1 20  1  0
  1 21  1  0
  1 22  1  0
  4 23  1  0
  5 24  1  0
  9 25  1  0
  9 26  1  0
 12 27  1  0
 13 28  1  0
 14 29  1  0
 15 30  1  0
 18 31  1  0
 19 32  1  0
M  END
>  <UniqueID>  (20) 
16

>  <SMILES>  (20) 
CSc1ccc(C(=O)COc2ccccc2Cl)cc1

>  <Energy>  (20) 
29.469050421437174

>  <Genealogy>  (20) 
CSc1ccc(C(=O)COc2ccccc2Cl)cc1 (3D coordinates assigned)
CSc1ccc(C(=O)COc2ccccc2Cl)cc1 (optimized conformer: 29.469050421437174 kcal/mol)

>  <smiles>  (20) 
CSc1ccc(C(=O)COc2ccccc2Cl)cc1

>  <score_type>  (20) 
oracle

>  <origin>  (20) 
adg

>  <m_score__min__energy>  (20) 
-7.6600000000000001

>  <m_primary>  (20) 
energy

$$$$
20:0
     RDKit          3D

 50 54  0  0  1  0  0  0  0  0999 V2000
   -4.9970   25.4170  -30.4860 C   0  0  0  0  0  0  0  0  0  0  0  0
   -3.6290   25.1640  -30.4700 O   0  0  0  0  0  0  0  0  0  0  0  0
   -2.9470   24.4720  -29.4880 C   0  0  0  0  0  0  0  0  0  0  0  0
   -2.5130   25.0050  -28.3010 C   0  0  0  0  0  0  0  0  0  0  0  0
   -1.8360   24.2870  -27.3460 C   0  0  0  0  0  0  0  0  0  0  0  0
   -1.3810   24.8430  -26.1040 C   0  0  0  0  0  0  0  0  0  0  0  0
   -1.8020   26.0990  -25.5070 C   0  0  0  0  0  0  0  0  0  0  0  0
   -1.2610   26.3960  -24.3960 N   0  0  0  0  0  0  0  0  0  0  0  0
   -0.3700   25.6680  -23.7650 C   0  0  0  0  0  0  0  0  0  0  0  0
   -0.2220   24.2070  -24.9760 S   0  0  0  0  0  0  0  0  0  0  0  0
   -1.5660   22.9440  -27.5740 C   0  0  0  0  0  0  0  0  0  0  0  0
   -2.0060   22.4240  -28.7670 C   0  0  0  0  0  0  0  0  0  0  0  0
   -2.6850   23.1390  -29.7260 C   0  0  0  0  0  0  0  0  0  0  0  0
   -3.0710   22.4370  -30.9380 C   0  0  0  0  0  0  0  0  0  0  0  0
   -2.1660   22.1390  -31.9040 N   0  0  0  0  0  0  0  0  0  0  0  0
   -2.4780   21.5040  -33.0420 C   0  0  0  0  0  0  0  0  0  0  0  0
   -3.7620   21.0970  -33.3290 C   0  0  0  0  0  0  0  0  0  0  0  0
   -4.7230   21.3800  -32.3700 C   0  0  0  0  0  0  0  0  0  0  0  0
   -6.0320   21.0300  -32.5310 C   0  0  0  0  0  0  0  0  0  0  0  0
   -7.0100   21.2880  -31.6160 C   0  0  0  0  0  0  0  0  0  0  0  0
   -8.6880   20.8230  -31.8130 S   0  0  0  0  0  0  0  0  0  0  0  0
   -9.3970   20.8650  -30.4760 O   0  0  0  0  0  0  0  0  0  0  0  0
   -9.4090   21.8120  -32.6960 O   0  0  0  0  0  0  0  0  0  0  0  0
   -8.8350   19.2080  -32.3770 N   0  0  0  0  0  0  0  0  0  0  0  0
   -7.8800   18.3680  -32.3540 C   0  0  0  0  0  0  0  0  0  0  0  0
   -7.1670   18.1390  -31.1860 C   0  0  0  0  0  0  0  0  0  0  0  0
   -6.1360   17.2130  -31.2160 C   0  0  0  0  0  0  0  0  0  0  0  0
   -5.8880   16.5920  -32.3730 N   0  0  0  0  0  0  0  0  0  0  0  0
   -6.5850   16.8200  -33.4990 C   0  0  0  0  0  0  0  0  0  0  0  0
   -7.5850   17.7140  -33.4890 N   0  0  0  0  0  0  0  0  0  0  0  0
   -6.7030   21.9510  -30.4200 C   0  0  0  0  0  0  0  0  0  0  0  0
   -5.3630   22.3050  -30.2640 C   0  0  0  0  0  0  0  0  0  0  0  0
   -4.3900   22.0440  -31.1810 C   0  0  0  0  0  0  0  0  0  0  0  0
   -5.3693   25.4858  -29.4532 H   0  0  0  0  0  0  0  0  0  0  0  0
   -5.1883   26.3658  -31.0087 H   0  0  0  0  0  0  0  0  0  0  0  0
   -5.5150   24.5994  -31.0087 H   0  0  0  0  0  0  0  0  0  0  0  0
   -2.7188   26.0673  -28.1029 H   0  0  0  0  0  0  0  0  0  0  0  0
   -2.5442   26.7533  -25.9876 H   0  0  0  0  0  0  0  0  0  0  0  0
    0.1441   25.8500  -22.8097 H   0  0  0  0  0  0  0  0  0  0  0  0
   -1.0279   22.3287  -26.8378 H   0  0  0  0  0  0  0  0  0  0  0  0
   -1.8011   21.3624  -28.9693 H   0  0  0  0  0  0  0  0  0  0  0  0
   -1.6809   21.3008  -33.7723 H   0  0  0  0  0  0  0  0  0  0  0  0
   -4.0112   20.5770  -34.2657 H   0  0  0  0  0  0  0  0  0  0  0  0
   -6.3161   20.5073  -33.4562 H   0  0  0  0  0  0  0  0  0  0  0  0
   -7.4136   18.6786  -30.2597 H   0  0  0  0  0  0  0  0  0  0  0  0
   -5.5411   16.9963  -30.3164 H   0  0  0  0  0  0  0  0  0  0  0  0
   -5.1170   15.8860  -32.4280 H   0  0  0  0  0  0  0  0  0  0  0  0
   -6.3371   16.2770  -34.4230 H   0  0  0  0  0  0  0  0  0  0  0  0
   -7.4645   22.1761  -29.6587 H   0  0  0  0  0  0  0  0  0  0  0  0
   -5.0732   22.8287  -29.3411 H   0  0  0  0  0  0  0  0  0  0  0  0
  1  2  1  0
  2  3  1  0
  3  4  2  0
  4  5  1  0
  5  6  1  0
  6  7  2  0
  7  8  1  0
  8  9  2  0
  9 10  1  0
  5 11  2  0
 11 12  1  0
 12 13  2  0
 13 14  1  0
 14 15  2  0
 15 16  1  0
 16 17  2  0
 17 18  1  0
 18 19  2  0
 19 20  1  0
 20 21  1  0
 21 22  2  0
 21 23  2  0
 21 24  1  0
 24 25  2  0
 25 26  1  0
 26 27  2  0
 27 28  1  0
 28 29  1  0
 29 30  2  0
 20 31  2  0
 31 32  1  0
 32 33  2  0
 13  3  1  0
 33 14  1  0
 10  6  1  0
 33 18  1  0
 30 25  1  0
  1 34  1  0
  1 35  1  0
  1 36  1  0
  4 37  1  0
  7 38  1  0
  9 39  1  0
 11 40  1  0
 12 41  1  0
 16 42  1  0
 17 43  1  0
 19 44  1  0
 26 45  1  0
 27 46  1  0
 28 47  1  0
 29 48  1  0
 31 49  1  0
 32 50  1  0
M  END
>  <smiles>  (21) 
COc1cc(-c2cncs2)ccc1-c1nccc2cc(S(=O)(=O)N=c3cc[nH]cn3)ccc12

>  <score_type>  (21) 
oracle

>  <origin>  (21) 
adg

>  <m_score__min__energy>  (21) 
-10.640000000000001

>  <m_primary>  (21) 
energy

$$$$
21:0
     RDKit          3D

 47 50  0  0  0  0  0  0  0  0999 V2000
    1.8510   19.2970  -31.7710 C   0  0  0  0  0  0  0  0  0  0  0  0
    1.0530   20.4360  -32.0780 O   0  0  0  0  0  0  0  0  0  0  0  0
   -0.3160   20.3850  -32.3800 C   0  0  0  0  0  0  0  0  0  0  0  0
   -1.1850   19.8280  -31.4350 C   0  0  0  0  0  0  0  0  0  0  0  0
   -2.5580   19.7570  -31.6860 C   0  0  0  0  0  0  0  0  0  0  0  0
   -3.0870   20.2580  -32.8870 C   0  0  0  0  0  0  0  0  0  0  0  0
   -4.5670   20.1730  -33.1690 C   0  0  0  0  0  0  0  0  0  0  0  0
   -5.3110   21.2040  -32.4140 N   0  0  0  0  0  0  0  0  0  0  0  0
   -4.5800   22.2030  -31.8280 C   0  0  0  0  0  0  0  0  0  0  0  0
   -5.1840   23.2080  -31.0660 C   0  0  0  0  0  0  0  0  0  0  0  0
   -4.3480   24.2680  -30.4460 C   0  0  0  0  0  0  0  0  0  0  0  0
   -4.4770   25.4580  -30.8430 O   0  0  0  0  0  0  0  0  0  0  0  0
   -3.3590   23.9640  -29.3820 C   0  0  0  0  0  0  0  0  0  0  0  0
   -2.0980   23.4220  -29.6990 C   0  0  0  0  0  0  0  0  0  0  0  0
   -1.1770   23.1350  -28.6870 C   0  0  0  0  0  0  0  0  0  0  0  0
   -1.5060   23.3730  -27.3510 C   0  0  0  0  0  0  0  0  0  0  0  0
   -2.7600   23.8950  -27.0240 C   0  0  0  0  0  0  0  0  0  0  0  0
   -3.6840   24.1860  -28.0320 C   0  0  0  0  0  0  0  0  0  0  0  0
   -6.5770   23.2040  -30.9190 C   0  0  0  0  0  0  0  0  0  0  0  0
   -7.1400   24.1070  -30.2380 O   0  0  0  0  0  0  0  0  0  0  0  0
   -7.3400   22.1850  -31.5130 C   0  0  0  0  0  0  0  0  0  0  0  0
   -8.7410   22.1550  -31.3650 C   0  0  0  0  0  0  0  0  0  0  0  0
   -9.4940   21.1370  -31.9440 C   0  0  0  0  0  0  0  0  0  0  0  0
   -8.8640   20.1350  -32.6770 C   0  0  0  0  0  0  0  0  0  0  0  0
   -7.4780   20.1460  -32.8380 C   0  0  0  0  0  0  0  0  0  0  0  0
   -6.6850   21.1690  -32.2640 C   0  0  0  0  0  0  0  0  0  0  0  0
   -2.2140   20.8000  -33.8440 C   0  0  0  0  0  0  0  0  0  0  0  0
   -0.8410   20.8700  -33.5930 C   0  0  0  0  0  0  0  0  0  0  0  0
    1.9282   19.1869  -30.6793 H   0  0  0  0  0  0  0  0  0  0  0  0
    1.3850   18.3969  -32.1983 H   0  0  0  0  0  0  0  0  0  0  0  0
    2.8562   19.4276  -32.1983 H   0  0  0  0  0  0  0  0  0  0  0  0
   -0.7838   19.4426  -30.4861 H   0  0  0  0  0  0  0  0  0  0  0  0
   -3.2281   19.3064  -30.9390 H   0  0  0  0  0  0  0  0  0  0  0  0
   -4.7372   20.3227  -34.2454 H   0  0  0  0  0  0  0  0  0  0  0  0
   -4.9268   19.1818  -32.8558 H   0  0  0  0  0  0  0  0  0  0  0  0
   -3.4881   22.2151  -31.9603 H   0  0  0  0  0  0  0  0  0  0  0  0
   -1.8364   23.2234  -30.7488 H   0  0  0  0  0  0  0  0  0  0  0  0
   -0.1909   22.7207  -28.9439 H   0  0  0  0  0  0  0  0  0  0  0  0
   -0.7785   23.1497  -26.5567 H   0  0  0  0  0  0  0  0  0  0  0  0
   -3.0209   24.0774  -25.9711 H   0  0  0  0  0  0  0  0  0  0  0  0
   -4.6718   24.5913  -27.7673 H   0  0  0  0  0  0  0  0  0  0  0  0
   -9.2446   22.9434  -30.7865 H   0  0  0  0  0  0  0  0  0  0  0  0
  -10.5872   21.1244  -31.8222 H   0  0  0  0  0  0  0  0  0  0  0  0
   -9.4616   19.3309  -33.1313 H   0  0  0  0  0  0  0  0  0  0  0  0
   -6.9940   19.3477  -33.4198 H   0  0  0  0  0  0  0  0  0  0  0  0
   -2.6139   21.1724  -34.7987 H   0  0  0  0  0  0  0  0  0  0  0  0
   -0.1679   21.3057  -34.3460 H   0  0  0  0  0  0  0  0  0  0  0  0
  1  2  1  0
  2  3  1  0
  3  4  2  0
  4  5  1  0
  5  6  2  0
  6  7  1  0
  7  8  1  0
  8  9  1  0
  9 10  2  0
 10 11  1  0
 11 12  2  0
 11 13  1  0
 13 14  2  0
 14 15  1  0
 15 16  2  0
 16 17  1  0
 17 18  2  0
 10 19  1  0
 19 20  2  0
 19 21  1  0
 21 22  2  0
 22 23  1  0
 23 24  2  0
 24 25  1  0
 25 26  2  0
  6 27  1  0
 27 28  2  0
 28  3  1  0
 26  8  1  0
 18 13  1  0
 26 21  1  0
  1 29  1  0
  1 30  1  0
  1 31  1  0
  4 32  1  0
  5 33  1  0
  7 34  1  0
  7 35  1  0
  9 36  1  0
 14 37  1  0
 15 38  1  0
 16 39  1  0
 17 40  1  0
 18 41  1  0
 22 42  1  0
 23 43  1  0
 24 44  1  0
 25 45  1  0
 27 46  1  0
 28 47  1  0
M  END
>  <UniqueID>  (22) 
17

>  <SMILES>  (22) 
COc1ccc(Cn2cc(C(=O)c3ccccc3)c(=O)c3ccccc32)cc1

>  <Energy>  (22) 
67.13839642895857

>  <Genealogy>  (22) 
COc1ccc(Cn2cc(C(=O)c3ccccc3)c(=O)c3ccccc32)cc1 (3D coordinates assigned)
COc1ccc(Cn2cc(C(=O)c3ccccc3)c(=O)c3ccccc32)cc1 (optimized conformer: 67.13839642895857 kcal/mol)

>  <smiles>  (22) 
COc1ccc(Cn2cc(C(=O)c3ccccc3)c(=O)c3ccccc32)cc1

>  <score_type>  (22) 
oracle

>  <origin>  (22) 
adg

>  <m_score__min__energy>  (22) 
-9.2599999999999998

>  <m_primary>  (22) 
energy

$$$$
22:0
     RDKit          3D

 52 56  0  0  0  0  0  0  0  0999 V2000
   -0.5270   23.2260  -25.7720 C   0  0  0  0  0  0  0  0  0  0  0  0
   -0.3480   24.6220  -26.2030 N   0  0  0  0  0  0  0  0  0  0  0  0
   -1.5420   25.4450  -25.9150 C   0  0  0  0  0  0  0  0  0  0  0  0
   -2.7450   25.0300  -26.7800 C   0  0  0  0  0  0  0  0  0  0  0  0
   -2.3110   24.6740  -28.1360 N   0  0  0  0  0  0  0  0  0  0  0  0
   -3.1550   23.8630  -28.9780 C   0  0  0  0  0  0  0  0  0  0  0  0
   -2.8920   22.4920  -29.1390 C   0  0  0  0  0  0  0  0  0  0  0  0
   -3.7010   21.7090  -29.9660 C   0  0  0  0  0  0  0  0  0  0  0  0
   -4.7780   22.2860  -30.6520 C   0  0  0  0  0  0  0  0  0  0  0  0
   -5.6100   21.4820  -31.5010 N   0  0  0  0  0  0  0  0  0  0  0  0
   -6.9670   21.4660  -31.5430 C   0  0  0  0  0  0  0  0  0  0  0  0
   -7.4160   20.5070  -32.4310 C   0  0  0  0  0  0  0  0  0  0  0  0
   -6.2890   19.9280  -32.9800 C   0  0  0  0  0  0  0  0  0  0  0  0
   -6.1350   18.9120  -33.9230 C   0  0  0  0  0  0  0  0  0  0  0  0
   -4.8270   18.5330  -34.2730 C   0  0  0  0  0  0  0  0  0  0  0  0
   -4.6320   17.5510  -35.1870 F   0  0  0  0  0  0  0  0  0  0  0  0
   -3.7140   19.1670  -33.6770 C   0  0  0  0  0  0  0  0  0  0  0  0
   -3.8980   20.1850  -32.7250 C   0  0  0  0  0  0  0  0  0  0  0  0
   -5.2070   20.5430  -32.3880 C   0  0  0  0  0  0  0  0  0  0  0  0
   -8.8430   20.2190  -32.6200 C   0  0  0  0  0  0  0  0  0  0  0  0
   -9.2300   19.3650  -33.4600 O   0  0  0  0  0  0  0  0  0  0  0  0
   -9.8360   20.9200  -31.7280 C   0  0  0  0  0  0  0  0  0  0  0  0
   -9.3110   22.2980  -31.2630 C   0  0  0  0  0  0  0  0  0  0  0  0
   -7.9040   22.2150  -30.6330 C   0  0  0  0  0  0  0  0  0  0  0  0
   -5.0410   23.6530  -30.4990 C   0  0  0  0  0  0  0  0  0  0  0  0
   -4.2330   24.4380  -29.6700 C   0  0  0  0  0  0  0  0  0  0  0  0
   -1.0040   25.1480  -28.5990 C   0  0  0  0  0  0  0  0  0  0  0  0
    0.1010   24.7120  -27.6180 C   0  0  0  0  0  0  0  0  0  0  0  0
   -0.5330   23.1795  -24.6730 H   0  0  0  0  0  0  0  0  0  0  0  0
   -1.4818   22.8419  -26.1605 H   0  0  0  0  0  0  0  0  0  0  0  0
    0.3000   22.6134  -26.1605 H   0  0  0  0  0  0  0  0  0  0  0  0
   -1.8085   25.3266  -24.8544 H   0  0  0  0  0  0  0  0  0  0  0  0
   -1.2992   26.4924  -26.1474 H   0  0  0  0  0  0  0  0  0  0  0  0
   -3.2385   24.1616  -26.3192 H   0  0  0  0  0  0  0  0  0  0  0  0
   -3.4438   25.8771  -26.8434 H   0  0  0  0  0  0  0  0  0  0  0  0
   -2.0438   22.0325  -28.6105 H   0  0  0  0  0  0  0  0  0  0  0  0
   -3.4917   20.6350  -30.0791 H   0  0  0  0  0  0  0  0  0  0  0  0
   -7.0088   18.4229  -34.3783 H   0  0  0  0  0  0  0  0  0  0  0  0
   -2.6958   18.8618  -33.9600 H   0  0  0  0  0  0  0  0  0  0  0  0
   -3.0367   20.6856  -32.2585 H   0  0  0  0  0  0  0  0  0  0  0  0
  -10.7745   21.0646  -32.2833 H   0  0  0  0  0  0  0  0  0  0  0  0
   -9.9983   20.2956  -30.8371 H   0  0  0  0  0  0  0  0  0  0  0  0
   -9.2687   22.9706  -32.1323 H   0  0  0  0  0  0  0  0  0  0  0  0
   -9.9997   22.6743  -30.4922 H   0  0  0  0  0  0  0  0  0  0  0  0
   -7.5178   23.2324  -30.4724 H   0  0  0  0  0  0  0  0  0  0  0  0
   -7.9727   21.6820  -29.6732 H   0  0  0  0  0  0  0  0  0  0  0  0
   -5.8865   24.1112  -31.0330 H   0  0  0  0  0  0  0  0  0  0  0  0
   -4.4433   25.5120  -29.5595 H   0  0  0  0  0  0  0  0  0  0  0  0
   -0.7953   24.7241  -29.5924 H   0  0  0  0  0  0  0  0  0  0  0  0
   -1.0207   26.2465  -28.6540 H   0  0  0  0  0  0  0  0  0  0  0  0
    0.4682   23.7226  -27.9281 H   0  0  0  0  0  0  0  0  0  0  0  0
    0.8831   25.4846  -27.6554 H   0  0  0  0  0  0  0  0  0  0  0  0
  1  2  1  0
  2  3  1  0
  3  4  1  0
  4  5  1  0
  5  6  1  0
  6  7  2  0
  7  8  1  0
  8  9  2  0
  9 10  1  0
 10 11  1  0
 11 12  2  0
 12 13  1  0
 13 14  2  0
 14 15  1  0
 15 16  1  0
 15 17  2  0
 17 18  1  0
 18 19  2  0
 12 20  1  0
 20 21  2  0
 20 22  1  0
 22 23  1  0
 23 24  1  0
  9 25  1  0
 25 26  2  0
  5 27  1  0
 27 28  1  0
 28  2  1  0
 26  6  1  0
 19 10  1  0
 24 11  1  0
 19 13  1  0
  1 29  1  0
  1 30  1  0
  1 31  1  0
  3 32  1  0
  3 33  1  0
  4 34  1  0
  4 35  1  0
  7 36  1  0
  8 37  1  0
 14 38  1  0
 17 39  1  0
 18 40  1  0
 22 41  1  0
 22 42  1  0
 23 43  1  0
 23 44  1  0
 24 45  1  0
 24 46  1  0
 25 47  1  0
 26 48  1  0
 27 49  1  0
 27 50  1  0
 28 51  1  0
 28 52  1  0
M  END
>  <UniqueID>  (23) 
18

>  <SMILES>  (23) 
CN1CCN(c2ccc(-n3c4c(c5cc(F)ccc53)C(=O)CCC4)cc2)CC1

>  <Energy>  (23) 
110.0464722538618

>  <Genealogy>  (23) 
CN1CCN(c2ccc(-n3c4c(c5cc(F)ccc53)C(=O)CCC4)cc2)CC1 (3D coordinates assigned)
CN1CCN(c2ccc(-n3c4c(c5cc(F)ccc53)C(=O)CCC4)cc2)CC1 (nonaromatic ring conformer: 110.0464722538618 kcal/mol)

>  <smiles>  (23) 
CN1CCN(c2ccc(-n3c4c(c5cc(F)ccc53)C(=O)CCC4)cc2)CC1

>  <score_type>  (23) 
oracle

>  <origin>  (23) 
adg

>  <m_score__min__energy>  (23) 
-8.7899999999999991

>  <m_primary>  (23) 
energy

$$$$
23:0
     RDKit          3D

 41 43  0  0  0  0  0  0  0  0999 V2000
   -3.2770   21.1610  -27.6940 C   0  0  0  0  0  0  0  0  0  0  0  0
   -3.5150   22.4250  -28.5480 C   0  0  1  0  0  0  0  0  0  0  0  0
   -4.9010   22.6900  -28.5530 O   0  0  0  0  0  0  0  0  0  0  0  0
   -2.8200   23.6790  -27.9980 C   0  0  0  0  0  0  0  0  0  0  0  0
   -1.8200   24.3840  -28.7080 C   0  0  0  0  0  0  0  0  0  0  0  0
   -1.2250   25.5220  -28.1570 C   0  0  0  0  0  0  0  0  0  0  0  0
   -1.6080   25.9750  -26.8920 C   0  0  0  0  0  0  0  0  0  0  0  0
   -0.8730   27.4160  -26.2160 Cl  0  0  0  0  0  0  0  0  0  0  0  0
   -2.5850   25.2840  -26.1740 C   0  0  0  0  0  0  0  0  0  0  0  0
   -3.1860   24.1480  -26.7190 C   0  0  0  0  0  0  0  0  0  0  0  0
   -3.0710   22.1140  -29.9910 C   0  0  0  0  0  0  0  0  0  0  0  0
   -3.8790   22.2030  -31.1510 C   0  0  0  0  0  0  0  0  0  0  0  0
   -5.2990   22.5800  -31.2610 C   0  0  0  0  0  0  0  0  0  0  0  0
   -6.1630   21.6950  -31.9280 C   0  0  0  0  0  0  0  0  0  0  0  0
   -7.5250   21.9750  -32.0310 C   0  0  0  0  0  0  0  0  0  0  0  0
   -8.0390   23.1490  -31.4840 C   0  0  0  0  0  0  0  0  0  0  0  0
   -7.1890   24.0580  -30.8510 C   0  0  0  0  0  0  0  0  0  0  0  0
   -5.8070   23.8030  -30.7500 C   0  0  0  0  0  0  0  0  0  0  0  0
   -4.9500   24.7940  -30.1480 N   0  0  0  0  0  0  0  0  0  0  0  0
   -5.2500   25.2950  -29.0440 O   0  0  0  0  0  0  0  0  0  0  0  0
   -3.8600   25.2930  -30.8210 O   0  0  0  0  0  0  0  0  0  0  0  0
   -2.9760   21.7830  -32.5070 S   0  0  0  0  0  0  0  0  0  0  0  0
   -1.5410   21.5370  -31.6870 C   0  0  0  0  0  0  0  0  0  0  0  0
   -0.3110   21.1730  -32.3140 N   0  0  0  0  0  0  0  0  0  0  0  0
   -1.7320   21.7710  -30.3300 C   0  0  0  0  0  0  0  0  0  0  0  0
   -0.6370   21.7040  -29.3910 C   0  0  0  0  0  0  0  0  0  0  0  0
    0.2410   21.6530  -28.6380 N   0  0  0  0  0  0  0  0  0  0  0  0
   -3.3266   21.4246  -26.6272 H   0  0  0  0  0  0  0  0  0  0  0  0
   -4.0500   20.4127  -27.9232 H   0  0  0  0  0  0  0  0  0  0  0  0
   -2.2848   20.7451  -27.9232 H   0  0  0  0  0  0  0  0  0  0  0  0
   -5.0560   23.5440  -28.0690 H   0  0  0  0  0  0  0  0  0  0  0  0
   -1.5080   24.0332  -29.7028 H   0  0  0  0  0  0  0  0  0  0  0  0
   -0.4517   26.0635  -28.7216 H   0  0  0  0  0  0  0  0  0  0  0  0
   -2.8826   25.6357  -25.1751 H   0  0  0  0  0  0  0  0  0  0  0  0
   -3.9549   23.6116  -26.1436 H   0  0  0  0  0  0  0  0  0  0  0  0
   -5.7611   20.7728  -32.3730 H   0  0  0  0  0  0  0  0  0  0  0  0
   -8.1941   21.2688  -32.5443 H   0  0  0  0  0  0  0  0  0  0  0  0
   -9.1165   23.3600  -31.5510 H   0  0  0  0  0  0  0  0  0  0  0  0
   -7.6032   24.9842  -30.4261 H   0  0  0  0  0  0  0  0  0  0  0  0
    0.3870   20.5700  -31.8230 H   0  0  0  0  0  0  0  0  0  0  0  0
   -0.0980   21.5030  -33.2800 H   0  0  0  0  0  0  0  0  0  0  0  0
  1  2  1  0
  2  3  1  6
  2  4  1  0
  4  5  2  0
  5  6  1  0
  6  7  2  0
  7  8  1  0
  7  9  1  0
  9 10  2  0
  2 11  1  0
 11 12  2  0
 12 13  1  0
 13 14  2  0
 14 15  1  0
 15 16  2  0
 16 17  1  0
 17 18  2  0
 18 19  1  0
 19 20  2  0
 19 21  1  0
 12 22  1  0
 22 23  1  0
 23 24  1  0
 23 25  2  0
 25 26  1  0
 26 27  3  0
 10  4  1  0
 25 11  1  0
 18 13  1  0
  1 28  1  0
  1 29  1  0
  1 30  1  0
  3 31  1  0
  5 32  1  0
  6 33  1  0
  9 34  1  0
 10 35  1  0
 14 36  1  0
 15 37  1  0
 16 38  1  0
 17 39  1  0
 24 40  1  0
 24 41  1  0
M  CHG  2  19   1  21  -1
M  END
>  <UniqueID>  (24) 
19

>  <SMILES>  (24) 
C[C@@](O)(c1ccc(Cl)cc1)c1c(-c2ccccc2[N+](=O)[O-])sc(N)c1C#N

>  <Energy>  (24) 
85.99142427660742

>  <Genealogy>  (24) 
C[C@@](O)(c1ccc(Cl)cc1)c1c(-c2ccccc2[N+](=O)[O-])sc(N)c1C#N (chirality)
C[C@@](O)(c1ccc(Cl)cc1)c1c(-c2ccccc2[N+](=O)[O-])sc(N)c1C#N (3D coordinates assigned)
C[C@@](O)(c1ccc(Cl)cc1)c1c(-c2ccccc2[N+](=O)[O-])sc(N)c1C#N (optimized conformer: 85.99142427660742 kcal/mol)

>  <smiles>  (24) 
CC(O)(c1ccc(Cl)cc1)c1c(-c2ccccc2[N+](=O)[O-])sc(N)c1C#N

>  <score_type>  (24) 
oracle

>  <origin>  (24) 
adg

>  <m_score__min__energy>  (24) 
-8.3900000000000006

>  <m_primary>  (24) 
energy

$$$$
24:0
     RDKit          3D

 38 40  0  0  0  0  0  0  0  0999 V2000
   -1.3877   21.0938  -31.4216 H   0  0  0  0  0  0  0  0  0  0  0  0
   -0.9400   21.3460  -30.4490 C   0  0  0  0  0  0  0  0  0  0  0  0
   -0.8020   22.6850  -30.0690 C   0  0  0  0  0  0  0  0  0  0  0  0
   -1.1256   23.4838  -30.7525 H   0  0  0  0  0  0  0  0  0  0  0  0
   -0.2540   23.0140  -28.8230 C   0  0  0  0  0  0  0  0  0  0  0  0
   -0.1090   24.3930  -28.4670 N   0  0  0  0  0  0  0  0  0  0  0  0
   -1.1740   25.3300  -28.2570 C   0  0  0  0  0  0  0  0  0  0  0  0
   -1.2340   26.3530  -28.9890 O   0  0  0  0  0  0  0  0  0  0  0  0
   -2.2690   25.0900  -27.2520 C   0  0  0  0  0  0  0  0  0  0  0  0
   -1.8523   25.1861  -26.2385 H   0  0  0  0  0  0  0  0  0  0  0  0
   -3.0623   25.8334  -27.4193 H   0  0  0  0  0  0  0  0  0  0  0  0
   -2.9920   23.4240  -27.4420 S   0  0  0  0  0  0  0  0  0  0  0  0
   -3.7060   23.7570  -29.0490 C   0  0  0  0  0  0  0  0  0  0  0  0
   -3.6360   24.9590  -29.6640 N   0  0  0  0  0  0  0  0  0  0  0  0
   -4.2360   24.9730  -30.8520 N   0  0  0  0  0  0  0  0  0  0  0  0
   -4.7800   23.7790  -31.1780 C   0  0  0  0  0  0  0  0  0  0  0  0
   -5.4220   23.5480  -32.2830 N   0  0  0  0  0  0  0  0  0  0  0  0
   -6.7760   22.9940  -32.3450 C   0  0  0  0  0  0  0  0  0  0  0  0
   -7.2775   23.5188  -33.1715 H   0  0  0  0  0  0  0  0  0  0  0  0
   -7.5300   23.1870  -31.0300 C   0  0  0  0  0  0  0  0  0  0  0  0
   -6.8203   23.2891  -30.1958 H   0  0  0  0  0  0  0  0  0  0  0  0
   -8.1458   24.0982  -31.0531 H   0  0  0  0  0  0  0  0  0  0  0  0
   -8.3920   21.9400  -30.8410 C   0  0  0  0  0  0  0  0  0  0  0  0
   -8.1886   21.4851  -29.8603 H   0  0  0  0  0  0  0  0  0  0  0  0
   -9.4619   22.1924  -30.8803 H   0  0  0  0  0  0  0  0  0  0  0  0
   -8.0200   20.9680  -31.9570 C   0  0  0  0  0  0  0  0  0  0  0  0
   -7.8706   19.9574  -31.5492 H   0  0  0  0  0  0  0  0  0  0  0  0
   -8.8156   20.9009  -32.7137 H   0  0  0  0  0  0  0  0  0  0  0  0
   -6.7270   21.4910  -32.5560 C   0  0  0  0  0  0  0  0  0  0  0  0
   -5.8582   21.0562  -32.0400 H   0  0  0  0  0  0  0  0  0  0  0  0
   -6.6271   21.2260  -33.6189 H   0  0  0  0  0  0  0  0  0  0  0  0
   -4.5350   22.6240  -29.9810 S   0  0  0  0  0  0  0  0  0  0  0  0
    0.2090   21.9880  -27.9810 C   0  0  0  0  0  0  0  0  0  0  0  0
    0.6812   22.2387  -27.0197 H   0  0  0  0  0  0  0  0  0  0  0  0
    0.0710   20.6490  -28.3620 C   0  0  0  0  0  0  0  0  0  0  0  0
    0.5130   19.6640  -27.5410 F   0  0  0  0  0  0  0  0  0  0  0  0
   -0.5090   20.3280  -29.5930 C   0  0  0  0  0  0  0  0  0  0  0  0
   -0.6400   19.0310  -29.9650 F   0  0  0  0  0  0  0  0  0  0  0  0
  1  2  1  0
  2  3  2  0
  3  4  1  0
  3  5  1  0
  5  6  1  0
  6  7  1  0
  7  8  2  0
  7  9  1  0
  9 10  1  0
  9 11  1  0
  9 12  1  0
 12 13  1  0
 13 14  2  0
 14 15  1  0
 15 16  1  0
 16 17  2  0
 17 18  1  0
 18 19  1  0
 18 20  1  0
 20 21  1  0
 20 22  1  0
 20 23  1  0
 23 24  1  0
 23 25  1  0
 23 26  1  0
 26 27  1  0
 26 28  1  0
 26 29  1  0
 29 30  1  0
 29 31  1  0
 16 32  1  0
  5 33  2  0
 33 34  1  0
 33 35  1  0
 35 36  1  0
 35 37  2  0
 37 38  1  0
 37  2  1  0
 32 13  1  0
 29 18  1  0
M  CHG  2   6  -1  15  -1
M  END
>  <UniqueID>  (25) 
20

>  <SMILES>  (25) 
O=C(CSc1n[n-]/c(=N\C2CCCC2)s1)[N-]c1ccc(F)c(F)c1

>  <Energy>  (25) 
74.13038224548251

>  <Genealogy>  (25) 
O=C(CSc1n[n-]c(=NC2CCCC2)s1)[N-]c1ccc(F)c(F)c1 (protonated)
O=C(CSc1n[n-]/c(=N\C2CCCC2)s1)[N-]c1ccc(F)c(F)c1 (cis-trans isomerization)
O=C(CSc1n[n-]/c(=N\C2CCCC2)s1)[N-]c1ccc(F)c(F)c1 (3D coordinates assigned)
O=C(CSc1n[n-]/c(=N\C2CCCC2)s1)[N-]c1ccc(F)c(F)c1 (nonaromatic ring conformer: 74.13038224548251 kcal/mol)

>  <smiles>  (25) 
O=C(CSc1n[nH]c(=NC2CCCC2)s1)Nc1ccc(F)c(F)c1

>  <score_type>  (25) 
oracle

>  <origin>  (25) 
adg

>  <m_score__min__energy>  (25) 
-10.33

>  <m_primary>  (25) 
energy

$$$$
25:0
     RDKit          3D

 63 67  0  0  0  0  0  0  0  0999 V2000
   -0.1020   23.0720  -24.5890 C   0  0  0  0  0  0  0  0  0  0  0  0
   -0.2610   24.0790  -25.6960 C   0  0  0  0  0  0  0  0  0  0  0  0
   -1.0870   25.1970  -25.4990 C   0  0  0  0  0  0  0  0  0  0  0  0
   -1.2370   26.1480  -26.5090 C   0  0  0  0  0  0  0  0  0  0  0  0
   -0.5550   25.9790  -27.7120 C   0  0  0  0  0  0  0  0  0  0  0  0
    0.2530   24.9020  -27.8900 N   0  0  0  0  0  0  0  0  0  0  0  0
    0.4270   23.9550  -26.9270 C   0  0  0  0  0  0  0  0  0  0  0  0
    1.3590   22.8050  -27.2130 C   0  0  0  0  0  0  0  0  0  0  0  0
    0.6320   21.6590  -27.6580 O   0  0  0  0  0  0  0  0  0  0  0  0
   -0.3950   21.6690  -28.6150 C   0  0  0  0  0  0  0  0  0  0  0  0
   -0.1570   21.4120  -29.9940 C   0  0  0  0  0  0  0  0  0  0  0  0
   -1.2180   21.4170  -30.9190 C   0  0  0  0  0  0  0  0  0  0  0  0
   -2.5030   21.6870  -30.4390 C   0  0  0  0  0  0  0  0  0  0  0  0
   -2.7290   21.9390  -29.1200 C   0  0  0  0  0  0  0  0  0  0  0  0
   -1.7050   21.9460  -28.1770 C   0  0  0  0  0  0  0  0  0  0  0  0
   -4.0350   22.1630  -28.9230 N   0  0  0  0  0  0  0  0  0  0  0  0
   -4.6020   22.0340  -30.1510 C   0  0  0  0  0  0  0  0  0  0  0  0
   -6.0880   22.3060  -30.3590 C   0  0  2  0  0  0  0  0  0  0  0  0
   -6.7880   21.2230  -31.2040 C   0  0  0  0  0  0  0  0  0  0  0  0
   -8.2790   21.5420  -31.3510 C   0  0  0  0  0  0  0  0  0  0  0  0
   -8.5350   22.9170  -32.0110 C   0  0  0  0  0  0  0  0  0  0  0  0
   -7.2840   23.8140  -32.0960 C   0  0  0  0  0  0  0  0  0  0  0  0
   -6.4600   23.7700  -30.7920 C   0  0  2  0  0  0  0  0  0  0  0  0
   -5.2840   24.7180  -30.8480 C   0  0  0  0  0  0  0  0  0  0  0  0
   -5.4390   25.9220  -30.5180 O   0  0  0  0  0  0  0  0  0  0  0  0
   -4.0210   24.2710  -31.2180 O   0  0  0  0  0  0  0  0  0  0  0  0
   -3.6730   21.7370  -31.1150 N   0  0  0  0  0  0  0  0  0  0  0  0
   -3.8460   21.5280  -32.5580 C   0  0  0  0  0  0  0  0  0  0  0  0
   -4.4570   20.1820  -32.8840 C   0  0  0  0  0  0  0  0  0  0  0  0
   -3.9350   18.9780  -32.3750 C   0  0  0  0  0  0  0  0  0  0  0  0
   -4.5070   17.7520  -32.7280 C   0  0  0  0  0  0  0  0  0  0  0  0
   -5.5980   17.7120  -33.6000 C   0  0  0  0  0  0  0  0  0  0  0  0
   -6.3810   16.0360  -34.0740 Br  0  0  0  0  0  0  0  0  0  0  0  0
   -6.1120   18.8990  -34.1280 C   0  0  0  0  0  0  0  0  0  0  0  0
   -5.5370   20.1250  -33.7830 C   0  0  0  0  0  0  0  0  0  0  0  0
   -0.1822   23.5802  -23.6167 H   0  0  0  0  0  0  0  0  0  0  0  0
   -0.8909   22.3098  -24.6706 H   0  0  0  0  0  0  0  0  0  0  0  0
    0.8834   22.5900  -24.6706 H   0  0  0  0  0  0  0  0  0  0  0  0
   -1.6183   25.3238  -24.5442 H   0  0  0  0  0  0  0  0  0  0  0  0
   -1.8871   27.0222  -26.3569 H   0  0  0  0  0  0  0  0  0  0  0  0
   -0.6710   26.7183  -28.5182 H   0  0  0  0  0  0  0  0  0  0  0  0
    2.0722   23.1051  -27.9949 H   0  0  0  0  0  0  0  0  0  0  0  0
    1.8919   22.5454  -26.2864 H   0  0  0  0  0  0  0  0  0  0  0  0
    0.8666   21.2073  -30.3408 H   0  0  0  0  0  0  0  0  0  0  0  0
   -1.0417   21.2149  -31.9858 H   0  0  0  0  0  0  0  0  0  0  0  0
   -1.9131   22.1619  -27.1187 H   0  0  0  0  0  0  0  0  0  0  0  0
   -4.5060   22.4030  -28.0220 H   0  0  0  0  0  0  0  0  0  0  0  0
   -6.5067   22.2309  -29.3446 H   0  0  0  0  0  0  0  0  0  0  0  0
   -6.3252   21.1858  -32.2012 H   0  0  0  0  0  0  0  0  0  0  0  0
   -6.6788   20.2512  -30.7004 H   0  0  0  0  0  0  0  0  0  0  0  0
   -8.7459   20.7622  -31.9707 H   0  0  0  0  0  0  0  0  0  0  0  0
   -8.7123   21.5737  -30.3404 H   0  0  0  0  0  0  0  0  0  0  0  0
   -8.9086   22.7467  -33.0315 H   0  0  0  0  0  0  0  0  0  0  0  0
   -9.2624   23.4443  -31.3763 H   0  0  0  0  0  0  0  0  0  0  0  0
   -6.6532   23.4680  -32.9281 H   0  0  0  0  0  0  0  0  0  0  0  0
   -7.6157   24.8504  -32.2571 H   0  0  0  0  0  0  0  0  0  0  0  0
   -7.1036   24.1395  -29.9801 H   0  0  0  0  0  0  0  0  0  0  0  0
   -4.5031   22.3174  -32.9517 H   0  0  0  0  0  0  0  0  0  0  0  0
   -2.8485   21.5610  -33.0205 H   0  0  0  0  0  0  0  0  0  0  0  0
   -3.0709   19.0018  -31.6947 H   0  0  0  0  0  0  0  0  0  0  0  0
   -4.0972   16.8170  -32.3184 H   0  0  0  0  0  0  0  0  0  0  0  0
   -6.9699   18.8685  -34.8158 H   0  0  0  0  0  0  0  0  0  0  0  0
   -5.9328   21.0542  -34.2187 H   0  0  0  0  0  0  0  0  0  0  0  0
  1  2  1  0
  2  3  2  0
  3  4  1  0
  4  5  2  0
  5  6  1  0
  6  7  2  0
  7  8  1  0
  8  9  1  0
  9 10  1  0
 10 11  2  0
 11 12  1  0
 12 13  2  0
 13 14  1  0
 14 15  2  0
 14 16  1  0
 16 17  2  0
 17 18  1  0
 18 19  1  0
 19 20  1  0
 20 21  1  0
 21 22  1  0
 22 23  1  0
 23 24  1  0
 24 25  2  0
 24 26  1  0
 17 27  1  0
 27 28  1  0
 28 29  1  0
 29 30  2  0
 30 31  1  0
 31 32  2  0
 32 33  1  0
 32 34  1  0
 34 35  2  0
  7  2  1  0
 15 10  1  0
 23 18  1  0
 35 29  1  0
 27 13  1  0
  1 36  1  0
  1 37  1  0
  1 38  1  0
  3 39  1  0
  4 40  1  0
  5 41  1  0
  8 42  1  0
  8 43  1  0
 11 44  1  0
 12 45  1  0
 15 46  1  0
 16 47  1  0
 18 48  1  1
 19 49  1  0
 19 50  1  0
 20 51  1  0
 20 52  1  0
 21 53  1  0
 21 54  1  0
 22 55  1  0
 22 56  1  0
 23 57  1  1
 28 58  1  0
 28 59  1  0
 30 60  1  0
 31 61  1  0
 34 62  1  0
 35 63  1  0
M  CHG  2  16   1  26  -1
M  END
>  <UniqueID>  (26) 
21

>  <SMILES>  (26) 
Cc1cccnc1COc1ccc2c(c1)[nH+]c([C@@H]1CCCC[C@@H]1C(=O)[O-])n2Cc1ccc(Br)cc1

>  <Energy>  (26) 
116.96839949145344

>  <Genealogy>  (26) 
Cc1cccnc1COc1ccc2c(c1)[nH+]c(C1CCCCC1C(=O)[O-])n2Cc1ccc(Br)cc1 (protonated)
Cc1cccnc1COc1ccc2c(c1)[nH+]c([C@@H]1CCCC[C@@H]1C(=O)[O-])n2Cc1ccc(Br)cc1 (chirality)
Cc1cccnc1COc1ccc2c(c1)[nH+]c([C@@H]1CCCC[C@@H]1C(=O)[O-])n2Cc1ccc(Br)cc1 (3D coordinates assigned)
Cc1cccnc1COc1ccc2c(c1)[nH+]c([C@@H]1CCCC[C@@H]1C(=O)[O-])n2Cc1ccc(Br)cc1 (nonaromatic ring conformer: 116.96839949145344 kcal/mol)

>  <smiles>  (26) 
Cc1cccnc1COc1ccc2c(c1)nc(C1CCCCC1C(=O)O)n2Cc1ccc(Br)cc1

>  <score_type>  (26) 
oracle

>  <origin>  (26) 
adg

>  <m_score__min__energy>  (26) 
-11.65

>  <m_primary>  (26) 
energy

$$$$
26:0
     RDKit          3D

 35 36  0  0  0  0  0  0  0  0999 V2000
   -2.7200   25.3010  -26.1990 C   0  0  0  0  0  0  0  0  0  0  0  0
   -1.9400   24.8050  -27.1580 C   0  0  0  0  0  0  0  0  0  0  0  0
   -2.2590   24.9110  -28.5970 C   0  0  0  0  0  0  0  0  0  0  0  0
   -1.5300   25.6490  -29.3110 O   0  0  0  0  0  0  0  0  0  0  0  0
   -3.3980   24.2010  -29.2290 C   0  0  0  0  0  0  0  0  0  0  0  0
   -3.3510   22.8080  -29.3910 C   0  0  0  0  0  0  0  0  0  0  0  0
   -4.4070   22.1290  -30.0050 C   0  0  0  0  0  0  0  0  0  0  0  0
   -5.5280   22.8320  -30.4800 C   0  0  0  0  0  0  0  0  0  0  0  0
   -6.6510   22.1090  -31.1320 C   0  0  0  0  0  0  0  0  0  0  0  0
   -7.9800   22.5200  -30.9240 C   0  0  0  0  0  0  0  0  0  0  0  0
   -9.0330   21.8490  -31.5490 C   0  0  0  0  0  0  0  0  0  0  0  0
   -8.7750   20.7570  -32.3820 C   0  0  0  0  0  0  0  0  0  0  0  0
   -7.4610   20.3150  -32.5860 C   0  0  0  0  0  0  0  0  0  0  0  0
   -7.2210   19.2040  -33.4650 N   0  0  0  0  0  0  0  0  0  0  0  0
   -6.9040   17.8770  -33.0170 C   0  0  0  0  0  0  0  0  0  0  0  0
   -6.4830   16.8390  -34.0060 C   0  0  0  0  0  0  0  0  0  0  0  0
   -7.0560   17.5520  -31.8080 O   0  0  0  0  0  0  0  0  0  0  0  0
   -6.4010   21.0090  -31.9740 C   0  0  0  0  0  0  0  0  0  0  0  0
   -5.5660   24.2290  -30.3340 C   0  0  0  0  0  0  0  0  0  0  0  0
   -4.5090   24.9070  -29.7210 C   0  0  0  0  0  0  0  0  0  0  0  0
   -2.4308   25.1917  -25.1433 H   0  0  0  0  0  0  0  0  0  0  0  0
   -3.6534   25.8199  -26.4627 H   0  0  0  0  0  0  0  0  0  0  0  0
   -1.0128   24.2912  -26.8644 H   0  0  0  0  0  0  0  0  0  0  0  0
   -2.4762   22.2460  -29.0319 H   0  0  0  0  0  0  0  0  0  0  0  0
   -4.3607   21.0357  -30.1175 H   0  0  0  0  0  0  0  0  0  0  0  0
   -8.1911   23.3751  -30.2650 H   0  0  0  0  0  0  0  0  0  0  0  0
  -10.0688   22.1810  -31.3852 H   0  0  0  0  0  0  0  0  0  0  0  0
   -9.6087   20.2411  -32.8807 H   0  0  0  0  0  0  0  0  0  0  0  0
   -7.3690   19.3470  -34.4900 H   0  0  0  0  0  0  0  0  0  0  0  0
   -6.1217   15.9482  -33.4713 H   0  0  0  0  0  0  0  0  0  0  0  0
   -7.3410   16.5648  -34.6374 H   0  0  0  0  0  0  0  0  0  0  0  0
   -5.6764   17.2399  -34.6374 H   0  0  0  0  0  0  0  0  0  0  0  0
   -5.3646   20.6882  -32.1557 H   0  0  0  0  0  0  0  0  0  0  0  0
   -6.4343   24.7932  -30.7050 H   0  0  0  0  0  0  0  0  0  0  0  0
   -4.5469   26.0020  -29.6228 H   0  0  0  0  0  0  0  0  0  0  0  0
  1  2  2  0
  2  3  1  0
  3  4  2  0
  3  5  1  0
  5  6  2  0
  6  7  1  0
  7  8  2  0
  8  9  1  0
  9 10  2  0
 10 11  1  0
 11 12  2  0
 12 13  1  0
 13 14  1  0
 14 15  1  0
 15 16  1  0
 15 17  2  0
 13 18  2  0
  8 19  1  0
 19 20  2  0
 20  5  1  0
 18  9  1  0
  1 21  1  0
  1 22  1  0
  2 23  1  0
  6 24  1  0
  7 25  1  0
 10 26  1  0
 11 27  1  0
 12 28  1  0
 14 29  1  0
 16 30  1  0
 16 31  1  0
 16 32  1  0
 18 33  1  0
 19 34  1  0
 20 35  1  0
M  END
>  <UniqueID>  (27) 
22

>  <SMILES>  (27) 
C=CC(=O)c1ccc(-c2cccc(NC(C)=O)c2)cc1

>  <Energy>  (27) 
45.96229445006426

>  <Genealogy>  (27) 
C=CC(=O)c1ccc(-c2cccc(NC(C)=O)c2)cc1 (3D coordinates assigned)
C=CC(=O)c1ccc(-c2cccc(NC(C)=O)c2)cc1 (optimized conformer: 45.96229445006426 kcal/mol)

>  <smiles>  (27) 
C=CC(=O)c1ccc(-c2cccc(NC(C)=O)c2)cc1

>  <score_type>  (27) 
oracle

>  <origin>  (27) 
adg

>  <m_score__min__energy>  (27) 
-8.1300000000000008

>  <m_primary>  (27) 
energy

$$$$
27:0
     RDKit          3D

 29 29  0  0  0  0  0  0  0  0999 V2000
   -6.5050   24.8070  -30.4370 C   0  0  0  0  0  0  0  0  0  0  0  0
   -5.5650   23.9610  -31.2910 C   0  0  0  0  0  0  0  0  0  0  0  0
   -6.2880   23.3500  -32.4080 N   0  0  0  0  0  0  0  0  0  0  0  0
   -7.1190   22.1760  -32.3070 C   0  0  0  0  0  0  0  0  0  0  0  0
   -8.4250   22.3090  -31.8080 C   0  0  0  0  0  0  0  0  0  0  0  0
   -9.2620   21.1960  -31.7030 C   0  0  0  0  0  0  0  0  0  0  0  0
   -8.8060   19.9370  -32.0960 C   0  0  0  0  0  0  0  0  0  0  0  0
   -7.5060   19.7800  -32.5980 C   0  0  0  0  0  0  0  0  0  0  0  0
   -7.0200   18.4240  -33.0490 C   0  0  0  0  0  0  0  0  0  0  0  0
   -6.4870   18.4590  -34.4220 N   0  0  0  0  0  0  0  0  0  0  0  0
   -5.0210   18.4760  -34.4440 C   0  0  0  0  0  0  0  0  0  0  0  0
   -6.6680   20.9030  -32.7080 C   0  0  0  0  0  0  0  0  0  0  0  0
   -6.2995   24.6220  -29.3723 H   0  0  0  0  0  0  0  0  0  0  0  0
   -6.3457   25.8720  -30.6615 H   0  0  0  0  0  0  0  0  0  0  0  0
   -7.5474   24.5368  -30.6615 H   0  0  0  0  0  0  0  0  0  0  0  0
   -4.7630   24.6011  -31.6872 H   0  0  0  0  0  0  0  0  0  0  0  0
   -5.1419   23.1618  -30.6647 H   0  0  0  0  0  0  0  0  0  0  0  0
   -6.1780   23.8010  -33.3440 H   0  0  0  0  0  0  0  0  0  0  0  0
   -8.7918   23.2984  -31.4972 H   0  0  0  0  0  0  0  0  0  0  0  0
  -10.2827   21.3120  -31.3097 H   0  0  0  0  0  0  0  0  0  0  0  0
   -9.4694   19.0636  -32.0116 H   0  0  0  0  0  0  0  0  0  0  0  0
   -6.2251   18.0867  -32.3676 H   0  0  0  0  0  0  0  0  0  0  0  0
   -7.8759   17.7332  -33.0336 H   0  0  0  0  0  0  0  0  0  0  0  0
   -6.8350   17.6360  -34.9680 H   0  0  0  0  0  0  0  0  0  0  0  0
   -6.8330   19.3290  -34.8890 H   0  0  0  0  0  0  0  0  0  0  0  0
   -4.6388   18.4804  -33.4125 H   0  0  0  0  0  0  0  0  0  0  0  0
   -4.6518   17.5821  -34.9680 H   0  0  0  0  0  0  0  0  0  0  0  0
   -4.6726   19.3782  -34.9680 H   0  0  0  0  0  0  0  0  0  0  0  0
   -5.6510   20.7869  -33.1108 H   0  0  0  0  0  0  0  0  0  0  0  0
  1  2  1  0
  2  3  1  0
  3  4  1  0
  4  5  2  0
  5  6  1  0
  6  7  2  0
  7  8  1  0
  8  9  1  0
  9 10  1  0
 10 11  1  0
  8 12  2  0
 12  4  1  0
  1 13  1  0
  1 14  1  0
  1 15  1  0
  2 16  1  0
  2 17  1  0
  3 18  1  0
  5 19  1  0
  6 20  1  0
  7 21  1  0
  9 22  1  0
  9 23  1  0
 10 24  1  0
 10 25  1  0
 11 26  1  0
 11 27  1  0
 11 28  1  0
 12 29  1  0
M  CHG  1  10   1
M  END
>  <UniqueID>  (28) 
23

>  <SMILES>  (28) 
CCNc1cccc(C[NH2+]C)c1

>  <Energy>  (28) 
22.487861596789195

>  <Genealogy>  (28) 
CCNc1cccc(C[NH2+]C)c1 (protonated)
CCNc1cccc(C[NH2+]C)c1 (3D coordinates assigned)
CCNc1cccc(C[NH2+]C)c1 (optimized conformer: 22.487861596789195 kcal/mol)

>  <smiles>  (28) 
CCNc1cccc(CNC)c1

>  <score_type>  (28) 
oracle

>  <origin>  (28) 
adg

>  <m_score__min__energy>  (28) 
-4.9100000000000001

>  <m_primary>  (28) 
energy

$$$$
28:0
     RDKit          3D

 31 33  0  0  0  0  0  0  0  0999 V2000
   -5.1240   17.4040  -34.4910 C   0  0  0  0  0  0  0  0  0  0  0  0
   -4.5140   18.6770  -33.9900 C   0  0  0  0  0  0  0  0  0  0  0  0
   -3.2340   19.0270  -34.2010 N   0  0  0  0  0  0  0  0  0  0  0  0
   -3.0150   20.1800  -33.5910 N   0  0  0  0  0  0  0  0  0  0  0  0
   -4.1820   20.5340  -33.0140 C   0  0  0  0  0  0  0  0  0  0  0  0
   -4.3510   21.7910  -32.2520 C   0  0  0  0  0  0  0  0  0  0  0  0
   -3.3260   22.2340  -31.4020 C   0  0  0  0  0  0  0  0  0  0  0  0
   -3.4830   23.4280  -30.6940 C   0  0  0  0  0  0  0  0  0  0  0  0
   -4.6170   24.1640  -30.8410 N   0  0  0  0  0  0  0  0  0  0  0  0
   -5.6180   23.7690  -31.6710 C   0  0  0  0  0  0  0  0  0  0  0  0
   -5.5020   22.5820  -32.3970 C   0  0  0  0  0  0  0  0  0  0  0  0
   -5.1490   19.6110  -33.2490 N   0  0  0  0  0  0  0  0  0  0  0  0
   -6.4770   19.5390  -32.7040 C   0  0  0  0  0  0  0  0  0  0  0  0
   -7.4660   20.4430  -33.1250 C   0  0  0  0  0  0  0  0  0  0  0  0
   -8.7600   20.3670  -32.5980 C   0  0  0  0  0  0  0  0  0  0  0  0
   -9.0720   19.3920  -31.6460 C   0  0  0  0  0  0  0  0  0  0  0  0
   -8.0930   18.4910  -31.2220 C   0  0  0  0  0  0  0  0  0  0  0  0
   -6.7990   18.5630  -31.7480 C   0  0  0  0  0  0  0  0  0  0  0  0
   -5.4232   16.7796  -33.6363 H   0  0  0  0  0  0  0  0  0  0  0  0
   -6.0083   17.6369  -35.1023 H   0  0  0  0  0  0  0  0  0  0  0  0
   -4.3884   16.8607  -35.1023 H   0  0  0  0  0  0  0  0  0  0  0  0
   -2.5130   18.4910  -34.7360 H   0  0  0  0  0  0  0  0  0  0  0  0
   -2.4038   21.6442  -31.2938 H   0  0  0  0  0  0  0  0  0  0  0  0
   -2.6881   23.7733  -30.0166 H   0  0  0  0  0  0  0  0  0  0  0  0
   -6.5227   24.3866  -31.7712 H   0  0  0  0  0  0  0  0  0  0  0  0
   -6.3070   22.2686  -33.0780 H   0  0  0  0  0  0  0  0  0  0  0  0
   -7.2225   21.2133  -33.8715 H   0  0  0  0  0  0  0  0  0  0  0  0
   -9.5323   21.0750  -32.9331 H   0  0  0  0  0  0  0  0  0  0  0  0
  -10.0890   19.3345  -31.2308 H   0  0  0  0  0  0  0  0  0  0  0  0
   -8.3398   17.7237  -30.4734 H   0  0  0  0  0  0  0  0  0  0  0  0
   -6.0305   17.8518  -31.4111 H   0  0  0  0  0  0  0  0  0  0  0  0
  1  2  1  0
  2  3  2  0
  3  4  1  0
  4  5  2  0
  5  6  1  0
  6  7  2  0
  7  8  1  0
  8  9  2  0
  9 10  1  0
 10 11  2  0
  5 12  1  0
 12 13  1  0
 13 14  2  0
 14 15  1  0
 15 16  2  0
 16 17  1  0
 17 18  2  0
 12  2  1  0
 18 13  1  0
 11  6  1  0
  1 19  1  0
  1 20  1  0
  1 21  1  0
  3 22  1  0
  7 23  1  0
  8 24  1  0
 10 25  1  0
 11 26  1  0
 14 27  1  0
 15 28  1  0
 16 29  1  0
 17 30  1  0
 18 31  1  0
M  CHG  1   3   1
M  END
>  <UniqueID>  (29) 
24

>  <SMILES>  (29) 
Cc1[nH+]nc(-c2ccncc2)n1-c1ccccc1

>  <Energy>  (29) 
78.09508708151212

>  <Genealogy>  (29) 
Cc1[nH+]nc(-c2ccncc2)n1-c1ccccc1 (protonated)
Cc1[nH+]nc(-c2ccncc2)n1-c1ccccc1 (3D coordinates assigned)
Cc1[nH+]nc(-c2ccncc2)n1-c1ccccc1 (optimized conformer: 78.09508708151212 kcal/mol)

>  <smiles>  (29) 
Cc1nnc(-c2ccncc2)n1-c1ccccc1

>  <score_type>  (29) 
oracle

>  <origin>  (29) 
adg

>  <m_score__min__energy>  (29) 
-6.7000000000000002

>  <m_primary>  (29) 
energy

$$$$
29:0
     RDKit          3D

 41 44  0  0  0  0  0  0  0  0999 V2000
   -1.7500   16.3170  -35.1050 C   0  0  0  0  0  0  0  0  0  0  0  0
   -3.0880   16.8180  -34.8230 N   0  0  0  0  0  0  0  0  0  0  0  0
   -4.2470   16.1480  -34.9610 C   0  0  0  0  0  0  0  0  0  0  0  0
   -5.3070   16.8580  -34.5260 N   0  0  0  0  0  0  0  0  0  0  0  0
   -4.7770   18.0220  -34.0850 C   0  0  0  0  0  0  0  0  0  0  0  0
   -5.5830   19.1220  -33.4970 C   0  0  0  0  0  0  0  0  0  0  0  0
   -4.9630   20.3380  -33.1750 C   0  0  0  0  0  0  0  0  0  0  0  0
   -5.7040   21.3840  -32.6160 C   0  0  0  0  0  0  0  0  0  0  0  0
   -5.0350   22.6060  -32.2630 N   0  0  0  0  0  0  0  0  0  0  0  0
   -5.7410   23.8860  -32.3280 C   0  0  0  0  0  0  0  0  0  0  0  0
   -5.6930   24.5460  -30.9460 C   0  0  0  0  0  0  0  0  0  0  0  0
   -4.3570   24.6390  -30.4800 O   0  0  0  0  0  0  0  0  0  0  0  0
   -3.8190   23.3420  -30.2840 C   0  0  0  0  0  0  0  0  0  0  0  0
   -3.7260   22.5840  -31.6120 C   0  0  0  0  0  0  0  0  0  0  0  0
   -7.0840   21.2090  -32.3890 C   0  0  0  0  0  0  0  0  0  0  0  0
   -7.8890   22.2380  -31.8630 C   0  0  0  0  0  0  0  0  0  0  0  0
   -9.2530   22.0270  -31.6490 C   0  0  0  0  0  0  0  0  0  0  0  0
   -9.8310   20.7960  -31.9620 C   0  0  0  0  0  0  0  0  0  0  0  0
   -9.0500   19.7700  -32.4970 C   0  0  0  0  0  0  0  0  0  0  0  0
   -7.6770   19.9660  -32.7200 C   0  0  0  0  0  0  0  0  0  0  0  0
   -6.9190   18.9660  -33.2570 N   0  0  0  0  0  0  0  0  0  0  0  0
   -3.4050   17.9940  -34.2580 C   0  0  0  0  0  0  0  0  0  0  0  0
   -1.2250   16.1204  -34.1585 H   0  0  0  0  0  0  0  0  0  0  0  0
   -1.8221   15.3850  -35.6847 H   0  0  0  0  0  0  0  0  0  0  0  0
   -1.1922   17.0672  -35.6847 H   0  0  0  0  0  0  0  0  0  0  0  0
   -4.3210   15.1343  -35.3817 H   0  0  0  0  0  0  0  0  0  0  0  0
   -3.8873   20.4698  -33.3633 H   0  0  0  0  0  0  0  0  0  0  0  0
   -5.2546   24.5396  -33.0671 H   0  0  0  0  0  0  0  0  0  0  0  0
   -6.7865   23.7218  -32.6281 H   0  0  0  0  0  0  0  0  0  0  0  0
   -6.1229   25.5563  -31.0134 H   0  0  0  0  0  0  0  0  0  0  0  0
   -6.2711   23.9310  -30.2406 H   0  0  0  0  0  0  0  0  0  0  0  0
   -2.8128   23.4312  -29.8487 H   0  0  0  0  0  0  0  0  0  0  0  0
   -4.4821   22.7845  -29.6061 H   0  0  0  0  0  0  0  0  0  0  0  0
   -2.9822   23.0680  -32.2620 H   0  0  0  0  0  0  0  0  0  0  0  0
   -3.4196   21.5439  -31.4266 H   0  0  0  0  0  0  0  0  0  0  0  0
   -7.4412   23.2128  -31.6195 H   0  0  0  0  0  0  0  0  0  0  0  0
   -9.8737   22.8339  -31.2323 H   0  0  0  0  0  0  0  0  0  0  0  0
  -10.9047   20.6337  -31.7867 H   0  0  0  0  0  0  0  0  0  0  0  0
   -9.5121   18.8031  -32.7452 H   0  0  0  0  0  0  0  0  0  0  0  0
   -7.3830   18.0600  -33.4870 H   0  0  0  0  0  0  0  0  0  0  0  0
   -2.7000   18.7921  -33.9822 H   0  0  0  0  0  0  0  0  0  0  0  0
  1  2  1  0
  2  3  1  0
  3  4  2  0
  4  5  1  0
  5  6  1  0
  6  7  2  0
  7  8  1  0
  8  9  1  0
  9 10  1  0
 10 11  1  0
 11 12  1  0
 12 13  1  0
 13 14  1  0
  8 15  2  0
 15 16  1  0
 16 17  2  0
 17 18  1  0
 18 19  2  0
 19 20  1  0
 20 21  2  0
  5 22  2  0
 22  2  1  0
 21  6  1  0
 14  9  1  0
 20 15  1  0
  1 23  1  0
  1 24  1  0
  1 25  1  0
  3 26  1  0
  7 27  1  0
 10 28  1  0
 10 29  1  0
 11 30  1  0
 11 31  1  0
 13 32  1  0
 13 33  1  0
 14 34  1  0
 14 35  1  0
 16 36  1  0
 17 37  1  0
 18 38  1  0
 19 39  1  0
 21 40  1  0
 22 41  1  0
M  CHG  1  21   1
M  END
>  <UniqueID>  (30) 
25

>  <SMILES>  (30) 
Cn1cnc(-c2cc(N3CCOCC3)c3ccccc3[nH+]2)c1

>  <Energy>  (30) 
85.26567892620217

>  <Genealogy>  (30) 
Cn1cnc(-c2cc(N3CCOCC3)c3ccccc3[nH+]2)c1 (protonated)
Cn1cnc(-c2cc(N3CCOCC3)c3ccccc3[nH+]2)c1 (3D coordinates assigned)
Cn1cnc(-c2cc(N3CCOCC3)c3ccccc3[nH+]2)c1 (nonaromatic ring conformer: 85.26567892620217 kcal/mol)

>  <smiles>  (30) 
Cn1cnc(-c2cc(N3CCOCC3)c3ccccc3n2)c1

>  <score_type>  (30) 
oracle

>  <origin>  (30) 
adg

>  <m_score__min__energy>  (30) 
-7.2999999999999998

>  <m_primary>  (30) 
energy

$$$$
30:0
     RDKit          3D

 24 25  0  0  0  0  0  0  0  0999 V2000
   -9.2688   20.0863  -32.6745 H   0  0  0  0  0  0  0  0  0  0  0  0
   -8.4730   20.7600  -32.3240 C   0  0  0  0  0  0  0  0  0  0  0  0
   -8.7890   21.8550  -31.5160 C   0  0  0  0  0  0  0  0  0  0  0  0
   -9.8348   22.0427  -31.2314 H   0  0  0  0  0  0  0  0  0  0  0  0
   -7.7800   22.7130  -31.0680 C   0  0  0  0  0  0  0  0  0  0  0  0
   -8.0361   23.5727  -30.4314 H   0  0  0  0  0  0  0  0  0  0  0  0
   -6.4380   22.4830  -31.4270 C   0  0  0  0  0  0  0  0  0  0  0  0
   -5.3600   23.3840  -30.9590 C   0  0  0  0  0  0  0  0  0  0  0  0
   -5.2320   24.6700  -31.3630 N   0  0  0  0  0  0  0  0  0  0  0  0
   -4.1940   25.3040  -30.8200 N   0  0  0  0  0  0  0  0  0  0  0  0
   -3.4800   24.5270  -29.9800 C   0  0  0  0  0  0  0  0  0  0  0  0
   -2.4330   24.9670  -29.3470 N   0  0  0  0  0  0  0  0  0  0  0  0
   -2.0570   24.5950  -27.9830 C   0  0  0  0  0  0  0  0  0  0  0  0
   -1.3465   25.3369  -27.5895 H   0  0  0  0  0  0  0  0  0  0  0  0
   -1.5951   23.5969  -28.0038 H   0  0  0  0  0  0  0  0  0  0  0  0
   -3.2840   24.5480  -27.0780 C   0  0  0  0  0  0  0  0  0  0  0  0
   -2.9641   24.5603  -26.0256 H   0  0  0  0  0  0  0  0  0  0  0  0
   -3.9207   25.4224  -27.2779 H   0  0  0  0  0  0  0  0  0  0  0  0
   -3.8520   23.6274  -27.2779 H   0  0  0  0  0  0  0  0  0  0  0  0
   -4.1330   22.9750  -29.8690 S   0  0  0  0  0  0  0  0  0  0  0  0
   -6.1320   21.3760  -32.2410 C   0  0  0  0  0  0  0  0  0  0  0  0
   -5.0883   21.1815  -32.5289 H   0  0  0  0  0  0  0  0  0  0  0  0
   -7.1460   20.5220  -32.6860 C   0  0  0  0  0  0  0  0  0  0  0  0
   -6.8973   19.6604  -33.3230 H   0  0  0  0  0  0  0  0  0  0  0  0
  1  2  1  0
  2  3  2  0
  3  4  1  0
  3  5  1  0
  5  6  1  0
  5  7  2  0
  7  8  1  0
  8  9  2  0
  9 10  1  0
 10 11  1  0
 11 12  2  0
 12 13  1  0
 13 14  1  0
 13 15  1  0
 13 16  1  0
 16 17  1  0
 16 18  1  0
 16 19  1  0
 11 20  1  0
  7 21  1  0
 21 22  1  0
 21 23  2  0
 23 24  1  0
 23  2  1  0
 20  8  1  0
M  CHG  1  10  -1
M  END
>  <UniqueID>  (31) 
26

>  <SMILES>  (31) 
CC/N=c1/[n-]nc(-c2ccccc2)s1

>  <Energy>  (31) 
57.223244995791894

>  <Genealogy>  (31) 
CCN=c1[n-]nc(-c2ccccc2)s1 (protonated)
CC/N=c1/[n-]nc(-c2ccccc2)s1 (cis-trans isomerization)
CC/N=c1/[n-]nc(-c2ccccc2)s1 (3D coordinates assigned)
CC/N=c1/[n-]nc(-c2ccccc2)s1 (optimized conformer: 57.223244995791894 kcal/mol)

>  <smiles>  (31) 
CCN=c1[nH]nc(-c2ccccc2)s1

>  <score_type>  (31) 
oracle

>  <origin>  (31) 
adg

>  <m_score__min__energy>  (31) 
-8.4199999999999999

>  <m_primary>  (31) 
energy

$$$$
31:0
     RDKit          3D

 33 34  0  0  0  0  0  0  0  0999 V2000
   -5.5512   26.1189  -29.7241 H   0  0  0  0  0  0  0  0  0  0  0  0
   -5.5760   25.0420  -29.9470 C   0  0  0  0  0  0  0  0  0  0  0  0
   -6.8040   24.3880  -30.0820 C   0  0  0  0  0  0  0  0  0  0  0  0
   -7.7408   24.9512  -29.9588 H   0  0  0  0  0  0  0  0  0  0  0  0
   -6.8470   23.0160  -30.3740 C   0  0  0  0  0  0  0  0  0  0  0  0
   -8.1700   22.3040  -30.4840 C   0  0  0  0  0  0  0  0  0  0  0  0
   -8.1074   21.3415  -29.9551 H   0  0  0  0  0  0  0  0  0  0  0  0
   -8.9505   22.9357  -30.0348 H   0  0  0  0  0  0  0  0  0  0  0  0
   -8.5250   22.0500  -31.9470 C   0  0  0  0  0  0  0  0  0  0  0  0
   -9.3950   22.6631  -32.2250 H   0  0  0  0  0  0  0  0  0  0  0  0
   -7.6690   22.3180  -32.5838 H   0  0  0  0  0  0  0  0  0  0  0  0
   -8.8460   20.6370  -32.1320 N   0  0  0  0  0  0  0  0  0  0  0  0
   -8.0140   19.7070  -32.5090 C   0  0  0  0  0  0  0  0  0  0  0  0
   -7.0030   20.0410  -33.4190 C   0  0  0  0  0  0  0  0  0  0  0  0
   -6.9217   21.0689  -33.8021 H   0  0  0  0  0  0  0  0  0  0  0  0
   -6.1000   19.0640  -33.8370 C   0  0  0  0  0  0  0  0  0  0  0  0
   -5.3039   19.3187  -34.5521 H   0  0  0  0  0  0  0  0  0  0  0  0
   -6.2090   17.7630  -33.3460 C   0  0  0  0  0  0  0  0  0  0  0  0
   -4.9800   16.4130  -33.9080 Br  0  0  0  0  0  0  0  0  0  0  0  0
   -7.2260   17.4590  -32.4390 C   0  0  0  0  0  0  0  0  0  0  0  0
   -7.3207   16.4361  -32.0456 H   0  0  0  0  0  0  0  0  0  0  0  0
   -8.1010   18.4220  -32.0390 N   0  0  0  0  0  0  0  0  0  0  0  0
   -8.8430   18.1420  -31.3590 H   0  0  0  0  0  0  0  0  0  0  0  0
   -5.6460   22.3030  -30.5080 C   0  0  0  0  0  0  0  0  0  0  0  0
   -5.6703   21.2238  -30.7194 H   0  0  0  0  0  0  0  0  0  0  0  0
   -4.4200   22.9580  -30.3740 C   0  0  0  0  0  0  0  0  0  0  0  0
   -3.4843   22.3911  -30.4888 H   0  0  0  0  0  0  0  0  0  0  0  0
   -4.3700   24.3290  -30.0950 C   0  0  0  0  0  0  0  0  0  0  0  0
   -3.1140   24.9400  -29.9700 O   0  0  0  0  0  0  0  0  0  0  0  0
   -2.0910   24.5020  -29.0810 C   0  0  0  0  0  0  0  0  0  0  0  0
   -2.4227   24.6440  -28.0419 H   0  0  0  0  0  0  0  0  0  0  0  0
   -1.8836   23.4362  -29.2573 H   0  0  0  0  0  0  0  0  0  0  0  0
   -1.1766   25.0875  -29.2573 H   0  0  0  0  0  0  0  0  0  0  0  0
  1  2  1  0
  2  3  2  0
  3  4  1  0
  3  5  1  0
  5  6  1  0
  6  7  1  0
  6  8  1  0
  6  9  1  0
  9 10  1  0
  9 11  1  0
  9 12  1  0
 12 13  2  0
 13 14  1  0
 14 15  1  0
 14 16  2  0
 16 17  1  0
 16 18  1  0
 18 19  1  0
 18 20  2  0
 20 21  1  0
 20 22  1  0
 22 23  1  0
  5 24  2  0
 24 25  1  0
 24 26  1  0
 26 27  1  0
 26 28  2  0
 28 29  1  0
 29 30  1  0
 30 31  1  0
 30 32  1  0
 30 33  1  0
 28  2  1  0
 22 13  1  0
M  END
>  <UniqueID>  (32) 
27

>  <SMILES>  (32) 
COc1ccc(CC/N=c2/ccc(Br)c[nH]2)cc1

>  <Energy>  (32) 
30.595821532199114

>  <Genealogy>  (32) 
COc1ccc(CC/N=c2/ccc(Br)c[nH]2)cc1 (cis-trans isomerization)
COc1ccc(CC/N=c2/ccc(Br)c[nH]2)cc1 (3D coordinates assigned)
COc1ccc(CC/N=c2/ccc(Br)c[nH]2)cc1 (optimized conformer: 30.595821532199114 kcal/mol)

>  <smiles>  (32) 
COc1ccc(CCN=c2ccc(Br)c[nH]2)cc1

>  <score_type>  (32) 
oracle

>  <origin>  (32) 
adg

>  <m_score__min__energy>  (32) 
-7.7699999999999996

>  <m_primary>  (32) 
energy

$$$$
32:0
     RDKit          3D

 28 30  0  0  0  0  0  0  0  0999 V2000
   -0.0080   26.7750  -27.4680 C   0  0  0  0  0  0  0  0  0  0  0  0
   -0.6800   25.6320  -28.1500 C   0  0  0  0  0  0  0  0  0  0  0  0
   -0.0050   24.5290  -28.5670 N   0  0  0  0  0  0  0  0  0  0  0  0
   -0.9700   23.8080  -29.1570 C   0  0  0  0  0  0  0  0  0  0  0  0
   -0.8470   22.5700  -29.7780 C   0  0  0  0  0  0  0  0  0  0  0  0
   -2.0040   22.0040  -30.3460 C   0  0  0  0  0  0  0  0  0  0  0  0
   -3.2530   22.6810  -30.2730 C   0  0  0  0  0  0  0  0  0  0  0  0
   -4.4380   22.1290  -30.8710 N   0  0  0  0  0  0  0  0  0  0  0  0
   -5.5230   22.9240  -31.3800 C   0  0  0  0  0  0  0  0  0  0  0  0
   -5.3620   24.1560  -31.5900 O   0  0  0  0  0  0  0  0  0  0  0  0
   -6.8200   22.3030  -31.6990 C   0  0  0  0  0  0  0  0  0  0  0  0
   -8.0630   22.9220  -31.6040 C   0  0  0  0  0  0  0  0  0  0  0  0
   -9.1270   22.0850  -31.9620 C   0  0  0  0  0  0  0  0  0  0  0  0
   -8.7330   20.8080  -32.3380 C   0  0  0  0  0  0  0  0  0  0  0  0
   -7.0580   20.7210  -32.2240 S   0  0  0  0  0  0  0  0  0  0  0  0
   -3.3220   23.9480  -29.6510 C   0  0  0  0  0  0  0  0  0  0  0  0
   -2.1550   24.4710  -29.0990 C   0  0  0  0  0  0  0  0  0  0  0  0
   -2.0010   25.6430  -28.4680 N   0  0  0  0  0  0  0  0  0  0  0  0
   -0.0832   26.6471  -26.3780 H   0  0  0  0  0  0  0  0  0  0  0  0
    1.0517   26.8053  -27.7614 H   0  0  0  0  0  0  0  0  0  0  0  0
   -0.4968   27.7157  -27.7614 H   0  0  0  0  0  0  0  0  0  0  0  0
    0.1215   22.0505  -29.8239 H   0  0  0  0  0  0  0  0  0  0  0  0
   -1.9417   21.0288  -30.8512 H   0  0  0  0  0  0  0  0  0  0  0  0
   -4.4680   21.0970  -31.0250 H   0  0  0  0  0  0  0  0  0  0  0  0
   -8.1963   23.9647  -31.2800 H   0  0  0  0  0  0  0  0  0  0  0  0
  -10.1780   22.4094  -31.9467 H   0  0  0  0  0  0  0  0  0  0  0  0
   -9.4012   19.9940  -32.6556 H   0  0  0  0  0  0  0  0  0  0  0  0
   -4.2695   24.5049  -29.6041 H   0  0  0  0  0  0  0  0  0  0  0  0
  1  2  1  0
  2  3  2  0
  3  4  1  0
  4  5  2  0
  5  6  1  0
  6  7  2  0
  7  8  1  0
  8  9  1  0
  9 10  2  0
  9 11  1  0
 11 12  2  0
 12 13  1  0
 13 14  2  0
 14 15  1  0
  7 16  1  0
 16 17  2  0
 17 18  1  0
 18  2  1  0
 17  4  1  0
 15 11  1  0
  1 19  1  0
  1 20  1  0
  1 21  1  0
  5 22  1  0
  6 23  1  0
  8 24  1  0
 12 25  1  0
 13 26  1  0
 14 27  1  0
 16 28  1  0
M  CHG  1  18  -1
M  END
>  <UniqueID>  (33) 
28

>  <SMILES>  (33) 
Cc1nc2ccc(NC(=O)c3cccs3)cc2[n-]1

>  <Energy>  (33) 
92.52086889675495

>  <Genealogy>  (33) 
Cc1nc2ccc(NC(=O)c3cccs3)cc2[n-]1 (protonated)
Cc1nc2ccc(NC(=O)c3cccs3)cc2[n-]1 (3D coordinates assigned)
Cc1nc2ccc(NC(=O)c3cccs3)cc2[n-]1 (optimized conformer: 92.52086889675495 kcal/mol)

>  <smiles>  (33) 
Cc1nc2ccc(NC(=O)c3cccs3)cc2[nH]1

>  <score_type>  (33) 
oracle

>  <origin>  (33) 
adg

>  <m_score__min__energy>  (33) 
-7.8899999999999997

>  <m_primary>  (33) 
energy

$$$$
33:0
     RDKit          3D

 28 29  0  0  0  0  0  0  0  0999 V2000
   -4.3290   24.2880  -27.7280 C   0  0  0  0  0  0  0  0  0  0  0  0
   -4.6950   24.4030  -29.1720 C   0  0  0  0  0  0  0  0  0  0  0  0
   -5.6460   23.6520  -29.8340 C   0  0  0  0  0  0  0  0  0  0  0  0
   -5.6520   24.1900  -31.1090 C   0  0  0  0  0  0  0  0  0  0  0  0
   -6.4750   23.7190  -32.2670 C   0  0  0  0  0  0  0  0  0  0  0  0
   -7.7570   23.0200  -31.8000 C   0  0  0  0  0  0  0  0  0  0  0  0
   -7.6990   21.5310  -32.0400 C   0  0  0  0  0  0  0  0  0  0  0  0
   -8.7680   20.7090  -31.6440 C   0  0  0  0  0  0  0  0  0  0  0  0
   -8.7320   19.3350  -31.8990 C   0  0  0  0  0  0  0  0  0  0  0  0
   -7.6330   18.7740  -32.5580 C   0  0  0  0  0  0  0  0  0  0  0  0
   -6.5720   19.5870  -32.9640 C   0  0  0  0  0  0  0  0  0  0  0  0
   -6.6040   20.9610  -32.7090 C   0  0  0  0  0  0  0  0  0  0  0  0
   -4.7820   25.1730  -31.1650 O   0  0  0  0  0  0  0  0  0  0  0  0
   -4.1990   25.3270  -30.0140 N   0  0  0  0  0  0  0  0  0  0  0  0
   -5.1954   24.5602  -27.1073 H   0  0  0  0  0  0  0  0  0  0  0  0
   -4.0303   23.2527  -27.5068 H   0  0  0  0  0  0  0  0  0  0  0  0
   -3.4918   24.9664  -27.5068 H   0  0  0  0  0  0  0  0  0  0  0  0
   -6.2539   22.8235  -29.4415 H   0  0  0  0  0  0  0  0  0  0  0  0
   -6.7466   24.5854  -32.8880 H   0  0  0  0  0  0  0  0  0  0  0  0
   -5.8782   22.9956  -32.8420 H   0  0  0  0  0  0  0  0  0  0  0  0
   -7.8911   23.2028  -30.7236 H   0  0  0  0  0  0  0  0  0  0  0  0
   -8.6001   23.4281  -32.3767 H   0  0  0  0  0  0  0  0  0  0  0  0
   -9.6364   21.1485  -31.1314 H   0  0  0  0  0  0  0  0  0  0  0  0
   -9.5682   18.6948  -31.5813 H   0  0  0  0  0  0  0  0  0  0  0  0
   -7.6042   17.6925  -32.7566 H   0  0  0  0  0  0  0  0  0  0  0  0
   -5.7099   19.1452  -33.4852 H   0  0  0  0  0  0  0  0  0  0  0  0
   -5.7681   21.5981  -33.0337 H   0  0  0  0  0  0  0  0  0  0  0  0
   -3.4790   26.0520  -29.8000 H   0  0  0  0  0  0  0  0  0  0  0  0
  1  2  1  0
  2  3  1  0
  3  4  2  0
  4  5  1  0
  5  6  1  0
  6  7  1  0
  7  8  2  0
  8  9  1  0
  9 10  2  0
 10 11  1  0
 11 12  2  0
  4 13  1  0
 13 14  1  0
 14  2  2  0
 12  7  1  0
  1 15  1  0
  1 16  1  0
  1 17  1  0
  3 18  1  0
  5 19  1  0
  5 20  1  0
  6 21  1  0
  6 22  1  0
  8 23  1  0
  9 24  1  0
 10 25  1  0
 11 26  1  0
 12 27  1  0
 14 28  1  0
M  CHG  1  14   1
M  END
>  <UniqueID>  (34) 
29

>  <SMILES>  (34) 
Cc1cc(CCc2ccccc2)o[nH+]1

>  <Energy>  (34) 
53.35636696966906

>  <Genealogy>  (34) 
Cc1cc(CCc2ccccc2)o[nH+]1 (protonated)
Cc1cc(CCc2ccccc2)o[nH+]1 (3D coordinates assigned)
Cc1cc(CCc2ccccc2)o[nH+]1 (optimized conformer: 53.35636696966906 kcal/mol)

>  <smiles>  (34) 
Cc1cc(CCc2ccccc2)on1

>  <score_type>  (34) 
oracle

>  <origin>  (34) 
adg

>  <m_score__min__energy>  (34) 
-6.4299999999999997

>  <m_primary>  (34) 
energy

$$$$
34:0
     RDKit          3D

 41 43  0  0  0  0  0  0  0  0999 V2000
   -4.6140   25.1040  -31.2190 O   0  0  0  0  0  0  0  0  0  0  0  0
   -5.1250   24.0280  -30.8040 C   0  0  0  0  0  0  0  0  0  0  0  0
   -5.7300   23.9790  -29.4310 C   0  0  0  0  0  0  0  0  0  0  0  0
   -5.0300   24.9110  -28.5390 N   0  0  0  0  0  0  0  0  0  0  0  0
   -4.2280   24.1720  -27.5590 C   0  0  0  0  0  0  0  0  0  0  0  0
   -3.2300   23.3020  -28.2730 C   0  0  0  0  0  0  0  0  0  0  0  0
   -2.1870   23.8820  -29.0110 C   0  0  0  0  0  0  0  0  0  0  0  0
   -1.2800   23.0730  -29.7060 C   0  0  0  0  0  0  0  0  0  0  0  0
   -1.4190   21.6820  -29.6770 C   0  0  0  0  0  0  0  0  0  0  0  0
   -2.4640   21.0980  -28.9570 C   0  0  0  0  0  0  0  0  0  0  0  0
   -3.3730   21.9040  -28.2620 C   0  0  0  0  0  0  0  0  0  0  0  0
   -5.1770   22.8800  -31.6690 N   0  0  0  0  0  0  0  0  0  0  0  0
   -3.8920   22.2830  -32.0720 C   0  0  0  0  0  0  0  0  0  0  0  0
   -4.0680   21.2810  -33.2150 C   0  0  0  0  0  0  0  0  0  0  0  0
   -5.1070   20.2280  -32.8370 C   0  0  0  0  0  0  0  0  0  0  0  0
   -6.4110   20.8800  -32.4690 C   0  0  0  0  0  0  0  0  0  0  0  0
   -7.6140   20.1850  -32.6640 C   0  0  0  0  0  0  0  0  0  0  0  0
   -8.8330   20.7790  -32.3320 C   0  0  0  0  0  0  0  0  0  0  0  0
   -8.8600   22.0690  -31.8030 C   0  0  0  0  0  0  0  0  0  0  0  0
   -7.6680   22.7640  -31.5860 C   0  0  0  0  0  0  0  0  0  0  0  0
   -6.4240   22.1700  -31.8870 C   0  0  0  0  0  0  0  0  0  0  0  0
   -6.7917   24.2604  -29.4908 H   0  0  0  0  0  0  0  0  0  0  0  0
   -5.6358   22.9584  -29.0317 H   0  0  0  0  0  0  0  0  0  0  0  0
   -4.3740   25.4820  -29.1250 H   0  0  0  0  0  0  0  0  0  0  0  0
   -3.6952   24.8838  -26.9113 H   0  0  0  0  0  0  0  0  0  0  0  0
   -4.8902   23.5408  -26.9482 H   0  0  0  0  0  0  0  0  0  0  0  0
   -2.0816   24.9764  -29.0436 H   0  0  0  0  0  0  0  0  0  0  0  0
   -0.4579   23.5318  -30.2749 H   0  0  0  0  0  0  0  0  0  0  0  0
   -0.7048   21.0469  -30.2216 H   0  0  0  0  0  0  0  0  0  0  0  0
   -2.5726   20.0036  -28.9363 H   0  0  0  0  0  0  0  0  0  0  0  0
   -4.2017   21.4419  -27.7056 H   0  0  0  0  0  0  0  0  0  0  0  0
   -3.2142   23.0843  -32.4014 H   0  0  0  0  0  0  0  0  0  0  0  0
   -3.4763   21.7466  -31.2063 H   0  0  0  0  0  0  0  0  0  0  0  0
   -4.4023   21.8140  -34.1173 H   0  0  0  0  0  0  0  0  0  0  0  0
   -3.1061   20.7835  -33.4078 H   0  0  0  0  0  0  0  0  0  0  0  0
   -5.2678   19.5553  -33.6924 H   0  0  0  0  0  0  0  0  0  0  0  0
   -4.7374   19.6599  -31.9706 H   0  0  0  0  0  0  0  0  0  0  0  0
   -7.5967   19.1671  -33.0805 H   0  0  0  0  0  0  0  0  0  0  0  0
   -9.7728   20.2291  -32.4878 H   0  0  0  0  0  0  0  0  0  0  0  0
   -9.8226   22.5405  -31.5559 H   0  0  0  0  0  0  0  0  0  0  0  0
   -7.6994   23.7844  -31.1764 H   0  0  0  0  0  0  0  0  0  0  0  0
  1  2  2  0
  2  3  1  0
  3  4  1  0
  4  5  1  0
  5  6  1  0
  6  7  2  0
  7  8  1  0
  8  9  2  0
  9 10  1  0
 10 11  2  0
  2 12  1  0
 12 13  1  0
 13 14  1  0
 14 15  1  0
 15 16  1  0
 16 17  2  0
 17 18  1  0
 18 19  2  0
 19 20  1  0
 20 21  2  0
 11  6  1  0
 21 12  1  0
 21 16  1  0
  3 22  1  0
  3 23  1  0
  4 24  1  0
  5 25  1  0
  5 26  1  0
  7 27  1  0
  8 28  1  0
  9 29  1  0
 10 30  1  0
 11 31  1  0
 13 32  1  0
 13 33  1  0
 14 34  1  0
 14 35  1  0
 15 36  1  0
 15 37  1  0
 17 38  1  0
 18 39  1  0
 19 40  1  0
 20 41  1  0
M  END
>  <UniqueID>  (35) 
30

>  <SMILES>  (35) 
O=C(CNCc1ccccc1)N1CCCc2ccccc21

>  <Energy>  (35) 
46.45606859462586

>  <Genealogy>  (35) 
O=C(CNCc1ccccc1)N1CCCc2ccccc21 (3D coordinates assigned)
O=C(CNCc1ccccc1)N1CCCc2ccccc21 (nonaromatic ring conformer: 46.45606859462586 kcal/mol)

>  <smiles>  (35) 
O=C(CNCc1ccccc1)N1CCCc2ccccc21

>  <score_type>  (35) 
oracle

>  <origin>  (35) 
adg

>  <m_score__min__energy>  (35) 
-8.3100000000000005

>  <m_primary>  (35) 
energy

$$$$
35:0
     RDKit          3D

 27 29  0  0  0  0  0  0  0  0999 V2000
   -3.7950   14.7970  -34.9080 Br  0  0  0  0  0  0  0  0  0  0  0  0
   -4.8110   16.2630  -34.2240 C   0  0  0  0  0  0  0  0  0  0  0  0
   -5.4050   16.1730  -32.9620 C   0  0  0  0  0  0  0  0  0  0  0  0
   -6.1500   17.2450  -32.4590 C   0  0  0  0  0  0  0  0  0  0  0  0
   -6.3080   18.4200  -33.2160 C   0  0  0  0  0  0  0  0  0  0  0  0
   -7.0930   19.5680  -32.7120 C   0  0  0  0  0  0  0  0  0  0  0  0
   -8.3820   19.8340  -33.0020 N   0  0  0  0  0  0  0  0  0  0  0  0
   -8.7120   20.9520  -32.3770 N   0  0  0  0  0  0  0  0  0  0  0  0
   -7.6030   21.3310  -31.7130 C   0  0  0  0  0  0  0  0  0  0  0  0
   -7.4970   22.5740  -30.8930 C   0  0  0  0  0  0  0  0  0  0  0  0
   -6.9520   23.9750  -31.9280 S   0  0  0  0  0  0  0  0  0  0  0  0
   -5.3130   24.0630  -31.2100 C   0  0  0  0  0  0  0  0  0  0  0  0
   -4.6070   22.9810  -30.8300 N   0  0  0  0  0  0  0  0  0  0  0  0
   -3.4780   23.5430  -30.3560 C   0  0  0  0  0  0  0  0  0  0  0  0
   -3.4980   24.8850  -30.4480 N   0  0  0  0  0  0  0  0  0  0  0  0
   -4.6580   25.2150  -30.9890 N   0  0  0  0  0  0  0  0  0  0  0  0
   -6.6110   20.4930  -31.9140 O   0  0  0  0  0  0  0  0  0  0  0  0
   -5.7040   18.4990  -34.4840 C   0  0  0  0  0  0  0  0  0  0  0  0
   -4.9600   17.4260  -34.9830 C   0  0  0  0  0  0  0  0  0  0  0  0
   -5.2865   15.2578  -32.3633 H   0  0  0  0  0  0  0  0  0  0  0  0
   -6.6152   17.1685  -31.4651 H   0  0  0  0  0  0  0  0  0  0  0  0
   -9.0310   19.2940  -33.6150 H   0  0  0  0  0  0  0  0  0  0  0  0
   -8.4802   22.8059  -30.4578 H   0  0  0  0  0  0  0  0  0  0  0  0
   -6.7584   22.4123  -30.0940 H   0  0  0  0  0  0  0  0  0  0  0  0
   -2.6358   22.9698  -29.9410 H   0  0  0  0  0  0  0  0  0  0  0  0
   -5.8180   19.4118  -35.0872 H   0  0  0  0  0  0  0  0  0  0  0  0
   -4.4909   17.4977  -35.9754 H   0  0  0  0  0  0  0  0  0  0  0  0
  1  2  1  0
  2  3  2  0
  3  4  1  0
  4  5  2  0
  5  6  1  0
  6  7  2  0
  7  8  1  0
  8  9  2  0
  9 10  1  0
 10 11  1  0
 11 12  1  0
 12 13  2  0
 13 14  1  0
 14 15  2  0
 15 16  1  0
  9 17  1  0
  5 18  1  0
 18 19  2  0
 19  2  1  0
 17  6  1  0
 16 12  1  0
  3 20  1  0
  4 21  1  0
  7 22  1  0
 10 23  1  0
 10 24  1  0
 14 25  1  0
 18 26  1  0
 19 27  1  0
M  CHG  2   7   1  16  -1
M  END
>  <UniqueID>  (36) 
31

>  <SMILES>  (36) 
Brc1ccc(-c2[nH+]nc(CSc3ncn[n-]3)o2)cc1

>  <Energy>  (36) 
91.97089513041244

>  <Genealogy>  (36) 
Brc1ccc(-c2[nH+]nc(CSc3ncn[n-]3)o2)cc1 (protonated)
Brc1ccc(-c2[nH+]nc(CSc3ncn[n-]3)o2)cc1 (3D coordinates assigned)
Brc1ccc(-c2[nH+]nc(CSc3ncn[n-]3)o2)cc1 (optimized conformer: 91.97089513041244 kcal/mol)

>  <smiles>  (36) 
Brc1ccc(-c2nnc(CSc3ncn[nH]3)o2)cc1

>  <score_type>  (36) 
oracle

>  <origin>  (36) 
adg

>  <m_score__min__energy>  (36) 
-8.3599999999999994

>  <m_primary>  (36) 
energy

$$$$
36:0
     RDKit          3D

 39 40  0  0  0  0  0  0  0  0999 V2000
   -2.6820   24.3800  -29.1930 C   0  0  0  0  0  0  0  0  0  0  0  0
   -3.4630   24.7730  -30.3170 O   0  0  0  0  0  0  0  0  0  0  0  0
   -4.5220   24.0230  -30.8570 C   0  0  0  0  0  0  0  0  0  0  0  0
   -4.2900   22.9130  -31.6920 C   0  0  0  0  0  0  0  0  0  0  0  0
   -5.3580   22.1840  -32.2140 C   0  0  0  0  0  0  0  0  0  0  0  0
   -6.6740   22.5510  -31.9290 C   0  0  0  0  0  0  0  0  0  0  0  0
   -7.7410   21.7580  -32.4710 N   0  0  0  0  0  0  0  0  0  0  0  0
   -8.0540   20.4010  -32.1210 C   0  0  0  0  0  0  0  0  0  0  0  0
   -8.6710   20.1470  -31.0500 O   0  0  0  0  0  0  0  0  0  0  0  0
   -7.7310   19.3370  -33.0430 N   0  0  2  0  0  0  0  0  0  0  0  0
   -7.8260   18.0280  -32.3550 C   0  0  0  0  0  0  0  0  0  0  0  0
   -6.9670   16.9740  -33.0730 C   0  0  0  0  0  0  0  0  0  0  0  0
   -5.5810   17.2920  -33.1180 O   0  0  0  0  0  0  0  0  0  0  0  0
   -5.3050   18.6880  -33.0430 C   0  0  1  0  0  0  0  0  0  0  0  0
   -3.9490   18.9600  -33.7000 C   0  0  0  0  0  0  0  0  0  0  0  0
   -3.7710   20.3180  -33.8940 F   0  0  0  0  0  0  0  0  0  0  0  0
   -3.8850   18.3180  -34.9240 F   0  0  0  0  0  0  0  0  0  0  0  0
   -6.4110   19.5580  -33.6880 C   0  0  0  0  0  0  0  0  0  0  0  0
   -6.9170   23.6400  -31.0760 C   0  0  0  0  0  0  0  0  0  0  0  0
   -5.8490   24.3910  -30.5450 C   0  0  0  0  0  0  0  0  0  0  0  0
   -6.1080   25.5660  -29.6280 C   0  0  0  0  0  0  0  0  0  0  0  0
   -5.5220   25.3310  -28.3980 F   0  0  0  0  0  0  0  0  0  0  0  0
   -7.4710   25.7240  -29.4560 F   0  0  0  0  0  0  0  0  0  0  0  0
   -5.5910   26.7430  -30.1390 F   0  0  0  0  0  0  0  0  0  0  0  0
   -3.2121   24.6468  -28.2668 H   0  0  0  0  0  0  0  0  0  0  0  0
   -2.5190   23.2925  -29.2220 H   0  0  0  0  0  0  0  0  0  0  0  0
   -1.7116   24.8971  -29.2220 H   0  0  0  0  0  0  0  0  0  0  0  0
   -3.2582   22.6187  -31.9344 H   0  0  0  0  0  0  0  0  0  0  0  0
   -5.1616   21.3124  -32.8557 H   0  0  0  0  0  0  0  0  0  0  0  0
   -8.4550   19.3470  -33.8020 H   0  0  0  0  0  0  0  0  0  0  0  0
   -7.4722   18.1378  -31.3192 H   0  0  0  0  0  0  0  0  0  0  0  0
   -8.8751   17.6973  -32.3665 H   0  0  0  0  0  0  0  0  0  0  0  0
   -7.0852   16.0148  -32.5477 H   0  0  0  0  0  0  0  0  0  0  0  0
   -7.3185   16.9318  -34.1145 H   0  0  0  0  0  0  0  0  0  0  0  0
   -5.2783   18.9718  -31.9806 H   0  0  0  0  0  0  0  0  0  0  0  0
   -3.1576   18.5813  -33.0365 H   0  0  0  0  0  0  0  0  0  0  0  0
   -6.1365   20.6181  -33.5839 H   0  0  0  0  0  0  0  0  0  0  0  0
   -6.4956   19.2745  -34.7475 H   0  0  0  0  0  0  0  0  0  0  0  0
   -7.9521   23.9097  -30.8195 H   0  0  0  0  0  0  0  0  0  0  0  0
  1  2  1  0
  2  3  1  0
  3  4  2  0
  4  5  1  0
  5  6  2  0
  6  7  1  0
  7  8  1  0
  8  9  2  0
  8 10  1  0
 10 11  1  0
 11 12  1  0
 12 13  1  0
 13 14  1  0
 14 15  1  0
 15 16  1  0
 15 17  1  0
 14 18  1  0
  6 19  1  0
 19 20  2  0
 20 21  1  0
 21 22  1  0
 21 23  1  0
 21 24  1  0
 20  3  1  0
 18 10  1  0
  1 25  1  0
  1 26  1  0
  1 27  1  0
  4 28  1  0
  5 29  1  0
 10 30  1  6
 11 31  1  0
 11 32  1  0
 12 33  1  0
 12 34  1  0
 14 35  1  1
 15 36  1  0
 18 37  1  0
 18 38  1  0
 19 39  1  0
M  CHG  2   7  -1  10   1
M  END
>  <UniqueID>  (37) 
32

>  <SMILES>  (37) 
COc1ccc([N-]C(=O)[N@@H+]2CCO[C@@H](C(F)F)C2)cc1C(F)(F)F

>  <Energy>  (37) 
56.31841442667475

>  <Genealogy>  (37) 
COc1ccc([N-]C(=O)[NH+]2CCOC(C(F)F)C2)cc1C(F)(F)F (protonated)
COc1ccc([N-]C(=O)[N@@H+]2CCO[C@@H](C(F)F)C2)cc1C(F)(F)F (chirality)
COc1ccc([N-]C(=O)[N@@H+]2CCO[C@@H](C(F)F)C2)cc1C(F)(F)F (3D coordinates assigned)
COc1ccc([N-]C(=O)[N@@H+]2CCO[C@@H](C(F)F)C2)cc1C(F)(F)F (nonaromatic ring conformer: 56.31841442667475 kcal/mol)

>  <smiles>  (37) 
COc1ccc(NC(=O)N2CCOC(C(F)F)C2)cc1C(F)(F)F

>  <score_type>  (37) 
oracle

>  <origin>  (37) 
adg

>  <m_score__min__energy>  (37) 
-6.0899999999999999

>  <m_primary>  (37) 
energy

$$$$
37:0
     RDKit          3D

 29 31  0  0  0  0  0  0  0  0999 V2000
   -1.8690   25.1340  -28.1940 C   0  0  0  0  0  0  0  0  0  0  0  0
   -2.7010   25.2900  -29.3380 O   0  0  0  0  0  0  0  0  0  0  0  0
   -3.4710   24.2620  -29.9020 C   0  0  0  0  0  0  0  0  0  0  0  0
   -3.1190   22.9350  -29.6210 C   0  0  0  0  0  0  0  0  0  0  0  0
   -3.8550   21.8770  -30.1620 C   0  0  0  0  0  0  0  0  0  0  0  0
   -4.9490   22.1350  -30.9910 C   0  0  0  0  0  0  0  0  0  0  0  0
   -5.3100   23.4550  -31.2810 C   0  0  0  0  0  0  0  0  0  0  0  0
   -6.7100   23.7870  -32.3510 S   0  0  0  0  0  0  0  0  0  0  0  0
   -7.4560   22.1960  -32.0120 C   0  0  0  0  0  0  0  0  0  0  0  0
   -8.5300   22.0880  -31.0990 C   0  0  0  0  0  0  0  0  0  0  0  0
   -9.1140   20.8350  -30.8480 C   0  0  0  0  0  0  0  0  0  0  0  0
   -8.5830   19.7500  -31.5320 C   0  0  0  0  0  0  0  0  0  0  0  0
   -8.9530   18.4610  -31.4770 N   0  0  0  0  0  0  0  0  0  0  0  0
   -8.1600   17.7860  -32.3060 N   0  0  0  0  0  0  0  0  0  0  0  0
   -7.3070   18.6860  -32.8590 C   0  0  0  0  0  0  0  0  0  0  0  0
   -7.5680   19.9100  -32.3800 N   0  0  0  0  0  0  0  0  0  0  0  0
   -6.9900   21.0790  -32.6430 N   0  0  0  0  0  0  0  0  0  0  0  0
   -4.5780   24.5170  -30.7370 C   0  0  0  0  0  0  0  0  0  0  0  0
   -2.4740   25.2474  -27.2824 H   0  0  0  0  0  0  0  0  0  0  0  0
   -1.4105   24.1342  -28.2077 H   0  0  0  0  0  0  0  0  0  0  0  0
   -1.0794   25.8998  -28.2077 H   0  0  0  0  0  0  0  0  0  0  0  0
   -2.2575   22.7245  -28.9702 H   0  0  0  0  0  0  0  0  0  0  0  0
   -3.5719   20.8387  -29.9343 H   0  0  0  0  0  0  0  0  0  0  0  0
   -5.5265   21.3006  -31.4157 H   0  0  0  0  0  0  0  0  0  0  0  0
   -8.9081   22.9843  -30.5855 H   0  0  0  0  0  0  0  0  0  0  0  0
   -9.9511   20.7194  -30.1438 H   0  0  0  0  0  0  0  0  0  0  0  0
   -9.7170   18.0420  -30.9020 H   0  0  0  0  0  0  0  0  0  0  0  0
   -6.5205   18.4466  -33.5898 H   0  0  0  0  0  0  0  0  0  0  0  0
   -4.8675   25.5541  -30.9618 H   0  0  0  0  0  0  0  0  0  0  0  0
  1  2  1  0
  2  3  1  0
  3  4  2  0
  4  5  1  0
  5  6  2  0
  6  7  1  0
  7  8  1  0
  8  9  1  0
  9 10  1  0
 10 11  2  0
 11 12  1  0
 12 13  2  0
 13 14  1  0
 14 15  2  0
 15 16  1  0
 16 17  1  0
  7 18  2  0
 18  3  1  0
 17  9  2  0
 16 12  1  0
  1 19  1  0
  1 20  1  0
  1 21  1  0
  4 22  1  0
  5 23  1  0
  6 24  1  0
 10 25  1  0
 11 26  1  0
 13 27  1  0
 15 28  1  0
 18 29  1  0
M  CHG  1  13   1
M  END
>  <UniqueID>  (38) 
33

>  <SMILES>  (38) 
COc1cccc(Sc2ccc3[nH+]ncn3n2)c1

>  <Energy>  (38) 
70.26484835468715

>  <Genealogy>  (38) 
COc1cccc(Sc2ccc3[nH+]ncn3n2)c1 (protonated)
COc1cccc(Sc2ccc3[nH+]ncn3n2)c1 (3D coordinates assigned)
COc1cccc(Sc2ccc3[nH+]ncn3n2)c1 (optimized conformer: 70.26484835468715 kcal/mol)

>  <smiles>  (38) 
COc1cccc(Sc2ccc3nncn3n2)c1

>  <score_type>  (38) 
oracle

>  <origin>  (38) 
adg

>  <m_score__min__energy>  (38) 
-7.25

>  <m_primary>  (38) 
energy

$$$$
38:0
     RDKit          3D

 45 48  0  0  0  0  0  0  0  0999 V2000
   -9.5160   21.5460  -30.7070 C   0  0  0  0  0  0  0  0  0  0  0  0
   -8.4900   21.0010  -31.5720 N   0  0  0  0  0  0  0  0  0  0  0  0
   -8.2250   19.6810  -31.7840 C   0  0  0  0  0  0  0  0  0  0  0  0
   -7.1720   19.6310  -32.6730 C   0  0  0  0  0  0  0  0  0  0  0  0
   -6.4970   18.4670  -33.2350 C   0  0  0  0  0  0  0  0  0  0  0  0
   -5.4420   18.6750  -34.0930 C   0  0  0  0  0  0  0  0  0  0  0  0
   -4.7430   17.6320  -34.6730 C   0  0  0  0  0  0  0  0  0  0  0  0
   -5.1530   16.3540  -34.3510 C   0  0  0  0  0  0  0  0  0  0  0  0
   -4.4680   15.3340  -34.9190 F   0  0  0  0  0  0  0  0  0  0  0  0
   -6.1940   16.0960  -33.5060 C   0  0  0  0  0  0  0  0  0  0  0  0
   -6.8620   17.1750  -32.9510 C   0  0  0  0  0  0  0  0  0  0  0  0
   -6.8440   20.8960  -32.9620 N   0  0  0  0  0  0  0  0  0  0  0  0
   -7.6420   21.7560  -32.2950 C   0  0  0  0  0  0  0  0  0  0  0  0
   -7.5300   23.5370  -32.4040 S   0  0  0  0  0  0  0  0  0  0  0  0
   -6.2650   24.0810  -31.2530 C   0  0  0  0  0  0  0  0  0  0  0  0
   -4.9820   23.3140  -31.4500 C   0  0  0  0  0  0  0  0  0  0  0  0
   -3.9040   23.3120  -30.6200 N   0  0  0  0  0  0  0  0  0  0  0  0
   -2.9570   22.5010  -31.1450 C   0  0  0  0  0  0  0  0  0  0  0  0
   -3.4690   21.9950  -32.3250 C   0  0  0  0  0  0  0  0  0  0  0  0
   -4.7100   22.4960  -32.5080 N   0  0  0  0  0  0  0  0  0  0  0  0
   -2.6710   21.1200  -33.0670 C   0  0  0  0  0  0  0  0  0  0  0  0
   -3.0970   20.6290  -34.1560 O   0  0  0  0  0  0  0  0  0  0  0  0
   -1.4540   20.8190  -32.5920 N   0  0  0  0  0  0  0  0  0  0  0  0
   -0.5880   19.9030  -33.3440 C   0  0  0  0  0  0  0  0  0  0  0  0
   -0.9690   21.3260  -31.4310 C   0  0  0  0  0  0  0  0  0  0  0  0
    0.1860   20.9950  -31.0500 O   0  0  0  0  0  0  0  0  0  0  0  0
   -1.7250   22.1750  -30.6970 N   0  0  0  0  0  0  0  0  0  0  0  0
   -1.2310   22.7300  -29.4560 C   0  0  0  0  0  0  0  0  0  0  0  0
   -9.2288   21.3934  -29.6562 H   0  0  0  0  0  0  0  0  0  0  0  0
   -9.6279   22.6224  -30.9039 H   0  0  0  0  0  0  0  0  0  0  0  0
  -10.4706   21.0361  -30.9039 H   0  0  0  0  0  0  0  0  0  0  0  0
   -8.7481   18.8241  -31.3344 H   0  0  0  0  0  0  0  0  0  0  0  0
   -5.1437   19.7078  -34.3261 H   0  0  0  0  0  0  0  0  0  0  0  0
   -3.9012   17.8122  -35.3577 H   0  0  0  0  0  0  0  0  0  0  0  0
   -6.4929   15.0633  -33.2732 H   0  0  0  0  0  0  0  0  0  0  0  0
   -7.7040   16.9921  -32.2672 H   0  0  0  0  0  0  0  0  0  0  0  0
   -6.0710   25.1519  -31.4130 H   0  0  0  0  0  0  0  0  0  0  0  0
   -6.6249   23.9006  -30.2293 H   0  0  0  0  0  0  0  0  0  0  0  0
   -5.3540   22.2940  -33.3200 H   0  0  0  0  0  0  0  0  0  0  0  0
   -0.0067   19.2881  -32.6412 H   0  0  0  0  0  0  0  0  0  0  0  0
   -1.2068   19.2502  -33.9772 H   0  0  0  0  0  0  0  0  0  0  0  0
    0.0985   20.4842  -33.9772 H   0  0  0  0  0  0  0  0  0  0  0  0
   -1.6974   22.2060  -28.6087 H   0  0  0  0  0  0  0  0  0  0  0  0
   -0.1391   22.6059  -29.4078 H   0  0  0  0  0  0  0  0  0  0  0  0
   -1.4809   23.8002  -29.4078 H   0  0  0  0  0  0  0  0  0  0  0  0
  1  2  1  0
  2  3  1  0
  3  4  2  0
  4  5  1  0
  5  6  2  0
  6  7  1  0
  7  8  2  0
  8  9  1  0
  8 10  1  0
 10 11  2  0
  4 12  1  0
 12 13  2  0
 13 14  1  0
 14 15  1  0
 15 16  1  0
 16 17  2  0
 17 18  1  0
 18 19  2  0
 19 20  1  0
 19 21  1  0
 21 22  2  0
 21 23  1  0
 23 24  1  0
 23 25  1  0
 25 26  2  0
 25 27  1  0
 27 28  1  0
 13  2  1  0
 20 16  1  0
 11  5  1  0
 27 18  1  0
  1 29  1  0
  1 30  1  0
  1 31  1  0
  3 32  1  0
  6 33  1  0
  7 34  1  0
 10 35  1  0
 11 36  1  0
 15 37  1  0
 15 38  1  0
 20 39  1  0
 24 40  1  0
 24 41  1  0
 24 42  1  0
 28 43  1  0
 28 44  1  0
 28 45  1  0
M  END
>  <smiles>  (39) 
Cn1cc(-c2ccc(F)cc2)nc1SCc1nc2c([nH]1)c(=O)n(C)c(=O)n2C

>  <score_type>  (39) 
oracle

>  <origin>  (39) 
adg

>  <m_score__min__energy>  (39) 
-8.0700000000000003

>  <m_primary>  (39) 
energy

$$$$
39:0
     RDKit          3D

 51 54  0  0  0  0  0  0  0  0999 V2000
   -3.8390   25.2860  -30.4720 O   0  0  0  0  0  0  0  0  0  0  0  0
   -4.6410   24.4100  -30.0500 C   0  0  0  0  0  0  0  0  0  0  0  0
   -6.1120   24.5890  -30.2730 C   0  0  0  0  0  0  0  0  0  0  0  0
   -6.4750   24.2480  -31.7200 C   0  0  0  0  0  0  0  0  0  0  0  0
   -6.5370   22.7910  -31.9010 N   0  0  0  0  0  0  0  0  0  0  0  0
   -7.7890   22.0900  -31.7570 C   0  0  0  0  0  0  0  0  0  0  0  0
   -8.8410   22.7240  -31.4680 O   0  0  0  0  0  0  0  0  0  0  0  0
   -7.8410   20.6220  -31.9510 C   0  0  0  0  0  0  0  0  0  0  0  0
   -9.0480   19.9210  -31.7740 C   0  0  0  0  0  0  0  0  0  0  0  0
   -9.0980   18.5390  -31.9570 C   0  0  0  0  0  0  0  0  0  0  0  0
   -7.9500   17.8350  -32.3210 C   0  0  0  0  0  0  0  0  0  0  0  0
   -6.7360   18.5120  -32.5060 C   0  0  0  0  0  0  0  0  0  0  0  0
   -5.5850   17.8050  -32.8780 C   0  0  0  0  0  0  0  0  0  0  0  0
   -4.3780   18.4790  -33.0670 C   0  0  0  0  0  0  0  0  0  0  0  0
   -4.3060   19.8610  -32.8850 C   0  0  0  0  0  0  0  0  0  0  0  0
   -5.4460   20.5920  -32.5070 C   0  0  0  0  0  0  0  0  0  0  0  0
   -6.6730   19.9180  -32.3180 C   0  0  0  0  0  0  0  0  0  0  0  0
   -5.3670   22.0570  -32.3090 C   0  0  0  0  0  0  0  0  0  0  0  0
   -4.2760   22.6620  -32.5010 O   0  0  0  0  0  0  0  0  0  0  0  0
   -4.1500   23.2250  -29.4080 N   0  0  0  0  0  0  0  0  0  0  0  0
   -2.7220   22.9460  -29.2680 C   0  0  0  0  0  0  0  0  0  0  0  0
   -2.3960   21.5550  -29.8540 C   0  0  0  0  0  0  0  0  0  0  0  0
   -2.1830   20.4970  -28.8420 N   0  0  0  0  0  0  0  0  0  0  0  0
   -0.7620   20.1300  -28.6730 C   0  0  0  0  0  0  0  0  0  0  0  0
   -0.5850   19.1730  -27.4770 C   0  0  0  0  0  0  0  0  0  0  0  0
   -1.8120   18.5480  -27.1550 O   0  0  0  0  0  0  0  0  0  0  0  0
   -2.7290   19.5080  -26.6510 C   0  0  0  0  0  0  0  0  0  0  0  0
   -2.8320   20.7610  -27.5480 C   0  0  0  0  0  0  0  0  0  0  0  0
   -6.6656   23.9242  -29.5936 H   0  0  0  0  0  0  0  0  0  0  0  0
   -6.3791   25.6375  -30.0746 H   0  0  0  0  0  0  0  0  0  0  0  0
   -7.4551   24.6855  -31.9609 H   0  0  0  0  0  0  0  0  0  0  0  0
   -5.7040   24.6589  -32.3884 H   0  0  0  0  0  0  0  0  0  0  0  0
   -9.9594   20.4670  -31.4891 H   0  0  0  0  0  0  0  0  0  0  0  0
  -10.0471   18.0018  -31.8136 H   0  0  0  0  0  0  0  0  0  0  0  0
   -7.9972   16.7453  -32.4634 H   0  0  0  0  0  0  0  0  0  0  0  0
   -5.6330   16.7155  -33.0215 H   0  0  0  0  0  0  0  0  0  0  0  0
   -3.4785   17.9183  -33.3610 H   0  0  0  0  0  0  0  0  0  0  0  0
   -3.3497   20.3824  -33.0385 H   0  0  0  0  0  0  0  0  0  0  0  0
   -4.8340   22.5420  -29.0090 H   0  0  0  0  0  0  0  0  0  0  0  0
   -2.1464   23.7126  -29.8075 H   0  0  0  0  0  0  0  0  0  0  0  0
   -2.4541   22.9604  -28.2012 H   0  0  0  0  0  0  0  0  0  0  0  0
   -3.2327   21.2495  -30.4994 H   0  0  0  0  0  0  0  0  0  0  0  0
   -1.4472   21.6605  -30.4005 H   0  0  0  0  0  0  0  0  0  0  0  0
   -0.4058   19.6342  -29.5880 H   0  0  0  0  0  0  0  0  0  0  0  0
   -0.1806   21.0444  -28.4835 H   0  0  0  0  0  0  0  0  0  0  0  0
    0.1561   18.4027  -27.7367 H   0  0  0  0  0  0  0  0  0  0  0  0
   -0.2423   19.7519  -26.6067 H   0  0  0  0  0  0  0  0  0  0  0  0
   -3.7232   19.0424  -26.5810 H   0  0  0  0  0  0  0  0  0  0  0  0
   -2.3623   19.8332  -25.6662 H   0  0  0  0  0  0  0  0  0  0  0  0
   -3.8914   21.0067  -27.7133 H   0  0  0  0  0  0  0  0  0  0  0  0
   -2.3305   21.6061  -27.0537 H   0  0  0  0  0  0  0  0  0  0  0  0
  1  2  2  0
  2  3  1  0
  3  4  1  0
  4  5  1  0
  5  6  1  0
  6  7  2  0
  6  8  1  0
  8  9  2  0
  9 10  1  0
 10 11  2  0
 11 12  1  0
 12 13  2  0
 13 14  1  0
 14 15  2  0
 15 16  1  0
 16 17  2  0
 16 18  1  0
 18 19  2  0
  2 20  1  0
 20 21  1  0
 21 22  1  0
 22 23  1  0
 23 24  1  0
 24 25  1  0
 25 26  1  0
 26 27  1  0
 27 28  1  0
 18  5  1  0
 28 23  1  0
 17  8  1  0
 17 12  1  0
  3 29  1  0
  3 30  1  0
  4 31  1  0
  4 32  1  0
  9 33  1  0
 10 34  1  0
 11 35  1  0
 13 36  1  0
 14 37  1  0
 15 38  1  0
 20 39  1  0
 21 40  1  0
 21 41  1  0
 22 42  1  0
 22 43  1  0
 24 44  1  0
 24 45  1  0
 25 46  1  0
 25 47  1  0
 27 48  1  0
 27 49  1  0
 28 50  1  0
 28 51  1  0
M  END
>  <UniqueID>  (40) 
34

>  <SMILES>  (40) 
O=C(CCN1C(=O)c2cccc3cccc(c23)C1=O)NCCN1CCOCC1

>  <Energy>  (40) 
65.19772202581967

>  <Genealogy>  (40) 
O=C(CCN1C(=O)c2cccc3cccc(c23)C1=O)NCCN1CCOCC1 (3D coordinates assigned)
O=C(CCN1C(=O)c2cccc3cccc(c23)C1=O)NCCN1CCOCC1 (nonaromatic ring conformer: 65.19772202581967 kcal/mol)

>  <smiles>  (40) 
O=C(CCN1C(=O)c2cccc3cccc(c23)C1=O)NCCN1CCOCC1

>  <score_type>  (40) 
oracle

>  <origin>  (40) 
adg

>  <m_score__min__energy>  (40) 
-10.539999999999999

>  <m_primary>  (40) 
energy

$$$$
40:0
     RDKit          3D

 38 40  0  0  1  0  0  0  0  0999 V2000
   -1.3830   21.8790  -30.4020 C   0  0  0  0  0  0  0  0  0  0  0  0
   -2.2730   21.4990  -31.3910 C   0  0  0  0  0  0  0  0  0  0  0  0
   -3.4160   22.2840  -31.6100 C   0  0  0  0  0  0  0  0  0  0  0  0
   -3.5930   23.3760  -30.8410 C   0  0  0  0  0  0  0  0  0  0  0  0
   -4.5940   24.3160  -30.8220 C   0  0  0  0  0  0  0  0  0  0  0  0
   -5.6480   24.4140  -31.5220 N   0  0  0  0  0  0  0  0  0  0  0  0
   -6.8870   23.7980  -31.1230 C   0  0  0  0  0  0  0  0  0  0  0  0
   -7.2880   22.9620  -32.3620 C   0  0  0  0  0  0  0  0  0  0  0  0
   -7.4750   21.6250  -32.0020 N   0  0  0  0  0  0  0  0  0  0  0  0
   -8.6750   21.1880  -31.4310 C   0  0  0  0  0  0  0  0  0  0  0  0
   -9.1270   19.8860  -31.9890 C   0  0  0  0  0  0  0  0  0  0  0  0
   -8.0560   18.9150  -32.3520 C   0  0  0  0  0  0  0  0  0  0  0  0
   -6.8620   19.5760  -33.0080 C   0  0  0  0  0  0  0  0  0  0  0  0
   -6.4030   20.7130  -32.0760 C   0  0  0  0  0  0  0  0  0  0  0  0
   -4.2960   25.2260  -29.8430 N   0  0  0  0  0  0  0  0  0  0  0  0
   -3.1600   24.8960  -29.2570 N   0  0  0  0  0  0  0  0  0  0  0  0
   -2.7110   23.7770  -29.8420 C   0  0  0  0  0  0  0  0  0  0  0  0
   -1.5890   23.0040  -29.6300 C   0  0  0  0  0  0  0  0  0  0  0  0
   -0.4860   21.2670  -30.2262 H   0  0  0  0  0  0  0  0  0  0  0  0
   -2.0882   20.5982  -31.9946 H   0  0  0  0  0  0  0  0  0  0  0  0
   -4.1464   22.0152  -32.3874 H   0  0  0  0  0  0  0  0  0  0  0  0
   -6.7407   23.1533  -30.2438 H   0  0  0  0  0  0  0  0  0  0  0  0
   -7.6555   24.5291  -30.8316 H   0  0  0  0  0  0  0  0  0  0  0  0
   -8.2240   23.3597  -32.7813 H   0  0  0  0  0  0  0  0  0  0  0  0
   -6.4850   23.0230  -33.1113 H   0  0  0  0  0  0  0  0  0  0  0  0
   -8.5300   21.0763  -30.3463 H   0  0  0  0  0  0  0  0  0  0  0  0
   -9.4475   21.9371  -31.6593 H   0  0  0  0  0  0  0  0  0  0  0  0
   -9.7738   19.4067  -31.2394 H   0  0  0  0  0  0  0  0  0  0  0  0
   -9.6323   20.1320  -32.9346 H   0  0  0  0  0  0  0  0  0  0  0  0
   -7.7176   18.4068  -31.4370 H   0  0  0  0  0  0  0  0  0  0  0  0
   -8.4829   18.2073  -33.0779 H   0  0  0  0  0  0  0  0  0  0  0  0
   -6.0507   18.8447  -33.1385 H   0  0  0  0  0  0  0  0  0  0  0  0
   -7.1286   19.9679  -34.0006 H   0  0  0  0  0  0  0  0  0  0  0  0
   -6.1720   20.3157  -31.0766 H   0  0  0  0  0  0  0  0  0  0  0  0
   -5.4926   21.1982  -32.4578 H   0  0  0  0  0  0  0  0  0  0  0  0
   -4.8770   26.0640  -29.5930 H   0  0  0  0  0  0  0  0  0  0  0  0
   -2.7270   25.4510  -28.4690 H   0  0  0  0  0  0  0  0  0  0  0  0
   -0.8636   23.2821  -28.8513 H   0  0  0  0  0  0  0  0  0  0  0  0
  1  2  2  0
  2  3  1  0
  3  4  2  0
  4  5  1  0
  5  6  2  0
  6  7  1  0
  7  8  1  0
  8  9  1  0
  9 10  1  0
 10 11  1  0
 11 12  1  0
 12 13  1  0
 13 14  1  0
  5 15  1  0
 15 16  1  0
 16 17  1  0
 17 18  2  0
 18  1  1  0
 17  4  1  0
 14  9  1  0
  1 19  1  0
  2 20  1  0
  3 21  1  0
  7 22  1  0
  7 23  1  0
  8 24  1  0
  8 25  1  0
 10 26  1  0
 10 27  1  0
 11 28  1  0
 11 29  1  0
 12 30  1  0
 12 31  1  0
 13 32  1  0
 13 33  1  0
 14 34  1  0
 14 35  1  0
 15 36  1  0
 16 37  1  0
 18 38  1  0
M  END
>  <smiles>  (41) 
c1ccc2c(=NCCN3CCCCC3)[nH][nH]c2c1

>  <score_type>  (41) 
oracle

>  <origin>  (41) 
adg

>  <m_score__min__energy>  (41) 
-7.2999999999999998

>  <m_primary>  (41) 
energy

$$$$
41:0
     RDKit          3D

 33 34  0  0  0  0  0  0  0  0999 V2000
   -2.7540   20.2140  -27.5430 C   0  0  0  0  0  0  0  0  0  0  0  0
   -2.3160   21.6310  -27.7450 C   0  0  0  0  0  0  0  0  0  0  0  0
   -1.3180   22.1900  -27.0270 N   0  0  0  0  0  0  0  0  0  0  0  0
   -1.2280   23.4490  -27.4960 C   0  0  0  0  0  0  0  0  0  0  0  0
   -2.1680   23.6320  -28.4850 C   0  0  0  0  0  0  0  0  0  0  0  0
   -2.3440   24.8490  -29.2300 N   0  0  0  0  0  0  0  0  0  0  0  0
   -3.1720   24.9310  -30.1600 O   0  0  0  0  0  0  0  0  0  0  0  0
   -1.5630   25.9430  -28.9400 O   0  0  0  0  0  0  0  0  0  0  0  0
   -2.8720   22.4870  -28.6390 N   0  0  0  0  0  0  0  0  0  0  0  0
   -3.9420   22.1800  -29.5940 C   0  0  0  0  0  0  0  0  0  0  0  0
   -3.3610   21.9500  -30.9910 C   0  0  0  0  0  0  0  0  0  0  0  0
   -4.0300   22.7640  -31.9520 O   0  0  0  0  0  0  0  0  0  0  0  0
   -5.2940   23.3290  -31.7420 C   0  0  0  0  0  0  0  0  0  0  0  0
   -5.4010   24.5590  -31.4740 O   0  0  0  0  0  0  0  0  0  0  0  0
   -6.5030   22.4840  -31.8420 C   0  0  0  0  0  0  0  0  0  0  0  0
   -6.4110   21.1420  -32.2560 C   0  0  0  0  0  0  0  0  0  0  0  0
   -7.5590   20.3490  -32.3500 C   0  0  0  0  0  0  0  0  0  0  0  0
   -8.8080   20.8850  -32.0330 C   0  0  0  0  0  0  0  0  0  0  0  0
   -8.9130   22.2160  -31.6220 C   0  0  0  0  0  0  0  0  0  0  0  0
   -7.7680   23.0140  -31.5270 C   0  0  0  0  0  0  0  0  0  0  0  0
   -2.8200   20.0006  -26.4659 H   0  0  0  0  0  0  0  0  0  0  0  0
   -3.7400   20.0653  -28.0073 H   0  0  0  0  0  0  0  0  0  0  0  0
   -2.0239   19.5348  -28.0073 H   0  0  0  0  0  0  0  0  0  0  0  0
   -0.5162   24.2105  -27.1446 H   0  0  0  0  0  0  0  0  0  0  0  0
   -4.4700   21.2720  -29.2671 H   0  0  0  0  0  0  0  0  0  0  0  0
   -4.6396   23.0296  -29.6333 H   0  0  0  0  0  0  0  0  0  0  0  0
   -2.2908   22.2042  -30.9840 H   0  0  0  0  0  0  0  0  0  0  0  0
   -3.4988   20.8932  -31.2633 H   0  0  0  0  0  0  0  0  0  0  0  0
   -5.4294   20.7140  -32.5074 H   0  0  0  0  0  0  0  0  0  0  0  0
   -7.4775   19.3011  -32.6743 H   0  0  0  0  0  0  0  0  0  0  0  0
   -9.7098   20.2594  -32.1068 H   0  0  0  0  0  0  0  0  0  0  0  0
   -9.8980   22.6374  -31.3726 H   0  0  0  0  0  0  0  0  0  0  0  0
   -7.8570   24.0618  -31.2042 H   0  0  0  0  0  0  0  0  0  0  0  0
  1  2  1  0
  2  3  2  0
  3  4  1  0
  4  5  2  0
  5  6  1  0
  6  7  2  0
  6  8  1  0
  5  9  1  0
  9 10  1  0
 10 11  1  0
 11 12  1  0
 12 13  1  0
 13 14  2  0
 13 15  1  0
 15 16  2  0
 16 17  1  0
 17 18  2  0
 18 19  1  0
 19 20  2  0
  9  2  1  0
 20 15  1  0
  1 21  1  0
  1 22  1  0
  1 23  1  0
  4 24  1  0
 10 25  1  0
 10 26  1  0
 11 27  1  0
 11 28  1  0
 16 29  1  0
 17 30  1  0
 18 31  1  0
 19 32  1  0
 20 33  1  0
M  CHG  2   6   1   8  -1
M  END
>  <UniqueID>  (42) 
35

>  <SMILES>  (42) 
Cc1ncc([N+](=O)[O-])n1CCOC(=O)c1ccccc1

>  <Energy>  (42) 
60.9468863505959

>  <Genealogy>  (42) 
Cc1ncc([N+](=O)[O-])n1CCOC(=O)c1ccccc1 (3D coordinates assigned)
Cc1ncc([N+](=O)[O-])n1CCOC(=O)c1ccccc1 (optimized conformer: 60.9468863505959 kcal/mol)

>  <smiles>  (42) 
Cc1ncc([N+](=O)[O-])n1CCOC(=O)c1ccccc1

>  <score_type>  (42) 
oracle

>  <origin>  (42) 
adg

>  <m_score__min__energy>  (42) 
-7.7300000000000004

>  <m_primary>  (42) 
energy

$$$$
42:0
     RDKit          3D

 23 24  0  0  0  0  0  0  0  0999 V2000
   -3.4770   25.3020  -30.4560 O   0  0  0  0  0  0  0  0  0  0  0  0
   -4.6090   24.5010  -30.5490 C   0  0  0  0  0  0  0  0  0  0  0  0
   -5.7470   24.9740  -31.2120 C   0  0  0  0  0  0  0  0  0  0  0  0
   -6.8850   24.1680  -31.3080 C   0  0  0  0  0  0  0  0  0  0  0  0
   -6.8870   22.8850  -30.7440 C   0  0  0  0  0  0  0  0  0  0  0  0
   -8.3460   21.8500  -30.8710 S   0  0  0  0  0  0  0  0  0  0  0  0
   -7.5190   20.6430  -31.9100 C   0  0  0  0  0  0  0  0  0  0  0  0
   -6.4570   21.0440  -32.7320 C   0  0  0  0  0  0  0  0  0  0  0  0
   -5.8040   20.1090  -33.5400 C   0  0  0  0  0  0  0  0  0  0  0  0
   -6.2110   18.7710  -33.5350 C   0  0  0  0  0  0  0  0  0  0  0  0
   -5.5620   17.8430  -34.3380 O   0  0  0  0  0  0  0  0  0  0  0  0
   -7.2750   18.3680  -32.7200 C   0  0  0  0  0  0  0  0  0  0  0  0
   -7.9300   19.3020  -31.9080 C   0  0  0  0  0  0  0  0  0  0  0  0
   -8.9630   18.9000  -31.1260 F   0  0  0  0  0  0  0  0  0  0  0  0
   -5.7490   22.4160  -30.0780 C   0  0  0  0  0  0  0  0  0  0  0  0
   -4.6100   23.2230  -29.9820 C   0  0  0  0  0  0  0  0  0  0  0  0
   -5.7460   25.9798  -31.6575 H   0  0  0  0  0  0  0  0  0  0  0  0
   -7.7802   24.5412  -31.8269 H   0  0  0  0  0  0  0  0  0  0  0  0
   -6.1369   22.0963  -32.7412 H   0  0  0  0  0  0  0  0  0  0  0  0
   -4.9683   20.4261  -34.1811 H   0  0  0  0  0  0  0  0  0  0  0  0
   -7.5971   17.3162  -32.7173 H   0  0  0  0  0  0  0  0  0  0  0  0
   -5.7500   21.4116  -29.6294 H   0  0  0  0  0  0  0  0  0  0  0  0
   -3.7154   22.8520  -29.4605 H   0  0  0  0  0  0  0  0  0  0  0  0
  1  2  1  0
  2  3  2  0
  3  4  1  0
  4  5  2  0
  5  6  1  0
  6  7  1  0
  7  8  2  0
  8  9  1  0
  9 10  2  0
 10 11  1  0
 10 12  1  0
 12 13  2  0
 13 14  1  0
  5 15  1  0
 15 16  2  0
 16  2  1  0
 13  7  1  0
  3 17  1  0
  4 18  1  0
  8 19  1  0
  9 20  1  0
 12 21  1  0
 15 22  1  0
 16 23  1  0
M  CHG  2   1  -1  11  -1
M  END
>  <UniqueID>  (43) 
36

>  <SMILES>  (43) 
[O-]c1ccc(Sc2ccc([O-])cc2F)cc1

>  <Energy>  (43) 
19.793233332272415

>  <Genealogy>  (43) 
[O-]c1ccc(Sc2ccc([O-])cc2F)cc1 (protonated)
[O-]c1ccc(Sc2ccc([O-])cc2F)cc1 (3D coordinates assigned)
[O-]c1ccc(Sc2ccc([O-])cc2F)cc1 (optimized conformer: 19.793233332272415 kcal/mol)

>  <smiles>  (43) 
Oc1ccc(Sc2ccc(O)cc2F)cc1

>  <score_type>  (43) 
oracle

>  <origin>  (43) 
adg

>  <m_score__min__energy>  (43) 
-9.5999999999999996

>  <m_primary>  (43) 
energy

$$$$
43:0
     RDKit          3D

 54 56  0  0  0  0  0  0  0  0999 V2000
   -9.3120   21.8880  -31.1680 C   0  0  0  0  0  0  0  0  0  0  0  0
   -8.0760   22.1510  -31.8250 O   0  0  0  0  0  0  0  0  0  0  0  0
   -7.2110   21.1630  -32.3250 C   0  0  0  0  0  0  0  0  0  0  0  0
   -7.6890   19.9050  -32.7420 C   0  0  0  0  0  0  0  0  0  0  0  0
   -6.8090   18.9400  -33.2370 C   0  0  0  0  0  0  0  0  0  0  0  0
   -5.4450   19.2150  -33.3250 C   0  0  0  0  0  0  0  0  0  0  0  0
   -4.9550   20.4560  -32.9160 C   0  0  0  0  0  0  0  0  0  0  0  0
   -5.8280   21.4370  -32.4120 C   0  0  0  0  0  0  0  0  0  0  0  0
   -5.2540   22.7650  -31.9680 C   0  0  0  0  0  0  0  0  0  0  0  0
   -5.3290   22.9090  -30.4920 N   0  0  0  0  0  0  0  0  0  0  0  0
   -6.0150   24.1600  -30.0810 C   0  0  0  0  0  0  0  0  0  0  0  0
   -5.2400   25.4290  -30.4930 C   0  0  0  0  0  0  0  0  0  0  0  0
   -3.8030   25.2900  -30.2700 N   0  0  0  0  0  0  0  0  0  0  0  0
   -3.1680   24.0250  -30.0850 C   0  0  0  0  0  0  0  0  0  0  0  0
   -1.9100   23.9600  -30.0520 O   0  0  0  0  0  0  0  0  0  0  0  0
   -4.0160   22.8120  -29.7980 C   0  0  2  0  0  0  0  0  0  0  0  0
   -3.2710   21.4780  -30.0540 C   0  0  0  0  0  0  0  0  0  0  0  0
   -1.9840   21.4050  -29.2750 C   0  0  0  0  0  0  0  0  0  0  0  0
   -0.9100   21.7300  -29.8510 O   0  0  0  0  0  0  0  0  0  0  0  0
   -1.9490   20.9230  -27.9160 N   0  0  0  0  0  0  0  0  0  0  0  0
   -3.0920   20.1900  -27.3610 C   0  0  0  0  0  0  0  0  0  0  0  0
   -0.7780   21.2060  -27.0750 C   0  0  0  0  0  0  0  0  0  0  0  0
   -0.7800   22.6430  -26.6270 C   0  0  0  0  0  0  0  0  0  0  0  0
   -0.5010   22.9700  -25.2910 C   0  0  0  0  0  0  0  0  0  0  0  0
   -0.4940   24.3100  -24.8990 C   0  0  0  0  0  0  0  0  0  0  0  0
   -0.7650   25.3080  -25.8350 C   0  0  0  0  0  0  0  0  0  0  0  0
   -1.0380   24.9490  -27.1570 C   0  0  0  0  0  0  0  0  0  0  0  0
   -1.0420   23.6380  -27.5250 N   0  0  0  0  0  0  0  0  0  0  0  0
   -9.1623   21.9199  -30.0787 H   0  0  0  0  0  0  0  0  0  0  0  0
  -10.0511   22.6490  -31.4589 H   0  0  0  0  0  0  0  0  0  0  0  0
   -9.6772   20.8920  -31.4589 H   0  0  0  0  0  0  0  0  0  0  0  0
   -8.7640   19.6810  -32.6772 H   0  0  0  0  0  0  0  0  0  0  0  0
   -7.1930   17.9605  -33.5582 H   0  0  0  0  0  0  0  0  0  0  0  0
   -4.7548   18.4534  -33.7170 H   0  0  0  0  0  0  0  0  0  0  0  0
   -3.8782   20.6686  -32.9883 H   0  0  0  0  0  0  0  0  0  0  0  0
   -4.2017   22.8255  -32.2825 H   0  0  0  0  0  0  0  0  0  0  0  0
   -5.8406   23.5729  -32.4297 H   0  0  0  0  0  0  0  0  0  0  0  0
   -7.0090   24.1868  -30.5514 H   0  0  0  0  0  0  0  0  0  0  0  0
   -6.0836   24.1552  -28.9832 H   0  0  0  0  0  0  0  0  0  0  0  0
   -5.4164   25.6215  -31.5616 H   0  0  0  0  0  0  0  0  0  0  0  0
   -5.6006   26.2632  -29.8732 H   0  0  0  0  0  0  0  0  0  0  0  0
   -4.2276   22.8006  -28.7186 H   0  0  0  0  0  0  0  0  0  0  0  0
   -3.9197   20.6428  -29.7513 H   0  0  0  0  0  0  0  0  0  0  0  0
   -3.0292   21.4184  -31.1254 H   0  0  0  0  0  0  0  0  0  0  0  0
   -3.0474   20.2186  -26.2623 H   0  0  0  0  0  0  0  0  0  0  0  0
   -4.0277   20.6569  -27.7023 H   0  0  0  0  0  0  0  0  0  0  0  0
   -3.0580   19.1448  -27.7023 H   0  0  0  0  0  0  0  0  0  0  0  0
   -0.8018   20.5520  -26.1908 H   0  0  0  0  0  0  0  0  0  0  0  0
    0.1330   21.0199  -27.6627 H   0  0  0  0  0  0  0  0  0  0  0  0
   -0.2895   22.1770  -24.5586 H   0  0  0  0  0  0  0  0  0  0  0  0
   -0.2753   24.5780  -23.8548 H   0  0  0  0  0  0  0  0  0  0  0  0
   -0.7637   26.3664  -25.5353 H   0  0  0  0  0  0  0  0  0  0  0  0
   -1.2506   25.7283  -27.9036 H   0  0  0  0  0  0  0  0  0  0  0  0
   -1.2500   23.4000  -28.5200 H   0  0  0  0  0  0  0  0  0  0  0  0
  1  2  1  0
  2  3  1  0
  3  4  2  0
  4  5  1  0
  5  6  2  0
  6  7  1  0
  7  8  2  0
  8  9  1  0
  9 10  1  0
 10 11  1  0
 11 12  1  0
 12 13  1  0
 13 14  1  0
 14 15  2  0
 14 16  1  0
 16 17  1  0
 17 18  1  0
 18 19  2  0
 18 20  1  0
 20 21  1  0
 20 22  1  0
 22 23  1  0
 23 24  2  0
 24 25  1  0
 25 26  2  0
 26 27  1  0
 27 28  2  0
  8  3  1  0
 16 10  1  0
 28 23  1  0
  1 29  1  0
  1 30  1  0
  1 31  1  0
  4 32  1  0
  5 33  1  0
  6 34  1  0
  7 35  1  0
  9 36  1  0
  9 37  1  0
 11 38  1  0
 11 39  1  0
 12 40  1  0
 12 41  1  0
 16 42  1  1
 17 43  1  0
 17 44  1  0
 21 45  1  0
 21 46  1  0
 21 47  1  0
 22 48  1  0
 22 49  1  0
 24 50  1  0
 25 51  1  0
 26 52  1  0
 27 53  1  0
 28 54  1  0
M  CHG  2  13  -1  28   1
M  END
>  <UniqueID>  (44) 
37

>  <SMILES>  (44) 
COc1ccccc1CN1CC[N-]C(=O)[C@@H]1CC(=O)N(C)Cc1cccc[nH+]1

>  <Energy>  (44) 
60.94598024492465

>  <Genealogy>  (44) 
COc1ccccc1CN1CC[N-]C(=O)C1CC(=O)N(C)Cc1cccc[nH+]1 (protonated)
COc1ccccc1CN1CC[N-]C(=O)[C@@H]1CC(=O)N(C)Cc1cccc[nH+]1 (chirality)
COc1ccccc1CN1CC[N-]C(=O)[C@@H]1CC(=O)N(C)Cc1cccc[nH+]1 (3D coordinates assigned)
COc1ccccc1CN1CC[N-]C(=O)[C@@H]1CC(=O)N(C)Cc1cccc[nH+]1 (nonaromatic ring conformer: 60.94598024492465 kcal/mol)

>  <smiles>  (44) 
COc1ccccc1CN1CCNC(=O)C1CC(=O)N(C)Cc1ccccn1

>  <score_type>  (44) 
oracle

>  <origin>  (44) 
adg

>  <m_score__min__energy>  (44) 
-8.6600000000000001

>  <m_primary>  (44) 
energy

$$$$
44:0
     RDKit          3D

 49 51  0  0  0  0  0  0  0  0999 V2000
   -4.9860   15.4540  -32.6070 C   0  0  0  0  0  0  0  0  0  0  0  0
   -6.0200   16.1950  -33.2470 O   0  0  0  0  0  0  0  0  0  0  0  0
   -6.3880   17.5060  -32.9060 C   0  0  0  0  0  0  0  0  0  0  0  0
   -7.5420   17.7840  -32.1520 C   0  0  0  0  0  0  0  0  0  0  0  0
   -7.8880   19.0990  -31.8500 C   0  0  0  0  0  0  0  0  0  0  0  0
   -7.0730   20.1640  -32.2590 C   0  0  0  0  0  0  0  0  0  0  0  0
   -7.4710   21.5810  -31.8990 C   0  0  0  0  0  0  0  0  0  0  0  0
   -6.6470   22.5880  -32.5970 N   0  0  0  0  0  0  0  0  0  0  0  0
   -6.8040   23.9540  -32.0650 C   0  0  0  0  0  0  0  0  0  0  0  0
   -5.5980   24.4000  -31.2880 C   0  0  0  0  0  0  0  0  0  0  0  0
   -5.3300   25.6800  -30.8600 C   0  0  0  0  0  0  0  0  0  0  0  0
   -4.2100   25.6380  -30.1820 O   0  0  0  0  0  0  0  0  0  0  0  0
   -3.7970   24.3880  -30.1850 C   0  0  0  0  0  0  0  0  0  0  0  0
   -2.5690   23.9270  -29.5090 C   0  0  0  0  0  0  0  0  0  0  0  0
   -2.0180   22.6670  -29.8050 C   0  0  0  0  0  0  0  0  0  0  0  0
   -0.8610   22.2300  -29.1540 C   0  0  0  0  0  0  0  0  0  0  0  0
   -0.2400   23.0490  -28.2030 C   0  0  0  0  0  0  0  0  0  0  0  0
    1.2130   22.5000  -27.3900 Cl  0  0  0  0  0  0  0  0  0  0  0  0
   -0.7810   24.3030  -27.9030 C   0  0  0  0  0  0  0  0  0  0  0  0
   -1.9400   24.7410  -28.5500 C   0  0  0  0  0  0  0  0  0  0  0  0
   -4.6270   23.5700  -30.8670 N   0  0  0  0  0  0  0  0  0  0  0  0
   -5.8900   19.8910  -32.9790 C   0  0  0  0  0  0  0  0  0  0  0  0
   -5.0230   20.9390  -33.2940 O   0  0  0  0  0  0  0  0  0  0  0  0
   -3.6340   20.8810  -32.9900 C   0  0  0  0  0  0  0  0  0  0  0  0
   -5.5820   18.5630  -33.3500 C   0  0  0  0  0  0  0  0  0  0  0  0
   -4.4840   18.2560  -34.1670 O   0  0  0  0  0  0  0  0  0  0  0  0
   -4.5850   17.4530  -35.3410 C   0  0  0  0  0  0  0  0  0  0  0  0
   -5.0986   15.5347  -31.5158 H   0  0  0  0  0  0  0  0  0  0  0  0
   -5.0535   14.3974  -32.9054 H   0  0  0  0  0  0  0  0  0  0  0  0
   -4.0072   15.8575  -32.9054 H   0  0  0  0  0  0  0  0  0  0  0  0
   -8.1757   16.9574  -31.7983 H   0  0  0  0  0  0  0  0  0  0  0  0
   -8.8094   19.3039  -31.2852 H   0  0  0  0  0  0  0  0  0  0  0  0
   -8.5249   21.7334  -32.1746 H   0  0  0  0  0  0  0  0  0  0  0  0
   -7.3163   21.7100  -30.8176 H   0  0  0  0  0  0  0  0  0  0  0  0
   -6.9020   22.5830  -33.6130 H   0  0  0  0  0  0  0  0  0  0  0  0
   -5.6380   22.3170  -32.5320 H   0  0  0  0  0  0  0  0  0  0  0  0
   -6.9603   24.6462  -32.9055 H   0  0  0  0  0  0  0  0  0  0  0  0
   -7.6662   23.9544  -31.3819 H   0  0  0  0  0  0  0  0  0  0  0  0
   -5.9428   26.5731  -31.0517 H   0  0  0  0  0  0  0  0  0  0  0  0
   -2.5008   22.0216  -30.5536 H   0  0  0  0  0  0  0  0  0  0  0  0
   -0.4380   21.2421  -29.3888 H   0  0  0  0  0  0  0  0  0  0  0  0
   -0.2933   24.9464  -27.1559 H   0  0  0  0  0  0  0  0  0  0  0  0
   -2.3623   25.7274  -28.3078 H   0  0  0  0  0  0  0  0  0  0  0  0
   -3.4975   20.8753  -31.8985 H   0  0  0  0  0  0  0  0  0  0  0  0
   -3.2029   19.9641  -33.4182 H   0  0  0  0  0  0  0  0  0  0  0  0
   -3.1280   21.7588  -33.4182 H   0  0  0  0  0  0  0  0  0  0  0  0
   -4.7175   16.3993  -35.0543 H   0  0  0  0  0  0  0  0  0  0  0  0
   -5.4488   17.7822  -35.9372 H   0  0  0  0  0  0  0  0  0  0  0  0
   -3.6666   17.5580  -35.9372 H   0  0  0  0  0  0  0  0  0  0  0  0
  1  2  1  0
  2  3  1  0
  3  4  2  0
  4  5  1  0
  5  6  2  0
  6  7  1  0
  7  8  1  0
  8  9  1  0
  9 10  1  0
 10 11  2  0
 11 12  1  0
 12 13  1  0
 13 14  1  0
 14 15  2  0
 15 16  1  0
 16 17  2  0
 17 18  1  0
 17 19  1  0
 19 20  2  0
 13 21  2  0
  6 22  1  0
 22 23  1  0
 23 24  1  0
 22 25  2  0
 25 26  1  0
 26 27  1  0
 25  3  1  0
 21 10  1  0
 20 14  1  0
  1 28  1  0
  1 29  1  0
  1 30  1  0
  4 31  1  0
  5 32  1  0
  7 33  1  0
  7 34  1  0
  8 35  1  0
  8 36  1  0
  9 37  1  0
  9 38  1  0
 11 39  1  0
 15 40  1  0
 16 41  1  0
 19 42  1  0
 20 43  1  0
 24 44  1  0
 24 45  1  0
 24 46  1  0
 27 47  1  0
 27 48  1  0
 27 49  1  0
M  CHG  1   8   1
M  END
>  <UniqueID>  (45) 
38

>  <SMILES>  (45) 
COc1ccc(C[NH2+]Cc2coc(-c3ccc(Cl)cc3)n2)c(OC)c1OC

>  <Energy>  (45) 
88.63573128509188

>  <Genealogy>  (45) 
COc1ccc(C[NH2+]Cc2coc(-c3ccc(Cl)cc3)n2)c(OC)c1OC (protonated)
COc1ccc(C[NH2+]Cc2coc(-c3ccc(Cl)cc3)n2)c(OC)c1OC (3D coordinates assigned)
COc1ccc(C[NH2+]Cc2coc(-c3ccc(Cl)cc3)n2)c(OC)c1OC (optimized conformer: 88.63573128509188 kcal/mol)

>  <smiles>  (45) 
COc1ccc(CNCc2coc(-c3ccc(Cl)cc3)n2)c(OC)c1OC

>  <score_type>  (45) 
oracle

>  <origin>  (45) 
adg

>  <m_score__min__energy>  (45) 
-7.4100000000000001

>  <m_primary>  (45) 
energy

$$$$
45:0
     RDKit          3D

 26 28  0  0  0  0  0  0  0  0999 V2000
   -9.3820   18.2620  -31.9340 O   0  0  0  0  0  0  0  0  0  0  0  0
   -9.2100   19.2880  -32.6450 C   0  0  0  0  0  0  0  0  0  0  0  0
   -8.4700   20.4540  -32.1310 C   0  0  0  0  0  0  0  0  0  0  0  0
   -9.1040   21.7240  -32.1000 C   0  0  0  0  0  0  0  0  0  0  0  0
   -8.4210   22.8550  -31.6150 C   0  0  0  0  0  0  0  0  0  0  0  0
   -7.1130   22.6780  -31.1720 C   0  0  0  0  0  0  0  0  0  0  0  0
   -6.2730   23.5940  -30.6740 N   0  0  0  0  0  0  0  0  0  0  0  0
   -5.1370   22.8910  -30.4020 C   0  0  0  0  0  0  0  0  0  0  0  0
   -3.8800   23.4610  -29.8230 C   0  0  0  0  0  0  0  0  0  0  0  0
   -2.9940   22.5920  -29.1560 C   0  0  0  0  0  0  0  0  0  0  0  0
   -1.8100   23.0700  -28.5970 C   0  0  0  0  0  0  0  0  0  0  0  0
   -1.5040   24.4230  -28.7040 C   0  0  0  0  0  0  0  0  0  0  0  0
   -2.3560   25.2610  -29.3450 N   0  0  0  0  0  0  0  0  0  0  0  0
   -3.5200   24.8290  -29.9020 C   0  0  0  0  0  0  0  0  0  0  0  0
   -4.2540   25.6710  -30.4780 O   0  0  0  0  0  0  0  0  0  0  0  0
   -5.2490   21.5700  -30.7170 N   0  0  0  0  0  0  0  0  0  0  0  0
   -6.4980   21.4670  -31.1970 C   0  0  0  0  0  0  0  0  0  0  0  0
   -7.1390   20.3240  -31.6690 C   0  0  0  0  0  0  0  0  0  0  0  0
   -9.6189   19.3137  -33.6659 H   0  0  0  0  0  0  0  0  0  0  0  0
  -10.1390   21.8250  -32.4585 H   0  0  0  0  0  0  0  0  0  0  0  0
   -8.9033   23.8432  -31.5870 H   0  0  0  0  0  0  0  0  0  0  0  0
   -6.4880   24.6040  -30.5430 H   0  0  0  0  0  0  0  0  0  0  0  0
   -3.2397   21.5228  -29.0754 H   0  0  0  0  0  0  0  0  0  0  0  0
   -1.1247   22.3847  -28.0767 H   0  0  0  0  0  0  0  0  0  0  0  0
   -0.5718   24.8126  -28.2690 H   0  0  0  0  0  0  0  0  0  0  0  0
   -6.6265   19.3508  -31.6822 H   0  0  0  0  0  0  0  0  0  0  0  0
  1  2  2  0
  2  3  1  0
  3  4  2  0
  4  5  1  0
  5  6  2  0
  6  7  1  0
  7  8  1  0
  8  9  1  0
  9 10  2  0
 10 11  1  0
 11 12  2  0
 12 13  1  0
 13 14  1  0
 14 15  2  0
  8 16  2  0
 16 17  1  0
 17 18  2  0
 18  3  1  0
 17  6  1  0
 14  9  1  0
  2 19  1  0
  4 20  1  0
  5 21  1  0
  7 22  1  0
 10 23  1  0
 11 24  1  0
 12 25  1  0
 18 26  1  0
M  CHG  1  13  -1
M  END
>  <UniqueID>  (46) 
39

>  <SMILES>  (46) 
O=Cc1ccc2[nH]c(-c3ccc[n-]c3=O)nc2c1

>  <Energy>  (46) 
70.94468821571539

>  <Genealogy>  (46) 
O=Cc1ccc2[nH]c(-c3ccc[n-]c3=O)nc2c1 (protonated)
O=Cc1ccc2[nH]c(-c3ccc[n-]c3=O)nc2c1 (3D coordinates assigned)
O=Cc1ccc2[nH]c(-c3ccc[n-]c3=O)nc2c1 (optimized conformer: 70.94468821571539 kcal/mol)

>  <smiles>  (46) 
O=Cc1ccc2[nH]c(-c3ccc[nH]c3=O)nc2c1

>  <score_type>  (46) 
oracle

>  <origin>  (46) 
adg

>  <m_score__min__energy>  (46) 
-8.6899999999999995

>  <m_primary>  (46) 
energy

$$$$
46:0
     RDKit          3D

 48 51  0  0  0  0  0  0  0  0999 V2000
   -6.7640   15.9820  -33.8650 C   0  0  0  0  0  0  0  0  0  0  0  0
   -6.8240   16.8700  -32.7530 O   0  0  0  0  0  0  0  0  0  0  0  0
   -6.7770   18.2700  -32.8500 C   0  0  0  0  0  0  0  0  0  0  0  0
   -7.7450   19.0930  -32.2410 C   0  0  0  0  0  0  0  0  0  0  0  0
   -7.6650   20.4890  -32.3540 C   0  0  0  0  0  0  0  0  0  0  0  0
   -8.6400   21.3700  -31.6100 C   0  0  0  0  0  0  0  0  0  0  0  0
   -8.1190   21.7650  -30.2900 N   0  0  0  0  0  0  0  0  0  0  0  0
   -7.0570   22.7360  -30.4120 C   0  0  0  0  0  0  0  0  0  0  0  0
   -7.1050   23.7230  -31.4350 C   0  0  0  0  0  0  0  0  0  0  0  0
   -6.0460   24.6340  -31.6020 C   0  0  0  0  0  0  0  0  0  0  0  0
   -4.9600   24.5310  -30.7390 C   0  0  0  0  0  0  0  0  0  0  0  0
   -3.8490   25.2830  -30.7280 N   0  0  0  0  0  0  0  0  0  0  0  0
   -3.1500   24.7380  -29.6990 C   0  0  0  0  0  0  0  0  0  0  0  0
   -2.0210   25.1710  -29.3500 O   0  0  0  0  0  0  0  0  0  0  0  0
   -3.7550   23.6960  -29.0740 N   0  0  0  0  0  0  0  0  0  0  0  0
   -4.9050   23.5900  -29.7580 C   0  0  0  0  0  0  0  0  0  0  0  0
   -5.9310   22.6720  -29.5560 C   0  0  0  0  0  0  0  0  0  0  0  0
   -6.6160   21.0610  -33.0850 C   0  0  0  0  0  0  0  0  0  0  0  0
   -5.6520   20.2530  -33.6870 C   0  0  0  0  0  0  0  0  0  0  0  0
   -5.7180   18.8520  -33.5620 C   0  0  0  0  0  0  0  0  0  0  0  0
   -4.7470   18.0060  -34.1240 O   0  0  0  0  0  0  0  0  0  0  0  0
   -3.4500   17.7660  -33.5780 C   0  0  0  0  0  0  0  0  0  0  0  0
   -2.7750   19.0670  -33.2280 C   0  0  0  0  0  0  0  0  0  0  0  0
   -1.8800   19.6750  -34.1250 C   0  0  0  0  0  0  0  0  0  0  0  0
   -1.2660   20.8860  -33.7920 C   0  0  0  0  0  0  0  0  0  0  0  0
   -1.5350   21.4940  -32.5620 C   0  0  0  0  0  0  0  0  0  0  0  0
   -2.4200   20.8930  -31.6640 C   0  0  0  0  0  0  0  0  0  0  0  0
   -3.0380   19.6830  -31.9940 C   0  0  0  0  0  0  0  0  0  0  0  0
   -6.6940   14.9456  -33.5032 H   0  0  0  0  0  0  0  0  0  0  0  0
   -7.6719   16.0968  -34.4753 H   0  0  0  0  0  0  0  0  0  0  0  0
   -5.8797   16.2179  -34.4753 H   0  0  0  0  0  0  0  0  0  0  0  0
   -8.5695   18.6376  -31.6728 H   0  0  0  0  0  0  0  0  0  0  0  0
   -8.8276   22.2760  -32.2050 H   0  0  0  0  0  0  0  0  0  0  0  0
   -9.5684   20.8005  -31.4560 H   0  0  0  0  0  0  0  0  0  0  0  0
   -7.7850   20.9200  -29.7710 H   0  0  0  0  0  0  0  0  0  0  0  0
   -8.9010   22.1820  -29.7310 H   0  0  0  0  0  0  0  0  0  0  0  0
   -7.9783   23.7745  -32.1018 H   0  0  0  0  0  0  0  0  0  0  0  0
   -6.0758   25.4021  -32.3888 H   0  0  0  0  0  0  0  0  0  0  0  0
   -5.8692   21.9197  -28.7559 H   0  0  0  0  0  0  0  0  0  0  0  0
   -6.5522   22.1546  -33.1848 H   0  0  0  0  0  0  0  0  0  0  0  0
   -4.8353   20.7127  -34.2629 H   0  0  0  0  0  0  0  0  0  0  0  0
   -3.5474   17.1531  -32.6698 H   0  0  0  0  0  0  0  0  0  0  0  0
   -2.8406   17.2397  -34.3275 H   0  0  0  0  0  0  0  0  0  0  0  0
   -1.6621   19.1969  -35.0914 H   0  0  0  0  0  0  0  0  0  0  0  0
   -0.5700   21.3613  -34.4989 H   0  0  0  0  0  0  0  0  0  0  0  0
   -1.0495   22.4460  -32.3014 H   0  0  0  0  0  0  0  0  0  0  0  0
   -2.6309   21.3720  -30.6965 H   0  0  0  0  0  0  0  0  0  0  0  0
   -3.7333   19.2116  -31.2838 H   0  0  0  0  0  0  0  0  0  0  0  0
  1  2  1  0
  2  3  1  0
  3  4  2  0
  4  5  1  0
  5  6  1  0
  6  7  1  0
  7  8  1  0
  8  9  2  0
  9 10  1  0
 10 11  2  0
 11 12  1  0
 12 13  1  0
 13 14  2  0
 13 15  1  0
 15 16  1  0
 16 17  2  0
  5 18  2  0
 18 19  1  0
 19 20  2  0
 20 21  1  0
 21 22  1  0
 22 23  1  0
 23 24  2  0
 24 25  1  0
 25 26  2  0
 26 27  1  0
 27 28  2  0
 20  3  1  0
 28 23  1  0
 17  8  1  0
 16 11  1  0
  1 29  1  0
  1 30  1  0
  1 31  1  0
  4 32  1  0
  6 33  1  0
  6 34  1  0
  7 35  1  0
  7 36  1  0
  9 37  1  0
 10 38  1  0
 17 39  1  0
 18 40  1  0
 19 41  1  0
 22 42  1  0
 22 43  1  0
 24 44  1  0
 25 45  1  0
 26 46  1  0
 27 47  1  0
 28 48  1  0
M  CHG  3   7   1  12  -1  15  -1
M  END
>  <UniqueID>  (47) 
40

>  <SMILES>  (47) 
COc1cc(C[NH2+]c2ccc3[n-]c(=O)[n-]c3c2)ccc1OCc1ccccc1

>  <Energy>  (47) 
84.53253487908775

>  <Genealogy>  (47) 
COc1cc(C[NH2+]c2ccc3[n-]c(=O)[n-]c3c2)ccc1OCc1ccccc1 (protonated)
COc1cc(C[NH2+]c2ccc3[n-]c(=O)[n-]c3c2)ccc1OCc1ccccc1 (3D coordinates assigned)
COc1cc(C[NH2+]c2ccc3[n-]c(=O)[n-]c3c2)ccc1OCc1ccccc1 (optimized conformer: 84.53253487908775 kcal/mol)

>  <smiles>  (47) 
COc1cc(CNc2ccc3[nH]c(=O)[nH]c3c2)ccc1OCc1ccccc1

>  <score_type>  (47) 
oracle

>  <origin>  (47) 
adg

>  <m_score__min__energy>  (47) 
-9.7799999999999994

>  <m_primary>  (47) 
energy

$$$$
47:0
     RDKit          3D

 44 47  0  0  0  0  0  0  0  0999 V2000
   -1.2439   25.5333  -24.2636 H   0  0  0  0  0  0  0  0  0  0  0  0
   -1.6740   25.5400  -25.2760 C   0  0  0  0  0  0  0  0  0  0  0  0
   -2.2805   26.4478  -25.4107 H   0  0  0  0  0  0  0  0  0  0  0  0
   -2.3086   24.6517  -25.4107 H   0  0  0  0  0  0  0  0  0  0  0  0
   -0.5880   25.5230  -26.2710 N   0  0  0  0  0  0  0  0  0  0  0  0
   -1.0770   25.8400  -27.6270 C   0  0  0  0  0  0  0  0  0  0  0  0
   -0.2193   26.1410  -28.2464 H   0  0  0  0  0  0  0  0  0  0  0  0
   -1.8179   26.6469  -27.5269 H   0  0  0  0  0  0  0  0  0  0  0  0
   -1.7670   24.6790  -28.2960 C   0  0  0  0  0  0  0  0  0  0  0  0
   -2.5430   24.9230  -29.3840 N   0  0  0  0  0  0  0  0  0  0  0  0
   -3.1300   23.9140  -30.0790 C   0  0  0  0  0  0  0  0  0  0  0  0
   -3.8720   24.1610  -31.1160 N   0  0  0  0  0  0  0  0  0  0  0  0
   -5.2890   23.8240  -31.2060 C   0  0  0  0  0  0  0  0  0  0  0  0
   -5.5261   23.5034  -32.2312 H   0  0  0  0  0  0  0  0  0  0  0  0
   -5.5187   23.0069  -30.5062 H   0  0  0  0  0  0  0  0  0  0  0  0
   -6.1230   25.0520  -30.8500 C   0  0  2  0  0  0  0  0  0  0  0  0
   -6.9386   24.8629  -31.5635 H   0  0  0  0  0  0  0  0  0  0  0  0
   -5.3140   26.1320  -30.4450 O   0  0  0  0  0  0  0  0  0  0  0  0
   -6.0790   25.5030  -29.4400 C   0  0  0  0  0  0  0  0  0  0  0  0
   -6.9426   26.0192  -28.9954 H   0  0  0  0  0  0  0  0  0  0  0  0
   -5.8687   25.0322  -28.4683 H   0  0  0  0  0  0  0  0  0  0  0  0
   -2.9380   22.6300  -29.6890 N   0  0  0  0  0  0  0  0  0  0  0  0
   -2.1730   22.3200  -28.6100 C   0  0  0  0  0  0  0  0  0  0  0  0
   -2.0190   20.9390  -28.2470 N   0  0  0  0  0  0  0  0  0  0  0  0
   -0.8580   20.1610  -28.6830 C   0  0  0  0  0  0  0  0  0  0  0  0
   -1.1538   19.4839  -29.4979 H   0  0  0  0  0  0  0  0  0  0  0  0
   -0.0715   20.8407  -29.0428 H   0  0  0  0  0  0  0  0  0  0  0  0
   -0.3290   19.3410  -27.5020 C   0  0  0  0  0  0  0  0  0  0  0  0
    0.4588   18.6613  -27.8590 H   0  0  0  0  0  0  0  0  0  0  0  0
    0.0741   20.0310  -26.7461 H   0  0  0  0  0  0  0  0  0  0  0  0
   -1.3680   18.5790  -26.9130 O   0  0  0  0  0  0  0  0  0  0  0  0
   -2.3340   19.4430  -26.3410 C   0  0  0  0  0  0  0  0  0  0  0  0
   -3.0862   18.8412  -25.8100 H   0  0  0  0  0  0  0  0  0  0  0  0
   -1.8266   20.1256  -25.6434 H   0  0  0  0  0  0  0  0  0  0  0  0
   -3.0300   20.2760  -27.4230 C   0  0  0  0  0  0  0  0  0  0  0  0
   -3.6451   19.6181  -28.0545 H   0  0  0  0  0  0  0  0  0  0  0  0
   -3.6734   21.0321  -26.9494 H   0  0  0  0  0  0  0  0  0  0  0  0
   -1.5380   23.3520  -27.8860 C   0  0  0  0  0  0  0  0  0  0  0  0
   -0.6770   23.0550  -26.6820 C   0  0  0  0  0  0  0  0  0  0  0  0
   -0.0070   22.2171  -26.9250 H   0  0  0  0  0  0  0  0  0  0  0  0
   -1.3458   22.8069  -25.8447 H   0  0  0  0  0  0  0  0  0  0  0  0
    0.1750   24.2610  -26.2590 C   0  0  0  0  0  0  0  0  0  0  0  0
    1.0230   24.3548  -26.9533 H   0  0  0  0  0  0  0  0  0  0  0  0
    0.5145   24.0853  -25.2276 H   0  0  0  0  0  0  0  0  0  0  0  0
  1  2  1  0
  2  3  1  0
  2  4  1  0
  2  5  1  0
  5  6  1  0
  6  7  1  0
  6  8  1  0
  6  9  1  0
  9 10  1  0
 10 11  1  0
 11 12  2  0
 12 13  1  0
 13 14  1  0
 13 15  1  0
 13 16  1  0
 16 17  1  6
 16 18  1  0
 18 19  1  0
 19 20  1  0
 19 21  1  0
 11 22  1  0
 22 23  2  0
 23 24  1  0
 24 25  1  0
 25 26  1  0
 25 27  1  0
 25 28  1  0
 28 29  1  0
 28 30  1  0
 28 31  1  0
 31 32  1  0
 32 33  1  0
 32 34  1  0
 32 35  1  0
 35 36  1  0
 35 37  1  0
 23 38  1  0
 38 39  1  0
 39 40  1  0
 39 41  1  0
 39 42  1  0
 42 43  1  0
 42 44  1  0
 42  5  1  0
 38  9  2  0
 19 16  1  0
 35 24  1  0
M  CHG  1  10  -1
M  END
>  <UniqueID>  (48) 
41

>  <SMILES>  (48) 
CN1CCc2c(N3CCOCC3)n/c(=N/C[C@H]3CO3)[n-]c2C1

>  <Energy>  (48) 
385.85205594934934

>  <Genealogy>  (48) 
CN1CCc2c(N3CCOCC3)nc(=NCC3CO3)[n-]c2C1 (protonated)
CN1CCc2c(N3CCOCC3)nc(=NC[C@H]3CO3)[n-]c2C1 (chirality)
CN1CCc2c(N3CCOCC3)n/c(=N/C[C@H]3CO3)[n-]c2C1 (cis-trans isomerization)
CN1CCc2c(N3CCOCC3)n/c(=N/C[C@H]3CO3)[n-]c2C1 (3D coordinates assigned)
CN1CCc2c(N3CCOCC3)n/c(=N/C[C@H]3CO3)[n-]c2C1 (nonaromatic ring conformer: 385.85205594934934 kcal/mol)

>  <smiles>  (48) 
CN1CCc2c(N3CCOCC3)nc(=NCC3CO3)[nH]c2C1

>  <score_type>  (48) 
oracle

>  <origin>  (48) 
adg

>  <m_score__min__energy>  (48) 
-7.9299999999999997

>  <m_primary>  (48) 
energy

$$$$
48:0
     RDKit          3D

 30 32  0  0  0  0  0  0  0  0999 V2000
   -7.9809   17.1920  -32.8463 H   0  0  0  0  0  0  0  0  0  0  0  0
   -8.0020   18.2480  -32.5390 C   0  0  0  0  0  0  0  0  0  0  0  0
   -9.1240   18.9910  -32.7190 N   0  0  0  0  0  0  0  0  0  0  0  0
   -9.1760   20.2920  -32.3350 C   0  0  0  0  0  0  0  0  0  0  0  0
  -10.0909   20.8805  -32.4982 H   0  0  0  0  0  0  0  0  0  0  0  0
   -8.0550   20.8830  -31.7280 C   0  0  0  0  0  0  0  0  0  0  0  0
   -8.0730   22.3340  -31.3150 C   0  0  0  0  0  0  0  0  0  0  0  0
   -9.0293   22.5489  -30.8158 H   0  0  0  0  0  0  0  0  0  0  0  0
   -7.9495   22.9457  -32.2209 H   0  0  0  0  0  0  0  0  0  0  0  0
   -6.9790   22.6590  -30.3990 N   0  0  0  0  0  0  0  0  0  0  0  0
   -5.9000   23.3970  -30.4910 C   0  0  0  0  0  0  0  0  0  0  0  0
   -6.1220   24.7340  -30.8540 C   0  0  0  0  0  0  0  0  0  0  0  0
   -7.1225   25.0469  -31.1874 H   0  0  0  0  0  0  0  0  0  0  0  0
   -5.0950   25.6680  -30.7980 C   0  0  0  0  0  0  0  0  0  0  0  0
   -5.2895   26.7142  -31.0767 H   0  0  0  0  0  0  0  0  0  0  0  0
   -3.8570   25.2950  -30.4020 N   0  0  0  0  0  0  0  0  0  0  0  0
   -3.5600   24.0080  -30.0910 C   0  0  0  0  0  0  0  0  0  0  0  0
   -2.2470   23.6940  -29.7200 C   0  0  0  0  0  0  0  0  0  0  0  0
   -1.4984   24.4946  -29.6272 H   0  0  0  0  0  0  0  0  0  0  0  0
   -1.8840   22.3740  -29.4680 C   0  0  0  0  0  0  0  0  0  0  0  0
   -0.2340   21.9870  -29.0120 Cl  0  0  0  0  0  0  0  0  0  0  0  0
   -2.8220   21.3570  -29.6190 C   0  0  0  0  0  0  0  0  0  0  0  0
   -2.5267   20.3111  -29.4487 H   0  0  0  0  0  0  0  0  0  0  0  0
   -4.1380   21.6570  -29.9860 C   0  0  0  0  0  0  0  0  0  0  0  0
   -4.8574   20.8381  -30.1341 H   0  0  0  0  0  0  0  0  0  0  0  0
   -4.5600   22.9930  -30.1700 C   0  0  0  0  0  0  0  0  0  0  0  0
   -6.9200   20.1400  -31.5780 N   0  0  0  0  0  0  0  0  0  0  0  0
   -6.0640   20.5680  -31.1570 H   0  0  0  0  0  0  0  0  0  0  0  0
   -6.8760   18.8350  -31.9610 C   0  0  0  0  0  0  0  0  0  0  0  0
   -5.9581   18.2464  -31.8158 H   0  0  0  0  0  0  0  0  0  0  0  0
  1  2  1  0
  2  3  2  0
  3  4  1  0
  4  5  1  0
  4  6  2  0
  6  7  1  0
  7  8  1  0
  7  9  1  0
  7 10  1  0
 10 11  2  0
 11 12  1  0
 12 13  1  0
 12 14  2  0
 14 15  1  0
 14 16  1  0
 16 17  1  0
 17 18  2  0
 18 19  1  0
 18 20  1  0
 20 21  1  0
 20 22  2  0
 22 23  1  0
 22 24  1  0
 24 25  1  0
 24 26  2  0
  6 27  1  0
 27 28  1  0
 27 29  2  0
 29 30  1  0
 29  2  1  0
 26 11  1  0
 26 17  1  0
M  CHG  2  16  -1  27   1
M  END
>  <UniqueID>  (49) 
42

>  <SMILES>  (49) 
Clc1ccc2/c(=N\Cc3cncc[nH+]3)cc[n-]c2c1

>  <Energy>  (49) 
53.564057468459744

>  <Genealogy>  (49) 
Clc1ccc2c(=NCc3cncc[nH+]3)cc[n-]c2c1 (protonated)
Clc1ccc2/c(=N\Cc3cncc[nH+]3)cc[n-]c2c1 (cis-trans isomerization)
Clc1ccc2/c(=N\Cc3cncc[nH+]3)cc[n-]c2c1 (3D coordinates assigned)
Clc1ccc2/c(=N\Cc3cncc[nH+]3)cc[n-]c2c1 (optimized conformer: 53.564057468459744 kcal/mol)

>  <smiles>  (49) 
Clc1ccc2c(=NCc3cnccn3)cc[nH]c2c1

>  <score_type>  (49) 
oracle

>  <origin>  (49) 
adg

>  <m_score__min__energy>  (49) 
-7.7400000000000002

>  <m_primary>  (49) 
energy

$$$$
