0:0
     RDKit          3D

 40 42  0  0  0  0  0  0  0  0999 V2000
   -9.6830   21.5750  -31.5590 C   0  0  0  0  0  0  0  0  0  0  0  0
   -9.0780   20.2660  -32.0200 C   0  0  0  0  0  0  0  0  0  0  0  0
   -7.6200   20.1410  -31.6590 C   0  0  0  0  0  0  0  0  0  0  0  0
   -6.8000   19.4270  -32.6450 C   0  0  0  0  0  0  0  0  0  0  0  0
   -7.1720   18.1080  -32.9210 C   0  0  0  0  0  0  0  0  0  0  0  0
   -6.5070   17.3250  -33.8310 C   0  0  0  0  0  0  0  0  0  0  0  0
   -5.4460   17.8830  -34.4770 C   0  0  0  0  0  0  0  0  0  0  0  0
   -5.0700   19.1960  -34.2070 C   0  0  0  0  0  0  0  0  0  0  0  0
   -5.7010   20.0200  -33.3040 C   0  0  0  0  0  0  0  0  0  0  0  0
   -5.4000   21.2780  -32.9780 O   0  0  0  0  0  0  0  0  0  0  0  0
   -4.5940   21.8320  -32.0700 C   0  0  0  0  0  0  0  0  0  0  0  0
   -3.3110   21.4580  -31.7230 C   0  0  0  0  0  0  0  0  0  0  0  0
   -2.5510   22.1250  -30.7520 C   0  0  0  0  0  0  0  0  0  0  0  0
   -3.0560   23.2030  -30.0870 C   0  0  0  0  0  0  0  0  0  0  0  0
   -4.3230   23.6000  -30.4030 C   0  0  0  0  0  0  0  0  0  0  0  0
   -4.8040   24.6780  -29.7260 N   0  0  0  0  0  0  0  0  0  0  0  0
   -6.0210   25.1490  -29.9550 C   0  0  0  0  0  0  0  0  0  0  0  0
   -6.4880   26.1570  -29.3300 N   0  0  0  0  0  0  0  0  0  0  0  0
   -6.7780   24.5370  -30.8770 N   0  0  0  0  0  0  0  0  0  0  0  0
   -6.3360   23.4660  -31.5700 C   0  0  0  0  0  0  0  0  0  0  0  0
   -7.1320   22.9610  -32.4260 N   0  0  0  0  0  0  0  0  0  0  0  0
   -5.0810   22.9480  -31.3610 C   0  0  0  0  0  0  0  0  0  0  0  0
   -9.6970   21.6054  -30.4595 H   0  0  0  0  0  0  0  0  0  0  0  0
   -9.0805   22.4122  -31.9413 H   0  0  0  0  0  0  0  0  0  0  0  0
  -10.7111   21.6586  -31.9413 H   0  0  0  0  0  0  0  0  0  0  0  0
   -9.6293   19.4384  -31.5498 H   0  0  0  0  0  0  0  0  0  0  0  0
   -9.1531   20.2329  -33.1169 H   0  0  0  0  0  0  0  0  0  0  0  0
   -7.2086   21.1544  -31.5415 H   0  0  0  0  0  0  0  0  0  0  0  0
   -7.5801   19.5461  -30.7346 H   0  0  0  0  0  0  0  0  0  0  0  0
   -8.0331   17.6801  -32.3868 H   0  0  0  0  0  0  0  0  0  0  0  0
   -6.8183   16.2890  -34.0304 H   0  0  0  0  0  0  0  0  0  0  0  0
   -4.8833   17.2934  -35.2158 H   0  0  0  0  0  0  0  0  0  0  0  0
   -4.2073   19.6034  -34.7545 H   0  0  0  0  0  0  0  0  0  0  0  0
   -2.8627   20.5933  -32.2341 H   0  0  0  0  0  0  0  0  0  0  0  0
   -1.5338   21.7741  -30.5235 H   0  0  0  0  0  0  0  0  0  0  0  0
   -2.4649   23.7323  -29.3251 H   0  0  0  0  0  0  0  0  0  0  0  0
   -4.2000   25.1560  -28.9980 H   0  0  0  0  0  0  0  0  0  0  0  0
   -5.9250   26.7550  -28.6920 H   0  0  0  0  0  0  0  0  0  0  0  0
   -7.7530   24.9100  -31.0650 H   0  0  0  0  0  0  0  0  0  0  0  0
   -6.8630   22.8000  -33.4140 H   0  0  0  0  0  0  0  0  0  0  0  0
  1  2  1  0
  2  3  1  0
  3  4  1  0
  4  5  2  0
  5  6  1  0
  6  7  2  0
  7  8  1  0
  8  9  2  0
  9 10  1  0
 10 11  1  0
 11 12  2  0
 12 13  1  0
 13 14  2  0
 14 15  1  0
 15 16  1  0
 16 17  1  0
 17 18  2  3
 17 19  1  0
 19 20  1  0
 20 21  2  3
 20 22  1  0
  9  4  1  0
 22 11  1  0
 22 15  2  0
  1 23  1  0
  1 24  1  0
  1 25  1  0
  2 26  1  0
  2 27  1  0
  3 28  1  0
  3 29  1  0
  5 30  1  0
  6 31  1  0
  7 32  1  0
  8 33  1  0
 12 34  1  0
 13 35  1  0
 14 36  1  0
 16 37  1  0
 18 38  1  0
 19 39  1  0
 21 40  1  0
M  END
>  <smiles>  (1) 
CCCc1ccccc1Oc1cccc2[nH]c(=N)[nH]c(=N)c12

>  <score_type>  (1) 
oracle

>  <origin>  (1) 
adg

>  <m_score__min__energy>  (1) 
-7.7699999999999996

>  <m_primary>  (1) 
energy

$$$$
1:0
     RDKit          3D

 33 34  0  0  0  0  0  0  0  0999 V2000
   -8.2281   23.1614  -32.6682 H   0  0  0  0  0  0  0  0  0  0  0  0
   -7.5880   22.5780  -31.9900 C   0  0  0  0  0  0  0  0  0  0  0  0
   -7.9300   21.2990  -31.7670 C   0  0  0  0  0  0  0  0  0  0  0  0
   -8.6927   21.1002  -30.9997 H   0  0  0  0  0  0  0  0  0  0  0  0
   -7.3530   20.1370  -32.4810 C   0  0  0  0  0  0  0  0  0  0  0  0
   -6.2670   20.3750  -33.3350 C   0  0  0  0  0  0  0  0  0  0  0  0
   -5.8966   21.4000  -33.4837 H   0  0  0  0  0  0  0  0  0  0  0  0
   -5.6590   19.3110  -33.9940 C   0  0  0  0  0  0  0  0  0  0  0  0
   -4.8023   19.4909  -34.6601 H   0  0  0  0  0  0  0  0  0  0  0  0
   -6.1390   18.0190  -33.8070 C   0  0  0  0  0  0  0  0  0  0  0  0
   -5.6531   17.1690  -34.3084 H   0  0  0  0  0  0  0  0  0  0  0  0
   -7.2410   17.8100  -32.9790 C   0  0  0  0  0  0  0  0  0  0  0  0
   -7.6201   16.7885  -32.8281 H   0  0  0  0  0  0  0  0  0  0  0  0
   -7.8580   18.8590  -32.3510 N   0  0  0  0  0  0  0  0  0  0  0  0
   -9.0470   18.5660  -31.5380 C   0  0  0  0  0  0  0  0  0  0  0  0
   -8.7866   18.6302  -30.4712 H   0  0  0  0  0  0  0  0  0  0  0  0
   -9.8370   19.2963  -31.7672 H   0  0  0  0  0  0  0  0  0  0  0  0
   -9.4072   17.5522  -31.7672 H   0  0  0  0  0  0  0  0  0  0  0  0
   -6.4190   23.2670  -31.3970 C   0  0  0  0  0  0  0  0  0  0  0  0
   -6.5970   24.5430  -30.8410 C   0  0  0  0  0  0  0  0  0  0  0  0
   -7.5937   25.0083  -30.8499 H   0  0  0  0  0  0  0  0  0  0  0  0
   -5.5170   25.2270  -30.2760 C   0  0  0  0  0  0  0  0  0  0  0  0
   -5.6713   26.2197  -29.8279 H   0  0  0  0  0  0  0  0  0  0  0  0
   -4.2330   24.6510  -30.2780 C   0  0  0  0  0  0  0  0  0  0  0  0
   -3.1180   25.2950  -29.7210 O   0  0  0  0  0  0  0  0  0  0  0  0
   -2.3280   24.7640  -28.6620 C   0  0  0  0  0  0  0  0  0  0  0  0
   -2.7647   25.0575  -27.6960 H   0  0  0  0  0  0  0  0  0  0  0  0
   -2.3055   23.6667  -28.7359 H   0  0  0  0  0  0  0  0  0  0  0  0
   -1.3035   25.1575  -28.7359 H   0  0  0  0  0  0  0  0  0  0  0  0
   -4.0500   23.3920  -30.8600 C   0  0  0  0  0  0  0  0  0  0  0  0
   -3.0484   22.9374  -30.8732 H   0  0  0  0  0  0  0  0  0  0  0  0
   -5.1300   22.7070  -31.4250 C   0  0  0  0  0  0  0  0  0  0  0  0
   -4.9702   21.7248  -31.8938 H   0  0  0  0  0  0  0  0  0  0  0  0
  1  2  1  0
  2  3  2  0
  3  4  1  0
  3  5  1  0
  5  6  2  0
  6  7  1  0
  6  8  1  0
  8  9  1  0
  8 10  2  0
 10 11  1  0
 10 12  1  0
 12 13  1  0
 12 14  2  0
 14 15  1  0
 15 16  1  0
 15 17  1  0
 15 18  1  0
  2 19  1  0
 19 20  2  0
 20 21  1  0
 20 22  1  0
 22 23  1  0
 22 24  2  0
 24 25  1  0
 25 26  1  0
 26 27  1  0
 26 28  1  0
 26 29  1  0
 24 30  1  0
 30 31  1  0
 30 32  2  0
 32 33  1  0
 14  5  1  0
 32 19  1  0
M  CHG  1  14   1
M  END
>  <UniqueID>  (2) 
1

>  <SMILES>  (2) 
COc1ccc(/C=C\c2cccc[n+]2C)cc1

>  <Energy>  (2) 
45.909136264238015

>  <Genealogy>  (2) 
COc1ccc(/C=C\c2cccc[n+]2C)cc1 (cis-trans isomerization)
COc1ccc(/C=C\c2cccc[n+]2C)cc1 (3D coordinates assigned)
COc1ccc(/C=C\c2cccc[n+]2C)cc1 (optimized conformer: 45.909136264238015 kcal/mol)

>  <smiles>  (2) 
COc1ccc(C=Cc2cccc[n+]2C)cc1

>  <score_type>  (2) 
oracle

>  <origin>  (2) 
adg

>  <m_score__min__energy>  (2) 
-7.0199999999999996

>  <m_primary>  (2) 
energy

$$$$
2:0
     RDKit          3D

 57 60  0  0  0  0  0  0  0  0999 V2000
   -2.3950   24.9290  -26.8410 C   0  0  0  0  0  0  0  0  0  0  0  0
   -1.9390   25.3010  -28.5640 S   0  0  0  0  0  0  0  0  0  0  0  0
   -3.3460   24.4210  -29.2500 C   0  0  0  0  0  0  0  0  0  0  0  0
   -3.9590   24.8860  -30.4250 C   0  0  0  0  0  0  0  0  0  0  0  0
   -5.0570   24.2000  -30.9620 C   0  0  0  0  0  0  0  0  0  0  0  0
   -5.5760   23.0740  -30.3040 C   0  0  0  0  0  0  0  0  0  0  0  0
   -6.6620   22.2930  -30.9210 C   0  0  0  0  0  0  0  0  0  0  0  0
   -7.9570   22.4800  -30.3950 C   0  0  0  0  0  0  0  0  0  0  0  0
   -9.0390   21.7420  -30.8720 C   0  0  0  0  0  0  0  0  0  0  0  0
   -8.8420   20.8000  -31.8770 C   0  0  0  0  0  0  0  0  0  0  0  0
   -7.5690   20.6090  -32.4220 C   0  0  0  0  0  0  0  0  0  0  0  0
   -6.4590   21.3730  -31.9880 C   0  0  0  0  0  0  0  0  0  0  0  0
   -5.1160   21.1430  -32.7000 C   0  0  2  0  0  0  0  0  0  0  0  0
   -5.0620   19.7970  -33.4840 C   0  0  0  0  0  0  0  0  0  0  0  0
   -3.9350   18.8440  -33.0730 C   0  0  0  0  0  0  0  0  0  0  0  0
   -2.6680   19.6020  -32.6980 C   0  0  0  0  0  0  0  0  0  0  0  0
   -2.9210   20.4610  -31.5250 N   0  0  1  0  0  0  0  0  0  0  0  0
   -1.6540   21.0430  -31.0130 C   0  0  0  0  0  0  0  0  0  0  0  0
   -1.5620   20.9970  -29.5080 C   0  0  0  0  0  0  0  0  0  0  0  0
   -0.6440   21.8050  -28.8190 C   0  0  0  0  0  0  0  0  0  0  0  0
   -0.5820   21.7390  -27.4260 C   0  0  0  0  0  0  0  0  0  0  0  0
   -1.4330   20.8740  -26.7320 C   0  0  0  0  0  0  0  0  0  0  0  0
   -2.3380   20.0770  -27.4480 C   0  0  0  0  0  0  0  0  0  0  0  0
   -3.2740   19.1560  -26.7280 C   0  0  0  0  0  0  0  0  0  0  0  0
   -2.3800   20.1590  -28.8070 N   0  0  0  0  0  0  0  0  0  0  0  0
   -3.8530   21.5610  -31.8780 C   0  0  0  0  0  0  0  0  0  0  0  0
   -4.9420   22.5940  -29.1440 C   0  0  0  0  0  0  0  0  0  0  0  0
   -3.8350   23.2710  -28.6160 C   0  0  0  0  0  0  0  0  0  0  0  0
   -1.7264   25.4745  -26.1588 H   0  0  0  0  0  0  0  0  0  0  0  0
   -3.4348   25.2398  -26.6616 H   0  0  0  0  0  0  0  0  0  0  0  0
   -2.2993   23.8480  -26.6616 H   0  0  0  0  0  0  0  0  0  0  0  0
   -3.5772   25.7889  -30.9240 H   0  0  0  0  0  0  0  0  0  0  0  0
   -5.5132   24.5450  -31.9016 H   0  0  0  0  0  0  0  0  0  0  0  0
   -8.1157   23.2194  -29.5962 H   0  0  0  0  0  0  0  0  0  0  0  0
  -10.0443   21.9036  -30.4557 H   0  0  0  0  0  0  0  0  0  0  0  0
   -9.6906   20.2038  -32.2437 H   0  0  0  0  0  0  0  0  0  0  0  0
   -7.4268   19.8491  -33.2045 H   0  0  0  0  0  0  0  0  0  0  0  0
   -5.0639   21.8867  -33.5088 H   0  0  0  0  0  0  0  0  0  0  0  0
   -6.0192   19.2767  -33.3321 H   0  0  0  0  0  0  0  0  0  0  0  0
   -4.8668   20.0640  -34.5331 H   0  0  0  0  0  0  0  0  0  0  0  0
   -4.2662   18.2520  -32.2071 H   0  0  0  0  0  0  0  0  0  0  0  0
   -3.7055   18.1931  -33.9295 H   0  0  0  0  0  0  0  0  0  0  0  0
   -1.8712   18.8828  -32.4575 H   0  0  0  0  0  0  0  0  0  0  0  0
   -2.3599   20.2312  -33.5460 H   0  0  0  0  0  0  0  0  0  0  0  0
   -3.3450   19.8850  -30.7640 H   0  0  0  0  0  0  0  0  0  0  0  0
   -0.8103   20.4773  -31.4352 H   0  0  0  0  0  0  0  0  0  0  0  0
   -1.6257   22.0999  -31.3167 H   0  0  0  0  0  0  0  0  0  0  0  0
    0.0210   22.4846  -29.3721 H   0  0  0  0  0  0  0  0  0  0  0  0
    0.1348   22.3662  -26.8757 H   0  0  0  0  0  0  0  0  0  0  0  0
   -1.3932   20.8189  -25.6341 H   0  0  0  0  0  0  0  0  0  0  0  0
   -3.1478   19.2802  -25.6424 H   0  0  0  0  0  0  0  0  0  0  0  0
   -4.3108   19.3958  -27.0064 H   0  0  0  0  0  0  0  0  0  0  0  0
   -3.0509   18.1155  -27.0064 H   0  0  0  0  0  0  0  0  0  0  0  0
   -4.1974   22.0254  -30.9422 H   0  0  0  0  0  0  0  0  0  0  0  0
   -3.2826   22.2394  -32.5295 H   0  0  0  0  0  0  0  0  0  0  0  0
   -5.3161   21.6850  -28.6502 H   0  0  0  0  0  0  0  0  0  0  0  0
   -3.3488   22.8992  -27.7021 H   0  0  0  0  0  0  0  0  0  0  0  0
  1  2  1  0
  2  3  1  0
  3  4  2  0
  4  5  1  0
  5  6  2  0
  6  7  1  0
  7  8  2  0
  8  9  1  0
  9 10  2  0
 10 11  1  0
 11 12  2  0
 12 13  1  0
 13 14  1  0
 14 15  1  0
 15 16  1  0
 16 17  1  0
 17 18  1  0
 18 19  1  0
 19 20  2  0
 20 21  1  0
 21 22  2  0
 22 23  1  0
 23 24  1  0
 23 25  2  0
 17 26  1  0
  6 27  1  0
 27 28  2  0
 28  3  1  0
 12  7  1  0
 26 13  1  0
 25 19  1  0
  1 29  1  0
  1 30  1  0
  1 31  1  0
  4 32  1  0
  5 33  1  0
  8 34  1  0
  9 35  1  0
 10 36  1  0
 11 37  1  0
 13 38  1  6
 14 39  1  0
 14 40  1  0
 15 41  1  0
 15 42  1  0
 16 43  1  0
 16 44  1  0
 17 45  1  1
 18 46  1  0
 18 47  1  0
 20 48  1  0
 21 49  1  0
 22 50  1  0
 24 51  1  0
 24 52  1  0
 24 53  1  0
 26 54  1  0
 26 55  1  0
 27 56  1  0
 28 57  1  0
M  CHG  1  17   1
M  END
>  <UniqueID>  (3) 
2

>  <SMILES>  (3) 
CSc1ccc(-c2ccccc2[C@@H]2CCC[N@@H+](Cc3cccc(C)n3)C2)cc1

>  <Energy>  (3) 
76.67988620822132

>  <Genealogy>  (3) 
CSc1ccc(-c2ccccc2C2CCC[NH+](Cc3cccc(C)n3)C2)cc1 (protonated)
CSc1ccc(-c2ccccc2[C@@H]2CCC[N@@H+](Cc3cccc(C)n3)C2)cc1 (chirality)
CSc1ccc(-c2ccccc2[C@@H]2CCC[N@@H+](Cc3cccc(C)n3)C2)cc1 (3D coordinates assigned)
CSc1ccc(-c2ccccc2[C@@H]2CCC[N@@H+](Cc3cccc(C)n3)C2)cc1 (nonaromatic ring conformer: 76.67988620822132 kcal/mol)

>  <smiles>  (3) 
CSc1ccc(-c2ccccc2C2CCCN(Cc3cccc(C)n3)C2)cc1

>  <score_type>  (3) 
oracle

>  <origin>  (3) 
adg

>  <m_score__min__energy>  (3) 
-8.9299999999999997

>  <m_primary>  (3) 
energy

$$$$
3:0
     RDKit          3D

 37 39  0  0  0  0  0  0  0  0999 V2000
   -9.1060   18.6330  -31.6050 C   0  0  0  0  0  0  0  0  0  0  0  0
   -9.1870   20.1060  -32.6750 S   0  0  0  0  0  0  0  0  0  0  0  0
   -7.7800   20.9220  -31.9000 C   0  0  0  0  0  0  0  0  0  0  0  0
   -8.0040   22.0240  -31.0710 C   0  0  0  0  0  0  0  0  0  0  0  0
   -6.9690   22.6280  -30.4320 N   0  0  0  0  0  0  0  0  0  0  0  0
   -5.6950   22.1580  -30.5660 C   0  0  0  0  0  0  0  0  0  0  0  0
   -4.5960   22.7860  -29.8810 N   0  0  0  0  0  0  0  0  0  0  0  0
   -4.6300   23.1080  -28.4650 C   0  0  0  0  0  0  0  0  0  0  0  0
   -3.2270   23.5880  -28.1180 C   0  0  0  0  0  0  0  0  0  0  0  0
   -2.5630   23.9340  -29.4490 C   0  0  2  0  0  0  0  0  0  0  0  0
   -2.6630   25.2970  -29.6800 F   0  0  0  0  0  0  0  0  0  0  0  0
   -3.3440   23.1700  -30.5140 C   0  0  0  0  0  0  0  0  0  0  0  0
   -5.4630   21.0730  -31.3520 N   0  0  0  0  0  0  0  0  0  0  0  0
   -6.4610   20.4470  -32.0300 C   0  0  0  0  0  0  0  0  0  0  0  0
   -6.1250   19.2330  -32.8040 C   0  0  0  0  0  0  0  0  0  0  0  0
   -5.9430   17.9930  -32.1690 C   0  0  0  0  0  0  0  0  0  0  0  0
   -5.6470   16.8530  -32.9230 C   0  0  0  0  0  0  0  0  0  0  0  0
   -5.5440   16.9390  -34.3140 C   0  0  0  0  0  0  0  0  0  0  0  0
   -5.7450   18.1650  -34.9540 C   0  0  0  0  0  0  0  0  0  0  0  0
   -6.0420   19.3070  -34.2040 C   0  0  0  0  0  0  0  0  0  0  0  0
   -9.1231   18.9446  -30.5502 H   0  0  0  0  0  0  0  0  0  0  0  0
   -9.9698   17.9833  -31.8095 H   0  0  0  0  0  0  0  0  0  0  0  0
   -8.1762   18.0820  -31.8095 H   0  0  0  0  0  0  0  0  0  0  0  0
   -9.0267   22.4054  -30.9348 H   0  0  0  0  0  0  0  0  0  0  0  0
   -7.1750   23.4560  -29.8330 H   0  0  0  0  0  0  0  0  0  0  0  0
   -5.3662   23.9016  -28.2697 H   0  0  0  0  0  0  0  0  0  0  0  0
   -4.9237   22.2390  -27.8579 H   0  0  0  0  0  0  0  0  0  0  0  0
   -3.2754   24.4769  -27.4719 H   0  0  0  0  0  0  0  0  0  0  0  0
   -2.6606   22.8197  -27.5713 H   0  0  0  0  0  0  0  0  0  0  0  0
   -1.4962   23.6659  -29.4562 H   0  0  0  0  0  0  0  0  0  0  0  0
   -3.5358   23.8137  -31.3851 H   0  0  0  0  0  0  0  0  0  0  0  0
   -2.7865   22.2943  -30.8776 H   0  0  0  0  0  0  0  0  0  0  0  0
   -6.0336   17.9186  -31.0753 H   0  0  0  0  0  0  0  0  0  0  0  0
   -5.4949   15.8866  -32.4201 H   0  0  0  0  0  0  0  0  0  0  0  0
   -5.3049   16.0424  -34.9047 H   0  0  0  0  0  0  0  0  0  0  0  0
   -5.6694   18.2316  -36.0494 H   0  0  0  0  0  0  0  0  0  0  0  0
   -6.2114   20.2675  -34.7127 H   0  0  0  0  0  0  0  0  0  0  0  0
  1  2  1  0
  2  3  1  0
  3  4  2  0
  4  5  1  0
  5  6  2  0
  6  7  1  0
  7  8  1  0
  8  9  1  0
  9 10  1  0
 10 11  1  0
 10 12  1  0
  6 13  1  0
 13 14  2  0
 14 15  1  0
 15 16  2  0
 16 17  1  0
 17 18  2  0
 18 19  1  0
 19 20  2  0
 14  3  1  0
 20 15  1  0
 12  7  1  0
  1 21  1  0
  1 22  1  0
  1 23  1  0
  4 24  1  0
  5 25  1  0
  8 26  1  0
  8 27  1  0
  9 28  1  0
  9 29  1  0
 10 30  1  1
 12 31  1  0
 12 32  1  0
 16 33  1  0
 17 34  1  0
 18 35  1  0
 19 36  1  0
 20 37  1  0
M  CHG  1   5   1
M  END
>  <UniqueID>  (4) 
3

>  <SMILES>  (4) 
CSc1c[nH+]c(N2CC[C@H](F)C2)nc1-c1ccccc1

>  <Energy>  (4) 
42.283316439677904

>  <Genealogy>  (4) 
CSc1c[nH+]c(N2CCC(F)C2)nc1-c1ccccc1 (protonated)
CSc1c[nH+]c(N2CC[C@H](F)C2)nc1-c1ccccc1 (chirality)
CSc1c[nH+]c(N2CC[C@H](F)C2)nc1-c1ccccc1 (3D coordinates assigned)
CSc1c[nH+]c(N2CC[C@H](F)C2)nc1-c1ccccc1 (nonaromatic ring conformer: 42.283316439677904 kcal/mol)

>  <smiles>  (4) 
CSc1cnc(N2CCC(F)C2)nc1-c1ccccc1

>  <score_type>  (4) 
oracle

>  <origin>  (4) 
adg

>  <m_score__min__energy>  (4) 
-6.6900000000000004

>  <m_primary>  (4) 
energy

$$$$
4:0
     RDKit          3D

 57 60  0  0  0  0  0  0  0  0999 V2000
   -1.6930   24.9400  -28.2210 C   0  0  0  0  0  0  0  0  0  0  0  0
   -2.5250   25.3020  -29.3180 O   0  0  0  0  0  0  0  0  0  0  0  0
   -3.5480   24.4960  -29.8350 C   0  0  0  0  0  0  0  0  0  0  0  0
   -3.5300   23.0920  -29.7310 C   0  0  0  0  0  0  0  0  0  0  0  0
   -4.5720   22.3320  -30.2670 C   0  0  0  0  0  0  0  0  0  0  0  0
   -5.6420   22.9560  -30.9280 C   0  0  0  0  0  0  0  0  0  0  0  0
   -6.7510   22.1580  -31.4990 C   0  0  0  0  0  0  0  0  0  0  0  0
   -8.0920   22.4600  -31.3640 C   0  0  0  0  0  0  0  0  0  0  0  0
   -8.7420   21.3910  -31.9480 C   0  0  0  0  0  0  0  0  0  0  0  0
  -10.2190   21.1840  -31.9880 C   0  0  0  0  0  0  0  0  0  0  0  0
   -7.8460   20.4920  -32.3990 N   0  0  0  0  0  0  0  0  0  0  0  0
   -6.6370   20.9680  -32.1380 N   0  0  0  0  0  0  0  0  0  0  0  0
   -5.4350   20.3010  -32.5560 C   0  0  0  0  0  0  0  0  0  0  0  0
   -5.2930   18.9070  -32.3420 C   0  0  0  0  0  0  0  0  0  0  0  0
   -4.1200   18.2350  -32.7310 C   0  0  0  0  0  0  0  0  0  0  0  0
   -3.1090   18.9820  -33.3410 C   0  0  0  0  0  0  0  0  0  0  0  0
   -3.2590   20.3190  -33.5770 C   0  0  0  0  0  0  0  0  0  0  0  0
   -4.4060   21.0160  -33.2090 C   0  0  0  0  0  0  0  0  0  0  0  0
   -2.1700   20.7960  -34.1960 N   0  0  0  0  0  0  0  0  0  0  0  0
   -1.3590   19.7190  -34.3320 C   0  0  0  0  0  0  0  0  0  0  0  0
   -0.0180   19.8030  -34.9930 C   0  0  0  0  0  0  0  0  0  0  0  0
   -1.8950   18.5880  -33.7850 N   0  0  0  0  0  0  0  0  0  0  0  0
   -1.3240   17.2330  -33.7630 C   0  0  0  0  0  0  0  0  0  0  0  0
   -0.4440   16.9670  -32.5180 C   0  0  0  0  0  0  0  0  0  0  0  0
    0.2780   18.1390  -31.9730 N   0  0  0  0  0  0  0  0  0  0  0  0
    1.6650   17.8520  -31.5810 C   0  0  0  0  0  0  0  0  0  0  0  0
   -0.4540   18.8580  -30.9190 C   0  0  0  0  0  0  0  0  0  0  0  0
   -5.6700   24.3570  -31.0120 C   0  0  0  0  0  0  0  0  0  0  0  0
   -4.6270   25.1170  -30.4730 C   0  0  0  0  0  0  0  0  0  0  0  0
   -2.2115   25.1656  -27.2775 H   0  0  0  0  0  0  0  0  0  0  0  0
   -1.4706   23.8638  -28.2690 H   0  0  0  0  0  0  0  0  0  0  0  0
   -0.7540   25.5109  -28.2690 H   0  0  0  0  0  0  0  0  0  0  0  0
   -2.6913   22.5913  -29.2252 H   0  0  0  0  0  0  0  0  0  0  0  0
   -4.5542   21.2364  -30.1706 H   0  0  0  0  0  0  0  0  0  0  0  0
   -8.5401   23.3497  -30.8974 H   0  0  0  0  0  0  0  0  0  0  0  0
  -10.6095   21.1293  -30.9611 H   0  0  0  0  0  0  0  0  0  0  0  0
  -10.6929   22.0245  -32.5162 H   0  0  0  0  0  0  0  0  0  0  0  0
  -10.4436   20.2456  -32.5162 H   0  0  0  0  0  0  0  0  0  0  0  0
   -6.1096   18.3441  -31.8662 H   0  0  0  0  0  0  0  0  0  0  0  0
   -4.0023   17.1547  -32.5602 H   0  0  0  0  0  0  0  0  0  0  0  0
   -4.5084   22.0907  -33.4200 H   0  0  0  0  0  0  0  0  0  0  0  0
   -1.9920   21.7760  -34.5110 H   0  0  0  0  0  0  0  0  0  0  0  0
    0.7673   19.8522  -34.2243 H   0  0  0  0  0  0  0  0  0  0  0  0
    0.1381   18.9129  -35.6201 H   0  0  0  0  0  0  0  0  0  0  0  0
    0.0258   20.7056  -35.6201 H   0  0  0  0  0  0  0  0  0  0  0  0
   -2.1487   16.5051  -33.7712 H   0  0  0  0  0  0  0  0  0  0  0  0
   -0.6792   17.1336  -34.6486 H   0  0  0  0  0  0  0  0  0  0  0  0
   -1.0947   16.5729  -31.7235 H   0  0  0  0  0  0  0  0  0  0  0  0
    0.3356   16.2654  -32.8495 H   0  0  0  0  0  0  0  0  0  0  0  0
    1.7402   17.8364  -30.4837 H   0  0  0  0  0  0  0  0  0  0  0  0
    1.9645   16.8729  -31.9830 H   0  0  0  0  0  0  0  0  0  0  0  0
    2.3285   18.6319  -31.9830 H   0  0  0  0  0  0  0  0  0  0  0  0
   -0.1063   18.5165  -29.9329 H   0  0  0  0  0  0  0  0  0  0  0  0
   -0.2722   19.9383  -31.0180 H   0  0  0  0  0  0  0  0  0  0  0  0
   -1.5309   18.6568  -31.0180 H   0  0  0  0  0  0  0  0  0  0  0  0
   -6.5160   24.8593  -31.5039 H   0  0  0  0  0  0  0  0  0  0  0  0
   -4.6554   26.2138  -30.5515 H   0  0  0  0  0  0  0  0  0  0  0  0
  1  2  1  0
  2  3  1  0
  3  4  2  0
  4  5  1  0
  5  6  2  0
  6  7  1  0
  7  8  2  0
  8  9  1  0
  9 10  1  0
  9 11  2  0
 11 12  1  0
 12 13  1  0
 13 14  2  0
 14 15  1  0
 15 16  2  0
 16 17  1  0
 17 18  2  0
 17 19  1  0
 19 20  2  0
 20 21  1  0
 20 22  1  0
 22 23  1  0
 23 24  1  0
 24 25  1  0
 25 26  1  0
 25 27  1  0
  6 28  1  0
 28 29  2  0
 29  3  1  0
 12  7  1  0
 18 13  1  0
 22 16  1  0
  1 30  1  0
  1 31  1  0
  1 32  1  0
  4 33  1  0
  5 34  1  0
  8 35  1  0
 10 36  1  0
 10 37  1  0
 10 38  1  0
 14 39  1  0
 15 40  1  0
 18 41  1  0
 19 42  1  0
 21 43  1  0
 21 44  1  0
 21 45  1  0
 23 46  1  0
 23 47  1  0
 24 48  1  0
 24 49  1  0
 26 50  1  0
 26 51  1  0
 26 52  1  0
 27 53  1  0
 27 54  1  0
 27 55  1  0
 28 56  1  0
 29 57  1  0
M  CHG  1  19   1
M  END
>  <UniqueID>  (5) 
4

>  <SMILES>  (5) 
COc1ccc(-c2cc(C)nn2-c2ccc3c(c2)[nH+]c(C)n3CCN(C)C)cc1

>  <Energy>  (5) 
137.68311572457964

>  <Genealogy>  (5) 
COc1ccc(-c2cc(C)nn2-c2ccc3c(c2)[nH+]c(C)n3CCN(C)C)cc1 (protonated)
COc1ccc(-c2cc(C)nn2-c2ccc3c(c2)[nH+]c(C)n3CCN(C)C)cc1 (3D coordinates assigned)
COc1ccc(-c2cc(C)nn2-c2ccc3c(c2)[nH+]c(C)n3CCN(C)C)cc1 (optimized conformer: 137.68311572457964 kcal/mol)

>  <smiles>  (5) 
COc1ccc(-c2cc(C)nn2-c2ccc3c(c2)nc(C)n3CCN(C)C)cc1

>  <score_type>  (5) 
oracle

>  <origin>  (5) 
adg

>  <m_score__min__energy>  (5) 
-8.4900000000000002

>  <m_primary>  (5) 
energy

$$$$
5:0
     RDKit          3D

 43 45  0  0  0  0  0  0  0  0999 V2000
   -2.3035   25.7462  -25.5931 H   0  0  0  0  0  0  0  0  0  0  0  0
   -2.0710   25.0190  -26.3850 C   0  0  0  0  0  0  0  0  0  0  0  0
   -2.8127   24.2572  -26.6672 H   0  0  0  0  0  0  0  0  0  0  0  0
   -0.8880   25.0610  -27.0040 C   0  0  0  0  0  0  0  0  0  0  0  0
   -0.1566   25.8285  -26.7109 H   0  0  0  0  0  0  0  0  0  0  0  0
   -0.5310   24.0860  -28.0910 C   0  0  0  0  0  0  0  0  0  0  0  0
    0.2498   24.5262  -28.7286 H   0  0  0  0  0  0  0  0  0  0  0  0
   -0.1669   23.1574  -27.6272 H   0  0  0  0  0  0  0  0  0  0  0  0
   -1.7050   23.7730  -28.9140 N   0  0  0  0  0  0  0  0  0  0  0  0
   -2.4410   22.6320  -28.9100 C   0  0  0  0  0  0  0  0  0  0  0  0
   -2.1210   21.3870  -28.1820 C   0  0  0  0  0  0  0  0  0  0  0  0
   -0.8360   20.8250  -28.2510 C   0  0  0  0  0  0  0  0  0  0  0  0
   -0.0499   21.3263  -28.8348 H   0  0  0  0  0  0  0  0  0  0  0  0
   -0.5510   19.6310  -27.5810 C   0  0  0  0  0  0  0  0  0  0  0  0
    0.4604   19.2013  -27.6298 H   0  0  0  0  0  0  0  0  0  0  0  0
   -1.5510   18.9830  -26.8490 C   0  0  0  0  0  0  0  0  0  0  0  0
   -1.3245   18.0474  -26.3167 H   0  0  0  0  0  0  0  0  0  0  0  0
   -2.8370   19.5240  -26.7940 C   0  0  0  0  0  0  0  0  0  0  0  0
   -3.6253   19.0103  -26.2242 H   0  0  0  0  0  0  0  0  0  0  0  0
   -3.1240   20.7190  -27.4630 C   0  0  0  0  0  0  0  0  0  0  0  0
   -4.1408   21.1368  -27.4251 H   0  0  0  0  0  0  0  0  0  0  0  0
   -3.5840   22.8290  -29.6670 C   0  0  0  0  0  0  0  0  0  0  0  0
   -4.3966   22.1140  -29.8630 H   0  0  0  0  0  0  0  0  0  0  0  0
   -3.4700   24.1250  -30.1180 C   0  0  0  0  0  0  0  0  0  0  0  0
   -4.3690   24.7330  -30.8380 N   0  0  0  0  0  0  0  0  0  0  0  0
   -5.7660   24.8450  -30.5390 C   0  0  0  0  0  0  0  0  0  0  0  0
   -6.1230   25.6070  -29.6020 O   0  0  0  0  0  0  0  0  0  0  0  0
   -6.7610   23.9690  -31.2000 C   0  0  0  0  0  0  0  0  0  0  0  0
   -7.0789   24.2411  -32.2173 H   0  0  0  0  0  0  0  0  0  0  0  0
   -7.3050   22.8700  -30.6560 C   0  0  0  0  0  0  0  0  0  0  0  0
   -7.4597   22.8679  -29.5669 H   0  0  0  0  0  0  0  0  0  0  0  0
   -7.7130   21.6620  -31.4030 C   0  0  0  0  0  0  0  0  0  0  0  0
   -9.0740   21.3390  -31.5050 C   0  0  0  0  0  0  0  0  0  0  0  0
   -9.8298   22.0047  -31.0628 H   0  0  0  0  0  0  0  0  0  0  0  0
   -9.4630   20.2050  -32.1490 N   0  0  0  0  0  0  0  0  0  0  0  0
   -8.5600   19.3470  -32.6950 C   0  0  0  0  0  0  0  0  0  0  0  0
   -8.9066   18.4439  -33.2187 H   0  0  0  0  0  0  0  0  0  0  0  0
   -7.1940   19.6120  -32.5910 C   0  0  0  0  0  0  0  0  0  0  0  0
   -6.4593   18.9164  -33.0228 H   0  0  0  0  0  0  0  0  0  0  0  0
   -6.7680   20.7680  -31.9340 C   0  0  0  0  0  0  0  0  0  0  0  0
   -5.6932   20.9787  -31.8322 H   0  0  0  0  0  0  0  0  0  0  0  0
   -2.3410   24.6830  -29.6380 N   0  0  0  0  0  0  0  0  0  0  0  0
   -2.0360   25.6780  -29.7250 H   0  0  0  0  0  0  0  0  0  0  0  0
  1  2  1  0
  2  3  1  0
  2  4  2  0
  4  5  1  0
  4  6  1  0
  6  7  1  0
  6  8  1  0
  6  9  1  0
  9 10  1  0
 10 11  1  0
 11 12  2  0
 12 13  1  0
 12 14  1  0
 14 15  1  0
 14 16  2  0
 16 17  1  0
 16 18  1  0
 18 19  1  0
 18 20  2  0
 20 21  1  0
 10 22  2  0
 22 23  1  0
 22 24  1  0
 24 25  2  0
 25 26  1  0
 26 27  2  0
 26 28  1  0
 28 29  1  0
 28 30  2  3
 30 31  1  0
 30 32  1  0
 32 33  2  0
 33 34  1  0
 33 35  1  0
 35 36  2  0
 36 37  1  0
 36 38  1  0
 38 39  1  0
 38 40  2  0
 40 41  1  0
 24 42  1  0
 42 43  1  0
 42  9  1  0
 20 11  1  0
 40 32  1  0
M  END
>  <UniqueID>  (6) 
5

>  <SMILES>  (6) 
C=CCn1[nH]/c(=N\C(=O)C=Cc2cccnc2)cc1-c1ccccc1

>  <Energy>  (6) 
93.62702733317974

>  <Genealogy>  (6) 
C=CCn1[nH]/c(=N\C(=O)C=Cc2cccnc2)cc1-c1ccccc1 (cis-trans isomerization)
C=CCn1[nH]/c(=N\C(=O)C=Cc2cccnc2)cc1-c1ccccc1 (3D coordinates assigned)
C=CCn1[nH]/c(=N\C(=O)C=Cc2cccnc2)cc1-c1ccccc1 (optimized conformer: 93.62702733317974 kcal/mol)

>  <smiles>  (6) 
C=CCn1[nH]c(=NC(=O)C=Cc2cccnc2)cc1-c1ccccc1

>  <score_type>  (6) 
oracle

>  <origin>  (6) 
adg

>  <m_score__min__energy>  (6) 
-9.4700000000000006

>  <m_primary>  (6) 
energy

$$$$
6:0
     RDKit          3D

 33 34  0  0  0  0  0  0  0  0999 V2000
   -6.8996   21.2790  -33.6868 H   0  0  0  0  0  0  0  0  0  0  0  0
   -7.2780   20.4040  -33.1380 C   0  0  0  0  0  0  0  0  0  0  0  0
   -8.2850   20.5930  -32.2740 C   0  0  0  0  0  0  0  0  0  0  0  0
   -8.9574   19.7453  -32.0757 H   0  0  0  0  0  0  0  0  0  0  0  0
   -8.6040   22.1120  -31.4330 S   0  0  0  0  0  0  0  0  0  0  0  0
   -9.4050   21.8300  -30.1920 O   0  0  0  0  0  0  0  0  0  0  0  0
   -9.4090   23.0080  -32.3320 O   0  0  0  0  0  0  0  0  0  0  0  0
   -7.1000   22.9390  -31.0320 C   0  0  0  0  0  0  0  0  0  0  0  0
   -7.1360   24.2610  -30.5710 C   0  0  0  0  0  0  0  0  0  0  0  0
   -8.1037   24.7583  -30.4090 H   0  0  0  0  0  0  0  0  0  0  0  0
   -5.9480   24.9510  -30.3160 C   0  0  0  0  0  0  0  0  0  0  0  0
   -5.9842   25.9906  -29.9583 H   0  0  0  0  0  0  0  0  0  0  0  0
   -4.7050   24.3210  -30.5150 C   0  0  0  0  0  0  0  0  0  0  0  0
   -3.4850   24.9740  -30.2860 O   0  0  0  0  0  0  0  0  0  0  0  0
   -2.5120   24.5490  -29.3370 C   0  0  0  0  0  0  0  0  0  0  0  0
   -2.8948   24.7162  -28.3194 H   0  0  0  0  0  0  0  0  0  0  0  0
   -2.3043   23.4782  -29.4793 H   0  0  0  0  0  0  0  0  0  0  0  0
   -1.5853   25.1243  -29.4793 H   0  0  0  0  0  0  0  0  0  0  0  0
   -4.6760   22.9950  -30.9610 C   0  0  0  0  0  0  0  0  0  0  0  0
   -3.7097   22.4915  -31.1122 H   0  0  0  0  0  0  0  0  0  0  0  0
   -5.8640   22.3050  -31.2160 C   0  0  0  0  0  0  0  0  0  0  0  0
   -5.8289   21.2614  -31.5621 H   0  0  0  0  0  0  0  0  0  0  0  0
   -6.6450   19.0990  -33.4000 C   0  0  0  0  0  0  0  0  0  0  0  0
   -5.8850   18.8910  -34.5620 C   0  0  0  0  0  0  0  0  0  0  0  0
   -5.7445   19.7131  -35.2793 H   0  0  0  0  0  0  0  0  0  0  0  0
   -5.3060   17.6430  -34.8110 C   0  0  0  0  0  0  0  0  0  0  0  0
   -4.7200   17.4824  -35.7279 H   0  0  0  0  0  0  0  0  0  0  0  0
   -5.4710   16.5990  -33.8960 C   0  0  0  0  0  0  0  0  0  0  0  0
   -5.0240   15.6144  -34.0979 H   0  0  0  0  0  0  0  0  0  0  0  0
   -6.2040   16.8070  -32.7250 C   0  0  0  0  0  0  0  0  0  0  0  0
   -6.3280   15.9866  -32.0028 H   0  0  0  0  0  0  0  0  0  0  0  0
   -6.7810   18.0560  -32.4680 C   0  0  0  0  0  0  0  0  0  0  0  0
   -7.5000   18.2370  -31.3320 F   0  0  0  0  0  0  0  0  0  0  0  0
  1  2  1  0
  2  3  2  0
  3  4  1  0
  3  5  1  0
  5  6  2  0
  5  7  2  0
  5  8  1  0
  8  9  2  0
  9 10  1  0
  9 11  1  0
 11 12  1  0
 11 13  2  0
 13 14  1  0
 14 15  1  0
 15 16  1  0
 15 17  1  0
 15 18  1  0
 13 19  1  0
 19 20  1  0
 19 21  2  0
 21 22  1  0
  2 23  1  0
 23 24  2  0
 24 25  1  0
 24 26  1  0
 26 27  1  0
 26 28  2  0
 28 29  1  0
 28 30  1  0
 30 31  1  0
 30 32  2  0
 32 33  1  0
 21  8  1  0
 32 23  1  0
M  END
>  <UniqueID>  (7) 
6

>  <SMILES>  (7) 
COc1ccc(S(=O)(=O)/C=C\c2ccccc2F)cc1

>  <Energy>  (7) 
38.85514437465255

>  <Genealogy>  (7) 
COc1ccc(S(=O)(=O)/C=C\c2ccccc2F)cc1 (cis-trans isomerization)
COc1ccc(S(=O)(=O)/C=C\c2ccccc2F)cc1 (3D coordinates assigned)
COc1ccc(S(=O)(=O)/C=C\c2ccccc2F)cc1 (optimized conformer: 38.85514437465255 kcal/mol)

>  <smiles>  (7) 
COc1ccc(S(=O)(=O)C=Cc2ccccc2F)cc1

>  <score_type>  (7) 
oracle

>  <origin>  (7) 
adg

>  <m_score__min__energy>  (7) 
-8.2899999999999991

>  <m_primary>  (7) 
energy

$$$$
7:0
     RDKit          3D

 43 46  0  0  0  0  0  0  0  0999 V2000
   -4.5830   21.1550  -32.7250 C   0  0  0  0  0  0  0  0  0  0  0  0
   -5.9690   21.2620  -32.1450 C   0  0  0  0  0  0  0  0  0  0  0  0
   -6.9210   20.2860  -32.4900 C   0  0  0  0  0  0  0  0  0  0  0  0
   -8.2270   20.3610  -32.0000 C   0  0  0  0  0  0  0  0  0  0  0  0
   -9.4050   19.1420  -32.4500 Cl  0  0  0  0  0  0  0  0  0  0  0  0
   -8.5950   21.4080  -31.1540 C   0  0  0  0  0  0  0  0  0  0  0  0
   -7.6580   22.3730  -30.7860 C   0  0  0  0  0  0  0  0  0  0  0  0
   -6.3370   22.3080  -31.2610 C   0  0  0  0  0  0  0  0  0  0  0  0
   -5.3750   23.3430  -30.8150 C   0  0  0  0  0  0  0  0  0  0  0  0
   -5.3540   24.6900  -31.1580 C   0  0  0  0  0  0  0  0  0  0  0  0
   -4.2820   25.3000  -30.5920 N   0  0  0  0  0  0  0  0  0  0  0  0
   -3.6750   24.3020  -29.9180 C   0  0  0  0  0  0  0  0  0  0  0  0
   -2.5160   24.3980  -29.1620 C   0  0  0  0  0  0  0  0  0  0  0  0
   -2.0500   23.2290  -28.5400 C   0  0  0  0  0  0  0  0  0  0  0  0
   -2.7650   22.0120  -28.6890 C   0  0  0  0  0  0  0  0  0  0  0  0
   -2.3090   20.7490  -28.0550 C   0  0  0  0  0  0  0  0  0  0  0  0
   -3.1200   20.1170  -27.0950 C   0  0  0  0  0  0  0  0  0  0  0  0
   -2.7070   18.9290  -26.4890 C   0  0  0  0  0  0  0  0  0  0  0  0
   -1.4760   18.3610  -26.8230 C   0  0  0  0  0  0  0  0  0  0  0  0
   -0.6460   18.9870  -27.7600 C   0  0  0  0  0  0  0  0  0  0  0  0
    0.9060   18.2730  -28.1850 S   0  0  0  0  0  0  0  0  0  0  0  0
    0.9380   17.9260  -29.9290 C   0  0  0  0  0  0  0  0  0  0  0  0
    2.0140   19.2290  -27.8400 O   0  0  0  0  0  0  0  0  0  0  0  0
    1.1140   16.9980  -27.4180 O   0  0  0  0  0  0  0  0  0  0  0  0
   -1.0630   20.1740  -28.3770 C   0  0  0  0  0  0  0  0  0  0  0  0
   -3.8950   22.0040  -29.4590 N   0  0  0  0  0  0  0  0  0  0  0  0
   -4.3020   23.1290  -30.0420 N   0  0  0  0  0  0  0  0  0  0  0  0
   -3.8475   21.0982  -31.9091 H   0  0  0  0  0  0  0  0  0  0  0  0
   -4.5138   20.2488  -33.3447 H   0  0  0  0  0  0  0  0  0  0  0  0
   -4.3756   22.0398  -33.3447 H   0  0  0  0  0  0  0  0  0  0  0  0
   -6.6344   19.4556  -33.1521 H   0  0  0  0  0  0  0  0  0  0  0  0
   -9.6263   21.4722  -30.7767 H   0  0  0  0  0  0  0  0  0  0  0  0
   -7.9560   23.1937  -30.1169 H   0  0  0  0  0  0  0  0  0  0  0  0
   -6.0984   25.1891  -31.7958 H   0  0  0  0  0  0  0  0  0  0  0  0
   -1.9823   25.3538  -29.0540 H   0  0  0  0  0  0  0  0  0  0  0  0
   -1.1304   23.2562  -27.9370 H   0  0  0  0  0  0  0  0  0  0  0  0
   -4.0873   20.5624  -26.8196 H   0  0  0  0  0  0  0  0  0  0  0  0
   -3.3534   18.4389  -25.7461 H   0  0  0  0  0  0  0  0  0  0  0  0
   -1.1582   17.4205  -26.3492 H   0  0  0  0  0  0  0  0  0  0  0  0
    1.0380   16.8418  -30.0853 H   0  0  0  0  0  0  0  0  0  0  0  0
    0.0036   18.2783  -30.3902 H   0  0  0  0  0  0  0  0  0  0  0  0
    1.7923   18.4433  -30.3902 H   0  0  0  0  0  0  0  0  0  0  0  0
   -0.4127   20.6610  -29.1186 H   0  0  0  0  0  0  0  0  0  0  0  0
  1  2  1  0
  2  3  2  0
  3  4  1  0
  4  5  1  0
  4  6  2  0
  6  7  1  0
  7  8  2  0
  8  9  1  0
  9 10  2  0
 10 11  1  0
 11 12  2  0
 12 13  1  0
 13 14  2  0
 14 15  1  0
 15 16  1  0
 16 17  2  0
 17 18  1  0
 18 19  2  0
 19 20  1  0
 20 21  1  0
 21 22  1  0
 21 23  2  0
 21 24  2  0
 20 25  2  0
 15 26  2  0
 26 27  1  0
  8  2  1  0
 27  9  1  0
 27 12  1  0
 25 16  1  0
  1 28  1  0
  1 29  1  0
  1 30  1  0
  3 31  1  0
  6 32  1  0
  7 33  1  0
 10 34  1  0
 13 35  1  0
 14 36  1  0
 17 37  1  0
 18 38  1  0
 19 39  1  0
 22 40  1  0
 22 41  1  0
 22 42  1  0
 25 43  1  0
M  END
>  <UniqueID>  (8) 
7

>  <SMILES>  (8) 
Cc1cc(Cl)ccc1-c1cnc2ccc(-c3cccc(S(C)(=O)=O)c3)nn12

>  <Energy>  (8) 
90.97394231858267

>  <Genealogy>  (8) 
Cc1cc(Cl)ccc1-c1cnc2ccc(-c3cccc(S(C)(=O)=O)c3)nn12 (3D coordinates assigned)
Cc1cc(Cl)ccc1-c1cnc2ccc(-c3cccc(S(C)(=O)=O)c3)nn12 (optimized conformer: 90.97394231858267 kcal/mol)

>  <smiles>  (8) 
Cc1cc(Cl)ccc1-c1cnc2ccc(-c3cccc(S(C)(=O)=O)c3)nn12

>  <score_type>  (8) 
oracle

>  <origin>  (8) 
adg

>  <m_score__min__energy>  (8) 
-10.66

>  <m_primary>  (8) 
energy

$$$$
8:0
     RDKit          3D

 46 48  0  0  0  0  0  0  0  0999 V2000
   -0.9020   23.1040  -29.7910 C   0  0  0  0  0  0  0  0  0  0  0  0
   -1.4440   24.3800  -29.4670 O   0  0  0  0  0  0  0  0  0  0  0  0
   -2.1350   24.6750  -28.2810 C   0  0  0  0  0  0  0  0  0  0  0  0
   -1.4730   25.1180  -27.1190 C   0  0  0  0  0  0  0  0  0  0  0  0
   -2.2010   25.4260  -25.9660 C   0  0  0  0  0  0  0  0  0  0  0  0
   -3.5910   25.2990  -25.9600 C   0  0  0  0  0  0  0  0  0  0  0  0
   -4.2580   24.8580  -27.1050 C   0  0  0  0  0  0  0  0  0  0  0  0
   -3.5360   24.5360  -28.2630 C   0  0  0  0  0  0  0  0  0  0  0  0
   -4.2320   24.0890  -29.4350 N   0  0  0  0  0  0  0  0  0  0  0  0
   -4.8890   25.0490  -30.3200 C   0  0  0  0  0  0  0  0  0  0  0  0
   -6.3270   24.5950  -30.5680 C   0  0  0  0  0  0  0  0  0  0  0  0
   -6.4180   23.1850  -31.0220 N   0  0  0  0  0  0  0  0  0  0  0  0
   -7.6420   22.4930  -30.5650 C   0  0  0  0  0  0  0  0  0  0  0  0
   -8.5230   21.9780  -31.7200 C   0  0  0  0  0  0  0  0  0  0  0  0
   -8.0910   20.6000  -32.1400 C   0  0  0  0  0  0  0  0  0  0  0  0
   -8.7190   19.4640  -31.6020 C   0  0  0  0  0  0  0  0  0  0  0  0
   -8.2940   18.1840  -31.9700 C   0  0  0  0  0  0  0  0  0  0  0  0
   -7.2350   18.0290  -32.8700 C   0  0  0  0  0  0  0  0  0  0  0  0
   -6.5970   19.1540  -33.3990 C   0  0  0  0  0  0  0  0  0  0  0  0
   -7.0180   20.4360  -33.0320 C   0  0  0  0  0  0  0  0  0  0  0  0
   -5.1780   22.3740  -30.9610 C   0  0  0  0  0  0  0  0  0  0  0  0
   -4.3310   22.6540  -29.7070 C   0  0  0  0  0  0  0  0  0  0  0  0
   -0.6701   22.5581  -28.8646 H   0  0  0  0  0  0  0  0  0  0  0  0
   -1.6352   22.5329  -30.3794 H   0  0  0  0  0  0  0  0  0  0  0  0
    0.0181   23.2351  -30.3794 H   0  0  0  0  0  0  0  0  0  0  0  0
   -0.3779   25.2220  -27.1190 H   0  0  0  0  0  0  0  0  0  0  0  0
   -1.6773   25.7692  -25.0616 H   0  0  0  0  0  0  0  0  0  0  0  0
   -4.1615   25.5465  -25.0527 H   0  0  0  0  0  0  0  0  0  0  0  0
   -5.3539   24.7629  -27.0983 H   0  0  0  0  0  0  0  0  0  0  0  0
   -4.8923   26.0428  -29.8484 H   0  0  0  0  0  0  0  0  0  0  0  0
   -4.3470   25.1043  -31.2756 H   0  0  0  0  0  0  0  0  0  0  0  0
   -6.8943   24.6993  -29.6314 H   0  0  0  0  0  0  0  0  0  0  0  0
   -6.7388   25.2266  -31.3690 H   0  0  0  0  0  0  0  0  0  0  0  0
   -7.3458   21.6351  -29.9435 H   0  0  0  0  0  0  0  0  0  0  0  0
   -8.2392   23.2271  -30.0042 H   0  0  0  0  0  0  0  0  0  0  0  0
   -9.5710   21.9429  -31.3876 H   0  0  0  0  0  0  0  0  0  0  0  0
   -8.4188   22.6595  -32.5772 H   0  0  0  0  0  0  0  0  0  0  0  0
   -9.5480   19.5822  -30.8887 H   0  0  0  0  0  0  0  0  0  0  0  0
   -8.7932   17.2978  -31.5511 H   0  0  0  0  0  0  0  0  0  0  0  0
   -6.9042   17.0213  -33.1616 H   0  0  0  0  0  0  0  0  0  0  0  0
   -5.7625   19.0310  -34.1050 H   0  0  0  0  0  0  0  0  0  0  0  0
   -6.5072   21.3192  -33.4432 H   0  0  0  0  0  0  0  0  0  0  0  0
   -5.4559   21.3097  -30.9646 H   0  0  0  0  0  0  0  0  0  0  0  0
   -4.5673   22.6448  -31.8349 H   0  0  0  0  0  0  0  0  0  0  0  0
   -4.7971   22.1579  -28.8429 H   0  0  0  0  0  0  0  0  0  0  0  0
   -3.3169   22.2655  -29.8821 H   0  0  0  0  0  0  0  0  0  0  0  0
  1  2  1  0
  2  3  1  0
  3  4  2  0
  4  5  1  0
  5  6  2  0
  6  7  1  0
  7  8  2  0
  8  9  1  0
  9 10  1  0
 10 11  1  0
 11 12  1  0
 12 13  1  0
 13 14  1  0
 14 15  1  0
 15 16  2  0
 16 17  1  0
 17 18  2  0
 18 19  1  0
 19 20  2  0
 12 21  1  0
 21 22  1  0
  8  3  1  0
 22  9  1  0
 20 15  1  0
  1 23  1  0
  1 24  1  0
  1 25  1  0
  4 26  1  0
  5 27  1  0
  6 28  1  0
  7 29  1  0
 10 30  1  0
 10 31  1  0
 11 32  1  0
 11 33  1  0
 13 34  1  0
 13 35  1  0
 14 36  1  0
 14 37  1  0
 16 38  1  0
 17 39  1  0
 18 40  1  0
 19 41  1  0
 20 42  1  0
 21 43  1  0
 21 44  1  0
 22 45  1  0
 22 46  1  0
M  END
>  <UniqueID>  (9) 
8

>  <SMILES>  (9) 
COc1ccccc1N1CCN(CCc2ccccc2)CC1

>  <Energy>  (9) 
59.356931929856955

>  <Genealogy>  (9) 
COc1ccccc1N1CCN(CCc2ccccc2)CC1 (3D coordinates assigned)
COc1ccccc1N1CCN(CCc2ccccc2)CC1 (nonaromatic ring conformer: 59.356931929856955 kcal/mol)

>  <smiles>  (9) 
COc1ccccc1N1CCN(CCc2ccccc2)CC1

>  <score_type>  (9) 
oracle

>  <origin>  (9) 
adg

>  <m_score__min__energy>  (9) 
-8.0399999999999991

>  <m_primary>  (9) 
energy

$$$$
9:0
     RDKit          3D

 62 61  0  0  0  0  0  0  0  0999 V2000
   -2.3545   18.0005  -31.9302 H   0  0  0  0  0  0  0  0  0  0  0  0
   -2.6680   18.6510  -32.7600 C   0  0  0  0  0  0  0  0  0  0  0  0
   -1.6940   19.6620  -33.2440 C   0  0  0  0  0  0  0  0  0  0  0  0
   -0.6494   19.3509  -33.3925 H   0  0  0  0  0  0  0  0  0  0  0  0
   -2.0220   20.9330  -33.5090 C   0  0  0  0  0  0  0  0  0  0  0  0
   -1.8385   21.3153  -34.5240 H   0  0  0  0  0  0  0  0  0  0  0  0
   -2.3530   20.4450  -27.2330 C   0  0  0  0  0  0  0  0  0  0  0  0
   -1.9244   21.1324  -26.4888 H   0  0  0  0  0  0  0  0  0  0  0  0
   -3.1742   20.9363  -27.7754 H   0  0  0  0  0  0  0  0  0  0  0  0
   -1.2900   20.0560  -28.2140 C   0  0  0  0  0  0  0  0  0  0  0  0
   -0.7719   19.0931  -28.0941 H   0  0  0  0  0  0  0  0  0  0  0  0
   -0.9590   20.8550  -29.2310 C   0  0  0  0  0  0  0  0  0  0  0  0
    0.1012   21.0720  -29.4284 H   0  0  0  0  0  0  0  0  0  0  0  0
   -1.9980   21.4510  -30.0940 C   0  0  0  0  0  0  0  0  0  0  0  0
   -3.0391   21.4311  -29.7394 H   0  0  0  0  0  0  0  0  0  0  0  0
   -1.7480   22.0150  -31.2840 C   0  0  0  0  0  0  0  0  0  0  0  0
   -0.8383   22.6257  -31.3812 H   0  0  0  0  0  0  0  0  0  0  0  0
   -2.6280   21.8690  -32.4960 C   0  0  0  0  0  0  0  0  0  0  0  0
   -2.7649   22.8572  -32.9594 H   0  0  0  0  0  0  0  0  0  0  0  0
   -3.5928   21.4506  -32.1735 H   0  0  0  0  0  0  0  0  0  0  0  0
   -3.0500   18.8780  -26.3270 Br  0  0  0  0  0  0  0  0  0  0  0  0
   -3.9010   18.4700  -33.2570 C   0  0  0  0  0  0  0  0  0  0  0  0
   -4.2085   17.4334  -33.4595 H   0  0  0  0  0  0  0  0  0  0  0  0
   -4.9040   19.5500  -33.5640 C   0  0  0  0  0  0  0  0  0  0  0  0
   -4.5292   20.1694  -34.3922 H   0  0  0  0  0  0  0  0  0  0  0  0
   -5.0495   20.1707  -32.6676 H   0  0  0  0  0  0  0  0  0  0  0  0
   -6.1800   18.9570  -33.9450 N   0  0  0  0  0  0  0  0  0  0  0  0
   -6.8000   17.8740  -33.2430 C   0  0  0  0  0  0  0  0  0  0  0  0
   -7.0020   16.7700  -33.8160 O   0  0  0  0  0  0  0  0  0  0  0  0
   -7.2430   18.0670  -31.8250 C   0  0  0  0  0  0  0  0  0  0  0  0
   -6.7218   18.9404  -31.4060 H   0  0  0  0  0  0  0  0  0  0  0  0
   -6.9993   17.1517  -31.2656 H   0  0  0  0  0  0  0  0  0  0  0  0
   -8.7590   18.2970  -31.7210 C   0  0  0  0  0  0  0  0  0  0  0  0
   -8.9890   18.6111  -30.6922 H   0  0  0  0  0  0  0  0  0  0  0  0
   -9.2391   17.3470  -31.9985 H   0  0  0  0  0  0  0  0  0  0  0  0
   -9.3120   19.3660  -32.6860 C   0  0  0  0  0  0  0  0  0  0  0  0
  -10.3613   19.5585  -32.4180 H   0  0  0  0  0  0  0  0  0  0  0  0
   -9.1900   18.9591  -33.7007 H   0  0  0  0  0  0  0  0  0  0  0  0
   -8.5590   20.7080  -32.6650 C   0  0  0  0  0  0  0  0  0  0  0  0
   -8.6941   21.2021  -33.6384 H   0  0  0  0  0  0  0  0  0  0  0  0
   -7.5001   20.4906  -32.4614 H   0  0  0  0  0  0  0  0  0  0  0  0
   -9.0590   21.6550  -31.5590 C   0  0  0  0  0  0  0  0  0  0  0  0
   -9.3922   21.0507  -30.7024 H   0  0  0  0  0  0  0  0  0  0  0  0
   -9.8812   22.2524  -31.9799 H   0  0  0  0  0  0  0  0  0  0  0  0
   -7.9740   22.6320  -31.0790 C   0  0  0  0  0  0  0  0  0  0  0  0
   -7.6049   22.2953  -30.0990 H   0  0  0  0  0  0  0  0  0  0  0  0
   -8.4282   23.6321  -31.0187 H   0  0  0  0  0  0  0  0  0  0  0  0
   -6.7840   22.7170  -32.0520 C   0  0  0  0  0  0  0  0  0  0  0  0
   -6.9706   23.5318  -32.7670 H   0  0  0  0  0  0  0  0  0  0  0  0
   -6.6976   21.7450  -32.5597 H   0  0  0  0  0  0  0  0  0  0  0  0
   -5.4520   22.9880  -31.3320 C   0  0  0  0  0  0  0  0  0  0  0  0
   -4.8541   23.6772  -31.9464 H   0  0  0  0  0  0  0  0  0  0  0  0
   -4.9464   22.0207  -31.1951 H   0  0  0  0  0  0  0  0  0  0  0  0
   -5.6440   23.6110  -29.9410 C   0  0  0  0  0  0  0  0  0  0  0  0
   -6.2775   22.9479  -29.3336 H   0  0  0  0  0  0  0  0  0  0  0  0
   -6.1208   24.5952  -30.0593 H   0  0  0  0  0  0  0  0  0  0  0  0
   -4.2970   23.8010  -29.2370 C   0  0  0  0  0  0  0  0  0  0  0  0
   -3.7145   22.8710  -29.3139 H   0  0  0  0  0  0  0  0  0  0  0  0
   -4.4804   24.0488  -28.1811 H   0  0  0  0  0  0  0  0  0  0  0  0
   -3.5260   24.9180  -29.8680 C   0  0  0  0  0  0  0  0  0  0  0  0
   -4.0070   25.5420  -30.8510 O   0  0  0  0  0  0  0  0  0  0  0  0
   -2.2930   25.2930  -29.3490 O   0  0  0  0  0  0  0  0  0  0  0  0
  1  2  1  0
  2  3  1  0
  3  4  1  0
  3  5  2  3
  5  6  1  0
  5  7  1  0
  7  8  1  0
  7  9  1  0
  7 10  1  0
 10 11  1  0
 10 12  2  0
 12 13  1  0
 12 14  1  0
 14 15  1  0
 14 16  2  0
 16 17  1  0
 16 18  1  0
 18 19  1  0
 18 20  1  0
 18 21  1  0
  2 22  2  3
 22 23  1  0
 22 24  1  0
 24 25  1  0
 24 26  1  0
 24 27  1  0
 27 28  1  0
 28 29  2  0
 28 30  1  0
 30 31  1  0
 30 32  1  0
 30 33  1  0
 33 34  1  0
 33 35  1  0
 33 36  1  0
 36 37  1  0
 36 38  1  0
 36 39  1  0
 39 40  1  0
 39 41  1  0
 39 42  1  0
 42 43  1  0
 42 44  1  0
 42 45  1  0
 45 46  1  0
 45 47  1  0
 45 48  1  0
 48 49  1  0
 48 50  1  0
 48 51  1  0
 51 52  1  0
 51 53  1  0
 51 54  1  0
 54 55  1  0
 54 56  1  0
 54 57  1  0
 57 58  1  0
 57 59  1  0
 57 60  1  0
 60 61  2  0
 60 62  1  0
M  CHG  2  27  -1  62  -1
M  END
>  <UniqueID>  (10) 
9

>  <SMILES>  (10) 
O=C([O-])CCCCCCCCCCC(=O)[N-]CC=CC=CCC=C/C=C/CBr

>  <Energy>  (10) 
32.156789860766935

>  <Genealogy>  (10) 
O=C([O-])CCCCCCCCCCC(=O)[N-]CC=CC=CCC=CC=CCBr (protonated)
O=C([O-])CCCCCCCCCCC(=O)[N-]CC=CC=CCC=C/C=C/CBr (cis-trans isomerization)
O=C([O-])CCCCCCCCCCC(=O)[N-]CC=CC=CCC=C/C=C/CBr (3D coordinates assigned)
O=C([O-])CCCCCCCCCCC(=O)[N-]CC=CC=CCC=C/C=C/CBr (optimized conformer: 32.156789860766935 kcal/mol)

>  <smiles>  (10) 
O=C(O)CCCCCCCCCCC(=O)NCC=CC=CCC=CC=CCBr

>  <score_type>  (10) 
oracle

>  <origin>  (10) 
adg

>  <m_score__min__energy>  (10) 
-11.470000000000001

>  <m_primary>  (10) 
energy

$$$$
10:0
     RDKit          3D

 51 53  0  0  0  0  0  0  0  0999 V2000
    1.3460   26.5440  -24.1800 C   0  0  0  0  0  0  0  0  0  0  0  0
    0.9520   26.3370  -25.5330 O   0  0  0  0  0  0  0  0  0  0  0  0
   -0.3090   25.8620  -25.9280 C   0  0  0  0  0  0  0  0  0  0  0  0
   -1.4680   26.0940  -25.1640 C   0  0  0  0  0  0  0  0  0  0  0  0
   -2.7100   25.6380  -25.6080 C   0  0  0  0  0  0  0  0  0  0  0  0
   -2.8170   24.9440  -26.8210 C   0  0  0  0  0  0  0  0  0  0  0  0
   -4.1640   24.5070  -27.3350 C   0  0  0  0  0  0  0  0  0  0  0  0
   -4.0400   23.8470  -28.6520 N   0  0  0  0  0  0  0  0  0  0  0  0
   -4.2260   22.3810  -28.5750 C   0  0  0  0  0  0  0  0  0  0  0  0
   -2.9330   21.5970  -28.4510 C   0  0  0  0  0  0  0  0  0  0  0  0
   -2.7860   20.6160  -27.4550 C   0  0  0  0  0  0  0  0  0  0  0  0
   -1.5960   19.8910  -27.3450 C   0  0  0  0  0  0  0  0  0  0  0  0
   -0.5370   20.1470  -28.2200 C   0  0  0  0  0  0  0  0  0  0  0  0
   -0.6630   21.1350  -29.1980 C   0  0  0  0  0  0  0  0  0  0  0  0
   -1.8520   21.8610  -29.3120 C   0  0  0  0  0  0  0  0  0  0  0  0
   -5.0780   24.5850  -29.8600 S   0  0  0  0  0  0  0  0  0  0  0  0
   -6.0500   25.5280  -29.2100 O   0  0  0  0  0  0  0  0  0  0  0  0
   -4.2490   25.3500  -30.8550 O   0  0  0  0  0  0  0  0  0  0  0  0
   -6.0110   23.3370  -30.6820 C   0  0  0  0  0  0  0  0  0  0  0  0
   -5.4850   22.6550  -31.7900 C   0  0  0  0  0  0  0  0  0  0  0  0
   -6.2110   21.6190  -32.3840 C   0  0  0  0  0  0  0  0  0  0  0  0
   -7.4660   21.2620  -31.8820 C   0  0  0  0  0  0  0  0  0  0  0  0
   -8.3590   19.9390  -32.6090 Cl  0  0  0  0  0  0  0  0  0  0  0  0
   -8.0020   21.9520  -30.7900 C   0  0  0  0  0  0  0  0  0  0  0  0
   -7.2780   22.9890  -30.1940 C   0  0  0  0  0  0  0  0  0  0  0  0
   -1.6580   24.6740  -27.5640 C   0  0  0  0  0  0  0  0  0  0  0  0
   -0.4030   25.1440  -27.1300 C   0  0  0  0  0  0  0  0  0  0  0  0
    0.7680   24.9350  -27.8750 O   0  0  0  0  0  0  0  0  0  0  0  0
    1.8780   24.1610  -27.4300 C   0  0  0  0  0  0  0  0  0  0  0  0
    0.5753   26.1391  -23.5076 H   0  0  0  0  0  0  0  0  0  0  0  0
    2.3012   26.0313  -23.9937 H   0  0  0  0  0  0  0  0  0  0  0  0
    1.4658   27.6215  -23.9937 H   0  0  0  0  0  0  0  0  0  0  0  0
   -1.3944   26.6382  -24.2109 H   0  0  0  0  0  0  0  0  0  0  0  0
   -3.6095   25.8242  -25.0029 H   0  0  0  0  0  0  0  0  0  0  0  0
   -4.6103   23.8008  -26.6194 H   0  0  0  0  0  0  0  0  0  0  0  0
   -4.8015   25.3963  -27.4474 H   0  0  0  0  0  0  0  0  0  0  0  0
   -4.8505   22.1579  -27.6974 H   0  0  0  0  0  0  0  0  0  0  0  0
   -4.6947   22.0712  -29.5207 H   0  0  0  0  0  0  0  0  0  0  0  0
   -3.6131   20.4175  -26.7574 H   0  0  0  0  0  0  0  0  0  0  0  0
   -1.4931   19.1182  -26.5689 H   0  0  0  0  0  0  0  0  0  0  0  0
    0.3959   19.5700  -28.1381 H   0  0  0  0  0  0  0  0  0  0  0  0
    0.1747   21.3426  -29.8800 H   0  0  0  0  0  0  0  0  0  0  0  0
   -1.9431   22.6436  -30.0796 H   0  0  0  0  0  0  0  0  0  0  0  0
   -4.5002   22.9362  -32.1914 H   0  0  0  0  0  0  0  0  0  0  0  0
   -5.7937   21.0829  -33.2491 H   0  0  0  0  0  0  0  0  0  0  0  0
   -8.9935   21.6787  -30.3999 H   0  0  0  0  0  0  0  0  0  0  0  0
   -7.7044   23.5339  -29.3388 H   0  0  0  0  0  0  0  0  0  0  0  0
   -1.7299   24.0902  -28.4935 H   0  0  0  0  0  0  0  0  0  0  0  0
    1.8980   24.1471  -26.3303 H   0  0  0  0  0  0  0  0  0  0  0  0
    1.7829   23.1324  -27.8081 H   0  0  0  0  0  0  0  0  0  0  0  0
    2.8103   24.6058  -27.8081 H   0  0  0  0  0  0  0  0  0  0  0  0
  1  2  1  0
  2  3  1  0
  3  4  2  0
  4  5  1  0
  5  6  2  0
  6  7  1  0
  7  8  1  0
  8  9  1  0
  9 10  1  0
 10 11  2  0
 11 12  1  0
 12 13  2  0
 13 14  1  0
 14 15  2  0
  8 16  1  0
 16 17  2  0
 16 18  2  0
 16 19  1  0
 19 20  2  0
 20 21  1  0
 21 22  2  0
 22 23  1  0
 22 24  1  0
 24 25  2  0
  6 26  1  0
 26 27  2  0
 27 28  1  0
 28 29  1  0
 27  3  1  0
 15 10  1  0
 25 19  1  0
  1 30  1  0
  1 31  1  0
  1 32  1  0
  4 33  1  0
  5 34  1  0
  7 35  1  0
  7 36  1  0
  9 37  1  0
  9 38  1  0
 11 39  1  0
 12 40  1  0
 13 41  1  0
 14 42  1  0
 15 43  1  0
 20 44  1  0
 21 45  1  0
 24 46  1  0
 25 47  1  0
 26 48  1  0
 29 49  1  0
 29 50  1  0
 29 51  1  0
M  END
>  <UniqueID>  (11) 
10

>  <SMILES>  (11) 
COc1ccc(CN(Cc2ccccc2)S(=O)(=O)c2ccc(Cl)cc2)cc1OC

>  <Energy>  (11) 
49.45434275070915

>  <Genealogy>  (11) 
COc1ccc(CN(Cc2ccccc2)S(=O)(=O)c2ccc(Cl)cc2)cc1OC (3D coordinates assigned)
COc1ccc(CN(Cc2ccccc2)S(=O)(=O)c2ccc(Cl)cc2)cc1OC (optimized conformer: 49.45434275070915 kcal/mol)

>  <smiles>  (11) 
COc1ccc(CN(Cc2ccccc2)S(=O)(=O)c2ccc(Cl)cc2)cc1OC

>  <score_type>  (11) 
oracle

>  <origin>  (11) 
adg

>  <m_score__min__energy>  (11) 
-9.3000000000000007

>  <m_primary>  (11) 
energy

$$$$
11:0
     RDKit          3D

 61 65  0  0  0  0  0  0  0  0999 V2000
   -0.3340   22.9230  -24.8430 C   0  0  0  0  0  0  0  0  0  0  0  0
   -1.2420   22.4200  -25.8200 O   0  0  0  0  0  0  0  0  0  0  0  0
   -1.0230   21.2710  -26.5990 C   0  0  0  0  0  0  0  0  0  0  0  0
   -1.6720   20.0470  -26.3300 C   0  0  0  0  0  0  0  0  0  0  0  0
   -1.4130   18.9220  -27.1200 C   0  0  0  0  0  0  0  0  0  0  0  0
   -0.5150   19.0050  -28.1860 C   0  0  0  0  0  0  0  0  0  0  0  0
    0.1180   20.2170  -28.4740 C   0  0  0  0  0  0  0  0  0  0  0  0
   -0.1380   21.3550  -27.6860 C   0  0  0  0  0  0  0  0  0  0  0  0
    0.5410   22.5910  -27.9360 N   0  0  0  0  0  0  0  0  0  0  0  0
   -0.1000   23.8320  -28.2500 C   0  0  0  0  0  0  0  0  0  0  0  0
    0.5310   24.9180  -28.1600 O   0  0  0  0  0  0  0  0  0  0  0  0
   -1.4920   23.8170  -28.7230 C   0  0  0  0  0  0  0  0  0  0  0  0
   -2.7400   24.6080  -27.9080 S   0  0  0  0  0  0  0  0  0  0  0  0
   -3.9350   24.0980  -28.9600 C   0  0  0  0  0  0  0  0  0  0  0  0
   -5.2520   24.4080  -28.8880 N   0  0  0  0  0  0  0  0  0  0  0  0
   -6.1020   23.8930  -29.8170 C   0  0  0  0  0  0  0  0  0  0  0  0
   -5.6370   23.0460  -30.7790 N   0  0  0  0  0  0  0  0  0  0  0  0
   -4.3160   22.7110  -30.8650 C   0  0  0  0  0  0  0  0  0  0  0  0
   -3.9190   21.7240  -31.8240 N   0  0  0  0  0  0  0  0  0  0  0  0
   -4.4400   21.7870  -33.1910 C   0  0  0  0  0  0  0  0  0  0  0  0
   -5.4010   20.6090  -33.4520 C   0  0  0  0  0  0  0  0  0  0  0  0
   -4.9880   19.3270  -32.8070 N   0  0  0  0  0  0  0  0  0  0  0  0
   -5.9280   18.9020  -31.7460 C   0  0  0  0  0  0  0  0  0  0  0  0
   -7.2480   19.6040  -31.9180 C   0  0  0  0  0  0  0  0  0  0  0  0
   -8.2990   18.9930  -32.6260 C   0  0  0  0  0  0  0  0  0  0  0  0
   -9.5320   19.6410  -32.7520 C   0  0  0  0  0  0  0  0  0  0  0  0
   -9.7260   20.8940  -32.1660 C   0  0  0  0  0  0  0  0  0  0  0  0
   -8.6870   21.5070  -31.4610 C   0  0  0  0  0  0  0  0  0  0  0  0
   -7.4510   20.8650  -31.3360 C   0  0  0  0  0  0  0  0  0  0  0  0
   -3.5880   19.3280  -32.3320 C   0  0  0  0  0  0  0  0  0  0  0  0
   -3.3410   20.4670  -31.3320 C   0  0  0  0  0  0  0  0  0  0  0  0
   -3.4120   23.2750  -29.9450 C   0  0  0  0  0  0  0  0  0  0  0  0
   -2.0100   23.1140  -29.8300 C   0  0  0  0  0  0  0  0  0  0  0  0
   -1.1680   22.2910  -30.7680 C   0  0  0  0  0  0  0  0  0  0  0  0
   -0.7222   22.7079  -23.8365 H   0  0  0  0  0  0  0  0  0  0  0  0
    0.6457   22.4390  -24.9693 H   0  0  0  0  0  0  0  0  0  0  0  0
   -0.2248   24.0103  -24.9693 H   0  0  0  0  0  0  0  0  0  0  0  0
   -2.3849   19.9773  -25.4952 H   0  0  0  0  0  0  0  0  0  0  0  0
   -1.9180   17.9697  -26.9009 H   0  0  0  0  0  0  0  0  0  0  0  0
   -0.3058   18.1161  -28.7992 H   0  0  0  0  0  0  0  0  0  0  0  0
    0.8188   20.2820  -29.3194 H   0  0  0  0  0  0  0  0  0  0  0  0
   -5.6130   25.0330  -28.1350 H   0  0  0  0  0  0  0  0  0  0  0  0
   -7.1686   24.1610  -29.7920 H   0  0  0  0  0  0  0  0  0  0  0  0
   -4.9812   22.7345  -33.3298 H   0  0  0  0  0  0  0  0  0  0  0  0
   -3.5992   21.7265  -33.8977 H   0  0  0  0  0  0  0  0  0  0  0  0
   -6.3949   20.8833  -33.0688 H   0  0  0  0  0  0  0  0  0  0  0  0
   -5.3964   20.4322  -34.5377 H   0  0  0  0  0  0  0  0  0  0  0  0
   -6.0823   17.8148  -31.8099 H   0  0  0  0  0  0  0  0  0  0  0  0
   -5.5059   19.1612  -30.7639 H   0  0  0  0  0  0  0  0  0  0  0  0
   -8.1506   18.0029  -33.0817 H   0  0  0  0  0  0  0  0  0  0  0  0
  -10.3492   19.1638  -33.3127 H   0  0  0  0  0  0  0  0  0  0  0  0
  -10.6986   21.3992  -32.2597 H   0  0  0  0  0  0  0  0  0  0  0  0
   -8.8414   22.4955  -31.0039 H   0  0  0  0  0  0  0  0  0  0  0  0
   -6.6352   21.3498  -30.7798 H   0  0  0  0  0  0  0  0  0  0  0  0
   -3.3752   18.3670  -31.8408 H   0  0  0  0  0  0  0  0  0  0  0  0
   -2.9266   19.4760  -33.1984 H   0  0  0  0  0  0  0  0  0  0  0  0
   -3.8051   20.2088  -30.3687 H   0  0  0  0  0  0  0  0  0  0  0  0
   -2.2561   20.6008  -31.2092 H   0  0  0  0  0  0  0  0  0  0  0  0
   -0.5008   21.6388  -30.1853 H   0  0  0  0  0  0  0  0  0  0  0  0
   -1.8218   21.6741  -31.4020 H   0  0  0  0  0  0  0  0  0  0  0  0
   -0.5662   22.9587  -31.4020 H   0  0  0  0  0  0  0  0  0  0  0  0
  1  2  1  0
  2  3  1  0
  3  4  2  0
  4  5  1  0
  5  6  2  0
  6  7  1  0
  7  8  2  0
  8  9  1  0
  9 10  1  0
 10 11  2  0
 10 12  1  0
 12 13  1  0
 13 14  1  0
 14 15  2  0
 15 16  1  0
 16 17  2  0
 17 18  1  0
 18 19  1  0
 19 20  1  0
 20 21  1  0
 21 22  1  0
 22 23  1  0
 23 24  1  0
 24 25  2  0
 25 26  1  0
 26 27  2  0
 27 28  1  0
 28 29  2  0
 22 30  1  0
 30 31  1  0
 18 32  2  0
 32 33  1  0
 33 34  1  0
  8  3  1  0
 33 12  2  0
 32 14  1  0
 31 19  1  0
 29 24  1  0
  1 35  1  0
  1 36  1  0
  1 37  1  0
  4 38  1  0
  5 39  1  0
  6 40  1  0
  7 41  1  0
 15 42  1  0
 16 43  1  0
 20 44  1  0
 20 45  1  0
 21 46  1  0
 21 47  1  0
 23 48  1  0
 23 49  1  0
 25 50  1  0
 26 51  1  0
 27 52  1  0
 28 53  1  0
 29 54  1  0
 30 55  1  0
 30 56  1  0
 31 57  1  0
 31 58  1  0
 34 59  1  0
 34 60  1  0
 34 61  1  0
M  CHG  2   9  -1  15   1
M  END
>  <UniqueID>  (12) 
11

>  <SMILES>  (12) 
COc1ccccc1[N-]C(=O)c1sc2[nH+]cnc(N3CCN(Cc4ccccc4)CC3)c2c1C

>  <Energy>  (12) 
123.5020004190029

>  <Genealogy>  (12) 
COc1ccccc1[N-]C(=O)c1sc2[nH+]cnc(N3CCN(Cc4ccccc4)CC3)c2c1C (protonated)
COc1ccccc1[N-]C(=O)c1sc2[nH+]cnc(N3CCN(Cc4ccccc4)CC3)c2c1C (3D coordinates assigned)
COc1ccccc1[N-]C(=O)c1sc2[nH+]cnc(N3CCN(Cc4ccccc4)CC3)c2c1C (nonaromatic ring conformer: 123.5020004190029 kcal/mol)

>  <smiles>  (12) 
COc1ccccc1NC(=O)c1sc2ncnc(N3CCN(Cc4ccccc4)CC3)c2c1C

>  <score_type>  (12) 
oracle

>  <origin>  (12) 
adg

>  <m_score__min__energy>  (12) 
-11.58

>  <m_primary>  (12) 
energy

$$$$
12:0
     RDKit          3D

 46 50  0  0  0  0  0  0  0  0999 V2000
   -0.4450   21.2160  -31.1240 C   0  0  0  0  0  0  0  0  0  0  0  0
   -0.2010   21.0950  -29.7270 O   0  0  0  0  0  0  0  0  0  0  0  0
   -1.1320   20.6090  -28.7950 C   0  0  0  0  0  0  0  0  0  0  0  0
   -1.0590   19.2960  -28.2860 C   0  0  0  0  0  0  0  0  0  0  0  0
   -2.0210   18.8340  -27.3860 C   0  0  0  0  0  0  0  0  0  0  0  0
   -3.0620   19.6680  -26.9810 C   0  0  0  0  0  0  0  0  0  0  0  0
   -3.1410   20.9740  -27.4700 C   0  0  0  0  0  0  0  0  0  0  0  0
   -2.1770   21.4530  -28.3710 C   0  0  0  0  0  0  0  0  0  0  0  0
   -2.2790   22.8390  -28.8720 C   0  0  0  0  0  0  0  0  0  0  0  0
   -1.4110   23.8760  -28.5840 C   0  0  0  0  0  0  0  0  0  0  0  0
   -0.2820   24.2790  -27.9150 C   0  0  0  0  0  0  0  0  0  0  0  0
    0.6570   23.4380  -27.1180 C   0  0  0  0  0  0  0  0  0  0  0  0
   -0.1360   25.6160  -28.1320 N   0  0  0  0  0  0  0  0  0  0  0  0
   -1.1470   26.0590  -28.8860 N   0  0  0  0  0  0  0  0  0  0  0  0
   -1.8920   24.9730  -29.1350 C   0  0  0  0  0  0  0  0  0  0  0  0
   -3.0650   24.6840  -29.7710 C   0  0  0  0  0  0  0  0  0  0  0  0
   -3.8670   25.5750  -30.4740 O   0  0  0  0  0  0  0  0  0  0  0  0
   -3.3150   23.3530  -29.6100 N   0  0  0  0  0  0  0  0  0  0  0  0
   -4.4380   22.6340  -30.1490 C   0  0  0  0  0  0  0  0  0  0  0  0
   -5.7480   23.0180  -29.8300 C   0  0  0  0  0  0  0  0  0  0  0  0
   -6.8400   22.3280  -30.3620 C   0  0  0  0  0  0  0  0  0  0  0  0
   -6.6430   21.2330  -31.2240 C   0  0  0  0  0  0  0  0  0  0  0  0
   -7.8040   20.5000  -31.7940 C   0  0  0  0  0  0  0  0  0  0  0  0
   -7.8920   19.1410  -32.0480 C   0  0  0  0  0  0  0  0  0  0  0  0
   -9.1490   18.9350  -32.5730 C   0  0  0  0  0  0  0  0  0  0  0  0
   -9.7960   20.0760  -32.6400 O   0  0  0  0  0  0  0  0  0  0  0  0
   -9.0230   21.0330  -32.1830 C   0  0  0  0  0  0  0  0  0  0  0  0
   -5.3260   20.8470  -31.5350 C   0  0  0  0  0  0  0  0  0  0  0  0
   -4.2360   21.5400  -31.0010 C   0  0  0  0  0  0  0  0  0  0  0  0
   -1.4198   21.6994  -31.2854 H   0  0  0  0  0  0  0  0  0  0  0  0
    0.3471   21.8257  -31.5831 H   0  0  0  0  0  0  0  0  0  0  0  0
   -0.4509   20.2164  -31.5831 H   0  0  0  0  0  0  0  0  0  0  0  0
   -0.2398   18.6323  -28.5997 H   0  0  0  0  0  0  0  0  0  0  0  0
   -1.9573   17.8079  -26.9949 H   0  0  0  0  0  0  0  0  0  0  0  0
   -3.8212   19.2976  -26.2764 H   0  0  0  0  0  0  0  0  0  0  0  0
   -3.9627   21.6304  -27.1475 H   0  0  0  0  0  0  0  0  0  0  0  0
    0.4750   23.6010  -26.0455 H   0  0  0  0  0  0  0  0  0  0  0  0
    0.4951   22.3773  -27.3603 H   0  0  0  0  0  0  0  0  0  0  0  0
    1.6935   23.7154  -27.3603 H   0  0  0  0  0  0  0  0  0  0  0  0
   -5.9175   23.8699  -29.1550 H   0  0  0  0  0  0  0  0  0  0  0  0
   -7.8621   22.6431  -30.1051 H   0  0  0  0  0  0  0  0  0  0  0  0
   -7.1168   18.3817  -31.8674 H   0  0  0  0  0  0  0  0  0  0  0  0
   -9.5506   17.9608  -32.8888 H   0  0  0  0  0  0  0  0  0  0  0  0
   -9.3001   22.0956  -32.1185 H   0  0  0  0  0  0  0  0  0  0  0  0
   -5.1527   19.9918  -32.2047 H   0  0  0  0  0  0  0  0  0  0  0  0
   -3.2124   21.2244  -31.2513 H   0  0  0  0  0  0  0  0  0  0  0  0
  1  2  1  0
  2  3  1  0
  3  4  2  0
  4  5  1  0
  5  6  2  0
  6  7  1  0
  7  8  2  0
  8  9  1  0
  9 10  2  0
 10 11  1  0
 11 12  1  0
 11 13  2  0
 13 14  1  0
 14 15  1  0
 15 16  2  0
 16 17  1  0
 16 18  1  0
 18 19  1  0
 19 20  2  0
 20 21  1  0
 21 22  2  0
 22 23  1  0
 23 24  1  0
 24 25  2  0
 25 26  1  0
 26 27  1  0
 22 28  1  0
 28 29  2  0
  8  3  1  0
 18  9  1  0
 29 19  1  0
 15 10  1  0
 27 23  2  0
  1 30  1  0
  1 31  1  0
  1 32  1  0
  4 33  1  0
  5 34  1  0
  6 35  1  0
  7 36  1  0
 12 37  1  0
 12 38  1  0
 12 39  1  0
 20 40  1  0
 21 41  1  0
 24 42  1  0
 25 43  1  0
 27 44  1  0
 28 45  1  0
 29 46  1  0
M  CHG  2  14  -1  17  -1
M  END
>  <UniqueID>  (13) 
12

>  <SMILES>  (13) 
COc1ccccc1-c1c2c(C)n[n-]c2c([O-])n1-c1ccc(-c2ccoc2)cc1

>  <Energy>  (13) 
181.47073711035583

>  <Genealogy>  (13) 
COc1ccccc1-c1c2c(C)n[n-]c2c([O-])n1-c1ccc(-c2ccoc2)cc1 (protonated)
COc1ccccc1-c1c2c(C)n[n-]c2c([O-])n1-c1ccc(-c2ccoc2)cc1 (3D coordinates assigned)
COc1ccccc1-c1c2c(C)n[n-]c2c([O-])n1-c1ccc(-c2ccoc2)cc1 (optimized conformer: 181.47073711035583 kcal/mol)

>  <smiles>  (13) 
COc1ccccc1-c1c2c(C)n[nH]c2c(O)n1-c1ccc(-c2ccoc2)cc1

>  <score_type>  (13) 
oracle

>  <origin>  (13) 
adg

>  <m_score__min__energy>  (13) 
-13.380000000000001

>  <m_primary>  (13) 
energy

$$$$
13:0
     RDKit          3D

 41 44  0  0  0  0  0  0  0  0999 V2000
   -0.8920   26.0320  -24.4390 C   0  0  0  0  0  0  0  0  0  0  0  0
   -1.2110   25.7930  -25.8760 C   0  0  0  0  0  0  0  0  0  0  0  0
   -0.9520   26.6670  -26.9160 C   0  0  0  0  0  0  0  0  0  0  0  0
   -1.3420   25.9640  -28.0320 C   0  0  0  0  0  0  0  0  0  0  0  0
   -1.2260   26.4170  -29.3410 O   0  0  0  0  0  0  0  0  0  0  0  0
   -1.8060   24.7500  -27.6700 N   0  0  0  0  0  0  0  0  0  0  0  0
   -2.2890   23.6980  -28.5250 C   0  0  0  0  0  0  0  0  0  0  0  0
   -1.4680   22.6130  -28.8740 C   0  0  0  0  0  0  0  0  0  0  0  0
   -1.9440   21.6040  -29.7150 C   0  0  0  0  0  0  0  0  0  0  0  0
   -3.2520   21.6670  -30.2290 C   0  0  0  0  0  0  0  0  0  0  0  0
   -3.7690   20.6760  -31.0800 C   0  0  0  0  0  0  0  0  0  0  0  0
   -3.0490   19.6900  -31.4060 O   0  0  0  0  0  0  0  0  0  0  0  0
   -5.0480   20.7820  -31.5610 N   0  0  0  0  0  0  0  0  0  0  0  0
   -5.5510   19.7590  -32.4420 C   0  0  0  0  0  0  0  0  0  0  0  0
   -6.3490   18.7220  -31.9340 C   0  0  0  0  0  0  0  0  0  0  0  0
   -6.8360   17.7290  -32.7890 C   0  0  0  0  0  0  0  0  0  0  0  0
   -6.5260   17.7630  -34.1520 C   0  0  0  0  0  0  0  0  0  0  0  0
   -5.7270   18.7920  -34.6620 C   0  0  0  0  0  0  0  0  0  0  0  0
   -5.2390   19.7870  -33.8100 C   0  0  0  0  0  0  0  0  0  0  0  0
   -5.8380   21.8500  -31.2080 C   0  0  0  0  0  0  0  0  0  0  0  0
   -7.2510   21.9780  -31.7200 C   0  0  0  0  0  0  0  0  0  0  0  0
   -5.3410   22.8240  -30.3930 N   0  0  0  0  0  0  0  0  0  0  0  0
   -4.0760   22.7570  -29.8960 C   0  0  0  0  0  0  0  0  0  0  0  0
   -3.5890   23.7670  -29.0520 C   0  0  0  0  0  0  0  0  0  0  0  0
   -1.7100   24.6340  -26.3530 N   0  0  0  0  0  0  0  0  0  0  0  0
   -1.6134   25.4915  -23.8085 H   0  0  0  0  0  0  0  0  0  0  0  0
    0.1249   25.6716  -24.2243 H   0  0  0  0  0  0  0  0  0  0  0  0
   -0.9522   27.1092  -24.2243 H   0  0  0  0  0  0  0  0  0  0  0  0
   -0.5335   27.6829  -26.8632 H   0  0  0  0  0  0  0  0  0  0  0  0
   -0.4418   22.5573  -28.4819 H   0  0  0  0  0  0  0  0  0  0  0  0
   -1.2932   20.7566  -29.9764 H   0  0  0  0  0  0  0  0  0  0  0  0
   -6.5915   18.6906  -30.8615 H   0  0  0  0  0  0  0  0  0  0  0  0
   -7.4642   16.9195  -32.3888 H   0  0  0  0  0  0  0  0  0  0  0  0
   -6.9103   16.9808  -34.8232 H   0  0  0  0  0  0  0  0  0  0  0  0
   -5.4826   18.8181  -35.7342 H   0  0  0  0  0  0  0  0  0  0  0  0
   -4.6090   20.5938  -34.2127 H   0  0  0  0  0  0  0  0  0  0  0  0
   -7.9451   22.0409  -30.8689 H   0  0  0  0  0  0  0  0  0  0  0  0
   -7.3382   22.8877  -32.3322 H   0  0  0  0  0  0  0  0  0  0  0  0
   -7.5002   21.0988  -32.3322 H   0  0  0  0  0  0  0  0  0  0  0  0
   -5.9460   23.6400  -30.1410 H   0  0  0  0  0  0  0  0  0  0  0  0
   -4.2329   24.6226  -28.8003 H   0  0  0  0  0  0  0  0  0  0  0  0
  1  2  1  0
  2  3  1  0
  3  4  2  0
  4  5  1  0
  4  6  1  0
  6  7  1  0
  7  8  2  0
  8  9  1  0
  9 10  2  0
 10 11  1  0
 11 12  2  0
 11 13  1  0
 13 14  1  0
 14 15  2  0
 15 16  1  0
 16 17  2  0
 17 18  1  0
 18 19  2  0
 13 20  1  0
 20 21  1  0
 20 22  2  0
 22 23  1  0
 23 24  2  0
  6 25  1  0
 25  2  2  0
 24  7  1  0
 23 10  1  0
 19 14  1  0
  1 26  1  0
  1 27  1  0
  1 28  1  0
  3 29  1  0
  8 30  1  0
  9 31  1  0
 15 32  1  0
 16 33  1  0
 17 34  1  0
 18 35  1  0
 19 36  1  0
 21 37  1  0
 21 38  1  0
 21 39  1  0
 22 40  1  0
 24 41  1  0
M  CHG  2   5  -1  22   1
M  END
>  <UniqueID>  (14) 
13

>  <SMILES>  (14) 
Cc1cc([O-])n(-c2ccc3c(=O)n(-c4ccccc4)c(C)[nH+]c3c2)n1

>  <Energy>  (14) 
93.91703992129732

>  <Genealogy>  (14) 
Cc1cc([O-])n(-c2ccc3c(=O)n(-c4ccccc4)c(C)[nH+]c3c2)n1 (protonated)
Cc1cc([O-])n(-c2ccc3c(=O)n(-c4ccccc4)c(C)[nH+]c3c2)n1 (3D coordinates assigned)
Cc1cc([O-])n(-c2ccc3c(=O)n(-c4ccccc4)c(C)[nH+]c3c2)n1 (optimized conformer: 93.91703992129732 kcal/mol)

>  <smiles>  (14) 
Cc1cc(O)n(-c2ccc3c(=O)n(-c4ccccc4)c(C)nc3c2)n1

>  <score_type>  (14) 
oracle

>  <origin>  (14) 
adg

>  <m_score__min__energy>  (14) 
-9.9000000000000004

>  <m_primary>  (14) 
energy

$$$$
14:0
     RDKit          3D

 47 48  0  0  0  0  0  0  0  0999 V2000
   -4.2200   22.7450  -27.5130 C   0  0  0  0  0  0  0  0  0  0  0  0
   -3.7310   24.1620  -27.8540 C   0  0  0  0  0  0  0  0  0  0  0  0
   -2.2620   24.2930  -27.9950 N   0  0  0  0  0  0  0  0  0  0  0  0
   -1.6410   25.4240  -27.2750 C   0  0  0  0  0  0  0  0  0  0  0  0
   -2.3400   25.6520  -25.9380 C   0  0  0  0  0  0  0  0  0  0  0  0
   -1.6970   23.9980  -29.3310 C   0  0  0  0  0  0  0  0  0  0  0  0
   -2.5640   23.0760  -30.2010 C   0  0  0  0  0  0  0  0  0  0  0  0
   -3.5730   23.8460  -30.8510 O   0  0  0  0  0  0  0  0  0  0  0  0
   -4.9060   23.4450  -31.0250 C   0  0  0  0  0  0  0  0  0  0  0  0
   -5.9520   23.9700  -30.2400 C   0  0  0  0  0  0  0  0  0  0  0  0
   -7.2650   23.5280  -30.4270 C   0  0  0  0  0  0  0  0  0  0  0  0
   -7.5490   22.5610  -31.3920 C   0  0  0  0  0  0  0  0  0  0  0  0
   -9.3420   21.9490  -31.6320 Br  0  0  0  0  0  0  0  0  0  0  0  0
   -6.5200   22.0360  -32.1800 C   0  0  0  0  0  0  0  0  0  0  0  0
   -5.1990   22.4810  -32.0110 C   0  0  0  0  0  0  0  0  0  0  0  0
   -4.0910   21.8760  -32.8280 C   0  0  0  0  0  0  0  0  0  0  0  0
   -3.9400   20.5080  -32.4590 O   0  0  0  0  0  0  0  0  0  0  0  0
   -4.9120   19.5170  -32.6630 C   0  0  0  0  0  0  0  0  0  0  0  0
   -5.1130   19.0440  -33.9650 C   0  0  0  0  0  0  0  0  0  0  0  0
   -6.0800   18.0670  -34.2230 C   0  0  0  0  0  0  0  0  0  0  0  0
   -6.8480   17.5490  -33.1770 C   0  0  0  0  0  0  0  0  0  0  0  0
   -6.6490   18.0070  -31.8720 C   0  0  0  0  0  0  0  0  0  0  0  0
   -5.6840   18.9870  -31.6110 C   0  0  0  0  0  0  0  0  0  0  0  0
   -4.2616   22.6245  -26.4204 H   0  0  0  0  0  0  0  0  0  0  0  0
   -5.2232   22.5913  -27.9373 H   0  0  0  0  0  0  0  0  0  0  0  0
   -3.5251   22.0053  -27.9373 H   0  0  0  0  0  0  0  0  0  0  0  0
   -4.1948   24.4650  -28.8043 H   0  0  0  0  0  0  0  0  0  0  0  0
   -4.0201   24.8024  -27.0076 H   0  0  0  0  0  0  0  0  0  0  0  0
   -0.5792   25.2000  -27.0952 H   0  0  0  0  0  0  0  0  0  0  0  0
   -1.7373   26.3327  -27.8874 H   0  0  0  0  0  0  0  0  0  0  0  0
   -1.6440   25.4250  -25.1170 H   0  0  0  0  0  0  0  0  0  0  0  0
   -2.6614   26.7016  -25.8666 H   0  0  0  0  0  0  0  0  0  0  0  0
   -3.2185   24.9938  -25.8666 H   0  0  0  0  0  0  0  0  0  0  0  0
   -1.5648   24.9501  -29.8657 H   0  0  0  0  0  0  0  0  0  0  0  0
   -0.7500   23.4654  -29.1590 H   0  0  0  0  0  0  0  0  0  0  0  0
   -1.9332   22.5855  -30.9570 H   0  0  0  0  0  0  0  0  0  0  0  0
   -3.0375   22.3121  -29.5667 H   0  0  0  0  0  0  0  0  0  0  0  0
   -5.7343   24.7313  -29.4764 H   0  0  0  0  0  0  0  0  0  0  0  0
   -8.0765   23.9437  -29.8117 H   0  0  0  0  0  0  0  0  0  0  0  0
   -6.7467   21.2702  -32.9364 H   0  0  0  0  0  0  0  0  0  0  0  0
   -4.3406   21.9448  -33.8971 H   0  0  0  0  0  0  0  0  0  0  0  0
   -3.1520   22.4181  -32.6423 H   0  0  0  0  0  0  0  0  0  0  0  0
   -4.5062   19.4435  -34.7910 H   0  0  0  0  0  0  0  0  0  0  0  0
   -6.2360   17.7061  -35.2503 H   0  0  0  0  0  0  0  0  0  0  0  0
   -7.6088   16.7811  -33.3807 H   0  0  0  0  0  0  0  0  0  0  0  0
   -7.2517   17.5968  -31.0483 H   0  0  0  0  0  0  0  0  0  0  0  0
   -5.5284   19.3438  -30.5822 H   0  0  0  0  0  0  0  0  0  0  0  0
  1  2  1  0
  2  3  1  0
  3  4  1  0
  4  5  1  0
  3  6  1  0
  6  7  1  0
  7  8  1  0
  8  9  1  0
  9 10  2  0
 10 11  1  0
 11 12  2  0
 12 13  1  0
 12 14  1  0
 14 15  2  0
 15 16  1  0
 16 17  1  0
 17 18  1  0
 18 19  2  0
 19 20  1  0
 20 21  2  0
 21 22  1  0
 22 23  2  0
 15  9  1  0
 23 18  1  0
  1 24  1  0
  1 25  1  0
  1 26  1  0
  2 27  1  0
  2 28  1  0
  4 29  1  0
  4 30  1  0
  5 31  1  0
  5 32  1  0
  5 33  1  0
  6 34  1  0
  6 35  1  0
  7 36  1  0
  7 37  1  0
 10 38  1  0
 11 39  1  0
 14 40  1  0
 16 41  1  0
 16 42  1  0
 19 43  1  0
 20 44  1  0
 21 45  1  0
 22 46  1  0
 23 47  1  0
M  END
>  <UniqueID>  (15) 
14

>  <SMILES>  (15) 
CCN(CC)CCOc1ccc(Br)cc1COc1ccccc1

>  <Energy>  (15) 
49.82499375520586

>  <Genealogy>  (15) 
CCN(CC)CCOc1ccc(Br)cc1COc1ccccc1 (3D coordinates assigned)
CCN(CC)CCOc1ccc(Br)cc1COc1ccccc1 (optimized conformer: 49.82499375520586 kcal/mol)

>  <smiles>  (15) 
CCN(CC)CCOc1ccc(Br)cc1COc1ccccc1

>  <score_type>  (15) 
oracle

>  <origin>  (15) 
adg

>  <m_score__min__energy>  (15) 
-7.1900000000000004

>  <m_primary>  (15) 
energy

$$$$
15:0
     RDKit          3D

 37 40  0  0  0  0  0  0  0  0999 V2000
   -8.5450   18.5630  -32.6960 C   0  0  0  0  0  0  0  0  0  0  0  0
   -8.3750   19.9760  -32.2040 C   0  0  0  0  0  0  0  0  0  0  0  0
   -9.4810   20.6780  -31.7040 C   0  0  0  0  0  0  0  0  0  0  0  0
   -9.3320   21.9790  -31.2280 C   0  0  0  0  0  0  0  0  0  0  0  0
   -8.0840   22.6010  -31.2510 C   0  0  0  0  0  0  0  0  0  0  0  0
   -6.9560   21.9280  -31.7630 C   0  0  0  0  0  0  0  0  0  0  0  0
   -5.6760   22.5360  -31.8230 C   0  0  0  0  0  0  0  0  0  0  0  0
   -5.4650   24.2810  -31.3740 S   0  0  0  0  0  0  0  0  0  0  0  0
   -4.4580   23.9040  -29.9330 C   0  0  0  0  0  0  0  0  0  0  0  0
   -3.2250   24.5450  -29.7490 C   0  0  0  0  0  0  0  0  0  0  0  0
   -2.4390   24.2480  -28.6320 C   0  0  0  0  0  0  0  0  0  0  0  0
   -2.8860   23.3170  -27.6890 C   0  0  0  0  0  0  0  0  0  0  0  0
   -2.1230   23.0290  -26.6040 F   0  0  0  0  0  0  0  0  0  0  0  0
   -4.1220   22.6880  -27.8610 C   0  0  0  0  0  0  0  0  0  0  0  0
   -4.9090   22.9840  -28.9770 C   0  0  0  0  0  0  0  0  0  0  0  0
   -4.5690   21.7710  -32.2630 C   0  0  0  0  0  0  0  0  0  0  0  0
   -3.2510   22.2790  -32.2700 C   0  0  0  0  0  0  0  0  0  0  0  0
   -2.1920   21.4950  -32.7350 C   0  0  0  0  0  0  0  0  0  0  0  0
   -2.4230   20.1970  -33.1900 C   0  0  0  0  0  0  0  0  0  0  0  0
   -3.7160   19.6720  -33.1750 C   0  0  0  0  0  0  0  0  0  0  0  0
   -4.7850   20.4460  -32.7090 C   0  0  0  0  0  0  0  0  0  0  0  0
   -6.0300   19.9110  -32.6830 N   0  0  0  0  0  0  0  0  0  0  0  0
   -7.1090   20.5960  -32.2240 C   0  0  0  0  0  0  0  0  0  0  0  0
   -8.6269   17.8825  -31.8356 H   0  0  0  0  0  0  0  0  0  0  0  0
   -9.4579   18.4944  -33.3059 H   0  0  0  0  0  0  0  0  0  0  0  0
   -7.6744   18.2799  -33.3059 H   0  0  0  0  0  0  0  0  0  0  0  0
  -10.4712   20.1992  -31.6875 H   0  0  0  0  0  0  0  0  0  0  0  0
  -10.2044   22.5190  -30.8315 H   0  0  0  0  0  0  0  0  0  0  0  0
   -7.9788   23.6261  -30.8661 H   0  0  0  0  0  0  0  0  0  0  0  0
   -2.8752   25.2835  -30.4854 H   0  0  0  0  0  0  0  0  0  0  0  0
   -1.4683   24.7468  -28.4946 H   0  0  0  0  0  0  0  0  0  0  0  0
   -4.4757   21.9591  -27.1170 H   0  0  0  0  0  0  0  0  0  0  0  0
   -5.8852   22.4935  -29.1055 H   0  0  0  0  0  0  0  0  0  0  0  0
   -3.0569   23.2990  -31.9068 H   0  0  0  0  0  0  0  0  0  0  0  0
   -1.1708   21.9037  -32.7423 H   0  0  0  0  0  0  0  0  0  0  0  0
   -1.5860   19.5870  -33.5607 H   0  0  0  0  0  0  0  0  0  0  0  0
   -3.8956   18.6466  -33.5305 H   0  0  0  0  0  0  0  0  0  0  0  0
  1  2  1  0
  2  3  2  0
  3  4  1  0
  4  5  2  0
  5  6  1  0
  6  7  2  0
  7  8  1  0
  8  9  1  0
  9 10  2  0
 10 11  1  0
 11 12  2  0
 12 13  1  0
 12 14  1  0
 14 15  2  0
  7 16  1  0
 16 17  2  0
 17 18  1  0
 18 19  2  0
 19 20  1  0
 20 21  2  0
 21 22  1  0
 22 23  2  0
 23  2  1  0
 23  6  1  0
 15  9  1  0
 21 16  1  0
  1 24  1  0
  1 25  1  0
  1 26  1  0
  3 27  1  0
  4 28  1  0
  5 29  1  0
 10 30  1  0
 11 31  1  0
 14 32  1  0
 15 33  1  0
 17 34  1  0
 18 35  1  0
 19 36  1  0
 20 37  1  0
M  END
>  <UniqueID>  (16) 
15

>  <SMILES>  (16) 
Cc1cccc2c(Sc3ccc(F)cc3)c3ccccc3nc12

>  <Energy>  (16) 
47.32299970000206

>  <Genealogy>  (16) 
Cc1cccc2c(Sc3ccc(F)cc3)c3ccccc3nc12 (3D coordinates assigned)
Cc1cccc2c(Sc3ccc(F)cc3)c3ccccc3nc12 (optimized conformer: 47.32299970000206 kcal/mol)

>  <smiles>  (16) 
Cc1cccc2c(Sc3ccc(F)cc3)c3ccccc3nc12

>  <score_type>  (16) 
oracle

>  <origin>  (16) 
adg

>  <m_score__min__energy>  (16) 
-8.3100000000000005

>  <m_primary>  (16) 
energy

$$$$
16:0
     RDKit          3D

 42 44  0  0  0  0  0  0  0  0999 V2000
   -9.7380   20.7890  -32.3390 C   0  0  0  0  0  0  0  0  0  0  0  0
   -9.3830   21.6720  -31.3190 C   0  0  0  0  0  0  0  0  0  0  0  0
   -8.0440   21.7320  -30.9180 C   0  0  0  0  0  0  0  0  0  0  0  0
   -7.6000   22.6620  -29.8150 C   0  0  0  0  0  0  0  0  0  0  0  0
   -6.4080   23.4700  -30.1580 N   0  0  0  0  0  0  0  0  0  0  0  0
   -5.2140   23.1260  -29.3660 C   0  0  0  0  0  0  0  0  0  0  0  0
   -3.9870   23.8760  -29.9300 C   0  0  0  0  0  0  0  0  0  0  0  0
   -4.3460   24.8610  -30.8880 O   0  0  0  0  0  0  0  0  0  0  0  0
   -5.3520   25.7040  -30.3600 C   0  0  0  0  0  0  0  0  0  0  0  0
   -6.6600   24.9240  -30.1290 C   0  0  0  0  0  0  0  0  0  0  0  0
   -7.1300   20.9440  -31.5410 N   0  0  0  0  0  0  0  0  0  0  0  0
   -7.4810   20.0840  -32.5370 C   0  0  0  0  0  0  0  0  0  0  0  0
   -6.4690   19.2680  -33.1680 N   0  0  0  0  0  0  0  0  0  0  0  0
   -6.6610   17.8110  -33.2650 C   0  0  0  0  0  0  0  0  0  0  0  0
   -6.0810   17.2780  -34.5830 C   0  0  0  0  0  0  0  0  0  0  0  0
   -4.6510   17.7810  -34.8800 C   0  0  0  0  0  0  0  0  0  0  0  0
   -4.1240   18.7770  -33.8400 C   0  0  0  0  0  0  0  0  0  0  0  0
   -5.1700   19.8550  -33.5350 C   0  0  0  0  0  0  0  0  0  0  0  0
   -8.7910   20.0130  -32.9280 N   0  0  0  0  0  0  0  0  0  0  0  0
  -10.7858   20.7209  -32.6668 H   0  0  0  0  0  0  0  0  0  0  0  0
  -10.1411   22.3086  -30.8394 H   0  0  0  0  0  0  0  0  0  0  0  0
   -8.4290   23.3474  -29.5847 H   0  0  0  0  0  0  0  0  0  0  0  0
   -7.3236   22.0319  -28.9567 H   0  0  0  0  0  0  0  0  0  0  0  0
   -5.3727   23.4191  -28.3177 H   0  0  0  0  0  0  0  0  0  0  0  0
   -5.0377   22.0416  -29.4214 H   0  0  0  0  0  0  0  0  0  0  0  0
   -3.4609   24.3676  -29.0984 H   0  0  0  0  0  0  0  0  0  0  0  0
   -3.3457   23.1376  -30.4334 H   0  0  0  0  0  0  0  0  0  0  0  0
   -5.0069   26.1195  -29.4018 H   0  0  0  0  0  0  0  0  0  0  0  0
   -5.5477   26.5109  -31.0816 H   0  0  0  0  0  0  0  0  0  0  0  0
   -7.0773   25.1994  -29.1492 H   0  0  0  0  0  0  0  0  0  0  0  0
   -7.3709   25.1774  -30.9293 H   0  0  0  0  0  0  0  0  0  0  0  0
   -6.1517   17.3219  -32.4215 H   0  0  0  0  0  0  0  0  0  0  0  0
   -7.7386   17.5918  -33.2364 H   0  0  0  0  0  0  0  0  0  0  0  0
   -6.0596   16.1793  -34.5339 H   0  0  0  0  0  0  0  0  0  0  0  0
   -6.7271   17.6492  -35.3922 H   0  0  0  0  0  0  0  0  0  0  0  0
   -3.9751   16.9135  -34.9050 H   0  0  0  0  0  0  0  0  0  0  0  0
   -4.6879   18.3094  -35.8441 H   0  0  0  0  0  0  0  0  0  0  0  0
   -3.8836   18.2360  -32.9129 H   0  0  0  0  0  0  0  0  0  0  0  0
   -3.2249   19.2646  -34.2448 H   0  0  0  0  0  0  0  0  0  0  0  0
   -4.8103   20.4740  -32.6998 H   0  0  0  0  0  0  0  0  0  0  0  0
   -5.3123   20.4598  -34.4427 H   0  0  0  0  0  0  0  0  0  0  0  0
   -9.0960   19.3560  -33.6790 H   0  0  0  0  0  0  0  0  0  0  0  0
  1  2  2  0
  2  3  1  0
  3  4  1  0
  4  5  1  0
  5  6  1  0
  6  7  1  0
  7  8  1  0
  8  9  1  0
  9 10  1  0
  3 11  2  0
 11 12  1  0
 12 13  1  0
 13 14  1  0
 14 15  1  0
 15 16  1  0
 16 17  1  0
 17 18  1  0
 12 19  2  0
 19  1  1  0
 10  5  1  0
 18 13  1  0
  1 20  1  0
  2 21  1  0
  4 22  1  0
  4 23  1  0
  6 24  1  0
  6 25  1  0
  7 26  1  0
  7 27  1  0
  9 28  1  0
  9 29  1  0
 10 30  1  0
 10 31  1  0
 14 32  1  0
 14 33  1  0
 15 34  1  0
 15 35  1  0
 16 36  1  0
 16 37  1  0
 17 38  1  0
 17 39  1  0
 18 40  1  0
 18 41  1  0
 19 42  1  0
M  CHG  1  19   1
M  END
>  <UniqueID>  (17) 
16

>  <SMILES>  (17) 
c1cc(CN2CCOCC2)nc(N2CCCCC2)[nH+]1

>  <Energy>  (17) 
55.3854003129271

>  <Genealogy>  (17) 
c1cc(CN2CCOCC2)nc(N2CCCCC2)[nH+]1 (protonated)
c1cc(CN2CCOCC2)nc(N2CCCCC2)[nH+]1 (3D coordinates assigned)
c1cc(CN2CCOCC2)nc(N2CCCCC2)[nH+]1 (nonaromatic ring conformer: 55.3854003129271 kcal/mol)

>  <smiles>  (17) 
c1cc(CN2CCOCC2)nc(N2CCCCC2)n1

>  <score_type>  (17) 
oracle

>  <origin>  (17) 
adg

>  <m_score__min__energy>  (17) 
-7.75

>  <m_primary>  (17) 
energy

$$$$
17:0
     RDKit          3D

 33 34  0  0  0  0  0  0  0  0999 V2000
   -2.9950   24.1840  -29.7120 C   0  0  0  0  0  0  0  0  0  0  0  0
   -3.9960   24.7320  -30.5480 O   0  0  0  0  0  0  0  0  0  0  0  0
   -5.2300   24.1340  -30.7430 C   0  0  0  0  0  0  0  0  0  0  0  0
   -5.7310   24.0470  -32.0370 C   0  0  0  0  0  0  0  0  0  0  0  0
   -6.9550   23.4630  -32.3030 C   0  0  0  0  0  0  0  0  0  0  0  0
   -7.7290   22.9410  -31.2710 C   0  0  0  0  0  0  0  0  0  0  0  0
   -9.0340   22.3270  -31.6160 C   0  0  0  0  0  0  0  0  0  0  0  0
   -8.8030   20.5330  -31.6590 S   0  0  0  0  0  0  0  0  0  0  0  0
   -7.1850   20.0970  -32.2850 C   0  0  0  0  0  0  0  0  0  0  0  0
   -6.0650   20.5230  -31.6390 N   0  0  0  0  0  0  0  0  0  0  0  0
   -4.8220   20.2250  -32.0660 C   0  0  0  0  0  0  0  0  0  0  0  0
   -3.8260   20.6360  -31.4420 O   0  0  0  0  0  0  0  0  0  0  0  0
   -4.7400   19.4540  -33.2130 C   0  0  0  0  0  0  0  0  0  0  0  0
   -3.4440   19.1050  -33.7170 C   0  0  0  0  0  0  0  0  0  0  0  0
   -2.3930   18.8200  -34.1370 N   0  0  0  0  0  0  0  0  0  0  0  0
   -5.8860   19.0160  -33.8800 C   0  0  0  0  0  0  0  0  0  0  0  0
   -5.7410   18.1780  -35.1210 C   0  0  0  0  0  0  0  0  0  0  0  0
   -7.0750   19.3490  -33.3980 N   0  0  0  0  0  0  0  0  0  0  0  0
   -7.2220   23.0340  -30.0070 C   0  0  0  0  0  0  0  0  0  0  0  0
   -6.0010   23.6150  -29.7260 C   0  0  0  0  0  0  0  0  0  0  0  0
   -3.2731   24.3363  -28.6587 H   0  0  0  0  0  0  0  0  0  0  0  0
   -2.8980   23.1070  -29.9136 H   0  0  0  0  0  0  0  0  0  0  0  0
   -2.0355   24.6826  -29.9136 H   0  0  0  0  0  0  0  0  0  0  0  0
   -5.1383   24.4532  -32.8699 H   0  0  0  0  0  0  0  0  0  0  0  0
   -7.3205   23.4103  -33.3392 H   0  0  0  0  0  0  0  0  0  0  0  0
   -9.7845   22.5901  -30.8560 H   0  0  0  0  0  0  0  0  0  0  0  0
   -9.3867   22.6937  -32.5912 H   0  0  0  0  0  0  0  0  0  0  0  0
   -5.5598   17.1308  -34.8372 H   0  0  0  0  0  0  0  0  0  0  0  0
   -6.6636   18.2421  -35.7166 H   0  0  0  0  0  0  0  0  0  0  0  0
   -4.8936   18.5484  -35.7166 H   0  0  0  0  0  0  0  0  0  0  0  0
   -7.9520   19.0480  -33.8560 H   0  0  0  0  0  0  0  0  0  0  0  0
   -7.8135   22.6273  -29.1735 H   0  0  0  0  0  0  0  0  0  0  0  0
   -5.6430   23.6635  -28.6870 H   0  0  0  0  0  0  0  0  0  0  0  0
  1  2  1  0
  2  3  1  0
  3  4  2  0
  4  5  1  0
  5  6  2  0
  6  7  1  0
  7  8  1  0
  8  9  1  0
  9 10  2  0
 10 11  1  0
 11 12  2  0
 11 13  1  0
 13 14  1  0
 14 15  3  0
 13 16  2  0
 16 17  1  0
 16 18  1  0
  6 19  1  0
 19 20  2  0
 20  3  1  0
 18  9  1  0
  1 21  1  0
  1 22  1  0
  1 23  1  0
  4 24  1  0
  5 25  1  0
  7 26  1  0
  7 27  1  0
 17 28  1  0
 17 29  1  0
 17 30  1  0
 18 31  1  0
 19 32  1  0
 20 33  1  0
M  END
>  <smiles>  (18) 
COc1ccc(CSc2nc(=O)c(C#N)c(C)[nH]2)cc1

>  <score_type>  (18) 
oracle

>  <origin>  (18) 
adg

>  <m_score__min__energy>  (18) 
-7.6200000000000001

>  <m_primary>  (18) 
energy

$$$$
18:0
     RDKit          3D

 57 60  0  0  0  0  0  0  0  0999 V2000
   -5.5200   25.6340  -30.5170 C   0  0  0  0  0  0  0  0  0  0  0  0
   -4.6080   24.5970  -30.7450 O   0  0  0  0  0  0  0  0  0  0  0  0
   -3.7930   23.4640  -30.8530 C   0  0  0  0  0  0  0  0  0  0  0  0
   -2.7870   23.1370  -29.9330 C   0  0  0  0  0  0  0  0  0  0  0  0
   -2.0050   21.9970  -30.1170 C   0  0  0  0  0  0  0  0  0  0  0  0
   -2.2360   21.1660  -31.2120 C   0  0  0  0  0  0  0  0  0  0  0  0
   -3.2500   21.4680  -32.1390 C   0  0  0  0  0  0  0  0  0  0  0  0
   -3.4760   20.6200  -33.2100 O   0  0  0  0  0  0  0  0  0  0  0  0
   -2.4600   19.8170  -33.7850 C   0  0  0  0  0  0  0  0  0  0  0  0
   -1.3560   20.4110  -34.4440 C   0  0  0  0  0  0  0  0  0  0  0  0
   -0.3500   19.6130  -35.0000 C   0  0  0  0  0  0  0  0  0  0  0  0
   -0.4440   18.2220  -34.9200 C   0  0  0  0  0  0  0  0  0  0  0  0
   -1.5430   17.6230  -34.3190 C   0  0  0  0  0  0  0  0  0  0  0  0
   -2.5590   18.4070  -33.7230 C   0  0  0  0  0  0  0  0  0  0  0  0
   -3.7470   17.7140  -33.0830 C   0  0  0  0  0  0  0  0  0  0  0  0
   -4.9290   17.5930  -33.9670 N   0  0  0  0  0  0  0  0  0  0  0  0
   -5.4940   18.8260  -34.5330 C   0  0  0  0  0  0  0  0  0  0  0  0
   -6.5420   19.4810  -33.5980 C   0  0  0  0  0  0  0  0  0  0  0  0
   -6.9980   18.5760  -32.5090 N   0  0  0  0  0  0  0  0  0  0  0  0
   -8.2210   19.0920  -31.8640 C   0  0  0  0  0  0  0  0  0  0  0  0
   -8.1710   20.5940  -31.6850 C   0  0  0  0  0  0  0  0  0  0  0  0
   -9.2460   21.4130  -32.0680 C   0  0  0  0  0  0  0  0  0  0  0  0
   -9.1340   22.7930  -31.9700 C   0  0  0  0  0  0  0  0  0  0  0  0
   -7.9520   23.3520  -31.4910 C   0  0  0  0  0  0  0  0  0  0  0  0
   -6.9210   22.5440  -31.1020 N   0  0  0  0  0  0  0  0  0  0  0  0
   -7.0100   21.2020  -31.1640 C   0  0  0  0  0  0  0  0  0  0  0  0
   -7.2430   17.2280  -33.0390 C   0  0  0  0  0  0  0  0  0  0  0  0
   -5.9570   16.5870  -33.5670 C   0  0  0  0  0  0  0  0  0  0  0  0
   -4.0180   22.6170  -31.9610 C   0  0  0  0  0  0  0  0  0  0  0  0
   -5.6473   25.7788  -29.4340 H   0  0  0  0  0  0  0  0  0  0  0  0
   -5.1403   26.5622  -30.9689 H   0  0  0  0  0  0  0  0  0  0  0  0
   -6.4891   25.3760  -30.9689 H   0  0  0  0  0  0  0  0  0  0  0  0
   -2.6133   23.7838  -29.0604 H   0  0  0  0  0  0  0  0  0  0  0  0
   -1.2075   21.7541  -29.3994 H   0  0  0  0  0  0  0  0  0  0  0  0
   -1.6197   20.2658  -31.3525 H   0  0  0  0  0  0  0  0  0  0  0  0
   -1.2890   21.5064  -34.5192 H   0  0  0  0  0  0  0  0  0  0  0  0
    0.5122   20.0799  -35.4986 H   0  0  0  0  0  0  0  0  0  0  0  0
    0.3589   17.5960  -35.3364 H   0  0  0  0  0  0  0  0  0  0  0  0
   -1.6248   16.5261  -34.3060 H   0  0  0  0  0  0  0  0  0  0  0  0
   -3.4357   16.7025  -32.7832 H   0  0  0  0  0  0  0  0  0  0  0  0
   -4.0535   18.3366  -32.2296 H   0  0  0  0  0  0  0  0  0  0  0  0
   -4.6771   19.5424  -34.7042 H   0  0  0  0  0  0  0  0  0  0  0  0
   -6.0023   18.5611  -35.4719 H   0  0  0  0  0  0  0  0  0  0  0  0
   -6.0945   20.3775  -33.1440 H   0  0  0  0  0  0  0  0  0  0  0  0
   -7.4217   19.7258  -34.2114 H   0  0  0  0  0  0  0  0  0  0  0  0
   -9.0886   18.8367  -32.4902 H   0  0  0  0  0  0  0  0  0  0  0  0
   -8.3028   18.6315  -30.8684 H   0  0  0  0  0  0  0  0  0  0  0  0
  -10.1754   20.9613  -32.4451 H   0  0  0  0  0  0  0  0  0  0  0  0
   -9.9722   23.4399  -32.2683 H   0  0  0  0  0  0  0  0  0  0  0  0
   -7.8481   24.4451  -31.4257 H   0  0  0  0  0  0  0  0  0  0  0  0
   -6.0440   22.9640  -30.7200 H   0  0  0  0  0  0  0  0  0  0  0  0
   -6.1762   20.5791  -30.8079 H   0  0  0  0  0  0  0  0  0  0  0  0
   -7.6522   16.5977  -32.2357 H   0  0  0  0  0  0  0  0  0  0  0  0
   -7.9538   17.3110  -33.8744 H   0  0  0  0  0  0  0  0  0  0  0  0
   -5.5341   15.9473  -32.7783 H   0  0  0  0  0  0  0  0  0  0  0  0
   -6.2205   16.0089  -34.4650 H   0  0  0  0  0  0  0  0  0  0  0  0
   -4.8048   22.8662  -32.6882 H   0  0  0  0  0  0  0  0  0  0  0  0
  1  2  1  0
  2  3  1  0
  3  4  2  0
  4  5  1  0
  5  6  2  0
  6  7  1  0
  7  8  1  0
  8  9  1  0
  9 10  2  0
 10 11  1  0
 11 12  2  0
 12 13  1  0
 13 14  2  0
 14 15  1  0
 15 16  1  0
 16 17  1  0
 17 18  1  0
 18 19  1  0
 19 20  1  0
 20 21  1  0
 21 22  2  0
 22 23  1  0
 23 24  2  0
 24 25  1  0
 25 26  2  0
 19 27  1  0
 27 28  1  0
  7 29  2  0
 29  3  1  0
 14  9  1  0
 28 16  1  0
 26 21  1  0
  1 30  1  0
  1 31  1  0
  1 32  1  0
  4 33  1  0
  5 34  1  0
  6 35  1  0
 10 36  1  0
 11 37  1  0
 12 38  1  0
 13 39  1  0
 15 40  1  0
 15 41  1  0
 17 42  1  0
 17 43  1  0
 18 44  1  0
 18 45  1  0
 20 46  1  0
 20 47  1  0
 22 48  1  0
 23 49  1  0
 24 50  1  0
 25 51  1  0
 26 52  1  0
 27 53  1  0
 27 54  1  0
 28 55  1  0
 28 56  1  0
 29 57  1  0
M  CHG  1  25   1
M  END
>  <UniqueID>  (19) 
17

>  <SMILES>  (19) 
COc1cccc(Oc2ccccc2CN2CCN(Cc3ccc[nH+]c3)CC2)c1

>  <Energy>  (19) 
136.97633922378077

>  <Genealogy>  (19) 
COc1cccc(Oc2ccccc2CN2CCN(Cc3ccc[nH+]c3)CC2)c1 (protonated)
COc1cccc(Oc2ccccc2CN2CCN(Cc3ccc[nH+]c3)CC2)c1 (3D coordinates assigned)
COc1cccc(Oc2ccccc2CN2CCN(Cc3ccc[nH+]c3)CC2)c1 (nonaromatic ring conformer: 136.97633922378077 kcal/mol)

>  <smiles>  (19) 
COc1cccc(Oc2ccccc2CN2CCN(Cc3cccnc3)CC2)c1

>  <score_type>  (19) 
oracle

>  <origin>  (19) 
adg

>  <m_score__min__energy>  (19) 
-8.8000000000000007

>  <m_primary>  (19) 
energy

$$$$
19:0
     RDKit          3D

 28 29  0  0  0  0  0  0  0  0999 V2000
   -8.2910   22.0760  -31.8180 C   0  0  0  0  0  0  0  0  0  0  0  0
   -7.0490   22.8520  -31.4840 C   0  0  0  0  0  0  0  0  0  0  0  0
   -7.1340   24.0470  -30.7540 C   0  0  0  0  0  0  0  0  0  0  0  0
   -5.9760   24.7540  -30.4180 C   0  0  0  0  0  0  0  0  0  0  0  0
   -4.7150   24.2750  -30.8130 C   0  0  0  0  0  0  0  0  0  0  0  0
   -3.5010   24.9580  -30.4660 N   0  0  0  0  0  0  0  0  0  0  0  0
   -2.8310   24.9150  -29.2000 C   0  0  0  0  0  0  0  0  0  0  0  0
   -1.8540   25.6740  -28.9600 O   0  0  0  0  0  0  0  0  0  0  0  0
   -3.2950   23.9540  -28.1560 C   0  0  0  0  0  0  0  0  0  0  0  0
   -2.6750   22.6140  -28.3880 C   0  0  0  0  0  0  0  0  0  0  0  0
   -2.9940   21.4420  -27.7150 C   0  0  0  0  0  0  0  0  0  0  0  0
   -2.3060   20.3230  -28.2020 C   0  0  0  0  0  0  0  0  0  0  0  0
   -1.4570   20.6100  -29.2640 C   0  0  0  0  0  0  0  0  0  0  0  0
   -1.5660   22.2540  -29.6000 S   0  0  0  0  0  0  0  0  0  0  0  0
   -4.6290   23.0630  -31.5060 C   0  0  0  0  0  0  0  0  0  0  0  0
   -5.7860   22.3530  -31.8440 C   0  0  0  0  0  0  0  0  0  0  0  0
   -5.6730   21.1800  -32.5170 F   0  0  0  0  0  0  0  0  0  0  0  0
   -8.7897   21.7644  -30.8884 H   0  0  0  0  0  0  0  0  0  0  0  0
   -8.9723   22.7094  -32.4051 H   0  0  0  0  0  0  0  0  0  0  0  0
   -8.0205   21.1860  -32.4051 H   0  0  0  0  0  0  0  0  0  0  0  0
   -8.1176   24.4298  -30.4443 H   0  0  0  0  0  0  0  0  0  0  0  0
   -6.0518   25.6884  -29.8425 H   0  0  0  0  0  0  0  0  0  0  0  0
   -3.0019   24.3247  -27.1627 H   0  0  0  0  0  0  0  0  0  0  0  0
   -4.3898   23.8612  -28.2095 H   0  0  0  0  0  0  0  0  0  0  0  0
   -3.7135   21.3968  -26.8842 H   0  0  0  0  0  0  0  0  0  0  0  0
   -2.4264   19.3129  -27.7834 H   0  0  0  0  0  0  0  0  0  0  0  0
   -0.8219   19.8853  -29.7945 H   0  0  0  0  0  0  0  0  0  0  0  0
   -3.6431   22.6647  -31.7876 H   0  0  0  0  0  0  0  0  0  0  0  0
  1  2  1  0
  2  3  2  0
  3  4  1  0
  4  5  2  0
  5  6  1  0
  6  7  1  0
  7  8  2  0
  7  9  1  0
  9 10  1  0
 10 11  2  0
 11 12  1  0
 12 13  2  0
 13 14  1  0
  5 15  1  0
 15 16  2  0
 16 17  1  0
 16  2  1  0
 14 10  1  0
  1 18  1  0
  1 19  1  0
  1 20  1  0
  3 21  1  0
  4 22  1  0
  9 23  1  0
  9 24  1  0
 11 25  1  0
 12 26  1  0
 13 27  1  0
 15 28  1  0
M  CHG  1   6  -1
M  END
>  <UniqueID>  (20) 
18

>  <SMILES>  (20) 
Cc1ccc([N-]C(=O)Cc2cccs2)cc1F

>  <Energy>  (20) 
54.44792737497415

>  <Genealogy>  (20) 
Cc1ccc([N-]C(=O)Cc2cccs2)cc1F (protonated)
Cc1ccc([N-]C(=O)Cc2cccs2)cc1F (3D coordinates assigned)
Cc1ccc([N-]C(=O)Cc2cccs2)cc1F (optimized conformer: 54.44792737497415 kcal/mol)

>  <smiles>  (20) 
Cc1ccc(NC(=O)Cc2cccs2)cc1F

>  <score_type>  (20) 
oracle

>  <origin>  (20) 
adg

>  <m_score__min__energy>  (20) 
-8.1300000000000008

>  <m_primary>  (20) 
energy

$$$$
20:0
     RDKit          3D

 36 38  0  0  0  0  0  0  0  0999 V2000
   -6.5050   16.8890  -33.7750 C   0  0  0  0  0  0  0  0  0  0  0  0
   -6.0690   18.0880  -34.6050 C   0  0  0  0  0  0  0  0  0  0  0  0
   -6.0410   19.3240  -33.7660 C   0  0  0  0  0  0  0  0  0  0  0  0
   -6.9620   19.6210  -32.8300 N   0  0  0  0  0  0  0  0  0  0  0  0
   -6.4800   20.7840  -32.3450 C   0  0  0  0  0  0  0  0  0  0  0  0
   -7.1600   21.5740  -31.2520 C   0  0  2  0  0  0  0  0  0  0  0  0
   -8.4630   20.8950  -30.8340 C   0  0  0  0  0  0  0  0  0  0  0  0
   -9.5630   21.6080  -31.6220 C   0  0  0  0  0  0  0  0  0  0  0  0
   -8.8970   22.8180  -32.2750 C   0  0  0  0  0  0  0  0  0  0  0  0
   -7.5680   22.9180  -31.6750 N   0  0  0  0  0  0  0  0  0  0  0  0
   -6.5750   23.8080  -32.3150 C   0  0  0  0  0  0  0  0  0  0  0  0
   -5.3630   24.1090  -31.4780 C   0  0  0  0  0  0  0  0  0  0  0  0
   -4.9570   25.3600  -31.1830 N   0  0  0  0  0  0  0  0  0  0  0  0
   -3.8670   25.2050  -30.4970 O   0  0  0  0  0  0  0  0  0  0  0  0
   -3.5980   23.9280  -30.3830 C   0  0  0  0  0  0  0  0  0  0  0  0
   -2.4290   23.3790  -29.6410 C   0  0  0  0  0  0  0  0  0  0  0  0
   -4.5210   23.1670  -31.0020 N   0  0  0  0  0  0  0  0  0  0  0  0
   -5.3350   21.1620  -32.9510 N   0  0  0  0  0  0  0  0  0  0  0  0
   -5.0950   20.2300  -33.8200 O   0  0  0  0  0  0  0  0  0  0  0  0
   -6.4168   17.1317  -32.7057 H   0  0  0  0  0  0  0  0  0  0  0  0
   -7.5507   16.6413  -34.0097 H   0  0  0  0  0  0  0  0  0  0  0  0
   -5.8626   16.0275  -34.0097 H   0  0  0  0  0  0  0  0  0  0  0  0
   -5.0629   17.9019  -35.0088 H   0  0  0  0  0  0  0  0  0  0  0  0
   -6.7869   18.2319  -35.4259 H   0  0  0  0  0  0  0  0  0  0  0  0
   -6.4153   21.6301  -30.4444 H   0  0  0  0  0  0  0  0  0  0  0  0
   -8.4386   19.8252  -31.0889 H   0  0  0  0  0  0  0  0  0  0  0  0
   -8.6289   20.9608  -29.7486 H   0  0  0  0  0  0  0  0  0  0  0  0
   -9.9775   20.9389  -32.3905 H   0  0  0  0  0  0  0  0  0  0  0  0
  -10.3951   21.9099  -30.9690 H   0  0  0  0  0  0  0  0  0  0  0  0
   -8.8156   22.6694  -33.3619 H   0  0  0  0  0  0  0  0  0  0  0  0
   -9.4819   23.7357  -32.1146 H   0  0  0  0  0  0  0  0  0  0  0  0
   -6.2371   23.3295  -33.2460 H   0  0  0  0  0  0  0  0  0  0  0  0
   -7.0831   24.7696  -32.4794 H   0  0  0  0  0  0  0  0  0  0  0  0
   -2.6089   23.4635  -28.5591 H   0  0  0  0  0  0  0  0  0  0  0  0
   -2.2892   22.3211  -29.9080 H   0  0  0  0  0  0  0  0  0  0  0  0
   -1.5256   23.9470  -29.9080 H   0  0  0  0  0  0  0  0  0  0  0  0
  1  2  1  0
  2  3  1  0
  3  4  2  0
  4  5  1  0
  5  6  1  0
  6  7  1  0
  7  8  1  0
  8  9  1  0
  9 10  1  0
 10 11  1  0
 11 12  1  0
 12 13  2  0
 13 14  1  0
 14 15  1  0
 15 16  1  0
 15 17  2  0
  5 18  2  0
 18 19  1  0
 19  3  1  0
 10  6  1  0
 17 12  1  0
  1 20  1  0
  1 21  1  0
  1 22  1  0
  2 23  1  0
  2 24  1  0
  6 25  1  1
  7 26  1  0
  7 27  1  0
  8 28  1  0
  8 29  1  0
  9 30  1  0
  9 31  1  0
 11 32  1  0
 11 33  1  0
 16 34  1  0
 16 35  1  0
 16 36  1  0
M  END
>  <UniqueID>  (21) 
19

>  <SMILES>  (21) 
CCc1nc([C@@H]2CCCN2Cc2noc(C)n2)no1

>  <Energy>  (21) 
107.076178762981

>  <Genealogy>  (21) 
CCc1nc([C@@H]2CCCN2Cc2noc(C)n2)no1 (chirality)
CCc1nc([C@@H]2CCCN2Cc2noc(C)n2)no1 (3D coordinates assigned)
CCc1nc([C@@H]2CCCN2Cc2noc(C)n2)no1 (nonaromatic ring conformer: 107.076178762981 kcal/mol)

>  <smiles>  (21) 
CCc1nc(C2CCCN2Cc2noc(C)n2)no1

>  <score_type>  (21) 
oracle

>  <origin>  (21) 
adg

>  <m_score__min__energy>  (21) 
-7.9800000000000004

>  <m_primary>  (21) 
energy

$$$$
21:0
     RDKit          3D

 31 33  0  0  0  0  0  0  0  0999 V2000
   -3.5720   24.3280  -29.3100 C   0  0  0  0  0  0  0  0  0  0  0  0
   -3.8630   25.2990  -30.3670 N   0  0  0  0  0  0  0  0  0  0  0  0
   -5.3100   25.4710  -30.5490 C   0  0  0  0  0  0  0  0  0  0  0  0
   -5.9390   24.1930  -31.0130 C   0  0  0  0  0  0  0  0  0  0  0  0
   -7.2810   23.8570  -30.8810 C   0  0  0  0  0  0  0  0  0  0  0  0
   -7.5830   22.5820  -31.3750 C   0  0  0  0  0  0  0  0  0  0  0  0
   -6.4710   21.9210  -31.8890 C   0  0  0  0  0  0  0  0  0  0  0  0
   -6.4640   20.6030  -32.4600 N   0  0  0  0  0  0  0  0  0  0  0  0
   -7.0960   19.5090  -31.9630 C   0  0  0  0  0  0  0  0  0  0  0  0
   -6.8290   18.4580  -32.8150 C   0  0  0  0  0  0  0  0  0  0  0  0
   -7.2150   17.1200  -32.7950 C   0  0  0  0  0  0  0  0  0  0  0  0
   -6.7570   16.2980  -33.8420 C   0  0  0  0  0  0  0  0  0  0  0  0
   -5.9360   16.8270  -34.8670 C   0  0  0  0  0  0  0  0  0  0  0  0
   -5.5670   18.1860  -34.8550 C   0  0  0  0  0  0  0  0  0  0  0  0
   -6.0370   18.9720  -33.8050 C   0  0  0  0  0  0  0  0  0  0  0  0
   -5.8210   20.2770  -33.5780 N   0  0  0  0  0  0  0  0  0  0  0  0
   -5.1170   22.9120  -31.7320 S   0  0  0  0  0  0  0  0  0  0  0  0
   -3.7140   24.8019  -28.3275 H   0  0  0  0  0  0  0  0  0  0  0  0
   -4.2520   23.4685  -29.4043 H   0  0  0  0  0  0  0  0  0  0  0  0
   -2.5314   23.9842  -29.4043 H   0  0  0  0  0  0  0  0  0  0  0  0
   -3.4760   24.9100  -31.2590 H   0  0  0  0  0  0  0  0  0  0  0  0
   -5.7618   25.7694  -29.5915 H   0  0  0  0  0  0  0  0  0  0  0  0
   -5.4819   26.2472  -31.3093 H   0  0  0  0  0  0  0  0  0  0  0  0
   -8.0309   24.5257  -30.4333 H   0  0  0  0  0  0  0  0  0  0  0  0
   -8.5936   22.1480  -31.3586 H   0  0  0  0  0  0  0  0  0  0  0  0
   -7.7078   19.4685  -31.0497 H   0  0  0  0  0  0  0  0  0  0  0  0
   -7.8528   16.7211  -31.9924 H   0  0  0  0  0  0  0  0  0  0  0  0
   -7.0395   15.2351  -33.8640 H   0  0  0  0  0  0  0  0  0  0  0  0
   -5.5841   16.1723  -35.6779 H   0  0  0  0  0  0  0  0  0  0  0  0
   -4.9312   18.6113  -35.6455 H   0  0  0  0  0  0  0  0  0  0  0  0
   -5.2530   20.9260  -34.1680 H   0  0  0  0  0  0  0  0  0  0  0  0
  1  2  1  0
  2  3  1  0
  3  4  1  0
  4  5  2  0
  5  6  1  0
  6  7  2  0
  7  8  1  0
  8  9  1  0
  9 10  2  0
 10 11  1  0
 11 12  2  0
 12 13  1  0
 13 14  2  0
 14 15  1  0
 15 16  2  0
  7 17  1  0
 17  4  1  0
 16  8  1  0
 15 10  1  0
  1 18  1  0
  1 19  1  0
  1 20  1  0
  2 21  1  0
  3 22  1  0
  3 23  1  0
  5 24  1  0
  6 25  1  0
  9 26  1  0
 11 27  1  0
 12 28  1  0
 13 29  1  0
 14 30  1  0
 16 31  1  0
M  CHG  1  16   1
M  END
>  <UniqueID>  (22) 
20

>  <SMILES>  (22) 
CNCc1ccc(-n2cc3ccccc3[nH+]2)s1

>  <Energy>  (22) 
97.10119228915161

>  <Genealogy>  (22) 
CNCc1ccc(-n2cc3ccccc3[nH+]2)s1 (protonated)
CNCc1ccc(-n2cc3ccccc3[nH+]2)s1 (3D coordinates assigned)
CNCc1ccc(-n2cc3ccccc3[nH+]2)s1 (optimized conformer: 97.10119228915161 kcal/mol)

>  <smiles>  (22) 
CNCc1ccc(-n2cc3ccccc3n2)s1

>  <score_type>  (22) 
oracle

>  <origin>  (22) 
adg

>  <m_score__min__energy>  (22) 
-7.46

>  <m_primary>  (22) 
energy

$$$$
22:0
     RDKit          3D

 45 47  0  0  0  0  0  0  0  0999 V2000
   -9.4510   23.4260  -32.3430 C   0  0  0  0  0  0  0  0  0  0  0  0
   -9.3240   22.1620  -31.5000 C   0  0  0  0  0  0  0  0  0  0  0  0
   -8.1550   21.3340  -31.9520 C   0  0  0  0  0  0  0  0  0  0  0  0
   -8.3020   20.1430  -32.5760 N   0  0  0  0  0  0  0  0  0  0  0  0
   -7.0810   19.6680  -32.7690 N   0  0  0  0  0  0  0  0  0  0  0  0
   -6.7970   18.3960  -33.4450 C   0  0  0  0  0  0  0  0  0  0  0  0
   -6.7300   17.2230  -32.4300 C   0  0  0  0  0  0  0  0  0  0  0  0
   -5.3570   16.5410  -32.3760 C   0  0  0  0  0  0  0  0  0  0  0  0
   -4.9000   16.1950  -33.7320 N   0  0  0  0  0  0  0  0  0  0  0  0
   -4.1920   14.9640  -33.9990 C   0  0  0  0  0  0  0  0  0  0  0  0
   -3.6620   14.1020  -32.8940 C   0  0  0  0  0  0  0  0  0  0  0  0
   -4.0210   14.5880  -35.1900 O   0  0  0  0  0  0  0  0  0  0  0  0
   -5.0770   17.1590  -34.8310 C   0  0  0  0  0  0  0  0  0  0  0  0
   -5.5340   18.5280  -34.3150 C   0  0  0  0  0  0  0  0  0  0  0  0
   -6.2100   20.5660  -32.2670 C   0  0  0  0  0  0  0  0  0  0  0  0
   -4.9570   20.4320  -32.2940 O   0  0  0  0  0  0  0  0  0  0  0  0
   -6.8470   21.6300  -31.7460 N   0  0  0  0  0  0  0  0  0  0  0  0
   -6.2580   22.7760  -31.1070 C   0  0  0  0  0  0  0  0  0  0  0  0
   -6.3210   24.0420  -31.7110 C   0  0  0  0  0  0  0  0  0  0  0  0
   -5.7350   25.1490  -31.0910 C   0  0  0  0  0  0  0  0  0  0  0  0
   -5.0750   24.9990  -29.8670 C   0  0  0  0  0  0  0  0  0  0  0  0
   -4.9980   23.7400  -29.2650 C   0  0  0  0  0  0  0  0  0  0  0  0
   -5.5840   22.6320  -29.8840 C   0  0  0  0  0  0  0  0  0  0  0  0
   -9.5389   24.3005  -31.6816 H   0  0  0  0  0  0  0  0  0  0  0  0
   -8.5592   23.5345  -32.9778 H   0  0  0  0  0  0  0  0  0  0  0  0
  -10.3465   23.3549  -32.9778 H   0  0  0  0  0  0  0  0  0  0  0  0
   -9.1801   22.4441  -30.4466 H   0  0  0  0  0  0  0  0  0  0  0  0
  -10.2424   21.5677  -31.6155 H   0  0  0  0  0  0  0  0  0  0  0  0
   -7.6269   18.1525  -34.1247 H   0  0  0  0  0  0  0  0  0  0  0  0
   -6.9644   17.6144  -31.4291 H   0  0  0  0  0  0  0  0  0  0  0  0
   -7.4557   16.4656  -32.7611 H   0  0  0  0  0  0  0  0  0  0  0  0
   -4.6308   17.2252  -31.9127 H   0  0  0  0  0  0  0  0  0  0  0  0
   -5.4408   15.6187  -31.7824 H   0  0  0  0  0  0  0  0  0  0  0  0
   -3.9329   14.5426  -31.9232 H   0  0  0  0  0  0  0  0  0  0  0  0
   -4.0971   13.0949  -32.9738 H   0  0  0  0  0  0  0  0  0  0  0  0
   -2.5669   14.0357  -32.9738 H   0  0  0  0  0  0  0  0  0  0  0  0
   -4.1191   17.2783  -35.3585 H   0  0  0  0  0  0  0  0  0  0  0  0
   -5.8530   16.7704  -35.5069 H   0  0  0  0  0  0  0  0  0  0  0  0
   -4.7278   18.9732  -33.7135 H   0  0  0  0  0  0  0  0  0  0  0  0
   -5.7686   19.1676  -35.1786 H   0  0  0  0  0  0  0  0  0  0  0  0
   -6.8339   24.1631  -32.6765 H   0  0  0  0  0  0  0  0  0  0  0  0
   -5.7929   26.1394  -31.5662 H   0  0  0  0  0  0  0  0  0  0  0  0
   -4.6167   25.8715  -29.3784 H   0  0  0  0  0  0  0  0  0  0  0  0
   -4.4762   23.6210  -28.3040 H   0  0  0  0  0  0  0  0  0  0  0  0
   -5.5166   21.6416  -29.4101 H   0  0  0  0  0  0  0  0  0  0  0  0
  1  2  1  0
  2  3  1  0
  3  4  2  0
  4  5  1  0
  5  6  1  0
  6  7  1  0
  7  8  1  0
  8  9  1  0
  9 10  1  0
 10 11  1  0
 10 12  2  0
  9 13  1  0
 13 14  1  0
  5 15  1  0
 15 16  2  0
 15 17  1  0
 17 18  1  0
 18 19  2  0
 19 20  1  0
 20 21  2  0
 21 22  1  0
 22 23  2  0
 17  3  1  0
 23 18  1  0
 14  6  1  0
  1 24  1  0
  1 25  1  0
  1 26  1  0
  2 27  1  0
  2 28  1  0
  6 29  1  0
  7 30  1  0
  7 31  1  0
  8 32  1  0
  8 33  1  0
 11 34  1  0
 11 35  1  0
 11 36  1  0
 13 37  1  0
 13 38  1  0
 14 39  1  0
 14 40  1  0
 19 41  1  0
 20 42  1  0
 21 43  1  0
 22 44  1  0
 23 45  1  0
M  END
>  <UniqueID>  (23) 
21

>  <SMILES>  (23) 
CCc1nn(C2CCN(C(C)=O)CC2)c(=O)n1-c1ccccc1

>  <Energy>  (23) 
87.40738585527885

>  <Genealogy>  (23) 
CCc1nn(C2CCN(C(C)=O)CC2)c(=O)n1-c1ccccc1 (3D coordinates assigned)
CCc1nn(C2CCN(C(C)=O)CC2)c(=O)n1-c1ccccc1 (nonaromatic ring conformer: 87.40738585527885 kcal/mol)

>  <smiles>  (23) 
CCc1nn(C2CCN(C(C)=O)CC2)c(=O)n1-c1ccccc1

>  <score_type>  (23) 
oracle

>  <origin>  (23) 
adg

>  <m_score__min__energy>  (23) 
-7.7999999999999998

>  <m_primary>  (23) 
energy

$$$$
23:0
     RDKit          3D

 45 48  0  0  0  0  0  0  0  0999 V2000
   -4.5560   22.8730  -32.3260 O   0  0  0  0  0  0  0  0  0  0  0  0
   -5.7720   22.6110  -32.1200 C   0  0  0  0  0  0  0  0  0  0  0  0
   -6.2830   21.3440  -32.4280 C   0  0  0  0  0  0  0  0  0  0  0  0
   -5.6170   20.2190  -32.9550 C   0  0  0  0  0  0  0  0  0  0  0  0
   -6.4910   19.1510  -33.1810 C   0  0  0  0  0  0  0  0  0  0  0  0
   -8.0510   19.5540  -32.6740 S   0  0  0  0  0  0  0  0  0  0  0  0
   -7.6250   21.1100  -32.2110 C   0  0  0  0  0  0  0  0  0  0  0  0
   -8.4490   22.0510  -31.7000 N   0  0  0  0  0  0  0  0  0  0  0  0
   -7.9430   23.2760  -31.3890 C   0  0  0  0  0  0  0  0  0  0  0  0
   -6.6160   23.5650  -31.5990 N   0  0  0  0  0  0  0  0  0  0  0  0
   -6.1170   24.9000  -31.2190 C   0  0  0  0  0  0  0  0  0  0  0  0
   -5.1740   24.8090  -30.0160 C   0  0  0  0  0  0  0  0  0  0  0  0
   -3.7700   24.9270  -30.4510 N   0  0  0  0  0  0  0  0  0  0  0  0
   -2.8170   24.4860  -29.4240 C   0  0  0  0  0  0  0  0  0  0  0  0
   -2.4860   23.0270  -29.5960 C   0  0  0  0  0  0  0  0  0  0  0  0
   -1.6770   22.5990  -30.6620 C   0  0  0  0  0  0  0  0  0  0  0  0
   -1.4080   21.2380  -30.8390 C   0  0  0  0  0  0  0  0  0  0  0  0
   -1.9450   20.2970  -29.9550 C   0  0  0  0  0  0  0  0  0  0  0  0
   -2.7510   20.7160  -28.8940 C   0  0  0  0  0  0  0  0  0  0  0  0
   -3.0220   22.0750  -28.7140 C   0  0  0  0  0  0  0  0  0  0  0  0
   -6.0660   17.8100  -33.6970 C   0  0  0  0  0  0  0  0  0  0  0  0
   -4.7130   17.9090  -34.4170 C   0  0  0  0  0  0  0  0  0  0  0  0
   -3.6970   18.7000  -33.5760 C   0  0  0  0  0  0  0  0  0  0  0  0
   -4.1610   20.1500  -33.3430 C   0  0  0  0  0  0  0  0  0  0  0  0
   -8.6051   24.0447  -30.9640 H   0  0  0  0  0  0  0  0  0  0  0  0
   -5.5740   25.3371  -32.0699 H   0  0  0  0  0  0  0  0  0  0  0  0
   -6.9754   25.5313  -30.9457 H   0  0  0  0  0  0  0  0  0  0  0  0
   -5.4048   25.6227  -29.3127 H   0  0  0  0  0  0  0  0  0  0  0  0
   -5.3143   23.8339  -29.5266 H   0  0  0  0  0  0  0  0  0  0  0  0
   -3.6360   24.3090  -31.2860 H   0  0  0  0  0  0  0  0  0  0  0  0
   -1.8940   25.0782  -29.5099 H   0  0  0  0  0  0  0  0  0  0  0  0
   -3.2727   24.6307  -28.4333 H   0  0  0  0  0  0  0  0  0  0  0  0
   -1.2538   23.3367  -31.3596 H   0  0  0  0  0  0  0  0  0  0  0  0
   -0.7734   20.9075  -31.6745 H   0  0  0  0  0  0  0  0  0  0  0  0
   -1.7327   19.2268  -30.0952 H   0  0  0  0  0  0  0  0  0  0  0  0
   -3.1731   19.9751  -28.1991 H   0  0  0  0  0  0  0  0  0  0  0  0
   -3.6581   22.4004  -27.8776 H   0  0  0  0  0  0  0  0  0  0  0  0
   -5.9755   17.1105  -32.8529 H   0  0  0  0  0  0  0  0  0  0  0  0
   -6.8212   17.4505  -34.4114 H   0  0  0  0  0  0  0  0  0  0  0  0
   -4.3235   16.8952  -34.5916 H   0  0  0  0  0  0  0  0  0  0  0  0
   -4.8620   18.4346  -35.3717 H   0  0  0  0  0  0  0  0  0  0  0  0
   -3.5758   18.2031  -32.6022 H   0  0  0  0  0  0  0  0  0  0  0  0
   -2.7437   18.7276  -34.1242 H   0  0  0  0  0  0  0  0  0  0  0  0
   -3.5568   20.5916  -32.5368 H   0  0  0  0  0  0  0  0  0  0  0  0
   -4.0323   20.7046  -34.2842 H   0  0  0  0  0  0  0  0  0  0  0  0
  1  2  2  0
  2  3  1  0
  3  4  1  0
  4  5  2  0
  5  6  1  0
  6  7  1  0
  7  8  1  0
  8  9  2  0
  9 10  1  0
 10 11  1  0
 11 12  1  0
 12 13  1  0
 13 14  1  0
 14 15  1  0
 15 16  2  0
 16 17  1  0
 17 18  2  0
 18 19  1  0
 19 20  2  0
  5 21  1  0
 21 22  1  0
 22 23  1  0
 23 24  1  0
 10  2  1  0
 20 15  1  0
  7  3  2  0
 24  4  1  0
  9 25  1  0
 11 26  1  0
 11 27  1  0
 12 28  1  0
 12 29  1  0
 13 30  1  0
 14 31  1  0
 14 32  1  0
 16 33  1  0
 17 34  1  0
 18 35  1  0
 19 36  1  0
 20 37  1  0
 21 38  1  0
 21 39  1  0
 22 40  1  0
 22 41  1  0
 23 42  1  0
 23 43  1  0
 24 44  1  0
 24 45  1  0
M  END
>  <UniqueID>  (24) 
22

>  <SMILES>  (24) 
O=c1c2c3c(sc2ncn1CCNCc1ccccc1)CCCC3

>  <Energy>  (24) 
80.52965826431597

>  <Genealogy>  (24) 
O=c1c2c3c(sc2ncn1CCNCc1ccccc1)CCCC3 (3D coordinates assigned)
O=c1c2c3c(sc2ncn1CCNCc1ccccc1)CCCC3 (nonaromatic ring conformer: 80.52965826431597 kcal/mol)

>  <smiles>  (24) 
O=c1c2c3c(sc2ncn1CCNCc1ccccc1)CCCC3

>  <score_type>  (24) 
oracle

>  <origin>  (24) 
adg

>  <m_score__min__energy>  (24) 
-9.2699999999999996

>  <m_primary>  (24) 
energy

$$$$
24:0
     RDKit          3D

 32 32  0  0  0  0  0  0  0  0999 V2000
   -9.1040   18.5700  -31.7200 C   0  0  0  0  0  0  0  0  0  0  0  0
   -9.1920   20.0200  -32.2010 C   0  0  0  0  0  0  0  0  0  0  0  0
   -8.3700   20.9750  -31.3200 C   0  0  0  0  0  0  0  0  0  0  0  0
   -8.2390   22.3780  -31.9260 C   0  0  0  0  0  0  0  0  0  0  0  0
   -7.3630   23.2040  -31.1000 N   0  0  0  0  0  0  0  0  0  0  0  0
   -6.1290   23.3860  -31.3560 C   0  0  0  0  0  0  0  0  0  0  0  0
   -4.9000   23.5730  -31.6390 N   0  0  0  0  0  0  0  0  0  0  0  0
   -4.0020   22.5440  -32.0790 C   0  0  0  0  0  0  0  0  0  0  0  0
   -3.0370   21.8330  -30.9600 S   0  0  0  0  0  0  0  0  0  0  0  0
   -4.0060   22.0530  -33.4350 N   0  0  0  0  0  0  0  0  0  0  0  0
   -4.4990   20.6970  -33.4710 C   0  0  0  0  0  0  0  0  0  0  0  0
   -3.6040   19.6110  -33.5120 C   0  0  0  0  0  0  0  0  0  0  0  0
   -4.0850   18.3000  -33.5520 C   0  0  0  0  0  0  0  0  0  0  0  0
   -5.4620   18.0550  -33.5510 C   0  0  0  0  0  0  0  0  0  0  0  0
   -6.0620   16.4080  -33.6020 Cl  0  0  0  0  0  0  0  0  0  0  0  0
   -6.3590   19.1260  -33.5050 C   0  0  0  0  0  0  0  0  0  0  0  0
   -5.8820   20.4390  -33.4650 C   0  0  0  0  0  0  0  0  0  0  0  0
   -9.1027   18.5480  -30.6202 H   0  0  0  0  0  0  0  0  0  0  0  0
   -9.9695   18.0055  -32.0970 H   0  0  0  0  0  0  0  0  0  0  0  0
   -8.1765   18.1143  -32.0970 H   0  0  0  0  0  0  0  0  0  0  0  0
   -8.8130   20.0748  -33.2322 H   0  0  0  0  0  0  0  0  0  0  0  0
  -10.2456   20.3312  -32.1446 H   0  0  0  0  0  0  0  0  0  0  0  0
   -8.8619   21.0600  -30.3398 H   0  0  0  0  0  0  0  0  0  0  0  0
   -7.3567   20.5558  -31.2330 H   0  0  0  0  0  0  0  0  0  0  0  0
   -7.8155   22.2986  -32.9381 H   0  0  0  0  0  0  0  0  0  0  0  0
   -9.2344   22.8440  -31.9710 H   0  0  0  0  0  0  0  0  0  0  0  0
   -3.0310   22.1050  -33.8110 H   0  0  0  0  0  0  0  0  0  0  0  0
   -4.5950   22.6520  -34.0540 H   0  0  0  0  0  0  0  0  0  0  0  0
   -2.5196   19.7958  -33.5125 H   0  0  0  0  0  0  0  0  0  0  0  0
   -3.3784   17.4576  -33.5844 H   0  0  0  0  0  0  0  0  0  0  0  0
   -7.4423   18.9350  -33.5003 H   0  0  0  0  0  0  0  0  0  0  0  0
   -6.5934   21.2772  -33.4285 H   0  0  0  0  0  0  0  0  0  0  0  0
  1  2  1  0
  2  3  1  0
  3  4  1  0
  4  5  1  0
  5  6  2  0
  6  7  2  0
  7  8  1  0
  8  9  2  0
  8 10  1  0
 10 11  1  0
 11 12  2  0
 12 13  1  0
 13 14  2  0
 14 15  1  0
 14 16  1  0
 16 17  2  0
 17 11  1  0
  1 18  1  0
  1 19  1  0
  1 20  1  0
  2 21  1  0
  2 22  1  0
  3 23  1  0
  3 24  1  0
  4 25  1  0
  4 26  1  0
 10 27  1  0
 10 28  1  0
 12 29  1  0
 13 30  1  0
 16 31  1  0
 17 32  1  0
M  CHG  1  10   1
M  END
>  <UniqueID>  (25) 
23

>  <SMILES>  (25) 
CCCCN=C=NC(=S)[NH2+]c1ccc(Cl)cc1

>  <Energy>  (25) 
22.606723891530034

>  <Genealogy>  (25) 
CCCCN=C=NC(=S)[NH2+]c1ccc(Cl)cc1 (protonated)
CCCCN=C=NC(=S)[NH2+]c1ccc(Cl)cc1 (3D coordinates assigned)
CCCCN=C=NC(=S)[NH2+]c1ccc(Cl)cc1 (optimized conformer: 22.606723891530034 kcal/mol)

>  <smiles>  (25) 
CCCCN=C=NC(=S)Nc1ccc(Cl)cc1

>  <score_type>  (25) 
oracle

>  <origin>  (25) 
adg

>  <m_score__min__energy>  (25) 
-6.1500000000000004

>  <m_primary>  (25) 
energy

$$$$
25:0
     RDKit          3D

 36 38  0  0  0  0  0  0  0  0999 V2000
   -3.4900   25.3030  -30.5000 O   0  0  0  0  0  0  0  0  0  0  0  0
   -4.7730   24.8850  -30.1730 C   0  0  0  0  0  0  0  0  0  0  0  0
   -5.8530   25.7280  -30.0070 C   0  0  0  0  0  0  0  0  0  0  0  0
   -6.9310   24.9150  -29.7090 C   0  0  0  0  0  0  0  0  0  0  0  0
   -6.4500   23.6200  -29.7110 C   0  0  0  0  0  0  0  0  0  0  0  0
   -7.2330   22.4940  -29.4690 O   0  0  0  0  0  0  0  0  0  0  0  0
   -5.1270   23.5970  -29.9890 N   0  0  0  0  0  0  0  0  0  0  0  0
   -4.2530   22.4220  -30.0640 C   0  0  0  0  0  0  0  0  0  0  0  0
   -3.6070   22.2970  -31.4540 C   0  0  0  0  0  0  0  0  0  0  0  0
   -4.6300   22.3380  -32.6030 C   0  0  0  0  0  0  0  0  0  0  0  0
   -5.3230   21.0020  -32.7970 C   0  0  0  0  0  0  0  0  0  0  0  0
   -4.5500   19.9050  -33.2140 C   0  0  0  0  0  0  0  0  0  0  0  0
   -5.1300   18.6570  -33.4280 C   0  0  0  0  0  0  0  0  0  0  0  0
   -6.4960   18.4740  -33.2300 C   0  0  0  0  0  0  0  0  0  0  0  0
   -7.2980   19.5430  -32.8100 C   0  0  0  0  0  0  0  0  0  0  0  0
   -8.6740   19.3460  -32.6110 C   0  0  0  0  0  0  0  0  0  0  0  0
   -9.4830   20.4020  -32.1920 C   0  0  0  0  0  0  0  0  0  0  0  0
   -8.9300   21.6610  -31.9690 C   0  0  0  0  0  0  0  0  0  0  0  0
   -7.5620   21.8760  -32.1620 C   0  0  0  0  0  0  0  0  0  0  0  0
   -6.7200   20.8240  -32.5880 C   0  0  0  0  0  0  0  0  0  0  0  0
   -5.8557   26.8245  -30.0941 H   0  0  0  0  0  0  0  0  0  0  0  0
   -7.9644   25.2352  -29.5102 H   0  0  0  0  0  0  0  0  0  0  0  0
   -7.8290   22.4230  -28.6550 H   0  0  0  0  0  0  0  0  0  0  0  0
   -3.4603   22.5156  -29.3071 H   0  0  0  0  0  0  0  0  0  0  0  0
   -4.8607   21.5237  -29.8803 H   0  0  0  0  0  0  0  0  0  0  0  0
   -2.8987   23.1281  -31.5865 H   0  0  0  0  0  0  0  0  0  0  0  0
   -3.1071   21.3180  -31.4957 H   0  0  0  0  0  0  0  0  0  0  0  0
   -5.3885   23.1015  -32.3757 H   0  0  0  0  0  0  0  0  0  0  0  0
   -4.0890   22.5772  -33.5304 H   0  0  0  0  0  0  0  0  0  0  0  0
   -3.4694   20.0341  -33.3740 H   0  0  0  0  0  0  0  0  0  0  0  0
   -4.5061   17.8121  -33.7549 H   0  0  0  0  0  0  0  0  0  0  0  0
   -6.9472   17.4860  -33.4041 H   0  0  0  0  0  0  0  0  0  0  0  0
   -9.1160   18.3541  -32.7864 H   0  0  0  0  0  0  0  0  0  0  0  0
  -10.5600   20.2404  -32.0373 H   0  0  0  0  0  0  0  0  0  0  0  0
   -9.5730   22.4904  -31.6393 H   0  0  0  0  0  0  0  0  0  0  0  0
   -7.1368   22.8741  -31.9804 H   0  0  0  0  0  0  0  0  0  0  0  0
  1  2  1  0
  2  3  2  0
  3  4  1  0
  4  5  2  0
  5  6  1  0
  5  7  1  0
  7  8  1  0
  8  9  1  0
  9 10  1  0
 10 11  1  0
 11 12  2  0
 12 13  1  0
 13 14  2  0
 14 15  1  0
 15 16  2  0
 16 17  1  0
 17 18  2  0
 18 19  1  0
 19 20  2  0
  7  2  1  0
 20 11  1  0
 20 15  1  0
  3 21  1  0
  4 22  1  0
  6 23  1  0
  8 24  1  0
  8 25  1  0
  9 26  1  0
  9 27  1  0
 10 28  1  0
 10 29  1  0
 12 30  1  0
 13 31  1  0
 14 32  1  0
 16 33  1  0
 17 34  1  0
 18 35  1  0
 19 36  1  0
M  CHG  1   1  -1
M  END
>  <UniqueID>  (26) 
24

>  <SMILES>  (26) 
[O-]c1ccc(O)n1CCCc1cccc2ccccc12

>  <Energy>  (26) 
67.99037219700635

>  <Genealogy>  (26) 
[O-]c1ccc(O)n1CCCc1cccc2ccccc12 (protonated)
[O-]c1ccc(O)n1CCCc1cccc2ccccc12 (3D coordinates assigned)
[O-]c1ccc(O)n1CCCc1cccc2ccccc12 (optimized conformer: 67.99037219700635 kcal/mol)

>  <smiles>  (26) 
Oc1ccc(O)n1CCCc1cccc2ccccc12

>  <score_type>  (26) 
oracle

>  <origin>  (26) 
adg

>  <m_score__min__energy>  (26) 
-10.640000000000001

>  <m_primary>  (26) 
energy

$$$$
26:0
     RDKit          3D

 61 63  0  0  0  0  0  0  0  0999 V2000
   -5.3670   25.8940  -30.4500 C   0  0  0  0  0  0  0  0  0  0  0  0
   -4.0540   25.3410  -30.4670 O   0  0  0  0  0  0  0  0  0  0  0  0
   -3.7460   24.0260  -30.0830 C   0  0  0  0  0  0  0  0  0  0  0  0
   -3.8070   23.7000  -28.7230 C   0  0  0  0  0  0  0  0  0  0  0  0
   -3.5000   22.4080  -28.2890 C   0  0  0  0  0  0  0  0  0  0  0  0
   -3.1310   21.4270  -29.2130 C   0  0  0  0  0  0  0  0  0  0  0  0
   -3.0920   21.7240  -30.5860 C   0  0  0  0  0  0  0  0  0  0  0  0
   -2.7340   20.6540  -31.5890 C   0  0  0  0  0  0  0  0  0  0  0  0
   -2.8490   21.1240  -33.0550 C   0  0  0  0  0  0  0  0  0  0  0  0
   -1.7050   20.7270  -33.9000 N   0  0  0  0  0  0  0  0  0  0  0  0
   -1.6380   19.2730  -34.1260 C   0  0  0  0  0  0  0  0  0  0  0  0
   -3.0450   18.6660  -34.2220 C   0  0  0  0  0  0  0  0  0  0  0  0
   -3.1290   17.2220  -33.6860 C   0  0  0  0  0  0  0  0  0  0  0  0
   -4.4970   16.6690  -33.5960 N   0  0  0  0  0  0  0  0  0  0  0  0
   -5.5080   17.2350  -34.5140 C   0  0  0  0  0  0  0  0  0  0  0  0
   -6.8620   17.4380  -33.8300 C   0  0  0  0  0  0  0  0  0  0  0  0
   -6.6460   18.1100  -32.5400 N   0  0  0  0  0  0  0  0  0  0  0  0
   -7.9190   18.5920  -31.9660 C   0  0  0  0  0  0  0  0  0  0  0  0
   -7.9050   20.0950  -31.8630 C   0  0  0  0  0  0  0  0  0  0  0  0
   -6.6970   20.8070  -31.9590 C   0  0  0  0  0  0  0  0  0  0  0  0
   -6.7000   22.2070  -31.9260 C   0  0  0  0  0  0  0  0  0  0  0  0
   -7.9080   22.9010  -31.8030 C   0  0  0  0  0  0  0  0  0  0  0  0
   -9.1130   22.1990  -31.7070 C   0  0  0  0  0  0  0  0  0  0  0  0
   -9.1120   20.8010  -31.7380 C   0  0  0  0  0  0  0  0  0  0  0  0
   -5.9100   17.2450  -31.5860 C   0  0  0  0  0  0  0  0  0  0  0  0
   -4.9600   16.2310  -32.2660 C   0  0  0  0  0  0  0  0  0  0  0  0
   -3.3830   23.0310  -31.0150 C   0  0  0  0  0  0  0  0  0  0  0  0
   -5.6935   26.0315  -29.4086 H   0  0  0  0  0  0  0  0  0  0  0  0
   -5.3620   26.8664  -30.9641 H   0  0  0  0  0  0  0  0  0  0  0  0
   -6.0592   25.2110  -30.9641 H   0  0  0  0  0  0  0  0  0  0  0  0
   -4.0989   24.4669  -27.9904 H   0  0  0  0  0  0  0  0  0  0  0  0
   -3.5489   22.1626  -27.2178 H   0  0  0  0  0  0  0  0  0  0  0  0
   -2.8697   20.4171  -28.8639 H   0  0  0  0  0  0  0  0  0  0  0  0
   -1.6970   20.3367  -31.4050 H   0  0  0  0  0  0  0  0  0  0  0  0
   -3.4510   19.8306  -31.4550 H   0  0  0  0  0  0  0  0  0  0  0  0
   -3.7646   20.6933  -33.4864 H   0  0  0  0  0  0  0  0  0  0  0  0
   -2.8682   22.2237  -33.0381 H   0  0  0  0  0  0  0  0  0  0  0  0
   -0.8350   21.0290  -33.4000 H   0  0  0  0  0  0  0  0  0  0  0  0
   -1.7390   21.2290  -34.8180 H   0  0  0  0  0  0  0  0  0  0  0  0
   -1.0978   19.0793  -35.0644 H   0  0  0  0  0  0  0  0  0  0  0  0
   -1.1136   18.8100  -33.2771 H   0  0  0  0  0  0  0  0  0  0  0  0
   -3.7358   19.2942  -33.6405 H   0  0  0  0  0  0  0  0  0  0  0  0
   -3.3109   18.6316  -35.2888 H   0  0  0  0  0  0  0  0  0  0  0  0
   -2.5424   16.5749  -34.3547 H   0  0  0  0  0  0  0  0  0  0  0  0
   -2.7407   17.2522  -32.6573 H   0  0  0  0  0  0  0  0  0  0  0  0
   -5.1477   18.2071  -34.8816 H   0  0  0  0  0  0  0  0  0  0  0  0
   -5.6506   16.5222  -35.3396 H   0  0  0  0  0  0  0  0  0  0  0  0
   -7.5083   18.0598  -34.4670 H   0  0  0  0  0  0  0  0  0  0  0  0
   -7.3479   16.4646  -33.6673 H   0  0  0  0  0  0  0  0  0  0  0  0
   -8.7514   18.2796  -32.6137 H   0  0  0  0  0  0  0  0  0  0  0  0
   -8.0454   18.1637  -30.9607 H   0  0  0  0  0  0  0  0  0  0  0  0
   -5.7464   20.2629  -32.0604 H   0  0  0  0  0  0  0  0  0  0  0  0
   -5.7522   22.7609  -31.9968 H   0  0  0  0  0  0  0  0  0  0  0  0
   -7.9099   24.0008  -31.7818 H   0  0  0  0  0  0  0  0  0  0  0  0
  -10.0619   22.7463  -31.6071 H   0  0  0  0  0  0  0  0  0  0  0  0
  -10.0620   20.2515  -31.6640 H   0  0  0  0  0  0  0  0  0  0  0  0
   -5.3129   17.8891  -30.9237 H   0  0  0  0  0  0  0  0  0  0  0  0
   -6.6632   16.6599  -31.0380 H   0  0  0  0  0  0  0  0  0  0  0  0
   -4.0814   16.0877  -31.6198 H   0  0  0  0  0  0  0  0  0  0  0  0
   -5.5256   15.2983  -32.4080 H   0  0  0  0  0  0  0  0  0  0  0  0
   -3.3272   23.2795  -32.0851 H   0  0  0  0  0  0  0  0  0  0  0  0
  1  2  1  0
  2  3  1  0
  3  4  2  0
  4  5  1  0
  5  6  2  0
  6  7  1  0
  7  8  1  0
  8  9  1  0
  9 10  1  0
 10 11  1  0
 11 12  1  0
 12 13  1  0
 13 14  1  0
 14 15  1  0
 15 16  1  0
 16 17  1  0
 17 18  1  0
 18 19  1  0
 19 20  2  0
 20 21  1  0
 21 22  2  0
 22 23  1  0
 23 24  2  0
 17 25  1  0
 25 26  1  0
  7 27  2  0
 27  3  1  0
 26 14  1  0
 24 19  1  0
  1 28  1  0
  1 29  1  0
  1 30  1  0
  4 31  1  0
  5 32  1  0
  6 33  1  0
  8 34  1  0
  8 35  1  0
  9 36  1  0
  9 37  1  0
 10 38  1  0
 10 39  1  0
 11 40  1  0
 11 41  1  0
 12 42  1  0
 12 43  1  0
 13 44  1  0
 13 45  1  0
 15 46  1  0
 15 47  1  0
 16 48  1  0
 16 49  1  0
 18 50  1  0
 18 51  1  0
 20 52  1  0
 21 53  1  0
 22 54  1  0
 23 55  1  0
 24 56  1  0
 25 57  1  0
 25 58  1  0
 26 59  1  0
 26 60  1  0
 27 61  1  0
M  CHG  1  10   1
M  END
>  <UniqueID>  (27) 
25

>  <SMILES>  (27) 
COc1cccc(CC[NH2+]CCCN2CCN(Cc3ccccc3)CC2)c1

>  <Energy>  (27) 
72.07092983881978

>  <Genealogy>  (27) 
COc1cccc(CC[NH2+]CCCN2CCN(Cc3ccccc3)CC2)c1 (protonated)
COc1cccc(CC[NH2+]CCCN2CCN(Cc3ccccc3)CC2)c1 (3D coordinates assigned)
COc1cccc(CC[NH2+]CCCN2CCN(Cc3ccccc3)CC2)c1 (nonaromatic ring conformer: 72.07092983881978 kcal/mol)

>  <smiles>  (27) 
COc1cccc(CCNCCCN2CCN(Cc3ccccc3)CC2)c1

>  <score_type>  (27) 
oracle

>  <origin>  (27) 
adg

>  <m_score__min__energy>  (27) 
-8.1899999999999995

>  <m_primary>  (27) 
energy

$$$$
27:0
     RDKit          3D

 43 46  0  0  0  0  0  0  0  0999 V2000
   -5.7500   16.5430  -34.2970 C   0  0  0  0  0  0  0  0  0  0  0  0
   -5.4430   17.7590  -34.9110 C   0  0  0  0  0  0  0  0  0  0  0  0
   -5.8740   18.9600  -34.3410 C   0  0  0  0  0  0  0  0  0  0  0  0
   -6.6200   18.9590  -33.1470 C   0  0  0  0  0  0  0  0  0  0  0  0
   -7.0610   20.2410  -32.5510 C   0  0  0  0  0  0  0  0  0  0  0  0
   -7.9160   20.4100  -31.4680 C   0  0  0  0  0  0  0  0  0  0  0  0
   -7.9750   21.7740  -31.2800 C   0  0  0  0  0  0  0  0  0  0  0  0
   -7.1940   22.3650  -32.2030 N   0  0  0  0  0  0  0  0  0  0  0  0
   -6.9450   23.7980  -32.3260 C   0  0  0  0  0  0  0  0  0  0  0  0
   -5.6910   24.2280  -31.5350 C   0  0  1  0  0  0  0  0  0  0  0  0
   -6.0700   25.1760  -30.3870 C   0  0  0  0  0  0  0  0  0  0  0  0
   -5.4120   24.6180  -29.1290 C   0  0  0  0  0  0  0  0  0  0  0  0
   -5.0280   23.1820  -29.4490 C   0  0  0  0  0  0  0  0  0  0  0  0
   -5.0500   23.0800  -30.8980 N   0  0  0  0  0  0  0  0  0  0  0  0
   -4.2490   22.1200  -31.6110 C   0  0  0  0  0  0  0  0  0  0  0  0
   -3.8620   20.9170  -31.0090 C   0  0  0  0  0  0  0  0  0  0  0  0
   -3.1070   20.0020  -31.7390 C   0  0  0  0  0  0  0  0  0  0  0  0
   -2.7490   20.3080  -33.0500 C   0  0  0  0  0  0  0  0  0  0  0  0
   -3.1380   21.4930  -33.5920 N   0  0  0  0  0  0  0  0  0  0  0  0
   -3.8640   22.3680  -32.8920 N   0  0  0  0  0  0  0  0  0  0  0  0
   -6.6390   21.4490  -32.9780 N   0  0  0  0  0  0  0  0  0  0  0  0
   -6.9220   17.7250  -32.5380 C   0  0  0  0  0  0  0  0  0  0  0  0
   -6.4880   16.5260  -33.1130 C   0  0  0  0  0  0  0  0  0  0  0  0
   -5.4100   15.5985  -34.7468 H   0  0  0  0  0  0  0  0  0  0  0  0
   -4.8612   17.7716  -35.8445 H   0  0  0  0  0  0  0  0  0  0  0  0
   -5.6282   19.9144  -34.8295 H   0  0  0  0  0  0  0  0  0  0  0  0
   -8.4310   19.6287  -30.8897 H   0  0  0  0  0  0  0  0  0  0  0  0
   -8.5611   22.2919  -30.5066 H   0  0  0  0  0  0  0  0  0  0  0  0
   -6.7990   24.0449  -33.3879 H   0  0  0  0  0  0  0  0  0  0  0  0
   -7.8122   24.3341  -31.9131 H   0  0  0  0  0  0  0  0  0  0  0  0
   -5.0203   24.7116  -32.2604 H   0  0  0  0  0  0  0  0  0  0  0  0
   -5.6971   26.1902  -30.5929 H   0  0  0  0  0  0  0  0  0  0  0  0
   -7.1617   25.2414  -30.2692 H   0  0  0  0  0  0  0  0  0  0  0  0
   -4.5164   25.2043  -28.8756 H   0  0  0  0  0  0  0  0  0  0  0  0
   -6.0929   24.6669  -28.2665 H   0  0  0  0  0  0  0  0  0  0  0  0
   -4.0216   22.9599  -29.0646 H   0  0  0  0  0  0  0  0  0  0  0  0
   -5.7188   22.4645  -28.9821 H   0  0  0  0  0  0  0  0  0  0  0  0
   -4.1510   20.6966  -29.9708 H   0  0  0  0  0  0  0  0  0  0  0  0
   -2.7971   19.0489  -31.2856 H   0  0  0  0  0  0  0  0  0  0  0  0
   -2.1558   19.5961  -33.6427 H   0  0  0  0  0  0  0  0  0  0  0  0
   -2.8700   21.7220  -34.5740 H   0  0  0  0  0  0  0  0  0  0  0  0
   -7.5029   17.7043  -31.6041 H   0  0  0  0  0  0  0  0  0  0  0  0
   -6.7291   15.5673  -32.6305 H   0  0  0  0  0  0  0  0  0  0  0  0
  1  2  2  0
  2  3  1  0
  3  4  2  0
  4  5  1  0
  5  6  1  0
  6  7  2  0
  7  8  1  0
  8  9  1  0
  9 10  1  0
 10 11  1  0
 11 12  1  0
 12 13  1  0
 13 14  1  0
 14 15  1  0
 15 16  2  0
 16 17  1  0
 17 18  2  0
 18 19  1  0
 19 20  2  0
  8 21  1  0
  4 22  1  0
 22 23  2  0
 23  1  1  0
 21  5  2  0
 14 10  1  0
 20 15  1  0
  1 24  1  0
  2 25  1  0
  3 26  1  0
  6 27  1  0
  7 28  1  0
  9 29  1  0
  9 30  1  0
 10 31  1  6
 11 32  1  0
 11 33  1  0
 12 34  1  0
 12 35  1  0
 13 36  1  0
 13 37  1  0
 16 38  1  0
 17 39  1  0
 18 40  1  0
 19 41  1  0
 22 42  1  0
 23 43  1  0
M  CHG  1  19   1
M  END
>  <UniqueID>  (28) 
26

>  <SMILES>  (28) 
c1ccc(-c2ccn(C[C@H]3CCCN3c3ccc[nH+]n3)n2)cc1

>  <Energy>  (28) 
75.89491921283059

>  <Genealogy>  (28) 
c1ccc(-c2ccn(CC3CCCN3c3ccc[nH+]n3)n2)cc1 (protonated)
c1ccc(-c2ccn(C[C@H]3CCCN3c3ccc[nH+]n3)n2)cc1 (chirality)
c1ccc(-c2ccn(C[C@H]3CCCN3c3ccc[nH+]n3)n2)cc1 (3D coordinates assigned)
c1ccc(-c2ccn(C[C@H]3CCCN3c3ccc[nH+]n3)n2)cc1 (nonaromatic ring conformer: 75.89491921283059 kcal/mol)

>  <smiles>  (28) 
c1ccc(-c2ccn(CC3CCCN3c3cccnn3)n2)cc1

>  <score_type>  (28) 
oracle

>  <origin>  (28) 
adg

>  <m_score__min__energy>  (28) 
-8.6400000000000006

>  <m_primary>  (28) 
energy

$$$$
28:0
     RDKit          3D

 45 48  0  0  0  0  0  0  0  0999 V2000
   -5.5390   13.4270  -33.8240 C   0  0  0  0  0  0  0  0  0  0  0  0
   -6.4790   14.5330  -34.2900 C   0  0  0  0  0  0  0  0  0  0  0  0
   -6.0130   15.8740  -33.7880 C   0  0  0  0  0  0  0  0  0  0  0  0
   -4.6290   16.1150  -33.5810 C   0  0  0  0  0  0  0  0  0  0  0  0
   -4.1790   17.3520  -33.0820 C   0  0  0  0  0  0  0  0  0  0  0  0
   -5.1310   18.3230  -32.7910 C   0  0  0  0  0  0  0  0  0  0  0  0
   -4.9240   19.5370  -32.3100 O   0  0  0  0  0  0  0  0  0  0  0  0
   -6.1120   20.0990  -32.1890 C   0  0  0  0  0  0  0  0  0  0  0  0
   -6.4540   21.3660  -31.7140 C   0  0  0  0  0  0  0  0  0  0  0  0
   -5.4710   22.3200  -31.2640 N   0  0  0  0  0  0  0  0  0  0  0  0
   -4.1550   21.8890  -30.7710 C   0  0  0  0  0  0  0  0  0  0  0  0
   -3.1050   22.9790  -31.0280 C   0  0  0  0  0  0  0  0  0  0  0  0
   -3.4830   24.3050  -30.4760 N   0  0  0  0  0  0  0  0  0  0  0  0
   -2.7710   24.5840  -29.2190 C   0  0  0  0  0  0  0  0  0  0  0  0
   -4.9390   24.5140  -30.3020 C   0  0  0  0  0  0  0  0  0  0  0  0
   -5.7620   23.7550  -31.3470 C   0  0  0  0  0  0  0  0  0  0  0  0
   -7.7880   21.6730  -31.6640 N   0  0  0  0  0  0  0  0  0  0  0  0
   -8.7560   20.7940  -32.0800 C   0  0  0  0  0  0  0  0  0  0  0  0
  -10.1950   21.1740  -31.9710 C   0  0  0  0  0  0  0  0  0  0  0  0
   -8.4110   19.5540  -32.5400 N   0  0  0  0  0  0  0  0  0  0  0  0
   -7.0980   19.2390  -32.5900 C   0  0  0  0  0  0  0  0  0  0  0  0
   -6.4760   18.0860  -32.9840 C   0  0  0  0  0  0  0  0  0  0  0  0
   -6.9580   16.8750  -33.4730 C   0  0  0  0  0  0  0  0  0  0  0  0
   -5.5182   13.4025  -32.7245 H   0  0  0  0  0  0  0  0  0  0  0  0
   -5.8946   12.4586  -34.2056 H   0  0  0  0  0  0  0  0  0  0  0  0
   -4.5259   13.6218  -34.2056 H   0  0  0  0  0  0  0  0  0  0  0  0
   -6.5026   14.5474  -35.3897 H   0  0  0  0  0  0  0  0  0  0  0  0
   -7.4841   14.3351  -33.8893 H   0  0  0  0  0  0  0  0  0  0  0  0
   -3.8994   15.3253  -33.8135 H   0  0  0  0  0  0  0  0  0  0  0  0
   -3.1071   17.5446  -32.9270 H   0  0  0  0  0  0  0  0  0  0  0  0
   -4.2186   21.6944  -29.6902 H   0  0  0  0  0  0  0  0  0  0  0  0
   -3.8568   20.9733  -31.3026 H   0  0  0  0  0  0  0  0  0  0  0  0
   -2.1574   22.6661  -30.5653 H   0  0  0  0  0  0  0  0  0  0  0  0
   -3.0175   23.0945  -32.1184 H   0  0  0  0  0  0  0  0  0  0  0  0
   -3.4185   24.3303  -28.3667 H   0  0  0  0  0  0  0  0  0  0  0  0
   -1.8534   23.9789  -29.1753 H   0  0  0  0  0  0  0  0  0  0  0  0
   -2.5088   25.6514  -29.1753 H   0  0  0  0  0  0  0  0  0  0  0  0
   -5.2297   24.1646  -29.3003 H   0  0  0  0  0  0  0  0  0  0  0  0
   -5.1430   25.5877  -30.4267 H   0  0  0  0  0  0  0  0  0  0  0  0
   -6.8330   23.9216  -31.1593 H   0  0  0  0  0  0  0  0  0  0  0  0
   -5.4996   24.1207  -32.3507 H   0  0  0  0  0  0  0  0  0  0  0  0
  -10.4753   21.2480  -30.9099 H   0  0  0  0  0  0  0  0  0  0  0  0
  -10.3559   22.1454  -32.4614 H   0  0  0  0  0  0  0  0  0  0  0  0
  -10.8145   20.4087  -32.4614 H   0  0  0  0  0  0  0  0  0  0  0  0
   -8.0361   16.7040  -33.6091 H   0  0  0  0  0  0  0  0  0  0  0  0
  1  2  1  0
  2  3  1  0
  3  4  2  0
  4  5  1  0
  5  6  2  0
  6  7  1  0
  7  8  1  0
  8  9  2  0
  9 10  1  0
 10 11  1  0
 11 12  1  0
 12 13  1  0
 13 14  1  0
 13 15  1  0
 15 16  1  0
  9 17  1  0
 17 18  2  0
 18 19  1  0
 18 20  1  0
 20 21  2  0
 21 22  1  0
 22 23  2  0
 23  3  1  0
 22  6  1  0
 21  8  1  0
 16 10  1  0
  1 24  1  0
  1 25  1  0
  1 26  1  0
  2 27  1  0
  2 28  1  0
  4 29  1  0
  5 30  1  0
 11 31  1  0
 11 32  1  0
 12 33  1  0
 12 34  1  0
 14 35  1  0
 14 36  1  0
 14 37  1  0
 15 38  1  0
 15 39  1  0
 16 40  1  0
 16 41  1  0
 19 42  1  0
 19 43  1  0
 19 44  1  0
 23 45  1  0
M  END
>  <UniqueID>  (29) 
27

>  <SMILES>  (29) 
CCc1ccc2oc3c(N4CCN(C)CC4)nc(C)nc3c2c1

>  <Energy>  (29) 
96.4624744015287

>  <Genealogy>  (29) 
CCc1ccc2oc3c(N4CCN(C)CC4)nc(C)nc3c2c1 (3D coordinates assigned)
CCc1ccc2oc3c(N4CCN(C)CC4)nc(C)nc3c2c1 (nonaromatic ring conformer: 96.4624744015287 kcal/mol)

>  <smiles>  (29) 
CCc1ccc2oc3c(N4CCN(C)CC4)nc(C)nc3c2c1

>  <score_type>  (29) 
oracle

>  <origin>  (29) 
adg

>  <m_score__min__energy>  (29) 
-7.3300000000000001

>  <m_primary>  (29) 
energy

$$$$
29:0
     RDKit          3D

 50 53  0  0  0  0  0  0  0  0999 V2000
   -5.8310   25.0880  -30.5810 C   0  0  0  0  0  0  0  0  0  0  0  0
   -4.5550   24.5420  -30.9000 O   0  0  0  0  0  0  0  0  0  0  0  0
   -3.7430   23.8460  -29.9930 C   0  0  0  0  0  0  0  0  0  0  0  0
   -3.8150   22.4360  -29.8370 C   0  0  0  0  0  0  0  0  0  0  0  0
   -2.9950   21.7750  -28.9080 C   0  0  0  0  0  0  0  0  0  0  0  0
   -2.0970   22.5360  -28.1530 C   0  0  0  0  0  0  0  0  0  0  0  0
   -2.0090   23.8970  -28.3210 C   0  0  0  0  0  0  0  0  0  0  0  0
   -2.8310   24.5830  -29.2170 C   0  0  0  0  0  0  0  0  0  0  0  0
   -1.0570   24.3560  -27.4300 C   0  0  0  0  0  0  0  0  0  0  0  0
   -0.6110   25.7420  -27.2080 C   0  0  0  0  0  0  0  0  0  0  0  0
   -0.5500   26.5310  -28.1880 O   0  0  0  0  0  0  0  0  0  0  0  0
   -0.2660   26.2120  -25.8940 N   0  0  0  0  0  0  0  0  0  0  0  0
    0.8370   27.1640  -25.7350 C   0  0  0  0  0  0  0  0  0  0  0  0
    1.5620   26.9670  -24.3860 C   0  0  0  0  0  0  0  0  0  0  0  0
    0.7190   26.3650  -23.3300 N   0  0  0  0  0  0  0  0  0  0  0  0
   -0.7080   26.6610  -23.5040 C   0  0  0  0  0  0  0  0  0  0  0  0
   -1.2230   26.0190  -24.7960 C   0  0  0  0  0  0  0  0  0  0  0  0
   -0.6200   23.2370  -26.7340 C   0  0  0  0  0  0  0  0  0  0  0  0
   -1.2440   22.1210  -27.1840 N   0  0  0  0  0  0  0  0  0  0  0  0
   -1.0110   20.7670  -26.6520 C   0  0  0  0  0  0  0  0  0  0  0  0
   -0.1390   19.9080  -27.5740 C   0  0  0  0  0  0  0  0  0  0  0  0
   -0.8560   18.5700  -27.7310 C   0  0  0  0  0  0  0  0  0  0  0  0
   -1.9690   18.5480  -26.6930 C   0  0  0  0  0  0  0  0  0  0  0  0
   -2.3120   20.0020  -26.4220 C   0  0  0  0  0  0  0  0  0  0  0  0
   -5.9460   25.1372  -29.4881 H   0  0  0  0  0  0  0  0  0  0  0  0
   -5.9130   26.1000  -31.0042 H   0  0  0  0  0  0  0  0  0  0  0  0
   -6.6197   24.4485  -31.0042 H   0  0  0  0  0  0  0  0  0  0  0  0
   -4.5203   21.8558  -30.4502 H   0  0  0  0  0  0  0  0  0  0  0  0
   -3.0576   20.6846  -28.7774 H   0  0  0  0  0  0  0  0  0  0  0  0
   -2.7666   25.6768  -29.3138 H   0  0  0  0  0  0  0  0  0  0  0  0
    1.5574   27.0168  -26.5532 H   0  0  0  0  0  0  0  0  0  0  0  0
    0.4213   28.1822  -25.7589 H   0  0  0  0  0  0  0  0  0  0  0  0
    2.4288   26.3105  -24.5522 H   0  0  0  0  0  0  0  0  0  0  0  0
    1.8491   27.9677  -24.0309 H   0  0  0  0  0  0  0  0  0  0  0  0
    1.0270   26.7310  -22.3990 H   0  0  0  0  0  0  0  0  0  0  0  0
    0.8560   25.3270  -23.3220 H   0  0  0  0  0  0  0  0  0  0  0  0
   -1.2703   26.2590  -22.6483 H   0  0  0  0  0  0  0  0  0  0  0  0
   -0.8460   27.7507  -23.5626 H   0  0  0  0  0  0  0  0  0  0  0  0
   -1.3682   24.9414  -24.6298 H   0  0  0  0  0  0  0  0  0  0  0  0
   -2.1750   26.4966  -25.0710 H   0  0  0  0  0  0  0  0  0  0  0  0
    0.1291   23.2538  -25.9287 H   0  0  0  0  0  0  0  0  0  0  0  0
   -0.4919   20.9347  -25.6968 H   0  0  0  0  0  0  0  0  0  0  0  0
   -0.0273   20.3959  -28.5535 H   0  0  0  0  0  0  0  0  0  0  0  0
    0.8681   19.7712  -27.1531 H   0  0  0  0  0  0  0  0  0  0  0  0
   -1.2789   18.4825  -28.7427 H   0  0  0  0  0  0  0  0  0  0  0  0
   -0.1620   17.7289  -27.5861 H   0  0  0  0  0  0  0  0  0  0  0  0
   -2.8473   18.0140  -27.0847 H   0  0  0  0  0  0  0  0  0  0  0  0
   -1.6560   18.0284  -25.7753 H   0  0  0  0  0  0  0  0  0  0  0  0
   -3.0924   20.3503  -27.1146 H   0  0  0  0  0  0  0  0  0  0  0  0
   -2.7031   20.1505  -25.4047 H   0  0  0  0  0  0  0  0  0  0  0  0
  1  2  1  0
  2  3  1  0
  3  4  2  0
  4  5  1  0
  5  6  2  0
  6  7  1  0
  7  8  2  0
  7  9  1  0
  9 10  1  0
 10 11  2  0
 10 12  1  0
 12 13  1  0
 13 14  1  0
 14 15  1  0
 15 16  1  0
 16 17  1  0
  9 18  2  0
 18 19  1  0
 19 20  1  0
 20 21  1  0
 21 22  1  0
 22 23  1  0
 23 24  1  0
  8  3  1  0
 17 12  1  0
 24 20  1  0
 19  6  1  0
  1 25  1  0
  1 26  1  0
  1 27  1  0
  4 28  1  0
  5 29  1  0
  8 30  1  0
 13 31  1  0
 13 32  1  0
 14 33  1  0
 14 34  1  0
 15 35  1  0
 15 36  1  0
 16 37  1  0
 16 38  1  0
 17 39  1  0
 17 40  1  0
 18 41  1  0
 20 42  1  0
 21 43  1  0
 21 44  1  0
 22 45  1  0
 22 46  1  0
 23 47  1  0
 23 48  1  0
 24 49  1  0
 24 50  1  0
M  CHG  1  15   1
M  END
>  <UniqueID>  (30) 
28

>  <SMILES>  (30) 
COc1ccc2c(c1)c(C(=O)N1CC[NH2+]CC1)cn2C1CCCC1

>  <Energy>  (30) 
94.06939209697332

>  <Genealogy>  (30) 
COc1ccc2c(c1)c(C(=O)N1CC[NH2+]CC1)cn2C1CCCC1 (protonated)
COc1ccc2c(c1)c(C(=O)N1CC[NH2+]CC1)cn2C1CCCC1 (3D coordinates assigned)
COc1ccc2c(c1)c(C(=O)N1CC[NH2+]CC1)cn2C1CCCC1 (nonaromatic ring conformer: 94.06939209697332 kcal/mol)

>  <smiles>  (30) 
COc1ccc2c(c1)c(C(=O)N1CCNCC1)cn2C1CCCC1

>  <score_type>  (30) 
oracle

>  <origin>  (30) 
adg

>  <m_score__min__energy>  (30) 
-9.0700000000000003

>  <m_primary>  (30) 
energy

$$$$
30:0
     RDKit          3D

 40 42  0  0  0  0  0  0  0  0999 V2000
   -5.3700   17.3830  -34.0950 C   0  0  0  0  0  0  0  0  0  0  0  0
   -6.3230   18.2800  -33.3630 C   0  0  0  0  0  0  0  0  0  0  0  0
   -6.4010   19.6420  -33.6880 C   0  0  0  0  0  0  0  0  0  0  0  0
   -7.3150   20.4720  -33.0300 C   0  0  0  0  0  0  0  0  0  0  0  0
   -8.1740   19.9460  -32.0530 C   0  0  0  0  0  0  0  0  0  0  0  0
   -9.1260   20.8480  -31.3170 C   0  0  0  0  0  0  0  0  0  0  0  0
   -8.5600   22.2670  -31.2150 C   0  0  0  0  0  0  0  0  0  0  0  0
   -7.7980   22.4150  -29.9610 N   0  0  0  0  0  0  0  0  0  0  0  0
   -6.7870   23.4790  -30.0360 C   0  0  0  0  0  0  0  0  0  0  0  0
   -5.6870   23.1090  -30.9880 C   0  0  0  0  0  0  0  0  0  0  0  0
   -5.7410   23.1960  -32.3760 C   0  0  0  0  0  0  0  0  0  0  0  0
   -4.6220   22.6720  -32.9260 N   0  0  0  0  0  0  0  0  0  0  0  0
   -3.8660   22.2470  -31.8990 C   0  0  0  0  0  0  0  0  0  0  0  0
   -2.6320   21.6040  -31.9700 C   0  0  0  0  0  0  0  0  0  0  0  0
   -2.0230   21.2130  -30.7630 C   0  0  0  0  0  0  0  0  0  0  0  0
   -2.6540   21.4710  -29.5270 C   0  0  0  0  0  0  0  0  0  0  0  0
   -3.9020   22.1200  -29.4850 C   0  0  0  0  0  0  0  0  0  0  0  0
   -4.4820   22.4950  -30.6980 C   0  0  0  0  0  0  0  0  0  0  0  0
   -8.1000   18.5810  -31.7330 C   0  0  0  0  0  0  0  0  0  0  0  0
   -7.1880   17.7510  -32.3920 C   0  0  0  0  0  0  0  0  0  0  0  0
   -4.7683   16.8167  -33.3689 H   0  0  0  0  0  0  0  0  0  0  0  0
   -5.9369   16.6831  -34.7266 H   0  0  0  0  0  0  0  0  0  0  0  0
   -4.7057   17.9912  -34.7266 H   0  0  0  0  0  0  0  0  0  0  0  0
   -5.7412   20.0592  -34.4630 H   0  0  0  0  0  0  0  0  0  0  0  0
   -7.3605   21.5423  -33.2798 H   0  0  0  0  0  0  0  0  0  0  0  0
  -10.0837   20.8795  -31.8572 H   0  0  0  0  0  0  0  0  0  0  0  0
   -9.2728   20.4526  -30.3011 H   0  0  0  0  0  0  0  0  0  0  0  0
   -7.8949   22.4567  -32.0704 H   0  0  0  0  0  0  0  0  0  0  0  0
   -9.3898   22.9890  -31.2217 H   0  0  0  0  0  0  0  0  0  0  0  0
   -7.2880   21.5170  -29.7820 H   0  0  0  0  0  0  0  0  0  0  0  0
   -7.2659   24.4066  -30.3826 H   0  0  0  0  0  0  0  0  0  0  0  0
   -6.3521   23.6206  -29.0356 H   0  0  0  0  0  0  0  0  0  0  0  0
   -6.5761   23.6298  -32.9455 H   0  0  0  0  0  0  0  0  0  0  0  0
   -4.4050   22.5940  -33.9440 H   0  0  0  0  0  0  0  0  0  0  0  0
   -2.1491   21.4082  -32.9387 H   0  0  0  0  0  0  0  0  0  0  0  0
   -1.0486   20.7029  -30.7829 H   0  0  0  0  0  0  0  0  0  0  0  0
   -2.1669   21.1627  -28.5902 H   0  0  0  0  0  0  0  0  0  0  0  0
   -4.4039   22.3250  -28.5279 H   0  0  0  0  0  0  0  0  0  0  0  0
   -8.7622   18.1628  -30.9606 H   0  0  0  0  0  0  0  0  0  0  0  0
   -7.1481   16.6790  -32.1486 H   0  0  0  0  0  0  0  0  0  0  0  0
  1  2  1  0
  2  3  2  0
  3  4  1  0
  4  5  2  0
  5  6  1  0
  6  7  1  0
  7  8  1  0
  8  9  1  0
  9 10  1  0
 10 11  2  0
 11 12  1  0
 12 13  1  0
 13 14  2  0
 14 15  1  0
 15 16  2  0
 16 17  1  0
 17 18  2  0
  5 19  1  0
 19 20  2  0
 20  2  1  0
 18 10  1  0
 18 13  1  0
  1 21  1  0
  1 22  1  0
  1 23  1  0
  3 24  1  0
  4 25  1  0
  6 26  1  0
  6 27  1  0
  7 28  1  0
  7 29  1  0
  8 30  1  0
  9 31  1  0
  9 32  1  0
 11 33  1  0
 12 34  1  0
 14 35  1  0
 15 36  1  0
 16 37  1  0
 17 38  1  0
 19 39  1  0
 20 40  1  0
M  END
>  <UniqueID>  (31) 
29

>  <SMILES>  (31) 
Cc1ccc(CCNCc2c[nH]c3ccccc23)cc1

>  <Energy>  (31) 
69.52606038068758

>  <Genealogy>  (31) 
Cc1ccc(CCNCc2c[nH]c3ccccc23)cc1 (3D coordinates assigned)
Cc1ccc(CCNCc2c[nH]c3ccccc23)cc1 (optimized conformer: 69.52606038068758 kcal/mol)

>  <smiles>  (31) 
Cc1ccc(CCNCc2c[nH]c3ccccc23)cc1

>  <score_type>  (31) 
oracle

>  <origin>  (31) 
adg

>  <m_score__min__energy>  (31) 
-8

>  <m_primary>  (31) 
energy

$$$$
31:0
     RDKit          3D

 46 49  0  0  0  0  0  0  0  0999 V2000
   -0.9440   21.1640  -33.5030 C   0  0  0  0  0  0  0  0  0  0  0  0
   -2.2850   20.7090  -33.6440 O   0  0  0  0  0  0  0  0  0  0  0  0
   -3.3700   21.1940  -32.8970 C   0  0  0  0  0  0  0  0  0  0  0  0
   -4.6250   20.6070  -33.0930 C   0  0  0  0  0  0  0  0  0  0  0  0
   -5.7500   21.0560  -32.3810 C   0  0  0  0  0  0  0  0  0  0  0  0
   -7.0370   20.4410  -32.5880 N   0  0  0  0  0  0  0  0  0  0  0  0
   -7.1480   19.0710  -33.0990 C   0  0  0  0  0  0  0  0  0  0  0  0
   -8.0850   18.2330  -32.2050 C   0  0  0  0  0  0  0  0  0  0  0  0
   -9.1040   19.0310  -31.4930 N   0  0  0  0  0  0  0  0  0  0  0  0
   -9.4720   20.2530  -32.2200 C   0  0  0  0  0  0  0  0  0  0  0  0
   -8.2680   21.1980  -32.3250 C   0  0  0  0  0  0  0  0  0  0  0  0
   -5.5990   22.0940  -31.4480 C   0  0  0  0  0  0  0  0  0  0  0  0
   -4.3470   22.6820  -31.2360 C   0  0  0  0  0  0  0  0  0  0  0  0
   -4.1790   24.0090  -30.0930 S   0  0  0  0  0  0  0  0  0  0  0  0
   -3.9110   25.2910  -30.8310 O   0  0  0  0  0  0  0  0  0  0  0  0
   -5.4510   24.1780  -29.3090 O   0  0  0  0  0  0  0  0  0  0  0  0
   -2.8450   23.6540  -29.0030 C   0  0  0  0  0  0  0  0  0  0  0  0
   -2.9830   22.6470  -28.0160 C   0  0  0  0  0  0  0  0  0  0  0  0
   -1.9130   22.3420  -27.1560 C   0  0  0  0  0  0  0  0  0  0  0  0
   -0.7290   23.0550  -27.3140 C   0  0  0  0  0  0  0  0  0  0  0  0
   -0.5900   24.0160  -28.2630 C   0  0  0  0  0  0  0  0  0  0  0  0
   -1.6240   24.3490  -29.1330 C   0  0  0  0  0  0  0  0  0  0  0  0
    0.6820   24.5500  -28.1950 O   0  0  0  0  0  0  0  0  0  0  0  0
    1.3860   23.8840  -27.1370 C   0  0  0  0  0  0  0  0  0  0  0  0
    0.4500   22.9380  -26.6020 O   0  0  0  0  0  0  0  0  0  0  0  0
   -3.2370   22.2400  -31.9660 C   0  0  0  0  0  0  0  0  0  0  0  0
   -0.6958   21.2482  -32.4347 H   0  0  0  0  0  0  0  0  0  0  0  0
   -0.2612   20.4472  -33.9827 H   0  0  0  0  0  0  0  0  0  0  0  0
   -0.8384   22.1483  -33.9827 H   0  0  0  0  0  0  0  0  0  0  0  0
   -4.7322   19.7832  -33.8140 H   0  0  0  0  0  0  0  0  0  0  0  0
   -7.5525   19.0981  -34.1215 H   0  0  0  0  0  0  0  0  0  0  0  0
   -6.1495   18.6096  -33.0973 H   0  0  0  0  0  0  0  0  0  0  0  0
   -8.6018   17.4972  -32.8386 H   0  0  0  0  0  0  0  0  0  0  0  0
   -7.4553   17.7603  -31.4369 H   0  0  0  0  0  0  0  0  0  0  0  0
   -8.7240   19.3060  -30.5560 H   0  0  0  0  0  0  0  0  0  0  0  0
   -9.8109   19.9845  -33.2315 H   0  0  0  0  0  0  0  0  0  0  0  0
  -10.2786   20.7633  -31.6733 H   0  0  0  0  0  0  0  0  0  0  0  0
   -8.4374   21.9092  -33.1469 H   0  0  0  0  0  0  0  0  0  0  0  0
   -8.1561   21.7364  -31.3723 H   0  0  0  0  0  0  0  0  0  0  0  0
   -6.4715   22.4478  -30.8792 H   0  0  0  0  0  0  0  0  0  0  0  0
   -3.9329   22.1004  -27.9218 H   0  0  0  0  0  0  0  0  0  0  0  0
   -2.0091   21.5649  -26.3834 H   0  0  0  0  0  0  0  0  0  0  0  0
   -1.4935   25.1291  -29.8975 H   0  0  0  0  0  0  0  0  0  0  0  0
    2.2746   23.3681  -27.5296 H   0  0  0  0  0  0  0  0  0  0  0  0
    1.7420   24.5892  -26.3715 H   0  0  0  0  0  0  0  0  0  0  0  0
   -2.2561   22.7131  -31.8107 H   0  0  0  0  0  0  0  0  0  0  0  0
  1  2  1  0
  2  3  1  0
  3  4  2  0
  4  5  1  0
  5  6  1  0
  6  7  1  0
  7  8  1  0
  8  9  1  0
  9 10  1  0
 10 11  1  0
  5 12  2  0
 12 13  1  0
 13 14  1  0
 14 15  2  0
 14 16  2  0
 14 17  1  0
 17 18  2  0
 18 19  1  0
 19 20  2  0
 20 21  1  0
 21 22  2  0
 21 23  1  0
 23 24  1  0
 24 25  1  0
 13 26  2  0
 26  3  1  0
 11  6  1  0
 22 17  1  0
 25 20  1  0
  1 27  1  0
  1 28  1  0
  1 29  1  0
  4 30  1  0
  7 31  1  0
  7 32  1  0
  8 33  1  0
  8 34  1  0
  9 35  1  0
 10 36  1  0
 10 37  1  0
 11 38  1  0
 11 39  1  0
 12 40  1  0
 18 41  1  0
 19 42  1  0
 22 43  1  0
 24 44  1  0
 24 45  1  0
 26 46  1  0
M  END
>  <UniqueID>  (32) 
30

>  <SMILES>  (32) 
COc1cc(N2CCNCC2)cc(S(=O)(=O)c2ccc3c(c2)OCO3)c1

>  <Energy>  (32) 
85.88840310981654

>  <Genealogy>  (32) 
COc1cc(N2CCNCC2)cc(S(=O)(=O)c2ccc3c(c2)OCO3)c1 (3D coordinates assigned)
COc1cc(N2CCNCC2)cc(S(=O)(=O)c2ccc3c(c2)OCO3)c1 (nonaromatic ring conformer: 85.88840310981654 kcal/mol)

>  <smiles>  (32) 
COc1cc(N2CCNCC2)cc(S(=O)(=O)c2ccc3c(c2)OCO3)c1

>  <score_type>  (32) 
oracle

>  <origin>  (32) 
adg

>  <m_score__min__energy>  (32) 
-8.9700000000000006

>  <m_primary>  (32) 
energy

$$$$
32:0
     RDKit          3D

 45 47  0  0  0  0  0  0  0  0999 V2000
   -7.8887   22.1831  -32.9960 H   0  0  0  0  0  0  0  0  0  0  0  0
   -7.0500   22.3650  -32.3080 C   0  0  0  0  0  0  0  0  0  0  0  0
   -5.9240   21.5400  -32.3470 C   0  0  0  0  0  0  0  0  0  0  0  0
   -5.8779   20.7068  -33.0637 H   0  0  0  0  0  0  0  0  0  0  0  0
   -4.8550   21.7720  -31.4760 C   0  0  0  0  0  0  0  0  0  0  0  0
   -3.9731   21.1153  -31.5063 H   0  0  0  0  0  0  0  0  0  0  0  0
   -4.9000   22.8400  -30.5610 C   0  0  0  0  0  0  0  0  0  0  0  0
   -3.7790   23.0760  -29.6190 C   0  0  0  0  0  0  0  0  0  0  0  0
   -3.4000   22.0700  -28.7900 N   0  0  0  0  0  0  0  0  0  0  0  0
   -2.3860   22.2220  -27.9050 C   0  0  0  0  0  0  0  0  0  0  0  0
   -2.0230   21.1780  -27.0520 C   0  0  0  0  0  0  0  0  0  0  0  0
   -2.5544   20.2160  -27.0993 H   0  0  0  0  0  0  0  0  0  0  0  0
   -0.9830   21.3600  -26.1390 C   0  0  0  0  0  0  0  0  0  0  0  0
   -0.6904   20.5433  -25.4627 H   0  0  0  0  0  0  0  0  0  0  0  0
   -0.3150   22.5890  -26.0900 C   0  0  0  0  0  0  0  0  0  0  0  0
    0.6520   22.7590  -25.2370 N   0  0  0  0  0  0  0  0  0  0  0  0
    1.6780   23.8000  -25.3290 C   0  0  0  0  0  0  0  0  0  0  0  0
    1.8936   23.9963  -26.3897 H   0  0  0  0  0  0  0  0  0  0  0  0
    2.5775   23.4444  -24.8051 H   0  0  0  0  0  0  0  0  0  0  0  0
    1.2180   25.1070  -24.6630 C   0  0  0  0  0  0  0  0  0  0  0  0
    1.2772   25.9237  -25.3976 H   0  0  0  0  0  0  0  0  0  0  0  0
    1.8742   25.3084  -23.8035 H   0  0  0  0  0  0  0  0  0  0  0  0
   -0.1680   25.0000  -24.1750 N   0  0  0  0  0  0  0  0  0  0  0  0
   -0.7070   24.3730  -24.8170 H   0  0  0  0  0  0  0  0  0  0  0  0
   -0.1800   24.5760  -23.2180 H   0  0  0  0  0  0  0  0  0  0  0  0
   -0.8510   26.3070  -24.1540 C   0  0  0  0  0  0  0  0  0  0  0  0
   -0.1009   27.0993  -24.2939 H   0  0  0  0  0  0  0  0  0  0  0  0
   -1.3628   26.4012  -23.1849 H   0  0  0  0  0  0  0  0  0  0  0  0
   -1.9090   26.4330  -25.2530 C   0  0  0  0  0  0  0  0  0  0  0  0
   -2.9018   26.5512  -24.7944 H   0  0  0  0  0  0  0  0  0  0  0  0
   -1.6865   27.3110  -25.8772 H   0  0  0  0  0  0  0  0  0  0  0  0
   -1.8990   25.5273  -25.8772 H   0  0  0  0  0  0  0  0  0  0  0  0
   -0.6840   23.5910  -26.9380 N   0  0  0  0  0  0  0  0  0  0  0  0
   -1.6940   23.4460  -27.8420 C   0  0  0  0  0  0  0  0  0  0  0  0
   -2.0500   24.4740  -28.6780 N   0  0  0  0  0  0  0  0  0  0  0  0
   -1.3550   25.7690  -28.5840 C   0  0  0  0  0  0  0  0  0  0  0  0
   -1.2133   26.0331  -27.5256 H   0  0  0  0  0  0  0  0  0  0  0  0
   -0.3749   25.6959  -29.0781 H   0  0  0  0  0  0  0  0  0  0  0  0
   -1.9577   26.5453  -29.0781 H   0  0  0  0  0  0  0  0  0  0  0  0
   -3.1050   24.3150  -29.5450 C   0  0  0  0  0  0  0  0  0  0  0  0
   -3.4940   25.2820  -30.2580 O   0  0  0  0  0  0  0  0  0  0  0  0
   -6.0460   23.6590  -30.5210 C   0  0  0  0  0  0  0  0  0  0  0  0
   -6.1250   24.7000  -29.6550 F   0  0  0  0  0  0  0  0  0  0  0  0
   -7.1120   23.4210  -31.3960 C   0  0  0  0  0  0  0  0  0  0  0  0
   -8.0014   24.0676  -31.3654 H   0  0  0  0  0  0  0  0  0  0  0  0
  1  2  1  0
  2  3  2  0
  3  4  1  0
  3  5  1  0
  5  6  1  0
  5  7  2  0
  7  8  1  0
  8  9  2  0
  9 10  1  0
 10 11  1  0
 11 12  1  0
 11 13  2  0
 13 14  1  0
 13 15  1  0
 15 16  2  0
 16 17  1  0
 17 18  1  0
 17 19  1  0
 17 20  1  0
 20 21  1  0
 20 22  1  0
 20 23  1  0
 23 24  1  0
 23 25  1  0
 23 26  1  0
 26 27  1  0
 26 28  1  0
 26 29  1  0
 29 30  1  0
 29 31  1  0
 29 32  1  0
 15 33  1  0
 33 34  1  0
 34 35  1  0
 35 36  1  0
 36 37  1  0
 36 38  1  0
 36 39  1  0
 35 40  1  0
 40 41  2  0
  7 42  1  0
 42 43  1  0
 42 44  2  0
 44 45  1  0
 44  2  1  0
 40  8  1  0
 34 10  2  0
M  CHG  2  23   1  33  -1
M  END
>  <UniqueID>  (33) 
31

>  <SMILES>  (33) 
CC[NH2+]CC/N=c1/ccc2nc(-c3ccccc3F)c(=O)n(C)c2[n-]1

>  <Energy>  (33) 
56.94776343944128

>  <Genealogy>  (33) 
CC[NH2+]CCN=c1ccc2nc(-c3ccccc3F)c(=O)n(C)c2[n-]1 (protonated)
CC[NH2+]CC/N=c1/ccc2nc(-c3ccccc3F)c(=O)n(C)c2[n-]1 (cis-trans isomerization)
CC[NH2+]CC/N=c1/ccc2nc(-c3ccccc3F)c(=O)n(C)c2[n-]1 (3D coordinates assigned)
CC[NH2+]CC/N=c1/ccc2nc(-c3ccccc3F)c(=O)n(C)c2[n-]1 (optimized conformer: 56.94776343944128 kcal/mol)

>  <smiles>  (33) 
CCNCCN=c1ccc2nc(-c3ccccc3F)c(=O)n(C)c2[nH]1

>  <score_type>  (33) 
oracle

>  <origin>  (33) 
adg

>  <m_score__min__energy>  (33) 
-7.9800000000000004

>  <m_primary>  (33) 
energy

$$$$
33:0
     RDKit          3D

 48 52  0  0  0  0  0  0  0  0999 V2000
   -3.3260   16.6330  -35.2990 C   0  0  0  0  0  0  0  0  0  0  0  0
   -4.5860   16.2820  -34.7380 O   0  0  0  0  0  0  0  0  0  0  0  0
   -5.4780   17.1960  -34.1590 C   0  0  0  0  0  0  0  0  0  0  0  0
   -6.3960   16.8270  -33.1560 C   0  0  0  0  0  0  0  0  0  0  0  0
   -7.2590   17.7800  -32.6070 C   0  0  0  0  0  0  0  0  0  0  0  0
   -7.2080   19.1130  -33.0350 C   0  0  0  0  0  0  0  0  0  0  0  0
   -8.1070   20.0810  -32.4740 N   0  0  0  0  0  0  0  0  0  0  0  0
   -9.4230   20.0050  -32.5550 N   0  0  0  0  0  0  0  0  0  0  0  0
   -9.9340   21.0820  -31.9860 N   0  0  0  0  0  0  0  0  0  0  0  0
   -8.9790   21.8740  -31.5210 N   0  0  0  0  0  0  0  0  0  0  0  0
   -7.8310   21.2400  -31.8330 C   0  0  0  0  0  0  0  0  0  0  0  0
   -6.4960   21.6920  -31.3960 C   0  0  0  0  0  0  0  0  0  0  0  0
   -5.4190   20.8780  -31.2930 N   0  0  0  0  0  0  0  0  0  0  0  0
   -4.3910   21.5930  -30.8450 N   0  0  0  0  0  0  0  0  0  0  0  0
   -3.0420   21.0680  -30.6180 C   0  0  0  0  0  0  0  0  0  0  0  0
   -2.2880   20.8980  -31.9130 C   0  0  0  0  0  0  0  0  0  0  0  0
   -2.8820   20.2210  -32.9930 C   0  0  0  0  0  0  0  0  0  0  0  0
   -2.1740   20.0350  -34.1820 C   0  0  0  0  0  0  0  0  0  0  0  0
   -0.8640   20.5060  -34.2990 C   0  0  0  0  0  0  0  0  0  0  0  0
   -0.2580   21.1620  -33.2260 C   0  0  0  0  0  0  0  0  0  0  0  0
   -0.9640   21.3580  -32.0340 C   0  0  0  0  0  0  0  0  0  0  0  0
   -0.3560   21.9880  -30.9970 F   0  0  0  0  0  0  0  0  0  0  0  0
   -4.8030   22.8610  -30.6520 C   0  0  0  0  0  0  0  0  0  0  0  0
   -4.0700   23.9590  -30.1980 C   0  0  0  0  0  0  0  0  0  0  0  0
   -4.7390   25.1950  -30.0980 C   0  0  0  0  0  0  0  0  0  0  0  0
   -6.1040   25.3010  -30.4480 C   0  0  0  0  0  0  0  0  0  0  0  0
   -6.8170   24.1730  -30.8990 C   0  0  0  0  0  0  0  0  0  0  0  0
   -6.1270   22.9630  -30.9850 C   0  0  0  0  0  0  0  0  0  0  0  0
   -6.3090   19.4760  -34.0490 C   0  0  0  0  0  0  0  0  0  0  0  0
   -5.4470   18.5240  -34.6010 C   0  0  0  0  0  0  0  0  0  0  0  0
   -2.6076   16.8331  -34.4904 H   0  0  0  0  0  0  0  0  0  0  0  0
   -2.9573   15.8034  -35.9201 H   0  0  0  0  0  0  0  0  0  0  0  0
   -3.4393   17.5338  -35.9201 H   0  0  0  0  0  0  0  0  0  0  0  0
   -6.4338   15.7856  -32.8037 H   0  0  0  0  0  0  0  0  0  0  0  0
   -7.9826   17.4814  -31.8342 H   0  0  0  0  0  0  0  0  0  0  0  0
  -10.9560   21.2830  -31.9080 H   0  0  0  0  0  0  0  0  0  0  0  0
   -2.4904   21.7676  -29.9728 H   0  0  0  0  0  0  0  0  0  0  0  0
   -3.1324   20.0814  -30.1401 H   0  0  0  0  0  0  0  0  0  0  0  0
   -3.9085   19.8365  -32.9007 H   0  0  0  0  0  0  0  0  0  0  0  0
   -2.6486   19.5166  -35.0282 H   0  0  0  0  0  0  0  0  0  0  0  0
   -0.3094   20.3598  -35.2376 H   0  0  0  0  0  0  0  0  0  0  0  0
    0.7762   21.5254  -33.3178 H   0  0  0  0  0  0  0  0  0  0  0  0
   -3.0080   23.8626  -29.9280 H   0  0  0  0  0  0  0  0  0  0  0  0
   -4.1950   26.0835  -29.7451 H   0  0  0  0  0  0  0  0  0  0  0  0
   -6.6139   26.2724  -30.3676 H   0  0  0  0  0  0  0  0  0  0  0  0
   -7.8798   24.2434  -31.1736 H   0  0  0  0  0  0  0  0  0  0  0  0
   -6.2823   20.5143  -34.4113 H   0  0  0  0  0  0  0  0  0  0  0  0
   -4.7389   18.8206  -35.3888 H   0  0  0  0  0  0  0  0  0  0  0  0
  1  2  1  0
  2  3  1  0
  3  4  2  0
  4  5  1  0
  5  6  2  0
  6  7  1  0
  7  8  1  0
  8  9  2  0
  9 10  1  0
 10 11  2  0
 11 12  1  0
 12 13  2  0
 13 14  1  0
 14 15  1  0
 15 16  1  0
 16 17  2  0
 17 18  1  0
 18 19  2  0
 19 20  1  0
 20 21  2  0
 21 22  1  0
 14 23  1  0
 23 24  2  0
 24 25  1  0
 25 26  2  0
 26 27  1  0
 27 28  2  0
  6 29  1  0
 29 30  2  0
 30  3  1  0
 11  7  1  0
 28 12  1  0
 21 16  1  0
 28 23  1  0
  1 31  1  0
  1 32  1  0
  1 33  1  0
  4 34  1  0
  5 35  1  0
  9 36  1  0
 15 37  1  0
 15 38  1  0
 17 39  1  0
 18 40  1  0
 19 41  1  0
 20 42  1  0
 24 43  1  0
 25 44  1  0
 26 45  1  0
 27 46  1  0
 29 47  1  0
 30 48  1  0
M  CHG  1   9   1
M  END
>  <UniqueID>  (34) 
32

>  <SMILES>  (34) 
COc1ccc(-n2n[nH+]nc2-c2nn(Cc3ccccc3F)c3ccccc23)cc1

>  <Energy>  (34) 
136.29008538625158

>  <Genealogy>  (34) 
COc1ccc(-n2n[nH+]nc2-c2nn(Cc3ccccc3F)c3ccccc23)cc1 (protonated)
COc1ccc(-n2n[nH+]nc2-c2nn(Cc3ccccc3F)c3ccccc23)cc1 (3D coordinates assigned)
COc1ccc(-n2n[nH+]nc2-c2nn(Cc3ccccc3F)c3ccccc23)cc1 (optimized conformer: 136.29008538625158 kcal/mol)

>  <smiles>  (34) 
COc1ccc(-n2nnnc2-c2nn(Cc3ccccc3F)c3ccccc23)cc1

>  <score_type>  (34) 
oracle

>  <origin>  (34) 
adg

>  <m_score__min__energy>  (34) 
-9.6799999999999997

>  <m_primary>  (34) 
energy

$$$$
34:0
     RDKit          3D

 45 46  0  0  0  0  0  0  0  0999 V2000
   -4.3160   24.5430  -30.0740 C   0  0  0  0  0  0  0  0  0  0  0  0
   -5.5760   25.3050  -30.4780 C   0  0  0  0  0  0  0  0  0  0  0  0
   -6.8560   24.5210  -30.1600 C   0  0  0  0  0  0  0  0  0  0  0  0
   -7.3590   23.8060  -31.3310 N   0  0  0  0  0  0  0  0  0  0  0  0
   -6.7330   22.6130  -31.8160 C   0  0  0  0  0  0  0  0  0  0  0  0
   -5.4670   22.5150  -32.1490 O   0  0  0  0  0  0  0  0  0  0  0  0
   -5.2650   21.2690  -32.5260 C   0  0  0  0  0  0  0  0  0  0  0  0
   -3.9500   20.7650  -32.9850 C   0  0  0  0  0  0  0  0  0  0  0  0
   -3.8480   19.4570  -33.4920 C   0  0  0  0  0  0  0  0  0  0  0  0
   -2.6170   18.9580  -33.9300 C   0  0  0  0  0  0  0  0  0  0  0  0
   -1.4750   19.7600  -33.8670 C   0  0  0  0  0  0  0  0  0  0  0  0
   -1.5620   21.0600  -33.3670 C   0  0  0  0  0  0  0  0  0  0  0  0
   -2.7910   21.5640  -32.9280 C   0  0  0  0  0  0  0  0  0  0  0  0
   -6.3970   20.5290  -32.4410 N   0  0  0  0  0  0  0  0  0  0  0  0
   -7.3300   21.3870  -31.9940 C   0  0  0  0  0  0  0  0  0  0  0  0
   -9.0350   20.9420  -31.6540 S   0  0  0  0  0  0  0  0  0  0  0  0
   -9.0310   19.4530  -32.7180 C   0  0  0  0  0  0  0  0  0  0  0  0
   -8.4570   18.2360  -31.9840 C   0  0  0  0  0  0  0  0  0  0  0  0
   -7.0390   18.0000  -32.3400 N   0  0  0  0  0  0  0  0  0  0  0  0
   -6.3170   17.4380  -31.1860 C   0  0  0  0  0  0  0  0  0  0  0  0
   -6.9250   17.0710  -33.4800 C   0  0  0  0  0  0  0  0  0  0  0  0
   -4.2482   24.5020  -28.9769 H   0  0  0  0  0  0  0  0  0  0  0  0
   -4.3608   23.5205  -30.4770 H   0  0  0  0  0  0  0  0  0  0  0  0
   -3.4312   25.0575  -30.4770 H   0  0  0  0  0  0  0  0  0  0  0  0
   -5.6017   26.2605  -29.9337 H   0  0  0  0  0  0  0  0  0  0  0  0
   -5.5396   25.4641  -31.5658 H   0  0  0  0  0  0  0  0  0  0  0  0
   -6.6394   23.7931  -29.3642 H   0  0  0  0  0  0  0  0  0  0  0  0
   -7.6261   25.2385  -29.8404 H   0  0  0  0  0  0  0  0  0  0  0  0
   -8.2620   24.1130  -31.7560 H   0  0  0  0  0  0  0  0  0  0  0  0
   -4.7440   18.8211  -33.5445 H   0  0  0  0  0  0  0  0  0  0  0  0
   -2.5481   17.9334  -34.3243 H   0  0  0  0  0  0  0  0  0  0  0  0
   -0.5071   19.3669  -34.2115 H   0  0  0  0  0  0  0  0  0  0  0  0
   -0.6617   21.6902  -33.3179 H   0  0  0  0  0  0  0  0  0  0  0  0
   -2.8528   22.5900  -32.5361 H   0  0  0  0  0  0  0  0  0  0  0  0
   -6.5410   19.5220  -32.6680 H   0  0  0  0  0  0  0  0  0  0  0  0
  -10.0638   19.2306  -33.0244 H   0  0  0  0  0  0  0  0  0  0  0  0
   -8.3967   19.6574  -33.5931 H   0  0  0  0  0  0  0  0  0  0  0  0
   -8.5286   18.4072  -30.8998 H   0  0  0  0  0  0  0  0  0  0  0  0
   -9.0373   17.3505  -32.2825 H   0  0  0  0  0  0  0  0  0  0  0  0
   -6.7785   17.7972  -30.2544 H   0  0  0  0  0  0  0  0  0  0  0  0
   -6.3683   16.3397  -31.2208 H   0  0  0  0  0  0  0  0  0  0  0  0
   -5.2649   17.7572  -31.2208 H   0  0  0  0  0  0  0  0  0  0  0  0
   -6.7990   16.0445  -33.1053 H   0  0  0  0  0  0  0  0  0  0  0  0
   -7.8369   17.1285  -34.0924 H   0  0  0  0  0  0  0  0  0  0  0  0
   -6.0540   17.3472  -34.0924 H   0  0  0  0  0  0  0  0  0  0  0  0
  1  2  1  0
  2  3  1  0
  3  4  1  0
  4  5  1  0
  5  6  1  0
  6  7  1  0
  7  8  1  0
  8  9  2  0
  9 10  1  0
 10 11  2  0
 11 12  1  0
 12 13  2  0
  7 14  2  0
 14 15  1  0
 15 16  1  0
 16 17  1  0
 17 18  1  0
 18 19  1  0
 19 20  1  0
 19 21  1  0
 15  5  2  0
 13  8  1  0
  1 22  1  0
  1 23  1  0
  1 24  1  0
  2 25  1  0
  2 26  1  0
  3 27  1  0
  3 28  1  0
  4 29  1  0
  9 30  1  0
 10 31  1  0
 11 32  1  0
 12 33  1  0
 13 34  1  0
 14 35  1  0
 17 36  1  0
 17 37  1  0
 18 38  1  0
 18 39  1  0
 20 40  1  0
 20 41  1  0
 20 42  1  0
 21 43  1  0
 21 44  1  0
 21 45  1  0
M  CHG  1  14   1
M  END
>  <UniqueID>  (35) 
33

>  <SMILES>  (35) 
CCCNc1oc(-c2ccccc2)[nH+]c1SCCN(C)C

>  <Energy>  (35) 
64.00722225447778

>  <Genealogy>  (35) 
CCCNc1oc(-c2ccccc2)[nH+]c1SCCN(C)C (protonated)
CCCNc1oc(-c2ccccc2)[nH+]c1SCCN(C)C (3D coordinates assigned)
CCCNc1oc(-c2ccccc2)[nH+]c1SCCN(C)C (optimized conformer: 64.00722225447778 kcal/mol)

>  <smiles>  (35) 
CCCNc1oc(-c2ccccc2)nc1SCCN(C)C

>  <score_type>  (35) 
oracle

>  <origin>  (35) 
adg

>  <m_score__min__energy>  (35) 
-5.7300000000000004

>  <m_primary>  (35) 
energy

$$$$
35:0
     RDKit          3D

 50 52  0  0  0  0  0  0  0  0999 V2000
   -2.7030   20.0350  -27.2770 C   0  0  0  0  0  0  0  0  0  0  0  0
   -2.4970   20.9380  -28.4570 C   0  0  0  0  0  0  0  0  0  0  0  0
   -2.0310   20.4150  -29.6730 C   0  0  0  0  0  0  0  0  0  0  0  0
   -1.8120   21.2610  -30.7640 C   0  0  0  0  0  0  0  0  0  0  0  0
   -2.0400   22.6340  -30.6440 C   0  0  0  0  0  0  0  0  0  0  0  0
   -2.4730   23.1750  -29.4240 C   0  0  0  0  0  0  0  0  0  0  0  0
   -2.7430   24.6460  -29.3020 C   0  0  0  0  0  0  0  0  0  0  0  0
   -3.4910   25.0980  -30.4680 N   0  0  0  0  0  0  0  0  0  0  0  0
   -4.9120   24.9890  -30.6250 C   0  0  0  0  0  0  0  0  0  0  0  0
   -5.5910   26.0470  -30.6940 O   0  0  0  0  0  0  0  0  0  0  0  0
   -5.5970   23.6490  -30.7890 C   0  0  1  0  0  0  0  0  0  0  0  0
   -7.1280   23.7870  -30.7290 C   0  0  0  0  0  0  0  0  0  0  0  0
   -7.7930   22.4190  -30.8970 C   0  0  0  0  0  0  0  0  0  0  0  0
   -7.3610   21.7550  -32.2090 C   0  0  0  0  0  0  0  0  0  0  0  0
   -5.8930   21.7300  -32.3210 N   0  0  0  0  0  0  0  0  0  0  0  0
   -5.2250   20.6010  -32.9270 C   0  0  0  0  0  0  0  0  0  0  0  0
   -3.8790   20.6260  -33.1340 N   0  0  0  0  0  0  0  0  0  0  0  0
   -3.2270   19.5760  -33.7000 C   0  0  0  0  0  0  0  0  0  0  0  0
   -1.7500   19.6460  -33.9190 C   0  0  0  0  0  0  0  0  0  0  0  0
   -3.9470   18.4420  -34.0850 C   0  0  0  0  0  0  0  0  0  0  0  0
   -5.3260   18.4200  -33.8620 C   0  0  0  0  0  0  0  0  0  0  0  0
   -6.1430   17.2360  -34.2740 C   0  0  0  0  0  0  0  0  0  0  0  0
   -5.9320   19.4980  -33.2960 N   0  0  0  0  0  0  0  0  0  0  0  0
   -5.1730   22.9990  -32.1150 C   0  0  0  0  0  0  0  0  0  0  0  0
   -2.7080   22.3190  -28.3340 C   0  0  0  0  0  0  0  0  0  0  0  0
   -2.5719   20.6096  -26.3482 H   0  0  0  0  0  0  0  0  0  0  0  0
   -3.7197   19.6164  -27.3087 H   0  0  0  0  0  0  0  0  0  0  0  0
   -1.9684   19.2168  -27.3087 H   0  0  0  0  0  0  0  0  0  0  0  0
   -1.8375   19.3363  -29.7679 H   0  0  0  0  0  0  0  0  0  0  0  0
   -1.4593   20.8447  -31.7192 H   0  0  0  0  0  0  0  0  0  0  0  0
   -1.8794   23.2937  -31.5095 H   0  0  0  0  0  0  0  0  0  0  0  0
   -3.3306   24.8372  -28.3920 H   0  0  0  0  0  0  0  0  0  0  0  0
   -1.7896   25.1914  -29.2424 H   0  0  0  0  0  0  0  0  0  0  0  0
   -5.2856   23.0048  -29.9535 H   0  0  0  0  0  0  0  0  0  0  0  0
   -7.4158   24.2131  -29.7566 H   0  0  0  0  0  0  0  0  0  0  0  0
   -7.4593   24.4477  -31.5437 H   0  0  0  0  0  0  0  0  0  0  0  0
   -7.5042   21.7729  -30.0549 H   0  0  0  0  0  0  0  0  0  0  0  0
   -8.8837   22.5601  -30.9185 H   0  0  0  0  0  0  0  0  0  0  0  0
   -7.7427   20.7237  -32.2345 H   0  0  0  0  0  0  0  0  0  0  0  0
   -7.7700   22.3343  -33.0499 H   0  0  0  0  0  0  0  0  0  0  0  0
   -1.2359   19.6704  -32.9468 H   0  0  0  0  0  0  0  0  0  0  0  0
   -1.4211   18.7624  -34.4857 H   0  0  0  0  0  0  0  0  0  0  0  0
   -1.5061   20.5567  -34.4857 H   0  0  0  0  0  0  0  0  0  0  0  0
   -3.4394   17.5858  -34.5532 H   0  0  0  0  0  0  0  0  0  0  0  0
   -6.5054   16.7109  -33.3779 H   0  0  0  0  0  0  0  0  0  0  0  0
   -7.0013   17.5735  -34.8735 H   0  0  0  0  0  0  0  0  0  0  0  0
   -5.5229   16.5533  -34.8735 H   0  0  0  0  0  0  0  0  0  0  0  0
   -4.0911   22.8017  -32.0918 H   0  0  0  0  0  0  0  0  0  0  0  0
   -5.4159   23.6840  -32.9407 H   0  0  0  0  0  0  0  0  0  0  0  0
   -3.0597   22.7351  -27.3784 H   0  0  0  0  0  0  0  0  0  0  0  0
  1  2  1  0
  2  3  2  0
  3  4  1  0
  4  5  2  0
  5  6  1  0
  6  7  1  0
  7  8  1  0
  8  9  1  0
  9 10  2  0
  9 11  1  0
 11 12  1  0
 12 13  1  0
 13 14  1  0
 14 15  1  0
 15 16  1  0
 16 17  2  0
 17 18  1  0
 18 19  1  0
 18 20  2  0
 20 21  1  0
 21 22  1  0
 21 23  2  0
 15 24  1  0
  6 25  2  0
 25  2  1  0
 24 11  1  0
 23 16  1  0
  1 26  1  0
  1 27  1  0
  1 28  1  0
  3 29  1  0
  4 30  1  0
  5 31  1  0
  7 32  1  0
  7 33  1  0
 11 34  1  1
 12 35  1  0
 12 36  1  0
 13 37  1  0
 13 38  1  0
 14 39  1  0
 14 40  1  0
 19 41  1  0
 19 42  1  0
 19 43  1  0
 20 44  1  0
 22 45  1  0
 22 46  1  0
 22 47  1  0
 24 48  1  0
 24 49  1  0
 25 50  1  0
M  CHG  1   8  -1
M  END
>  <UniqueID>  (36) 
34

>  <SMILES>  (36) 
Cc1cccc(C[N-]C(=O)[C@H]2CCCN(c3nc(C)cc(C)n3)C2)c1

>  <Energy>  (36) 
43.131943883506715

>  <Genealogy>  (36) 
Cc1cccc(C[N-]C(=O)C2CCCN(c3nc(C)cc(C)n3)C2)c1 (protonated)
Cc1cccc(C[N-]C(=O)[C@H]2CCCN(c3nc(C)cc(C)n3)C2)c1 (chirality)
Cc1cccc(C[N-]C(=O)[C@H]2CCCN(c3nc(C)cc(C)n3)C2)c1 (3D coordinates assigned)
Cc1cccc(C[N-]C(=O)[C@H]2CCCN(c3nc(C)cc(C)n3)C2)c1 (nonaromatic ring conformer: 43.131943883506715 kcal/mol)

>  <smiles>  (36) 
Cc1cccc(CNC(=O)C2CCCN(c3nc(C)cc(C)n3)C2)c1

>  <score_type>  (36) 
oracle

>  <origin>  (36) 
adg

>  <m_score__min__energy>  (36) 
-10.609999999999999

>  <m_primary>  (36) 
energy

$$$$
36:0
     RDKit          3D

 60 62  0  0  0  0  0  0  0  0999 V2000
   -0.5210   21.5690  -30.8540 C   0  0  0  0  0  0  0  0  0  0  0  0
   -1.7700   21.5270  -31.7360 C   0  0  0  0  0  0  0  0  0  0  0  0
   -2.8680   22.4860  -31.2280 C   0  0  2  0  0  0  0  0  0  0  0  0
   -3.3910   22.1020  -29.8630 C   0  0  0  0  0  0  0  0  0  0  0  0
   -3.0090   21.0300  -29.3180 O   0  0  0  0  0  0  0  0  0  0  0  0
   -4.2300   23.0030  -29.1200 N   0  0  0  0  0  0  0  0  0  0  0  0
   -3.5910   24.0780  -28.3500 C   0  0  0  0  0  0  0  0  0  0  0  0
   -2.1050   23.9320  -28.4250 C   0  0  0  0  0  0  0  0  0  0  0  0
   -1.2890   23.3580  -27.4780 C   0  0  0  0  0  0  0  0  0  0  0  0
   -0.0320   23.5430  -27.9140 N   0  0  0  0  0  0  0  0  0  0  0  0
    1.1890   23.0520  -27.2860 C   0  0  0  0  0  0  0  0  0  0  0  0
    2.0700   24.2210  -26.8400 C   0  0  0  0  0  0  0  0  0  0  0  0
    1.7730   25.3800  -27.5980 O   0  0  0  0  0  0  0  0  0  0  0  0
    1.0670   26.3240  -26.8190 C   0  0  0  0  0  0  0  0  0  0  0  0
   -0.1940   26.5700  -27.4100 O   0  0  0  0  0  0  0  0  0  0  0  0
   -1.1620   26.7320  -26.3990 C   0  0  0  0  0  0  0  0  0  0  0  0
   -0.0760   24.1940  -29.0670 N   0  0  0  0  0  0  0  0  0  0  0  0
   -1.3320   24.4580  -29.3970 N   0  0  0  0  0  0  0  0  0  0  0  0
   -5.6870   22.8110  -29.0670 C   0  0  0  0  0  0  0  0  0  0  0  0
   -6.3040   22.7820  -30.4660 C   0  0  0  0  0  0  0  0  0  0  0  0
   -5.2950   23.6410  -31.6690 S   0  0  0  0  0  0  0  0  0  0  0  0
   -4.7440   24.8730  -31.0100 O   0  0  0  0  0  0  0  0  0  0  0  0
   -6.1620   24.0690  -32.8190 O   0  0  0  0  0  0  0  0  0  0  0  0
   -3.9500   22.6690  -32.2190 N   0  0  0  0  0  0  0  0  0  0  0  0
   -4.2260   21.6590  -33.2680 C   0  0  0  0  0  0  0  0  0  0  0  0
   -5.2230   20.5940  -32.8670 C   0  0  0  0  0  0  0  0  0  0  0  0
   -4.7750   19.3560  -32.3690 C   0  0  0  0  0  0  0  0  0  0  0  0
   -5.6910   18.3630  -32.0060 C   0  0  0  0  0  0  0  0  0  0  0  0
   -7.0620   18.5850  -32.1640 C   0  0  0  0  0  0  0  0  0  0  0  0
   -7.9490   17.6220  -31.8130 F   0  0  0  0  0  0  0  0  0  0  0  0
   -7.5150   19.7910  -32.7030 C   0  0  0  0  0  0  0  0  0  0  0  0
   -6.6010   20.7860  -33.0640 C   0  0  0  0  0  0  0  0  0  0  0  0
   -0.8193   21.5590  -29.7953 H   0  0  0  0  0  0  0  0  0  0  0  0
    0.1074   20.6915  -31.0662 H   0  0  0  0  0  0  0  0  0  0  0  0
    0.0471   22.4868  -31.0662 H   0  0  0  0  0  0  0  0  0  0  0  0
   -1.4917   21.8162  -32.7602 H   0  0  0  0  0  0  0  0  0  0  0  0
   -2.1723   20.5036  -31.7075 H   0  0  0  0  0  0  0  0  0  0  0  0
   -2.3889   23.4682  -31.1024 H   0  0  0  0  0  0  0  0  0  0  0  0
   -3.8849   25.0523  -28.7677 H   0  0  0  0  0  0  0  0  0  0  0  0
   -3.9121   24.0163  -27.2997 H   0  0  0  0  0  0  0  0  0  0  0  0
   -1.6018   22.8513  -26.5531 H   0  0  0  0  0  0  0  0  0  0  0  0
    0.9252   22.4425  -26.4091 H   0  0  0  0  0  0  0  0  0  0  0  0
    1.7453   22.4456  -28.0159 H   0  0  0  0  0  0  0  0  0  0  0  0
    1.8867   24.4274  -25.7752 H   0  0  0  0  0  0  0  0  0  0  0  0
    3.1252   23.9528  -26.9967 H   0  0  0  0  0  0  0  0  0  0  0  0
    0.9252   25.9286  -25.8023 H   0  0  0  0  0  0  0  0  0  0  0  0
    1.6394   27.2620  -26.7695 H   0  0  0  0  0  0  0  0  0  0  0  0
   -0.6800   26.6513  -25.4135 H   0  0  0  0  0  0  0  0  0  0  0  0
   -1.6326   27.7214  -26.4971 H   0  0  0  0  0  0  0  0  0  0  0  0
   -1.9291   25.9497  -26.4971 H   0  0  0  0  0  0  0  0  0  0  0  0
   -5.9030   21.8579  -28.5621 H   0  0  0  0  0  0  0  0  0  0  0  0
   -6.1249   23.6565  -28.5161 H   0  0  0  0  0  0  0  0  0  0  0  0
   -6.4165   21.7343  -30.7817 H   0  0  0  0  0  0  0  0  0  0  0  0
   -7.2772   23.2923  -30.4161 H   0  0  0  0  0  0  0  0  0  0  0  0
   -4.6185   22.1813  -34.1530 H   0  0  0  0  0  0  0  0  0  0  0  0
   -3.2752   21.1406  -33.4609 H   0  0  0  0  0  0  0  0  0  0  0  0
   -3.6963   19.1679  -32.2645 H   0  0  0  0  0  0  0  0  0  0  0  0
   -5.3323   17.4073  -31.5961 H   0  0  0  0  0  0  0  0  0  0  0  0
   -8.5930   19.9587  -32.8439 H   0  0  0  0  0  0  0  0  0  0  0  0
   -6.9635   21.7260  -33.5055 H   0  0  0  0  0  0  0  0  0  0  0  0
  1  2  1  0
  2  3  1  0
  3  4  1  0
  4  5  2  0
  4  6  1  0
  6  7  1  0
  7  8  1  0
  8  9  2  0
  9 10  1  0
 10 11  1  0
 11 12  1  0
 12 13  1  0
 13 14  1  0
 14 15  1  0
 15 16  1  0
 10 17  1  0
 17 18  2  0
  6 19  1  0
 19 20  1  0
 20 21  1  0
 21 22  2  0
 21 23  2  0
 21 24  1  0
 24 25  1  0
 25 26  1  0
 26 27  2  0
 27 28  1  0
 28 29  2  0
 29 30  1  0
 29 31  1  0
 31 32  2  0
 24  3  1  0
 32 26  1  0
 18  8  1  0
  1 33  1  0
  1 34  1  0
  1 35  1  0
  2 36  1  0
  2 37  1  0
  3 38  1  1
  7 39  1  0
  7 40  1  0
  9 41  1  0
 11 42  1  0
 11 43  1  0
 12 44  1  0
 12 45  1  0
 14 46  1  0
 14 47  1  0
 16 48  1  0
 16 49  1  0
 16 50  1  0
 19 51  1  0
 19 52  1  0
 20 53  1  0
 20 54  1  0
 25 55  1  0
 25 56  1  0
 27 57  1  0
 28 58  1  0
 31 59  1  0
 32 60  1  0
M  END
>  <UniqueID>  (37) 
35

>  <SMILES>  (37) 
CC[C@@H]1C(=O)N(Cc2cn(CCOCOC)nn2)CCS(=O)(=O)N1Cc1ccc(F)cc1

>  <Energy>  (37) 
105.59601282091391

>  <Genealogy>  (37) 
CC[C@@H]1C(=O)N(Cc2cn(CCOCOC)nn2)CCS(=O)(=O)N1Cc1ccc(F)cc1 (chirality)
CC[C@@H]1C(=O)N(Cc2cn(CCOCOC)nn2)CCS(=O)(=O)N1Cc1ccc(F)cc1 (3D coordinates assigned)
CC[C@@H]1C(=O)N(Cc2cn(CCOCOC)nn2)CCS(=O)(=O)N1Cc1ccc(F)cc1 (nonaromatic ring conformer: 105.59601282091391 kcal/mol)

>  <smiles>  (37) 
CCC1C(=O)N(Cc2cn(CCOCOC)nn2)CCS(=O)(=O)N1Cc1ccc(F)cc1

>  <score_type>  (37) 
oracle

>  <origin>  (37) 
adg

>  <m_score__min__energy>  (37) 
-6.8399999999999999

>  <m_primary>  (37) 
energy

$$$$
37:0
     RDKit          3D

 53 56  0  0  0  0  0  0  0  0999 V2000
   -0.6850   25.4430  -25.4770 C   0  0  0  0  0  0  0  0  0  0  0  0
    0.7400   25.1790  -25.9580 C   0  0  0  0  0  0  0  0  0  0  0  0
    0.8140   24.9470  -27.4750 C   0  0  0  0  0  0  0  0  0  0  0  0
   -0.3510   24.1770  -27.9610 N   0  0  0  0  0  0  0  0  0  0  0  0
   -1.3250   24.8150  -28.6960 C   0  0  0  0  0  0  0  0  0  0  0  0
   -1.2610   26.0510  -28.9450 O   0  0  0  0  0  0  0  0  0  0  0  0
   -2.3890   24.0680  -29.1670 C   0  0  0  0  0  0  0  0  0  0  0  0
   -3.4400   24.4690  -29.8980 N   0  0  0  0  0  0  0  0  0  0  0  0
   -4.1320   23.3100  -30.0640 C   0  0  0  0  0  0  0  0  0  0  0  0
   -5.3950   23.2380  -30.8070 C   0  0  0  0  0  0  0  0  0  0  0  0
   -5.9860   24.2410  -31.5550 C   0  0  0  0  0  0  0  0  0  0  0  0
   -7.1390   23.7690  -32.0600 N   0  0  0  0  0  0  0  0  0  0  0  0
   -7.3000   22.5180  -31.6570 N   0  0  0  0  0  0  0  0  0  0  0  0
   -8.4220   21.6660  -32.0390 C   0  0  0  0  0  0  0  0  0  0  0  0
   -7.9280   20.2860  -32.3700 C   0  0  0  0  0  0  0  0  0  0  0  0
   -8.3820   19.1770  -31.6360 C   0  0  0  0  0  0  0  0  0  0  0  0
   -7.8940   17.8980  -31.9190 C   0  0  0  0  0  0  0  0  0  0  0  0
   -6.9440   17.7180  -32.9280 C   0  0  0  0  0  0  0  0  0  0  0  0
   -6.4770   18.8180  -33.6540 C   0  0  0  0  0  0  0  0  0  0  0  0
   -5.5490   18.6430  -34.6280 F   0  0  0  0  0  0  0  0  0  0  0  0
   -6.9620   20.1000  -33.3740 C   0  0  0  0  0  0  0  0  0  0  0  0
   -6.2490   22.1550  -30.8970 C   0  0  0  0  0  0  0  0  0  0  0  0
   -3.5670   22.2250  -29.4730 N   0  0  0  0  0  0  0  0  0  0  0  0
   -2.4630   22.7470  -28.9150 C   0  0  0  0  0  0  0  0  0  0  0  0
   -1.5180   22.0870  -28.1920 N   0  0  0  0  0  0  0  0  0  0  0  0
   -1.6190   20.6330  -27.9630 C   0  0  0  0  0  0  0  0  0  0  0  0
   -1.9560   20.3170  -26.4980 C   0  0  0  0  0  0  0  0  0  0  0  0
   -2.7350   19.0130  -26.3480 C   0  0  0  0  0  0  0  0  0  0  0  0
   -0.4500   22.8170  -27.7100 C   0  0  0  0  0  0  0  0  0  0  0  0
    0.4460   22.2340  -27.0370 O   0  0  0  0  0  0  0  0  0  0  0  0
   -0.7060   25.4469  -24.3772 H   0  0  0  0  0  0  0  0  0  0  0  0
   -1.0242   26.4193  -25.8536 H   0  0  0  0  0  0  0  0  0  0  0  0
   -1.3514   24.6530  -25.8536 H   0  0  0  0  0  0  0  0  0  0  0  0
    1.3653   26.0473  -25.7028 H   0  0  0  0  0  0  0  0  0  0  0  0
    1.0969   24.2645  -25.4616 H   0  0  0  0  0  0  0  0  0  0  0  0
    0.8371   25.9212  -27.9852 H   0  0  0  0  0  0  0  0  0  0  0  0
    1.7251   24.3703  -27.6928 H   0  0  0  0  0  0  0  0  0  0  0  0
   -5.5814   25.2521  -31.7100 H   0  0  0  0  0  0  0  0  0  0  0  0
   -7.8040   24.2910  -32.6740 H   0  0  0  0  0  0  0  0  0  0  0  0
   -9.1359   21.6072  -31.2042 H   0  0  0  0  0  0  0  0  0  0  0  0
   -8.9172   22.0946  -32.9228 H   0  0  0  0  0  0  0  0  0  0  0  0
   -9.1240   19.3158  -30.8359 H   0  0  0  0  0  0  0  0  0  0  0  0
   -8.2582   17.0321  -31.3467 H   0  0  0  0  0  0  0  0  0  0  0  0
   -6.5634   16.7104  -33.1512 H   0  0  0  0  0  0  0  0  0  0  0  0
   -6.5865   20.9646  -33.9409 H   0  0  0  0  0  0  0  0  0  0  0  0
   -6.0971   21.1705  -30.4304 H   0  0  0  0  0  0  0  0  0  0  0  0
   -2.4101   20.2234  -28.6083 H   0  0  0  0  0  0  0  0  0  0  0  0
   -0.6462   20.1774  -28.1998 H   0  0  0  0  0  0  0  0  0  0  0  0
   -1.0179   20.2354  -25.9295 H   0  0  0  0  0  0  0  0  0  0  0  0
   -2.5892   21.1316  -26.1164 H   0  0  0  0  0  0  0  0  0  0  0  0
   -2.8699   18.7872  -25.2799 H   0  0  0  0  0  0  0  0  0  0  0  0
   -3.7193   19.1166  -26.8280 H   0  0  0  0  0  0  0  0  0  0  0  0
   -2.1772   18.1954  -26.8280 H   0  0  0  0  0  0  0  0  0  0  0  0
  1  2  1  0
  2  3  1  0
  3  4  1  0
  4  5  1  0
  5  6  2  0
  5  7  1  0
  7  8  1  0
  8  9  1  0
  9 10  1  0
 10 11  1  0
 11 12  2  0
 12 13  1  0
 13 14  1  0
 14 15  1  0
 15 16  2  0
 16 17  1  0
 17 18  2  0
 18 19  1  0
 19 20  1  0
 19 21  2  0
 13 22  1  0
  9 23  2  0
 23 24  1  0
 24 25  1  0
 25 26  1  0
 26 27  1  0
 27 28  1  0
 25 29  1  0
 29 30  2  0
 29  4  1  0
 24  7  2  0
 22 10  2  0
 21 15  1  0
  1 31  1  0
  1 32  1  0
  1 33  1  0
  2 34  1  0
  2 35  1  0
  3 36  1  0
  3 37  1  0
 11 38  1  0
 12 39  1  0
 14 40  1  0
 14 41  1  0
 16 42  1  0
 17 43  1  0
 18 44  1  0
 21 45  1  0
 22 46  1  0
 26 47  1  0
 26 48  1  0
 27 49  1  0
 27 50  1  0
 28 51  1  0
 28 52  1  0
 28 53  1  0
M  CHG  2   8  -1  12   1
M  END
>  <UniqueID>  (38) 
36

>  <SMILES>  (38) 
CCCn1c(=O)c2[n-]c(-c3c[nH+]n(Cc4cccc(F)c4)c3)nc2n(CCC)c1=O

>  <Energy>  (38) 
117.57930959055315

>  <Genealogy>  (38) 
CCCn1c(=O)c2[n-]c(-c3c[nH+]n(Cc4cccc(F)c4)c3)nc2n(CCC)c1=O (protonated)
CCCn1c(=O)c2[n-]c(-c3c[nH+]n(Cc4cccc(F)c4)c3)nc2n(CCC)c1=O (3D coordinates assigned)
CCCn1c(=O)c2[n-]c(-c3c[nH+]n(Cc4cccc(F)c4)c3)nc2n(CCC)c1=O (optimized conformer: 117.57930959055315 kcal/mol)

>  <smiles>  (38) 
CCCn1c(=O)c2[nH]c(-c3cnn(Cc4cccc(F)c4)c3)nc2n(CCC)c1=O

>  <score_type>  (38) 
oracle

>  <origin>  (38) 
adg

>  <m_score__min__energy>  (38) 
-8.9800000000000004

>  <m_primary>  (38) 
energy

$$$$
38:0
     RDKit          3D

 50 52  0  0  0  0  0  0  0  0999 V2000
   -0.1700   23.7940  -29.2320 C   0  0  0  0  0  0  0  0  0  0  0  0
   -1.0350   24.9000  -28.9910 O   0  0  0  0  0  0  0  0  0  0  0  0
   -1.2090   25.5220  -27.7430 C   0  0  0  0  0  0  0  0  0  0  0  0
   -0.4550   26.6520  -27.3670 C   0  0  0  0  0  0  0  0  0  0  0  0
   -0.6730   27.2720  -26.1330 C   0  0  0  0  0  0  0  0  0  0  0  0
   -1.6360   26.7710  -25.2580 C   0  0  0  0  0  0  0  0  0  0  0  0
   -2.3790   25.6440  -25.6080 C   0  0  0  0  0  0  0  0  0  0  0  0
   -2.1690   25.0070  -26.8440 C   0  0  0  0  0  0  0  0  0  0  0  0
   -2.9990   23.7950  -27.1880 C   0  0  0  0  0  0  0  0  0  0  0  0
   -3.0990   23.6480  -28.6370 N   0  0  0  0  0  0  0  0  0  0  0  0
   -3.0030   22.3740  -29.2910 C   0  0  0  0  0  0  0  0  0  0  0  0
   -3.0540   21.3030  -28.6170 O   0  0  0  0  0  0  0  0  0  0  0  0
   -2.8900   22.3130  -30.7850 C   0  0  0  0  0  0  0  0  0  0  0  0
   -4.1520   21.8720  -31.3970 N   0  0  0  0  0  0  0  0  0  0  0  0
   -5.4150   22.1870  -30.7160 C   0  0  0  0  0  0  0  0  0  0  0  0
   -5.5040   23.6570  -30.4500 C   0  0  0  0  0  0  0  0  0  0  0  0
   -6.5310   24.3010  -29.7880 C   0  0  0  0  0  0  0  0  0  0  0  0
   -6.1960   25.6390  -29.7950 C   0  0  0  0  0  0  0  0  0  0  0  0
   -4.9880   25.7280  -30.4600 C   0  0  0  0  0  0  0  0  0  0  0  0
   -4.6020   24.5300  -30.8390 O   0  0  0  0  0  0  0  0  0  0  0  0
   -4.1890   21.2600  -32.7100 C   0  0  0  0  0  0  0  0  0  0  0  0
   -3.8900   21.9480  -33.7220 O   0  0  0  0  0  0  0  0  0  0  0  0
   -4.5960   19.8270  -32.9280 C   0  0  0  0  0  0  0  0  0  0  0  0
   -6.0590   19.6530  -32.6580 C   0  0  0  0  0  0  0  0  0  0  0  0
   -7.0720   20.5460  -32.9920 C   0  0  0  0  0  0  0  0  0  0  0  0
   -8.3380   20.1180  -32.5770 C   0  0  0  0  0  0  0  0  0  0  0  0
   -8.3230   18.9020  -31.9070 C   0  0  0  0  0  0  0  0  0  0  0  0
   -6.7350   18.3600  -31.8260 S   0  0  0  0  0  0  0  0  0  0  0  0
    0.1607   23.3711  -28.2719 H   0  0  0  0  0  0  0  0  0  0  0  0
   -0.7089   23.0251  -29.8051 H   0  0  0  0  0  0  0  0  0  0  0  0
    0.7061   24.1317  -29.8051 H   0  0  0  0  0  0  0  0  0  0  0  0
    0.3107   27.0491  -28.0496 H   0  0  0  0  0  0  0  0  0  0  0  0
   -0.0834   28.1571  -25.8518 H   0  0  0  0  0  0  0  0  0  0  0  0
   -1.8098   27.2652  -24.2907 H   0  0  0  0  0  0  0  0  0  0  0  0
   -3.1347   25.2505  -24.9123 H   0  0  0  0  0  0  0  0  0  0  0  0
   -2.5252   22.8976  -26.7635 H   0  0  0  0  0  0  0  0  0  0  0  0
   -4.0084   23.9202  -26.7691 H   0  0  0  0  0  0  0  0  0  0  0  0
   -3.1580   24.5140  -29.2220 H   0  0  0  0  0  0  0  0  0  0  0  0
   -2.6366   23.3131  -31.1666 H   0  0  0  0  0  0  0  0  0  0  0  0
   -2.1050   21.5877  -31.0452 H   0  0  0  0  0  0  0  0  0  0  0  0
   -6.2579   21.8810  -31.3531 H   0  0  0  0  0  0  0  0  0  0  0  0
   -5.4526   21.6454  -29.7593 H   0  0  0  0  0  0  0  0  0  0  0  0
   -7.4286   23.8426  -29.3473 H   0  0  0  0  0  0  0  0  0  0  0  0
   -6.7736   26.4676  -29.3593 H   0  0  0  0  0  0  0  0  0  0  0  0
   -4.4335   26.6600  -30.6443 H   0  0  0  0  0  0  0  0  0  0  0  0
   -4.3835   19.5443  -33.9696 H   0  0  0  0  0  0  0  0  0  0  0  0
   -4.0271   19.1856  -32.2388 H   0  0  0  0  0  0  0  0  0  0  0  0
   -6.8960   21.4909  -33.5270 H   0  0  0  0  0  0  0  0  0  0  0  0
   -9.2582   20.6909  -32.7639 H   0  0  0  0  0  0  0  0  0  0  0  0
   -9.2019   18.3817  -31.4985 H   0  0  0  0  0  0  0  0  0  0  0  0
  1  2  1  0
  2  3  1  0
  3  4  2  0
  4  5  1  0
  5  6  2  0
  6  7  1  0
  7  8  2  0
  8  9  1  0
  9 10  1  0
 10 11  1  0
 11 12  2  0
 11 13  1  0
 13 14  1  0
 14 15  1  0
 15 16  1  0
 16 17  2  0
 17 18  1  0
 18 19  2  0
 19 20  1  0
 14 21  1  0
 21 22  2  0
 21 23  1  0
 23 24  1  0
 24 25  2  0
 25 26  1  0
 26 27  2  0
 27 28  1  0
  8  3  1  0
 20 16  1  0
 28 24  1  0
  1 29  1  0
  1 30  1  0
  1 31  1  0
  4 32  1  0
  5 33  1  0
  6 34  1  0
  7 35  1  0
  9 36  1  0
  9 37  1  0
 10 38  1  0
 13 39  1  0
 13 40  1  0
 15 41  1  0
 15 42  1  0
 17 43  1  0
 18 44  1  0
 19 45  1  0
 23 46  1  0
 23 47  1  0
 25 48  1  0
 26 49  1  0
 27 50  1  0
M  END
>  <UniqueID>  (39) 
37

>  <SMILES>  (39) 
COc1ccccc1CNC(=O)CN(Cc1ccco1)C(=O)Cc1cccs1

>  <Energy>  (39) 
92.2826451633147

>  <Genealogy>  (39) 
COc1ccccc1CNC(=O)CN(Cc1ccco1)C(=O)Cc1cccs1 (3D coordinates assigned)
COc1ccccc1CNC(=O)CN(Cc1ccco1)C(=O)Cc1cccs1 (optimized conformer: 92.2826451633147 kcal/mol)

>  <smiles>  (39) 
COc1ccccc1CNC(=O)CN(Cc1ccco1)C(=O)Cc1cccs1

>  <score_type>  (39) 
oracle

>  <origin>  (39) 
adg

>  <m_score__min__energy>  (39) 
-9.3599999999999994

>  <m_primary>  (39) 
energy

$$$$
39:0
     RDKit          3D

 35 37  0  0  0  0  0  0  0  0999 V2000
   -6.5970   24.3510  -29.7840 C   0  0  0  0  0  0  0  0  0  0  0  0
   -6.6100   24.1590  -31.5930 S   0  0  0  0  0  0  0  0  0  0  0  0
   -5.2020   23.0410  -31.5980 C   0  0  0  0  0  0  0  0  0  0  0  0
   -3.9170   23.2620  -31.0930 C   0  0  0  0  0  0  0  0  0  0  0  0
   -3.4740   24.5140  -30.4280 C   0  0  0  0  0  0  0  0  0  0  0  0
   -3.8690   25.6380  -30.8310 O   0  0  0  0  0  0  0  0  0  0  0  0
   -2.6120   24.4680  -29.3400 O   0  0  0  0  0  0  0  0  0  0  0  0
   -3.1440   22.1510  -31.2930 N   0  0  0  0  0  0  0  0  0  0  0  0
   -1.7510   21.9360  -30.8720 C   0  0  0  0  0  0  0  0  0  0  0  0
   -1.6880   21.3540  -29.4820 C   0  0  0  0  0  0  0  0  0  0  0  0
   -1.1590   20.0710  -29.2740 C   0  0  0  0  0  0  0  0  0  0  0  0
   -1.0940   19.5540  -27.9790 C   0  0  0  0  0  0  0  0  0  0  0  0
   -1.5450   20.3190  -26.9050 C   0  0  0  0  0  0  0  0  0  0  0  0
   -2.0510   21.5990  -27.1410 C   0  0  0  0  0  0  0  0  0  0  0  0
   -2.1070   22.0910  -28.4100 N   0  0  0  0  0  0  0  0  0  0  0  0
   -3.9450   21.2450  -31.9080 C   0  0  0  0  0  0  0  0  0  0  0  0
   -3.6390   19.9340  -32.2990 C   0  0  0  0  0  0  0  0  0  0  0  0
   -4.6470   19.1700  -32.9130 C   0  0  0  0  0  0  0  0  0  0  0  0
   -5.9310   19.7160  -33.1210 C   0  0  0  0  0  0  0  0  0  0  0  0
   -6.2180   21.0290  -32.7150 C   0  0  0  0  0  0  0  0  0  0  0  0
   -5.1990   21.7640  -32.1100 C   0  0  0  0  0  0  0  0  0  0  0  0
   -6.6640   23.3608  -29.3097 H   0  0  0  0  0  0  0  0  0  0  0  0
   -5.6635   24.8435  -29.4742 H   0  0  0  0  0  0  0  0  0  0  0  0
   -7.4556   24.9648  -29.4742 H   0  0  0  0  0  0  0  0  0  0  0  0
   -1.2663   21.2420  -31.5745 H   0  0  0  0  0  0  0  0  0  0  0  0
   -1.2331   22.9065  -30.8684 H   0  0  0  0  0  0  0  0  0  0  0  0
   -0.7978   19.4764  -30.1261 H   0  0  0  0  0  0  0  0  0  0  0  0
   -0.6882   18.5462  -27.8068 H   0  0  0  0  0  0  0  0  0  0  0  0
   -1.5028   19.9185  -25.8814 H   0  0  0  0  0  0  0  0  0  0  0  0
   -2.4056   22.2120  -26.2993 H   0  0  0  0  0  0  0  0  0  0  0  0
   -2.4830   23.0560  -28.5500 H   0  0  0  0  0  0  0  0  0  0  0  0
   -2.6365   19.5140  -32.1299 H   0  0  0  0  0  0  0  0  0  0  0  0
   -4.4330   18.1397  -33.2333 H   0  0  0  0  0  0  0  0  0  0  0  0
   -6.7116   19.1098  -33.6039 H   0  0  0  0  0  0  0  0  0  0  0  0
   -7.2162   21.4646  -32.8694 H   0  0  0  0  0  0  0  0  0  0  0  0
  1  2  1  0
  2  3  1  0
  3  4  2  0
  4  5  1  0
  5  6  2  0
  5  7  1  0
  4  8  1  0
  8  9  1  0
  9 10  1  0
 10 11  2  0
 11 12  1  0
 12 13  2  0
 13 14  1  0
 14 15  2  0
  8 16  1  0
 16 17  2  0
 17 18  1  0
 18 19  2  0
 19 20  1  0
 20 21  2  0
 21  3  1  0
 15 10  1  0
 21 16  1  0
  1 22  1  0
  1 23  1  0
  1 24  1  0
  9 25  1  0
  9 26  1  0
 11 27  1  0
 12 28  1  0
 13 29  1  0
 14 30  1  0
 15 31  1  0
 17 32  1  0
 18 33  1  0
 19 34  1  0
 20 35  1  0
M  CHG  2   7  -1  15   1
M  END
>  <UniqueID>  (40) 
38

>  <SMILES>  (40) 
CSc1c(C(=O)[O-])n(Cc2cccc[nH+]2)c2ccccc12

>  <Energy>  (40) 
70.08000828802257

>  <Genealogy>  (40) 
CSc1c(C(=O)[O-])n(Cc2cccc[nH+]2)c2ccccc12 (protonated)
CSc1c(C(=O)[O-])n(Cc2cccc[nH+]2)c2ccccc12 (3D coordinates assigned)
CSc1c(C(=O)[O-])n(Cc2cccc[nH+]2)c2ccccc12 (optimized conformer: 70.08000828802257 kcal/mol)

>  <smiles>  (40) 
CSc1c(C(=O)O)n(Cc2ccccn2)c2ccccc12

>  <score_type>  (40) 
oracle

>  <origin>  (40) 
adg

>  <m_score__min__energy>  (40) 
-7.8499999999999996

>  <m_primary>  (40) 
energy

$$$$
40:0
     RDKit          3D

 53 56  0  0  0  0  0  0  0  0999 V2000
   -3.9310   25.0200  -30.7230 O   0  0  0  0  0  0  0  0  0  0  0  0
   -3.5530   23.8210  -30.6090 C   0  0  0  0  0  0  0  0  0  0  0  0
   -4.2560   22.7890  -31.3170 N   0  0  0  0  0  0  0  0  0  0  0  0
   -5.3240   23.1140  -32.2640 C   0  0  0  0  0  0  0  0  0  0  0  0
   -6.6850   23.1930  -31.5470 C   0  0  0  0  0  0  0  0  0  0  0  0
   -7.5090   21.8840  -31.5690 C   0  0  1  0  0  0  0  0  0  0  0  0
   -9.0320   22.1340  -31.4410 C   0  0  0  0  0  0  0  0  0  0  0  0
   -9.8650   20.9820  -32.0300 C   0  0  0  0  0  0  0  0  0  0  0  0
   -9.1180   19.6490  -31.9170 C   0  0  0  0  0  0  0  0  0  0  0  0
   -7.8440   19.6500  -32.6880 N   0  0  0  0  0  0  0  0  0  0  0  0
   -6.9030   18.6310  -32.1750 C   0  0  0  0  0  0  0  0  0  0  0  0
   -5.5330   18.8120  -32.7780 C   0  0  0  0  0  0  0  0  0  0  0  0
   -5.1840   18.1540  -33.9710 C   0  0  0  0  0  0  0  0  0  0  0  0
   -3.9180   18.3410  -34.5360 C   0  0  0  0  0  0  0  0  0  0  0  0
   -2.9960   19.1880  -33.9150 C   0  0  0  0  0  0  0  0  0  0  0  0
   -3.3490   19.8730  -32.7450 C   0  0  0  0  0  0  0  0  0  0  0  0
   -4.6080   19.6770  -32.1690 C   0  0  0  0  0  0  0  0  0  0  0  0
   -2.4260   20.7520  -32.1680 O   0  0  0  0  0  0  0  0  0  0  0  0
   -1.2610   21.1710  -32.8810 C   0  0  0  0  0  0  0  0  0  0  0  0
   -0.6830   20.0020  -33.6890 C   0  0  0  0  0  0  0  0  0  0  0  0
   -1.7150   19.3650  -34.4470 O   0  0  0  0  0  0  0  0  0  0  0  0
   -7.1980   20.9880  -32.7880 C   0  0  0  0  0  0  0  0  0  0  0  0
   -2.3980   23.5120  -29.7360 C   0  0  0  0  0  0  0  0  0  0  0  0
   -1.7950   22.2440  -29.6280 C   0  0  0  0  0  0  0  0  0  0  0  0
   -0.7200   22.2110  -28.7510 C   0  0  0  0  0  0  0  0  0  0  0  0
   -0.5130   23.7500  -28.1150 S   0  0  0  0  0  0  0  0  0  0  0  0
   -1.7810   24.4770  -28.9420 C   0  0  0  0  0  0  0  0  0  0  0  0
   -4.0240   21.7880  -31.1360 H   0  0  0  0  0  0  0  0  0  0  0  0
   -5.1067   24.0848  -32.7334 H   0  0  0  0  0  0  0  0  0  0  0  0
   -5.3724   22.3225  -33.0264 H   0  0  0  0  0  0  0  0  0  0  0  0
   -6.5028   23.4646  -30.4967 H   0  0  0  0  0  0  0  0  0  0  0  0
   -7.2787   23.9408  -32.0931 H   0  0  0  0  0  0  0  0  0  0  0  0
   -7.1867   21.3315  -30.6741 H   0  0  0  0  0  0  0  0  0  0  0  0
   -9.2840   22.2441  -30.3759 H   0  0  0  0  0  0  0  0  0  0  0  0
   -9.2718   23.0461  -32.0072 H   0  0  0  0  0  0  0  0  0  0  0  0
  -10.8158   20.9089  -31.4816 H   0  0  0  0  0  0  0  0  0  0  0  0
  -10.0483   21.1913  -33.0942 H   0  0  0  0  0  0  0  0  0  0  0  0
   -8.8906   19.4592  -30.8576 H   0  0  0  0  0  0  0  0  0  0  0  0
   -9.7647   18.8635  -32.3351 H   0  0  0  0  0  0  0  0  0  0  0  0
   -6.8306   18.7257  -31.0815 H   0  0  0  0  0  0  0  0  0  0  0  0
   -7.2794   17.6347  -32.4502 H   0  0  0  0  0  0  0  0  0  0  0  0
   -5.9099   17.4892  -34.4621 H   0  0  0  0  0  0  0  0  0  0  0  0
   -3.6486   17.8221  -35.4678 H   0  0  0  0  0  0  0  0  0  0  0  0
   -4.8745   20.2001  -31.2388 H   0  0  0  0  0  0  0  0  0  0  0  0
   -1.5293   21.9885  -33.5664 H   0  0  0  0  0  0  0  0  0  0  0  0
   -0.5051   21.5166  -32.1604 H   0  0  0  0  0  0  0  0  0  0  0  0
    0.0893   20.3812  -34.3743 H   0  0  0  0  0  0  0  0  0  0  0  0
   -0.2442   19.2696  -32.9954 H   0  0  0  0  0  0  0  0  0  0  0  0
   -6.1088   20.8503  -32.8566 H   0  0  0  0  0  0  0  0  0  0  0  0
   -7.5980   21.4878  -33.6826 H   0  0  0  0  0  0  0  0  0  0  0  0
   -2.1433   21.3626  -30.1863 H   0  0  0  0  0  0  0  0  0  0  0  0
   -0.1087   21.3279  -28.5136 H   0  0  0  0  0  0  0  0  0  0  0  0
   -2.0745   25.5346  -28.8694 H   0  0  0  0  0  0  0  0  0  0  0  0
  1  2  2  0
  2  3  1  0
  3  4  1  0
  4  5  1  0
  5  6  1  0
  6  7  1  0
  7  8  1  0
  8  9  1  0
  9 10  1  0
 10 11  1  0
 11 12  1  0
 12 13  2  0
 13 14  1  0
 14 15  2  0
 15 16  1  0
 16 17  2  0
 16 18  1  0
 18 19  1  0
 19 20  1  0
 20 21  1  0
 10 22  1  0
  2 23  1  0
 23 24  1  0
 24 25  2  0
 25 26  1  0
 26 27  1  0
 22  6  1  0
 27 23  2  0
 17 12  1  0
 21 15  1  0
  3 28  1  0
  4 29  1  0
  4 30  1  0
  5 31  1  0
  5 32  1  0
  6 33  1  1
  7 34  1  0
  7 35  1  0
  8 36  1  0
  8 37  1  0
  9 38  1  0
  9 39  1  0
 11 40  1  0
 11 41  1  0
 13 42  1  0
 14 43  1  0
 17 44  1  0
 19 45  1  0
 19 46  1  0
 20 47  1  0
 20 48  1  0
 22 49  1  0
 22 50  1  0
 24 51  1  0
 25 52  1  0
 27 53  1  0
M  END
>  <UniqueID>  (41) 
39

>  <SMILES>  (41) 
O=C(NCC[C@H]1CCCN(Cc2ccc3c(c2)OCCO3)C1)c1ccsc1

>  <Energy>  (41) 
87.66773530406286

>  <Genealogy>  (41) 
O=C(NCC[C@H]1CCCN(Cc2ccc3c(c2)OCCO3)C1)c1ccsc1 (chirality)
O=C(NCC[C@H]1CCCN(Cc2ccc3c(c2)OCCO3)C1)c1ccsc1 (3D coordinates assigned)
O=C(NCC[C@H]1CCCN(Cc2ccc3c(c2)OCCO3)C1)c1ccsc1 (nonaromatic ring conformer: 87.66773530406286 kcal/mol)

>  <smiles>  (41) 
O=C(NCCC1CCCN(Cc2ccc3c(c2)OCCO3)C1)c1ccsc1

>  <score_type>  (41) 
oracle

>  <origin>  (41) 
adg

>  <m_score__min__energy>  (41) 
-9.0600000000000005

>  <m_primary>  (41) 
energy

$$$$
41:0
     RDKit          3D

 47 48  0  0  0  0  0  0  0  0999 V2000
   -8.7400   19.2020  -31.6800 C   0  0  0  0  0  0  0  0  0  0  0  0
   -8.7010   20.7220  -31.8950 C   0  0  0  0  0  0  0  0  0  0  0  0
   -7.4160   21.2130  -32.4410 N   0  0  0  0  0  0  0  0  0  0  0  0
   -6.7410   20.2270  -33.3170 C   0  0  0  0  0  0  0  0  0  0  0  0
   -5.4370   19.7840  -32.6700 C   0  0  0  0  0  0  0  0  0  0  0  0
   -6.5310   21.7920  -31.4080 C   0  0  0  0  0  0  0  0  0  0  0  0
   -6.7610   23.3010  -31.2790 C   0  0  0  0  0  0  0  0  0  0  0  0
   -5.6070   24.0240  -31.7050 O   0  0  0  0  0  0  0  0  0  0  0  0
   -4.6000   24.4530  -30.8310 C   0  0  0  0  0  0  0  0  0  0  0  0
   -4.2320   25.6610  -30.8300 O   0  0  0  0  0  0  0  0  0  0  0  0
   -4.0240   23.4930  -29.8180 C   0  0  1  0  0  0  0  0  0  0  0  0
   -3.1270   22.4490  -30.4590 C   0  0  0  0  0  0  0  0  0  0  0  0
   -2.2510   21.6900  -29.6610 C   0  0  0  0  0  0  0  0  0  0  0  0
   -1.4030   20.7430  -30.2430 C   0  0  0  0  0  0  0  0  0  0  0  0
   -1.4120   20.5500  -31.6260 C   0  0  0  0  0  0  0  0  0  0  0  0
   -2.2700   21.3040  -32.4300 C   0  0  0  0  0  0  0  0  0  0  0  0
   -3.1230   22.2480  -31.8530 C   0  0  0  0  0  0  0  0  0  0  0  0
   -3.2850   24.1900  -28.6970 C   0  0  0  0  0  0  0  0  0  0  0  0
   -3.7890   24.2310  -27.3830 C   0  0  0  0  0  0  0  0  0  0  0  0
   -3.0860   24.9270  -26.3980 C   0  0  0  0  0  0  0  0  0  0  0  0
   -1.8990   25.5820  -26.7230 C   0  0  0  0  0  0  0  0  0  0  0  0
   -1.4300   25.5340  -28.0370 C   0  0  0  0  0  0  0  0  0  0  0  0
   -2.1280   24.8520  -28.9840 N   0  0  0  0  0  0  0  0  0  0  0  0
   -8.7456   18.9842  -30.6018 H   0  0  0  0  0  0  0  0  0  0  0  0
   -9.6490   18.7895  -32.1421 H   0  0  0  0  0  0  0  0  0  0  0  0
   -7.8533   18.7434  -32.1421 H   0  0  0  0  0  0  0  0  0  0  0  0
   -9.5031   20.9941  -32.5968 H   0  0  0  0  0  0  0  0  0  0  0  0
   -8.8304   21.1897  -30.9078 H   0  0  0  0  0  0  0  0  0  0  0  0
   -7.3951   19.3541  -33.4590 H   0  0  0  0  0  0  0  0  0  0  0  0
   -6.5285   20.6880  -34.2929 H   0  0  0  0  0  0  0  0  0  0  0  0
   -5.5403   19.8191  -31.5754 H   0  0  0  0  0  0  0  0  0  0  0  0
   -5.2029   18.7559  -32.9834 H   0  0  0  0  0  0  0  0  0  0  0  0
   -4.6251   20.4567  -32.9834 H   0  0  0  0  0  0  0  0  0  0  0  0
   -6.7419   21.3110  -30.4415 H   0  0  0  0  0  0  0  0  0  0  0  0
   -5.4852   21.6183  -31.7017 H   0  0  0  0  0  0  0  0  0  0  0  0
   -7.6194   23.5903  -31.9030 H   0  0  0  0  0  0  0  0  0  0  0  0
   -6.9593   23.5402  -30.2238 H   0  0  0  0  0  0  0  0  0  0  0  0
   -4.8941   22.9830  -29.3789 H   0  0  0  0  0  0  0  0  0  0  0  0
   -2.2333   21.8428  -28.5718 H   0  0  0  0  0  0  0  0  0  0  0  0
   -0.7274   20.1488  -29.6102 H   0  0  0  0  0  0  0  0  0  0  0  0
   -0.7438   19.8046  -32.0820 H   0  0  0  0  0  0  0  0  0  0  0  0
   -2.2740   21.1542  -33.5197 H   0  0  0  0  0  0  0  0  0  0  0  0
   -3.7962   22.8384  -32.4919 H   0  0  0  0  0  0  0  0  0  0  0  0
   -4.7299   23.7183  -27.1343 H   0  0  0  0  0  0  0  0  0  0  0  0
   -3.4681   24.9586  -25.3670 H   0  0  0  0  0  0  0  0  0  0  0  0
   -1.3380   26.1308  -25.9523 H   0  0  0  0  0  0  0  0  0  0  0  0
   -0.4955   26.0480  -28.3064 H   0  0  0  0  0  0  0  0  0  0  0  0
  1  2  1  0
  2  3  1  0
  3  4  1  0
  4  5  1  0
  3  6  1  0
  6  7  1  0
  7  8  1  0
  8  9  1  0
  9 10  2  0
  9 11  1  0
 11 12  1  0
 12 13  2  0
 13 14  1  0
 14 15  2  0
 15 16  1  0
 16 17  2  0
 11 18  1  0
 18 19  2  0
 19 20  1  0
 20 21  2  0
 21 22  1  0
 22 23  2  0
 17 12  1  0
 23 18  1  0
  1 24  1  0
  1 25  1  0
  1 26  1  0
  2 27  1  0
  2 28  1  0
  4 29  1  0
  4 30  1  0
  5 31  1  0
  5 32  1  0
  5 33  1  0
  6 34  1  0
  6 35  1  0
  7 36  1  0
  7 37  1  0
 11 38  1  1
 13 39  1  0
 14 40  1  0
 15 41  1  0
 16 42  1  0
 17 43  1  0
 19 44  1  0
 20 45  1  0
 21 46  1  0
 22 47  1  0
M  END
>  <UniqueID>  (42) 
40

>  <SMILES>  (42) 
CCN(CC)CCOC(=O)[C@@H](c1ccccc1)c1ccccn1

>  <Energy>  (42) 
44.752698592717195

>  <Genealogy>  (42) 
CCN(CC)CCOC(=O)[C@@H](c1ccccc1)c1ccccn1 (chirality)
CCN(CC)CCOC(=O)[C@@H](c1ccccc1)c1ccccn1 (3D coordinates assigned)
CCN(CC)CCOC(=O)[C@@H](c1ccccc1)c1ccccn1 (optimized conformer: 44.752698592717195 kcal/mol)

>  <smiles>  (42) 
CCN(CC)CCOC(=O)C(c1ccccc1)c1ccccn1

>  <score_type>  (42) 
oracle

>  <origin>  (42) 
adg

>  <m_score__min__energy>  (42) 
-7.3499999999999996

>  <m_primary>  (42) 
energy

$$$$
42:0
     RDKit          3D

 48 51  0  0  0  0  0  0  0  0999 V2000
   -2.4800   19.6500  -27.0950 C   0  0  0  0  0  0  0  0  0  0  0  0
   -1.5470   20.0270  -28.2360 C   0  0  0  0  0  0  0  0  0  0  0  0
   -1.9660   21.2650  -28.8060 O   0  0  0  0  0  0  0  0  0  0  0  0
   -1.7480   21.5890  -30.1490 C   0  0  0  0  0  0  0  0  0  0  0  0
   -1.2880   22.7230  -30.4670 O   0  0  0  0  0  0  0  0  0  0  0  0
   -2.0770   20.5790  -31.2170 C   0  0  2  0  0  0  0  0  0  0  0  0
   -1.4840   21.0030  -32.5930 C   0  0  0  0  0  0  0  0  0  0  0  0
   -2.4700   20.8070  -33.7490 C   0  0  0  0  0  0  0  0  0  0  0  0
   -3.7680   21.5710  -33.4640 C   0  0  0  0  0  0  0  0  0  0  0  0
   -4.3010   21.2470  -32.1330 N   0  0  0  0  0  0  0  0  0  0  0  0
   -5.3440   22.0710  -31.5940 C   0  0  0  0  0  0  0  0  0  0  0  0
   -5.0050   23.2530  -31.0010 N   0  0  0  0  0  0  0  0  0  0  0  0
   -5.9430   24.1710  -30.6260 C   0  0  0  0  0  0  0  0  0  0  0  0
   -7.2630   23.9440  -30.8730 N   0  0  0  0  0  0  0  0  0  0  0  0
   -7.6270   22.7740  -31.4510 C   0  0  0  0  0  0  0  0  0  0  0  0
   -9.1860   22.2910  -31.8280 S   0  0  0  0  0  0  0  0  0  0  0  0
   -8.7240   20.7770  -32.4210 C   0  0  0  0  0  0  0  0  0  0  0  0
   -7.3370   20.6330  -32.3110 C   0  0  0  0  0  0  0  0  0  0  0  0
   -6.6850   19.3300  -32.5520 C   0  0  0  0  0  0  0  0  0  0  0  0
   -6.1210   19.0420  -33.8060 C   0  0  0  0  0  0  0  0  0  0  0  0
   -5.5300   17.7940  -34.0430 C   0  0  0  0  0  0  0  0  0  0  0  0
   -5.5200   16.8220  -33.0370 C   0  0  0  0  0  0  0  0  0  0  0  0
   -6.1060   17.0930  -31.7960 C   0  0  0  0  0  0  0  0  0  0  0  0
   -6.6920   18.3410  -31.5550 C   0  0  0  0  0  0  0  0  0  0  0  0
   -6.7120   21.7920  -31.7910 C   0  0  0  0  0  0  0  0  0  0  0  0
   -3.5980   20.2990  -31.2580 C   0  0  0  0  0  0  0  0  0  0  0  0
   -1.9837   19.8505  -26.1340 H   0  0  0  0  0  0  0  0  0  0  0  0
   -3.4019   20.2462  -27.1630 H   0  0  0  0  0  0  0  0  0  0  0  0
   -2.7290   18.5807  -27.1630 H   0  0  0  0  0  0  0  0  0  0  0  0
   -0.5213   20.1291  -27.8519 H   0  0  0  0  0  0  0  0  0  0  0  0
   -1.5749   19.2418  -29.0059 H   0  0  0  0  0  0  0  0  0  0  0  0
   -1.5952   19.6229  -30.9646 H   0  0  0  0  0  0  0  0  0  0  0  0
   -1.2067   22.0663  -32.5438 H   0  0  0  0  0  0  0  0  0  0  0  0
   -0.6112   20.3629  -32.7894 H   0  0  0  0  0  0  0  0  0  0  0  0
   -2.0210   21.1853  -34.6792 H   0  0  0  0  0  0  0  0  0  0  0  0
   -2.6963   19.7356  -33.8537 H   0  0  0  0  0  0  0  0  0  0  0  0
   -3.5659   22.6511  -33.5152 H   0  0  0  0  0  0  0  0  0  0  0  0
   -4.5146   21.2769  -34.2164 H   0  0  0  0  0  0  0  0  0  0  0  0
   -5.6315   25.0979  -30.1222 H   0  0  0  0  0  0  0  0  0  0  0  0
   -7.9810   24.6590  -30.6150 H   0  0  0  0  0  0  0  0  0  0  0  0
   -9.4094   20.0205  -32.8308 H   0  0  0  0  0  0  0  0  0  0  0  0
   -6.1435   19.7986  -34.6042 H   0  0  0  0  0  0  0  0  0  0  0  0
   -5.0737   17.5784  -35.0204 H   0  0  0  0  0  0  0  0  0  0  0  0
   -5.0512   15.8442  -33.2219 H   0  0  0  0  0  0  0  0  0  0  0  0
   -6.1062   16.3246  -31.0089 H   0  0  0  0  0  0  0  0  0  0  0  0
   -7.1597   18.5479  -30.5811 H   0  0  0  0  0  0  0  0  0  0  0  0
   -4.0041   20.3854  -30.2394 H   0  0  0  0  0  0  0  0  0  0  0  0
   -3.7497   19.2855  -31.6579 H   0  0  0  0  0  0  0  0  0  0  0  0
  1  2  1  0
  2  3  1  0
  3  4  1  0
  4  5  2  0
  4  6  1  0
  6  7  1  0
  7  8  1  0
  8  9  1  0
  9 10  1  0
 10 11  1  0
 11 12  2  0
 12 13  1  0
 13 14  2  0
 14 15  1  0
 15 16  1  0
 16 17  1  0
 17 18  2  0
 18 19  1  0
 19 20  2  0
 20 21  1  0
 21 22  2  0
 22 23  1  0
 23 24  2  0
 18 25  1  0
 10 26  1  0
 26  6  1  0
 25 11  1  0
 25 15  2  0
 24 19  1  0
  1 27  1  0
  1 28  1  0
  1 29  1  0
  2 30  1  0
  2 31  1  0
  6 32  1  1
  7 33  1  0
  7 34  1  0
  8 35  1  0
  8 36  1  0
  9 37  1  0
  9 38  1  0
 13 39  1  0
 14 40  1  0
 17 41  1  0
 20 42  1  0
 21 43  1  0
 22 44  1  0
 23 45  1  0
 24 46  1  0
 26 47  1  0
 26 48  1  0
M  CHG  1  14   1
M  END
>  <UniqueID>  (43) 
41

>  <SMILES>  (43) 
CCOC(=O)[C@@H]1CCCN(c2nc[nH+]c3scc(-c4ccccc4)c23)C1

>  <Energy>  (43) 
93.27177094128827

>  <Genealogy>  (43) 
CCOC(=O)C1CCCN(c2nc[nH+]c3scc(-c4ccccc4)c23)C1 (protonated)
CCOC(=O)[C@@H]1CCCN(c2nc[nH+]c3scc(-c4ccccc4)c23)C1 (chirality)
CCOC(=O)[C@@H]1CCCN(c2nc[nH+]c3scc(-c4ccccc4)c23)C1 (3D coordinates assigned)
CCOC(=O)[C@@H]1CCCN(c2nc[nH+]c3scc(-c4ccccc4)c23)C1 (nonaromatic ring conformer: 93.27177094128827 kcal/mol)

>  <smiles>  (43) 
CCOC(=O)C1CCCN(c2ncnc3scc(-c4ccccc4)c23)C1

>  <score_type>  (43) 
oracle

>  <origin>  (43) 
adg

>  <m_score__min__energy>  (43) 
-7.5099999999999998

>  <m_primary>  (43) 
energy

$$$$
43:0
     RDKit          3D

 44 44  0  0  0  0  0  0  0  0999 V2000
   -2.7390   19.0300  -26.3410 C   0  0  0  0  0  0  0  0  0  0  0  0
   -1.9680   19.7660  -27.1460 C   0  0  0  0  0  0  0  0  0  0  0  0
   -1.6090   21.1870  -26.8150 C   0  0  0  0  0  0  0  0  0  0  0  0
   -2.1890   22.1350  -27.8310 C   0  0  0  0  0  0  0  0  0  0  0  0
   -3.2410   21.7260  -28.6610 C   0  0  0  0  0  0  0  0  0  0  0  0
   -3.7970   22.6140  -29.5840 C   0  0  0  0  0  0  0  0  0  0  0  0
   -3.3100   23.9300  -29.6900 C   0  0  0  0  0  0  0  0  0  0  0  0
   -3.8360   24.8550  -30.6080 O   0  0  0  0  0  0  0  0  0  0  0  0
   -5.1870   25.3150  -30.6470 C   0  0  0  0  0  0  0  0  0  0  0  0
   -6.1490   24.2420  -30.1240 C   0  0  0  0  0  0  0  0  0  0  0  0
   -6.5060   23.3000  -31.2100 N   0  0  0  0  0  0  0  0  0  0  0  0
   -7.9360   23.3970  -31.5930 C   0  0  0  0  0  0  0  0  0  0  0  0
   -8.6720   22.0500  -31.6150 C   0  0  0  0  0  0  0  0  0  0  0  0
   -5.5640   23.3920  -32.3480 C   0  0  0  0  0  0  0  0  0  0  0  0
   -4.9310   22.0390  -32.6710 C   0  0  0  0  0  0  0  0  0  0  0  0
   -2.2680   24.3520  -28.8490 C   0  0  0  0  0  0  0  0  0  0  0  0
   -1.8090   25.6740  -28.9710 O   0  0  0  0  0  0  0  0  0  0  0  0
   -0.8790   26.2910  -28.0870 C   0  0  0  0  0  0  0  0  0  0  0  0
   -1.7140   23.4510  -27.9190 C   0  0  0  0  0  0  0  0  0  0  0  0
   -2.9838   17.9923  -26.6116 H   0  0  0  0  0  0  0  0  0  0  0  0
   -3.1291   19.4616  -25.4074 H   0  0  0  0  0  0  0  0  0  0  0  0
   -1.5857   19.3200  -28.0760 H   0  0  0  0  0  0  0  0  0  0  0  0
   -2.0063   21.4371  -25.8202 H   0  0  0  0  0  0  0  0  0  0  0  0
   -0.5135   21.2857  -26.8254 H   0  0  0  0  0  0  0  0  0  0  0  0
   -3.6309   20.7002  -28.5851 H   0  0  0  0  0  0  0  0  0  0  0  0
   -4.6213   22.2826  -30.2327 H   0  0  0  0  0  0  0  0  0  0  0  0
   -5.2784   26.2154  -30.0218 H   0  0  0  0  0  0  0  0  0  0  0  0
   -5.4496   25.5418  -31.6908 H   0  0  0  0  0  0  0  0  0  0  0  0
   -5.6647   23.6873  -29.3068 H   0  0  0  0  0  0  0  0  0  0  0  0
   -7.0643   24.7294  -29.7571 H   0  0  0  0  0  0  0  0  0  0  0  0
   -8.4427   24.0557  -30.8723 H   0  0  0  0  0  0  0  0  0  0  0  0
   -7.9632   23.7900  -32.6200 H   0  0  0  0  0  0  0  0  0  0  0  0
   -8.8549   21.7152  -30.5833 H   0  0  0  0  0  0  0  0  0  0  0  0
   -9.6324   22.1654  -32.1387 H   0  0  0  0  0  0  0  0  0  0  0  0
   -8.0561   21.3041  -32.1387 H   0  0  0  0  0  0  0  0  0  0  0  0
   -6.1092   23.7506  -33.2335 H   0  0  0  0  0  0  0  0  0  0  0  0
   -4.7592   24.0887  -32.0705 H   0  0  0  0  0  0  0  0  0  0  0  0
   -4.6862   21.5159  -31.7348 H   0  0  0  0  0  0  0  0  0  0  0  0
   -5.6391   21.4330  -33.2553 H   0  0  0  0  0  0  0  0  0  0  0  0
   -4.0121   22.1943  -33.2553 H   0  0  0  0  0  0  0  0  0  0  0  0
   -1.1761   26.0939  -27.0464 H   0  0  0  0  0  0  0  0  0  0  0  0
    0.1253   25.8795  -28.2658 H   0  0  0  0  0  0  0  0  0  0  0  0
   -0.8677   27.3763  -28.2658 H   0  0  0  0  0  0  0  0  0  0  0  0
   -0.9015   23.7828  -27.2559 H   0  0  0  0  0  0  0  0  0  0  0  0
  1  2  2  0
  2  3  1  0
  3  4  1  0
  4  5  2  0
  5  6  1  0
  6  7  2  0
  7  8  1  0
  8  9  1  0
  9 10  1  0
 10 11  1  0
 11 12  1  0
 12 13  1  0
 11 14  1  0
 14 15  1  0
  7 16  1  0
 16 17  1  0
 17 18  1  0
 16 19  2  0
 19  4  1  0
  1 20  1  0
  1 21  1  0
  2 22  1  0
  3 23  1  0
  3 24  1  0
  5 25  1  0
  6 26  1  0
  9 27  1  0
  9 28  1  0
 10 29  1  0
 10 30  1  0
 12 31  1  0
 12 32  1  0
 13 33  1  0
 13 34  1  0
 13 35  1  0
 14 36  1  0
 14 37  1  0
 15 38  1  0
 15 39  1  0
 15 40  1  0
 18 41  1  0
 18 42  1  0
 18 43  1  0
 19 44  1  0
M  END
>  <UniqueID>  (44) 
42

>  <SMILES>  (44) 
C=CCc1ccc(OCCN(CC)CC)c(OC)c1

>  <Energy>  (44) 
37.461664946042845

>  <Genealogy>  (44) 
C=CCc1ccc(OCCN(CC)CC)c(OC)c1 (3D coordinates assigned)
C=CCc1ccc(OCCN(CC)CC)c(OC)c1 (optimized conformer: 37.461664946042845 kcal/mol)

>  <smiles>  (44) 
C=CCc1ccc(OCCN(CC)CC)c(OC)c1

>  <score_type>  (44) 
oracle

>  <origin>  (44) 
adg

>  <m_score__min__energy>  (44) 
-7.1799999999999997

>  <m_primary>  (44) 
energy

$$$$
44:0
     RDKit          3D

 63 65  0  0  0  0  0  0  0  0999 V2000
   -7.8470   19.3360  -32.5860 C   0  0  0  0  0  0  0  0  0  0  0  0
   -6.8020   18.4410  -33.1850 C   0  0  0  0  0  0  0  0  0  0  0  0
   -7.1320   17.2670  -33.5080 O   0  0  0  0  0  0  0  0  0  0  0  0
   -5.4040   18.9010  -33.4010 C   0  0  0  0  0  0  0  0  0  0  0  0
   -4.4700   18.1070  -34.0970 C   0  0  0  0  0  0  0  0  0  0  0  0
   -3.1590   18.5520  -34.2850 C   0  0  0  0  0  0  0  0  0  0  0  0
   -2.7580   19.7980  -33.7890 C   0  0  0  0  0  0  0  0  0  0  0  0
   -1.0910   20.3290  -33.9970 S   0  0  0  0  0  0  0  0  0  0  0  0
   -0.8240   20.5450  -35.4600 O   0  0  0  0  0  0  0  0  0  0  0  0
   -0.8700   21.6310  -33.2770 O   0  0  0  0  0  0  0  0  0  0  0  0
    0.0130   19.1300  -33.3910 N   0  0  0  0  0  0  0  0  0  0  0  0
   -0.6780   18.1160  -32.5900 C   0  0  0  0  0  0  0  0  0  0  0  0
   -0.8510   18.5860  -31.1260 C   0  0  0  0  0  0  0  0  0  0  0  0
   -0.4630   19.9960  -30.8700 N   0  0  0  0  0  0  0  0  0  0  0  0
   -1.6310   20.8670  -30.6120 C   0  0  0  0  0  0  0  0  0  0  0  0
   -1.1650   22.2700  -30.2010 C   0  0  0  0  0  0  0  0  0  0  0  0
   -0.3560   22.2630  -28.9510 N   0  0  0  0  0  0  0  0  0  0  0  0
   -1.1050   22.8590  -27.8200 C   0  0  0  0  0  0  0  0  0  0  0  0
   -1.1780   24.4100  -27.9020 C   0  0  1  0  0  0  0  0  0  0  0  0
   -0.3980   24.8780  -28.9750 O   0  0  0  0  0  0  0  0  0  0  0  0
   -2.6270   24.9240  -28.0480 C   0  0  0  0  0  0  0  0  0  0  0  0
   -2.9900   25.0450  -29.4250 O   0  0  0  0  0  0  0  0  0  0  0  0
   -4.1580   24.5320  -30.0150 C   0  0  0  0  0  0  0  0  0  0  0  0
   -4.1530   23.4180  -30.8760 C   0  0  0  0  0  0  0  0  0  0  0  0
   -5.3480   22.9560  -31.4380 C   0  0  0  0  0  0  0  0  0  0  0  0
   -6.5550   23.6000  -31.1490 C   0  0  0  0  0  0  0  0  0  0  0  0
   -8.1860   22.9660  -31.9180 Br  0  0  0  0  0  0  0  0  0  0  0  0
   -6.5670   24.7090  -30.2980 C   0  0  0  0  0  0  0  0  0  0  0  0
   -5.3730   25.1720  -29.7360 C   0  0  0  0  0  0  0  0  0  0  0  0
    0.1790   20.9230  -28.6050 C   0  0  0  0  0  0  0  0  0  0  0  0
    0.6200   20.1370  -29.8540 C   0  0  0  0  0  0  0  0  0  0  0  0
   -3.6770   20.5950  -33.0970 C   0  0  0  0  0  0  0  0  0  0  0  0
   -4.9890   20.1520  -32.9040 C   0  0  0  0  0  0  0  0  0  0  0  0
   -7.7879   19.2854  -31.4888 H   0  0  0  0  0  0  0  0  0  0  0  0
   -7.6753   20.3715  -32.9151 H   0  0  0  0  0  0  0  0  0  0  0  0
   -8.8438   19.0072  -32.9151 H   0  0  0  0  0  0  0  0  0  0  0  0
   -4.7760   17.1285  -34.4956 H   0  0  0  0  0  0  0  0  0  0  0  0
   -2.4386   17.9202  -34.8253 H   0  0  0  0  0  0  0  0  0  0  0  0
   -1.6700   17.9278  -33.0266 H   0  0  0  0  0  0  0  0  0  0  0  0
   -0.0738   17.1968  -32.5930 H   0  0  0  0  0  0  0  0  0  0  0  0
   -1.9100   18.4684  -30.8527 H   0  0  0  0  0  0  0  0  0  0  0  0
   -0.1727   17.9658  -30.5217 H   0  0  0  0  0  0  0  0  0  0  0  0
   -0.0570   20.3310  -31.7780 H   0  0  0  0  0  0  0  0  0  0  0  0
   -2.2393   20.9393  -31.5257 H   0  0  0  0  0  0  0  0  0  0  0  0
   -2.2286   20.4339  -29.7963 H   0  0  0  0  0  0  0  0  0  0  0  0
   -0.5539   22.6900  -31.0135 H   0  0  0  0  0  0  0  0  0  0  0  0
   -2.0630   22.8767  -30.0125 H   0  0  0  0  0  0  0  0  0  0  0  0
   -2.1291   22.4574  -27.8251 H   0  0  0  0  0  0  0  0  0  0  0  0
   -0.5718   22.5992  -26.8936 H   0  0  0  0  0  0  0  0  0  0  0  0
   -0.7810   24.8013  -26.9537 H   0  0  0  0  0  0  0  0  0  0  0  0
   -0.8810   24.6570  -29.8150 H   0  0  0  0  0  0  0  0  0  0  0  0
   -3.3111   24.2167  -27.5562 H   0  0  0  0  0  0  0  0  0  0  0  0
   -2.6964   25.9162  -27.5782 H   0  0  0  0  0  0  0  0  0  0  0  0
   -3.2058   22.9089  -31.1077 H   0  0  0  0  0  0  0  0  0  0  0  0
   -5.3380   22.0842  -32.1087 H   0  0  0  0  0  0  0  0  0  0  0  0
   -7.5155   25.2174  -30.0704 H   0  0  0  0  0  0  0  0  0  0  0  0
   -5.3877   26.0465  -29.0689 H   0  0  0  0  0  0  0  0  0  0  0  0
    1.0460   21.0479  -27.9396 H   0  0  0  0  0  0  0  0  0  0  0  0
   -0.6230   20.3543  -28.1116 H   0  0  0  0  0  0  0  0  0  0  0  0
    1.4680   20.6628  -30.3171 H   0  0  0  0  0  0  0  0  0  0  0  0
    0.8937   19.1240  -29.5240 H   0  0  0  0  0  0  0  0  0  0  0  0
   -3.3659   21.5739  -32.7034 H   0  0  0  0  0  0  0  0  0  0  0  0
   -5.7037   20.7862  -32.3590 H   0  0  0  0  0  0  0  0  0  0  0  0
  1  2  1  0
  2  3  2  0
  2  4  1  0
  4  5  2  0
  5  6  1  0
  6  7  2  0
  7  8  1  0
  8  9  2  0
  8 10  2  0
  8 11  1  0
 11 12  1  0
 12 13  1  0
 13 14  1  0
 14 15  1  0
 15 16  1  0
 16 17  1  0
 17 18  1  0
 18 19  1  0
 19 20  1  0
 19 21  1  0
 21 22  1  0
 22 23  1  0
 23 24  2  0
 24 25  1  0
 25 26  2  0
 26 27  1  0
 26 28  1  0
 28 29  2  0
 17 30  1  0
 30 31  1  0
  7 32  1  0
 32 33  2  0
 33  4  1  0
 31 14  1  0
 29 23  1  0
  1 34  1  0
  1 35  1  0
  1 36  1  0
  5 37  1  0
  6 38  1  0
 12 39  1  0
 12 40  1  0
 13 41  1  0
 13 42  1  0
 14 43  1  0
 15 44  1  0
 15 45  1  0
 16 46  1  0
 16 47  1  0
 18 48  1  0
 18 49  1  0
 19 50  1  1
 20 51  1  0
 21 52  1  0
 21 53  1  0
 24 54  1  0
 25 55  1  0
 28 56  1  0
 29 57  1  0
 30 58  1  0
 30 59  1  0
 31 60  1  0
 31 61  1  0
 32 62  1  0
 33 63  1  0
M  CHG  2  11  -1  14   1
M  END
>  <UniqueID>  (45) 
43

>  <SMILES>  (45) 
CC(=O)c1ccc(S(=O)(=O)[N-]CC[NH+]2CCN(C[C@@H](O)COc3ccc(Br)cc3)CC2)cc1

>  <Energy>  (45) 
82.32994841494549

>  <Genealogy>  (45) 
CC(=O)c1ccc(S(=O)(=O)[N-]CC[NH+]2CCN(CC(O)COc3ccc(Br)cc3)CC2)cc1 (protonated)
CC(=O)c1ccc(S(=O)(=O)[N-]CC[NH+]2CCN(C[C@@H](O)COc3ccc(Br)cc3)CC2)cc1 (chirality)
CC(=O)c1ccc(S(=O)(=O)[N-]CC[NH+]2CCN(C[C@@H](O)COc3ccc(Br)cc3)CC2)cc1 (3D coordinates assigned)
CC(=O)c1ccc(S(=O)(=O)[N-]CC[NH+]2CCN(C[C@@H](O)COc3ccc(Br)cc3)CC2)cc1 (nonaromatic ring conformer: 82.32994841494549 kcal/mol)

>  <smiles>  (45) 
CC(=O)c1ccc(S(=O)(=O)NCCN2CCN(CC(O)COc3ccc(Br)cc3)CC2)cc1

>  <score_type>  (45) 
oracle

>  <origin>  (45) 
adg

>  <m_score__min__energy>  (45) 
-9.8800000000000008

>  <m_primary>  (45) 
energy

$$$$
45:0
     RDKit          3D

 38 40  0  0  1  0  0  0  0  0999 V2000
   -3.5940   24.5480  -29.3480 C   0  0  0  0  0  0  0  0  0  0  0  0
   -3.8810   25.3300  -30.4630 O   0  0  0  0  0  0  0  0  0  0  0  0
   -5.2470   25.6300  -30.5320 C   0  0  0  0  0  0  0  0  0  0  0  0
   -5.9930   24.3930  -30.1140 C   0  0  0  0  0  0  0  0  0  0  0  0
   -5.9020   23.3120  -31.0750 N   0  0  0  0  0  0  0  0  0  0  0  0
   -4.8590   22.9830  -31.8550 C   0  0  0  0  0  0  0  0  0  0  0  0
   -5.1890   21.8690  -32.6430 C   0  0  0  0  0  0  0  0  0  0  0  0
   -6.4570   21.5590  -32.2970 C   0  0  0  0  0  0  0  0  0  0  0  0
   -7.3090   20.5880  -32.7110 C   0  0  0  0  0  0  0  0  0  0  0  0
   -6.9410   19.7640  -33.5870 N   0  0  0  0  0  0  0  0  0  0  0  0
   -6.2900   18.5510  -33.4850 C   0  0  0  0  0  0  0  0  0  0  0  0
   -5.6080   18.0750  -34.6160 C   0  0  0  0  0  0  0  0  0  0  0  0
   -4.9910   16.8460  -34.5230 C   0  0  0  0  0  0  0  0  0  0  0  0
   -5.0410   16.1030  -33.3570 C   0  0  0  0  0  0  0  0  0  0  0  0
   -5.7290   16.6300  -32.2820 C   0  0  0  0  0  0  0  0  0  0  0  0
   -6.3410   17.8270  -32.3410 N   0  0  0  0  0  0  0  0  0  0  0  0
   -8.5460   20.5080  -32.1870 N   0  0  0  0  0  0  0  0  0  0  0  0
   -9.4890   19.4720  -32.6130 C   0  0  0  0  0  0  0  0  0  0  0  0
   -8.9540   21.3810  -31.2490 C   0  0  0  0  0  0  0  0  0  0  0  0
   -8.1460   22.3580  -30.8080 N   0  0  0  0  0  0  0  0  0  0  0  0
   -6.8940   22.4420  -31.3370 C   0  0  0  0  0  0  0  0  0  0  0  0
   -3.8046   25.1220  -28.4336 H   0  0  0  0  0  0  0  0  0  0  0  0
   -4.2184   23.6426  -29.3646 H   0  0  0  0  0  0  0  0  0  0  0  0
   -2.5321   24.2614  -29.3646 H   0  0  0  0  0  0  0  0  0  0  0  0
   -5.4854   26.4619  -29.8530 H   0  0  0  0  0  0  0  0  0  0  0  0
   -5.5304   25.9326  -31.5509 H   0  0  0  0  0  0  0  0  0  0  0  0
   -5.5795   24.0436  -29.1564 H   0  0  0  0  0  0  0  0  0  0  0  0
   -7.0554   24.6668  -30.0338 H   0  0  0  0  0  0  0  0  0  0  0  0
   -3.8922   23.5074  -31.8735 H   0  0  0  0  0  0  0  0  0  0  0  0
   -4.5529   21.3594  -33.3817 H   0  0  0  0  0  0  0  0  0  0  0  0
   -5.5674   18.6629  -35.5448 H   0  0  0  0  0  0  0  0  0  0  0  0
   -4.4481   16.4481  -35.3930 H   0  0  0  0  0  0  0  0  0  0  0  0
   -4.5477   15.1222  -33.2884 H   0  0  0  0  0  0  0  0  0  0  0  0
   -5.7784   16.0526  -31.3470 H   0  0  0  0  0  0  0  0  0  0  0  0
   -9.9282   18.9894  -31.7274 H   0  0  0  0  0  0  0  0  0  0  0  0
  -10.2878   19.9287  -33.2158 H   0  0  0  0  0  0  0  0  0  0  0  0
   -8.9594   18.7196  -33.2158 H   0  0  0  0  0  0  0  0  0  0  0  0
   -9.9694   21.2928  -30.8352 H   0  0  0  0  0  0  0  0  0  0  0  0
  1  2  1  0
  2  3  1  0
  3  4  1  0
  4  5  1  0
  5  6  1  0
  6  7  2  0
  7  8  1  0
  8  9  1  0
  9 10  2  0
 10 11  1  0
 11 12  2  0
 12 13  1  0
 13 14  2  0
 14 15  1  0
 15 16  2  0
  9 17  1  0
 17 18  1  0
 17 19  1  0
 19 20  2  0
 20 21  1  0
 21  5  1  0
 21  8  2  0
 16 11  1  0
  1 22  1  0
  1 23  1  0
  1 24  1  0
  3 25  1  0
  3 26  1  0
  4 27  1  0
  4 28  1  0
  6 29  1  0
  7 30  1  0
 12 31  1  0
 13 32  1  0
 14 33  1  0
 15 34  1  0
 18 35  1  0
 18 36  1  0
 18 37  1  0
 19 38  1  0
M  END
>  <smiles>  (46) 
COCCn1ccc2c(=Nc3ccccn3)n(C)cnc21

>  <score_type>  (46) 
oracle

>  <origin>  (46) 
adg

>  <m_score__min__energy>  (46) 
-7.6299999999999999

>  <m_primary>  (46) 
energy

$$$$
46:0
     RDKit          3D

 21 21  0  0  0  0  0  0  0  0999 V2000
   -4.2840   20.4420  -32.7550 C   0  0  0  0  0  0  0  0  0  0  0  0
   -4.0240   21.9340  -32.9680 C   0  0  0  0  0  0  0  0  0  0  0  0
   -3.6680   22.6590  -31.6630 C   0  0  0  0  0  0  0  0  0  0  0  0
   -4.8480   23.4070  -31.0890 C   0  0  0  0  0  0  0  0  0  0  0  0
   -6.1300   22.8350  -31.1560 C   0  0  0  0  0  0  0  0  0  0  0  0
   -7.2390   23.5200  -30.6520 C   0  0  0  0  0  0  0  0  0  0  0  0
   -7.0800   24.7840  -30.0810 C   0  0  0  0  0  0  0  0  0  0  0  0
   -5.8120   25.3670  -30.0150 C   0  0  0  0  0  0  0  0  0  0  0  0
   -4.6970   24.6890  -30.5190 C   0  0  0  0  0  0  0  0  0  0  0  0
   -3.4470   25.2930  -30.4490 O   0  0  0  0  0  0  0  0  0  0  0  0
   -4.3215   20.2266  -31.6770 H   0  0  0  0  0  0  0  0  0  0  0  0
   -5.2435   20.1673  -33.2174 H   0  0  0  0  0  0  0  0  0  0  0  0
   -3.4739   19.8590  -33.2174 H   0  0  0  0  0  0  0  0  0  0  0  0
   -3.1893   22.0495  -33.6751 H   0  0  0  0  0  0  0  0  0  0  0  0
   -4.9491   22.3828  -33.3589 H   0  0  0  0  0  0  0  0  0  0  0  0
   -3.3262   21.9167  -30.9266 H   0  0  0  0  0  0  0  0  0  0  0  0
   -2.8786   23.3916  -31.8868 H   0  0  0  0  0  0  0  0  0  0  0  0
   -6.2615   21.8410  -31.6084 H   0  0  0  0  0  0  0  0  0  0  0  0
   -8.2381   23.0628  -30.7053 H   0  0  0  0  0  0  0  0  0  0  0  0
   -7.9534   25.3212  -29.6829 H   0  0  0  0  0  0  0  0  0  0  0  0
   -5.6899   26.3632  -29.5649 H   0  0  0  0  0  0  0  0  0  0  0  0
  1  2  1  0
  2  3  1  0
  3  4  1  0
  4  5  2  0
  5  6  1  0
  6  7  2  0
  7  8  1  0
  8  9  2  0
  9 10  1  0
  9  4  1  0
  1 11  1  0
  1 12  1  0
  1 13  1  0
  2 14  1  0
  2 15  1  0
  3 16  1  0
  3 17  1  0
  5 18  1  0
  6 19  1  0
  7 20  1  0
  8 21  1  0
M  CHG  1  10  -1
M  END
>  <UniqueID>  (47) 
44

>  <SMILES>  (47) 
CCCc1ccccc1[O-]

>  <Energy>  (47) 
15.108270091578559

>  <Genealogy>  (47) 
CCCc1ccccc1[O-] (protonated)
CCCc1ccccc1[O-] (3D coordinates assigned)
CCCc1ccccc1[O-] (optimized conformer: 15.108270091578559 kcal/mol)

>  <smiles>  (47) 
CCCc1ccccc1O

>  <score_type>  (47) 
oracle

>  <origin>  (47) 
adg

>  <m_score__min__energy>  (47) 
-7.6799999999999997

>  <m_primary>  (47) 
energy

$$$$
47:0
     RDKit          3D

 46 47  0  0  0  0  0  0  0  0999 V2000
  -10.4004   21.6154  -31.5465 H   0  0  0  0  0  0  0  0  0  0  0  0
   -9.3100   21.7550  -31.5060 C   0  0  0  0  0  0  0  0  0  0  0  0
   -8.7440   23.0410  -31.9630 C   0  0  0  0  0  0  0  0  0  0  0  0
   -9.4580   23.7770  -32.6950 O   0  0  0  0  0  0  0  0  0  0  0  0
   -7.3880   23.5090  -31.5840 C   0  0  0  0  0  0  0  0  0  0  0  0
   -6.2390   22.9550  -32.1750 C   0  0  0  0  0  0  0  0  0  0  0  0
   -6.3425   22.1742  -32.9429 H   0  0  0  0  0  0  0  0  0  0  0  0
   -4.9660   23.3890  -31.7940 C   0  0  0  0  0  0  0  0  0  0  0  0
   -4.0744   22.9561  -32.2711 H   0  0  0  0  0  0  0  0  0  0  0  0
   -4.8200   24.3770  -30.8030 C   0  0  0  0  0  0  0  0  0  0  0  0
   -3.5650   24.8480  -30.3880 O   0  0  0  0  0  0  0  0  0  0  0  0
   -2.7540   24.2150  -29.4040 C   0  0  0  0  0  0  0  0  0  0  0  0
   -3.1102   24.4930  -28.4011 H   0  0  0  0  0  0  0  0  0  0  0  0
   -2.8152   23.1234  -29.5253 H   0  0  0  0  0  0  0  0  0  0  0  0
   -1.7100   24.5394  -29.5253 H   0  0  0  0  0  0  0  0  0  0  0  0
   -5.9630   24.9150  -30.2020 C   0  0  0  0  0  0  0  0  0  0  0  0
   -5.8585   25.6853  -29.4238 H   0  0  0  0  0  0  0  0  0  0  0  0
   -7.2370   24.4820  -30.5820 C   0  0  0  0  0  0  0  0  0  0  0  0
   -8.1267   24.9059  -30.0933 H   0  0  0  0  0  0  0  0  0  0  0  0
   -8.5510   20.7510  -31.0440 C   0  0  0  0  0  0  0  0  0  0  0  0
   -8.4611   20.6302  -29.9544 H   0  0  0  0  0  0  0  0  0  0  0  0
   -7.8250   19.7930  -31.9140 C   0  0  0  0  0  0  0  0  0  0  0  0
   -7.1530   20.1880  -33.0870 C   0  0  0  0  0  0  0  0  0  0  0  0
   -7.1609   21.2450  -33.3915 H   0  0  0  0  0  0  0  0  0  0  0  0
   -6.4760   19.2460  -33.8670 C   0  0  0  0  0  0  0  0  0  0  0  0
   -5.9622   19.5657  -34.7856 H   0  0  0  0  0  0  0  0  0  0  0  0
   -6.4470   17.8960  -33.4870 C   0  0  0  0  0  0  0  0  0  0  0  0
   -5.7490   16.9260  -34.2920 N   0  0  0  0  0  0  0  0  0  0  0  0
   -4.6940   17.3650  -35.2170 C   0  0  0  0  0  0  0  0  0  0  0  0
   -5.0635   18.2139  -35.8110 H   0  0  0  0  0  0  0  0  0  0  0  0
   -4.4288   16.5268  -35.8781 H   0  0  0  0  0  0  0  0  0  0  0  0
   -3.4520   17.7960  -34.4440 C   0  0  0  0  0  0  0  0  0  0  0  0
   -3.6500   17.7273  -33.3642 H   0  0  0  0  0  0  0  0  0  0  0  0
   -2.6106   17.1373  -34.7052 H   0  0  0  0  0  0  0  0  0  0  0  0
   -3.1995   18.8343  -34.7052 H   0  0  0  0  0  0  0  0  0  0  0  0
   -6.0930   15.5010  -34.1820 C   0  0  0  0  0  0  0  0  0  0  0  0
   -7.0877   15.4031  -33.7226 H   0  0  0  0  0  0  0  0  0  0  0  0
   -6.0947   15.0567  -35.1883 H   0  0  0  0  0  0  0  0  0  0  0  0
   -5.0680   14.7690  -33.3210 C   0  0  0  0  0  0  0  0  0  0  0  0
   -5.2979   14.9332  -32.2579 H   0  0  0  0  0  0  0  0  0  0  0  0
   -5.1055   13.6921  -33.5422 H   0  0  0  0  0  0  0  0  0  0  0  0
   -4.0616   15.1539  -33.5422 H   0  0  0  0  0  0  0  0  0  0  0  0
   -7.1020   17.5020  -32.3110 C   0  0  0  0  0  0  0  0  0  0  0  0
   -7.0828   16.4466  -32.0016 H   0  0  0  0  0  0  0  0  0  0  0  0
   -7.7790   18.4430  -31.5300 C   0  0  0  0  0  0  0  0  0  0  0  0
   -8.2809   18.1228  -30.6051 H   0  0  0  0  0  0  0  0  0  0  0  0
  1  2  1  0
  2  3  1  0
  3  4  2  0
  3  5  1  0
  5  6  2  0
  6  7  1  0
  6  8  1  0
  8  9  1  0
  8 10  2  0
 10 11  1  0
 11 12  1  0
 12 13  1  0
 12 14  1  0
 12 15  1  0
 10 16  1  0
 16 17  1  0
 16 18  2  0
 18 19  1  0
  2 20  2  0
 20 21  1  0
 20 22  1  0
 22 23  2  0
 23 24  1  0
 23 25  1  0
 25 26  1  0
 25 27  2  0
 27 28  1  0
 28 29  1  0
 29 30  1  0
 29 31  1  0
 29 32  1  0
 32 33  1  0
 32 34  1  0
 32 35  1  0
 28 36  1  0
 36 37  1  0
 36 38  1  0
 36 39  1  0
 39 40  1  0
 39 41  1  0
 39 42  1  0
 27 43  1  0
 43 44  1  0
 43 45  2  0
 45 46  1  0
 18  5  1  0
 45 22  1  0
M  END
>  <UniqueID>  (48) 
45

>  <SMILES>  (48) 
CCN(CC)c1ccc(/C=C/C(=O)c2ccc(OC)cc2)cc1

>  <Energy>  (48) 
49.818577595396484

>  <Genealogy>  (48) 
CCN(CC)c1ccc(/C=C/C(=O)c2ccc(OC)cc2)cc1 (cis-trans isomerization)
CCN(CC)c1ccc(/C=C/C(=O)c2ccc(OC)cc2)cc1 (3D coordinates assigned)
CCN(CC)c1ccc(/C=C/C(=O)c2ccc(OC)cc2)cc1 (optimized conformer: 49.818577595396484 kcal/mol)

>  <smiles>  (48) 
CCN(CC)c1ccc(C=CC(=O)c2ccc(OC)cc2)cc1

>  <score_type>  (48) 
oracle

>  <origin>  (48) 
adg

>  <m_score__min__energy>  (48) 
-8.8100000000000005

>  <m_primary>  (48) 
energy

$$$$
48:0
     RDKit          3D

 52 55  0  0  0  0  0  0  0  0999 V2000
   -5.2050   25.7010  -30.5050 C   0  0  0  0  0  0  0  0  0  0  0  0
   -3.8670   25.2180  -30.4710 O   0  0  0  0  0  0  0  0  0  0  0  0
   -3.4430   24.0920  -29.7470 C   0  0  0  0  0  0  0  0  0  0  0  0
   -2.9140   24.2060  -28.4450 C   0  0  0  0  0  0  0  0  0  0  0  0
   -2.4680   23.0740  -27.7610 C   0  0  0  0  0  0  0  0  0  0  0  0
   -2.5570   21.8160  -28.3560 C   0  0  0  0  0  0  0  0  0  0  0  0
   -3.0950   21.6840  -29.6360 C   0  0  0  0  0  0  0  0  0  0  0  0
   -3.5390   22.8160  -30.3440 C   0  0  0  0  0  0  0  0  0  0  0  0
   -4.0670   22.6530  -31.7510 C   0  0  0  0  0  0  0  0  0  0  0  0
   -3.7150   21.2870  -32.3670 C   0  0  0  0  0  0  0  0  0  0  0  0
   -4.9020   20.4240  -32.5600 N   0  0  0  0  0  0  0  0  0  0  0  0
   -4.7850   19.6990  -33.8360 C   0  0  0  0  0  0  0  0  0  0  0  0
   -6.0880   18.9540  -34.1150 C   0  0  0  0  0  0  0  0  0  0  0  0
   -6.4960   18.0850  -32.9900 N   0  0  0  0  0  0  0  0  0  0  0  0
   -7.9450   18.0720  -32.7080 C   0  0  0  0  0  0  0  0  0  0  0  0
   -8.5020   19.4350  -32.4060 C   0  0  0  0  0  0  0  0  0  0  0  0
   -9.8180   19.7160  -32.3370 N   0  0  0  0  0  0  0  0  0  0  0  0
   -9.8790   20.9970  -32.1110 O   0  0  0  0  0  0  0  0  0  0  0  0
   -8.6690   21.5000  -32.0460 C   0  0  0  0  0  0  0  0  0  0  0  0
   -8.3910   22.9600  -31.8090 C   0  0  0  0  0  0  0  0  0  0  0  0
   -7.0660   23.4850  -32.3430 C   0  0  0  0  0  0  0  0  0  0  0  0
   -7.2520   23.2680  -30.8470 C   0  0  0  0  0  0  0  0  0  0  0  0
   -7.7480   20.5350  -32.2290 N   0  0  0  0  0  0  0  0  0  0  0  0
   -5.6210   18.0960  -31.7980 C   0  0  0  0  0  0  0  0  0  0  0  0
   -5.1070   19.5020  -31.4130 C   0  0  0  0  0  0  0  0  0  0  0  0
   -5.5731   25.8339  -29.4770 H   0  0  0  0  0  0  0  0  0  0  0  0
   -5.2332   26.6660  -31.0322 H   0  0  0  0  0  0  0  0  0  0  0  0
   -5.8431   24.9765  -31.0322 H   0  0  0  0  0  0  0  0  0  0  0  0
   -2.8524   25.1938  -27.9650 H   0  0  0  0  0  0  0  0  0  0  0  0
   -2.0454   23.1745  -26.7504 H   0  0  0  0  0  0  0  0  0  0  0  0
   -2.2023   20.9263  -27.8150 H   0  0  0  0  0  0  0  0  0  0  0  0
   -3.1728   20.6876  -30.0954 H   0  0  0  0  0  0  0  0  0  0  0  0
   -5.1619   22.7569  -31.7295 H   0  0  0  0  0  0  0  0  0  0  0  0
   -3.5950   23.4277  -32.3731 H   0  0  0  0  0  0  0  0  0  0  0  0
   -3.2388   21.4540  -33.3444 H   0  0  0  0  0  0  0  0  0  0  0  0
   -3.0398   20.7716  -31.6680 H   0  0  0  0  0  0  0  0  0  0  0  0
   -4.5897   20.4144  -34.6484 H   0  0  0  0  0  0  0  0  0  0  0  0
   -3.9551   18.9796  -33.7760 H   0  0  0  0  0  0  0  0  0  0  0  0
   -6.8836   19.6913  -34.2977 H   0  0  0  0  0  0  0  0  0  0  0  0
   -5.9237   18.3104  -34.9918 H   0  0  0  0  0  0  0  0  0  0  0  0
   -8.4685   17.6673  -33.5867 H   0  0  0  0  0  0  0  0  0  0  0  0
   -8.0982   17.4508  -31.8132 H   0  0  0  0  0  0  0  0  0  0  0  0
   -9.4425   23.2700  -31.8996 H   0  0  0  0  0  0  0  0  0  0  0  0
   -6.4025   22.8213  -32.9167 H   0  0  0  0  0  0  0  0  0  0  0  0
   -6.7631   24.3334  -32.9742 H   0  0  0  0  0  0  0  0  0  0  0  0
   -6.7229   22.4475  -30.3402 H   0  0  0  0  0  0  0  0  0  0  0  0
   -7.1392   23.8946  -29.9500 H   0  0  0  0  0  0  0  0  0  0  0  0
   -6.7070   20.6110  -32.2560 H   0  0  0  0  0  0  0  0  0  0  0  0
   -6.1884   17.6896  -30.9478 H   0  0  0  0  0  0  0  0  0  0  0  0
   -4.7375   17.4887  -32.0441 H   0  0  0  0  0  0  0  0  0  0  0  0
   -5.8395   19.9599  -30.7320 H   0  0  0  0  0  0  0  0  0  0  0  0
   -4.1192   19.3559  -30.9516 H   0  0  0  0  0  0  0  0  0  0  0  0
  1  2  1  0
  2  3  1  0
  3  4  2  0
  4  5  1  0
  5  6  2  0
  6  7  1  0
  7  8  2  0
  8  9  1  0
  9 10  1  0
 10 11  1  0
 11 12  1  0
 12 13  1  0
 13 14  1  0
 14 15  1  0
 15 16  1  0
 16 17  2  0
 17 18  1  0
 18 19  1  0
 19 20  1  0
 20 21  1  0
 21 22  1  0
 19 23  2  0
 14 24  1  0
 24 25  1  0
  8  3  1  0
 25 11  1  0
 23 16  1  0
 22 20  1  0
  1 26  1  0
  1 27  1  0
  1 28  1  0
  4 29  1  0
  5 30  1  0
  6 31  1  0
  7 32  1  0
  9 33  1  0
  9 34  1  0
 10 35  1  0
 10 36  1  0
 12 37  1  0
 12 38  1  0
 13 39  1  0
 13 40  1  0
 15 41  1  0
 15 42  1  0
 20 43  1  0
 21 44  1  0
 21 45  1  0
 22 46  1  0
 22 47  1  0
 23 48  1  0
 24 49  1  0
 24 50  1  0
 25 51  1  0
 25 52  1  0
M  CHG  1  23   1
M  END
>  <UniqueID>  (49) 
46

>  <SMILES>  (49) 
COc1ccccc1CCN1CCN(Cc2noc(C3CC3)[nH+]2)CC1

>  <Energy>  (49) 
363.2332789718714

>  <Genealogy>  (49) 
COc1ccccc1CCN1CCN(Cc2noc(C3CC3)[nH+]2)CC1 (protonated)
COc1ccccc1CCN1CCN(Cc2noc(C3CC3)[nH+]2)CC1 (3D coordinates assigned)
COc1ccccc1CCN1CCN(Cc2noc(C3CC3)[nH+]2)CC1 (nonaromatic ring conformer: 363.2332789718714 kcal/mol)

>  <smiles>  (49) 
COc1ccccc1CCN1CCN(Cc2noc(C3CC3)n2)CC1

>  <score_type>  (49) 
oracle

>  <origin>  (49) 
adg

>  <m_score__min__energy>  (49) 
-8.2699999999999996

>  <m_primary>  (49) 
energy

$$$$
