0:0
     RDKit          3D

 41 43  0  0  0  0  0  0  0  0999 V2000
   -4.2000   20.0680  -33.4280 C   0  0  0  0  0  0  0  0  0  0  0  0
   -5.5550   20.5060  -33.4520 O   0  0  0  0  0  0  0  0  0  0  0  0
   -6.6120   19.8650  -32.7850 C   0  0  0  0  0  0  0  0  0  0  0  0
   -6.6690   18.4620  -32.6560 C   0  0  0  0  0  0  0  0  0  0  0  0
   -7.7290   17.8570  -31.9770 C   0  0  0  0  0  0  0  0  0  0  0  0
   -8.7390   18.6390  -31.4160 C   0  0  0  0  0  0  0  0  0  0  0  0
   -8.6960   20.0300  -31.5360 C   0  0  0  0  0  0  0  0  0  0  0  0
   -7.6410   20.6510  -32.2260 C   0  0  0  0  0  0  0  0  0  0  0  0
   -7.6000   22.1560  -32.3370 C   0  0  0  0  0  0  0  0  0  0  0  0
   -6.5690   22.7180  -31.4400 N   0  0  0  0  0  0  0  0  0  0  0  0
   -5.3440   23.0330  -32.1890 C   0  0  0  0  0  0  0  0  0  0  0  0
   -4.2150   23.2770  -31.1910 C   0  0  0  0  0  0  0  0  0  0  0  0
   -4.6580   24.1390  -30.0850 N   0  0  0  0  0  0  0  0  0  0  0  0
   -3.7220   24.4610  -29.0350 C   0  0  0  0  0  0  0  0  0  0  0  0
   -2.4760   24.9220  -29.3360 N   0  0  0  0  0  0  0  0  0  0  0  0
   -1.5810   25.2220  -28.3600 C   0  0  0  0  0  0  0  0  0  0  0  0
   -1.9330   25.0620  -27.0200 C   0  0  0  0  0  0  0  0  0  0  0  0
   -3.2100   24.5900  -26.7230 C   0  0  0  0  0  0  0  0  0  0  0  0
   -4.0750   24.2980  -27.7290 N   0  0  0  0  0  0  0  0  0  0  0  0
   -5.9570   24.8270  -30.1660 C   0  0  0  0  0  0  0  0  0  0  0  0
   -7.0740   23.9110  -30.7190 C   0  0  0  0  0  0  0  0  0  0  0  0
   -3.8678   19.9606  -32.3849 H   0  0  0  0  0  0  0  0  0  0  0  0
   -4.1191   19.0979  -33.9403 H   0  0  0  0  0  0  0  0  0  0  0  0
   -3.5666   20.8072  -33.9403 H   0  0  0  0  0  0  0  0  0  0  0  0
   -5.8737   17.8402  -33.0928 H   0  0  0  0  0  0  0  0  0  0  0  0
   -7.7676   16.7616  -31.8844 H   0  0  0  0  0  0  0  0  0  0  0  0
   -9.5703   18.1595  -30.8784 H   0  0  0  0  0  0  0  0  0  0  0  0
   -9.4922   20.6426  -31.0880 H   0  0  0  0  0  0  0  0  0  0  0  0
   -7.3666   22.4353  -33.3750 H   0  0  0  0  0  0  0  0  0  0  0  0
   -8.5809   22.5590  -32.0447 H   0  0  0  0  0  0  0  0  0  0  0  0
   -5.0832   22.1896  -32.8453 H   0  0  0  0  0  0  0  0  0  0  0  0
   -5.5004   23.9291  -32.8074 H   0  0  0  0  0  0  0  0  0  0  0  0
   -3.8830   22.3113  -30.7821 H   0  0  0  0  0  0  0  0  0  0  0  0
   -3.3900   23.7811  -31.7157 H   0  0  0  0  0  0  0  0  0  0  0  0
   -0.5794   25.5908  -28.6259 H   0  0  0  0  0  0  0  0  0  0  0  0
   -1.2202   25.3025  -26.2174 H   0  0  0  0  0  0  0  0  0  0  0  0
   -3.5172   24.4540  -25.6756 H   0  0  0  0  0  0  0  0  0  0  0  0
   -6.2423   25.1636  -29.1584 H   0  0  0  0  0  0  0  0  0  0  0  0
   -5.8454   25.6756  -30.8569 H   0  0  0  0  0  0  0  0  0  0  0  0
   -7.6921   23.5702  -29.8753 H   0  0  0  0  0  0  0  0  0  0  0  0
   -7.6450   24.5065  -31.4466 H   0  0  0  0  0  0  0  0  0  0  0  0
  1  2  1  0
  2  3  1  0
  3  4  2  0
  4  5  1  0
  5  6  2  0
  6  7  1  0
  7  8  2  0
  8  9  1  0
  9 10  1  0
 10 11  1  0
 11 12  1  0
 12 13  1  0
 13 14  1  0
 14 15  2  0
 15 16  1  0
 16 17  2  0
 17 18  1  0
 18 19  2  0
 13 20  1  0
 20 21  1  0
  8  3  1  0
 21 10  1  0
 19 14  1  0
  1 22  1  0
  1 23  1  0
  1 24  1  0
  4 25  1  0
  5 26  1  0
  6 27  1  0
  7 28  1  0
  9 29  1  0
  9 30  1  0
 11 31  1  0
 11 32  1  0
 12 33  1  0
 12 34  1  0
 16 35  1  0
 17 36  1  0
 18 37  1  0
 20 38  1  0
 20 39  1  0
 21 40  1  0
 21 41  1  0
M  END
>  <UniqueID>  (1) 
1

>  <SMILES>  (1) 
COc1ccccc1CN1CCN(c2ncccn2)CC1

>  <Energy>  (1) 
48.91739995538009

>  <Genealogy>  (1) 
COc1ccccc1CN1CCN(c2ncccn2)CC1 (3D coordinates assigned)
COc1ccccc1CN1CCN(c2ncccn2)CC1 (nonaromatic ring conformer: 48.91739995538009 kcal/mol)

>  <smiles>  (1) 
COc1ccccc1CN1CCN(c2ncccn2)CC1

>  <score_type>  (1) 
oracle

>  <origin>  (1) 
adg

>  <m_score__min__energy>  (1) 
-7.0300000000000002

>  <m_primary>  (1) 
energy

$$$$
1:0
     RDKit          3D

 47 48  0  0  0  0  0  0  0  0999 V2000
   -6.4740   25.6430  -29.3810 C   0  0  0  0  0  0  0  0  0  0  0  0
   -5.6320   25.4250  -30.6380 C   0  0  0  0  0  0  0  0  0  0  0  0
   -4.6260   24.2670  -30.4880 C   0  0  0  0  0  0  0  0  0  0  0  0
   -5.2470   22.9470  -29.9930 C   0  0  0  0  0  0  0  0  0  0  0  0
   -5.5950   22.0370  -31.1070 N   0  0  0  0  0  0  0  0  0  0  0  0
   -4.5460   21.6090  -31.8730 C   0  0  0  0  0  0  0  0  0  0  0  0
   -4.7320   20.7410  -32.9370 C   0  0  0  0  0  0  0  0  0  0  0  0
   -6.0070   20.2740  -33.2510 C   0  0  0  0  0  0  0  0  0  0  0  0
   -6.1770   19.3740  -34.3620 N   0  0  0  0  0  0  0  0  0  0  0  0
   -5.3330   18.1940  -34.5580 C   0  0  0  0  0  0  0  0  0  0  0  0
   -6.0970   16.9030  -34.2150 C   0  0  0  0  0  0  0  0  0  0  0  0
   -5.7590   16.3470  -32.8800 N   0  0  0  0  0  0  0  0  0  0  0  0
   -4.3100   16.0930  -32.8030 C   0  0  0  0  0  0  0  0  0  0  0  0
   -6.1610   17.2490  -31.7830 C   0  0  0  0  0  0  0  0  0  0  0  0
   -7.1060   20.7120  -32.4810 C   0  0  0  0  0  0  0  0  0  0  0  0
   -8.4120   20.2550  -32.7510 C   0  0  0  0  0  0  0  0  0  0  0  0
   -9.4880   20.6700  -31.9720 C   0  0  0  0  0  0  0  0  0  0  0  0
   -9.2850   21.5420  -30.9120 C   0  0  0  0  0  0  0  0  0  0  0  0
   -8.0040   22.0060  -30.6170 C   0  0  0  0  0  0  0  0  0  0  0  0
   -6.8830   21.6070  -31.3880 C   0  0  0  0  0  0  0  0  0  0  0  0
   -5.8504   25.4815  -28.4894 H   0  0  0  0  0  0  0  0  0  0  0  0
   -6.8637   26.6716  -29.3745 H   0  0  0  0  0  0  0  0  0  0  0  0
   -7.3139   24.9327  -29.3745 H   0  0  0  0  0  0  0  0  0  0  0  0
   -6.3056   25.1991  -31.4777 H   0  0  0  0  0  0  0  0  0  0  0  0
   -5.0551   26.3448  -30.8146 H   0  0  0  0  0  0  0  0  0  0  0  0
   -4.1635   24.0834  -31.4690 H   0  0  0  0  0  0  0  0  0  0  0  0
   -3.8989   24.5788  -29.7237 H   0  0  0  0  0  0  0  0  0  0  0  0
   -4.5247   22.4410  -29.3355 H   0  0  0  0  0  0  0  0  0  0  0  0
   -6.1755   23.1924  -29.4567 H   0  0  0  0  0  0  0  0  0  0  0  0
   -3.5308   21.9621  -31.6390 H   0  0  0  0  0  0  0  0  0  0  0  0
   -3.8684   20.4187  -33.5372 H   0  0  0  0  0  0  0  0  0  0  0  0
   -6.9140   19.5710  -35.0750 H   0  0  0  0  0  0  0  0  0  0  0  0
   -5.0117   18.1528  -35.6092 H   0  0  0  0  0  0  0  0  0  0  0  0
   -4.4624   18.2725  -33.8903 H   0  0  0  0  0  0  0  0  0  0  0  0
   -7.1750   17.1207  -34.2379 H   0  0  0  0  0  0  0  0  0  0  0  0
   -5.8057   16.1488  -34.9609 H   0  0  0  0  0  0  0  0  0  0  0  0
   -6.2440   15.4290  -32.7520 H   0  0  0  0  0  0  0  0  0  0  0  0
   -4.0027   16.0391  -31.7482 H   0  0  0  0  0  0  0  0  0  0  0  0
   -4.0777   15.1404  -33.3017 H   0  0  0  0  0  0  0  0  0  0  0  0
   -3.7676   16.9098  -33.3017 H   0  0  0  0  0  0  0  0  0  0  0  0
   -5.9471   16.7690  -30.8166 H   0  0  0  0  0  0  0  0  0  0  0  0
   -5.5974   18.1907  -31.8574 H   0  0  0  0  0  0  0  0  0  0  0  0
   -7.2381   17.4595  -31.8574 H   0  0  0  0  0  0  0  0  0  0  0  0
   -8.5827   19.5618  -33.5878 H   0  0  0  0  0  0  0  0  0  0  0  0
  -10.5013   20.3060  -32.1971 H   0  0  0  0  0  0  0  0  0  0  0  0
  -10.1394   21.8689  -30.3012 H   0  0  0  0  0  0  0  0  0  0  0  0
   -7.8603   22.6940  -29.7709 H   0  0  0  0  0  0  0  0  0  0  0  0
  1  2  1  0
  2  3  1  0
  3  4  1  0
  4  5  1  0
  5  6  2  0
  6  7  1  0
  7  8  2  0
  8  9  1  0
  9 10  1  0
 10 11  1  0
 11 12  1  0
 12 13  1  0
 12 14  1  0
  8 15  1  0
 15 16  2  0
 16 17  1  0
 17 18  2  0
 18 19  1  0
 19 20  2  0
 20  5  1  0
 20 15  1  0
  1 21  1  0
  1 22  1  0
  1 23  1  0
  2 24  1  0
  2 25  1  0
  3 26  1  0
  3 27  1  0
  4 28  1  0
  4 29  1  0
  6 30  1  0
  7 31  1  0
  9 32  1  0
 10 33  1  0
 10 34  1  0
 11 35  1  0
 11 36  1  0
 12 37  1  0
 13 38  1  0
 13 39  1  0
 13 40  1  0
 14 41  1  0
 14 42  1  0
 14 43  1  0
 16 44  1  0
 17 45  1  0
 18 46  1  0
 19 47  1  0
M  CHG  2   5   1  12   1
M  END
>  <UniqueID>  (2) 
2

>  <SMILES>  (2) 
CCCC[n+]1ccc(NCC[NH+](C)C)c2ccccc21

>  <Energy>  (2) 
54.76953495995796

>  <Genealogy>  (2) 
CCCC[n+]1ccc(NCC[NH+](C)C)c2ccccc21 (protonated)
CCCC[n+]1ccc(NCC[NH+](C)C)c2ccccc21 (3D coordinates assigned)
CCCC[n+]1ccc(NCC[NH+](C)C)c2ccccc21 (optimized conformer: 54.76953495995796 kcal/mol)

>  <smiles>  (2) 
CCCC[n+]1ccc(NCCN(C)C)c2ccccc21

>  <score_type>  (2) 
oracle

>  <origin>  (2) 
adg

>  <m_score__min__energy>  (2) 
-5.7300000000000004

>  <m_primary>  (2) 
energy

$$$$
2:0
     RDKit          3D

 58 60  0  0  0  0  0  0  0  0999 V2000
    0.1800   27.1020  -23.3510 C   0  0  0  0  0  0  0  0  0  0  0  0
   -0.8430   26.0920  -23.8670 C   0  0  0  0  0  0  0  0  0  0  0  0
   -1.9370   26.7760  -24.5740 N   0  0  0  0  0  0  0  0  0  0  0  0
   -1.9830   26.4250  -26.0070 C   0  0  0  0  0  0  0  0  0  0  0  0
   -2.2510   24.9240  -26.2590 C   0  0  0  0  0  0  0  0  0  0  0  0
   -3.5610   24.6400  -27.0160 C   0  0  0  0  0  0  0  0  0  0  0  0
   -3.3010   24.3900  -28.4390 N   0  0  0  0  0  0  0  0  0  0  0  0
   -4.5240   24.5530  -29.2350 C   0  0  0  0  0  0  0  0  0  0  0  0
   -4.8730   23.2410  -29.9550 C   0  0  0  0  0  0  0  0  0  0  0  0
   -4.1110   23.0550  -31.2780 C   0  0  0  0  0  0  0  0  0  0  0  0
   -5.0180   22.7600  -32.3880 N   0  0  0  0  0  0  0  0  0  0  0  0
   -5.3350   21.3980  -32.7280 C   0  0  0  0  0  0  0  0  0  0  0  0
   -6.6210   20.8890  -32.4760 C   0  0  0  0  0  0  0  0  0  0  0  0
   -7.6290   21.7100  -31.9250 C   0  0  0  0  0  0  0  0  0  0  0  0
   -8.8840   21.1890  -31.6230 C   0  0  0  0  0  0  0  0  0  0  0  0
   -9.1550   19.8450  -31.8550 C   0  0  0  0  0  0  0  0  0  0  0  0
   -8.1840   19.0230  -32.4280 C   0  0  0  0  0  0  0  0  0  0  0  0
   -6.9100   19.5340  -32.7890 C   0  0  0  0  0  0  0  0  0  0  0  0
   -5.9620   18.7470  -33.4150 N   0  0  0  0  0  0  0  0  0  0  0  0
   -6.3510   17.4450  -34.0010 C   0  0  0  0  0  0  0  0  0  0  0  0
   -4.6570   19.1880  -33.5190 C   0  0  0  0  0  0  0  0  0  0  0  0
   -3.6020   18.3170  -33.9000 C   0  0  0  0  0  0  0  0  0  0  0  0
   -2.2960   18.7850  -34.0400 C   0  0  0  0  0  0  0  0  0  0  0  0
   -2.0030   20.1210  -33.7970 C   0  0  0  0  0  0  0  0  0  0  0  0
   -3.0090   20.9890  -33.3810 C   0  0  0  0  0  0  0  0  0  0  0  0
   -4.3350   20.5380  -33.2170 C   0  0  0  0  0  0  0  0  0  0  0  0
    0.1763   27.0983  -22.2510 H   0  0  0  0  0  0  0  0  0  0  0  0
    1.1813   26.8284  -23.7152 H   0  0  0  0  0  0  0  0  0  0  0  0
   -0.0808   28.1067  -23.7152 H   0  0  0  0  0  0  0  0  0  0  0  0
   -0.3460   25.3955  -24.5582 H   0  0  0  0  0  0  0  0  0  0  0  0
   -1.2629   25.5444  -23.0104 H   0  0  0  0  0  0  0  0  0  0  0  0
   -1.7830   27.8100  -24.4990 H   0  0  0  0  0  0  0  0  0  0  0  0
   -2.8430   26.5460  -24.1120 H   0  0  0  0  0  0  0  0  0  0  0  0
   -2.7847   27.0079  -26.4840 H   0  0  0  0  0  0  0  0  0  0  0  0
   -0.9948   26.6559  -26.4315 H   0  0  0  0  0  0  0  0  0  0  0  0
   -1.4159   24.5178  -26.8485 H   0  0  0  0  0  0  0  0  0  0  0  0
   -2.3442   24.4474  -25.2720 H   0  0  0  0  0  0  0  0  0  0  0  0
   -4.0455   23.7550  -26.5777 H   0  0  0  0  0  0  0  0  0  0  0  0
   -4.2152   25.5199  -26.9279 H   0  0  0  0  0  0  0  0  0  0  0  0
   -2.9820   23.3980  -28.5430 H   0  0  0  0  0  0  0  0  0  0  0  0
   -5.3544   24.8338  -28.5704 H   0  0  0  0  0  0  0  0  0  0  0  0
   -4.3588   25.3394  -29.9862 H   0  0  0  0  0  0  0  0  0  0  0  0
   -4.6275   22.4007  -29.2890 H   0  0  0  0  0  0  0  0  0  0  0  0
   -5.9454   23.2763  -30.1974 H   0  0  0  0  0  0  0  0  0  0  0  0
   -3.5591   23.9792  -31.5045 H   0  0  0  0  0  0  0  0  0  0  0  0
   -3.4237   22.2041  -31.1613 H   0  0  0  0  0  0  0  0  0  0  0  0
   -5.1500   23.4870  -33.1280 H   0  0  0  0  0  0  0  0  0  0  0  0
   -7.4203   22.7727  -31.7323 H   0  0  0  0  0  0  0  0  0  0  0  0
   -9.6623   21.8413  -31.2003 H   0  0  0  0  0  0  0  0  0  0  0  0
  -10.1371   19.4289  -31.5862 H   0  0  0  0  0  0  0  0  0  0  0  0
   -8.4097   17.9607  -32.6030 H   0  0  0  0  0  0  0  0  0  0  0  0
   -6.5649   16.7289  -33.1939 H   0  0  0  0  0  0  0  0  0  0  0  0
   -7.2492   17.5762  -34.6224 H   0  0  0  0  0  0  0  0  0  0  0  0
   -5.5280   17.0620  -34.6224 H   0  0  0  0  0  0  0  0  0  0  0  0
   -3.8188   17.2551  -34.0879 H   0  0  0  0  0  0  0  0  0  0  0  0
   -1.4955   18.0944  -34.3437 H   0  0  0  0  0  0  0  0  0  0  0  0
   -0.9768   20.4929  -33.9332 H   0  0  0  0  0  0  0  0  0  0  0  0
   -2.7658   22.0423  -33.1772 H   0  0  0  0  0  0  0  0  0  0  0  0
  1  2  1  0
  2  3  1  0
  3  4  1  0
  4  5  1  0
  5  6  1  0
  6  7  1  0
  7  8  1  0
  8  9  1  0
  9 10  1  0
 10 11  1  0
 11 12  1  0
 12 13  2  0
 13 14  1  0
 14 15  2  0
 15 16  1  0
 16 17  2  0
 17 18  1  0
 18 19  2  0
 19 20  1  0
 19 21  1  0
 21 22  2  0
 22 23  1  0
 23 24  2  0
 24 25  1  0
 25 26  2  0
 26 12  1  0
 18 13  1  0
 26 21  1  0
  1 27  1  0
  1 28  1  0
  1 29  1  0
  2 30  1  0
  2 31  1  0
  3 32  1  0
  3 33  1  0
  4 34  1  0
  4 35  1  0
  5 36  1  0
  5 37  1  0
  6 38  1  0
  6 39  1  0
  7 40  1  0
  8 41  1  0
  8 42  1  0
  9 43  1  0
  9 44  1  0
 10 45  1  0
 10 46  1  0
 11 47  1  0
 14 48  1  0
 15 49  1  0
 16 50  1  0
 17 51  1  0
 20 52  1  0
 20 53  1  0
 20 54  1  0
 22 55  1  0
 23 56  1  0
 24 57  1  0
 25 58  1  0
M  CHG  2   3   1  19   1
M  END
>  <UniqueID>  (3) 
3

>  <SMILES>  (3) 
CC[NH2+]CCCNCCCNc1c2ccccc2[n+](C)c2ccccc12

>  <Energy>  (3) 
72.3765584033765

>  <Genealogy>  (3) 
CC[NH2+]CCCNCCCNc1c2ccccc2[n+](C)c2ccccc12 (protonated)
CC[NH2+]CCCNCCCNc1c2ccccc2[n+](C)c2ccccc12 (3D coordinates assigned)
CC[NH2+]CCCNCCCNc1c2ccccc2[n+](C)c2ccccc12 (optimized conformer: 72.3765584033765 kcal/mol)

>  <smiles>  (3) 
CCNCCCNCCCNc1c2ccccc2[n+](C)c2ccccc12

>  <score_type>  (3) 
oracle

>  <origin>  (3) 
adg

>  <m_score__min__energy>  (3) 
-8.0399999999999991

>  <m_primary>  (3) 
energy

$$$$
3:0
     RDKit          3D

 55 57  0  0  0  0  0  0  0  0999 V2000
   -5.2770   25.3770  -30.4520 C   0  0  0  0  0  0  0  0  0  0  0  0
   -4.6960   24.2260  -29.6370 C   0  0  0  0  0  0  0  0  0  0  0  0
   -3.2700   24.0240  -29.9940 N   0  0  0  0  0  0  0  0  0  0  0  0
   -2.3240   24.5080  -28.9630 C   0  0  0  0  0  0  0  0  0  0  0  0
   -2.9300   24.4230  -27.5650 C   0  0  0  0  0  0  0  0  0  0  0  0
   -2.9690   22.6410  -30.4390 C   0  0  0  0  0  0  0  0  0  0  0  0
   -1.4660   22.3050  -30.5140 C   0  0  0  0  0  0  0  0  0  0  0  0
   -1.2550   21.1660  -31.3250 O   0  0  0  0  0  0  0  0  0  0  0  0
   -0.0060   21.2170  -31.9870 C   0  0  0  0  0  0  0  0  0  0  0  0
   -0.0580   20.5410  -33.3640 C   0  0  0  0  0  0  0  0  0  0  0  0
   -1.2530   20.9430  -34.1080 N   0  0  0  0  0  0  0  0  0  0  0  0
   -2.6020   20.5540  -33.7750 C   0  0  0  0  0  0  0  0  0  0  0  0
   -3.0320   19.2150  -33.8530 C   0  0  0  0  0  0  0  0  0  0  0  0
   -4.3420   18.8720  -33.5120 C   0  0  0  0  0  0  0  0  0  0  0  0
   -5.2430   19.8570  -33.0990 C   0  0  0  0  0  0  0  0  0  0  0  0
   -6.5100   19.5170  -32.7670 N   0  0  0  0  0  0  0  0  0  0  0  0
   -7.4190   20.4440  -32.3680 C   0  0  0  0  0  0  0  0  0  0  0  0
   -8.7270   20.0340  -32.0370 C   0  0  0  0  0  0  0  0  0  0  0  0
   -9.1240   18.5830  -32.0990 C   0  0  0  0  0  0  0  0  0  0  0  0
   -9.6540   20.9960  -31.6210 C   0  0  0  0  0  0  0  0  0  0  0  0
   -9.2830   22.3350  -31.5470 C   0  0  0  0  0  0  0  0  0  0  0  0
   -7.9830   22.7110  -31.8830 C   0  0  0  0  0  0  0  0  0  0  0  0
   -7.0610   21.7770  -32.2900 N   0  0  0  0  0  0  0  0  0  0  0  0
   -5.7810   22.1600  -32.6170 C   0  0  0  0  0  0  0  0  0  0  0  0
   -5.4400   23.3770  -32.5490 O   0  0  0  0  0  0  0  0  0  0  0  0
   -4.8390   21.2000  -33.0300 C   0  0  0  0  0  0  0  0  0  0  0  0
   -3.5170   21.5420  -33.3720 C   0  0  0  0  0  0  0  0  0  0  0  0
   -5.6664   26.1484  -29.7713 H   0  0  0  0  0  0  0  0  0  0  0  0
   -4.4900   25.8111  -31.0862 H   0  0  0  0  0  0  0  0  0  0  0  0
   -6.0936   25.0016  -31.0862 H   0  0  0  0  0  0  0  0  0  0  0  0
   -4.7739   24.4621  -28.5655 H   0  0  0  0  0  0  0  0  0  0  0  0
   -5.2582   23.3065  -29.8569 H   0  0  0  0  0  0  0  0  0  0  0  0
   -1.4132   23.8920  -28.9960 H   0  0  0  0  0  0  0  0  0  0  0  0
   -2.0913   25.5620  -29.1752 H   0  0  0  0  0  0  0  0  0  0  0  0
   -2.1347   24.5345  -26.8132 H   0  0  0  0  0  0  0  0  0  0  0  0
   -3.6708   25.2260  -27.4370 H   0  0  0  0  0  0  0  0  0  0  0  0
   -3.4213   23.4472  -27.4370 H   0  0  0  0  0  0  0  0  0  0  0  0
   -3.4421   21.9426  -29.7331 H   0  0  0  0  0  0  0  0  0  0  0  0
   -3.3608   22.5501  -31.4628 H   0  0  0  0  0  0  0  0  0  0  0  0
   -0.9243   23.1608  -30.9432 H   0  0  0  0  0  0  0  0  0  0  0  0
   -1.0967   22.0939  -29.4996 H   0  0  0  0  0  0  0  0  0  0  0  0
    0.2835   22.2700  -32.1189 H   0  0  0  0  0  0  0  0  0  0  0  0
    0.7279   20.6772  -31.3706 H   0  0  0  0  0  0  0  0  0  0  0  0
    0.8353   20.8280  -33.9382 H   0  0  0  0  0  0  0  0  0  0  0  0
   -0.0911   19.4516  -33.2154 H   0  0  0  0  0  0  0  0  0  0  0  0
   -1.1060   21.5570  -34.9410 H   0  0  0  0  0  0  0  0  0  0  0  0
   -2.3314   18.4345  -34.1846 H   0  0  0  0  0  0  0  0  0  0  0  0
   -4.6659   17.8223  -33.5687 H   0  0  0  0  0  0  0  0  0  0  0  0
   -9.2320   18.1884  -31.0779 H   0  0  0  0  0  0  0  0  0  0  0  0
  -10.0814   18.4873  -32.6322 H   0  0  0  0  0  0  0  0  0  0  0  0
   -8.3487   18.0132  -32.6322 H   0  0  0  0  0  0  0  0  0  0  0  0
  -10.6769   20.6935  -31.3523 H   0  0  0  0  0  0  0  0  0  0  0  0
  -10.0118   23.0934  -31.2250 H   0  0  0  0  0  0  0  0  0  0  0  0
   -7.6915   23.7699  -31.8214 H   0  0  0  0  0  0  0  0  0  0  0  0
   -3.1967   22.5932  -33.3234 H   0  0  0  0  0  0  0  0  0  0  0  0
  1  2  1  0
  2  3  1  0
  3  4  1  0
  4  5  1  0
  3  6  1  0
  6  7  1  0
  7  8  1  0
  8  9  1  0
  9 10  1  0
 10 11  1  0
 11 12  1  0
 12 13  2  0
 13 14  1  0
 14 15  2  0
 15 16  1  0
 16 17  2  0
 17 18  1  0
 18 19  1  0
 18 20  2  0
 20 21  1  0
 21 22  2  0
 22 23  1  0
 23 24  1  0
 24 25  2  0
 24 26  1  0
 26 27  2  0
 27 12  1  0
 26 15  1  0
 23 17  1  0
  1 28  1  0
  1 29  1  0
  1 30  1  0
  2 31  1  0
  2 32  1  0
  4 33  1  0
  4 34  1  0
  5 35  1  0
  5 36  1  0
  5 37  1  0
  6 38  1  0
  6 39  1  0
  7 40  1  0
  7 41  1  0
  9 42  1  0
  9 43  1  0
 10 44  1  0
 10 45  1  0
 11 46  1  0
 13 47  1  0
 14 48  1  0
 19 49  1  0
 19 50  1  0
 19 51  1  0
 20 52  1  0
 21 53  1  0
 22 54  1  0
 27 55  1  0
M  END
>  <UniqueID>  (4) 
4

>  <SMILES>  (4) 
CCN(CC)CCOCCNc1ccc2nc3c(C)cccn3c(=O)c2c1

>  <Energy>  (4) 
68.39269561129444

>  <Genealogy>  (4) 
CCN(CC)CCOCCNc1ccc2nc3c(C)cccn3c(=O)c2c1 (3D coordinates assigned)
CCN(CC)CCOCCNc1ccc2nc3c(C)cccn3c(=O)c2c1 (optimized conformer: 68.39269561129444 kcal/mol)

>  <smiles>  (4) 
CCN(CC)CCOCCNc1ccc2nc3c(C)cccn3c(=O)c2c1

>  <score_type>  (4) 
oracle

>  <origin>  (4) 
adg

>  <m_score__min__energy>  (4) 
-8.6999999999999993

>  <m_primary>  (4) 
energy

$$$$
4:0
     RDKit          3D

 48 51  0  0  0  0  0  0  0  0999 V2000
   -5.2840   17.7830  -33.9470 C   0  0  0  0  0  0  0  0  0  0  0  0
   -5.5580   19.0790  -33.3060 N   0  0  0  0  0  0  0  0  0  0  0  0
   -6.8240   19.4130  -32.8470 C   0  0  0  0  0  0  0  0  0  0  0  0
   -7.8410   18.4380  -32.7060 C   0  0  0  0  0  0  0  0  0  0  0  0
   -9.1200   18.7900  -32.2800 C   0  0  0  0  0  0  0  0  0  0  0  0
   -9.4200   20.1110  -31.9710 C   0  0  0  0  0  0  0  0  0  0  0  0
   -8.4360   21.0930  -32.0610 C   0  0  0  0  0  0  0  0  0  0  0  0
   -7.1290   20.7690  -32.4800 C   0  0  0  0  0  0  0  0  0  0  0  0
   -6.1160   21.7600  -32.5510 C   0  0  0  0  0  0  0  0  0  0  0  0
   -6.3790   23.1450  -32.2600 N   0  0  0  0  0  0  0  0  0  0  0  0
   -6.8580   23.5880  -30.9500 C   0  0  0  0  0  0  0  0  0  0  0  0
   -6.2510   24.9460  -30.5570 C   0  0  0  0  0  0  0  0  0  0  0  0
   -5.5050   24.9200  -29.2850 N   0  0  0  0  0  0  0  0  0  0  0  0
   -4.2330   24.1810  -29.3820 C   0  0  0  0  0  0  0  0  0  0  0  0
   -4.3270   22.8150  -28.6930 C   0  0  0  0  0  0  0  0  0  0  0  0
   -3.0530   21.5530  -29.4350 Br  0  0  0  0  0  0  0  0  0  0  0  0
   -4.8280   21.3330  -32.8680 C   0  0  0  0  0  0  0  0  0  0  0  0
   -3.6920   22.0640  -32.8180 N   0  0  0  0  0  0  0  0  0  0  0  0
   -2.7020   21.2030  -33.1180 C   0  0  0  0  0  0  0  0  0  0  0  0
   -1.3370   21.4870  -33.1320 C   0  0  0  0  0  0  0  0  0  0  0  0
   -0.4440   20.4330  -33.3820 C   0  0  0  0  0  0  0  0  0  0  0  0
   -0.9250   19.1230  -33.5830 C   0  0  0  0  0  0  0  0  0  0  0  0
   -2.3050   18.8540  -33.5520 C   0  0  0  0  0  0  0  0  0  0  0  0
   -3.1840   19.9270  -33.3510 C   0  0  0  0  0  0  0  0  0  0  0  0
   -4.5680   20.0210  -33.2040 C   0  0  0  0  0  0  0  0  0  0  0  0
   -5.1223   17.0181  -33.1732 H   0  0  0  0  0  0  0  0  0  0  0  0
   -6.1412   17.4953  -34.5735 H   0  0  0  0  0  0  0  0  0  0  0  0
   -4.3837   17.8668  -34.5735 H   0  0  0  0  0  0  0  0  0  0  0  0
   -7.6178   17.3858  -32.9365 H   0  0  0  0  0  0  0  0  0  0  0  0
   -9.8973   18.0171  -32.1877 H   0  0  0  0  0  0  0  0  0  0  0  0
  -10.4379   20.3823  -31.6543 H   0  0  0  0  0  0  0  0  0  0  0  0
   -8.6814   22.1336  -31.8022 H   0  0  0  0  0  0  0  0  0  0  0  0
   -6.0950   23.8780  -32.9470 H   0  0  0  0  0  0  0  0  0  0  0  0
   -7.9534   23.6824  -30.9832 H   0  0  0  0  0  0  0  0  0  0  0  0
   -6.5515   22.8433  -30.2007 H   0  0  0  0  0  0  0  0  0  0  0  0
   -5.5638   25.2626  -31.3554 H   0  0  0  0  0  0  0  0  0  0  0  0
   -7.0901   25.6443  -30.4215 H   0  0  0  0  0  0  0  0  0  0  0  0
   -5.3240   25.8940  -28.9560 H   0  0  0  0  0  0  0  0  0  0  0  0
   -6.1190   24.4560  -28.5750 H   0  0  0  0  0  0  0  0  0  0  0  0
   -3.9864   24.0305  -30.4434 H   0  0  0  0  0  0  0  0  0  0  0  0
   -3.4511   24.7695  -28.8797 H   0  0  0  0  0  0  0  0  0  0  0  0
   -4.1210   22.9413  -27.6199 H   0  0  0  0  0  0  0  0  0  0  0  0
   -5.3398   22.4170  -28.8538 H   0  0  0  0  0  0  0  0  0  0  0  0
   -3.5830   23.0640  -32.5370 H   0  0  0  0  0  0  0  0  0  0  0  0
   -0.9701   22.5083  -32.9522 H   0  0  0  0  0  0  0  0  0  0  0  0
    0.6374   20.6304  -33.4213 H   0  0  0  0  0  0  0  0  0  0  0  0
   -0.2142   18.3037  -33.7658 H   0  0  0  0  0  0  0  0  0  0  0  0
   -2.6841   17.8296  -33.6819 H   0  0  0  0  0  0  0  0  0  0  0  0
  1  2  1  0
  2  3  2  0
  3  4  1  0
  4  5  2  0
  5  6  1  0
  6  7  2  0
  7  8  1  0
  8  9  2  0
  9 10  1  0
 10 11  1  0
 11 12  1  0
 12 13  1  0
 13 14  1  0
 14 15  1  0
 15 16  1  0
  9 17  1  0
 17 18  1  0
 18 19  1  0
 19 20  2  0
 20 21  1  0
 21 22  2  0
 22 23  1  0
 23 24  2  0
 24 25  1  0
 25  2  1  0
  8  3  1  0
 25 17  2  0
 24 19  1  0
  1 26  1  0
  1 27  1  0
  1 28  1  0
  4 29  1  0
  5 30  1  0
  6 31  1  0
  7 32  1  0
 10 33  1  0
 11 34  1  0
 11 35  1  0
 12 36  1  0
 12 37  1  0
 13 38  1  0
 13 39  1  0
 14 40  1  0
 14 41  1  0
 15 42  1  0
 15 43  1  0
 18 44  1  0
 20 45  1  0
 21 46  1  0
 22 47  1  0
 23 48  1  0
M  CHG  2   2   1  13   1
M  END
>  <UniqueID>  (5) 
5

>  <SMILES>  (5) 
C[n+]1c2ccccc2c(NCC[NH2+]CCBr)c2[nH]c3ccccc3c21

>  <Energy>  (5) 
108.02686980682229

>  <Genealogy>  (5) 
C[n+]1c2ccccc2c(NCC[NH2+]CCBr)c2[nH]c3ccccc3c21 (protonated)
C[n+]1c2ccccc2c(NCC[NH2+]CCBr)c2[nH]c3ccccc3c21 (3D coordinates assigned)
C[n+]1c2ccccc2c(NCC[NH2+]CCBr)c2[nH]c3ccccc3c21 (optimized conformer: 108.02686980682229 kcal/mol)

>  <smiles>  (5) 
C[n+]1c2ccccc2c(NCCNCCBr)c2[nH]c3ccccc3c21

>  <score_type>  (5) 
oracle

>  <origin>  (5) 
adg

>  <m_score__min__energy>  (5) 
-7.7699999999999996

>  <m_primary>  (5) 
energy

$$$$
5:0
     RDKit          3D

 49 51  0  0  0  0  0  0  0  0999 V2000
   -0.4860   24.0250  -28.2850 C   0  0  0  0  0  0  0  0  0  0  0  0
   -1.5970   24.9800  -28.7160 C   0  0  0  0  0  0  0  0  0  0  0  0
   -2.9150   24.3390  -28.5720 N   0  0  0  0  0  0  0  0  0  0  0  0
   -3.7040   24.5440  -27.3450 C   0  0  0  0  0  0  0  0  0  0  0  0
   -2.8910   25.2960  -26.2980 C   0  0  0  0  0  0  0  0  0  0  0  0
   -3.4460   23.5360  -29.6480 C   0  0  0  0  0  0  0  0  0  0  0  0
   -4.8050   23.6110  -29.9870 C   0  0  0  0  0  0  0  0  0  0  0  0
   -5.3190   22.8340  -31.0260 C   0  0  0  0  0  0  0  0  0  0  0  0
   -4.4900   21.9530  -31.7410 C   0  0  0  0  0  0  0  0  0  0  0  0
   -3.1110   21.9160  -31.4430 C   0  0  0  0  0  0  0  0  0  0  0  0
   -2.6060   22.6830  -30.3800 C   0  0  0  0  0  0  0  0  0  0  0  0
   -2.1780   21.0130  -32.2140 C   0  0  0  0  0  0  0  0  0  0  0  0
   -2.7020   20.7180  -33.5630 N   0  0  1  0  0  0  0  0  0  0  0  0
   -1.7960   19.7950  -34.2680 C   0  0  0  0  0  0  0  0  0  0  0  0
   -4.0520   20.1290  -33.4640 C   0  0  0  0  0  0  0  0  0  0  0  0
   -5.0610   21.1530  -32.9000 C   0  0  1  0  0  0  0  0  0  0  0  0
   -6.3510   20.4510  -32.5160 C   0  0  0  0  0  0  0  0  0  0  0  0
   -7.5490   21.1770  -32.3670 C   0  0  0  0  0  0  0  0  0  0  0  0
   -8.7350   20.5220  -32.0230 C   0  0  0  0  0  0  0  0  0  0  0  0
   -8.7380   19.1400  -31.8240 C   0  0  0  0  0  0  0  0  0  0  0  0
   -7.5550   18.4110  -31.9610 C   0  0  0  0  0  0  0  0  0  0  0  0
   -6.3660   19.0600  -32.3050 C   0  0  0  0  0  0  0  0  0  0  0  0
   -0.4412   23.9865  -27.1866 H   0  0  0  0  0  0  0  0  0  0  0  0
   -0.6937   23.0192  -28.6790 H   0  0  0  0  0  0  0  0  0  0  0  0
    0.4772   24.3814  -28.6790 H   0  0  0  0  0  0  0  0  0  0  0  0
   -1.5628   25.8819  -28.0872 H   0  0  0  0  0  0  0  0  0  0  0  0
   -1.4456   25.2472  -29.7723 H   0  0  0  0  0  0  0  0  0  0  0  0
   -4.6049   25.1263  -27.5886 H   0  0  0  0  0  0  0  0  0  0  0  0
   -3.9821   23.5613  -26.9364 H   0  0  0  0  0  0  0  0  0  0  0  0
   -3.2184   24.9931  -25.2925 H   0  0  0  0  0  0  0  0  0  0  0  0
   -1.8240   25.0595  -26.4229 H   0  0  0  0  0  0  0  0  0  0  0  0
   -3.0437   26.3782  -26.4229 H   0  0  0  0  0  0  0  0  0  0  0  0
   -5.4703   24.2871  -29.4299 H   0  0  0  0  0  0  0  0  0  0  0  0
   -6.3845   22.9120  -31.2881 H   0  0  0  0  0  0  0  0  0  0  0  0
   -1.5398   22.6141  -30.1184 H   0  0  0  0  0  0  0  0  0  0  0  0
   -1.2004   21.5079  -32.3107 H   0  0  0  0  0  0  0  0  0  0  0  0
   -2.0842   20.0643  -31.6652 H   0  0  0  0  0  0  0  0  0  0  0  0
   -2.7500   21.6080  -34.1170 H   0  0  0  0  0  0  0  0  0  0  0  0
   -1.2228   19.2110  -33.5329 H   0  0  0  0  0  0  0  0  0  0  0  0
   -2.3853   19.1132  -34.8988 H   0  0  0  0  0  0  0  0  0  0  0  0
   -1.1034   20.3715  -34.8988 H   0  0  0  0  0  0  0  0  0  0  0  0
   -4.3812   19.8130  -34.4649 H   0  0  0  0  0  0  0  0  0  0  0  0
   -4.0095   19.2663  -32.7829 H   0  0  0  0  0  0  0  0  0  0  0  0
   -5.2796   21.8834  -33.6929 H   0  0  0  0  0  0  0  0  0  0  0  0
   -7.5512   22.2660  -32.5223 H   0  0  0  0  0  0  0  0  0  0  0  0
   -9.6666   21.0957  -31.9090 H   0  0  0  0  0  0  0  0  0  0  0  0
   -9.6732   18.6250  -31.5590 H   0  0  0  0  0  0  0  0  0  0  0  0
   -7.5589   17.3232  -31.7978 H   0  0  0  0  0  0  0  0  0  0  0  0
   -5.4372   18.4804  -32.4113 H   0  0  0  0  0  0  0  0  0  0  0  0
  1  2  1  0
  2  3  1  0
  3  4  1  0
  4  5  1  0
  3  6  1  0
  6  7  2  0
  7  8  1  0
  8  9  2  0
  9 10  1  0
 10 11  2  0
 10 12  1  0
 12 13  1  0
 13 14  1  0
 13 15  1  0
 15 16  1  0
 16 17  1  0
 17 18  2  0
 18 19  1  0
 19 20  2  0
 20 21  1  0
 21 22  2  0
 11  6  1  0
 22 17  1  0
 16  9  1  0
  1 23  1  0
  1 24  1  0
  1 25  1  0
  2 26  1  0
  2 27  1  0
  4 28  1  0
  4 29  1  0
  5 30  1  0
  5 31  1  0
  5 32  1  0
  7 33  1  0
  8 34  1  0
 11 35  1  0
 12 36  1  0
 12 37  1  0
 13 38  1  6
 14 39  1  0
 14 40  1  0
 14 41  1  0
 15 42  1  0
 15 43  1  0
 16 44  1  6
 18 45  1  0
 19 46  1  0
 20 47  1  0
 21 48  1  0
 22 49  1  0
M  CHG  1  13   1
M  END
>  <UniqueID>  (6) 
6

>  <SMILES>  (6) 
CCN(CC)c1ccc2c(c1)C[N@@H+](C)C[C@H]2c1ccccc1

>  <Energy>  (6) 
51.82599067362433

>  <Genealogy>  (6) 
CCN(CC)c1ccc2c(c1)C[NH+](C)CC2c1ccccc1 (protonated)
CCN(CC)c1ccc2c(c1)C[N@@H+](C)C[C@H]2c1ccccc1 (chirality)
CCN(CC)c1ccc2c(c1)C[N@@H+](C)C[C@H]2c1ccccc1 (3D coordinates assigned)
CCN(CC)c1ccc2c(c1)C[N@@H+](C)C[C@H]2c1ccccc1 (nonaromatic ring conformer: 51.82599067362433 kcal/mol)

>  <smiles>  (6) 
CCN(CC)c1ccc2c(c1)CN(C)CC2c1ccccc1

>  <score_type>  (6) 
oracle

>  <origin>  (6) 
adg

>  <m_score__min__energy>  (6) 
-7.2999999999999998

>  <m_primary>  (6) 
energy

$$$$
6:0
     RDKit          3D

 45 47  0  0  0  0  0  0  0  0999 V2000
   -6.5640   25.6700  -29.3370 C   0  0  0  0  0  0  0  0  0  0  0  0
   -6.8540   24.3390  -30.0230 C   0  0  0  0  0  0  0  0  0  0  0  0
   -5.8420   24.0620  -31.0530 N   0  0  0  0  0  0  0  0  0  0  0  0
   -6.2520   23.5190  -32.3600 C   0  0  0  0  0  0  0  0  0  0  0  0
   -6.9980   22.2200  -32.1890 C   0  0  0  0  0  0  0  0  0  0  0  0
   -8.3710   22.2260  -31.8870 C   0  0  0  0  0  0  0  0  0  0  0  0
   -9.0720   21.0230  -31.7650 C   0  0  0  0  0  0  0  0  0  0  0  0
   -8.4090   19.8060  -31.9400 C   0  0  0  0  0  0  0  0  0  0  0  0
   -9.0910   18.6400  -31.8210 F   0  0  0  0  0  0  0  0  0  0  0  0
   -7.0440   19.7900  -32.2380 C   0  0  0  0  0  0  0  0  0  0  0  0
   -6.3380   20.9900  -32.3660 C   0  0  0  0  0  0  0  0  0  0  0  0
   -5.0140   20.9550  -32.6630 F   0  0  0  0  0  0  0  0  0  0  0  0
   -4.4430   24.2130  -30.7230 C   0  0  0  0  0  0  0  0  0  0  0  0
   -3.8900   25.3390  -30.8540 O   0  0  0  0  0  0  0  0  0  0  0  0
   -3.6410   23.0820  -30.2160 C   0  0  0  0  0  0  0  0  0  0  0  0
   -2.8230   22.3520  -31.0920 C   0  0  0  0  0  0  0  0  0  0  0  0
   -2.0450   21.2940  -30.6150 C   0  0  0  0  0  0  0  0  0  0  0  0
   -2.0820   20.9360  -29.2560 C   0  0  0  0  0  0  0  0  0  0  0  0
   -1.2490   19.8160  -28.7470 C   0  0  0  0  0  0  0  0  0  0  0  0
   -0.0770   19.4300  -29.4250 C   0  0  0  0  0  0  0  0  0  0  0  0
    0.7040   18.3750  -28.9430 C   0  0  0  0  0  0  0  0  0  0  0  0
    0.3260   17.6960  -27.7830 C   0  0  0  0  0  0  0  0  0  0  0  0
   -0.8350   18.0690  -27.1020 C   0  0  0  0  0  0  0  0  0  0  0  0
   -1.6200   19.1250  -27.5790 C   0  0  0  0  0  0  0  0  0  0  0  0
   -2.9240   21.6530  -28.3870 C   0  0  0  0  0  0  0  0  0  0  0  0
   -3.6990   22.7140  -28.8650 C   0  0  0  0  0  0  0  0  0  0  0  0
   -6.5936   25.5342  -28.2458 H   0  0  0  0  0  0  0  0  0  0  0  0
   -5.5671   26.0267  -29.6352 H   0  0  0  0  0  0  0  0  0  0  0  0
   -7.3222   26.4091  -29.6352 H   0  0  0  0  0  0  0  0  0  0  0  0
   -6.8382   23.5340  -29.2736 H   0  0  0  0  0  0  0  0  0  0  0  0
   -7.8437   24.3917  -30.5002 H   0  0  0  0  0  0  0  0  0  0  0  0
   -6.9052   24.2465  -32.8641 H   0  0  0  0  0  0  0  0  0  0  0  0
   -5.3511   23.3319  -32.9628 H   0  0  0  0  0  0  0  0  0  0  0  0
   -8.8962   23.1822  -31.7460 H   0  0  0  0  0  0  0  0  0  0  0  0
  -10.1468   21.0346  -31.5310 H   0  0  0  0  0  0  0  0  0  0  0  0
   -6.5233   18.8304  -32.3723 H   0  0  0  0  0  0  0  0  0  0  0  0
   -2.7942   22.6142  -32.1599 H   0  0  0  0  0  0  0  0  0  0  0  0
   -1.3982   20.7366  -31.3085 H   0  0  0  0  0  0  0  0  0  0  0  0
    0.2261   19.9614  -30.3392 H   0  0  0  0  0  0  0  0  0  0  0  0
    1.6181   18.0794  -29.4788 H   0  0  0  0  0  0  0  0  0  0  0  0
    0.9427   16.8671  -27.4054 H   0  0  0  0  0  0  0  0  0  0  0  0
   -1.1329   17.5320  -26.1894 H   0  0  0  0  0  0  0  0  0  0  0  0
   -2.5322   19.4163  -27.0376 H   0  0  0  0  0  0  0  0  0  0  0  0
   -2.9732   21.3769  -27.3233 H   0  0  0  0  0  0  0  0  0  0  0  0
   -4.3582   23.2631  -28.1766 H   0  0  0  0  0  0  0  0  0  0  0  0
  1  2  1  0
  2  3  1  0
  3  4  1  0
  4  5  1  0
  5  6  2  0
  6  7  1  0
  7  8  2  0
  8  9  1  0
  8 10  1  0
 10 11  2  0
 11 12  1  0
  3 13  1  0
 13 14  2  0
 13 15  1  0
 15 16  2  0
 16 17  1  0
 17 18  2  0
 18 19  1  0
 19 20  2  0
 20 21  1  0
 21 22  2  0
 22 23  1  0
 23 24  2  0
 18 25  1  0
 25 26  2  0
 11  5  1  0
 26 15  1  0
 24 19  1  0
  1 27  1  0
  1 28  1  0
  1 29  1  0
  2 30  1  0
  2 31  1  0
  4 32  1  0
  4 33  1  0
  6 34  1  0
  7 35  1  0
 10 36  1  0
 16 37  1  0
 17 38  1  0
 20 39  1  0
 21 40  1  0
 22 41  1  0
 23 42  1  0
 24 43  1  0
 25 44  1  0
 26 45  1  0
M  END
>  <UniqueID>  (7) 
7

>  <SMILES>  (7) 
CCN(Cc1ccc(F)cc1F)C(=O)c1ccc(-c2ccccc2)cc1

>  <Energy>  (7) 
52.52730371417972

>  <Genealogy>  (7) 
CCN(Cc1ccc(F)cc1F)C(=O)c1ccc(-c2ccccc2)cc1 (3D coordinates assigned)
CCN(Cc1ccc(F)cc1F)C(=O)c1ccc(-c2ccccc2)cc1 (optimized conformer: 52.52730371417972 kcal/mol)

>  <smiles>  (7) 
CCN(Cc1ccc(F)cc1F)C(=O)c1ccc(-c2ccccc2)cc1

>  <score_type>  (7) 
oracle

>  <origin>  (7) 
adg

>  <m_score__min__energy>  (7) 
-8.5099999999999998

>  <m_primary>  (7) 
energy

$$$$
7:0
     RDKit          3D

 58 61  0  0  0  0  0  0  0  0999 V2000
   -5.5680   24.8900  -29.7280 C   0  0  0  0  0  0  0  0  0  0  0  0
   -5.3110   23.4650  -29.2160 C   0  0  0  0  0  0  0  0  0  0  0  0
   -3.9080   23.0220  -29.4190 N   0  0  1  0  0  0  0  0  0  0  0  0
   -2.9820   24.1740  -29.3660 C   0  0  0  0  0  0  0  0  0  0  0  0
   -3.5530   22.0150  -28.3830 C   0  0  0  0  0  0  0  0  0  0  0  0
   -2.8020   20.8000  -28.9610 C   0  0  0  0  0  0  0  0  0  0  0  0
   -3.1340   20.6270  -30.3270 O   0  0  0  0  0  0  0  0  0  0  0  0
   -1.9790   20.4120  -31.1170 C   0  0  0  0  0  0  0  0  0  0  0  0
   -1.8500   21.5080  -32.1760 C   0  0  0  0  0  0  0  0  0  0  0  0
   -2.6010   21.1440  -33.3760 N   0  0  0  0  0  0  0  0  0  0  0  0
   -3.7220   20.2490  -33.3040 C   0  0  0  0  0  0  0  0  0  0  0  0
   -4.9630   20.7050  -32.8710 C   0  0  0  0  0  0  0  0  0  0  0  0
   -6.0620   19.8660  -32.8150 C   0  0  0  0  0  0  0  0  0  0  0  0
   -5.9530   18.5200  -33.0630 N   0  0  0  0  0  0  0  0  0  0  0  0
   -7.0480   17.6100  -32.6850 C   0  0  0  0  0  0  0  0  0  0  0  0
   -4.7680   18.0410  -33.6030 C   0  0  0  0  0  0  0  0  0  0  0  0
   -4.6570   16.7160  -34.0910 C   0  0  0  0  0  0  0  0  0  0  0  0
   -3.4510   16.2370  -34.6040 C   0  0  0  0  0  0  0  0  0  0  0  0
   -2.3330   17.0630  -34.6590 C   0  0  0  0  0  0  0  0  0  0  0  0
   -2.4140   18.3840  -34.2200 C   0  0  0  0  0  0  0  0  0  0  0  0
   -3.6210   18.8970  -33.7030 C   0  0  0  0  0  0  0  0  0  0  0  0
   -7.2290   20.6680  -32.3690 C   0  0  0  0  0  0  0  0  0  0  0  0
   -8.6030   20.3840  -32.3490 C   0  0  0  0  0  0  0  0  0  0  0  0
   -9.4940   21.3920  -31.9440 C   0  0  0  0  0  0  0  0  0  0  0  0
   -9.0200   22.6740  -31.6080 C   0  0  0  0  0  0  0  0  0  0  0  0
   -7.6500   22.9680  -31.6970 C   0  0  0  0  0  0  0  0  0  0  0  0
   -6.7820   21.9510  -32.0880 C   0  0  0  0  0  0  0  0  0  0  0  0
   -5.3590   22.0230  -32.3780 C   0  0  0  0  0  0  0  0  0  0  0  0
   -4.6160   23.0250  -32.2090 O   0  0  0  0  0  0  0  0  0  0  0  0
   -5.6907   25.5704  -28.8725 H   0  0  0  0  0  0  0  0  0  0  0  0
   -4.7148   25.2195  -30.3391 H   0  0  0  0  0  0  0  0  0  0  0  0
   -6.4826   24.9007  -30.3391 H   0  0  0  0  0  0  0  0  0  0  0  0
   -5.5371   23.4326  -28.1400 H   0  0  0  0  0  0  0  0  0  0  0  0
   -5.9579   22.7861  -29.7909 H   0  0  0  0  0  0  0  0  0  0  0  0
   -3.8340   22.5740  -30.3640 H   0  0  0  0  0  0  0  0  0  0  0  0
   -2.7757   24.4306  -28.3164 H   0  0  0  0  0  0  0  0  0  0  0  0
   -2.0408   23.9114  -29.8711 H   0  0  0  0  0  0  0  0  0  0  0  0
   -3.4408   25.0368  -29.8711 H   0  0  0  0  0  0  0  0  0  0  0  0
   -2.9131   22.4972  -27.6294 H   0  0  0  0  0  0  0  0  0  0  0  0
   -4.4924   21.6454  -27.9460 H   0  0  0  0  0  0  0  0  0  0  0  0
   -1.7183   20.9643  -28.8680 H   0  0  0  0  0  0  0  0  0  0  0  0
   -3.0932   19.8980  -28.4028 H   0  0  0  0  0  0  0  0  0  0  0  0
   -1.0892   20.4254  -30.4704 H   0  0  0  0  0  0  0  0  0  0  0  0
   -2.0647   19.4370  -31.6190 H   0  0  0  0  0  0  0  0  0  0  0  0
   -2.2461   22.4514  -31.7721 H   0  0  0  0  0  0  0  0  0  0  0  0
   -0.7889   21.6276  -32.4402 H   0  0  0  0  0  0  0  0  0  0  0  0
   -2.5100   21.7610  -34.2130 H   0  0  0  0  0  0  0  0  0  0  0  0
   -7.1159   17.5536  -31.5885 H   0  0  0  0  0  0  0  0  0  0  0  0
   -7.9969   17.9892  -33.0921 H   0  0  0  0  0  0  0  0  0  0  0  0
   -6.8488   16.6077  -33.0921 H   0  0  0  0  0  0  0  0  0  0  0  0
   -5.5353   16.0542  -34.0652 H   0  0  0  0  0  0  0  0  0  0  0  0
   -3.3840   15.2007  -34.9669 H   0  0  0  0  0  0  0  0  0  0  0  0
   -1.3818   16.6727  -35.0501 H   0  0  0  0  0  0  0  0  0  0  0  0
   -1.5272   19.0323  -34.2777 H   0  0  0  0  0  0  0  0  0  0  0  0
   -8.9751   19.3919  -32.6445 H   0  0  0  0  0  0  0  0  0  0  0  0
  -10.5715   21.1774  -31.8890 H   0  0  0  0  0  0  0  0  0  0  0  0
   -9.7259   23.4488  -31.2743 H   0  0  0  0  0  0  0  0  0  0  0  0
   -7.2721   23.9745  -31.4642 H   0  0  0  0  0  0  0  0  0  0  0  0
  1  2  1  0
  2  3  1  0
  3  4  1  0
  3  5  1  0
  5  6  1  0
  6  7  1  0
  7  8  1  0
  8  9  1  0
  9 10  1  0
 10 11  1  0
 11 12  2  0
 12 13  1  0
 13 14  2  0
 14 15  1  0
 14 16  1  0
 16 17  2  0
 17 18  1  0
 18 19  2  0
 19 20  1  0
 20 21  2  0
 13 22  1  0
 22 23  2  0
 23 24  1  0
 24 25  2  0
 25 26  1  0
 26 27  2  0
 27 28  1  0
 28 29  2  0
 21 11  1  0
 27 22  1  0
 28 12  1  0
 21 16  1  0
  1 30  1  0
  1 31  1  0
  1 32  1  0
  2 33  1  0
  2 34  1  0
  3 35  1  6
  4 36  1  0
  4 37  1  0
  4 38  1  0
  5 39  1  0
  5 40  1  0
  6 41  1  0
  6 42  1  0
  8 43  1  0
  8 44  1  0
  9 45  1  0
  9 46  1  0
 10 47  1  0
 15 48  1  0
 15 49  1  0
 15 50  1  0
 17 51  1  0
 18 52  1  0
 19 53  1  0
 20 54  1  0
 23 55  1  0
 24 56  1  0
 25 57  1  0
 26 58  1  0
M  CHG  2   3   1  14   1
M  END
>  <UniqueID>  (8) 
8

>  <SMILES>  (8) 
CC[N@@H+](C)CCOCCNc1c2c([n+](C)c3ccccc13)-c1ccccc1C2=O

>  <Energy>  (8) 
116.96187698924342

>  <Genealogy>  (8) 
CC[NH+](C)CCOCCNc1c2c([n+](C)c3ccccc13)-c1ccccc1C2=O (protonated)
CC[N@@H+](C)CCOCCNc1c2c([n+](C)c3ccccc13)-c1ccccc1C2=O (chirality)
CC[N@@H+](C)CCOCCNc1c2c([n+](C)c3ccccc13)-c1ccccc1C2=O (3D coordinates assigned)
CC[N@@H+](C)CCOCCNc1c2c([n+](C)c3ccccc13)-c1ccccc1C2=O (nonaromatic ring conformer: 116.96187698924342 kcal/mol)

>  <smiles>  (8) 
CCN(C)CCOCCNc1c2c([n+](C)c3ccccc13)-c1ccccc1C2=O

>  <score_type>  (8) 
oracle

>  <origin>  (8) 
adg

>  <m_score__min__energy>  (8) 
-7.3700000000000001

>  <m_primary>  (8) 
energy

$$$$
8:0
     RDKit          3D

 57 61  0  0  0  0  0  0  0  0999 V2000
   -0.4930   26.8180  -23.4440 C   0  0  0  0  0  0  0  0  0  0  0  0
   -1.0510   27.2600  -24.6790 O   0  0  0  0  0  0  0  0  0  0  0  0
   -1.3590   26.4130  -25.7540 C   0  0  0  0  0  0  0  0  0  0  0  0
   -0.5280   26.2940  -26.8840 C   0  0  0  0  0  0  0  0  0  0  0  0
   -0.8750   25.4300  -27.9260 C   0  0  0  0  0  0  0  0  0  0  0  0
   -2.0560   24.6690  -27.8620 C   0  0  0  0  0  0  0  0  0  0  0  0
   -2.4150   23.7360  -28.9590 C   0  0  0  0  0  0  0  0  0  0  0  0
   -1.4110   23.1120  -29.7170 C   0  0  0  0  0  0  0  0  0  0  0  0
   -1.7390   22.2360  -30.7530 C   0  0  0  0  0  0  0  0  0  0  0  0
   -3.0850   21.9670  -31.0550 C   0  0  0  0  0  0  0  0  0  0  0  0
   -3.4670   21.0910  -32.0870 C   0  0  0  0  0  0  0  0  0  0  0  0
   -2.5020   20.4150  -32.9020 N   0  0  0  0  0  0  0  0  0  0  0  0
   -1.6180   21.2080  -33.7610 C   0  0  0  0  0  0  0  0  0  0  0  0
   -0.3760   20.3980  -34.1410 C   0  0  0  0  0  0  0  0  0  0  0  0
   -0.7400   19.1190  -34.6150 O   0  0  0  0  0  0  0  0  0  0  0  0
   -1.2930   18.3670  -33.5550 C   0  0  0  0  0  0  0  0  0  0  0  0
   -2.6270   18.9660  -33.0940 C   0  0  0  0  0  0  0  0  0  0  0  0
   -4.7860   20.8740  -32.3220 N   0  0  0  0  0  0  0  0  0  0  0  0
   -5.7600   21.4780  -31.5920 C   0  0  0  0  0  0  0  0  0  0  0  0
   -7.1440   21.2150  -31.9000 N   0  0  0  0  0  0  0  0  0  0  0  0
   -7.5330   20.0510  -32.7050 C   0  0  0  0  0  0  0  0  0  0  0  0
   -8.9510   19.5980  -32.3350 C   0  0  0  0  0  0  0  0  0  0  0  0
   -9.8570   20.6830  -32.3530 O   0  0  0  0  0  0  0  0  0  0  0  0
   -9.5010   21.6160  -31.3530 C   0  0  0  0  0  0  0  0  0  0  0  0
   -8.1510   22.2580  -31.6760 C   0  0  0  0  0  0  0  0  0  0  0  0
   -5.4120   22.3260  -30.5800 N   0  0  0  0  0  0  0  0  0  0  0  0
   -4.1020   22.5860  -30.2990 C   0  0  0  0  0  0  0  0  0  0  0  0
   -3.7620   23.4650  -29.2570 C   0  0  0  0  0  0  0  0  0  0  0  0
   -2.8860   24.7980  -26.7340 C   0  0  0  0  0  0  0  0  0  0  0  0
   -2.5370   25.6620  -25.6930 C   0  0  0  0  0  0  0  0  0  0  0  0
   -1.0538   27.2622  -22.6084 H   0  0  0  0  0  0  0  0  0  0  0  0
   -0.5550   25.7213  -23.3853 H   0  0  0  0  0  0  0  0  0  0  0  0
    0.5604   27.1294  -23.3853 H   0  0  0  0  0  0  0  0  0  0  0  0
    0.3985   26.8837  -26.9470 H   0  0  0  0  0  0  0  0  0  0  0  0
   -0.2184   25.3443  -28.8044 H   0  0  0  0  0  0  0  0  0  0  0  0
   -0.3538   23.3159  -29.4917 H   0  0  0  0  0  0  0  0  0  0  0  0
   -0.9403   21.7539  -31.3358 H   0  0  0  0  0  0  0  0  0  0  0  0
   -2.1598   21.4913  -34.6755 H   0  0  0  0  0  0  0  0  0  0  0  0
   -1.3029   22.1088  -33.2140 H   0  0  0  0  0  0  0  0  0  0  0  0
    0.1759   20.9315  -34.9289 H   0  0  0  0  0  0  0  0  0  0  0  0
    0.2547   20.2778  -33.2478 H   0  0  0  0  0  0  0  0  0  0  0  0
   -1.4608   17.3346  -33.8956 H   0  0  0  0  0  0  0  0  0  0  0  0
   -0.5901   18.3842  -32.7091 H   0  0  0  0  0  0  0  0  0  0  0  0
   -3.3953   18.7670  -33.8556 H   0  0  0  0  0  0  0  0  0  0  0  0
   -2.9120   18.5042  -32.1372 H   0  0  0  0  0  0  0  0  0  0  0  0
   -7.5049   20.3212  -33.7709 H   0  0  0  0  0  0  0  0  0  0  0  0
   -6.8310   19.2277  -32.5064 H   0  0  0  0  0  0  0  0  0  0  0  0
   -9.2853   18.8398  -33.0584 H   0  0  0  0  0  0  0  0  0  0  0  0
   -8.9283   19.1810  -31.3174 H   0  0  0  0  0  0  0  0  0  0  0  0
  -10.2709   22.3998  -31.2986 H   0  0  0  0  0  0  0  0  0  0  0  0
   -9.4244   21.0923  -30.3887 H   0  0  0  0  0  0  0  0  0  0  0  0
   -8.2471   22.8732  -32.5828 H   0  0  0  0  0  0  0  0  0  0  0  0
   -7.8380   22.8887  -30.8308 H   0  0  0  0  0  0  0  0  0  0  0  0
   -6.1550   22.7700  -29.9940 H   0  0  0  0  0  0  0  0  0  0  0  0
   -4.5574   23.9458  -28.6687 H   0  0  0  0  0  0  0  0  0  0  0  0
   -3.8164   24.2146  -26.6709 H   0  0  0  0  0  0  0  0  0  0  0  0
   -3.1955   25.7524  -24.8166 H   0  0  0  0  0  0  0  0  0  0  0  0
  1  2  1  0
  2  3  1  0
  3  4  2  0
  4  5  1  0
  5  6  2  0
  6  7  1  0
  7  8  2  0
  8  9  1  0
  9 10  2  0
 10 11  1  0
 11 12  1  0
 12 13  1  0
 13 14  1  0
 14 15  1  0
 15 16  1  0
 16 17  1  0
 11 18  2  0
 18 19  1  0
 19 20  1  0
 20 21  1  0
 21 22  1  0
 22 23  1  0
 23 24  1  0
 24 25  1  0
 19 26  2  0
 26 27  1  0
 27 28  2  0
  6 29  1  0
 29 30  2  0
 30  3  1  0
 28  7  1  0
 27 10  1  0
 17 12  1  0
 25 20  1  0
  1 31  1  0
  1 32  1  0
  1 33  1  0
  4 34  1  0
  5 35  1  0
  8 36  1  0
  9 37  1  0
 13 38  1  0
 13 39  1  0
 14 40  1  0
 14 41  1  0
 16 42  1  0
 16 43  1  0
 17 44  1  0
 17 45  1  0
 21 46  1  0
 21 47  1  0
 22 48  1  0
 22 49  1  0
 24 50  1  0
 24 51  1  0
 25 52  1  0
 25 53  1  0
 26 54  1  0
 28 55  1  0
 29 56  1  0
 30 57  1  0
M  CHG  1  26   1
M  END
>  <UniqueID>  (9) 
9

>  <SMILES>  (9) 
COc1ccc(-c2ccc3c(N4CCOCC4)nc(N4CCOCC4)[nH+]c3c2)cc1

>  <Energy>  (9) 
81.16139104084473

>  <Genealogy>  (9) 
COc1ccc(-c2ccc3c(N4CCOCC4)nc(N4CCOCC4)[nH+]c3c2)cc1 (protonated)
COc1ccc(-c2ccc3c(N4CCOCC4)nc(N4CCOCC4)[nH+]c3c2)cc1 (3D coordinates assigned)
COc1ccc(-c2ccc3c(N4CCOCC4)nc(N4CCOCC4)[nH+]c3c2)cc1 (nonaromatic ring conformer: 81.16139104084473 kcal/mol)

>  <smiles>  (9) 
COc1ccc(-c2ccc3c(N4CCOCC4)nc(N4CCOCC4)nc3c2)cc1

>  <score_type>  (9) 
oracle

>  <origin>  (9) 
adg

>  <m_score__min__energy>  (9) 
-7.5

>  <m_primary>  (9) 
energy

$$$$
9:0
     RDKit          3D

 63 66  0  0  0  0  0  0  0  0999 V2000
    0.2540   20.7510  -35.4630 C   0  0  0  0  0  0  0  0  0  0  0  0
   -0.3690   19.4600  -34.9440 C   0  0  0  0  0  0  0  0  0  0  0  0
   -1.5760   19.7290  -34.2530 O   0  0  0  0  0  0  0  0  0  0  0  0
   -1.5510   21.0040  -33.6320 C   0  0  0  0  0  0  0  0  0  0  0  0
   -2.0730   20.9060  -32.1950 C   0  0  0  0  0  0  0  0  0  0  0  0
   -3.4110   21.5220  -32.0670 N   0  0  0  0  0  0  0  0  0  0  0  0
   -3.4710   22.7620  -31.4880 C   0  0  0  0  0  0  0  0  0  0  0  0
   -4.6860   23.4330  -31.2970 C   0  0  0  0  0  0  0  0  0  0  0  0
   -4.6870   24.7680  -30.6360 C   0  0  0  0  0  0  0  0  0  0  0  0
   -5.7470   25.4510  -30.6040 O   0  0  0  0  0  0  0  0  0  0  0  0
   -3.4880   25.2980  -30.0590 N   0  0  0  0  0  0  0  0  0  0  0  0
   -2.6480   24.5730  -29.1080 C   0  0  0  0  0  0  0  0  0  0  0  0
   -3.5390   23.9700  -27.9950 C   0  0  0  0  0  0  0  0  0  0  0  0
   -3.6630   24.9120  -26.7920 C   0  0  0  0  0  0  0  0  0  0  0  0
   -2.2920   25.2020  -26.1480 C   0  0  0  0  0  0  0  0  0  0  0  0
   -1.1160   25.1100  -27.1410 C   0  0  0  0  0  0  0  0  0  0  0  0
   -1.5460   25.5110  -28.5560 C   0  0  0  0  0  0  0  0  0  0  0  0
   -5.8700   22.8140  -31.7330 C   0  0  0  0  0  0  0  0  0  0  0  0
   -6.9780   23.4060  -31.6120 O   0  0  0  0  0  0  0  0  0  0  0  0
   -5.8210   21.5330  -32.3120 C   0  0  0  0  0  0  0  0  0  0  0  0
   -7.0020   20.8910  -32.7330 C   0  0  0  0  0  0  0  0  0  0  0  0
   -6.9580   19.6140  -33.2830 C   0  0  0  0  0  0  0  0  0  0  0  0
   -5.7400   18.9430  -33.4220 C   0  0  0  0  0  0  0  0  0  0  0  0
   -5.7090   17.6160  -33.9790 N   0  0  0  0  0  0  0  0  0  0  0  0
   -6.8360   16.7010  -33.7590 C   0  0  0  0  0  0  0  0  0  0  0  0
   -6.4600   15.2810  -34.1850 C   0  0  0  0  0  0  0  0  0  0  0  0
   -5.1190   15.0270  -33.8270 O   0  0  0  0  0  0  0  0  0  0  0  0
   -4.2420   15.7320  -34.6890 C   0  0  0  0  0  0  0  0  0  0  0  0
   -4.6220   17.2190  -34.8840 C   0  0  0  0  0  0  0  0  0  0  0  0
   -4.5550   19.5770  -33.0210 C   0  0  0  0  0  0  0  0  0  0  0  0
   -4.5690   20.8820  -32.4650 C   0  0  0  0  0  0  0  0  0  0  0  0
    0.5573   21.3795  -34.6127 H   0  0  0  0  0  0  0  0  0  0  0  0
    1.1360   20.5122  -36.0754 H   0  0  0  0  0  0  0  0  0  0  0  0
   -0.4818   21.2929  -36.0754 H   0  0  0  0  0  0  0  0  0  0  0  0
   -0.5800   18.7939  -35.7936 H   0  0  0  0  0  0  0  0  0  0  0  0
    0.3369   18.9809  -34.2496 H   0  0  0  0  0  0  0  0  0  0  0  0
   -0.5175   21.3805  -33.6177 H   0  0  0  0  0  0  0  0  0  0  0  0
   -2.1947   21.6914  -34.2004 H   0  0  0  0  0  0  0  0  0  0  0  0
   -2.1376   19.8459  -31.9086 H   0  0  0  0  0  0  0  0  0  0  0  0
   -1.3776   21.4454  -31.5351 H   0  0  0  0  0  0  0  0  0  0  0  0
   -2.5376   23.2452  -31.1634 H   0  0  0  0  0  0  0  0  0  0  0  0
   -2.1334   23.7380  -29.6059 H   0  0  0  0  0  0  0  0  0  0  0  0
   -4.5423   23.7820  -28.4049 H   0  0  0  0  0  0  0  0  0  0  0  0
   -3.0710   23.0359  -27.6509 H   0  0  0  0  0  0  0  0  0  0  0  0
   -4.1068   25.8610  -27.1272 H   0  0  0  0  0  0  0  0  0  0  0  0
   -4.2980   24.4228  -26.0387 H   0  0  0  0  0  0  0  0  0  0  0  0
   -2.3131   26.2176  -25.7260 H   0  0  0  0  0  0  0  0  0  0  0  0
   -2.1267   24.4343  -25.3777 H   0  0  0  0  0  0  0  0  0  0  0  0
   -0.3123   25.7827  -26.8071 H   0  0  0  0  0  0  0  0  0  0  0  0
   -0.7666   24.0673  -27.1679 H   0  0  0  0  0  0  0  0  0  0  0  0
   -1.9331   26.5404  -28.5326 H   0  0  0  0  0  0  0  0  0  0  0  0
   -0.6688   25.4342  -29.2153 H   0  0  0  0  0  0  0  0  0  0  0  0
   -7.9688   21.4046  -32.6258 H   0  0  0  0  0  0  0  0  0  0  0  0
   -7.8890   19.1286  -33.6110 H   0  0  0  0  0  0  0  0  0  0  0  0
   -7.1001   16.7012  -32.6912 H   0  0  0  0  0  0  0  0  0  0  0  0
   -7.6930   17.0390  -34.3601 H   0  0  0  0  0  0  0  0  0  0  0  0
   -7.1184   14.5591  -33.6796 H   0  0  0  0  0  0  0  0  0  0  0  0
   -6.5764   15.1798  -35.2741 H   0  0  0  0  0  0  0  0  0  0  0  0
   -3.2277   15.6856  -34.2658 H   0  0  0  0  0  0  0  0  0  0  0  0
   -4.3077   15.2518  -35.6764 H   0  0  0  0  0  0  0  0  0  0  0  0
   -3.7399   17.8438  -34.6801 H   0  0  0  0  0  0  0  0  0  0  0  0
   -4.9655   17.3563  -35.9199 H   0  0  0  0  0  0  0  0  0  0  0  0
   -3.5958   19.0519  -33.1400 H   0  0  0  0  0  0  0  0  0  0  0  0
  1  2  1  0
  2  3  1  0
  3  4  1  0
  4  5  1  0
  5  6  1  0
  6  7  1  0
  7  8  2  0
  8  9  1  0
  9 10  2  0
  9 11  1  0
 11 12  1  0
 12 13  1  0
 13 14  1  0
 14 15  1  0
 15 16  1  0
 16 17  1  0
  8 18  1  0
 18 19  2  0
 18 20  1  0
 20 21  2  0
 21 22  1  0
 22 23  2  0
 23 24  1  0
 24 25  1  0
 25 26  1  0
 26 27  1  0
 27 28  1  0
 28 29  1  0
 23 30  1  0
 30 31  2  0
 31  6  1  0
 17 12  1  0
 31 20  1  0
 29 24  1  0
  1 32  1  0
  1 33  1  0
  1 34  1  0
  2 35  1  0
  2 36  1  0
  4 37  1  0
  4 38  1  0
  5 39  1  0
  5 40  1  0
  7 41  1  0
 12 42  1  0
 13 43  1  0
 13 44  1  0
 14 45  1  0
 14 46  1  0
 15 47  1  0
 15 48  1  0
 16 49  1  0
 16 50  1  0
 17 51  1  0
 17 52  1  0
 21 53  1  0
 22 54  1  0
 25 55  1  0
 25 56  1  0
 26 57  1  0
 26 58  1  0
 28 59  1  0
 28 60  1  0
 29 61  1  0
 29 62  1  0
 30 63  1  0
M  CHG  1  11  -1
M  END
>  <UniqueID>  (10) 
10

>  <SMILES>  (10) 
CCOCCn1cc(C(=O)[N-]C2CCCCC2)c(=O)c2ccc(N3CCOCC3)cc21

>  <Energy>  (10) 
86.03070486728016

>  <Genealogy>  (10) 
CCOCCn1cc(C(=O)[N-]C2CCCCC2)c(=O)c2ccc(N3CCOCC3)cc21 (protonated)
CCOCCn1cc(C(=O)[N-]C2CCCCC2)c(=O)c2ccc(N3CCOCC3)cc21 (3D coordinates assigned)
CCOCCn1cc(C(=O)[N-]C2CCCCC2)c(=O)c2ccc(N3CCOCC3)cc21 (nonaromatic ring conformer: 86.03070486728016 kcal/mol)

>  <smiles>  (10) 
CCOCCn1cc(C(=O)NC2CCCCC2)c(=O)c2ccc(N3CCOCC3)cc21

>  <score_type>  (10) 
oracle

>  <origin>  (10) 
adg

>  <m_score__min__energy>  (10) 
-10.83

>  <m_primary>  (10) 
energy

$$$$
10:0
     RDKit          3D

 47 49  0  0  0  0  0  0  0  0999 V2000
   -2.0670   24.7470  -27.6730 C   0  0  0  0  0  0  0  0  0  0  0  0
   -3.4630   24.3000  -27.7910 N   0  0  0  0  0  0  0  0  0  0  0  0
   -4.2610   24.7550  -26.6420 C   0  0  0  0  0  0  0  0  0  0  0  0
   -3.5900   22.8440  -28.0370 C   0  0  0  0  0  0  0  0  0  0  0  0
   -3.0000   22.3820  -29.3640 C   0  0  0  0  0  0  0  0  0  0  0  0
   -1.9290   21.4680  -29.3450 C   0  0  0  0  0  0  0  0  0  0  0  0
   -1.3980   20.9680  -30.5350 C   0  0  0  0  0  0  0  0  0  0  0  0
   -1.9220   21.3740  -31.7610 C   0  0  0  0  0  0  0  0  0  0  0  0
   -2.9650   22.2990  -31.8010 C   0  0  0  0  0  0  0  0  0  0  0  0
   -3.4930   22.8320  -30.6150 C   0  0  0  0  0  0  0  0  0  0  0  0
   -4.7780   24.0880  -30.7550 S   0  0  0  0  0  0  0  0  0  0  0  0
   -6.0720   22.8850  -31.0810 C   0  0  0  0  0  0  0  0  0  0  0  0
   -7.2280   22.8590  -30.2980 C   0  0  0  0  0  0  0  0  0  0  0  0
   -8.2290   21.9200  -30.5510 C   0  0  0  0  0  0  0  0  0  0  0  0
   -8.0840   20.9860  -31.5910 C   0  0  0  0  0  0  0  0  0  0  0  0
   -6.9190   21.0170  -32.3940 C   0  0  0  0  0  0  0  0  0  0  0  0
   -5.9110   21.9560  -32.1150 C   0  0  0  0  0  0  0  0  0  0  0  0
   -6.7320   20.0420  -33.4440 N   0  0  0  0  0  0  0  0  0  0  0  0
   -6.5430   18.6860  -32.8990 C   0  0  0  0  0  0  0  0  0  0  0  0
   -7.8540   17.8900  -32.7120 C   0  0  0  0  0  0  0  0  0  0  0  0
   -8.7890   18.4880  -31.6470 C   0  0  0  0  0  0  0  0  0  0  0  0
   -9.1850   19.9760  -31.8520 C   0  0  0  0  0  0  0  0  0  0  0  0
   -1.7982   24.8331  -26.6098 H   0  0  0  0  0  0  0  0  0  0  0  0
   -1.4054   24.0158  -28.1605 H   0  0  0  0  0  0  0  0  0  0  0  0
   -1.9532   25.7265  -28.1605 H   0  0  0  0  0  0  0  0  0  0  0  0
   -3.7562   24.4672  -25.7080 H   0  0  0  0  0  0  0  0  0  0  0  0
   -4.3669   25.8493  -26.6794 H   0  0  0  0  0  0  0  0  0  0  0  0
   -5.2566   24.2888  -26.6794 H   0  0  0  0  0  0  0  0  0  0  0  0
   -3.0738   22.3105  -27.2253 H   0  0  0  0  0  0  0  0  0  0  0  0
   -4.6667   22.6220  -28.0749 H   0  0  0  0  0  0  0  0  0  0  0  0
   -1.5064   21.1447  -28.3822 H   0  0  0  0  0  0  0  0  0  0  0  0
   -0.5638   20.2516  -30.5052 H   0  0  0  0  0  0  0  0  0  0  0  0
   -1.5131   20.9650  -32.6967 H   0  0  0  0  0  0  0  0  0  0  0  0
   -3.3775   22.6136  -32.7710 H   0  0  0  0  0  0  0  0  0  0  0  0
   -7.3502   23.5820  -29.4780 H   0  0  0  0  0  0  0  0  0  0  0  0
   -9.1381   21.9109  -29.9318 H   0  0  0  0  0  0  0  0  0  0  0  0
   -4.9885   21.9606  -32.7141 H   0  0  0  0  0  0  0  0  0  0  0  0
   -7.5480   20.0560  -34.0960 H   0  0  0  0  0  0  0  0  0  0  0  0
   -5.8930   20.2880  -34.0190 H   0  0  0  0  0  0  0  0  0  0  0  0
   -5.8940   18.1249  -33.5874 H   0  0  0  0  0  0  0  0  0  0  0  0
   -6.1008   18.8061  -31.8990 H   0  0  0  0  0  0  0  0  0  0  0  0
   -8.3889   17.8697  -33.6730 H   0  0  0  0  0  0  0  0  0  0  0  0
   -7.5746   16.8831  -32.3683 H   0  0  0  0  0  0  0  0  0  0  0  0
   -9.7131   17.8915  -31.6363 H   0  0  0  0  0  0  0  0  0  0  0  0
   -8.2246   18.4569  -30.7033 H   0  0  0  0  0  0  0  0  0  0  0  0
   -9.5171   20.0980  -32.8936 H   0  0  0  0  0  0  0  0  0  0  0  0
   -9.9692   20.1851  -31.1095 H   0  0  0  0  0  0  0  0  0  0  0  0
  1  2  1  0
  2  3  1  0
  2  4  1  0
  4  5  1  0
  5  6  2  0
  6  7  1  0
  7  8  2  0
  8  9  1  0
  9 10  2  0
 10 11  1  0
 11 12  1  0
 12 13  2  0
 13 14  1  0
 14 15  2  0
 15 16  1  0
 16 17  2  0
 16 18  1  0
 18 19  1  0
 19 20  1  0
 20 21  1  0
 21 22  1  0
 10  5  1  0
 17 12  1  0
 22 15  1  0
  1 23  1  0
  1 24  1  0
  1 25  1  0
  3 26  1  0
  3 27  1  0
  3 28  1  0
  4 29  1  0
  4 30  1  0
  6 31  1  0
  7 32  1  0
  8 33  1  0
  9 34  1  0
 13 35  1  0
 14 36  1  0
 17 37  1  0
 18 38  1  0
 18 39  1  0
 19 40  1  0
 19 41  1  0
 20 42  1  0
 20 43  1  0
 21 44  1  0
 21 45  1  0
 22 46  1  0
 22 47  1  0
M  CHG  1  18   1
M  END
>  <UniqueID>  (11) 
11

>  <SMILES>  (11) 
CN(C)Cc1ccccc1Sc1ccc2c(c1)[NH2+]CCCC2

>  <Energy>  (11) 
57.92055468558639

>  <Genealogy>  (11) 
CN(C)Cc1ccccc1Sc1ccc2c(c1)[NH2+]CCCC2 (protonated)
CN(C)Cc1ccccc1Sc1ccc2c(c1)[NH2+]CCCC2 (3D coordinates assigned)
CN(C)Cc1ccccc1Sc1ccc2c(c1)[NH2+]CCCC2 (nonaromatic ring conformer: 57.92055468558639 kcal/mol)

>  <smiles>  (11) 
CN(C)Cc1ccccc1Sc1ccc2c(c1)NCCCC2

>  <score_type>  (11) 
oracle

>  <origin>  (11) 
adg

>  <m_score__min__energy>  (11) 
-6.1100000000000003

>  <m_primary>  (11) 
energy

$$$$
11:0
     RDKit          3D

 73 76  0  0  0  0  0  0  0  0999 V2000
   -9.1610   22.1850  -31.4750 C   0  0  0  0  0  0  0  0  0  0  0  0
   -8.8340   20.7990  -30.9310 C   0  0  0  0  0  0  0  0  0  0  0  0
   -8.6350   19.8400  -32.0360 N   0  0  0  0  0  0  0  0  0  0  0  0
   -9.8530   19.6790  -32.8570 C   0  0  0  0  0  0  0  0  0  0  0  0
   -8.1050   18.5410  -31.5670 C   0  0  0  0  0  0  0  0  0  0  0  0
   -7.2560   17.7980  -32.6250 C   0  0  0  0  0  0  0  0  0  0  0  0
   -6.8360   18.6600  -33.7480 N   0  0  0  0  0  0  0  0  0  0  0  0
   -5.4530   19.1170  -33.6470 C   0  0  0  0  0  0  0  0  0  0  0  0
   -5.1400   20.3960  -33.1100 C   0  0  0  0  0  0  0  0  0  0  0  0
   -3.7890   20.7750  -32.9630 C   0  0  0  0  0  0  0  0  0  0  0  0
   -2.8090   20.0660  -33.6060 N   0  0  0  0  0  0  0  0  0  0  0  0
   -1.6250   20.7550  -34.1370 C   0  0  0  0  0  0  0  0  0  0  0  0
   -3.0470   18.7750  -33.9950 C   0  0  0  0  0  0  0  0  0  0  0  0
   -1.9720   17.9220  -34.3380 C   0  0  0  0  0  0  0  0  0  0  0  0
   -2.2180   16.6340  -34.8060 C   0  0  0  0  0  0  0  0  0  0  0  0
   -3.5200   16.1930  -34.9900 C   0  0  0  0  0  0  0  0  0  0  0  0
   -4.5960   17.0090  -34.6400 C   0  0  0  0  0  0  0  0  0  0  0  0
   -4.3800   18.2860  -34.0780 C   0  0  0  0  0  0  0  0  0  0  0  0
   -3.4400   21.8770  -32.0280 C   0  0  0  0  0  0  0  0  0  0  0  0
   -2.2200   21.8860  -31.3400 C   0  0  0  0  0  0  0  0  0  0  0  0
   -1.9310   22.8830  -30.4120 C   0  0  0  0  0  0  0  0  0  0  0  0
   -2.9070   23.8300  -30.0550 C   0  0  0  0  0  0  0  0  0  0  0  0
   -2.7090   24.7900  -29.0480 O   0  0  0  0  0  0  0  0  0  0  0  0
   -2.7500   24.5270  -27.6360 C   0  0  0  0  0  0  0  0  0  0  0  0
   -3.1280   23.0680  -27.3840 C   0  0  0  0  0  0  0  0  0  0  0  0
   -1.8970   22.1690  -27.1260 C   0  0  0  0  0  0  0  0  0  0  0  0
   -1.9400   20.8610  -27.8190 N   0  0  0  0  0  0  0  0  0  0  0  0
   -0.6040   20.3460  -28.1640 C   0  0  0  0  0  0  0  0  0  0  0  0
   -2.7200   19.8450  -27.0980 C   0  0  0  0  0  0  0  0  0  0  0  0
   -4.1540   23.7920  -30.6930 C   0  0  0  0  0  0  0  0  0  0  0  0
   -4.4200   22.8220  -31.6820 C   0  0  0  0  0  0  0  0  0  0  0  0
   -5.7150   22.8190  -32.4280 C   0  0  0  0  0  0  0  0  0  0  0  0
   -6.2270   21.3810  -32.6920 C   0  0  0  0  0  0  0  0  0  0  0  0
   -9.3246   22.8786  -30.6370 H   0  0  0  0  0  0  0  0  0  0  0  0
   -8.3230   22.5445  -32.0903 H   0  0  0  0  0  0  0  0  0  0  0  0
  -10.0713   22.1320  -32.0903 H   0  0  0  0  0  0  0  0  0  0  0  0
   -7.9141   20.8543  -30.3304 H   0  0  0  0  0  0  0  0  0  0  0  0
   -9.6742   20.4548  -30.3100 H   0  0  0  0  0  0  0  0  0  0  0  0
  -10.7265   19.5635  -32.1984 H   0  0  0  0  0  0  0  0  0  0  0  0
   -9.9873   20.5672  -33.4919 H   0  0  0  0  0  0  0  0  0  0  0  0
   -9.7519   18.7864  -33.4919 H   0  0  0  0  0  0  0  0  0  0  0  0
   -7.4772   18.7211  -30.6819 H   0  0  0  0  0  0  0  0  0  0  0  0
   -8.9718   17.9017  -31.3433 H   0  0  0  0  0  0  0  0  0  0  0  0
   -6.3553   17.4012  -32.1338 H   0  0  0  0  0  0  0  0  0  0  0  0
   -7.8853   16.9995  -33.0451 H   0  0  0  0  0  0  0  0  0  0  0  0
   -7.5190   19.4400  -33.8050 H   0  0  0  0  0  0  0  0  0  0  0  0
   -6.9590   18.1410  -34.6420 H   0  0  0  0  0  0  0  0  0  0  0  0
   -1.0055   21.1155  -33.3025 H   0  0  0  0  0  0  0  0  0  0  0  0
   -1.0398   20.0564  -34.7530 H   0  0  0  0  0  0  0  0  0  0  0  0
   -1.9432   21.6090  -34.7530 H   0  0  0  0  0  0  0  0  0  0  0  0
   -0.9364   18.2781  -34.2345 H   0  0  0  0  0  0  0  0  0  0  0  0
   -1.3758   15.9631  -35.0309 H   0  0  0  0  0  0  0  0  0  0  0  0
   -3.7051   15.1950  -35.4140 H   0  0  0  0  0  0  0  0  0  0  0  0
   -5.6240   16.6536  -34.8037 H   0  0  0  0  0  0  0  0  0  0  0  0
   -1.4807   21.0953  -31.5353 H   0  0  0  0  0  0  0  0  0  0  0  0
   -0.9316   22.9301  -29.9548 H   0  0  0  0  0  0  0  0  0  0  0  0
   -1.7601   24.7269  -27.1999 H   0  0  0  0  0  0  0  0  0  0  0  0
   -3.5031   25.1795  -27.1701 H   0  0  0  0  0  0  0  0  0  0  0  0
   -3.7877   23.0221  -26.5050 H   0  0  0  0  0  0  0  0  0  0  0  0
   -3.6293   22.6935  -28.2887 H   0  0  0  0  0  0  0  0  0  0  0  0
   -0.9999   22.7084  -27.4641 H   0  0  0  0  0  0  0  0  0  0  0  0
   -1.8858   21.9531  -26.0474 H   0  0  0  0  0  0  0  0  0  0  0  0
   -0.0447   20.1304  -27.2417 H   0  0  0  0  0  0  0  0  0  0  0  0
   -0.7078   19.4234  -28.7540 H   0  0  0  0  0  0  0  0  0  0  0  0
   -0.0617   21.0995  -28.7540 H   0  0  0  0  0  0  0  0  0  0  0  0
   -2.6048   19.9951  -26.0144 H   0  0  0  0  0  0  0  0  0  0  0  0
   -3.7819   19.9367  -27.3700 H   0  0  0  0  0  0  0  0  0  0  0  0
   -2.3571   18.8429  -27.3700 H   0  0  0  0  0  0  0  0  0  0  0  0
   -4.9299   24.5228  -30.4211 H   0  0  0  0  0  0  0  0  0  0  0  0
   -6.4673   23.3612  -31.8364 H   0  0  0  0  0  0  0  0  0  0  0  0
   -5.5490   23.3054  -33.4006 H   0  0  0  0  0  0  0  0  0  0  0  0
   -6.6950   21.0069  -31.7695 H   0  0  0  0  0  0  0  0  0  0  0  0
   -6.9334   21.4469  -33.5326 H   0  0  0  0  0  0  0  0  0  0  0  0
  1  2  1  0
  2  3  1  0
  3  4  1  0
  3  5  1  0
  5  6  1  0
  6  7  1  0
  7  8  1  0
  8  9  2  0
  9 10  1  0
 10 11  2  0
 11 12  1  0
 11 13  1  0
 13 14  2  0
 14 15  1  0
 15 16  2  0
 16 17  1  0
 17 18  2  0
 10 19  1  0
 19 20  2  0
 20 21  1  0
 21 22  2  0
 22 23  1  0
 23 24  1  0
 24 25  1  0
 25 26  1  0
 26 27  1  0
 27 28  1  0
 27 29  1  0
 22 30  1  0
 30 31  2  0
 31 32  1  0
 32 33  1  0
 18  8  1  0
 31 19  1  0
 33  9  1  0
 18 13  1  0
  1 34  1  0
  1 35  1  0
  1 36  1  0
  2 37  1  0
  2 38  1  0
  4 39  1  0
  4 40  1  0
  4 41  1  0
  5 42  1  0
  5 43  1  0
  6 44  1  0
  6 45  1  0
  7 46  1  0
  7 47  1  0
 12 48  1  0
 12 49  1  0
 12 50  1  0
 14 51  1  0
 15 52  1  0
 16 53  1  0
 17 54  1  0
 20 55  1  0
 21 56  1  0
 24 57  1  0
 24 58  1  0
 25 59  1  0
 25 60  1  0
 26 61  1  0
 26 62  1  0
 28 63  1  0
 28 64  1  0
 28 65  1  0
 29 66  1  0
 29 67  1  0
 29 68  1  0
 30 69  1  0
 32 70  1  0
 32 71  1  0
 33 72  1  0
 33 73  1  0
M  CHG  2   7   1  11   1
M  END
>  <UniqueID>  (12) 
12

>  <SMILES>  (12) 
CCN(C)CC[NH2+]c1c2c([n+](C)c3ccccc13)-c1ccc(OCCCN(C)C)cc1CC2

>  <Energy>  (12) 
117.46795912168156

>  <Genealogy>  (12) 
CCN(C)CC[NH2+]c1c2c([n+](C)c3ccccc13)-c1ccc(OCCCN(C)C)cc1CC2 (protonated)
CCN(C)CC[NH2+]c1c2c([n+](C)c3ccccc13)-c1ccc(OCCCN(C)C)cc1CC2 (3D coordinates assigned)
CCN(C)CC[NH2+]c1c2c([n+](C)c3ccccc13)-c1ccc(OCCCN(C)C)cc1CC2 (nonaromatic ring conformer: 117.46795912168156 kcal/mol)

>  <smiles>  (12) 
CCN(C)CCNc1c2c([n+](C)c3ccccc13)-c1ccc(OCCCN(C)C)cc1CC2

>  <score_type>  (12) 
oracle

>  <origin>  (12) 
adg

>  <m_score__min__energy>  (12) 
-8.4299999999999997

>  <m_primary>  (12) 
energy

$$$$
12:0
     RDKit          3D

 45 47  0  0  0  0  0  0  0  0999 V2000
    1.6930   21.6210  -34.9040 C   0  0  0  0  0  0  0  0  0  0  0  0
    0.9870   21.5600  -33.6680 O   0  0  0  0  0  0  0  0  0  0  0  0
   -0.3330   21.1040  -33.5330 C   0  0  0  0  0  0  0  0  0  0  0  0
   -0.8890   20.1230  -34.3950 C   0  0  0  0  0  0  0  0  0  0  0  0
   -2.2100   19.6800  -34.2200 C   0  0  0  0  0  0  0  0  0  0  0  0
   -2.9630   20.2410  -33.1860 C   0  0  0  0  0  0  0  0  0  0  0  0
   -2.4370   21.2050  -32.3610 C   0  0  0  0  0  0  0  0  0  0  0  0
   -1.1170   21.6450  -32.4970 C   0  0  0  0  0  0  0  0  0  0  0  0
   -3.4210   21.5310  -31.4390 C   0  0  0  0  0  0  0  0  0  0  0  0
   -3.3700   22.5140  -30.3390 C   0  0  0  0  0  0  0  0  0  0  0  0
   -2.7170   22.2240  -29.3000 O   0  0  0  0  0  0  0  0  0  0  0  0
   -4.1340   23.7780  -30.3950 C   0  0  0  0  0  0  0  0  0  0  0  0
   -3.4950   24.8640  -30.4690 O   0  0  0  0  0  0  0  0  0  0  0  0
   -5.5790   23.8040  -30.3940 N   0  0  0  0  0  0  0  0  0  0  0  0
   -6.2670   25.0560  -30.7260 C   0  0  0  0  0  0  0  0  0  0  0  0
   -6.3600   22.6310  -29.9880 C   0  0  0  0  0  0  0  0  0  0  0  0
   -4.5060   20.7190  -31.7450 C   0  0  0  0  0  0  0  0  0  0  0  0
   -4.2260   19.9360  -32.8140 N   0  0  0  0  0  0  0  0  0  0  0  0
   -5.1670   19.0180  -33.4600 C   0  0  0  0  0  0  0  0  0  0  0  0
   -6.5380   19.1630  -32.8500 C   0  0  0  0  0  0  0  0  0  0  0  0
   -7.2830   20.3290  -33.0920 C   0  0  0  0  0  0  0  0  0  0  0  0
   -8.5710   20.4660  -32.5660 C   0  0  0  0  0  0  0  0  0  0  0  0
   -9.1280   19.4390  -31.8000 C   0  0  0  0  0  0  0  0  0  0  0  0
   -8.3970   18.2730  -31.5570 C   0  0  0  0  0  0  0  0  0  0  0  0
   -7.1060   18.1300  -32.0790 C   0  0  0  0  0  0  0  0  0  0  0  0
   -6.4170   16.9910  -31.8220 F   0  0  0  0  0  0  0  0  0  0  0  0
    2.7711   21.7141  -34.7063 H   0  0  0  0  0  0  0  0  0  0  0  0
    1.5038   20.7032  -35.4800 H   0  0  0  0  0  0  0  0  0  0  0  0
    1.3492   22.4928  -35.4800 H   0  0  0  0  0  0  0  0  0  0  0  0
   -0.2784   19.7052  -35.2090 H   0  0  0  0  0  0  0  0  0  0  0  0
   -2.6402   18.9119  -34.8795 H   0  0  0  0  0  0  0  0  0  0  0  0
   -0.7008   22.3967  -31.8101 H   0  0  0  0  0  0  0  0  0  0  0  0
   -6.5521   25.5747  -29.7988 H   0  0  0  0  0  0  0  0  0  0  0  0
   -5.5953   25.6987  -31.3141 H   0  0  0  0  0  0  0  0  0  0  0  0
   -7.1696   24.8336  -31.3141 H   0  0  0  0  0  0  0  0  0  0  0  0
   -6.3961   22.5767  -28.8899 H   0  0  0  0  0  0  0  0  0  0  0  0
   -7.3824   22.7160  -30.3848 H   0  0  0  0  0  0  0  0  0  0  0  0
   -5.8872   21.7205  -30.3848 H   0  0  0  0  0  0  0  0  0  0  0  0
   -5.4591   20.7129  -31.1959 H   0  0  0  0  0  0  0  0  0  0  0  0
   -5.2209   19.2494  -34.5340 H   0  0  0  0  0  0  0  0  0  0  0  0
   -4.8173   17.9852  -33.3153 H   0  0  0  0  0  0  0  0  0  0  0  0
   -6.8507   21.1385  -33.6985 H   0  0  0  0  0  0  0  0  0  0  0  0
   -9.1468   21.3839  -32.7556 H   0  0  0  0  0  0  0  0  0  0  0  0
  -10.1421   19.5482  -31.3881 H   0  0  0  0  0  0  0  0  0  0  0  0
   -8.8373   17.4653  -30.9539 H   0  0  0  0  0  0  0  0  0  0  0  0
  1  2  1  0
  2  3  1  0
  3  4  2  0
  4  5  1  0
  5  6  2  0
  6  7  1  0
  7  8  2  0
  7  9  1  0
  9 10  1  0
 10 11  2  0
 10 12  1  0
 12 13  2  0
 12 14  1  0
 14 15  1  0
 14 16  1  0
  9 17  2  0
 17 18  1  0
 18 19  1  0
 19 20  1  0
 20 21  2  0
 21 22  1  0
 22 23  2  0
 23 24  1  0
 24 25  2  0
 25 26  1  0
  8  3  1  0
 25 20  1  0
 18  6  1  0
  1 27  1  0
  1 28  1  0
  1 29  1  0
  4 30  1  0
  5 31  1  0
  8 32  1  0
 15 33  1  0
 15 34  1  0
 15 35  1  0
 16 36  1  0
 16 37  1  0
 16 38  1  0
 17 39  1  0
 19 40  1  0
 19 41  1  0
 21 42  1  0
 22 43  1  0
 23 44  1  0
 24 45  1  0
M  END
>  <UniqueID>  (13) 
13

>  <SMILES>  (13) 
COc1ccc2c(c1)c(C(=O)C(=O)N(C)C)cn2Cc1ccccc1F

>  <Energy>  (13) 
83.04089093718675

>  <Genealogy>  (13) 
COc1ccc2c(c1)c(C(=O)C(=O)N(C)C)cn2Cc1ccccc1F (3D coordinates assigned)
COc1ccc2c(c1)c(C(=O)C(=O)N(C)C)cn2Cc1ccccc1F (optimized conformer: 83.04089093718675 kcal/mol)

>  <smiles>  (13) 
COc1ccc2c(c1)c(C(=O)C(=O)N(C)C)cn2Cc1ccccc1F

>  <score_type>  (13) 
oracle

>  <origin>  (13) 
adg

>  <m_score__min__energy>  (13) 
-7.96

>  <m_primary>  (13) 
energy

$$$$
13:0
     RDKit          3D

 61 65  0  0  0  0  0  0  0  0999 V2000
   -5.7100   24.9350  -29.3460 C   0  0  0  0  0  0  0  0  0  0  0  0
   -5.7560   25.3360  -30.8210 C   0  0  0  0  0  0  0  0  0  0  0  0
   -5.4400   24.1830  -31.6960 N   0  0  0  0  0  0  0  0  0  0  0  0
   -6.6280   23.7640  -32.4760 C   0  0  0  0  0  0  0  0  0  0  0  0
   -7.8520   23.6140  -31.5740 C   0  0  0  0  0  0  0  0  0  0  0  0
   -4.8640   23.0500  -30.9210 C   0  0  0  0  0  0  0  0  0  0  0  0
   -3.6690   22.4570  -31.6710 C   0  0  0  0  0  0  0  0  0  0  0  0
   -4.0960   21.7030  -32.8500 N   0  0  0  0  0  0  0  0  0  0  0  0
   -3.7000   20.3330  -33.0120 C   0  0  0  0  0  0  0  0  0  0  0  0
   -2.3420   20.0510  -33.2380 C   0  0  0  0  0  0  0  0  0  0  0  0
   -1.3390   20.9980  -32.9380 C   0  0  0  0  0  0  0  0  0  0  0  0
    0.0060   20.7030  -33.1570 C   0  0  0  0  0  0  0  0  0  0  0  0
    0.3710   19.4680  -33.6820 C   0  0  0  0  0  0  0  0  0  0  0  0
   -0.6070   18.5330  -34.0170 C   0  0  0  0  0  0  0  0  0  0  0  0
   -1.9820   18.8180  -33.8250 C   0  0  0  0  0  0  0  0  0  0  0  0
   -2.9630   17.9510  -34.2520 N   0  0  0  0  0  0  0  0  0  0  0  0
   -2.6420   17.0090  -35.3420 C   0  0  0  0  0  0  0  0  0  0  0  0
   -4.2510   18.0750  -33.7640 C   0  0  0  0  0  0  0  0  0  0  0  0
   -5.2320   17.0600  -33.9020 C   0  0  0  0  0  0  0  0  0  0  0  0
   -5.1100   15.7740  -34.3020 N   0  0  0  0  0  0  0  0  0  0  0  0
   -6.3630   15.2750  -34.2130 C   0  0  0  0  0  0  0  0  0  0  0  0
   -6.7250   13.8750  -34.5770 C   0  0  0  0  0  0  0  0  0  0  0  0
   -7.2240   16.1600  -33.7580 O   0  0  0  0  0  0  0  0  0  0  0  0
   -6.5350   17.2540  -33.5380 C   0  0  0  0  0  0  0  0  0  0  0  0
   -6.9790   18.4160  -32.9310 C   0  0  0  0  0  0  0  0  0  0  0  0
   -8.3170   18.5430  -32.5300 C   0  0  0  0  0  0  0  0  0  0  0  0
   -8.7180   19.6360  -31.7660 C   0  0  0  0  0  0  0  0  0  0  0  0
   -7.7760   20.5750  -31.3550 C   0  0  0  0  0  0  0  0  0  0  0  0
   -6.4410   20.4590  -31.7500 C   0  0  0  0  0  0  0  0  0  0  0  0
   -6.0180   19.4210  -32.6210 C   0  0  0  0  0  0  0  0  0  0  0  0
   -4.6610   19.2920  -33.1130 C   0  0  0  0  0  0  0  0  0  0  0  0
   -5.8130   25.8326  -28.7186 H   0  0  0  0  0  0  0  0  0  0  0  0
   -6.5343   24.2396  -29.1292 H   0  0  0  0  0  0  0  0  0  0  0  0
   -4.7497   24.4443  -29.1292 H   0  0  0  0  0  0  0  0  0  0  0  0
   -6.7640   25.7046  -31.0621 H   0  0  0  0  0  0  0  0  0  0  0  0
   -5.0061   26.1220  -30.9935 H   0  0  0  0  0  0  0  0  0  0  0  0
   -6.8388   24.5219  -33.2449 H   0  0  0  0  0  0  0  0  0  0  0  0
   -6.4152   22.7904  -32.9417 H   0  0  0  0  0  0  0  0  0  0  0  0
   -7.5380   23.6525  -30.5205 H   0  0  0  0  0  0  0  0  0  0  0  0
   -8.5589   24.4322  -31.7761 H   0  0  0  0  0  0  0  0  0  0  0  0
   -8.3404   22.6493  -31.7761 H   0  0  0  0  0  0  0  0  0  0  0  0
   -4.5328   23.4129  -29.9368 H   0  0  0  0  0  0  0  0  0  0  0  0
   -5.6318   22.2728  -30.7929 H   0  0  0  0  0  0  0  0  0  0  0  0
   -3.0061   23.2746  -31.9905 H   0  0  0  0  0  0  0  0  0  0  0  0
   -3.1433   21.7686  -30.9930 H   0  0  0  0  0  0  0  0  0  0  0  0
   -4.7980   22.1040  -33.5110 H   0  0  0  0  0  0  0  0  0  0  0  0
   -1.6214   21.9786  -32.5273 H   0  0  0  0  0  0  0  0  0  0  0  0
    0.7787   21.4474  -32.9144 H   0  0  0  0  0  0  0  0  0  0  0  0
    1.4339   19.2285  -33.8332 H   0  0  0  0  0  0  0  0  0  0  0  0
   -0.3076   17.5610  -34.4360 H   0  0  0  0  0  0  0  0  0  0  0  0
   -2.3152   16.0500  -34.9135 H   0  0  0  0  0  0  0  0  0  0  0  0
   -3.5359   16.8478  -35.9624 H   0  0  0  0  0  0  0  0  0  0  0  0
   -1.8356   17.4272  -35.9624 H   0  0  0  0  0  0  0  0  0  0  0  0
   -4.2620   15.2220  -34.5470 H   0  0  0  0  0  0  0  0  0  0  0  0
   -6.8774   13.2857  -33.6608 H   0  0  0  0  0  0  0  0  0  0  0  0
   -7.6519   13.8781  -35.1694 H   0  0  0  0  0  0  0  0  0  0  0  0
   -5.9128   13.4285  -35.1694 H   0  0  0  0  0  0  0  0  0  0  0  0
   -9.0515   17.7772  -32.8198 H   0  0  0  0  0  0  0  0  0  0  0  0
   -9.7754   19.7570  -31.4882 H   0  0  0  0  0  0  0  0  0  0  0  0
   -8.0850   21.4143  -30.7146 H   0  0  0  0  0  0  0  0  0  0  0  0
   -5.7035   21.1859  -31.3790 H   0  0  0  0  0  0  0  0  0  0  0  0
  1  2  1  0
  2  3  1  0
  3  4  1  0
  4  5  1  0
  3  6  1  0
  6  7  1  0
  7  8  1  0
  8  9  1  0
  9 10  2  0
 10 11  1  0
 11 12  2  0
 12 13  1  0
 13 14  2  0
 14 15  1  0
 15 16  2  0
 16 17  1  0
 16 18  1  0
 18 19  2  0
 19 20  1  0
 20 21  2  0
 21 22  1  0
 21 23  1  0
 23 24  1  0
 24 25  2  0
 25 26  1  0
 26 27  2  0
 27 28  1  0
 28 29  2  0
 29 30  1  0
 30 31  2  0
 31  9  1  0
 15 10  1  0
 31 18  1  0
 24 19  1  0
 30 25  1  0
  1 32  1  0
  1 33  1  0
  1 34  1  0
  2 35  1  0
  2 36  1  0
  4 37  1  0
  4 38  1  0
  5 39  1  0
  5 40  1  0
  5 41  1  0
  6 42  1  0
  6 43  1  0
  7 44  1  0
  7 45  1  0
  8 46  1  0
 11 47  1  0
 12 48  1  0
 13 49  1  0
 14 50  1  0
 17 51  1  0
 17 52  1  0
 17 53  1  0
 20 54  1  0
 22 55  1  0
 22 56  1  0
 22 57  1  0
 26 58  1  0
 27 59  1  0
 28 60  1  0
 29 61  1  0
M  CHG  2  16   1  20   1
M  END
>  <UniqueID>  (14) 
14

>  <SMILES>  (14) 
CCN(CC)CCNc1c2ccccc2[n+](C)c2c3[nH+]c(C)oc3c3ccccc3c12

>  <Energy>  (14) 
148.73964170908525

>  <Genealogy>  (14) 
CCN(CC)CCNc1c2ccccc2[n+](C)c2c3[nH+]c(C)oc3c3ccccc3c12 (protonated)
CCN(CC)CCNc1c2ccccc2[n+](C)c2c3[nH+]c(C)oc3c3ccccc3c12 (3D coordinates assigned)
CCN(CC)CCNc1c2ccccc2[n+](C)c2c3[nH+]c(C)oc3c3ccccc3c12 (optimized conformer: 148.73964170908525 kcal/mol)

>  <smiles>  (14) 
CCN(CC)CCNc1c2ccccc2[n+](C)c2c3nc(C)oc3c3ccccc3c12

>  <score_type>  (14) 
oracle

>  <origin>  (14) 
adg

>  <m_score__min__energy>  (14) 
-9.4600000000000009

>  <m_primary>  (14) 
energy

$$$$
14:0
     RDKit          3D

 30 31  0  0  0  0  0  0  0  0999 V2000
   -6.1130   25.3600  -29.3540 C   0  0  0  0  0  0  0  0  0  0  0  0
   -5.9090   24.0220  -29.9350 N   0  0  0  0  0  0  0  0  0  0  0  0
   -4.4840   23.8050  -30.2510 C   0  0  0  0  0  0  0  0  0  0  0  0
   -6.8370   23.7480  -31.0680 C   0  0  2  0  0  0  0  0  0  0  0  0
   -7.9830   22.8050  -30.5920 C   0  0  0  0  0  0  0  0  0  0  0  0
   -8.4210   21.7820  -31.6490 C   0  0  0  0  0  0  0  0  0  0  0  0
   -7.2190   21.0260  -32.1580 C   0  0  0  0  0  0  0  0  0  0  0  0
   -7.2110   19.6250  -32.3380 C   0  0  0  0  0  0  0  0  0  0  0  0
   -8.7400   18.5260  -31.9670 Br  0  0  0  0  0  0  0  0  0  0  0  0
   -6.0570   18.9930  -32.8150 C   0  0  0  0  0  0  0  0  0  0  0  0
   -4.9180   19.7390  -33.1280 C   0  0  0  0  0  0  0  0  0  0  0  0
   -3.3540   18.8610  -33.7850 Br  0  0  0  0  0  0  0  0  0  0  0  0
   -4.9270   21.1270  -32.9720 C   0  0  0  0  0  0  0  0  0  0  0  0
   -6.0700   21.7730  -32.4830 C   0  0  0  0  0  0  0  0  0  0  0  0
   -6.1180   23.2740  -32.3690 C   0  0  0  0  0  0  0  0  0  0  0  0
   -6.1021   25.2887  -28.2564 H   0  0  0  0  0  0  0  0  0  0  0  0
   -5.3067   26.0307  -29.6859 H   0  0  0  0  0  0  0  0  0  0  0  0
   -7.0825   25.7599  -29.6859 H   0  0  0  0  0  0  0  0  0  0  0  0
   -3.9104   23.7176  -29.3165 H   0  0  0  0  0  0  0  0  0  0  0  0
   -4.3749   22.8799  -30.8360 H   0  0  0  0  0  0  0  0  0  0  0  0
   -4.1045   24.6557  -30.8360 H   0  0  0  0  0  0  0  0  0  0  0  0
   -7.2948   24.7006  -31.3728 H   0  0  0  0  0  0  0  0  0  0  0  0
   -7.6358   22.2583  -29.7028 H   0  0  0  0  0  0  0  0  0  0  0  0
   -8.8551   23.4412  -30.3804 H   0  0  0  0  0  0  0  0  0  0  0  0
   -9.1336   21.0748  -31.1994 H   0  0  0  0  0  0  0  0  0  0  0  0
   -8.9002   22.3088  -32.4874 H   0  0  0  0  0  0  0  0  0  0  0  0
   -6.0467   17.9007  -32.9444 H   0  0  0  0  0  0  0  0  0  0  0  0
   -4.0345   21.7143  -33.2337 H   0  0  0  0  0  0  0  0  0  0  0  0
   -5.0884   23.6612  -32.3649 H   0  0  0  0  0  0  0  0  0  0  0  0
   -6.6891   23.6579  -33.2272 H   0  0  0  0  0  0  0  0  0  0  0  0
  1  2  1  0
  2  3  1  0
  2  4  1  0
  4  5  1  0
  5  6  1  0
  6  7  1  0
  7  8  2  0
  8  9  1  0
  8 10  1  0
 10 11  2  0
 11 12  1  0
 11 13  1  0
 13 14  2  0
 14 15  1  0
 15  4  1  0
 14  7  1  0
  1 16  1  0
  1 17  1  0
  1 18  1  0
  3 19  1  0
  3 20  1  0
  3 21  1  0
  4 22  1  6
  5 23  1  0
  5 24  1  0
  6 25  1  0
  6 26  1  0
 10 27  1  0
 13 28  1  0
 15 29  1  0
 15 30  1  0
M  END
>  <UniqueID>  (15) 
15

>  <SMILES>  (15) 
CN(C)[C@@H]1CCc2c(Br)cc(Br)cc2C1

>  <Energy>  (15) 
41.208309034258654

>  <Genealogy>  (15) 
CN(C)[C@@H]1CCc2c(Br)cc(Br)cc2C1 (chirality)
CN(C)[C@@H]1CCc2c(Br)cc(Br)cc2C1 (3D coordinates assigned)
CN(C)[C@@H]1CCc2c(Br)cc(Br)cc2C1 (nonaromatic ring conformer: 41.208309034258654 kcal/mol)

>  <smiles>  (15) 
CN(C)C1CCc2c(Br)cc(Br)cc2C1

>  <score_type>  (15) 
oracle

>  <origin>  (15) 
adg

>  <m_score__min__energy>  (15) 
-7.1799999999999997

>  <m_primary>  (15) 
energy

$$$$
15:0
     RDKit          3D

 52 55  0  0  0  0  0  0  0  0999 V2000
   -6.1300   25.3360  -29.9520 C   0  0  0  0  0  0  0  0  0  0  0  0
   -5.5460   24.6090  -31.1610 C   0  0  0  0  0  0  0  0  0  0  0  0
   -4.2200   24.0420  -30.8270 N   0  0  0  0  0  0  0  0  0  0  0  0
   -3.7210   24.5720  -29.5360 C   0  0  0  0  0  0  0  0  0  0  0  0
   -3.6710   23.4590  -28.4930 C   0  0  0  0  0  0  0  0  0  0  0  0
   -4.2570   22.5620  -30.8180 C   0  0  0  0  0  0  0  0  0  0  0  0
   -3.4210   22.0080  -31.9740 C   0  0  0  0  0  0  0  0  0  0  0  0
   -4.2780   21.6720  -33.1100 N   0  0  0  0  0  0  0  0  0  0  0  0
   -4.7840   20.3410  -33.2750 C   0  0  0  0  0  0  0  0  0  0  0  0
   -3.9610   19.2800  -33.7300 C   0  0  0  0  0  0  0  0  0  0  0  0
   -2.6200   19.5100  -34.0950 C   0  0  0  0  0  0  0  0  0  0  0  0
   -1.8120   18.4620  -34.5300 C   0  0  0  0  0  0  0  0  0  0  0  0
   -2.3200   17.1700  -34.6090 C   0  0  0  0  0  0  0  0  0  0  0  0
   -3.6440   16.9090  -34.2530 C   0  0  0  0  0  0  0  0  0  0  0  0
   -4.4930   17.9470  -33.8040 C   0  0  0  0  0  0  0  0  0  0  0  0
   -5.8050   17.6960  -33.4370 N   0  0  0  0  0  0  0  0  0  0  0  0
   -6.3860   16.3440  -33.4890 C   0  0  0  0  0  0  0  0  0  0  0  0
   -6.5790   18.7430  -33.0290 C   0  0  0  0  0  0  0  0  0  0  0  0
   -7.8490   18.6780  -32.6760 O   0  0  0  0  0  0  0  0  0  0  0  0
   -8.2240   19.9040  -32.3830 C   0  0  0  0  0  0  0  0  0  0  0  0
   -9.4880   20.3230  -31.9760 C   0  0  0  0  0  0  0  0  0  0  0  0
   -9.6850   21.6970  -31.7450 C   0  0  0  0  0  0  0  0  0  0  0  0
   -8.6280   22.6140  -31.9340 C   0  0  0  0  0  0  0  0  0  0  0  0
   -7.3590   22.1660  -32.3450 C   0  0  0  0  0  0  0  0  0  0  0  0
   -7.1830   20.7950  -32.5440 C   0  0  0  0  0  0  0  0  0  0  0  0
   -6.1040   20.0330  -32.9530 C   0  0  0  0  0  0  0  0  0  0  0  0
   -5.7560   24.8704  -29.0283 H   0  0  0  0  0  0  0  0  0  0  0  0
   -5.8272   26.3932  -29.9784 H   0  0  0  0  0  0  0  0  0  0  0  0
   -7.2276   25.2682  -29.9784 H   0  0  0  0  0  0  0  0  0  0  0  0
   -6.2243   23.7956  -31.4581 H   0  0  0  0  0  0  0  0  0  0  0  0
   -5.4315   25.3246  -31.9885 H   0  0  0  0  0  0  0  0  0  0  0  0
   -2.7104   24.9824  -29.6781 H   0  0  0  0  0  0  0  0  0  0  0  0
   -4.4015   25.3620  -29.1854 H   0  0  0  0  0  0  0  0  0  0  0  0
   -3.6908   23.8997  -27.4853 H   0  0  0  0  0  0  0  0  0  0  0  0
   -4.5403   22.7973  -28.6210 H   0  0  0  0  0  0  0  0  0  0  0  0
   -2.7458   22.8779  -28.6210 H   0  0  0  0  0  0  0  0  0  0  0  0
   -3.8494   22.1937  -29.8650 H   0  0  0  0  0  0  0  0  0  0  0  0
   -5.2984   22.2272  -30.9340 H   0  0  0  0  0  0  0  0  0  0  0  0
   -2.6871   22.7657  -32.2857 H   0  0  0  0  0  0  0  0  0  0  0  0
   -2.9050   21.0973  -31.6357 H   0  0  0  0  0  0  0  0  0  0  0  0
   -4.2490   22.3040  -33.9430 H   0  0  0  0  0  0  0  0  0  0  0  0
   -2.2067   20.5277  -34.0359 H   0  0  0  0  0  0  0  0  0  0  0  0
   -0.7670   18.6574  -34.8124 H   0  0  0  0  0  0  0  0  0  0  0  0
   -1.6746   16.3488  -34.9541 H   0  0  0  0  0  0  0  0  0  0  0  0
   -4.0323   15.8822  -34.3226 H   0  0  0  0  0  0  0  0  0  0  0  0
   -6.5451   15.9737  -32.4655 H   0  0  0  0  0  0  0  0  0  0  0  0
   -7.3486   16.3788  -34.0202 H   0  0  0  0  0  0  0  0  0  0  0  0
   -5.6983   15.6695  -34.0202 H   0  0  0  0  0  0  0  0  0  0  0  0
  -10.3074   19.6020  -31.8392 H   0  0  0  0  0  0  0  0  0  0  0  0
  -10.6697   22.0594  -31.4148 H   0  0  0  0  0  0  0  0  0  0  0  0
   -8.7979   23.6866  -31.7586 H   0  0  0  0  0  0  0  0  0  0  0  0
   -6.5318   22.8733  -32.5045 H   0  0  0  0  0  0  0  0  0  0  0  0
  1  2  1  0
  2  3  1  0
  3  4  1  0
  4  5  1  0
  3  6  1  0
  6  7  1  0
  7  8  1  0
  8  9  1  0
  9 10  2  0
 10 11  1  0
 11 12  2  0
 12 13  1  0
 13 14  2  0
 14 15  1  0
 15 16  2  0
 16 17  1  0
 16 18  1  0
 18 19  1  0
 19 20  1  0
 20 21  2  0
 21 22  1  0
 22 23  2  0
 23 24  1  0
 24 25  2  0
 25 26  1  0
 26  9  1  0
 15 10  1  0
 26 18  2  0
 25 20  1  0
  1 27  1  0
  1 28  1  0
  1 29  1  0
  2 30  1  0
  2 31  1  0
  4 32  1  0
  4 33  1  0
  5 34  1  0
  5 35  1  0
  5 36  1  0
  6 37  1  0
  6 38  1  0
  7 39  1  0
  7 40  1  0
  8 41  1  0
 11 42  1  0
 12 43  1  0
 13 44  1  0
 14 45  1  0
 17 46  1  0
 17 47  1  0
 17 48  1  0
 21 49  1  0
 22 50  1  0
 23 51  1  0
 24 52  1  0
M  CHG  1  16   1
M  END
>  <UniqueID>  (16) 
16

>  <SMILES>  (16) 
CCN(CC)CCNc1c2ccccc2[n+](C)c2oc3ccccc3c12

>  <Energy>  (16) 
107.43609747515873

>  <Genealogy>  (16) 
CCN(CC)CCNc1c2ccccc2[n+](C)c2oc3ccccc3c12 (3D coordinates assigned)
CCN(CC)CCNc1c2ccccc2[n+](C)c2oc3ccccc3c12 (optimized conformer: 107.43609747515873 kcal/mol)

>  <smiles>  (16) 
CCN(CC)CCNc1c2ccccc2[n+](C)c2oc3ccccc3c12

>  <score_type>  (16) 
oracle

>  <origin>  (16) 
adg

>  <m_score__min__energy>  (16) 
-8.8000000000000007

>  <m_primary>  (16) 
energy

$$$$
16:0
     RDKit          3D

 27 28  0  0  0  0  0  0  0  0999 V2000
   -4.9540   23.2110  -29.1640 C   0  0  0  0  0  0  0  0  0  0  0  0
   -4.2550   23.8680  -30.6640 S   0  0  0  0  0  0  0  0  0  0  0  0
   -3.8610   25.3060  -30.4760 O   0  0  0  0  0  0  0  0  0  0  0  0
   -3.0270   23.0730  -31.0100 O   0  0  0  0  0  0  0  0  0  0  0  0
   -5.3920   23.7270  -31.9670 N   0  0  0  0  0  0  0  0  0  0  0  0
   -6.4750   22.7870  -32.0700 C   0  0  0  0  0  0  0  0  0  0  0  0
   -7.7650   23.1470  -31.6370 C   0  0  0  0  0  0  0  0  0  0  0  0
   -8.7970   22.2140  -31.6060 C   0  0  0  0  0  0  0  0  0  0  0  0
   -8.5610   20.8980  -31.9810 C   0  0  0  0  0  0  0  0  0  0  0  0
   -7.2930   20.5060  -32.4300 C   0  0  0  0  0  0  0  0  0  0  0  0
   -7.0730   19.1620  -32.7650 C   0  0  0  0  0  0  0  0  0  0  0  0
   -5.8220   18.7410  -33.2010 C   0  0  0  0  0  0  0  0  0  0  0  0
   -4.7890   19.6610  -33.3520 C   0  0  0  0  0  0  0  0  0  0  0  0
   -4.9850   21.0200  -33.0620 C   0  0  0  0  0  0  0  0  0  0  0  0
   -3.9250   21.9270  -33.3960 N   0  0  0  0  0  0  0  0  0  0  0  0
   -6.2380   21.4590  -32.5340 C   0  0  0  0  0  0  0  0  0  0  0  0
   -4.4613   23.6741  -28.2963 H   0  0  0  0  0  0  0  0  0  0  0  0
   -6.0314   23.4310  -29.1345 H   0  0  0  0  0  0  0  0  0  0  0  0
   -4.8011   22.1221  -29.1345 H   0  0  0  0  0  0  0  0  0  0  0  0
   -7.9603   24.1815  -31.3183 H   0  0  0  0  0  0  0  0  0  0  0  0
   -9.8031   22.5200  -31.2833 H   0  0  0  0  0  0  0  0  0  0  0  0
   -9.3740   20.1592  -31.9252 H   0  0  0  0  0  0  0  0  0  0  0  0
   -7.8956   18.4364  -32.6822 H   0  0  0  0  0  0  0  0  0  0  0  0
   -5.6483   17.6786  -33.4271 H   0  0  0  0  0  0  0  0  0  0  0  0
   -3.8047   19.3181  -33.7037 H   0  0  0  0  0  0  0  0  0  0  0  0
   -3.8790   22.8790  -32.9730 H   0  0  0  0  0  0  0  0  0  0  0  0
   -3.3550   21.7720  -34.2570 H   0  0  0  0  0  0  0  0  0  0  0  0
  1  2  1  0
  2  3  2  0
  2  4  2  0
  2  5  1  0
  5  6  1  0
  6  7  2  0
  7  8  1  0
  8  9  2  0
  9 10  1  0
 10 11  2  0
 11 12  1  0
 12 13  2  0
 13 14  1  0
 14 15  1  0
 14 16  2  0
 16  6  1  0
 16 10  1  0
  1 17  1  0
  1 18  1  0
  1 19  1  0
  7 20  1  0
  8 21  1  0
  9 22  1  0
 11 23  1  0
 12 24  1  0
 13 25  1  0
 15 26  1  0
 15 27  1  0
M  CHG  1   5  -1
M  END
>  <UniqueID>  (17) 
17

>  <SMILES>  (17) 
CS(=O)(=O)[N-]c1cccc2cccc(N)c12

>  <Energy>  (17) 
38.568690105060156

>  <Genealogy>  (17) 
CS(=O)(=O)[N-]c1cccc2cccc(N)c12 (protonated)
CS(=O)(=O)[N-]c1cccc2cccc(N)c12 (3D coordinates assigned)
CS(=O)(=O)[N-]c1cccc2cccc(N)c12 (optimized conformer: 38.568690105060156 kcal/mol)

>  <smiles>  (17) 
CS(=O)(=O)Nc1cccc2cccc(N)c12

>  <score_type>  (17) 
oracle

>  <origin>  (17) 
adg

>  <m_score__min__energy>  (17) 
-8.5399999999999991

>  <m_primary>  (17) 
energy

$$$$
17:0
     RDKit          3D

 53 55  0  0  0  0  0  0  0  0999 V2000
   -0.3530   17.0160  -34.6870 C   0  0  0  0  0  0  0  0  0  0  0  0
   -1.2940   16.8510  -33.6160 N   0  0  0  0  0  0  0  0  0  0  0  0
   -0.7600   17.2190  -32.3480 C   0  0  0  0  0  0  0  0  0  0  0  0
   -2.1350   15.7390  -33.6930 C   0  0  0  0  0  0  0  0  0  0  0  0
   -3.6050   15.9340  -33.6800 C   0  0  0  0  0  0  0  0  0  0  0  0
   -3.9980   17.0820  -34.5610 C   0  0  0  0  0  0  0  0  0  0  0  0
   -4.8040   18.0740  -33.8930 N   0  0  0  0  0  0  0  0  0  0  0  0
   -4.2950   19.3100  -33.5840 C   0  0  0  0  0  0  0  0  0  0  0  0
   -2.6150   19.6050  -34.0540 S   0  0  0  0  0  0  0  0  0  0  0  0
   -2.0510   21.1860  -33.4330 C   0  0  0  0  0  0  0  0  0  0  0  0
   -2.3840   21.4350  -31.9740 C   0  0  0  0  0  0  0  0  0  0  0  0
   -3.3240   22.2360  -31.5940 O   0  0  0  0  0  0  0  0  0  0  0  0
   -4.2580   23.0320  -31.2160 C   0  0  0  0  0  0  0  0  0  0  0  0
   -5.3960   23.2750  -31.9910 C   0  0  0  0  0  0  0  0  0  0  0  0
   -6.3920   24.1130  -31.6040 C   0  0  0  0  0  0  0  0  0  0  0  0
   -6.2620   24.7470  -30.3850 C   0  0  0  0  0  0  0  0  0  0  0  0
   -5.1750   24.5650  -29.5630 C   0  0  0  0  0  0  0  0  0  0  0  0
   -4.1890   23.7110  -29.9870 C   0  0  0  0  0  0  0  0  0  0  0  0
   -2.8090   23.4940  -28.9150 Cl  0  0  0  0  0  0  0  0  0  0  0  0
   -5.0880   20.1950  -32.9630 N   0  0  0  0  0  0  0  0  0  0  0  0
   -6.3660   19.8660  -32.6500 C   0  0  0  0  0  0  0  0  0  0  0  0
   -7.2030   20.7510  -32.0050 C   0  0  0  0  0  0  0  0  0  0  0  0
   -8.4980   20.4020  -31.6870 C   0  0  0  0  0  0  0  0  0  0  0  0
   -9.5080   21.5920  -30.8590 Cl  0  0  0  0  0  0  0  0  0  0  0  0
   -9.0230   19.1680  -31.9900 C   0  0  0  0  0  0  0  0  0  0  0  0
   -8.1880   18.2600  -32.6430 C   0  0  0  0  0  0  0  0  0  0  0  0
   -6.8980   18.6230  -32.9540 C   0  0  0  0  0  0  0  0  0  0  0  0
   -6.0690   17.7370  -33.5890 C   0  0  0  0  0  0  0  0  0  0  0  0
   -6.4990   16.5960  -33.8870 O   0  0  0  0  0  0  0  0  0  0  0  0
    0.6497   17.1918  -34.2703 H   0  0  0  0  0  0  0  0  0  0  0  0
   -0.3386   16.1067  -35.3058 H   0  0  0  0  0  0  0  0  0  0  0  0
   -0.6489   17.8760  -35.3058 H   0  0  0  0  0  0  0  0  0  0  0  0
   -1.3828   16.7898  -31.5493 H   0  0  0  0  0  0  0  0  0  0  0  0
    0.2673   16.8362  -32.2577 H   0  0  0  0  0  0  0  0  0  0  0  0
   -0.7520   18.3153  -32.2577 H   0  0  0  0  0  0  0  0  0  0  0  0
   -1.8897   15.2163  -34.6293 H   0  0  0  0  0  0  0  0  0  0  0  0
   -1.9372   15.1996  -32.7550 H   0  0  0  0  0  0  0  0  0  0  0  0
   -4.0935   15.0175  -34.0426 H   0  0  0  0  0  0  0  0  0  0  0  0
   -3.9221   16.1554  -32.6502 H   0  0  0  0  0  0  0  0  0  0  0  0
   -3.0819   17.5680  -34.9279 H   0  0  0  0  0  0  0  0  0  0  0  0
   -4.6080   16.6676  -35.3772 H   0  0  0  0  0  0  0  0  0  0  0  0
   -0.9583   21.2330  -33.5504 H   0  0  0  0  0  0  0  0  0  0  0  0
   -2.5754   21.9593  -34.0136 H   0  0  0  0  0  0  0  0  0  0  0  0
   -2.6327   20.4519  -31.5477 H   0  0  0  0  0  0  0  0  0  0  0  0
   -1.4863   21.9706  -31.6314 H   0  0  0  0  0  0  0  0  0  0  0  0
   -5.4890   22.7631  -32.9602 H   0  0  0  0  0  0  0  0  0  0  0  0
   -7.2730   24.2809  -32.2408 H   0  0  0  0  0  0  0  0  0  0  0  0
   -7.0621   25.4269  -30.0571 H   0  0  0  0  0  0  0  0  0  0  0  0
   -5.0987   25.0868  -28.5977 H   0  0  0  0  0  0  0  0  0  0  0  0
   -4.6840   21.1190  -32.7300 H   0  0  0  0  0  0  0  0  0  0  0  0
   -6.8316   21.7518  -31.7398 H   0  0  0  0  0  0  0  0  0  0  0  0
  -10.0590   18.9069  -31.7284 H   0  0  0  0  0  0  0  0  0  0  0  0
   -8.5596   17.2591  -32.9077 H   0  0  0  0  0  0  0  0  0  0  0  0
  1  2  1  0
  2  3  1  0
  2  4  1  0
  4  5  1  0
  5  6  1  0
  6  7  1  0
  7  8  1  0
  8  9  1  0
  9 10  1  0
 10 11  1  0
 11 12  1  0
 12 13  1  0
 13 14  2  0
 14 15  1  0
 15 16  2  0
 16 17  1  0
 17 18  2  0
 18 19  1  0
  8 20  2  0
 20 21  1  0
 21 22  2  0
 22 23  1  0
 23 24  1  0
 23 25  2  0
 25 26  1  0
 26 27  2  0
 27 28  1  0
 28 29  2  0
 28  7  1  0
 18 13  1  0
 27 21  1  0
  1 30  1  0
  1 31  1  0
  1 32  1  0
  3 33  1  0
  3 34  1  0
  3 35  1  0
  4 36  1  0
  4 37  1  0
  5 38  1  0
  5 39  1  0
  6 40  1  0
  6 41  1  0
 10 42  1  0
 10 43  1  0
 11 44  1  0
 11 45  1  0
 14 46  1  0
 15 47  1  0
 16 48  1  0
 17 49  1  0
 20 50  1  0
 22 51  1  0
 25 52  1  0
 26 53  1  0
M  CHG  1  20   1
M  END
>  <UniqueID>  (18) 
18

>  <SMILES>  (18) 
CN(C)CCCn1c(SCCOc2ccccc2Cl)[nH+]c2cc(Cl)ccc2c1=O

>  <Energy>  (18) 
203.88509455181378

>  <Genealogy>  (18) 
CN(C)CCCn1c(SCCOc2ccccc2Cl)[nH+]c2cc(Cl)ccc2c1=O (protonated)
CN(C)CCCn1c(SCCOc2ccccc2Cl)[nH+]c2cc(Cl)ccc2c1=O (3D coordinates assigned)
CN(C)CCCn1c(SCCOc2ccccc2Cl)[nH+]c2cc(Cl)ccc2c1=O (optimized conformer: 203.88509455181378 kcal/mol)

>  <smiles>  (18) 
CN(C)CCCn1c(SCCOc2ccccc2Cl)nc2cc(Cl)ccc2c1=O

>  <score_type>  (18) 
oracle

>  <origin>  (18) 
adg

>  <m_score__min__energy>  (18) 
-7.7699999999999996

>  <m_primary>  (18) 
energy

$$$$
18:0
     RDKit          3D

 51 53  0  0  0  0  0  0  0  0999 V2000
   -7.8980   18.1780  -31.4700 C   0  0  0  0  0  0  0  0  0  0  0  0
   -9.1520   18.8470  -32.0280 C   0  0  0  0  0  0  0  0  0  0  0  0
   -8.8250   19.9150  -33.0820 C   0  0  0  0  0  0  0  0  0  0  0  0
   -7.4050   20.3030  -33.0360 N   0  0  0  0  0  0  0  0  0  0  0  0
   -6.5060   19.6530  -33.8320 C   0  0  0  0  0  0  0  0  0  0  0  0
   -5.1430   19.9590  -33.7810 C   0  0  0  0  0  0  0  0  0  0  0  0
   -4.6470   20.9490  -32.8960 C   0  0  0  0  0  0  0  0  0  0  0  0
   -3.2230   21.2130  -32.7610 N   0  0  0  0  0  0  0  0  0  0  0  0
   -2.3600   20.0220  -32.6420 C   0  0  0  0  0  0  0  0  0  0  0  0
   -1.5360   20.0770  -31.3350 C   0  0  0  0  0  0  0  0  0  0  0  0
   -1.8540   21.2260  -30.4580 N   0  0  0  0  0  0  0  0  0  0  0  0
   -2.6570   20.8480  -29.2840 C   0  0  0  0  0  0  0  0  0  0  0  0
   -0.6650   21.9970  -30.0630 C   0  0  0  0  0  0  0  0  0  0  0  0
   -5.6070   21.6760  -32.1360 C   0  0  0  0  0  0  0  0  0  0  0  0
   -5.4320   22.7780  -31.2420 C   0  0  0  0  0  0  0  0  0  0  0  0
   -4.2710   23.5270  -30.9570 C   0  0  0  0  0  0  0  0  0  0  0  0
   -4.3220   24.5890  -30.0350 C   0  0  0  0  0  0  0  0  0  0  0  0
   -3.1390   25.2970  -29.7760 O   0  0  0  0  0  0  0  0  0  0  0  0
   -2.1770   24.9260  -28.7940 C   0  0  0  0  0  0  0  0  0  0  0  0
   -5.5460   24.9160  -29.4090 C   0  0  0  0  0  0  0  0  0  0  0  0
   -6.7080   24.2040  -29.7140 C   0  0  0  0  0  0  0  0  0  0  0  0
   -6.6280   23.1580  -30.6280 C   0  0  0  0  0  0  0  0  0  0  0  0
   -7.9070   22.2270  -31.1740 S   0  0  0  0  0  0  0  0  0  0  0  0
   -6.9560   21.2940  -32.2100 C   0  0  0  0  0  0  0  0  0  0  0  0
   -7.9313   18.1957  -30.3706 H   0  0  0  0  0  0  0  0  0  0  0  0
   -7.8524   17.1357  -31.8187 H   0  0  0  0  0  0  0  0  0  0  0  0
   -7.0069   18.7206  -31.8187 H   0  0  0  0  0  0  0  0  0  0  0  0
   -9.7874   18.0772  -32.4902 H   0  0  0  0  0  0  0  0  0  0  0  0
   -9.6663   19.3455  -31.1932 H   0  0  0  0  0  0  0  0  0  0  0  0
   -9.0535   19.5135  -34.0803 H   0  0  0  0  0  0  0  0  0  0  0  0
   -9.4331   20.8067  -32.8695 H   0  0  0  0  0  0  0  0  0  0  0  0
   -6.8602   18.8756  -34.5250 H   0  0  0  0  0  0  0  0  0  0  0  0
   -4.4434   19.4224  -34.4388 H   0  0  0  0  0  0  0  0  0  0  0  0
   -2.9120   21.7550  -33.5990 H   0  0  0  0  0  0  0  0  0  0  0  0
   -3.0910   21.7640  -31.8820 H   0  0  0  0  0  0  0  0  0  0  0  0
   -2.9884   19.1192  -32.6357 H   0  0  0  0  0  0  0  0  0  0  0  0
   -1.6684   19.9977  -33.4971 H   0  0  0  0  0  0  0  0  0  0  0  0
   -1.7240   19.1516  -30.7709 H   0  0  0  0  0  0  0  0  0  0  0  0
   -0.4834   20.1922  -31.6329 H   0  0  0  0  0  0  0  0  0  0  0  0
   -2.1086   21.1062  -28.3661 H   0  0  0  0  0  0  0  0  0  0  0  0
   -3.6138   21.3903  -29.3042 H   0  0  0  0  0  0  0  0  0  0  0  0
   -2.8488   19.7650  -29.3042 H   0  0  0  0  0  0  0  0  0  0  0  0
   -0.6023   22.0377  -28.9655 H   0  0  0  0  0  0  0  0  0  0  0  0
    0.2368   21.5113  -30.4641 H   0  0  0  0  0  0  0  0  0  0  0  0
   -0.7405   23.0185  -30.4641 H   0  0  0  0  0  0  0  0  0  0  0  0
   -3.3228   23.2801  -31.4570 H   0  0  0  0  0  0  0  0  0  0  0  0
   -2.5966   25.0878  -27.7901 H   0  0  0  0  0  0  0  0  0  0  0  0
   -1.9188   23.8638  -28.9166 H   0  0  0  0  0  0  0  0  0  0  0  0
   -1.2724   25.5398  -28.9166 H   0  0  0  0  0  0  0  0  0  0  0  0
   -5.5837   25.7363  -28.6771 H   0  0  0  0  0  0  0  0  0  0  0  0
   -7.6665   24.4647  -29.2415 H   0  0  0  0  0  0  0  0  0  0  0  0
  1  2  1  0
  2  3  1  0
  3  4  1  0
  4  5  2  0
  5  6  1  0
  6  7  2  0
  7  8  1  0
  8  9  1  0
  9 10  1  0
 10 11  1  0
 11 12  1  0
 11 13  1  0
  7 14  1  0
 14 15  1  0
 15 16  2  0
 16 17  1  0
 17 18  1  0
 18 19  1  0
 17 20  2  0
 20 21  1  0
 21 22  2  0
 22 23  1  0
 23 24  1  0
 24  4  1  0
 24 14  2  0
 22 15  1  0
  1 25  1  0
  1 26  1  0
  1 27  1  0
  2 28  1  0
  2 29  1  0
  3 30  1  0
  3 31  1  0
  5 32  1  0
  6 33  1  0
  8 34  1  0
  8 35  1  0
  9 36  1  0
  9 37  1  0
 10 38  1  0
 10 39  1  0
 12 40  1  0
 12 41  1  0
 12 42  1  0
 13 43  1  0
 13 44  1  0
 13 45  1  0
 16 46  1  0
 19 47  1  0
 19 48  1  0
 19 49  1  0
 20 50  1  0
 21 51  1  0
M  CHG  2   4   1   8   1
M  END
>  <UniqueID>  (19) 
19

>  <SMILES>  (19) 
CCC[n+]1ccc([NH2+]CCN(C)C)c2c3cc(OC)ccc3sc21

>  <Energy>  (19) 
99.19124983024126

>  <Genealogy>  (19) 
CCC[n+]1ccc([NH2+]CCN(C)C)c2c3cc(OC)ccc3sc21 (protonated)
CCC[n+]1ccc([NH2+]CCN(C)C)c2c3cc(OC)ccc3sc21 (3D coordinates assigned)
CCC[n+]1ccc([NH2+]CCN(C)C)c2c3cc(OC)ccc3sc21 (optimized conformer: 99.19124983024126 kcal/mol)

>  <smiles>  (19) 
CCC[n+]1ccc(NCCN(C)C)c2c3cc(OC)ccc3sc21

>  <score_type>  (19) 
oracle

>  <origin>  (19) 
adg

>  <m_score__min__energy>  (19) 
-6.7300000000000004

>  <m_primary>  (19) 
energy

$$$$
19:0
     RDKit          3D

 67 71  0  0  0  0  0  0  0  0999 V2000
   -0.5790   21.3370  -30.6150 C   0  0  0  0  0  0  0  0  0  0  0  0
   -1.2630   22.6770  -30.2920 C   0  0  0  0  0  0  0  0  0  0  0  0
   -2.6870   22.5860  -29.8570 N   0  0  0  0  0  0  0  0  0  0  0  0
   -3.1350   21.1850  -29.6300 C   0  0  0  0  0  0  0  0  0  0  0  0
   -2.7820   20.6010  -28.2580 C   0  0  0  0  0  0  0  0  0  0  0  0
   -3.0340   23.5430  -28.7700 C   0  0  0  0  0  0  0  0  0  0  0  0
   -4.1940   24.4890  -29.1250 C   0  0  0  0  0  0  0  0  0  0  0  0
   -4.0830   24.8920  -30.4720 O   0  0  0  0  0  0  0  0  0  0  0  0
   -5.3610   24.9210  -31.0690 C   0  0  0  0  0  0  0  0  0  0  0  0
   -5.9610   23.5170  -31.0410 C   0  0  0  0  0  0  0  0  0  0  0  0
   -5.9620   22.9280  -32.3800 N   0  0  0  0  0  0  0  0  0  0  0  0
   -5.9250   21.5010  -32.5650 C   0  0  0  0  0  0  0  0  0  0  0  0
   -7.1030   20.7380  -32.4470 C   0  0  0  0  0  0  0  0  0  0  0  0
   -8.3610   21.3590  -32.2960 C   0  0  0  0  0  0  0  0  0  0  0  0
   -9.5130   20.5950  -32.1250 C   0  0  0  0  0  0  0  0  0  0  0  0
   -9.4350   19.2070  -32.1070 C   0  0  0  0  0  0  0  0  0  0  0  0
   -8.2040   18.5710  -32.2710 C   0  0  0  0  0  0  0  0  0  0  0  0
   -7.0170   19.3210  -32.4590 C   0  0  0  0  0  0  0  0  0  0  0  0
   -5.7970   18.7010  -32.6350 N   0  0  0  0  0  0  0  0  0  0  0  0
   -5.6080   17.3440  -32.0820 C   0  0  0  0  0  0  0  0  0  0  0  0
   -4.7140   19.4410  -33.0630 C   0  0  0  0  0  0  0  0  0  0  0  0
   -4.7180   20.8560  -32.8940 C   0  0  0  0  0  0  0  0  0  0  0  0
   -3.5070   21.5890  -33.0370 C   0  0  0  0  0  0  0  0  0  0  0  0
   -2.3120   20.9500  -33.3840 C   0  0  0  0  0  0  0  0  0  0  0  0
   -2.3540   19.5950  -33.6800 C   0  0  0  0  0  0  0  0  0  0  0  0
   -1.3460   18.8770  -34.2180 N   0  0  0  0  0  0  0  0  0  0  0  0
   -1.9030   17.6990  -34.5550 C   0  0  0  0  0  0  0  0  0  0  0  0
   -1.2920   16.6740  -35.2770 C   0  0  0  0  0  0  0  0  0  0  0  0
   -2.0890   15.5980  -35.7000 C   0  0  0  0  0  0  0  0  0  0  0  0
   -3.4740   15.5930  -35.4420 C   0  0  0  0  0  0  0  0  0  0  0  0
   -4.0710   16.6480  -34.7290 C   0  0  0  0  0  0  0  0  0  0  0  0
   -3.2460   17.6630  -34.2320 C   0  0  0  0  0  0  0  0  0  0  0  0
   -3.5300   18.8680  -33.5950 C   0  0  0  0  0  0  0  0  0  0  0  0
   -0.3170   20.8238  -29.6780 H   0  0  0  0  0  0  0  0  0  0  0  0
   -1.2655   20.7063  -31.1990 H   0  0  0  0  0  0  0  0  0  0  0  0
    0.3345   21.5230  -31.1990 H   0  0  0  0  0  0  0  0  0  0  0  0
   -0.6933   23.1620  -29.4857 H   0  0  0  0  0  0  0  0  0  0  0  0
   -1.2721   23.2447  -31.2341 H   0  0  0  0  0  0  0  0  0  0  0  0
   -3.2380   22.9020  -30.6920 H   0  0  0  0  0  0  0  0  0  0  0  0
   -4.2290   21.1554  -29.7411 H   0  0  0  0  0  0  0  0  0  0  0  0
   -2.6012   20.5703  -30.3697 H   0  0  0  0  0  0  0  0  0  0  0  0
   -3.1779   21.2559  -27.4679 H   0  0  0  0  0  0  0  0  0  0  0  0
   -3.2260   19.5993  -28.1606 H   0  0  0  0  0  0  0  0  0  0  0  0
   -1.6887   20.5285  -28.1606 H   0  0  0  0  0  0  0  0  0  0  0  0
   -3.3172   22.9663  -27.8771 H   0  0  0  0  0  0  0  0  0  0  0  0
   -2.1474   24.1716  -28.6004 H   0  0  0  0  0  0  0  0  0  0  0  0
   -5.1505   23.9663  -28.9773 H   0  0  0  0  0  0  0  0  0  0  0  0
   -4.1534   25.3754  -28.4749 H   0  0  0  0  0  0  0  0  0  0  0  0
   -6.0119   25.6103  -30.5112 H   0  0  0  0  0  0  0  0  0  0  0  0
   -5.2745   25.2649  -32.1103 H   0  0  0  0  0  0  0  0  0  0  0  0
   -5.3649   22.8830  -30.3681 H   0  0  0  0  0  0  0  0  0  0  0  0
   -6.9991   23.5832  -30.6832 H   0  0  0  0  0  0  0  0  0  0  0  0
   -5.7220   23.5460  -33.1870 H   0  0  0  0  0  0  0  0  0  0  0  0
   -8.4326   22.4565  -32.3135 H   0  0  0  0  0  0  0  0  0  0  0  0
  -10.4872   21.0912  -32.0039 H   0  0  0  0  0  0  0  0  0  0  0  0
  -10.3466   18.6084  -31.9630 H   0  0  0  0  0  0  0  0  0  0  0  0
   -8.1545   17.4722  -32.2541 H   0  0  0  0  0  0  0  0  0  0  0  0
   -5.6146   17.3917  -30.9831 H   0  0  0  0  0  0  0  0  0  0  0  0
   -6.4239   16.6911  -32.4256 H   0  0  0  0  0  0  0  0  0  0  0  0
   -4.6448   16.9389  -32.4256 H   0  0  0  0  0  0  0  0  0  0  0  0
   -3.5105   22.6765  -32.8719 H   0  0  0  0  0  0  0  0  0  0  0  0
   -1.3641   21.5069  -33.4212 H   0  0  0  0  0  0  0  0  0  0  0  0
   -0.3770   19.2040  -34.4320 H   0  0  0  0  0  0  0  0  0  0  0  0
   -0.2171   16.7075  -35.5083 H   0  0  0  0  0  0  0  0  0  0  0  0
   -1.6294   14.7544  -36.2358 H   0  0  0  0  0  0  0  0  0  0  0  0
   -4.0931   14.7576  -35.8010 H   0  0  0  0  0  0  0  0  0  0  0  0
   -5.1586   16.6746  -34.5662 H   0  0  0  0  0  0  0  0  0  0  0  0
  1  2  1  0
  2  3  1  0
  3  4  1  0
  4  5  1  0
  3  6  1  0
  6  7  1  0
  7  8  1  0
  8  9  1  0
  9 10  1  0
 10 11  1  0
 11 12  1  0
 12 13  2  0
 13 14  1  0
 14 15  2  0
 15 16  1  0
 16 17  2  0
 17 18  1  0
 18 19  2  0
 19 20  1  0
 19 21  1  0
 21 22  2  0
 22 23  1  0
 23 24  2  0
 24 25  1  0
 25 26  1  0
 26 27  1  0
 27 28  2  0
 28 29  1  0
 29 30  2  0
 30 31  1  0
 31 32  2  0
 32 33  1  0
 22 12  1  0
 33 25  2  0
 18 13  1  0
 33 21  1  0
 32 27  1  0
  1 34  1  0
  1 35  1  0
  1 36  1  0
  2 37  1  0
  2 38  1  0
  3 39  1  0
  4 40  1  0
  4 41  1  0
  5 42  1  0
  5 43  1  0
  5 44  1  0
  6 45  1  0
  6 46  1  0
  7 47  1  0
  7 48  1  0
  9 49  1  0
  9 50  1  0
 10 51  1  0
 10 52  1  0
 11 53  1  0
 14 54  1  0
 15 55  1  0
 16 56  1  0
 17 57  1  0
 20 58  1  0
 20 59  1  0
 20 60  1  0
 23 61  1  0
 24 62  1  0
 26 63  1  0
 28 64  1  0
 29 65  1  0
 30 66  1  0
 31 67  1  0
M  CHG  2   3   1  19   1
M  END
>  <UniqueID>  (20) 
20

>  <SMILES>  (20) 
CC[NH+](CC)CCOCCNc1c2ccccc2[n+](C)c2c1ccc1[nH]c3ccccc3c12

>  <Energy>  (20) 
155.0320448558871

>  <Genealogy>  (20) 
CC[NH+](CC)CCOCCNc1c2ccccc2[n+](C)c2c1ccc1[nH]c3ccccc3c12 (protonated)
CC[NH+](CC)CCOCCNc1c2ccccc2[n+](C)c2c1ccc1[nH]c3ccccc3c12 (3D coordinates assigned)
CC[NH+](CC)CCOCCNc1c2ccccc2[n+](C)c2c1ccc1[nH]c3ccccc3c12 (optimized conformer: 155.0320448558871 kcal/mol)

>  <smiles>  (20) 
CCN(CC)CCOCCNc1c2ccccc2[n+](C)c2c1ccc1[nH]c3ccccc3c12

>  <score_type>  (20) 
oracle

>  <origin>  (20) 
adg

>  <m_score__min__energy>  (20) 
-9.5899999999999999

>  <m_primary>  (20) 
energy

$$$$
20:0
     RDKit          3D

 56 58  0  0  0  0  0  0  0  0999 V2000
   -2.5630   24.9530  -26.5140 C   0  0  0  0  0  0  0  0  0  0  0  0
   -2.2600   24.2590  -27.8370 C   0  0  0  0  0  0  0  0  0  0  0  0
   -3.3410   24.4700  -28.8030 N   0  0  0  0  0  0  0  0  0  0  0  0
   -3.5210   23.6540  -29.9750 C   0  0  0  0  0  0  0  0  0  0  0  0
   -2.5760   22.6590  -30.2730 C   0  0  0  0  0  0  0  0  0  0  0  0
   -2.7240   21.8500  -31.4020 C   0  0  0  0  0  0  0  0  0  0  0  0
   -3.8210   22.0240  -32.2590 C   0  0  0  0  0  0  0  0  0  0  0  0
   -3.9900   21.1290  -33.4590 C   0  0  0  0  0  0  0  0  0  0  0  0
   -4.2380   19.7310  -33.0450 N   0  0  0  0  0  0  0  0  0  0  0  0
   -4.9730   18.9770  -34.0890 C   0  0  0  0  0  0  0  0  0  0  0  0
   -6.4920   18.9760  -33.8460 C   0  0  0  0  0  0  0  0  0  0  0  0
   -6.8650   18.3870  -32.5350 N   0  0  0  0  0  0  0  0  0  0  0  0
   -8.0920   19.0030  -31.9690 C   0  0  0  0  0  0  0  0  0  0  0  0
   -8.0850   20.5560  -31.9810 C   0  0  0  0  0  0  0  0  0  0  0  0
   -7.2350   21.1790  -30.8420 C   0  0  0  0  0  0  0  0  0  0  0  0
   -7.5950   22.6510  -30.5540 C   0  0  0  0  0  0  0  0  0  0  0  0
   -8.1300   23.3680  -31.8000 C   0  0  0  0  0  0  0  0  0  0  0  0
   -9.4110   22.6990  -32.3420 C   0  0  0  0  0  0  0  0  0  0  0  0
   -9.4910   21.1870  -32.0410 C   0  0  0  0  0  0  0  0  0  0  0  0
   -5.7490   18.4060  -31.5550 C   0  0  0  0  0  0  0  0  0  0  0  0
   -4.8870   19.6660  -31.7100 C   0  0  0  0  0  0  0  0  0  0  0  0
   -4.7730   23.0120  -31.9640 C   0  0  0  0  0  0  0  0  0  0  0  0
   -4.6260   23.8220  -30.8340 C   0  0  0  0  0  0  0  0  0  0  0  0
   -2.2757   24.2950  -25.6806 H   0  0  0  0  0  0  0  0  0  0  0  0
   -1.9928   25.8917  -26.4534 H   0  0  0  0  0  0  0  0  0  0  0  0
   -3.6391   25.1730  -26.4534 H   0  0  0  0  0  0  0  0  0  0  0  0
   -1.3249   24.6653  -28.2499 H   0  0  0  0  0  0  0  0  0  0  0  0
   -2.1635   23.1791  -27.6510 H   0  0  0  0  0  0  0  0  0  0  0  0
   -4.0180   25.2510  -28.6380 H   0  0  0  0  0  0  0  0  0  0  0  0
   -1.7099   22.5151  -29.6103 H   0  0  0  0  0  0  0  0  0  0  0  0
   -1.9768   21.0727  -31.6202 H   0  0  0  0  0  0  0  0  0  0  0  0
   -4.8429   21.4844  -34.0559 H   0  0  0  0  0  0  0  0  0  0  0  0
   -3.0649   21.1603  -34.0534 H   0  0  0  0  0  0  0  0  0  0  0  0
   -4.7712   19.4383  -35.0670 H   0  0  0  0  0  0  0  0  0  0  0  0
   -4.6260   17.9336  -34.0586 H   0  0  0  0  0  0  0  0  0  0  0  0
   -6.8541   20.0141  -33.8806 H   0  0  0  0  0  0  0  0  0  0  0  0
   -6.9522   18.3568  -34.6301 H   0  0  0  0  0  0  0  0  0  0  0  0
   -8.9550   18.6568  -32.5567 H   0  0  0  0  0  0  0  0  0  0  0  0
   -8.1448   18.6941  -30.9146 H   0  0  0  0  0  0  0  0  0  0  0  0
   -7.5883   20.8113  -32.9287 H   0  0  0  0  0  0  0  0  0  0  0  0
   -7.3957   20.5934  -29.9248 H   0  0  0  0  0  0  0  0  0  0  0  0
   -6.1843   21.1558  -31.1667 H   0  0  0  0  0  0  0  0  0  0  0  0
   -8.3653   22.6809  -29.7693 H   0  0  0  0  0  0  0  0  0  0  0  0
   -6.6784   23.1676  -30.2330 H   0  0  0  0  0  0  0  0  0  0  0  0
   -8.3568   24.4124  -31.5397 H   0  0  0  0  0  0  0  0  0  0  0  0
   -7.3590   23.3135  -32.5827 H   0  0  0  0  0  0  0  0  0  0  0  0
  -10.2814   23.1916  -31.8841 H   0  0  0  0  0  0  0  0  0  0  0  0
   -9.3960   22.8106  -33.4362 H   0  0  0  0  0  0  0  0  0  0  0  0
   -9.9922   21.0397  -31.0729 H   0  0  0  0  0  0  0  0  0  0  0  0
  -10.0575   20.7002  -32.8485 H   0  0  0  0  0  0  0  0  0  0  0  0
   -6.1662   18.3811  -30.5375 H   0  0  0  0  0  0  0  0  0  0  0  0
   -5.1130   17.5275  -31.7386 H   0  0  0  0  0  0  0  0  0  0  0  0
   -5.5258   20.5522  -31.5813 H   0  0  0  0  0  0  0  0  0  0  0  0
   -4.0955   19.6343  -30.9467 H   0  0  0  0  0  0  0  0  0  0  0  0
   -5.6405   23.1500  -32.6261 H   0  0  0  0  0  0  0  0  0  0  0  0
   -5.3771   24.5950  -30.6139 H   0  0  0  0  0  0  0  0  0  0  0  0
  1  2  1  0
  2  3  1  0
  3  4  1  0
  4  5  2  0
  5  6  1  0
  6  7  2  0
  7  8  1  0
  8  9  1  0
  9 10  1  0
 10 11  1  0
 11 12  1  0
 12 13  1  0
 13 14  1  0
 14 15  1  0
 15 16  1  0
 16 17  1  0
 17 18  1  0
 18 19  1  0
 12 20  1  0
 20 21  1  0
  7 22  1  0
 22 23  2  0
 23  4  1  0
 21  9  1  0
 19 14  1  0
  1 24  1  0
  1 25  1  0
  1 26  1  0
  2 27  1  0
  2 28  1  0
  3 29  1  0
  5 30  1  0
  6 31  1  0
  8 32  1  0
  8 33  1  0
 10 34  1  0
 10 35  1  0
 11 36  1  0
 11 37  1  0
 13 38  1  0
 13 39  1  0
 14 40  1  0
 15 41  1  0
 15 42  1  0
 16 43  1  0
 16 44  1  0
 17 45  1  0
 17 46  1  0
 18 47  1  0
 18 48  1  0
 19 49  1  0
 19 50  1  0
 20 51  1  0
 20 52  1  0
 21 53  1  0
 21 54  1  0
 22 55  1  0
 23 56  1  0
M  END
>  <UniqueID>  (21) 
21

>  <SMILES>  (21) 
CCNc1ccc(CN2CCN(CC3CCCCC3)CC2)cc1

>  <Energy>  (21) 
70.65910961300412

>  <Genealogy>  (21) 
CCNc1ccc(CN2CCN(CC3CCCCC3)CC2)cc1 (3D coordinates assigned)
CCNc1ccc(CN2CCN(CC3CCCCC3)CC2)cc1 (nonaromatic ring conformer: 70.65910961300412 kcal/mol)

>  <smiles>  (21) 
CCNc1ccc(CN2CCN(CC3CCCCC3)CC2)cc1

>  <score_type>  (21) 
oracle

>  <origin>  (21) 
adg

>  <m_score__min__energy>  (21) 
-9.0500000000000007

>  <m_primary>  (21) 
energy

$$$$
21:0
     RDKit          3D

 51 52  0  0  0  0  0  0  0  0999 V2000
   -1.3350   20.9400  -26.6410 C   0  0  0  0  0  0  0  0  0  0  0  0
   -0.9020   22.2430  -25.9730 C   0  0  0  0  0  0  0  0  0  0  0  0
   -0.6440   23.2920  -26.9870 N   0  0  0  0  0  0  0  0  0  0  0  0
    0.7760   23.6920  -26.9560 C   0  0  0  0  0  0  0  0  0  0  0  0
   -1.5210   24.4640  -26.7570 C   0  0  0  0  0  0  0  0  0  0  0  0
   -2.5950   24.5830  -27.8470 C   0  0  0  0  0  0  0  0  0  0  0  0
   -2.5420   23.4290  -28.7440 N   0  0  0  0  0  0  0  0  0  0  0  0
   -3.0450   23.4780  -30.0900 C   0  0  0  0  0  0  0  0  0  0  0  0
   -3.5730   24.5410  -30.5190 O   0  0  0  0  0  0  0  0  0  0  0  0
   -2.9790   22.2930  -30.9800 C   0  0  0  0  0  0  0  0  0  0  0  0
   -3.6830   22.2500  -32.1970 C   0  0  0  0  0  0  0  0  0  0  0  0
   -3.5990   21.1290  -33.0280 C   0  0  0  0  0  0  0  0  0  0  0  0
   -2.8120   20.0280  -32.6590 C   0  0  0  0  0  0  0  0  0  0  0  0
   -2.7200   18.8760  -33.5170 N   0  0  0  0  0  0  0  0  0  0  0  0
   -1.4890   18.6090  -34.2630 C   0  0  0  0  0  0  0  0  0  0  0  0
   -4.0850   17.8180  -33.7230 S   0  0  0  0  0  0  0  0  0  0  0  0
   -4.2550   17.4620  -35.1740 O   0  0  0  0  0  0  0  0  0  0  0  0
   -3.8540   16.5620  -32.9290 O   0  0  0  0  0  0  0  0  0  0  0  0
   -5.5510   18.6340  -33.1840 C   0  0  0  0  0  0  0  0  0  0  0  0
   -6.0860   19.6750  -33.9540 C   0  0  0  0  0  0  0  0  0  0  0  0
   -7.2490   20.3300  -33.5390 C   0  0  0  0  0  0  0  0  0  0  0  0
   -7.8830   19.9480  -32.3520 C   0  0  0  0  0  0  0  0  0  0  0  0
   -9.4700   20.8460  -31.7850 Br  0  0  0  0  0  0  0  0  0  0  0  0
   -7.3530   18.9070  -31.5820 C   0  0  0  0  0  0  0  0  0  0  0  0
   -6.1890   18.2500  -31.9960 C   0  0  0  0  0  0  0  0  0  0  0  0
   -2.1280   20.0580  -31.4340 C   0  0  0  0  0  0  0  0  0  0  0  0
   -2.2120   21.1780  -30.6020 C   0  0  0  0  0  0  0  0  0  0  0  0
   -1.5821   20.1966  -25.8688 H   0  0  0  0  0  0  0  0  0  0  0  0
   -2.2198   21.1256  -27.2677 H   0  0  0  0  0  0  0  0  0  0  0  0
   -0.5151   20.5591  -27.2677 H   0  0  0  0  0  0  0  0  0  0  0  0
   -1.6992   22.5838  -25.2960 H   0  0  0  0  0  0  0  0  0  0  0  0
    0.0252   22.0602  -25.4101 H   0  0  0  0  0  0  0  0  0  0  0  0
    1.1079   23.7855  -25.9114 H   0  0  0  0  0  0  0  0  0  0  0  0
    1.3829   22.9298  -27.4667 H   0  0  0  0  0  0  0  0  0  0  0  0
    0.8958   24.6588  -27.4667 H   0  0  0  0  0  0  0  0  0  0  0  0
   -2.0137   24.3558  -25.7795 H   0  0  0  0  0  0  0  0  0  0  0  0
   -0.8997   25.3714  -26.7830 H   0  0  0  0  0  0  0  0  0  0  0  0
   -3.5872   24.6293  -27.3745 H   0  0  0  0  0  0  0  0  0  0  0  0
   -2.4109   25.4970  -28.4307 H   0  0  0  0  0  0  0  0  0  0  0  0
   -2.1660   22.5360  -28.3550 H   0  0  0  0  0  0  0  0  0  0  0  0
   -4.3051   23.1060  -32.4975 H   0  0  0  0  0  0  0  0  0  0  0  0
   -4.1538   21.1102  -33.9777 H   0  0  0  0  0  0  0  0  0  0  0  0
   -0.6642   18.4301  -33.5575 H   0  0  0  0  0  0  0  0  0  0  0  0
   -1.6293   17.7204  -34.8960 H   0  0  0  0  0  0  0  0  0  0  0  0
   -1.2485   19.4759  -34.8960 H   0  0  0  0  0  0  0  0  0  0  0  0
   -5.5895   19.9777  -34.8877 H   0  0  0  0  0  0  0  0  0  0  0  0
   -7.6661   21.1467  -34.1465 H   0  0  0  0  0  0  0  0  0  0  0  0
   -7.8522   18.6045  -30.6496 H   0  0  0  0  0  0  0  0  0  0  0  0
   -5.7742   17.4317  -31.3890 H   0  0  0  0  0  0  0  0  0  0  0  0
   -1.5212   19.1936  -31.1263 H   0  0  0  0  0  0  0  0  0  0  0  0
   -1.6731   21.1866  -29.6431 H   0  0  0  0  0  0  0  0  0  0  0  0
  1  2  1  0
  2  3  1  0
  3  4  1  0
  3  5  1  0
  5  6  1  0
  6  7  1  0
  7  8  1  0
  8  9  2  0
  8 10  1  0
 10 11  2  0
 11 12  1  0
 12 13  2  0
 13 14  1  0
 14 15  1  0
 14 16  1  0
 16 17  2  0
 16 18  2  0
 16 19  1  0
 19 20  2  0
 20 21  1  0
 21 22  2  0
 22 23  1  0
 22 24  1  0
 24 25  2  0
 13 26  1  0
 26 27  2  0
 27 10  1  0
 25 19  1  0
  1 28  1  0
  1 29  1  0
  1 30  1  0
  2 31  1  0
  2 32  1  0
  4 33  1  0
  4 34  1  0
  4 35  1  0
  5 36  1  0
  5 37  1  0
  6 38  1  0
  6 39  1  0
  7 40  1  0
 11 41  1  0
 12 42  1  0
 15 43  1  0
 15 44  1  0
 15 45  1  0
 20 46  1  0
 21 47  1  0
 24 48  1  0
 25 49  1  0
 26 50  1  0
 27 51  1  0
M  END
>  <UniqueID>  (22) 
22

>  <SMILES>  (22) 
CCN(C)CCNC(=O)c1ccc(N(C)S(=O)(=O)c2ccc(Br)cc2)cc1

>  <Energy>  (22) 
54.85495816096791

>  <Genealogy>  (22) 
CCN(C)CCNC(=O)c1ccc(N(C)S(=O)(=O)c2ccc(Br)cc2)cc1 (3D coordinates assigned)
CCN(C)CCNC(=O)c1ccc(N(C)S(=O)(=O)c2ccc(Br)cc2)cc1 (optimized conformer: 54.85495816096791 kcal/mol)

>  <smiles>  (22) 
CCN(C)CCNC(=O)c1ccc(N(C)S(=O)(=O)c2ccc(Br)cc2)cc1

>  <score_type>  (22) 
oracle

>  <origin>  (22) 
adg

>  <m_score__min__energy>  (22) 
-8.8100000000000005

>  <m_primary>  (22) 
energy

$$$$
22:0
     RDKit          3D

 52 54  0  0  0  0  0  0  0  0999 V2000
   -3.1240   18.9630  -26.3380 C   0  0  0  0  0  0  0  0  0  0  0  0
   -2.6170   20.1680  -27.1260 C   0  0  0  0  0  0  0  0  0  0  0  0
   -1.1370   20.2120  -27.1050 N   0  0  0  0  0  0  0  0  0  0  0  0
   -0.5740   19.1930  -28.0100 C   0  0  0  0  0  0  0  0  0  0  0  0
   -0.6310   21.5540  -27.4710 C   0  0  0  0  0  0  0  0  0  0  0  0
   -1.0440   22.5820  -26.4170 C   0  0  0  0  0  0  0  0  0  0  0  0
   -1.9190   23.5250  -27.0040 O   0  0  0  0  0  0  0  0  0  0  0  0
   -1.5180   24.8480  -26.6860 C   0  0  0  0  0  0  0  0  0  0  0  0
   -0.8960   25.5270  -27.9080 C   0  0  0  0  0  0  0  0  0  0  0  0
   -1.8360   25.6180  -28.9790 O   0  0  0  0  0  0  0  0  0  0  0  0
   -2.6550   24.5720  -29.4370 C   0  0  0  0  0  0  0  0  0  0  0  0
   -2.1420   23.3260  -29.8430 C   0  0  0  0  0  0  0  0  0  0  0  0
   -2.9970   22.3330  -30.3280 C   0  0  0  0  0  0  0  0  0  0  0  0
   -4.3740   22.5720  -30.4240 C   0  0  0  0  0  0  0  0  0  0  0  0
   -5.2360   21.6020  -30.9420 C   0  0  0  0  0  0  0  0  0  0  0  0
   -6.6090   21.8860  -31.0400 C   0  0  0  0  0  0  0  0  0  0  0  0
   -7.5720   20.9030  -31.5950 C   0  0  0  0  0  0  0  0  0  0  0  0
   -8.8930   21.3040  -31.8660 C   0  0  0  0  0  0  0  0  0  0  0  0
   -9.8160   20.3980  -32.3970 C   0  0  0  0  0  0  0  0  0  0  0  0
   -9.4290   19.0860  -32.6750 C   0  0  0  0  0  0  0  0  0  0  0  0
   -8.1170   18.6780  -32.4250 C   0  0  0  0  0  0  0  0  0  0  0  0
   -7.1910   19.5790  -31.8920 C   0  0  0  0  0  0  0  0  0  0  0  0
   -7.0680   23.0640  -30.6180 O   0  0  0  0  0  0  0  0  0  0  0  0
   -6.2880   24.0160  -30.1140 C   0  0  0  0  0  0  0  0  0  0  0  0
   -6.8100   25.1020  -29.7450 O   0  0  0  0  0  0  0  0  0  0  0  0
   -4.9020   23.8100  -30.0010 C   0  0  0  0  0  0  0  0  0  0  0  0
   -4.0370   24.7960  -29.4930 C   0  0  0  0  0  0  0  0  0  0  0  0
   -3.0382   19.1670  -25.2605 H   0  0  0  0  0  0  0  0  0  0  0  0
   -4.1775   18.7751  -26.5928 H   0  0  0  0  0  0  0  0  0  0  0  0
   -2.5217   18.0785  -26.5928 H   0  0  0  0  0  0  0  0  0  0  0  0
   -2.9627   20.0917  -28.1675 H   0  0  0  0  0  0  0  0  0  0  0  0
   -3.0082   21.0867  -26.6646 H   0  0  0  0  0  0  0  0  0  0  0  0
   -0.1262   18.3825  -27.4162 H   0  0  0  0  0  0  0  0  0  0  0  0
   -1.3740   18.7838  -28.6444 H   0  0  0  0  0  0  0  0  0  0  0  0
    0.1982   19.6525  -28.6444 H   0  0  0  0  0  0  0  0  0  0  0  0
    0.4666   21.5225  -27.5368 H   0  0  0  0  0  0  0  0  0  0  0  0
   -1.0583   21.8452  -28.4419 H   0  0  0  0  0  0  0  0  0  0  0  0
   -1.5555   22.0726  -25.5870 H   0  0  0  0  0  0  0  0  0  0  0  0
   -0.1507   23.0963  -26.0329 H   0  0  0  0  0  0  0  0  0  0  0  0
   -2.3964   25.4241  -26.3596 H   0  0  0  0  0  0  0  0  0  0  0  0
   -0.7697   24.8094  -25.8807 H   0  0  0  0  0  0  0  0  0  0  0  0
   -0.5698   26.5398  -27.6291 H   0  0  0  0  0  0  0  0  0  0  0  0
   -0.0396   24.9243  -28.2447 H   0  0  0  0  0  0  0  0  0  0  0  0
   -1.0611   23.1326  -29.7781 H   0  0  0  0  0  0  0  0  0  0  0  0
   -2.5872   21.3597  -30.6357 H   0  0  0  0  0  0  0  0  0  0  0  0
   -4.8446   20.6275  -31.2693 H   0  0  0  0  0  0  0  0  0  0  0  0
   -9.2023   22.3390  -31.6584 H   0  0  0  0  0  0  0  0  0  0  0  0
  -10.8489   20.7197  -32.5960 H   0  0  0  0  0  0  0  0  0  0  0  0
  -10.1570   18.3739  -33.0908 H   0  0  0  0  0  0  0  0  0  0  0  0
   -7.8117   17.6450  -32.6481 H   0  0  0  0  0  0  0  0  0  0  0  0
   -6.1577   19.2525  -31.7030 H   0  0  0  0  0  0  0  0  0  0  0  0
   -4.4492   25.7515  -29.1365 H   0  0  0  0  0  0  0  0  0  0  0  0
  1  2  1  0
  2  3  1  0
  3  4  1  0
  3  5  1  0
  5  6  1  0
  6  7  1  0
  7  8  1  0
  8  9  1  0
  9 10  1  0
 10 11  1  0
 11 12  2  0
 12 13  1  0
 13 14  2  0
 14 15  1  0
 15 16  2  0
 16 17  1  0
 17 18  2  0
 18 19  1  0
 19 20  2  0
 20 21  1  0
 21 22  2  0
 16 23  1  0
 23 24  1  0
 24 25  2  0
 24 26  1  0
 26 27  2  0
 27 11  1  0
 26 14  1  0
 22 17  1  0
  1 28  1  0
  1 29  1  0
  1 30  1  0
  2 31  1  0
  2 32  1  0
  4 33  1  0
  4 34  1  0
  4 35  1  0
  5 36  1  0
  5 37  1  0
  6 38  1  0
  6 39  1  0
  8 40  1  0
  8 41  1  0
  9 42  1  0
  9 43  1  0
 12 44  1  0
 13 45  1  0
 15 46  1  0
 18 47  1  0
 19 48  1  0
 20 49  1  0
 21 50  1  0
 22 51  1  0
 27 52  1  0
M  END
>  <UniqueID>  (23) 
23

>  <SMILES>  (23) 
CCN(C)CCOCCOc1ccc2cc(-c3ccccc3)oc(=O)c2c1

>  <Energy>  (23) 
60.219739130836565

>  <Genealogy>  (23) 
CCN(C)CCOCCOc1ccc2cc(-c3ccccc3)oc(=O)c2c1 (3D coordinates assigned)
CCN(C)CCOCCOc1ccc2cc(-c3ccccc3)oc(=O)c2c1 (optimized conformer: 60.219739130836565 kcal/mol)

>  <smiles>  (23) 
CCN(C)CCOCCOc1ccc2cc(-c3ccccc3)oc(=O)c2c1

>  <score_type>  (23) 
oracle

>  <origin>  (23) 
adg

>  <m_score__min__energy>  (23) 
-8.4600000000000009

>  <m_primary>  (23) 
energy

$$$$
23:0
     RDKit          3D

 28 28  0  0  0  0  0  0  0  0999 V2000
   -5.6875   16.5288  -35.0738 H   0  0  0  0  0  0  0  0  0  0  0  0
   -5.9350   17.1820  -34.2240 C   0  0  0  0  0  0  0  0  0  0  0  0
   -6.1690   16.6310  -32.9660 C   0  0  0  0  0  0  0  0  0  0  0  0
   -6.1146   15.5425  -32.8167 H   0  0  0  0  0  0  0  0  0  0  0  0
   -6.4730   17.4750  -31.8980 C   0  0  0  0  0  0  0  0  0  0  0  0
   -6.6529   17.0513  -30.8990 H   0  0  0  0  0  0  0  0  0  0  0  0
   -6.5480   18.8210  -32.0870 N   0  0  0  0  0  0  0  0  0  0  0  0
   -6.7750   19.4260  -31.2650 H   0  0  0  0  0  0  0  0  0  0  0  0
   -6.3450   19.3910  -33.3110 C   0  0  0  0  0  0  0  0  0  0  0  0
   -6.4230   20.6900  -33.4160 N   0  0  0  0  0  0  0  0  0  0  0  0
   -6.2260   21.6650  -32.3790 C   0  0  0  0  0  0  0  0  0  0  0  0
   -6.9040   21.5860  -31.2690 N   0  0  0  0  0  0  0  0  0  0  0  0
   -8.3440   21.8210  -31.1450 C   0  0  0  0  0  0  0  0  0  0  0  0
   -8.6007   21.9919  -30.0891 H   0  0  0  0  0  0  0  0  0  0  0  0
   -9.1250   20.5970  -31.6340 C   0  0  0  0  0  0  0  0  0  0  0  0
   -9.4900   20.0250  -30.7682 H   0  0  0  0  0  0  0  0  0  0  0  0
   -9.9800   20.9267  -32.2425 H   0  0  0  0  0  0  0  0  0  0  0  0
   -8.4657   19.9605  -32.2425 H   0  0  0  0  0  0  0  0  0  0  0  0
   -8.7180   23.0540  -31.9660 C   0  0  0  0  0  0  0  0  0  0  0  0
   -8.9695   23.8832  -31.2884 H   0  0  0  0  0  0  0  0  0  0  0  0
   -7.8674   23.3440  -32.6004 H   0  0  0  0  0  0  0  0  0  0  0  0
   -9.5864   22.8226  -32.6004 H   0  0  0  0  0  0  0  0  0  0  0  0
   -5.3720   22.7940  -32.6090 N   0  0  0  0  0  0  0  0  0  0  0  0
   -4.9670   22.9550  -33.5580 H   0  0  0  0  0  0  0  0  0  0  0  0
   -5.0940   23.7310  -31.6010 C   0  0  0  0  0  0  0  0  0  0  0  0
   -4.8660   24.5030  -30.7700 N   0  0  0  0  0  0  0  0  0  0  0  0
   -6.0150   18.5640  -34.4050 C   0  0  0  0  0  0  0  0  0  0  0  0
   -5.8220   19.0050  -35.3941 H   0  0  0  0  0  0  0  0  0  0  0  0
  1  2  1  0
  2  3  1  0
  3  4  1  0
  3  5  2  0
  5  6  1  0
  5  7  1  0
  7  8  1  0
  7  9  1  0
  9 10  2  0
 10 11  1  0
 11 12  2  0
 12 13  1  0
 13 14  1  0
 13 15  1  0
 15 16  1  0
 15 17  1  0
 15 18  1  0
 13 19  1  0
 19 20  1  0
 19 21  1  0
 19 22  1  0
 11 23  1  0
 23 24  1  0
 23 25  1  0
 25 26  3  0
  9 27  1  0
 27 28  1  0
 27  2  2  0
M  END
>  <UniqueID>  (24) 
24

>  <SMILES>  (24) 
CC(C)/N=C(\N=c1/cccc[nH]1)NC#N

>  <Energy>  (24) 
27.86249317456787

>  <Genealogy>  (24) 
CC(C)/N=C(\N=c1/cccc[nH]1)NC#N (cis-trans isomerization)
CC(C)/N=C(\N=c1/cccc[nH]1)NC#N (3D coordinates assigned)
CC(C)/N=C(\N=c1/cccc[nH]1)NC#N (optimized conformer: 27.86249317456787 kcal/mol)

>  <smiles>  (24) 
CC(C)N=C(N=c1cccc[nH]1)NC#N

>  <score_type>  (24) 
oracle

>  <origin>  (24) 
adg

>  <m_score__min__energy>  (24) 
-5.3399999999999999

>  <m_primary>  (24) 
energy

$$$$
24:0
     RDKit          3D

 38 41  0  0  1  0  0  0  0  0999 V2000
   -2.4260   24.5460  -28.6350 C   0  0  0  0  0  0  0  0  0  0  0  0
   -3.1270   24.9330  -29.7810 O   0  0  0  0  0  0  0  0  0  0  0  0
   -4.1980   24.1710  -30.2740 C   0  0  0  0  0  0  0  0  0  0  0  0
   -5.5120   24.3290  -30.0500 N   0  0  0  0  0  0  0  0  0  0  0  0
   -6.1740   23.3800  -30.7180 C   0  0  0  0  0  0  0  0  0  0  0  0
   -7.5240   23.1460  -30.7880 C   0  0  0  0  0  0  0  0  0  0  0  0
   -7.9540   22.1070  -31.5430 C   0  0  0  0  0  0  0  0  0  0  0  0
   -9.2880   21.8820  -31.6070 N   0  0  0  0  0  0  0  0  0  0  0  0
   -9.7830   20.8630  -32.3430 C   0  0  0  0  0  0  0  0  0  0  0  0
   -8.8870   20.1050  -32.9910 N   0  0  0  0  0  0  0  0  0  0  0  0
   -7.5570   20.2960  -32.9510 C   0  0  0  0  0  0  0  0  0  0  0  0
   -6.8120   19.5380  -33.5880 N   0  0  0  0  0  0  0  0  0  0  0  0
   -6.1180   18.3940  -33.3130 C   0  0  0  0  0  0  0  0  0  0  0  0
   -6.3310   17.6030  -32.1530 C   0  0  0  0  0  0  0  0  0  0  0  0
   -5.6720   16.4090  -32.0050 C   0  0  0  0  0  0  0  0  0  0  0  0
   -4.7950   15.9360  -32.9540 C   0  0  0  0  0  0  0  0  0  0  0  0
   -4.5920   16.7010  -34.0730 C   0  0  0  0  0  0  0  0  0  0  0  0
   -3.4750   16.1300  -35.3140 Cl  0  0  0  0  0  0  0  0  0  0  0  0
   -5.2160   17.9120  -34.2950 C   0  0  0  0  0  0  0  0  0  0  0  0
   -7.0350   21.3240  -32.2130 C   0  0  0  0  0  0  0  0  0  0  0  0
   -5.6960   21.5660  -32.1350 C   0  0  0  0  0  0  0  0  0  0  0  0
   -5.2220   22.6400  -31.3570 C   0  0  0  0  0  0  0  0  0  0  0  0
   -3.9950   23.1220  -31.0880 N   0  0  0  0  0  0  0  0  0  0  0  0
   -2.7330   22.5960  -31.5880 C   0  0  0  0  0  0  0  0  0  0  0  0
   -2.9864   24.8554  -27.7404 H   0  0  0  0  0  0  0  0  0  0  0  0
   -2.3041   23.4528  -28.6314 H   0  0  0  0  0  0  0  0  0  0  0  0
   -1.4359   25.0253  -28.6314 H   0  0  0  0  0  0  0  0  0  0  0  0
   -8.2373   23.7844  -30.2461 H   0  0  0  0  0  0  0  0  0  0  0  0
  -10.8633   20.6658  -32.4071 H   0  0  0  0  0  0  0  0  0  0  0  0
   -9.2930   19.3110  -33.5620 H   0  0  0  0  0  0  0  0  0  0  0  0
   -7.0250   17.9480  -31.3724 H   0  0  0  0  0  0  0  0  0  0  0  0
   -5.8503   15.8109  -31.0992 H   0  0  0  0  0  0  0  0  0  0  0  0
   -4.2745   14.9764  -32.8191 H   0  0  0  0  0  0  0  0  0  0  0  0
   -5.0185   18.4886  -35.2107 H   0  0  0  0  0  0  0  0  0  0  0  0
   -4.9872   20.9239  -32.6784 H   0  0  0  0  0  0  0  0  0  0  0  0
   -2.0864   22.3265  -30.7399 H   0  0  0  0  0  0  0  0  0  0  0  0
   -2.9251   21.7030  -32.2009 H   0  0  0  0  0  0  0  0  0  0  0  0
   -2.2340   23.3611  -32.2009 H   0  0  0  0  0  0  0  0  0  0  0  0
  1  2  1  0
  2  3  1  0
  3  4  2  0
  4  5  1  0
  5  6  2  0
  6  7  1  0
  7  8  1  0
  8  9  2  0
  9 10  1  0
 10 11  1  0
 11 12  2  0
 12 13  1  0
 13 14  2  0
 14 15  1  0
 15 16  2  0
 16 17  1  0
 17 18  1  0
 17 19  2  0
 11 20  1  0
 20 21  1  0
 21 22  2  0
 22 23  1  0
 23 24  1  0
 23  3  1  0
 22  5  1  0
 20  7  2  0
 19 13  1  0
  1 25  1  0
  1 26  1  0
  1 27  1  0
  6 28  1  0
  9 29  1  0
 10 30  1  0
 14 31  1  0
 15 32  1  0
 16 33  1  0
 19 34  1  0
 21 35  1  0
 24 36  1  0
 24 37  1  0
 24 38  1  0
M  END
>  <smiles>  (25) 
COc1nc2cc3nc[nH]c(=Nc4cccc(Cl)c4)c3cc2n1C

>  <score_type>  (25) 
oracle

>  <origin>  (25) 
adg

>  <m_score__min__energy>  (25) 
-8.6199999999999992

>  <m_primary>  (25) 
energy

$$$$
25:0
     RDKit          3D

 49 51  0  0  0  0  0  0  0  0999 V2000
   -6.0980   17.4250  -34.5510 C   0  0  0  0  0  0  0  0  0  0  0  0
   -5.7840   18.9210  -34.5760 C   0  0  0  0  0  0  0  0  0  0  0  0
   -5.0760   19.3420  -33.3460 N   0  0  0  0  0  0  0  0  0  0  0  0
   -5.1660   18.3010  -32.3040 C   0  0  0  0  0  0  0  0  0  0  0  0
   -3.6600   19.6730  -33.6310 C   0  0  0  0  0  0  0  0  0  0  0  0
   -3.3190   21.0720  -33.0960 C   0  0  0  0  0  0  0  0  0  0  0  0
   -4.4720   21.9840  -33.2050 N   0  0  0  0  0  0  0  0  0  0  0  0
   -4.6770   22.6890  -31.9680 C   0  0  0  0  0  0  0  0  0  0  0  0
   -3.6900   23.2390  -31.1790 C   0  0  0  0  0  0  0  0  0  0  0  0
   -4.2370   23.5620  -29.9860 N   0  0  0  0  0  0  0  0  0  0  0  0
   -3.5610   24.1390  -28.8500 C   0  0  0  0  0  0  0  0  0  0  0  0
   -2.2040   24.5020  -28.9480 C   0  0  0  0  0  0  0  0  0  0  0  0
   -1.5370   25.0620  -27.8530 C   0  0  0  0  0  0  0  0  0  0  0  0
   -2.2140   25.2620  -26.6480 C   0  0  0  0  0  0  0  0  0  0  0  0
   -3.5570   24.9000  -26.5350 C   0  0  0  0  0  0  0  0  0  0  0  0
   -4.2300   24.3410  -27.6260 C   0  0  0  0  0  0  0  0  0  0  0  0
   -5.5160   23.2100  -29.9740 N   0  0  0  0  0  0  0  0  0  0  0  0
   -5.8180   22.6810  -31.1770 C   0  0  0  0  0  0  0  0  0  0  0  0
   -7.1200   22.0640  -31.4900 C   0  0  0  0  0  0  0  0  0  0  0  0
   -8.2470   22.8780  -31.6900 C   0  0  0  0  0  0  0  0  0  0  0  0
   -9.4940   22.3050  -31.9580 C   0  0  0  0  0  0  0  0  0  0  0  0
   -9.6220   20.9150  -32.0410 C   0  0  0  0  0  0  0  0  0  0  0  0
   -8.5010   20.0990  -31.8680 C   0  0  0  0  0  0  0  0  0  0  0  0
   -7.2540   20.6690  -31.5990 C   0  0  0  0  0  0  0  0  0  0  0  0
   -6.1698   17.0828  -33.5080 H   0  0  0  0  0  0  0  0  0  0  0  0
   -7.0540   17.2424  -35.0635 H   0  0  0  0  0  0  0  0  0  0  0  0
   -5.2961   16.8734  -35.0635 H   0  0  0  0  0  0  0  0  0  0  0  0
   -5.1494   19.1395  -35.4475 H   0  0  0  0  0  0  0  0  0  0  0  0
   -6.7328   19.4742  -34.6374 H   0  0  0  0  0  0  0  0  0  0  0  0
   -5.1253   18.7719  -31.3107 H   0  0  0  0  0  0  0  0  0  0  0  0
   -6.1147   17.7549  -32.4123 H   0  0  0  0  0  0  0  0  0  0  0  0
   -4.3251   17.6002  -32.4123 H   0  0  0  0  0  0  0  0  0  0  0  0
   -3.0094   18.9307  -33.1454 H   0  0  0  0  0  0  0  0  0  0  0  0
   -3.5024   19.6591  -34.7196 H   0  0  0  0  0  0  0  0  0  0  0  0
   -3.0263   20.9896  -32.0389 H   0  0  0  0  0  0  0  0  0  0  0  0
   -2.4946   21.4819  -33.6979 H   0  0  0  0  0  0  0  0  0  0  0  0
   -4.2950   22.6750  -33.9700 H   0  0  0  0  0  0  0  0  0  0  0  0
   -5.3430   21.4650  -33.4480 H   0  0  0  0  0  0  0  0  0  0  0  0
   -2.6397   23.3890  -31.4696 H   0  0  0  0  0  0  0  0  0  0  0  0
   -1.6639   24.3440  -29.8932 H   0  0  0  0  0  0  0  0  0  0  0  0
   -0.4778   25.3452  -27.9414 H   0  0  0  0  0  0  0  0  0  0  0  0
   -1.6890   25.7045  -25.7886 H   0  0  0  0  0  0  0  0  0  0  0  0
   -4.0882   25.0549  -25.5843 H   0  0  0  0  0  0  0  0  0  0  0  0
   -5.2882   24.0571  -27.5283 H   0  0  0  0  0  0  0  0  0  0  0  0
   -8.1481   23.9722  -31.6355 H   0  0  0  0  0  0  0  0  0  0  0  0
  -10.3746   22.9479  -32.1036 H   0  0  0  0  0  0  0  0  0  0  0  0
  -10.6049   20.4641  -32.2424 H   0  0  0  0  0  0  0  0  0  0  0  0
   -8.6004   19.0061  -31.9437 H   0  0  0  0  0  0  0  0  0  0  0  0
   -6.3728   20.0229  -31.4719 H   0  0  0  0  0  0  0  0  0  0  0  0
  1  2  1  0
  2  3  1  0
  3  4  1  0
  3  5  1  0
  5  6  1  0
  6  7  1  0
  7  8  1  0
  8  9  2  0
  9 10  1  0
 10 11  1  0
 11 12  2  0
 12 13  1  0
 13 14  2  0
 14 15  1  0
 15 16  2  0
 10 17  1  0
 17 18  2  0
 18 19  1  0
 19 20  2  0
 20 21  1  0
 21 22  2  0
 22 23  1  0
 23 24  2  0
 18  8  1  0
 24 19  1  0
 16 11  1  0
  1 25  1  0
  1 26  1  0
  1 27  1  0
  2 28  1  0
  2 29  1  0
  4 30  1  0
  4 31  1  0
  4 32  1  0
  5 33  1  0
  5 34  1  0
  6 35  1  0
  6 36  1  0
  7 37  1  0
  7 38  1  0
  9 39  1  0
 12 40  1  0
 13 41  1  0
 14 42  1  0
 15 43  1  0
 16 44  1  0
 20 45  1  0
 21 46  1  0
 22 47  1  0
 23 48  1  0
 24 49  1  0
M  CHG  1   7   1
M  END
>  <UniqueID>  (26) 
25

>  <SMILES>  (26) 
CCN(C)CC[NH2+]c1cn(-c2ccccc2)nc1-c1ccccc1

>  <Energy>  (26) 
86.68228210096518

>  <Genealogy>  (26) 
CCN(C)CC[NH2+]c1cn(-c2ccccc2)nc1-c1ccccc1 (protonated)
CCN(C)CC[NH2+]c1cn(-c2ccccc2)nc1-c1ccccc1 (3D coordinates assigned)
CCN(C)CC[NH2+]c1cn(-c2ccccc2)nc1-c1ccccc1 (optimized conformer: 86.68228210096518 kcal/mol)

>  <smiles>  (26) 
CCN(C)CCNc1cn(-c2ccccc2)nc1-c1ccccc1

>  <score_type>  (26) 
oracle

>  <origin>  (26) 
adg

>  <m_score__min__energy>  (26) 
-7.7400000000000002

>  <m_primary>  (26) 
energy

$$$$
26:0
     RDKit          3D

 37 39  0  0  0  0  0  0  0  0999 V2000
   -5.5390   25.7230  -28.3350 H   0  0  0  0  0  0  0  0  0  0  0  0
   -6.0930   25.4600  -29.1810 N   0  0  0  0  0  0  0  0  0  0  0  0
   -5.6530   24.6310  -30.0770 C   0  0  0  0  0  0  0  0  0  0  0  0
   -4.4250   23.8310  -29.8480 C   0  0  0  0  0  0  0  0  0  0  0  0
   -3.7960   23.9470  -28.7600 O   0  0  0  0  0  0  0  0  0  0  0  0
   -3.9520   22.8940  -30.9060 C   0  0  0  0  0  0  0  0  0  0  0  0
   -2.6520   22.3340  -30.8780 C   0  0  0  0  0  0  0  0  0  0  0  0
   -1.7950   22.6260  -29.8040 O   0  0  0  0  0  0  0  0  0  0  0  0
   -1.5520   21.7610  -28.6990 C   0  0  0  0  0  0  0  0  0  0  0  0
   -1.7071   22.3130  -27.7602 H   0  0  0  0  0  0  0  0  0  0  0  0
   -2.2453   20.9081  -28.7416 H   0  0  0  0  0  0  0  0  0  0  0  0
   -0.5160   21.3939  -28.7416 H   0  0  0  0  0  0  0  0  0  0  0  0
   -2.2380   21.5020  -31.9370 C   0  0  0  0  0  0  0  0  0  0  0  0
   -1.2383   21.0439  -31.9110 H   0  0  0  0  0  0  0  0  0  0  0  0
   -3.0830   21.2540  -33.0170 C   0  0  0  0  0  0  0  0  0  0  0  0
   -2.7383   20.6220  -33.8487 H   0  0  0  0  0  0  0  0  0  0  0  0
   -4.3610   21.8030  -33.0470 C   0  0  0  0  0  0  0  0  0  0  0  0
   -5.0127   21.6231  -33.9147 H   0  0  0  0  0  0  0  0  0  0  0  0
   -4.8250   22.5860  -31.9760 C   0  0  0  0  0  0  0  0  0  0  0  0
   -6.1950   23.1720  -31.9800 C   0  0  0  0  0  0  0  0  0  0  0  0
   -7.2550   22.5530  -32.4260 N   0  0  0  0  0  0  0  0  0  0  0  0
   -7.5610   21.1540  -32.3370 C   0  0  0  0  0  0  0  0  0  0  0  0
   -8.4500   20.7130  -31.3520 C   0  0  0  0  0  0  0  0  0  0  0  0
   -8.9246   21.4407  -30.6773 H   0  0  0  0  0  0  0  0  0  0  0  0
   -8.7380   19.3530  -31.2210 C   0  0  0  0  0  0  0  0  0  0  0  0
   -9.4513   19.0150  -30.4549 H   0  0  0  0  0  0  0  0  0  0  0  0
   -8.1230   18.4200  -32.0600 C   0  0  0  0  0  0  0  0  0  0  0  0
   -8.3632   17.3514  -31.9579 H   0  0  0  0  0  0  0  0  0  0  0  0
   -7.2000   18.8380  -33.0330 C   0  0  0  0  0  0  0  0  0  0  0  0
   -6.5570   17.8750  -33.8870 N   0  0  0  0  0  0  0  0  0  0  0  0
   -6.7780   16.6530  -33.7510 O   0  0  0  0  0  0  0  0  0  0  0  0
   -5.6780   18.2840  -34.8650 O   0  0  0  0  0  0  0  0  0  0  0  0
   -6.9110   20.2110  -33.1540 C   0  0  0  0  0  0  0  0  0  0  0  0
   -6.1705   20.5491  -33.8938 H   0  0  0  0  0  0  0  0  0  0  0  0
   -6.3560   24.5470  -31.4020 C   0  0  0  0  0  0  0  0  0  0  0  0
   -7.4259   24.7604  -31.2613 H   0  0  0  0  0  0  0  0  0  0  0  0
   -5.9173   25.2831  -32.0917 H   0  0  0  0  0  0  0  0  0  0  0  0
  1  2  1  0
  2  3  2  3
  3  4  1  0
  4  5  2  0
  4  6  1  0
  6  7  2  0
  7  8  1  0
  8  9  1  0
  9 10  1  0
  9 11  1  0
  9 12  1  0
  7 13  1  0
 13 14  1  0
 13 15  2  0
 15 16  1  0
 15 17  1  0
 17 18  1  0
 17 19  2  0
 19 20  1  0
 20 21  2  0
 21 22  1  0
 22 23  2  0
 23 24  1  0
 23 25  1  0
 25 26  1  0
 25 27  2  0
 27 28  1  0
 27 29  1  0
 29 30  1  0
 30 31  2  0
 30 32  1  0
 29 33  2  0
 33 34  1  0
 20 35  1  0
 35 36  1  0
 35 37  1  0
 35  3  1  0
 19  6  1  0
 33 22  1  0
M  CHG  2  30   1  32  -1
M  END
>  <UniqueID>  (27) 
26

>  <SMILES>  (27) 
COc1cccc2c1C(=O)C(=N)C/C2=N/c1cccc([N+](=O)[O-])c1

>  <Energy>  (27) 
55.83925500039075

>  <Genealogy>  (27) 
COc1cccc2c1C(=O)C(=N)C/C2=N/c1cccc([N+](=O)[O-])c1 (cis-trans isomerization)
COc1cccc2c1C(=O)C(=N)C/C2=N/c1cccc([N+](=O)[O-])c1 (3D coordinates assigned)
COc1cccc2c1C(=O)C(=N)C/C2=N/c1cccc([N+](=O)[O-])c1 (nonaromatic ring conformer: 55.83925500039075 kcal/mol)

>  <smiles>  (27) 
COc1cccc2c1C(=O)C(=N)CC2=Nc1cccc([N+](=O)[O-])c1

>  <score_type>  (27) 
oracle

>  <origin>  (27) 
adg

>  <m_score__min__energy>  (27) 
-8.1899999999999995

>  <m_primary>  (27) 
energy

$$$$
27:0
     RDKit          3D

 60 62  0  0  0  0  0  0  0  0999 V2000
   -8.0330   18.4580  -32.0360 C   0  0  0  0  0  0  0  0  0  0  0  0
   -9.0310   19.5810  -32.3340 C   0  0  0  0  0  0  0  0  0  0  0  0
   -8.8940   20.7120  -31.3990 N   0  0  0  0  0  0  0  0  0  0  0  0
   -9.4560   21.9620  -31.9340 C   0  0  0  0  0  0  0  0  0  0  0  0
   -8.3690   23.0530  -31.9770 C   0  0  0  0  0  0  0  0  0  0  0  0
   -7.0950   22.6080  -31.3610 N   0  0  0  0  0  0  0  0  0  0  0  0
   -5.9540   22.7420  -32.3120 C   0  0  0  0  0  0  0  0  0  0  0  0
   -4.6260   22.9890  -31.5910 C   0  0  0  0  0  0  0  0  0  0  0  0
   -4.6830   24.2660  -30.8590 N   0  0  0  0  0  0  0  0  0  0  0  0
   -3.4910   24.5430  -30.0310 C   0  0  0  0  0  0  0  0  0  0  0  0
   -3.1110   23.4180  -29.0330 C   0  0  0  0  0  0  0  0  0  0  0  0
   -2.5470   23.9470  -27.7780 N   0  0  0  0  0  0  0  0  0  0  0  0
   -1.2080   23.5980  -27.3620 C   0  0  0  0  0  0  0  0  0  0  0  0
   -0.5270   22.7680  -28.0230 O   0  0  0  0  0  0  0  0  0  0  0  0
   -0.6190   24.1700  -26.1040 C   0  0  0  0  0  0  0  0  0  0  0  0
   -1.2620   25.5280  -25.7380 C   0  0  0  0  0  0  0  0  0  0  0  0
   -0.8850   26.6390  -26.7370 C   0  0  0  0  0  0  0  0  0  0  0  0
   -0.8580   27.9410  -25.9420 C   0  0  0  0  0  0  0  0  0  0  0  0
   -0.8160   27.5630  -24.4640 C   0  0  0  0  0  0  0  0  0  0  0  0
   -0.7070   26.0460  -24.4040 C   0  0  0  0  0  0  0  0  0  0  0  0
   -2.8010   25.3540  -25.6470 C   0  0  0  0  0  0  0  0  0  0  0  0
   -3.3700   24.7430  -26.8980 C   0  0  0  0  0  0  0  0  0  0  0  0
   -4.5990   24.8960  -27.1400 O   0  0  0  0  0  0  0  0  0  0  0  0
   -5.9840   24.5630  -30.2150 C   0  0  0  0  0  0  0  0  0  0  0  0
   -6.8630   23.3070  -30.0650 C   0  0  0  0  0  0  0  0  0  0  0  0
   -7.9281   18.3400  -30.9474 H   0  0  0  0  0  0  0  0  0  0  0  0
   -8.3984   17.5171  -32.4733 H   0  0  0  0  0  0  0  0  0  0  0  0
   -7.0557   18.7104  -32.4733 H   0  0  0  0  0  0  0  0  0  0  0  0
   -8.8589   19.9451  -33.3576 H   0  0  0  0  0  0  0  0  0  0  0  0
  -10.0449   19.1700  -32.2197 H   0  0  0  0  0  0  0  0  0  0  0  0
   -9.3680   20.4780  -30.4940 H   0  0  0  0  0  0  0  0  0  0  0  0
   -9.8347   21.7849  -32.9515 H   0  0  0  0  0  0  0  0  0  0  0  0
  -10.2772   22.2962  -31.2829 H   0  0  0  0  0  0  0  0  0  0  0  0
   -8.1789   23.3208  -33.0268 H   0  0  0  0  0  0  0  0  0  0  0  0
   -8.7366   23.9149  -31.4007 H   0  0  0  0  0  0  0  0  0  0  0  0
   -7.1970   21.5900  -31.1330 H   0  0  0  0  0  0  0  0  0  0  0  0
   -5.8714   21.8154  -32.8990 H   0  0  0  0  0  0  0  0  0  0  0  0
   -6.1535   23.6092  -32.9587 H   0  0  0  0  0  0  0  0  0  0  0  0
   -4.4384   22.1698  -30.8813 H   0  0  0  0  0  0  0  0  0  0  0  0
   -3.8141   23.0322  -32.3320 H   0  0  0  0  0  0  0  0  0  0  0  0
   -2.6369   24.7040  -30.7053 H   0  0  0  0  0  0  0  0  0  0  0  0
   -3.7380   25.4247  -29.4213 H   0  0  0  0  0  0  0  0  0  0  0  0
   -4.0138   22.8356  -28.7967 H   0  0  0  0  0  0  0  0  0  0  0  0
   -2.3413   22.7930  -29.5094 H   0  0  0  0  0  0  0  0  0  0  0  0
   -0.7858   23.4625  -25.2784 H   0  0  0  0  0  0  0  0  0  0  0  0
    0.4558   24.3334  -26.2718 H   0  0  0  0  0  0  0  0  0  0  0  0
    0.1048   26.4388  -27.1732 H   0  0  0  0  0  0  0  0  0  0  0  0
   -1.6064   26.6922  -27.5657 H   0  0  0  0  0  0  0  0  0  0  0  0
    0.0345   28.5267  -26.2073 H   0  0  0  0  0  0  0  0  0  0  0  0
   -1.7437   28.5542  -26.1645 H   0  0  0  0  0  0  0  0  0  0  0  0
    0.0564   28.0253  -23.9790 H   0  0  0  0  0  0  0  0  0  0  0  0
   -1.7159   27.9163  -23.9393 H   0  0  0  0  0  0  0  0  0  0  0  0
    0.3436   25.7429  -24.2838 H   0  0  0  0  0  0  0  0  0  0  0  0
   -1.2650   25.6358  -23.5494 H   0  0  0  0  0  0  0  0  0  0  0  0
   -3.0354   24.7008  -24.7935 H   0  0  0  0  0  0  0  0  0  0  0  0
   -3.2502   26.3498  -25.5185 H   0  0  0  0  0  0  0  0  0  0  0  0
   -5.7962   24.9845  -29.2165 H   0  0  0  0  0  0  0  0  0  0  0  0
   -6.5223   25.2754  -30.8574 H   0  0  0  0  0  0  0  0  0  0  0  0
   -6.3661   22.6104  -29.3737 H   0  0  0  0  0  0  0  0  0  0  0  0
   -7.8422   23.6310  -29.6827 H   0  0  0  0  0  0  0  0  0  0  0  0
  1  2  1  0
  2  3  1  0
  3  4  1  0
  4  5  1  0
  5  6  1  0
  6  7  1  0
  7  8  1  0
  8  9  1  0
  9 10  1  0
 10 11  1  0
 11 12  1  0
 12 13  1  0
 13 14  2  0
 13 15  1  0
 15 16  1  0
 16 17  1  0
 17 18  1  0
 18 19  1  0
 19 20  1  0
 16 21  1  0
 21 22  1  0
 22 23  2  0
  9 24  1  0
 24 25  1  0
 25  6  1  0
 22 12  1  0
 20 16  1  0
  1 26  1  0
  1 27  1  0
  1 28  1  0
  2 29  1  0
  2 30  1  0
  3 31  1  0
  4 32  1  0
  4 33  1  0
  5 34  1  0
  5 35  1  0
  6 36  1  0
  7 37  1  0
  7 38  1  0
  8 39  1  0
  8 40  1  0
 10 41  1  0
 10 42  1  0
 11 43  1  0
 11 44  1  0
 15 45  1  0
 15 46  1  0
 17 47  1  0
 17 48  1  0
 18 49  1  0
 18 50  1  0
 19 51  1  0
 19 52  1  0
 20 53  1  0
 20 54  1  0
 21 55  1  0
 21 56  1  0
 24 57  1  0
 24 58  1  0
 25 59  1  0
 25 60  1  0
M  CHG  1   6   1
M  END
>  <UniqueID>  (28) 
27

>  <SMILES>  (28) 
CCNCC[NH+]1CCN(CCN2C(=O)CC3(CCCC3)CC2=O)CC1

>  <Energy>  (28) 
75.0385376705838

>  <Genealogy>  (28) 
CCNCC[NH+]1CCN(CCN2C(=O)CC3(CCCC3)CC2=O)CC1 (protonated)
CCNCC[NH+]1CCN(CCN2C(=O)CC3(CCCC3)CC2=O)CC1 (3D coordinates assigned)
CCNCC[NH+]1CCN(CCN2C(=O)CC3(CCCC3)CC2=O)CC1 (nonaromatic ring conformer: 75.0385376705838 kcal/mol)

>  <smiles>  (28) 
CCNCCN1CCN(CCN2C(=O)CC3(CCCC3)CC2=O)CC1

>  <score_type>  (28) 
oracle

>  <origin>  (28) 
adg

>  <m_score__min__energy>  (28) 
-7.6399999999999997

>  <m_primary>  (28) 
energy

$$$$
28:0
     RDKit          3D

 39 42  0  0  0  0  0  0  0  0999 V2000
   -6.4880   25.6900  -29.3490 Cl  0  0  0  0  0  0  0  0  0  0  0  0
   -5.7370   24.4220  -30.3000 C   0  0  0  0  0  0  0  0  0  0  0  0
   -6.2130   24.1330  -31.5820 C   0  0  0  0  0  0  0  0  0  0  0  0
   -5.6140   23.1230  -32.3400 C   0  0  0  0  0  0  0  0  0  0  0  0
   -4.5430   22.3810  -31.8160 C   0  0  0  0  0  0  0  0  0  0  0  0
   -3.9100   21.3250  -32.6360 C   0  0  0  0  0  0  0  0  0  0  0  0
   -2.6660   21.4590  -33.1410 N   0  0  0  0  0  0  0  0  0  0  0  0
   -2.4170   20.2840  -33.7570 C   0  0  0  0  0  0  0  0  0  0  0  0
   -1.1500   19.9840  -34.4700 C   0  0  0  0  0  0  0  0  0  0  0  0
   -0.7410   18.6570  -34.7100 C   0  0  0  0  0  0  0  0  0  0  0  0
    0.4560   18.3970  -35.3840 C   0  0  0  0  0  0  0  0  0  0  0  0
    1.2580   19.4520  -35.8230 C   0  0  0  0  0  0  0  0  0  0  0  0
    0.8650   20.7710  -35.5900 C   0  0  0  0  0  0  0  0  0  0  0  0
   -0.3320   21.0370  -34.9170 C   0  0  0  0  0  0  0  0  0  0  0  0
   -3.5150   19.4550  -33.6200 C   0  0  0  0  0  0  0  0  0  0  0  0
   -4.4550   20.1160  -32.9210 N   0  0  0  0  0  0  0  0  0  0  0  0
   -5.7900   19.6430  -32.6710 C   0  0  0  0  0  0  0  0  0  0  0  0
   -5.9920   18.4170  -32.0150 C   0  0  0  0  0  0  0  0  0  0  0  0
   -7.2870   17.9470  -31.7790 C   0  0  0  0  0  0  0  0  0  0  0  0
   -8.3900   18.6920  -32.2040 C   0  0  0  0  0  0  0  0  0  0  0  0
   -8.1990   19.9050  -32.8720 C   0  0  0  0  0  0  0  0  0  0  0  0
   -6.9060   20.3770  -33.1100 C   0  0  0  0  0  0  0  0  0  0  0  0
   -4.0560   22.6930  -30.5350 C   0  0  0  0  0  0  0  0  0  0  0  0
   -4.6560   23.7030  -29.7780 C   0  0  0  0  0  0  0  0  0  0  0  0
   -7.0598   24.7010  -31.9947 H   0  0  0  0  0  0  0  0  0  0  0  0
   -5.9838   22.9079  -33.3534 H   0  0  0  0  0  0  0  0  0  0  0  0
   -1.3671   17.8209  -34.3651 H   0  0  0  0  0  0  0  0  0  0  0  0
    0.7668   17.3581  -35.5689 H   0  0  0  0  0  0  0  0  0  0  0  0
    2.1995   19.2439  -36.3524 H   0  0  0  0  0  0  0  0  0  0  0  0
    1.4972   21.6020  -35.9360 H   0  0  0  0  0  0  0  0  0  0  0  0
   -0.6361   22.0785  -34.7359 H   0  0  0  0  0  0  0  0  0  0  0  0
   -3.6043   18.4320  -34.0144 H   0  0  0  0  0  0  0  0  0  0  0  0
   -5.1263   17.8238  -31.6854 H   0  0  0  0  0  0  0  0  0  0  0  0
   -7.4379   16.9899  -31.2583 H   0  0  0  0  0  0  0  0  0  0  0  0
   -9.4088   18.3239  -32.0129 H   0  0  0  0  0  0  0  0  0  0  0  0
   -9.0679   20.4885  -33.2106 H   0  0  0  0  0  0  0  0  0  0  0  0
   -6.7602   21.3278  -33.6436 H   0  0  0  0  0  0  0  0  0  0  0  0
   -3.1980   22.1393  -30.1261 H   0  0  0  0  0  0  0  0  0  0  0  0
   -4.2781   23.9330  -28.7709 H   0  0  0  0  0  0  0  0  0  0  0  0
  1  2  1  0
  2  3  2  0
  3  4  1  0
  4  5  2  0
  5  6  1  0
  6  7  2  0
  7  8  1  0
  8  9  1  0
  9 10  2  0
 10 11  1  0
 11 12  2  0
 12 13  1  0
 13 14  2  0
  8 15  2  0
 15 16  1  0
 16 17  1  0
 17 18  2  0
 18 19  1  0
 19 20  2  0
 20 21  1  0
 21 22  2  0
  5 23  1  0
 23 24  2  0
 24  2  1  0
 16  6  1  0
 22 17  1  0
 14  9  1  0
  3 25  1  0
  4 26  1  0
 10 27  1  0
 11 28  1  0
 12 29  1  0
 13 30  1  0
 14 31  1  0
 15 32  1  0
 18 33  1  0
 19 34  1  0
 20 35  1  0
 21 36  1  0
 22 37  1  0
 23 38  1  0
 24 39  1  0
M  END
>  <UniqueID>  (29) 
28

>  <SMILES>  (29) 
Clc1ccc(-c2nc(-c3ccccc3)cn2-c2ccccc2)cc1

>  <Energy>  (29) 
83.75400332188843

>  <Genealogy>  (29) 
Clc1ccc(-c2nc(-c3ccccc3)cn2-c2ccccc2)cc1 (3D coordinates assigned)
Clc1ccc(-c2nc(-c3ccccc3)cn2-c2ccccc2)cc1 (optimized conformer: 83.75400332188843 kcal/mol)

>  <smiles>  (29) 
Clc1ccc(-c2nc(-c3ccccc3)cn2-c2ccccc2)cc1

>  <score_type>  (29) 
oracle

>  <origin>  (29) 
adg

>  <m_score__min__energy>  (29) 
-8.2599999999999998

>  <m_primary>  (29) 
energy

$$$$
29:0
     RDKit          3D

 61 64  0  0  0  0  0  0  0  0999 V2000
    0.1000   20.8510  -34.1430 C   0  0  0  0  0  0  0  0  0  0  0  0
   -0.2230   20.3920  -32.7240 C   0  0  0  0  0  0  0  0  0  0  0  0
   -1.5280   20.9420  -32.2930 N   0  0  0  0  0  0  0  0  0  0  0  0
   -1.3590   21.9290  -31.1990 C   0  0  0  0  0  0  0  0  0  0  0  0
   -1.0440   21.2130  -29.8890 C   0  0  0  0  0  0  0  0  0  0  0  0
   -2.2680   21.5280  -33.4330 C   0  0  0  0  0  0  0  0  0  0  0  0
   -3.7810   21.4160  -33.1890 C   0  0  0  0  0  0  0  0  0  0  0  0
   -4.1020   20.6800  -31.9520 N   0  0  0  0  0  0  0  0  0  0  0  0
   -5.4430   20.1140  -31.9910 C   0  0  0  0  0  0  0  0  0  0  0  0
   -5.6950   18.8380  -32.5970 C   0  0  0  0  0  0  0  0  0  0  0  0
   -4.6520   18.0320  -33.1280 C   0  0  0  0  0  0  0  0  0  0  0  0
   -4.9130   16.7920  -33.7020 C   0  0  0  0  0  0  0  0  0  0  0  0
   -6.2110   16.3130  -33.7720 C   0  0  0  0  0  0  0  0  0  0  0  0
   -7.2630   17.0740  -33.2780 C   0  0  0  0  0  0  0  0  0  0  0  0
   -7.0400   18.3450  -32.6890 C   0  0  0  0  0  0  0  0  0  0  0  0
   -8.0980   19.1020  -32.2230 N   0  0  0  0  0  0  0  0  0  0  0  0
   -9.4860   18.6100  -32.3380 C   0  0  0  0  0  0  0  0  0  0  0  0
   -7.8420   20.3180  -31.6530 C   0  0  0  0  0  0  0  0  0  0  0  0
   -8.9840   21.3990  -31.0460 S   0  0  0  0  0  0  0  0  0  0  0  0
   -7.8910   22.5590  -30.5540 C   0  0  0  0  0  0  0  0  0  0  0  0
   -6.6020   22.1240  -30.8460 C   0  0  0  0  0  0  0  0  0  0  0  0
   -5.4700   22.9510  -30.3940 C   0  0  0  0  0  0  0  0  0  0  0  0
   -5.2900   24.2430  -30.9070 C   0  0  0  0  0  0  0  0  0  0  0  0
   -4.2450   25.0450  -30.4420 C   0  0  0  0  0  0  0  0  0  0  0  0
   -3.3870   24.5830  -29.4360 C   0  0  0  0  0  0  0  0  0  0  0  0
   -2.3490   25.4240  -29.0080 O   0  0  0  0  0  0  0  0  0  0  0  0
   -1.6530   25.2760  -27.7750 C   0  0  0  0  0  0  0  0  0  0  0  0
   -3.5970   23.3020  -28.8890 C   0  0  0  0  0  0  0  0  0  0  0  0
   -4.6420   22.5000  -29.3550 C   0  0  0  0  0  0  0  0  0  0  0  0
   -6.5610   20.8460  -31.4940 C   0  0  0  0  0  0  0  0  0  0  0  0
    0.7326   21.7500  -34.1025 H   0  0  0  0  0  0  0  0  0  0  0  0
    0.6346   20.0501  -34.6747 H   0  0  0  0  0  0  0  0  0  0  0  0
   -0.8344   21.0838  -34.6747 H   0  0  0  0  0  0  0  0  0  0  0  0
   -0.2656   19.2931  -32.6985 H   0  0  0  0  0  0  0  0  0  0  0  0
    0.5613   20.7535  -32.0427 H   0  0  0  0  0  0  0  0  0  0  0  0
   -0.5325   22.6105  -31.4487 H   0  0  0  0  0  0  0  0  0  0  0  0
   -2.2925   22.4989  -31.0817 H   0  0  0  0  0  0  0  0  0  0  0  0
   -1.3269   21.8560  -29.0425 H   0  0  0  0  0  0  0  0  0  0  0  0
   -1.6111   20.2717  -29.8400 H   0  0  0  0  0  0  0  0  0  0  0  0
    0.0331   20.9951  -29.8400 H   0  0  0  0  0  0  0  0  0  0  0  0
   -1.9934   22.5878  -33.5397 H   0  0  0  0  0  0  0  0  0  0  0  0
   -2.0084   20.9817  -34.3518 H   0  0  0  0  0  0  0  0  0  0  0  0
   -4.2022   22.4295  -33.1155 H   0  0  0  0  0  0  0  0  0  0  0  0
   -4.2144   20.8573  -34.0316 H   0  0  0  0  0  0  0  0  0  0  0  0
   -3.3620   19.9820  -31.7400 H   0  0  0  0  0  0  0  0  0  0  0  0
   -4.0150   21.3160  -31.1380 H   0  0  0  0  0  0  0  0  0  0  0  0
   -3.6152   18.3967  -33.0842 H   0  0  0  0  0  0  0  0  0  0  0  0
   -4.0847   16.1889  -34.1022 H   0  0  0  0  0  0  0  0  0  0  0  0
   -6.4091   15.3280  -34.2197 H   0  0  0  0  0  0  0  0  0  0  0  0
   -8.2891   16.6833  -33.3449 H   0  0  0  0  0  0  0  0  0  0  0  0
   -9.9066   18.4609  -31.3326 H   0  0  0  0  0  0  0  0  0  0  0  0
  -10.0926   19.3479  -32.8835 H   0  0  0  0  0  0  0  0  0  0  0  0
   -9.4924   17.6548  -32.8835 H   0  0  0  0  0  0  0  0  0  0  0  0
   -8.1482   23.5153  -30.0751 H   0  0  0  0  0  0  0  0  0  0  0  0
   -5.9739   24.6267  -31.6784 H   0  0  0  0  0  0  0  0  0  0  0  0
   -4.0948   26.0474  -30.8694 H   0  0  0  0  0  0  0  0  0  0  0  0
   -2.3523   25.4247  -26.9390 H   0  0  0  0  0  0  0  0  0  0  0  0
   -1.2212   24.2660  -27.7166 H   0  0  0  0  0  0  0  0  0  0  0  0
   -0.8476   26.0230  -27.7166 H   0  0  0  0  0  0  0  0  0  0  0  0
   -2.9357   22.9316  -28.0918 H   0  0  0  0  0  0  0  0  0  0  0  0
   -4.8162   21.5112  -28.9055 H   0  0  0  0  0  0  0  0  0  0  0  0
  1  2  1  0
  2  3  1  0
  3  4  1  0
  4  5  1  0
  3  6  1  0
  6  7  1  0
  7  8  1  0
  8  9  1  0
  9 10  2  0
 10 11  1  0
 11 12  2  0
 12 13  1  0
 13 14  2  0
 14 15  1  0
 15 16  2  0
 16 17  1  0
 16 18  1  0
 18 19  1  0
 19 20  1  0
 20 21  2  0
 21 22  1  0
 22 23  2  0
 23 24  1  0
 24 25  2  0
 25 26  1  0
 26 27  1  0
 25 28  1  0
 28 29  2  0
 21 30  1  0
 30  9  1  0
 15 10  1  0
 30 18  2  0
 29 22  1  0
  1 31  1  0
  1 32  1  0
  1 33  1  0
  2 34  1  0
  2 35  1  0
  4 36  1  0
  4 37  1  0
  5 38  1  0
  5 39  1  0
  5 40  1  0
  6 41  1  0
  6 42  1  0
  7 43  1  0
  7 44  1  0
  8 45  1  0
  8 46  1  0
 11 47  1  0
 12 48  1  0
 13 49  1  0
 14 50  1  0
 17 51  1  0
 17 52  1  0
 17 53  1  0
 20 54  1  0
 23 55  1  0
 24 56  1  0
 27 57  1  0
 27 58  1  0
 27 59  1  0
 28 60  1  0
 29 61  1  0
M  CHG  2   8   1  16   1
M  END
>  <UniqueID>  (30) 
29

>  <SMILES>  (30) 
CCN(CC)CC[NH2+]c1c2ccccc2[n+](C)c2scc(-c3ccc(OC)cc3)c12

>  <Energy>  (30) 
121.40749413475473

>  <Genealogy>  (30) 
CCN(CC)CC[NH2+]c1c2ccccc2[n+](C)c2scc(-c3ccc(OC)cc3)c12 (protonated)
CCN(CC)CC[NH2+]c1c2ccccc2[n+](C)c2scc(-c3ccc(OC)cc3)c12 (3D coordinates assigned)
CCN(CC)CC[NH2+]c1c2ccccc2[n+](C)c2scc(-c3ccc(OC)cc3)c12 (optimized conformer: 121.40749413475473 kcal/mol)

>  <smiles>  (30) 
CCN(CC)CCNc1c2ccccc2[n+](C)c2scc(-c3ccc(OC)cc3)c12

>  <score_type>  (30) 
oracle

>  <origin>  (30) 
adg

>  <m_score__min__energy>  (30) 
-7.7000000000000002

>  <m_primary>  (30) 
energy

$$$$
30:0
     RDKit          3D

 71 74  0  0  0  0  0  0  0  0999 V2000
   -6.3910   14.6570  -34.2160 C   0  0  0  0  0  0  0  0  0  0  0  0
   -4.9430   14.1780  -34.0510 C   0  0  0  0  0  0  0  0  0  0  0  0
   -4.2040   14.9590  -33.0210 N   0  0  0  0  0  0  0  0  0  0  0  0
   -4.7760   14.7070  -31.6700 C   0  0  0  0  0  0  0  0  0  0  0  0
   -4.5260   13.2720  -31.1890 C   0  0  0  0  0  0  0  0  0  0  0  0
   -2.7570   14.6030  -33.0430 C   0  0  0  0  0  0  0  0  0  0  0  0
   -1.9240   15.6150  -33.8490 C   0  0  0  0  0  0  0  0  0  0  0  0
   -2.8020   16.4980  -34.6160 N   0  0  0  0  0  0  0  0  0  0  0  0
   -3.0010   17.8620  -34.2140 C   0  0  0  0  0  0  0  0  0  0  0  0
   -1.9600   18.8200  -34.2230 C   0  0  0  0  0  0  0  0  0  0  0  0
   -0.6910   18.5020  -34.7460 C   0  0  0  0  0  0  0  0  0  0  0  0
    0.3490   19.4270  -34.6970 C   0  0  0  0  0  0  0  0  0  0  0  0
    0.1470   20.6790  -34.1250 C   0  0  0  0  0  0  0  0  0  0  0  0
   -1.1090   21.0370  -33.6340 C   0  0  0  0  0  0  0  0  0  0  0  0
   -2.2060   20.1430  -33.7140 C   0  0  0  0  0  0  0  0  0  0  0  0
   -3.4830   20.5120  -33.3110 N   0  0  0  0  0  0  0  0  0  0  0  0
   -3.8400   21.9160  -33.0420 C   0  0  0  0  0  0  0  0  0  0  0  0
   -4.4450   19.5360  -33.2520 C   0  0  0  0  0  0  0  0  0  0  0  0
   -4.2340   18.2600  -33.7240 C   0  0  0  0  0  0  0  0  0  0  0  0
   -5.3190   17.5220  -33.6170 O   0  0  0  0  0  0  0  0  0  0  0  0
   -6.2430   18.2810  -33.0690 C   0  0  0  0  0  0  0  0  0  0  0  0
   -7.5500   17.9130  -32.7690 C   0  0  0  0  0  0  0  0  0  0  0  0
   -8.3790   18.8630  -32.1480 C   0  0  0  0  0  0  0  0  0  0  0  0
   -7.8860   20.1420  -31.8040 C   0  0  0  0  0  0  0  0  0  0  0  0
   -8.7510   21.0340  -31.1550 O   0  0  0  0  0  0  0  0  0  0  0  0
   -9.2050   22.2650  -31.7100 C   0  0  0  0  0  0  0  0  0  0  0  0
   -8.0180   23.2180  -31.8830 C   0  0  0  0  0  0  0  0  0  0  0  0
   -7.1990   23.3820  -30.5850 C   0  0  0  0  0  0  0  0  0  0  0  0
   -5.8310   23.8900  -30.8440 N   0  0  0  0  0  0  0  0  0  0  0  0
   -4.8200   23.1010  -30.1180 C   0  0  0  0  0  0  0  0  0  0  0  0
   -5.7400   25.3020  -30.4350 C   0  0  0  0  0  0  0  0  0  0  0  0
   -6.5470   20.4860  -32.1170 C   0  0  0  0  0  0  0  0  0  0  0  0
   -5.7600   19.5460  -32.7950 C   0  0  0  0  0  0  0  0  0  0  0  0
   -6.8430   14.8065  -33.2244 H   0  0  0  0  0  0  0  0  0  0  0  0
   -6.4021   15.6067  -34.7710 H   0  0  0  0  0  0  0  0  0  0  0  0
   -6.9662   13.9013  -34.7710 H   0  0  0  0  0  0  0  0  0  0  0  0
   -4.9523   13.1192  -33.7530 H   0  0  0  0  0  0  0  0  0  0  0  0
   -4.4297   14.3196  -35.0135 H   0  0  0  0  0  0  0  0  0  0  0  0
   -4.3020   15.9800  -33.2440 H   0  0  0  0  0  0  0  0  0  0  0  0
   -4.3152   15.4047  -30.9553 H   0  0  0  0  0  0  0  0  0  0  0  0
   -5.8641   14.8555  -31.7328 H   0  0  0  0  0  0  0  0  0  0  0  0
   -4.5221   13.2494  -30.0892 H   0  0  0  0  0  0  0  0  0  0  0  0
   -5.3232   12.6147  -31.5664 H   0  0  0  0  0  0  0  0  0  0  0  0
   -3.5535   12.9230  -31.5664 H   0  0  0  0  0  0  0  0  0  0  0  0
   -2.3820   14.5785  -32.0092 H   0  0  0  0  0  0  0  0  0  0  0  0
   -2.6573   13.6203  -33.5272 H   0  0  0  0  0  0  0  0  0  0  0  0
   -1.3171   16.2180  -33.1576 H   0  0  0  0  0  0  0  0  0  0  0  0
   -1.2707   15.0677  -34.5444 H   0  0  0  0  0  0  0  0  0  0  0  0
   -3.5680   16.0420  -35.1640 H   0  0  0  0  0  0  0  0  0  0  0  0
   -0.5200   17.5136  -35.1974 H   0  0  0  0  0  0  0  0  0  0  0  0
    1.3338   19.1667  -35.1121 H   0  0  0  0  0  0  0  0  0  0  0  0
    0.9828   21.3912  -34.0594 H   0  0  0  0  0  0  0  0  0  0  0  0
   -1.2500   22.0280  -33.1779 H   0  0  0  0  0  0  0  0  0  0  0  0
   -3.8822   22.0819  -31.9554 H   0  0  0  0  0  0  0  0  0  0  0  0
   -3.0817   22.5785  -33.4849 H   0  0  0  0  0  0  0  0  0  0  0  0
   -4.8226   22.1358  -33.4849 H   0  0  0  0  0  0  0  0  0  0  0  0
   -7.9243   16.9073  -33.0108 H   0  0  0  0  0  0  0  0  0  0  0  0
   -9.4258   18.6075  -31.9267 H   0  0  0  0  0  0  0  0  0  0  0  0
   -9.6690   22.0763  -32.6893 H   0  0  0  0  0  0  0  0  0  0  0  0
   -9.9443   22.7203  -31.0346 H   0  0  0  0  0  0  0  0  0  0  0  0
   -7.3584   22.8212  -32.6688 H   0  0  0  0  0  0  0  0  0  0  0  0
   -8.4187   24.2062  -32.1530 H   0  0  0  0  0  0  0  0  0  0  0  0
   -7.7205   24.0906  -29.9248 H   0  0  0  0  0  0  0  0  0  0  0  0
   -7.1071   22.3906  -30.1173 H   0  0  0  0  0  0  0  0  0  0  0  0
   -4.9712   23.2190  -29.0349 H   0  0  0  0  0  0  0  0  0  0  0  0
   -4.9196   22.0395  -30.3886 H   0  0  0  0  0  0  0  0  0  0  0  0
   -3.8145   23.4556  -30.3886 H   0  0  0  0  0  0  0  0  0  0  0  0
   -5.7359   25.3661  -29.3369 H   0  0  0  0  0  0  0  0  0  0  0  0
   -4.8118   25.7395  -30.8313 H   0  0  0  0  0  0  0  0  0  0  0  0
   -6.6044   25.8550  -30.8313 H   0  0  0  0  0  0  0  0  0  0  0  0
   -6.1361   21.4665  -31.8346 H   0  0  0  0  0  0  0  0  0  0  0  0
  1  2  1  0
  2  3  1  0
  3  4  1  0
  4  5  1  0
  3  6  1  0
  6  7  1  0
  7  8  1  0
  8  9  1  0
  9 10  2  0
 10 11  1  0
 11 12  2  0
 12 13  1  0
 13 14  2  0
 14 15  1  0
 15 16  2  0
 16 17  1  0
 16 18  1  0
 18 19  2  0
 19 20  1  0
 20 21  1  0
 21 22  2  0
 22 23  1  0
 23 24  2  0
 24 25  1  0
 25 26  1  0
 26 27  1  0
 27 28  1  0
 28 29  1  0
 29 30  1  0
 29 31  1  0
 24 32  1  0
 32 33  2  0
 19  9  1  0
 33 21  1  0
 15 10  1  0
 33 18  1  0
  1 34  1  0
  1 35  1  0
  1 36  1  0
  2 37  1  0
  2 38  1  0
  3 39  1  0
  4 40  1  0
  4 41  1  0
  5 42  1  0
  5 43  1  0
  5 44  1  0
  6 45  1  0
  6 46  1  0
  7 47  1  0
  7 48  1  0
  8 49  1  0
 11 50  1  0
 12 51  1  0
 13 52  1  0
 14 53  1  0
 17 54  1  0
 17 55  1  0
 17 56  1  0
 22 57  1  0
 23 58  1  0
 26 59  1  0
 26 60  1  0
 27 61  1  0
 27 62  1  0
 28 63  1  0
 28 64  1  0
 30 65  1  0
 30 66  1  0
 30 67  1  0
 31 68  1  0
 31 69  1  0
 31 70  1  0
 32 71  1  0
M  CHG  2   3   1  16   1
M  END
>  <UniqueID>  (31) 
30

>  <SMILES>  (31) 
CC[NH+](CC)CCNc1c2ccccc2[n+](C)c2c1oc1ccc(OCCCN(C)C)cc12

>  <Energy>  (31) 
134.80456095208004

>  <Genealogy>  (31) 
CC[NH+](CC)CCNc1c2ccccc2[n+](C)c2c1oc1ccc(OCCCN(C)C)cc12 (protonated)
CC[NH+](CC)CCNc1c2ccccc2[n+](C)c2c1oc1ccc(OCCCN(C)C)cc12 (3D coordinates assigned)
CC[NH+](CC)CCNc1c2ccccc2[n+](C)c2c1oc1ccc(OCCCN(C)C)cc12 (optimized conformer: 134.80456095208004 kcal/mol)

>  <smiles>  (31) 
CCN(CC)CCNc1c2ccccc2[n+](C)c2c1oc1ccc(OCCCN(C)C)cc12

>  <score_type>  (31) 
oracle

>  <origin>  (31) 
adg

>  <m_score__min__energy>  (31) 
-7.0800000000000001

>  <m_primary>  (31) 
energy

$$$$
31:0
     RDKit          3D

 34 36  0  0  0  0  0  0  0  0999 V2000
   -4.0400   21.2570  -33.0900 C   0  0  0  0  0  0  0  0  0  0  0  0
   -2.8720   21.0510  -32.3010 O   0  0  0  0  0  0  0  0  0  0  0  0
   -2.5440   21.8020  -31.1620 C   0  0  0  0  0  0  0  0  0  0  0  0
   -1.2020   21.8530  -30.7640 C   0  0  0  0  0  0  0  0  0  0  0  0
   -0.8240   22.5860  -29.6360 C   0  0  0  0  0  0  0  0  0  0  0  0
   -1.7870   23.2790  -28.8870 C   0  0  0  0  0  0  0  0  0  0  0  0
   -1.3900   24.0630  -27.6910 C   0  0  0  0  0  0  0  0  0  0  0  0
   -1.0880   23.4230  -26.4720 C   0  0  0  0  0  0  0  0  0  0  0  0
   -1.2060   21.9830  -26.3550 C   0  0  0  0  0  0  0  0  0  0  0  0
   -1.3010   20.8330  -26.2620 N   0  0  0  0  0  0  0  0  0  0  0  0
   -0.7340   24.1600  -25.3770 N   0  0  0  0  0  0  0  0  0  0  0  0
   -0.5080   23.4690  -24.1950 O   0  0  0  0  0  0  0  0  0  0  0  0
   -0.6320   25.5300  -25.4620 C   0  0  0  0  0  0  0  0  0  0  0  0
   -0.1950   26.3260  -24.3760 C   0  0  0  0  0  0  0  0  0  0  0  0
   -0.1190   27.7150  -24.4950 C   0  0  0  0  0  0  0  0  0  0  0  0
   -0.4610   28.3380  -25.6910 C   0  0  0  0  0  0  0  0  0  0  0  0
   -0.8710   27.5760  -26.7840 C   0  0  0  0  0  0  0  0  0  0  0  0
   -0.9540   26.1730  -26.6870 C   0  0  0  0  0  0  0  0  0  0  0  0
   -1.3280   25.4240  -27.7670 N   0  0  0  0  0  0  0  0  0  0  0  0
   -1.6110   26.0440  -28.9660 O   0  0  0  0  0  0  0  0  0  0  0  0
   -3.1320   23.2340  -29.2850 C   0  0  0  0  0  0  0  0  0  0  0  0
   -3.5100   22.5000  -30.4130 C   0  0  0  0  0  0  0  0  0  0  0  0
   -4.9063   21.4098  -32.4296 H   0  0  0  0  0  0  0  0  0  0  0  0
   -3.9018   22.1446  -33.7248 H   0  0  0  0  0  0  0  0  0  0  0  0
   -4.2138   20.3756  -33.7248 H   0  0  0  0  0  0  0  0  0  0  0  0
   -0.4398   21.3119  -31.3439 H   0  0  0  0  0  0  0  0  0  0  0  0
    0.2332   22.6199  -29.3339 H   0  0  0  0  0  0  0  0  0  0  0  0
    0.0100   23.8370  -23.4130 H   0  0  0  0  0  0  0  0  0  0  0  0
    0.0878   25.8449  -23.4280 H   0  0  0  0  0  0  0  0  0  0  0  0
    0.2131   28.3201  -23.6385 H   0  0  0  0  0  0  0  0  0  0  0  0
   -0.4078   29.4335  -25.7743 H   0  0  0  0  0  0  0  0  0  0  0  0
   -1.1317   28.0741  -27.7295 H   0  0  0  0  0  0  0  0  0  0  0  0
   -3.8925   23.7790  -28.7065 H   0  0  0  0  0  0  0  0  0  0  0  0
   -4.5668   22.4677  -30.7166 H   0  0  0  0  0  0  0  0  0  0  0  0
  1  2  1  0
  2  3  1  0
  3  4  2  0
  4  5  1  0
  5  6  2  0
  6  7  1  0
  7  8  2  0
  8  9  1  0
  9 10  3  0
  8 11  1  0
 11 12  1  0
 11 13  2  0
 13 14  1  0
 14 15  2  0
 15 16  1  0
 16 17  2  0
 17 18  1  0
 18 19  2  0
 19 20  1  0
  6 21  1  0
 21 22  2  0
 22  3  1  0
 19  7  1  0
 18 13  1  0
  1 23  1  0
  1 24  1  0
  1 25  1  0
  4 26  1  0
  5 27  1  0
 12 28  1  0
 14 29  1  0
 15 30  1  0
 16 31  1  0
 17 32  1  0
 21 33  1  0
 22 34  1  0
M  CHG  3  11   1  19   1  20  -1
M  END
>  <UniqueID>  (32) 
31

>  <SMILES>  (32) 
COc1ccc(-c2c(C#N)[n+](O)c3ccccc3[n+]2[O-])cc1

>  <Energy>  (32) 
55.31194759147541

>  <Genealogy>  (32) 
COc1ccc(-c2c(C#N)[n+](O)c3ccccc3[n+]2[O-])cc1 (protonated)
COc1ccc(-c2c(C#N)[n+](O)c3ccccc3[n+]2[O-])cc1 (3D coordinates assigned)
COc1ccc(-c2c(C#N)[n+](O)c3ccccc3[n+]2[O-])cc1 (optimized conformer: 55.31194759147541 kcal/mol)

>  <smiles>  (32) 
COc1ccc(-c2c(C#N)[n+]([O-])c3ccccc3[n+]2[O-])cc1

>  <score_type>  (32) 
oracle

>  <origin>  (32) 
adg

>  <m_score__min__energy>  (32) 
-7.1699999999999999

>  <m_primary>  (32) 
energy

$$$$
32:0
     RDKit          3D

 68 70  0  0  0  0  0  0  0  0999 V2000
    0.2880   21.1420  -33.6330 C   0  0  0  0  0  0  0  0  0  0  0  0
   -1.1860   21.5320  -33.4480 C   0  0  0  0  0  0  0  0  0  0  0  0
   -1.7830   21.0760  -32.1680 N   0  0  0  0  0  0  0  0  0  0  0  0
   -0.8830   21.3010  -31.0140 C   0  0  0  0  0  0  0  0  0  0  0  0
   -1.6140   21.0010  -29.7090 C   0  0  0  0  0  0  0  0  0  0  0  0
   -2.3100   19.6900  -32.2050 C   0  0  0  0  0  0  0  0  0  0  0  0
   -2.3670   19.1420  -33.6420 C   0  0  0  0  0  0  0  0  0  0  0  0
   -3.6540   18.5060  -33.9400 N   0  0  0  0  0  0  0  0  0  0  0  0
   -4.9150   19.0370  -33.4860 C   0  0  0  0  0  0  0  0  0  0  0  0
   -5.9710   18.1820  -33.0810 C   0  0  0  0  0  0  0  0  0  0  0  0
   -7.1590   18.7670  -32.6530 C   0  0  0  0  0  0  0  0  0  0  0  0
   -8.2700   18.1570  -32.2080 N   0  0  0  0  0  0  0  0  0  0  0  0
   -9.1120   19.1710  -31.8980 C   0  0  0  0  0  0  0  0  0  0  0  0
   -8.5650   20.3890  -32.1430 N   0  0  0  0  0  0  0  0  0  0  0  0
   -9.1810   21.6890  -31.8720 C   0  0  0  0  0  0  0  0  0  0  0  0
   -8.1200   22.7530  -31.5620 C   0  0  0  0  0  0  0  0  0  0  0  0
   -7.4060   22.4920  -30.2270 C   0  0  0  0  0  0  0  0  0  0  0  0
   -6.1480   23.2640  -30.1580 N   0  0  0  0  0  0  0  0  0  0  0  0
   -5.0120   22.4660  -30.6700 C   0  0  0  0  0  0  0  0  0  0  0  0
   -3.7650   23.3380  -30.9400 C   0  0  0  0  0  0  0  0  0  0  0  0
   -3.8100   24.6290  -30.2200 N   0  0  0  0  0  0  0  0  0  0  0  0
   -3.6780   24.4920  -28.7490 C   0  0  0  0  0  0  0  0  0  0  0  0
   -2.2840   24.9120  -28.2590 C   0  0  0  0  0  0  0  0  0  0  0  0
   -1.5960   25.6340  -29.2460 O   0  0  0  0  0  0  0  0  0  0  0  0
   -5.0080   25.4120  -30.6160 C   0  0  0  0  0  0  0  0  0  0  0  0
   -6.2480   24.5370  -30.8940 C   0  0  0  0  0  0  0  0  0  0  0  0
   -7.3310   20.1190  -32.6150 C   0  0  0  0  0  0  0  0  0  0  0  0
   -6.3220   20.9980  -33.0020 C   0  0  0  0  0  0  0  0  0  0  0  0
   -5.1040   20.4470  -33.4430 C   0  0  0  0  0  0  0  0  0  0  0  0
   -4.1050   21.2850  -33.8190 F   0  0  0  0  0  0  0  0  0  0  0  0
    0.7606   21.0169  -32.6476 H   0  0  0  0  0  0  0  0  0  0  0  0
    0.3498   20.1966  -34.1919 H   0  0  0  0  0  0  0  0  0  0  0  0
    0.8092   21.9331  -34.1919 H   0  0  0  0  0  0  0  0  0  0  0  0
   -1.2601   22.6286  -33.4912 H   0  0  0  0  0  0  0  0  0  0  0  0
   -1.7468   21.0333  -34.2522 H   0  0  0  0  0  0  0  0  0  0  0  0
   -0.0085   20.6394  -31.1009 H   0  0  0  0  0  0  0  0  0  0  0  0
   -0.5598   22.3525  -31.0107 H   0  0  0  0  0  0  0  0  0  0  0  0
   -0.9690   21.2657  -28.8582 H   0  0  0  0  0  0  0  0  0  0  0  0
   -2.5410   21.5914  -29.6639 H   0  0  0  0  0  0  0  0  0  0  0  0
   -1.8591   19.9296  -29.6639 H   0  0  0  0  0  0  0  0  0  0  0  0
   -1.6553   19.0433  -31.6024 H   0  0  0  0  0  0  0  0  0  0  0  0
   -3.3330   19.7007  -31.8008 H   0  0  0  0  0  0  0  0  0  0  0  0
   -2.2113   19.9736  -34.3450 H   0  0  0  0  0  0  0  0  0  0  0  0
   -1.5809   18.3794  -33.7447 H   0  0  0  0  0  0  0  0  0  0  0  0
   -3.6650   17.6320  -34.5110 H   0  0  0  0  0  0  0  0  0  0  0  0
   -5.8547   17.0884  -33.1044 H   0  0  0  0  0  0  0  0  0  0  0  0
   -8.4430   17.1310  -32.1070 H   0  0  0  0  0  0  0  0  0  0  0  0
  -10.1244   19.0245  -31.4935 H   0  0  0  0  0  0  0  0  0  0  0  0
   -9.7573   22.0037  -32.7545 H   0  0  0  0  0  0  0  0  0  0  0  0
   -9.8377   21.5868  -30.9955 H   0  0  0  0  0  0  0  0  0  0  0  0
   -7.3725   22.7529  -32.3690 H   0  0  0  0  0  0  0  0  0  0  0  0
   -8.6296   23.7249  -31.4869 H   0  0  0  0  0  0  0  0  0  0  0  0
   -8.0634   22.7949  -29.3987 H   0  0  0  0  0  0  0  0  0  0  0  0
   -7.1722   21.4199  -30.1502 H   0  0  0  0  0  0  0  0  0  0  0  0
   -4.7537   21.6982  -29.9258 H   0  0  0  0  0  0  0  0  0  0  0  0
   -5.3198   22.0103  -31.6227 H   0  0  0  0  0  0  0  0  0  0  0  0
   -2.8709   22.7847  -30.6167 H   0  0  0  0  0  0  0  0  0  0  0  0
   -3.7373   23.5571  -32.0176 H   0  0  0  0  0  0  0  0  0  0  0  0
   -4.4326   25.1280  -28.2632 H   0  0  0  0  0  0  0  0  0  0  0  0
   -3.8266   23.4333  -28.4898 H   0  0  0  0  0  0  0  0  0  0  0  0
   -2.3930   25.5420  -27.3639 H   0  0  0  0  0  0  0  0  0  0  0  0
   -1.7082   24.0041  -28.0262 H   0  0  0  0  0  0  0  0  0  0  0  0
   -2.1940   25.6730  -30.0380 H   0  0  0  0  0  0  0  0  0  0  0  0
   -5.2508   26.1126  -29.8035 H   0  0  0  0  0  0  0  0  0  0  0  0
   -4.7607   25.9317  -31.5534 H   0  0  0  0  0  0  0  0  0  0  0  0
   -7.1517   25.0740  -30.5700 H   0  0  0  0  0  0  0  0  0  0  0  0
   -6.3033   24.3250  -31.9720 H   0  0  0  0  0  0  0  0  0  0  0  0
   -6.4721   22.0871  -32.9642 H   0  0  0  0  0  0  0  0  0  0  0  0
  1  2  1  0
  2  3  1  0
  3  4  1  0
  4  5  1  0
  3  6  1  0
  6  7  1  0
  7  8  1  0
  8  9  1  0
  9 10  2  0
 10 11  1  0
 11 12  1  0
 12 13  2  0
 13 14  1  0
 14 15  1  0
 15 16  1  0
 16 17  1  0
 17 18  1  0
 18 19  1  0
 19 20  1  0
 20 21  1  0
 21 22  1  0
 22 23  1  0
 23 24  1  0
 21 25  1  0
 25 26  1  0
 14 27  1  0
 27 28  1  0
 28 29  2  0
 29 30  1  0
 29  9  1  0
 27 11  2  0
 26 18  1  0
  1 31  1  0
  1 32  1  0
  1 33  1  0
  2 34  1  0
  2 35  1  0
  4 36  1  0
  4 37  1  0
  5 38  1  0
  5 39  1  0
  5 40  1  0
  6 41  1  0
  6 42  1  0
  7 43  1  0
  7 44  1  0
  8 45  1  0
 10 46  1  0
 12 47  1  0
 13 48  1  0
 15 49  1  0
 15 50  1  0
 16 51  1  0
 16 52  1  0
 17 53  1  0
 17 54  1  0
 19 55  1  0
 19 56  1  0
 20 57  1  0
 20 58  1  0
 22 59  1  0
 22 60  1  0
 23 61  1  0
 23 62  1  0
 24 63  1  0
 25 64  1  0
 25 65  1  0
 26 66  1  0
 26 67  1  0
 28 68  1  0
M  CHG  1  12   1
M  END
>  <UniqueID>  (33) 
32

>  <SMILES>  (33) 
CCN(CC)CCNc1cc2[nH+]cn(CCCN3CCN(CCO)CC3)c2cc1F

>  <Energy>  (33) 
115.85877359984869

>  <Genealogy>  (33) 
CCN(CC)CCNc1cc2[nH+]cn(CCCN3CCN(CCO)CC3)c2cc1F (protonated)
CCN(CC)CCNc1cc2[nH+]cn(CCCN3CCN(CCO)CC3)c2cc1F (3D coordinates assigned)
CCN(CC)CCNc1cc2[nH+]cn(CCCN3CCN(CCO)CC3)c2cc1F (nonaromatic ring conformer: 115.85877359984869 kcal/mol)

>  <smiles>  (33) 
CCN(CC)CCNc1cc2ncn(CCCN3CCN(CCO)CC3)c2cc1F

>  <score_type>  (33) 
oracle

>  <origin>  (33) 
adg

>  <m_score__min__energy>  (33) 
-7.6699999999999999

>  <m_primary>  (33) 
energy

$$$$
33:0
     RDKit          3D

 40 40  0  0  0  0  0  0  0  0999 V2000
   -3.1310   19.5880  -33.4710 C   0  0  0  0  0  0  0  0  0  0  0  0
   -4.2890   18.6090  -33.3000 C   0  0  0  0  0  0  0  0  0  0  0  0
   -5.0030   18.3570  -34.6400 C   0  0  0  0  0  0  0  0  0  0  0  0
   -6.4710   18.3380  -34.4970 N   0  0  0  0  0  0  0  0  0  0  0  0
   -6.8990   17.7430  -33.2190 C   0  0  0  0  0  0  0  0  0  0  0  0
   -7.6210   18.7720  -32.3450 C   0  0  0  0  0  0  0  0  0  0  0  0
   -7.6120   20.0450  -32.9870 O   0  0  0  0  0  0  0  0  0  0  0  0
   -7.0410   21.2070  -32.4470 C   0  0  0  0  0  0  0  0  0  0  0  0
   -5.7060   21.5730  -32.7020 C   0  0  0  0  0  0  0  0  0  0  0  0
   -5.1740   22.7380  -32.1460 C   0  0  0  0  0  0  0  0  0  0  0  0
   -5.9600   23.5620  -31.3240 C   0  0  0  0  0  0  0  0  0  0  0  0
   -5.3690   24.8250  -30.7260 C   0  0  0  0  0  0  0  0  0  0  0  0
   -4.0020   24.5480  -30.0900 C   0  0  0  0  0  0  0  0  0  0  0  0
   -6.3300   25.4610  -29.7150 C   0  0  0  0  0  0  0  0  0  0  0  0
   -7.2940   23.1930  -31.0700 C   0  0  0  0  0  0  0  0  0  0  0  0
   -7.8290   22.0270  -31.6270 C   0  0  0  0  0  0  0  0  0  0  0  0
   -9.4980   21.5990  -31.2850 Cl  0  0  0  0  0  0  0  0  0  0  0  0
   -2.7640   19.8983  -32.4815 H   0  0  0  0  0  0  0  0  0  0  0  0
   -2.3173   19.0998  -34.0274 H   0  0  0  0  0  0  0  0  0  0  0  0
   -3.4770   20.4716  -34.0274 H   0  0  0  0  0  0  0  0  0  0  0  0
   -3.8992   17.6549  -32.9155 H   0  0  0  0  0  0  0  0  0  0  0  0
   -5.0126   19.0431  -32.5944 H   0  0  0  0  0  0  0  0  0  0  0  0
   -4.7264   19.1557  -35.3439 H   0  0  0  0  0  0  0  0  0  0  0  0
   -4.6879   17.3697  -35.0088 H   0  0  0  0  0  0  0  0  0  0  0  0
   -6.8480   19.3100  -34.5870 H   0  0  0  0  0  0  0  0  0  0  0  0
   -6.8600   17.7640  -35.2820 H   0  0  0  0  0  0  0  0  0  0  0  0
   -7.5808   16.9044  -33.4238 H   0  0  0  0  0  0  0  0  0  0  0  0
   -6.0058   17.3932  -32.6805 H   0  0  0  0  0  0  0  0  0  0  0  0
   -8.6610   18.4506  -32.1867 H   0  0  0  0  0  0  0  0  0  0  0  0
   -7.1049   18.8508  -31.3768 H   0  0  0  0  0  0  0  0  0  0  0  0
   -5.0779   20.9372  -33.3433 H   0  0  0  0  0  0  0  0  0  0  0  0
   -4.1294   23.0131  -32.3537 H   0  0  0  0  0  0  0  0  0  0  0  0
   -5.2191   25.5447  -31.5443 H   0  0  0  0  0  0  0  0  0  0  0  0
   -4.0967   24.5672  -28.9943 H   0  0  0  0  0  0  0  0  0  0  0  0
   -3.6425   23.5588  -30.4097 H   0  0  0  0  0  0  0  0  0  0  0  0
   -3.2858   25.3193  -30.4097 H   0  0  0  0  0  0  0  0  0  0  0  0
   -5.9895   25.2357  -28.6936 H   0  0  0  0  0  0  0  0  0  0  0  0
   -6.3493   26.5508  -29.8630 H   0  0  0  0  0  0  0  0  0  0  0  0
   -7.3407   25.0529  -29.8630 H   0  0  0  0  0  0  0  0  0  0  0  0
   -7.9219   23.8276  -30.4273 H   0  0  0  0  0  0  0  0  0  0  0  0
  1  2  1  0
  2  3  1  0
  3  4  1  0
  4  5  1  0
  5  6  1  0
  6  7  1  0
  7  8  1  0
  8  9  2  0
  9 10  1  0
 10 11  2  0
 11 12  1  0
 12 13  1  0
 12 14  1  0
 11 15  1  0
 15 16  2  0
 16 17  1  0
 16  8  1  0
  1 18  1  0
  1 19  1  0
  1 20  1  0
  2 21  1  0
  2 22  1  0
  3 23  1  0
  3 24  1  0
  4 25  1  0
  4 26  1  0
  5 27  1  0
  5 28  1  0
  6 29  1  0
  6 30  1  0
  9 31  1  0
 10 32  1  0
 12 33  1  0
 13 34  1  0
 13 35  1  0
 13 36  1  0
 14 37  1  0
 14 38  1  0
 14 39  1  0
 15 40  1  0
M  CHG  1   4   1
M  END
>  <UniqueID>  (34) 
33

>  <SMILES>  (34) 
CCC[NH2+]CCOc1ccc(C(C)C)cc1Cl

>  <Energy>  (34) 
27.145303425789574

>  <Genealogy>  (34) 
CCC[NH2+]CCOc1ccc(C(C)C)cc1Cl (protonated)
CCC[NH2+]CCOc1ccc(C(C)C)cc1Cl (3D coordinates assigned)
CCC[NH2+]CCOc1ccc(C(C)C)cc1Cl (optimized conformer: 27.145303425789574 kcal/mol)

>  <smiles>  (34) 
CCCNCCOc1ccc(C(C)C)cc1Cl

>  <score_type>  (34) 
oracle

>  <origin>  (34) 
adg

>  <m_score__min__energy>  (34) 
-6.3700000000000001

>  <m_primary>  (34) 
energy

$$$$
34:0
     RDKit          3D

 32 34  0  0  0  0  0  0  0  0999 V2000
   -5.0820   13.9030  -34.2030 C   0  0  0  0  0  0  0  0  0  0  0  0
   -4.9870   15.2030  -34.7730 O   0  0  0  0  0  0  0  0  0  0  0  0
   -5.5430   16.3590  -34.2060 C   0  0  0  0  0  0  0  0  0  0  0  0
   -6.4400   16.3130  -33.1250 C   0  0  0  0  0  0  0  0  0  0  0  0
   -6.9690   17.4940  -32.5940 C   0  0  0  0  0  0  0  0  0  0  0  0
   -6.6090   18.7430  -33.1310 C   0  0  0  0  0  0  0  0  0  0  0  0
   -7.1680   19.9990  -32.5710 C   0  0  0  0  0  0  0  0  0  0  0  0
   -8.5380   20.2340  -32.4370 C   0  0  0  0  0  0  0  0  0  0  0  0
   -8.7360   21.7590  -31.7640 S   0  0  0  0  0  0  0  0  0  0  0  0
   -7.0850   22.0770  -31.6630 C   0  0  0  0  0  0  0  0  0  0  0  0
   -6.4870   23.3230  -31.1210 C   0  0  0  0  0  0  0  0  0  0  0  0
   -7.2120   24.1370  -30.2330 C   0  0  0  0  0  0  0  0  0  0  0  0
   -6.6430   25.3080  -29.7280 C   0  0  0  0  0  0  0  0  0  0  0  0
   -5.3530   25.6640  -30.1180 C   0  0  0  0  0  0  0  0  0  0  0  0
   -4.6620   24.8770  -30.9820 N   0  0  0  0  0  0  0  0  0  0  0  0
   -5.1910   23.7300  -31.4870 C   0  0  0  0  0  0  0  0  0  0  0  0
   -6.3770   21.0230  -32.1370 N   0  0  0  0  0  0  0  0  0  0  0  0
   -5.7130   18.7830  -34.2140 C   0  0  0  0  0  0  0  0  0  0  0  0
   -5.1880   17.6000  -34.7430 C   0  0  0  0  0  0  0  0  0  0  0  0
   -5.0762   13.9824  -33.1059 H   0  0  0  0  0  0  0  0  0  0  0  0
   -6.0174   13.4262  -34.5312 H   0  0  0  0  0  0  0  0  0  0  0  0
   -4.2259   13.2953  -34.5312 H   0  0  0  0  0  0  0  0  0  0  0  0
   -6.7277   15.3427  -32.6940 H   0  0  0  0  0  0  0  0  0  0  0  0
   -7.6723   17.4455  -31.7496 H   0  0  0  0  0  0  0  0  0  0  0  0
   -9.3445   19.5424  -32.7220 H   0  0  0  0  0  0  0  0  0  0  0  0
   -8.2313   23.8503  -29.9349 H   0  0  0  0  0  0  0  0  0  0  0  0
   -7.2072   25.9432  -29.0293 H   0  0  0  0  0  0  0  0  0  0  0  0
   -4.8944   26.5835  -29.7254 H   0  0  0  0  0  0  0  0  0  0  0  0
   -4.6021   23.1173  -32.1854 H   0  0  0  0  0  0  0  0  0  0  0  0
   -5.3350   20.9760  -32.1270 H   0  0  0  0  0  0  0  0  0  0  0  0
   -5.4232   19.7514  -34.6479 H   0  0  0  0  0  0  0  0  0  0  0  0
   -4.4883   17.6462  -35.5905 H   0  0  0  0  0  0  0  0  0  0  0  0
  1  2  1  0
  2  3  1  0
  3  4  2  0
  4  5  1  0
  5  6  2  0
  6  7  1  0
  7  8  2  0
  8  9  1  0
  9 10  1  0
 10 11  1  0
 11 12  2  0
 12 13  1  0
 13 14  2  0
 14 15  1  0
 15 16  2  0
 10 17  2  0
  6 18  1  0
 18 19  2  0
 19  3  1  0
 17  7  1  0
 16 11  1  0
  1 20  1  0
  1 21  1  0
  1 22  1  0
  4 23  1  0
  5 24  1  0
  8 25  1  0
 12 26  1  0
 13 27  1  0
 14 28  1  0
 16 29  1  0
 17 30  1  0
 18 31  1  0
 19 32  1  0
M  CHG  1  17   1
M  END
>  <UniqueID>  (35) 
34

>  <SMILES>  (35) 
COc1ccc(-c2csc(-c3cccnc3)[nH+]2)cc1

>  <Energy>  (35) 
69.78966622459725

>  <Genealogy>  (35) 
COc1ccc(-c2csc(-c3cccnc3)[nH+]2)cc1 (protonated)
COc1ccc(-c2csc(-c3cccnc3)[nH+]2)cc1 (3D coordinates assigned)
COc1ccc(-c2csc(-c3cccnc3)[nH+]2)cc1 (optimized conformer: 69.78966622459725 kcal/mol)

>  <smiles>  (35) 
COc1ccc(-c2csc(-c3cccnc3)n2)cc1

>  <score_type>  (35) 
oracle

>  <origin>  (35) 
adg

>  <m_score__min__energy>  (35) 
-6.9100000000000001

>  <m_primary>  (35) 
energy

$$$$
35:0
     RDKit          3D

 36 37  0  0  0  0  0  0  0  0999 V2000
   -3.2920   22.8330  -27.9240 C   0  0  0  0  0  0  0  0  0  0  0  0
   -4.0640   24.1490  -28.0000 C   0  0  0  0  0  0  0  0  0  0  0  0
   -5.2690   24.0030  -28.8310 N   0  0  0  0  0  0  0  0  0  0  0  0
   -5.7510   25.2980  -29.3430 C   0  0  0  0  0  0  0  0  0  0  0  0
   -5.4820   25.5080  -30.8440 C   0  0  0  0  0  0  0  0  0  0  0  0
   -5.3120   24.2590  -31.5210 O   0  0  0  0  0  0  0  0  0  0  0  0
   -6.2640   23.2290  -31.6620 C   0  0  0  0  0  0  0  0  0  0  0  0
   -7.6370   23.4420  -31.4400 C   0  0  0  0  0  0  0  0  0  0  0  0
   -8.5250   22.4290  -31.5880 N   0  0  0  0  0  0  0  0  0  0  0  0
   -8.1410   21.1800  -31.9490 C   0  0  0  0  0  0  0  0  0  0  0  0
   -9.1090   20.1780  -32.0880 C   0  0  0  0  0  0  0  0  0  0  0  0
   -8.7310   18.8860  -32.4560 C   0  0  0  0  0  0  0  0  0  0  0  0
   -7.3880   18.5890  -32.6890 C   0  0  0  0  0  0  0  0  0  0  0  0
   -6.4130   19.5820  -32.5530 C   0  0  0  0  0  0  0  0  0  0  0  0
   -6.7750   20.8950  -32.1800 C   0  0  0  0  0  0  0  0  0  0  0  0
   -5.8240   21.9360  -32.0300 C   0  0  0  0  0  0  0  0  0  0  0  0
   -4.3530   21.6780  -32.2710 C   0  0  0  0  0  0  0  0  0  0  0  0
   -3.1328   22.5616  -26.8700 H   0  0  0  0  0  0  0  0  0  0  0  0
   -3.8683   22.0404  -28.4237 H   0  0  0  0  0  0  0  0  0  0  0  0
   -2.3190   22.9493  -28.4237 H   0  0  0  0  0  0  0  0  0  0  0  0
   -4.3609   24.4516  -26.9850 H   0  0  0  0  0  0  0  0  0  0  0  0
   -3.4144   24.9120  -28.4536 H   0  0  0  0  0  0  0  0  0  0  0  0
   -5.0960   23.3400  -29.6190 H   0  0  0  0  0  0  0  0  0  0  0  0
   -6.0280   23.5920  -28.2370 H   0  0  0  0  0  0  0  0  0  0  0  0
   -6.8362   25.3566  -29.1730 H   0  0  0  0  0  0  0  0  0  0  0  0
   -5.1992   26.0825  -28.8044 H   0  0  0  0  0  0  0  0  0  0  0  0
   -6.3332   26.0440  -31.2891 H   0  0  0  0  0  0  0  0  0  0  0  0
   -4.5555   26.0909  -30.9526 H   0  0  0  0  0  0  0  0  0  0  0  0
   -7.9928   24.4398  -31.1436 H   0  0  0  0  0  0  0  0  0  0  0  0
  -10.1690   20.4095  -31.9069 H   0  0  0  0  0  0  0  0  0  0  0  0
   -9.4935   18.1003  -32.5625 H   0  0  0  0  0  0  0  0  0  0  0  0
   -7.0949   17.5697  -32.9808 H   0  0  0  0  0  0  0  0  0  0  0  0
   -5.3563   19.3386  -32.7379 H   0  0  0  0  0  0  0  0  0  0  0  0
   -3.8337   21.5869  -31.3056 H   0  0  0  0  0  0  0  0  0  0  0  0
   -4.2330   20.7451  -32.8413 H   0  0  0  0  0  0  0  0  0  0  0  0
   -3.9227   22.5144  -32.8413 H   0  0  0  0  0  0  0  0  0  0  0  0
  1  2  1  0
  2  3  1  0
  3  4  1  0
  4  5  1  0
  5  6  1  0
  6  7  1  0
  7  8  2  0
  8  9  1  0
  9 10  2  0
 10 11  1  0
 11 12  2  0
 12 13  1  0
 13 14  2  0
 14 15  1  0
 15 16  2  0
 16 17  1  0
 16  7  1  0
 15 10  1  0
  1 18  1  0
  1 19  1  0
  1 20  1  0
  2 21  1  0
  2 22  1  0
  3 23  1  0
  3 24  1  0
  4 25  1  0
  4 26  1  0
  5 27  1  0
  5 28  1  0
  8 29  1  0
 11 30  1  0
 12 31  1  0
 13 32  1  0
 14 33  1  0
 17 34  1  0
 17 35  1  0
 17 36  1  0
M  CHG  1   3   1
M  END
>  <UniqueID>  (36) 
35

>  <SMILES>  (36) 
CC[NH2+]CCOc1cnc2ccccc2c1C

>  <Energy>  (36) 
40.81470809086892

>  <Genealogy>  (36) 
CC[NH2+]CCOc1cnc2ccccc2c1C (protonated)
CC[NH2+]CCOc1cnc2ccccc2c1C (3D coordinates assigned)
CC[NH2+]CCOc1cnc2ccccc2c1C (optimized conformer: 40.81470809086892 kcal/mol)

>  <smiles>  (36) 
CCNCCOc1cnc2ccccc2c1C

>  <score_type>  (36) 
oracle

>  <origin>  (36) 
adg

>  <m_score__min__energy>  (36) 
-6.5800000000000001

>  <m_primary>  (36) 
energy

$$$$
36:0
     RDKit          3D

 47 49  0  0  0  0  0  0  0  0999 V2000
   -4.9160   25.0940  -30.1540 C   0  0  0  0  0  0  0  0  0  0  0  0
   -3.5080   25.2190  -29.9900 O   0  0  0  0  0  0  0  0  0  0  0  0
   -2.6330   24.1450  -29.7550 C   0  0  0  0  0  0  0  0  0  0  0  0
   -2.8610   22.8680  -30.3050 C   0  0  0  0  0  0  0  0  0  0  0  0
   -1.9510   21.8200  -30.0920 C   0  0  0  0  0  0  0  0  0  0  0  0
   -2.2200   20.4460  -30.6730 C   0  0  0  0  0  0  0  0  0  0  0  0
   -2.2750   20.3640  -32.1600 N   0  0  0  0  0  0  0  0  0  0  0  0
   -2.9240   19.1620  -32.7150 C   0  0  0  0  0  0  0  0  0  0  0  0
   -4.4510   19.1810  -32.6010 C   0  0  0  0  0  0  0  0  0  0  0  0
   -5.0300   20.5340  -32.6480 N   0  0  0  0  0  0  0  0  0  0  0  0
   -6.4660   20.6960  -32.4740 C   0  0  0  0  0  0  0  0  0  0  0  0
   -7.0150   21.9140  -32.0140 C   0  0  0  0  0  0  0  0  0  0  0  0
   -8.3970   22.0710  -31.8810 C   0  0  0  0  0  0  0  0  0  0  0  0
   -9.2570   21.0190  -32.1930 C   0  0  0  0  0  0  0  0  0  0  0  0
  -10.5970   21.1770  -32.0630 F   0  0  0  0  0  0  0  0  0  0  0  0
   -8.7360   19.8040  -32.6350 C   0  0  0  0  0  0  0  0  0  0  0  0
   -7.3550   19.6390  -32.7740 C   0  0  0  0  0  0  0  0  0  0  0  0
   -4.2360   21.6930  -33.1010 C   0  0  0  0  0  0  0  0  0  0  0  0
   -2.7160   21.5940  -32.8460 C   0  0  0  0  0  0  0  0  0  0  0  0
   -0.8530   22.0360  -29.2450 C   0  0  0  0  0  0  0  0  0  0  0  0
   -0.6160   23.2970  -28.7000 C   0  0  0  0  0  0  0  0  0  0  0  0
   -1.4920   24.3600  -28.9590 C   0  0  0  0  0  0  0  0  0  0  0  0
   -1.2180   25.7220  -28.3860 C   0  0  0  0  0  0  0  0  0  0  0  0
   -5.3978   25.0512  -29.1661 H   0  0  0  0  0  0  0  0  0  0  0  0
   -5.2987   25.9617  -30.7113 H   0  0  0  0  0  0  0  0  0  0  0  0
   -5.1398   24.1724  -30.7113 H   0  0  0  0  0  0  0  0  0  0  0  0
   -3.7631   22.6898  -30.9087 H   0  0  0  0  0  0  0  0  0  0  0  0
   -1.4213   19.7727  -30.3283 H   0  0  0  0  0  0  0  0  0  0  0  0
   -3.2254   20.1683  -30.3236 H   0  0  0  0  0  0  0  0  0  0  0  0
   -1.2670   20.2560  -32.4320 H   0  0  0  0  0  0  0  0  0  0  0  0
   -2.6558   19.0819  -33.7788 H   0  0  0  0  0  0  0  0  0  0  0  0
   -2.5676   18.3030  -32.1275 H   0  0  0  0  0  0  0  0  0  0  0  0
   -4.8689   18.5951  -33.4329 H   0  0  0  0  0  0  0  0  0  0  0  0
   -4.7060   18.7555  -31.6192 H   0  0  0  0  0  0  0  0  0  0  0  0
   -6.3462   22.7488  -31.7575 H   0  0  0  0  0  0  0  0  0  0  0  0
   -8.8081   23.0285  -31.5287 H   0  0  0  0  0  0  0  0  0  0  0  0
   -9.4142   18.9720  -32.8753 H   0  0  0  0  0  0  0  0  0  0  0  0
   -6.9552   18.6748  -33.1211 H   0  0  0  0  0  0  0  0  0  0  0  0
   -4.3918   21.8090  -34.1837 H   0  0  0  0  0  0  0  0  0  0  0  0
   -4.5876   22.5514  -32.5098 H   0  0  0  0  0  0  0  0  0  0  0  0
   -2.2034   21.6445  -33.8180 H   0  0  0  0  0  0  0  0  0  0  0  0
   -2.4633   22.4271  -32.1736 H   0  0  0  0  0  0  0  0  0  0  0  0
   -0.1738   21.2034  -29.0093 H   0  0  0  0  0  0  0  0  0  0  0  0
    0.2652   23.4590  -28.0618 H   0  0  0  0  0  0  0  0  0  0  0  0
   -1.2291   25.6666  -27.2874 H   0  0  0  0  0  0  0  0  0  0  0  0
   -0.2316   26.0710  -28.7256 H   0  0  0  0  0  0  0  0  0  0  0  0
   -1.9927   26.4253  -28.7256 H   0  0  0  0  0  0  0  0  0  0  0  0
  1  2  1  0
  2  3  1  0
  3  4  2  0
  4  5  1  0
  5  6  1  0
  6  7  1  0
  7  8  1  0
  8  9  1  0
  9 10  1  0
 10 11  1  0
 11 12  2  0
 12 13  1  0
 13 14  2  0
 14 15  1  0
 14 16  1  0
 16 17  2  0
 10 18  1  0
 18 19  1  0
  5 20  2  0
 20 21  1  0
 21 22  2  0
 22 23  1  0
 22  3  1  0
 19  7  1  0
 17 11  1  0
  1 24  1  0
  1 25  1  0
  1 26  1  0
  4 27  1  0
  6 28  1  0
  6 29  1  0
  7 30  1  0
  8 31  1  0
  8 32  1  0
  9 33  1  0
  9 34  1  0
 12 35  1  0
 13 36  1  0
 16 37  1  0
 17 38  1  0
 18 39  1  0
 18 40  1  0
 19 41  1  0
 19 42  1  0
 20 43  1  0
 21 44  1  0
 23 45  1  0
 23 46  1  0
 23 47  1  0
M  CHG  1   7   1
M  END
>  <UniqueID>  (37) 
36

>  <SMILES>  (37) 
COc1cc(C[NH+]2CCN(c3ccc(F)cc3)CC2)ccc1C

>  <Energy>  (37) 
64.3115692558175

>  <Genealogy>  (37) 
COc1cc(C[NH+]2CCN(c3ccc(F)cc3)CC2)ccc1C (protonated)
COc1cc(C[NH+]2CCN(c3ccc(F)cc3)CC2)ccc1C (3D coordinates assigned)
COc1cc(C[NH+]2CCN(c3ccc(F)cc3)CC2)ccc1C (nonaromatic ring conformer: 64.3115692558175 kcal/mol)

>  <smiles>  (37) 
COc1cc(CN2CCN(c3ccc(F)cc3)CC2)ccc1C

>  <score_type>  (37) 
oracle

>  <origin>  (37) 
adg

>  <m_score__min__energy>  (37) 
-7.2000000000000002

>  <m_primary>  (37) 
energy

$$$$
