0:0
     RDKit          3D

 32 35  0  0  0  0  0  0  0  0999 V2000
   -2.1750   24.4070  -28.4820 C   0  0  0  0  0  0  0  0  0  0  0  0
   -2.7140   24.7760  -29.7450 O   0  0  0  0  0  0  0  0  0  0  0  0
   -3.6930   24.0200  -30.3940 C   0  0  0  0  0  0  0  0  0  0  0  0
   -3.3640   22.9530  -31.1840 N   0  0  0  0  0  0  0  0  0  0  0  0
   -4.3080   22.1930  -31.8260 C   0  0  0  0  0  0  0  0  0  0  0  0
   -3.8650   21.0780  -32.6850 C   0  0  0  0  0  0  0  0  0  0  0  0
   -2.5820   20.9060  -33.1780 C   0  0  0  0  0  0  0  0  0  0  0  0
   -2.5250   19.7880  -33.9370 N   0  0  0  0  0  0  0  0  0  0  0  0
   -3.7800   19.2990  -33.8750 C   0  0  0  0  0  0  0  0  0  0  0  0
   -4.2210   18.1230  -34.4810 C   0  0  0  0  0  0  0  0  0  0  0  0
   -5.5530   17.7380  -34.2680 C   0  0  0  0  0  0  0  0  0  0  0  0
   -6.3960   18.5160  -33.4530 C   0  0  0  0  0  0  0  0  0  0  0  0
   -5.8990   19.6890  -32.8660 C   0  0  0  0  0  0  0  0  0  0  0  0
   -4.6110   20.0460  -33.1240 N   0  0  0  0  0  0  0  0  0  0  0  0
   -5.6760   22.5250  -31.7080 C   0  0  0  0  0  0  0  0  0  0  0  0
   -6.0000   23.6090  -30.8980 C   0  0  0  0  0  0  0  0  0  0  0  0
   -7.2200   24.1700  -30.5910 C   0  0  0  0  0  0  0  0  0  0  0  0
   -6.9250   25.2380  -29.7480 C   0  0  0  0  0  0  0  0  0  0  0  0
   -5.5910   25.3370  -29.5460 N   0  0  0  0  0  0  0  0  0  0  0  0
   -5.0420   24.3360  -30.2550 C   0  0  0  0  0  0  0  0  0  0  0  0
   -2.7961   24.8322  -27.6799 H   0  0  0  0  0  0  0  0  0  0  0  0
   -2.1633   23.3105  -28.3945 H   0  0  0  0  0  0  0  0  0  0  0  0
   -1.1486   24.7928  -28.3945 H   0  0  0  0  0  0  0  0  0  0  0  0
   -1.7346   21.5793  -32.9813 H   0  0  0  0  0  0  0  0  0  0  0  0
   -3.5471   17.5177  -35.1050 H   0  0  0  0  0  0  0  0  0  0  0  0
   -5.9405   16.8233  -34.7405 H   0  0  0  0  0  0  0  0  0  0  0  0
   -7.4369   18.2066  -33.2776 H   0  0  0  0  0  0  0  0  0  0  0  0
   -6.5345   20.3053  -32.2131 H   0  0  0  0  0  0  0  0  0  0  0  0
   -6.4526   21.9506  -32.2344 H   0  0  0  0  0  0  0  0  0  0  0  0
   -8.2122   23.8447  -30.9369 H   0  0  0  0  0  0  0  0  0  0  0  0
   -7.6751   25.9103  -29.3060 H   0  0  0  0  0  0  0  0  0  0  0  0
   -5.0960   26.0490  -28.9650 H   0  0  0  0  0  0  0  0  0  0  0  0
  1  2  1  0
  2  3  1  0
  3  4  2  0
  4  5  1  0
  5  6  1  0
  6  7  2  0
  7  8  1  0
  8  9  2  0
  9 10  1  0
 10 11  2  0
 11 12  1  0
 12 13  2  0
 13 14  1  0
  5 15  2  0
 15 16  1  0
 16 17  1  0
 17 18  2  0
 18 19  1  0
 19 20  1  0
 20  3  1  0
 14  6  1  0
 20 16  2  0
 14  9  1  0
  1 21  1  0
  1 22  1  0
  1 23  1  0
  7 24  1  0
 10 25  1  0
 11 26  1  0
 12 27  1  0
 13 28  1  0
 15 29  1  0
 17 30  1  0
 18 31  1  0
 19 32  1  0
M  END
>  <UniqueID>  (1) 
1

>  <SMILES>  (1) 
COc1nc(-c2cnc3ccccn23)cc2cc[nH]c12

>  <Energy>  (1) 
107.59275722827672

>  <Genealogy>  (1) 
COc1nc(-c2cnc3ccccn23)cc2cc[nH]c12 (3D coordinates assigned)
COc1nc(-c2cnc3ccccn23)cc2cc[nH]c12 (optimized conformer: 107.59275722827672 kcal/mol)

>  <smiles>  (1) 
COc1nc(-c2cnc3ccccn23)cc2cc[nH]c12

>  <score_type>  (1) 
oracle

>  <origin>  (1) 
adg

>  <m_score__min__energy>  (1) 
-7.5899999999999999

>  <m_primary>  (1) 
energy

$$$$
1:0
     RDKit          3D

 42 44  0  0  0  0  0  0  0  0999 V2000
   -6.1520   25.3360  -29.3670 C   0  0  0  0  0  0  0  0  0  0  0  0
   -5.7560   25.3010  -30.8390 C   0  0  0  0  0  0  0  0  0  0  0  0
   -5.7560   23.9200  -31.3340 N   0  0  0  0  0  0  0  0  0  0  0  0
   -4.5770   23.3440  -31.5800 N   0  0  0  0  0  0  0  0  0  0  0  0
   -4.4560   22.0640  -32.0180 C   0  0  0  0  0  0  0  0  0  0  0  0
   -3.0950   21.5580  -32.2970 C   0  0  0  0  0  0  0  0  0  0  0  0
   -2.7420   21.1220  -33.5830 C   0  0  0  0  0  0  0  0  0  0  0  0
   -1.4440   20.6780  -33.8460 C   0  0  0  0  0  0  0  0  0  0  0  0
   -0.4700   20.6780  -32.8300 C   0  0  0  0  0  0  0  0  0  0  0  0
    0.9450   20.1990  -33.1010 C   0  0  0  0  0  0  0  0  0  0  0  0
    1.4450   20.6950  -34.4630 C   0  0  0  0  0  0  0  0  0  0  0  0
    1.0400   18.6710  -33.0010 C   0  0  0  0  0  0  0  0  0  0  0  0
   -0.8220   21.1380  -31.5500 C   0  0  0  0  0  0  0  0  0  0  0  0
   -2.1220   21.5810  -31.2880 C   0  0  0  0  0  0  0  0  0  0  0  0
   -5.6200   21.2860  -32.1930 C   0  0  0  0  0  0  0  0  0  0  0  0
   -5.5730   19.9280  -32.5730 C   0  0  0  0  0  0  0  0  0  0  0  0
   -6.7510   19.1960  -32.7360 C   0  0  0  0  0  0  0  0  0  0  0  0
   -7.9880   19.7990  -32.5130 C   0  0  0  0  0  0  0  0  0  0  0  0
   -8.0550   21.1340  -32.1130 C   0  0  0  0  0  0  0  0  0  0  0  0
   -6.8770   21.8860  -31.9400 C   0  0  0  0  0  0  0  0  0  0  0  0
   -6.9220   23.2220  -31.5040 C   0  0  0  0  0  0  0  0  0  0  0  0
   -8.0320   23.7740  -31.2620 O   0  0  0  0  0  0  0  0  0  0  0  0
   -5.2499   25.2563  -28.7426 H   0  0  0  0  0  0  0  0  0  0  0  0
   -6.6668   26.2831  -29.1482 H   0  0  0  0  0  0  0  0  0  0  0  0
   -6.8250   24.4938  -29.1482 H   0  0  0  0  0  0  0  0  0  0  0  0
   -6.4746   25.8955  -31.4223 H   0  0  0  0  0  0  0  0  0  0  0  0
   -4.7446   25.7197  -30.9473 H   0  0  0  0  0  0  0  0  0  0  0  0
   -3.4913   21.1299  -34.3883 H   0  0  0  0  0  0  0  0  0  0  0  0
   -1.1812   20.3258  -34.8544 H   0  0  0  0  0  0  0  0  0  0  0  0
    1.5983   20.6277  -32.3268 H   0  0  0  0  0  0  0  0  0  0  0  0
    2.2186   21.4624  -34.3123 H   0  0  0  0  0  0  0  0  0  0  0  0
    1.8701   19.8516  -35.0269 H   0  0  0  0  0  0  0  0  0  0  0  0
    0.6050   21.1269  -35.0269 H   0  0  0  0  0  0  0  0  0  0  0  0
    1.0585   18.3733  -31.9422 H   0  0  0  0  0  0  0  0  0  0  0  0
    0.1684   18.2163  -33.4945 H   0  0  0  0  0  0  0  0  0  0  0  0
    1.9612   18.3278  -33.4945 H   0  0  0  0  0  0  0  0  0  0  0  0
   -0.0692   21.1497  -30.7480 H   0  0  0  0  0  0  0  0  0  0  0  0
   -2.3827   21.9495  -30.2849 H   0  0  0  0  0  0  0  0  0  0  0  0
   -4.6008   19.4421  -32.7422 H   0  0  0  0  0  0  0  0  0  0  0  0
   -6.7027   18.1403  -33.0413 H   0  0  0  0  0  0  0  0  0  0  0  0
   -8.9134   19.2209  -32.6527 H   0  0  0  0  0  0  0  0  0  0  0  0
   -9.0339   21.6019  -31.9317 H   0  0  0  0  0  0  0  0  0  0  0  0
  1  2  1  0
  2  3  1  0
  3  4  1  0
  4  5  2  0
  5  6  1  0
  6  7  2  0
  7  8  1  0
  8  9  2  0
  9 10  1  0
 10 11  1  0
 10 12  1  0
  9 13  1  0
 13 14  2  0
  5 15  1  0
 15 16  2  0
 16 17  1  0
 17 18  2  0
 18 19  1  0
 19 20  2  0
 20 21  1  0
 21 22  2  0
 21  3  1  0
 14  6  1  0
 20 15  1  0
  1 23  1  0
  1 24  1  0
  1 25  1  0
  2 26  1  0
  2 27  1  0
  7 28  1  0
  8 29  1  0
 10 30  1  0
 11 31  1  0
 11 32  1  0
 11 33  1  0
 12 34  1  0
 12 35  1  0
 12 36  1  0
 13 37  1  0
 14 38  1  0
 16 39  1  0
 17 40  1  0
 18 41  1  0
 19 42  1  0
M  END
>  <UniqueID>  (2) 
2

>  <SMILES>  (2) 
CCn1nc(-c2ccc(C(C)C)cc2)c2ccccc2c1=O

>  <Energy>  (2) 
51.74217128145878

>  <Genealogy>  (2) 
CCn1nc(-c2ccc(C(C)C)cc2)c2ccccc2c1=O (3D coordinates assigned)
CCn1nc(-c2ccc(C(C)C)cc2)c2ccccc2c1=O (optimized conformer: 51.74217128145878 kcal/mol)

>  <smiles>  (2) 
CCn1nc(-c2ccc(C(C)C)cc2)c2ccccc2c1=O

>  <score_type>  (2) 
oracle

>  <origin>  (2) 
adg

>  <m_score__min__energy>  (2) 
-8.0299999999999994

>  <m_primary>  (2) 
energy

$$$$
2:0
     RDKit          3D

 27 28  0  0  0  0  0  0  0  0999 V2000
   -8.3805   17.7305  -32.5432 H   0  0  0  0  0  0  0  0  0  0  0  0
   -8.1880   18.8050  -32.4080 C   0  0  0  0  0  0  0  0  0  0  0  0
   -9.0970   19.7010  -32.1010 O   0  0  0  0  0  0  0  0  0  0  0  0
   -8.5220   20.8800  -32.0190 C   0  0  0  0  0  0  0  0  0  0  0  0
   -9.2730   22.1350  -31.7110 C   0  0  0  0  0  0  0  0  0  0  0  0
   -9.3475   22.2595  -30.6206 H   0  0  0  0  0  0  0  0  0  0  0  0
   -8.7414   22.9958  -32.1429 H   0  0  0  0  0  0  0  0  0  0  0  0
  -10.2828   22.0734  -32.1429 H   0  0  0  0  0  0  0  0  0  0  0  0
   -7.1620   20.7500  -32.2650 C   0  0  0  0  0  0  0  0  0  0  0  0
   -6.1250   21.8010  -32.2970 C   0  0  0  0  0  0  0  0  0  0  0  0
   -5.1080   21.6350  -33.0200 O   0  0  0  0  0  0  0  0  0  0  0  0
   -6.2560   23.0220  -31.5590 N   0  0  0  0  0  0  0  0  0  0  0  0
   -5.2990   23.6130  -30.9080 C   0  0  0  0  0  0  0  0  0  0  0  0
   -4.8780   24.8570  -31.2180 N   0  0  0  0  0  0  0  0  0  0  0  0
   -3.8690   25.2720  -30.4540 N   0  0  0  0  0  0  0  0  0  0  0  0
   -3.4840   24.3610  -29.5310 C   0  0  0  0  0  0  0  0  0  0  0  0
   -2.3480   24.5720  -28.5830 C   0  0  0  0  0  0  0  0  0  0  0  0
   -1.6960   23.6861  -28.5961 H   0  0  0  0  0  0  0  0  0  0  0  0
   -2.7522   24.7298  -27.5722 H   0  0  0  0  0  0  0  0  0  0  0  0
   -1.5960   25.7090  -28.9580 O   0  0  0  0  0  0  0  0  0  0  0  0
   -0.8490   26.1850  -27.8600 C   0  0  0  0  0  0  0  0  0  0  0  0
   -1.3356   25.8749  -26.9235 H   0  0  0  0  0  0  0  0  0  0  0  0
    0.1682   25.7682  -27.9002 H   0  0  0  0  0  0  0  0  0  0  0  0
   -0.7971   27.2830  -27.9002 H   0  0  0  0  0  0  0  0  0  0  0  0
   -4.3950   22.9480  -29.6420 S   0  0  0  0  0  0  0  0  0  0  0  0
   -6.9540   19.4120  -32.5360 C   0  0  0  0  0  0  0  0  0  0  0  0
   -6.0015   18.9290  -32.7996 H   0  0  0  0  0  0  0  0  0  0  0  0
  1  2  1  0
  2  3  1  0
  3  4  1  0
  4  5  1  0
  5  6  1  0
  5  7  1  0
  5  8  1  0
  4  9  2  0
  9 10  1  0
 10 11  2  0
 10 12  1  0
 12 13  2  0
 13 14  1  0
 14 15  1  0
 15 16  2  0
 16 17  1  0
 17 18  1  0
 17 19  1  0
 17 20  1  0
 20 21  1  0
 21 22  1  0
 21 23  1  0
 21 24  1  0
 16 25  1  0
  9 26  1  0
 26 27  1  0
 26  2  2  0
 25 13  1  0
M  CHG  1  14  -1
M  END
>  <UniqueID>  (3) 
3

>  <SMILES>  (3) 
COCc1n[n-]/c(=N/C(=O)c2ccoc2C)s1

>  <Energy>  (3) 
95.40208709404034

>  <Genealogy>  (3) 
COCc1n[n-]c(=NC(=O)c2ccoc2C)s1 (protonated)
COCc1n[n-]/c(=N/C(=O)c2ccoc2C)s1 (cis-trans isomerization)
COCc1n[n-]/c(=N/C(=O)c2ccoc2C)s1 (3D coordinates assigned)
COCc1n[n-]/c(=N/C(=O)c2ccoc2C)s1 (optimized conformer: 95.40208709404034 kcal/mol)

>  <smiles>  (3) 
COCc1n[nH]c(=NC(=O)c2ccoc2C)s1

>  <score_type>  (3) 
oracle

>  <origin>  (3) 
adg

>  <m_score__min__energy>  (3) 
-7.6200000000000001

>  <m_primary>  (3) 
energy

$$$$
3:0
     RDKit          3D

 45 48  0  0  0  0  0  0  0  0999 V2000
   -1.9340   21.0990  -27.0910 C   0  0  0  0  0  0  0  0  0  0  0  0
   -1.9010   22.5620  -27.4200 C   0  0  0  0  0  0  0  0  0  0  0  0
   -1.1980   23.4560  -26.5960 C   0  0  0  0  0  0  0  0  0  0  0  0
   -1.1530   24.8170  -26.9120 C   0  0  0  0  0  0  0  0  0  0  0  0
   -1.7900   25.2910  -28.0620 C   0  0  0  0  0  0  0  0  0  0  0  0
   -2.4490   24.4030  -28.9200 C   0  0  0  0  0  0  0  0  0  0  0  0
   -3.0900   24.9180  -30.0940 N   0  0  0  0  0  0  0  0  0  0  0  0
   -4.4720   24.7550  -30.4440 C   0  0  0  0  0  0  0  0  0  0  0  0
   -5.0060   25.5960  -31.2150 O   0  0  0  0  0  0  0  0  0  0  0  0
   -5.2490   23.5240  -30.0610 C   0  0  0  0  0  0  0  0  0  0  0  0
   -5.1330   22.5170  -31.1180 N   0  0  0  0  0  0  0  0  0  0  0  0
   -3.9930   21.9670  -31.6050 C   0  0  0  0  0  0  0  0  0  0  0  0
   -2.8400   22.3430  -31.2590 O   0  0  0  0  0  0  0  0  0  0  0  0
   -4.2180   20.9760  -32.5060 N   0  0  0  0  0  0  0  0  0  0  0  0
   -3.2420   20.1850  -33.2080 C   0  0  0  0  0  0  0  0  0  0  0  0
   -3.4640   18.8140  -33.4230 C   0  0  0  0  0  0  0  0  0  0  0  0
   -2.5130   18.0430  -34.0980 C   0  0  0  0  0  0  0  0  0  0  0  0
   -1.3330   18.6320  -34.5590 C   0  0  0  0  0  0  0  0  0  0  0  0
   -1.0990   19.9920  -34.3400 C   0  0  0  0  0  0  0  0  0  0  0  0
   -2.0480   20.7660  -33.6640 C   0  0  0  0  0  0  0  0  0  0  0  0
   -5.5670   20.9000  -32.5710 C   0  0  0  0  0  0  0  0  0  0  0  0
   -6.3730   20.0080  -33.2770 C   0  0  0  0  0  0  0  0  0  0  0  0
   -7.7280   20.1110  -33.1330 N   0  0  0  0  0  0  0  0  0  0  0  0
   -8.3000   21.0500  -32.3140 C   0  0  0  0  0  0  0  0  0  0  0  0
   -7.5000   21.9420  -31.5790 C   0  0  0  0  0  0  0  0  0  0  0  0
   -6.1190   21.8280  -31.7310 C   0  0  0  0  0  0  0  0  0  0  0  0
   -2.5220   23.0400  -28.5850 C   0  0  0  0  0  0  0  0  0  0  0  0
   -1.9369   20.9688  -25.9987 H   0  0  0  0  0  0  0  0  0  0  0  0
   -2.8425   20.6479  -27.5165 H   0  0  0  0  0  0  0  0  0  0  0  0
   -1.0467   20.6074  -27.5165 H   0  0  0  0  0  0  0  0  0  0  0  0
   -0.6811   23.0841  -25.6991 H   0  0  0  0  0  0  0  0  0  0  0  0
   -0.6153   25.5159  -26.2544 H   0  0  0  0  0  0  0  0  0  0  0  0
   -1.7734   26.3662  -28.2938 H   0  0  0  0  0  0  0  0  0  0  0  0
   -4.8474   23.1159  -29.1218 H   0  0  0  0  0  0  0  0  0  0  0  0
   -6.3079   23.7895  -29.9261 H   0  0  0  0  0  0  0  0  0  0  0  0
   -4.3901   18.3455  -33.0586 H   0  0  0  0  0  0  0  0  0  0  0  0
   -2.6941   16.9711  -34.2664 H   0  0  0  0  0  0  0  0  0  0  0  0
   -0.5881   18.0250  -35.0944 H   0  0  0  0  0  0  0  0  0  0  0  0
   -0.1678   20.4543  -34.6994 H   0  0  0  0  0  0  0  0  0  0  0  0
   -1.8578   21.8352  -33.4888 H   0  0  0  0  0  0  0  0  0  0  0  0
   -5.9306   19.2427  -33.9316 H   0  0  0  0  0  0  0  0  0  0  0  0
   -8.3450   19.4520  -33.6600 H   0  0  0  0  0  0  0  0  0  0  0  0
   -9.3955   21.1059  -32.2313 H   0  0  0  0  0  0  0  0  0  0  0  0
   -7.9441   22.6967  -30.9133 H   0  0  0  0  0  0  0  0  0  0  0  0
   -3.0684   22.3443  -29.2388 H   0  0  0  0  0  0  0  0  0  0  0  0
  1  2  1  0
  2  3  2  0
  3  4  1  0
  4  5  2  0
  5  6  1  0
  6  7  1  0
  7  8  1  0
  8  9  2  0
  8 10  1  0
 10 11  1  0
 11 12  1  0
 12 13  2  0
 12 14  1  0
 14 15  1  0
 15 16  2  0
 16 17  1  0
 17 18  2  0
 18 19  1  0
 19 20  2  0
 14 21  1  0
 21 22  2  0
 22 23  1  0
 23 24  2  0
 24 25  1  0
 25 26  2  0
  6 27  2  0
 27  2  1  0
 26 11  1  0
 20 15  1  0
 26 21  1  0
  1 28  1  0
  1 29  1  0
  1 30  1  0
  3 31  1  0
  4 32  1  0
  5 33  1  0
 10 34  1  0
 10 35  1  0
 16 36  1  0
 17 37  1  0
 18 38  1  0
 19 39  1  0
 20 40  1  0
 22 41  1  0
 23 42  1  0
 24 43  1  0
 25 44  1  0
 27 45  1  0
M  CHG  2   7  -1  23   1
M  END
>  <UniqueID>  (4) 
4

>  <SMILES>  (4) 
Cc1cccc([N-]C(=O)Cn2c(=O)n(-c3ccccc3)c3c[nH+]ccc32)c1

>  <Energy>  (4) 
99.79468950426698

>  <Genealogy>  (4) 
Cc1cccc([N-]C(=O)Cn2c(=O)n(-c3ccccc3)c3c[nH+]ccc32)c1 (protonated)
Cc1cccc([N-]C(=O)Cn2c(=O)n(-c3ccccc3)c3c[nH+]ccc32)c1 (3D coordinates assigned)
Cc1cccc([N-]C(=O)Cn2c(=O)n(-c3ccccc3)c3c[nH+]ccc32)c1 (optimized conformer: 99.79468950426698 kcal/mol)

>  <smiles>  (4) 
Cc1cccc(NC(=O)Cn2c(=O)n(-c3ccccc3)c3cnccc32)c1

>  <score_type>  (4) 
oracle

>  <origin>  (4) 
adg

>  <m_score__min__energy>  (4) 
-10.07

>  <m_primary>  (4) 
energy

$$$$
4:0
     RDKit          3D

 27 29  0  0  0  0  0  0  0  0999 V2000
   -5.8090   18.4240  -31.9330 C   0  0  0  0  0  0  0  0  0  0  0  0
   -7.0770   19.2310  -32.0390 C   0  0  0  0  0  0  0  0  0  0  0  0
   -8.2970   18.5510  -32.1940 C   0  0  0  0  0  0  0  0  0  0  0  0
   -9.4910   19.2580  -32.3440 C   0  0  0  0  0  0  0  0  0  0  0  0
   -9.4840   20.6520  -32.3380 C   0  0  0  0  0  0  0  0  0  0  0  0
   -8.2840   21.3440  -32.1660 C   0  0  0  0  0  0  0  0  0  0  0  0
   -7.0750   20.6500  -31.9890 C   0  0  0  0  0  0  0  0  0  0  0  0
   -5.8420   21.4420  -31.7890 C   0  0  0  0  0  0  0  0  0  0  0  0
   -4.6890   21.2100  -32.4240 C   0  0  0  0  0  0  0  0  0  0  0  0
   -3.3290   22.3090  -31.9640 S   0  0  0  0  0  0  0  0  0  0  0  0
   -4.5410   23.1590  -30.9740 C   0  0  0  0  0  0  0  0  0  0  0  0
   -4.6010   24.4370  -30.8400 N   0  0  0  0  0  0  0  0  0  0  0  0
   -5.9470   24.7980  -30.4050 C   0  0  0  0  0  0  0  0  0  0  0  0
   -6.7790   23.5150  -30.5890 C   0  0  0  0  0  0  0  0  0  0  0  0
   -5.7690   22.5060  -30.8510 N   0  0  0  0  0  0  0  0  0  0  0  0
   -5.5620   18.2668  -30.8727 H   0  0  0  0  0  0  0  0  0  0  0  0
   -5.9519   17.4503  -32.4245 H   0  0  0  0  0  0  0  0  0  0  0  0
   -4.9874   18.9657  -32.4245 H   0  0  0  0  0  0  0  0  0  0  0  0
   -8.3111   17.4511  -32.1971 H   0  0  0  0  0  0  0  0  0  0  0  0
  -10.4392   18.7143  -32.4672 H   0  0  0  0  0  0  0  0  0  0  0  0
  -10.4247   21.2070  -32.4689 H   0  0  0  0  0  0  0  0  0  0  0  0
   -8.2848   22.4440  -32.1690 H   0  0  0  0  0  0  0  0  0  0  0  0
   -4.5760   20.4102  -33.1707 H   0  0  0  0  0  0  0  0  0  0  0  0
   -5.9426   25.1087  -29.3498 H   0  0  0  0  0  0  0  0  0  0  0  0
   -6.3555   25.6429  -30.9788 H   0  0  0  0  0  0  0  0  0  0  0  0
   -7.3474   23.2782  -29.6775 H   0  0  0  0  0  0  0  0  0  0  0  0
   -7.5291   23.5957  -31.3895 H   0  0  0  0  0  0  0  0  0  0  0  0
  1  2  1  0
  2  3  2  0
  3  4  1  0
  4  5  2  0
  5  6  1  0
  6  7  2  0
  7  8  1  0
  8  9  2  0
  9 10  1  0
 10 11  1  0
 11 12  2  0
 12 13  1  0
 13 14  1  0
 14 15  1  0
  7  2  1  0
 15  8  1  0
 15 11  1  0
  1 16  1  0
  1 17  1  0
  1 18  1  0
  3 19  1  0
  4 20  1  0
  5 21  1  0
  6 22  1  0
  9 23  1  0
 13 24  1  0
 13 25  1  0
 14 26  1  0
 14 27  1  0
M  END
>  <UniqueID>  (5) 
5

>  <SMILES>  (5) 
Cc1ccccc1C1=CSC2=NCCN12

>  <Energy>  (5) 
73.8429963047313

>  <Genealogy>  (5) 
Cc1ccccc1C1=CSC2=NCCN12 (3D coordinates assigned)
Cc1ccccc1C1=CSC2=NCCN12 (nonaromatic ring conformer: 73.8429963047313 kcal/mol)

>  <smiles>  (5) 
Cc1ccccc1C1=CSC2=NCCN12

>  <score_type>  (5) 
oracle

>  <origin>  (5) 
adg

>  <m_score__min__energy>  (5) 
-7.21

>  <m_primary>  (5) 
energy

$$$$
5:0
     RDKit          3D

 32 33  0  0  0  0  0  0  0  0999 V2000
   -6.2950   25.4340  -29.7220 C   0  0  0  0  0  0  0  0  0  0  0  0
   -4.8580   24.9250  -29.7080 C   0  0  0  0  0  0  0  0  0  0  0  0
   -4.4530   24.5250  -31.0590 N   0  0  0  0  0  0  0  0  0  0  0  0
   -4.3480   23.0650  -31.1530 C   0  0  0  0  0  0  0  0  0  0  0  0
   -4.9850   22.5570  -32.4520 C   0  0  0  0  0  0  0  0  0  0  0  0
   -6.4500   22.2120  -32.2560 C   0  0  0  0  0  0  0  0  0  0  0  0
   -7.3550   23.2820  -32.1370 C   0  0  0  0  0  0  0  0  0  0  0  0
   -8.7220   23.0550  -31.9820 C   0  0  0  0  0  0  0  0  0  0  0  0
   -9.2170   21.7550  -31.9530 C   0  0  0  0  0  0  0  0  0  0  0  0
   -8.3480   20.6640  -32.0830 C   0  0  0  0  0  0  0  0  0  0  0  0
   -8.8660   19.3590  -32.0610 C   0  0  0  0  0  0  0  0  0  0  0  0
   -8.0160   18.2620  -32.1980 C   0  0  0  0  0  0  0  0  0  0  0  0
   -6.6460   18.4560  -32.3560 C   0  0  0  0  0  0  0  0  0  0  0  0
   -6.1120   19.7480  -32.3760 C   0  0  0  0  0  0  0  0  0  0  0  0
   -6.9490   20.8770  -32.2400 C   0  0  0  0  0  0  0  0  0  0  0  0
   -6.6496   25.5596  -28.6883 H   0  0  0  0  0  0  0  0  0  0  0  0
   -6.3362   26.4014  -30.2439 H   0  0  0  0  0  0  0  0  0  0  0  0
   -6.9360   24.7082  -30.2439 H   0  0  0  0  0  0  0  0  0  0  0  0
   -4.1922   25.7242  -29.3501 H   0  0  0  0  0  0  0  0  0  0  0  0
   -4.7905   24.0545  -29.0389 H   0  0  0  0  0  0  0  0  0  0  0  0
   -3.5000   24.9230  -31.2370 H   0  0  0  0  0  0  0  0  0  0  0  0
   -3.2863   22.7777  -31.1353 H   0  0  0  0  0  0  0  0  0  0  0  0
   -4.8795   22.6171  -30.3004 H   0  0  0  0  0  0  0  0  0  0  0  0
   -4.9019   23.3396  -33.2206 H   0  0  0  0  0  0  0  0  0  0  0  0
   -4.4544   21.6448  -32.7625 H   0  0  0  0  0  0  0  0  0  0  0  0
   -6.9782   24.3150  -32.1667 H   0  0  0  0  0  0  0  0  0  0  0  0
   -9.4113   23.9064  -31.8823 H   0  0  0  0  0  0  0  0  0  0  0  0
  -10.2962   21.5831  -31.8274 H   0  0  0  0  0  0  0  0  0  0  0  0
   -9.9473   19.2013  -31.9351 H   0  0  0  0  0  0  0  0  0  0  0  0
   -8.4281   17.2422  -32.1813 H   0  0  0  0  0  0  0  0  0  0  0  0
   -5.9800   17.5875  -32.4657 H   0  0  0  0  0  0  0  0  0  0  0  0
   -5.0277   19.8865  -32.4991 H   0  0  0  0  0  0  0  0  0  0  0  0
  1  2  1  0
  2  3  1  0
  3  4  1  0
  4  5  1  0
  5  6  1  0
  6  7  2  0
  7  8  1  0
  8  9  2  0
  9 10  1  0
 10 11  2  0
 11 12  1  0
 12 13  2  0
 13 14  1  0
 14 15  2  0
 15  6  1  0
 15 10  1  0
  1 16  1  0
  1 17  1  0
  1 18  1  0
  2 19  1  0
  2 20  1  0
  3 21  1  0
  4 22  1  0
  4 23  1  0
  5 24  1  0
  5 25  1  0
  7 26  1  0
  8 27  1  0
  9 28  1  0
 11 29  1  0
 12 30  1  0
 13 31  1  0
 14 32  1  0
M  END
>  <UniqueID>  (6) 
6

>  <SMILES>  (6) 
CCNCCc1cccc2ccccc12

>  <Energy>  (6) 
31.529451003729623

>  <Genealogy>  (6) 
CCNCCc1cccc2ccccc12 (3D coordinates assigned)
CCNCCc1cccc2ccccc12 (optimized conformer: 31.529451003729623 kcal/mol)

>  <smiles>  (6) 
CCNCCc1cccc2ccccc12

>  <score_type>  (6) 
oracle

>  <origin>  (6) 
adg

>  <m_score__min__energy>  (6) 
-7.6299999999999999

>  <m_primary>  (6) 
energy

$$$$
6:0
     RDKit          3D

 30 32  0  0  0  0  0  0  0  0999 V2000
   -3.0950   23.9500  -30.5010 F   0  0  0  0  0  0  0  0  0  0  0  0
   -4.4480   24.0420  -30.4840 C   0  0  0  0  0  0  0  0  0  0  0  0
   -5.0600   25.1920  -29.9860 C   0  0  0  0  0  0  0  0  0  0  0  0
   -6.4510   25.2870  -29.9690 C   0  0  0  0  0  0  0  0  0  0  0  0
   -7.2370   24.2340  -30.4510 C   0  0  0  0  0  0  0  0  0  0  0  0
   -6.6370   23.0610  -30.9600 C   0  0  0  0  0  0  0  0  0  0  0  0
   -7.4370   21.9090  -31.4850 C   0  0  0  0  0  0  0  0  0  0  0  0
   -8.8440   21.8880  -31.4860 C   0  0  0  0  0  0  0  0  0  0  0  0
   -9.5010   20.7690  -31.9970 C   0  0  0  0  0  0  0  0  0  0  0  0
   -8.7890   19.7230  -32.4820 N   0  0  0  0  0  0  0  0  0  0  0  0
   -7.4300   19.7390  -32.4830 C   0  0  0  0  0  0  0  0  0  0  0  0
   -6.6680   18.5850  -33.0180 C   0  0  0  0  0  0  0  0  0  0  0  0
   -6.1570   17.6030  -32.1490 C   0  0  0  0  0  0  0  0  0  0  0  0
   -5.4430   16.5250  -32.6700 C   0  0  0  0  0  0  0  0  0  0  0  0
   -5.2390   16.4250  -34.0450 C   0  0  0  0  0  0  0  0  0  0  0  0
   -5.7570   17.4130  -34.8840 C   0  0  0  0  0  0  0  0  0  0  0  0
   -6.4530   18.4610  -34.3630 N   0  0  0  0  0  0  0  0  0  0  0  0
   -6.7780   20.8260  -31.9870 N   0  0  0  0  0  0  0  0  0  0  0  0
   -5.2260   22.9860  -30.9670 C   0  0  0  0  0  0  0  0  0  0  0  0
   -4.4464   26.0227  -29.6073 H   0  0  0  0  0  0  0  0  0  0  0  0
   -6.9329   26.1939  -29.5749 H   0  0  0  0  0  0  0  0  0  0  0  0
   -8.3334   24.3208  -30.4332 H   0  0  0  0  0  0  0  0  0  0  0  0
   -9.4162   22.7401  -31.0903 H   0  0  0  0  0  0  0  0  0  0  0  0
  -10.6004   20.7354  -32.0064 H   0  0  0  0  0  0  0  0  0  0  0  0
   -6.3201   17.6857  -31.0643 H   0  0  0  0  0  0  0  0  0  0  0  0
   -5.0409   15.7539  -31.9964 H   0  0  0  0  0  0  0  0  0  0  0  0
   -4.6765   15.5777  -34.4641 H   0  0  0  0  0  0  0  0  0  0  0  0
   -5.6023   17.3447  -35.9709 H   0  0  0  0  0  0  0  0  0  0  0  0
   -6.8220   19.1780  -35.0270 H   0  0  0  0  0  0  0  0  0  0  0  0
   -4.7329   22.0838  -31.3581 H   0  0  0  0  0  0  0  0  0  0  0  0
  1  2  1  0
  2  3  2  0
  3  4  1  0
  4  5  2  0
  5  6  1  0
  6  7  1  0
  7  8  2  0
  8  9  1  0
  9 10  2  0
 10 11  1  0
 11 12  1  0
 12 13  2  0
 13 14  1  0
 14 15  2  0
 15 16  1  0
 16 17  2  0
 11 18  2  0
  6 19  2  0
 19  2  1  0
 18  7  1  0
 17 12  1  0
  3 20  1  0
  4 21  1  0
  5 22  1  0
  8 23  1  0
  9 24  1  0
 13 25  1  0
 14 26  1  0
 15 27  1  0
 16 28  1  0
 17 29  1  0
 19 30  1  0
M  CHG  1  17   1
M  END
>  <UniqueID>  (7) 
7

>  <SMILES>  (7) 
Fc1cccc(-c2ccnc(-c3cccc[nH+]3)n2)c1

>  <Energy>  (7) 
39.781005601337895

>  <Genealogy>  (7) 
Fc1cccc(-c2ccnc(-c3cccc[nH+]3)n2)c1 (protonated)
Fc1cccc(-c2ccnc(-c3cccc[nH+]3)n2)c1 (3D coordinates assigned)
Fc1cccc(-c2ccnc(-c3cccc[nH+]3)n2)c1 (optimized conformer: 39.781005601337895 kcal/mol)

>  <smiles>  (7) 
Fc1cccc(-c2ccnc(-c3ccccn3)n2)c1

>  <score_type>  (7) 
oracle

>  <origin>  (7) 
adg

>  <m_score__min__energy>  (7) 
-7.0599999999999996

>  <m_primary>  (7) 
energy

$$$$
7:0
     RDKit          3D

 60 63  0  0  0  0  0  0  0  0999 V2000
   -4.6290   12.8830  -31.1430 C   0  0  0  0  0  0  0  0  0  0  0  0
   -3.8640   13.0670  -32.3310 O   0  0  0  0  0  0  0  0  0  0  0  0
   -2.8310   14.0060  -32.4800 C   0  0  0  0  0  0  0  0  0  0  0  0
   -1.4740   13.6510  -32.3470 C   0  0  0  0  0  0  0  0  0  0  0  0
   -0.4770   14.6240  -32.4650 C   0  0  0  0  0  0  0  0  0  0  0  0
   -0.8190   15.9550  -32.7110 C   0  0  0  0  0  0  0  0  0  0  0  0
   -2.1600   16.3180  -32.8530 C   0  0  0  0  0  0  0  0  0  0  0  0
   -3.1680   15.3470  -32.7530 C   0  0  0  0  0  0  0  0  0  0  0  0
   -4.5430   15.7300  -32.9190 N   0  0  0  0  0  0  0  0  0  0  0  0
   -5.3890   15.9680  -31.7420 C   0  0  0  0  0  0  0  0  0  0  0  0
   -6.0750   17.3360  -31.8590 C   0  0  0  0  0  0  0  0  0  0  0  0
   -6.4850   17.6240  -33.2470 N   0  0  0  0  0  0  0  0  0  0  0  0
   -6.5690   18.9950  -33.6890 C   0  0  0  0  0  0  0  0  0  0  0  0
   -6.2100   19.2970  -34.8620 O   0  0  0  0  0  0  0  0  0  0  0  0
   -7.0220   20.0720  -32.7800 C   0  0  0  0  0  0  0  0  0  0  0  0
   -8.2610   19.9860  -32.1300 C   0  0  0  0  0  0  0  0  0  0  0  0
   -8.6690   20.9950  -31.2530 C   0  0  0  0  0  0  0  0  0  0  0  0
   -7.8420   22.0950  -31.0150 C   0  0  0  0  0  0  0  0  0  0  0  0
   -6.5980   22.1960  -31.6590 C   0  0  0  0  0  0  0  0  0  0  0  0
   -5.7320   23.3190  -31.4340 N   0  0  0  0  0  0  0  0  0  0  0  0
   -6.1600   24.5360  -30.8020 C   0  0  0  0  0  0  0  0  0  0  0  0
   -7.3720   24.7020  -30.4840 O   0  0  0  0  0  0  0  0  0  0  0  0
   -5.1650   25.6110  -30.4760 C   0  0  0  0  0  0  0  0  0  0  0  0
   -3.8380   25.0790  -30.4650 O   0  0  0  0  0  0  0  0  0  0  0  0
   -3.3190   24.2080  -29.4920 C   0  0  0  0  0  0  0  0  0  0  0  0
   -3.9860   23.0340  -29.0880 C   0  0  0  0  0  0  0  0  0  0  0  0
   -3.4330   22.2120  -28.1000 C   0  0  0  0  0  0  0  0  0  0  0  0
   -2.2110   22.5470  -27.5130 C   0  0  0  0  0  0  0  0  0  0  0  0
   -1.5370   23.7010  -27.9180 C   0  0  0  0  0  0  0  0  0  0  0  0
   -2.0890   24.5280  -28.9030 C   0  0  0  0  0  0  0  0  0  0  0  0
   -1.4260   25.6490  -29.2850 F   0  0  0  0  0  0  0  0  0  0  0  0
   -6.2110   21.1980  -32.5630 C   0  0  0  0  0  0  0  0  0  0  0  0
   -6.4820   16.5310  -34.2300 C   0  0  0  0  0  0  0  0  0  0  0  0
   -5.0920   15.8860  -34.2720 C   0  0  0  0  0  0  0  0  0  0  0  0
   -3.9852   13.0379  -30.2646 H   0  0  0  0  0  0  0  0  0  0  0  0
   -5.4562   13.6078  -31.1236 H   0  0  0  0  0  0  0  0  0  0  0  0
   -5.0362   11.8613  -31.1236 H   0  0  0  0  0  0  0  0  0  0  0  0
   -1.1980   12.6046  -32.1496 H   0  0  0  0  0  0  0  0  0  0  0  0
    0.5808   14.3398  -32.3636 H   0  0  0  0  0  0  0  0  0  0  0  0
   -0.0314   16.7185  -32.7931 H   0  0  0  0  0  0  0  0  0  0  0  0
   -2.4268   17.3680  -33.0438 H   0  0  0  0  0  0  0  0  0  0  0  0
   -6.1544   15.1806  -31.6779 H   0  0  0  0  0  0  0  0  0  0  0  0
   -4.7632   15.9532  -30.8375 H   0  0  0  0  0  0  0  0  0  0  0  0
   -6.9667   17.3439  -31.2150 H   0  0  0  0  0  0  0  0  0  0  0  0
   -5.3563   18.1079  -31.5466 H   0  0  0  0  0  0  0  0  0  0  0  0
   -8.9152   19.1204  -32.3110 H   0  0  0  0  0  0  0  0  0  0  0  0
   -9.6440   20.9225  -30.7489 H   0  0  0  0  0  0  0  0  0  0  0  0
   -8.1659   22.8846  -30.3211 H   0  0  0  0  0  0  0  0  0  0  0  0
   -4.7060   23.1790  -31.5880 H   0  0  0  0  0  0  0  0  0  0  0  0
   -5.2299   26.4060  -31.2335 H   0  0  0  0  0  0  0  0  0  0  0  0
   -5.3937   26.0168  -29.4795 H   0  0  0  0  0  0  0  0  0  0  0  0
   -4.9459   22.7627  -29.5516 H   0  0  0  0  0  0  0  0  0  0  0  0
   -3.9617   21.3003  -27.7851 H   0  0  0  0  0  0  0  0  0  0  0  0
   -1.7799   21.9027  -26.7326 H   0  0  0  0  0  0  0  0  0  0  0  0
   -0.5702   23.9606  -27.4619 H   0  0  0  0  0  0  0  0  0  0  0  0
   -5.2613   21.2974  -33.1090 H   0  0  0  0  0  0  0  0  0  0  0  0
   -7.2281   15.7760  -33.9413 H   0  0  0  0  0  0  0  0  0  0  0  0
   -6.7311   16.9309  -35.2240 H   0  0  0  0  0  0  0  0  0  0  0  0
   -5.1690   14.8960  -34.7453 H   0  0  0  0  0  0  0  0  0  0  0  0
   -4.4204   16.5382  -34.8496 H   0  0  0  0  0  0  0  0  0  0  0  0
  1  2  1  0
  2  3  1  0
  3  4  2  0
  4  5  1  0
  5  6  2  0
  6  7  1  0
  7  8  2  0
  8  9  1  0
  9 10  1  0
 10 11  1  0
 11 12  1  0
 12 13  1  0
 13 14  2  0
 13 15  1  0
 15 16  2  0
 16 17  1  0
 17 18  2  0
 18 19  1  0
 19 20  1  0
 20 21  1  0
 21 22  2  0
 21 23  1  0
 23 24  1  0
 24 25  1  0
 25 26  2  0
 26 27  1  0
 27 28  2  0
 28 29  1  0
 29 30  2  0
 30 31  1  0
 19 32  2  0
 12 33  1  0
 33 34  1  0
  8  3  1  0
 34  9  1  0
 32 15  1  0
 30 25  1  0
  1 35  1  0
  1 36  1  0
  1 37  1  0
  4 38  1  0
  5 39  1  0
  6 40  1  0
  7 41  1  0
 10 42  1  0
 10 43  1  0
 11 44  1  0
 11 45  1  0
 16 46  1  0
 17 47  1  0
 18 48  1  0
 20 49  1  0
 23 50  1  0
 23 51  1  0
 26 52  1  0
 27 53  1  0
 28 54  1  0
 29 55  1  0
 32 56  1  0
 33 57  1  0
 33 58  1  0
 34 59  1  0
 34 60  1  0
M  END
>  <UniqueID>  (8) 
8

>  <SMILES>  (8) 
COc1ccccc1N1CCN(C(=O)c2cccc(NC(=O)COc3ccccc3F)c2)CC1

>  <Energy>  (8) 
76.21107459705864

>  <Genealogy>  (8) 
COc1ccccc1N1CCN(C(=O)c2cccc(NC(=O)COc3ccccc3F)c2)CC1 (3D coordinates assigned)
COc1ccccc1N1CCN(C(=O)c2cccc(NC(=O)COc3ccccc3F)c2)CC1 (nonaromatic ring conformer: 76.21107459705864 kcal/mol)

>  <smiles>  (8) 
COc1ccccc1N1CCN(C(=O)c2cccc(NC(=O)COc3ccccc3F)c2)CC1

>  <score_type>  (8) 
oracle

>  <origin>  (8) 
adg

>  <m_score__min__energy>  (8) 
-9.4600000000000009

>  <m_primary>  (8) 
energy

$$$$
8:0
     RDKit          3D

 59 62  0  0  0  0  0  0  0  0999 V2000
   -3.7500   18.8860  -26.6680 C   0  0  0  0  0  0  0  0  0  0  0  0
   -2.4180   19.0420  -25.9360 C   0  0  0  0  0  0  0  0  0  0  0  0
   -1.3020   19.6090  -26.8290 C   0  0  0  0  0  0  0  0  0  0  0  0
   -1.7830   20.7150  -27.7910 C   0  0  0  0  0  0  0  0  0  0  0  0
   -1.5380   22.1250  -27.2230 C   0  0  0  0  0  0  0  0  0  0  0  0
   -2.8090   22.9900  -27.2030 C   0  0  0  0  0  0  0  0  0  0  0  0
   -2.5620   24.4990  -27.0050 C   0  0  0  0  0  0  0  0  0  0  0  0
   -1.7200   25.1420  -28.1190 C   0  0  0  0  0  0  0  0  0  0  0  0
   -2.4370   25.1990  -29.3530 O   0  0  0  0  0  0  0  0  0  0  0  0
   -3.0860   24.1220  -29.9870 C   0  0  0  0  0  0  0  0  0  0  0  0
   -2.3740   23.0110  -30.4600 C   0  0  0  0  0  0  0  0  0  0  0  0
   -3.0300   21.9470  -31.0840 C   0  0  0  0  0  0  0  0  0  0  0  0
   -2.2840   20.8540  -31.5360 C   0  0  0  0  0  0  0  0  0  0  0  0
   -2.9250   19.7870  -32.1540 C   0  0  0  0  0  0  0  0  0  0  0  0
   -4.2780   19.7930  -32.3250 N   0  0  0  0  0  0  0  0  0  0  0  0
   -4.9190   18.6720  -32.9680 C   0  0  0  0  0  0  0  0  0  0  0  0
   -5.6670   17.7490  -32.2160 C   0  0  0  0  0  0  0  0  0  0  0  0
   -6.2870   16.6640  -32.8420 C   0  0  0  0  0  0  0  0  0  0  0  0
   -6.1650   16.4880  -34.2230 C   0  0  0  0  0  0  0  0  0  0  0  0
   -5.4230   17.3970  -34.9800 C   0  0  0  0  0  0  0  0  0  0  0  0
   -4.8020   18.4850  -34.3580 C   0  0  0  0  0  0  0  0  0  0  0  0
   -5.0320   20.8500  -31.8900 C   0  0  0  0  0  0  0  0  0  0  0  0
   -4.4350   21.9690  -31.2580 C   0  0  0  0  0  0  0  0  0  0  0  0
   -5.1760   23.0980  -30.7930 C   0  0  0  0  0  0  0  0  0  0  0  0
   -6.5830   23.2070  -30.9390 C   0  0  0  0  0  0  0  0  0  0  0  0
   -7.2700   24.3250  -30.4650 C   0  0  0  0  0  0  0  0  0  0  0  0
   -6.5860   25.3580  -29.8380 C   0  0  0  0  0  0  0  0  0  0  0  0
   -5.2040   25.2860  -29.6830 C   0  0  0  0  0  0  0  0  0  0  0  0
   -4.4830   24.1700  -30.1550 C   0  0  0  0  0  0  0  0  0  0  0  0
   -4.5632   18.7908  -25.9333 H   0  0  0  0  0  0  0  0  0  0  0  0
   -3.9274   19.7695  -27.2988 H   0  0  0  0  0  0  0  0  0  0  0  0
   -3.7184   17.9854  -27.2988 H   0  0  0  0  0  0  0  0  0  0  0  0
   -2.5643   19.7222  -25.0840 H   0  0  0  0  0  0  0  0  0  0  0  0
   -2.1019   18.0392  -25.6127 H   0  0  0  0  0  0  0  0  0  0  0  0
   -0.5177   20.0281  -26.1816 H   0  0  0  0  0  0  0  0  0  0  0  0
   -0.9328   18.7794  -27.4499 H   0  0  0  0  0  0  0  0  0  0  0  0
   -1.2408   20.6172  -28.7431 H   0  0  0  0  0  0  0  0  0  0  0  0
   -2.8667   20.5914  -27.9337 H   0  0  0  0  0  0  0  0  0  0  0  0
   -1.1626   22.0286  -26.1935 H   0  0  0  0  0  0  0  0  0  0  0  0
   -0.8091   22.6235  -27.8789 H   0  0  0  0  0  0  0  0  0  0  0  0
   -3.3319   22.8518  -28.1608 H   0  0  0  0  0  0  0  0  0  0  0  0
   -3.3967   22.6563  -26.3351 H   0  0  0  0  0  0  0  0  0  0  0  0
   -3.5365   25.0080  -26.9693 H   0  0  0  0  0  0  0  0  0  0  0  0
   -1.9939   24.6103  -26.0696 H   0  0  0  0  0  0  0  0  0  0  0  0
   -1.4482   26.1640  -27.8164 H   0  0  0  0  0  0  0  0  0  0  0  0
   -0.8217   24.5256  -28.2709 H   0  0  0  0  0  0  0  0  0  0  0  0
   -1.2813   22.9764  -30.3379 H   0  0  0  0  0  0  0  0  0  0  0  0
   -1.1922   20.8388  -31.4027 H   0  0  0  0  0  0  0  0  0  0  0  0
   -2.3351   18.9290  -32.5088 H   0  0  0  0  0  0  0  0  0  0  0  0
   -5.7648   17.8816  -31.1284 H   0  0  0  0  0  0  0  0  0  0  0  0
   -6.8719   15.9474  -32.2467 H   0  0  0  0  0  0  0  0  0  0  0  0
   -6.6535   15.6333  -34.7137 H   0  0  0  0  0  0  0  0  0  0  0  0
   -5.3268   17.2572  -36.0668 H   0  0  0  0  0  0  0  0  0  0  0  0
   -4.2189   19.1986  -34.9586 H   0  0  0  0  0  0  0  0  0  0  0  0
   -6.1224   20.8301  -32.0340 H   0  0  0  0  0  0  0  0  0  0  0  0
   -7.1406   22.3979  -31.4333 H   0  0  0  0  0  0  0  0  0  0  0  0
   -8.3612   24.3886  -30.5889 H   0  0  0  0  0  0  0  0  0  0  0  0
   -7.1362   26.2338  -29.4635 H   0  0  0  0  0  0  0  0  0  0  0  0
   -4.6688   26.1090  -29.1868 H   0  0  0  0  0  0  0  0  0  0  0  0
  1  2  1  0
  2  3  1  0
  3  4  1  0
  4  5  1  0
  5  6  1  0
  6  7  1  0
  7  8  1  0
  8  9  1  0
  9 10  1  0
 10 11  2  0
 11 12  1  0
 12 13  2  0
 13 14  1  0
 14 15  2  0
 15 16  1  0
 16 17  2  0
 17 18  1  0
 18 19  2  0
 19 20  1  0
 20 21  2  0
 15 22  1  0
 22 23  2  0
 23 24  1  0
 24 25  2  0
 25 26  1  0
 26 27  2  0
 27 28  1  0
 28 29  2  0
 29 10  1  0
 23 12  1  0
 29 24  1  0
 21 16  1  0
  1 30  1  0
  1 31  1  0
  1 32  1  0
  2 33  1  0
  2 34  1  0
  3 35  1  0
  3 36  1  0
  4 37  1  0
  4 38  1  0
  5 39  1  0
  5 40  1  0
  6 41  1  0
  6 42  1  0
  7 43  1  0
  7 44  1  0
  8 45  1  0
  8 46  1  0
 11 47  1  0
 13 48  1  0
 14 49  1  0
 17 50  1  0
 18 51  1  0
 19 52  1  0
 20 53  1  0
 21 54  1  0
 22 55  1  0
 25 56  1  0
 26 57  1  0
 27 58  1  0
 28 59  1  0
M  CHG  1  15   1
M  END
>  <UniqueID>  (9) 
9

>  <SMILES>  (9) 
CCCCCCCCOc1cc2cc[n+](-c3ccccc3)cc2c2ccccc12

>  <Energy>  (9) 
73.10051491380447

>  <Genealogy>  (9) 
CCCCCCCCOc1cc2cc[n+](-c3ccccc3)cc2c2ccccc12 (3D coordinates assigned)
CCCCCCCCOc1cc2cc[n+](-c3ccccc3)cc2c2ccccc12 (optimized conformer: 73.10051491380447 kcal/mol)

>  <smiles>  (9) 
CCCCCCCCOc1cc2cc[n+](-c3ccccc3)cc2c2ccccc12

>  <score_type>  (9) 
oracle

>  <origin>  (9) 
adg

>  <m_score__min__energy>  (9) 
-8.9800000000000004

>  <m_primary>  (9) 
energy

$$$$
9:0
     RDKit          3D

 30 32  0  0  0  0  0  0  0  0999 V2000
   -5.6960   17.1890  -34.5610 C   0  0  0  0  0  0  0  0  0  0  0  0
   -6.4280   16.5350  -33.5660 C   0  0  0  0  0  0  0  0  0  0  0  0
   -7.1930   17.2730  -32.6580 C   0  0  0  0  0  0  0  0  0  0  0  0
   -7.2370   18.6750  -32.7470 C   0  0  0  0  0  0  0  0  0  0  0  0
   -8.0330   19.4730  -31.7490 C   0  0  0  0  0  0  0  0  0  0  0  0
   -8.4460   20.8210  -32.3430 C   0  0  0  0  0  0  0  0  0  0  0  0
   -7.5160   21.8610  -31.9180 N   0  0  0  0  0  0  0  0  0  0  0  0
   -6.1650   21.7900  -31.9920 C   0  0  0  0  0  0  0  0  0  0  0  0
   -5.6740   22.9430  -31.4310 C   0  0  0  0  0  0  0  0  0  0  0  0
   -4.3860   23.4200  -31.2260 C   0  0  0  0  0  0  0  0  0  0  0  0
   -4.2460   24.6340  -30.6130 N   0  0  0  0  0  0  0  0  0  0  0  0
   -5.3280   25.3710  -30.2050 C   0  0  0  0  0  0  0  0  0  0  0  0
   -6.6370   24.8930  -30.4060 C   0  0  0  0  0  0  0  0  0  0  0  0
   -6.7660   23.6570  -31.0330 C   0  0  0  0  0  0  0  0  0  0  0  0
   -7.8960   22.9910  -31.3250 N   0  0  0  0  0  0  0  0  0  0  0  0
   -6.4880   19.3260  -33.7410 C   0  0  0  0  0  0  0  0  0  0  0  0
   -5.7250   18.5840  -34.6470 C   0  0  0  0  0  0  0  0  0  0  0  0
   -5.0972   16.6061  -35.2763 H   0  0  0  0  0  0  0  0  0  0  0  0
   -6.4021   15.4375  -33.4973 H   0  0  0  0  0  0  0  0  0  0  0  0
   -7.7620   16.7551  -31.8718 H   0  0  0  0  0  0  0  0  0  0  0  0
   -8.9355   18.9083  -31.4722 H   0  0  0  0  0  0  0  0  0  0  0  0
   -7.4092   19.6532  -30.8611 H   0  0  0  0  0  0  0  0  0  0  0  0
   -8.4386   20.7526  -33.4408 H   0  0  0  0  0  0  0  0  0  0  0  0
   -9.4566   21.0755  -31.9911 H   0  0  0  0  0  0  0  0  0  0  0  0
   -5.5745   20.9663  -32.4197 H   0  0  0  0  0  0  0  0  0  0  0  0
   -3.5076   22.8404  -31.5462 H   0  0  0  0  0  0  0  0  0  0  0  0
   -5.1719   26.3441  -29.7164 H   0  0  0  0  0  0  0  0  0  0  0  0
   -7.5164   25.4693  -30.0827 H   0  0  0  0  0  0  0  0  0  0  0  0
   -6.5020   20.4239  -33.8067 H   0  0  0  0  0  0  0  0  0  0  0  0
   -5.1466   19.0983  -35.4286 H   0  0  0  0  0  0  0  0  0  0  0  0
  1  2  2  0
  2  3  1  0
  3  4  2  0
  4  5  1  0
  5  6  1  0
  6  7  1  0
  7  8  1  0
  8  9  2  0
  9 10  1  0
 10 11  2  0
 11 12  1  0
 12 13  2  0
 13 14  1  0
 14 15  2  0
  4 16  1  0
 16 17  2  0
 17  1  1  0
 15  7  1  0
 14  9  1  0
  1 18  1  0
  2 19  1  0
  3 20  1  0
  5 21  1  0
  5 22  1  0
  6 23  1  0
  6 24  1  0
  8 25  1  0
 10 26  1  0
 12 27  1  0
 13 28  1  0
 16 29  1  0
 17 30  1  0
M  END
>  <UniqueID>  (10) 
10

>  <SMILES>  (10) 
c1ccc(CCn2cc3cnccc3n2)cc1

>  <Energy>  (10) 
68.51786356620498

>  <Genealogy>  (10) 
c1ccc(CCn2cc3cnccc3n2)cc1 (3D coordinates assigned)
c1ccc(CCn2cc3cnccc3n2)cc1 (optimized conformer: 68.51786356620498 kcal/mol)

>  <smiles>  (10) 
c1ccc(CCn2cc3cnccc3n2)cc1

>  <score_type>  (10) 
oracle

>  <origin>  (10) 
adg

>  <m_score__min__energy>  (10) 
-7.3399999999999999

>  <m_primary>  (10) 
energy

$$$$
10:0
     RDKit          3D

 61 65  0  0  0  0  0  0  0  0999 V2000
   -3.7590   12.8740  -33.1290 C   0  0  0  0  0  0  0  0  0  0  0  0
   -3.9080   14.3580  -33.2880 C   0  0  0  0  0  0  0  0  0  0  0  0
   -2.9680   15.2330  -32.7410 C   0  0  0  0  0  0  0  0  0  0  0  0
   -3.1260   16.6140  -32.8750 C   0  0  0  0  0  0  0  0  0  0  0  0
   -4.2290   17.1640  -33.5680 C   0  0  0  0  0  0  0  0  0  0  0  0
   -5.1980   16.2700  -34.0770 C   0  0  0  0  0  0  0  0  0  0  0  0
   -5.0300   14.8820  -33.9360 C   0  0  0  0  0  0  0  0  0  0  0  0
   -6.5110   16.7940  -34.5740 C   0  0  0  0  0  0  0  0  0  0  0  0
   -7.2810   17.3500  -33.3840 C   0  0  0  0  0  0  0  0  0  0  0  0
   -6.8300   18.7050  -32.8560 C   0  0  0  0  0  0  0  0  0  0  0  0
   -7.7930   19.3790  -32.0830 C   0  0  0  0  0  0  0  0  0  0  0  0
   -7.5660   20.6630  -31.6140 C   0  0  0  0  0  0  0  0  0  0  0  0
   -6.3830   21.2990  -31.9440 C   0  0  0  0  0  0  0  0  0  0  0  0
   -5.4330   20.6500  -32.6660 N   0  0  0  0  0  0  0  0  0  0  0  0
   -5.5530   19.3370  -33.0580 C   0  0  0  0  0  0  0  0  0  0  0  0
   -4.3830   18.6730  -33.8270 C   0  0  1  0  0  0  0  0  0  0  0  0
   -3.0220   19.4480  -33.7980 C   0  0  0  0  0  0  0  0  0  0  0  0
   -2.3730   19.6500  -32.4010 C   0  0  0  0  0  0  0  0  0  0  0  0
   -2.7130   20.9750  -31.8380 N   0  0  0  0  0  0  0  0  0  0  0  0
   -1.5480   21.9040  -31.8450 C   0  0  0  0  0  0  0  0  0  0  0  0
   -1.0840   22.3320  -30.4450 C   0  0  0  0  0  0  0  0  0  0  0  0
   -2.2240   22.8390  -29.6720 N   0  0  0  0  0  0  0  0  0  0  0  0
   -2.0290   23.8900  -28.6990 C   0  0  0  0  0  0  0  0  0  0  0  0
   -2.7370   23.9040  -27.4830 C   0  0  0  0  0  0  0  0  0  0  0  0
   -2.5180   24.9360  -26.5690 C   0  0  0  0  0  0  0  0  0  0  0  0
   -1.6040   25.9460  -26.8660 C   0  0  0  0  0  0  0  0  0  0  0  0
   -0.9200   25.9100  -28.0810 C   0  0  0  0  0  0  0  0  0  0  0  0
   -1.1450   24.8960  -28.9580 N   0  0  0  0  0  0  0  0  0  0  0  0
   -3.5230   22.1670  -29.8080 C   0  0  0  0  0  0  0  0  0  0  0  0
   -3.3680   20.8200  -30.5200 C   0  0  0  0  0  0  0  0  0  0  0  0
   -3.7336   12.6206  -32.0589 H   0  0  0  0  0  0  0  0  0  0  0  0
   -4.6107   12.3668  -33.6058 H   0  0  0  0  0  0  0  0  0  0  0  0
   -2.8234   12.5463  -33.6058 H   0  0  0  0  0  0  0  0  0  0  0  0
   -2.0974   14.8322  -32.2011 H   0  0  0  0  0  0  0  0  0  0  0  0
   -2.3773   17.2875  -32.4325 H   0  0  0  0  0  0  0  0  0  0  0  0
   -5.7914   14.1991  -34.3409 H   0  0  0  0  0  0  0  0  0  0  0  0
   -6.3387   17.5915  -35.3118 H   0  0  0  0  0  0  0  0  0  0  0  0
   -7.0846   15.9883  -35.0555 H   0  0  0  0  0  0  0  0  0  0  0  0
   -8.3359   17.4417  -33.6819 H   0  0  0  0  0  0  0  0  0  0  0  0
   -7.0981   16.6419  -32.5624 H   0  0  0  0  0  0  0  0  0  0  0  0
   -8.7432   18.8777  -31.8467 H   0  0  0  0  0  0  0  0  0  0  0  0
   -8.3159   21.1691  -30.9883 H   0  0  0  0  0  0  0  0  0  0  0  0
   -6.2105   22.3360  -31.6200 H   0  0  0  0  0  0  0  0  0  0  0  0
   -4.6130   21.2270  -32.9360 H   0  0  0  0  0  0  0  0  0  0  0  0
   -4.7106   18.7609  -34.8734 H   0  0  0  0  0  0  0  0  0  0  0  0
   -2.3068   18.8923  -34.4223 H   0  0  0  0  0  0  0  0  0  0  0  0
   -3.2535   20.4598  -34.1622 H   0  0  0  0  0  0  0  0  0  0  0  0
   -2.7373   18.8669  -31.7198 H   0  0  0  0  0  0  0  0  0  0  0  0
   -1.2804   19.5900  -32.5133 H   0  0  0  0  0  0  0  0  0  0  0  0
   -0.7088   21.4031  -32.3498 H   0  0  0  0  0  0  0  0  0  0  0  0
   -1.8711   22.8168  -32.3669 H   0  0  0  0  0  0  0  0  0  0  0  0
   -0.6475   21.4663  -29.9253 H   0  0  0  0  0  0  0  0  0  0  0  0
   -0.3306   23.1276  -30.5416 H   0  0  0  0  0  0  0  0  0  0  0  0
   -3.4589   23.1062  -27.2540 H   0  0  0  0  0  0  0  0  0  0  0  0
   -3.0660   24.9524  -25.6154 H   0  0  0  0  0  0  0  0  0  0  0  0
   -1.4244   26.7619  -26.1504 H   0  0  0  0  0  0  0  0  0  0  0  0
   -0.1984   26.7022  -28.3296 H   0  0  0  0  0  0  0  0  0  0  0  0
   -3.9483   21.9990  -28.8076 H   0  0  0  0  0  0  0  0  0  0  0  0
   -4.1893   22.8065  -30.4056 H   0  0  0  0  0  0  0  0  0  0  0  0
   -2.7574   20.1529  -29.8937 H   0  0  0  0  0  0  0  0  0  0  0  0
   -4.3708   20.3973  -30.6807 H   0  0  0  0  0  0  0  0  0  0  0  0
  1  2  1  0
  2  3  2  0
  3  4  1  0
  4  5  2  0
  5  6  1  0
  6  7  2  0
  6  8  1  0
  8  9  1  0
  9 10  1  0
 10 11  2  0
 11 12  1  0
 12 13  2  0
 13 14  1  0
 14 15  2  0
 15 16  1  0
 16 17  1  0
 17 18  1  0
 18 19  1  0
 19 20  1  0
 20 21  1  0
 21 22  1  0
 22 23  1  0
 23 24  2  0
 24 25  1  0
 25 26  2  0
 26 27  1  0
 27 28  2  0
 22 29  1  0
 29 30  1  0
  7  2  1  0
 15 10  1  0
 30 19  1  0
 16  5  1  0
 28 23  1  0
  1 31  1  0
  1 32  1  0
  1 33  1  0
  3 34  1  0
  4 35  1  0
  7 36  1  0
  8 37  1  0
  8 38  1  0
  9 39  1  0
  9 40  1  0
 11 41  1  0
 12 42  1  0
 13 43  1  0
 14 44  1  0
 16 45  1  6
 17 46  1  0
 17 47  1  0
 18 48  1  0
 18 49  1  0
 20 50  1  0
 20 51  1  0
 21 52  1  0
 21 53  1  0
 24 54  1  0
 25 55  1  0
 26 56  1  0
 27 57  1  0
 29 58  1  0
 29 59  1  0
 30 60  1  0
 30 61  1  0
M  CHG  1  14   1
M  END
>  <UniqueID>  (11) 
11

>  <SMILES>  (11) 
Cc1ccc2c(c1)CCc1ccc[nH+]c1[C@H]2CCN1CCN(c2ccccn2)CC1

>  <Energy>  (11) 
102.04231034192799

>  <Genealogy>  (11) 
Cc1ccc2c(c1)CCc1ccc[nH+]c1C2CCN1CCN(c2ccccn2)CC1 (protonated)
Cc1ccc2c(c1)CCc1ccc[nH+]c1[C@H]2CCN1CCN(c2ccccn2)CC1 (chirality)
Cc1ccc2c(c1)CCc1ccc[nH+]c1[C@H]2CCN1CCN(c2ccccn2)CC1 (3D coordinates assigned)
Cc1ccc2c(c1)CCc1ccc[nH+]c1[C@H]2CCN1CCN(c2ccccn2)CC1 (nonaromatic ring conformer: 102.04231034192799 kcal/mol)

>  <smiles>  (11) 
Cc1ccc2c(c1)CCc1cccnc1C2CCN1CCN(c2ccccn2)CC1

>  <score_type>  (11) 
oracle

>  <origin>  (11) 
adg

>  <m_score__min__energy>  (11) 
-7.7199999999999998

>  <m_primary>  (11) 
energy

$$$$
11:0
     RDKit          3D

 71 73  0  0  0  0  0  0  0  0999 V2000
   -6.1570   25.2260  -29.7260 C   0  0  0  0  0  0  0  0  0  0  0  0
   -4.8930   25.3830  -30.5590 C   0  0  0  0  0  0  0  0  0  0  0  0
   -3.9640   24.2670  -30.2560 N   0  0  0  0  0  0  0  0  0  0  0  0
   -3.0320   24.5570  -29.1440 C   0  0  0  0  0  0  0  0  0  0  0  0
   -1.6980   23.8430  -29.3590 C   0  0  0  0  0  0  0  0  0  0  0  0
   -4.6610   22.9700  -30.1000 C   0  0  0  0  0  0  0  0  0  0  0  0
   -4.0640   21.8380  -30.9660 C   0  0  0  0  0  0  0  0  0  0  0  0
   -4.7540   21.7800  -32.2750 N   0  0  0  0  0  0  0  0  0  0  0  0
   -3.8040   21.9270  -33.4020 C   0  0  0  0  0  0  0  0  0  0  0  0
   -2.3940   21.4650  -32.9640 C   0  0  0  0  0  0  0  0  0  0  0  0
   -2.2310   19.9930  -32.8620 N   0  0  0  0  0  0  0  0  0  0  0  0
   -0.8560   19.5860  -32.5140 C   0  0  0  0  0  0  0  0  0  0  0  0
   -0.7090   19.4950  -31.0190 C   0  0  0  0  0  0  0  0  0  0  0  0
   -0.0510   18.4030  -30.4260 C   0  0  0  0  0  0  0  0  0  0  0  0
    0.0640   18.3230  -29.0350 C   0  0  0  0  0  0  0  0  0  0  0  0
   -0.4760   19.3280  -28.2280 C   0  0  0  0  0  0  0  0  0  0  0  0
   -1.1310   20.4160  -28.8110 C   0  0  0  0  0  0  0  0  0  0  0  0
   -1.2490   20.4990  -30.2010 C   0  0  0  0  0  0  0  0  0  0  0  0
   -2.7620   19.2540  -34.0300 C   0  0  0  0  0  0  0  0  0  0  0  0
   -4.0770   18.6050  -33.6910 C   0  0  0  0  0  0  0  0  0  0  0  0
   -4.8630   18.0140  -34.6940 C   0  0  0  0  0  0  0  0  0  0  0  0
   -6.0910   17.4270  -34.3710 C   0  0  0  0  0  0  0  0  0  0  0  0
   -6.5370   17.4180  -33.0460 C   0  0  0  0  0  0  0  0  0  0  0  0
   -5.7560   17.9970  -32.0420 C   0  0  0  0  0  0  0  0  0  0  0  0
   -4.5300   18.5890  -32.3620 C   0  0  0  0  0  0  0  0  0  0  0  0
   -5.8810   22.7440  -32.3550 C   0  0  0  0  0  0  0  0  0  0  0  0
   -7.1800   21.9990  -32.2130 C   0  0  0  0  0  0  0  0  0  0  0  0
   -8.2720   22.5990  -31.5620 C   0  0  0  0  0  0  0  0  0  0  0  0
   -9.4950   21.9270  -31.4700 C   0  0  0  0  0  0  0  0  0  0  0  0
   -9.6330   20.6460  -32.0160 C   0  0  0  0  0  0  0  0  0  0  0  0
   -8.5520   20.0410  -32.6650 C   0  0  0  0  0  0  0  0  0  0  0  0
   -7.3310   20.7140  -32.7680 C   0  0  0  0  0  0  0  0  0  0  0  0
   -5.8982   25.2581  -28.6574 H   0  0  0  0  0  0  0  0  0  0  0  0
   -6.8539   26.0445  -29.9593 H   0  0  0  0  0  0  0  0  0  0  0  0
   -6.6325   24.2619  -29.9593 H   0  0  0  0  0  0  0  0  0  0  0  0
   -5.1527   25.3649  -31.6277 H   0  0  0  0  0  0  0  0  0  0  0  0
   -4.4092   26.3409  -30.3173 H   0  0  0  0  0  0  0  0  0  0  0  0
   -2.8571   25.6418  -29.0927 H   0  0  0  0  0  0  0  0  0  0  0  0
   -3.4785   24.1983  -28.2049 H   0  0  0  0  0  0  0  0  0  0  0  0
   -1.2493   23.6028  -28.3838 H   0  0  0  0  0  0  0  0  0  0  0  0
   -1.8661   22.9143  -29.9240 H   0  0  0  0  0  0  0  0  0  0  0  0
   -1.0184   24.4980  -29.9240 H   0  0  0  0  0  0  0  0  0  0  0  0
   -4.6013   22.6681  -29.0439 H   0  0  0  0  0  0  0  0  0  0  0  0
   -5.6981   23.1192  -30.4349 H   0  0  0  0  0  0  0  0  0  0  0  0
   -2.9930   22.0300  -31.1276 H   0  0  0  0  0  0  0  0  0  0  0  0
   -4.1982   20.8781  -30.4457 H   0  0  0  0  0  0  0  0  0  0  0  0
   -4.1434   21.3114  -34.2481 H   0  0  0  0  0  0  0  0  0  0  0  0
   -3.7616   22.9835  -33.7052 H   0  0  0  0  0  0  0  0  0  0  0  0
   -1.6661   21.8409  -33.6981 H   0  0  0  0  0  0  0  0  0  0  0  0
   -2.2336   21.8677  -31.9530 H   0  0  0  0  0  0  0  0  0  0  0  0
   -0.6425   18.6041  -32.9615 H   0  0  0  0  0  0  0  0  0  0  0  0
   -0.1489   20.3343  -32.9015 H   0  0  0  0  0  0  0  0  0  0  0  0
    0.3744   17.6096  -31.0582 H   0  0  0  0  0  0  0  0  0  0  0  0
    0.5804   17.4676  -28.5750 H   0  0  0  0  0  0  0  0  0  0  0  0
   -0.3854   19.2626  -27.1337 H   0  0  0  0  0  0  0  0  0  0  0  0
   -1.5541   21.2078  -28.1753 H   0  0  0  0  0  0  0  0  0  0  0  0
   -1.7678   21.3556  -30.6561 H   0  0  0  0  0  0  0  0  0  0  0  0
   -2.9090   19.9547  -34.8652 H   0  0  0  0  0  0  0  0  0  0  0  0
   -2.0422   18.4718  -34.3128 H   0  0  0  0  0  0  0  0  0  0  0  0
   -4.5119   18.0128  -35.7365 H   0  0  0  0  0  0  0  0  0  0  0  0
   -6.7067   16.9718  -35.1608 H   0  0  0  0  0  0  0  0  0  0  0  0
   -7.5025   16.9552  -32.7938 H   0  0  0  0  0  0  0  0  0  0  0  0
   -6.1059   17.9871  -30.9992 H   0  0  0  0  0  0  0  0  0  0  0  0
   -3.9180   19.0440  -31.5693 H   0  0  0  0  0  0  0  0  0  0  0  0
   -5.7907   23.4836  -31.5458 H   0  0  0  0  0  0  0  0  0  0  0  0
   -5.8561   23.2620  -33.3251 H   0  0  0  0  0  0  0  0  0  0  0  0
   -8.1640   23.6018  -31.1229 H   0  0  0  0  0  0  0  0  0  0  0  0
  -10.3489   22.4056  -30.9682 H   0  0  0  0  0  0  0  0  0  0  0  0
  -10.5926   20.1144  -31.9347 H   0  0  0  0  0  0  0  0  0  0  0  0
   -8.6626   19.0345  -33.0949 H   0  0  0  0  0  0  0  0  0  0  0  0
   -6.4848   20.2376  -33.2848 H   0  0  0  0  0  0  0  0  0  0  0  0
  1  2  1  0
  2  3  1  0
  3  4  1  0
  4  5  1  0
  3  6  1  0
  6  7  1  0
  7  8  1  0
  8  9  1  0
  9 10  1  0
 10 11  1  0
 11 12  1  0
 12 13  1  0
 13 14  2  0
 14 15  1  0
 15 16  2  0
 16 17  1  0
 17 18  2  0
 11 19  1  0
 19 20  1  0
 20 21  2  0
 21 22  1  0
 22 23  2  0
 23 24  1  0
 24 25  2  0
  8 26  1  0
 26 27  1  0
 27 28  2  0
 28 29  1  0
 29 30  2  0
 30 31  1  0
 31 32  2  0
 18 13  1  0
 25 20  1  0
 32 27  1  0
  1 33  1  0
  1 34  1  0
  1 35  1  0
  2 36  1  0
  2 37  1  0
  4 38  1  0
  4 39  1  0
  5 40  1  0
  5 41  1  0
  5 42  1  0
  6 43  1  0
  6 44  1  0
  7 45  1  0
  7 46  1  0
  9 47  1  0
  9 48  1  0
 10 49  1  0
 10 50  1  0
 12 51  1  0
 12 52  1  0
 14 53  1  0
 15 54  1  0
 16 55  1  0
 17 56  1  0
 18 57  1  0
 19 58  1  0
 19 59  1  0
 21 60  1  0
 22 61  1  0
 23 62  1  0
 24 63  1  0
 25 64  1  0
 26 65  1  0
 26 66  1  0
 28 67  1  0
 29 68  1  0
 30 69  1  0
 31 70  1  0
 32 71  1  0
M  END
>  <UniqueID>  (12) 
12

>  <SMILES>  (12) 
CCN(CC)CCN(CCN(Cc1ccccc1)Cc1ccccc1)Cc1ccccc1

>  <Energy>  (12) 
78.26896761909863

>  <Genealogy>  (12) 
CCN(CC)CCN(CCN(Cc1ccccc1)Cc1ccccc1)Cc1ccccc1 (3D coordinates assigned)
CCN(CC)CCN(CCN(Cc1ccccc1)Cc1ccccc1)Cc1ccccc1 (optimized conformer: 78.26896761909863 kcal/mol)

>  <smiles>  (12) 
CCN(CC)CCN(CCN(Cc1ccccc1)Cc1ccccc1)Cc1ccccc1

>  <score_type>  (12) 
oracle

>  <origin>  (12) 
adg

>  <m_score__min__energy>  (12) 
-8.5899999999999999

>  <m_primary>  (12) 
energy

$$$$
12:0
     RDKit          3D

 56 59  0  0  0  0  0  0  0  0999 V2000
   -5.3520   14.6020  -33.0740 C   0  0  0  0  0  0  0  0  0  0  0  0
   -5.1800   16.0820  -32.8940 C   0  0  0  0  0  0  0  0  0  0  0  0
   -6.0810   16.8030  -32.0990 C   0  0  0  0  0  0  0  0  0  0  0  0
   -5.9480   18.1860  -31.9610 C   0  0  0  0  0  0  0  0  0  0  0  0
   -4.9210   18.8690  -32.6230 C   0  0  0  0  0  0  0  0  0  0  0  0
   -4.8060   20.2870  -32.4560 N   0  0  0  0  0  0  0  0  0  0  0  0
   -3.6510   20.9390  -32.5060 N   0  0  0  0  0  0  0  0  0  0  0  0
   -3.9130   22.2530  -32.3350 C   0  0  0  0  0  0  0  0  0  0  0  0
   -5.2760   22.4190  -32.1780 C   0  0  0  0  0  0  0  0  0  0  0  0
   -5.8100   21.1600  -32.2540 C   0  0  0  0  0  0  0  0  0  0  0  0
   -7.2810   20.8870  -32.3730 C   0  0  0  0  0  0  0  0  0  0  0  0
   -8.1210   22.0360  -31.7430 C   0  0  0  0  0  0  0  0  0  0  0  0
   -8.1050   21.9210  -30.2030 C   0  0  0  0  0  0  0  0  0  0  0  0
   -9.5840   21.8960  -32.2140 C   0  0  0  0  0  0  0  0  0  0  0  0
   -7.5850   23.4320  -32.2080 C   0  0  0  0  0  0  0  0  0  0  0  0
   -6.0660   23.6800  -31.9870 C   0  0  1  0  0  0  0  0  0  0  0  0
   -5.8250   24.3340  -30.6940 N   0  0  0  0  0  0  0  0  0  0  0  0
   -4.5940   24.7950  -30.1130 C   0  0  0  0  0  0  0  0  0  0  0  0
   -3.8840   25.6670  -30.6810 O   0  0  0  0  0  0  0  0  0  0  0  0
   -4.1690   24.2580  -28.7850 C   0  0  0  0  0  0  0  0  0  0  0  0
   -2.6680   24.2260  -28.6970 C   0  0  0  0  0  0  0  0  0  0  0  0
   -1.9320   23.3030  -29.4530 C   0  0  0  0  0  0  0  0  0  0  0  0
   -0.5370   23.3110  -29.3780 C   0  0  0  0  0  0  0  0  0  0  0  0
    0.1000   24.2180  -28.5900 N   0  0  0  0  0  0  0  0  0  0  0  0
   -0.5880   25.1340  -27.8560 C   0  0  0  0  0  0  0  0  0  0  0  0
   -1.9850   25.1570  -27.8990 C   0  0  0  0  0  0  0  0  0  0  0  0
   -4.0390   18.1610  -33.4690 C   0  0  0  0  0  0  0  0  0  0  0  0
   -2.9510   18.8680  -34.2320 C   0  0  0  0  0  0  0  0  0  0  0  0
   -4.1690   16.7670  -33.5840 C   0  0  0  0  0  0  0  0  0  0  0  0
   -5.4084   14.1169  -32.0884 H   0  0  0  0  0  0  0  0  0  0  0  0
   -6.2790   14.4059  -33.6328 H   0  0  0  0  0  0  0  0  0  0  0  0
   -4.4947   14.1985  -33.6328 H   0  0  0  0  0  0  0  0  0  0  0  0
   -6.8967   16.2770  -31.5813 H   0  0  0  0  0  0  0  0  0  0  0  0
   -6.6548   18.7425  -31.3280 H   0  0  0  0  0  0  0  0  0  0  0  0
   -3.1643   23.0588  -32.3227 H   0  0  0  0  0  0  0  0  0  0  0  0
   -7.5433   20.7930  -33.4371 H   0  0  0  0  0  0  0  0  0  0  0  0
   -7.5065   19.9553  -31.8335 H   0  0  0  0  0  0  0  0  0  0  0  0
   -8.2437   22.9180  -29.7594 H   0  0  0  0  0  0  0  0  0  0  0  0
   -8.9195   21.2578  -29.8764 H   0  0  0  0  0  0  0  0  0  0  0  0
   -7.1404   21.5053  -29.8764 H   0  0  0  0  0  0  0  0  0  0  0  0
  -10.2467   21.8326  -31.3383 H   0  0  0  0  0  0  0  0  0  0  0  0
   -9.8596   22.7719  -32.8197 H   0  0  0  0  0  0  0  0  0  0  0  0
   -9.6885   20.9838  -32.8197 H   0  0  0  0  0  0  0  0  0  0  0  0
   -7.7904   23.5313  -33.2841 H   0  0  0  0  0  0  0  0  0  0  0  0
   -8.1035   24.1747  -31.5839 H   0  0  0  0  0  0  0  0  0  0  0  0
   -5.7055   24.3787  -32.7563 H   0  0  0  0  0  0  0  0  0  0  0  0
   -4.5666   24.9030  -27.9876 H   0  0  0  0  0  0  0  0  0  0  0  0
   -4.5584   23.2358  -28.6685 H   0  0  0  0  0  0  0  0  0  0  0  0
   -2.4485   22.5785  -30.0998 H   0  0  0  0  0  0  0  0  0  0  0  0
    0.0477   22.5817  -29.9579 H   0  0  0  0  0  0  0  0  0  0  0  0
   -0.0450   25.8564  -27.2288 H   0  0  0  0  0  0  0  0  0  0  0  0
   -2.5451   25.8995  -27.3116 H   0  0  0  0  0  0  0  0  0  0  0  0
   -2.2452   19.3267  -33.5239 H   0  0  0  0  0  0  0  0  0  0  0  0
   -2.4170   18.1439  -34.8649 H   0  0  0  0  0  0  0  0  0  0  0  0
   -3.3958   19.6501  -34.8649 H   0  0  0  0  0  0  0  0  0  0  0  0
   -3.4702   16.2064  -34.2223 H   0  0  0  0  0  0  0  0  0  0  0  0
  1  2  1  0
  2  3  2  0
  3  4  1  0
  4  5  2  0
  5  6  1  0
  6  7  1  0
  7  8  2  0
  8  9  1  0
  9 10  2  0
 10 11  1  0
 11 12  1  0
 12 13  1  0
 12 14  1  0
 12 15  1  0
 15 16  1  0
 16 17  1  0
 17 18  1  0
 18 19  2  0
 18 20  1  0
 20 21  1  0
 21 22  2  0
 22 23  1  0
 23 24  2  0
 24 25  1  0
 25 26  2  0
  5 27  1  0
 27 28  1  0
 27 29  2  0
 29  2  1  0
 10  6  1  0
 26 21  1  0
 16  9  1  0
  1 30  1  0
  1 31  1  0
  1 32  1  0
  3 33  1  0
  4 34  1  0
  8 35  1  0
 11 36  1  0
 11 37  1  0
 13 38  1  0
 13 39  1  0
 13 40  1  0
 14 41  1  0
 14 42  1  0
 14 43  1  0
 15 44  1  0
 15 45  1  0
 16 46  1  6
 20 47  1  0
 20 48  1  0
 22 49  1  0
 23 50  1  0
 25 51  1  0
 26 52  1  0
 28 53  1  0
 28 54  1  0
 28 55  1  0
 29 56  1  0
M  CHG  1  17  -1
M  END
>  <UniqueID>  (13) 
13

>  <SMILES>  (13) 
Cc1ccc(-n2ncc3c2CC(C)(C)C[C@H]3[N-]C(=O)Cc2ccncc2)c(C)c1

>  <Energy>  (13) 
99.60802886505243

>  <Genealogy>  (13) 
Cc1ccc(-n2ncc3c2CC(C)(C)CC3[N-]C(=O)Cc2ccncc2)c(C)c1 (protonated)
Cc1ccc(-n2ncc3c2CC(C)(C)C[C@H]3[N-]C(=O)Cc2ccncc2)c(C)c1 (chirality)
Cc1ccc(-n2ncc3c2CC(C)(C)C[C@H]3[N-]C(=O)Cc2ccncc2)c(C)c1 (3D coordinates assigned)
Cc1ccc(-n2ncc3c2CC(C)(C)C[C@H]3[N-]C(=O)Cc2ccncc2)c(C)c1 (nonaromatic ring conformer: 99.60802886505243 kcal/mol)

>  <smiles>  (13) 
Cc1ccc(-n2ncc3c2CC(C)(C)CC3NC(=O)Cc2ccncc2)c(C)c1

>  <score_type>  (13) 
oracle

>  <origin>  (13) 
adg

>  <m_score__min__energy>  (13) 
-11.51

>  <m_primary>  (13) 
energy

$$$$
13:0
     RDKit          3D

 36 39  0  0  0  0  0  0  0  0999 V2000
    1.9580   21.1920  -34.9670 C   0  0  0  0  0  0  0  0  0  0  0  0
    1.4060   20.8620  -33.6970 O   0  0  0  0  0  0  0  0  0  0  0  0
    0.0330   20.8400  -33.4130 C   0  0  0  0  0  0  0  0  0  0  0  0
   -0.4810   21.1790  -32.1460 C   0  0  0  0  0  0  0  0  0  0  0  0
   -1.8590   21.1410  -31.9120 C   0  0  0  0  0  0  0  0  0  0  0  0
   -2.7430   20.7640  -32.9340 C   0  0  0  0  0  0  0  0  0  0  0  0
   -4.1620   20.7250  -32.6930 N   0  0  0  0  0  0  0  0  0  0  0  0
   -4.8780   19.4780  -32.7640 C   0  0  0  0  0  0  0  0  0  0  0  0
   -4.2700   18.4160  -33.0710 O   0  0  0  0  0  0  0  0  0  0  0  0
   -6.3360   19.4470  -32.5010 C   0  0  0  0  0  0  0  0  0  0  0  0
   -7.0450   18.2340  -32.5520 C   0  0  0  0  0  0  0  0  0  0  0  0
   -8.4210   18.2070  -32.3140 C   0  0  0  0  0  0  0  0  0  0  0  0
   -9.1080   19.3840  -32.0230 C   0  0  0  0  0  0  0  0  0  0  0  0
   -8.4230   20.6060  -31.9660 C   0  0  0  0  0  0  0  0  0  0  0  0
   -9.1170   21.7900  -31.6750 C   0  0  0  0  0  0  0  0  0  0  0  0
   -8.4350   23.0050  -31.6180 C   0  0  0  0  0  0  0  0  0  0  0  0
   -7.0590   23.0540  -31.8480 C   0  0  0  0  0  0  0  0  0  0  0  0
   -6.3430   21.8810  -32.1420 C   0  0  0  0  0  0  0  0  0  0  0  0
   -7.0250   20.6440  -32.2040 C   0  0  0  0  0  0  0  0  0  0  0  0
   -4.8800   21.9310  -32.3770 C   0  0  0  0  0  0  0  0  0  0  0  0
   -4.2640   23.0280  -32.2780 O   0  0  0  0  0  0  0  0  0  0  0  0
   -2.2290   20.4260  -34.1960 C   0  0  0  0  0  0  0  0  0  0  0  0
   -0.8520   20.4640  -34.4300 C   0  0  0  0  0  0  0  0  0  0  0  0
    2.8943   21.7518  -34.8256 H   0  0  0  0  0  0  0  0  0  0  0  0
    2.1640   20.2687  -35.5284 H   0  0  0  0  0  0  0  0  0  0  0  0
    1.2423   21.8105  -35.5284 H   0  0  0  0  0  0  0  0  0  0  0  0
    0.2042   21.4747  -31.3378 H   0  0  0  0  0  0  0  0  0  0  0  0
   -2.2525   21.4084  -30.9202 H   0  0  0  0  0  0  0  0  0  0  0  0
   -6.5121   17.2994  -32.7810 H   0  0  0  0  0  0  0  0  0  0  0  0
   -8.9651   17.2519  -32.3565 H   0  0  0  0  0  0  0  0  0  0  0  0
  -10.1918   19.3542  -31.8373 H   0  0  0  0  0  0  0  0  0  0  0  0
  -10.2012   21.7599  -31.4914 H   0  0  0  0  0  0  0  0  0  0  0  0
   -8.9846   23.9303  -31.3904 H   0  0  0  0  0  0  0  0  0  0  0  0
   -6.5312   24.0179  -31.7988 H   0  0  0  0  0  0  0  0  0  0  0  0
   -2.9136   20.1298  -35.0044 H   0  0  0  0  0  0  0  0  0  0  0  0
   -0.4600   20.1960  -35.4223 H   0  0  0  0  0  0  0  0  0  0  0  0
  1  2  1  0
  2  3  1  0
  3  4  2  0
  4  5  1  0
  5  6  2  0
  6  7  1  0
  7  8  1  0
  8  9  2  0
  8 10  1  0
 10 11  2  0
 11 12  1  0
 12 13  2  0
 13 14  1  0
 14 15  2  0
 15 16  1  0
 16 17  2  0
 17 18  1  0
 18 19  2  0
 18 20  1  0
 20 21  2  0
  6 22  1  0
 22 23  2  0
 23  3  1  0
 20  7  1  0
 19 10  1  0
 19 14  1  0
  1 24  1  0
  1 25  1  0
  1 26  1  0
  4 27  1  0
  5 28  1  0
 11 29  1  0
 12 30  1  0
 13 31  1  0
 15 32  1  0
 16 33  1  0
 17 34  1  0
 22 35  1  0
 23 36  1  0
M  END
>  <UniqueID>  (14) 
14

>  <SMILES>  (14) 
COc1ccc(N2C(=O)c3cccc4cccc(c34)C2=O)cc1

>  <Energy>  (14) 
52.75352145732665

>  <Genealogy>  (14) 
COc1ccc(N2C(=O)c3cccc4cccc(c34)C2=O)cc1 (3D coordinates assigned)
COc1ccc(N2C(=O)c3cccc4cccc(c34)C2=O)cc1 (nonaromatic ring conformer: 52.75352145732665 kcal/mol)

>  <smiles>  (14) 
COc1ccc(N2C(=O)c3cccc4cccc(c34)C2=O)cc1

>  <score_type>  (14) 
oracle

>  <origin>  (14) 
adg

>  <m_score__min__energy>  (14) 
-8.0999999999999996

>  <m_primary>  (14) 
energy

$$$$
14:0
     RDKit          3D

 19 20  0  0  0  0  0  0  0  0999 V2000
   -5.7320   25.6790  -30.4320 Cl  0  0  0  0  0  0  0  0  0  0  0  0
   -5.9550   24.0690  -31.0860 C   0  0  0  0  0  0  0  0  0  0  0  0
   -7.2180   23.4740  -31.0760 C   0  0  0  0  0  0  0  0  0  0  0  0
   -7.3740   22.1900  -31.6020 C   0  0  0  0  0  0  0  0  0  0  0  0
   -6.2680   21.5020  -32.1340 C   0  0  0  0  0  0  0  0  0  0  0  0
   -6.3980   20.1390  -32.7100 C   0  0  0  0  0  0  0  0  0  0  0  0
   -7.2370   19.1690  -32.1370 C   0  0  0  0  0  0  0  0  0  0  0  0
   -7.3070   17.9080  -32.7290 C   0  0  0  0  0  0  0  0  0  0  0  0
   -6.5680   17.6330  -33.8350 N   0  0  0  0  0  0  0  0  0  0  0  0
   -5.7540   18.5750  -34.3770 C   0  0  0  0  0  0  0  0  0  0  0  0
   -5.6730   19.8090  -33.8150 N   0  0  0  0  0  0  0  0  0  0  0  0
   -5.0210   22.1510  -32.1310 C   0  0  0  0  0  0  0  0  0  0  0  0
   -4.8950   23.4010  -31.6100 N   0  0  0  0  0  0  0  0  0  0  0  0
   -8.0818   24.0115  -30.6578 H   0  0  0  0  0  0  0  0  0  0  0  0
   -8.3658   21.7143  -31.6004 H   0  0  0  0  0  0  0  0  0  0  0  0
   -7.8278   19.3996  -31.2382 H   0  0  0  0  0  0  0  0  0  0  0  0
   -7.9615   17.1352  -32.2996 H   0  0  0  0  0  0  0  0  0  0  0  0
   -5.1597   18.3386  -35.2719 H   0  0  0  0  0  0  0  0  0  0  0  0
   -4.1407   21.6441  -32.5531 H   0  0  0  0  0  0  0  0  0  0  0  0
  1  2  1  0
  2  3  2  0
  3  4  1  0
  4  5  2  0
  5  6  1  0
  6  7  2  0
  7  8  1  0
  8  9  2  0
  9 10  1  0
 10 11  2  0
  5 12  1  0
 12 13  2  0
 13  2  1  0
 11  6  1  0
  3 14  1  0
  4 15  1  0
  7 16  1  0
  8 17  1  0
 10 18  1  0
 12 19  1  0
M  END
>  <UniqueID>  (15) 
15

>  <SMILES>  (15) 
Clc1ccc(-c2ccncn2)cn1

>  <Energy>  (15) 
25.660139216332116

>  <Genealogy>  (15) 
Clc1ccc(-c2ccncn2)cn1 (3D coordinates assigned)
Clc1ccc(-c2ccncn2)cn1 (optimized conformer: 25.660139216332116 kcal/mol)

>  <smiles>  (15) 
Clc1ccc(-c2ccncn2)cn1

>  <score_type>  (15) 
oracle

>  <origin>  (15) 
adg

>  <m_score__min__energy>  (15) 
-5.7699999999999996

>  <m_primary>  (15) 
energy

$$$$
15:0
     RDKit          3D

 42 43  0  0  0  0  0  0  0  0999 V2000
   -2.0560   19.7530  -27.6490 C   0  0  0  0  0  0  0  0  0  0  0  0
   -2.2610   20.1540  -29.0010 O   0  0  0  0  0  0  0  0  0  0  0  0
   -2.6480   21.4440  -29.4040 C   0  0  0  0  0  0  0  0  0  0  0  0
   -2.1440   22.5930  -28.7730 C   0  0  0  0  0  0  0  0  0  0  0  0
   -2.5370   23.8700  -29.1860 C   0  0  0  0  0  0  0  0  0  0  0  0
   -1.9590   25.0740  -28.4910 C   0  0  0  0  0  0  0  0  0  0  0  0
   -3.4910   24.0060  -30.2120 C   0  0  0  0  0  0  0  0  0  0  0  0
   -3.9200   25.2780  -30.6090 O   0  0  0  0  0  0  0  0  0  0  0  0
   -5.2730   25.6900  -30.4540 C   0  0  0  0  0  0  0  0  0  0  0  0
   -4.0040   22.8640  -30.8610 C   0  0  0  0  0  0  0  0  0  0  0  0
   -3.5600   21.5760  -30.4700 C   0  0  0  0  0  0  0  0  0  0  0  0
   -4.0910   20.3130  -31.1160 C   0  0  0  0  0  0  0  0  0  0  0  0
   -4.9260   20.5440  -32.3780 C   0  0  0  0  0  0  0  0  0  0  0  0
   -5.8170   21.8060  -32.3390 C   0  0  1  0  0  0  0  0  0  0  0  0
   -7.0770   21.7190  -31.5310 N   0  0  0  0  0  0  0  0  0  0  0  0
   -7.6420   23.0490  -31.2270 C   0  0  0  0  0  0  0  0  0  0  0  0
   -8.1310   20.8360  -32.0670 C   0  0  0  0  0  0  0  0  0  0  0  0
   -4.9640   23.0510  -32.0190 C   0  0  0  0  0  0  0  0  0  0  0  0
   -2.4511   20.5259  -26.9734 H   0  0  0  0  0  0  0  0  0  0  0  0
   -2.5790   18.8029  -27.4650 H   0  0  0  0  0  0  0  0  0  0  0  0
   -0.9796   19.6206  -27.4650 H   0  0  0  0  0  0  0  0  0  0  0  0
   -1.4304   22.4871  -27.9426 H   0  0  0  0  0  0  0  0  0  0  0  0
   -2.0254   24.9356  -27.4018 H   0  0  0  0  0  0  0  0  0  0  0  0
   -0.9050   25.1943  -28.7817 H   0  0  0  0  0  0  0  0  0  0  0  0
   -2.5243   25.9717  -28.7817 H   0  0  0  0  0  0  0  0  0  0  0  0
   -5.5136   25.7633  -29.3831 H   0  0  0  0  0  0  0  0  0  0  0  0
   -5.4141   26.6718  -30.9295 H   0  0  0  0  0  0  0  0  0  0  0  0
   -5.9374   24.9534  -30.9295 H   0  0  0  0  0  0  0  0  0  0  0  0
   -3.2335   19.6781  -31.3837 H   0  0  0  0  0  0  0  0  0  0  0  0
   -4.7618   19.8454  -30.3802 H   0  0  0  0  0  0  0  0  0  0  0  0
   -4.2387   20.6358  -33.2319 H   0  0  0  0  0  0  0  0  0  0  0  0
   -5.6072   19.6844  -32.4622 H   0  0  0  0  0  0  0  0  0  0  0  0
   -6.2248   21.9015  -33.3561 H   0  0  0  0  0  0  0  0  0  0  0  0
   -6.8040   21.3090  -30.6050 H   0  0  0  0  0  0  0  0  0  0  0  0
   -7.6988   23.1827  -30.1366 H   0  0  0  0  0  0  0  0  0  0  0  0
   -6.9974   23.8287  -31.6590 H   0  0  0  0  0  0  0  0  0  0  0  0
   -8.6507   23.1263  -31.6590 H   0  0  0  0  0  0  0  0  0  0  0  0
   -8.6816   20.3747  -31.2339 H   0  0  0  0  0  0  0  0  0  0  0  0
   -8.8253   21.4260  -32.6833 H   0  0  0  0  0  0  0  0  0  0  0  0
   -7.6717   20.0491  -32.6833 H   0  0  0  0  0  0  0  0  0  0  0  0
   -4.3790   23.3081  -32.9144 H   0  0  0  0  0  0  0  0  0  0  0  0
   -5.6637   23.8472  -31.7248 H   0  0  0  0  0  0  0  0  0  0  0  0
  1  2  1  0
  2  3  1  0
  3  4  2  0
  4  5  1  0
  5  6  1  0
  5  7  2  0
  7  8  1  0
  8  9  1  0
  7 10  1  0
 10 11  2  0
 11 12  1  0
 12 13  1  0
 13 14  1  0
 14 15  1  0
 15 16  1  0
 15 17  1  0
 14 18  1  0
 11  3  1  0
 18 10  1  0
  1 19  1  0
  1 20  1  0
  1 21  1  0
  4 22  1  0
  6 23  1  0
  6 24  1  0
  6 25  1  0
  9 26  1  0
  9 27  1  0
  9 28  1  0
 12 29  1  0
 12 30  1  0
 13 31  1  0
 13 32  1  0
 14 33  1  6
 15 34  1  0
 16 35  1  0
 16 36  1  0
 16 37  1  0
 17 38  1  0
 17 39  1  0
 17 40  1  0
 18 41  1  0
 18 42  1  0
M  CHG  1  15   1
M  END
>  <UniqueID>  (16) 
16

>  <SMILES>  (16) 
COc1cc(C)c(OC)c2c1CC[C@@H]([NH+](C)C)C2

>  <Energy>  (16) 
59.69898042585332

>  <Genealogy>  (16) 
COc1cc(C)c(OC)c2c1CCC([NH+](C)C)C2 (protonated)
COc1cc(C)c(OC)c2c1CC[C@@H]([NH+](C)C)C2 (chirality)
COc1cc(C)c(OC)c2c1CC[C@@H]([NH+](C)C)C2 (3D coordinates assigned)
COc1cc(C)c(OC)c2c1CC[C@@H]([NH+](C)C)C2 (nonaromatic ring conformer: 59.69898042585332 kcal/mol)

>  <smiles>  (16) 
COc1cc(C)c(OC)c2c1CCC(N(C)C)C2

>  <score_type>  (16) 
oracle

>  <origin>  (16) 
adg

>  <m_score__min__energy>  (16) 
-5.5499999999999998

>  <m_primary>  (16) 
energy

$$$$
16:0
     RDKit          3D

 35 37  0  0  0  0  0  0  0  0999 V2000
   -2.2320   21.4440  -27.4950 C   0  0  0  0  0  0  0  0  0  0  0  0
   -2.7510   21.7630  -28.8370 N   0  0  0  0  0  0  0  0  0  0  0  0
   -2.3800   23.1270  -29.2620 C   0  0  0  0  0  0  0  0  0  0  0  0
   -3.5370   23.8040  -29.9230 C   0  0  0  0  0  0  0  0  0  0  0  0
   -4.7690   23.2660  -30.0190 N   0  0  0  0  0  0  0  0  0  0  0  0
   -5.4340   24.2530  -30.6570 C   0  0  0  0  0  0  0  0  0  0  0  0
   -6.8700   24.1540  -31.0630 C   0  0  0  0  0  0  0  0  0  0  0  0
   -7.1260   23.2650  -32.2700 C   0  0  0  0  0  0  0  0  0  0  0  0
   -7.4850   22.7750  -30.8770 C   0  0  0  0  0  0  0  0  0  0  0  0
   -4.6490   25.3100  -30.9420 N   0  0  0  0  0  0  0  0  0  0  0  0
   -3.4840   24.9960  -30.4650 O   0  0  0  0  0  0  0  0  0  0  0  0
   -2.3780   20.7370  -29.8400 C   0  0  0  0  0  0  0  0  0  0  0  0
   -3.2190   20.7780  -31.1030 C   0  0  0  0  0  0  0  0  0  0  0  0
   -4.5050   20.2080  -31.1090 C   0  0  0  0  0  0  0  0  0  0  0  0
   -5.2840   20.2280  -32.2700 C   0  0  0  0  0  0  0  0  0  0  0  0
   -7.0240   19.4400  -32.2660 Br  0  0  0  0  0  0  0  0  0  0  0  0
   -4.7920   20.8270  -33.4330 C   0  0  0  0  0  0  0  0  0  0  0  0
   -3.5220   21.4100  -33.4340 C   0  0  0  0  0  0  0  0  0  0  0  0
   -2.7380   21.3920  -32.2770 C   0  0  0  0  0  0  0  0  0  0  0  0
   -1.5180   21.9860  -32.3010 F   0  0  0  0  0  0  0  0  0  0  0  0
   -2.9074   21.8591  -26.7324 H   0  0  0  0  0  0  0  0  0  0  0  0
   -2.1709   20.3522  -27.3755 H   0  0  0  0  0  0  0  0  0  0  0  0
   -1.2303   21.8826  -27.3755 H   0  0  0  0  0  0  0  0  0  0  0  0
   -2.0752   23.7101  -28.3805 H   0  0  0  0  0  0  0  0  0  0  0  0
   -1.5494   23.0615  -29.9802 H   0  0  0  0  0  0  0  0  0  0  0  0
   -7.1487   25.1785  -30.7754 H   0  0  0  0  0  0  0  0  0  0  0  0
   -7.9218   23.5232  -32.9842 H   0  0  0  0  0  0  0  0  0  0  0  0
   -6.5103   22.8785  -33.0955 H   0  0  0  0  0  0  0  0  0  0  0  0
   -8.5406   22.6787  -30.5829 H   0  0  0  0  0  0  0  0  0  0  0  0
   -7.2368   21.8872  -30.2768 H   0  0  0  0  0  0  0  0  0  0  0  0
   -1.3255   20.8922  -30.1194 H   0  0  0  0  0  0  0  0  0  0  0  0
   -2.5504   19.7561  -29.3730 H   0  0  0  0  0  0  0  0  0  0  0  0
   -4.9006   19.7432  -30.1939 H   0  0  0  0  0  0  0  0  0  0  0  0
   -5.4041   20.8395  -34.3469 H   0  0  0  0  0  0  0  0  0  0  0  0
   -3.1378   21.8849  -34.3488 H   0  0  0  0  0  0  0  0  0  0  0  0
  1  2  1  0
  2  3  1  0
  3  4  1  0
  4  5  2  0
  5  6  1  0
  6  7  1  0
  7  8  1  0
  8  9  1  0
  6 10  2  0
 10 11  1  0
  2 12  1  0
 12 13  1  0
 13 14  2  0
 14 15  1  0
 15 16  1  0
 15 17  2  0
 17 18  1  0
 18 19  2  0
 19 20  1  0
 11  4  1  0
 19 13  1  0
  9  7  1  0
  1 21  1  0
  1 22  1  0
  1 23  1  0
  3 24  1  0
  3 25  1  0
  7 26  1  0
  8 27  1  0
  8 28  1  0
  9 29  1  0
  9 30  1  0
 12 31  1  0
 12 32  1  0
 14 33  1  0
 17 34  1  0
 18 35  1  0
M  END
>  <UniqueID>  (17) 
17

>  <SMILES>  (17) 
CN(Cc1nc(C2CC2)no1)Cc1cc(Br)ccc1F

>  <Energy>  (17) 
334.364123387844

>  <Genealogy>  (17) 
CN(Cc1nc(C2CC2)no1)Cc1cc(Br)ccc1F (3D coordinates assigned)
CN(Cc1nc(C2CC2)no1)Cc1cc(Br)ccc1F (nonaromatic ring conformer: 334.364123387844 kcal/mol)

>  <smiles>  (17) 
CN(Cc1nc(C2CC2)no1)Cc1cc(Br)ccc1F

>  <score_type>  (17) 
oracle

>  <origin>  (17) 
adg

>  <m_score__min__energy>  (17) 
-8.1799999999999997

>  <m_primary>  (17) 
energy

$$$$
17:0
     RDKit          3D

 53 55  0  0  0  0  0  0  0  0999 V2000
   -6.4280   25.3160  -29.7630 C   0  0  0  0  0  0  0  0  0  0  0  0
   -5.2790   24.9620  -30.7080 C   0  0  0  0  0  0  0  0  0  0  0  0
   -4.2810   24.0840  -30.0450 N   0  0  0  0  0  0  0  0  0  0  0  0
   -4.4840   24.1230  -28.5740 C   0  0  0  0  0  0  0  0  0  0  0  0
   -3.1590   24.2010  -27.8060 C   0  0  0  0  0  0  0  0  0  0  0  0
   -4.3420   22.6920  -30.5810 C   0  0  0  0  0  0  0  0  0  0  0  0
   -3.1570   22.4110  -31.5210 C   0  0  0  0  0  0  0  0  0  0  0  0
   -3.4610   21.3050  -32.5480 C   0  0  0  0  0  0  0  0  0  0  0  0
   -4.5990   21.6570  -33.4200 N   0  0  0  0  0  0  0  0  0  0  0  0
   -5.7650   20.8210  -33.1370 C   0  0  0  0  0  0  0  0  0  0  0  0
   -5.7220   19.4230  -33.4110 C   0  0  0  0  0  0  0  0  0  0  0  0
   -4.6100   18.8200  -34.0580 C   0  0  0  0  0  0  0  0  0  0  0  0
   -4.6030   17.4640  -34.3690 C   0  0  0  0  0  0  0  0  0  0  0  0
   -5.6970   16.6710  -34.0540 C   0  0  0  0  0  0  0  0  0  0  0  0
   -6.7900   17.2230  -33.3930 C   0  0  0  0  0  0  0  0  0  0  0  0
   -6.8120   18.5940  -33.0220 C   0  0  0  0  0  0  0  0  0  0  0  0
   -7.8620   19.1190  -32.3000 N   0  0  0  0  0  0  0  0  0  0  0  0
   -8.7990   18.2120  -31.5930 C   0  0  0  0  0  0  0  0  0  0  0  0
   -8.0180   20.4860  -32.1980 C   0  0  0  0  0  0  0  0  0  0  0  0
   -9.2360   21.0460  -31.7290 C   0  0  0  0  0  0  0  0  0  0  0  0
   -9.3770   22.4190  -31.5460 C   0  0  0  0  0  0  0  0  0  0  0  0
   -8.3190   23.2690  -31.8280 C   0  0  0  0  0  0  0  0  0  0  0  0
   -7.1250   22.7590  -32.3340 C   0  0  0  0  0  0  0  0  0  0  0  0
   -6.9550   21.3660  -32.5650 C   0  0  0  0  0  0  0  0  0  0  0  0
   -6.0910   25.2122  -28.7210 H   0  0  0  0  0  0  0  0  0  0  0  0
   -6.7453   26.3536  -29.9441 H   0  0  0  0  0  0  0  0  0  0  0  0
   -7.2742   24.6369  -29.9441 H   0  0  0  0  0  0  0  0  0  0  0  0
   -5.6864   24.4405  -31.5867 H   0  0  0  0  0  0  0  0  0  0  0  0
   -4.7760   25.8942  -31.0049 H   0  0  0  0  0  0  0  0  0  0  0  0
   -5.0905   25.0059  -28.3238 H   0  0  0  0  0  0  0  0  0  0  0  0
   -4.9898   23.1918  -28.2791 H   0  0  0  0  0  0  0  0  0  0  0  0
   -3.3607   24.1891  -26.7247 H   0  0  0  0  0  0  0  0  0  0  0  0
   -2.5301   23.3383  -28.0712 H   0  0  0  0  0  0  0  0  0  0  0  0
   -2.6357   25.1315  -28.0712 H   0  0  0  0  0  0  0  0  0  0  0  0
   -4.3117   21.9816  -29.7417 H   0  0  0  0  0  0  0  0  0  0  0  0
   -5.2761   22.5762  -31.1502 H   0  0  0  0  0  0  0  0  0  0  0  0
   -2.9109   23.3361  -32.0629 H   0  0  0  0  0  0  0  0  0  0  0  0
   -2.3164   22.0661  -30.9011 H   0  0  0  0  0  0  0  0  0  0  0  0
   -2.5701   21.1467  -33.1735 H   0  0  0  0  0  0  0  0  0  0  0  0
   -3.7266   20.3919  -31.9951 H   0  0  0  0  0  0  0  0  0  0  0  0
   -4.7820   22.6790  -33.3660 H   0  0  0  0  0  0  0  0  0  0  0  0
   -4.3180   21.5500  -34.4200 H   0  0  0  0  0  0  0  0  0  0  0  0
   -3.7375   19.4374  -34.3181 H   0  0  0  0  0  0  0  0  0  0  0  0
   -3.7280   17.0195  -34.8658 H   0  0  0  0  0  0  0  0  0  0  0  0
   -5.7003   15.6054  -34.3269 H   0  0  0  0  0  0  0  0  0  0  0  0
   -7.6537   16.5854  -33.1531 H   0  0  0  0  0  0  0  0  0  0  0  0
   -8.6755   18.3316  -30.5065 H   0  0  0  0  0  0  0  0  0  0  0  0
   -9.8329   18.4612  -31.8741 H   0  0  0  0  0  0  0  0  0  0  0  0
   -8.5835   17.1706  -31.8741 H   0  0  0  0  0  0  0  0  0  0  0  0
  -10.0843   20.3822  -31.5060 H   0  0  0  0  0  0  0  0  0  0  0  0
  -10.3286   22.8295  -31.1774 H   0  0  0  0  0  0  0  0  0  0  0  0
   -8.4223   24.3499  -31.6517 H   0  0  0  0  0  0  0  0  0  0  0  0
   -6.2973   23.4476  -32.5593 H   0  0  0  0  0  0  0  0  0  0  0  0
  1  2  1  0
  2  3  1  0
  3  4  1  0
  4  5  1  0
  3  6  1  0
  6  7  1  0
  7  8  1  0
  8  9  1  0
  9 10  1  0
 10 11  2  0
 11 12  1  0
 12 13  2  0
 13 14  1  0
 14 15  2  0
 15 16  1  0
 16 17  2  0
 17 18  1  0
 17 19  1  0
 19 20  2  0
 20 21  1  0
 21 22  2  0
 22 23  1  0
 23 24  2  0
 24 10  1  0
 16 11  1  0
 24 19  1  0
  1 25  1  0
  1 26  1  0
  1 27  1  0
  2 28  1  0
  2 29  1  0
  4 30  1  0
  4 31  1  0
  5 32  1  0
  5 33  1  0
  5 34  1  0
  6 35  1  0
  6 36  1  0
  7 37  1  0
  7 38  1  0
  8 39  1  0
  8 40  1  0
  9 41  1  0
  9 42  1  0
 12 43  1  0
 13 44  1  0
 14 45  1  0
 15 46  1  0
 18 47  1  0
 18 48  1  0
 18 49  1  0
 20 50  1  0
 21 51  1  0
 22 52  1  0
 23 53  1  0
M  CHG  2   9   1  17   1
M  END
>  <UniqueID>  (18) 
18

>  <SMILES>  (18) 
CCN(CC)CCC[NH2+]c1c2ccccc2[n+](C)c2ccccc12

>  <Energy>  (18) 
81.23494687505833

>  <Genealogy>  (18) 
CCN(CC)CCC[NH2+]c1c2ccccc2[n+](C)c2ccccc12 (protonated)
CCN(CC)CCC[NH2+]c1c2ccccc2[n+](C)c2ccccc12 (3D coordinates assigned)
CCN(CC)CCC[NH2+]c1c2ccccc2[n+](C)c2ccccc12 (optimized conformer: 81.23494687505833 kcal/mol)

>  <smiles>  (18) 
CCN(CC)CCCNc1c2ccccc2[n+](C)c2ccccc12

>  <score_type>  (18) 
oracle

>  <origin>  (18) 
adg

>  <m_score__min__energy>  (18) 
-8.3599999999999994

>  <m_primary>  (18) 
energy

$$$$
18:0
     RDKit          3D

 44 46  0  0  0  0  0  0  0  0999 V2000
   -9.0720   18.5290  -31.5620 C   0  0  0  0  0  0  0  0  0  0  0  0
   -8.7270   19.4660  -32.7130 C   0  0  0  0  0  0  0  0  0  0  0  0
   -7.2470   19.5030  -32.9330 C   0  0  0  0  0  0  0  0  0  0  0  0
   -6.3400   19.5840  -31.9360 N   0  0  0  0  0  0  0  0  0  0  0  0
   -5.1850   19.6570  -32.6330 C   0  0  0  0  0  0  0  0  0  0  0  0
   -3.8350   19.7770  -31.9990 C   0  0  0  0  0  0  0  0  0  0  0  0
   -3.2460   21.1100  -32.2620 N   0  0  0  0  0  0  0  0  0  0  0  0
   -4.1300   21.9620  -33.0940 C   0  0  0  0  0  0  0  0  0  0  0  0
   -4.9880   22.9400  -32.2670 C   0  0  0  0  0  0  0  0  0  0  0  0
   -5.2920   22.3520  -30.9450 N   0  0  0  0  0  0  0  0  0  0  0  0
   -6.3700   23.1230  -30.2590 C   0  0  0  0  0  0  0  0  0  0  0  0
   -7.5970   22.2860  -29.8590 C   0  0  0  0  0  0  0  0  0  0  0  0
   -8.4320   22.1580  -31.1190 C   0  0  0  0  0  0  0  0  0  0  0  0
   -8.1280   23.4040  -31.9450 C   0  0  0  0  0  0  0  0  0  0  0  0
   -6.9880   24.1320  -31.2360 C   0  0  0  0  0  0  0  0  0  0  0  0
   -4.0350   22.2470  -30.1620 C   0  0  0  0  0  0  0  0  0  0  0  0
   -2.8300   21.8110  -31.0280 C   0  0  0  0  0  0  0  0  0  0  0  0
   -5.3910   19.6340  -33.9280 O   0  0  0  0  0  0  0  0  0  0  0  0
   -6.6650   19.5420  -34.1450 N   0  0  0  0  0  0  0  0  0  0  0  0
   -8.8843   19.0387  -30.6054 H   0  0  0  0  0  0  0  0  0  0  0  0
  -10.1332   18.2463  -31.6248 H   0  0  0  0  0  0  0  0  0  0  0  0
   -8.4475   17.6256  -31.6248 H   0  0  0  0  0  0  0  0  0  0  0  0
   -9.2205   19.1105  -33.6296 H   0  0  0  0  0  0  0  0  0  0  0  0
   -9.0751   20.4792  -32.4636 H   0  0  0  0  0  0  0  0  0  0  0  0
   -3.9330   19.6342  -30.9127 H   0  0  0  0  0  0  0  0  0  0  0  0
   -3.1747   19.0093  -32.4286 H   0  0  0  0  0  0  0  0  0  0  0  0
   -3.5035   22.5453  -33.7848 H   0  0  0  0  0  0  0  0  0  0  0  0
   -4.8211   21.2922  -33.6267 H   0  0  0  0  0  0  0  0  0  0  0  0
   -4.4362   23.8815  -32.1288 H   0  0  0  0  0  0  0  0  0  0  0  0
   -5.9298   23.1346  -32.8010 H   0  0  0  0  0  0  0  0  0  0  0  0
   -5.8664   23.5477  -29.3781 H   0  0  0  0  0  0  0  0  0  0  0  0
   -7.2849   21.2932  -29.5027 H   0  0  0  0  0  0  0  0  0  0  0  0
   -8.1627   22.7578  -29.0421 H   0  0  0  0  0  0  0  0  0  0  0  0
   -8.1507   21.2514  -31.6749 H   0  0  0  0  0  0  0  0  0  0  0  0
   -9.5044   22.0759  -30.8884 H   0  0  0  0  0  0  0  0  0  0  0  0
   -7.8215   23.1192  -32.9623 H   0  0  0  0  0  0  0  0  0  0  0  0
   -9.0156   24.0478  -32.0319 H   0  0  0  0  0  0  0  0  0  0  0  0
   -6.2357   24.4635  -31.9668 H   0  0  0  0  0  0  0  0  0  0  0  0
   -7.3529   25.0255  -30.7083 H   0  0  0  0  0  0  0  0  0  0  0  0
   -3.8132   23.2288  -29.7183 H   0  0  0  0  0  0  0  0  0  0  0  0
   -4.1863   21.4780  -29.3901 H   0  0  0  0  0  0  0  0  0  0  0  0
   -2.2537   22.7054  -31.3071 H   0  0  0  0  0  0  0  0  0  0  0  0
   -2.2253   21.1111  -30.4326 H   0  0  0  0  0  0  0  0  0  0  0  0
   -7.1260   19.5190  -35.0800 H   0  0  0  0  0  0  0  0  0  0  0  0
  1  2  1  0
  2  3  1  0
  3  4  1  0
  4  5  2  0
  5  6  1  0
  6  7  1  0
  7  8  1  0
  8  9  1  0
  9 10  1  0
 10 11  1  0
 11 12  1  0
 12 13  1  0
 13 14  1  0
 14 15  1  0
 10 16  1  0
 16 17  1  0
  5 18  1  0
 18 19  1  0
 19  3  2  0
 17  7  1  0
 15 11  1  0
  1 20  1  0
  1 21  1  0
  1 22  1  0
  2 23  1  0
  2 24  1  0
  6 25  1  0
  6 26  1  0
  8 27  1  0
  8 28  1  0
  9 29  1  0
  9 30  1  0
 11 31  1  0
 12 32  1  0
 12 33  1  0
 13 34  1  0
 13 35  1  0
 14 36  1  0
 14 37  1  0
 15 38  1  0
 15 39  1  0
 16 40  1  0
 16 41  1  0
 17 42  1  0
 17 43  1  0
 19 44  1  0
M  CHG  1  19   1
M  END
>  <UniqueID>  (19) 
19

>  <SMILES>  (19) 
CCc1nc(CN2CCN(C3CCCC3)CC2)o[nH+]1

>  <Energy>  (19) 
91.1971988364656

>  <Genealogy>  (19) 
CCc1nc(CN2CCN(C3CCCC3)CC2)o[nH+]1 (protonated)
CCc1nc(CN2CCN(C3CCCC3)CC2)o[nH+]1 (3D coordinates assigned)
CCc1nc(CN2CCN(C3CCCC3)CC2)o[nH+]1 (nonaromatic ring conformer: 91.1971988364656 kcal/mol)

>  <smiles>  (19) 
CCc1noc(CN2CCN(C3CCCC3)CC2)n1

>  <score_type>  (19) 
oracle

>  <origin>  (19) 
adg

>  <m_score__min__energy>  (19) 
-6.8600000000000003

>  <m_primary>  (19) 
energy

$$$$
19:0
     RDKit          3D

 27 27  0  0  0  0  0  0  0  0999 V2000
   -2.4600   25.0730  -30.3110 H   0  0  0  0  0  0  0  0  0  0  0  0
   -2.1700   25.2790  -29.3290 N   0  0  0  0  0  0  0  0  0  0  0  0
   -1.1540   23.9760  -28.8190 S   0  0  0  0  0  0  0  0  0  0  0  0
   -1.4260   23.6270  -27.3830 O   0  0  0  0  0  0  0  0  0  0  0  0
    0.2690   24.4530  -28.9160 O   0  0  0  0  0  0  0  0  0  0  0  0
   -1.3910   22.5690  -29.8810 C   0  0  0  0  0  0  0  0  0  0  0  0
   -0.3870   21.5830  -29.8280 C   0  0  0  0  0  0  0  0  0  0  0  0
    0.3159   21.5721  -28.9819 H   0  0  0  0  0  0  0  0  0  0  0  0
   -0.2720   20.6470  -30.8020 N   0  0  0  0  0  0  0  0  0  0  0  0
   -1.1090   20.6190  -31.8650 C   0  0  0  0  0  0  0  0  0  0  0  0
   -0.9685   19.8686  -32.6569 H   0  0  0  0  0  0  0  0  0  0  0  0
   -2.1480   21.5410  -31.9550 C   0  0  0  0  0  0  0  0  0  0  0  0
   -2.8134   21.5277  -32.8308 H   0  0  0  0  0  0  0  0  0  0  0  0
   -2.3550   22.4870  -30.9400 C   0  0  0  0  0  0  0  0  0  0  0  0
   -3.4730   23.1620  -31.0230 N   0  0  0  0  0  0  0  0  0  0  0  0
   -4.6550   23.0310  -31.8700 C   0  0  0  0  0  0  0  0  0  0  0  0
   -4.4271   23.4178  -32.8742 H   0  0  0  0  0  0  0  0  0  0  0  0
   -4.9367   21.9695  -31.9314 H   0  0  0  0  0  0  0  0  0  0  0  0
   -5.8250   23.8260  -31.2740 C   0  0  0  0  0  0  0  0  0  0  0  0
   -6.3802   24.3080  -32.0922 H   0  0  0  0  0  0  0  0  0  0  0  0
   -6.4647   23.1244  -30.7185 H   0  0  0  0  0  0  0  0  0  0  0  0
   -5.3460   24.9070  -30.2960 C   0  0  0  0  0  0  0  0  0  0  0  0
   -6.1802   25.5897  -30.0767 H   0  0  0  0  0  0  0  0  0  0  0  0
   -4.9977   24.4181  -29.3742 H   0  0  0  0  0  0  0  0  0  0  0  0
   -4.2400   25.6710  -30.8660 N   0  0  0  0  0  0  0  0  0  0  0  0
   -3.8750   26.3160  -30.1290 H   0  0  0  0  0  0  0  0  0  0  0  0
   -3.4680   25.0000  -31.0830 H   0  0  0  0  0  0  0  0  0  0  0  0
  1  2  1  0
  2  3  1  0
  3  4  2  0
  3  5  2  0
  3  6  1  0
  6  7  2  0
  7  8  1  0
  7  9  1  0
  9 10  1  0
 10 11  1  0
 10 12  2  0
 12 13  1  0
 12 14  1  0
 14 15  2  0
 15 16  1  0
 16 17  1  0
 16 18  1  0
 16 19  1  0
 19 20  1  0
 19 21  1  0
 19 22  1  0
 22 23  1  0
 22 24  1  0
 22 25  1  0
 25 26  1  0
 25 27  1  0
 14  6  1  0
M  CHG  2   2  -1   9  -1
M  END
>  <UniqueID>  (20) 
20

>  <SMILES>  (20) 
[NH-]S(=O)(=O)c1c[n-]cc/c1=N/CCCN

>  <Energy>  (20) 
39.36878337953217

>  <Genealogy>  (20) 
[NH-]S(=O)(=O)c1c[n-]ccc1=NCCCN (protonated)
[NH-]S(=O)(=O)c1c[n-]cc/c1=N/CCCN (cis-trans isomerization)
[NH-]S(=O)(=O)c1c[n-]cc/c1=N/CCCN (3D coordinates assigned)
[NH-]S(=O)(=O)c1c[n-]cc/c1=N/CCCN (optimized conformer: 39.36878337953217 kcal/mol)

>  <smiles>  (20) 
NCCCN=c1cc[nH]cc1S(N)(=O)=O

>  <score_type>  (20) 
oracle

>  <origin>  (20) 
adg

>  <m_score__min__energy>  (20) 
-7.7800000000000002

>  <m_primary>  (20) 
energy

$$$$
20:0
     RDKit          3D

 51 53  0  0  0  0  0  0  0  0999 V2000
   -0.8660   26.7640  -28.2750 C   0  0  0  0  0  0  0  0  0  0  0  0
   -1.5110   25.6910  -28.9560 O   0  0  0  0  0  0  0  0  0  0  0  0
   -1.4530   24.3430  -28.5650 C   0  0  0  0  0  0  0  0  0  0  0  0
   -0.2230   23.6790  -28.3780 C   0  0  0  0  0  0  0  0  0  0  0  0
   -0.1950   22.3220  -28.0460 C   0  0  0  0  0  0  0  0  0  0  0  0
   -1.3890   21.6130  -27.8980 C   0  0  0  0  0  0  0  0  0  0  0  0
   -2.6140   22.2630  -28.0670 C   0  0  0  0  0  0  0  0  0  0  0  0
   -2.6580   23.6300  -28.3790 C   0  0  0  0  0  0  0  0  0  0  0  0
   -3.9350   24.2700  -28.5230 N   0  0  0  0  0  0  0  0  0  0  0  0
   -4.7730   24.3150  -30.0420 S   0  0  0  0  0  0  0  0  0  0  0  0
   -6.2520   24.4420  -29.8040 O   0  0  0  0  0  0  0  0  0  0  0  0
   -4.3100   25.5090  -30.8280 O   0  0  0  0  0  0  0  0  0  0  0  0
   -4.4120   22.8600  -30.9690 C   0  0  0  0  0  0  0  0  0  0  0  0
   -4.3170   22.9340  -32.3630 C   0  0  0  0  0  0  0  0  0  0  0  0
   -4.0020   21.7960  -33.1110 C   0  0  0  0  0  0  0  0  0  0  0  0
   -3.7820   20.5640  -32.4710 C   0  0  0  0  0  0  0  0  0  0  0  0
   -3.4300   19.3670  -33.2720 C   0  0  0  0  0  0  0  0  0  0  0  0
   -2.2470   19.2580  -33.7000 O   0  0  0  0  0  0  0  0  0  0  0  0
   -4.3930   18.3330  -33.5780 N   0  0  0  0  0  0  0  0  0  0  0  0
   -3.8730   16.9750  -33.8450 C   0  0  0  0  0  0  0  0  0  0  0  0
   -4.5170   15.8720  -32.9860 C   0  0  0  0  0  0  0  0  0  0  0  0
   -5.7920   15.2700  -33.5980 C   0  0  0  0  0  0  0  0  0  0  0  0
   -6.7860   16.2960  -34.1630 C   0  0  0  0  0  0  0  0  0  0  0  0
   -6.8110   17.6250  -33.3890 C   0  0  0  0  0  0  0  0  0  0  0  0
   -5.7970   18.6900  -33.8680 C   0  0  0  0  0  0  0  0  0  0  0  0
   -3.8550   20.5000  -31.0690 C   0  0  0  0  0  0  0  0  0  0  0  0
   -4.1780   21.6370  -30.3240 C   0  0  0  0  0  0  0  0  0  0  0  0
   -0.9554   26.6153  -27.1888 H   0  0  0  0  0  0  0  0  0  0  0  0
    0.1974   26.7897  -28.5553 H   0  0  0  0  0  0  0  0  0  0  0  0
   -1.3422   27.7152  -28.5553 H   0  0  0  0  0  0  0  0  0  0  0  0
    0.7203   24.2328  -28.4942 H   0  0  0  0  0  0  0  0  0  0  0  0
    0.7686   21.8116  -27.9011 H   0  0  0  0  0  0  0  0  0  0  0  0
   -1.3649   20.5420  -27.6482 H   0  0  0  0  0  0  0  0  0  0  0  0
   -3.5514   21.6985  -27.9545 H   0  0  0  0  0  0  0  0  0  0  0  0
   -4.2250   24.9750  -27.8070 H   0  0  0  0  0  0  0  0  0  0  0  0
   -4.4911   23.8929  -32.8730 H   0  0  0  0  0  0  0  0  0  0  0  0
   -3.9259   21.8649  -34.2062 H   0  0  0  0  0  0  0  0  0  0  0  0
   -4.0549   16.7380  -34.9037 H   0  0  0  0  0  0  0  0  0  0  0  0
   -2.8033   16.9904  -33.5892 H   0  0  0  0  0  0  0  0  0  0  0  0
   -3.7825   15.0642  -32.8521 H   0  0  0  0  0  0  0  0  0  0  0  0
   -4.8098   16.3390  -32.0341 H   0  0  0  0  0  0  0  0  0  0  0  0
   -5.4937   14.5974  -34.4157 H   0  0  0  0  0  0  0  0  0  0  0  0
   -6.3137   14.7547  -32.7781 H   0  0  0  0  0  0  0  0  0  0  0  0
   -6.5110   16.5074  -35.2069 H   0  0  0  0  0  0  0  0  0  0  0  0
   -7.7893   15.8537  -34.0742 H   0  0  0  0  0  0  0  0  0  0  0  0
   -7.8206   18.0521  -33.4803 H   0  0  0  0  0  0  0  0  0  0  0  0
   -6.5272   17.3793  -32.3550 H   0  0  0  0  0  0  0  0  0  0  0  0
   -5.9082   18.8137  -34.9553 H   0  0  0  0  0  0  0  0  0  0  0  0
   -6.0167   19.6183  -33.3203 H   0  0  0  0  0  0  0  0  0  0  0  0
   -3.6565   19.5482  -30.5546 H   0  0  0  0  0  0  0  0  0  0  0  0
   -4.2490   21.5726  -29.2282 H   0  0  0  0  0  0  0  0  0  0  0  0
  1  2  1  0
  2  3  1  0
  3  4  2  0
  4  5  1  0
  5  6  2  0
  6  7  1  0
  7  8  2  0
  8  9  1  0
  9 10  1  0
 10 11  2  0
 10 12  2  0
 10 13  1  0
 13 14  2  0
 14 15  1  0
 15 16  2  0
 16 17  1  0
 17 18  2  0
 17 19  1  0
 19 20  1  0
 20 21  1  0
 21 22  1  0
 22 23  1  0
 23 24  1  0
 24 25  1  0
 16 26  1  0
 26 27  2  0
  8  3  1  0
 27 13  1  0
 25 19  1  0
  1 28  1  0
  1 29  1  0
  1 30  1  0
  4 31  1  0
  5 32  1  0
  6 33  1  0
  7 34  1  0
  9 35  1  0
 14 36  1  0
 15 37  1  0
 20 38  1  0
 20 39  1  0
 21 40  1  0
 21 41  1  0
 22 42  1  0
 22 43  1  0
 23 44  1  0
 23 45  1  0
 24 46  1  0
 24 47  1  0
 25 48  1  0
 25 49  1  0
 26 50  1  0
 27 51  1  0
M  END
>  <UniqueID>  (21) 
21

>  <SMILES>  (21) 
COc1ccccc1NS(=O)(=O)c1ccc(C(=O)N2CCCCCC2)cc1

>  <Energy>  (21) 
65.62185467870859

>  <Genealogy>  (21) 
COc1ccccc1NS(=O)(=O)c1ccc(C(=O)N2CCCCCC2)cc1 (3D coordinates assigned)
COc1ccccc1NS(=O)(=O)c1ccc(C(=O)N2CCCCCC2)cc1 (nonaromatic ring conformer: 65.62185467870859 kcal/mol)

>  <smiles>  (21) 
COc1ccccc1NS(=O)(=O)c1ccc(C(=O)N2CCCCCC2)cc1

>  <score_type>  (21) 
oracle

>  <origin>  (21) 
adg

>  <m_score__min__energy>  (21) 
-7.6500000000000004

>  <m_primary>  (21) 
energy

$$$$
21:0
     RDKit          3D

 34 33  0  0  0  0  0  0  0  0999 V2000
   -6.1030   19.2930  -33.9030 C   0  0  0  0  0  0  0  0  0  0  0  0
   -6.2820   18.7480  -32.4880 C   0  0  0  0  0  0  0  0  0  0  0  0
   -7.5980   17.9640  -32.3620 C   0  0  0  0  0  0  0  0  0  0  0  0
   -8.7170   18.7800  -31.6930 C   0  0  0  0  0  0  0  0  0  0  0  0
   -9.3820   19.8350  -32.5960 C   0  0  0  0  0  0  0  0  0  0  0  0
   -9.3800   21.2620  -32.0010 C   0  0  0  0  0  0  0  0  0  0  0  0
   -8.1300   21.5840  -31.1630 C   0  0  0  0  0  0  0  0  0  0  0  0
   -7.3730   22.8200  -31.6820 C   0  0  0  0  0  0  0  0  0  0  0  0
   -6.0100   22.4630  -32.3000 C   0  0  0  0  0  0  0  0  0  0  0  0
   -4.8040   22.8540  -31.4260 C   0  0  0  0  0  0  0  0  0  0  0  0
   -4.7250   24.2970  -31.2160 N   0  0  0  0  0  0  0  0  0  0  0  0
   -5.4980   24.9020  -30.4080 C   0  0  0  0  0  0  0  0  0  0  0  0
   -6.4770   25.6720  -29.3850 S   0  0  0  0  0  0  0  0  0  0  0  0
   -5.7601   20.3370  -33.8532 H   0  0  0  0  0  0  0  0  0  0  0  0
   -5.3567   18.6871  -34.4376 H   0  0  0  0  0  0  0  0  0  0  0  0
   -7.0633   19.2476  -34.4376 H   0  0  0  0  0  0  0  0  0  0  0  0
   -5.4411   18.0797  -32.2509 H   0  0  0  0  0  0  0  0  0  0  0  0
   -6.3104   19.5953  -31.7871 H   0  0  0  0  0  0  0  0  0  0  0  0
   -7.9304   17.6715  -33.3689 H   0  0  0  0  0  0  0  0  0  0  0  0
   -7.4018   17.0881  -31.7261 H   0  0  0  0  0  0  0  0  0  0  0  0
   -9.4955   18.0796  -31.3563 H   0  0  0  0  0  0  0  0  0  0  0  0
   -8.2429   19.3347  -30.8699 H   0  0  0  0  0  0  0  0  0  0  0  0
   -8.8432   19.8591  -33.5547 H   0  0  0  0  0  0  0  0  0  0  0  0
  -10.4352   19.5387  -32.7098 H   0  0  0  0  0  0  0  0  0  0  0  0
   -9.4373   21.9833  -32.8296 H   0  0  0  0  0  0  0  0  0  0  0  0
  -10.2449   21.3282  -31.3245 H   0  0  0  0  0  0  0  0  0  0  0  0
   -8.4404   21.7711  -30.1244 H   0  0  0  0  0  0  0  0  0  0  0  0
   -7.4499   20.7223  -31.2335 H   0  0  0  0  0  0  0  0  0  0  0  0
   -7.9886   23.3141  -32.4481 H   0  0  0  0  0  0  0  0  0  0  0  0
   -7.1863   23.4812  -30.8229 H   0  0  0  0  0  0  0  0  0  0  0  0
   -5.9793   21.3759  -32.4653 H   0  0  0  0  0  0  0  0  0  0  0  0
   -5.9246   23.0364  -33.2348 H   0  0  0  0  0  0  0  0  0  0  0  0
   -4.8979   22.3576  -30.4489 H   0  0  0  0  0  0  0  0  0  0  0  0
   -3.8893   22.5362  -31.9478 H   0  0  0  0  0  0  0  0  0  0  0  0
  1  2  1  0
  2  3  1  0
  3  4  1  0
  4  5  1  0
  5  6  1  0
  6  7  1  0
  7  8  1  0
  8  9  1  0
  9 10  1  0
 10 11  1  0
 11 12  2  0
 12 13  2  0
  1 14  1  0
  1 15  1  0
  1 16  1  0
  2 17  1  0
  2 18  1  0
  3 19  1  0
  3 20  1  0
  4 21  1  0
  4 22  1  0
  5 23  1  0
  5 24  1  0
  6 25  1  0
  6 26  1  0
  7 27  1  0
  7 28  1  0
  8 29  1  0
  8 30  1  0
  9 31  1  0
  9 32  1  0
 10 33  1  0
 10 34  1  0
M  END
>  <UniqueID>  (22) 
22

>  <SMILES>  (22) 
CCCCCCCCCCN=C=S

>  <Energy>  (22) 
14.24014847459578

>  <Genealogy>  (22) 
CCCCCCCCCCN=C=S (3D coordinates assigned)
CCCCCCCCCCN=C=S (optimized conformer: 14.24014847459578 kcal/mol)

>  <smiles>  (22) 
CCCCCCCCCCN=C=S

>  <score_type>  (22) 
oracle

>  <origin>  (22) 
adg

>  <m_score__min__energy>  (22) 
-5.5899999999999999

>  <m_primary>  (22) 
energy

$$$$
22:0
     RDKit          3D

 27 29  0  0  0  0  0  0  0  0999 V2000
   -8.9170   20.9390  -31.8490 C   0  0  0  0  0  0  0  0  0  0  0  0
   -8.7210   22.1400  -31.1110 O   0  0  0  0  0  0  0  0  0  0  0  0
   -7.4840   22.7820  -30.9620 C   0  0  0  0  0  0  0  0  0  0  0  0
   -6.9700   23.5110  -32.0620 C   0  0  0  0  0  0  0  0  0  0  0  0
   -5.7330   24.1750  -31.9720 C   0  0  0  0  0  0  0  0  0  0  0  0
   -5.0400   24.0910  -30.7700 C   0  0  0  0  0  0  0  0  0  0  0  0
   -3.8560   24.6410  -30.4630 N   0  0  0  0  0  0  0  0  0  0  0  0
   -3.6640   24.2390  -29.1780 C   0  0  0  0  0  0  0  0  0  0  0  0
   -2.4640   24.6060  -28.3920 C   0  0  0  0  0  0  0  0  0  0  0  0
   -2.5730   24.9630  -27.0380 C   0  0  0  0  0  0  0  0  0  0  0  0
   -1.4330   25.3070  -26.3100 C   0  0  0  0  0  0  0  0  0  0  0  0
   -0.1870   25.2890  -26.9400 C   0  0  0  0  0  0  0  0  0  0  0  0
   -0.0930   24.9410  -28.2500 N   0  0  0  0  0  0  0  0  0  0  0  0
   -1.1890   24.6030  -28.9820 C   0  0  0  0  0  0  0  0  0  0  0  0
   -4.6680   23.4710  -28.6760 N   0  0  0  0  0  0  0  0  0  0  0  0
   -5.5230   23.3950  -29.7070 C   0  0  0  0  0  0  0  0  0  0  0  0
   -6.7420   22.7230  -29.7540 C   0  0  0  0  0  0  0  0  0  0  0  0
   -9.0541   20.0988  -31.1524 H   0  0  0  0  0  0  0  0  0  0  0  0
   -9.8106   21.0396  -32.4825 H   0  0  0  0  0  0  0  0  0  0  0  0
   -8.0378   20.7503  -32.4825 H   0  0  0  0  0  0  0  0  0  0  0  0
   -7.5451   23.5586  -32.9984 H   0  0  0  0  0  0  0  0  0  0  0  0
   -5.3281   24.7413  -32.8237 H   0  0  0  0  0  0  0  0  0  0  0  0
   -3.5589   24.9715  -26.5503 H   0  0  0  0  0  0  0  0  0  0  0  0
   -1.5153   25.5896  -25.2501 H   0  0  0  0  0  0  0  0  0  0  0  0
    0.7185   25.5566  -26.3757 H   0  0  0  0  0  0  0  0  0  0  0  0
   -1.0763   24.3261  -30.0406 H   0  0  0  0  0  0  0  0  0  0  0  0
   -7.1171   22.1650  -28.8834 H   0  0  0  0  0  0  0  0  0  0  0  0
  1  2  1  0
  2  3  1  0
  3  4  2  0
  4  5  1  0
  5  6  2  0
  6  7  1  0
  7  8  1  0
  8  9  1  0
  9 10  2  0
 10 11  1  0
 11 12  2  0
 12 13  1  0
 13 14  2  0
  8 15  2  0
 15 16  1  0
 16 17  2  0
 17  3  1  0
 16  6  1  0
 14  9  1  0
  1 18  1  0
  1 19  1  0
  1 20  1  0
  4 21  1  0
  5 22  1  0
 10 23  1  0
 11 24  1  0
 12 25  1  0
 14 26  1  0
 17 27  1  0
M  CHG  1   7  -1
M  END
>  <UniqueID>  (23) 
23

>  <SMILES>  (23) 
COc1ccc2[n-]c(-c3cccnc3)nc2c1

>  <Energy>  (23) 
65.13480065451766

>  <Genealogy>  (23) 
COc1ccc2[n-]c(-c3cccnc3)nc2c1 (protonated)
COc1ccc2[n-]c(-c3cccnc3)nc2c1 (3D coordinates assigned)
COc1ccc2[n-]c(-c3cccnc3)nc2c1 (optimized conformer: 65.13480065451766 kcal/mol)

>  <smiles>  (23) 
COc1ccc2[nH]c(-c3cccnc3)nc2c1

>  <score_type>  (23) 
oracle

>  <origin>  (23) 
adg

>  <m_score__min__energy>  (23) 
-6.7800000000000002

>  <m_primary>  (23) 
energy

$$$$
23:0
     RDKit          3D

 34 36  0  0  0  0  0  0  0  0999 V2000
   -3.7800   21.4040  -31.8100 C   0  0  0  0  0  0  0  0  0  0  0  0
   -4.6380   22.2990  -32.6960 C   0  0  0  0  0  0  0  0  0  0  0  0
   -5.9980   22.4000  -32.1570 N   0  0  0  0  0  0  0  0  0  0  0  0
   -6.5240   23.4250  -31.4560 C   0  0  0  0  0  0  0  0  0  0  0  0
   -5.7370   25.0190  -31.2190 S   0  0  0  0  0  0  0  0  0  0  0  0
   -4.5980   24.3630  -30.0050 C   0  0  0  0  0  0  0  0  0  0  0  0
   -4.9900   23.3150  -29.1640 C   0  0  0  0  0  0  0  0  0  0  0  0
   -4.0850   22.8240  -28.2200 C   0  0  0  0  0  0  0  0  0  0  0  0
   -2.8070   23.3800  -28.1290 C   0  0  0  0  0  0  0  0  0  0  0  0
   -2.4520   24.4230  -28.9880 C   0  0  0  0  0  0  0  0  0  0  0  0
   -3.3480   24.8880  -29.9000 N   0  0  0  0  0  0  0  0  0  0  0  0
   -7.7100   23.1010  -30.9110 N   0  0  0  0  0  0  0  0  0  0  0  0
   -7.9570   21.8430  -31.2460 N   0  0  0  0  0  0  0  0  0  0  0  0
   -6.9200   21.4230  -31.9980 C   0  0  0  0  0  0  0  0  0  0  0  0
   -6.8120   20.0460  -32.5130 C   0  0  0  0  0  0  0  0  0  0  0  0
   -6.2240   19.8150  -33.7670 C   0  0  0  0  0  0  0  0  0  0  0  0
   -6.1020   18.5110  -34.2580 C   0  0  0  0  0  0  0  0  0  0  0  0
   -6.5490   17.4300  -33.4940 C   0  0  0  0  0  0  0  0  0  0  0  0
   -7.1130   17.6500  -32.2350 C   0  0  0  0  0  0  0  0  0  0  0  0
   -7.2380   18.9530  -31.7400 C   0  0  0  0  0  0  0  0  0  0  0  0
   -3.9908   21.6239  -30.7530 H   0  0  0  0  0  0  0  0  0  0  0  0
   -4.0133   20.3495  -32.0187 H   0  0  0  0  0  0  0  0  0  0  0  0
   -2.7166   21.5926  -32.0187 H   0  0  0  0  0  0  0  0  0  0  0  0
   -4.1899   23.3027  -32.7393 H   0  0  0  0  0  0  0  0  0  0  0  0
   -4.6856   21.8622  -33.7044 H   0  0  0  0  0  0  0  0  0  0  0  0
   -5.9985   22.8833  -29.2455 H   0  0  0  0  0  0  0  0  0  0  0  0
   -4.3780   22.0020  -27.5503 H   0  0  0  0  0  0  0  0  0  0  0  0
   -2.0874   23.0006  -27.3886 H   0  0  0  0  0  0  0  0  0  0  0  0
   -1.4480   24.8683  -28.9269 H   0  0  0  0  0  0  0  0  0  0  0  0
   -5.8581   20.6624  -34.3653 H   0  0  0  0  0  0  0  0  0  0  0  0
   -5.6535   18.3363  -35.2471 H   0  0  0  0  0  0  0  0  0  0  0  0
   -6.4568   16.4056  -33.8839 H   0  0  0  0  0  0  0  0  0  0  0  0
   -7.4594   16.7978  -31.6319 H   0  0  0  0  0  0  0  0  0  0  0  0
   -7.6710   19.1218  -30.7430 H   0  0  0  0  0  0  0  0  0  0  0  0
  1  2  1  0
  2  3  1  0
  3  4  1  0
  4  5  1  0
  5  6  1  0
  6  7  2  0
  7  8  1  0
  8  9  2  0
  9 10  1  0
 10 11  2  0
  4 12  2  0
 12 13  1  0
 13 14  2  0
 14 15  1  0
 15 16  2  0
 16 17  1  0
 17 18  2  0
 18 19  1  0
 19 20  2  0
 14  3  1  0
 20 15  1  0
 11  6  1  0
  1 21  1  0
  1 22  1  0
  1 23  1  0
  2 24  1  0
  2 25  1  0
  7 26  1  0
  8 27  1  0
  9 28  1  0
 10 29  1  0
 16 30  1  0
 17 31  1  0
 18 32  1  0
 19 33  1  0
 20 34  1  0
M  END
>  <UniqueID>  (24) 
24

>  <SMILES>  (24) 
CCn1c(Sc2ccccn2)nnc1-c1ccccc1

>  <Energy>  (24) 
69.93737576003258

>  <Genealogy>  (24) 
CCn1c(Sc2ccccn2)nnc1-c1ccccc1 (3D coordinates assigned)
CCn1c(Sc2ccccn2)nnc1-c1ccccc1 (optimized conformer: 69.93737576003258 kcal/mol)

>  <smiles>  (24) 
CCn1c(Sc2ccccn2)nnc1-c1ccccc1

>  <score_type>  (24) 
oracle

>  <origin>  (24) 
adg

>  <m_score__min__energy>  (24) 
-7.6900000000000004

>  <m_primary>  (24) 
energy

$$$$
24:0
     RDKit          3D

 47 49  0  0  0  0  0  0  0  0999 V2000
   -2.8580   18.9400  -26.3650 C   0  0  0  0  0  0  0  0  0  0  0  0
   -1.6390   19.5930  -26.6410 O   0  0  0  0  0  0  0  0  0  0  0  0
   -1.8720   20.6560  -27.5390 C   0  0  0  0  0  0  0  0  0  0  0  0
   -1.5720   20.2220  -28.9780 C   0  0  0  0  0  0  0  0  0  0  0  0
   -1.2380   21.3300  -29.8990 N   0  0  0  0  0  0  0  0  0  0  0  0
   -0.4190   22.4410  -29.3500 C   0  0  0  0  0  0  0  0  0  0  0  0
   -1.2520   23.6180  -28.7910 C   0  0  0  0  0  0  0  0  0  0  0  0
   -2.4510   23.8710  -29.6380 C   0  0  0  0  0  0  0  0  0  0  0  0
   -3.2710   24.9300  -29.5490 N   0  0  0  0  0  0  0  0  0  0  0  0
   -4.2270   24.6530  -30.4680 C   0  0  0  0  0  0  0  0  0  0  0  0
   -5.3980   25.5540  -30.7220 C   0  0  0  0  0  0  0  0  0  0  0  0
   -6.6920   24.9250  -30.2090 C   0  0  0  0  0  0  0  0  0  0  0  0
   -6.6980   23.5450  -30.5200 O   0  0  0  0  0  0  0  0  0  0  0  0
   -7.0830   23.3320  -31.8660 C   0  0  0  0  0  0  0  0  0  0  0  0
   -8.6000   23.1780  -31.9580 C   0  0  0  0  0  0  0  0  0  0  0  0
   -8.8970   21.6990  -31.7390 C   0  0  0  0  0  0  0  0  0  0  0  0
   -7.5740   20.9560  -31.8890 C   0  0  0  0  0  0  0  0  0  0  0  0
   -6.5440   21.9870  -32.3260 C   0  0  0  0  0  0  0  0  0  0  0  0
   -4.0530   23.4730  -31.1090 N   0  0  0  0  0  0  0  0  0  0  0  0
   -2.9350   22.9880  -30.5510 C   0  0  0  0  0  0  0  0  0  0  0  0
   -2.2720   21.6970  -30.8970 C   0  0  0  0  0  0  0  0  0  0  0  0
   -2.9960   18.8661  -25.2762 H   0  0  0  0  0  0  0  0  0  0  0  0
   -3.6885   19.5140  -26.8018 H   0  0  0  0  0  0  0  0  0  0  0  0
   -2.8403   17.9306  -26.8018 H   0  0  0  0  0  0  0  0  0  0  0  0
   -2.9250   20.9659  -27.4669 H   0  0  0  0  0  0  0  0  0  0  0  0
   -1.2099   21.4941  -27.2760 H   0  0  0  0  0  0  0  0  0  0  0  0
   -0.7205   19.5259  -28.9558 H   0  0  0  0  0  0  0  0  0  0  0  0
   -2.4945   19.7637  -29.3638 H   0  0  0  0  0  0  0  0  0  0  0  0
    0.2053   22.0419  -28.5370 H   0  0  0  0  0  0  0  0  0  0  0  0
    0.1771   22.8400  -30.1840 H   0  0  0  0  0  0  0  0  0  0  0  0
   -1.5780   23.3749  -27.7689 H   0  0  0  0  0  0  0  0  0  0  0  0
   -0.6256   24.5222  -28.7900 H   0  0  0  0  0  0  0  0  0  0  0  0
   -5.2340   26.5116  -30.2061 H   0  0  0  0  0  0  0  0  0  0  0  0
   -5.4905   25.7123  -31.8066 H   0  0  0  0  0  0  0  0  0  0  0  0
   -6.7569   25.0560  -29.1188 H   0  0  0  0  0  0  0  0  0  0  0  0
   -7.5535   25.4137  -30.6875 H   0  0  0  0  0  0  0  0  0  0  0  0
   -6.7113   24.1787  -32.4618 H   0  0  0  0  0  0  0  0  0  0  0  0
   -9.0915   23.7836  -31.1823 H   0  0  0  0  0  0  0  0  0  0  0  0
   -8.9769   23.5201  -32.9331 H   0  0  0  0  0  0  0  0  0  0  0  0
   -9.3079   21.5407  -30.7310 H   0  0  0  0  0  0  0  0  0  0  0  0
   -9.6386   21.3341  -32.4648 H   0  0  0  0  0  0  0  0  0  0  0  0
   -7.2791   20.5083  -30.9285 H   0  0  0  0  0  0  0  0  0  0  0  0
   -7.6572   20.1419  -32.6241 H   0  0  0  0  0  0  0  0  0  0  0  0
   -5.5722   21.7818  -31.8532 H   0  0  0  0  0  0  0  0  0  0  0  0
   -6.3859   21.9651  -33.4144 H   0  0  0  0  0  0  0  0  0  0  0  0
   -3.0326   20.9031  -30.9316 H   0  0  0  0  0  0  0  0  0  0  0  0
   -1.7810   21.8133  -31.8745 H   0  0  0  0  0  0  0  0  0  0  0  0
  1  2  1  0
  2  3  1  0
  3  4  1  0
  4  5  1  0
  5  6  1  0
  6  7  1  0
  7  8  1  0
  8  9  1  0
  9 10  2  0
 10 11  1  0
 11 12  1  0
 12 13  1  0
 13 14  1  0
 14 15  1  0
 15 16  1  0
 16 17  1  0
 17 18  1  0
 10 19  1  0
 19 20  1  0
 20 21  1  0
 21  5  1  0
 20  8  2  0
 18 14  1  0
  1 22  1  0
  1 23  1  0
  1 24  1  0
  3 25  1  0
  3 26  1  0
  4 27  1  0
  4 28  1  0
  6 29  1  0
  6 30  1  0
  7 31  1  0
  7 32  1  0
 11 33  1  0
 11 34  1  0
 12 35  1  0
 12 36  1  0
 14 37  1  0
 15 38  1  0
 15 39  1  0
 16 40  1  0
 16 41  1  0
 17 42  1  0
 17 43  1  0
 18 44  1  0
 18 45  1  0
 21 46  1  0
 21 47  1  0
M  CHG  1  19  -1
M  END
>  <UniqueID>  (25) 
25

>  <SMILES>  (25) 
COCCN1CCc2nc(CCOC3CCCC3)[n-]c2C1

>  <Energy>  (25) 
82.9170471834527

>  <Genealogy>  (25) 
COCCN1CCc2nc(CCOC3CCCC3)[n-]c2C1 (protonated)
COCCN1CCc2nc(CCOC3CCCC3)[n-]c2C1 (3D coordinates assigned)
COCCN1CCc2nc(CCOC3CCCC3)[n-]c2C1 (nonaromatic ring conformer: 82.9170471834527 kcal/mol)

>  <smiles>  (25) 
COCCN1CCc2nc(CCOC3CCCC3)[nH]c2C1

>  <score_type>  (25) 
oracle

>  <origin>  (25) 
adg

>  <m_score__min__energy>  (25) 
-8.1799999999999997

>  <m_primary>  (25) 
energy

$$$$
25:0
     RDKit          3D

 49 51  0  0  0  0  0  0  0  0999 V2000
   -1.2440   22.2340  -26.3330 C   0  0  0  0  0  0  0  0  0  0  0  0
   -1.9200   22.9970  -27.4420 C   0  0  0  0  0  0  0  0  0  0  0  0
   -3.3160   22.9260  -27.5750 C   0  0  0  0  0  0  0  0  0  0  0  0
   -3.9760   23.6680  -28.5550 C   0  0  0  0  0  0  0  0  0  0  0  0
   -3.2500   24.5020  -29.4220 C   0  0  0  0  0  0  0  0  0  0  0  0
   -3.8690   25.2880  -30.4080 O   0  0  0  0  0  0  0  0  0  0  0  0
   -5.2820   25.4230  -30.5860 C   0  0  0  0  0  0  0  0  0  0  0  0
   -5.8690   24.1550  -31.1450 C   0  0  0  0  0  0  0  0  0  0  0  0
   -7.2220   23.8450  -30.9420 C   0  0  0  0  0  0  0  0  0  0  0  0
   -7.7530   22.6510  -31.4400 C   0  0  0  0  0  0  0  0  0  0  0  0
   -6.9350   21.7560  -32.1380 C   0  0  0  0  0  0  0  0  0  0  0  0
   -5.5800   22.0540  -32.3480 C   0  0  0  0  0  0  0  0  0  0  0  0
   -4.6890   21.0890  -33.0820 C   0  0  0  0  0  0  0  0  0  0  0  0
   -3.3160   21.4650  -32.9560 O   0  0  0  0  0  0  0  0  0  0  0  0
   -2.4820   21.1440  -31.8720 C   0  0  0  0  0  0  0  0  0  0  0  0
   -1.0980   21.1580  -32.0720 C   0  0  0  0  0  0  0  0  0  0  0  0
   -0.2250   20.8160  -31.0350 C   0  0  0  0  0  0  0  0  0  0  0  0
   -0.7260   20.4740  -29.7670 C   0  0  0  0  0  0  0  0  0  0  0  0
    0.1950   20.0020  -28.6710 C   0  0  0  0  0  0  0  0  0  0  0  0
   -0.5390   19.4540  -27.6320 F   0  0  0  0  0  0  0  0  0  0  0  0
    1.0460   19.0360  -29.1780 F   0  0  0  0  0  0  0  0  0  0  0  0
    0.9530   21.0450  -28.1680 F   0  0  0  0  0  0  0  0  0  0  0  0
   -2.1160   20.4640  -29.5650 C   0  0  0  0  0  0  0  0  0  0  0  0
   -2.9880   20.8010  -30.6030 C   0  0  0  0  0  0  0  0  0  0  0  0
   -5.0640   23.2730  -31.8810 C   0  0  0  0  0  0  0  0  0  0  0  0
   -1.8590   24.5640  -29.3050 C   0  0  0  0  0  0  0  0  0  0  0  0
   -1.1800   23.8120  -28.3320 C   0  0  0  0  0  0  0  0  0  0  0  0
    0.3190   23.9200  -28.2300 C   0  0  0  0  0  0  0  0  0  0  0  0
   -1.5858   22.6198  -25.3612 H   0  0  0  0  0  0  0  0  0  0  0  0
   -1.4985   21.1669  -26.4140 H   0  0  0  0  0  0  0  0  0  0  0  0
   -0.1540   22.3581  -26.4140 H   0  0  0  0  0  0  0  0  0  0  0  0
   -3.8951   22.2789  -26.8998 H   0  0  0  0  0  0  0  0  0  0  0  0
   -5.0698   23.5998  -28.6494 H   0  0  0  0  0  0  0  0  0  0  0  0
   -5.7496   25.6402  -29.6143 H   0  0  0  0  0  0  0  0  0  0  0  0
   -5.4736   26.2441  -31.2925 H   0  0  0  0  0  0  0  0  0  0  0  0
   -7.8674   24.5435  -30.3892 H   0  0  0  0  0  0  0  0  0  0  0  0
   -8.8158   22.4151  -31.2826 H   0  0  0  0  0  0  0  0  0  0  0  0
   -7.3555   20.8155  -32.5235 H   0  0  0  0  0  0  0  0  0  0  0  0
   -4.8264   20.0815  -32.6623 H   0  0  0  0  0  0  0  0  0  0  0  0
   -4.9602   21.1017  -34.1480 H   0  0  0  0  0  0  0  0  0  0  0  0
   -0.6924   21.4408  -33.0546 H   0  0  0  0  0  0  0  0  0  0  0  0
    0.8606   20.8145  -31.2124 H   0  0  0  0  0  0  0  0  0  0  0  0
   -2.5216   20.1883  -28.5804 H   0  0  0  0  0  0  0  0  0  0  0  0
   -4.0741   20.7985  -30.4287 H   0  0  0  0  0  0  0  0  0  0  0  0
   -4.0182   23.5392  -32.0943 H   0  0  0  0  0  0  0  0  0  0  0  0
   -1.2867   25.2118  -29.9854 H   0  0  0  0  0  0  0  0  0  0  0  0
    0.6138   23.9412  -27.1705 H   0  0  0  0  0  0  0  0  0  0  0  0
    0.7834   23.0530  -28.7225 H   0  0  0  0  0  0  0  0  0  0  0  0
    0.6544   24.8446  -28.7225 H   0  0  0  0  0  0  0  0  0  0  0  0
  1  2  1  0
  2  3  2  0
  3  4  1  0
  4  5  2  0
  5  6  1  0
  6  7  1  0
  7  8  1  0
  8  9  2  0
  9 10  1  0
 10 11  2  0
 11 12  1  0
 12 13  1  0
 13 14  1  0
 14 15  1  0
 15 16  2  0
 16 17  1  0
 17 18  2  0
 18 19  1  0
 19 20  1  0
 19 21  1  0
 19 22  1  0
 18 23  1  0
 23 24  2  0
 12 25  2  0
  5 26  1  0
 26 27  2  0
 27 28  1  0
 27  2  1  0
 25  8  1  0
 24 15  1  0
  1 29  1  0
  1 30  1  0
  1 31  1  0
  3 32  1  0
  4 33  1  0
  7 34  1  0
  7 35  1  0
  9 36  1  0
 10 37  1  0
 11 38  1  0
 13 39  1  0
 13 40  1  0
 16 41  1  0
 17 42  1  0
 23 43  1  0
 24 44  1  0
 25 45  1  0
 26 46  1  0
 28 47  1  0
 28 48  1  0
 28 49  1  0
M  END
>  <UniqueID>  (26) 
26

>  <SMILES>  (26) 
Cc1ccc(OCc2cccc(COc3ccc(C(F)(F)F)cc3)c2)cc1C

>  <Energy>  (26) 
46.99683973253297

>  <Genealogy>  (26) 
Cc1ccc(OCc2cccc(COc3ccc(C(F)(F)F)cc3)c2)cc1C (3D coordinates assigned)
Cc1ccc(OCc2cccc(COc3ccc(C(F)(F)F)cc3)c2)cc1C (optimized conformer: 46.99683973253297 kcal/mol)

>  <smiles>  (26) 
Cc1ccc(OCc2cccc(COc3ccc(C(F)(F)F)cc3)c2)cc1C

>  <score_type>  (26) 
oracle

>  <origin>  (26) 
adg

>  <m_score__min__energy>  (26) 
-8.25

>  <m_primary>  (26) 
energy

$$$$
26:0
     RDKit          3D

 16 16  0  0  0  0  0  0  0  0999 V2000
   -7.6130   22.5390  -30.8890 C   0  0  0  0  0  0  0  0  0  0  0  0
   -6.8670   23.7270  -32.0460 S   0  0  0  0  0  0  0  0  0  0  0  0
   -5.4400   24.0230  -31.0030 C   0  0  0  0  0  0  0  0  0  0  0  0
   -4.2290   23.4700  -31.2140 N   0  0  0  0  0  0  0  0  0  0  0  0
   -3.4650   23.9700  -30.2190 C   0  0  0  0  0  0  0  0  0  0  0  0
   -4.1430   24.8030  -29.4040 N   0  0  0  0  0  0  0  0  0  0  0  0
   -5.3940   24.8300  -29.8880 C   0  0  0  0  0  0  0  0  0  0  0  0
   -6.4980   25.6770  -29.3420 C   0  0  0  0  0  0  0  0  0  0  0  0
   -7.4125   22.8583  -29.8556 H   0  0  0  0  0  0  0  0  0  0  0  0
   -8.6995   22.4977  -31.0557 H   0  0  0  0  0  0  0  0  0  0  0  0
   -7.1783   21.5424  -31.0557 H   0  0  0  0  0  0  0  0  0  0  0  0
   -2.4011   23.7235  -30.0873 H   0  0  0  0  0  0  0  0  0  0  0  0
   -3.7670   25.3220  -28.5790 H   0  0  0  0  0  0  0  0  0  0  0  0
   -6.4683   25.6542  -28.2426 H   0  0  0  0  0  0  0  0  0  0  0  0
   -6.3724   26.7127  -29.6908 H   0  0  0  0  0  0  0  0  0  0  0  0
   -7.4658   25.2875  -29.6908 H   0  0  0  0  0  0  0  0  0  0  0  0
  1  2  1  0
  2  3  1  0
  3  4  1  0
  4  5  2  0
  5  6  1  0
  6  7  1  0
  7  8  1  0
  7  3  2  0
  1  9  1  0
  1 10  1  0
  1 11  1  0
  5 12  1  0
  6 13  1  0
  8 14  1  0
  8 15  1  0
  8 16  1  0
M  END
>  <UniqueID>  (27) 
27

>  <SMILES>  (27) 
CSc1nc[nH]c1C

>  <Energy>  (27) 
37.68742049357801

>  <Genealogy>  (27) 
CSc1nc[nH]c1C (3D coordinates assigned)
CSc1nc[nH]c1C (optimized conformer: 37.68742049357801 kcal/mol)

>  <smiles>  (27) 
CSc1nc[nH]c1C

>  <score_type>  (27) 
oracle

>  <origin>  (27) 
adg

>  <m_score__min__energy>  (27) 
-3.98

>  <m_primary>  (27) 
energy

$$$$
27:0
     RDKit          3D

 46 49  0  0  0  0  0  0  0  0999 V2000
   -2.1823   20.4270  -33.4894 H   0  0  0  0  0  0  0  0  0  0  0  0
   -3.2660   20.2450  -33.4390 C   0  0  0  0  0  0  0  0  0  0  0  0
   -4.0900   21.1920  -32.9230 N   0  0  0  0  0  0  0  0  0  0  0  0
   -5.4370   21.0180  -32.8360 C   0  0  0  0  0  0  0  0  0  0  0  0
   -6.2490   22.1160  -32.2740 C   0  0  0  0  0  0  0  0  0  0  0  0
   -7.6360   22.1800  -32.2450 C   0  0  0  0  0  0  0  0  0  0  0  0
   -8.3099   21.4543  -32.7239 H   0  0  0  0  0  0  0  0  0  0  0  0
   -8.0400   23.2680  -31.5400 N   0  0  0  0  0  0  0  0  0  0  0  0
   -6.8810   23.8330  -31.1460 C   0  0  0  0  0  0  0  0  0  0  0  0
   -6.7420   24.9500  -30.3320 C   0  0  0  0  0  0  0  0  0  0  0  0
   -7.6183   25.5166  -29.9841 H   0  0  0  0  0  0  0  0  0  0  0  0
   -5.4390   25.3270  -29.9710 C   0  0  0  0  0  0  0  0  0  0  0  0
   -5.2771   26.2084  -29.3331 H   0  0  0  0  0  0  0  0  0  0  0  0
   -4.3370   24.5730  -30.4280 C   0  0  0  0  0  0  0  0  0  0  0  0
   -3.1310   24.9250  -30.0920 N   0  0  0  0  0  0  0  0  0  0  0  0
   -2.2180   24.1180  -29.2750 C   0  0  0  0  0  0  0  0  0  0  0  0
   -1.3667   24.7424  -28.9660 H   0  0  0  0  0  0  0  0  0  0  0  0
   -2.9610   23.6170  -28.0180 C   0  0  0  0  0  0  0  0  0  0  0  0
   -2.7661   24.3188  -27.1937 H   0  0  0  0  0  0  0  0  0  0  0  0
   -4.0304   23.5627  -28.2701 H   0  0  0  0  0  0  0  0  0  0  0  0
   -2.5220   22.2060  -27.5750 C   0  0  0  0  0  0  0  0  0  0  0  0
   -2.7254   22.0964  -26.4995 H   0  0  0  0  0  0  0  0  0  0  0  0
   -3.0902   21.4795  -28.1745 H   0  0  0  0  0  0  0  0  0  0  0  0
   -1.0860   21.9510  -27.8120 N   0  0  0  0  0  0  0  0  0  0  0  0
   -0.2330   22.7060  -26.8790 C   0  0  0  0  0  0  0  0  0  0  0  0
   -0.5127   22.4585  -25.8443 H   0  0  0  0  0  0  0  0  0  0  0  0
    0.8207   22.4392  -27.0478 H   0  0  0  0  0  0  0  0  0  0  0  0
   -0.3698   23.7843  -27.0478 H   0  0  0  0  0  0  0  0  0  0  0  0
   -0.6710   22.1220  -29.2290 C   0  0  0  0  0  0  0  0  0  0  0  0
    0.3021   22.6348  -29.2443 H   0  0  0  0  0  0  0  0  0  0  0  0
   -0.6283   21.1153  -29.6703 H   0  0  0  0  0  0  0  0  0  0  0  0
   -1.6620   22.9390  -30.0820 C   0  0  0  0  0  0  0  0  0  0  0  0
   -1.1427   23.3225  -30.9727 H   0  0  0  0  0  0  0  0  0  0  0  0
   -2.4960   22.2872  -30.3813 H   0  0  0  0  0  0  0  0  0  0  0  0
   -4.5570   23.4840  -31.2240 N   0  0  0  0  0  0  0  0  0  0  0  0
   -5.8020   23.1650  -31.5680 N   0  0  0  0  0  0  0  0  0  0  0  0
   -6.0110   19.7990  -33.2620 C   0  0  0  0  0  0  0  0  0  0  0  0
   -7.3870   19.5810  -33.0970 O   0  0  0  0  0  0  0  0  0  0  0  0
   -7.9530   18.6540  -32.1780 C   0  0  0  0  0  0  0  0  0  0  0  0
   -7.7498   18.9868  -31.1494 H   0  0  0  0  0  0  0  0  0  0  0  0
   -9.0400   18.5973  -32.3370 H   0  0  0  0  0  0  0  0  0  0  0  0
   -7.5069   17.6612  -32.3370 H   0  0  0  0  0  0  0  0  0  0  0  0
   -5.1660   18.8190  -33.8150 C   0  0  0  0  0  0  0  0  0  0  0  0
   -5.5913   17.8718  -34.1782 H   0  0  0  0  0  0  0  0  0  0  0  0
   -3.7930   19.0420  -33.9050 C   0  0  0  0  0  0  0  0  0  0  0  0
   -3.1327   18.2768  -34.3391 H   0  0  0  0  0  0  0  0  0  0  0  0
  1  2  1  0
  2  3  2  0
  3  4  1  0
  4  5  1  0
  5  6  2  0
  6  7  1  0
  6  8  1  0
  8  9  2  0
  9 10  1  0
 10 11  1  0
 10 12  2  0
 12 13  1  0
 12 14  1  0
 14 15  2  0
 15 16  1  0
 16 17  1  0
 16 18  1  0
 18 19  1  0
 18 20  1  0
 18 21  1  0
 21 22  1  0
 21 23  1  0
 21 24  1  0
 24 25  1  0
 25 26  1  0
 25 27  1  0
 25 28  1  0
 24 29  1  0
 29 30  1  0
 29 31  1  0
 29 32  1  0
 32 33  1  0
 32 34  1  0
 14 35  1  0
 35 36  1  0
  4 37  2  0
 37 38  1  0
 38 39  1  0
 39 40  1  0
 39 41  1  0
 39 42  1  0
 37 43  1  0
 43 44  1  0
 43 45  2  0
 45 46  1  0
 45  2  1  0
 36  5  1  0
 36  9  1  0
 32 16  1  0
M  CHG  1  35  -1
M  END
>  <UniqueID>  (28) 
28

>  <SMILES>  (28) 
COc1cccnc1-c1cnc2cc/c(=N/C3CCN(C)CC3)[n-]n12

>  <Energy>  (28) 
96.60311177433928

>  <Genealogy>  (28) 
COc1cccnc1-c1cnc2ccc(=NC3CCN(C)CC3)[n-]n12 (protonated)
COc1cccnc1-c1cnc2cc/c(=N/C3CCN(C)CC3)[n-]n12 (cis-trans isomerization)
COc1cccnc1-c1cnc2cc/c(=N/C3CCN(C)CC3)[n-]n12 (3D coordinates assigned)
COc1cccnc1-c1cnc2cc/c(=N/C3CCN(C)CC3)[n-]n12 (nonaromatic ring conformer: 96.60311177433928 kcal/mol)

>  <smiles>  (28) 
COc1cccnc1-c1cnc2ccc(=NC3CCN(C)CC3)[nH]n12

>  <score_type>  (28) 
oracle

>  <origin>  (28) 
adg

>  <m_score__min__energy>  (28) 
-9.2599999999999998

>  <m_primary>  (28) 
energy

$$$$
28:0
     RDKit          3D

 64 66  0  0  0  0  0  0  0  0999 V2000
   -5.0450   21.5880  -32.8790 H   0  0  0  0  0  0  0  0  0  0  0  0
   -4.0540   21.2890  -32.9820 N   0  0  0  0  0  0  0  0  0  0  0  0
   -3.7640   20.0010  -33.5610 C   0  0  0  0  0  0  0  0  0  0  0  0
   -4.7130   18.9150  -33.3340 N   0  0  0  0  0  0  0  0  0  0  0  0
   -5.4540   18.1250  -34.3220 C   0  0  0  0  0  0  0  0  0  0  0  0
   -6.0892   18.7757  -34.9410 H   0  0  0  0  0  0  0  0  0  0  0  0
   -4.7853   17.5916  -35.0136 H   0  0  0  0  0  0  0  0  0  0  0  0
   -6.3140   17.1630  -33.4890 C   0  0  2  0  0  0  0  0  0  0  0  0
   -6.5660   15.8310  -34.2180 C   0  0  0  0  0  0  0  0  0  0  0  0
   -6.7173   15.0311  -33.4783 H   0  0  0  0  0  0  0  0  0  0  0  0
   -7.4629   15.9220  -34.8484 H   0  0  0  0  0  0  0  0  0  0  0  0
   -5.6979   15.5880  -34.8484 H   0  0  0  0  0  0  0  0  0  0  0  0
   -7.6590   17.8290  -33.0710 C   0  0  0  0  0  0  0  0  0  0  0  0
   -8.2353   17.0953  -32.4883 H   0  0  0  0  0  0  0  0  0  0  0  0
   -8.1524   18.1331  -34.0059 H   0  0  0  0  0  0  0  0  0  0  0  0
   -7.5190   19.1390  -32.2040 C   0  0  0  0  0  0  0  0  0  0  0  0
   -7.5790   20.4010  -33.1010 C   0  0  0  0  0  0  0  0  0  0  0  0
   -7.6217   21.2993  -32.4676 H   0  0  0  0  0  0  0  0  0  0  0  0
   -6.6818   20.4424  -33.7361 H   0  0  0  0  0  0  0  0  0  0  0  0
   -8.4761   20.3571  -33.7361 H   0  0  0  0  0  0  0  0  0  0  0  0
   -8.7310   19.2180  -31.2480 C   0  0  0  0  0  0  0  0  0  0  0  0
   -8.3784   19.1950  -30.2063 H   0  0  0  0  0  0  0  0  0  0  0  0
   -9.2801   20.1538  -31.4287 H   0  0  0  0  0  0  0  0  0  0  0  0
   -9.3970   18.3614  -31.4287 H   0  0  0  0  0  0  0  0  0  0  0  0
   -6.2040   19.1600  -31.3470 C   0  0  0  0  0  0  0  0  0  0  0  0
   -6.4199   18.7004  -30.3712 H   0  0  0  0  0  0  0  0  0  0  0  0
   -5.8973   20.2129  -31.2613 H   0  0  0  0  0  0  0  0  0  0  0  0
   -5.0160   18.3980  -31.9930 C   0  0  1  0  0  0  0  0  0  0  0  0
   -4.1490   18.4976  -31.3234 H   0  0  0  0  0  0  0  0  0  0  0  0
   -5.4650   16.9700  -32.2410 C   0  0  0  0  0  0  0  0  0  0  0  0
   -6.0587   16.5788  -31.4017 H   0  0  0  0  0  0  0  0  0  0  0  0
   -4.6467   16.2430  -32.3495 H   0  0  0  0  0  0  0  0  0  0  0  0
   -2.6470   19.8770  -34.2470 N   0  0  0  0  0  0  0  0  0  0  0  0
   -2.3930   20.6550  -34.8970 H   0  0  0  0  0  0  0  0  0  0  0  0
   -1.6180   18.8350  -34.1740 C   0  0  0  0  0  0  0  0  0  0  0  0
   -0.6590   19.2481  -34.5199 H   0  0  0  0  0  0  0  0  0  0  0  0
   -1.9192   17.9915  -34.8126 H   0  0  0  0  0  0  0  0  0  0  0  0
   -1.4620   18.3350  -32.7300 C   0  0  0  0  0  0  0  0  0  0  0  0
   -0.8607   17.4139  -32.7326 H   0  0  0  0  0  0  0  0  0  0  0  0
   -2.4640   18.1441  -32.3182 H   0  0  0  0  0  0  0  0  0  0  0  0
   -0.7710   19.3780  -31.8540 C   0  0  0  0  0  0  0  0  0  0  0  0
   -0.9336   19.1325  -30.7941 H   0  0  0  0  0  0  0  0  0  0  0  0
    0.3079   19.3803  -32.0685 H   0  0  0  0  0  0  0  0  0  0  0  0
   -1.1896   20.3724  -32.0685 H   0  0  0  0  0  0  0  0  0  0  0  0
   -3.0160   22.0860  -32.3190 C   0  0  0  0  0  0  0  0  0  0  0  0
   -2.2752   21.4072  -31.8713 H   0  0  0  0  0  0  0  0  0  0  0  0
   -2.5459   22.7361  -33.0716 H   0  0  0  0  0  0  0  0  0  0  0  0
   -3.6100   22.9760  -31.2150 C   0  0  0  0  0  0  0  0  0  0  0  0
   -3.0887   22.7650  -30.2696 H   0  0  0  0  0  0  0  0  0  0  0  0
   -3.4776   24.0256  -31.5163 H   0  0  0  0  0  0  0  0  0  0  0  0
   -5.0580   22.7330  -31.0270 N   0  0  0  0  0  0  0  0  0  0  0  0
   -5.8640   23.4060  -32.0760 C   0  0  0  0  0  0  0  0  0  0  0  0
   -5.3414   24.3199  -32.3949 H   0  0  0  0  0  0  0  0  0  0  0  0
   -5.9848   22.7059  -32.9158 H   0  0  0  0  0  0  0  0  0  0  0  0
   -7.2650   23.7860  -31.5650 C   0  0  0  0  0  0  0  0  0  0  0  0
   -7.8159   24.2692  -32.3854 H   0  0  0  0  0  0  0  0  0  0  0  0
   -7.7497   22.8579  -31.2277 H   0  0  0  0  0  0  0  0  0  0  0  0
   -7.2410   24.6740  -30.4540 O   0  0  0  0  0  0  0  0  0  0  0  0
   -6.0980   24.5190  -29.6240 C   0  0  0  0  0  0  0  0  0  0  0  0
   -5.3293   25.2329  -29.9548 H   0  0  0  0  0  0  0  0  0  0  0  0
   -6.4245   24.7029  -28.5898 H   0  0  0  0  0  0  0  0  0  0  0  0
   -5.4940   23.1030  -29.6600 C   0  0  0  0  0  0  0  0  0  0  0  0
   -4.6254   23.0677  -28.9860 H   0  0  0  0  0  0  0  0  0  0  0  0
   -6.2676   22.3896  -29.3396 H   0  0  0  0  0  0  0  0  0  0  0  0
  1  2  1  0
  2  3  1  0
  3  4  1  0
  4  5  1  0
  5  6  1  0
  5  7  1  0
  5  8  1  0
  8  9  1  6
  9 10  1  0
  9 11  1  0
  9 12  1  0
  8 13  1  0
 13 14  1  0
 13 15  1  0
 13 16  1  0
 16 17  1  0
 17 18  1  0
 17 19  1  0
 17 20  1  0
 16 21  1  0
 21 22  1  0
 21 23  1  0
 21 24  1  0
 16 25  1  0
 25 26  1  0
 25 27  1  0
 25 28  1  0
 28 29  1  1
 28 30  1  0
 30 31  1  0
 30 32  1  0
  3 33  2  0
 33 34  1  0
 33 35  1  0
 35 36  1  0
 35 37  1  0
 35 38  1  0
 38 39  1  0
 38 40  1  0
 38 41  1  0
 41 42  1  0
 41 43  1  0
 41 44  1  0
  2 45  1  0
 45 46  1  0
 45 47  1  0
 45 48  1  0
 48 49  1  0
 48 50  1  0
 48 51  1  0
 51 52  1  0
 52 53  1  0
 52 54  1  0
 52 55  1  0
 55 56  1  0
 55 57  1  0
 55 58  1  0
 58 59  1  0
 59 60  1  0
 59 61  1  0
 59 62  1  0
 62 63  1  0
 62 64  1  0
 28  4  1  0
 62 51  1  0
 30  8  1  0
M  CHG  1  33   1
M  END
>  <UniqueID>  (29) 
29

>  <SMILES>  (29) 
CCC/[NH+]=C(/NCCN1CCOCC1)N1C[C@@]2(C)C[C@@H]1CC(C)(C)C2

>  <Energy>  (29) 
94.06298667897741

>  <Genealogy>  (29) 
CCC[NH+]=C(NCCN1CCOCC1)N1CC2(C)CC1CC(C)(C)C2 (protonated)
CCC[NH+]=C(NCCN1CCOCC1)N1C[C@@]2(C)C[C@@H]1CC(C)(C)C2 (chirality)
CCC/[NH+]=C(/NCCN1CCOCC1)N1C[C@@]2(C)C[C@@H]1CC(C)(C)C2 (cis-trans isomerization)
CCC/[NH+]=C(/NCCN1CCOCC1)N1C[C@@]2(C)C[C@@H]1CC(C)(C)C2 (3D coordinates assigned)
CCC/[NH+]=C(/NCCN1CCOCC1)N1C[C@@]2(C)C[C@@H]1CC(C)(C)C2 (nonaromatic ring conformer: 94.06298667897741 kcal/mol)

>  <smiles>  (29) 
CCCN=C(NCCN1CCOCC1)N1CC2(C)CC1CC(C)(C)C2

>  <score_type>  (29) 
oracle

>  <origin>  (29) 
adg

>  <m_score__min__energy>  (29) 
-7.9500000000000002

>  <m_primary>  (29) 
energy

$$$$
29:0
     RDKit          3D

 35 37  0  0  0  0  0  0  0  0999 V2000
   -5.3880   24.9310  -28.8790 O   0  0  0  0  0  0  0  0  0  0  0  0
   -4.4580   24.2840  -29.8680 S   0  0  0  0  0  0  0  0  0  0  0  0
   -3.9770   25.3200  -30.8460 O   0  0  0  0  0  0  0  0  0  0  0  0
   -5.3090   23.0220  -30.7550 C   0  0  0  0  0  0  0  0  0  0  0  0
   -4.6030   22.1430  -31.5880 C   0  0  0  0  0  0  0  0  0  0  0  0
   -5.2790   21.1430  -32.2930 C   0  0  0  0  0  0  0  0  0  0  0  0
   -6.6690   21.0090  -32.1690 C   0  0  0  0  0  0  0  0  0  0  0  0
   -7.3590   20.0090  -32.8730 C   0  0  0  0  0  0  0  0  0  0  0  0
   -8.7440   19.8870  -32.7400 C   0  0  0  0  0  0  0  0  0  0  0  0
   -9.4510   20.7580  -31.9060 C   0  0  0  0  0  0  0  0  0  0  0  0
   -8.7770   21.7570  -31.1990 C   0  0  0  0  0  0  0  0  0  0  0  0
   -7.3850   21.8920  -31.3240 C   0  0  0  0  0  0  0  0  0  0  0  0
   -6.6970   22.8910  -30.6200 C   0  0  0  0  0  0  0  0  0  0  0  0
   -3.0960   23.5920  -29.0200 N   0  0  0  0  0  0  0  0  0  0  0  0
   -2.6610   24.4650  -27.9020 C   0  0  0  0  0  0  0  0  0  0  0  0
   -1.3850   25.2570  -28.2320 C   0  0  0  0  0  0  0  0  0  0  0  0
   -0.2610   24.3740  -28.5930 N   0  0  0  0  0  0  0  0  0  0  0  0
   -0.6730   23.1230  -29.2580 C   0  0  0  0  0  0  0  0  0  0  0  0
   -2.0180   23.2710  -29.9780 C   0  0  0  0  0  0  0  0  0  0  0  0
   -3.5119   22.2406  -31.6874 H   0  0  0  0  0  0  0  0  0  0  0  0
   -4.7185   20.4590  -32.9472 H   0  0  0  0  0  0  0  0  0  0  0  0
   -6.8078   19.3205  -33.5304 H   0  0  0  0  0  0  0  0  0  0  0  0
   -9.2805   19.1024  -33.2937 H   0  0  0  0  0  0  0  0  0  0  0  0
  -10.5417   20.6565  -31.8060 H   0  0  0  0  0  0  0  0  0  0  0  0
   -9.3380   22.4391  -30.5432 H   0  0  0  0  0  0  0  0  0  0  0  0
   -7.2498   23.5746  -29.9589 H   0  0  0  0  0  0  0  0  0  0  0  0
   -3.4687   25.1766  -27.6759 H   0  0  0  0  0  0  0  0  0  0  0  0
   -2.4379   23.8175  -27.0412 H   0  0  0  0  0  0  0  0  0  0  0  0
   -1.5936   25.9291  -29.0775 H   0  0  0  0  0  0  0  0  0  0  0  0
   -1.0960   25.8226  -27.3339 H   0  0  0  0  0  0  0  0  0  0  0  0
    0.2590   24.1230  -27.7200 H   0  0  0  0  0  0  0  0  0  0  0  0
    0.0948   22.8427  -29.9941 H   0  0  0  0  0  0  0  0  0  0  0  0
   -0.7850   22.3485  -28.4850 H   0  0  0  0  0  0  0  0  0  0  0  0
   -1.9425   24.0799  -30.7196 H   0  0  0  0  0  0  0  0  0  0  0  0
   -2.2590   22.3182  -30.4721 H   0  0  0  0  0  0  0  0  0  0  0  0
  1  2  2  0
  2  3  2  0
  2  4  1  0
  4  5  2  0
  5  6  1  0
  6  7  2  0
  7  8  1  0
  8  9  2  0
  9 10  1  0
 10 11  2  0
 11 12  1  0
 12 13  2  0
  2 14  1  0
 14 15  1  0
 15 16  1  0
 16 17  1  0
 17 18  1  0
 18 19  1  0
 13  4  1  0
 19 14  1  0
 12  7  1  0
  5 20  1  0
  6 21  1  0
  8 22  1  0
  9 23  1  0
 10 24  1  0
 11 25  1  0
 13 26  1  0
 15 27  1  0
 15 28  1  0
 16 29  1  0
 16 30  1  0
 17 31  1  0
 18 32  1  0
 18 33  1  0
 19 34  1  0
 19 35  1  0
M  END
>  <UniqueID>  (30) 
30

>  <SMILES>  (30) 
O=S(=O)(c1ccc2ccccc2c1)N1CCNCC1

>  <Energy>  (30) 
47.70514078599789

>  <Genealogy>  (30) 
O=S(=O)(c1ccc2ccccc2c1)N1CCNCC1 (3D coordinates assigned)
O=S(=O)(c1ccc2ccccc2c1)N1CCNCC1 (nonaromatic ring conformer: 47.70514078599789 kcal/mol)

>  <smiles>  (30) 
O=S(=O)(c1ccc2ccccc2c1)N1CCNCC1

>  <score_type>  (30) 
oracle

>  <origin>  (30) 
adg

>  <m_score__min__energy>  (30) 
-9.0299999999999994

>  <m_primary>  (30) 
energy

$$$$
30:0
     RDKit          3D

 31 33  0  0  0  0  0  0  0  0999 V2000
   -8.0100   23.2400  -31.8620 C   0  0  0  0  0  0  0  0  0  0  0  0
   -8.0740   21.7400  -31.9710 C   0  0  0  0  0  0  0  0  0  0  0  0
   -9.3290   21.1160  -32.0720 C   0  0  0  0  0  0  0  0  0  0  0  0
   -9.4240   19.7300  -32.2020 C   0  0  0  0  0  0  0  0  0  0  0  0
   -8.2670   18.9490  -32.2250 C   0  0  0  0  0  0  0  0  0  0  0  0
   -7.0140   19.5520  -32.1060 C   0  0  0  0  0  0  0  0  0  0  0  0
   -6.9030   20.9440  -31.9640 C   0  0  0  0  0  0  0  0  0  0  0  0
   -5.6000   21.5330  -31.8120 N   0  0  0  0  0  0  0  0  0  0  0  0
   -5.3290   22.6070  -31.0770 N   0  0  0  0  0  0  0  0  0  0  0  0
   -3.9960   22.8580  -31.1260 C   0  0  0  0  0  0  0  0  0  0  0  0
   -3.3450   23.9750  -30.4180 C   0  0  0  0  0  0  0  0  0  0  0  0
   -3.8610   25.2990  -30.5080 N   0  0  0  0  0  0  0  0  0  0  0  0
   -2.3170   23.7570  -29.7230 O   0  0  0  0  0  0  0  0  0  0  0  0
   -3.4080   21.8880  -31.9280 C   0  0  0  0  0  0  0  0  0  0  0  0
   -2.1020   21.6270  -32.3420 C   0  0  0  0  0  0  0  0  0  0  0  0
   -1.9020   20.5160  -33.1820 C   0  0  0  0  0  0  0  0  0  0  0  0
   -3.0010   19.7180  -33.5710 C   0  0  0  0  0  0  0  0  0  0  0  0
   -4.2640   20.0140  -33.1370 N   0  0  0  0  0  0  0  0  0  0  0  0
   -4.4410   21.0860  -32.3240 C   0  0  0  0  0  0  0  0  0  0  0  0
   -7.9976   23.5303  -30.8011 H   0  0  0  0  0  0  0  0  0  0  0  0
   -7.0955   23.6046  -32.3526 H   0  0  0  0  0  0  0  0  0  0  0  0
   -8.8901   23.6812  -32.3526 H   0  0  0  0  0  0  0  0  0  0  0  0
  -10.2444   21.7254  -32.0484 H   0  0  0  0  0  0  0  0  0  0  0  0
  -10.4113   19.2523  -32.2864 H   0  0  0  0  0  0  0  0  0  0  0  0
   -8.3431   17.8574  -32.3370 H   0  0  0  0  0  0  0  0  0  0  0  0
   -6.1060   18.9313  -32.1236 H   0  0  0  0  0  0  0  0  0  0  0  0
   -6.0360   23.1440  -30.5270 H   0  0  0  0  0  0  0  0  0  0  0  0
   -3.4950   25.9730  -31.2170 H   0  0  0  0  0  0  0  0  0  0  0  0
   -1.2628   22.2635  -32.0249 H   0  0  0  0  0  0  0  0  0  0  0  0
   -0.8902   20.2689  -33.5357 H   0  0  0  0  0  0  0  0  0  0  0  0
   -2.8396   18.8511  -34.2286 H   0  0  0  0  0  0  0  0  0  0  0  0
  1  2  1  0
  2  3  2  0
  3  4  1  0
  4  5  2  0
  5  6  1  0
  6  7  2  0
  7  8  1  0
  8  9  1  0
  9 10  2  0
 10 11  1  0
 11 12  1  0
 11 13  2  0
 10 14  1  0
 14 15  2  0
 15 16  1  0
 16 17  2  0
 17 18  1  0
 18 19  2  0
  7  2  1  0
 19  8  1  0
 19 14  1  0
  1 20  1  0
  1 21  1  0
  1 22  1  0
  3 23  1  0
  4 24  1  0
  5 25  1  0
  6 26  1  0
  9 27  1  0
 12 28  1  0
 15 29  1  0
 16 30  1  0
 17 31  1  0
M  CHG  2   9   1  12  -1
M  END
>  <UniqueID>  (31) 
31

>  <SMILES>  (31) 
Cc1ccccc1-n1[nH+]c(C([NH-])=O)c2cccnc21

>  <Energy>  (31) 
81.15355289560712

>  <Genealogy>  (31) 
Cc1ccccc1-n1[nH+]c(C([NH-])=O)c2cccnc21 (protonated)
Cc1ccccc1-n1[nH+]c(C([NH-])=O)c2cccnc21 (3D coordinates assigned)
Cc1ccccc1-n1[nH+]c(C([NH-])=O)c2cccnc21 (optimized conformer: 81.15355289560712 kcal/mol)

>  <smiles>  (31) 
Cc1ccccc1-n1nc(C(N)=O)c2cccnc21

>  <score_type>  (31) 
oracle

>  <origin>  (31) 
adg

>  <m_score__min__energy>  (31) 
-9.3599999999999994

>  <m_primary>  (31) 
energy

$$$$
31:0
     RDKit          3D

 32 32  0  0  0  0  0  0  0  0999 V2000
   -5.5377   16.5375  -32.4743 H   0  0  0  0  0  0  0  0  0  0  0  0
   -5.9270   17.5390  -32.2390 C   0  0  0  0  0  0  0  0  0  0  0  0
   -5.6977   18.0043  -31.2690 H   0  0  0  0  0  0  0  0  0  0  0  0
   -6.6780   18.1900  -33.1310 C   0  0  0  0  0  0  0  0  0  0  0  0
   -6.8981   17.7107  -34.0963 H   0  0  0  0  0  0  0  0  0  0  0  0
   -7.2330   19.5650  -32.8510 C   0  0  0  0  0  0  0  0  0  0  0  0
   -6.7939   19.9402  -31.9148 H   0  0  0  0  0  0  0  0  0  0  0  0
   -6.9755   20.2125  -33.7021 H   0  0  0  0  0  0  0  0  0  0  0  0
   -8.7110   19.5570  -32.7160 N   0  0  1  0  0  0  0  0  0  0  0  0
   -9.1320   19.2760  -33.6320 H   0  0  0  0  0  0  0  0  0  0  0  0
   -9.1030   18.5440  -31.7150 C   0  0  0  0  0  0  0  0  0  0  0  0
   -8.9467   18.9480  -30.7039 H   0  0  0  0  0  0  0  0  0  0  0  0
  -10.1647   18.2889  -31.8478 H   0  0  0  0  0  0  0  0  0  0  0  0
   -8.4895   17.6407  -31.8478 H   0  0  0  0  0  0  0  0  0  0  0  0
   -9.2120   20.8980  -32.3210 C   0  0  0  0  0  0  0  0  0  0  0  0
   -9.4528   21.4684  -33.2302 H   0  0  0  0  0  0  0  0  0  0  0  0
  -10.1026   20.7544  -31.6916 H   0  0  0  0  0  0  0  0  0  0  0  0
   -8.1980   21.6690  -31.5190 C   0  0  0  0  0  0  0  0  0  0  0  0
   -7.8879   21.2875  -30.5350 H   0  0  0  0  0  0  0  0  0  0  0  0
   -7.6660   22.8070  -31.9760 C   0  0  0  0  0  0  0  0  0  0  0  0
   -8.0800   23.2538  -32.8920 H   0  0  0  0  0  0  0  0  0  0  0  0
   -6.5430   23.4880  -31.2980 C   0  0  0  0  0  0  0  0  0  0  0  0
   -6.8450   24.5370  -30.4140 C   0  0  0  0  0  0  0  0  0  0  0  0
   -7.8936   24.8223  -30.2439 H   0  0  0  0  0  0  0  0  0  0  0  0
   -5.8240   25.2210  -29.7490 C   0  0  0  0  0  0  0  0  0  0  0  0
   -6.0708   26.0485  -29.0675 H   0  0  0  0  0  0  0  0  0  0  0  0
   -4.4910   24.8560  -29.9480 C   0  0  0  0  0  0  0  0  0  0  0  0
   -3.6879   25.4027  -29.4321 H   0  0  0  0  0  0  0  0  0  0  0  0
   -4.1780   23.7970  -30.8020 C   0  0  0  0  0  0  0  0  0  0  0  0
   -3.1272   23.5068  -30.9492 H   0  0  0  0  0  0  0  0  0  0  0  0
   -5.1920   23.1010  -31.4730 C   0  0  0  0  0  0  0  0  0  0  0  0
   -4.7290   21.7050  -32.4420 Cl  0  0  0  0  0  0  0  0  0  0  0  0
  1  2  1  0
  2  3  1  0
  2  4  2  0
  4  5  1  0
  4  6  1  0
  6  7  1  0
  6  8  1  0
  6  9  1  0
  9 10  1  6
  9 11  1  0
 11 12  1  0
 11 13  1  0
 11 14  1  0
  9 15  1  0
 15 16  1  0
 15 17  1  0
 15 18  1  0
 18 19  1  0
 18 20  2  0
 20 21  1  0
 20 22  1  0
 22 23  2  0
 23 24  1  0
 23 25  1  0
 25 26  1  0
 25 27  2  0
 27 28  1  0
 27 29  1  0
 29 30  1  0
 29 31  2  0
 31 32  1  0
 31 22  1  0
M  CHG  1   9   1
M  END
>  <UniqueID>  (32) 
32

>  <SMILES>  (32) 
C=CC[N@@H+](C)C/C=C/c1ccccc1Cl

>  <Energy>  (32) 
33.064886232011965

>  <Genealogy>  (32) 
C=CC[NH+](C)CC=Cc1ccccc1Cl (protonated)
C=CC[N@@H+](C)CC=Cc1ccccc1Cl (chirality)
C=CC[N@@H+](C)C/C=C/c1ccccc1Cl (cis-trans isomerization)
C=CC[N@@H+](C)C/C=C/c1ccccc1Cl (3D coordinates assigned)
C=CC[N@@H+](C)C/C=C/c1ccccc1Cl (optimized conformer: 33.064886232011965 kcal/mol)

>  <smiles>  (32) 
C=CCN(C)CC=Cc1ccccc1Cl

>  <score_type>  (32) 
oracle

>  <origin>  (32) 
adg

>  <m_score__min__energy>  (32) 
-5.8700000000000001

>  <m_primary>  (32) 
energy

$$$$
32:0
     RDKit          3D

 48 48  0  0  0  0  0  0  0  0999 V2000
   -1.5110   26.6010  -24.8480 C   0  0  0  0  0  0  0  0  0  0  0  0
   -0.8260   27.2150  -26.0650 C   0  0  0  0  0  0  0  0  0  0  0  0
   -0.0040   26.1830  -26.8620 C   0  0  0  0  0  0  0  0  0  0  0  0
   -0.7260   24.9080  -27.0260 N   0  0  0  0  0  0  0  0  0  0  0  0
   -0.1240   23.6590  -26.5150 C   0  0  0  0  0  0  0  0  0  0  0  0
    0.3960   23.8210  -25.0700 C   0  0  0  0  0  0  0  0  0  0  0  0
   -0.1440   22.7390  -24.1360 C   0  0  0  0  0  0  0  0  0  0  0  0
   -1.8340   24.8390  -27.9500 C   0  0  0  0  0  0  0  0  0  0  0  0
   -1.8950   25.6460  -28.9100 O   0  0  0  0  0  0  0  0  0  0  0  0
   -2.8920   23.7780  -27.8280 C   0  0  0  0  0  0  0  0  0  0  0  0
   -4.1860   24.3120  -28.2800 N   0  0  0  0  0  0  0  0  0  0  0  0
   -4.7240   23.5520  -29.4160 C   0  0  0  0  0  0  0  0  0  0  0  0
   -4.5950   24.3420  -30.6850 C   0  0  0  0  0  0  0  0  0  0  0  0
   -3.8670   25.3760  -30.7110 O   0  0  0  0  0  0  0  0  0  0  0  0
   -5.3780   23.9650  -31.8240 N   0  0  0  0  0  0  0  0  0  0  0  0
   -6.4060   22.9640  -31.8810 C   0  0  0  0  0  0  0  0  0  0  0  0
   -7.7450   23.2650  -31.5770 C   0  0  0  0  0  0  0  0  0  0  0  0
   -8.7280   22.2770  -31.6620 C   0  0  0  0  0  0  0  0  0  0  0  0
   -8.3910   20.9850  -32.0610 C   0  0  0  0  0  0  0  0  0  0  0  0
   -7.0730   20.6810  -32.3950 C   0  0  0  0  0  0  0  0  0  0  0  0
   -6.0760   21.6680  -32.3250 C   0  0  0  0  0  0  0  0  0  0  0  0
   -4.6620   21.3280  -32.6890 C   0  0  0  0  0  0  0  0  0  0  0  0
   -1.0596   27.0056  -23.9301 H   0  0  0  0  0  0  0  0  0  0  0  0
   -2.5832   26.8461  -24.8682 H   0  0  0  0  0  0  0  0  0  0  0  0
   -1.3842   25.5085  -24.8682 H   0  0  0  0  0  0  0  0  0  0  0  0
   -1.5956   27.6398  -26.7263 H   0  0  0  0  0  0  0  0  0  0  0  0
   -0.1321   27.9883  -25.7037 H   0  0  0  0  0  0  0  0  0  0  0  0
    0.2161   26.5968  -27.8572 H   0  0  0  0  0  0  0  0  0  0  0  0
    0.9204   25.9798  -26.3016 H   0  0  0  0  0  0  0  0  0  0  0  0
   -0.8844   22.8643  -26.5326 H   0  0  0  0  0  0  0  0  0  0  0  0
    0.7306   23.4036  -27.1588 H   0  0  0  0  0  0  0  0  0  0  0  0
    1.4944   23.7635  -25.0806 H   0  0  0  0  0  0  0  0  0  0  0  0
    0.0489   24.7947  -24.6940 H   0  0  0  0  0  0  0  0  0  0  0  0
    0.0095   23.0466  -23.0911 H   0  0  0  0  0  0  0  0  0  0  0  0
   -1.2188   22.5968  -24.3223 H   0  0  0  0  0  0  0  0  0  0  0  0
    0.3885   21.7947  -24.3223 H   0  0  0  0  0  0  0  0  0  0  0  0
   -2.6161   22.9136  -28.4499 H   0  0  0  0  0  0  0  0  0  0  0  0
   -2.9746   23.4660  -26.7764 H   0  0  0  0  0  0  0  0  0  0  0  0
   -4.0430   25.3010  -28.5860 H   0  0  0  0  0  0  0  0  0  0  0  0
   -4.1659   22.6096  -29.5179 H   0  0  0  0  0  0  0  0  0  0  0  0
   -5.7886   23.3443  -29.2329 H   0  0  0  0  0  0  0  0  0  0  0  0
   -8.0201   24.2849  -31.2703 H   0  0  0  0  0  0  0  0  0  0  0  0
   -9.7718   22.5193  -31.4132 H   0  0  0  0  0  0  0  0  0  0  0  0
   -9.1654   20.2054  -32.1122 H   0  0  0  0  0  0  0  0  0  0  0  0
   -6.8115   19.6617  -32.7155 H   0  0  0  0  0  0  0  0  0  0  0  0
   -4.0713   21.1860  -31.7720 H   0  0  0  0  0  0  0  0  0  0  0  0
   -4.6486   20.4010  -33.2811 H   0  0  0  0  0  0  0  0  0  0  0  0
   -4.2286   22.1475  -33.2811 H   0  0  0  0  0  0  0  0  0  0  0  0
  1  2  1  0
  2  3  1  0
  3  4  1  0
  4  5  1  0
  5  6  1  0
  6  7  1  0
  4  8  1  0
  8  9  2  0
  8 10  1  0
 10 11  1  0
 11 12  1  0
 12 13  1  0
 13 14  2  0
 13 15  1  0
 15 16  1  0
 16 17  2  0
 17 18  1  0
 18 19  2  0
 19 20  1  0
 20 21  2  0
 21 22  1  0
 21 16  1  0
  1 23  1  0
  1 24  1  0
  1 25  1  0
  2 26  1  0
  2 27  1  0
  3 28  1  0
  3 29  1  0
  5 30  1  0
  5 31  1  0
  6 32  1  0
  6 33  1  0
  7 34  1  0
  7 35  1  0
  7 36  1  0
 10 37  1  0
 10 38  1  0
 11 39  1  0
 12 40  1  0
 12 41  1  0
 17 42  1  0
 18 43  1  0
 19 44  1  0
 20 45  1  0
 22 46  1  0
 22 47  1  0
 22 48  1  0
M  CHG  1  15  -1
M  END
>  <UniqueID>  (33) 
33

>  <SMILES>  (33) 
CCCN(CCC)C(=O)CNCC(=O)[N-]c1ccccc1C

>  <Energy>  (33) 
37.28310254960134

>  <Genealogy>  (33) 
CCCN(CCC)C(=O)CNCC(=O)[N-]c1ccccc1C (protonated)
CCCN(CCC)C(=O)CNCC(=O)[N-]c1ccccc1C (3D coordinates assigned)
CCCN(CCC)C(=O)CNCC(=O)[N-]c1ccccc1C (optimized conformer: 37.28310254960134 kcal/mol)

>  <smiles>  (33) 
CCCN(CCC)C(=O)CNCC(=O)Nc1ccccc1C

>  <score_type>  (33) 
oracle

>  <origin>  (33) 
adg

>  <m_score__min__energy>  (33) 
-8.7300000000000004

>  <m_primary>  (33) 
energy

$$$$
33:0
     RDKit          3D

 33 33  0  0  0  0  0  0  0  0999 V2000
   -6.7730   16.8320  -34.0140 C   0  0  0  0  0  0  0  0  0  0  0  0
   -6.7610   18.1310  -33.3180 N   0  0  0  0  0  0  0  0  0  0  0  0
   -5.4410   18.7770  -33.4200 C   0  0  0  0  0  0  0  0  0  0  0  0
   -7.2820   18.0560  -31.9260 C   0  0  0  0  0  0  0  0  0  0  0  0
   -8.7330   18.5470  -31.6950 C   0  0  0  0  0  0  0  0  0  0  0  0
   -9.0230   19.9640  -32.2050 C   0  0  0  0  0  0  0  0  0  0  0  0
   -7.8290   20.5510  -32.7170 O   0  0  0  0  0  0  0  0  0  0  0  0
   -7.2230   21.7040  -32.1990 C   0  0  0  0  0  0  0  0  0  0  0  0
   -7.9510   22.7000  -31.5220 C   0  0  0  0  0  0  0  0  0  0  0  0
   -7.2980   23.8300  -31.0200 C   0  0  0  0  0  0  0  0  0  0  0  0
   -5.9100   23.9870  -31.1850 C   0  0  0  0  0  0  0  0  0  0  0  0
   -5.2350   25.1500  -30.6700 N   0  0  0  0  0  0  0  0  0  0  0  0
   -5.8730   26.0500  -30.0850 O   0  0  0  0  0  0  0  0  0  0  0  0
   -3.8730   25.2880  -30.8130 O   0  0  0  0  0  0  0  0  0  0  0  0
   -5.1900   22.9900  -31.8640 C   0  0  0  0  0  0  0  0  0  0  0  0
   -5.8440   21.8600  -32.3640 C   0  0  0  0  0  0  0  0  0  0  0  0
   -6.7805   16.0191  -33.2730 H   0  0  0  0  0  0  0  0  0  0  0  0
   -7.6718   16.7620  -34.6442 H   0  0  0  0  0  0  0  0  0  0  0  0
   -5.8756   16.7454  -34.6442 H   0  0  0  0  0  0  0  0  0  0  0  0
   -7.4310   18.7440  -33.8430 H   0  0  0  0  0  0  0  0  0  0  0  0
   -5.0480   18.9694  -32.4108 H   0  0  0  0  0  0  0  0  0  0  0  0
   -4.7499   18.1153  -33.9627 H   0  0  0  0  0  0  0  0  0  0  0  0
   -5.5395   19.7287  -33.9627 H   0  0  0  0  0  0  0  0  0  0  0  0
   -7.2323   17.0040  -31.6085 H   0  0  0  0  0  0  0  0  0  0  0  0
   -6.6499   18.7437  -31.3450 H   0  0  0  0  0  0  0  0  0  0  0  0
   -9.4146   17.8527  -32.2082 H   0  0  0  0  0  0  0  0  0  0  0  0
   -8.8800   18.5748  -30.6052 H   0  0  0  0  0  0  0  0  0  0  0  0
   -9.7774   19.9164  -33.0042 H   0  0  0  0  0  0  0  0  0  0  0  0
   -9.3994   20.5775  -31.3732 H   0  0  0  0  0  0  0  0  0  0  0  0
   -9.0371   22.5893  -31.3873 H   0  0  0  0  0  0  0  0  0  0  0  0
   -7.8750   24.6031  -30.4913 H   0  0  0  0  0  0  0  0  0  0  0  0
   -4.1043   23.0991  -32.0032 H   0  0  0  0  0  0  0  0  0  0  0  0
   -5.2676   21.0863  -32.8923 H   0  0  0  0  0  0  0  0  0  0  0  0
  1  2  1  0
  2  3  1  0
  2  4  1  0
  4  5  1  0
  5  6  1  0
  6  7  1  0
  7  8  1  0
  8  9  2  0
  9 10  1  0
 10 11  2  0
 11 12  1  0
 12 13  2  0
 12 14  1  0
 11 15  1  0
 15 16  2  0
 16  8  1  0
  1 17  1  0
  1 18  1  0
  1 19  1  0
  2 20  1  0
  3 21  1  0
  3 22  1  0
  3 23  1  0
  4 24  1  0
  4 25  1  0
  5 26  1  0
  5 27  1  0
  6 28  1  0
  6 29  1  0
  9 30  1  0
 10 31  1  0
 15 32  1  0
 16 33  1  0
M  CHG  3   2   1  12   1  14  -1
M  END
>  <UniqueID>  (34) 
34

>  <SMILES>  (34) 
C[NH+](C)CCCOc1ccc([N+](=O)[O-])cc1

>  <Energy>  (34) 
35.97187134644832

>  <Genealogy>  (34) 
C[NH+](C)CCCOc1ccc([N+](=O)[O-])cc1 (protonated)
C[NH+](C)CCCOc1ccc([N+](=O)[O-])cc1 (3D coordinates assigned)
C[NH+](C)CCCOc1ccc([N+](=O)[O-])cc1 (optimized conformer: 35.97187134644832 kcal/mol)

>  <smiles>  (34) 
CN(C)CCCOc1ccc([N+](=O)[O-])cc1

>  <score_type>  (34) 
oracle

>  <origin>  (34) 
adg

>  <m_score__min__energy>  (34) 
-5.96

>  <m_primary>  (34) 
energy

$$$$
34:0
     RDKit          3D

 20 21  0  0  0  0  0  0  0  0999 V2000
   -6.0030   18.6380  -34.1390 Cl  0  0  0  0  0  0  0  0  0  0  0  0
   -7.0260   19.5440  -33.0410 C   0  0  0  0  0  0  0  0  0  0  0  0
   -8.2970   19.0640  -32.7150 C   0  0  0  0  0  0  0  0  0  0  0  0
   -9.1110   19.7820  -31.8360 C   0  0  0  0  0  0  0  0  0  0  0  0
   -8.6580   20.9810  -31.2810 C   0  0  0  0  0  0  0  0  0  0  0  0
   -7.3800   21.4800  -31.6010 C   0  0  0  0  0  0  0  0  0  0  0  0
   -6.9110   22.7180  -31.0300 N   0  0  0  0  0  0  0  0  0  0  0  0
   -6.4450   23.7990  -31.6920 C   0  0  0  0  0  0  0  0  0  0  0  0
   -6.1040   24.7630  -30.7680 C   0  0  0  0  0  0  0  0  0  0  0  0
   -6.3550   24.2830  -29.5360 N   0  0  0  0  0  0  0  0  0  0  0  0
   -6.8430   23.0430  -29.7200 C   0  0  0  0  0  0  0  0  0  0  0  0
   -6.5690   20.7460  -32.4870 C   0  0  0  0  0  0  0  0  0  0  0  0
   -8.6567   18.1202  -33.1508 H   0  0  0  0  0  0  0  0  0  0  0  0
  -10.1112   19.4023  -31.5802 H   0  0  0  0  0  0  0  0  0  0  0  0
   -9.3043   21.5402  -30.5885 H   0  0  0  0  0  0  0  0  0  0  0  0
   -6.3532   23.8940  -32.7840 H   0  0  0  0  0  0  0  0  0  0  0  0
   -5.6953   25.7578  -30.9988 H   0  0  0  0  0  0  0  0  0  0  0  0
   -6.1980   24.7710  -28.6260 H   0  0  0  0  0  0  0  0  0  0  0  0
   -7.1498   22.3740  -28.9025 H   0  0  0  0  0  0  0  0  0  0  0  0
   -5.5676   21.1199  -32.7464 H   0  0  0  0  0  0  0  0  0  0  0  0
  1  2  1  0
  2  3  2  0
  3  4  1  0
  4  5  2  0
  5  6  1  0
  6  7  1  0
  7  8  1  0
  8  9  2  0
  9 10  1  0
 10 11  2  0
  6 12  2  0
 12  2  1  0
 11  7  1  0
  3 13  1  0
  4 14  1  0
  5 15  1  0
  8 16  1  0
  9 17  1  0
 10 18  1  0
 11 19  1  0
 12 20  1  0
M  CHG  1  10   1
M  END
>  <UniqueID>  (35) 
35

>  <SMILES>  (35) 
Clc1cccc(-n2cc[nH+]c2)c1

>  <Energy>  (35) 
54.004752487670956

>  <Genealogy>  (35) 
Clc1cccc(-n2cc[nH+]c2)c1 (protonated)
Clc1cccc(-n2cc[nH+]c2)c1 (3D coordinates assigned)
Clc1cccc(-n2cc[nH+]c2)c1 (optimized conformer: 54.004752487670956 kcal/mol)

>  <smiles>  (35) 
Clc1cccc(-n2ccnc2)c1

>  <score_type>  (35) 
oracle

>  <origin>  (35) 
adg

>  <m_score__min__energy>  (35) 
-5.0099999999999998

>  <m_primary>  (35) 
energy

$$$$
35:0
     RDKit          3D

 46 49  0  0  0  0  0  0  0  0999 V2000
   -9.5550   21.6710  -30.5350 C   0  0  0  0  0  0  0  0  0  0  0  0
   -8.9730   22.0440  -31.8920 C   0  0  0  0  0  0  0  0  0  0  0  0
   -7.8020   21.2160  -32.1940 N   0  0  0  0  0  0  0  0  0  0  0  0
   -6.6000   21.8160  -32.2600 N   0  0  0  0  0  0  0  0  0  0  0  0
   -5.4490   21.1360  -32.5380 C   0  0  0  0  0  0  0  0  0  0  0  0
   -4.1900   21.8790  -32.6690 C   0  0  0  0  0  0  0  0  0  0  0  0
   -3.8550   22.3210  -33.7990 O   0  0  0  0  0  0  0  0  0  0  0  0
   -3.3030   22.0630  -31.5570 N   0  0  0  0  0  0  0  0  0  0  0  0
   -3.7020   22.5050  -30.2220 C   0  0  0  0  0  0  0  0  0  0  0  0
   -4.6430   23.6650  -30.3020 C   0  0  0  0  0  0  0  0  0  0  0  0
   -5.9490   23.6840  -29.8550 C   0  0  0  0  0  0  0  0  0  0  0  0
   -6.4160   24.9510  -30.1340 C   0  0  0  0  0  0  0  0  0  0  0  0
   -5.3660   25.6240  -30.7270 C   0  0  0  0  0  0  0  0  0  0  0  0
   -4.3250   24.8310  -30.8150 O   0  0  0  0  0  0  0  0  0  0  0  0
   -5.5490   19.7590  -32.7410 C   0  0  0  0  0  0  0  0  0  0  0  0
   -4.6410   18.7320  -32.9480 C   0  0  0  0  0  0  0  0  0  0  0  0
   -3.1420   18.8270  -32.8860 C   0  0  0  0  0  0  0  0  0  0  0  0
   -5.3530   17.5800  -33.0820 N   0  0  0  0  0  0  0  0  0  0  0  0
   -4.8430   16.2590  -33.3300 C   0  0  0  0  0  0  0  0  0  0  0  0
   -4.3320   15.9090  -34.5920 C   0  0  0  0  0  0  0  0  0  0  0  0
   -3.8610   14.6140  -34.8280 C   0  0  0  0  0  0  0  0  0  0  0  0
   -3.9070   13.6540  -33.8110 C   0  0  0  0  0  0  0  0  0  0  0  0
   -3.2650   11.8850  -34.1360 Br  0  0  0  0  0  0  0  0  0  0  0  0
   -4.4320   13.9900  -32.5600 C   0  0  0  0  0  0  0  0  0  0  0  0
   -4.9060   15.2840  -32.3220 C   0  0  0  0  0  0  0  0  0  0  0  0
   -6.6490   17.8270  -32.9220 N   0  0  0  0  0  0  0  0  0  0  0  0
   -6.7680   19.1490  -32.7130 C   0  0  0  0  0  0  0  0  0  0  0  0
   -7.9240   19.8690  -32.4440 C   0  0  0  0  0  0  0  0  0  0  0  0
   -9.0460   19.2940  -32.4210 O   0  0  0  0  0  0  0  0  0  0  0  0
   -8.9171   22.0798  -29.7375 H   0  0  0  0  0  0  0  0  0  0  0  0
  -10.5688   22.0881  -30.4437 H   0  0  0  0  0  0  0  0  0  0  0  0
   -9.5995   20.5757  -30.4437 H   0  0  0  0  0  0  0  0  0  0  0  0
   -9.7364   21.8881  -32.6684 H   0  0  0  0  0  0  0  0  0  0  0  0
   -8.6654   23.0999  -31.8689 H   0  0  0  0  0  0  0  0  0  0  0  0
   -4.1991   21.6734  -29.7011 H   0  0  0  0  0  0  0  0  0  0  0  0
   -2.8024   22.8199  -29.6729 H   0  0  0  0  0  0  0  0  0  0  0  0
   -6.5010   22.8614  -29.3768 H   0  0  0  0  0  0  0  0  0  0  0  0
   -7.4215   25.3458  -29.9263 H   0  0  0  0  0  0  0  0  0  0  0  0
   -5.3979   26.6676  -31.0733 H   0  0  0  0  0  0  0  0  0  0  0  0
   -2.8191   18.8475  -31.8347 H   0  0  0  0  0  0  0  0  0  0  0  0
   -2.6982   17.9552  -33.3890 H   0  0  0  0  0  0  0  0  0  0  0  0
   -2.8118   19.7479  -33.3890 H   0  0  0  0  0  0  0  0  0  0  0  0
   -4.3026   16.6575  -35.3975 H   0  0  0  0  0  0  0  0  0  0  0  0
   -3.4535   14.3493  -35.8149 H   0  0  0  0  0  0  0  0  0  0  0  0
   -4.4724   13.2351  -31.7610 H   0  0  0  0  0  0  0  0  0  0  0  0
   -5.3304   15.5392  -31.3398 H   0  0  0  0  0  0  0  0  0  0  0  0
  1  2  1  0
  2  3  1  0
  3  4  1  0
  4  5  2  0
  5  6  1  0
  6  7  2  0
  6  8  1  0
  8  9  1  0
  9 10  1  0
 10 11  2  0
 11 12  1  0
 12 13  2  0
 13 14  1  0
  5 15  1  0
 15 16  2  0
 16 17  1  0
 16 18  1  0
 18 19  1  0
 19 20  2  0
 20 21  1  0
 21 22  2  0
 22 23  1  0
 22 24  1  0
 24 25  2  0
 18 26  1  0
 26 27  2  0
 27 28  1  0
 28 29  2  0
 28  3  1  0
 14 10  1  0
 27 15  1  0
 25 19  1  0
  1 30  1  0
  1 31  1  0
  1 32  1  0
  2 33  1  0
  2 34  1  0
  9 35  1  0
  9 36  1  0
 11 37  1  0
 12 38  1  0
 13 39  1  0
 17 40  1  0
 17 41  1  0
 17 42  1  0
 20 43  1  0
 21 44  1  0
 24 45  1  0
 25 46  1  0
M  CHG  1   8  -1
M  END
>  <UniqueID>  (36) 
36

>  <SMILES>  (36) 
CCn1nc(C(=O)[N-]Cc2ccco2)c2c(C)n(-c3ccc(Br)cc3)nc2c1=O

>  <Energy>  (36) 
121.17420337006443

>  <Genealogy>  (36) 
CCn1nc(C(=O)[N-]Cc2ccco2)c2c(C)n(-c3ccc(Br)cc3)nc2c1=O (protonated)
CCn1nc(C(=O)[N-]Cc2ccco2)c2c(C)n(-c3ccc(Br)cc3)nc2c1=O (3D coordinates assigned)
CCn1nc(C(=O)[N-]Cc2ccco2)c2c(C)n(-c3ccc(Br)cc3)nc2c1=O (optimized conformer: 121.17420337006443 kcal/mol)

>  <smiles>  (36) 
CCn1nc(C(=O)NCc2ccco2)c2c(C)n(-c3ccc(Br)cc3)nc2c1=O

>  <score_type>  (36) 
oracle

>  <origin>  (36) 
adg

>  <m_score__min__energy>  (36) 
-9.6600000000000001

>  <m_primary>  (36) 
energy

$$$$
36:0
     RDKit          3D

 47 49  0  0  0  0  0  0  0  0999 V2000
   -3.2070   20.1230  -33.4260 C   0  0  0  0  0  0  0  0  0  0  0  0
   -4.5680   20.2380  -33.8260 O   0  0  0  0  0  0  0  0  0  0  0  0
   -5.6070   19.4030  -33.3780 C   0  0  0  0  0  0  0  0  0  0  0  0
   -5.8010   18.1140  -33.9140 C   0  0  0  0  0  0  0  0  0  0  0  0
   -6.8690   17.3220  -33.4850 C   0  0  0  0  0  0  0  0  0  0  0  0
   -7.7610   17.8040  -32.5270 C   0  0  0  0  0  0  0  0  0  0  0  0
   -7.5790   19.0750  -31.9820 C   0  0  0  0  0  0  0  0  0  0  0  0
   -6.4930   19.8770  -32.3830 C   0  0  0  0  0  0  0  0  0  0  0  0
   -6.3270   21.2130  -31.7680 C   0  0  0  0  0  0  0  0  0  0  0  0
   -7.3790   22.1420  -31.7390 C   0  0  0  0  0  0  0  0  0  0  0  0
   -7.1670   23.3980  -31.1720 C   0  0  0  0  0  0  0  0  0  0  0  0
   -5.9170   23.7280  -30.6490 C   0  0  0  0  0  0  0  0  0  0  0  0
   -4.8730   22.7830  -30.6950 C   0  0  0  0  0  0  0  0  0  0  0  0
   -3.5160   23.0800  -30.1610 C   0  0  0  0  0  0  0  0  0  0  0  0
   -3.1860   24.3930  -29.7960 C   0  0  0  0  0  0  0  0  0  0  0  0
   -1.9010   24.7180  -29.3190 C   0  0  0  0  0  0  0  0  0  0  0  0
   -1.5780   26.0370  -28.9650 O   0  0  0  0  0  0  0  0  0  0  0  0
   -0.8780   26.4200  -27.7850 C   0  0  0  0  0  0  0  0  0  0  0  0
   -0.9270   23.6960  -29.1970 C   0  0  0  0  0  0  0  0  0  0  0  0
    0.3850   23.9180  -28.7350 O   0  0  0  0  0  0  0  0  0  0  0  0
    0.9360   23.4890  -27.4900 C   0  0  0  0  0  0  0  0  0  0  0  0
   -1.2520   22.3800  -29.5570 C   0  0  0  0  0  0  0  0  0  0  0  0
   -0.2600   21.3920  -29.4200 O   0  0  0  0  0  0  0  0  0  0  0  0
   -0.5020   19.9910  -29.4810 C   0  0  0  0  0  0  0  0  0  0  0  0
   -2.5360   22.0800  -30.0450 C   0  0  0  0  0  0  0  0  0  0  0  0
   -5.1140   21.5660  -31.2600 N   0  0  0  0  0  0  0  0  0  0  0  0
   -3.1468   20.1179  -32.3277 H   0  0  0  0  0  0  0  0  0  0  0  0
   -2.7868   19.1861  -33.8206 H   0  0  0  0  0  0  0  0  0  0  0  0
   -2.6355   20.9761  -33.8206 H   0  0  0  0  0  0  0  0  0  0  0  0
   -5.1067   17.7289  -34.6754 H   0  0  0  0  0  0  0  0  0  0  0  0
   -7.0070   16.3145  -33.9043 H   0  0  0  0  0  0  0  0  0  0  0  0
   -8.6078   17.1819  -32.2014 H   0  0  0  0  0  0  0  0  0  0  0  0
   -8.2896   19.4541  -31.2328 H   0  0  0  0  0  0  0  0  0  0  0  0
   -8.3614   21.8815  -32.1597 H   0  0  0  0  0  0  0  0  0  0  0  0
   -7.9873   24.1301  -31.1371 H   0  0  0  0  0  0  0  0  0  0  0  0
   -5.7473   24.7194  -30.2036 H   0  0  0  0  0  0  0  0  0  0  0  0
   -3.9450   25.1843  -29.8838 H   0  0  0  0  0  0  0  0  0  0  0  0
   -1.4515   26.1062  -26.9003 H   0  0  0  0  0  0  0  0  0  0  0  0
    0.1101   25.9369  -27.7717 H   0  0  0  0  0  0  0  0  0  0  0  0
   -0.7521   27.5127  -27.7717 H   0  0  0  0  0  0  0  0  0  0  0  0
    0.3638   23.9345  -26.6629 H   0  0  0  0  0  0  0  0  0  0  0  0
    0.8826   22.3923  -27.4239 H   0  0  0  0  0  0  0  0  0  0  0  0
    1.9862   23.8096  -27.4239 H   0  0  0  0  0  0  0  0  0  0  0  0
   -0.5719   19.5862  -28.4606 H   0  0  0  0  0  0  0  0  0  0  0  0
   -1.4456   19.8048  -30.0148 H   0  0  0  0  0  0  0  0  0  0  0  0
    0.3245   19.4990  -30.0148 H   0  0  0  0  0  0  0  0  0  0  0  0
   -2.7766   21.0480  -30.3401 H   0  0  0  0  0  0  0  0  0  0  0  0
  1  2  1  0
  2  3  1  0
  3  4  2  0
  4  5  1  0
  5  6  2  0
  6  7  1  0
  7  8  2  0
  8  9  1  0
  9 10  2  0
 10 11  1  0
 11 12  2  0
 12 13  1  0
 13 14  1  0
 14 15  2  0
 15 16  1  0
 16 17  1  0
 17 18  1  0
 16 19  2  0
 19 20  1  0
 20 21  1  0
 19 22  1  0
 22 23  1  0
 23 24  1  0
 22 25  2  0
 13 26  2  0
  8  3  1  0
 26  9  1  0
 25 14  1  0
  1 27  1  0
  1 28  1  0
  1 29  1  0
  4 30  1  0
  5 31  1  0
  6 32  1  0
  7 33  1  0
 10 34  1  0
 11 35  1  0
 12 36  1  0
 15 37  1  0
 18 38  1  0
 18 39  1  0
 18 40  1  0
 21 41  1  0
 21 42  1  0
 21 43  1  0
 24 44  1  0
 24 45  1  0
 24 46  1  0
 25 47  1  0
M  END
>  <UniqueID>  (37) 
37

>  <SMILES>  (37) 
COc1ccccc1-c1cccc(-c2cc(OC)c(OC)c(OC)c2)n1

>  <Energy>  (37) 
60.58054204623649

>  <Genealogy>  (37) 
COc1ccccc1-c1cccc(-c2cc(OC)c(OC)c(OC)c2)n1 (3D coordinates assigned)
COc1ccccc1-c1cccc(-c2cc(OC)c(OC)c(OC)c2)n1 (optimized conformer: 60.58054204623649 kcal/mol)

>  <smiles>  (37) 
COc1ccccc1-c1cccc(-c2cc(OC)c(OC)c(OC)c2)n1

>  <score_type>  (37) 
oracle

>  <origin>  (37) 
adg

>  <m_score__min__energy>  (37) 
-7.8099999999999996

>  <m_primary>  (37) 
energy

$$$$
37:0
     RDKit          3D

 38 40  0  0  0  0  0  0  0  0999 V2000
   -2.9760   22.0310  -27.7530 C   0  0  0  0  0  0  0  0  0  0  0  0
   -2.4200   23.3530  -28.1820 C   0  0  0  0  0  0  0  0  0  0  0  0
   -1.1410   23.7990  -27.9290 C   0  0  0  0  0  0  0  0  0  0  0  0
   -1.0250   25.0060  -28.5880 C   0  0  0  0  0  0  0  0  0  0  0  0
   -2.1530   25.2900  -29.2000 O   0  0  0  0  0  0  0  0  0  0  0  0
   -3.0160   24.3270  -28.9700 C   0  0  0  0  0  0  0  0  0  0  0  0
   -4.3830   24.3280  -29.5170 C   0  0  0  0  0  0  0  0  0  0  0  0
   -5.3490   24.5210  -28.7290 O   0  0  0  0  0  0  0  0  0  0  0  0
   -4.6380   24.0570  -30.9070 N   0  0  0  0  0  0  0  0  0  0  0  0
   -3.8840   23.0100  -31.6070 C   0  0  0  0  0  0  0  0  0  0  0  0
   -4.7380   22.3840  -32.7210 C   0  0  0  0  0  0  0  0  0  0  0  0
   -6.1620   22.2660  -32.3250 N   0  0  0  0  0  0  0  0  0  0  0  0
   -6.3840   21.3110  -31.2160 C   0  0  0  0  0  0  0  0  0  0  0  0
   -7.3820   20.2580  -31.5930 C   0  0  0  0  0  0  0  0  0  0  0  0
   -7.1280   18.8970  -31.7020 C   0  0  0  0  0  0  0  0  0  0  0  0
   -8.2470   18.1610  -32.1120 C   0  0  0  0  0  0  0  0  0  0  0  0
   -9.3780   18.9390  -32.3280 C   0  0  0  0  0  0  0  0  0  0  0  0
   -8.9830   20.5450  -32.0140 S   0  0  0  0  0  0  0  0  0  0  0  0
   -6.7830   23.5890  -32.0470 C   0  0  0  0  0  0  0  0  0  0  0  0
   -5.7820   24.6700  -31.5870 C   0  0  0  0  0  0  0  0  0  0  0  0
   -2.9970   21.9812  -26.6543 H   0  0  0  0  0  0  0  0  0  0  0  0
   -3.9977   21.9184  -28.1447 H   0  0  0  0  0  0  0  0  0  0  0  0
   -2.3419   21.2220  -28.1447 H   0  0  0  0  0  0  0  0  0  0  0  0
   -0.3707   23.2963  -27.3257 H   0  0  0  0  0  0  0  0  0  0  0  0
   -0.1234   25.6361  -28.5994 H   0  0  0  0  0  0  0  0  0  0  0  0
   -2.9785   23.4507  -32.0496 H   0  0  0  0  0  0  0  0  0  0  0  0
   -3.6109   22.2259  -30.8854 H   0  0  0  0  0  0  0  0  0  0  0  0
   -4.6697   23.0155  -33.6191 H   0  0  0  0  0  0  0  0  0  0  0  0
   -4.3537   21.3723  -32.9178 H   0  0  0  0  0  0  0  0  0  0  0  0
   -5.4293   20.8258  -30.9649 H   0  0  0  0  0  0  0  0  0  0  0  0
   -6.7775   21.8679  -30.3529 H   0  0  0  0  0  0  0  0  0  0  0  0
   -6.1488   18.4437  -31.4883 H   0  0  0  0  0  0  0  0  0  0  0  0
   -8.2319   17.0698  -32.2500 H   0  0  0  0  0  0  0  0  0  0  0  0
  -10.3628   18.5688  -32.6492 H   0  0  0  0  0  0  0  0  0  0  0  0
   -7.2731   23.9408  -32.9668 H   0  0  0  0  0  0  0  0  0  0  0  0
   -7.4916   23.4395  -31.2190 H   0  0  0  0  0  0  0  0  0  0  0  0
   -5.4242   25.2284  -32.4646 H   0  0  0  0  0  0  0  0  0  0  0  0
   -6.2898   25.3484  -30.8857 H   0  0  0  0  0  0  0  0  0  0  0  0
  1  2  1  0
  2  3  1  0
  3  4  2  0
  4  5  1  0
  5  6  1  0
  6  7  1  0
  7  8  2  0
  7  9  1  0
  9 10  1  0
 10 11  1  0
 11 12  1  0
 12 13  1  0
 13 14  1  0
 14 15  2  0
 15 16  1  0
 16 17  2  0
 17 18  1  0
 12 19  1  0
 19 20  1  0
  6  2  2  0
 20  9  1  0
 18 14  1  0
  1 21  1  0
  1 22  1  0
  1 23  1  0
  3 24  1  0
  4 25  1  0
 10 26  1  0
 10 27  1  0
 11 28  1  0
 11 29  1  0
 13 30  1  0
 13 31  1  0
 15 32  1  0
 16 33  1  0
 17 34  1  0
 19 35  1  0
 19 36  1  0
 20 37  1  0
 20 38  1  0
M  END
>  <UniqueID>  (38) 
38

>  <SMILES>  (38) 
Cc1ccoc1C(=O)N1CCN(Cc2cccs2)CC1

>  <Energy>  (38) 
103.72293815634394

>  <Genealogy>  (38) 
Cc1ccoc1C(=O)N1CCN(Cc2cccs2)CC1 (3D coordinates assigned)
Cc1ccoc1C(=O)N1CCN(Cc2cccs2)CC1 (nonaromatic ring conformer: 103.72293815634394 kcal/mol)

>  <smiles>  (38) 
Cc1ccoc1C(=O)N1CCN(Cc2cccs2)CC1

>  <score_type>  (38) 
oracle

>  <origin>  (38) 
adg

>  <m_score__min__energy>  (38) 
-7.1200000000000001

>  <m_primary>  (38) 
energy

$$$$
38:0
     RDKit          3D

 39 40  0  0  0  0  0  0  0  0999 V2000
   -8.4700   23.2010  -31.9560 C   0  0  0  0  0  0  0  0  0  0  0  0
   -7.2910   22.4100  -32.0610 O   0  0  0  0  0  0  0  0  0  0  0  0
   -7.2770   21.0280  -32.3140 C   0  0  0  0  0  0  0  0  0  0  0  0
   -8.3700   20.2020  -31.9820 C   0  0  0  0  0  0  0  0  0  0  0  0
   -8.3210   18.8280  -32.2310 C   0  0  0  0  0  0  0  0  0  0  0  0
   -9.3770   18.0430  -31.9060 F   0  0  0  0  0  0  0  0  0  0  0  0
   -7.1840   18.2620  -32.8080 C   0  0  0  0  0  0  0  0  0  0  0  0
   -6.0950   19.0670  -33.1450 C   0  0  0  0  0  0  0  0  0  0  0  0
   -6.1330   20.4550  -32.9140 C   0  0  0  0  0  0  0  0  0  0  0  0
   -4.9860   21.2680  -33.2440 N   0  0  0  0  0  0  0  0  0  0  0  0
   -3.7500   20.5820  -32.8420 C   0  0  0  0  0  0  0  0  0  0  0  0
   -3.0170   21.3900  -31.8170 C   0  0  0  0  0  0  0  0  0  0  0  0
   -1.7450   21.1340  -31.3440 C   0  0  0  0  0  0  0  0  0  0  0  0
   -1.4630   22.1550  -30.4600 C   0  0  0  0  0  0  0  0  0  0  0  0
   -2.5770   22.9710  -30.4650 C   0  0  0  0  0  0  0  0  0  0  0  0
   -2.7470   24.2180  -29.6540 C   0  0  0  0  0  0  0  0  0  0  0  0
   -3.4940   25.2240  -30.4100 N   0  0  0  0  0  0  0  0  0  0  0  0
   -5.1620   24.7650  -30.6060 S   0  0  0  0  0  0  0  0  0  0  0  0
   -5.6520   23.5740  -29.3730 C   0  0  0  0  0  0  0  0  0  0  0  0
   -5.3770   24.1840  -31.9760 O   0  0  0  0  0  0  0  0  0  0  0  0
   -6.0180   25.9890  -30.4570 O   0  0  0  0  0  0  0  0  0  0  0  0
   -3.4890   22.4880  -31.2760 O   0  0  0  0  0  0  0  0  0  0  0  0
   -8.7101   23.3621  -30.8947 H   0  0  0  0  0  0  0  0  0  0  0  0
   -8.3050   24.1719  -32.4461 H   0  0  0  0  0  0  0  0  0  0  0  0
   -9.3058   22.6802  -32.4461 H   0  0  0  0  0  0  0  0  0  0  0  0
   -9.2678   20.6423  -31.5237 H   0  0  0  0  0  0  0  0  0  0  0  0
   -7.1458   17.1792  -32.9977 H   0  0  0  0  0  0  0  0  0  0  0  0
   -5.1996   18.6131  -33.5948 H   0  0  0  0  0  0  0  0  0  0  0  0
   -5.0540   22.1950  -32.7620 H   0  0  0  0  0  0  0  0  0  0  0  0
   -4.9650   21.4510  -34.2750 H   0  0  0  0  0  0  0  0  0  0  0  0
   -4.0022   19.5993  -32.4169 H   0  0  0  0  0  0  0  0  0  0  0  0
   -3.1069   20.4566  -33.7255 H   0  0  0  0  0  0  0  0  0  0  0  0
   -1.0923   20.2912  -31.6156 H   0  0  0  0  0  0  0  0  0  0  0  0
   -0.5424   22.2908  -29.8734 H   0  0  0  0  0  0  0  0  0  0  0  0
   -3.2956   23.9776  -28.7313 H   0  0  0  0  0  0  0  0  0  0  0  0
   -1.7532   24.6219  -29.4104 H   0  0  0  0  0  0  0  0  0  0  0  0
   -5.4799   23.9923  -28.3703 H   0  0  0  0  0  0  0  0  0  0  0  0
   -6.7198   23.3392  -29.4940 H   0  0  0  0  0  0  0  0  0  0  0  0
   -5.0586   22.6557  -29.4940 H   0  0  0  0  0  0  0  0  0  0  0  0
  1  2  1  0
  2  3  1  0
  3  4  2  0
  4  5  1  0
  5  6  1  0
  5  7  2  0
  7  8  1  0
  8  9  2  0
  9 10  1  0
 10 11  1  0
 11 12  1  0
 12 13  2  0
 13 14  1  0
 14 15  2  0
 15 16  1  0
 16 17  1  0
 17 18  1  0
 18 19  1  0
 18 20  2  0
 18 21  2  0
 15 22  1  0
  9  3  1  0
 22 12  1  0
  1 23  1  0
  1 24  1  0
  1 25  1  0
  4 26  1  0
  7 27  1  0
  8 28  1  0
 10 29  1  0
 10 30  1  0
 11 31  1  0
 11 32  1  0
 13 33  1  0
 14 34  1  0
 16 35  1  0
 16 36  1  0
 19 37  1  0
 19 38  1  0
 19 39  1  0
M  CHG  2  10   1  17  -1
M  END
>  <UniqueID>  (39) 
39

>  <SMILES>  (39) 
COc1cc(F)ccc1[NH2+]Cc1ccc(C[N-]S(C)(=O)=O)o1

>  <Energy>  (39) 
57.14795983219781

>  <Genealogy>  (39) 
COc1cc(F)ccc1[NH2+]Cc1ccc(C[N-]S(C)(=O)=O)o1 (protonated)
COc1cc(F)ccc1[NH2+]Cc1ccc(C[N-]S(C)(=O)=O)o1 (3D coordinates assigned)
COc1cc(F)ccc1[NH2+]Cc1ccc(C[N-]S(C)(=O)=O)o1 (optimized conformer: 57.14795983219781 kcal/mol)

>  <smiles>  (39) 
COc1cc(F)ccc1NCc1ccc(CNS(C)(=O)=O)o1

>  <score_type>  (39) 
oracle

>  <origin>  (39) 
adg

>  <m_score__min__energy>  (39) 
-8.0099999999999998

>  <m_primary>  (39) 
energy

$$$$
39:0
     RDKit          3D

 64 68  0  0  0  0  0  0  0  0999 V2000
   -2.8451   20.7382  -33.3797 H   0  0  0  0  0  0  0  0  0  0  0  0
   -3.6640   20.8370  -32.6520 C   0  0  0  0  0  0  0  0  0  0  0  0
   -4.6380   19.9140  -32.6710 C   0  0  0  0  0  0  0  0  0  0  0  0
   -4.7699   19.2925  -31.7730 H   0  0  0  0  0  0  0  0  0  0  0  0
   -5.5670   19.6670  -33.8380 C   0  0  0  0  0  0  0  0  0  0  0  0
   -5.5450   20.5424  -34.5037 H   0  0  0  0  0  0  0  0  0  0  0  0
   -5.2251   18.7645  -34.3658 H   0  0  0  0  0  0  0  0  0  0  0  0
   -6.9600   19.4410  -33.3860 N   0  0  0  0  0  0  0  0  0  0  0  0
   -7.5710   19.3540  -34.2350 H   0  0  0  0  0  0  0  0  0  0  0  0
   -7.4350   20.6020  -32.6030 C   0  0  0  0  0  0  0  0  0  0  0  0
   -6.8398   20.6811  -31.6813 H   0  0  0  0  0  0  0  0  0  0  0  0
   -7.3202   21.5073  -33.2172 H   0  0  0  0  0  0  0  0  0  0  0  0
   -8.9250   20.4500  -32.2290 C   0  0  0  0  0  0  0  0  0  0  0  0
   -9.0727   20.8236  -31.2050 H   0  0  0  0  0  0  0  0  0  0  0  0
   -9.5153   21.0272  -32.9559 H   0  0  0  0  0  0  0  0  0  0  0  0
   -9.3760   19.0510  -32.2920 N   0  0  0  0  0  0  0  0  0  0  0  0
  -10.2450   18.9630  -31.7160 H   0  0  0  0  0  0  0  0  0  0  0  0
   -8.3620   18.1540  -31.7330 C   0  0  0  0  0  0  0  0  0  0  0  0
   -8.1221   18.4726  -30.7078 H   0  0  0  0  0  0  0  0  0  0  0  0
   -8.7581   17.1278  -31.7276 H   0  0  0  0  0  0  0  0  0  0  0  0
   -7.0800   18.1900  -32.5890 C   0  0  0  0  0  0  0  0  0  0  0  0
   -6.2086   18.1120  -31.9222 H   0  0  0  0  0  0  0  0  0  0  0  0
   -7.1267   17.3478  -33.2951 H   0  0  0  0  0  0  0  0  0  0  0  0
   -3.6240   21.9750  -31.7160 C   0  0  0  0  0  0  0  0  0  0  0  0
   -2.7090   22.1450  -30.6960 C   0  0  0  0  0  0  0  0  0  0  0  0
   -1.6170   21.2170  -30.3200 C   0  0  0  0  0  0  0  0  0  0  0  0
   -0.5390   21.0750  -31.2080 C   0  0  0  0  0  0  0  0  0  0  0  0
   -0.5075   21.6804  -32.1259 H   0  0  0  0  0  0  0  0  0  0  0  0
    0.4930   20.1750  -30.9400 C   0  0  0  0  0  0  0  0  0  0  0  0
    1.3325   20.0791  -31.6443 H   0  0  0  0  0  0  0  0  0  0  0  0
    0.4650   19.3970  -29.7840 C   0  0  0  0  0  0  0  0  0  0  0  0
    1.2727   18.6763  -29.5884 H   0  0  0  0  0  0  0  0  0  0  0  0
   -0.5890   19.5300  -28.8700 C   0  0  0  0  0  0  0  0  0  0  0  0
   -0.6080   18.7530  -27.7000 C   0  0  0  0  0  0  0  0  0  0  0  0
    0.1976   18.0278  -27.5126 H   0  0  0  0  0  0  0  0  0  0  0  0
   -1.6420   18.8950  -26.7740 C   0  0  0  0  0  0  0  0  0  0  0  0
   -1.6549   18.2750  -25.8655 H   0  0  0  0  0  0  0  0  0  0  0  0
   -2.6590   19.8220  -26.9990 C   0  0  0  0  0  0  0  0  0  0  0  0
   -3.4684   19.9359  -26.2629 H   0  0  0  0  0  0  0  0  0  0  0  0
   -2.6550   20.6070  -28.1550 C   0  0  0  0  0  0  0  0  0  0  0  0
   -3.4525   21.3478  -28.3135 H   0  0  0  0  0  0  0  0  0  0  0  0
   -1.6370   20.4580  -29.1210 C   0  0  0  0  0  0  0  0  0  0  0  0
   -3.0630   23.3580  -30.1090 C   0  0  0  0  0  0  0  0  0  0  0  0
   -2.4430   24.0050  -28.9330 C   0  0  0  0  0  0  0  0  0  0  0  0
   -3.2090   24.2340  -27.7810 C   0  0  0  0  0  0  0  0  0  0  0  0
   -4.2594   23.9088  -27.7493 H   0  0  0  0  0  0  0  0  0  0  0  0
   -2.6450   24.8740  -26.6710 C   0  0  0  0  0  0  0  0  0  0  0  0
   -3.2582   25.0556  -25.7760 H   0  0  0  0  0  0  0  0  0  0  0  0
   -1.3090   25.2840  -26.6910 C   0  0  0  0  0  0  0  0  0  0  0  0
   -0.7920   25.9350  -25.5580 O   0  0  0  0  0  0  0  0  0  0  0  0
   -1.5860   26.4330  -24.4870 C   0  0  0  0  0  0  0  0  0  0  0  0
   -1.1294   26.1466  -23.5281 H   0  0  0  0  0  0  0  0  0  0  0  0
   -1.6439   27.5295  -24.5526 H   0  0  0  0  0  0  0  0  0  0  0  0
   -2.5984   26.0078  -24.5526 H   0  0  0  0  0  0  0  0  0  0  0  0
   -0.5310   25.0340  -27.8370 C   0  0  0  0  0  0  0  0  0  0  0  0
    0.5245   25.3429  -27.8606 H   0  0  0  0  0  0  0  0  0  0  0  0
   -1.0940   24.3950  -28.9450 C   0  0  0  0  0  0  0  0  0  0  0  0
   -0.4760   24.1961  -29.8330 H   0  0  0  0  0  0  0  0  0  0  0  0
   -4.1040   23.8920  -30.7810 N   0  0  0  0  0  0  0  0  0  0  0  0
   -4.4330   23.0580  -31.7550 N   0  0  0  0  0  0  0  0  0  0  0  0
   -5.5330   23.3070  -32.6780 C   0  0  0  0  0  0  0  0  0  0  0  0
   -6.4504   23.5147  -32.1076 H   0  0  0  0  0  0  0  0  0  0  0  0
   -5.2912   24.1731  -33.3115 H   0  0  0  0  0  0  0  0  0  0  0  0
   -5.6877   22.4212  -33.3115 H   0  0  0  0  0  0  0  0  0  0  0  0
  1  2  1  0
  2  3  2  0
  3  4  1  0
  3  5  1  0
  5  6  1  0
  5  7  1  0
  5  8  1  0
  8  9  1  0
  8 10  1  0
 10 11  1  0
 10 12  1  0
 10 13  1  0
 13 14  1  0
 13 15  1  0
 13 16  1  0
 16 17  1  0
 16 18  1  0
 18 19  1  0
 18 20  1  0
 18 21  1  0
 21 22  1  0
 21 23  1  0
  2 24  1  0
 24 25  2  0
 25 26  1  0
 26 27  2  0
 27 28  1  0
 27 29  1  0
 29 30  1  0
 29 31  2  0
 31 32  1  0
 31 33  1  0
 33 34  2  0
 34 35  1  0
 34 36  1  0
 36 37  1  0
 36 38  2  0
 38 39  1  0
 38 40  1  0
 40 41  1  0
 40 42  2  0
 25 43  1  0
 43 44  1  0
 44 45  2  0
 45 46  1  0
 45 47  1  0
 47 48  1  0
 47 49  2  0
 49 50  1  0
 50 51  1  0
 51 52  1  0
 51 53  1  0
 51 54  1  0
 49 55  1  0
 55 56  1  0
 55 57  2  0
 57 58  1  0
 43 59  2  0
 59 60  1  0
 60 61  1  0
 61 62  1  0
 61 63  1  0
 61 64  1  0
 21  8  1  0
 60 24  1  0
 42 26  1  0
 57 44  1  0
 42 33  1  0
M  CHG  1   8   1
M  END
>  <UniqueID>  (40) 
40

>  <SMILES>  (40) 
COc1ccc(-c2nn(C)c(/C=C\C[NH+]3CCNCC3)c2-c2cccc3ccccc23)cc1

>  <Energy>  (40) 
125.60346723434803

>  <Genealogy>  (40) 
COc1ccc(-c2nn(C)c(C=CC[NH+]3CCNCC3)c2-c2cccc3ccccc23)cc1 (protonated)
COc1ccc(-c2nn(C)c(/C=C\C[NH+]3CCNCC3)c2-c2cccc3ccccc23)cc1 (cis-trans isomerization)
COc1ccc(-c2nn(C)c(/C=C\C[NH+]3CCNCC3)c2-c2cccc3ccccc23)cc1 (3D coordinates assigned)
COc1ccc(-c2nn(C)c(/C=C\C[NH+]3CCNCC3)c2-c2cccc3ccccc23)cc1 (nonaromatic ring conformer: 125.60346723434803 kcal/mol)

>  <smiles>  (40) 
COc1ccc(-c2nn(C)c(C=CCN3CCNCC3)c2-c2cccc3ccccc23)cc1

>  <score_type>  (40) 
oracle

>  <origin>  (40) 
adg

>  <m_score__min__energy>  (40) 
-9.5299999999999994

>  <m_primary>  (40) 
energy

$$$$
40:0
     RDKit          3D

 33 35  0  0  0  0  0  0  0  0999 V2000
   -4.0435   16.5957  -35.1263 H   0  0  0  0  0  0  0  0  0  0  0  0
   -4.3310   17.5390  -34.6390 C   0  0  0  0  0  0  0  0  0  0  0  0
   -3.3780   18.3400  -34.0950 N   0  0  0  0  0  0  0  0  0  0  0  0
   -3.6930   19.5140  -33.4840 C   0  0  0  0  0  0  0  0  0  0  0  0
   -2.8957   20.1382  -33.0542 H   0  0  0  0  0  0  0  0  0  0  0  0
   -5.0330   19.9340  -33.3990 C   0  0  0  0  0  0  0  0  0  0  0  0
   -5.4000   21.2070  -32.7400 C   0  0  0  0  0  0  0  0  0  0  0  0
   -6.6790   21.6010  -32.5400 N   0  0  0  0  0  0  0  0  0  0  0  0
   -6.7610   22.8090  -31.9170 C   0  0  0  0  0  0  0  0  0  0  0  0
   -8.0830   23.4230  -31.5830 C   0  0  0  0  0  0  0  0  0  0  0  0
   -8.1971   23.4760  -30.4902 H   0  0  0  0  0  0  0  0  0  0  0  0
   -8.1339   24.4369  -32.0066 H   0  0  0  0  0  0  0  0  0  0  0  0
   -8.8905   22.8078  -32.0066 H   0  0  0  0  0  0  0  0  0  0  0  0
   -5.5290   23.3840  -31.5940 C   0  0  0  0  0  0  0  0  0  0  0  0
   -5.2930   24.7050  -30.9220 C   0  0  0  0  0  0  0  0  0  0  0  0
   -5.6838   25.5094  -31.5625 H   0  0  0  0  0  0  0  0  0  0  0  0
   -5.8089   24.7013  -29.9505 H   0  0  0  0  0  0  0  0  0  0  0  0
   -3.8640   24.9280  -30.6910 N   0  0  0  0  0  0  0  0  0  0  0  0
   -3.1670   24.5690  -29.6500 C   0  0  0  0  0  0  0  0  0  0  0  0
   -2.0510   25.2850  -29.3410 N   0  0  0  0  0  0  0  0  0  0  0  0
   -1.2690   24.9840  -28.2700 C   0  0  0  0  0  0  0  0  0  0  0  0
   -0.3761   25.5891  -28.0542 H   0  0  0  0  0  0  0  0  0  0  0  0
   -1.5980   23.9090  -27.4450 C   0  0  0  0  0  0  0  0  0  0  0  0
   -0.9703   23.6623  -26.5760 H   0  0  0  0  0  0  0  0  0  0  0  0
   -2.7320   23.1500  -27.7340 C   0  0  0  0  0  0  0  0  0  0  0  0
   -3.0022   22.2979  -27.0930 H   0  0  0  0  0  0  0  0  0  0  0  0
   -3.5240   23.4730  -28.8380 C   0  0  0  0  0  0  0  0  0  0  0  0
   -4.4187   22.8774  -29.0721 H   0  0  0  0  0  0  0  0  0  0  0  0
   -4.3180   22.3540  -32.1390 S   0  0  0  0  0  0  0  0  0  0  0  0
   -6.0250   19.1110  -33.9590 C   0  0  0  0  0  0  0  0  0  0  0  0
   -7.0815   19.4131  -33.9075 H   0  0  0  0  0  0  0  0  0  0  0  0
   -5.6740   17.9120  -34.5800 C   0  0  0  0  0  0  0  0  0  0  0  0
   -6.4491   17.2667  -35.0191 H   0  0  0  0  0  0  0  0  0  0  0  0
  1  2  1  0
  2  3  2  0
  3  4  1  0
  4  5  1  0
  4  6  2  0
  6  7  1  0
  7  8  2  0
  8  9  1  0
  9 10  1  0
 10 11  1  0
 10 12  1  0
 10 13  1  0
  9 14  2  0
 14 15  1  0
 15 16  1  0
 15 17  1  0
 15 18  1  0
 18 19  2  0
 19 20  1  0
 20 21  1  0
 21 22  1  0
 21 23  2  0
 23 24  1  0
 23 25  1  0
 25 26  1  0
 25 27  2  0
 27 28  1  0
 14 29  1  0
  6 30  1  0
 30 31  1  0
 30 32  2  0
 32 33  1  0
 32  2  1  0
 29  7  1  0
 27 19  1  0
M  CHG  1  20  -1
M  END
>  <UniqueID>  (41) 
41

>  <SMILES>  (41) 
Cc1nc(-c2cccnc2)sc1C/N=c1\cccc[n-]1

>  <Energy>  (41) 
67.40457632836025

>  <Genealogy>  (41) 
Cc1nc(-c2cccnc2)sc1CN=c1cccc[n-]1 (protonated)
Cc1nc(-c2cccnc2)sc1C/N=c1\cccc[n-]1 (cis-trans isomerization)
Cc1nc(-c2cccnc2)sc1C/N=c1\cccc[n-]1 (3D coordinates assigned)
Cc1nc(-c2cccnc2)sc1C/N=c1\cccc[n-]1 (optimized conformer: 67.40457632836025 kcal/mol)

>  <smiles>  (41) 
Cc1nc(-c2cccnc2)sc1CN=c1cccc[nH]1

>  <score_type>  (41) 
oracle

>  <origin>  (41) 
adg

>  <m_score__min__energy>  (41) 
-9.3900000000000006

>  <m_primary>  (41) 
energy

$$$$
41:0
     RDKit          3D

 31 32  0  0  0  0  0  0  0  0999 V2000
   -6.1580   25.3330  -29.4850 C   0  0  0  0  0  0  0  0  0  0  0  0
   -5.4800   25.4300  -30.8410 C   0  0  0  0  0  0  0  0  0  0  0  0
   -4.3330   24.5900  -30.8520 O   0  0  0  0  0  0  0  0  0  0  0  0
   -4.3870   23.2180  -30.5880 C   0  0  0  0  0  0  0  0  0  0  0  0
   -4.6270   22.8030  -29.4220 O   0  0  0  0  0  0  0  0  0  0  0  0
   -4.1570   22.2510  -31.6740 C   0  0  0  0  0  0  0  0  0  0  0  0
   -2.6420   21.8250  -32.2700 S   0  0  0  0  0  0  0  0  0  0  0  0
   -3.1870   20.7760  -33.4650 C   0  0  0  0  0  0  0  0  0  0  0  0
   -4.5740   20.7440  -33.4160 C   0  0  0  0  0  0  0  0  0  0  0  0
   -5.1220   21.5590  -32.4140 C   0  0  0  0  0  0  0  0  0  0  0  0
   -6.5770   21.6560  -32.1890 C   0  0  0  0  0  0  0  0  0  0  0  0
   -7.1790   22.9230  -32.2160 C   0  0  0  0  0  0  0  0  0  0  0  0
   -8.5450   23.0610  -31.9590 C   0  0  0  0  0  0  0  0  0  0  0  0
   -9.3200   21.9370  -31.6740 C   0  0  0  0  0  0  0  0  0  0  0  0
   -8.7360   20.6670  -31.6580 C   0  0  0  0  0  0  0  0  0  0  0  0
   -7.3670   20.5100  -31.9310 C   0  0  0  0  0  0  0  0  0  0  0  0
   -6.7610   19.1310  -31.8960 C   0  0  0  0  0  0  0  0  0  0  0  0
   -5.4053   25.4407  -28.6901 H   0  0  0  0  0  0  0  0  0  0  0  0
   -6.9070   26.1331  -29.3915 H   0  0  0  0  0  0  0  0  0  0  0  0
   -6.6526   24.3549  -29.3915 H   0  0  0  0  0  0  0  0  0  0  0  0
   -6.1797   25.1073  -31.6260 H   0  0  0  0  0  0  0  0  0  0  0  0
   -5.1774   26.4707  -31.0290 H   0  0  0  0  0  0  0  0  0  0  0  0
   -2.5536   20.2119  -34.1654 H   0  0  0  0  0  0  0  0  0  0  0  0
   -5.1861   20.1365  -34.0989 H   0  0  0  0  0  0  0  0  0  0  0  0
   -6.5720   23.8124  -32.4408 H   0  0  0  0  0  0  0  0  0  0  0  0
   -9.0102   24.0576  -31.9814 H   0  0  0  0  0  0  0  0  0  0  0  0
  -10.3933   22.0501  -31.4613 H   0  0  0  0  0  0  0  0  0  0  0  0
   -9.3524   19.7849  -31.4302 H   0  0  0  0  0  0  0  0  0  0  0  0
   -6.6232   18.8175  -30.8507 H   0  0  0  0  0  0  0  0  0  0  0  0
   -7.4309   18.4230  -32.4059 H   0  0  0  0  0  0  0  0  0  0  0  0
   -5.7864   19.1457  -32.4059 H   0  0  0  0  0  0  0  0  0  0  0  0
  1  2  1  0
  2  3  1  0
  3  4  1  0
  4  5  2  0
  4  6  1  0
  6  7  1  0
  7  8  1  0
  8  9  2  0
  9 10  1  0
 10 11  1  0
 11 12  2  0
 12 13  1  0
 13 14  2  0
 14 15  1  0
 15 16  2  0
 16 17  1  0
 10  6  2  0
 16 11  1  0
  1 18  1  0
  1 19  1  0
  1 20  1  0
  2 21  1  0
  2 22  1  0
  8 23  1  0
  9 24  1  0
 12 25  1  0
 13 26  1  0
 14 27  1  0
 15 28  1  0
 17 29  1  0
 17 30  1  0
 17 31  1  0
M  END
>  <UniqueID>  (42) 
42

>  <SMILES>  (42) 
CCOC(=O)c1sccc1-c1ccccc1C

>  <Energy>  (42) 
57.47803238420193

>  <Genealogy>  (42) 
CCOC(=O)c1sccc1-c1ccccc1C (3D coordinates assigned)
CCOC(=O)c1sccc1-c1ccccc1C (optimized conformer: 57.47803238420193 kcal/mol)

>  <smiles>  (42) 
CCOC(=O)c1sccc1-c1ccccc1C

>  <score_type>  (42) 
oracle

>  <origin>  (42) 
adg

>  <m_score__min__energy>  (42) 
-6.9699999999999998

>  <m_primary>  (42) 
energy

$$$$
42:0
     RDKit          3D

 39 39  0  0  0  0  0  0  0  0999 V2000
   -6.5367   24.1327  -29.3035 H   0  0  0  0  0  0  0  0  0  0  0  0
   -6.3310   24.1170  -30.3840 C   0  0  0  0  0  0  0  0  0  0  0  0
   -4.9810   24.4530  -30.8600 C   0  0  0  0  0  0  0  0  0  0  0  0
   -4.6050   25.6560  -30.8400 O   0  0  0  0  0  0  0  0  0  0  0  0
   -4.1270   23.4480  -31.3300 O   0  0  0  0  0  0  0  0  0  0  0  0
   -3.5480   22.4520  -30.4890 C   0  0  0  0  0  0  0  0  0  0  0  0
   -3.2828   21.5743  -31.0968 H   0  0  0  0  0  0  0  0  0  0  0  0
   -4.2779   22.1706  -29.7157 H   0  0  0  0  0  0  0  0  0  0  0  0
   -2.2880   22.9930  -29.8080 C   0  0  0  0  0  0  0  0  0  0  0  0
   -1.6511   23.4838  -30.5587 H   0  0  0  0  0  0  0  0  0  0  0  0
   -1.7436   22.1578  -29.3431 H   0  0  0  0  0  0  0  0  0  0  0  0
   -2.6560   23.9750  -28.7600 N   0  0  0  0  0  0  0  0  0  0  0  0
   -3.7050   23.4390  -27.8630 C   0  0  0  0  0  0  0  0  0  0  0  0
   -3.2824   22.6256  -27.2550 H   0  0  0  0  0  0  0  0  0  0  0  0
   -4.5382   23.0585  -28.4721 H   0  0  0  0  0  0  0  0  0  0  0  0
   -4.2240   24.5410  -26.9410 C   0  0  0  0  0  0  0  0  0  0  0  0
   -4.0819   24.2392  -25.8928 H   0  0  0  0  0  0  0  0  0  0  0  0
   -3.6694   25.4713  -27.1332 H   0  0  0  0  0  0  0  0  0  0  0  0
   -5.2945   24.7059  -27.1332 H   0  0  0  0  0  0  0  0  0  0  0  0
   -1.4680   24.4200  -27.9980 C   0  0  0  0  0  0  0  0  0  0  0  0
   -1.6339   24.2360  -26.9263 H   0  0  0  0  0  0  0  0  0  0  0  0
   -0.5883   23.8574  -28.3438 H   0  0  0  0  0  0  0  0  0  0  0  0
   -1.2260   25.9090  -28.2220 C   0  0  0  0  0  0  0  0  0  0  0  0
   -1.1434   26.4173  -27.2500 H   0  0  0  0  0  0  0  0  0  0  0  0
   -0.2935   26.0477  -28.7888 H   0  0  0  0  0  0  0  0  0  0  0  0
   -2.0665   26.3359  -28.7888 H   0  0  0  0  0  0  0  0  0  0  0  0
   -7.3180   23.7920  -31.2310 C   0  0  0  0  0  0  0  0  0  0  0  0
   -7.9724   24.5961  -31.5986 H   0  0  0  0  0  0  0  0  0  0  0  0
   -7.5770   22.4100  -31.7000 C   0  0  0  0  0  0  0  0  0  0  0  0
   -6.5880   21.6210  -32.3260 C   0  0  0  0  0  0  0  0  0  0  0  0
   -5.5764   22.0273  -32.4732 H   0  0  0  0  0  0  0  0  0  0  0  0
   -6.8870   20.3260  -32.7600 C   0  0  0  0  0  0  0  0  0  0  0  0
   -6.1088   19.7156  -33.2415 H   0  0  0  0  0  0  0  0  0  0  0  0
   -8.1710   19.8050  -32.5840 C   0  0  0  0  0  0  0  0  0  0  0  0
   -8.4016   18.7837  -32.9213 H   0  0  0  0  0  0  0  0  0  0  0  0
   -9.1610   20.5810  -31.9800 C   0  0  0  0  0  0  0  0  0  0  0  0
  -10.1735   20.1722  -31.8466 H   0  0  0  0  0  0  0  0  0  0  0  0
   -8.8690   21.8770  -31.5440 C   0  0  0  0  0  0  0  0  0  0  0  0
   -9.6567   22.4849  -31.0749 H   0  0  0  0  0  0  0  0  0  0  0  0
  1  2  1  0
  2  3  1  0
  3  4  2  0
  3  5  1  0
  5  6  1  0
  6  7  1  0
  6  8  1  0
  6  9  1  0
  9 10  1  0
  9 11  1  0
  9 12  1  0
 12 13  1  0
 13 14  1  0
 13 15  1  0
 13 16  1  0
 16 17  1  0
 16 18  1  0
 16 19  1  0
 12 20  1  0
 20 21  1  0
 20 22  1  0
 20 23  1  0
 23 24  1  0
 23 25  1  0
 23 26  1  0
  2 27  2  0
 27 28  1  0
 27 29  1  0
 29 30  2  0
 30 31  1  0
 30 32  1  0
 32 33  1  0
 32 34  2  0
 34 35  1  0
 34 36  1  0
 36 37  1  0
 36 38  2  0
 38 39  1  0
 38 29  1  0
M  END
>  <UniqueID>  (43) 
43

>  <SMILES>  (43) 
CCN(CC)CCOC(=O)/C=C/c1ccccc1

>  <Energy>  (43) 
32.19401326122487

>  <Genealogy>  (43) 
CCN(CC)CCOC(=O)/C=C/c1ccccc1 (cis-trans isomerization)
CCN(CC)CCOC(=O)/C=C/c1ccccc1 (3D coordinates assigned)
CCN(CC)CCOC(=O)/C=C/c1ccccc1 (optimized conformer: 32.19401326122487 kcal/mol)

>  <smiles>  (43) 
CCN(CC)CCOC(=O)C=Cc1ccccc1

>  <score_type>  (43) 
oracle

>  <origin>  (43) 
adg

>  <m_score__min__energy>  (43) 
-6.79

>  <m_primary>  (43) 
energy

$$$$
43:0
     RDKit          3D

 53 55  0  0  0  0  0  0  0  0999 V2000
   -2.3610   24.7660  -28.5550 C   0  0  0  0  0  0  0  0  0  0  0  0
   -3.1280   25.0410  -29.7230 O   0  0  0  0  0  0  0  0  0  0  0  0
   -4.3290   24.3930  -30.0590 C   0  0  0  0  0  0  0  0  0  0  0  0
   -5.5610   25.0780  -30.0790 C   0  0  0  0  0  0  0  0  0  0  0  0
   -6.7340   24.4110  -30.4420 C   0  0  0  0  0  0  0  0  0  0  0  0
   -6.6930   23.0620  -30.7900 C   0  0  0  0  0  0  0  0  0  0  0  0
   -5.4810   22.3720  -30.7750 C   0  0  0  0  0  0  0  0  0  0  0  0
   -4.2940   23.0260  -30.4030 C   0  0  0  0  0  0  0  0  0  0  0  0
   -3.0640   22.2820  -30.3320 N   0  0  0  0  0  0  0  0  0  0  0  0
   -1.9200   22.6410  -31.1790 C   0  0  0  0  0  0  0  0  0  0  0  0
   -1.5430   21.4740  -32.1200 C   0  0  0  0  0  0  0  0  0  0  0  0
   -2.0180   20.1550  -31.6280 N   0  0  0  0  0  0  0  0  0  0  0  0
   -1.2270   19.0870  -32.2130 C   0  0  0  0  0  0  0  0  0  0  0  0
   -0.1970   18.7160  -31.6620 O   0  0  0  0  0  0  0  0  0  0  0  0
   -1.6860   18.3940  -33.4780 C   0  0  0  0  0  0  0  0  0  0  0  0
   -2.9910   17.6140  -33.2780 C   0  0  0  0  0  0  0  0  0  0  0  0
   -3.9100   18.3860  -32.4390 N   0  0  0  0  0  0  0  0  0  0  0  0
   -4.9210   19.3950  -33.4310 S   0  0  0  0  0  0  0  0  0  0  0  0
   -4.9550   18.8530  -34.8340 O   0  0  0  0  0  0  0  0  0  0  0  0
   -4.3520   20.7860  -33.4560 O   0  0  0  0  0  0  0  0  0  0  0  0
   -6.5550   19.4530  -32.7730 C   0  0  0  0  0  0  0  0  0  0  0  0
   -7.1020   18.3230  -32.1470 C   0  0  0  0  0  0  0  0  0  0  0  0
   -8.3910   18.3740  -31.6040 C   0  0  0  0  0  0  0  0  0  0  0  0
   -9.1340   19.5550  -31.6770 C   0  0  0  0  0  0  0  0  0  0  0  0
   -8.5910   20.6860  -32.2950 C   0  0  0  0  0  0  0  0  0  0  0  0
   -7.3040   20.6380  -32.8420 C   0  0  0  0  0  0  0  0  0  0  0  0
   -1.9830   20.0670  -30.1520 C   0  0  0  0  0  0  0  0  0  0  0  0
   -2.9960   21.0460  -29.5390 C   0  0  0  0  0  0  0  0  0  0  0  0
   -2.9642   24.9823  -27.6609 H   0  0  0  0  0  0  0  0  0  0  0  0
   -2.0663   23.7062  -28.5510 H   0  0  0  0  0  0  0  0  0  0  0  0
   -1.4601   25.3971  -28.5510 H   0  0  0  0  0  0  0  0  0  0  0  0
   -5.5991   26.1433  -29.8074 H   0  0  0  0  0  0  0  0  0  0  0  0
   -7.6918   24.9518  -30.4531 H   0  0  0  0  0  0  0  0  0  0  0  0
   -7.6181   22.5406  -31.0770 H   0  0  0  0  0  0  0  0  0  0  0  0
   -5.4540   21.3089  -31.0562 H   0  0  0  0  0  0  0  0  0  0  0  0
   -2.1821   23.5214  -31.7842 H   0  0  0  0  0  0  0  0  0  0  0  0
   -1.0589   22.8626  -30.5314 H   0  0  0  0  0  0  0  0  0  0  0  0
   -1.9900   21.6615  -33.1075 H   0  0  0  0  0  0  0  0  0  0  0  0
   -0.4449   21.4314  -32.1678 H   0  0  0  0  0  0  0  0  0  0  0  0
   -3.0150   20.0380  -31.9290 H   0  0  0  0  0  0  0  0  0  0  0  0
   -1.8442   19.1527  -34.2586 H   0  0  0  0  0  0  0  0  0  0  0  0
   -0.9064   17.6739  -33.7671 H   0  0  0  0  0  0  0  0  0  0  0  0
   -3.4587   17.4287  -34.2562 H   0  0  0  0  0  0  0  0  0  0  0  0
   -2.7683   16.6564  -32.7847 H   0  0  0  0  0  0  0  0  0  0  0  0
   -6.5162   17.3942  -32.0827 H   0  0  0  0  0  0  0  0  0  0  0  0
   -8.8192   17.4840  -31.1196 H   0  0  0  0  0  0  0  0  0  0  0  0
  -10.1462   19.5952  -31.2483 H   0  0  0  0  0  0  0  0  0  0  0  0
   -9.1769   21.6153  -32.3512 H   0  0  0  0  0  0  0  0  0  0  0  0
   -6.8790   21.5295  -33.3264 H   0  0  0  0  0  0  0  0  0  0  0  0
   -2.2352   19.0419  -29.8428 H   0  0  0  0  0  0  0  0  0  0  0  0
   -0.9737   20.3272  -29.8003 H   0  0  0  0  0  0  0  0  0  0  0  0
   -3.9892   20.5737  -29.5193 H   0  0  0  0  0  0  0  0  0  0  0  0
   -2.6743   21.2966  -28.5174 H   0  0  0  0  0  0  0  0  0  0  0  0
  1  2  1  0
  2  3  1  0
  3  4  2  0
  4  5  1  0
  5  6  2  0
  6  7  1  0
  7  8  2  0
  8  9  1  0
  9 10  1  0
 10 11  1  0
 11 12  1  0
 12 13  1  0
 13 14  2  0
 13 15  1  0
 15 16  1  0
 16 17  1  0
 17 18  1  0
 18 19  2  0
 18 20  2  0
 18 21  1  0
 21 22  2  0
 22 23  1  0
 23 24  2  0
 24 25  1  0
 25 26  2  0
 12 27  1  0
 27 28  1  0
  8  3  1  0
 28  9  1  0
 26 21  1  0
  1 29  1  0
  1 30  1  0
  1 31  1  0
  4 32  1  0
  5 33  1  0
  6 34  1  0
  7 35  1  0
 10 36  1  0
 10 37  1  0
 11 38  1  0
 11 39  1  0
 12 40  1  0
 15 41  1  0
 15 42  1  0
 16 43  1  0
 16 44  1  0
 22 45  1  0
 23 46  1  0
 24 47  1  0
 25 48  1  0
 26 49  1  0
 27 50  1  0
 27 51  1  0
 28 52  1  0
 28 53  1  0
M  CHG  2  12   1  17  -1
M  END
>  <UniqueID>  (44) 
44

>  <SMILES>  (44) 
COc1ccccc1N1CC[NH+](C(=O)CC[N-]S(=O)(=O)c2ccccc2)CC1

>  <Energy>  (44) 
61.54803403007003

>  <Genealogy>  (44) 
COc1ccccc1N1CC[NH+](C(=O)CC[N-]S(=O)(=O)c2ccccc2)CC1 (protonated)
COc1ccccc1N1CC[NH+](C(=O)CC[N-]S(=O)(=O)c2ccccc2)CC1 (3D coordinates assigned)
COc1ccccc1N1CC[NH+](C(=O)CC[N-]S(=O)(=O)c2ccccc2)CC1 (nonaromatic ring conformer: 61.54803403007003 kcal/mol)

>  <smiles>  (44) 
COc1ccccc1N1CCN(C(=O)CCNS(=O)(=O)c2ccccc2)CC1

>  <score_type>  (44) 
oracle

>  <origin>  (44) 
adg

>  <m_score__min__energy>  (44) 
-9.7400000000000002

>  <m_primary>  (44) 
energy

$$$$
44:0
     RDKit          3D

 35 37  0  0  0  0  0  0  0  0999 V2000
   -2.1910   24.3020  -29.2360 C   0  0  0  0  0  0  0  0  0  0  0  0
   -3.1380   24.9340  -30.0900 O   0  0  0  0  0  0  0  0  0  0  0  0
   -4.4130   24.4230  -30.3780 C   0  0  0  0  0  0  0  0  0  0  0  0
   -5.5300   25.1790  -30.0000 C   0  0  0  0  0  0  0  0  0  0  0  0
   -6.8230   24.7180  -30.2620 C   0  0  0  0  0  0  0  0  0  0  0  0
   -7.0130   23.4930  -30.9070 C   0  0  0  0  0  0  0  0  0  0  0  0
   -8.2700   23.0470  -31.1600 N   0  0  0  0  0  0  0  0  0  0  0  0
   -8.4810   21.8580  -31.7840 C   0  0  0  0  0  0  0  0  0  0  0  0
   -9.8800   21.3820  -32.0120 C   0  0  0  0  0  0  0  0  0  0  0  0
   -7.4220   21.0850  -32.1560 N   0  0  0  0  0  0  0  0  0  0  0  0
   -6.1380   21.4960  -31.9430 C   0  0  0  0  0  0  0  0  0  0  0  0
   -5.0540   20.6930  -32.3300 O   0  0  0  0  0  0  0  0  0  0  0  0
   -5.1330   19.3300  -32.6490 C   0  0  0  0  0  0  0  0  0  0  0  0
   -4.6250   18.8970  -33.8800 C   0  0  0  0  0  0  0  0  0  0  0  0
   -4.6990   17.5480  -34.2410 C   0  0  0  0  0  0  0  0  0  0  0  0
   -5.2920   16.6220  -33.3770 C   0  0  0  0  0  0  0  0  0  0  0  0
   -5.3950   14.7800  -33.8710 Br  0  0  0  0  0  0  0  0  0  0  0  0
   -5.8190   17.0490  -32.1540 C   0  0  0  0  0  0  0  0  0  0  0  0
   -5.7460   18.3980  -31.7910 C   0  0  0  0  0  0  0  0  0  0  0  0
   -5.9020   22.7190  -31.2930 C   0  0  0  0  0  0  0  0  0  0  0  0
   -4.6020   23.1870  -31.0280 C   0  0  0  0  0  0  0  0  0  0  0  0
   -2.4646   24.4846  -28.1863 H   0  0  0  0  0  0  0  0  0  0  0  0
   -2.1868   23.2194  -29.4308 H   0  0  0  0  0  0  0  0  0  0  0  0
   -1.1896   24.7135  -29.4308 H   0  0  0  0  0  0  0  0  0  0  0  0
   -5.3881   26.1444  -29.4923 H   0  0  0  0  0  0  0  0  0  0  0  0
   -7.6925   25.3203  -29.9600 H   0  0  0  0  0  0  0  0  0  0  0  0
  -10.3728   21.2143  -31.0429 H   0  0  0  0  0  0  0  0  0  0  0  0
  -10.4375   22.1410  -32.5804 H   0  0  0  0  0  0  0  0  0  0  0  0
   -9.8589   20.4405  -32.5804 H   0  0  0  0  0  0  0  0  0  0  0  0
   -7.6050   20.1510  -32.5870 H   0  0  0  0  0  0  0  0  0  0  0  0
   -4.1650   19.6224  -34.5672 H   0  0  0  0  0  0  0  0  0  0  0  0
   -4.2901   17.2147  -35.2062 H   0  0  0  0  0  0  0  0  0  0  0  0
   -6.2917   16.3229  -31.4763 H   0  0  0  0  0  0  0  0  0  0  0  0
   -6.1691   18.7313  -30.8319 H   0  0  0  0  0  0  0  0  0  0  0  0
   -3.7308   22.5866  -31.3289 H   0  0  0  0  0  0  0  0  0  0  0  0
  1  2  1  0
  2  3  1  0
  3  4  2  0
  4  5  1  0
  5  6  2  0
  6  7  1  0
  7  8  2  0
  8  9  1  0
  8 10  1  0
 10 11  2  0
 11 12  1  0
 12 13  1  0
 13 14  2  0
 14 15  1  0
 15 16  2  0
 16 17  1  0
 16 18  1  0
 18 19  2  0
 11 20  1  0
 20 21  2  0
 21  3  1  0
 20  6  1  0
 19 13  1  0
  1 22  1  0
  1 23  1  0
  1 24  1  0
  4 25  1  0
  5 26  1  0
  9 27  1  0
  9 28  1  0
  9 29  1  0
 10 30  1  0
 14 31  1  0
 15 32  1  0
 18 33  1  0
 19 34  1  0
 21 35  1  0
M  CHG  1  10   1
M  END
>  <UniqueID>  (45) 
45

>  <SMILES>  (45) 
COc1ccc2nc(C)[nH+]c(Oc3ccc(Br)cc3)c2c1

>  <Energy>  (45) 
44.59988808516437

>  <Genealogy>  (45) 
COc1ccc2nc(C)[nH+]c(Oc3ccc(Br)cc3)c2c1 (protonated)
COc1ccc2nc(C)[nH+]c(Oc3ccc(Br)cc3)c2c1 (3D coordinates assigned)
COc1ccc2nc(C)[nH+]c(Oc3ccc(Br)cc3)c2c1 (optimized conformer: 44.59988808516437 kcal/mol)

>  <smiles>  (45) 
COc1ccc2nc(C)nc(Oc3ccc(Br)cc3)c2c1

>  <score_type>  (45) 
oracle

>  <origin>  (45) 
adg

>  <m_score__min__energy>  (45) 
-7.4400000000000004

>  <m_primary>  (45) 
energy

$$$$
