0:0
     RDKit          3D

 52 55  0  0  0  0  0  0  0  0999 V2000
   -0.5940   18.7260  -27.3910 C   0  0  0  0  0  0  0  0  0  0  0  0
   -1.4540   19.6830  -26.7310 N   0  0  0  0  0  0  0  0  0  0  0  0
   -2.7750   19.6750  -27.2970 C   0  0  0  0  0  0  0  0  0  0  0  0
   -3.1750   21.0590  -27.7920 C   0  0  0  0  0  0  0  0  0  0  0  0
   -2.1480   21.6280  -28.5450 N   0  0  0  0  0  0  0  0  0  0  0  0
   -2.3450   21.8590  -30.2010 S   0  0  0  0  0  0  0  0  0  0  0  0
   -1.2010   22.6680  -30.7030 O   0  0  0  0  0  0  0  0  0  0  0  0
   -2.2100   20.5010  -30.8770 O   0  0  0  0  0  0  0  0  0  0  0  0
   -3.9160   22.5450  -30.5060 C   0  0  0  0  0  0  0  0  0  0  0  0
   -4.7310   22.0490  -31.5180 C   0  0  0  0  0  0  0  0  0  0  0  0
   -5.9680   22.5780  -31.8070 C   0  0  0  0  0  0  0  0  0  0  0  0
   -6.4650   23.6440  -31.0900 C   0  0  0  0  0  0  0  0  0  0  0  0
   -5.6750   24.1480  -30.0840 C   0  0  0  0  0  0  0  0  0  0  0  0
   -4.4120   23.6120  -29.7870 C   0  0  0  0  0  0  0  0  0  0  0  0
   -3.7200   24.2330  -28.6740 C   0  0  0  0  0  0  0  0  0  0  0  0
   -4.2100   24.3440  -27.3990 C   0  0  0  0  0  0  0  0  0  0  0  0
   -3.4910   24.9210  -26.3660 C   0  0  0  0  0  0  0  0  0  0  0  0
   -2.2420   25.4090  -26.5940 C   0  0  0  0  0  0  0  0  0  0  0  0
   -1.3960   26.0340  -25.5850 C   0  0  0  0  0  0  0  0  0  0  0  0
   -0.7170   25.2920  -24.6440 C   0  0  0  0  0  0  0  0  0  0  0  0
    0.0630   25.8790  -23.7140 N   0  0  0  0  0  0  0  0  0  0  0  0
    0.2170   27.2130  -23.6610 C   0  0  0  0  0  0  0  0  0  0  0  0
    0.9670   27.7720  -22.7680 N   0  0  0  0  0  0  0  0  0  0  0  0
   -0.4630   27.9550  -24.6050 C   0  0  0  0  0  0  0  0  0  0  0  0
   -1.2350   27.3740  -25.5240 N   0  0  0  0  0  0  0  0  0  0  0  0
   -1.7380   25.3000  -27.8830 C   0  0  0  0  0  0  0  0  0  0  0  0
   -0.4910   25.7660  -28.1920 F   0  0  0  0  0  0  0  0  0  0  0  0
   -2.4520   24.7250  -28.9150 C   0  0  0  0  0  0  0  0  0  0  0  0
   -0.8220   21.6280  -28.0520 C   0  0  0  0  0  0  0  0  0  0  0  0
   -0.8530   20.9760  -26.6880 C   0  0  0  0  0  0  0  0  0  0  0  0
   -0.0595   18.1313  -26.6356 H   0  0  0  0  0  0  0  0  0  0  0  0
   -1.2022   18.0590  -28.0197 H   0  0  0  0  0  0  0  0  0  0  0  0
    0.1339   19.2597  -28.0197 H   0  0  0  0  0  0  0  0  0  0  0  0
   -2.7980   18.9718  -28.1426 H   0  0  0  0  0  0  0  0  0  0  0  0
   -3.4852   19.3679  -26.5151 H   0  0  0  0  0  0  0  0  0  0  0  0
   -4.0761   20.9727  -28.4170 H   0  0  0  0  0  0  0  0  0  0  0  0
   -3.3746   21.7022  -26.9222 H   0  0  0  0  0  0  0  0  0  0  0  0
   -4.3711   21.1968  -32.1132 H   0  0  0  0  0  0  0  0  0  0  0  0
   -6.5675   22.1441  -32.6208 H   0  0  0  0  0  0  0  0  0  0  0  0
   -7.4526   24.0740  -31.3130 H   0  0  0  0  0  0  0  0  0  0  0  0
   -6.0445   24.9988  -29.4927 H   0  0  0  0  0  0  0  0  0  0  0  0
   -5.2180   23.9580  -27.1871 H   0  0  0  0  0  0  0  0  0  0  0  0
   -3.9304   24.9848  -25.3596 H   0  0  0  0  0  0  0  0  0  0  0  0
   -0.8132   24.1962  -24.6514 H   0  0  0  0  0  0  0  0  0  0  0  0
    0.5720   25.3190  -23.0070 H   0  0  0  0  0  0  0  0  0  0  0  0
    1.3980   27.2240  -21.9870 H   0  0  0  0  0  0  0  0  0  0  0  0
   -0.3660   29.0507  -24.5993 H   0  0  0  0  0  0  0  0  0  0  0  0
   -2.0144   24.6591  -29.9220 H   0  0  0  0  0  0  0  0  0  0  0  0
   -0.1684   21.0571  -28.7280 H   0  0  0  0  0  0  0  0  0  0  0  0
   -0.4295   22.6535  -27.9862 H   0  0  0  0  0  0  0  0  0  0  0  0
    0.1780   20.8770  -26.3174 H   0  0  0  0  0  0  0  0  0  0  0  0
   -1.4547   21.6100  -26.0202 H   0  0  0  0  0  0  0  0  0  0  0  0
  1  2  1  0
  2  3  1  0
  3  4  1  0
  4  5  1  0
  5  6  1  0
  6  7  2  0
  6  8  2  0
  6  9  1  0
  9 10  2  0
 10 11  1  0
 11 12  2  0
 12 13  1  0
 13 14  2  0
 14 15  1  0
 15 16  2  0
 16 17  1  0
 17 18  2  0
 18 19  1  0
 19 20  2  0
 20 21  1  0
 21 22  1  0
 22 23  2  3
 22 24  1  0
 24 25  2  0
 18 26  1  0
 26 27  1  0
 26 28  2  0
  5 29  1  0
 29 30  1  0
 30  2  1  0
 14  9  1  0
 28 15  1  0
 25 19  1  0
  1 31  1  0
  1 32  1  0
  1 33  1  0
  3 34  1  0
  3 35  1  0
  4 36  1  0
  4 37  1  0
 10 38  1  0
 11 39  1  0
 12 40  1  0
 13 41  1  0
 16 42  1  0
 17 43  1  0
 20 44  1  0
 21 45  1  0
 23 46  1  0
 24 47  1  0
 28 48  1  0
 29 49  1  0
 29 50  1  0
 30 51  1  0
 30 52  1  0
M  END
>  <smiles>  (1) 
CN1CCN(S(=O)(=O)c2ccccc2-c2ccc(-c3c[nH]c(=N)cn3)c(F)c2)CC1

>  <score_type>  (1) 
oracle

>  <origin>  (1) 
adg

>  <m_score__min__energy>  (1) 
-9.9900000000000002

>  <m_primary>  (1) 
energy

$$$$
1:0
     RDKit          3D

 19 20  0  0  0  0  0  0  0  0999 V2000
   -8.9930   19.2620  -32.1880 C   0  0  0  0  0  0  0  0  0  0  0  0
   -8.5240   20.4550  -32.7370 O   0  0  0  0  0  0  0  0  0  0  0  0
   -8.4510   21.6130  -31.9740 C   0  0  0  0  0  0  0  0  0  0  0  0
   -9.4760   22.1940  -31.5090 O   0  0  0  0  0  0  0  0  0  0  0  0
   -7.1360   22.1860  -31.6960 C   0  0  0  0  0  0  0  0  0  0  0  0
   -6.0110   21.3910  -31.6070 C   0  0  0  0  0  0  0  0  0  0  0  0
   -4.7520   21.8920  -31.3460 C   0  0  0  0  0  0  0  0  0  0  0  0
   -4.5930   23.2650  -31.1610 C   0  0  0  0  0  0  0  0  0  0  0  0
   -3.5800   24.0680  -30.9050 N   0  0  0  0  0  0  0  0  0  0  0  0
   -4.0180   25.2730  -30.8350 O   0  0  0  0  0  0  0  0  0  0  0  0
   -5.2940   25.3070  -31.0370 N   0  0  0  0  0  0  0  0  0  0  0  0
   -5.7200   24.0520  -31.2510 C   0  0  0  0  0  0  0  0  0  0  0  0
   -6.9780   23.5450  -31.5130 C   0  0  0  0  0  0  0  0  0  0  0  0
   -8.9669   19.3283  -31.0903 H   0  0  0  0  0  0  0  0  0  0  0  0
  -10.0269   19.0869  -32.5203 H   0  0  0  0  0  0  0  0  0  0  0  0
   -8.3551   18.4297  -32.5203 H   0  0  0  0  0  0  0  0  0  0  0  0
   -6.1235   20.3063  -31.7510 H   0  0  0  0  0  0  0  0  0  0  0  0
   -3.8854   21.2173  -31.2847 H   0  0  0  0  0  0  0  0  0  0  0  0
   -7.8458   24.2181  -31.5752 H   0  0  0  0  0  0  0  0  0  0  0  0
  1  2  1  0
  2  3  1  0
  3  4  2  0
  3  5  1  0
  5  6  1  0
  6  7  2  0
  7  8  1  0
  8  9  2  0
  9 10  1  0
 10 11  1  0
 11 12  2  0
 12 13  1  0
 13  5  2  0
 12  8  1  0
  1 14  1  0
  1 15  1  0
  1 16  1  0
  6 17  1  0
  7 18  1  0
 13 19  1  0
M  END
>  <smiles>  (2) 
COC(=O)c1ccc2nonc2c1

>  <score_type>  (2) 
oracle

>  <origin>  (2) 
adg

>  <m_score__min__energy>  (2) 
-6.6399999999999997

>  <m_primary>  (2) 
energy

$$$$
2:0
     RDKit          3D

 51 53  0  0  1  0  0  0  0  0999 V2000
   -5.4310   25.6900  -30.3910 C   0  0  0  0  0  0  0  0  0  0  0  0
   -4.1680   25.0520  -30.6270 O   0  0  0  0  0  0  0  0  0  0  0  0
   -3.6240   24.2590  -29.6240 C   0  0  0  0  0  0  0  0  0  0  0  0
   -2.3780   24.5640  -29.0800 C   0  0  0  0  0  0  0  0  0  0  0  0
   -1.7960   23.8110  -28.0870 C   0  0  0  0  0  0  0  0  0  0  0  0
   -2.4700   22.7090  -27.6040 C   0  0  0  0  0  0  0  0  0  0  0  0
   -3.7050   22.3950  -28.1310 C   0  0  0  0  0  0  0  0  0  0  0  0
   -4.3050   23.1360  -29.1280 C   0  0  0  0  0  0  0  0  0  0  0  0
   -5.5980   22.8080  -29.7570 C   0  0  0  0  0  0  0  0  0  0  0  0
   -5.6070   22.0360  -30.9410 N   0  0  0  0  0  0  0  0  0  0  0  0
   -6.9590   21.7250  -31.3980 C   0  0  0  0  0  0  0  0  0  0  0  0
   -7.7690   22.8260  -31.5070 C   0  0  0  0  0  0  0  0  0  0  0  0
   -9.0910   22.6650  -31.9360 C   0  0  0  0  0  0  0  0  0  0  0  0
   -9.6040   21.4310  -32.2530 C   0  0  0  0  0  0  0  0  0  0  0  0
   -8.7890   20.3340  -32.1420 C   0  0  0  0  0  0  0  0  0  0  0  0
   -7.4820   20.4690  -31.7190 C   0  0  0  0  0  0  0  0  0  0  0  0
   -6.7370   19.1800  -31.6270 C   0  0  1  0  0  0  0  0  0  0  0  0
   -7.5250   18.0170  -32.0850 C   0  0  0  0  0  0  0  0  0  0  0  0
   -5.4530   19.3820  -32.2230 N   0  0  0  0  0  0  0  0  0  0  0  0
   -5.1740   18.8890  -33.5250 C   0  0  0  0  0  0  0  0  0  0  0  0
   -3.7820   18.4490  -33.8970 C   0  0  0  0  0  0  0  0  0  0  0  0
   -6.0280   18.7820  -34.4390 O   0  0  0  0  0  0  0  0  0  0  0  0
   -4.3330   20.0720  -31.6240 C   0  0  0  0  0  0  0  0  0  0  0  0
   -4.4460   21.5910  -31.6590 C   0  0  1  0  0  0  0  0  0  0  0  0
   -4.3130   22.0280  -33.0770 C   0  0  0  0  0  0  0  0  0  0  0  0
   -5.6015   25.7761  -29.3077 H   0  0  0  0  0  0  0  0  0  0  0  0
   -5.4250   26.6932  -30.8422 H   0  0  0  0  0  0  0  0  0  0  0  0
   -6.2349   25.0899  -30.8422 H   0  0  0  0  0  0  0  0  0  0  0  0
   -1.8375   25.4433  -29.4604 H   0  0  0  0  0  0  0  0  0  0  0  0
   -0.8091   24.0833  -27.6847 H   0  0  0  0  0  0  0  0  0  0  0  0
   -2.0287   22.0892  -26.8096 H   0  0  0  0  0  0  0  0  0  0  0  0
   -4.2353   21.5146  -27.7390 H   0  0  0  0  0  0  0  0  0  0  0  0
   -6.1902   22.2594  -29.0098 H   0  0  0  0  0  0  0  0  0  0  0  0
   -5.9921   23.7844  -30.0753 H   0  0  0  0  0  0  0  0  0  0  0  0
   -7.3832   23.8260  -31.2596 H   0  0  0  0  0  0  0  0  0  0  0  0
   -9.7372   23.5510  -32.0217 H   0  0  0  0  0  0  0  0  0  0  0  0
  -10.6462   21.3251  -32.5887 H   0  0  0  0  0  0  0  0  0  0  0  0
   -9.1804   19.3369  -32.3924 H   0  0  0  0  0  0  0  0  0  0  0  0
   -6.5582   18.8904  -30.5810 H   0  0  0  0  0  0  0  0  0  0  0  0
   -7.9009   17.4623  -31.2126 H   0  0  0  0  0  0  0  0  0  0  0  0
   -8.3739   18.3653  -32.6917 H   0  0  0  0  0  0  0  0  0  0  0  0
   -6.8868   17.3577  -32.6917 H   0  0  0  0  0  0  0  0  0  0  0  0
   -3.1990   18.2647  -32.9826 H   0  0  0  0  0  0  0  0  0  0  0  0
   -3.8360   17.5241  -34.4900 H   0  0  0  0  0  0  0  0  0  0  0  0
   -3.2946   19.2369  -34.4900 H   0  0  0  0  0  0  0  0  0  0  0  0
   -4.2545   19.7558  -30.5734 H   0  0  0  0  0  0  0  0  0  0  0  0
   -3.4444   19.8068  -32.2156 H   0  0  0  0  0  0  0  0  0  0  0  0
   -3.6293   22.0894  -31.1162 H   0  0  0  0  0  0  0  0  0  0  0  0
   -3.9929   23.0799  -33.1080 H   0  0  0  0  0  0  0  0  0  0  0  0
   -3.5647   21.4019  -33.5850 H   0  0  0  0  0  0  0  0  0  0  0  0
   -5.2832   21.9249  -33.5850 H   0  0  0  0  0  0  0  0  0  0  0  0
  1  2  1  0
  2  3  1  0
  3  4  2  0
  4  5  1  0
  5  6  2  0
  6  7  1  0
  7  8  2  0
  8  9  1  0
  9 10  1  0
 10 11  1  0
 11 12  2  0
 12 13  1  0
 13 14  2  0
 14 15  1  0
 15 16  2  0
 16 17  1  0
 17 18  1  0
 17 19  1  0
 19 20  1  0
 20 21  1  0
 20 22  2  0
 19 23  1  0
 23 24  1  0
 24 25  1  0
  8  3  1  0
 24 10  1  0
 16 11  1  0
  1 26  1  0
  1 27  1  0
  1 28  1  0
  4 29  1  0
  5 30  1  0
  6 31  1  0
  7 32  1  0
  9 33  1  0
  9 34  1  0
 12 35  1  0
 13 36  1  0
 14 37  1  0
 15 38  1  0
 17 39  1  1
 18 40  1  0
 18 41  1  0
 18 42  1  0
 21 43  1  0
 21 44  1  0
 21 45  1  0
 23 46  1  0
 23 47  1  0
 24 48  1  1
 25 49  1  0
 25 50  1  0
 25 51  1  0
M  END
>  <smiles>  (3) 
COc1ccccc1CN1c2ccccc2C(C)N(C(C)=O)CC1C

>  <score_type>  (3) 
oracle

>  <origin>  (3) 
adg

>  <m_score__min__energy>  (3) 
-7.6900000000000004

>  <m_primary>  (3) 
energy

$$$$
3:0
     RDKit          3D

 49 51  0  0  1  0  0  0  0  0999 V2000
   -1.6960   18.4640  -34.0780 C   0  0  0  0  0  0  0  0  0  0  0  0
   -1.8850   16.9850  -33.4940 C   0  0  0  0  0  0  0  0  0  0  0  0
   -2.9840   16.6630  -34.2720 N   0  0  0  0  0  0  0  0  0  0  0  0
   -4.1870   16.6920  -34.0540 C   0  0  0  0  0  0  0  0  0  0  0  0
   -4.7320   17.8550  -33.6380 N   0  0  0  0  0  0  0  0  0  0  0  0
   -6.0340   18.0500  -33.4030 C   0  0  0  0  0  0  0  0  0  0  0  0
   -6.5730   19.3300  -32.9430 C   0  0  0  0  0  0  0  0  0  0  0  0
   -7.8630   19.4450  -32.4540 C   0  0  0  0  0  0  0  0  0  0  0  0
   -8.3750   20.6650  -32.0040 C   0  0  0  0  0  0  0  0  0  0  0  0
   -7.5940   21.7900  -32.0380 C   0  0  0  0  0  0  0  0  0  0  0  0
   -8.0650   23.1330  -31.5790 C   0  0  0  0  0  0  0  0  0  0  0  0
   -7.0690   23.6340  -30.6400 N   0  0  0  0  0  0  0  0  0  0  0  0
   -6.0900   24.4770  -31.2530 C   0  0  0  0  0  0  0  0  0  0  0  0
   -5.0410   24.9100  -30.3040 C   0  0  0  0  0  0  0  0  0  0  0  0
   -5.3440   24.9030  -28.9150 N   0  0  0  0  0  0  0  0  0  0  0  0
   -3.8950   25.2850  -30.6410 O   0  0  0  0  0  0  0  0  0  0  0  0
   -6.3080   21.7090  -32.5160 C   0  0  0  0  0  0  0  0  0  0  0  0
   -5.8190   20.4850  -32.9600 C   0  0  0  0  0  0  0  0  0  0  0  0
   -6.8670   16.9710  -33.6050 C   0  0  0  0  0  0  0  0  0  0  0  0
   -6.3310   15.7800  -34.0250 C   0  0  0  0  0  0  0  0  0  0  0  0
   -7.1810   14.7540  -34.1980 N   0  0  0  0  0  0  0  0  0  0  0  0
   -6.6230   13.5960  -34.5960 C   0  0  0  0  0  0  0  0  0  0  0  0
   -5.3480   13.3880  -34.8260 N   0  0  0  0  0  0  0  0  0  0  0  0
   -4.9200   12.0660  -35.2500 C   0  0  0  0  0  0  0  0  0  0  0  0
   -4.4280   14.4150  -34.6640 C   0  0  0  0  0  0  0  0  0  0  0  0
   -3.3270   14.0090  -34.9200 O   0  0  0  0  0  0  0  0  0  0  0  0
   -4.9650   15.5920  -34.2670 C   0  0  0  0  0  0  0  0  0  0  0  0
   -1.6048   19.1778  -33.2461 H   0  0  0  0  0  0  0  0  0  0  0  0
   -0.7858   18.5012  -34.6946 H   0  0  0  0  0  0  0  0  0  0  0  0
   -2.5676   18.7289  -34.6946 H   0  0  0  0  0  0  0  0  0  0  0  0
   -1.0192   16.3359  -33.6917 H   0  0  0  0  0  0  0  0  0  0  0  0
   -1.9947   16.8855  -32.4040 H   0  0  0  0  0  0  0  0  0  0  0  0
   -4.0980   18.6620  -33.4890 H   0  0  0  0  0  0  0  0  0  0  0  0
   -8.5030   18.5510  -32.4186 H   0  0  0  0  0  0  0  0  0  0  0  0
   -9.4051   20.7220  -31.6225 H   0  0  0  0  0  0  0  0  0  0  0  0
   -8.1534   23.8161  -32.4366 H   0  0  0  0  0  0  0  0  0  0  0  0
   -9.0538   23.0612  -31.1024 H   0  0  0  0  0  0  0  0  0  0  0  0
   -7.5120   24.1570  -29.8690 H   0  0  0  0  0  0  0  0  0  0  0  0
   -5.6143   23.9241  -32.0764 H   0  0  0  0  0  0  0  0  0  0  0  0
   -6.6053   25.3786  -31.6157 H   0  0  0  0  0  0  0  0  0  0  0  0
   -6.0930   24.2950  -28.5170 H   0  0  0  0  0  0  0  0  0  0  0  0
   -4.8300   25.5080  -28.2330 H   0  0  0  0  0  0  0  0  0  0  0  0
   -5.6706   22.6050  -32.5472 H   0  0  0  0  0  0  0  0  0  0  0  0
   -4.7881   20.4359  -33.3405 H   0  0  0  0  0  0  0  0  0  0  0  0
   -7.9493   17.0636  -33.4315 H   0  0  0  0  0  0  0  0  0  0  0  0
   -7.3006   12.7420  -34.7426 H   0  0  0  0  0  0  0  0  0  0  0  0
   -4.7188   11.4444  -34.3651 H   0  0  0  0  0  0  0  0  0  0  0  0
   -5.7131   11.5997  -35.8530 H   0  0  0  0  0  0  0  0  0  0  0  0
   -4.0041   12.1530  -35.8530 H   0  0  0  0  0  0  0  0  0  0  0  0
  1  2  1  0
  2  3  1  0
  3  4  2  0
  4  5  1  0
  5  6  1  0
  6  7  1  0
  7  8  2  0
  8  9  1  0
  9 10  2  0
 10 11  1  0
 11 12  1  0
 12 13  1  0
 13 14  1  0
 14 15  1  0
 14 16  2  0
 10 17  1  0
 17 18  2  0
  6 19  2  0
 19 20  1  0
 20 21  1  0
 21 22  2  0
 22 23  1  0
 23 24  1  0
 23 25  1  0
 25 26  2  0
 25 27  1  0
 27  4  1  0
 18  7  1  0
 27 20  2  0
  1 28  1  0
  1 29  1  0
  1 30  1  0
  2 31  1  0
  2 32  1  0
  5 33  1  0
  8 34  1  0
  9 35  1  0
 11 36  1  0
 11 37  1  0
 12 38  1  0
 13 39  1  0
 13 40  1  0
 15 41  1  0
 15 42  1  0
 17 43  1  0
 18 44  1  0
 19 45  1  0
 22 46  1  0
 24 47  1  0
 24 48  1  0
 24 49  1  0
M  END
>  <smiles>  (4) 
CCN=c1[nH]c(-c2ccc(CNCC(N)=O)cc2)cc2ncn(C)c(=O)c12

>  <score_type>  (4) 
oracle

>  <origin>  (4) 
adg

>  <m_score__min__energy>  (4) 
-8.3100000000000005

>  <m_primary>  (4) 
energy

$$$$
4:0
     RDKit          3D

 40 43  0  0  0  0  0  0  0  0999 V2000
   -4.5240   24.6340  -31.2110 O   0  0  0  0  0  0  0  0  0  0  0  0
   -4.8830   24.3030  -30.0440 C   0  0  0  0  0  0  0  0  0  0  0  0
   -6.2220   23.9080  -29.8320 N   0  0  0  0  0  0  0  0  0  0  0  0
   -7.2370   23.8460  -30.8460 C   0  0  0  0  0  0  0  0  0  0  0  0
   -7.5970   22.4880  -31.2790 C   0  0  0  0  0  0  0  0  0  0  0  0
   -8.8310   21.9260  -31.2190 C   0  0  0  0  0  0  0  0  0  0  0  0
   -9.1110   20.6450  -31.6440 C   0  0  0  0  0  0  0  0  0  0  0  0
   -8.0860   19.8810  -32.1630 C   0  0  0  0  0  0  0  0  0  0  0  0
   -8.3070   18.5880  -32.6060 C   0  0  0  0  0  0  0  0  0  0  0  0
   -7.2460   17.8680  -33.1170 C   0  0  0  0  0  0  0  0  0  0  0  0
   -5.9730   18.3970  -33.1980 C   0  0  0  0  0  0  0  0  0  0  0  0
   -5.7420   19.7020  -32.7520 C   0  0  0  0  0  0  0  0  0  0  0  0
   -6.8120   20.4110  -32.2440 C   0  0  0  0  0  0  0  0  0  0  0  0
   -6.5680   21.7030  -31.8070 C   0  0  0  0  0  0  0  0  0  0  0  0
   -3.8670   24.3600  -29.0110 C   0  0  0  0  0  0  0  0  0  0  0  0
   -4.2700   24.5470  -27.7050 C   0  0  0  0  0  0  0  0  0  0  0  0
   -3.3430   24.6140  -26.6570 C   0  0  0  0  0  0  0  0  0  0  0  0
   -1.9890   24.4930  -26.8940 C   0  0  0  0  0  0  0  0  0  0  0  0
   -1.0680   24.5510  -25.9200 N   0  0  0  0  0  0  0  0  0  0  0  0
    0.2290   24.4240  -26.2480 C   0  0  0  0  0  0  0  0  0  0  0  0
    0.6760   24.2350  -27.5400 C   0  0  0  0  0  0  0  0  0  0  0  0
   -0.2530   24.1750  -28.5410 C   0  0  0  0  0  0  0  0  0  0  0  0
   -1.5870   24.3050  -28.2150 C   0  0  0  0  0  0  0  0  0  0  0  0
   -2.5160   24.2400  -29.2470 C   0  0  0  0  0  0  0  0  0  0  0  0
   -6.4710   23.6400  -28.8370 H   0  0  0  0  0  0  0  0  0  0  0  0
   -8.1428   24.3307  -30.4529 H   0  0  0  0  0  0  0  0  0  0  0  0
   -6.8213   24.3517  -31.7300 H   0  0  0  0  0  0  0  0  0  0  0  0
   -9.6550   22.5274  -30.8075 H   0  0  0  0  0  0  0  0  0  0  0  0
  -10.1311   20.2400  -31.5709 H   0  0  0  0  0  0  0  0  0  0  0  0
   -9.3111   18.1421  -32.5517 H   0  0  0  0  0  0  0  0  0  0  0  0
   -7.4199   16.8410  -33.4707 H   0  0  0  0  0  0  0  0  0  0  0  0
   -5.1480   17.7971  -33.6097 H   0  0  0  0  0  0  0  0  0  0  0  0
   -4.7386   20.1498  -32.8043 H   0  0  0  0  0  0  0  0  0  0  0  0
   -5.5510   22.1165  -31.8765 H   0  0  0  0  0  0  0  0  0  0  0  0
   -5.3426   24.6456  -27.4817 H   0  0  0  0  0  0  0  0  0  0  0  0
   -3.7004   24.7656  -25.6278 H   0  0  0  0  0  0  0  0  0  0  0  0
    0.9759   24.4734  -25.4419 H   0  0  0  0  0  0  0  0  0  0  0  0
    1.7496   24.1355  -27.7581 H   0  0  0  0  0  0  0  0  0  0  0  0
    0.0571   24.0260  -29.5858 H   0  0  0  0  0  0  0  0  0  0  0  0
   -2.1629   24.0889  -30.2778 H   0  0  0  0  0  0  0  0  0  0  0  0
  1  2  2  0
  2  3  1  0
  3  4  1  0
  4  5  1  0
  5  6  2  0
  6  7  1  0
  7  8  2  0
  8  9  1  0
  9 10  2  0
 10 11  1  0
 11 12  2  0
 12 13  1  0
 13 14  2  0
  2 15  1  0
 15 16  2  0
 16 17  1  0
 17 18  2  0
 18 19  1  0
 19 20  2  0
 20 21  1  0
 21 22  2  0
 22 23  1  0
 23 24  2  0
 14  5  1  0
 24 15  1  0
 13  8  1  0
 23 18  1  0
  3 25  1  0
  4 26  1  0
  4 27  1  0
  6 28  1  0
  7 29  1  0
  9 30  1  0
 10 31  1  0
 11 32  1  0
 12 33  1  0
 14 34  1  0
 16 35  1  0
 17 36  1  0
 20 37  1  0
 21 38  1  0
 22 39  1  0
 24 40  1  0
M  END
>  <smiles>  (5) 
O=C(NCc1ccc2ccccc2c1)c1ccc2ncccc2c1

>  <score_type>  (5) 
oracle

>  <origin>  (5) 
adg

>  <m_score__min__energy>  (5) 
-9.6300000000000008

>  <m_primary>  (5) 
energy

$$$$
5:0
     RDKit          3D

 45 47  0  0  0  0  0  0  0  0999 V2000
   -5.4260   24.1570  -29.3700 C   0  0  0  0  0  0  0  0  0  0  0  0
   -4.9550   25.1380  -30.4070 C   0  0  0  0  0  0  0  0  0  0  0  0
   -3.5650   25.2840  -30.4510 O   0  0  0  0  0  0  0  0  0  0  0  0
   -2.7720   24.4440  -29.6840 C   0  0  0  0  0  0  0  0  0  0  0  0
   -2.2160   24.9170  -28.5190 C   0  0  0  0  0  0  0  0  0  0  0  0
   -1.4200   24.1450  -27.7070 C   0  0  0  0  0  0  0  0  0  0  0  0
   -1.1910   22.8470  -28.1080 C   0  0  0  0  0  0  0  0  0  0  0  0
   -1.7560   22.3670  -29.2890 C   0  0  0  0  0  0  0  0  0  0  0  0
   -2.5520   23.1270  -30.1070 C   0  0  0  0  0  0  0  0  0  0  0  0
   -3.1500   22.7240  -31.2960 N   0  0  0  0  0  0  0  0  0  0  0  0
   -2.8320   21.5680  -32.0550 C   0  0  0  0  0  0  0  0  0  0  0  0
   -1.9400   20.7600  -31.7120 O   0  0  0  0  0  0  0  0  0  0  0  0
   -3.5620   21.2660  -33.3140 C   0  0  0  0  0  0  0  0  0  0  0  0
   -4.9040   20.8420  -33.1150 N   0  0  0  0  0  0  0  0  0  0  0  0
   -5.3620   19.5960  -33.3490 C   0  0  0  0  0  0  0  0  0  0  0  0
   -4.3670   18.5930  -33.8560 C   0  0  0  0  0  0  0  0  0  0  0  0
   -6.6850   19.2340  -33.1380 C   0  0  0  0  0  0  0  0  0  0  0  0
   -7.5950   20.1580  -32.6720 C   0  0  0  0  0  0  0  0  0  0  0  0
   -8.9210   19.8490  -32.4450 C   0  0  0  0  0  0  0  0  0  0  0  0
   -9.7820   20.8260  -31.9760 C   0  0  0  0  0  0  0  0  0  0  0  0
   -9.3310   22.1160  -31.7300 C   0  0  0  0  0  0  0  0  0  0  0  0
   -8.0070   22.4040  -31.9610 C   0  0  0  0  0  0  0  0  0  0  0  0
   -7.1230   21.4470  -32.4300 C   0  0  0  0  0  0  0  0  0  0  0  0
   -5.7970   21.7560  -32.6560 C   0  0  0  0  0  0  0  0  0  0  0  0
   -5.4220   22.9240  -32.4250 O   0  0  0  0  0  0  0  0  0  0  0  0
   -5.2312   24.5627  -28.3663 H   0  0  0  0  0  0  0  0  0  0  0  0
   -6.5054   23.9840  -29.4924 H   0  0  0  0  0  0  0  0  0  0  0  0
   -4.8861   23.2065  -29.4924 H   0  0  0  0  0  0  0  0  0  0  0  0
   -5.2996   24.7934  -31.3932 H   0  0  0  0  0  0  0  0  0  0  0  0
   -5.3733   26.1186  -30.1360 H   0  0  0  0  0  0  0  0  0  0  0  0
   -2.4168   25.9576  -28.2242 H   0  0  0  0  0  0  0  0  0  0  0  0
   -0.9855   24.5453  -26.7791 H   0  0  0  0  0  0  0  0  0  0  0  0
   -0.5602   22.1870  -27.4944 H   0  0  0  0  0  0  0  0  0  0  0  0
   -1.5528   21.3256  -29.5792 H   0  0  0  0  0  0  0  0  0  0  0  0
   -3.9320   23.3180  -31.7130 H   0  0  0  0  0  0  0  0  0  0  0  0
   -3.5744   22.1749  -33.9335 H   0  0  0  0  0  0  0  0  0  0  0  0
   -3.0324   20.4319  -33.7975 H   0  0  0  0  0  0  0  0  0  0  0  0
   -3.8772   18.0993  -33.0037 H   0  0  0  0  0  0  0  0  0  0  0  0
   -4.8849   17.8398  -34.4679 H   0  0  0  0  0  0  0  0  0  0  0  0
   -3.6097   19.1049  -34.4679 H   0  0  0  0  0  0  0  0  0  0  0  0
   -7.0092   18.2033  -33.3440 H   0  0  0  0  0  0  0  0  0  0  0  0
   -9.2917   18.8311  -32.6359 H   0  0  0  0  0  0  0  0  0  0  0  0
  -10.8382   20.5771  -31.7957 H   0  0  0  0  0  0  0  0  0  0  0  0
  -10.0182   22.8904  -31.3584 H   0  0  0  0  0  0  0  0  0  0  0  0
   -7.6396   23.4227  -31.7680 H   0  0  0  0  0  0  0  0  0  0  0  0
  1  2  1  0
  2  3  1  0
  3  4  1  0
  4  5  2  0
  5  6  1  0
  6  7  2  0
  7  8  1  0
  8  9  2  0
  9 10  1  0
 10 11  1  0
 11 12  2  0
 11 13  1  0
 13 14  1  0
 14 15  1  0
 15 16  1  0
 15 17  2  0
 17 18  1  0
 18 19  2  0
 19 20  1  0
 20 21  2  0
 21 22  1  0
 22 23  2  0
 23 24  1  0
 24 25  2  0
  9  4  1  0
 24 14  1  0
 23 18  1  0
  1 26  1  0
  1 27  1  0
  1 28  1  0
  2 29  1  0
  2 30  1  0
  5 31  1  0
  6 32  1  0
  7 33  1  0
  8 34  1  0
 10 35  1  0
 13 36  1  0
 13 37  1  0
 16 38  1  0
 16 39  1  0
 16 40  1  0
 17 41  1  0
 19 42  1  0
 20 43  1  0
 21 44  1  0
 22 45  1  0
M  END
>  <smiles>  (6) 
CCOc1ccccc1NC(=O)Cn1c(C)cc2ccccc2c1=O

>  <score_type>  (6) 
oracle

>  <origin>  (6) 
adg

>  <m_score__min__energy>  (6) 
-9.0299999999999994

>  <m_primary>  (6) 
energy

$$$$
6:0
     RDKit          3D

 52 55  0  0  0  0  0  0  0  0999 V2000
   -8.4930   21.5890  -30.9620 C   0  0  0  0  0  0  0  0  0  0  0  0
   -7.1440   21.9320  -31.3980 C   0  0  0  0  0  0  0  0  0  0  0  0
   -6.5400   23.1190  -30.9590 C   0  0  0  0  0  0  0  0  0  0  0  0
   -7.2360   24.0560  -30.2160 C   0  0  0  0  0  0  0  0  0  0  0  0
   -6.6710   25.2430  -29.7820 C   0  0  0  0  0  0  0  0  0  0  0  0
   -5.3580   25.5170  -30.0980 C   0  0  0  0  0  0  0  0  0  0  0  0
   -4.6290   24.6140  -30.8380 C   0  0  0  0  0  0  0  0  0  0  0  0
   -5.2310   23.4290  -31.2570 C   0  0  0  0  0  0  0  0  0  0  0  0
   -4.4420   22.5870  -32.0060 C   0  0  0  0  0  0  0  0  0  0  0  0
   -5.0180   21.4140  -32.4520 C   0  0  0  0  0  0  0  0  0  0  0  0
   -4.1910   20.5860  -33.1980 C   0  0  0  0  0  0  0  0  0  0  0  0
   -2.8430   20.9010  -33.4990 N   0  0  0  0  0  0  0  0  0  0  0  0
   -1.8360   20.8350  -32.4780 C   0  0  0  0  0  0  0  0  0  0  0  0
   -0.4310   20.7900  -32.9760 C   0  0  0  0  0  0  0  0  0  0  0  0
   -0.2290   20.7160  -34.3630 N   0  0  0  0  0  0  0  0  0  0  0  0
   -0.2000   19.4630  -35.0020 C   0  0  0  0  0  0  0  0  0  0  0  0
    0.1380   21.8690  -35.0800 C   0  0  0  0  0  0  0  0  0  0  0  0
   -4.7300   19.4160  -33.6490 C   0  0  0  0  0  0  0  0  0  0  0  0
   -3.9140   18.5720  -34.3690 C   0  0  0  0  0  0  0  0  0  0  0  0
   -4.3650   17.3680  -34.8400 C   0  0  0  0  0  0  0  0  0  0  0  0
   -5.6680   17.0180  -34.5700 C   0  0  0  0  0  0  0  0  0  0  0  0
   -6.4910   17.8780  -33.8410 C   0  0  0  0  0  0  0  0  0  0  0  0
   -6.0380   19.0980  -33.3650 C   0  0  0  0  0  0  0  0  0  0  0  0
   -6.8660   19.8940  -32.6390 N   0  0  0  0  0  0  0  0  0  0  0  0
   -8.2460   19.5540  -32.4820 C   0  0  0  0  0  0  0  0  0  0  0  0
   -6.3390   21.0730  -32.1700 C   0  0  0  0  0  0  0  0  0  0  0  0
   -8.5317   21.5792  -29.8627 H   0  0  0  0  0  0  0  0  0  0  0  0
   -9.2037   22.3350  -31.3472 H   0  0  0  0  0  0  0  0  0  0  0  0
   -8.7610   20.5941  -31.3472 H   0  0  0  0  0  0  0  0  0  0  0  0
   -8.2851   23.8485  -29.9586 H   0  0  0  0  0  0  0  0  0  0  0  0
   -7.2628   25.9585  -29.1923 H   0  0  0  0  0  0  0  0  0  0  0  0
   -4.8937   26.4550  -29.7597 H   0  0  0  0  0  0  0  0  0  0  0  0
   -3.5809   24.8257  -31.0963 H   0  0  0  0  0  0  0  0  0  0  0  0
   -3.3967   22.8375  -32.2397 H   0  0  0  0  0  0  0  0  0  0  0  0
   -2.6240   21.1760  -34.4870 H   0  0  0  0  0  0  0  0  0  0  0  0
   -1.9420   21.7228  -31.8372 H   0  0  0  0  0  0  0  0  0  0  0  0
   -2.0022   19.8871  -31.9451 H   0  0  0  0  0  0  0  0  0  0  0  0
    0.0725   21.7008  -32.6195 H   0  0  0  0  0  0  0  0  0  0  0  0
   -0.0303   19.8422  -32.5874 H   0  0  0  0  0  0  0  0  0  0  0  0
   -0.1815   18.6655  -34.2446 H   0  0  0  0  0  0  0  0  0  0  0  0
   -1.0958   19.3511  -35.6305 H   0  0  0  0  0  0  0  0  0  0  0  0
    0.7000   19.3927  -35.6305 H   0  0  0  0  0  0  0  0  0  0  0  0
    0.3940   22.6734  -34.3747 H   0  0  0  0  0  0  0  0  0  0  0  0
    1.0093   21.6453  -35.7130 H   0  0  0  0  0  0  0  0  0  0  0  0
   -0.7023   22.1901  -35.7130 H   0  0  0  0  0  0  0  0  0  0  0  0
   -2.8751   18.8723  -34.5705 H   0  0  0  0  0  0  0  0  0  0  0  0
   -3.7063   16.7015  -35.4161 H   0  0  0  0  0  0  0  0  0  0  0  0
   -6.0627   16.0565  -34.9301 H   0  0  0  0  0  0  0  0  0  0  0  0
   -7.5298   17.5784  -33.6384 H   0  0  0  0  0  0  0  0  0  0  0  0
   -8.4893   19.4941  -31.4109 H   0  0  0  0  0  0  0  0  0  0  0  0
   -8.8700   20.3253  -32.9571 H   0  0  0  0  0  0  0  0  0  0  0  0
   -8.4403   18.5811  -32.9571 H   0  0  0  0  0  0  0  0  0  0  0  0
  1  2  1  0
  2  3  2  0
  3  4  1  0
  4  5  2  0
  5  6  1  0
  6  7  2  0
  7  8  1  0
  8  9  2  0
  9 10  1  0
 10 11  2  0
 11 12  1  0
 12 13  1  0
 13 14  1  0
 14 15  1  0
 15 16  1  0
 15 17  1  0
 11 18  1  0
 18 19  2  0
 19 20  1  0
 20 21  2  0
 21 22  1  0
 22 23  2  0
 23 24  1  0
 24 25  1  0
 24 26  2  0
 26  2  1  0
  8  3  1  0
 26 10  1  0
 23 18  1  0
  1 27  1  0
  1 28  1  0
  1 29  1  0
  4 30  1  0
  5 31  1  0
  6 32  1  0
  7 33  1  0
  9 34  1  0
 12 35  1  0
 13 36  1  0
 13 37  1  0
 14 38  1  0
 14 39  1  0
 16 40  1  0
 16 41  1  0
 16 42  1  0
 17 43  1  0
 17 44  1  0
 17 45  1  0
 19 46  1  0
 20 47  1  0
 21 48  1  0
 22 49  1  0
 25 50  1  0
 25 51  1  0
 25 52  1  0
M  CHG  1  24   1
M  END
>  <smiles>  (7) 
Cc1c2ccccc2cc2c(NCCN(C)C)c3ccccc3[n+](C)c12

>  <score_type>  (7) 
oracle

>  <origin>  (7) 
adg

>  <m_score__min__energy>  (7) 
-8.9199999999999999

>  <m_primary>  (7) 
energy

$$$$
7:0
     RDKit          3D

 43 46  0  0  0  0  0  0  0  0999 V2000
   -3.2890   24.9180  -26.1820 O   0  0  0  0  0  0  0  0  0  0  0  0
   -2.4150   25.7220  -25.9600 C   0  0  0  0  0  0  0  0  0  0  0  0
   -1.0690   25.4500  -26.5330 C   0  0  0  0  0  0  0  0  0  0  0  0
   -1.0600   24.1000  -27.0590 N   0  0  0  0  0  0  0  0  0  0  0  0
    0.0150   23.7380  -27.9160 C   0  0  0  0  0  0  0  0  0  0  0  0
    0.9220   24.5660  -28.2010 O   0  0  0  0  0  0  0  0  0  0  0  0
    0.0140   22.3390  -28.4550 C   0  0  0  0  0  0  0  0  0  0  0  0
   -1.2330   22.0780  -29.2230 C   0  0  0  0  0  0  0  0  0  0  0  0
   -1.1450   22.1120  -30.6020 C   0  0  0  0  0  0  0  0  0  0  0  0
   -2.2710   21.8770  -31.3760 C   0  0  0  0  0  0  0  0  0  0  0  0
   -3.5070   21.6040  -30.7980 C   0  0  0  0  0  0  0  0  0  0  0  0
   -4.6200   21.3730  -31.6290 N   0  0  0  0  0  0  0  0  0  0  0  0
   -5.7270   22.1470  -31.6930 C   0  0  0  0  0  0  0  0  0  0  0  0
   -6.0440   23.3630  -30.9550 C   0  0  0  0  0  0  0  0  0  0  0  0
   -7.1750   23.8940  -30.4590 C   0  0  0  0  0  0  0  0  0  0  0  0
   -7.0250   25.0510  -29.8360 N   0  0  0  0  0  0  0  0  0  0  0  0
   -6.1100   25.6680  -29.6520 C   0  0  0  0  0  0  0  0  0  0  0  0
   -4.7430   24.6060  -30.4870 S   0  0  0  0  0  0  0  0  0  0  0  0
   -6.5670   21.6090  -32.5970 N   0  0  0  0  0  0  0  0  0  0  0  0
   -6.0320   20.4900  -33.1320 C   0  0  0  0  0  0  0  0  0  0  0  0
   -6.4690   19.5780  -34.0810 C   0  0  0  0  0  0  0  0  0  0  0  0
   -5.6530   18.5000  -34.4200 C   0  0  0  0  0  0  0  0  0  0  0  0
   -4.4180   18.3480  -33.8090 C   0  0  0  0  0  0  0  0  0  0  0  0
   -4.0180   19.2780  -32.8670 C   0  0  0  0  0  0  0  0  0  0  0  0
   -4.8000   20.3600  -32.5050 C   0  0  0  0  0  0  0  0  0  0  0  0
   -3.5490   21.5800  -29.4180 C   0  0  0  0  0  0  0  0  0  0  0  0
   -2.4460   21.8100  -28.6230 C   0  0  0  0  0  0  0  0  0  0  0  0
   -2.6071   26.6216  -25.3568 H   0  0  0  0  0  0  0  0  0  0  0  0
   -0.8581   26.1652  -27.3417 H   0  0  0  0  0  0  0  0  0  0  0  0
   -0.2985   25.5577  -25.7554 H   0  0  0  0  0  0  0  0  0  0  0  0
   -1.8110   23.3930  -26.8300 H   0  0  0  0  0  0  0  0  0  0  0  0
    0.8819   22.2056  -29.1175 H   0  0  0  0  0  0  0  0  0  0  0  0
    0.0679   21.6331  -27.6131 H   0  0  0  0  0  0  0  0  0  0  0  0
   -0.1805   22.3257  -31.0859 H   0  0  0  0  0  0  0  0  0  0  0  0
   -2.1853   21.9071  -32.4722 H   0  0  0  0  0  0  0  0  0  0  0  0
   -8.1534   23.4023  -30.5636 H   0  0  0  0  0  0  0  0  0  0  0  0
   -6.0170   26.6314  -29.1294 H   0  0  0  0  0  0  0  0  0  0  0  0
   -7.4503   19.7042  -34.5617 H   0  0  0  0  0  0  0  0  0  0  0  0
   -5.9887   17.7705  -35.1717 H   0  0  0  0  0  0  0  0  0  0  0  0
   -3.7664   17.5009  -34.0694 H   0  0  0  0  0  0  0  0  0  0  0  0
   -3.0370   19.1521  -32.3855 H   0  0  0  0  0  0  0  0  0  0  0  0
   -4.5106   21.3667  -28.9283 H   0  0  0  0  0  0  0  0  0  0  0  0
   -2.5320   21.7802  -27.5268 H   0  0  0  0  0  0  0  0  0  0  0  0
  1  2  2  0
  2  3  1  0
  3  4  1  0
  4  5  1  0
  5  6  2  0
  5  7  1  0
  7  8  1  0
  8  9  2  0
  9 10  1  0
 10 11  2  0
 11 12  1  0
 12 13  1  0
 13 14  1  0
 14 15  2  0
 15 16  1  0
 16 17  2  0
 17 18  1  0
 13 19  2  0
 19 20  1  0
 20 21  2  0
 21 22  1  0
 22 23  2  0
 23 24  1  0
 24 25  2  0
 11 26  1  0
 26 27  2  0
 27  8  1  0
 25 12  1  0
 18 14  1  0
 25 20  1  0
  2 28  1  0
  3 29  1  0
  3 30  1  0
  4 31  1  0
  7 32  1  0
  7 33  1  0
  9 34  1  0
 10 35  1  0
 15 36  1  0
 17 37  1  0
 21 38  1  0
 22 39  1  0
 23 40  1  0
 24 41  1  0
 26 42  1  0
 27 43  1  0
M  END
>  <smiles>  (8) 
O=CCNC(=O)Cc1ccc(-n2c(-c3cncs3)nc3ccccc32)cc1

>  <score_type>  (8) 
oracle

>  <origin>  (8) 
adg

>  <m_score__min__energy>  (8) 
-8.3100000000000005

>  <m_primary>  (8) 
energy

$$$$
8:0
     RDKit          3D

 32 33  0  0  0  0  0  0  0  0999 V2000
   -9.4700   21.9150  -31.2550 C   0  0  0  0  0  0  0  0  0  0  0  0
   -8.3670   21.0770  -31.7970 C   0  0  0  0  0  0  0  0  0  0  0  0
   -8.5790   19.7240  -32.0600 C   0  0  0  0  0  0  0  0  0  0  0  0
   -7.5720   18.9150  -32.5660 C   0  0  0  0  0  0  0  0  0  0  0  0
   -6.3580   19.4850  -32.8010 C   0  0  0  0  0  0  0  0  0  0  0  0
   -6.1310   20.8210  -32.5470 C   0  0  0  0  0  0  0  0  0  0  0  0
   -7.1290   21.6320  -32.0440 C   0  0  0  0  0  0  0  0  0  0  0  0
   -6.8580   23.0420  -31.7860 C   0  0  0  0  0  0  0  0  0  0  0  0
   -6.5580   23.8090  -32.7370 O   0  0  0  0  0  0  0  0  0  0  0  0
   -6.9270   23.5420  -30.5120 O   0  0  0  0  0  0  0  0  0  0  0  0
   -6.3720   24.7870  -30.1140 C   0  0  0  0  0  0  0  0  0  0  0  0
   -4.8910   24.6340  -30.1930 C   0  0  0  0  0  0  0  0  0  0  0  0
   -4.2260   25.4800  -30.8450 O   0  0  0  0  0  0  0  0  0  0  0  0
   -4.2290   23.5360  -29.5330 C   0  0  0  0  0  0  0  0  0  0  0  0
   -3.7240   22.5120  -30.3060 C   0  0  0  0  0  0  0  0  0  0  0  0
   -3.0860   21.4550  -29.6660 C   0  0  0  0  0  0  0  0  0  0  0  0
   -2.9690   21.4480  -28.2910 C   0  0  0  0  0  0  0  0  0  0  0  0
   -3.4790   22.4740  -27.5810 N   0  0  0  0  0  0  0  0  0  0  0  0
   -4.1120   23.5310  -28.1470 C   0  0  0  0  0  0  0  0  0  0  0  0
   -9.4410   21.8930  -30.1556 H   0  0  0  0  0  0  0  0  0  0  0  0
   -9.3490   22.9510  -31.6043 H   0  0  0  0  0  0  0  0  0  0  0  0
  -10.4357   21.5207  -31.6043 H   0  0  0  0  0  0  0  0  0  0  0  0
   -9.5690   19.2875  -31.8614 H   0  0  0  0  0  0  0  0  0  0  0  0
   -7.7484   17.8487  -32.7705 H   0  0  0  0  0  0  0  0  0  0  0  0
   -5.5413   18.8667  -33.2019 H   0  0  0  0  0  0  0  0  0  0  0  0
   -5.1376   21.2483  -32.7486 H   0  0  0  0  0  0  0  0  0  0  0  0
   -6.7082   25.5867  -30.7904 H   0  0  0  0  0  0  0  0  0  0  0  0
   -6.6905   25.0578  -29.0966 H   0  0  0  0  0  0  0  0  0  0  0  0
   -3.8233   22.5307  -31.4014 H   0  0  0  0  0  0  0  0  0  0  0  0
   -2.6741   20.6234  -30.2566 H   0  0  0  0  0  0  0  0  0  0  0  0
   -2.4651   20.6143  -27.7800 H   0  0  0  0  0  0  0  0  0  0  0  0
   -4.5164   24.3509  -27.5353 H   0  0  0  0  0  0  0  0  0  0  0  0
  1  2  1  0
  2  3  2  0
  3  4  1  0
  4  5  2  0
  5  6  1  0
  6  7  2  0
  7  8  1  0
  8  9  2  0
  8 10  1  0
 10 11  1  0
 11 12  1  0
 12 13  2  0
 12 14  1  0
 14 15  2  0
 15 16  1  0
 16 17  2  0
 17 18  1  0
 18 19  2  0
  7  2  1  0
 19 14  1  0
  1 20  1  0
  1 21  1  0
  1 22  1  0
  3 23  1  0
  4 24  1  0
  5 25  1  0
  6 26  1  0
 11 27  1  0
 11 28  1  0
 15 29  1  0
 16 30  1  0
 17 31  1  0
 19 32  1  0
M  END
>  <smiles>  (9) 
Cc1ccccc1C(=O)OCC(=O)c1cccnc1

>  <score_type>  (9) 
oracle

>  <origin>  (9) 
adg

>  <m_score__min__energy>  (9) 
-7.1500000000000004

>  <m_primary>  (9) 
energy

$$$$
9:0
     RDKit          3D

 49 49  0  0  1  0  0  0  0  0999 V2000
   -3.6910   21.6810  -33.1220 C   0  0  0  0  0  0  0  0  0  0  0  0
   -5.1210   21.5030  -32.7030 C   0  0  0  0  0  0  0  0  0  0  0  0
   -5.4500   22.2260  -31.4660 C   0  0  0  0  0  0  0  0  0  0  0  0
   -6.2900   23.3560  -31.4650 N   0  0  0  0  0  0  0  0  0  0  0  0
   -7.5360   23.0220  -32.0510 C   0  0  0  0  0  0  0  0  0  0  0  0
   -8.3730   22.1020  -31.1900 C   0  0  0  0  0  0  0  0  0  0  0  0
   -8.7380   20.8470  -32.0120 C   0  0  0  0  0  0  0  0  0  0  0  0
   -6.2420   24.1320  -30.3090 C   0  0  0  0  0  0  0  0  0  0  0  0
   -5.0280   25.0060  -30.0690 C   0  0  2  0  0  0  0  0  0  0  0  0
   -4.3670   25.4210  -31.1970 O   0  0  0  0  0  0  0  0  0  0  0  0
   -4.1680   24.5230  -28.9550 C   0  0  0  0  0  0  0  0  0  0  0  0
   -2.8140   24.7350  -29.2070 O   0  0  0  0  0  0  0  0  0  0  0  0
   -1.7160   24.0630  -28.8000 C   0  0  0  0  0  0  0  0  0  0  0  0
   -1.3390   22.7920  -29.1610 C   0  0  0  0  0  0  0  0  0  0  0  0
   -2.1280   21.9980  -30.1180 C   0  0  0  0  0  0  0  0  0  0  0  0
   -0.1800   22.2080  -28.6630 C   0  0  0  0  0  0  0  0  0  0  0  0
    0.6590   22.8740  -27.7790 C   0  0  0  0  0  0  0  0  0  0  0  0
    0.2830   24.1540  -27.4140 C   0  0  0  0  0  0  0  0  0  0  0  0
   -0.8550   24.7170  -27.9080 C   0  0  0  0  0  0  0  0  0  0  0  0
   -1.1980   26.1170  -27.4690 C   0  0  0  0  0  0  0  0  0  0  0  0
   -3.0543   21.7603  -32.2285 H   0  0  0  0  0  0  0  0  0  0  0  0
   -3.3743   20.8153  -33.7223 H   0  0  0  0  0  0  0  0  0  0  0  0
   -3.5962   22.5979  -33.7223 H   0  0  0  0  0  0  0  0  0  0  0  0
   -5.7714   21.8731  -33.5092 H   0  0  0  0  0  0  0  0  0  0  0  0
   -5.2769   20.4314  -32.5099 H   0  0  0  0  0  0  0  0  0  0  0  0
   -5.9204   21.4917  -30.7956 H   0  0  0  0  0  0  0  0  0  0  0  0
   -4.4786   22.6591  -31.1853 H   0  0  0  0  0  0  0  0  0  0  0  0
   -8.1012   23.9499  -32.2229 H   0  0  0  0  0  0  0  0  0  0  0  0
   -7.3230   22.4876  -32.9886 H   0  0  0  0  0  0  0  0  0  0  0  0
   -7.7998   21.8065  -30.2989 H   0  0  0  0  0  0  0  0  0  0  0  0
   -9.2897   22.6197  -30.8712 H   0  0  0  0  0  0  0  0  0  0  0  0
   -8.9789   20.0188  -31.3293 H   0  0  0  0  0  0  0  0  0  0  0  0
   -9.6100   21.0649  -32.6462 H   0  0  0  0  0  0  0  0  0  0  0  0
   -7.8852   20.5632  -32.6462 H   0  0  0  0  0  0  0  0  0  0  0  0
   -7.1196   24.7949  -30.3275 H   0  0  0  0  0  0  0  0  0  0  0  0
   -6.2053   23.3945  -29.4937 H   0  0  0  0  0  0  0  0  0  0  0  0
   -5.4388   25.9575  -29.7004 H   0  0  0  0  0  0  0  0  0  0  0  0
   -3.4940   24.9470  -31.2570 H   0  0  0  0  0  0  0  0  0  0  0  0
   -4.4455   25.0585  -28.0351 H   0  0  0  0  0  0  0  0  0  0  0  0
   -4.3270   23.4396  -28.8501 H   0  0  0  0  0  0  0  0  0  0  0  0
   -2.7995   21.3223  -29.5680 H   0  0  0  0  0  0  0  0  0  0  0  0
   -2.7240   22.6724  -30.7504 H   0  0  0  0  0  0  0  0  0  0  0  0
   -1.4498   21.4063  -30.7504 H   0  0  0  0  0  0  0  0  0  0  0  0
    0.0806   21.1870  -28.9788 H   0  0  0  0  0  0  0  0  0  0  0  0
    1.5756   22.4074  -27.3891 H   0  0  0  0  0  0  0  0  0  0  0  0
    0.9116   24.7254  -26.7151 H   0  0  0  0  0  0  0  0  0  0  0  0
   -1.2096   26.1642  -26.3701 H   0  0  0  0  0  0  0  0  0  0  0  0
   -0.4451   26.8181  -27.8582 H   0  0  0  0  0  0  0  0  0  0  0  0
   -2.1898   26.3907  -27.8582 H   0  0  0  0  0  0  0  0  0  0  0  0
  1  2  1  0
  2  3  1  0
  3  4  1  0
  4  5  1  0
  5  6  1  0
  6  7  1  0
  4  8  1  0
  8  9  1  0
  9 10  1  0
  9 11  1  0
 11 12  1  0
 12 13  1  0
 13 14  2  0
 14 15  1  0
 14 16  1  0
 16 17  2  0
 17 18  1  0
 18 19  2  0
 19 20  1  0
 19 13  1  0
  1 21  1  0
  1 22  1  0
  1 23  1  0
  2 24  1  0
  2 25  1  0
  3 26  1  0
  3 27  1  0
  5 28  1  0
  5 29  1  0
  6 30  1  0
  6 31  1  0
  7 32  1  0
  7 33  1  0
  7 34  1  0
  8 35  1  0
  8 36  1  0
  9 37  1  1
 10 38  1  0
 11 39  1  0
 11 40  1  0
 15 41  1  0
 15 42  1  0
 15 43  1  0
 16 44  1  0
 17 45  1  0
 18 46  1  0
 20 47  1  0
 20 48  1  0
 20 49  1  0
M  END
>  <smiles>  (10) 
CCCN(CCC)CC(O)COc1c(C)cccc1C

>  <score_type>  (10) 
oracle

>  <origin>  (10) 
adg

>  <m_score__min__energy>  (10) 
-7.1900000000000004

>  <m_primary>  (10) 
energy

$$$$
10:0
     RDKit          3D

 55 57  0  0  1  0  0  0  0  0999 V2000
   -0.5090   24.3660  -24.4570 C   0  0  0  0  0  0  0  0  0  0  0  0
   -0.4090   22.8670  -24.2720 C   0  0  0  0  0  0  0  0  0  0  0  0
   -0.1360   22.2840  -25.5470 O   0  0  0  0  0  0  0  0  0  0  0  0
   -1.1070   21.5550  -26.2150 C   0  0  0  0  0  0  0  0  0  0  0  0
   -1.4610   20.4060  -25.7740 O   0  0  0  0  0  0  0  0  0  0  0  0
   -1.6930   22.0930  -27.3800 N   0  0  0  0  0  0  0  0  0  0  0  0
   -1.2870   23.4150  -27.8840 C   0  0  0  0  0  0  0  0  0  0  0  0
   -1.9530   23.6950  -29.2110 C   0  0  0  0  0  0  0  0  0  0  0  0
   -3.3910   23.4210  -29.1470 N   0  0  0  0  0  0  0  0  0  0  0  0
   -4.2280   24.3210  -29.8610 C   0  0  0  0  0  0  0  0  0  0  0  0
   -3.6360   25.2680  -30.4740 O   0  0  0  0  0  0  0  0  0  0  0  0
   -5.7190   24.1770  -29.9010 C   0  0  0  0  0  0  0  0  0  0  0  0
   -6.2630   24.5740  -31.2500 C   0  0  0  0  0  0  0  0  0  0  0  0
   -7.4380   23.7970  -31.7150 C   0  0  0  0  0  0  0  0  0  0  0  0
   -7.0920   22.3800  -31.9360 N   0  0  0  0  0  0  0  0  0  0  0  0
   -5.8160   21.9590  -32.3060 C   0  0  0  0  0  0  0  0  0  0  0  0
   -4.8110   22.7370  -32.4880 O   0  0  0  0  0  0  0  0  0  0  0  0
   -5.6690   20.5240  -32.4830 C   0  0  0  0  0  0  0  0  0  0  0  0
   -4.5810   19.7950  -32.4570 C   0  0  0  0  0  0  0  0  0  0  0  0
   -3.2270   20.3110  -32.5900 C   0  0  0  0  0  0  0  0  0  0  0  0
   -2.5570   20.4200  -33.7880 C   0  0  0  0  0  0  0  0  0  0  0  0
   -1.2660   20.8980  -33.7960 C   0  0  0  0  0  0  0  0  0  0  0  0
   -0.6430   21.2670  -32.6220 C   0  0  0  0  0  0  0  0  0  0  0  0
   -1.2890   21.1700  -31.4040 C   0  0  0  0  0  0  0  0  0  0  0  0
   -2.5900   20.6860  -31.4110 C   0  0  0  0  0  0  0  0  0  0  0  0
   -7.3840   19.9570  -32.7300 S   0  0  0  0  0  0  0  0  0  0  0  0
   -8.0610   21.3640  -31.7890 C   0  0  0  0  0  0  0  0  0  0  0  0
   -9.4820   21.3850  -30.9720 S   0  0  0  0  0  0  0  0  0  0  0  0
   -3.8940   22.2940  -28.3870 C   0  0  0  0  0  0  0  0  0  0  0  0
   -2.7190   21.3590  -28.1260 C   0  0  0  0  0  0  0  0  0  0  0  0
   -0.5417   24.8556  -23.4725 H   0  0  0  0  0  0  0  0  0  0  0  0
    0.3671   24.7257  -25.0165 H   0  0  0  0  0  0  0  0  0  0  0  0
   -1.4252   24.6061  -25.0165 H   0  0  0  0  0  0  0  0  0  0  0  0
    0.4051   22.6305  -23.5710 H   0  0  0  0  0  0  0  0  0  0  0  0
   -1.3486   22.4683  -23.8619 H   0  0  0  0  0  0  0  0  0  0  0  0
   -1.5834   24.1870  -27.1587 H   0  0  0  0  0  0  0  0  0  0  0  0
   -0.1956   23.4272  -28.0207 H   0  0  0  0  0  0  0  0  0  0  0  0
   -1.7999   24.7521  -29.4740 H   0  0  0  0  0  0  0  0  0  0  0  0
   -1.5056   23.0389  -29.9721 H   0  0  0  0  0  0  0  0  0  0  0  0
   -5.9849   23.1287  -29.7000 H   0  0  0  0  0  0  0  0  0  0  0  0
   -6.1560   24.8379  -29.1380 H   0  0  0  0  0  0  0  0  0  0  0  0
   -6.5547   25.6335  -31.2001 H   0  0  0  0  0  0  0  0  0  0  0  0
   -5.4593   24.3708  -31.9731 H   0  0  0  0  0  0  0  0  0  0  0  0
   -8.2309   23.8576  -30.9550 H   0  0  0  0  0  0  0  0  0  0  0  0
   -7.7796   24.2233  -32.6697 H   0  0  0  0  0  0  0  0  0  0  0  0
   -4.7001   18.7095  -32.3245 H   0  0  0  0  0  0  0  0  0  0  0  0
   -3.0479   20.1284  -34.7282 H   0  0  0  0  0  0  0  0  0  0  0  0
   -0.7250   20.9867  -34.7497 H   0  0  0  0  0  0  0  0  0  0  0  0
    0.3890   21.6462  -32.6558 H   0  0  0  0  0  0  0  0  0  0  0  0
   -0.7926   21.4643  -30.4675 H   0  0  0  0  0  0  0  0  0  0  0  0
   -3.1324   20.5964  -30.4582 H   0  0  0  0  0  0  0  0  0  0  0  0
   -4.3163   22.6424  -27.4329 H   0  0  0  0  0  0  0  0  0  0  0  0
   -4.6879   21.7740  -28.9431 H   0  0  0  0  0  0  0  0  0  0  0  0
   -3.0577   20.4940  -27.5368 H   0  0  0  0  0  0  0  0  0  0  0  0
   -2.3052   21.0007  -29.0801 H   0  0  0  0  0  0  0  0  0  0  0  0
  1  2  1  0
  2  3  1  0
  3  4  1  0
  4  5  2  0
  4  6  1  0
  6  7  1  0
  7  8  1  0
  8  9  1  0
  9 10  1  0
 10 11  2  0
 10 12  1  0
 12 13  1  0
 13 14  1  0
 14 15  1  0
 15 16  1  0
 16 17  2  0
 16 18  1  0
 18 19  2  0
 19 20  1  0
 20 21  2  0
 21 22  1  0
 22 23  2  0
 23 24  1  0
 24 25  2  0
 18 26  1  0
 26 27  1  0
 27 28  2  0
  9 29  1  0
 29 30  1  0
 30  6  1  0
 27 15  1  0
 25 20  1  0
  1 31  1  0
  1 32  1  0
  1 33  1  0
  2 34  1  0
  2 35  1  0
  7 36  1  0
  7 37  1  0
  8 38  1  0
  8 39  1  0
 12 40  1  0
 12 41  1  0
 13 42  1  0
 13 43  1  0
 14 44  1  0
 14 45  1  0
 19 46  1  0
 21 47  1  0
 22 48  1  0
 23 49  1  0
 24 50  1  0
 25 51  1  0
 29 52  1  0
 29 53  1  0
 30 54  1  0
 30 55  1  0
M  END
>  <smiles>  (11) 
CCOC(=O)N1CCN(C(=O)CCCN2C(=O)C(=Cc3ccccc3)SC2=S)CC1

>  <score_type>  (11) 
oracle

>  <origin>  (11) 
adg

>  <m_score__min__energy>  (11) 
-9.8000000000000007

>  <m_primary>  (11) 
energy

$$$$
11:0
     RDKit          3D

 43 45  0  0  0  0  0  0  0  0999 V2000
   -1.1180   16.3290  -32.7670 C   0  0  0  0  0  0  0  0  0  0  0  0
   -1.2540   14.9790  -32.8930 O   0  0  0  0  0  0  0  0  0  0  0  0
   -0.7930   14.3900  -34.0450 C   0  0  0  0  0  0  0  0  0  0  0  0
   -1.6880   13.3970  -34.6920 C   0  0  0  0  0  0  0  0  0  0  0  0
   -3.0120   13.6980  -34.8610 O   0  0  0  0  0  0  0  0  0  0  0  0
   -3.8150   14.6650  -34.3300 C   0  0  0  0  0  0  0  0  0  0  0  0
   -3.8790   15.8820  -35.0200 C   0  0  0  0  0  0  0  0  0  0  0  0
   -4.6420   16.9230  -34.5930 C   0  0  0  0  0  0  0  0  0  0  0  0
   -5.3920   16.8200  -33.4480 C   0  0  0  0  0  0  0  0  0  0  0  0
   -6.2260   17.9540  -32.9790 C   0  0  0  0  0  0  0  0  0  0  0  0
   -7.6070   17.8640  -32.9890 C   0  0  0  0  0  0  0  0  0  0  0  0
   -8.1590   19.4740  -32.3350 S   0  0  0  0  0  0  0  0  0  0  0  0
   -6.3390   20.0730  -32.1310 C   0  0  0  0  0  0  0  0  0  0  0  0
   -6.1250   21.4060  -31.6020 C   0  0  0  0  0  0  0  0  0  0  0  0
   -7.1670   22.2770  -31.4080 C   0  0  0  0  0  0  0  0  0  0  0  0
   -6.8960   23.5310  -30.9010 C   0  0  0  0  0  0  0  0  0  0  0  0
   -5.5970   23.8910  -30.6000 C   0  0  0  0  0  0  0  0  0  0  0  0
   -5.3640   25.2130  -30.0730 C   0  0  0  0  0  0  0  0  0  0  0  0
   -6.2010   25.8020  -29.0760 N   0  0  0  0  0  0  0  0  0  0  0  0
   -4.3990   25.9130  -30.4750 O   0  0  0  0  0  0  0  0  0  0  0  0
   -4.5550   23.0140  -30.7960 C   0  0  0  0  0  0  0  0  0  0  0  0
   -4.8420   21.7710  -31.2990 C   0  0  0  0  0  0  0  0  0  0  0  0
   -5.7350   19.0660  -32.5430 N   0  0  0  0  0  0  0  0  0  0  0  0
   -5.3390   15.6270  -32.7570 C   0  0  0  0  0  0  0  0  0  0  0  0
   -4.5670   14.5750  -33.1910 C   0  0  0  0  0  0  0  0  0  0  0  0
   -1.0910   16.5968  -31.7004 H   0  0  0  0  0  0  0  0  0  0  0  0
   -0.1830   16.6499  -33.2494 H   0  0  0  0  0  0  0  0  0  0  0  0
   -1.9702   16.8300  -33.2494 H   0  0  0  0  0  0  0  0  0  0  0  0
   -0.6010   15.1905  -34.7746 H   0  0  0  0  0  0  0  0  0  0  0  0
    0.0980   13.8208  -33.7415 H   0  0  0  0  0  0  0  0  0  0  0  0
   -1.2747   13.1959  -35.6914 H   0  0  0  0  0  0  0  0  0  0  0  0
   -1.7008   12.5568  -33.9821 H   0  0  0  0  0  0  0  0  0  0  0  0
   -3.2901   16.0000  -35.9416 H   0  0  0  0  0  0  0  0  0  0  0  0
   -4.6585   17.8584  -35.1716 H   0  0  0  0  0  0  0  0  0  0  0  0
   -8.2280   17.0170  -33.3159 H   0  0  0  0  0  0  0  0  0  0  0  0
   -8.1981   21.9813  -31.6519 H   0  0  0  0  0  0  0  0  0  0  0  0
   -7.7159   24.2455  -30.7361 H   0  0  0  0  0  0  0  0  0  0  0  0
   -6.5230   26.7820  -29.2850 H   0  0  0  0  0  0  0  0  0  0  0  0
   -6.4550   25.2800  -28.2220 H   0  0  0  0  0  0  0  0  0  0  0  0
   -3.5208   23.3019  -30.5559 H   0  0  0  0  0  0  0  0  0  0  0  0
   -4.0244   21.0533  -31.4620 H   0  0  0  0  0  0  0  0  0  0  0  0
   -5.9292   15.5145  -31.8356 H   0  0  0  0  0  0  0  0  0  0  0  0
   -4.5539   13.6412  -32.6098 H   0  0  0  0  0  0  0  0  0  0  0  0
  1  2  1  0
  2  3  1  0
  3  4  1  0
  4  5  1  0
  5  6  1  0
  6  7  2  0
  7  8  1  0
  8  9  2  0
  9 10  1  0
 10 11  2  0
 11 12  1  0
 12 13  1  0
 13 14  1  0
 14 15  2  0
 15 16  1  0
 16 17  2  0
 17 18  1  0
 18 19  1  0
 18 20  2  0
 17 21  1  0
 21 22  2  0
 13 23  2  0
  9 24  1  0
 24 25  2  0
 25  6  1  0
 23 10  1  0
 22 14  1  0
  1 26  1  0
  1 27  1  0
  1 28  1  0
  3 29  1  0
  3 30  1  0
  4 31  1  0
  4 32  1  0
  7 33  1  0
  8 34  1  0
 11 35  1  0
 15 36  1  0
 16 37  1  0
 19 38  1  0
 19 39  1  0
 21 40  1  0
 22 41  1  0
 24 42  1  0
 25 43  1  0
M  END
>  <smiles>  (12) 
COCCOc1ccc(-c2csc(-c3ccc(C(N)=O)cc3)n2)cc1

>  <score_type>  (12) 
oracle

>  <origin>  (12) 
adg

>  <m_score__min__energy>  (12) 
-7.6500000000000004

>  <m_primary>  (12) 
energy

$$$$
12:0
     RDKit          3D

 30 31  0  0  0  0  0  0  0  0999 V2000
   -7.9690   18.1360  -31.9600 C   0  0  0  0  0  0  0  0  0  0  0  0
   -8.7340   19.3920  -31.6170 C   0  0  0  0  0  0  0  0  0  0  0  0
   -8.4340   20.4250  -32.7010 C   0  0  0  0  0  0  0  0  0  0  0  0
   -7.3160   21.2630  -32.3240 N   0  0  0  0  0  0  0  0  0  0  0  0
   -7.5350   22.4470  -31.7140 C   0  0  0  0  0  0  0  0  0  0  0  0
   -8.7530   22.7630  -31.5010 O   0  0  0  0  0  0  0  0  0  0  0  0
   -6.5300   23.2670  -31.3400 N   0  0  0  0  0  0  0  0  0  0  0  0
   -6.8630   24.5260  -30.6880 C   0  0  0  0  0  0  0  0  0  0  0  0
   -5.2310   22.9210  -31.5700 C   0  0  0  0  0  0  0  0  0  0  0  0
   -4.2850   23.6910  -31.2190 O   0  0  0  0  0  0  0  0  0  0  0  0
   -4.9900   21.7100  -32.1950 C   0  0  0  0  0  0  0  0  0  0  0  0
   -6.0430   20.8880  -32.5680 C   0  0  0  0  0  0  0  0  0  0  0  0
   -5.5000   19.7880  -33.1490 N   0  0  0  0  0  0  0  0  0  0  0  0
   -4.1620   19.9080  -33.1440 C   0  0  0  0  0  0  0  0  0  0  0  0
   -2.9180   18.6240  -33.8480 Br  0  0  0  0  0  0  0  0  0  0  0  0
   -3.8670   21.0800  -32.5620 N   0  0  0  0  0  0  0  0  0  0  0  0
   -2.5400   21.6350  -32.3360 C   0  0  0  0  0  0  0  0  0  0  0  0
   -7.6607   17.6299  -31.0333 H   0  0  0  0  0  0  0  0  0  0  0  0
   -8.6116   17.4644  -32.5483 H   0  0  0  0  0  0  0  0  0  0  0  0
   -7.0775   18.3988  -32.5483 H   0  0  0  0  0  0  0  0  0  0  0  0
   -9.8128   19.1787  -31.5902 H   0  0  0  0  0  0  0  0  0  0  0  0
   -8.4333   19.7701  -30.6288 H   0  0  0  0  0  0  0  0  0  0  0  0
   -8.1920   19.9028  -33.6384 H   0  0  0  0  0  0  0  0  0  0  0  0
   -9.3208   21.0623  -32.8326 H   0  0  0  0  0  0  0  0  0  0  0  0
   -6.8281   24.3941  -29.5965 H   0  0  0  0  0  0  0  0  0  0  0  0
   -6.1379   25.2971  -30.9875 H   0  0  0  0  0  0  0  0  0  0  0  0
   -7.8745   24.8377  -30.9875 H   0  0  0  0  0  0  0  0  0  0  0  0
   -2.3543   21.7127  -31.2546 H   0  0  0  0  0  0  0  0  0  0  0  0
   -1.7850   20.9772  -32.7913 H   0  0  0  0  0  0  0  0  0  0  0  0
   -2.4781   22.6344  -32.7913 H   0  0  0  0  0  0  0  0  0  0  0  0
  1  2  1  0
  2  3  1  0
  3  4  1  0
  4  5  1  0
  5  6  2  0
  5  7  1  0
  7  8  1  0
  7  9  1  0
  9 10  2  0
  9 11  1  0
 11 12  2  0
 12 13  1  0
 13 14  2  0
 14 15  1  0
 14 16  1  0
 16 17  1  0
 12  4  1  0
 16 11  1  0
  1 18  1  0
  1 19  1  0
  1 20  1  0
  2 21  1  0
  2 22  1  0
  3 23  1  0
  3 24  1  0
  8 25  1  0
  8 26  1  0
  8 27  1  0
 17 28  1  0
 17 29  1  0
 17 30  1  0
M  END
>  <smiles>  (13) 
CCCn1c(=O)n(C)c(=O)c2c1nc(Br)n2C

>  <score_type>  (13) 
oracle

>  <origin>  (13) 
adg

>  <m_score__min__energy>  (13) 
-6.2000000000000002

>  <m_primary>  (13) 
energy

$$$$
13:0
     RDKit          3D

 47 50  0  0  1  0  0  0  0  0999 V2000
    0.0150   28.3540  -26.0650 C   0  0  0  0  0  0  0  0  0  0  0  0
   -0.5380   28.0570  -24.8260 C   0  0  0  0  0  0  0  0  0  0  0  0
   -1.5110   26.4660  -25.1870 S   0  0  0  0  0  0  0  0  0  0  0  0
   -1.0020   26.4630  -26.9860 C   0  0  0  0  0  0  0  0  0  0  0  0
   -1.4430   25.4150  -27.9010 C   0  0  0  0  0  0  0  0  0  0  0  0
   -0.8190   24.1720  -27.9190 C   0  0  0  0  0  0  0  0  0  0  0  0
   -1.4560   23.3920  -28.8930 C   0  0  0  0  0  0  0  0  0  0  0  0
   -2.4450   24.2170  -29.4200 C   0  0  0  0  0  0  0  0  0  0  0  0
   -3.3520   23.7630  -30.4950 C   0  0  0  0  0  0  0  0  0  0  0  0
   -4.4560   24.6800  -30.7280 N   0  0  0  0  0  0  0  0  0  0  0  0
   -5.7120   23.9940  -30.8150 C   0  0  0  0  0  0  0  0  0  0  0  0
   -5.5940   22.7090  -31.5430 C   0  0  0  0  0  0  0  0  0  0  0  0
   -6.8130   22.4330  -32.3740 C   0  0  2  0  0  0  0  0  0  0  0  0
   -8.0500   23.1010  -31.8830 C   0  0  0  0  0  0  0  0  0  0  0  0
   -8.8020   22.2320  -30.8800 C   0  0  0  0  0  0  0  0  0  0  0  0
   -9.3950   21.0970  -31.7310 C   0  0  0  0  0  0  0  0  0  0  0  0
   -8.2170   20.3280  -32.2220 C   0  0  0  0  0  0  0  0  0  0  0  0
   -8.3550   18.9570  -32.3600 C   0  0  0  0  0  0  0  0  0  0  0  0
   -7.3010   18.1540  -32.8090 C   0  0  0  0  0  0  0  0  0  0  0  0
   -6.1430   18.8450  -33.0900 C   0  0  0  0  0  0  0  0  0  0  0  0
   -5.9620   20.1880  -32.9700 C   0  0  0  0  0  0  0  0  0  0  0  0
   -7.0300   20.9520  -32.5220 C   0  0  0  0  0  0  0  0  0  0  0  0
   -2.3630   25.3610  -28.7890 O   0  0  0  0  0  0  0  0  0  0  0  0
   -0.2240   27.5650  -27.1050 C   0  0  0  0  0  0  0  0  0  0  0  0
    0.6512   29.2434  -26.1843 H   0  0  0  0  0  0  0  0  0  0  0  0
   -0.4379   28.6040  -23.8769 H   0  0  0  0  0  0  0  0  0  0  0  0
    0.0223   23.8582  -27.2836 H   0  0  0  0  0  0  0  0  0  0  0  0
   -1.2251   22.3551  -29.1785 H   0  0  0  0  0  0  0  0  0  0  0  0
   -2.7732   23.6668  -31.4254 H   0  0  0  0  0  0  0  0  0  0  0  0
   -3.7825   22.8011  -30.1797 H   0  0  0  0  0  0  0  0  0  0  0  0
   -4.4180   25.3870  -29.9700 H   0  0  0  0  0  0  0  0  0  0  0  0
   -6.0781   23.7932  -29.7973 H   0  0  0  0  0  0  0  0  0  0  0  0
   -6.4116   24.6359  -31.3704 H   0  0  0  0  0  0  0  0  0  0  0  0
   -4.7143   22.7512  -32.2021 H   0  0  0  0  0  0  0  0  0  0  0  0
   -5.4910   21.9016  -30.8031 H   0  0  0  0  0  0  0  0  0  0  0  0
   -6.6085   22.8754  -33.3601 H   0  0  0  0  0  0  0  0  0  0  0  0
   -7.7743   24.0485  -31.3970 H   0  0  0  0  0  0  0  0  0  0  0  0
   -8.7095   23.2769  -32.7456 H   0  0  0  0  0  0  0  0  0  0  0  0
   -8.1154   21.8312  -30.1197 H   0  0  0  0  0  0  0  0  0  0  0  0
   -9.5730   22.7936  -30.3321 H   0  0  0  0  0  0  0  0  0  0  0  0
  -10.0478   20.4562  -31.1201 H   0  0  0  0  0  0  0  0  0  0  0  0
  -10.0128   21.4791  -32.5571 H   0  0  0  0  0  0  0  0  0  0  0  0
   -9.3178   18.4874  -32.1102 H   0  0  0  0  0  0  0  0  0  0  0  0
   -7.3895   17.0640  -32.9275 H   0  0  0  0  0  0  0  0  0  0  0  0
   -5.2844   18.2559  -33.4446 H   0  0  0  0  0  0  0  0  0  0  0  0
   -4.9977   20.6542  -33.2207 H   0  0  0  0  0  0  0  0  0  0  0  0
    0.2181   27.8107  -28.0818 H   0  0  0  0  0  0  0  0  0  0  0  0
  1  2  2  0
  2  3  1  0
  3  4  1  0
  4  5  1  0
  5  6  2  0
  6  7  1  0
  7  8  2  0
  8  9  1  0
  9 10  1  0
 10 11  1  0
 11 12  1  0
 12 13  1  0
 13 14  1  0
 14 15  1  0
 15 16  1  0
 16 17  1  0
 17 18  2  0
 18 19  1  0
 19 20  2  0
 20 21  1  0
 21 22  2  0
  8 23  1  0
  4 24  2  0
 24  1  1  0
 23  5  1  0
 22 13  1  0
 22 17  1  0
  1 25  1  0
  2 26  1  0
  6 27  1  0
  7 28  1  0
  9 29  1  0
  9 30  1  0
 10 31  1  0
 11 32  1  0
 11 33  1  0
 12 34  1  0
 12 35  1  0
 13 36  1  6
 14 37  1  0
 14 38  1  0
 15 39  1  0
 15 40  1  0
 16 41  1  0
 16 42  1  0
 18 43  1  0
 19 44  1  0
 20 45  1  0
 21 46  1  0
 24 47  1  0
M  END
>  <smiles>  (14) 
c1csc(-c2ccc(CNCCC3CCCc4ccccc43)o2)c1

>  <score_type>  (14) 
oracle

>  <origin>  (14) 
adg

>  <m_score__min__energy>  (14) 
-9.9199999999999999

>  <m_primary>  (14) 
energy

$$$$
14:0
     RDKit          3D

 42 44  0  0  0  0  0  0  0  0999 V2000
   -2.3590   21.9270  -31.3960 C   0  0  0  0  0  0  0  0  0  0  0  0
   -1.7210   21.4550  -32.6680 C   0  0  0  0  0  0  0  0  0  0  0  0
   -2.7320   21.1880  -33.6960 N   0  0  0  0  0  0  0  0  0  0  0  0
   -3.3050   19.8640  -33.5340 C   0  0  0  0  0  0  0  0  0  0  0  0
   -4.6200   20.0060  -32.8800 C   0  0  0  0  0  0  0  0  0  0  0  0
   -5.0930   19.0270  -32.2300 O   0  0  0  0  0  0  0  0  0  0  0  0
   -5.3700   21.2340  -32.9670 N   0  0  0  0  0  0  0  0  0  0  0  0
   -6.6340   21.3460  -32.3290 C   0  0  0  0  0  0  0  0  0  0  0  0
   -7.5970   20.4070  -32.7050 C   0  0  0  0  0  0  0  0  0  0  0  0
   -8.8610   20.4090  -32.1570 C   0  0  0  0  0  0  0  0  0  0  0  0
   -9.1280   21.3960  -31.2080 C   0  0  0  0  0  0  0  0  0  0  0  0
   -8.1890   22.3190  -30.8340 C   0  0  0  0  0  0  0  0  0  0  0  0
   -6.9290   22.3090  -31.3870 C   0  0  0  0  0  0  0  0  0  0  0  0
   -5.9230   23.2840  -30.9930 C   0  0  0  0  0  0  0  0  0  0  0  0
   -5.5210   24.4100  -31.6040 N   0  0  0  0  0  0  0  0  0  0  0  0
   -4.5660   24.9620  -30.8470 N   0  0  0  0  0  0  0  0  0  0  0  0
   -4.3530   24.2200  -29.7780 N   0  0  0  0  0  0  0  0  0  0  0  0
   -3.4450   24.3980  -28.7000 C   0  0  0  0  0  0  0  0  0  0  0  0
   -2.0900   24.4210  -29.0390 C   0  0  0  0  0  0  0  0  0  0  0  0
   -1.1020   24.5860  -28.0950 C   0  0  0  0  0  0  0  0  0  0  0  0
   -1.4980   24.7320  -26.7670 C   0  0  0  0  0  0  0  0  0  0  0  0
   -2.8430   24.7100  -26.4200 C   0  0  0  0  0  0  0  0  0  0  0  0
   -3.8360   24.5420  -27.3890 C   0  0  0  0  0  0  0  0  0  0  0  0
   -5.1850   23.1960  -29.8700 N   0  0  0  0  0  0  0  0  0  0  0  0
   -1.8077   21.5191  -30.5359 H   0  0  0  0  0  0  0  0  0  0  0  0
   -2.3345   23.0261  -31.3594 H   0  0  0  0  0  0  0  0  0  0  0  0
   -3.4029   21.5821  -31.3594 H   0  0  0  0  0  0  0  0  0  0  0  0
   -1.0320   22.2304  -33.0340 H   0  0  0  0  0  0  0  0  0  0  0  0
   -1.1766   20.5217  -32.4614 H   0  0  0  0  0  0  0  0  0  0  0  0
   -2.2120   21.2470  -34.6000 H   0  0  0  0  0  0  0  0  0  0  0  0
   -3.4284   19.3890  -34.5184 H   0  0  0  0  0  0  0  0  0  0  0  0
   -2.6420   19.2362  -32.9205 H   0  0  0  0  0  0  0  0  0  0  0  0
   -4.9810   22.0530  -33.5090 H   0  0  0  0  0  0  0  0  0  0  0  0
   -7.3399   19.6469  -33.4574 H   0  0  0  0  0  0  0  0  0  0  0  0
   -9.6206   19.6703  -32.4526 H   0  0  0  0  0  0  0  0  0  0  0  0
  -10.1253   21.4337  -30.7454 H   0  0  0  0  0  0  0  0  0  0  0  0
   -8.4451   23.0791  -30.0812 H   0  0  0  0  0  0  0  0  0  0  0  0
   -1.8034   24.3034  -30.0945 H   0  0  0  0  0  0  0  0  0  0  0  0
   -0.0393   24.6020  -28.3784 H   0  0  0  0  0  0  0  0  0  0  0  0
   -0.7368   24.8662  -25.9844 H   0  0  0  0  0  0  0  0  0  0  0  0
   -3.1313   24.8268  -25.3649 H   0  0  0  0  0  0  0  0  0  0  0  0
   -4.9002   24.5254  -27.1112 H   0  0  0  0  0  0  0  0  0  0  0  0
  1  2  1  0
  2  3  1  0
  3  4  1  0
  4  5  1  0
  5  6  2  0
  5  7  1  0
  7  8  1  0
  8  9  2  0
  9 10  1  0
 10 11  2  0
 11 12  1  0
 12 13  2  0
 13 14  1  0
 14 15  1  0
 15 16  2  0
 16 17  1  0
 17 18  1  0
 18 19  2  0
 19 20  1  0
 20 21  2  0
 21 22  1  0
 22 23  2  0
 17 24  1  0
 13  8  1  0
 24 14  2  0
 23 18  1  0
  1 25  1  0
  1 26  1  0
  1 27  1  0
  2 28  1  0
  2 29  1  0
  3 30  1  0
  4 31  1  0
  4 32  1  0
  7 33  1  0
  9 34  1  0
 10 35  1  0
 11 36  1  0
 12 37  1  0
 19 38  1  0
 20 39  1  0
 21 40  1  0
 22 41  1  0
 23 42  1  0
M  END
>  <smiles>  (15) 
CCNCC(=O)Nc1ccccc1-c1nnn(-c2ccccc2)n1

>  <score_type>  (15) 
oracle

>  <origin>  (15) 
adg

>  <m_score__min__energy>  (15) 
-8.9800000000000004

>  <m_primary>  (15) 
energy

$$$$
15:0
     RDKit          3D

 43 44  0  0  0  0  0  0  0  0999 V2000
   -1.1640   21.1140  -32.4790 C   0  0  0  0  0  0  0  0  0  0  0  0
   -2.5680   20.7310  -32.7610 C   0  0  0  0  0  0  0  0  0  0  0  0
   -3.5950   21.2330  -31.9570 N   0  0  0  0  0  0  0  0  0  0  0  0
   -4.7920   20.5100  -31.7860 C   0  0  0  0  0  0  0  0  0  0  0  0
   -5.4110   20.2450  -33.1480 C   0  0  0  0  0  0  0  0  0  0  0  0
   -3.6170   22.6300  -31.7020 C   0  0  0  0  0  0  0  0  0  0  0  0
   -3.3800   22.9370  -30.2700 C   0  0  0  0  0  0  0  0  0  0  0  0
   -3.0080   21.9060  -29.4290 C   0  0  0  0  0  0  0  0  0  0  0  0
   -2.7520   22.0490  -28.0940 C   0  0  0  0  0  0  0  0  0  0  0  0
   -2.8750   23.3170  -27.5490 C   0  0  0  0  0  0  0  0  0  0  0  0
   -3.2440   24.3480  -28.3730 C   0  0  0  0  0  0  0  0  0  0  0  0
   -3.5010   24.1860  -29.7320 C   0  0  0  0  0  0  0  0  0  0  0  0
   -3.8740   25.2760  -30.5290 O   0  0  0  0  0  0  0  0  0  0  0  0
   -5.2440   25.6400  -30.4700 C   0  0  0  0  0  0  0  0  0  0  0  0
   -6.1410   24.4880  -30.7140 C   0  0  0  0  0  0  0  0  0  0  0  0
   -6.6890   23.7560  -29.6830 C   0  0  0  0  0  0  0  0  0  0  0  0
   -7.5180   22.6830  -30.0120 C   0  0  0  0  0  0  0  0  0  0  0  0
   -7.7860   22.3570  -31.3300 C   0  0  0  0  0  0  0  0  0  0  0  0
   -8.8240   21.0180  -31.7770 Cl  0  0  0  0  0  0  0  0  0  0  0  0
   -7.2290   23.1020  -32.3690 C   0  0  0  0  0  0  0  0  0  0  0  0
   -6.4040   24.1700  -32.0370 C   0  0  0  0  0  0  0  0  0  0  0  0
   -1.0071   21.1568  -31.3911 H   0  0  0  0  0  0  0  0  0  0  0  0
   -0.4852   20.3682  -32.9183 H   0  0  0  0  0  0  0  0  0  0  0  0
   -0.9579   22.1012  -32.9183 H   0  0  0  0  0  0  0  0  0  0  0  0
   -2.7849   21.0484  -33.7916 H   0  0  0  0  0  0  0  0  0  0  0  0
   -2.5860   19.6503  -32.5565 H   0  0  0  0  0  0  0  0  0  0  0  0
   -4.5767   19.5537  -31.2868 H   0  0  0  0  0  0  0  0  0  0  0  0
   -5.4915   21.0917  -31.1676 H   0  0  0  0  0  0  0  0  0  0  0  0
   -6.4150   19.8152  -33.0171 H   0  0  0  0  0  0  0  0  0  0  0  0
   -5.4865   21.1897  -33.7065 H   0  0  0  0  0  0  0  0  0  0  0  0
   -4.7796   19.5383  -33.7065 H   0  0  0  0  0  0  0  0  0  0  0  0
   -2.8329   23.1132  -32.3034 H   0  0  0  0  0  0  0  0  0  0  0  0
   -4.6142   23.0089  -31.9703 H   0  0  0  0  0  0  0  0  0  0  0  0
   -2.9111   20.9003  -29.8639 H   0  0  0  0  0  0  0  0  0  0  0  0
   -2.4589   21.1885  -27.4746 H   0  0  0  0  0  0  0  0  0  0  0  0
   -2.6811   23.4919  -26.4804 H   0  0  0  0  0  0  0  0  0  0  0  0
   -3.3421   25.3540  -27.9391 H   0  0  0  0  0  0  0  0  0  0  0  0
   -5.4585   26.0506  -29.4723 H   0  0  0  0  0  0  0  0  0  0  0  0
   -5.4293   26.3844  -31.2584 H   0  0  0  0  0  0  0  0  0  0  0  0
   -6.4794   24.0097  -28.6334 H   0  0  0  0  0  0  0  0  0  0  0  0
   -7.9680   22.0836  -29.2069 H   0  0  0  0  0  0  0  0  0  0  0  0
   -7.4364   22.8518  -33.4199 H   0  0  0  0  0  0  0  0  0  0  0  0
   -5.9520   24.7733  -32.8381 H   0  0  0  0  0  0  0  0  0  0  0  0
  1  2  1  0
  2  3  1  0
  3  4  1  0
  4  5  1  0
  3  6  1  0
  6  7  1  0
  7  8  2  0
  8  9  1  0
  9 10  2  0
 10 11  1  0
 11 12  2  0
 12 13  1  0
 13 14  1  0
 14 15  1  0
 15 16  2  0
 16 17  1  0
 17 18  2  0
 18 19  1  0
 18 20  1  0
 20 21  2  0
 12  7  1  0
 21 15  1  0
  1 22  1  0
  1 23  1  0
  1 24  1  0
  2 25  1  0
  2 26  1  0
  4 27  1  0
  4 28  1  0
  5 29  1  0
  5 30  1  0
  5 31  1  0
  6 32  1  0
  6 33  1  0
  8 34  1  0
  9 35  1  0
 10 36  1  0
 11 37  1  0
 14 38  1  0
 14 39  1  0
 16 40  1  0
 17 41  1  0
 20 42  1  0
 21 43  1  0
M  END
>  <smiles>  (16) 
CCN(CC)Cc1ccccc1OCc1ccc(Cl)cc1

>  <score_type>  (16) 
oracle

>  <origin>  (16) 
adg

>  <m_score__min__energy>  (16) 
-7.5700000000000003

>  <m_primary>  (16) 
energy

$$$$
16:0
     RDKit          3D

 41 43  0  0  0  0  0  0  0  0999 V2000
   -2.6470   17.4210  -34.5640 C   0  0  0  0  0  0  0  0  0  0  0  0
   -3.8770   17.9300  -35.0310 O   0  0  0  0  0  0  0  0  0  0  0  0
   -5.0260   17.8960  -34.2630 C   0  0  0  0  0  0  0  0  0  0  0  0
   -5.7030   16.7050  -34.0900 C   0  0  0  0  0  0  0  0  0  0  0  0
   -6.8610   16.6730  -33.3130 C   0  0  0  0  0  0  0  0  0  0  0  0
   -7.2750   17.8650  -32.7500 C   0  0  0  0  0  0  0  0  0  0  0  0
   -6.5980   19.0560  -32.9240 C   0  0  0  0  0  0  0  0  0  0  0  0
   -7.1360   20.2490  -32.2740 C   0  0  0  0  0  0  0  0  0  0  0  0
   -8.5000   20.4570  -32.3460 C   0  0  0  0  0  0  0  0  0  0  0  0
   -9.0670   21.5710  -31.7460 C   0  0  0  0  0  0  0  0  0  0  0  0
   -8.2380   22.4760  -31.0690 C   0  0  0  0  0  0  0  0  0  0  0  0
   -6.8690   22.2700  -30.9960 C   0  0  0  0  0  0  0  0  0  0  0  0
   -6.0100   23.2660  -30.2620 C   0  0  0  0  0  0  0  0  0  0  0  0
   -6.3580   24.6290  -30.7540 C   0  0  0  0  0  0  0  0  0  0  0  0
   -5.3460   25.6830  -30.5760 C   0  0  0  0  0  0  0  0  0  0  0  0
   -3.9940   25.3510  -30.4550 N   0  0  0  0  0  0  0  0  0  0  0  0
   -3.6250   24.0100  -30.1950 C   0  0  0  0  0  0  0  0  0  0  0  0
   -4.5990   22.9690  -30.6510 C   0  0  0  0  0  0  0  0  0  0  0  0
   -6.3050   21.1520  -31.6000 C   0  0  0  0  0  0  0  0  0  0  0  0
   -5.4490   19.0830  -33.6950 C   0  0  0  0  0  0  0  0  0  0  0  0
   -2.6445   17.4200  -33.4640 H   0  0  0  0  0  0  0  0  0  0  0  0
   -2.5121   16.3932  -34.9319 H   0  0  0  0  0  0  0  0  0  0  0  0
   -1.8253   18.0530  -34.9319 H   0  0  0  0  0  0  0  0  0  0  0  0
   -5.3304   15.7846  -34.5633 H   0  0  0  0  0  0  0  0  0  0  0  0
   -7.4205   15.7391  -33.1553 H   0  0  0  0  0  0  0  0  0  0  0  0
   -8.1866   17.8653  -32.1343 H   0  0  0  0  0  0  0  0  0  0  0  0
   -9.1375   19.7373  -32.8805 H   0  0  0  0  0  0  0  0  0  0  0  0
  -10.1522   21.7421  -31.8005 H   0  0  0  0  0  0  0  0  0  0  0  0
   -8.6797   23.3618  -30.5891 H   0  0  0  0  0  0  0  0  0  0  0  0
   -6.1525   23.2110  -29.1727 H   0  0  0  0  0  0  0  0  0  0  0  0
   -6.5681   24.5493  -31.8308 H   0  0  0  0  0  0  0  0  0  0  0  0
   -7.2116   24.9458  -30.1368 H   0  0  0  0  0  0  0  0  0  0  0  0
   -5.4304   26.3518  -31.4452 H   0  0  0  0  0  0  0  0  0  0  0  0
   -5.5899   26.0976  -29.5868 H   0  0  0  0  0  0  0  0  0  0  0  0
   -3.4930   25.9730  -29.7610 H   0  0  0  0  0  0  0  0  0  0  0  0
   -2.6660   23.8195  -30.6990 H   0  0  0  0  0  0  0  0  0  0  0  0
   -3.5790   23.9185  -29.0998 H   0  0  0  0  0  0  0  0  0  0  0  0
   -4.5469   22.8993  -31.7476 H   0  0  0  0  0  0  0  0  0  0  0  0
   -4.3188   22.0251  -30.1606 H   0  0  0  0  0  0  0  0  0  0  0  0
   -5.2199   20.9791  -31.5490 H   0  0  0  0  0  0  0  0  0  0  0  0
   -4.8909   20.0181  -33.8506 H   0  0  0  0  0  0  0  0  0  0  0  0
  1  2  1  0
  2  3  1  0
  3  4  2  0
  4  5  1  0
  5  6  2  0
  6  7  1  0
  7  8  1  0
  8  9  2  0
  9 10  1  0
 10 11  2  0
 11 12  1  0
 12 13  1  0
 13 14  1  0
 14 15  1  0
 15 16  1  0
 16 17  1  0
 17 18  1  0
 12 19  2  0
  7 20  2  0
 20  3  1  0
 19  8  1  0
 18 13  1  0
  1 21  1  0
  1 22  1  0
  1 23  1  0
  4 24  1  0
  5 25  1  0
  6 26  1  0
  9 27  1  0
 10 28  1  0
 11 29  1  0
 13 30  1  0
 14 31  1  0
 14 32  1  0
 15 33  1  0
 15 34  1  0
 16 35  1  0
 17 36  1  0
 17 37  1  0
 18 38  1  0
 18 39  1  0
 19 40  1  0
 20 41  1  0
M  END
>  <smiles>  (17) 
COc1cccc(-c2cccc(C3CCNCC3)c2)c1

>  <score_type>  (17) 
oracle

>  <origin>  (17) 
adg

>  <m_score__min__energy>  (17) 
-9.2100000000000009

>  <m_primary>  (17) 
energy

$$$$
17:0
     RDKit          3D

 48 50  0  0  1  0  0  0  0  0999 V2000
   -6.5130   25.1480  -29.6670 C   0  0  0  0  0  0  0  0  0  0  0  0
   -5.3770   25.6500  -30.4970 C   0  0  0  0  0  0  0  0  0  0  0  0
   -4.5640   24.6330  -31.0410 O   0  0  0  0  0  0  0  0  0  0  0  0
   -4.0530   23.6860  -30.1870 C   0  0  0  0  0  0  0  0  0  0  0  0
   -3.5590   24.0110  -28.9200 C   0  0  0  0  0  0  0  0  0  0  0  0
   -3.0470   23.0580  -28.0670 C   0  0  0  0  0  0  0  0  0  0  0  0
   -3.0100   21.7320  -28.4500 C   0  0  0  0  0  0  0  0  0  0  0  0
   -3.4910   21.3830  -29.6940 C   0  0  0  0  0  0  0  0  0  0  0  0
   -4.0060   22.3700  -30.5430 C   0  0  0  0  0  0  0  0  0  0  0  0
   -4.4950   21.8600  -31.8710 C   0  0  0  0  0  0  0  0  0  0  0  0
   -5.6420   21.0790  -31.7830 N   0  0  0  0  0  0  0  0  0  0  0  0
   -6.8320   21.4680  -31.8270 C   0  0  0  0  0  0  0  0  0  0  0  0
   -7.0490   22.8160  -31.7930 N   0  0  0  0  0  0  0  0  0  0  0  0
   -8.2870   23.3360  -31.8550 C   0  0  0  0  0  0  0  0  0  0  0  0
   -9.3640   22.4840  -31.9570 C   0  0  0  0  0  0  0  0  0  0  0  0
   -9.1510   21.1190  -31.9910 C   0  0  0  0  0  0  0  0  0  0  0  0
   -7.8550   20.5850  -31.9240 C   0  0  0  0  0  0  0  0  0  0  0  0
   -7.7670   19.1440  -31.9190 C   0  0  0  0  0  0  0  0  0  0  0  0
   -8.3180   18.4520  -31.0290 O   0  0  0  0  0  0  0  0  0  0  0  0
   -7.0040   18.5060  -32.9790 N   0  0  0  0  0  0  0  0  0  0  0  0
   -6.8610   17.0660  -33.0390 C   0  0  0  0  0  0  0  0  0  0  0  0
   -5.4750   16.6860  -33.5280 C   0  0  0  0  0  0  0  0  0  0  0  0
   -5.0920   17.4280  -34.6580 O   0  0  0  0  0  0  0  0  0  0  0  0
   -4.9520   18.7450  -34.2330 C   0  0  0  0  0  0  0  0  0  0  0  0
   -6.3630   19.2910  -34.0100 C   0  0  0  0  0  0  0  0  0  0  0  0
   -6.2648   25.2577  -28.6010 H   0  0  0  0  0  0  0  0  0  0  0  0
   -7.4184   25.7298  -29.8944 H   0  0  0  0  0  0  0  0  0  0  0  0
   -6.6924   24.0868  -29.8944 H   0  0  0  0  0  0  0  0  0  0  0  0
   -5.7912   26.2414  -31.3269 H   0  0  0  0  0  0  0  0  0  0  0  0
   -4.7357   26.2436  -29.8289 H   0  0  0  0  0  0  0  0  0  0  0  0
   -3.5798   25.0613  -28.5938 H   0  0  0  0  0  0  0  0  0  0  0  0
   -2.6667   23.3543  -27.0783 H   0  0  0  0  0  0  0  0  0  0  0  0
   -2.6032   20.9661  -27.7733 H   0  0  0  0  0  0  0  0  0  0  0  0
   -3.4702   20.3322  -30.0186 H   0  0  0  0  0  0  0  0  0  0  0  0
   -4.7122   22.7242  -32.5160 H   0  0  0  0  0  0  0  0  0  0  0  0
   -3.7007   21.2187  -32.2808 H   0  0  0  0  0  0  0  0  0  0  0  0
   -6.2620   23.5000  -31.7140 H   0  0  0  0  0  0  0  0  0  0  0  0
   -8.4374   24.4252  -31.8247 H   0  0  0  0  0  0  0  0  0  0  0  0
  -10.3861   22.8869  -32.0110 H   0  0  0  0  0  0  0  0  0  0  0  0
  -10.0121   20.4394  -32.0720 H   0  0  0  0  0  0  0  0  0  0  0  0
   -7.0180   16.6451  -32.0349 H   0  0  0  0  0  0  0  0  0  0  0  0
   -7.6068   16.6648  -33.7410 H   0  0  0  0  0  0  0  0  0  0  0  0
   -4.7510   16.8701  -32.7206 H   0  0  0  0  0  0  0  0  0  0  0  0
   -5.4949   15.6232  -33.8111 H   0  0  0  0  0  0  0  0  0  0  0  0
   -4.3795   18.7810  -33.2944 H   0  0  0  0  0  0  0  0  0  0  0  0
   -4.4107   19.3447  -34.9796 H   0  0  0  0  0  0  0  0  0  0  0  0
   -6.3075   20.3432  -33.6940 H   0  0  0  0  0  0  0  0  0  0  0  0
   -6.9416   19.2293  -34.9435 H   0  0  0  0  0  0  0  0  0  0  0  0
  1  2  1  0
  2  3  1  0
  3  4  1  0
  4  5  2  0
  5  6  1  0
  6  7  2  0
  7  8  1  0
  8  9  2  0
  9 10  1  0
 10 11  1  0
 11 12  2  0
 12 13  1  0
 13 14  1  0
 14 15  2  0
 15 16  1  0
 16 17  2  0
 17 18  1  0
 18 19  2  0
 18 20  1  0
 20 21  1  0
 21 22  1  0
 22 23  1  0
 23 24  1  0
 24 25  1  0
  9  4  1  0
 17 12  1  0
 25 20  1  0
  1 26  1  0
  1 27  1  0
  1 28  1  0
  2 29  1  0
  2 30  1  0
  5 31  1  0
  6 32  1  0
  7 33  1  0
  8 34  1  0
 10 35  1  0
 10 36  1  0
 13 37  1  0
 14 38  1  0
 15 39  1  0
 16 40  1  0
 21 41  1  0
 21 42  1  0
 22 43  1  0
 22 44  1  0
 24 45  1  0
 24 46  1  0
 25 47  1  0
 25 48  1  0
M  END
>  <smiles>  (18) 
CCOc1ccccc1CN=c1[nH]cccc1C(=O)N1CCOCC1

>  <score_type>  (18) 
oracle

>  <origin>  (18) 
adg

>  <m_score__min__energy>  (18) 
-8.0099999999999998

>  <m_primary>  (18) 
energy

$$$$
18:0
     RDKit          3D

 74 78  0  0  1  0  0  0  0  0999 V2000
   -6.3010   15.2880  -34.1910 C   0  0  0  0  0  0  0  0  0  0  0  0
   -5.1630   14.4170  -34.2250 N   0  0  0  0  0  0  0  0  0  0  0  0
   -4.8740   13.8810  -32.8970 C   0  0  0  0  0  0  0  0  0  0  0  0
   -3.9800   15.0230  -34.7320 C   0  0  0  0  0  0  0  0  0  0  0  0
   -4.2370   16.4590  -35.0840 C   0  0  0  0  0  0  0  0  0  0  0  0
   -3.7520   17.3400  -34.1000 N   0  0  0  0  0  0  0  0  0  0  0  0
   -3.6490   16.9580  -32.7670 C   0  0  0  0  0  0  0  0  0  0  0  0
   -3.1730   18.5360  -34.5600 C   0  0  0  0  0  0  0  0  0  0  0  0
   -3.0540   19.5640  -33.5190 C   0  0  0  0  0  0  0  0  0  0  0  0
   -1.8490   19.7850  -32.8400 C   0  0  0  0  0  0  0  0  0  0  0  0
   -1.7450   20.7420  -31.8670 C   0  0  0  0  0  0  0  0  0  0  0  0
   -2.7990   21.5360  -31.4980 C   0  0  0  0  0  0  0  0  0  0  0  0
   -2.5880   22.5170  -30.4540 C   0  0  0  0  0  0  0  0  0  0  0  0
   -1.3970   22.5310  -29.7420 C   0  0  0  0  0  0  0  0  0  0  0  0
   -1.1380   23.4520  -28.7420 C   0  0  0  0  0  0  0  0  0  0  0  0
   -2.0880   24.4140  -28.4170 C   0  0  0  0  0  0  0  0  0  0  0  0
   -1.7840   25.3300  -27.3860 N   0  0  0  0  0  0  0  0  0  0  0  0
   -2.5770   25.3450  -26.1690 C   0  0  0  0  0  0  0  0  0  0  0  0
   -1.9730   26.3880  -25.2520 C   0  0  0  0  0  0  0  0  0  0  0  0
   -0.6080   25.9800  -25.0080 N   0  0  0  0  0  0  0  0  0  0  0  0
   -0.0580   26.6650  -23.8750 C   0  0  0  0  0  0  0  0  0  0  0  0
    0.1900   26.1610  -26.2130 C   0  0  0  0  0  0  0  0  0  0  0  0
   -0.6860   26.2870  -27.4470 C   0  0  0  0  0  0  0  0  0  0  0  0
   -3.2570   24.3850  -29.1280 C   0  0  0  0  0  0  0  0  0  0  0  0
   -3.5210   23.4640  -30.1300 C   0  0  0  0  0  0  0  0  0  0  0  0
   -3.9980   21.3400  -32.1500 C   0  0  0  0  0  0  0  0  0  0  0  0
   -4.1360   20.3740  -33.1440 C   0  0  0  0  0  0  0  0  0  0  0  0
   -5.3520   20.1580  -33.8390 N   0  0  0  0  0  0  0  0  0  0  0  0
   -6.3640   19.6770  -33.2200 C   0  0  0  0  0  0  0  0  0  0  0  0
   -6.5230   18.3160  -33.2690 N   0  0  0  0  0  0  0  0  0  0  0  0
   -7.5930   17.8490  -32.6070 C   0  0  0  0  0  0  0  0  0  0  0  0
   -8.4780   18.5710  -31.9350 N   0  0  0  0  0  0  0  0  0  0  0  0
   -8.3560   19.9500  -31.8590 C   0  0  0  0  0  0  0  0  0  0  0  0
   -9.1660   20.7900  -31.2250 C   0  0  0  0  0  0  0  0  0  0  0  0
   -8.8300   22.1550  -31.2960 C   0  0  0  0  0  0  0  0  0  0  0  0
   -7.2990   22.2110  -32.3120 S   0  0  0  0  0  0  0  0  0  0  0  0
   -7.2580   20.4330  -32.5370 C   0  0  0  0  0  0  0  0  0  0  0  0
   -6.5726   15.4958  -33.1455 H   0  0  0  0  0  0  0  0  0  0  0  0
   -6.0560   16.2315  -34.7007 H   0  0  0  0  0  0  0  0  0  0  0  0
   -7.1477   14.8051  -34.7007 H   0  0  0  0  0  0  0  0  0  0  0  0
   -5.2489   14.5763  -32.1314 H   0  0  0  0  0  0  0  0  0  0  0  0
   -5.3683   12.9053  -32.7798 H   0  0  0  0  0  0  0  0  0  0  0  0
   -3.7872   13.7578  -32.7798 H   0  0  0  0  0  0  0  0  0  0  0  0
   -3.1909   14.9730  -33.9673 H   0  0  0  0  0  0  0  0  0  0  0  0
   -3.6636   14.4849  -35.6377 H   0  0  0  0  0  0  0  0  0  0  0  0
   -3.7393   16.6848  -36.0386 H   0  0  0  0  0  0  0  0  0  0  0  0
   -5.3254   16.6001  -35.1583 H   0  0  0  0  0  0  0  0  0  0  0  0
   -3.8807   17.8172  -32.1204 H   0  0  0  0  0  0  0  0  0  0  0  0
   -4.3596   16.1435  -32.5630 H   0  0  0  0  0  0  0  0  0  0  0  0
   -2.6252   16.6111  -32.5630 H   0  0  0  0  0  0  0  0  0  0  0  0
   -2.1673   18.3112  -34.9446 H   0  0  0  0  0  0  0  0  0  0  0  0
   -3.8359   18.9388  -35.3400 H   0  0  0  0  0  0  0  0  0  0  0  0
   -0.9682   19.1770  -33.0939 H   0  0  0  0  0  0  0  0  0  0  0  0
   -0.7776   20.8790  -31.3616 H   0  0  0  0  0  0  0  0  0  0  0  0
   -0.6289   21.7809  -29.9817 H   0  0  0  0  0  0  0  0  0  0  0  0
   -0.1793   23.4230  -28.2035 H   0  0  0  0  0  0  0  0  0  0  0  0
   -3.6196   25.6069  -26.4021 H   0  0  0  0  0  0  0  0  0  0  0  0
   -2.5736   24.3551  -25.6892 H   0  0  0  0  0  0  0  0  0  0  0  0
   -1.9936   27.3761  -25.7349 H   0  0  0  0  0  0  0  0  0  0  0  0
   -2.5386   26.4661  -24.3118 H   0  0  0  0  0  0  0  0  0  0  0  0
   -0.4305   26.2011  -22.9498 H   0  0  0  0  0  0  0  0  0  0  0  0
    1.0396   26.5974  -23.9030 H   0  0  0  0  0  0  0  0  0  0  0  0
   -0.3611   27.7220  -23.9030 H   0  0  0  0  0  0  0  0  0  0  0  0
    0.7934   27.0747  -26.1082 H   0  0  0  0  0  0  0  0  0  0  0  0
    0.8345   25.2781  -26.3360 H   0  0  0  0  0  0  0  0  0  0  0  0
   -1.0954   27.3066  -27.4991 H   0  0  0  0  0  0  0  0  0  0  0  0
   -0.0788   26.0794  -28.3404 H   0  0  0  0  0  0  0  0  0  0  0  0
   -4.0286   25.1326  -28.8918 H   0  0  0  0  0  0  0  0  0  0  0  0
   -4.4816   23.4946  -30.6652 H   0  0  0  0  0  0  0  0  0  0  0  0
   -4.8650   21.9604  -31.8791 H   0  0  0  0  0  0  0  0  0  0  0  0
   -5.8770   17.7030  -33.7700 H   0  0  0  0  0  0  0  0  0  0  0  0
   -7.7508   16.7605  -32.6239 H   0  0  0  0  0  0  0  0  0  0  0  0
  -10.0510   20.4383  -30.6745 H   0  0  0  0  0  0  0  0  0  0  0  0
   -9.3658   23.0022  -30.8430 H   0  0  0  0  0  0  0  0  0  0  0  0
  1  2  1  0
  2  3  1  0
  2  4  1  0
  4  5  1  0
  5  6  1  0
  6  7  1  0
  6  8  1  0
  8  9  1  0
  9 10  2  0
 10 11  1  0
 11 12  2  0
 12 13  1  0
 13 14  2  0
 14 15  1  0
 15 16  2  0
 16 17  1  0
 17 18  1  0
 18 19  1  0
 19 20  1  0
 20 21  1  0
 20 22  1  0
 22 23  1  0
 16 24  1  0
 24 25  2  0
 12 26  1  0
 26 27  2  0
 27 28  1  0
 28 29  2  0
 29 30  1  0
 30 31  1  0
 31 32  2  0
 32 33  1  0
 33 34  1  0
 34 35  2  0
 35 36  1  0
 36 37  1  0
 27  9  1  0
 37 29  1  0
 25 13  1  0
 37 33  2  0
 23 17  1  0
  1 38  1  0
  1 39  1  0
  1 40  1  0
  3 41  1  0
  3 42  1  0
  3 43  1  0
  4 44  1  0
  4 45  1  0
  5 46  1  0
  5 47  1  0
  7 48  1  0
  7 49  1  0
  7 50  1  0
  8 51  1  0
  8 52  1  0
 10 53  1  0
 11 54  1  0
 14 55  1  0
 15 56  1  0
 18 57  1  0
 18 58  1  0
 19 59  1  0
 19 60  1  0
 21 61  1  0
 21 62  1  0
 21 63  1  0
 22 64  1  0
 22 65  1  0
 23 66  1  0
 23 67  1  0
 24 68  1  0
 25 69  1  0
 26 70  1  0
 30 71  1  0
 31 72  1  0
 34 73  1  0
 35 74  1  0
M  END
>  <smiles>  (19) 
CN(C)CCN(C)Cc1ccc(-c2ccc(N3CCN(C)CC3)cc2)cc1N=c1[nH]cnc2ccsc12

>  <score_type>  (19) 
oracle

>  <origin>  (19) 
adg

>  <m_score__min__energy>  (19) 
-9.1999999999999993

>  <m_primary>  (19) 
energy

$$$$
19:0
     RDKit          3D

 44 46  0  0  1  0  0  0  0  0999 V2000
   -4.2380   22.2990  -28.0510 C   0  0  0  0  0  0  0  0  0  0  0  0
   -3.9570   22.5840  -29.4240 N   0  0  0  0  0  0  0  0  0  0  0  0
   -2.7150   23.2590  -29.6750 C   0  0  0  0  0  0  0  0  0  0  0  0
   -2.8530   24.7130  -29.3680 C   0  0  0  0  0  0  0  0  0  0  0  0
   -3.8140   25.2710  -30.3310 N   0  0  0  0  0  0  0  0  0  0  0  0
   -5.0930   24.6610  -30.0510 C   0  0  0  0  0  0  0  0  0  0  0  0
   -5.0770   23.1750  -30.1300 C   0  0  1  0  0  0  0  0  0  0  0  0
   -5.1500   22.6110  -31.5260 C   0  0  0  0  0  0  0  0  0  0  0  0
   -5.6610   21.2380  -31.6200 C   0  0  0  0  0  0  0  0  0  0  0  0
   -7.1140   21.1100  -31.8620 C   0  0  0  0  0  0  0  0  0  0  0  0
   -7.9620   22.0980  -31.3900 C   0  0  0  0  0  0  0  0  0  0  0  0
   -9.3330   22.0210  -31.5920 C   0  0  0  0  0  0  0  0  0  0  0  0
   -9.8450   20.9760  -32.2560 N   0  0  0  0  0  0  0  0  0  0  0  0
   -9.0200   20.0260  -32.7090 C   0  0  0  0  0  0  0  0  0  0  0  0
   -7.6570   20.0370  -32.5450 C   0  0  0  0  0  0  0  0  0  0  0  0
   -6.7820   18.9710  -33.0600 C   0  0  0  0  0  0  0  0  0  0  0  0
   -6.1120   19.1010  -34.2560 C   0  0  0  0  0  0  0  0  0  0  0  0
   -5.3030   18.0440  -34.6720 C   0  0  0  0  0  0  0  0  0  0  0  0
   -5.2190   16.9170  -33.8560 C   0  0  0  0  0  0  0  0  0  0  0  0
   -4.4300   15.8640  -34.2400 F   0  0  0  0  0  0  0  0  0  0  0  0
   -5.8850   16.7950  -32.6760 C   0  0  0  0  0  0  0  0  0  0  0  0
   -6.6860   17.8410  -32.2610 C   0  0  0  0  0  0  0  0  0  0  0  0
   -7.3680   17.7520  -31.0840 F   0  0  0  0  0  0  0  0  0  0  0  0
   -3.6110   22.9349  -27.4088 H   0  0  0  0  0  0  0  0  0  0  0  0
   -5.2991   22.5020  -27.8441 H   0  0  0  0  0  0  0  0  0  0  0  0
   -4.0200   21.2409  -27.8441 H   0  0  0  0  0  0  0  0  0  0  0  0
   -1.9296   22.8253  -29.0386 H   0  0  0  0  0  0  0  0  0  0  0  0
   -2.4459   23.1377  -30.7347 H   0  0  0  0  0  0  0  0  0  0  0  0
   -3.2260   24.8479  -28.3420 H   0  0  0  0  0  0  0  0  0  0  0  0
   -1.8813   25.2226  -29.4459 H   0  0  0  0  0  0  0  0  0  0  0  0
   -3.5270   24.9260  -31.2720 H   0  0  0  0  0  0  0  0  0  0  0  0
   -5.4016   24.9515  -29.0359 H   0  0  0  0  0  0  0  0  0  0  0  0
   -5.7941   25.0164  -30.8206 H   0  0  0  0  0  0  0  0  0  0  0  0
   -6.0116   22.8910  -29.6242 H   0  0  0  0  0  0  0  0  0  0  0  0
   -5.8085   23.2606  -32.1214 H   0  0  0  0  0  0  0  0  0  0  0  0
   -4.1146   22.5771  -31.8958 H   0  0  0  0  0  0  0  0  0  0  0  0
   -5.1353   20.7376  -32.4466 H   0  0  0  0  0  0  0  0  0  0  0  0
   -5.4797   20.7824  -30.6353 H   0  0  0  0  0  0  0  0  0  0  0  0
   -7.5423   22.9573  -30.8464 H   0  0  0  0  0  0  0  0  0  0  0  0
   -9.9945   22.8123  -31.2096 H   0  0  0  0  0  0  0  0  0  0  0  0
   -9.4640   19.1775  -33.2502 H   0  0  0  0  0  0  0  0  0  0  0  0
   -6.2119   20.0115  -34.8651 H   0  0  0  0  0  0  0  0  0  0  0  0
   -4.7459   18.0982  -35.6190 H   0  0  0  0  0  0  0  0  0  0  0  0
   -5.7879   15.8845  -32.0665 H   0  0  0  0  0  0  0  0  0  0  0  0
  1  2  1  0
  2  3  1  0
  3  4  1  0
  4  5  1  0
  5  6  1  0
  6  7  1  0
  7  8  1  0
  8  9  1  0
  9 10  1  0
 10 11  2  0
 11 12  1  0
 12 13  2  0
 13 14  1  0
 14 15  2  0
 15 16  1  0
 16 17  2  0
 17 18  1  0
 18 19  2  0
 19 20  1  0
 19 21  1  0
 21 22  2  0
 22 23  1  0
  7  2  1  0
 15 10  1  0
 22 16  1  0
  1 24  1  0
  1 25  1  0
  1 26  1  0
  3 27  1  0
  3 28  1  0
  4 29  1  0
  4 30  1  0
  5 31  1  0
  6 32  1  0
  6 33  1  0
  7 34  1  1
  8 35  1  0
  8 36  1  0
  9 37  1  0
  9 38  1  0
 11 39  1  0
 12 40  1  0
 14 41  1  0
 17 42  1  0
 18 43  1  0
 21 44  1  0
M  END
>  <smiles>  (20) 
CN1CCNCC1CCc1ccncc1-c1ccc(F)cc1F

>  <score_type>  (20) 
oracle

>  <origin>  (20) 
adg

>  <m_score__min__energy>  (20) 
-8.6600000000000001

>  <m_primary>  (20) 
energy

$$$$
20:0
     RDKit          3D

 45 48  0  0  0  0  0  0  0  0999 V2000
   -1.1880   25.4290  -25.2090 C   0  0  0  0  0  0  0  0  0  0  0  0
   -1.9570   25.1160  -26.4330 C   0  0  0  0  0  0  0  0  0  0  0  0
   -3.3010   24.8120  -26.4390 C   0  0  0  0  0  0  0  0  0  0  0  0
   -3.9490   24.5290  -27.6450 C   0  0  0  0  0  0  0  0  0  0  0  0
   -3.2680   24.5460  -28.8440 C   0  0  0  0  0  0  0  0  0  0  0  0
   -3.8780   24.2640  -30.1290 C   0  0  0  0  0  0  0  0  0  0  0  0
   -4.1700   25.2760  -30.8470 O   0  0  0  0  0  0  0  0  0  0  0  0
   -4.1480   22.9270  -30.5840 N   0  0  0  0  0  0  0  0  0  0  0  0
   -3.8240   21.7620  -29.7780 C   0  0  0  0  0  0  0  0  0  0  0  0
   -2.9470   20.8770  -30.6240 C   0  0  0  0  0  0  0  0  0  0  0  0
   -3.6870   20.4890  -31.8610 C   0  0  0  0  0  0  0  0  0  0  0  0
   -4.1160   21.6680  -32.6940 C   0  0  0  0  0  0  0  0  0  0  0  0
   -4.7580   22.7580  -31.8760 C   0  0  0  0  0  0  0  0  0  0  0  0
   -2.7570   19.7280  -32.7010 N   0  0  0  0  0  0  0  0  0  0  0  0
   -3.2770   18.7890  -33.6420 C   0  0  0  0  0  0  0  0  0  0  0  0
   -2.5900   18.3660  -34.6110 O   0  0  0  0  0  0  0  0  0  0  0  0
   -4.6540   18.3150  -33.4550 C   0  0  0  0  0  0  0  0  0  0  0  0
   -5.2020   17.3960  -34.3520 C   0  0  0  0  0  0  0  0  0  0  0  0
   -6.4940   16.9340  -34.2010 C   0  0  0  0  0  0  0  0  0  0  0  0
   -7.2210   17.4130  -33.1330 C   0  0  0  0  0  0  0  0  0  0  0  0
   -6.6840   18.3260  -32.2360 C   0  0  0  0  0  0  0  0  0  0  0  0
   -5.3940   18.7950  -32.3770 C   0  0  0  0  0  0  0  0  0  0  0  0
   -4.8080   19.7060  -31.5130 O   0  0  0  0  0  0  0  0  0  0  0  0
   -1.9020   24.8550  -28.8470 C   0  0  0  0  0  0  0  0  0  0  0  0
   -1.2730   25.1350  -27.6310 C   0  0  0  0  0  0  0  0  0  0  0  0
   -1.7923   25.1830  -24.3234 H   0  0  0  0  0  0  0  0  0  0  0  0
   -0.2613   24.8365  -25.1966 H   0  0  0  0  0  0  0  0  0  0  0  0
   -0.9385   26.5003  -25.1966 H   0  0  0  0  0  0  0  0  0  0  0  0
   -3.8643   24.7920  -25.4944 H   0  0  0  0  0  0  0  0  0  0  0  0
   -5.0223   24.2882  -27.6374 H   0  0  0  0  0  0  0  0  0  0  0  0
   -3.2871   22.0685  -28.8682 H   0  0  0  0  0  0  0  0  0  0  0  0
   -4.7361   21.2317  -29.4667 H   0  0  0  0  0  0  0  0  0  0  0  0
   -2.0314   21.4212  -30.8987 H   0  0  0  0  0  0  0  0  0  0  0  0
   -2.6773   19.9740  -30.0567 H   0  0  0  0  0  0  0  0  0  0  0  0
   -3.2308   22.0824  -33.1987 H   0  0  0  0  0  0  0  0  0  0  0  0
   -4.8659   21.3092  -33.4144 H   0  0  0  0  0  0  0  0  0  0  0  0
   -4.6755   23.7054  -32.4288 H   0  0  0  0  0  0  0  0  0  0  0  0
   -5.8061   22.4689  -31.7089 H   0  0  0  0  0  0  0  0  0  0  0  0
   -1.7130   19.8650  -32.6190 H   0  0  0  0  0  0  0  0  0  0  0  0
   -4.5935   17.0338  -35.1938 H   0  0  0  0  0  0  0  0  0  0  0  0
   -6.9271   16.2103  -34.9071 H   0  0  0  0  0  0  0  0  0  0  0  0
   -8.2536   17.0628  -32.9875 H   0  0  0  0  0  0  0  0  0  0  0  0
   -7.2988   18.6826  -31.3964 H   0  0  0  0  0  0  0  0  0  0  0  0
   -1.3347   24.8769  -29.7892 H   0  0  0  0  0  0  0  0  0  0  0  0
   -0.2002   25.3779  -27.6289 H   0  0  0  0  0  0  0  0  0  0  0  0
  1  2  1  0
  2  3  2  0
  3  4  1  0
  4  5  2  0
  5  6  1  0
  6  7  2  0
  6  8  1  0
  8  9  1  0
  9 10  1  0
 10 11  1  0
 11 12  1  0
 12 13  1  0
 11 14  1  0
 14 15  1  0
 15 16  2  0
 15 17  1  0
 17 18  2  0
 18 19  1  0
 19 20  2  0
 20 21  1  0
 21 22  2  0
 22 23  1  0
  5 24  1  0
 24 25  2  0
 25  2  1  0
 13  8  1  0
 22 17  1  0
 23 11  1  0
  1 26  1  0
  1 27  1  0
  1 28  1  0
  3 29  1  0
  4 30  1  0
  9 31  1  0
  9 32  1  0
 10 33  1  0
 10 34  1  0
 12 35  1  0
 12 36  1  0
 13 37  1  0
 13 38  1  0
 14 39  1  0
 18 40  1  0
 19 41  1  0
 20 42  1  0
 21 43  1  0
 24 44  1  0
 25 45  1  0
M  END
>  <smiles>  (21) 
Cc1ccc(C(=O)N2CCC3(CC2)NC(=O)c2ccccc2O3)cc1

>  <score_type>  (21) 
oracle

>  <origin>  (21) 
adg

>  <m_score__min__energy>  (21) 
-8.4399999999999995

>  <m_primary>  (21) 
energy

$$$$
21:0
     RDKit          3D

 64 67  0  0  0  0  0  0  0  0999 V2000
   -5.8820   19.0080  -33.7910 C   0  0  0  0  0  0  0  0  0  0  0  0
   -5.7870   20.4010  -33.8340 O   0  0  0  0  0  0  0  0  0  0  0  0
   -4.9980   21.0740  -32.9100 C   0  0  0  0  0  0  0  0  0  0  0  0
   -3.6100   21.0750  -32.9800 C   0  0  0  0  0  0  0  0  0  0  0  0
   -2.8650   21.7590  -32.0380 C   0  0  0  0  0  0  0  0  0  0  0  0
   -1.4950   21.7600  -32.1070 O   0  0  0  0  0  0  0  0  0  0  0  0
   -0.6690   20.6470  -31.8640 C   0  0  0  0  0  0  0  0  0  0  0  0
   -3.4580   22.4610  -31.0020 C   0  0  0  0  0  0  0  0  0  0  0  0
   -2.7320   23.1500  -30.0530 C   0  0  0  0  0  0  0  0  0  0  0  0
   -3.3680   23.8380  -29.0350 C   0  0  0  0  0  0  0  0  0  0  0  0
   -2.6800   24.5780  -28.0050 C   0  0  0  0  0  0  0  0  0  0  0  0
   -3.2200   24.8880  -26.7730 C   0  0  0  0  0  0  0  0  0  0  0  0
   -2.4800   25.6110  -25.8320 C   0  0  0  0  0  0  0  0  0  0  0  0
   -1.1960   26.0410  -26.0890 C   0  0  0  0  0  0  0  0  0  0  0  0
   -0.4930   26.7680  -25.1090 N   0  0  0  0  0  0  0  0  0  0  0  0
   -0.8540   26.5240  -23.7070 C   0  0  0  0  0  0  0  0  0  0  0  0
    0.5410   27.7210  -25.3580 C   0  0  0  0  0  0  0  0  0  0  0  0
    0.1000   29.0960  -24.8430 C   0  0  0  0  0  0  0  0  0  0  0  0
   -0.9790   29.6190  -25.6780 N   0  0  0  0  0  0  0  0  0  0  0  0
   -0.4700   29.8150  -27.0040 C   0  0  0  0  0  0  0  0  0  0  0  0
   -1.5030   30.8690  -25.1820 C   0  0  0  0  0  0  0  0  0  0  0  0
   -0.6590   25.7300  -27.3210 C   0  0  0  0  0  0  0  0  0  0  0  0
   -1.3870   25.0150  -28.2560 C   0  0  0  0  0  0  0  0  0  0  0  0
   -4.7590   23.8050  -29.0110 C   0  0  0  0  0  0  0  0  0  0  0  0
   -5.4940   23.1220  -29.9530 C   0  0  0  0  0  0  0  0  0  0  0  0
   -4.8390   22.4420  -30.9590 C   0  0  0  0  0  0  0  0  0  0  0  0
   -5.6130   21.7680  -31.8860 C   0  0  0  0  0  0  0  0  0  0  0  0
   -7.0590   21.7970  -31.7700 C   0  0  0  0  0  0  0  0  0  0  0  0
   -7.7220   22.9630  -32.0900 C   0  0  0  0  0  0  0  0  0  0  0  0
   -9.0940   22.9810  -31.9760 C   0  0  0  0  0  0  0  0  0  0  0  0
   -9.7640   21.9000  -31.5680 N   0  0  0  0  0  0  0  0  0  0  0  0
   -9.1140   20.7780  -31.2610 C   0  0  0  0  0  0  0  0  0  0  0  0
   -7.7250   20.6530  -31.3410 C   0  0  0  0  0  0  0  0  0  0  0  0
   -5.9048   18.6742  -32.7431 H   0  0  0  0  0  0  0  0  0  0  0  0
   -6.8041   18.6875  -34.2980 H   0  0  0  0  0  0  0  0  0  0  0  0
   -5.0120   18.5653  -34.2980 H   0  0  0  0  0  0  0  0  0  0  0  0
   -3.1021   20.5290  -33.7887 H   0  0  0  0  0  0  0  0  0  0  0  0
   -0.5605   20.5008  -30.7792 H   0  0  0  0  0  0  0  0  0  0  0  0
   -1.1216   19.7498  -32.3114 H   0  0  0  0  0  0  0  0  0  0  0  0
    0.3208   20.8203  -32.3114 H   0  0  0  0  0  0  0  0  0  0  0  0
   -1.6333   23.1525  -30.1062 H   0  0  0  0  0  0  0  0  0  0  0  0
   -4.2423   24.5632  -26.5291 H   0  0  0  0  0  0  0  0  0  0  0  0
   -2.9360   25.8433  -24.8583 H   0  0  0  0  0  0  0  0  0  0  0  0
   -0.1236   27.0177  -23.0491 H   0  0  0  0  0  0  0  0  0  0  0  0
   -1.8574   26.9299  -23.5107 H   0  0  0  0  0  0  0  0  0  0  0  0
   -0.8515   25.4417  -23.5107 H   0  0  0  0  0  0  0  0  0  0  0  0
    1.4591   27.4111  -24.8373 H   0  0  0  0  0  0  0  0  0  0  0  0
    0.7357   27.7784  -26.4391 H   0  0  0  0  0  0  0  0  0  0  0  0
   -0.2552   29.0001  -23.8064 H   0  0  0  0  0  0  0  0  0  0  0  0
    0.9546   29.7875  -24.8817 H   0  0  0  0  0  0  0  0  0  0  0  0
    0.5552   30.2098  -26.9486 H   0  0  0  0  0  0  0  0  0  0  0  0
   -0.4646   28.8546  -27.5404 H   0  0  0  0  0  0  0  0  0  0  0  0
   -1.1101   30.5309  -27.5404 H   0  0  0  0  0  0  0  0  0  0  0  0
   -1.4983   30.8579  -24.0821 H   0  0  0  0  0  0  0  0  0  0  0  0
   -0.8767   31.6981  -25.5430 H   0  0  0  0  0  0  0  0  0  0  0  0
   -2.5333   31.0037  -25.5430 H   0  0  0  0  0  0  0  0  0  0  0  0
    0.3633   26.0552  -27.5640 H   0  0  0  0  0  0  0  0  0  0  0  0
   -0.9264   24.7860  -29.2283 H   0  0  0  0  0  0  0  0  0  0  0  0
   -5.2893   24.3433  -28.2116 H   0  0  0  0  0  0  0  0  0  0  0  0
   -6.5929   23.1183  -29.9043 H   0  0  0  0  0  0  0  0  0  0  0  0
   -7.1705   23.8532  -32.4267 H   0  0  0  0  0  0  0  0  0  0  0  0
   -9.6464   23.8992  -32.2246 H   0  0  0  0  0  0  0  0  0  0  0  0
   -9.6995   19.9082  -30.9285 H   0  0  0  0  0  0  0  0  0  0  0  0
   -7.1983   19.7220  -31.0846 H   0  0  0  0  0  0  0  0  0  0  0  0
  1  2  1  0
  2  3  1  0
  3  4  2  0
  4  5  1  0
  5  6  1  0
  6  7  1  0
  5  8  2  0
  8  9  1  0
  9 10  2  0
 10 11  1  0
 11 12  2  0
 12 13  1  0
 13 14  2  0
 14 15  1  0
 15 16  1  0
 15 17  1  0
 17 18  1  0
 18 19  1  0
 19 20  1  0
 19 21  1  0
 14 22  1  0
 22 23  2  0
 10 24  1  0
 24 25  2  0
 25 26  1  0
 26 27  2  0
 27 28  1  0
 28 29  2  0
 29 30  1  0
 30 31  2  0
 31 32  1  0
 32 33  2  0
 27  3  1  0
 33 28  1  0
 26  8  1  0
 23 11  1  0
  1 34  1  0
  1 35  1  0
  1 36  1  0
  4 37  1  0
  7 38  1  0
  7 39  1  0
  7 40  1  0
  9 41  1  0
 12 42  1  0
 13 43  1  0
 16 44  1  0
 16 45  1  0
 16 46  1  0
 17 47  1  0
 17 48  1  0
 18 49  1  0
 18 50  1  0
 20 51  1  0
 20 52  1  0
 20 53  1  0
 21 54  1  0
 21 55  1  0
 21 56  1  0
 22 57  1  0
 23 58  1  0
 24 59  1  0
 25 60  1  0
 29 61  1  0
 30 62  1  0
 32 63  1  0
 33 64  1  0
M  END
>  <smiles>  (22) 
COc1cc(OC)c2cc(-c3ccc(N(C)CCN(C)C)cc3)ccc2c1-c1ccncc1

>  <score_type>  (22) 
oracle

>  <origin>  (22) 
adg

>  <m_score__min__energy>  (22) 
-8.8399999999999999

>  <m_primary>  (22) 
energy

$$$$
22:0
     RDKit          3D

 64 67  0  0  0  0  0  0  0  0999 V2000
   -6.0530   23.2200  -29.7140 C   0  0  0  0  0  0  0  0  0  0  0  0
   -5.8860   24.1480  -30.7700 N   0  0  0  0  0  0  0  0  0  0  0  0
   -5.7280   25.5090  -30.4160 C   0  0  0  0  0  0  0  0  0  0  0  0
   -6.4820   23.8540  -32.0090 C   0  0  0  0  0  0  0  0  0  0  0  0
   -7.3290   22.6490  -32.0740 C   0  0  0  0  0  0  0  0  0  0  0  0
   -8.6280   22.6950  -31.6040 C   0  0  0  0  0  0  0  0  0  0  0  0
   -9.4050   21.5590  -31.6740 C   0  0  0  0  0  0  0  0  0  0  0  0
   -8.8930   20.3970  -32.2060 C   0  0  0  0  0  0  0  0  0  0  0  0
   -7.5840   20.3130  -32.6910 C   0  0  0  0  0  0  0  0  0  0  0  0
   -7.1120   19.0940  -33.2260 N   0  0  0  0  0  0  0  0  0  0  0  0
   -7.4980   17.7790  -32.7640 C   0  0  0  0  0  0  0  0  0  0  0  0
   -6.2240   17.1100  -32.2800 C   0  0  0  0  0  0  0  0  0  0  0  0
   -5.2910   17.0290  -33.3530 N   0  0  0  0  0  0  0  0  0  0  0  0
   -3.9150   17.2800  -32.9490 C   0  0  0  0  0  0  0  0  0  0  0  0
   -3.0350   16.7040  -33.9940 C   0  0  0  0  0  0  0  0  0  0  0  0
   -3.3640   15.5000  -34.5970 C   0  0  0  0  0  0  0  0  0  0  0  0
   -2.5760   14.9250  -35.5720 C   0  0  0  0  0  0  0  0  0  0  0  0
   -3.0150   13.2740  -36.4090 Br  0  0  0  0  0  0  0  0  0  0  0  0
   -1.4100   15.5560  -35.9780 C   0  0  0  0  0  0  0  0  0  0  0  0
   -1.0570   16.7720  -35.3860 C   0  0  0  0  0  0  0  0  0  0  0  0
   -1.8750   17.3260  -34.4030 C   0  0  0  0  0  0  0  0  0  0  0  0
   -1.4950   18.5470  -33.8240 O   0  0  0  0  0  0  0  0  0  0  0  0
   -2.1450   19.7580  -34.1730 C   0  0  0  0  0  0  0  0  0  0  0  0
   -2.2800   20.6880  -33.0200 C   0  0  0  0  0  0  0  0  0  0  0  0
   -1.2040   20.8010  -32.1400 C   0  0  0  0  0  0  0  0  0  0  0  0
   -1.2880   21.6560  -31.0530 C   0  0  0  0  0  0  0  0  0  0  0  0
   -2.4620   22.3940  -30.8600 C   0  0  0  0  0  0  0  0  0  0  0  0
   -2.6150   23.5890  -29.3630 Br  0  0  0  0  0  0  0  0  0  0  0  0
   -3.5220   22.2580  -31.7600 C   0  0  0  0  0  0  0  0  0  0  0  0
   -3.4460   21.4080  -32.8480 C   0  0  0  0  0  0  0  0  0  0  0  0
   -5.6430   17.7060  -34.5580 C   0  0  0  0  0  0  0  0  0  0  0  0
   -6.1510   19.1180  -34.3390 C   0  0  0  0  0  0  0  0  0  0  0  0
   -6.8410   21.4660  -32.6040 C   0  0  0  0  0  0  0  0  0  0  0  0
   -5.9592   23.7410  -28.7498 H   0  0  0  0  0  0  0  0  0  0  0  0
   -7.0487   22.7580  -29.7859 H   0  0  0  0  0  0  0  0  0  0  0  0
   -5.2808   22.4399  -29.7859 H   0  0  0  0  0  0  0  0  0  0  0  0
   -5.7170   25.6039  -29.3202 H   0  0  0  0  0  0  0  0  0  0  0  0
   -4.7799   25.8869  -30.8263 H   0  0  0  0  0  0  0  0  0  0  0  0
   -6.5643   26.0941  -30.8263 H   0  0  0  0  0  0  0  0  0  0  0  0
   -7.1070   24.7147  -32.2894 H   0  0  0  0  0  0  0  0  0  0  0  0
   -5.6420   23.6504  -32.6894 H   0  0  0  0  0  0  0  0  0  0  0  0
   -9.0356   23.6247  -31.1803 H   0  0  0  0  0  0  0  0  0  0  0  0
  -10.4402   21.5808  -31.3027 H   0  0  0  0  0  0  0  0  0  0  0  0
   -9.5349   19.5049  -32.2511 H   0  0  0  0  0  0  0  0  0  0  0  0
   -8.2222   17.8615  -31.9402 H   0  0  0  0  0  0  0  0  0  0  0  0
   -7.9772   17.1971  -33.5651 H   0  0  0  0  0  0  0  0  0  0  0  0
   -5.7890   17.7003  -31.4601 H   0  0  0  0  0  0  0  0  0  0  0  0
   -6.4567   16.0969  -31.9203 H   0  0  0  0  0  0  0  0  0  0  0  0
   -3.7394   18.3626  -32.8642 H   0  0  0  0  0  0  0  0  0  0  0  0
   -3.7075   16.8224  -31.9704 H   0  0  0  0  0  0  0  0  0  0  0  0
   -4.2855   14.9853  -34.2872 H   0  0  0  0  0  0  0  0  0  0  0  0
   -0.7727   15.1066  -36.7539 H   0  0  0  0  0  0  0  0  0  0  0  0
   -0.1369   17.2898  -35.6948 H   0  0  0  0  0  0  0  0  0  0  0  0
   -1.5616   20.2565  -34.9612 H   0  0  0  0  0  0  0  0  0  0  0  0
   -3.1587   19.5047  -34.5170 H   0  0  0  0  0  0  0  0  0  0  0  0
   -0.2902   20.2123  -32.3086 H   0  0  0  0  0  0  0  0  0  0  0  0
   -0.4454   21.7535  -30.3526 H   0  0  0  0  0  0  0  0  0  0  0  0
   -4.4402   22.8419  -31.5990 H   0  0  0  0  0  0  0  0  0  0  0  0
   -4.2852   21.3087  -33.5522 H   0  0  0  0  0  0  0  0  0  0  0  0
   -4.7527   17.7535  -35.2022 H   0  0  0  0  0  0  0  0  0  0  0  0
   -6.4645   17.1370  -35.0177 H   0  0  0  0  0  0  0  0  0  0  0  0
   -5.3099   19.7818  -34.0903 H   0  0  0  0  0  0  0  0  0  0  0  0
   -6.6369   19.4925  -35.2521 H   0  0  0  0  0  0  0  0  0  0  0  0
   -5.8054   21.4484  -32.9744 H   0  0  0  0  0  0  0  0  0  0  0  0
  1  2  1  0
  2  3  1  0
  2  4  1  0
  4  5  1  0
  5  6  2  0
  6  7  1  0
  7  8  2  0
  8  9  1  0
  9 10  1  0
 10 11  1  0
 11 12  1  0
 12 13  1  0
 13 14  1  0
 14 15  1  0
 15 16  2  0
 16 17  1  0
 17 18  1  0
 17 19  2  0
 19 20  1  0
 20 21  2  0
 21 22  1  0
 22 23  1  0
 23 24  1  0
 24 25  2  0
 25 26  1  0
 26 27  2  0
 27 28  1  0
 27 29  1  0
 29 30  2  0
 13 31  1  0
 31 32  1  0
  9 33  2  0
 33  5  1  0
 32 10  1  0
 21 15  1  0
 30 24  1  0
  1 34  1  0
  1 35  1  0
  1 36  1  0
  3 37  1  0
  3 38  1  0
  3 39  1  0
  4 40  1  0
  4 41  1  0
  6 42  1  0
  7 43  1  0
  8 44  1  0
 11 45  1  0
 11 46  1  0
 12 47  1  0
 12 48  1  0
 14 49  1  0
 14 50  1  0
 16 51  1  0
 19 52  1  0
 20 53  1  0
 23 54  1  0
 23 55  1  0
 25 56  1  0
 26 57  1  0
 29 58  1  0
 30 59  1  0
 31 60  1  0
 31 61  1  0
 32 62  1  0
 32 63  1  0
 33 64  1  0
M  END
>  <smiles>  (23) 
CN(C)Cc1cccc(N2CCN(Cc3cc(Br)ccc3OCc3ccc(Br)cc3)CC2)c1

>  <score_type>  (23) 
oracle

>  <origin>  (23) 
adg

>  <m_score__min__energy>  (23) 
-10.73

>  <m_primary>  (23) 
energy

$$$$
23:0
     RDKit          3D

 55 56  0  0  1  0  0  0  0  0999 V2000
   -4.1630   24.1650  -27.6760 C   0  0  0  0  0  0  0  0  0  0  0  0
   -4.2340   22.7230  -28.1280 C   0  0  0  0  0  0  0  0  0  0  0  0
   -3.6960   22.4650  -29.4850 C   0  0  0  0  0  0  0  0  0  0  0  0
   -4.5830   23.0990  -30.8390 S   0  0  0  0  0  0  0  0  0  0  0  0
   -4.6140   24.6050  -30.8720 O   0  0  0  0  0  0  0  0  0  0  0  0
   -3.8550   22.6770  -32.1080 O   0  0  0  0  0  0  0  0  0  0  0  0
   -6.1910   22.5360  -31.0110 N   0  0  0  0  0  0  0  0  0  0  0  0
   -7.1500   23.5610  -30.8250 C   0  0  0  0  0  0  0  0  0  0  0  0
   -8.3580   23.4220  -31.7340 C   0  0  0  0  0  0  0  0  0  0  0  0
   -8.7560   21.9830  -31.9680 C   0  0  0  0  0  0  0  0  0  0  0  0
   -7.6140   21.1760  -32.4800 C   0  0  2  0  0  0  0  0  0  0  0  0
   -7.5360   19.8100  -31.8730 C   0  0  0  0  0  0  0  0  0  0  0  0
   -8.3550   19.4300  -30.9900 O   0  0  0  0  0  0  0  0  0  0  0  0
   -6.5050   18.9210  -32.3120 N   0  0  0  0  0  0  0  0  0  0  0  0
   -5.5310   19.2930  -33.3210 C   0  0  0  0  0  0  0  0  0  0  0  0
   -4.3670   18.3220  -33.1920 C   0  0  0  0  0  0  0  0  0  0  0  0
   -4.8200   16.9790  -33.5020 N   0  0  0  0  0  0  0  0  0  0  0  0
   -3.7770   16.0870  -33.0400 C   0  0  0  0  0  0  0  0  0  0  0  0
   -4.9790   16.8810  -34.9380 C   0  0  0  0  0  0  0  0  0  0  0  0
   -3.6590   16.5920  -35.6210 C   0  0  0  0  0  0  0  0  0  0  0  0
   -6.0520   16.6440  -32.8610 C   0  0  0  0  0  0  0  0  0  0  0  0
   -6.4120   17.5920  -31.7390 C   0  0  0  0  0  0  0  0  0  0  0  0
   -6.2750   21.8360  -32.2760 C   0  0  0  0  0  0  0  0  0  0  0  0
   -4.1610   24.2050  -26.5767 H   0  0  0  0  0  0  0  0  0  0  0  0
   -3.2411   24.6251  -28.0613 H   0  0  0  0  0  0  0  0  0  0  0  0
   -5.0352   24.7134  -28.0613 H   0  0  0  0  0  0  0  0  0  0  0  0
   -3.6631   22.1126  -27.4128 H   0  0  0  0  0  0  0  0  0  0  0  0
   -5.3026   22.4650  -28.1666 H   0  0  0  0  0  0  0  0  0  0  0  0
   -2.6842   22.8948  -29.5246 H   0  0  0  0  0  0  0  0  0  0  0  0
   -3.7508   21.3727  -29.6031 H   0  0  0  0  0  0  0  0  0  0  0  0
   -7.4935   23.5330  -29.7804 H   0  0  0  0  0  0  0  0  0  0  0  0
   -6.6616   24.5147  -31.0740 H   0  0  0  0  0  0  0  0  0  0  0  0
   -9.2061   23.9502  -31.2738 H   0  0  0  0  0  0  0  0  0  0  0  0
   -8.0880   23.8524  -32.7096 H   0  0  0  0  0  0  0  0  0  0  0  0
   -9.1025   21.5493  -31.0184 H   0  0  0  0  0  0  0  0  0  0  0  0
   -9.5563   21.9651  -32.7225 H   0  0  0  0  0  0  0  0  0  0  0  0
   -7.8256   21.0940  -33.5563 H   0  0  0  0  0  0  0  0  0  0  0  0
   -5.9773   19.2172  -34.3235 H   0  0  0  0  0  0  0  0  0  0  0  0
   -5.1950   20.3309  -33.1797 H   0  0  0  0  0  0  0  0  0  0  0  0
   -3.5695   18.6107  -33.8925 H   0  0  0  0  0  0  0  0  0  0  0  0
   -3.9793   18.3495  -32.1630 H   0  0  0  0  0  0  0  0  0  0  0  0
   -3.7644   16.0762  -31.9401 H   0  0  0  0  0  0  0  0  0  0  0  0
   -3.9709   15.0710  -33.4145 H   0  0  0  0  0  0  0  0  0  0  0  0
   -2.8034   16.4362  -33.4145 H   0  0  0  0  0  0  0  0  0  0  0  0
   -5.6851   16.0688  -35.1654 H   0  0  0  0  0  0  0  0  0  0  0  0
   -5.3586   17.8437  -35.3110 H   0  0  0  0  0  0  0  0  0  0  0  0
   -2.8823   16.4220  -34.8608 H   0  0  0  0  0  0  0  0  0  0  0  0
   -3.7599   15.6947  -36.2492 H   0  0  0  0  0  0  0  0  0  0  0  0
   -3.3757   17.4494  -36.2492 H   0  0  0  0  0  0  0  0  0  0  0  0
   -6.8556   16.6684  -33.6118 H   0  0  0  0  0  0  0  0  0  0  0  0
   -5.9317   15.6434  -32.4201 H   0  0  0  0  0  0  0  0  0  0  0  0
   -7.3774   17.3038  -31.2976 H   0  0  0  0  0  0  0  0  0  0  0  0
   -5.6519   17.5623  -30.9444 H   0  0  0  0  0  0  0  0  0  0  0  0
   -5.4924   21.0635  -32.3048 H   0  0  0  0  0  0  0  0  0  0  0  0
   -6.1406   22.5764  -33.0783 H   0  0  0  0  0  0  0  0  0  0  0  0
  1  2  1  0
  2  3  1  0
  3  4  1  0
  4  5  2  0
  4  6  2  0
  4  7  1  0
  7  8  1  0
  8  9  1  0
  9 10  1  0
 10 11  1  0
 11 12  1  0
 12 13  2  0
 12 14  1  0
 14 15  1  0
 15 16  1  0
 16 17  1  0
 17 18  1  0
 17 19  1  0
 19 20  1  0
 17 21  1  0
 21 22  1  0
 11 23  1  0
 23  7  1  0
 22 14  1  0
  1 24  1  0
  1 25  1  0
  1 26  1  0
  2 27  1  0
  2 28  1  0
  3 29  1  0
  3 30  1  0
  8 31  1  0
  8 32  1  0
  9 33  1  0
  9 34  1  0
 10 35  1  0
 10 36  1  0
 11 37  1  6
 15 38  1  0
 15 39  1  0
 16 40  1  0
 16 41  1  0
 18 42  1  0
 18 43  1  0
 18 44  1  0
 19 45  1  0
 19 46  1  0
 20 47  1  0
 20 48  1  0
 20 49  1  0
 21 50  1  0
 21 51  1  0
 22 52  1  0
 22 53  1  0
 23 54  1  0
 23 55  1  0
M  CHG  1  17   1
M  END
>  <smiles>  (24) 
CCCS(=O)(=O)N1CCCC(C(=O)N2CC[N+](C)(CC)CC2)C1

>  <score_type>  (24) 
oracle

>  <origin>  (24) 
adg

>  <m_score__min__energy>  (24) 
-8.2699999999999996

>  <m_primary>  (24) 
energy

$$$$
24:0
     RDKit          3D

 39 40  0  0  0  0  0  0  0  0999 V2000
   -1.3020   23.1140  -28.3270 C   0  0  0  0  0  0  0  0  0  0  0  0
   -1.2440   24.4860  -29.0240 C   0  0  0  0  0  0  0  0  0  0  0  0
   -2.5440   25.0090  -29.2140 N   0  0  0  0  0  0  0  0  0  0  0  0
   -3.6630   24.2360  -28.8430 C   0  0  0  0  0  0  0  0  0  0  0  0
   -4.6680   23.9380  -29.8580 C   0  0  0  0  0  0  0  0  0  0  0  0
   -5.8790   24.5420  -30.1260 C   0  0  0  0  0  0  0  0  0  0  0  0
   -6.4800   25.6850  -29.3900 C   0  0  0  0  0  0  0  0  0  0  0  0
   -6.4410   23.9280  -31.1560 N   0  0  0  0  0  0  0  0  0  0  0  0
   -5.6550   22.9300  -31.5970 N   0  0  0  0  0  0  0  0  0  0  0  0
   -6.0540   22.1080  -32.7140 C   0  0  0  0  0  0  0  0  0  0  0  0
   -6.7000   20.8480  -32.3670 C   0  0  0  0  0  0  0  0  0  0  0  0
   -5.9760   19.6580  -32.5130 C   0  0  0  0  0  0  0  0  0  0  0  0
   -4.3270   19.6500  -33.1040 Cl  0  0  0  0  0  0  0  0  0  0  0  0
   -6.5340   18.4370  -32.1950 C   0  0  0  0  0  0  0  0  0  0  0  0
   -7.8170   18.3210  -31.7210 C   0  0  0  0  0  0  0  0  0  0  0  0
   -8.5450   19.4840  -31.5720 C   0  0  0  0  0  0  0  0  0  0  0  0
   -7.9850   20.7050  -31.8910 C   0  0  0  0  0  0  0  0  0  0  0  0
   -9.0530   22.2540  -31.6360 Br  0  0  0  0  0  0  0  0  0  0  0  0
   -4.5800   22.9230  -30.8210 C   0  0  0  0  0  0  0  0  0  0  0  0
   -3.4370   22.0060  -30.9270 C   0  0  0  0  0  0  0  0  0  0  0  0
   -1.2960   23.2563  -27.2363 H   0  0  0  0  0  0  0  0  0  0  0  0
   -2.2231   22.5908  -28.6234 H   0  0  0  0  0  0  0  0  0  0  0  0
   -0.4284   22.5149  -28.6234 H   0  0  0  0  0  0  0  0  0  0  0  0
   -0.6628   25.1822  -28.4016 H   0  0  0  0  0  0  0  0  0  0  0  0
   -0.7672   24.3615  -30.0075 H   0  0  0  0  0  0  0  0  0  0  0  0
   -2.6950   25.6650  -29.9840 H   0  0  0  0  0  0  0  0  0  0  0  0
   -3.2838   23.2737  -28.4685 H   0  0  0  0  0  0  0  0  0  0  0  0
   -4.1946   24.8632  -28.1122 H   0  0  0  0  0  0  0  0  0  0  0  0
   -6.3893   25.5124  -28.3074 H   0  0  0  0  0  0  0  0  0  0  0  0
   -5.9528   26.6122  -29.6590 H   0  0  0  0  0  0  0  0  0  0  0  0
   -7.5427   25.7762  -29.6590 H   0  0  0  0  0  0  0  0  0  0  0  0
   -6.7555   22.6902  -33.3297 H   0  0  0  0  0  0  0  0  0  0  0  0
   -5.1248   21.8370  -33.2366 H   0  0  0  0  0  0  0  0  0  0  0  0
   -5.9309   17.5264  -32.3256 H   0  0  0  0  0  0  0  0  0  0  0  0
   -8.2476   17.3404  -31.4700 H   0  0  0  0  0  0  0  0  0  0  0  0
   -9.5780   19.4378  -31.1967 H   0  0  0  0  0  0  0  0  0  0  0  0
   -3.0934   21.7303  -29.9191 H   0  0  0  0  0  0  0  0  0  0  0  0
   -3.7430   21.1000  -31.4706 H   0  0  0  0  0  0  0  0  0  0  0  0
   -2.6189   22.5011  -31.4706 H   0  0  0  0  0  0  0  0  0  0  0  0
  1  2  1  0
  2  3  1  0
  3  4  1  0
  4  5  1  0
  5  6  1  0
  6  7  1  0
  6  8  2  0
  8  9  1  0
  9 10  1  0
 10 11  1  0
 11 12  2  0
 12 13  1  0
 12 14  1  0
 14 15  2  0
 15 16  1  0
 16 17  2  0
 17 18  1  0
  9 19  1  0
 19 20  1  0
 19  5  2  0
 17 11  1  0
  1 21  1  0
  1 22  1  0
  1 23  1  0
  2 24  1  0
  2 25  1  0
  3 26  1  0
  4 27  1  0
  4 28  1  0
  7 29  1  0
  7 30  1  0
  7 31  1  0
 10 32  1  0
 10 33  1  0
 14 34  1  0
 15 35  1  0
 16 36  1  0
 20 37  1  0
 20 38  1  0
 20 39  1  0
M  END
>  <smiles>  (25) 
CCNCc1c(C)nn(Cc2c(Cl)cccc2Br)c1C

>  <score_type>  (25) 
oracle

>  <origin>  (25) 
adg

>  <m_score__min__energy>  (25) 
-8.3200000000000003

>  <m_primary>  (25) 
energy

$$$$
25:0
     RDKit          3D

 48 49  0  0  0  0  0  0  0  0999 V2000
   -2.0460   19.1330  -34.1400 C   0  0  0  0  0  0  0  0  0  0  0  0
   -2.1260   20.4820  -33.9000 O   0  0  0  0  0  0  0  0  0  0  0  0
   -1.1390   20.9870  -33.0930 C   0  0  0  0  0  0  0  0  0  0  0  0
   -1.6330   21.3110  -31.6980 C   0  0  0  0  0  0  0  0  0  0  0  0
   -3.0030   21.5780  -31.5930 N   0  0  0  0  0  0  0  0  0  0  0  0
   -3.7340   20.6620  -30.8300 C   0  0  0  0  0  0  0  0  0  0  0  0
   -4.6970   19.8140  -31.5850 C   0  0  0  0  0  0  0  0  0  0  0  0
   -5.4250   18.9430  -31.0470 O   0  0  0  0  0  0  0  0  0  0  0  0
   -4.8070   19.9890  -32.9940 N   0  0  0  0  0  0  0  0  0  0  0  0
   -5.7470   19.1490  -33.6980 C   0  0  0  0  0  0  0  0  0  0  0  0
   -7.0840   19.2220  -33.1680 C   0  0  0  0  0  0  0  0  0  0  0  0
   -8.0560   20.1690  -33.0880 C   0  0  0  0  0  0  0  0  0  0  0  0
   -9.2250   19.9180  -32.5190 C   0  0  0  0  0  0  0  0  0  0  0  0
   -9.4380   18.6300  -31.9920 C   0  0  0  0  0  0  0  0  0  0  0  0
   -7.8410   17.7410  -32.3500 S   0  0  0  0  0  0  0  0  0  0  0  0
   -3.6010   22.6710  -32.2150 C   0  0  0  0  0  0  0  0  0  0  0  0
   -4.8140   23.1970  -31.4890 C   0  0  0  0  0  0  0  0  0  0  0  0
   -6.0650   22.6010  -31.6660 C   0  0  0  0  0  0  0  0  0  0  0  0
   -7.1910   23.0670  -31.0200 C   0  0  0  0  0  0  0  0  0  0  0  0
   -7.1140   24.1500  -30.1700 C   0  0  0  0  0  0  0  0  0  0  0  0
   -5.8800   24.7290  -30.0020 C   0  0  0  0  0  0  0  0  0  0  0  0
   -4.7350   24.2810  -30.6380 C   0  0  0  0  0  0  0  0  0  0  0  0
   -3.5010   24.8900  -30.4460 O   0  0  0  0  0  0  0  0  0  0  0  0
   -2.7230   24.4560  -29.3460 C   0  0  0  0  0  0  0  0  0  0  0  0
   -2.0139   18.5916  -33.1830 H   0  0  0  0  0  0  0  0  0  0  0  0
   -2.9266   18.8100  -34.7147 H   0  0  0  0  0  0  0  0  0  0  0  0
   -1.1334   18.9163  -34.7147 H   0  0  0  0  0  0  0  0  0  0  0  0
   -0.3320   20.2434  -33.0167 H   0  0  0  0  0  0  0  0  0  0  0  0
   -0.7863   21.9249  -33.5467 H   0  0  0  0  0  0  0  0  0  0  0  0
   -1.4038   20.4529  -31.0490 H   0  0  0  0  0  0  0  0  0  0  0  0
   -1.1201   22.2382  -31.4027 H   0  0  0  0  0  0  0  0  0  0  0  0
   -3.0187   19.9947  -30.3269 H   0  0  0  0  0  0  0  0  0  0  0  0
   -4.3431   21.2653  -30.1408 H   0  0  0  0  0  0  0  0  0  0  0  0
   -4.2490   20.6850  -33.5240 H   0  0  0  0  0  0  0  0  0  0  0  0
   -5.7720   19.4607  -34.7526 H   0  0  0  0  0  0  0  0  0  0  0  0
   -5.4064   18.1096  -33.5809 H   0  0  0  0  0  0  0  0  0  0  0  0
   -7.8667   21.1686  -33.5063 H   0  0  0  0  0  0  0  0  0  0  0  0
  -10.0050   20.6914  -32.4599 H   0  0  0  0  0  0  0  0  0  0  0  0
  -10.3351   18.2409  -31.4882 H   0  0  0  0  0  0  0  0  0  0  0  0
   -2.8591   23.4804  -32.2821 H   0  0  0  0  0  0  0  0  0  0  0  0
   -3.9426   22.3295  -33.2033 H   0  0  0  0  0  0  0  0  0  0  0  0
   -6.1545   21.7358  -32.3394 H   0  0  0  0  0  0  0  0  0  0  0  0
   -8.1587   22.5705  -31.1843 H   0  0  0  0  0  0  0  0  0  0  0  0
   -8.0032   24.5339  -29.6486 H   0  0  0  0  0  0  0  0  0  0  0  0
   -5.7972   25.5936  -29.3270 H   0  0  0  0  0  0  0  0  0  0  0  0
   -3.2253   24.7362  -28.4084 H   0  0  0  0  0  0  0  0  0  0  0  0
   -2.6071   23.3629  -29.3874 H   0  0  0  0  0  0  0  0  0  0  0  0
   -1.7320   24.9316  -29.3874 H   0  0  0  0  0  0  0  0  0  0  0  0
  1  2  1  0
  2  3  1  0
  3  4  1  0
  4  5  1  0
  5  6  1  0
  6  7  1  0
  7  8  2  0
  7  9  1  0
  9 10  1  0
 10 11  1  0
 11 12  2  0
 12 13  1  0
 13 14  2  0
 14 15  1  0
  5 16  1  0
 16 17  1  0
 17 18  2  0
 18 19  1  0
 19 20  2  0
 20 21  1  0
 21 22  2  0
 22 23  1  0
 23 24  1  0
 15 11  1  0
 22 17  1  0
  1 25  1  0
  1 26  1  0
  1 27  1  0
  3 28  1  0
  3 29  1  0
  4 30  1  0
  4 31  1  0
  6 32  1  0
  6 33  1  0
  9 34  1  0
 10 35  1  0
 10 36  1  0
 12 37  1  0
 13 38  1  0
 14 39  1  0
 16 40  1  0
 16 41  1  0
 18 42  1  0
 19 43  1  0
 20 44  1  0
 21 45  1  0
 24 46  1  0
 24 47  1  0
 24 48  1  0
M  END
>  <smiles>  (26) 
COCCN(CC(=O)NCc1cccs1)Cc1ccccc1OC

>  <score_type>  (26) 
oracle

>  <origin>  (26) 
adg

>  <m_score__min__energy>  (26) 
-7.3099999999999996

>  <m_primary>  (26) 
energy

$$$$
26:0
     RDKit          3D

 52 54  0  0  0  0  0  0  0  0999 V2000
   -2.7800   21.1720  -33.4320 C   0  0  0  0  0  0  0  0  0  0  0  0
   -2.5620   21.0890  -32.2480 C   0  0  0  0  0  0  0  0  0  0  0  0
   -2.3150   21.0050  -30.8140 C   0  0  0  0  0  0  0  0  0  0  0  0
   -1.4750   22.0520  -30.3830 O   0  0  0  0  0  0  0  0  0  0  0  0
   -1.1410   22.3030  -29.0690 C   0  0  0  0  0  0  0  0  0  0  0  0
   -0.1030   21.8000  -28.5730 O   0  0  0  0  0  0  0  0  0  0  0  0
   -2.0600   23.1840  -28.2920 C   0  0  0  0  0  0  0  0  0  0  0  0
   -2.2330   24.4930  -28.9780 C   0  0  0  0  0  0  0  0  0  0  0  0
   -3.2990   24.3670  -30.0190 C   0  0  0  0  0  0  0  0  0  0  0  0
   -4.5280   23.9280  -29.4810 N   0  0  0  0  0  0  0  0  0  0  0  0
   -5.4050   24.9010  -28.9400 C   0  0  0  0  0  0  0  0  0  0  0  0
   -6.1160   25.6290  -30.0600 C   0  0  0  0  0  0  0  0  0  0  0  0
   -7.2420   24.8730  -30.5090 O   0  0  0  0  0  0  0  0  0  0  0  0
   -7.0080   23.6470  -31.1070 C   0  0  0  0  0  0  0  0  0  0  0  0
   -7.8720   22.6150  -30.7570 C   0  0  0  0  0  0  0  0  0  0  0  0
   -7.7260   21.3620  -31.2920 C   0  0  0  0  0  0  0  0  0  0  0  0
   -6.7100   21.1120  -32.1910 C   0  0  0  0  0  0  0  0  0  0  0  0
   -6.6040   19.7630  -32.7220 C   0  0  0  0  0  0  0  0  0  0  0  0
   -7.0280   18.7030  -31.9240 C   0  0  0  0  0  0  0  0  0  0  0  0
   -6.9590   17.3920  -32.3470 C   0  0  0  0  0  0  0  0  0  0  0  0
   -6.4510   17.1080  -33.6140 C   0  0  0  0  0  0  0  0  0  0  0  0
   -6.3550   15.2980  -34.2070 Br  0  0  0  0  0  0  0  0  0  0  0  0
   -6.0210   18.1460  -34.4350 C   0  0  0  0  0  0  0  0  0  0  0  0
   -6.1080   19.4610  -33.9640 C   0  0  0  0  0  0  0  0  0  0  0  0
   -5.8530   22.1400  -32.5380 C   0  0  0  0  0  0  0  0  0  0  0  0
   -5.9880   23.4110  -32.0050 C   0  0  0  0  0  0  0  0  0  0  0  0
   -4.4930   22.6850  -28.7760 C   0  0  0  0  0  0  0  0  0  0  0  0
   -3.3140   22.4880  -27.8960 C   0  0  0  0  0  0  0  0  0  0  0  0
   -2.9787   21.2477  -34.5113 H   0  0  0  0  0  0  0  0  0  0  0  0
   -3.2742   21.0704  -30.2795 H   0  0  0  0  0  0  0  0  0  0  0  0
   -1.8185   20.0471  -30.5998 H   0  0  0  0  0  0  0  0  0  0  0  0
   -1.5964   23.4257  -27.3242 H   0  0  0  0  0  0  0  0  0  0  0  0
   -2.5253   25.2574  -28.2430 H   0  0  0  0  0  0  0  0  0  0  0  0
   -1.2861   24.7884  -29.4534 H   0  0  0  0  0  0  0  0  0  0  0  0
   -3.4505   25.3494  -30.4900 H   0  0  0  0  0  0  0  0  0  0  0  0
   -2.9660   23.6160  -30.7505 H   0  0  0  0  0  0  0  0  0  0  0  0
   -6.1476   24.4061  -28.2968 H   0  0  0  0  0  0  0  0  0  0  0  0
   -4.8248   25.6238  -28.3476 H   0  0  0  0  0  0  0  0  0  0  0  0
   -6.4591   26.6085  -29.6954 H   0  0  0  0  0  0  0  0  0  0  0  0
   -5.4176   25.7618  -30.8994 H   0  0  0  0  0  0  0  0  0  0  0  0
   -8.6842   22.8073  -30.0405 H   0  0  0  0  0  0  0  0  0  0  0  0
   -8.4180   20.5566  -31.0050 H   0  0  0  0  0  0  0  0  0  0  0  0
   -7.4311   18.9185  -30.9235 H   0  0  0  0  0  0  0  0  0  0  0  0
   -7.3015   16.5782  -31.6910 H   0  0  0  0  0  0  0  0  0  0  0  0
   -5.6194   17.9365  -35.4374 H   0  0  0  0  0  0  0  0  0  0  0  0
   -5.7665   20.2809  -34.6129 H   0  0  0  0  0  0  0  0  0  0  0  0
   -5.0431   21.9432  -33.2559 H   0  0  0  0  0  0  0  0  0  0  0  0
   -5.2957   24.2162  -32.2920 H   0  0  0  0  0  0  0  0  0  0  0  0
   -5.3969   22.6225  -28.1522 H   0  0  0  0  0  0  0  0  0  0  0  0
   -4.4331   21.9007  -29.5449 H   0  0  0  0  0  0  0  0  0  0  0  0
   -3.5867   22.8395  -26.8900 H   0  0  0  0  0  0  0  0  0  0  0  0
   -3.0814   21.4148  -27.9608 H   0  0  0  0  0  0  0  0  0  0  0  0
  1  2  3  0
  2  3  1  0
  3  4  1  0
  4  5  1  0
  5  6  2  0
  5  7  1  0
  7  8  1  0
  8  9  1  0
  9 10  1  0
 10 11  1  0
 11 12  1  0
 12 13  1  0
 13 14  1  0
 14 15  2  0
 15 16  1  0
 16 17  2  0
 17 18  1  0
 18 19  2  0
 19 20  1  0
 20 21  2  0
 21 22  1  0
 21 23  1  0
 23 24  2  0
 17 25  1  0
 25 26  2  0
 10 27  1  0
 27 28  1  0
 28  7  1  0
 26 14  1  0
 24 18  1  0
  1 29  1  0
  3 30  1  0
  3 31  1  0
  7 32  1  0
  8 33  1  0
  8 34  1  0
  9 35  1  0
  9 36  1  0
 11 37  1  0
 11 38  1  0
 12 39  1  0
 12 40  1  0
 15 41  1  0
 16 42  1  0
 19 43  1  0
 20 44  1  0
 23 45  1  0
 24 46  1  0
 25 47  1  0
 26 48  1  0
 27 49  1  0
 27 50  1  0
 28 51  1  0
 28 52  1  0
M  END
>  <smiles>  (27) 
C#CCOC(=O)C1CCN(CCOc2ccc(-c3ccc(Br)cc3)cc2)CC1

>  <score_type>  (27) 
oracle

>  <origin>  (27) 
adg

>  <m_score__min__energy>  (27) 
-9.1400000000000006

>  <m_primary>  (27) 
energy

$$$$
27:0
     RDKit          3D

 48 50  0  0  0  0  0  0  0  0999 V2000
   -4.6190   14.9750  -32.3940 C   0  0  0  0  0  0  0  0  0  0  0  0
   -5.3950   15.5930  -33.4060 O   0  0  0  0  0  0  0  0  0  0  0  0
   -5.9200   16.8550  -33.1660 C   0  0  0  0  0  0  0  0  0  0  0  0
   -6.4670   17.0980  -31.9050 C   0  0  0  0  0  0  0  0  0  0  0  0
   -7.0050   18.3280  -31.5980 C   0  0  0  0  0  0  0  0  0  0  0  0
   -7.0070   19.3410  -32.5450 C   0  0  0  0  0  0  0  0  0  0  0  0
   -7.7110   20.8680  -32.0670 S   0  0  0  0  0  0  0  0  0  0  0  0
   -7.6060   20.9620  -30.5620 O   0  0  0  0  0  0  0  0  0  0  0  0
   -9.1700   20.9140  -32.4220 O   0  0  0  0  0  0  0  0  0  0  0  0
   -6.8500   22.1980  -32.7200 N   0  0  0  0  0  0  0  0  0  0  0  0
   -5.4370   22.0480  -32.6720 C   0  0  0  0  0  0  0  0  0  0  0  0
   -4.8850   22.2800  -31.3080 C   0  0  0  0  0  0  0  0  0  0  0  0
   -5.5150   23.4660  -30.6470 C   0  0  0  0  0  0  0  0  0  0  0  0
   -4.4430   24.2460  -29.9820 C   0  0  0  0  0  0  0  0  0  0  0  0
   -3.8780   25.2420  -30.5200 O   0  0  0  0  0  0  0  0  0  0  0  0
   -4.0550   23.8270  -28.6770 N   0  0  0  0  0  0  0  0  0  0  0  0
   -3.0360   24.4870  -27.9250 C   0  0  0  0  0  0  0  0  0  0  0  0
   -3.3070   24.9050  -26.6230 C   0  0  0  0  0  0  0  0  0  0  0  0
   -2.3140   25.5540  -25.8780 C   0  0  0  0  0  0  0  0  0  0  0  0
   -1.0840   25.7540  -26.4770 C   0  0  0  0  0  0  0  0  0  0  0  0
   -0.7980   25.3480  -27.7640 C   0  0  0  0  0  0  0  0  0  0  0  0
   -1.7900   24.7070  -28.4920 C   0  0  0  0  0  0  0  0  0  0  0  0
   -6.3250   24.3180  -31.5860 C   0  0  0  0  0  0  0  0  0  0  0  0
   -7.3250   23.4710  -32.3090 C   0  0  0  0  0  0  0  0  0  0  0  0
   -6.4710   19.1200  -33.7960 C   0  0  0  0  0  0  0  0  0  0  0  0
   -5.9270   17.8670  -34.0980 C   0  0  0  0  0  0  0  0  0  0  0  0
   -4.9976   15.2765  -31.4062 H   0  0  0  0  0  0  0  0  0  0  0  0
   -4.6881   13.8818  -32.4951 H   0  0  0  0  0  0  0  0  0  0  0  0
   -3.5690   15.2870  -32.4951 H   0  0  0  0  0  0  0  0  0  0  0  0
   -6.4684   16.2990  -31.1489 H   0  0  0  0  0  0  0  0  0  0  0  0
   -7.4335   18.5070  -30.6008 H   0  0  0  0  0  0  0  0  0  0  0  0
   -5.1798   21.0261  -32.9876 H   0  0  0  0  0  0  0  0  0  0  0  0
   -4.9978   22.8010  -33.3429 H   0  0  0  0  0  0  0  0  0  0  0  0
   -5.0720   21.3881  -30.6919 H   0  0  0  0  0  0  0  0  0  0  0  0
   -3.8068   22.4754  -31.4045 H   0  0  0  0  0  0  0  0  0  0  0  0
   -6.2426   23.1056  -29.9049 H   0  0  0  0  0  0  0  0  0  0  0  0
   -4.5270   22.9930  -28.2240 H   0  0  0  0  0  0  0  0  0  0  0  0
   -4.2985   24.7256  -26.1816 H   0  0  0  0  0  0  0  0  0  0  0  0
   -2.5066   25.8936  -24.8496 H   0  0  0  0  0  0  0  0  0  0  0  0
   -0.2964   26.2608  -25.9001 H   0  0  0  0  0  0  0  0  0  0  0  0
    0.1943   25.5284  -28.2032 H   0  0  0  0  0  0  0  0  0  0  0  0
   -1.5877   24.3729  -29.5203 H   0  0  0  0  0  0  0  0  0  0  0  0
   -6.8519   25.0941  -31.0115 H   0  0  0  0  0  0  0  0  0  0  0  0
   -5.6528   24.7891  -32.3183 H   0  0  0  0  0  0  0  0  0  0  0  0
   -8.1853   23.3146  -31.6416 H   0  0  0  0  0  0  0  0  0  0  0  0
   -7.5790   24.0156  -33.2303 H   0  0  0  0  0  0  0  0  0  0  0  0
   -6.4711   19.9214  -34.5495 H   0  0  0  0  0  0  0  0  0  0  0  0
   -5.4986   17.6883  -35.0953 H   0  0  0  0  0  0  0  0  0  0  0  0
  1  2  1  0
  2  3  1  0
  3  4  2  0
  4  5  1  0
  5  6  2  0
  6  7  1  0
  7  8  2  0
  7  9  2  0
  7 10  1  0
 10 11  1  0
 11 12  1  0
 12 13  1  0
 13 14  1  0
 14 15  2  0
 14 16  1  0
 16 17  1  0
 17 18  2  0
 18 19  1  0
 19 20  2  0
 20 21  1  0
 21 22  2  0
 13 23  1  0
 23 24  1  0
  6 25  1  0
 25 26  2  0
 26  3  1  0
 24 10  1  0
 22 17  1  0
  1 27  1  0
  1 28  1  0
  1 29  1  0
  4 30  1  0
  5 31  1  0
 11 32  1  0
 11 33  1  0
 12 34  1  0
 12 35  1  0
 13 36  1  0
 16 37  1  0
 18 38  1  0
 19 39  1  0
 20 40  1  0
 21 41  1  0
 22 42  1  0
 23 43  1  0
 23 44  1  0
 24 45  1  0
 24 46  1  0
 25 47  1  0
 26 48  1  0
M  END
>  <smiles>  (28) 
COc1ccc(S(=O)(=O)N2CCC(C(=O)Nc3ccccc3)CC2)cc1

>  <score_type>  (28) 
oracle

>  <origin>  (28) 
adg

>  <m_score__min__energy>  (28) 
-9.5399999999999991

>  <m_primary>  (28) 
energy

$$$$
28:0
     RDKit          3D

 31 31  0  0  0  0  0  0  0  0999 V2000
   -1.5620   24.9660  -28.5670 C   0  0  0  0  0  0  0  0  0  0  0  0
   -2.5390   24.2630  -29.3800 N   0  0  0  0  0  0  0  0  0  0  0  0
   -1.9910   23.0170  -29.8940 C   0  0  0  0  0  0  0  0  0  0  0  0
   -3.7670   24.0030  -28.6490 C   0  0  0  0  0  0  0  0  0  0  0  0
   -4.9270   24.5550  -29.4450 C   0  0  0  0  0  0  0  0  0  0  0  0
   -4.6230   24.6040  -30.8680 N   0  0  0  0  0  0  0  0  0  0  0  0
   -5.8480   24.1770  -31.5450 C   0  0  0  0  0  0  0  0  0  0  0  0
   -5.6960   22.8120  -32.1110 C   0  0  0  0  0  0  0  0  0  0  0  0
   -4.4920   22.2910  -32.5320 C   0  0  0  0  0  0  0  0  0  0  0  0
   -4.4910   21.0060  -33.0410 C   0  0  0  0  0  0  0  0  0  0  0  0
   -5.6270   20.2330  -33.1440 C   0  0  0  0  0  0  0  0  0  0  0  0
   -5.6080   18.6120  -33.7890 Cl  0  0  0  0  0  0  0  0  0  0  0  0
   -6.8320   20.7610  -32.7190 C   0  0  0  0  0  0  0  0  0  0  0  0
   -6.8500   22.0410  -32.2080 C   0  0  0  0  0  0  0  0  0  0  0  0
   -8.3940   22.6810  -31.6770 Cl  0  0  0  0  0  0  0  0  0  0  0  0
   -1.7866   24.8044  -27.5024 H   0  0  0  0  0  0  0  0  0  0  0  0
   -0.5552   24.5840  -28.7915 H   0  0  0  0  0  0  0  0  0  0  0  0
   -1.6043   26.0420  -28.7915 H   0  0  0  0  0  0  0  0  0  0  0  0
   -1.7054   22.3676  -29.0533 H   0  0  0  0  0  0  0  0  0  0  0  0
   -2.7488   22.5091  -30.5086 H   0  0  0  0  0  0  0  0  0  0  0  0
   -1.1045   23.2323  -30.5086 H   0  0  0  0  0  0  0  0  0  0  0  0
   -3.8942   22.9191  -28.5115 H   0  0  0  0  0  0  0  0  0  0  0  0
   -3.7258   24.4847  -27.6609 H   0  0  0  0  0  0  0  0  0  0  0  0
   -5.8056   23.9117  -29.2892 H   0  0  0  0  0  0  0  0  0  0  0  0
   -5.1258   25.5802  -29.0993 H   0  0  0  0  0  0  0  0  0  0  0  0
   -3.8080   24.0310  -31.1190 H   0  0  0  0  0  0  0  0  0  0  0  0
   -6.6769   24.1762  -30.8219 H   0  0  0  0  0  0  0  0  0  0  0  0
   -6.0551   24.8764  -32.3683 H   0  0  0  0  0  0  0  0  0  0  0  0
   -3.5637   22.8774  -32.4653 H   0  0  0  0  0  0  0  0  0  0  0  0
   -3.5358   20.5792  -33.3808 H   0  0  0  0  0  0  0  0  0  0  0  0
   -7.7580   20.1713  -32.7873 H   0  0  0  0  0  0  0  0  0  0  0  0
  1  2  1  0
  2  3  1  0
  2  4  1  0
  4  5  1  0
  5  6  1  0
  6  7  1  0
  7  8  1  0
  8  9  2  0
  9 10  1  0
 10 11  2  0
 11 12  1  0
 11 13  1  0
 13 14  2  0
 14 15  1  0
 14  8  1  0
  1 16  1  0
  1 17  1  0
  1 18  1  0
  3 19  1  0
  3 20  1  0
  3 21  1  0
  4 22  1  0
  4 23  1  0
  5 24  1  0
  5 25  1  0
  6 26  1  0
  7 27  1  0
  7 28  1  0
  9 29  1  0
 10 30  1  0
 13 31  1  0
M  END
>  <smiles>  (29) 
CN(C)CCNCc1ccc(Cl)cc1Cl

>  <score_type>  (29) 
oracle

>  <origin>  (29) 
adg

>  <m_score__min__energy>  (29) 
-6.75

>  <m_primary>  (29) 
energy

$$$$
29:0
     RDKit          3D

 56 58  0  0  0  0  0  0  0  0999 V2000
   -3.5990   24.5480  -27.0950 C   0  0  0  0  0  0  0  0  0  0  0  0
   -3.6710   24.5470  -28.5260 N   0  0  0  0  0  0  0  0  0  0  0  0
   -2.7710   23.6120  -29.1580 C   0  0  0  0  0  0  0  0  0  0  0  0
   -5.0240   24.3680  -29.0270 C   0  0  0  0  0  0  0  0  0  0  0  0
   -5.3540   25.3060  -30.1360 C   0  0  0  0  0  0  0  0  0  0  0  0
   -5.1500   24.7290  -31.3710 O   0  0  0  0  0  0  0  0  0  0  0  0
   -5.4290   23.4470  -31.7180 C   0  0  0  0  0  0  0  0  0  0  0  0
   -4.3360   22.5850  -31.8520 C   0  0  0  0  0  0  0  0  0  0  0  0
   -4.4620   21.2670  -32.2020 C   0  0  0  0  0  0  0  0  0  0  0  0
   -5.7080   20.7280  -32.4420 C   0  0  0  0  0  0  0  0  0  0  0  0
   -5.9200   19.3350  -32.8170 C   0  0  0  0  0  0  0  0  0  0  0  0
   -6.2620   18.3590  -31.8770 C   0  0  0  0  0  0  0  0  0  0  0  0
   -6.4450   17.0640  -32.3150 C   0  0  0  0  0  0  0  0  0  0  0  0
   -6.3090   16.6820  -33.6330 C   0  0  0  0  0  0  0  0  0  0  0  0
   -6.4770   15.4220  -34.1180 O   0  0  0  0  0  0  0  0  0  0  0  0
   -5.5540   14.4220  -34.3580 C   0  0  0  0  0  0  0  0  0  0  0  0
   -4.2110   14.9230  -34.8230 C   0  0  0  0  0  0  0  0  0  0  0  0
   -3.3570   15.5030  -33.7440 C   0  0  0  0  0  0  0  0  0  0  0  0
   -3.3590   14.8070  -32.5030 N   0  0  0  0  0  0  0  0  0  0  0  0
   -2.2880   13.8840  -32.2950 C   0  0  0  0  0  0  0  0  0  0  0  0
   -4.6200   14.3040  -32.0600 C   0  0  0  0  0  0  0  0  0  0  0  0
   -5.2870   13.5380  -33.1610 C   0  0  0  0  0  0  0  0  0  0  0  0
   -5.9670   17.6810  -34.5490 C   0  0  0  0  0  0  0  0  0  0  0  0
   -5.7800   18.9700  -34.1410 C   0  0  0  0  0  0  0  0  0  0  0  0
   -6.7880   21.5440  -32.3200 C   0  0  0  0  0  0  0  0  0  0  0  0
   -6.6540   22.8950  -31.9620 C   0  0  0  0  0  0  0  0  0  0  0  0
   -4.6163   24.5339  -26.6767 H   0  0  0  0  0  0  0  0  0  0  0  0
   -3.0503   23.6574  -26.7549 H   0  0  0  0  0  0  0  0  0  0  0  0
   -3.0752   25.4535  -26.7549 H   0  0  0  0  0  0  0  0  0  0  0  0
   -2.2275   23.0474  -28.3861 H   0  0  0  0  0  0  0  0  0  0  0  0
   -3.3469   22.9152  -29.7847 H   0  0  0  0  0  0  0  0  0  0  0  0
   -2.0528   24.1609  -29.7847 H   0  0  0  0  0  0  0  0  0  0  0  0
   -5.1297   23.3367  -29.3949 H   0  0  0  0  0  0  0  0  0  0  0  0
   -5.7161   24.5765  -28.1978 H   0  0  0  0  0  0  0  0  0  0  0  0
   -6.4103   25.6009  -30.0507 H   0  0  0  0  0  0  0  0  0  0  0  0
   -4.6919   26.1805  -30.0531 H   0  0  0  0  0  0  0  0  0  0  0  0
   -3.3278   22.9843  -31.6676 H   0  0  0  0  0  0  0  0  0  0  0  0
   -3.5655   20.6359  -32.2920 H   0  0  0  0  0  0  0  0  0  0  0  0
   -6.3822   18.6171  -30.8145 H   0  0  0  0  0  0  0  0  0  0  0  0
   -6.7134   16.2961  -31.5745 H   0  0  0  0  0  0  0  0  0  0  0  0
   -6.0417   13.8471  -35.1591 H   0  0  0  0  0  0  0  0  0  0  0  0
   -3.6678   14.0799  -35.2748 H   0  0  0  0  0  0  0  0  0  0  0  0
   -4.4111   15.7377  -35.5344 H   0  0  0  0  0  0  0  0  0  0  0  0
   -2.3210   15.5296  -34.1129 H   0  0  0  0  0  0  0  0  0  0  0  0
   -3.7846   16.4933  -33.5285 H   0  0  0  0  0  0  0  0  0  0  0  0
   -2.1276   13.7457  -31.2156 H   0  0  0  0  0  0  0  0  0  0  0  0
   -2.5424   12.9176  -32.7547 H   0  0  0  0  0  0  0  0  0  0  0  0
   -1.3697   14.2783  -32.7547 H   0  0  0  0  0  0  0  0  0  0  0  0
   -4.4634   13.6390  -31.1979 H   0  0  0  0  0  0  0  0  0  0  0  0
   -5.2620   15.1491  -31.7707 H   0  0  0  0  0  0  0  0  0  0  0  0
   -4.6339   12.7074  -33.4669 H   0  0  0  0  0  0  0  0  0  0  0  0
   -6.2491   13.1576  -32.7874 H   0  0  0  0  0  0  0  0  0  0  0  0
   -5.8471   17.4251  -35.6121 H   0  0  0  0  0  0  0  0  0  0  0  0
   -5.5116   19.7354  -34.8841 H   0  0  0  0  0  0  0  0  0  0  0  0
   -7.7923   21.1358  -32.5064 H   0  0  0  0  0  0  0  0  0  0  0  0
   -7.5541   23.5215  -31.8763 H   0  0  0  0  0  0  0  0  0  0  0  0
  1  2  1  0
  2  3  1  0
  2  4  1  0
  4  5  1  0
  5  6  1  0
  6  7  1  0
  7  8  2  0
  8  9  1  0
  9 10  2  0
 10 11  1  0
 11 12  2  0
 12 13  1  0
 13 14  2  0
 14 15  1  0
 15 16  1  0
 16 17  1  0
 17 18  1  0
 18 19  1  0
 19 20  1  0
 19 21  1  0
 21 22  1  0
 14 23  1  0
 23 24  2  0
 10 25  1  0
 25 26  2  0
 26  7  1  0
 24 11  1  0
 22 16  1  0
  1 27  1  0
  1 28  1  0
  1 29  1  0
  3 30  1  0
  3 31  1  0
  3 32  1  0
  4 33  1  0
  4 34  1  0
  5 35  1  0
  5 36  1  0
  8 37  1  0
  9 38  1  0
 12 39  1  0
 13 40  1  0
 16 41  1  0
 17 42  1  0
 17 43  1  0
 18 44  1  0
 18 45  1  0
 20 46  1  0
 20 47  1  0
 20 48  1  0
 21 49  1  0
 21 50  1  0
 22 51  1  0
 22 52  1  0
 23 53  1  0
 24 54  1  0
 25 55  1  0
 26 56  1  0
M  END
>  <smiles>  (30) 
CN(C)CCOc1ccc(-c2ccc(OC3CCN(C)CC3)cc2)cc1

>  <score_type>  (30) 
oracle

>  <origin>  (30) 
adg

>  <m_score__min__energy>  (30) 
-7.6900000000000004

>  <m_primary>  (30) 
energy

$$$$
30:0
     RDKit          3D

 47 49  0  0  0  0  0  0  0  0999 V2000
   -3.8770   25.0110  -30.7400 O   0  0  0  0  0  0  0  0  0  0  0  0
   -3.5590   23.7940  -30.5060 C   0  0  0  0  0  0  0  0  0  0  0  0
   -3.7970   22.7950  -31.4330 C   0  0  0  0  0  0  0  0  0  0  0  0
   -3.4500   21.4820  -31.1730 C   0  0  0  0  0  0  0  0  0  0  0  0
   -3.7040   20.4260  -32.1160 N   0  0  0  0  0  0  0  0  0  0  0  0
   -2.8730   20.2340  -33.2740 C   0  0  0  0  0  0  0  0  0  0  0  0
   -3.5320   19.1660  -34.1390 C   0  0  0  0  0  0  0  0  0  0  0  0
   -3.9670   17.9850  -33.3320 C   0  0  0  0  0  0  0  0  0  0  0  0
   -5.3560   18.1300  -32.9990 N   0  0  0  0  0  0  0  0  0  0  0  0
   -6.0720   19.0250  -33.8860 C   0  0  0  0  0  0  0  0  0  0  0  0
   -7.0640   19.7650  -33.0290 C   0  0  0  0  0  0  0  0  0  0  0  0
   -8.2160   19.1330  -32.5630 C   0  0  0  0  0  0  0  0  0  0  0  0
   -9.1200   19.8390  -31.7810 C   0  0  0  0  0  0  0  0  0  0  0  0
   -8.8420   21.1740  -31.4830 C   0  0  0  0  0  0  0  0  0  0  0  0
   -9.7130   21.9000  -30.7160 F   0  0  0  0  0  0  0  0  0  0  0  0
   -7.6920   21.7940  -31.9490 C   0  0  0  0  0  0  0  0  0  0  0  0
   -7.3750   23.2150  -31.6440 C   0  0  0  0  0  0  0  0  0  0  0  0
   -6.6800   23.3110  -30.4440 F   0  0  0  0  0  0  0  0  0  0  0  0
   -6.5140   23.6580  -32.6310 F   0  0  0  0  0  0  0  0  0  0  0  0
   -6.7990   21.0890  -32.7260 C   0  0  0  0  0  0  0  0  0  0  0  0
   -2.8690   21.2280  -29.9740 N   0  0  0  0  0  0  0  0  0  0  0  0
   -2.6310   22.1740  -29.0670 C   0  0  0  0  0  0  0  0  0  0  0  0
   -2.0350   21.9040  -27.8290 C   0  0  0  0  0  0  0  0  0  0  0  0
   -1.8060   22.8950  -26.9120 C   0  0  0  0  0  0  0  0  0  0  0  0
   -2.1430   24.2030  -27.1520 C   0  0  0  0  0  0  0  0  0  0  0  0
   -2.7390   24.5010  -28.3800 C   0  0  0  0  0  0  0  0  0  0  0  0
   -2.9680   23.4900  -29.3020 C   0  0  0  0  0  0  0  0  0  0  0  0
   -4.2702   23.0494  -32.3929 H   0  0  0  0  0  0  0  0  0  0  0  0
   -4.5310   19.8100  -31.9070 H   0  0  0  0  0  0  0  0  0  0  0  0
   -2.7905   21.1752  -33.8373 H   0  0  0  0  0  0  0  0  0  0  0  0
   -1.8609   19.9218  -32.9770 H   0  0  0  0  0  0  0  0  0  0  0  0
   -4.4123   19.6023  -34.6337 H   0  0  0  0  0  0  0  0  0  0  0  0
   -2.7927   18.8210  -34.8769 H   0  0  0  0  0  0  0  0  0  0  0  0
   -3.8226   17.0652  -33.9177 H   0  0  0  0  0  0  0  0  0  0  0  0
   -3.3691   17.9250  -32.4106 H   0  0  0  0  0  0  0  0  0  0  0  0
   -5.8110   17.1840  -33.0210 H   0  0  0  0  0  0  0  0  0  0  0  0
   -5.3741   19.7323  -34.3580 H   0  0  0  0  0  0  0  0  0  0  0  0
   -6.5751   18.4709  -34.6922 H   0  0  0  0  0  0  0  0  0  0  0  0
   -8.4078   18.0793  -32.8139 H   0  0  0  0  0  0  0  0  0  0  0  0
  -10.0346   19.3573  -31.4048 H   0  0  0  0  0  0  0  0  0  0  0  0
   -8.3078   23.7952  -31.5870 H   0  0  0  0  0  0  0  0  0  0  0  0
   -5.8854   21.5732  -33.1014 H   0  0  0  0  0  0  0  0  0  0  0  0
   -2.6000   20.2610  -29.7540 H   0  0  0  0  0  0  0  0  0  0  0  0
   -1.7438   20.8712  -27.5873 H   0  0  0  0  0  0  0  0  0  0  0  0
   -1.3367   22.6338  -25.9520 H   0  0  0  0  0  0  0  0  0  0  0  0
   -1.9511   24.9878  -26.4055 H   0  0  0  0  0  0  0  0  0  0  0  0
   -3.0264   25.5363  -28.6156 H   0  0  0  0  0  0  0  0  0  0  0  0
  1  2  2  0
  2  3  1  0
  3  4  2  0
  4  5  1  0
  5  6  1  0
  6  7  1  0
  7  8  1  0
  8  9  1  0
  9 10  1  0
 10 11  1  0
 11 12  2  0
 12 13  1  0
 13 14  2  0
 14 15  1  0
 14 16  1  0
 16 17  1  0
 17 18  1  0
 17 19  1  0
 16 20  2  0
  4 21  1  0
 21 22  1  0
 22 23  2  0
 23 24  1  0
 24 25  2  0
 25 26  1  0
 26 27  2  0
 27  2  1  0
 20 11  1  0
 27 22  1  0
  3 28  1  0
  5 29  1  0
  6 30  1  0
  6 31  1  0
  7 32  1  0
  7 33  1  0
  8 34  1  0
  8 35  1  0
  9 36  1  0
 10 37  1  0
 10 38  1  0
 12 39  1  0
 13 40  1  0
 17 41  1  0
 20 42  1  0
 21 43  1  0
 23 44  1  0
 24 45  1  0
 25 46  1  0
 26 47  1  0
M  END
>  <smiles>  (31) 
O=c1cc(NCCCNCc2ccc(F)c(C(F)F)c2)[nH]c2ccccc12

>  <score_type>  (31) 
oracle

>  <origin>  (31) 
adg

>  <m_score__min__energy>  (31) 
-8.9299999999999997

>  <m_primary>  (31) 
energy

$$$$
31:0
     RDKit          3D

 35 36  0  0  1  0  0  0  0  0999 V2000
   -6.1910   25.7360  -29.5870 C   0  0  0  0  0  0  0  0  0  0  0  0
   -5.6910   25.0560  -30.7140 O   0  0  0  0  0  0  0  0  0  0  0  0
   -5.8170   23.7100  -30.5030 C   0  0  2  0  0  0  0  0  0  0  0  0
   -4.4930   23.0130  -30.2920 C   0  0  0  0  0  0  0  0  0  0  0  0
   -3.3340   23.7170  -29.6780 C   0  0  0  0  0  0  0  0  0  0  0  0
   -3.1350   24.9480  -30.3350 O   0  0  0  0  0  0  0  0  0  0  0  0
   -4.5840   21.7570  -30.7340 C   0  0  0  0  0  0  0  0  0  0  0  0
   -5.9660   21.6060  -31.2410 C   0  0  2  0  0  0  0  0  0  0  0  0
   -6.2550   20.4410  -31.9770 N   0  0  0  0  0  0  0  0  0  0  0  0
   -5.2090   19.6200  -32.3100 C   0  0  0  0  0  0  0  0  0  0  0  0
   -5.3920   18.4760  -33.0180 C   0  0  0  0  0  0  0  0  0  0  0  0
   -4.2390   17.5870  -33.3750 C   0  0  0  0  0  0  0  0  0  0  0  0
   -6.6660   18.0830  -33.4400 C   0  0  0  0  0  0  0  0  0  0  0  0
   -6.8390   17.0180  -34.0990 O   0  0  0  0  0  0  0  0  0  0  0  0
   -7.6690   18.9060  -33.1000 N   0  0  0  0  0  0  0  0  0  0  0  0
   -7.4680   20.0370  -32.3980 C   0  0  0  0  0  0  0  0  0  0  0  0
   -8.4450   20.7360  -32.1260 O   0  0  0  0  0  0  0  0  0  0  0  0
   -6.2280   22.9440  -31.7860 C   0  0  2  0  0  0  0  0  0  0  0  0
   -5.2810   23.4510  -32.6860 O   0  0  0  0  0  0  0  0  0  0  0  0
   -5.8295   25.2443  -28.6718 H   0  0  0  0  0  0  0  0  0  0  0  0
   -5.8435   26.7795  -29.6044 H   0  0  0  0  0  0  0  0  0  0  0  0
   -7.2907   25.7154  -29.6044 H   0  0  0  0  0  0  0  0  0  0  0  0
   -6.5216   23.6817  -29.6588 H   0  0  0  0  0  0  0  0  0  0  0  0
   -3.5368   23.8980  -28.6121 H   0  0  0  0  0  0  0  0  0  0  0  0
   -2.4313   23.0963  -29.7773 H   0  0  0  0  0  0  0  0  0  0  0  0
   -3.5740   24.9340  -31.2200 H   0  0  0  0  0  0  0  0  0  0  0  0
   -3.7941   20.9915  -30.7236 H   0  0  0  0  0  0  0  0  0  0  0  0
   -6.7218   21.3507  -30.4837 H   0  0  0  0  0  0  0  0  0  0  0  0
   -4.1920   19.8960  -31.9945 H   0  0  0  0  0  0  0  0  0  0  0  0
   -3.7614   17.2187  -32.4551 H   0  0  0  0  0  0  0  0  0  0  0  0
   -4.6032   16.7337  -33.9659 H   0  0  0  0  0  0  0  0  0  0  0  0
   -3.5064   18.1562  -33.9659 H   0  0  0  0  0  0  0  0  0  0  0  0
   -8.6460   18.6450  -33.4000 H   0  0  0  0  0  0  0  0  0  0  0  0
   -7.2119   22.9925  -32.2754 H   0  0  0  0  0  0  0  0  0  0  0  0
   -4.6170   24.0180  -32.2510 H   0  0  0  0  0  0  0  0  0  0  0  0
  1  2  1  0
  2  3  1  0
  3  4  1  0
  4  5  1  0
  5  6  1  0
  4  7  2  0
  7  8  1  0
  8  9  1  0
  9 10  1  0
 10 11  2  0
 11 12  1  0
 11 13  1  0
 13 14  2  0
 13 15  1  0
 15 16  1  0
 16 17  2  0
  8 18  1  0
 18 19  1  0
 18  3  1  0
 16  9  1  0
  1 20  1  0
  1 21  1  0
  1 22  1  0
  3 23  1  1
  5 24  1  0
  5 25  1  0
  6 26  1  0
  7 27  1  0
  8 28  1  1
 10 29  1  0
 12 30  1  0
 12 31  1  0
 12 32  1  0
 15 33  1  0
 18 34  1  6
 19 35  1  0
M  END
>  <smiles>  (32) 
COC1C(CO)=CC(n2cc(C)c(=O)[nH]c2=O)C1O

>  <score_type>  (32) 
oracle

>  <origin>  (32) 
adg

>  <m_score__min__energy>  (32) 
-7.3700000000000001

>  <m_primary>  (32) 
energy

$$$$
32:0
     RDKit          3D

 26 27  0  0  0  0  0  0  0  0999 V2000
   -5.7480   26.0780  -30.1130 C   0  0  0  0  0  0  0  0  0  0  0  0
   -5.1290   25.2440  -31.0750 O   0  0  0  0  0  0  0  0  0  0  0  0
   -5.6570   23.9560  -31.3000 C   0  0  0  0  0  0  0  0  0  0  0  0
   -7.0490   23.7830  -31.3730 C   0  0  0  0  0  0  0  0  0  0  0  0
   -7.5230   22.5100  -31.5960 C   0  0  0  0  0  0  0  0  0  0  0  0
   -6.7190   21.4040  -31.7500 C   0  0  0  0  0  0  0  0  0  0  0  0
   -7.3550   19.8210  -32.0280 Cl  0  0  0  0  0  0  0  0  0  0  0  0
   -5.3550   21.5830  -31.6760 C   0  0  0  0  0  0  0  0  0  0  0  0
   -4.8300   22.8550  -31.4510 C   0  0  0  0  0  0  0  0  0  0  0  0
   -3.3410   23.0430  -31.3650 C   0  0  0  0  0  0  0  0  0  0  0  0
   -2.9450   23.5080  -30.0090 C   0  0  0  0  0  0  0  0  0  0  0  0
   -2.6060   22.8080  -28.9150 N   0  0  0  0  0  0  0  0  0  0  0  0
   -2.3240   23.6430  -27.9050 C   0  0  0  0  0  0  0  0  0  0  0  0
   -2.5060   24.9260  -28.4270 C   0  0  0  0  0  0  0  0  0  0  0  0
   -2.8870   24.8440  -29.7160 N   0  0  0  0  0  0  0  0  0  0  0  0
   -5.4883   25.7281  -29.1030 H   0  0  0  0  0  0  0  0  0  0  0  0
   -5.3971   27.1122  -30.2443 H   0  0  0  0  0  0  0  0  0  0  0  0
   -6.8395   26.0417  -30.2443 H   0  0  0  0  0  0  0  0  0  0  0  0
   -7.7358   24.6343  -31.2562 H   0  0  0  0  0  0  0  0  0  0  0  0
   -8.6122   22.3681  -31.6547 H   0  0  0  0  0  0  0  0  0  0  0  0
   -4.6801   20.7225  -31.7944 H   0  0  0  0  0  0  0  0  0  0  0  0
   -2.8437   22.0851  -31.5773 H   0  0  0  0  0  0  0  0  0  0  0  0
   -3.0384   23.8028  -32.1007 H   0  0  0  0  0  0  0  0  0  0  0  0
   -2.0153   23.3753  -26.8837 H   0  0  0  0  0  0  0  0  0  0  0  0
   -2.3600   25.8626  -27.8689 H   0  0  0  0  0  0  0  0  0  0  0  0
   -3.1070   25.6420  -30.3870 H   0  0  0  0  0  0  0  0  0  0  0  0
  1  2  1  0
  2  3  1  0
  3  4  2  0
  4  5  1  0
  5  6  2  0
  6  7  1  0
  6  8  1  0
  8  9  2  0
  9 10  1  0
 10 11  1  0
 11 12  2  0
 12 13  1  0
 13 14  2  0
 14 15  1  0
  9  3  1  0
 15 11  1  0
  1 16  1  0
  1 17  1  0
  1 18  1  0
  4 19  1  0
  5 20  1  0
  8 21  1  0
 10 22  1  0
 10 23  1  0
 13 24  1  0
 14 25  1  0
 15 26  1  0
M  END
>  <smiles>  (33) 
COc1ccc(Cl)cc1Cc1ncc[nH]1

>  <score_type>  (33) 
oracle

>  <origin>  (33) 
adg

>  <m_score__min__energy>  (33) 
-5.8300000000000001

>  <m_primary>  (33) 
energy

$$$$
33:0
     RDKit          3D

 41 42  0  0  0  0  0  0  0  0999 V2000
   -6.1260   18.8160  -34.2570 C   0  0  0  0  0  0  0  0  0  0  0  0
   -6.8170   19.9310  -33.5300 C   0  0  0  0  0  0  0  0  0  0  0  0
   -7.4720   19.4680  -32.3730 N   0  0  0  0  0  0  0  0  0  0  0  0
   -7.3790   18.0960  -32.0420 C   0  0  0  0  0  0  0  0  0  0  0  0
   -6.1550   17.7940  -31.1990 C   0  0  0  0  0  0  0  0  0  0  0  0
   -8.7160   20.1240  -32.0710 C   0  0  0  0  0  0  0  0  0  0  0  0
   -8.5190   21.5220  -31.5630 C   0  0  0  0  0  0  0  0  0  0  0  0
   -7.2440   22.0760  -31.6860 N   0  0  0  0  0  0  0  0  0  0  0  0
   -7.0500   23.3770  -32.1800 C   0  0  0  0  0  0  0  0  0  0  0  0
   -5.8010   23.9070  -31.5370 C   0  0  0  0  0  0  0  0  0  0  0  0
   -5.7450   25.1280  -30.8580 C   0  0  0  0  0  0  0  0  0  0  0  0
   -4.4730   25.2220  -30.4450 N   0  0  0  0  0  0  0  0  0  0  0  0
   -3.7810   24.1710  -30.8180 N   0  0  0  0  0  0  0  0  0  0  0  0
   -4.5600   23.2960  -31.5160 C   0  0  0  0  0  0  0  0  0  0  0  0
   -4.1300   22.0550  -32.0870 C   0  0  0  0  0  0  0  0  0  0  0  0
   -3.7770   21.5990  -33.3010 C   0  0  0  0  0  0  0  0  0  0  0  0
   -3.4000   20.3320  -33.4840 C   0  0  0  0  0  0  0  0  0  0  0  0
   -3.3910   19.5020  -32.3560 C   0  0  0  0  0  0  0  0  0  0  0  0
   -3.9490   20.5900  -30.9700 S   0  0  0  0  0  0  0  0  0  0  0  0
   -5.6922   18.1161  -33.5276 H   0  0  0  0  0  0  0  0  0  0  0  0
   -6.8529   18.2839  -34.8883 H   0  0  0  0  0  0  0  0  0  0  0  0
   -5.3260   19.2302  -34.8883 H   0  0  0  0  0  0  0  0  0  0  0  0
   -6.0702   20.6848  -33.2399 H   0  0  0  0  0  0  0  0  0  0  0  0
   -7.5719   20.3643  -34.2025 H   0  0  0  0  0  0  0  0  0  0  0  0
   -8.2781   17.8053  -31.4788 H   0  0  0  0  0  0  0  0  0  0  0  0
   -7.2936   17.5266  -32.9793 H   0  0  0  0  0  0  0  0  0  0  0  0
   -6.4188   17.8591  -30.1331 H   0  0  0  0  0  0  0  0  0  0  0  0
   -5.7944   16.7799  -31.4262 H   0  0  0  0  0  0  0  0  0  0  0  0
   -5.3641   18.5239  -31.4262 H   0  0  0  0  0  0  0  0  0  0  0  0
   -9.3253   20.1636  -32.9860 H   0  0  0  0  0  0  0  0  0  0  0  0
   -9.2146   19.5471  -31.2782 H   0  0  0  0  0  0  0  0  0  0  0  0
   -9.2161   22.1734  -32.1105 H   0  0  0  0  0  0  0  0  0  0  0  0
   -8.6932   21.4547  -30.4790 H   0  0  0  0  0  0  0  0  0  0  0  0
   -6.4310   21.4360  -31.6450 H   0  0  0  0  0  0  0  0  0  0  0  0
   -6.9313   23.3525  -33.2733 H   0  0  0  0  0  0  0  0  0  0  0  0
   -7.9136   24.0181  -31.9494 H   0  0  0  0  0  0  0  0  0  0  0  0
   -6.5605   25.8488  -30.6986 H   0  0  0  0  0  0  0  0  0  0  0  0
   -2.7560   24.0800  -30.5760 H   0  0  0  0  0  0  0  0  0  0  0  0
   -3.7993   22.2841  -34.1613 H   0  0  0  0  0  0  0  0  0  0  0  0
   -3.1094   19.9564  -34.4762 H   0  0  0  0  0  0  0  0  0  0  0  0
   -3.1135   18.4388  -32.3060 H   0  0  0  0  0  0  0  0  0  0  0  0
  1  2  1  0
  2  3  1  0
  3  4  1  0
  4  5  1  0
  3  6  1  0
  6  7  1  0
  7  8  1  0
  8  9  1  0
  9 10  1  0
 10 11  1  0
 11 12  2  0
 12 13  1  0
 13 14  1  0
 14 15  1  0
 15 16  2  0
 16 17  1  0
 17 18  2  0
 18 19  1  0
 14 10  2  0
 19 15  1  0
  1 20  1  0
  1 21  1  0
  1 22  1  0
  2 23  1  0
  2 24  1  0
  4 25  1  0
  4 26  1  0
  5 27  1  0
  5 28  1  0
  5 29  1  0
  6 30  1  0
  6 31  1  0
  7 32  1  0
  7 33  1  0
  8 34  1  0
  9 35  1  0
  9 36  1  0
 11 37  1  0
 13 38  1  0
 16 39  1  0
 17 40  1  0
 18 41  1  0
M  END
>  <smiles>  (34) 
CCN(CC)CCNCc1cn[nH]c1-c1cccs1

>  <score_type>  (34) 
oracle

>  <origin>  (34) 
adg

>  <m_score__min__energy>  (34) 
-7.0999999999999996

>  <m_primary>  (34) 
energy

$$$$
34:0
     RDKit          3D

 65 67  0  0  0  0  0  0  0  0999 V2000
    0.2540   21.7010  -36.1460 C   0  0  0  0  0  0  0  0  0  0  0  0
    0.7100   22.2580  -34.9460 O   0  0  0  0  0  0  0  0  0  0  0  0
    1.6770   21.4490  -34.3600 C   0  0  0  0  0  0  0  0  0  0  0  0
    1.2020   20.0190  -34.2840 C   0  0  0  0  0  0  0  0  0  0  0  0
    0.1870   19.8600  -33.2950 N   0  0  0  0  0  0  0  0  0  0  0  0
    0.1260   20.8750  -32.3030 C   0  0  0  0  0  0  0  0  0  0  0  0
   -1.2480   20.9050  -31.6770 C   0  0  0  0  0  0  0  0  0  0  0  0
   -2.2170   21.0890  -32.6860 N   0  0  0  0  0  0  0  0  0  0  0  0
   -3.3180   21.9220  -32.4370 C   0  0  0  0  0  0  0  0  0  0  0  0
   -4.5670   21.3880  -33.0870 C   0  0  0  0  0  0  0  0  0  0  0  0
   -5.7770   21.7760  -32.4210 N   0  0  0  0  0  0  0  0  0  0  0  0
   -5.8100   23.1340  -31.8610 C   0  0  0  0  0  0  0  0  0  0  0  0
   -5.9890   23.1030  -30.3640 C   0  0  0  0  0  0  0  0  0  0  0  0
   -4.6920   23.2390  -29.7350 N   0  0  0  0  0  0  0  0  0  0  0  0
   -4.1080   22.3200  -28.7680 C   0  0  0  0  0  0  0  0  0  0  0  0
   -2.6140   22.5670  -29.0070 C   0  0  0  0  0  0  0  0  0  0  0  0
   -2.6190   24.0970  -29.0510 C   0  0  0  0  0  0  0  0  0  0  0  0
   -3.7720   24.3240  -29.9760 C   0  0  0  0  0  0  0  0  0  0  0  0
   -3.9250   25.2740  -30.8120 O   0  0  0  0  0  0  0  0  0  0  0  0
   -6.9190   20.9440  -32.2710 C   0  0  0  0  0  0  0  0  0  0  0  0
   -8.1840   21.4920  -32.1950 C   0  0  0  0  0  0  0  0  0  0  0  0
   -9.3200   20.7140  -32.0320 C   0  0  0  0  0  0  0  0  0  0  0  0
   -9.1270   19.3500  -31.9490 C   0  0  0  0  0  0  0  0  0  0  0  0
   -7.8690   18.7980  -32.0230 C   0  0  0  0  0  0  0  0  0  0  0  0
   -6.7430   19.5750  -32.1850 C   0  0  0  0  0  0  0  0  0  0  0  0
   -5.4580   19.0610  -32.2670 O   0  0  0  0  0  0  0  0  0  0  0  0
   -5.2280   17.7410  -32.6900 C   0  0  0  0  0  0  0  0  0  0  0  0
   -2.1980   20.2450  -33.8130 C   0  0  0  0  0  0  0  0  0  0  0  0
   -1.0380   19.2980  -33.7380 C   0  0  0  0  0  0  0  0  0  0  0  0
   -0.4289   20.8669  -35.9269 H   0  0  0  0  0  0  0  0  0  0  0  0
   -0.2788   22.4681  -36.7272 H   0  0  0  0  0  0  0  0  0  0  0  0
    1.1112   21.3302  -36.7272 H   0  0  0  0  0  0  0  0  0  0  0  0
    2.5969   21.4924  -34.9616 H   0  0  0  0  0  0  0  0  0  0  0  0
    1.8705   21.8119  -33.3398 H   0  0  0  0  0  0  0  0  0  0  0  0
    0.7970   19.7238  -35.2632 H   0  0  0  0  0  0  0  0  0  0  0  0
    2.0570   19.3843  -34.0079 H   0  0  0  0  0  0  0  0  0  0  0  0
    0.8761   20.6694  -31.5251 H   0  0  0  0  0  0  0  0  0  0  0  0
    0.3305   21.8493  -32.7709 H   0  0  0  0  0  0  0  0  0  0  0  0
   -1.4354   19.9541  -31.1567 H   0  0  0  0  0  0  0  0  0  0  0  0
   -1.3059   21.7333  -30.9555 H   0  0  0  0  0  0  0  0  0  0  0  0
   -3.4793   21.9874  -31.3509 H   0  0  0  0  0  0  0  0  0  0  0  0
   -3.1044   22.9149  -32.8595 H   0  0  0  0  0  0  0  0  0  0  0  0
   -4.6059   21.7599  -34.1215 H   0  0  0  0  0  0  0  0  0  0  0  0
   -4.5108   20.2906  -33.0362 H   0  0  0  0  0  0  0  0  0  0  0  0
   -4.8643   23.6431  -32.0987 H   0  0  0  0  0  0  0  0  0  0  0  0
   -6.6620   23.6719  -32.3023 H   0  0  0  0  0  0  0  0  0  0  0  0
   -6.6397   23.9334  -30.0524 H   0  0  0  0  0  0  0  0  0  0  0  0
   -6.4519   22.1516  -30.0630 H   0  0  0  0  0  0  0  0  0  0  0  0
   -4.4013   22.5744  -27.7388 H   0  0  0  0  0  0  0  0  0  0  0  0
   -4.4221   21.2725  -28.8864 H   0  0  0  0  0  0  0  0  0  0  0  0
   -1.9966   22.1816  -28.1822 H   0  0  0  0  0  0  0  0  0  0  0  0
   -2.1923   22.0729  -29.8947 H   0  0  0  0  0  0  0  0  0  0  0  0
   -2.7998   24.5338  -28.0578 H   0  0  0  0  0  0  0  0  0  0  0  0
   -1.6711   24.5554  -29.3695 H   0  0  0  0  0  0  0  0  0  0  0  0
   -8.2944   22.5841  -32.2663 H   0  0  0  0  0  0  0  0  0  0  0  0
  -10.3233   21.1609  -31.9719 H   0  0  0  0  0  0  0  0  0  0  0  0
   -9.9977   18.6900  -31.8209 H   0  0  0  0  0  0  0  0  0  0  0  0
   -7.7592   17.7059  -31.9508 H   0  0  0  0  0  0  0  0  0  0  0  0
   -5.1144   17.0890  -31.8114 H   0  0  0  0  0  0  0  0  0  0  0  0
   -6.0796   17.3962  -33.2949 H   0  0  0  0  0  0  0  0  0  0  0  0
   -4.3100   17.7045  -33.2949 H   0  0  0  0  0  0  0  0  0  0  0  0
   -3.1343   19.6688  -33.8500 H   0  0  0  0  0  0  0  0  0  0  0  0
   -2.0971   20.8614  -34.7184 H   0  0  0  0  0  0  0  0  0  0  0  0
   -1.3079   18.4871  -33.0455 H   0  0  0  0  0  0  0  0  0  0  0  0
   -0.8580   18.9618  -34.7698 H   0  0  0  0  0  0  0  0  0  0  0  0
  1  2  1  0
  2  3  1  0
  3  4  1  0
  4  5  1  0
  5  6  1  0
  6  7  1  0
  7  8  1  0
  8  9  1  0
  9 10  1  0
 10 11  1  0
 11 12  1  0
 12 13  1  0
 13 14  1  0
 14 15  1  0
 15 16  1  0
 16 17  1  0
 17 18  1  0
 18 19  2  0
 11 20  1  0
 20 21  2  0
 21 22  1  0
 22 23  2  0
 23 24  1  0
 24 25  2  0
 25 26  1  0
 26 27  1  0
  8 28  1  0
 28 29  1  0
 29  5  1  0
 18 14  1  0
 25 20  1  0
  1 30  1  0
  1 31  1  0
  1 32  1  0
  3 33  1  0
  3 34  1  0
  4 35  1  0
  4 36  1  0
  6 37  1  0
  6 38  1  0
  7 39  1  0
  7 40  1  0
  9 41  1  0
  9 42  1  0
 10 43  1  0
 10 44  1  0
 12 45  1  0
 12 46  1  0
 13 47  1  0
 13 48  1  0
 15 49  1  0
 15 50  1  0
 16 51  1  0
 16 52  1  0
 17 53  1  0
 17 54  1  0
 21 55  1  0
 22 56  1  0
 23 57  1  0
 24 58  1  0
 27 59  1  0
 27 60  1  0
 27 61  1  0
 28 62  1  0
 28 63  1  0
 29 64  1  0
 29 65  1  0
M  END
>  <smiles>  (35) 
COCCN1CCN(CCN(CCN2CCCC2=O)c2ccccc2OC)CC1

>  <score_type>  (35) 
oracle

>  <origin>  (35) 
adg

>  <m_score__min__energy>  (35) 
-8.4199999999999999

>  <m_primary>  (35) 
energy

$$$$
35:0
     RDKit          3D

 43 45  0  0  0  0  0  0  0  0999 V2000
   -9.4950   19.7060  -32.4460 C   0  0  0  0  0  0  0  0  0  0  0  0
   -8.7390   20.0630  -31.2070 C   0  0  0  0  0  0  0  0  0  0  0  0
   -8.7750   21.5730  -30.9390 C   0  0  0  0  0  0  0  0  0  0  0  0
   -7.9980   22.2190  -32.0440 C   0  0  0  0  0  0  0  0  0  0  0  0
   -6.5830   22.0790  -31.9250 N   0  0  0  0  0  0  0  0  0  0  0  0
   -5.9260   22.9400  -31.1260 C   0  0  0  0  0  0  0  0  0  0  0  0
   -4.5670   22.9040  -30.9190 C   0  0  0  0  0  0  0  0  0  0  0  0
   -3.9370   23.8880  -30.0270 C   0  0  0  0  0  0  0  0  0  0  0  0
   -3.8550   25.0780  -30.4850 O   0  0  0  0  0  0  0  0  0  0  0  0
   -3.4480   23.5420  -28.7360 N   0  0  0  0  0  0  0  0  0  0  0  0
   -3.5490   22.1740  -28.2240 C   0  0  0  0  0  0  0  0  0  0  0  0
   -2.8500   24.5740  -27.9410 C   0  0  0  0  0  0  0  0  0  0  0  0
   -3.8030   21.9330  -31.5590 C   0  0  0  0  0  0  0  0  0  0  0  0
   -2.5760   21.9320  -31.3460 O   0  0  0  0  0  0  0  0  0  0  0  0
   -4.4690   21.0580  -32.3700 C   0  0  0  0  0  0  0  0  0  0  0  0
   -3.7060   20.0900  -33.0120 C   0  0  0  0  0  0  0  0  0  0  0  0
   -4.3580   19.2060  -33.8340 C   0  0  0  0  0  0  0  0  0  0  0  0
   -5.7240   19.2720  -34.0200 C   0  0  0  0  0  0  0  0  0  0  0  0
   -6.4620   20.2410  -33.3720 C   0  0  0  0  0  0  0  0  0  0  0  0
   -5.8390   21.1440  -32.5400 C   0  0  0  0  0  0  0  0  0  0  0  0
   -6.1050   18.2570  -34.8990 O   0  0  0  0  0  0  0  0  0  0  0  0
   -4.9580   17.5070  -35.2040 C   0  0  0  0  0  0  0  0  0  0  0  0
   -3.8650   18.1510  -34.5930 O   0  0  0  0  0  0  0  0  0  0  0  0
  -10.4578   19.2513  -32.1698 H   0  0  0  0  0  0  0  0  0  0  0  0
   -9.6753   20.6141  -33.0400 H   0  0  0  0  0  0  0  0  0  0  0  0
   -8.9083   18.9898  -33.0400 H   0  0  0  0  0  0  0  0  0  0  0  0
   -9.1879   19.5377  -30.3511 H   0  0  0  0  0  0  0  0  0  0  0  0
   -7.6898   19.7631  -31.3457 H   0  0  0  0  0  0  0  0  0  0  0  0
   -9.8137   21.9350  -30.9427 H   0  0  0  0  0  0  0  0  0  0  0  0
   -8.3437   21.8132  -29.9560 H   0  0  0  0  0  0  0  0  0  0  0  0
   -8.3104   21.7653  -32.9961 H   0  0  0  0  0  0  0  0  0  0  0  0
   -8.2138   23.2964  -31.9935 H   0  0  0  0  0  0  0  0  0  0  0  0
   -6.5091   23.7165  -30.6093 H   0  0  0  0  0  0  0  0  0  0  0  0
   -3.5476   22.1931  -27.1242 H   0  0  0  0  0  0  0  0  0  0  0  0
   -4.4834   21.7167  -28.5816 H   0  0  0  0  0  0  0  0  0  0  0  0
   -2.6919   21.5844  -28.5816 H   0  0  0  0  0  0  0  0  0  0  0  0
   -2.9854   24.3403  -26.8747 H   0  0  0  0  0  0  0  0  0  0  0  0
   -1.7757   24.6365  -28.1691 H   0  0  0  0  0  0  0  0  0  0  0  0
   -3.3299   25.5371  -28.1691 H   0  0  0  0  0  0  0  0  0  0  0  0
   -2.6171   20.0345  -32.8662 H   0  0  0  0  0  0  0  0  0  0  0  0
   -7.5507   20.2923  -33.5204 H   0  0  0  0  0  0  0  0  0  0  0  0
   -5.0607   16.4846  -34.8113 H   0  0  0  0  0  0  0  0  0  0  0  0
   -4.8132   17.4399  -36.2924 H   0  0  0  0  0  0  0  0  0  0  0  0
  1  2  1  0
  2  3  1  0
  3  4  1  0
  4  5  1  0
  5  6  1  0
  6  7  2  0
  7  8  1  0
  8  9  2  0
  8 10  1  0
 10 11  1  0
 10 12  1  0
  7 13  1  0
 13 14  2  0
 13 15  1  0
 15 16  2  0
 16 17  1  0
 17 18  2  0
 18 19  1  0
 19 20  2  0
 18 21  1  0
 21 22  1  0
 22 23  1  0
 20  5  1  0
 20 15  1  0
 23 17  1  0
  1 24  1  0
  1 25  1  0
  1 26  1  0
  2 27  1  0
  2 28  1  0
  3 29  1  0
  3 30  1  0
  4 31  1  0
  4 32  1  0
  6 33  1  0
 11 34  1  0
 11 35  1  0
 11 36  1  0
 12 37  1  0
 12 38  1  0
 12 39  1  0
 16 40  1  0
 19 41  1  0
 22 42  1  0
 22 43  1  0
M  END
>  <smiles>  (36) 
CCCCn1cc(C(=O)N(C)C)c(=O)c2cc3c(cc21)OCO3

>  <score_type>  (36) 
oracle

>  <origin>  (36) 
adg

>  <m_score__min__energy>  (36) 
-7.8499999999999996

>  <m_primary>  (36) 
energy

$$$$
37:0
     RDKit          3D

 37 39  0  0  0  0  0  0  0  0999 V2000
   -7.1290   23.7280  -32.6630 O   0  0  0  0  0  0  0  0  0  0  0  0
   -7.2550   22.8850  -31.7290 C   0  0  0  0  0  0  0  0  0  0  0  0
   -7.1130   23.3930  -30.4030 N   0  0  0  0  0  0  0  0  0  0  0  0
   -6.8440   24.7610  -30.1010 C   0  0  0  0  0  0  0  0  0  0  0  0
   -5.5600   25.2940  -30.7000 C   0  0  0  0  0  0  0  0  0  0  0  0
   -4.4350   24.7010  -29.9020 C   0  0  0  0  0  0  0  0  0  0  0  0
   -4.5900   23.8260  -28.8320 C   0  0  0  0  0  0  0  0  0  0  0  0
   -3.3200   23.5180  -28.3760 C   0  0  0  0  0  0  0  0  0  0  0  0
   -2.4700   24.2390  -29.2110 C   0  0  0  0  0  0  0  0  0  0  0  0
   -3.1420   24.9160  -30.0860 O   0  0  0  0  0  0  0  0  0  0  0  0
   -7.5300   21.4740  -31.9700 C   0  0  0  0  0  0  0  0  0  0  0  0
   -8.8520   21.0660  -31.9720 C   0  0  0  0  0  0  0  0  0  0  0  0
   -9.1930   19.7550  -32.1900 C   0  0  0  0  0  0  0  0  0  0  0  0
   -8.1570   18.8500  -32.4110 C   0  0  0  0  0  0  0  0  0  0  0  0
   -6.8240   19.2760  -32.4070 C   0  0  0  0  0  0  0  0  0  0  0  0
   -6.4970   20.5960  -32.1860 C   0  0  0  0  0  0  0  0  0  0  0  0
   -5.1450   20.9770  -32.1900 N   0  0  0  0  0  0  0  0  0  0  0  0
   -4.4360   21.1580  -31.0370 C   0  0  0  0  0  0  0  0  0  0  0  0
   -3.1430   21.5280  -31.3390 C   0  0  0  0  0  0  0  0  0  0  0  0
   -3.0470   21.5780  -32.7130 C   0  0  0  0  0  0  0  0  0  0  0  0
   -4.2950   21.2340  -33.1980 C   0  0  0  0  0  0  0  0  0  0  0  0
   -7.2220   22.6680  -29.6370 H   0  0  0  0  0  0  0  0  0  0  0  0
   -7.6788   25.3677  -30.4817 H   0  0  0  0  0  0  0  0  0  0  0  0
   -6.7303   24.8243  -29.0087 H   0  0  0  0  0  0  0  0  0  0  0  0
   -5.4785   24.9906  -31.7542 H   0  0  0  0  0  0  0  0  0  0  0  0
   -5.5333   26.3932  -30.6666 H   0  0  0  0  0  0  0  0  0  0  0  0
   -5.5407   23.4504  -28.4256 H   0  0  0  0  0  0  0  0  0  0  0  0
   -3.0446   22.8544  -27.5431 H   0  0  0  0  0  0  0  0  0  0  0  0
   -1.3725   24.2338  -29.1368 H   0  0  0  0  0  0  0  0  0  0  0  0
   -9.6453   21.8073  -31.7953 H   0  0  0  0  0  0  0  0  0  0  0  0
  -10.2442   19.4308  -32.1903 H   0  0  0  0  0  0  0  0  0  0  0  0
   -8.3892   17.7899  -32.5904 H   0  0  0  0  0  0  0  0  0  0  0  0
   -6.0226   18.5435  -32.5835 H   0  0  0  0  0  0  0  0  0  0  0  0
   -4.8363   21.0281  -30.0207 H   0  0  0  0  0  0  0  0  0  0  0  0
   -2.3394   21.7428  -30.6192 H   0  0  0  0  0  0  0  0  0  0  0  0
   -2.1569   21.8390  -33.3044 H   0  0  0  0  0  0  0  0  0  0  0  0
   -4.5566   21.1783  -34.2650 H   0  0  0  0  0  0  0  0  0  0  0  0
  1  2  2  0
  2  3  1  0
  3  4  1  0
  4  5  1  0
  5  6  1  0
  6  7  2  0
  7  8  1  0
  8  9  2  0
  9 10  1  0
  2 11  1  0
 11 12  2  0
 12 13  1  0
 13 14  2  0
 14 15  1  0
 15 16  2  0
 16 17  1  0
 17 18  1  0
 18 19  2  0
 19 20  1  0
 20 21  2  0
 10  6  1  0
 16 11  1  0
 21 17  1  0
  3 22  1  0
  4 23  1  0
  4 24  1  0
  5 25  1  0
  5 26  1  0
  7 27  1  0
  8 28  1  0
  9 29  1  0
 12 30  1  0
 13 31  1  0
 14 32  1  0
 15 33  1  0
 18 34  1  0
 19 35  1  0
 20 36  1  0
 21 37  1  0
M  END
>  <smiles>  (37) 
O=C(NCCc1ccco1)c1ccccc1-n1cccc1

>  <score_type>  (37) 
oracle

>  <origin>  (37) 
adg

>  <m_score__min__energy>  (37) 
-8.3399999999999999

>  <m_primary>  (37) 
energy

$$$$
38:0
     RDKit          3D

 60 64  0  0  1  0  0  0  0  0999 V2000
   -5.3900   25.1480  -30.1910 C   0  0  0  0  0  0  0  0  0  0  0  0
   -4.0010   25.0210  -30.3870 O   0  0  0  0  0  0  0  0  0  0  0  0
   -3.3660   23.8120  -30.6270 C   0  0  0  0  0  0  0  0  0  0  0  0
   -2.2220   23.4230  -29.9390 C   0  0  0  0  0  0  0  0  0  0  0  0
   -1.6260   22.1980  -30.2200 C   0  0  0  0  0  0  0  0  0  0  0  0
   -2.2100   21.4260  -31.1760 C   0  0  0  0  0  0  0  0  0  0  0  0
   -1.6560   20.0830  -31.5640 C   0  0  0  0  0  0  0  0  0  0  0  0
   -1.9000   19.1190  -32.1010 N   0  0  0  0  0  0  0  0  0  0  0  0
   -1.2210   18.0150  -32.3300 C   0  0  0  0  0  0  0  0  0  0  0  0
   -1.7230   16.8340  -33.0700 C   0  0  2  0  0  0  0  0  0  0  0  0
   -0.7860   16.3490  -34.1180 C   0  0  0  0  0  0  0  0  0  0  0  0
   -1.5060   16.1690  -35.4220 C   0  0  0  0  0  0  0  0  0  0  0  0
   -2.7880   15.3530  -35.2920 C   0  0  0  0  0  0  0  0  0  0  0  0
   -3.5340   15.8150  -34.1680 N   0  0  0  0  0  0  0  0  0  0  0  0
   -4.9340   15.6390  -34.2960 C   0  0  0  0  0  0  0  0  0  0  0  0
   -5.6220   16.8350  -33.7470 C   0  0  0  0  0  0  0  0  0  0  0  0
   -5.7740   17.9380  -34.5960 C   0  0  0  0  0  0  0  0  0  0  0  0
   -6.4030   19.0940  -34.1740 C   0  0  0  0  0  0  0  0  0  0  0  0
   -6.8940   19.1560  -32.8800 C   0  0  0  0  0  0  0  0  0  0  0  0
   -7.5580   20.3810  -32.4420 C   0  0  0  0  0  0  0  0  0  0  0  0
   -8.8950   20.4260  -32.0970 C   0  0  0  0  0  0  0  0  0  0  0  0
   -9.4870   21.6030  -31.6880 C   0  0  0  0  0  0  0  0  0  0  0  0
   -8.7330   22.7790  -31.6160 C   0  0  0  0  0  0  0  0  0  0  0  0
   -7.3800   22.7440  -31.9620 C   0  0  0  0  0  0  0  0  0  0  0  0
   -6.7970   21.5530  -32.3720 C   0  0  0  0  0  0  0  0  0  0  0  0
   -6.7510   18.0680  -32.0250 C   0  0  0  0  0  0  0  0  0  0  0  0
   -6.1140   16.9130  -32.4650 C   0  0  0  0  0  0  0  0  0  0  0  0
   -3.0800   17.0910  -33.6900 C   0  0  0  0  0  0  0  0  0  0  0  0
    0.0890   18.1310  -31.7520 C   0  0  0  0  0  0  0  0  0  0  0  0
    0.1490   19.7440  -30.9930 S   0  0  0  0  0  0  0  0  0  0  0  0
   -3.3400   21.7840  -31.8720 C   0  0  0  0  0  0  0  0  0  0  0  0
   -3.9380   22.9950  -31.6010 C   0  0  0  0  0  0  0  0  0  0  0  0
   -5.6079   25.1679  -29.1130 H   0  0  0  0  0  0  0  0  0  0  0  0
   -5.7417   26.0820  -30.6535 H   0  0  0  0  0  0  0  0  0  0  0  0
   -5.9052   24.2932  -30.6535 H   0  0  0  0  0  0  0  0  0  0  0  0
   -1.7888   24.0833  -29.1733 H   0  0  0  0  0  0  0  0  0  0  0  0
   -0.7200   21.8671  -29.6912 H   0  0  0  0  0  0  0  0  0  0  0  0
   -1.8126   16.0428  -32.3111 H   0  0  0  0  0  0  0  0  0  0  0  0
    0.0225   17.0832  -34.2490 H   0  0  0  0  0  0  0  0  0  0  0  0
   -0.3703   15.3803  -33.8037 H   0  0  0  0  0  0  0  0  0  0  0  0
   -1.7623   17.1619  -35.8200 H   0  0  0  0  0  0  0  0  0  0  0  0
   -0.8329   15.6161  -36.0938 H   0  0  0  0  0  0  0  0  0  0  0  0
   -3.3907   15.4692  -36.2048 H   0  0  0  0  0  0  0  0  0  0  0  0
   -2.5344   14.2918  -35.1525 H   0  0  0  0  0  0  0  0  0  0  0  0
   -5.1952   15.5177  -35.3576 H   0  0  0  0  0  0  0  0  0  0  0  0
   -5.2486   14.7417  -33.7429 H   0  0  0  0  0  0  0  0  0  0  0  0
   -5.3836   17.8832  -35.6229 H   0  0  0  0  0  0  0  0  0  0  0  0
   -6.5120   19.9512  -34.8547 H   0  0  0  0  0  0  0  0  0  0  0  0
   -9.4979   19.5074  -32.1493 H   0  0  0  0  0  0  0  0  0  0  0  0
  -10.5533   21.6167  -31.4182 H   0  0  0  0  0  0  0  0  0  0  0  0
   -9.2000   23.7203  -31.2907 H   0  0  0  0  0  0  0  0  0  0  0  0
   -6.7758   23.6617  -31.9094 H   0  0  0  0  0  0  0  0  0  0  0  0
   -5.7312   21.5304  -32.6433 H   0  0  0  0  0  0  0  0  0  0  0  0
   -7.1427   18.1215  -30.9985 H   0  0  0  0  0  0  0  0  0  0  0  0
   -6.0029   16.0566  -31.7837 H   0  0  0  0  0  0  0  0  0  0  0  0
   -2.9928   17.8042  -34.5229 H   0  0  0  0  0  0  0  0  0  0  0  0
   -3.7827   17.5276  -32.9650 H   0  0  0  0  0  0  0  0  0  0  0  0
    0.8913   17.3787  -31.7732 H   0  0  0  0  0  0  0  0  0  0  0  0
   -3.7610   21.1127  -32.6349 H   0  0  0  0  0  0  0  0  0  0  0  0
   -4.8441   23.3095  -32.1396 H   0  0  0  0  0  0  0  0  0  0  0  0
  1  2  1  0
  2  3  1  0
  3  4  2  0
  4  5  1  0
  5  6  2  0
  6  7  1  0
  7  8  2  0
  8  9  1  0
  9 10  1  0
 10 11  1  0
 11 12  1  0
 12 13  1  0
 13 14  1  0
 14 15  1  0
 15 16  1  0
 16 17  2  0
 17 18  1  0
 18 19  2  0
 19 20  1  0
 20 21  2  0
 21 22  1  0
 22 23  2  0
 23 24  1  0
 24 25  2  0
 19 26  1  0
 26 27  2  0
 14 28  1  0
  9 29  2  0
 29 30  1  0
  6 31  1  0
 31 32  2  0
 32  3  1  0
 30  7  1  0
 28 10  1  0
 27 16  1  0
 25 20  1  0
  1 33  1  0
  1 34  1  0
  1 35  1  0
  4 36  1  0
  5 37  1  0
 10 38  1  1
 11 39  1  0
 11 40  1  0
 12 41  1  0
 12 42  1  0
 13 43  1  0
 13 44  1  0
 15 45  1  0
 15 46  1  0
 17 47  1  0
 18 48  1  0
 21 49  1  0
 22 50  1  0
 23 51  1  0
 24 52  1  0
 25 53  1  0
 26 54  1  0
 27 55  1  0
 28 56  1  0
 28 57  1  0
 29 58  1  0
 31 59  1  0
 32 60  1  0
M  END
>  <smiles>  (38) 
COc1ccc(-c2nc(C3CCCN(Cc4ccc(-c5ccccc5)cc4)C3)cs2)cc1

>  <score_type>  (38) 
oracle

>  <origin>  (38) 
adg

>  <m_score__min__energy>  (38) 
-10.380000000000001

>  <m_primary>  (38) 
energy

$$$$
39:0
     RDKit          3D

 47 49  0  0  0  0  0  0  0  0999 V2000
   -2.8810   24.3210  -29.0630 C   0  0  0  0  0  0  0  0  0  0  0  0
   -3.5730   25.0360  -30.0850 O   0  0  0  0  0  0  0  0  0  0  0  0
   -4.8170   24.5940  -30.5290 C   0  0  0  0  0  0  0  0  0  0  0  0
   -5.9890   25.0390  -29.9260 C   0  0  0  0  0  0  0  0  0  0  0  0
   -7.2290   24.5840  -30.3840 C   0  0  0  0  0  0  0  0  0  0  0  0
   -7.3110   23.6940  -31.4320 C   0  0  0  0  0  0  0  0  0  0  0  0
   -8.5830   23.1640  -31.9710 C   0  0  0  0  0  0  0  0  0  0  0  0
   -8.8920   21.9360  -31.3370 N   0  0  0  0  0  0  0  0  0  0  0  0
   -9.6470   20.9810  -32.0560 C   0  0  0  0  0  0  0  0  0  0  0  0
   -8.8110   20.1590  -33.0080 C   0  0  0  0  0  0  0  0  0  0  0  0
   -7.5410   19.7810  -32.4100 N   0  0  0  0  0  0  0  0  0  0  0  0
   -6.8200   18.7190  -33.0220 C   0  0  0  0  0  0  0  0  0  0  0  0
   -6.1070   18.8790  -34.1930 C   0  0  0  0  0  0  0  0  0  0  0  0
   -5.4060   17.8370  -34.7870 C   0  0  0  0  0  0  0  0  0  0  0  0
   -5.4000   16.5820  -34.2120 C   0  0  0  0  0  0  0  0  0  0  0  0
   -4.7170   15.5040  -34.7610 O   0  0  0  0  0  0  0  0  0  0  0  0
   -3.3170   15.5870  -34.9440 C   0  0  0  0  0  0  0  0  0  0  0  0
   -6.1020   16.4000  -33.0500 C   0  0  0  0  0  0  0  0  0  0  0  0
   -6.7930   17.4390  -32.4690 C   0  0  0  0  0  0  0  0  0  0  0  0
   -6.9720   20.4040  -31.2540 C   0  0  0  0  0  0  0  0  0  0  0  0
   -7.8250   21.3850  -30.5470 C   0  0  0  0  0  0  0  0  0  0  0  0
   -6.1240   23.2680  -32.0150 C   0  0  0  0  0  0  0  0  0  0  0  0
   -4.8880   23.7020  -31.5790 C   0  0  0  0  0  0  0  0  0  0  0  0
   -3.2199   24.6712  -28.0768 H   0  0  0  0  0  0  0  0  0  0  0  0
   -3.0901   23.2456  -29.1620 H   0  0  0  0  0  0  0  0  0  0  0  0
   -1.7993   24.4948  -29.1620 H   0  0  0  0  0  0  0  0  0  0  0  0
   -5.9400   25.7497  -29.0879 H   0  0  0  0  0  0  0  0  0  0  0  0
   -8.1507   24.9412  -29.9014 H   0  0  0  0  0  0  0  0  0  0  0  0
   -9.3902   23.8869  -31.7821 H   0  0  0  0  0  0  0  0  0  0  0  0
   -8.4813   23.0008  -33.0541 H   0  0  0  0  0  0  0  0  0  0  0  0
  -10.1282   20.3018  -31.3368 H   0  0  0  0  0  0  0  0  0  0  0  0
  -10.3838   21.5321  -32.6589 H   0  0  0  0  0  0  0  0  0  0  0  0
   -9.3657   19.2475  -33.2755 H   0  0  0  0  0  0  0  0  0  0  0  0
   -8.6050   20.7676  -33.9008 H   0  0  0  0  0  0  0  0  0  0  0  0
   -6.0933   19.8683  -34.6737 H   0  0  0  0  0  0  0  0  0  0  0  0
   -4.8524   18.0130  -35.7211 H   0  0  0  0  0  0  0  0  0  0  0  0
   -2.8201   15.6165  -33.9631 H   0  0  0  0  0  0  0  0  0  0  0  0
   -2.9679   14.7080  -35.5056 H   0  0  0  0  0  0  0  0  0  0  0  0
   -3.0742   16.5011  -35.5056 H   0  0  0  0  0  0  0  0  0  0  0  0
   -6.1137   15.4084  -32.5739 H   0  0  0  0  0  0  0  0  0  0  0  0
   -7.3436   17.2531  -31.5351 H   0  0  0  0  0  0  0  0  0  0  0  0
   -6.7132   19.6092  -30.5390 H   0  0  0  0  0  0  0  0  0  0  0  0
   -6.1122   20.9801  -31.6265 H   0  0  0  0  0  0  0  0  0  0  0  0
   -8.2689   20.8855  -29.6733 H   0  0  0  0  0  0  0  0  0  0  0  0
   -7.1709   22.2279  -30.2793 H   0  0  0  0  0  0  0  0  0  0  0  0
   -6.1707   22.5590  -32.8547 H   0  0  0  0  0  0  0  0  0  0  0  0
   -3.9693   23.3403  -32.0639 H   0  0  0  0  0  0  0  0  0  0  0  0
  1  2  1  0
  2  3  1  0
  3  4  2  0
  4  5  1  0
  5  6  2  0
  6  7  1  0
  7  8  1  0
  8  9  1  0
  9 10  1  0
 10 11  1  0
 11 12  1  0
 12 13  2  0
 13 14  1  0
 14 15  2  0
 15 16  1  0
 16 17  1  0
 15 18  1  0
 18 19  2  0
 11 20  1  0
 20 21  1  0
  6 22  1  0
 22 23  2  0
 23  3  1  0
 21  8  1  0
 19 12  1  0
  1 24  1  0
  1 25  1  0
  1 26  1  0
  4 27  1  0
  5 28  1  0
  7 29  1  0
  7 30  1  0
  9 31  1  0
  9 32  1  0
 10 33  1  0
 10 34  1  0
 13 35  1  0
 14 36  1  0
 17 37  1  0
 17 38  1  0
 17 39  1  0
 18 40  1  0
 19 41  1  0
 20 42  1  0
 20 43  1  0
 21 44  1  0
 21 45  1  0
 22 46  1  0
 23 47  1  0
M  END
>  <smiles>  (39) 
COc1ccc(CN2CCN(c3ccc(OC)cc3)CC2)cc1

>  <score_type>  (39) 
oracle

>  <origin>  (39) 
adg

>  <m_score__min__energy>  (39) 
-8.2599999999999998

>  <m_primary>  (39) 
energy

$$$$
40:0
     RDKit          3D

 40 42  0  0  0  0  0  0  0  0999 V2000
   -5.3770   26.0230  -30.4810 C   0  0  0  0  0  0  0  0  0  0  0  0
   -4.8580   24.6840  -30.6150 N   0  0  0  0  0  0  0  0  0  0  0  0
   -3.5840   24.4880  -29.9940 C   0  0  0  0  0  0  0  0  0  0  0  0
   -5.8100   23.6590  -30.3650 C   0  0  0  0  0  0  0  0  0  0  0  0
   -6.8410   23.5510  -31.5270 C   0  0  0  0  0  0  0  0  0  0  0  0
   -6.3310   22.6650  -32.4910 N   0  0  0  0  0  0  0  0  0  0  0  0
   -6.0380   21.3010  -32.5800 C   0  0  0  0  0  0  0  0  0  0  0  0
   -6.9220   20.2640  -32.3950 C   0  0  0  0  0  0  0  0  0  0  0  0
   -8.2390   20.5390  -32.0640 C   0  0  0  0  0  0  0  0  0  0  0  0
   -9.1560   19.5130  -31.8670 C   0  0  0  0  0  0  0  0  0  0  0  0
   -8.8220   18.1850  -31.9830 C   0  0  0  0  0  0  0  0  0  0  0  0
   -7.5210   17.8990  -32.3100 C   0  0  0  0  0  0  0  0  0  0  0  0
   -6.6290   18.9230  -32.5020 C   0  0  0  0  0  0  0  0  0  0  0  0
   -5.3720   18.5900  -32.8150 N   0  0  0  0  0  0  0  0  0  0  0  0
   -4.9770   17.2030  -32.9510 C   0  0  0  0  0  0  0  0  0  0  0  0
   -4.5040   19.5540  -32.9980 C   0  0  0  0  0  0  0  0  0  0  0  0
   -2.7100   19.3370  -33.4350 S   0  0  0  0  0  0  0  0  0  0  0  0
   -2.4140   21.1600  -33.4570 C   0  0  0  0  0  0  0  0  0  0  0  0
   -3.6290   21.7000  -33.1500 C   0  0  0  0  0  0  0  0  0  0  0  0
   -4.6890   20.9130  -32.9160 C   0  0  0  0  0  0  0  0  0  0  0  0
   -5.4741   26.2736  -29.4143 H   0  0  0  0  0  0  0  0  0  0  0  0
   -4.6889   26.7329  -30.9632 H   0  0  0  0  0  0  0  0  0  0  0  0
   -6.3638   26.0837  -30.9632 H   0  0  0  0  0  0  0  0  0  0  0  0
   -3.7024   24.5062  -28.9005 H   0  0  0  0  0  0  0  0  0  0  0  0
   -3.1716   23.5158  -30.3020 H   0  0  0  0  0  0  0  0  0  0  0  0
   -2.8985   25.2913  -30.3020 H   0  0  0  0  0  0  0  0  0  0  0  0
   -5.2840   22.6984  -30.2618 H   0  0  0  0  0  0  0  0  0  0  0  0
   -6.3524   23.9060  -29.4405 H   0  0  0  0  0  0  0  0  0  0  0  0
   -7.7976   23.1693  -31.1407 H   0  0  0  0  0  0  0  0  0  0  0  0
   -7.0104   24.5411  -31.9754 H   0  0  0  0  0  0  0  0  0  0  0  0
   -6.0990   23.2020  -33.4190 H   0  0  0  0  0  0  0  0  0  0  0  0
   -8.5637   21.5844  -31.9555 H   0  0  0  0  0  0  0  0  0  0  0  0
  -10.1923   19.7750  -31.6074 H   0  0  0  0  0  0  0  0  0  0  0  0
   -9.5634   17.3886  -31.8212 H   0  0  0  0  0  0  0  0  0  0  0  0
   -7.1948   16.8540  -32.4177 H   0  0  0  0  0  0  0  0  0  0  0  0
   -4.8503   16.7583  -31.9529 H   0  0  0  0  0  0  0  0  0  0  0  0
   -5.7541   16.6527  -33.5017 H   0  0  0  0  0  0  0  0  0  0  0  0
   -4.0266   17.1447  -33.5017 H   0  0  0  0  0  0  0  0  0  0  0  0
   -1.4734   21.6894  -33.6691 H   0  0  0  0  0  0  0  0  0  0  0  0
   -3.7400   22.7929  -33.0939 H   0  0  0  0  0  0  0  0  0  0  0  0
  1  2  1  0
  2  3  1  0
  2  4  1  0
  4  5  1  0
  5  6  1  0
  6  7  1  0
  7  8  2  0
  8  9  1  0
  9 10  2  0
 10 11  1  0
 11 12  2  0
 12 13  1  0
 13 14  2  0
 14 15  1  0
 14 16  1  0
 16 17  1  0
 17 18  1  0
 18 19  2  0
 19 20  1  0
 20  7  1  0
 13  8  1  0
 20 16  2  0
  1 21  1  0
  1 22  1  0
  1 23  1  0
  3 24  1  0
  3 25  1  0
  3 26  1  0
  4 27  1  0
  4 28  1  0
  5 29  1  0
  5 30  1  0
  6 31  1  0
  9 32  1  0
 10 33  1  0
 11 34  1  0
 12 35  1  0
 15 36  1  0
 15 37  1  0
 15 38  1  0
 18 39  1  0
 19 40  1  0
M  CHG  1  14   1
M  END
>  <smiles>  (40) 
CN(C)CCNc1c2ccccc2[n+](C)c2sccc12

>  <score_type>  (40) 
oracle

>  <origin>  (40) 
adg

>  <m_score__min__energy>  (40) 
-7.6100000000000003

>  <m_primary>  (40) 
energy

$$$$
41:0
     RDKit          3D

 53 55  0  0  0  0  0  0  0  0999 V2000
   -1.2470   21.1750  -32.0050 C   0  0  0  0  0  0  0  0  0  0  0  0
   -2.1350   21.0980  -33.2270 C   0  0  0  0  0  0  0  0  0  0  0  0
   -1.7460   20.1200  -34.1830 N   0  0  0  0  0  0  0  0  0  0  0  0
   -0.6330   20.4860  -35.0150 C   0  0  0  0  0  0  0  0  0  0  0  0
    0.2670   19.3670  -35.4090 C   0  0  0  0  0  0  0  0  0  0  0  0
   -1.3790   18.8800  -33.5190 C   0  0  0  0  0  0  0  0  0  0  0  0
   -2.5930   18.1040  -33.0920 C   0  0  0  0  0  0  0  0  0  0  0  0
   -3.7330   18.5790  -33.8300 N   0  0  0  0  0  0  0  0  0  0  0  0
   -5.0770   18.5800  -33.3940 C   0  0  0  0  0  0  0  0  0  0  0  0
   -5.9000   17.4940  -33.5370 C   0  0  0  0  0  0  0  0  0  0  0  0
   -7.2140   17.4310  -33.1110 C   0  0  0  0  0  0  0  0  0  0  0  0
   -7.7170   18.5540  -32.4980 C   0  0  0  0  0  0  0  0  0  0  0  0
   -9.1130   18.5800  -32.0090 C   0  0  0  0  0  0  0  0  0  0  0  0
   -6.8940   19.6540  -32.3480 C   0  0  0  0  0  0  0  0  0  0  0  0
   -7.1930   21.2650  -31.6080 S   0  0  0  0  0  0  0  0  0  0  0  0
   -5.4700   21.8360  -31.9730 C   0  0  0  0  0  0  0  0  0  0  0  0
   -5.0850   23.1720  -31.5720 N   0  0  0  0  0  0  0  0  0  0  0  0
   -5.9560   24.2910  -31.5970 C   0  0  0  0  0  0  0  0  0  0  0  0
   -5.7410   25.2940  -30.5140 C   0  0  0  0  0  0  0  0  0  0  0  0
   -4.5520   25.1640  -29.7550 N   0  0  0  0  0  0  0  0  0  0  0  0
   -3.9300   23.8820  -29.6860 C   0  0  0  0  0  0  0  0  0  0  0  0
   -3.7240   23.3500  -31.1140 C   0  0  0  0  0  0  0  0  0  0  0  0
   -5.0120   20.8830  -32.5080 N   0  0  0  0  0  0  0  0  0  0  0  0
   -5.6000   19.7310  -32.7610 C   0  0  0  0  0  0  0  0  0  0  0  0
   -1.8665   21.1213  -31.0976 H   0  0  0  0  0  0  0  0  0  0  0  0
   -0.5368   20.3351  -32.0143 H   0  0  0  0  0  0  0  0  0  0  0  0
   -0.6919   22.1246  -32.0143 H   0  0  0  0  0  0  0  0  0  0  0  0
   -3.1569   20.8641  -32.8939 H   0  0  0  0  0  0  0  0  0  0  0  0
   -2.0566   22.0730  -33.7302 H   0  0  0  0  0  0  0  0  0  0  0  0
   -1.0317   20.9402  -35.9341 H   0  0  0  0  0  0  0  0  0  0  0  0
   -0.0180   21.1712  -34.4131 H   0  0  0  0  0  0  0  0  0  0  0  0
    0.6606   18.8776  -34.5059 H   0  0  0  0  0  0  0  0  0  0  0  0
   -0.2972   18.6355  -36.0061 H   0  0  0  0  0  0  0  0  0  0  0  0
    1.1025   19.7613  -36.0061 H   0  0  0  0  0  0  0  0  0  0  0  0
   -0.7871   18.2647  -34.2126 H   0  0  0  0  0  0  0  0  0  0  0  0
   -0.7949   19.1291  -32.6208 H   0  0  0  0  0  0  0  0  0  0  0  0
   -2.4390   17.0345  -33.2983 H   0  0  0  0  0  0  0  0  0  0  0  0
   -2.7632   18.2416  -32.0140 H   0  0  0  0  0  0  0  0  0  0  0  0
   -3.5180   18.9650  -34.8010 H   0  0  0  0  0  0  0  0  0  0  0  0
   -5.4830   16.6029  -34.0290 H   0  0  0  0  0  0  0  0  0  0  0  0
   -7.8257   16.5282  -33.2553 H   0  0  0  0  0  0  0  0  0  0  0  0
   -9.1163   18.5801  -30.9090 H   0  0  0  0  0  0  0  0  0  0  0  0
   -9.6136   19.4876  -32.3772 H   0  0  0  0  0  0  0  0  0  0  0  0
   -9.6471   17.6916  -32.3772 H   0  0  0  0  0  0  0  0  0  0  0  0
   -5.8253   24.8012  -32.5627 H   0  0  0  0  0  0  0  0  0  0  0  0
   -6.9686   23.8902  -31.4420 H   0  0  0  0  0  0  0  0  0  0  0  0
   -5.7324   26.2907  -30.9793 H   0  0  0  0  0  0  0  0  0  0  0  0
   -6.5605   25.1286  -29.7991 H   0  0  0  0  0  0  0  0  0  0  0  0
   -4.6080   25.5450  -28.7930 H   0  0  0  0  0  0  0  0  0  0  0  0
   -2.9567   23.9706  -29.1811 H   0  0  0  0  0  0  0  0  0  0  0  0
   -4.5682   23.1885  -29.1187 H   0  0  0  0  0  0  0  0  0  0  0  0
   -3.1853   24.0787  -31.7375 H   0  0  0  0  0  0  0  0  0  0  0  0
   -3.1183   22.4330  -31.1609 H   0  0  0  0  0  0  0  0  0  0  0  0
  1  2  1  0
  2  3  1  0
  3  4  1  0
  4  5  1  0
  3  6  1  0
  6  7  1  0
  7  8  1  0
  8  9  1  0
  9 10  2  0
 10 11  1  0
 11 12  2  0
 12 13  1  0
 12 14  1  0
 14 15  1  0
 15 16  1  0
 16 17  1  0
 17 18  1  0
 18 19  1  0
 19 20  1  0
 20 21  1  0
 21 22  1  0
 16 23  2  0
 23 24  1  0
 24  9  1  0
 24 14  2  0
 22 17  1  0
  1 25  1  0
  1 26  1  0
  1 27  1  0
  2 28  1  0
  2 29  1  0
  4 30  1  0
  4 31  1  0
  5 32  1  0
  5 33  1  0
  5 34  1  0
  6 35  1  0
  6 36  1  0
  7 37  1  0
  7 38  1  0
  8 39  1  0
 10 40  1  0
 11 41  1  0
 13 42  1  0
 13 43  1  0
 13 44  1  0
 18 45  1  0
 18 46  1  0
 19 47  1  0
 19 48  1  0
 20 49  1  0
 21 50  1  0
 21 51  1  0
 22 52  1  0
 22 53  1  0
M  END
>  <smiles>  (41) 
CCN(CC)CCNc1ccc(C)c2sc(N3CCNCC3)nc12

>  <score_type>  (41) 
oracle

>  <origin>  (41) 
adg

>  <m_score__min__energy>  (41) 
-7.7999999999999998

>  <m_primary>  (41) 
energy

$$$$
