0:0
     RDKit          3D

 75 78  0  0  0  0  0  0  0  0999 V2000
   -2.1360   15.5450  -32.7620 C   0  0  0  0  0  0  0  0  0  0  0  0
   -2.9910   15.5240  -34.0330 C   0  0  0  0  0  0  0  0  0  0  0  0
   -4.3840   15.0730  -33.7390 N   0  0  0  0  0  0  0  0  0  0  0  0
   -4.5380   14.9500  -32.2520 C   0  0  0  0  0  0  0  0  0  0  0  0
   -4.6040   13.5080  -31.7510 C   0  0  0  0  0  0  0  0  0  0  0  0
   -5.4620   15.9470  -34.3380 C   0  0  2  0  0  0  0  0  0  0  0  0
   -4.8470   17.2600  -34.9290 C   0  0  0  0  0  0  0  0  0  0  0  0
   -5.4760   18.5510  -34.3960 C   0  0  0  0  0  0  0  0  0  0  0  0
   -5.5220   18.5030  -32.9200 N   0  0  1  0  0  0  0  0  0  0  0  0
   -5.7760   19.8320  -32.3100 C   0  0  0  0  0  0  0  0  0  0  0  0
   -4.8810   20.9810  -32.8610 C   0  0  0  0  0  0  0  0  0  0  0  0
   -3.5140   21.1850  -32.1300 C   0  0  2  0  0  0  0  0  0  0  0  0
   -2.4240   20.5530  -33.0120 C   0  0  0  0  0  0  0  0  0  0  0  0
   -2.4220   19.1660  -33.2760 C   0  0  0  0  0  0  0  0  0  0  0  0
   -1.4560   18.5980  -34.1070 C   0  0  0  0  0  0  0  0  0  0  0  0
   -0.4910   19.4010  -34.7210 C   0  0  0  0  0  0  0  0  0  0  0  0
    0.7190   18.6450  -35.7480 Cl  0  0  0  0  0  0  0  0  0  0  0  0
   -0.5160   20.7910  -34.5290 C   0  0  0  0  0  0  0  0  0  0  0  0
    0.6400   21.8480  -35.3380 Cl  0  0  0  0  0  0  0  0  0  0  0  0
   -1.4880   21.3590  -33.6960 C   0  0  0  0  0  0  0  0  0  0  0  0
   -3.5370   20.5660  -30.7060 C   0  0  0  0  0  0  0  0  0  0  0  0
   -3.8980   21.6910  -29.7450 C   0  0  0  0  0  0  0  0  0  0  0  0
   -3.6840   22.9190  -30.4900 N   0  0  0  0  0  0  0  0  0  0  0  0
   -3.8530   24.2390  -29.9420 C   0  0  0  0  0  0  0  0  0  0  0  0
   -2.8370   24.9200  -29.6380 O   0  0  0  0  0  0  0  0  0  0  0  0
   -5.2150   24.8580  -29.7800 C   0  0  0  0  0  0  0  0  0  0  0  0
   -6.2550   24.0180  -30.4750 C   0  0  0  0  0  0  0  0  0  0  0  0
   -7.0200   23.0850  -29.7490 C   0  0  0  0  0  0  0  0  0  0  0  0
   -7.9810   22.2970  -30.3970 C   0  0  0  0  0  0  0  0  0  0  0  0
   -8.2020   22.4550  -31.7670 C   0  0  0  0  0  0  0  0  0  0  0  0
   -7.4640   23.3970  -32.4930 C   0  0  0  0  0  0  0  0  0  0  0  0
   -6.4960   24.1780  -31.8510 C   0  0  0  0  0  0  0  0  0  0  0  0
   -3.2310   22.6820  -31.8500 C   0  0  0  0  0  0  0  0  0  0  0  0
   -6.4490   17.4550  -32.4140 C   0  0  0  0  0  0  0  0  0  0  0  0
   -6.6780   16.2930  -33.4100 C   0  0  0  0  0  0  0  0  0  0  0  0
   -2.7915   15.5289  -31.8788 H   0  0  0  0  0  0  0  0  0  0  0  0
   -1.4792   14.6627  -32.7473 H   0  0  0  0  0  0  0  0  0  0  0  0
   -1.5233   16.4585  -32.7473 H   0  0  0  0  0  0  0  0  0  0  0  0
   -3.0244   16.5373  -34.4598 H   0  0  0  0  0  0  0  0  0  0  0  0
   -2.5392   14.8180  -34.7453 H   0  0  0  0  0  0  0  0  0  0  0  0
   -3.6793   15.4435  -31.7734 H   0  0  0  0  0  0  0  0  0  0  0  0
   -5.4970   15.4216  -31.9914 H   0  0  0  0  0  0  0  0  0  0  0  0
   -4.6043   13.5017  -30.6510 H   0  0  0  0  0  0  0  0  0  0  0  0
   -5.5248   13.0332  -32.1207 H   0  0  0  0  0  0  0  0  0  0  0  0
   -3.7304   12.9511  -32.1207 H   0  0  0  0  0  0  0  0  0  0  0  0
   -5.8926   15.3206  -35.1331 H   0  0  0  0  0  0  0  0  0  0  0  0
   -3.7738   17.2756  -34.6882 H   0  0  0  0  0  0  0  0  0  0  0  0
   -5.0443   17.2389  -36.0110 H   0  0  0  0  0  0  0  0  0  0  0  0
   -4.8719   19.4127  -34.7163 H   0  0  0  0  0  0  0  0  0  0  0  0
   -6.4973   18.6521  -34.7918 H   0  0  0  0  0  0  0  0  0  0  0  0
   -4.5620   18.2280  -32.5900 H   0  0  0  0  0  0  0  0  0  0  0  0
   -6.8274   20.0982  -32.4935 H   0  0  0  0  0  0  0  0  0  0  0  0
   -5.5351   19.7351  -31.2411 H   0  0  0  0  0  0  0  0  0  0  0  0
   -4.6699   20.7673  -33.9192 H   0  0  0  0  0  0  0  0  0  0  0  0
   -5.4496   21.9085  -32.6983 H   0  0  0  0  0  0  0  0  0  0  0  0
   -3.1916   18.5253  -32.8208 H   0  0  0  0  0  0  0  0  0  0  0  0
   -1.4539   17.5117  -34.2799 H   0  0  0  0  0  0  0  0  0  0  0  0
   -1.5228   22.4515  -33.5725 H   0  0  0  0  0  0  0  0  0  0  0  0
   -4.2899   19.7658  -30.6527 H   0  0  0  0  0  0  0  0  0  0  0  0
   -2.5620   20.1253  -30.4506 H   0  0  0  0  0  0  0  0  0  0  0  0
   -4.9497   21.6083  -29.4335 H   0  0  0  0  0  0  0  0  0  0  0  0
   -3.2897   21.6572  -28.8291 H   0  0  0  0  0  0  0  0  0  0  0  0
   -5.4585   24.9252  -28.7094 H   0  0  0  0  0  0  0  0  0  0  0  0
   -5.2078   25.8628  -30.2276 H   0  0  0  0  0  0  0  0  0  0  0  0
   -6.8623   22.9739  -28.6660 H   0  0  0  0  0  0  0  0  0  0  0  0
   -8.5603   21.5553  -29.8275 H   0  0  0  0  0  0  0  0  0  0  0  0
   -8.9572   21.8382  -32.2762 H   0  0  0  0  0  0  0  0  0  0  0  0
   -7.6452   23.5238  -33.5705 H   0  0  0  0  0  0  0  0  0  0  0  0
   -5.9216   24.9198  -32.4252 H   0  0  0  0  0  0  0  0  0  0  0  0
   -3.7874   23.3163  -32.5558 H   0  0  0  0  0  0  0  0  0  0  0  0
   -2.1647   22.9236  -31.9712 H   0  0  0  0  0  0  0  0  0  0  0  0
   -6.0297   17.0393  -31.4859 H   0  0  0  0  0  0  0  0  0  0  0  0
   -7.4241   17.9384  -32.2546 H   0  0  0  0  0  0  0  0  0  0  0  0
   -6.9270   15.3930  -32.8287 H   0  0  0  0  0  0  0  0  0  0  0  0
   -7.4837   16.6258  -34.0809 H   0  0  0  0  0  0  0  0  0  0  0  0
  1  2  1  0
  2  3  1  0
  3  4  1  0
  4  5  1  0
  3  6  1  0
  6  7  1  0
  7  8  1  0
  8  9  1  0
  9 10  1  0
 10 11  1  0
 12 11  1  6
 12 13  1  0
 13 14  2  0
 14 15  1  0
 15 16  2  0
 16 17  1  0
 16 18  1  0
 18 19  1  0
 18 20  2  0
 12 21  1  0
 21 22  1  0
 22 23  1  0
 23 24  1  0
 24 25  2  0
 24 26  1  0
 26 27  1  0
 27 28  2  0
 28 29  1  0
 29 30  2  0
 30 31  1  0
 31 32  2  0
 23 33  1  0
  9 34  1  0
 34 35  1  0
 35  6  1  0
 33 12  1  0
 20 13  1  0
 32 27  1  0
  1 36  1  0
  1 37  1  0
  1 38  1  0
  2 39  1  0
  2 40  1  0
  4 41  1  0
  4 42  1  0
  5 43  1  0
  5 44  1  0
  5 45  1  0
  6 46  1  6
  7 47  1  0
  7 48  1  0
  8 49  1  0
  8 50  1  0
  9 51  1  1
 10 52  1  0
 10 53  1  0
 11 54  1  0
 11 55  1  0
 14 56  1  0
 15 57  1  0
 20 58  1  0
 21 59  1  0
 21 60  1  0
 22 61  1  0
 22 62  1  0
 26 63  1  0
 26 64  1  0
 28 65  1  0
 29 66  1  0
 30 67  1  0
 31 68  1  0
 32 69  1  0
 33 70  1  0
 33 71  1  0
 34 72  1  0
 34 73  1  0
 35 74  1  0
 35 75  1  0
M  CHG  1   9   1
M  END
>  <UniqueID>  (1) 
1

>  <SMILES>  (1) 
CCN(CC)C1CC[NH+](CC[C@]2(c3ccc(Cl)c(Cl)c3)CCN(C(=O)Cc3ccccc3)C2)CC1

>  <Energy>  (1) 
110.93658141280288

>  <Genealogy>  (1) 
CCN(CC)C1CC[NH+](CCC2(c3ccc(Cl)c(Cl)c3)CCN(C(=O)Cc3ccccc3)C2)CC1 (protonated)
CCN(CC)C1CC[NH+](CC[C@]2(c3ccc(Cl)c(Cl)c3)CCN(C(=O)Cc3ccccc3)C2)CC1 (chirality)
CCN(CC)C1CC[NH+](CC[C@]2(c3ccc(Cl)c(Cl)c3)CCN(C(=O)Cc3ccccc3)C2)CC1 (3D coordinates assigned)
CCN(CC)C1CC[NH+](CC[C@]2(c3ccc(Cl)c(Cl)c3)CCN(C(=O)Cc3ccccc3)C2)CC1 (nonaromatic ring conformer: 110.93658141280288 kcal/mol)

>  <smiles>  (1) 
CCN(CC)C1CCN(CCC2(c3ccc(Cl)c(Cl)c3)CCN(C(=O)Cc3ccccc3)C2)CC1

>  <score_type>  (1) 
oracle

>  <origin>  (1) 
adg

>  <m_score__min__energy>  (1) 
-9.1300000000000008

>  <m_primary>  (1) 
energy

$$$$
1:0
     RDKit          3D

 31 32  0  0  0  0  0  0  0  0999 V2000
   -4.1940   24.1640  -28.3940 C   0  0  0  0  0  0  0  0  0  0  0  0
   -3.2440   24.4790  -29.5440 C   0  0  0  0  0  0  0  0  0  0  0  0
   -3.8850   25.3060  -30.4970 O   0  0  0  0  0  0  0  0  0  0  0  0
   -5.2840   25.3070  -30.2920 C   0  0  0  0  0  0  0  0  0  0  0  0
   -5.9370   24.3050  -31.2420 C   0  0  0  0  0  0  0  0  0  0  0  0
   -4.9320   23.4450  -31.8640 N   0  0  0  0  0  0  0  0  0  0  0  0
   -5.2180   22.1180  -32.3220 C   0  0  0  0  0  0  0  0  0  0  0  0
   -4.2400   21.3610  -32.9250 N   0  0  0  0  0  0  0  0  0  0  0  0
   -4.4880   20.0950  -33.3690 C   0  0  0  0  0  0  0  0  0  0  0  0
   -3.5800   19.4140  -33.9130 O   0  0  0  0  0  0  0  0  0  0  0  0
   -5.7680   19.5910  -33.1980 C   0  0  0  0  0  0  0  0  0  0  0  0
   -6.3830   18.3890  -33.4890 C   0  0  0  0  0  0  0  0  0  0  0  0
   -7.6710   18.4600  -33.0660 N   0  0  0  0  0  0  0  0  0  0  0  0
   -7.8720   19.6650  -32.5400 N   0  0  0  0  0  0  0  0  0  0  0  0
   -9.1170   20.0970  -31.9210 C   0  0  0  0  0  0  0  0  0  0  0  0
   -6.7210   20.3510  -32.6060 C   0  0  0  0  0  0  0  0  0  0  0  0
   -6.4780   21.6070  -32.1600 N   0  0  0  0  0  0  0  0  0  0  0  0
   -3.6799   24.3345  -27.4366 H   0  0  0  0  0  0  0  0  0  0  0  0
   -5.0764   24.8176  -28.4578 H   0  0  0  0  0  0  0  0  0  0  0  0
   -4.5111   23.1126  -28.4578 H   0  0  0  0  0  0  0  0  0  0  0  0
   -2.3575   24.9980  -29.1508 H   0  0  0  0  0  0  0  0  0  0  0  0
   -2.9449   23.5383  -30.0295 H   0  0  0  0  0  0  0  0  0  0  0  0
   -5.5027   25.0229  -29.2521 H   0  0  0  0  0  0  0  0  0  0  0  0
   -5.6832   26.3130  -30.4882 H   0  0  0  0  0  0  0  0  0  0  0  0
   -6.6448   23.6811  -30.6765 H   0  0  0  0  0  0  0  0  0  0  0  0
   -6.4619   24.8610  -32.0328 H   0  0  0  0  0  0  0  0  0  0  0  0
   -3.9500   23.7980  -31.9360 H   0  0  0  0  0  0  0  0  0  0  0  0
   -5.9111   17.5243  -33.9785 H   0  0  0  0  0  0  0  0  0  0  0  0
   -9.0140   20.0613  -30.8264 H   0  0  0  0  0  0  0  0  0  0  0  0
   -9.3444   21.1266  -32.2345 H   0  0  0  0  0  0  0  0  0  0  0  0
   -9.9332   19.4295  -32.2345 H   0  0  0  0  0  0  0  0  0  0  0  0
  1  2  1  0
  2  3  1  0
  3  4  1  0
  4  5  1  0
  5  6  1  0
  6  7  1  0
  7  8  2  0
  8  9  1  0
  9 10  2  0
  9 11  1  0
 11 12  1  0
 12 13  2  0
 13 14  1  0
 14 15  1  0
 14 16  1  0
 16 17  1  0
 17  7  1  0
 16 11  2  0
  1 18  1  0
  1 19  1  0
  1 20  1  0
  2 21  1  0
  2 22  1  0
  4 23  1  0
  4 24  1  0
  5 25  1  0
  5 26  1  0
  6 27  1  0
 12 28  1  0
 15 29  1  0
 15 30  1  0
 15 31  1  0
M  CHG  1  17  -1
M  END
>  <UniqueID>  (2) 
2

>  <SMILES>  (2) 
CCOCCNc1nc(=O)c2cnn(C)c2[n-]1

>  <Energy>  (2) 
67.75553937562559

>  <Genealogy>  (2) 
CCOCCNc1nc(=O)c2cnn(C)c2[n-]1 (protonated)
CCOCCNc1nc(=O)c2cnn(C)c2[n-]1 (3D coordinates assigned)
CCOCCNc1nc(=O)c2cnn(C)c2[n-]1 (optimized conformer: 67.75553937562559 kcal/mol)

>  <smiles>  (2) 
CCOCCNc1nc(=O)c2cnn(C)c2[nH]1

>  <score_type>  (2) 
oracle

>  <origin>  (2) 
adg

>  <m_score__min__energy>  (2) 
-6.7300000000000004

>  <m_primary>  (2) 
energy

$$$$
2:0
     RDKit          3D

 66 68  0  0  0  0  0  0  0  0999 V2000
   -1.8340   26.0460  -26.1390 C   0  0  0  0  0  0  0  0  0  0  0  0
   -1.1320   26.3600  -27.4520 C   0  0  0  0  0  0  0  0  0  0  0  0
   -1.9660   25.9980  -28.5250 O   0  0  0  0  0  0  0  0  0  0  0  0
   -1.2160   25.2180  -29.3470 N   0  0  0  0  0  0  0  0  0  0  0  0
   -1.5730   23.8600  -29.6110 C   0  0  0  0  0  0  0  0  0  0  0  0
   -2.5470   23.5980  -30.3650 O   0  0  0  0  0  0  0  0  0  0  0  0
   -0.7940   22.7450  -28.9840 C   0  0  0  0  0  0  0  0  0  0  0  0
   -1.5970   22.0880  -27.8540 C   0  0  0  0  0  0  0  0  0  0  0  0
   -2.9350   21.4870  -28.3280 C   0  0  0  0  0  0  0  0  0  0  0  0
   -4.1960   22.2680  -27.9130 C   0  0  0  0  0  0  0  0  0  0  0  0
   -3.8840   23.6260  -27.2560 C   0  0  0  0  0  0  0  0  0  0  0  0
   -4.0880   24.7530  -28.1850 N   0  0  0  0  0  0  0  0  0  0  0  0
   -5.3560   24.6750  -28.9470 C   0  0  0  0  0  0  0  0  0  0  0  0
   -5.2270   25.1600  -30.4070 C   0  0  0  0  0  0  0  0  0  0  0  0
   -5.5170   24.0660  -31.4540 C   0  0  0  0  0  0  0  0  0  0  0  0
   -5.0960   22.7430  -30.9910 N   0  0  0  0  0  0  0  0  0  0  0  0
   -5.4560   21.5710  -31.7400 C   0  0  0  0  0  0  0  0  0  0  0  0
   -4.4680   20.8370  -32.4170 C   0  0  0  0  0  0  0  0  0  0  0  0
   -3.1220   21.2620  -32.4120 C   0  0  0  0  0  0  0  0  0  0  0  0
   -2.1550   20.5730  -33.1360 C   0  0  0  0  0  0  0  0  0  0  0  0
   -2.5110   19.4590  -33.8870 C   0  0  0  0  0  0  0  0  0  0  0  0
   -3.8320   19.0120  -33.8980 C   0  0  0  0  0  0  0  0  0  0  0  0
   -4.8340   19.6680  -33.1380 C   0  0  0  0  0  0  0  0  0  0  0  0
   -6.1380   19.2110  -33.1010 N   0  0  0  0  0  0  0  0  0  0  0  0
   -6.4590   17.8550  -33.6020 C   0  0  0  0  0  0  0  0  0  0  0  0
   -7.1370   20.0040  -32.5670 C   0  0  0  0  0  0  0  0  0  0  0  0
   -8.5090   19.6900  -32.7350 C   0  0  0  0  0  0  0  0  0  0  0  0
   -9.5040   20.4630  -32.1330 C   0  0  0  0  0  0  0  0  0  0  0  0
   -9.1610   21.5660  -31.3600 C   0  0  0  0  0  0  0  0  0  0  0  0
   -7.8240   21.9270  -31.2140 C   0  0  0  0  0  0  0  0  0  0  0  0
   -6.8020   21.1770  -31.8360 C   0  0  0  0  0  0  0  0  0  0  0  0
   -1.1863   26.3357  -25.2985 H   0  0  0  0  0  0  0  0  0  0  0  0
   -2.7783   26.6075  -26.0847 H   0  0  0  0  0  0  0  0  0  0  0  0
   -2.0449   24.9678  -26.0847 H   0  0  0  0  0  0  0  0  0  0  0  0
   -0.9142   27.4370  -27.5034 H   0  0  0  0  0  0  0  0  0  0  0  0
   -0.1908   25.7936  -27.5104 H   0  0  0  0  0  0  0  0  0  0  0  0
   -0.5651   21.9896  -29.7502 H   0  0  0  0  0  0  0  0  0  0  0  0
    0.1350   23.1570  -28.5631 H   0  0  0  0  0  0  0  0  0  0  0  0
   -0.9886   21.2835  -27.4152 H   0  0  0  0  0  0  0  0  0  0  0  0
   -1.8336   22.8743  -27.1220 H   0  0  0  0  0  0  0  0  0  0  0  0
   -2.9137   21.4366  -29.4266 H   0  0  0  0  0  0  0  0  0  0  0  0
   -3.0143   20.5040  -27.8408 H   0  0  0  0  0  0  0  0  0  0  0  0
   -4.8069   22.4465  -28.8101 H   0  0  0  0  0  0  0  0  0  0  0  0
   -4.7249   21.6586  -27.1654 H   0  0  0  0  0  0  0  0  0  0  0  0
   -4.5446   23.7593  -26.3866 H   0  0  0  0  0  0  0  0  0  0  0  0
   -2.8255   23.6217  -26.9568 H   0  0  0  0  0  0  0  0  0  0  0  0
   -3.9980   25.6490  -27.6590 H   0  0  0  0  0  0  0  0  0  0  0  0
   -3.2970   24.7320  -28.8730 H   0  0  0  0  0  0  0  0  0  0  0  0
   -5.6930   23.6279  -28.9563 H   0  0  0  0  0  0  0  0  0  0  0  0
   -6.0757   25.3400  -28.4472 H   0  0  0  0  0  0  0  0  0  0  0  0
   -5.9372   25.9856  -30.5622 H   0  0  0  0  0  0  0  0  0  0  0  0
   -4.1817   25.4713  -30.5500 H   0  0  0  0  0  0  0  0  0  0  0  0
   -6.5980   24.0448  -31.6562 H   0  0  0  0  0  0  0  0  0  0  0  0
   -4.9482   24.3058  -32.3645 H   0  0  0  0  0  0  0  0  0  0  0  0
   -4.2660   22.6660  -30.3620 H   0  0  0  0  0  0  0  0  0  0  0  0
   -2.8344   22.1489  -31.8284 H   0  0  0  0  0  0  0  0  0  0  0  0
   -1.1080   20.9098  -33.1143 H   0  0  0  0  0  0  0  0  0  0  0  0
   -1.7479   18.9279  -34.4749 H   0  0  0  0  0  0  0  0  0  0  0  0
   -4.1014   18.1360  -34.5063 H   0  0  0  0  0  0  0  0  0  0  0  0
   -6.6193   17.1778  -32.7501 H   0  0  0  0  0  0  0  0  0  0  0  0
   -7.3721   17.8969  -34.2140 H   0  0  0  0  0  0  0  0  0  0  0  0
   -5.6241   17.4831  -34.2140 H   0  0  0  0  0  0  0  0  0  0  0  0
   -8.7945   18.8235  -33.3495 H   0  0  0  0  0  0  0  0  0  0  0  0
  -10.5627   20.1981  -32.2710 H   0  0  0  0  0  0  0  0  0  0  0  0
   -9.9464   22.1544  -30.8631 H   0  0  0  0  0  0  0  0  0  0  0  0
   -7.5611   22.8062  -30.6074 H   0  0  0  0  0  0  0  0  0  0  0  0
  1  2  1  0
  2  3  1  0
  3  4  1  0
  4  5  1  0
  5  6  2  0
  5  7  1  0
  7  8  1  0
  8  9  1  0
  9 10  1  0
 10 11  1  0
 11 12  1  0
 12 13  1  0
 13 14  1  0
 14 15  1  0
 15 16  1  0
 16 17  1  0
 17 18  2  0
 18 19  1  0
 19 20  2  0
 20 21  1  0
 21 22  2  0
 22 23  1  0
 23 24  2  0
 24 25  1  0
 24 26  1  0
 26 27  2  0
 27 28  1  0
 28 29  2  0
 29 30  1  0
 30 31  2  0
 31 17  1  0
 23 18  1  0
 31 26  1  0
  1 32  1  0
  1 33  1  0
  1 34  1  0
  2 35  1  0
  2 36  1  0
  7 37  1  0
  7 38  1  0
  8 39  1  0
  8 40  1  0
  9 41  1  0
  9 42  1  0
 10 43  1  0
 10 44  1  0
 11 45  1  0
 11 46  1  0
 12 47  1  0
 12 48  1  0
 13 49  1  0
 13 50  1  0
 14 51  1  0
 14 52  1  0
 15 53  1  0
 15 54  1  0
 16 55  1  0
 19 56  1  0
 20 57  1  0
 21 58  1  0
 22 59  1  0
 25 60  1  0
 25 61  1  0
 25 62  1  0
 27 63  1  0
 28 64  1  0
 29 65  1  0
 30 66  1  0
M  CHG  3   4  -1  12   1  24   1
M  END
>  <UniqueID>  (3) 
3

>  <SMILES>  (3) 
CCO[N-]C(=O)CCCCC[NH2+]CCCNc1c2ccccc2[n+](C)c2ccccc12

>  <Energy>  (3) 
83.63601804655818

>  <Genealogy>  (3) 
CCO[N-]C(=O)CCCCC[NH2+]CCCNc1c2ccccc2[n+](C)c2ccccc12 (protonated)
CCO[N-]C(=O)CCCCC[NH2+]CCCNc1c2ccccc2[n+](C)c2ccccc12 (3D coordinates assigned)
CCO[N-]C(=O)CCCCC[NH2+]CCCNc1c2ccccc2[n+](C)c2ccccc12 (optimized conformer: 83.63601804655818 kcal/mol)

>  <smiles>  (3) 
CCONC(=O)CCCCCNCCCNc1c2ccccc2[n+](C)c2ccccc12

>  <score_type>  (3) 
oracle

>  <origin>  (3) 
adg

>  <m_score__min__energy>  (3) 
-10.67

>  <m_primary>  (3) 
energy

$$$$
3:0
     RDKit          3D

 50 54  0  0  0  0  0  0  0  0999 V2000
   -8.7560   23.3880  -32.0580 C   0  0  0  0  0  0  0  0  0  0  0  0
   -7.7790   22.3080  -31.9120 N   0  0  0  0  0  0  0  0  0  0  0  0
   -6.4200   22.3960  -31.8180 C   0  0  0  0  0  0  0  0  0  0  0  0
   -5.6390   23.6860  -31.7100 C   0  0  0  0  0  0  0  0  0  0  0  0
   -4.4390   23.5780  -30.8540 N   0  0  0  0  0  0  0  0  0  0  0  0
   -3.3030   22.8630  -31.4900 C   0  0  0  0  0  0  0  0  0  0  0  0
   -2.1090   22.6600  -30.5100 C   0  0  1  0  0  0  0  0  0  0  0  0
   -2.2510   23.6010  -29.3340 C   0  0  0  0  0  0  0  0  0  0  0  0
   -3.4270   22.9320  -28.6380 C   0  0  1  0  0  0  0  0  0  0  0  0
   -4.7240   23.2000  -29.4470 C   0  0  0  0  0  0  0  0  0  0  0  0
   -3.1510   21.4810  -28.6860 N   0  0  0  0  0  0  0  0  0  0  0  0
   -2.6090   20.9820  -27.4080 C   0  0  0  0  0  0  0  0  0  0  0  0
   -2.7880   19.4600  -27.3150 C   0  0  0  0  0  0  0  0  0  0  0  0
   -1.6200   18.6730  -26.7350 C   0  0  0  0  0  0  0  0  0  0  0  0
   -2.8580   18.9280  -25.8910 C   0  0  0  0  0  0  0  0  0  0  0  0
   -2.2060   21.3040  -29.8090 C   0  0  0  0  0  0  0  0  0  0  0  0
   -5.8190   21.1800  -31.8710 N   0  0  0  0  0  0  0  0  0  0  0  0
   -6.8310   20.3090  -32.0040 C   0  0  0  0  0  0  0  0  0  0  0  0
   -6.7630   18.9250  -32.1410 C   0  0  0  0  0  0  0  0  0  0  0  0
   -7.9720   18.2260  -32.3160 C   0  0  0  0  0  0  0  0  0  0  0  0
   -9.2010   18.9240  -32.3610 C   0  0  0  0  0  0  0  0  0  0  0  0
   -9.2340   20.3240  -32.2270 C   0  0  0  0  0  0  0  0  0  0  0  0
   -8.0170   20.9860  -32.0400 C   0  0  0  0  0  0  0  0  0  0  0  0
   -9.0702   23.7353  -31.0627 H   0  0  0  0  0  0  0  0  0  0  0  0
   -8.3000   24.2227  -32.6105 H   0  0  0  0  0  0  0  0  0  0  0  0
   -9.6321   23.0177  -32.6105 H   0  0  0  0  0  0  0  0  0  0  0  0
   -5.3210   23.9862  -32.7193 H   0  0  0  0  0  0  0  0  0  0  0  0
   -6.3033   24.4287  -31.2442 H   0  0  0  0  0  0  0  0  0  0  0  0
   -3.6520   21.8773  -31.8313 H   0  0  0  0  0  0  0  0  0  0  0  0
   -2.9476   23.4766  -32.3309 H   0  0  0  0  0  0  0  0  0  0  0  0
   -1.1963   22.7926  -31.1094 H   0  0  0  0  0  0  0  0  0  0  0  0
   -1.3499   23.6124  -28.7032 H   0  0  0  0  0  0  0  0  0  0  0  0
   -2.3923   24.6615  -29.5898 H   0  0  0  0  0  0  0  0  0  0  0  0
   -3.5528   23.3070  -27.6116 H   0  0  0  0  0  0  0  0  0  0  0  0
   -5.3390   22.2880  -29.4428 H   0  0  0  0  0  0  0  0  0  0  0  0
   -5.2511   24.0404  -28.9716 H   0  0  0  0  0  0  0  0  0  0  0  0
   -1.5382   21.2264  -27.3472 H   0  0  0  0  0  0  0  0  0  0  0  0
   -3.1505   21.4587  -26.5776 H   0  0  0  0  0  0  0  0  0  0  0  0
   -3.3961   19.3692  -28.2271 H   0  0  0  0  0  0  0  0  0  0  0  0
   -1.4039   17.6588  -27.1020 H   0  0  0  0  0  0  0  0  0  0  0  0
   -0.5427   18.8578  -26.6112 H   0  0  0  0  0  0  0  0  0  0  0  0
   -3.5375   18.0981  -25.6470 H   0  0  0  0  0  0  0  0  0  0  0  0
   -3.0470   19.3736  -24.9032 H   0  0  0  0  0  0  0  0  0  0  0  0
   -1.2188   20.9997  -29.4311 H   0  0  0  0  0  0  0  0  0  0  0  0
   -2.5510   20.5214  -30.5007 H   0  0  0  0  0  0  0  0  0  0  0  0
   -4.7970   20.9660  -31.8560 H   0  0  0  0  0  0  0  0  0  0  0  0
   -5.7986   18.3967  -32.1134 H   0  0  0  0  0  0  0  0  0  0  0  0
   -7.9608   17.1308  -32.4183 H   0  0  0  0  0  0  0  0  0  0  0  0
  -10.1393   18.3675  -32.5020 H   0  0  0  0  0  0  0  0  0  0  0  0
  -10.1834   20.8780  -32.2679 H   0  0  0  0  0  0  0  0  0  0  0  0
  1  2  1  0
  2  3  1  0
  3  4  1  0
  4  5  1  0
  5  6  1  0
  6  7  1  0
  7  8  1  0
  8  9  1  0
  9 10  1  0
  9 11  1  0
 11 12  1  0
 12 13  1  0
 13 14  1  0
 14 15  1  0
 11 16  1  0
  3 17  2  0
 17 18  1  0
 18 19  2  0
 19 20  1  0
 20 21  2  0
 21 22  1  0
 22 23  2  0
 23  2  1  0
 10  5  1  0
 15 13  1  0
 23 18  1  0
 16  7  1  0
  1 24  1  0
  1 25  1  0
  1 26  1  0
  4 27  1  0
  4 28  1  0
  6 29  1  0
  6 30  1  0
  7 31  1  6
  8 32  1  0
  8 33  1  0
  9 34  1  1
 10 35  1  0
 10 36  1  0
 12 37  1  0
 12 38  1  0
 13 39  1  0
 14 40  1  0
 14 41  1  0
 15 42  1  0
 15 43  1  0
 16 44  1  0
 16 45  1  0
 17 46  1  0
 19 47  1  0
 20 48  1  0
 21 49  1  0
 22 50  1  0
M  CHG  1  17   1
M  END
>  <UniqueID>  (4) 
4

>  <SMILES>  (4) 
Cn1c(CN2C[C@H]3C[C@@H](C2)N(CC2CC2)C3)[nH+]c2ccccc21

>  <Energy>  (4) 
378.3022594624977

>  <Genealogy>  (4) 
Cn1c(CN2CC3CC(C2)N(CC2CC2)C3)[nH+]c2ccccc21 (protonated)
Cn1c(CN2C[C@H]3C[C@@H](C2)N(CC2CC2)C3)[nH+]c2ccccc21 (chirality)
Cn1c(CN2C[C@H]3C[C@@H](C2)N(CC2CC2)C3)[nH+]c2ccccc21 (3D coordinates assigned)
Cn1c(CN2C[C@H]3C[C@@H](C2)N(CC2CC2)C3)[nH+]c2ccccc21 (nonaromatic ring conformer: 378.3022594624977 kcal/mol)

>  <smiles>  (4) 
Cn1c(CN2CC3CC(C2)N(CC2CC2)C3)nc2ccccc21

>  <score_type>  (4) 
oracle

>  <origin>  (4) 
adg

>  <m_score__min__energy>  (4) 
-7.9000000000000004

>  <m_primary>  (4) 
energy

$$$$
4:0
     RDKit          3D

 82 85  0  0  0  0  0  0  0  0999 V2000
   -3.4310   18.7760  -26.3520 C   0  0  0  0  0  0  0  0  0  0  0  0
   -2.1640   19.6300  -26.3920 C   0  0  0  0  0  0  0  0  0  0  0  0
   -2.1840   20.6290  -27.5570 C   0  0  0  0  0  0  0  0  0  0  0  0
   -1.7070   19.9960  -28.8120 N   0  0  0  0  0  0  0  0  0  0  0  0
   -0.2280   20.0180  -28.8850 C   0  0  0  0  0  0  0  0  0  0  0  0
    0.3080   18.6030  -29.1340 C   0  0  0  0  0  0  0  0  0  0  0  0
    0.3010   17.7770  -27.8510 C   0  0  0  0  0  0  0  0  0  0  0  0
   -2.3300   20.6170  -30.0070 C   0  0  0  0  0  0  0  0  0  0  0  0
   -1.2690   20.9380  -31.0710 C   0  0  0  0  0  0  0  0  0  0  0  0
   -1.8670   21.5460  -32.3460 C   0  0  0  0  0  0  0  0  0  0  0  0
   -3.3440   21.8880  -32.1620 C   0  0  0  0  0  0  0  0  0  0  0  0
   -4.1370   21.3530  -33.2670 N   0  0  0  0  0  0  0  0  0  0  0  0
   -4.7710   20.0660  -33.1700 C   0  0  0  0  0  0  0  0  0  0  0  0
   -4.0610   18.9280  -33.5930 C   0  0  0  0  0  0  0  0  0  0  0  0
   -2.6770   19.0020  -33.8720 C   0  0  0  0  0  0  0  0  0  0  0  0
   -1.9660   17.8670  -34.2510 C   0  0  0  0  0  0  0  0  0  0  0  0
   -2.6120   16.6400  -34.3420 C   0  0  0  0  0  0  0  0  0  0  0  0
   -3.9810   16.5470  -34.0830 C   0  0  0  0  0  0  0  0  0  0  0  0
   -4.7410   17.6950  -33.7420 C   0  0  0  0  0  0  0  0  0  0  0  0
   -6.1090   17.6400  -33.5700 N   0  0  0  0  0  0  0  0  0  0  0  0
   -6.8650   16.4660  -34.0630 C   0  0  0  0  0  0  0  0  0  0  0  0
   -6.7710   18.6850  -32.9520 C   0  0  0  0  0  0  0  0  0  0  0  0
   -8.1140   18.5460  -32.5330 C   0  0  0  0  0  0  0  0  0  0  0  0
   -8.8040   19.5980  -31.9570 C   0  0  0  0  0  0  0  0  0  0  0  0
   -8.1660   20.8010  -31.7180 C   0  0  0  0  0  0  0  0  0  0  0  0
   -6.8130   20.9800  -32.0380 C   0  0  0  0  0  0  0  0  0  0  0  0
   -6.1480   22.1650  -31.5490 N   0  0  0  0  0  0  0  0  0  0  0  0
   -6.7360   23.5060  -31.6380 C   0  0  0  0  0  0  0  0  0  0  0  0
   -5.8990   24.5620  -30.8980 C   0  0  0  0  0  0  0  0  0  0  0  0
   -5.8370   24.3450  -29.3760 C   0  0  0  0  0  0  0  0  0  0  0  0
   -4.4510   24.2380  -28.8960 N   0  0  0  0  0  0  0  0  0  0  0  0
   -4.1790   24.3730  -27.5600 C   0  0  0  0  0  0  0  0  0  0  0  0
   -2.8700   24.2410  -27.0900 C   0  0  0  0  0  0  0  0  0  0  0  0
   -1.8380   23.9790  -27.9950 C   0  0  0  0  0  0  0  0  0  0  0  0
   -2.1230   23.8600  -29.3560 C   0  0  0  0  0  0  0  0  0  0  0  0
   -3.4430   23.9900  -29.7920 C   0  0  0  0  0  0  0  0  0  0  0  0
   -6.1060   19.9300  -32.7110 C   0  0  0  0  0  0  0  0  0  0  0  0
   -3.7124   18.5863  -25.3057 H   0  0  0  0  0  0  0  0  0  0  0  0
   -4.2482   19.3083  -26.8608 H   0  0  0  0  0  0  0  0  0  0  0  0
   -3.2442   17.8188  -26.8608 H   0  0  0  0  0  0  0  0  0  0  0  0
   -2.0806   20.1871  -25.4472 H   0  0  0  0  0  0  0  0  0  0  0  0
   -1.3044   18.9584  -26.5334 H   0  0  0  0  0  0  0  0  0  0  0  0
   -3.2131   20.9883  -27.7045 H   0  0  0  0  0  0  0  0  0  0  0  0
   -1.5138   21.4659  -27.3111 H   0  0  0  0  0  0  0  0  0  0  0  0
    0.0859   20.6762  -29.7085 H   0  0  0  0  0  0  0  0  0  0  0  0
    0.1741   20.3930  -27.9323 H   0  0  0  0  0  0  0  0  0  0  0  0
   -0.3250   18.1063  -29.8841 H   0  0  0  0  0  0  0  0  0  0  0  0
    1.3450   18.6812  -29.4924 H   0  0  0  0  0  0  0  0  0  0  0  0
    0.3067   18.4505  -26.9813 H   0  0  0  0  0  0  0  0  0  0  0  0
   -0.6025   17.1501  -27.8234 H   0  0  0  0  0  0  0  0  0  0  0  0
    1.1937   17.1349  -27.8234 H   0  0  0  0  0  0  0  0  0  0  0  0
   -3.0678   19.9206  -30.4321 H   0  0  0  0  0  0  0  0  0  0  0  0
   -2.8190   21.5542  -29.7028 H   0  0  0  0  0  0  0  0  0  0  0  0
   -0.5499   21.6531  -30.6450 H   0  0  0  0  0  0  0  0  0  0  0  0
   -0.7863   19.9904  -31.3522 H   0  0  0  0  0  0  0  0  0  0  0  0
   -1.3158   22.4643  -32.5969 H   0  0  0  0  0  0  0  0  0  0  0  0
   -1.7818   20.8055  -33.1549 H   0  0  0  0  0  0  0  0  0  0  0  0
   -3.7009   21.4528  -31.2169 H   0  0  0  0  0  0  0  0  0  0  0  0
   -3.4551   22.9822  -32.1427 H   0  0  0  0  0  0  0  0  0  0  0  0
   -4.5380   22.0380  -33.9490 H   0  0  0  0  0  0  0  0  0  0  0  0
   -2.1562   19.9673  -33.7886 H   0  0  0  0  0  0  0  0  0  0  0  0
   -0.8924   17.9413  -34.4786 H   0  0  0  0  0  0  0  0  0  0  0  0
   -2.0436   15.7398  -34.6187 H   0  0  0  0  0  0  0  0  0  0  0  0
   -4.4780   15.5676  -34.1444 H   0  0  0  0  0  0  0  0  0  0  0  0
   -7.2391   15.8850  -33.2071 H   0  0  0  0  0  0  0  0  0  0  0  0
   -7.7139   16.8067  -34.6740 H   0  0  0  0  0  0  0  0  0  0  0  0
   -6.2036   15.8342  -34.6740 H   0  0  0  0  0  0  0  0  0  0  0  0
   -8.6219   17.5797  -32.6679 H   0  0  0  0  0  0  0  0  0  0  0  0
   -9.8638   19.4767  -31.6883 H   0  0  0  0  0  0  0  0  0  0  0  0
   -8.7298   21.6320  -31.2690 H   0  0  0  0  0  0  0  0  0  0  0  0
   -5.3050   22.0400  -30.9570 H   0  0  0  0  0  0  0  0  0  0  0  0
   -6.8075   23.7910  -32.6980 H   0  0  0  0  0  0  0  0  0  0  0  0
   -7.7275   23.4702  -31.1631 H   0  0  0  0  0  0  0  0  0  0  0  0
   -4.8736   24.5334  -31.2951 H   0  0  0  0  0  0  0  0  0  0  0  0
   -6.3862   25.5340  -31.0651 H   0  0  0  0  0  0  0  0  0  0  0  0
   -6.3228   25.1953  -28.8750 H   0  0  0  0  0  0  0  0  0  0  0  0
   -6.3533   23.4019  -29.1436 H   0  0  0  0  0  0  0  0  0  0  0  0
   -4.9952   24.5863  -26.8541 H   0  0  0  0  0  0  0  0  0  0  0  0
   -2.6535   24.3425  -26.0163 H   0  0  0  0  0  0  0  0  0  0  0  0
   -0.8043   23.8669  -27.6358 H   0  0  0  0  0  0  0  0  0  0  0  0
   -1.3160   23.6658  -30.0778 H   0  0  0  0  0  0  0  0  0  0  0  0
   -3.6762   23.8927  -30.8626 H   0  0  0  0  0  0  0  0  0  0  0  0
  1  2  1  0
  2  3  1  0
  3  4  1  0
  4  5  1  0
  5  6  1  0
  6  7  1  0
  4  8  1  0
  8  9  1  0
  9 10  1  0
 10 11  1  0
 11 12  1  0
 12 13  1  0
 13 14  2  0
 14 15  1  0
 15 16  2  0
 16 17  1  0
 17 18  2  0
 18 19  1  0
 19 20  2  0
 20 21  1  0
 20 22  1  0
 22 23  2  0
 23 24  1  0
 24 25  2  0
 25 26  1  0
 26 27  1  0
 27 28  1  0
 28 29  1  0
 29 30  1  0
 30 31  1  0
 31 32  2  0
 32 33  1  0
 33 34  2  0
 34 35  1  0
 35 36  2  0
 26 37  2  0
 37 13  1  0
 19 14  1  0
 37 22  1  0
 36 31  1  0
  1 38  1  0
  1 39  1  0
  1 40  1  0
  2 41  1  0
  2 42  1  0
  3 43  1  0
  3 44  1  0
  5 45  1  0
  5 46  1  0
  6 47  1  0
  6 48  1  0
  7 49  1  0
  7 50  1  0
  7 51  1  0
  8 52  1  0
  8 53  1  0
  9 54  1  0
  9 55  1  0
 10 56  1  0
 10 57  1  0
 11 58  1  0
 11 59  1  0
 12 60  1  0
 15 61  1  0
 16 62  1  0
 17 63  1  0
 18 64  1  0
 21 65  1  0
 21 66  1  0
 21 67  1  0
 23 68  1  0
 24 69  1  0
 25 70  1  0
 27 71  1  0
 28 72  1  0
 28 73  1  0
 29 74  1  0
 29 75  1  0
 30 76  1  0
 30 77  1  0
 32 78  1  0
 33 79  1  0
 34 80  1  0
 35 81  1  0
 36 82  1  0
M  CHG  2  20   1  31   1
M  END
>  <UniqueID>  (5) 
5

>  <SMILES>  (5) 
CCCN(CCC)CCCCNc1c2ccccc2[n+](C)c2cccc(NCCC[n+]3ccccc3)c12

>  <Energy>  (5) 
103.10911185743599

>  <Genealogy>  (5) 
CCCN(CCC)CCCCNc1c2ccccc2[n+](C)c2cccc(NCCC[n+]3ccccc3)c12 (3D coordinates assigned)
CCCN(CCC)CCCCNc1c2ccccc2[n+](C)c2cccc(NCCC[n+]3ccccc3)c12 (optimized conformer: 103.10911185743599 kcal/mol)

>  <smiles>  (5) 
CCCN(CCC)CCCCNc1c2ccccc2[n+](C)c2cccc(NCCC[n+]3ccccc3)c12

>  <score_type>  (5) 
oracle

>  <origin>  (5) 
adg

>  <m_score__min__energy>  (5) 
-8.7300000000000004

>  <m_primary>  (5) 
energy

$$$$
5:0
     RDKit          3D

 78 77  0  0  0  0  0  0  0  0999 V2000
   -0.8370   26.7710  -23.8090 C   0  0  0  0  0  0  0  0  0  0  0  0
   -0.9180   25.6410  -24.8290 C   0  0  0  0  0  0  0  0  0  0  0  0
   -0.4580   24.3800  -24.2250 N   0  0  0  0  0  0  0  0  0  0  0  0
    0.1370   23.4490  -25.2030 C   0  0  0  0  0  0  0  0  0  0  0  0
   -0.8080   22.3030  -25.6350 C   0  0  0  0  0  0  0  0  0  0  0  0
   -0.8720   22.0190  -27.1520 C   0  0  0  0  0  0  0  0  0  0  0  0
   -0.0970   23.0090  -28.0420 C   0  0  0  0  0  0  0  0  0  0  0  0
   -0.7920   23.2640  -29.3950 C   0  0  0  0  0  0  0  0  0  0  0  0
   -1.4620   24.5740  -29.4470 N   0  0  0  0  0  0  0  0  0  0  0  0
   -2.0910   24.9390  -28.1710 C   0  0  0  0  0  0  0  0  0  0  0  0
   -3.5670   24.5300  -28.1850 C   0  0  0  0  0  0  0  0  0  0  0  0
   -3.9770   23.9900  -29.5580 C   0  0  0  0  0  0  0  0  0  0  0  0
   -3.9310   25.0670  -30.5620 N   0  0  0  0  0  0  0  0  0  0  0  0
   -5.1240   25.9230  -30.4710 C   0  0  0  0  0  0  0  0  0  0  0  0
   -6.2660   25.1930  -29.8260 C   0  0  0  0  0  0  0  0  0  0  0  0
   -6.9680   24.3180  -30.4900 C   0  0  0  0  0  0  0  0  0  0  0  0
   -7.6740   23.4440  -31.1540 C   0  0  0  0  0  0  0  0  0  0  0  0
   -7.1010   22.7550  -32.3540 C   0  0  0  0  0  0  0  0  0  0  0  0
   -7.3280   21.3060  -32.2640 N   0  0  0  0  0  0  0  0  0  0  0  0
   -8.5200   21.0120  -31.4560 C   0  0  0  0  0  0  0  0  0  0  0  0
   -9.1290   19.6700  -31.8710 C   0  0  0  0  0  0  0  0  0  0  0  0
   -8.2000   18.9350  -32.7430 N   0  0  0  0  0  0  0  0  0  0  0  0
   -7.6000   17.7900  -32.0430 C   0  0  0  0  0  0  0  0  0  0  0  0
   -6.4090   17.2390  -32.7920 C   0  0  0  0  0  0  0  0  0  0  0  0
   -6.1100   17.5210  -34.0740 C   0  0  0  0  0  0  0  0  0  0  0  0
   -5.6890   18.8820  -34.5830 C   0  0  0  0  0  0  0  0  0  0  0  0
   -5.5420   19.8570  -33.4880 N   0  0  0  0  0  0  0  0  0  0  0  0
   -4.1400   20.0320  -33.0740 C   0  0  0  0  0  0  0  0  0  0  0  0
   -3.8810   21.4730  -32.6260 C   0  0  0  0  0  0  0  0  0  0  0  0
   -0.8671   26.3506  -22.7929 H   0  0  0  0  0  0  0  0  0  0  0  0
    0.1031   27.3247  -23.9490 H   0  0  0  0  0  0  0  0  0  0  0  0
   -1.6886   27.4531  -23.9490 H   0  0  0  0  0  0  0  0  0  0  0  0
   -1.9599   25.5259  -25.1623 H   0  0  0  0  0  0  0  0  0  0  0  0
   -0.2749   25.8844  -25.6876 H   0  0  0  0  0  0  0  0  0  0  0  0
    0.2150   24.5800  -23.4510 H   0  0  0  0  0  0  0  0  0  0  0  0
    0.4186   24.0217  -26.0990 H   0  0  0  0  0  0  0  0  0  0  0  0
    1.0021   22.9803  -24.7112 H   0  0  0  0  0  0  0  0  0  0  0  0
   -0.4737   21.3829  -25.1334 H   0  0  0  0  0  0  0  0  0  0  0  0
   -1.8197   22.6267  -25.3491 H   0  0  0  0  0  0  0  0  0  0  0  0
   -0.4625   21.0131  -27.3267 H   0  0  0  0  0  0  0  0  0  0  0  0
   -1.9300   22.1204  -27.4353 H   0  0  0  0  0  0  0  0  0  0  0  0
   -0.0062   23.9660  -27.5073 H   0  0  0  0  0  0  0  0  0  0  0  0
    0.8873   22.5654  -28.2528 H   0  0  0  0  0  0  0  0  0  0  0  0
   -0.0362   23.2225  -30.1931 H   0  0  0  0  0  0  0  0  0  0  0  0
   -1.5620   22.4895  -29.5263 H   0  0  0  0  0  0  0  0  0  0  0  0
   -0.7630   25.3090  -29.7090 H   0  0  0  0  0  0  0  0  0  0  0  0
   -1.5762   24.4208  -27.3486 H   0  0  0  0  0  0  0  0  0  0  0  0
   -2.0167   26.0270  -28.0273 H   0  0  0  0  0  0  0  0  0  0  0  0
   -3.7303   23.7485  -27.4283 H   0  0  0  0  0  0  0  0  0  0  0  0
   -4.1774   25.4176  -27.9625 H   0  0  0  0  0  0  0  0  0  0  0  0
   -3.2856   23.1873  -29.8541 H   0  0  0  0  0  0  0  0  0  0  0  0
   -5.0032   23.5983  -29.4981 H   0  0  0  0  0  0  0  0  0  0  0  0
   -3.1010   25.6750  -30.3400 H   0  0  0  0  0  0  0  0  0  0  0  0
   -4.8824   26.8131  -29.8716 H   0  0  0  0  0  0  0  0  0  0  0  0
   -5.4248   26.2118  -31.4889 H   0  0  0  0  0  0  0  0  0  0  0  0
   -6.5149   25.4000  -28.7747 H   0  0  0  0  0  0  0  0  0  0  0  0
   -8.6990   23.2113  -30.8294 H   0  0  0  0  0  0  0  0  0  0  0  0
   -7.5860   23.1430  -33.2618 H   0  0  0  0  0  0  0  0  0  0  0  0
   -6.0186   22.9468  -32.3951 H   0  0  0  0  0  0  0  0  0  0  0  0
   -7.5060   20.9510  -33.2350 H   0  0  0  0  0  0  0  0  0  0  0  0
   -8.2362   20.9682  -30.3941 H   0  0  0  0  0  0  0  0  0  0  0  0
   -9.2642   21.8061  -31.6162 H   0  0  0  0  0  0  0  0  0  0  0  0
   -9.3333   19.0707  -30.9715 H   0  0  0  0  0  0  0  0  0  0  0  0
  -10.0636   19.8561  -32.4204 H   0  0  0  0  0  0  0  0  0  0  0  0
   -8.7470   18.5590  -33.5520 H   0  0  0  0  0  0  0  0  0  0  0  0
   -7.2739   18.1141  -31.0437 H   0  0  0  0  0  0  0  0  0  0  0  0
   -8.3579   16.9959  -31.9720 H   0  0  0  0  0  0  0  0  0  0  0  0
   -5.7369   16.5574  -32.2500 H   0  0  0  0  0  0  0  0  0  0  0  0
   -6.1767   16.7017  -34.8050 H   0  0  0  0  0  0  0  0  0  0  0  0
   -4.7251   18.7843  -35.1039 H   0  0  0  0  0  0  0  0  0  0  0  0
   -6.4720   19.2487  -35.2631 H   0  0  0  0  0  0  0  0  0  0  0  0
   -6.1150   19.5560  -32.6700 H   0  0  0  0  0  0  0  0  0  0  0  0
   -5.9110   20.7780  -33.8250 H   0  0  0  0  0  0  0  0  0  0  0  0
   -3.9229   19.3501  -32.2386 H   0  0  0  0  0  0  0  0  0  0  0  0
   -3.4886   19.8069  -33.9313 H   0  0  0  0  0  0  0  0  0  0  0  0
   -3.8727   21.5194  -31.5270 H   0  0  0  0  0  0  0  0  0  0  0  0
   -2.9082   21.8085  -33.0146 H   0  0  0  0  0  0  0  0  0  0  0  0
   -4.6761   22.1263  -33.0146 H   0  0  0  0  0  0  0  0  0  0  0  0
  1  2  1  0
  2  3  1  0
  3  4  1  0
  4  5  1  0
  5  6  1  0
  6  7  1  0
  7  8  1  0
  8  9  1  0
  9 10  1  0
 10 11  1  0
 11 12  1  0
 12 13  1  0
 13 14  1  0
 14 15  1  0
 15 16  2  0
 16 17  2  0
 17 18  1  0
 18 19  1  0
 19 20  1  0
 20 21  1  0
 21 22  1  0
 22 23  1  0
 23 24  1  0
 24 25  2  3
 25 26  1  0
 26 27  1  0
 27 28  1  0
 28 29  1  0
  1 30  1  0
  1 31  1  0
  1 32  1  0
  2 33  1  0
  2 34  1  0
  3 35  1  0
  4 36  1  0
  4 37  1  0
  5 38  1  0
  5 39  1  0
  6 40  1  0
  6 41  1  0
  7 42  1  0
  7 43  1  0
  8 44  1  0
  8 45  1  0
  9 46  1  0
 10 47  1  0
 10 48  1  0
 11 49  1  0
 11 50  1  0
 12 51  1  0
 12 52  1  0
 13 53  1  0
 14 54  1  0
 14 55  1  0
 15 56  1  0
 17 57  1  0
 18 58  1  0
 18 59  1  0
 19 60  1  0
 20 61  1  0
 20 62  1  0
 21 63  1  0
 21 64  1  0
 22 65  1  0
 23 66  1  0
 23 67  1  0
 24 68  1  0
 25 69  1  0
 26 70  1  0
 26 71  1  0
 27 72  1  0
 27 73  1  0
 28 74  1  0
 28 75  1  0
 29 76  1  0
 29 77  1  0
 29 78  1  0
M  CHG  1  27   1
M  END
>  <UniqueID>  (6) 
6

>  <SMILES>  (6) 
CCNCCCCCNCCCNCC=C=CCNCCNCC=CC[NH2+]CC

>  <Energy>  (6) 
46.52405398672062

>  <Genealogy>  (6) 
CCNCCCCCNCCCNCC=C=CCNCCNCC=CC[NH2+]CC (protonated)
CCNCCCCCNCCCNCC=C=CCNCCNCC=CC[NH2+]CC (3D coordinates assigned)
CCNCCCCCNCCCNCC=C=CCNCCNCC=CC[NH2+]CC (optimized conformer: 46.52405398672062 kcal/mol)

>  <smiles>  (6) 
CCNCC=CCNCCNCC=C=CCNCCCNCCCCCNCC

>  <score_type>  (6) 
oracle

>  <origin>  (6) 
adg

>  <m_score__min__energy>  (6) 
-7.1699999999999999

>  <m_primary>  (6) 
energy

$$$$
6:0
     RDKit          3D

 35 37  0  0  0  0  0  0  0  0999 V2000
   -8.1520   21.9620  -30.1470 C   0  0  0  0  0  0  0  0  0  0  0  0
   -7.4330   21.6010  -31.3670 N   0  0  0  0  0  0  0  0  0  0  0  0
   -7.7510   20.6340  -32.2570 C   0  0  0  0  0  0  0  0  0  0  0  0
   -9.1030   19.4660  -32.0630 S   0  0  0  0  0  0  0  0  0  0  0  0
   -8.0430   18.1030  -31.4620 C   0  0  0  0  0  0  0  0  0  0  0  0
   -6.9050   17.8360  -32.4090 C   0  0  0  0  0  0  0  0  0  0  0  0
   -7.0740   16.9480  -33.4830 C   0  0  0  0  0  0  0  0  0  0  0  0
   -6.0050   16.6710  -34.3420 C   0  0  0  0  0  0  0  0  0  0  0  0
   -4.7620   17.2730  -34.1310 C   0  0  0  0  0  0  0  0  0  0  0  0
   -4.5840   18.1560  -33.0600 C   0  0  0  0  0  0  0  0  0  0  0  0
   -2.8790   18.9620  -32.7580 Br  0  0  0  0  0  0  0  0  0  0  0  0
   -5.6510   18.4390  -32.2030 C   0  0  0  0  0  0  0  0  0  0  0  0
   -6.9040   20.6180  -33.3040 N   0  0  0  0  0  0  0  0  0  0  0  0
   -6.0240   21.5800  -33.0770 N   0  0  0  0  0  0  0  0  0  0  0  0
   -6.3270   22.1650  -31.9020 C   0  0  0  0  0  0  0  0  0  0  0  0
   -5.5320   23.2580  -31.3030 C   0  0  0  0  0  0  0  0  0  0  0  0
   -4.2090   23.0220  -30.9010 C   0  0  0  0  0  0  0  0  0  0  0  0
   -3.4710   24.0540  -30.3160 C   0  0  0  0  0  0  0  0  0  0  0  0
   -4.0370   25.2740  -30.1250 N   0  0  0  0  0  0  0  0  0  0  0  0
   -5.3220   25.5280  -30.4900 C   0  0  0  0  0  0  0  0  0  0  0  0
   -6.0940   24.5240  -31.0810 C   0  0  0  0  0  0  0  0  0  0  0  0
   -7.5587   21.6641  -29.2700 H   0  0  0  0  0  0  0  0  0  0  0  0
   -8.3163   23.0495  -30.1264 H   0  0  0  0  0  0  0  0  0  0  0  0
   -9.1223   21.4442  -30.1264 H   0  0  0  0  0  0  0  0  0  0  0  0
   -7.6337   18.3749  -30.4779 H   0  0  0  0  0  0  0  0  0  0  0  0
   -8.6560   17.1924  -31.3910 H   0  0  0  0  0  0  0  0  0  0  0  0
   -8.0499   16.4685  -33.6497 H   0  0  0  0  0  0  0  0  0  0  0  0
   -6.1434   15.9780  -35.1850 H   0  0  0  0  0  0  0  0  0  0  0  0
   -3.9227   17.0528  -34.8071 H   0  0  0  0  0  0  0  0  0  0  0  0
   -5.5096   19.1361  -31.3639 H   0  0  0  0  0  0  0  0  0  0  0  0
   -5.2210   21.8060  -33.7060 H   0  0  0  0  0  0  0  0  0  0  0  0
   -3.7553   22.0304  -31.0455 H   0  0  0  0  0  0  0  0  0  0  0  0
   -2.4293   23.8782  -30.0094 H   0  0  0  0  0  0  0  0  0  0  0  0
   -5.7545   26.5250  -30.3199 H   0  0  0  0  0  0  0  0  0  0  0  0
   -7.1360   24.7253  -31.3703 H   0  0  0  0  0  0  0  0  0  0  0  0
  1  2  1  0
  2  3  1  0
  3  4  1  0
  4  5  1  0
  5  6  1  0
  6  7  2  0
  7  8  1  0
  8  9  2  0
  9 10  1  0
 10 11  1  0
 10 12  2  0
  3 13  2  0
 13 14  1  0
 14 15  2  0
 15 16  1  0
 16 17  2  0
 17 18  1  0
 18 19  2  0
 19 20  1  0
 20 21  2  0
 15  2  1  0
 21 16  1  0
 12  6  1  0
  1 22  1  0
  1 23  1  0
  1 24  1  0
  5 25  1  0
  5 26  1  0
  7 27  1  0
  8 28  1  0
  9 29  1  0
 12 30  1  0
 14 31  1  0
 17 32  1  0
 18 33  1  0
 20 34  1  0
 21 35  1  0
M  CHG  1  14   1
M  END
>  <UniqueID>  (7) 
7

>  <SMILES>  (7) 
Cn1c(SCc2cccc(Br)c2)n[nH+]c1-c1ccncc1

>  <Energy>  (7) 
70.74965812261739

>  <Genealogy>  (7) 
Cn1c(SCc2cccc(Br)c2)n[nH+]c1-c1ccncc1 (protonated)
Cn1c(SCc2cccc(Br)c2)n[nH+]c1-c1ccncc1 (3D coordinates assigned)
Cn1c(SCc2cccc(Br)c2)n[nH+]c1-c1ccncc1 (optimized conformer: 70.74965812261739 kcal/mol)

>  <smiles>  (7) 
Cn1c(SCc2cccc(Br)c2)nnc1-c1ccncc1

>  <score_type>  (7) 
oracle

>  <origin>  (7) 
adg

>  <m_score__min__energy>  (7) 
-8.0299999999999994

>  <m_primary>  (7) 
energy

$$$$
7:0
     RDKit          3D

 41 42  0  0  0  0  0  0  0  0999 V2000
   -2.0040   25.2960  -26.8800 C   0  0  0  0  0  0  0  0  0  0  0  0
   -1.2730   25.6820  -28.1620 C   0  0  0  0  0  0  0  0  0  0  0  0
   -2.0260   25.2930  -29.3110 O   0  0  0  0  0  0  0  0  0  0  0  0
   -2.3130   23.9710  -29.6970 C   0  0  0  0  0  0  0  0  0  0  0  0
   -1.5030   22.8820  -29.3160 C   0  0  0  0  0  0  0  0  0  0  0  0
   -1.8290   21.5860  -29.7200 C   0  0  0  0  0  0  0  0  0  0  0  0
   -2.9610   21.3620  -30.5010 C   0  0  0  0  0  0  0  0  0  0  0  0
   -3.7740   22.4310  -30.8830 C   0  0  0  0  0  0  0  0  0  0  0  0
   -3.4580   23.7450  -30.4800 C   0  0  0  0  0  0  0  0  0  0  0  0
   -4.2400   24.8610  -30.8340 O   0  0  0  0  0  0  0  0  0  0  0  0
   -5.3520   25.3940  -30.1090 C   0  0  0  0  0  0  0  0  0  0  0  0
   -6.6080   24.5220  -30.2880 C   0  0  0  0  0  0  0  0  0  0  0  0
   -6.4600   23.4700  -31.3090 N   0  0  0  0  0  0  0  0  0  0  0  0
   -7.7350   23.0900  -31.9320 C   0  0  0  0  0  0  0  0  0  0  0  0
   -7.8070   21.5970  -32.1020 C   0  0  0  0  0  0  0  0  0  0  0  0
   -8.9820   20.8970  -31.7790 C   0  0  0  0  0  0  0  0  0  0  0  0
   -9.0350   19.5060  -31.9220 C   0  0  0  0  0  0  0  0  0  0  0  0
   -7.9150   18.8070  -32.3830 C   0  0  0  0  0  0  0  0  0  0  0  0
   -6.7420   19.4960  -32.7000 C   0  0  0  0  0  0  0  0  0  0  0  0
   -6.6860   20.8860  -32.5590 C   0  0  0  0  0  0  0  0  0  0  0  0
   -1.4090   25.6102  -26.0098 H   0  0  0  0  0  0  0  0  0  0  0  0
   -2.9845   25.7939  -26.8529 H   0  0  0  0  0  0  0  0  0  0  0  0
   -2.1457   24.2055  -26.8529 H   0  0  0  0  0  0  0  0  0  0  0  0
   -1.1259   26.7720  -28.1792 H   0  0  0  0  0  0  0  0  0  0  0  0
   -0.3026   25.1646  -28.1843 H   0  0  0  0  0  0  0  0  0  0  0  0
   -0.6098   23.0542  -28.6974 H   0  0  0  0  0  0  0  0  0  0  0  0
   -1.1915   20.7408  -29.4214 H   0  0  0  0  0  0  0  0  0  0  0  0
   -3.2150   20.3396  -30.8177 H   0  0  0  0  0  0  0  0  0  0  0  0
   -4.6651   22.2474  -31.5012 H   0  0  0  0  0  0  0  0  0  0  0  0
   -5.0952   25.4369  -29.0402 H   0  0  0  0  0  0  0  0  0  0  0  0
   -5.5698   26.3995  -30.4983 H   0  0  0  0  0  0  0  0  0  0  0  0
   -6.8369   24.0415  -29.3253 H   0  0  0  0  0  0  0  0  0  0  0  0
   -7.4149   25.1878  -30.6281 H   0  0  0  0  0  0  0  0  0  0  0  0
   -5.7820   23.7720  -32.0440 H   0  0  0  0  0  0  0  0  0  0  0  0
   -8.5654   23.4231  -31.2920 H   0  0  0  0  0  0  0  0  0  0  0  0
   -7.8071   23.5672  -32.9205 H   0  0  0  0  0  0  0  0  0  0  0  0
   -9.8630   21.4444  -31.4125 H   0  0  0  0  0  0  0  0  0  0  0  0
   -9.9579   18.9623  -31.6717 H   0  0  0  0  0  0  0  0  0  0  0  0
   -7.9578   17.7137  -32.4961 H   0  0  0  0  0  0  0  0  0  0  0  0
   -5.8614   18.9445  -33.0610 H   0  0  0  0  0  0  0  0  0  0  0  0
   -5.7596   21.4247  -32.8072 H   0  0  0  0  0  0  0  0  0  0  0  0
  1  2  1  0
  2  3  1  0
  3  4  1  0
  4  5  2  0
  5  6  1  0
  6  7  2  0
  7  8  1  0
  8  9  2  0
  9 10  1  0
 10 11  1  0
 11 12  1  0
 12 13  1  0
 13 14  1  0
 14 15  1  0
 15 16  2  0
 16 17  1  0
 17 18  2  0
 18 19  1  0
 19 20  2  0
  9  4  1  0
 20 15  1  0
  1 21  1  0
  1 22  1  0
  1 23  1  0
  2 24  1  0
  2 25  1  0
  5 26  1  0
  6 27  1  0
  7 28  1  0
  8 29  1  0
 11 30  1  0
 11 31  1  0
 12 32  1  0
 12 33  1  0
 13 34  1  0
 14 35  1  0
 14 36  1  0
 16 37  1  0
 17 38  1  0
 18 39  1  0
 19 40  1  0
 20 41  1  0
M  END
>  <UniqueID>  (8) 
8

>  <SMILES>  (8) 
CCOc1ccccc1OCCNCc1ccccc1

>  <Energy>  (8) 
41.098298998001

>  <Genealogy>  (8) 
CCOc1ccccc1OCCNCc1ccccc1 (3D coordinates assigned)
CCOc1ccccc1OCCNCc1ccccc1 (optimized conformer: 41.098298998001 kcal/mol)

>  <smiles>  (8) 
CCOc1ccccc1OCCNCc1ccccc1

>  <score_type>  (8) 
oracle

>  <origin>  (8) 
adg

>  <m_score__min__energy>  (8) 
-8.0600000000000005

>  <m_primary>  (8) 
energy

$$$$
8:0
     RDKit          3D

 36 36  0  0  0  0  0  0  0  0999 V2000
   -9.3680   20.9250  -31.9440 C   0  0  0  0  0  0  0  0  0  0  0  0
   -8.5690   21.7380  -30.9300 C   0  0  0  0  0  0  0  0  0  0  0  0
   -8.0730   23.0510  -31.5430 C   0  0  0  0  0  0  0  0  0  0  0  0
   -6.5740   23.1580  -31.4290 C   0  0  0  0  0  0  0  0  0  0  0  0
   -5.6610   22.2320  -31.9250 C   0  0  0  0  0  0  0  0  0  0  0  0
   -5.9680   21.0170  -32.7510 C   0  0  0  0  0  0  0  0  0  0  0  0
   -4.4060   22.7130  -31.6040 C   0  0  0  0  0  0  0  0  0  0  0  0
   -3.1360   22.1370  -31.9620 C   0  0  0  0  0  0  0  0  0  0  0  0
   -2.1160   21.6730  -32.2510 N   0  0  0  0  0  0  0  0  0  0  0  0
   -4.5970   23.8950  -30.9220 C   0  0  0  0  0  0  0  0  0  0  0  0
   -3.5640   24.7040  -30.4390 O   0  0  0  0  0  0  0  0  0  0  0  0
   -2.9770   24.5200  -29.1510 C   0  0  0  0  0  0  0  0  0  0  0  0
   -1.6780   23.7210  -29.2760 C   0  0  0  0  0  0  0  0  0  0  0  0
   -3.9740   23.7890  -28.2540 C   0  0  0  0  0  0  0  0  0  0  0  0
   -5.9170   24.1540  -30.7850 N   0  0  0  0  0  0  0  0  0  0  0  0
   -6.5140   25.2970  -30.0960 C   0  0  0  0  0  0  0  0  0  0  0  0
  -10.0432   20.2380  -31.4128 H   0  0  0  0  0  0  0  0  0  0  0  0
   -9.9590   21.6050  -32.5751 H   0  0  0  0  0  0  0  0  0  0  0  0
   -8.6779   20.3459  -32.5751 H   0  0  0  0  0  0  0  0  0  0  0  0
   -9.2108   21.9649  -30.0659 H   0  0  0  0  0  0  0  0  0  0  0  0
   -7.6956   21.1463  -30.6185 H   0  0  0  0  0  0  0  0  0  0  0  0
   -8.3579   23.0843  -32.6049 H   0  0  0  0  0  0  0  0  0  0  0  0
   -8.5304   23.8907  -30.9993 H   0  0  0  0  0  0  0  0  0  0  0  0
   -6.1828   20.1668  -32.0869 H   0  0  0  0  0  0  0  0  0  0  0  0
   -6.8439   21.2169  -33.3857 H   0  0  0  0  0  0  0  0  0  0  0  0
   -5.1023   20.7768  -33.3857 H   0  0  0  0  0  0  0  0  0  0  0  0
   -2.7360   25.4969  -28.7064 H   0  0  0  0  0  0  0  0  0  0  0  0
   -1.2946   23.4852  -28.2723 H   0  0  0  0  0  0  0  0  0  0  0  0
   -1.8734   22.7867  -29.8228 H   0  0  0  0  0  0  0  0  0  0  0  0
   -0.9323   24.3167  -29.8228 H   0  0  0  0  0  0  0  0  0  0  0  0
   -3.7222   23.9736  -27.1993 H   0  0  0  0  0  0  0  0  0  0  0  0
   -4.9900   24.1578  -28.4584 H   0  0  0  0  0  0  0  0  0  0  0  0
   -3.9279   22.7091  -28.4584 H   0  0  0  0  0  0  0  0  0  0  0  0
   -6.4375   25.1504  -29.0085 H   0  0  0  0  0  0  0  0  0  0  0  0
   -5.9808   26.2161  -30.3806 H   0  0  0  0  0  0  0  0  0  0  0  0
   -7.5730   25.3845  -30.3806 H   0  0  0  0  0  0  0  0  0  0  0  0
  1  2  1  0
  2  3  1  0
  3  4  1  0
  4  5  2  0
  5  6  1  0
  5  7  1  0
  7  8  1  0
  8  9  3  0
  7 10  2  0
 10 11  1  0
 11 12  1  0
 12 13  1  0
 12 14  1  0
 10 15  1  0
 15 16  1  0
 15  4  1  0
  1 17  1  0
  1 18  1  0
  1 19  1  0
  2 20  1  0
  2 21  1  0
  3 22  1  0
  3 23  1  0
  6 24  1  0
  6 25  1  0
  6 26  1  0
 12 27  1  0
 13 28  1  0
 13 29  1  0
 13 30  1  0
 14 31  1  0
 14 32  1  0
 14 33  1  0
 16 34  1  0
 16 35  1  0
 16 36  1  0
M  END
>  <UniqueID>  (9) 
9

>  <SMILES>  (9) 
CCCc1c(C)c(C#N)c(OC(C)C)n1C

>  <Energy>  (9) 
53.432960983115386

>  <Genealogy>  (9) 
CCCc1c(C)c(C#N)c(OC(C)C)n1C (3D coordinates assigned)
CCCc1c(C)c(C#N)c(OC(C)C)n1C (optimized conformer: 53.432960983115386 kcal/mol)

>  <smiles>  (9) 
CCCc1c(C)c(C#N)c(OC(C)C)n1C

>  <score_type>  (9) 
oracle

>  <origin>  (9) 
adg

>  <m_score__min__energy>  (9) 
-6.0999999999999996

>  <m_primary>  (9) 
energy

$$$$
9:0
     RDKit          3D

 49 51  0  0  0  0  0  0  0  0999 V2000
   -5.2890   24.8150  -30.0720 C   0  0  0  0  0  0  0  0  0  0  0  0
   -3.9280   24.7110  -30.4800 O   0  0  0  0  0  0  0  0  0  0  0  0
   -2.9000   24.1590  -29.6980 C   0  0  0  0  0  0  0  0  0  0  0  0
   -2.2100   24.9240  -28.7350 C   0  0  0  0  0  0  0  0  0  0  0  0
   -1.2150   24.3410  -27.9480 C   0  0  0  0  0  0  0  0  0  0  0  0
   -0.8940   22.9940  -28.1100 C   0  0  0  0  0  0  0  0  0  0  0  0
   -1.5640   22.2250  -29.0630 C   0  0  0  0  0  0  0  0  0  0  0  0
   -2.5640   22.7980  -29.8690 C   0  0  0  0  0  0  0  0  0  0  0  0
   -3.2300   21.9930  -30.8630 N   0  0  0  0  0  0  0  0  0  0  0  0
   -3.5690   20.5960  -30.5660 C   0  0  0  0  0  0  0  0  0  0  0  0
   -4.7520   20.1380  -31.4240 C   0  0  0  0  0  0  0  0  0  0  0  0
   -4.4740   20.3160  -32.8650 N   0  0  0  0  0  0  0  0  0  0  0  0
   -5.6980   20.0770  -33.6560 C   0  0  0  0  0  0  0  0  0  0  0  0
   -6.9120   20.0970  -32.7660 C   0  0  0  0  0  0  0  0  0  0  0  0
   -7.6300   19.0050  -32.3010 C   0  0  0  0  0  0  0  0  0  0  0  0
   -7.3820   17.5710  -32.6400 C   0  0  0  0  0  0  0  0  0  0  0  0
   -8.6380   19.4250  -31.5120 N   0  0  0  0  0  0  0  0  0  0  0  0
   -8.5740   20.7470  -31.4490 N   0  0  0  0  0  0  0  0  0  0  0  0
   -9.5070   21.5570  -30.6730 C   0  0  0  0  0  0  0  0  0  0  0  0
   -7.5470   21.1950  -32.2070 C   0  0  0  0  0  0  0  0  0  0  0  0
   -7.1240   22.6300  -32.3400 C   0  0  0  0  0  0  0  0  0  0  0  0
   -3.8200   21.6090  -33.2170 C   0  0  0  0  0  0  0  0  0  0  0  0
   -3.7890   22.6230  -32.0640 C   0  0  0  0  0  0  0  0  0  0  0  0
   -5.3431   24.8191  -28.9733 H   0  0  0  0  0  0  0  0  0  0  0  0
   -5.7189   25.7486  -30.4638 H   0  0  0  0  0  0  0  0  0  0  0  0
   -5.8558   23.9575  -30.4638 H   0  0  0  0  0  0  0  0  0  0  0  0
   -2.4575   25.9876  -28.6029 H   0  0  0  0  0  0  0  0  0  0  0  0
   -0.6833   24.9457  -27.1986 H   0  0  0  0  0  0  0  0  0  0  0  0
   -0.1119   22.5367  -27.4861 H   0  0  0  0  0  0  0  0  0  0  0  0
   -1.3078   21.1622  -29.1846 H   0  0  0  0  0  0  0  0  0  0  0  0
   -2.6983   19.9587  -30.7799 H   0  0  0  0  0  0  0  0  0  0  0  0
   -3.8463   20.5147  -29.5046 H   0  0  0  0  0  0  0  0  0  0  0  0
   -4.9470   19.0737  -31.2259 H   0  0  0  0  0  0  0  0  0  0  0  0
   -5.6273   20.7505  -31.1620 H   0  0  0  0  0  0  0  0  0  0  0  0
   -5.7954   20.8633  -34.4191 H   0  0  0  0  0  0  0  0  0  0  0  0
   -5.6247   19.0901  -34.1363 H   0  0  0  0  0  0  0  0  0  0  0  0
   -7.2810   16.9873  -31.7131 H   0  0  0  0  0  0  0  0  0  0  0  0
   -8.2262   17.1820  -33.2282 H   0  0  0  0  0  0  0  0  0  0  0  0
   -6.4562   17.4881  -33.2282 H   0  0  0  0  0  0  0  0  0  0  0  0
   -9.3249   21.3989  -29.5997 H   0  0  0  0  0  0  0  0  0  0  0  0
   -9.3609   22.6196  -30.9171 H   0  0  0  0  0  0  0  0  0  0  0  0
  -10.5385   21.2632  -30.9171 H   0  0  0  0  0  0  0  0  0  0  0  0
   -6.9948   23.0684  -31.3395 H   0  0  0  0  0  0  0  0  0  0  0  0
   -6.1722   22.6823  -32.8890 H   0  0  0  0  0  0  0  0  0  0  0  0
   -7.8952   23.1902  -32.8890 H   0  0  0  0  0  0  0  0  0  0  0  0
   -2.7843   21.4013  -33.5239 H   0  0  0  0  0  0  0  0  0  0  0  0
   -4.4163   22.0600  -34.0238 H   0  0  0  0  0  0  0  0  0  0  0  0
   -3.1645   23.4822  -32.3500 H   0  0  0  0  0  0  0  0  0  0  0  0
   -4.8133   22.9635  -31.8522 H   0  0  0  0  0  0  0  0  0  0  0  0
  1  2  1  0
  2  3  1  0
  3  4  2  0
  4  5  1  0
  5  6  2  0
  6  7  1  0
  7  8  2  0
  8  9  1  0
  9 10  1  0
 10 11  1  0
 11 12  1  0
 12 13  1  0
 13 14  1  0
 14 15  1  0
 15 16  1  0
 15 17  2  0
 17 18  1  0
 18 19  1  0
 18 20  1  0
 20 21  1  0
 12 22  1  0
 22 23  1  0
  8  3  1  0
 23  9  1  0
 20 14  2  0
  1 24  1  0
  1 25  1  0
  1 26  1  0
  4 27  1  0
  5 28  1  0
  6 29  1  0
  7 30  1  0
 10 31  1  0
 10 32  1  0
 11 33  1  0
 11 34  1  0
 13 35  1  0
 13 36  1  0
 16 37  1  0
 16 38  1  0
 16 39  1  0
 19 40  1  0
 19 41  1  0
 19 42  1  0
 21 43  1  0
 21 44  1  0
 21 45  1  0
 22 46  1  0
 22 47  1  0
 23 48  1  0
 23 49  1  0
M  END
>  <UniqueID>  (10) 
10

>  <SMILES>  (10) 
COc1ccccc1N1CCN(Cc2c(C)nn(C)c2C)CC1

>  <Energy>  (10) 
87.4907004418659

>  <Genealogy>  (10) 
COc1ccccc1N1CCN(Cc2c(C)nn(C)c2C)CC1 (3D coordinates assigned)
COc1ccccc1N1CCN(Cc2c(C)nn(C)c2C)CC1 (nonaromatic ring conformer: 87.4907004418659 kcal/mol)

>  <smiles>  (10) 
COc1ccccc1N1CCN(Cc2c(C)nn(C)c2C)CC1

>  <score_type>  (10) 
oracle

>  <origin>  (10) 
adg

>  <m_score__min__energy>  (10) 
-7.8700000000000001

>  <m_primary>  (10) 
energy

$$$$
10:0
     RDKit          3D

 56 59  0  0  0  0  0  0  0  0999 V2000
   -2.4450   23.6040  -29.0160 C   0  0  0  0  0  0  0  0  0  0  0  0
   -3.8080   24.2520  -29.2300 C   0  0  0  0  0  0  0  0  0  0  0  0
   -3.8360   24.9700  -30.5130 N   0  0  0  0  0  0  0  0  0  0  0  0
   -5.1070   25.6790  -30.7410 C   0  0  0  0  0  0  0  0  0  0  0  0
   -6.1930   25.2660  -29.7270 C   0  0  0  0  0  0  0  0  0  0  0  0
   -7.2400   24.3220  -30.3370 C   0  0  0  0  0  0  0  0  0  0  0  0
   -6.7370   23.6210  -31.6040 C   0  0  0  0  0  0  0  0  0  0  0  0
   -5.6460   22.7010  -31.2870 N   0  0  0  0  0  0  0  0  0  0  0  0
   -5.6060   21.3990  -31.8810 C   0  0  0  0  0  0  0  0  0  0  0  0
   -4.4160   20.8920  -32.3800 C   0  0  0  0  0  0  0  0  0  0  0  0
   -4.3450   19.6330  -32.9560 C   0  0  0  0  0  0  0  0  0  0  0  0
   -5.4400   18.7960  -32.9870 N   0  0  0  0  0  0  0  0  0  0  0  0
   -5.2880   17.3860  -33.3940 C   0  0  0  0  0  0  0  0  0  0  0  0
   -5.4060   17.2370  -34.9110 C   0  0  0  0  0  0  0  0  0  0  0  0
   -6.6720   19.2970  -32.5760 C   0  0  0  0  0  0  0  0  0  0  0  0
   -7.8720   18.5510  -32.7060 C   0  0  0  0  0  0  0  0  0  0  0  0
   -9.0920   19.0620  -32.2650 C   0  0  0  0  0  0  0  0  0  0  0  0
   -9.1600   20.3260  -31.6890 C   0  0  0  0  0  0  0  0  0  0  0  0
   -8.0090   21.0970  -31.5600 C   0  0  0  0  0  0  0  0  0  0  0  0
   -6.7650   20.6100  -32.0050 C   0  0  0  0  0  0  0  0  0  0  0  0
   -2.9390   19.4360  -33.4270 C   0  0  0  0  0  0  0  0  0  0  0  0
   -2.3180   18.4310  -34.1920 C   0  0  0  0  0  0  0  0  0  0  0  0
   -0.9600   18.5690  -34.5220 C   0  0  0  0  0  0  0  0  0  0  0  0
   -0.2380   19.7070  -34.1260 C   0  0  0  0  0  0  0  0  0  0  0  0
   -0.8700   20.7290  -33.4080 C   0  0  0  0  0  0  0  0  0  0  0  0
   -2.2150   20.5710  -33.0780 C   0  0  0  0  0  0  0  0  0  0  0  0
   -3.1010   21.5150  -32.4270 C   0  0  0  0  0  0  0  0  0  0  0  0
   -2.7930   22.6670  -32.0210 O   0  0  0  0  0  0  0  0  0  0  0  0
   -2.2486   23.5106  -27.9377 H   0  0  0  0  0  0  0  0  0  0  0  0
   -2.4370   22.6057  -29.4779 H   0  0  0  0  0  0  0  0  0  0  0  0
   -1.6657   24.2280  -29.4779 H   0  0  0  0  0  0  0  0  0  0  0  0
   -4.5839   23.4723  -29.2335 H   0  0  0  0  0  0  0  0  0  0  0  0
   -3.9960   24.9671  -28.4156 H   0  0  0  0  0  0  0  0  0  0  0  0
   -3.6640   24.2910  -31.2920 H   0  0  0  0  0  0  0  0  0  0  0  0
   -4.9305   26.7610  -30.6504 H   0  0  0  0  0  0  0  0  0  0  0  0
   -5.4657   25.4153  -31.7469 H   0  0  0  0  0  0  0  0  0  0  0  0
   -5.7095   24.7565  -28.8804 H   0  0  0  0  0  0  0  0  0  0  0  0
   -6.7143   26.1797  -29.4054 H   0  0  0  0  0  0  0  0  0  0  0  0
   -7.5008   23.5566  -29.5912 H   0  0  0  0  0  0  0  0  0  0  0  0
   -8.1125   24.9302  -30.6177 H   0  0  0  0  0  0  0  0  0  0  0  0
   -7.5652   23.0565  -32.0573 H   0  0  0  0  0  0  0  0  0  0  0  0
   -6.3651   24.3823  -32.3054 H   0  0  0  0  0  0  0  0  0  0  0  0
   -4.8140   23.0250  -30.7440 H   0  0  0  0  0  0  0  0  0  0  0  0
   -4.3003   17.0235  -33.0728 H   0  0  0  0  0  0  0  0  0  0  0  0
   -6.0876   16.7970  -32.9211 H   0  0  0  0  0  0  0  0  0  0  0  0
   -6.0732   16.3946  -35.1459 H   0  0  0  0  0  0  0  0  0  0  0  0
   -5.8190   18.1622  -35.3393 H   0  0  0  0  0  0  0  0  0  0  0  0
   -4.4108   17.0470  -35.3393 H   0  0  0  0  0  0  0  0  0  0  0  0
   -7.8392   17.5510  -33.1632 H   0  0  0  0  0  0  0  0  0  0  0  0
  -10.0070   18.4612  -32.3734 H   0  0  0  0  0  0  0  0  0  0  0  0
  -10.1253   20.7168  -31.3348 H   0  0  0  0  0  0  0  0  0  0  0  0
   -8.0715   22.0969  -31.1059 H   0  0  0  0  0  0  0  0  0  0  0  0
   -2.8875   17.5512  -34.5262 H   0  0  0  0  0  0  0  0  0  0  0  0
   -0.4564   17.7777  -35.0966 H   0  0  0  0  0  0  0  0  0  0  0  0
    0.8283   19.7954  -34.3811 H   0  0  0  0  0  0  0  0  0  0  0  0
   -0.3192   21.6339  -33.1117 H   0  0  0  0  0  0  0  0  0  0  0  0
  1  2  1  0
  2  3  1  0
  3  4  1  0
  4  5  1  0
  5  6  1  0
  6  7  1  0
  7  8  1  0
  8  9  1  0
  9 10  2  0
 10 11  1  0
 11 12  2  0
 12 13  1  0
 13 14  1  0
 12 15  1  0
 15 16  2  0
 16 17  1  0
 17 18  2  0
 18 19  1  0
 19 20  2  0
 11 21  1  0
 21 22  2  0
 22 23  1  0
 23 24  2  0
 24 25  1  0
 25 26  2  0
 26 27  1  0
 27 28  2  0
 20  9  1  0
 26 21  1  0
 27 10  1  0
 20 15  1  0
  1 29  1  0
  1 30  1  0
  1 31  1  0
  2 32  1  0
  2 33  1  0
  3 34  1  0
  4 35  1  0
  4 36  1  0
  5 37  1  0
  5 38  1  0
  6 39  1  0
  6 40  1  0
  7 41  1  0
  7 42  1  0
  8 43  1  0
 13 44  1  0
 13 45  1  0
 14 46  1  0
 14 47  1  0
 14 48  1  0
 16 49  1  0
 17 50  1  0
 18 51  1  0
 19 52  1  0
 22 53  1  0
 23 54  1  0
 24 55  1  0
 25 56  1  0
M  CHG  1  12   1
M  END
>  <UniqueID>  (11) 
11

>  <SMILES>  (11) 
CCNCCCCNc1c2c([n+](CC)c3ccccc13)-c1ccccc1C2=O

>  <Energy>  (11) 
106.07396529411974

>  <Genealogy>  (11) 
CCNCCCCNc1c2c([n+](CC)c3ccccc13)-c1ccccc1C2=O (3D coordinates assigned)
CCNCCCCNc1c2c([n+](CC)c3ccccc13)-c1ccccc1C2=O (nonaromatic ring conformer: 106.07396529411974 kcal/mol)

>  <smiles>  (11) 
CCNCCCCNc1c2c([n+](CC)c3ccccc13)-c1ccccc1C2=O

>  <score_type>  (11) 
oracle

>  <origin>  (11) 
adg

>  <m_score__min__energy>  (11) 
-9.8800000000000008

>  <m_primary>  (11) 
energy

$$$$
11:0
     RDKit          3D

 46 48  0  0  0  0  0  0  0  0999 V2000
   -9.0840   20.1300  -32.3560 C   0  0  0  0  0  0  0  0  0  0  0  0
   -8.1020   20.5600  -31.2720 C   0  0  0  0  0  0  0  0  0  0  0  0
   -6.9140   21.1730  -31.8740 N   0  0  0  0  0  0  0  0  0  0  0  0
   -5.9310   20.5870  -32.6010 C   0  0  0  0  0  0  0  0  0  0  0  0
   -5.9430   19.1990  -33.0980 C   0  0  0  0  0  0  0  0  0  0  0  0
   -6.0950   18.1360  -32.1930 C   0  0  0  0  0  0  0  0  0  0  0  0
   -6.0910   16.8150  -32.6510 C   0  0  0  0  0  0  0  0  0  0  0  0
   -5.9200   16.5460  -34.0110 C   0  0  0  0  0  0  0  0  0  0  0  0
   -5.7420   17.5990  -34.9150 C   0  0  0  0  0  0  0  0  0  0  0  0
   -5.7460   18.9200  -34.4600 C   0  0  0  0  0  0  0  0  0  0  0  0
   -4.8790   21.4150  -32.7720 N   0  0  0  0  0  0  0  0  0  0  0  0
   -5.1910   22.5430  -32.1550 N   0  0  0  0  0  0  0  0  0  0  0  0
   -6.4070   22.3940  -31.6050 C   0  0  0  0  0  0  0  0  0  0  0  0
   -7.1950   23.6380  -30.5770 S   0  0  0  0  0  0  0  0  0  0  0  0
   -6.1200   25.0140  -31.1220 C   0  0  0  0  0  0  0  0  0  0  0  0
   -5.0020   25.2900  -30.1130 C   0  0  0  0  0  0  0  0  0  0  0  0
   -3.7790   24.6750  -30.5220 O   0  0  0  0  0  0  0  0  0  0  0  0
   -3.2570   23.4600  -30.0500 C   0  0  0  0  0  0  0  0  0  0  0  0
   -3.6180   23.0500  -28.7600 C   0  0  0  0  0  0  0  0  0  0  0  0
   -3.1140   21.8630  -28.2250 C   0  0  0  0  0  0  0  0  0  0  0  0
   -2.2510   21.0650  -28.9790 C   0  0  0  0  0  0  0  0  0  0  0  0
   -1.9030   21.4410  -30.2840 C   0  0  0  0  0  0  0  0  0  0  0  0
   -0.9470   20.6020  -31.0790 C   0  0  0  0  0  0  0  0  0  0  0  0
   -2.4010   22.6410  -30.8150 C   0  0  0  0  0  0  0  0  0  0  0  0
   -9.9957   19.7308  -31.8875 H   0  0  0  0  0  0  0  0  0  0  0  0
   -9.3427   20.9972  -32.9813 H   0  0  0  0  0  0  0  0  0  0  0  0
   -8.6222   19.3517  -32.9813 H   0  0  0  0  0  0  0  0  0  0  0  0
   -8.5902   21.2896  -30.6092 H   0  0  0  0  0  0  0  0  0  0  0  0
   -7.7944   19.6742  -30.6968 H   0  0  0  0  0  0  0  0  0  0  0  0
   -6.2177   18.3434  -31.1197 H   0  0  0  0  0  0  0  0  0  0  0  0
   -6.2227   15.9865  -31.9395 H   0  0  0  0  0  0  0  0  0  0  0  0
   -5.9253   15.5066  -34.3712 H   0  0  0  0  0  0  0  0  0  0  0  0
   -5.5988   17.3866  -35.9848 H   0  0  0  0  0  0  0  0  0  0  0  0
   -5.5942   19.7449  -35.1717 H   0  0  0  0  0  0  0  0  0  0  0  0
   -4.5660   23.3750  -32.0860 H   0  0  0  0  0  0  0  0  0  0  0  0
   -5.6697   24.7529  -32.0910 H   0  0  0  0  0  0  0  0  0  0  0  0
   -6.7378   25.9201  -31.2071 H   0  0  0  0  0  0  0  0  0  0  0  0
   -4.8492   26.3765  -30.0338 H   0  0  0  0  0  0  0  0  0  0  0  0
   -5.2969   24.8700  -29.1400 H   0  0  0  0  0  0  0  0  0  0  0  0
   -4.3045   23.6687  -28.1634 H   0  0  0  0  0  0  0  0  0  0  0  0
   -3.3973   21.5557  -27.2075 H   0  0  0  0  0  0  0  0  0  0  0  0
   -1.8431   20.1389  -28.5478 H   0  0  0  0  0  0  0  0  0  0  0  0
   -0.3002   20.0343  -30.3939 H   0  0  0  0  0  0  0  0  0  0  0  0
   -1.5123   19.9031  -31.7131 H   0  0  0  0  0  0  0  0  0  0  0  0
   -0.3274   21.2532  -31.7131 H   0  0  0  0  0  0  0  0  0  0  0  0
   -2.1217   22.9447  -31.8347 H   0  0  0  0  0  0  0  0  0  0  0  0
  1  2  1  0
  2  3  1  0
  3  4  1  0
  4  5  1  0
  5  6  2  0
  6  7  1  0
  7  8  2  0
  8  9  1  0
  9 10  2  0
  4 11  2  0
 11 12  1  0
 12 13  2  0
 13 14  1  0
 14 15  1  0
 15 16  1  0
 16 17  1  0
 17 18  1  0
 18 19  2  0
 19 20  1  0
 20 21  2  0
 21 22  1  0
 22 23  1  0
 22 24  2  0
 13  3  1  0
 24 18  1  0
 10  5  1  0
  1 25  1  0
  1 26  1  0
  1 27  1  0
  2 28  1  0
  2 29  1  0
  6 30  1  0
  7 31  1  0
  8 32  1  0
  9 33  1  0
 10 34  1  0
 12 35  1  0
 15 36  1  0
 15 37  1  0
 16 38  1  0
 16 39  1  0
 19 40  1  0
 20 41  1  0
 21 42  1  0
 23 43  1  0
 23 44  1  0
 23 45  1  0
 24 46  1  0
M  CHG  1  12   1
M  END
>  <UniqueID>  (12) 
12

>  <SMILES>  (12) 
CCn1c(-c2ccccc2)n[nH+]c1SCCOc1cccc(C)c1

>  <Energy>  (12) 
81.75962875348819

>  <Genealogy>  (12) 
CCn1c(-c2ccccc2)n[nH+]c1SCCOc1cccc(C)c1 (protonated)
CCn1c(-c2ccccc2)n[nH+]c1SCCOc1cccc(C)c1 (3D coordinates assigned)
CCn1c(-c2ccccc2)n[nH+]c1SCCOc1cccc(C)c1 (optimized conformer: 81.75962875348819 kcal/mol)

>  <smiles>  (12) 
CCn1c(SCCOc2cccc(C)c2)nnc1-c1ccccc1

>  <score_type>  (12) 
oracle

>  <origin>  (12) 
adg

>  <m_score__min__energy>  (12) 
-8.4499999999999993

>  <m_primary>  (12) 
energy

$$$$
12:0
     RDKit          3D

 61 63  0  0  0  0  0  0  0  0999 V2000
   -2.6860   19.5940  -27.1210 C   0  0  0  0  0  0  0  0  0  0  0  0
   -2.7440   20.4820  -28.3710 C   0  0  0  0  0  0  0  0  0  0  0  0
   -1.4040   20.7520  -28.9500 N   0  0  1  0  0  0  0  0  0  0  0  0
   -1.0310   22.1710  -28.7670 C   0  0  0  0  0  0  0  0  0  0  0  0
   -0.4050   19.8520  -28.3150 C   0  0  0  0  0  0  0  0  0  0  0  0
    0.7910   19.5150  -29.2220 C   0  0  0  0  0  0  0  0  0  0  0  0
    0.5890   20.0530  -30.5120 O   0  0  0  0  0  0  0  0  0  0  0  0
    0.3180   19.0260  -31.4470 C   0  0  0  0  0  0  0  0  0  0  0  0
   -1.1290   19.1070  -31.9430 C   0  0  0  0  0  0  0  0  0  0  0  0
   -1.7320   20.3330  -31.5750 O   0  0  0  0  0  0  0  0  0  0  0  0
   -1.9160   21.1740  -32.6950 C   0  0  0  0  0  0  0  0  0  0  0  0
   -3.3730   21.1040  -33.1540 C   0  0  0  0  0  0  0  0  0  0  0  0
   -4.2480   20.5330  -32.1260 N   0  0  0  0  0  0  0  0  0  0  0  0
   -5.5170   21.1180  -31.7990 C   0  0  0  0  0  0  0  0  0  0  0  0
   -5.5560   22.4150  -31.2570 C   0  0  0  0  0  0  0  0  0  0  0  0
   -4.3850   23.0240  -30.7570 C   0  0  0  0  0  0  0  0  0  0  0  0
   -4.4300   24.2970  -30.1940 C   0  0  0  0  0  0  0  0  0  0  0  0
   -5.6410   24.9740  -30.1010 C   0  0  0  0  0  0  0  0  0  0  0  0
   -6.8100   24.3890  -30.5880 C   0  0  0  0  0  0  0  0  0  0  0  0
   -6.7880   23.1100  -31.2000 C   0  0  0  0  0  0  0  0  0  0  0  0
   -7.9260   22.5380  -31.7300 N   0  0  0  0  0  0  0  0  0  0  0  0
   -9.1220   23.3720  -31.9820 C   0  0  0  0  0  0  0  0  0  0  0  0
   -7.9440   21.1890  -32.0340 C   0  0  0  0  0  0  0  0  0  0  0  0
   -9.1630   20.5160  -32.2960 C   0  0  0  0  0  0  0  0  0  0  0  0
   -9.1860   19.1690  -32.6320 C   0  0  0  0  0  0  0  0  0  0  0  0
   -8.0080   18.4430  -32.6830 C   0  0  0  0  0  0  0  0  0  0  0  0
   -6.7840   19.0470  -32.3910 C   0  0  0  0  0  0  0  0  0  0  0  0
   -5.4060   17.9450  -32.3350 Cl  0  0  0  0  0  0  0  0  0  0  0  0
   -6.7280   20.4400  -32.0760 C   0  0  0  0  0  0  0  0  0  0  0  0
   -2.7272   20.2249  -26.2208 H   0  0  0  0  0  0  0  0  0  0  0  0
   -3.5408   18.9017  -27.1230 H   0  0  0  0  0  0  0  0  0  0  0  0
   -1.7484   19.0188  -27.1230 H   0  0  0  0  0  0  0  0  0  0  0  0
   -3.3599   19.9787  -29.1309 H   0  0  0  0  0  0  0  0  0  0  0  0
   -3.1745   21.4484  -28.0699 H   0  0  0  0  0  0  0  0  0  0  0  0
   -1.4410   20.5430  -29.9750 H   0  0  0  0  0  0  0  0  0  0  0  0
   -0.9711   22.3987  -27.6925 H   0  0  0  0  0  0  0  0  0  0  0  0
   -0.0535   22.3566  -29.2362 H   0  0  0  0  0  0  0  0  0  0  0  0
   -1.7908   22.8133  -29.2362 H   0  0  0  0  0  0  0  0  0  0  0  0
   -0.0244   20.3421  -27.4067 H   0  0  0  0  0  0  0  0  0  0  0  0
   -0.9196   18.9044  -28.0975 H   0  0  0  0  0  0  0  0  0  0  0  0
    1.7076   19.9423  -28.7891 H   0  0  0  0  0  0  0  0  0  0  0  0
    0.8875   18.4219  -29.2990 H   0  0  0  0  0  0  0  0  0  0  0  0
    0.9991   19.1305  -32.3044 H   0  0  0  0  0  0  0  0  0  0  0  0
    0.4671   18.0538  -30.9545 H   0  0  0  0  0  0  0  0  0  0  0  0
   -1.1372   19.0188  -33.0394 H   0  0  0  0  0  0  0  0  0  0  0  0
   -1.6999   18.2877  -31.4818 H   0  0  0  0  0  0  0  0  0  0  0  0
   -1.6680   22.2098  -32.4199 H   0  0  0  0  0  0  0  0  0  0  0  0
   -1.2587   20.8432  -33.5126 H   0  0  0  0  0  0  0  0  0  0  0  0
   -3.7198   22.1209  -33.3901 H   0  0  0  0  0  0  0  0  0  0  0  0
   -3.4186   20.4514  -34.0383 H   0  0  0  0  0  0  0  0  0  0  0  0
   -3.8370   19.8470  -31.4530 H   0  0  0  0  0  0  0  0  0  0  0  0
   -3.4264   22.4873  -30.8126 H   0  0  0  0  0  0  0  0  0  0  0  0
   -3.5073   24.7670  -29.8228 H   0  0  0  0  0  0  0  0  0  0  0  0
   -5.6773   25.9732  -29.6424 H   0  0  0  0  0  0  0  0  0  0  0  0
   -7.7642   24.9285  -30.4958 H   0  0  0  0  0  0  0  0  0  0  0  0
   -9.5632   23.6797  -31.0225 H   0  0  0  0  0  0  0  0  0  0  0  0
   -8.8322   24.2649  -32.5554 H   0  0  0  0  0  0  0  0  0  0  0  0
   -9.8597   22.7914  -32.5554 H   0  0  0  0  0  0  0  0  0  0  0  0
  -10.1101   21.0718  -32.2319 H   0  0  0  0  0  0  0  0  0  0  0  0
  -10.1434   18.6769  -32.8585 H   0  0  0  0  0  0  0  0  0  0  0  0
   -8.0371   17.3780  -32.9568 H   0  0  0  0  0  0  0  0  0  0  0  0
  1  2  1  0
  2  3  1  0
  3  4  1  0
  3  5  1  0
  5  6  1  0
  6  7  1  0
  7  8  1  0
  8  9  1  0
  9 10  1  0
 10 11  1  0
 11 12  1  0
 12 13  1  0
 13 14  1  0
 14 15  2  0
 15 16  1  0
 16 17  2  0
 17 18  1  0
 18 19  2  0
 19 20  1  0
 20 21  2  0
 21 22  1  0
 21 23  1  0
 23 24  2  0
 24 25  1  0
 25 26  2  0
 26 27  1  0
 27 28  1  0
 27 29  2  0
 29 14  1  0
 20 15  1  0
 29 23  1  0
  1 30  1  0
  1 31  1  0
  1 32  1  0
  2 33  1  0
  2 34  1  0
  3 35  1  6
  4 36  1  0
  4 37  1  0
  4 38  1  0
  5 39  1  0
  5 40  1  0
  6 41  1  0
  6 42  1  0
  8 43  1  0
  8 44  1  0
  9 45  1  0
  9 46  1  0
 11 47  1  0
 11 48  1  0
 12 49  1  0
 12 50  1  0
 13 51  1  0
 16 52  1  0
 17 53  1  0
 18 54  1  0
 19 55  1  0
 22 56  1  0
 22 57  1  0
 22 58  1  0
 24 59  1  0
 25 60  1  0
 26 61  1  0
M  CHG  2   3   1  21   1
M  END
>  <UniqueID>  (13) 
13

>  <SMILES>  (13) 
CC[N@@H+](C)CCOCCOCCNc1c2ccccc2[n+](C)c2cccc(Cl)c12

>  <Energy>  (13) 
95.24382055518792

>  <Genealogy>  (13) 
CC[NH+](C)CCOCCOCCNc1c2ccccc2[n+](C)c2cccc(Cl)c12 (protonated)
CC[N@@H+](C)CCOCCOCCNc1c2ccccc2[n+](C)c2cccc(Cl)c12 (chirality)
CC[N@@H+](C)CCOCCOCCNc1c2ccccc2[n+](C)c2cccc(Cl)c12 (3D coordinates assigned)
CC[N@@H+](C)CCOCCOCCNc1c2ccccc2[n+](C)c2cccc(Cl)c12 (optimized conformer: 95.24382055518792 kcal/mol)

>  <smiles>  (13) 
CCN(C)CCOCCOCCNc1c2ccccc2[n+](C)c2cccc(Cl)c12

>  <score_type>  (13) 
oracle

>  <origin>  (13) 
adg

>  <m_score__min__energy>  (13) 
-9.4499999999999993

>  <m_primary>  (13) 
energy

$$$$
13:0
     RDKit          3D

 61 64  0  0  0  0  0  0  0  0999 V2000
   -6.1580   24.8810  -29.7250 C   0  0  0  0  0  0  0  0  0  0  0  0
   -5.2070   25.6740  -30.6140 C   0  0  0  0  0  0  0  0  0  0  0  0
   -3.8660   25.2050  -30.4600 O   0  0  0  0  0  0  0  0  0  0  0  0
   -3.4810   23.8790  -30.1900 C   0  0  0  0  0  0  0  0  0  0  0  0
   -3.5260   22.8630  -31.1670 C   0  0  0  0  0  0  0  0  0  0  0  0
   -3.1510   21.5500  -30.8490 C   0  0  0  0  0  0  0  0  0  0  0  0
   -3.2000   20.4840  -31.8660 C   0  0  0  0  0  0  0  0  0  0  0  0
   -2.1120   19.9810  -32.4780 N   0  0  0  0  0  0  0  0  0  0  0  0
   -2.4940   19.1630  -33.4480 N   0  0  0  0  0  0  0  0  0  0  0  0
   -1.5580   18.4720  -34.2960 C   0  0  0  0  0  0  0  0  0  0  0  0
   -0.5090   19.0940  -34.8760 N   0  0  0  0  0  0  0  0  0  0  0  0
    0.2110   18.2580  -35.6760 C   0  0  0  0  0  0  0  0  0  0  0  0
    1.4240   18.7520  -36.4020 C   0  0  0  0  0  0  0  0  0  0  0  0
   -0.2800   16.9470  -35.7550 C   0  0  0  0  0  0  0  0  0  0  0  0
    0.2570   15.8210  -36.5480 C   0  0  0  0  0  0  0  0  0  0  0  0
    0.2540   15.8740  -38.0450 C   0  0  0  0  0  0  0  0  0  0  0  0
    0.7260   14.8030  -35.9760 O   0  0  0  0  0  0  0  0  0  0  0  0
   -1.6560   16.8650  -34.7870 S   0  0  0  0  0  0  0  0  0  0  0  0
   -3.8500   19.1300  -33.4750 C   0  0  0  0  0  0  0  0  0  0  0  0
   -4.6940   18.3450  -34.4360 C   0  0  0  0  0  0  0  0  0  0  0  0
   -4.3320   19.9630  -32.4730 C   0  0  0  0  0  0  0  0  0  0  0  0
   -5.7310   20.3710  -32.2550 C   0  0  0  0  0  0  0  0  0  0  0  0
   -6.7000   19.4060  -31.9490 C   0  0  0  0  0  0  0  0  0  0  0  0
   -8.0290   19.7840  -31.7370 C   0  0  0  0  0  0  0  0  0  0  0  0
   -8.4040   21.1320  -31.8320 C   0  0  0  0  0  0  0  0  0  0  0  0
   -9.8240   21.5490  -31.5850 C   0  0  0  0  0  0  0  0  0  0  0  0
   -7.4260   22.1020  -32.1110 C   0  0  0  0  0  0  0  0  0  0  0  0
   -6.0960   21.7230  -32.3210 C   0  0  0  0  0  0  0  0  0  0  0  0
   -2.7460   21.2440  -29.5440 C   0  0  0  0  0  0  0  0  0  0  0  0
   -2.6860   22.2430  -28.5730 C   0  0  0  0  0  0  0  0  0  0  0  0
   -3.0500   23.5670  -28.8890 C   0  0  0  0  0  0  0  0  0  0  0  0
   -3.0010   24.5980  -27.9380 O   0  0  0  0  0  0  0  0  0  0  0  0
   -3.7500   24.6120  -26.7260 C   0  0  0  0  0  0  0  0  0  0  0  0
   -5.9222   25.0776  -28.6687 H   0  0  0  0  0  0  0  0  0  0  0  0
   -7.1942   25.1864  -29.9324 H   0  0  0  0  0  0  0  0  0  0  0  0
   -6.0438   23.8068  -29.9324 H   0  0  0  0  0  0  0  0  0  0  0  0
   -5.5123   25.5576  -31.6643 H   0  0  0  0  0  0  0  0  0  0  0  0
   -5.2481   26.7335  -30.3210 H   0  0  0  0  0  0  0  0  0  0  0  0
   -3.8583   23.1028  -32.1878 H   0  0  0  0  0  0  0  0  0  0  0  0
   -1.1210   20.2250  -32.2590 H   0  0  0  0  0  0  0  0  0  0  0  0
    2.1867   19.0626  -35.6727 H   0  0  0  0  0  0  0  0  0  0  0  0
    1.8269   17.9463  -37.0333 H   0  0  0  0  0  0  0  0  0  0  0  0
    1.1494   19.6099  -37.0333 H   0  0  0  0  0  0  0  0  0  0  0  0
    0.1947   16.9218  -38.3747 H   0  0  0  0  0  0  0  0  0  0  0  0
    1.1793   15.4203  -38.4298 H   0  0  0  0  0  0  0  0  0  0  0  0
   -0.6142   15.3188  -38.4298 H   0  0  0  0  0  0  0  0  0  0  0  0
   -5.3865   17.7009  -33.8742 H   0  0  0  0  0  0  0  0  0  0  0  0
   -5.2687   19.0370  -35.0691 H   0  0  0  0  0  0  0  0  0  0  0  0
   -4.0454   17.7217  -35.0691 H   0  0  0  0  0  0  0  0  0  0  0  0
   -6.4136   18.3465  -31.8753 H   0  0  0  0  0  0  0  0  0  0  0  0
   -8.7836   19.0212  -31.4947 H   0  0  0  0  0  0  0  0  0  0  0  0
  -10.0072   21.6028  -30.5017 H   0  0  0  0  0  0  0  0  0  0  0  0
   -9.9999   22.5367  -32.0361 H   0  0  0  0  0  0  0  0  0  0  0  0
  -10.5060   20.8132  -32.0361 H   0  0  0  0  0  0  0  0  0  0  0  0
   -7.7077   23.1640  -32.1645 H   0  0  0  0  0  0  0  0  0  0  0  0
   -5.3351   22.4871  -32.5383 H   0  0  0  0  0  0  0  0  0  0  0  0
   -2.4738   20.2105  -29.2835 H   0  0  0  0  0  0  0  0  0  0  0  0
   -2.3525   21.9960  -27.5543 H   0  0  0  0  0  0  0  0  0  0  0  0
   -3.0607   24.5991  -25.8688 H   0  0  0  0  0  0  0  0  0  0  0  0
   -4.3670   25.5218  -26.6867 H   0  0  0  0  0  0  0  0  0  0  0  0
   -4.4005   23.7259  -26.6867 H   0  0  0  0  0  0  0  0  0  0  0  0
  1  2  1  0
  2  3  1  0
  3  4  1  0
  4  5  2  0
  5  6  1  0
  6  7  1  0
  7  8  2  0
  8  9  1  0
  9 10  1  0
 10 11  2  0
 11 12  1  0
 12 13  1  0
 12 14  2  0
 14 15  1  0
 15 16  1  0
 15 17  2  0
 14 18  1  0
  9 19  1  0
 19 20  1  0
 19 21  2  0
 21 22  1  0
 22 23  2  0
 23 24  1  0
 24 25  2  0
 25 26  1  0
 25 27  1  0
 27 28  2  0
  6 29  2  0
 29 30  1  0
 30 31  2  0
 31 32  1  0
 32 33  1  0
 31  4  1  0
 21  7  1  0
 28 22  1  0
 18 10  1  0
  1 34  1  0
  1 35  1  0
  1 36  1  0
  2 37  1  0
  2 38  1  0
  5 39  1  0
  8 40  1  0
 13 41  1  0
 13 42  1  0
 13 43  1  0
 16 44  1  0
 16 45  1  0
 16 46  1  0
 20 47  1  0
 20 48  1  0
 20 49  1  0
 23 50  1  0
 24 51  1  0
 26 52  1  0
 26 53  1  0
 26 54  1  0
 27 55  1  0
 28 56  1  0
 29 57  1  0
 30 58  1  0
 33 59  1  0
 33 60  1  0
 33 61  1  0
M  CHG  1   8   1
M  END
>  <UniqueID>  (14) 
14

>  <SMILES>  (14) 
CCOc1cc(-c2[nH+]n(-c3nc(C)c(C(C)=O)s3)c(C)c2-c2ccc(C)cc2)ccc1OC

>  <Energy>  (14) 
134.81634918368997

>  <Genealogy>  (14) 
CCOc1cc(-c2[nH+]n(-c3nc(C)c(C(C)=O)s3)c(C)c2-c2ccc(C)cc2)ccc1OC (protonated)
CCOc1cc(-c2[nH+]n(-c3nc(C)c(C(C)=O)s3)c(C)c2-c2ccc(C)cc2)ccc1OC (3D coordinates assigned)
CCOc1cc(-c2[nH+]n(-c3nc(C)c(C(C)=O)s3)c(C)c2-c2ccc(C)cc2)ccc1OC (optimized conformer: 134.81634918368997 kcal/mol)

>  <smiles>  (14) 
CCOc1cc(-c2nn(-c3nc(C)c(C(C)=O)s3)c(C)c2-c2ccc(C)cc2)ccc1OC

>  <score_type>  (14) 
oracle

>  <origin>  (14) 
adg

>  <m_score__min__energy>  (14) 
-8.7300000000000004

>  <m_primary>  (14) 
energy

$$$$
14:0
     RDKit          3D

 92 95  0  0  0  0  0  0  0  0999 V2000
   -0.6615   19.5262  -26.1374 H   0  0  0  0  0  0  0  0  0  0  0  0
   -1.1420   19.6510  -27.1190 C   0  0  0  0  0  0  0  0  0  0  0  0
   -0.3540   19.3140  -28.3200 C   0  0  0  0  0  0  0  0  0  0  0  0
    0.0670   20.3030  -29.2110 C   0  0  0  0  0  0  0  0  0  0  0  0
   -0.1903   21.3559  -29.0234 H   0  0  0  0  0  0  0  0  0  0  0  0
    0.8160   19.9580  -30.3430 C   0  0  0  0  0  0  0  0  0  0  0  0
    1.1874   20.7488  -31.0114 H   0  0  0  0  0  0  0  0  0  0  0  0
    1.0990   18.6090  -30.6350 C   0  0  0  0  0  0  0  0  0  0  0  0
    1.8590   18.2460  -31.8150 N   0  0  0  0  0  0  0  0  0  0  0  0
    1.2350   17.4890  -32.9080 C   0  0  0  0  0  0  0  0  0  0  0  0
    0.5883   16.7045  -32.4881 H   0  0  0  0  0  0  0  0  0  0  0  0
    0.6316   18.1691  -33.5272 H   0  0  0  0  0  0  0  0  0  0  0  0
    2.0177   17.0265  -33.5272 H   0  0  0  0  0  0  0  0  0  0  0  0
    3.2410   18.7090  -31.9640 C   0  0  0  0  0  0  0  0  0  0  0  0
    3.6869   18.8584  -30.9696 H   0  0  0  0  0  0  0  0  0  0  0  0
    3.8222   17.9565  -32.5171 H   0  0  0  0  0  0  0  0  0  0  0  0
    3.2516   19.6597  -32.5171 H   0  0  0  0  0  0  0  0  0  0  0  0
    0.6370   17.6220  -29.7430 C   0  0  0  0  0  0  0  0  0  0  0  0
    0.8496   16.5622  -29.9470 H   0  0  0  0  0  0  0  0  0  0  0  0
   -0.0870   17.9730  -28.6040 C   0  0  0  0  0  0  0  0  0  0  0  0
   -0.4504   17.1880  -27.9244 H   0  0  0  0  0  0  0  0  0  0  0  0
   -2.3760   20.0890  -27.1450 N   0  0  0  0  0  0  0  0  0  0  0  0
   -3.4290   19.1880  -26.6680 C   0  0  0  0  0  0  0  0  0  0  0  0
   -3.4360   19.1820  -25.5680 H   0  0  0  0  0  0  0  0  0  0  0  0
   -4.4046   19.5353  -27.0390 H   0  0  0  0  0  0  0  0  0  0  0  0
   -3.2367   18.1704  -27.0390 H   0  0  0  0  0  0  0  0  0  0  0  0
   -2.7410   21.4530  -27.5810 C   0  0  0  0  0  0  0  0  0  0  0  0
   -1.8946   22.1300  -27.3934 H   0  0  0  0  0  0  0  0  0  0  0  0
   -3.6255   21.7792  -27.0142 H   0  0  0  0  0  0  0  0  0  0  0  0
   -3.0820   21.4750  -29.0840 C   0  0  0  0  0  0  0  0  0  0  0  0
   -4.1651   21.6291  -29.1984 H   0  0  0  0  0  0  0  0  0  0  0  0
   -2.7642   20.5138  -29.5143 H   0  0  0  0  0  0  0  0  0  0  0  0
   -2.3440   22.5900  -29.8340 C   0  0  0  0  0  0  0  0  0  0  0  0
   -1.3479   22.2297  -30.1305 H   0  0  0  0  0  0  0  0  0  0  0  0
   -2.2484   23.4630  -29.1716 H   0  0  0  0  0  0  0  0  0  0  0  0
   -3.0910   22.9810  -31.0300 N   0  0  0  0  0  0  0  0  0  0  0  0
   -2.5980   22.8330  -31.9420 H   0  0  0  0  0  0  0  0  0  0  0  0
   -4.4740   23.3910  -31.0330 C   0  0  0  0  0  0  0  0  0  0  0  0
   -4.8040   24.6070  -30.4090 C   0  0  0  0  0  0  0  0  0  0  0  0
   -4.0008   25.2914  -30.0984 H   0  0  0  0  0  0  0  0  0  0  0  0
   -6.1250   24.9570  -30.1790 C   0  0  0  0  0  0  0  0  0  0  0  0
   -6.3573   25.9078  -29.6771 H   0  0  0  0  0  0  0  0  0  0  0  0
   -7.1600   24.1170  -30.5770 C   0  0  0  0  0  0  0  0  0  0  0  0
   -8.1998   24.3849  -30.3384 H   0  0  0  0  0  0  0  0  0  0  0  0
   -6.8900   22.9190  -31.2870 C   0  0  0  0  0  0  0  0  0  0  0  0
   -5.5300   22.5350  -31.4920 C   0  0  0  0  0  0  0  0  0  0  0  0
   -5.2980   21.3080  -32.1680 C   0  0  0  0  0  0  0  0  0  0  0  0
   -4.0020   20.9820  -32.6920 N   0  0  0  0  0  0  0  0  0  0  0  0
   -3.5800   21.6520  -33.3710 H   0  0  0  0  0  0  0  0  0  0  0  0
   -3.1700   19.9890  -32.0160 C   0  0  0  0  0  0  0  0  0  0  0  0
   -3.4304   18.9895  -32.3944 H   0  0  0  0  0  0  0  0  0  0  0  0
   -3.3586   20.0644  -30.9349 H   0  0  0  0  0  0  0  0  0  0  0  0
   -1.6710   20.2380  -32.2580 C   0  0  0  0  0  0  0  0  0  0  0  0
   -1.2447   19.3805  -32.7993 H   0  0  0  0  0  0  0  0  0  0  0  0
   -1.1701   20.3612  -31.2864 H   0  0  0  0  0  0  0  0  0  0  0  0
   -1.4800   21.4100  -33.0210 O   0  0  0  0  0  0  0  0  0  0  0  0
   -0.7720   21.1500  -34.2210 C   0  0  0  0  0  0  0  0  0  0  0  0
   -1.0886   21.8642  -34.9954 H   0  0  0  0  0  0  0  0  0  0  0  0
   -0.9858   20.1248  -34.5575 H   0  0  0  0  0  0  0  0  0  0  0  0
    0.7270   21.3010  -33.9720 C   0  0  0  0  0  0  0  0  0  0  0  0
    1.2217   20.3314  -34.1308 H   0  0  0  0  0  0  0  0  0  0  0  0
    0.8880   21.6383  -32.9374 H   0  0  0  0  0  0  0  0  0  0  0  0
    1.3020   22.3060  -34.9070 N   0  0  0  0  0  0  0  0  0  0  0  0
    2.5100   21.8150  -35.6290 C   0  0  0  0  0  0  0  0  0  0  0  0
    3.3451   22.4938  -35.4013 H   0  0  0  0  0  0  0  0  0  0  0  0
    2.2480   21.7958  -36.6972 H   0  0  0  0  0  0  0  0  0  0  0  0
    2.9440   20.3720  -35.2570 C   0  0  0  0  0  0  0  0  0  0  0  0
    2.9749   20.2691  -34.1623 H   0  0  0  0  0  0  0  0  0  0  0  0
    2.2222   19.6534  -35.6725 H   0  0  0  0  0  0  0  0  0  0  0  0
    3.9424   20.1708  -35.6725 H   0  0  0  0  0  0  0  0  0  0  0  0
    0.2960   22.9520  -35.7770 C   0  0  0  0  0  0  0  0  0  0  0  0
    0.2119   22.3862  -36.7166 H   0  0  0  0  0  0  0  0  0  0  0  0
   -0.6728   22.9637  -35.2561 H   0  0  0  0  0  0  0  0  0  0  0  0
    0.7090   24.3870  -36.0890 C   0  0  0  0  0  0  0  0  0  0  0  0
    0.8669   24.9357  -35.1488 H   0  0  0  0  0  0  0  0  0  0  0  0
    1.6420   24.3816  -36.6716 H   0  0  0  0  0  0  0  0  0  0  0  0
   -0.0842   24.8784  -36.6716 H   0  0  0  0  0  0  0  0  0  0  0  0
   -6.3540   20.4080  -32.3740 C   0  0  0  0  0  0  0  0  0  0  0  0
   -6.1010   19.0960  -32.8330 C   0  0  0  0  0  0  0  0  0  0  0  0
   -5.0726   18.7920  -33.0777 H   0  0  0  0  0  0  0  0  0  0  0  0
   -7.1450   18.1840  -32.9780 C   0  0  0  0  0  0  0  0  0  0  0  0
   -6.9358   17.1593  -33.3189 H   0  0  0  0  0  0  0  0  0  0  0  0
   -8.4520   18.5680  -32.6920 C   0  0  0  0  0  0  0  0  0  0  0  0
   -9.2715   17.8405  -32.7881 H   0  0  0  0  0  0  0  0  0  0  0  0
   -8.7250   19.8760  -32.2830 C   0  0  0  0  0  0  0  0  0  0  0  0
   -9.7644   20.1740  -32.0810 H   0  0  0  0  0  0  0  0  0  0  0  0
   -7.6830   20.8260  -32.1240 C   0  0  0  0  0  0  0  0  0  0  0  0
   -7.9320   22.1300  -31.7500 N   0  0  0  0  0  0  0  0  0  0  0  0
   -9.3000   22.6940  -31.8400 C   0  0  0  0  0  0  0  0  0  0  0  0
   -9.6966   22.8575  -30.8271 H   0  0  0  0  0  0  0  0  0  0  0  0
   -9.2669   23.6518  -32.3799 H   0  0  0  0  0  0  0  0  0  0  0  0
   -9.9516   21.9912  -32.3799 H   0  0  0  0  0  0  0  0  0  0  0  0
  1  2  1  0
  2  3  1  0
  3  4  2  0
  4  5  1  0
  4  6  1  0
  6  7  1  0
  6  8  2  0
  8  9  1  0
  9 10  1  0
 10 11  1  0
 10 12  1  0
 10 13  1  0
  9 14  1  0
 14 15  1  0
 14 16  1  0
 14 17  1  0
  8 18  1  0
 18 19  1  0
 18 20  2  0
 20 21  1  0
  2 22  2  0
 22 23  1  0
 23 24  1  0
 23 25  1  0
 23 26  1  0
 22 27  1  0
 27 28  1  0
 27 29  1  0
 27 30  1  0
 30 31  1  0
 30 32  1  0
 30 33  1  0
 33 34  1  0
 33 35  1  0
 33 36  1  0
 36 37  1  0
 36 38  1  0
 38 39  2  0
 39 40  1  0
 39 41  1  0
 41 42  1  0
 41 43  2  0
 43 44  1  0
 43 45  1  0
 45 46  2  0
 46 47  1  0
 47 48  1  0
 48 49  1  0
 48 50  1  0
 50 51  1  0
 50 52  1  0
 50 53  1  0
 53 54  1  0
 53 55  1  0
 53 56  1  0
 56 57  1  0
 57 58  1  0
 57 59  1  0
 57 60  1  0
 60 61  1  0
 60 62  1  0
 60 63  1  0
 63 64  1  0
 64 65  1  0
 64 66  1  0
 64 67  1  0
 67 68  1  0
 67 69  1  0
 67 70  1  0
 63 71  1  0
 71 72  1  0
 71 73  1  0
 71 74  1  0
 74 75  1  0
 74 76  1  0
 74 77  1  0
 47 78  2  0
 78 79  1  0
 79 80  1  0
 79 81  2  0
 81 82  1  0
 81 83  1  0
 83 84  1  0
 83 85  2  0
 85 86  1  0
 85 87  1  0
 87 88  2  0
 88 89  1  0
 89 90  1  0
 89 91  1  0
 89 92  1  0
 20  3  1  0
 46 38  1  0
 87 78  1  0
 88 45  1  0
M  CHG  2  22   1  88   1
M  END
>  <UniqueID>  (15) 
15

>  <SMILES>  (15) 
CCN(CC)CCOCCNc1c2ccccc2[n+](C)c2cccc(NCCC/[N+](C)=C\c3ccc(N(C)C)cc3)c12

>  <Energy>  (15) 
143.91381038009666

>  <Genealogy>  (15) 
CCN(CC)CCOCCNc1c2ccccc2[n+](C)c2cccc(NCCC/[N+](C)=C\c3ccc(N(C)C)cc3)c12 (cis-trans isomerization)
CCN(CC)CCOCCNc1c2ccccc2[n+](C)c2cccc(NCCC/[N+](C)=C\c3ccc(N(C)C)cc3)c12 (3D coordinates assigned)
CCN(CC)CCOCCNc1c2ccccc2[n+](C)c2cccc(NCCC/[N+](C)=C\c3ccc(N(C)C)cc3)c12 (optimized conformer: 143.91381038009666 kcal/mol)

>  <smiles>  (15) 
CCN(CC)CCOCCNc1c2ccccc2[n+](C)c2cccc(NCCC[N+](C)=Cc3ccc(N(C)C)cc3)c12

>  <score_type>  (15) 
oracle

>  <origin>  (15) 
adg

>  <m_score__min__energy>  (15) 
-9.6899999999999995

>  <m_primary>  (15) 
energy

$$$$
15:0
     RDKit          3D

 56 58  0  0  0  0  0  0  0  0999 V2000
   -6.2340   24.3370  -31.2070 C   0  0  0  0  0  0  0  0  0  0  0  0
   -5.8280   25.3720  -30.1700 C   0  0  0  0  0  0  0  0  0  0  0  0
   -4.6550   24.9370  -29.5120 O   0  0  0  0  0  0  0  0  0  0  0  0
   -4.9890   24.5300  -28.2480 N   0  0  0  0  0  0  0  0  0  0  0  0
   -3.7660   24.5430  -27.4380 C   0  0  0  0  0  0  0  0  0  0  0  0
   -3.0310   23.1900  -27.4920 C   0  0  0  0  0  0  0  0  0  0  0  0
   -2.8030   22.7040  -28.9280 C   0  0  0  0  0  0  0  0  0  0  0  0
   -4.0700   22.2300  -29.4990 N   0  0  0  0  0  0  0  0  0  0  0  0
   -3.8650   21.4310  -30.7160 C   0  0  0  0  0  0  0  0  0  0  0  0
   -3.7380   22.2990  -31.9800 C   0  0  0  0  0  0  0  0  0  0  0  0
   -4.6300   21.8440  -33.0500 N   0  0  0  0  0  0  0  0  0  0  0  0
   -5.1540   20.5040  -33.1080 C   0  0  0  0  0  0  0  0  0  0  0  0
   -6.4790   20.2320  -32.7230 C   0  0  0  0  0  0  0  0  0  0  0  0
   -7.2840   21.2330  -32.1400 C   0  0  0  0  0  0  0  0  0  0  0  0
   -8.5880   20.9570  -31.7410 C   0  0  0  0  0  0  0  0  0  0  0  0
   -9.1020   19.6730  -31.8810 C   0  0  0  0  0  0  0  0  0  0  0  0
   -8.3170   18.6600  -32.4290 C   0  0  0  0  0  0  0  0  0  0  0  0
   -7.0000   18.9180  -32.8880 C   0  0  0  0  0  0  0  0  0  0  0  0
   -6.2200   17.9300  -33.4590 N   0  0  0  0  0  0  0  0  0  0  0  0
   -6.8330   16.6490  -33.8810 C   0  0  0  0  0  0  0  0  0  0  0  0
   -4.8670   18.1420  -33.6510 C   0  0  0  0  0  0  0  0  0  0  0  0
   -3.9850   17.0820  -33.9850 C   0  0  0  0  0  0  0  0  0  0  0  0
   -2.6360   17.3210  -34.2430 C   0  0  0  0  0  0  0  0  0  0  0  0
   -2.1260   18.6110  -34.1630 C   0  0  0  0  0  0  0  0  0  0  0  0
   -0.4300   18.9070  -34.5020 Cl  0  0  0  0  0  0  0  0  0  0  0  0
   -2.9580   19.6670  -33.7940 C   0  0  0  0  0  0  0  0  0  0  0  0
   -4.3230   19.4450  -33.5110 C   0  0  0  0  0  0  0  0  0  0  0  0
   -6.5902   23.4289  -30.6987 H   0  0  0  0  0  0  0  0  0  0  0  0
   -7.0389   24.7446  -31.8363 H   0  0  0  0  0  0  0  0  0  0  0  0
   -5.3666   24.0887  -31.8363 H   0  0  0  0  0  0  0  0  0  0  0  0
   -5.6355   26.3344  -30.6668 H   0  0  0  0  0  0  0  0  0  0  0  0
   -6.6380   25.4968  -29.4363 H   0  0  0  0  0  0  0  0  0  0  0  0
   -5.6880   25.1900  -27.8340 H   0  0  0  0  0  0  0  0  0  0  0  0
   -5.3590   23.5490  -28.2740 H   0  0  0  0  0  0  0  0  0  0  0  0
   -3.0955   25.3281  -27.8177 H   0  0  0  0  0  0  0  0  0  0  0  0
   -4.0494   24.7373  -26.3930 H   0  0  0  0  0  0  0  0  0  0  0  0
   -2.0547   23.2986  -26.9969 H   0  0  0  0  0  0  0  0  0  0  0  0
   -3.6614   22.4460  -26.9829 H   0  0  0  0  0  0  0  0  0  0  0  0
   -2.4155   23.5338  -29.5373 H   0  0  0  0  0  0  0  0  0  0  0  0
   -2.0760   21.8785  -28.9213 H   0  0  0  0  0  0  0  0  0  0  0  0
   -4.6340   23.0700  -29.7680 H   0  0  0  0  0  0  0  0  0  0  0  0
   -2.9435   20.8417  -30.5994 H   0  0  0  0  0  0  0  0  0  0  0  0
   -4.7465   20.7853  -30.8427 H   0  0  0  0  0  0  0  0  0  0  0  0
   -3.9916   23.3383  -31.7241 H   0  0  0  0  0  0  0  0  0  0  0  0
   -2.7029   22.2202  -32.3439 H   0  0  0  0  0  0  0  0  0  0  0  0
   -4.9390   22.5330  -33.7720 H   0  0  0  0  0  0  0  0  0  0  0  0
   -6.8756   22.2446  -31.9991 H   0  0  0  0  0  0  0  0  0  0  0  0
   -9.2128   21.7555  -31.3144 H   0  0  0  0  0  0  0  0  0  0  0  0
  -10.1310   19.4559  -31.5584 H   0  0  0  0  0  0  0  0  0  0  0  0
   -8.7263   17.6420  -32.5069 H   0  0  0  0  0  0  0  0  0  0  0  0
   -7.1122   16.0655  -32.9913 H   0  0  0  0  0  0  0  0  0  0  0  0
   -7.7311   16.8529  -34.4825 H   0  0  0  0  0  0  0  0  0  0  0  0
   -6.1108   16.0775  -34.4825 H   0  0  0  0  0  0  0  0  0  0  0  0
   -4.3723   16.0540  -34.0413 H   0  0  0  0  0  0  0  0  0  0  0  0
   -1.9729   16.4852  -34.5109 H   0  0  0  0  0  0  0  0  0  0  0  0
   -2.5462   20.6845  -33.7226 H   0  0  0  0  0  0  0  0  0  0  0  0
  1  2  1  0
  2  3  1  0
  3  4  1  0
  4  5  1  0
  5  6  1  0
  6  7  1  0
  7  8  1  0
  8  9  1  0
  9 10  1  0
 10 11  1  0
 11 12  1  0
 12 13  2  0
 13 14  1  0
 14 15  2  0
 15 16  1  0
 16 17  2  0
 17 18  1  0
 18 19  2  0
 19 20  1  0
 19 21  1  0
 21 22  2  0
 22 23  1  0
 23 24  2  0
 24 25  1  0
 24 26  1  0
 26 27  2  0
 27 12  1  0
 18 13  1  0
 27 21  1  0
  1 28  1  0
  1 29  1  0
  1 30  1  0
  2 31  1  0
  2 32  1  0
  4 33  1  0
  4 34  1  0
  5 35  1  0
  5 36  1  0
  6 37  1  0
  6 38  1  0
  7 39  1  0
  7 40  1  0
  8 41  1  0
  9 42  1  0
  9 43  1  0
 10 44  1  0
 10 45  1  0
 11 46  1  0
 14 47  1  0
 15 48  1  0
 16 49  1  0
 17 50  1  0
 20 51  1  0
 20 52  1  0
 20 53  1  0
 22 54  1  0
 23 55  1  0
 26 56  1  0
M  CHG  2   4   1  19   1
M  END
>  <UniqueID>  (16) 
16

>  <SMILES>  (16) 
CCO[NH2+]CCCNCCNc1c2ccccc2[n+](C)c2ccc(Cl)cc12

>  <Energy>  (16) 
70.3795332251132

>  <Genealogy>  (16) 
CCO[NH2+]CCCNCCNc1c2ccccc2[n+](C)c2ccc(Cl)cc12 (protonated)
CCO[NH2+]CCCNCCNc1c2ccccc2[n+](C)c2ccc(Cl)cc12 (3D coordinates assigned)
CCO[NH2+]CCCNCCNc1c2ccccc2[n+](C)c2ccc(Cl)cc12 (optimized conformer: 70.3795332251132 kcal/mol)

>  <smiles>  (16) 
CCONCCCNCCNc1c2ccccc2[n+](C)c2ccc(Cl)cc12

>  <score_type>  (16) 
oracle

>  <origin>  (16) 
adg

>  <m_score__min__energy>  (16) 
-9.1300000000000008

>  <m_primary>  (16) 
energy

$$$$
16:0
     RDKit          3D

 63 66  0  0  0  0  0  0  0  0999 V2000
   -1.1310   26.7800  -23.7230 C   0  0  0  0  0  0  0  0  0  0  0  0
    0.3830   26.9790  -23.6570 C   0  0  0  0  0  0  0  0  0  0  0  0
    1.0880   25.6890  -23.7370 N   0  0  0  0  0  0  0  0  0  0  0  0
    1.8410   25.5410  -25.0010 C   0  0  0  0  0  0  0  0  0  0  0  0
    0.9900   24.9480  -26.1320 C   0  0  0  0  0  0  0  0  0  0  0  0
   -0.2370   24.4780  -25.6170 O   0  0  0  0  0  0  0  0  0  0  0  0
   -1.2770   24.6540  -26.5600 C   0  0  0  0  0  0  0  0  0  0  0  0
   -0.8580   25.5820  -27.7190 C   0  0  0  0  0  0  0  0  0  0  0  0
   -1.6350   25.3900  -28.9580 N   0  0  0  0  0  0  0  0  0  0  0  0
   -2.6410   24.3180  -28.8770 C   0  0  0  0  0  0  0  0  0  0  0  0
   -2.3140   23.1720  -29.8400 C   0  0  0  0  0  0  0  0  0  0  0  0
   -3.0950   23.2760  -31.0730 N   0  0  0  0  0  0  0  0  0  0  0  0
   -3.5710   22.0940  -31.7240 C   0  0  0  0  0  0  0  0  0  0  0  0
   -4.9260   21.7900  -31.7070 C   0  0  0  0  0  0  0  0  0  0  0  0
   -5.4260   20.6810  -32.3670 C   0  0  0  0  0  0  0  0  0  0  0  0
   -4.5950   19.7680  -32.9690 N   0  0  0  0  0  0  0  0  0  0  0  0
   -5.1240   18.4600  -33.3900 C   0  0  0  0  0  0  0  0  0  0  0  0
   -3.2510   20.0820  -33.0990 C   0  0  0  0  0  0  0  0  0  0  0  0
   -2.3730   19.2930  -33.8840 C   0  0  0  0  0  0  0  0  0  0  0  0
   -1.0130   19.5940  -33.9620 C   0  0  0  0  0  0  0  0  0  0  0  0
   -0.4920   20.6840  -33.2710 C   0  0  0  0  0  0  0  0  0  0  0  0
   -1.3310   21.5040  -32.5200 C   0  0  0  0  0  0  0  0  0  0  0  0
   -2.7120   21.2390  -32.4450 C   0  0  0  0  0  0  0  0  0  0  0  0
   -6.9050   20.7040  -32.2400 C   0  0  0  0  0  0  0  0  0  0  0  0
   -7.9090   19.9530  -32.8710 C   0  0  0  0  0  0  0  0  0  0  0  0
   -9.2530   20.2690  -32.6080 C   0  0  0  0  0  0  0  0  0  0  0  0
   -9.5840   21.3460  -31.7640 C   0  0  0  0  0  0  0  0  0  0  0  0
   -8.5740   22.1330  -31.1930 C   0  0  0  0  0  0  0  0  0  0  0  0
   -7.2470   21.7960  -31.4530 C   0  0  0  0  0  0  0  0  0  0  0  0
   -6.0350   22.5110  -31.0940 C   0  0  0  0  0  0  0  0  0  0  0  0
   -5.9630   23.5660  -30.4070 O   0  0  0  0  0  0  0  0  0  0  0  0
   -1.5386   26.7264  -22.7027 H   0  0  0  0  0  0  0  0  0  0  0  0
   -1.5890   27.6257  -24.2569 H   0  0  0  0  0  0  0  0  0  0  0  0
   -1.3550   25.8447  -24.2569 H   0  0  0  0  0  0  0  0  0  0  0  0
    0.6994   27.6147  -24.4971 H   0  0  0  0  0  0  0  0  0  0  0  0
    0.6326   27.4562  -22.6978 H   0  0  0  0  0  0  0  0  0  0  0  0
    1.7680   25.6410  -22.9430 H   0  0  0  0  0  0  0  0  0  0  0  0
    0.4090   24.8990  -23.6190 H   0  0  0  0  0  0  0  0  0  0  0  0
    2.2010   26.5321  -25.3142 H   0  0  0  0  0  0  0  0  0  0  0  0
    2.6730   24.8466  -24.8125 H   0  0  0  0  0  0  0  0  0  0  0  0
    0.7950   25.7243  -26.8866 H   0  0  0  0  0  0  0  0  0  0  0  0
    1.5337   24.1094  -26.5915 H   0  0  0  0  0  0  0  0  0  0  0  0
   -1.5512   23.6721  -26.9731 H   0  0  0  0  0  0  0  0  0  0  0  0
   -2.1281   25.1209  -26.0427 H   0  0  0  0  0  0  0  0  0  0  0  0
   -0.9851   26.6239  -27.3900 H   0  0  0  0  0  0  0  0  0  0  0  0
    0.1867   25.3357  -27.9595 H   0  0  0  0  0  0  0  0  0  0  0  0
   -0.9840   25.1900  -29.7510 H   0  0  0  0  0  0  0  0  0  0  0  0
   -2.6650   23.9264  -27.8494 H   0  0  0  0  0  0  0  0  0  0  0  0
   -3.6184   24.7379  -29.1571 H   0  0  0  0  0  0  0  0  0  0  0  0
   -1.2433   23.2079  -30.0897 H   0  0  0  0  0  0  0  0  0  0  0  0
   -2.5665   22.2213  -29.3476 H   0  0  0  0  0  0  0  0  0  0  0  0
   -3.1430   24.1800  -31.5950 H   0  0  0  0  0  0  0  0  0  0  0  0
   -5.3669   17.8594  -32.5010 H   0  0  0  0  0  0  0  0  0  0  0  0
   -6.0328   18.6085  -33.9917 H   0  0  0  0  0  0  0  0  0  0  0  0
   -4.3675   17.9350  -33.9917 H   0  0  0  0  0  0  0  0  0  0  0  0
   -2.7699   18.4307  -34.4398 H   0  0  0  0  0  0  0  0  0  0  0  0
   -0.3484   18.9660  -34.5734 H   0  0  0  0  0  0  0  0  0  0  0  0
    0.5858   20.8986  -33.3181 H   0  0  0  0  0  0  0  0  0  0  0  0
   -0.9112   22.3660  -31.9809 H   0  0  0  0  0  0  0  0  0  0  0  0
   -7.6492   19.1337  -33.5575 H   0  0  0  0  0  0  0  0  0  0  0  0
  -10.0535   19.6693  -33.0658 H   0  0  0  0  0  0  0  0  0  0  0  0
  -10.6396   21.5710  -31.5516 H   0  0  0  0  0  0  0  0  0  0  0  0
   -8.8227   22.9946  -30.5560 H   0  0  0  0  0  0  0  0  0  0  0  0
  1  2  1  0
  2  3  1  0
  3  4  1  0
  4  5  1  0
  5  6  1  0
  6  7  1  0
  7  8  1  0
  8  9  1  0
  9 10  1  0
 10 11  1  0
 11 12  1  0
 12 13  1  0
 13 14  2  0
 14 15  1  0
 15 16  2  0
 16 17  1  0
 16 18  1  0
 18 19  2  0
 19 20  1  0
 20 21  2  0
 21 22  1  0
 22 23  2  0
 15 24  1  0
 24 25  2  0
 25 26  1  0
 26 27  2  0
 27 28  1  0
 28 29  2  0
 29 30  1  0
 30 31  2  0
 23 13  1  0
 29 24  1  0
 30 14  1  0
 23 18  1  0
  1 32  1  0
  1 33  1  0
  1 34  1  0
  2 35  1  0
  2 36  1  0
  3 37  1  0
  3 38  1  0
  4 39  1  0
  4 40  1  0
  5 41  1  0
  5 42  1  0
  7 43  1  0
  7 44  1  0
  8 45  1  0
  8 46  1  0
  9 47  1  0
 10 48  1  0
 10 49  1  0
 11 50  1  0
 11 51  1  0
 12 52  1  0
 17 53  1  0
 17 54  1  0
 17 55  1  0
 19 56  1  0
 20 57  1  0
 21 58  1  0
 22 59  1  0
 25 60  1  0
 26 61  1  0
 27 62  1  0
 28 63  1  0
M  CHG  2   3   1  16   1
M  END
>  <UniqueID>  (17) 
17

>  <SMILES>  (17) 
CC[NH2+]CCOCCNCCNc1c2c([n+](C)c3ccccc13)-c1ccccc1C2=O

>  <Energy>  (17) 
117.4171107632102

>  <Genealogy>  (17) 
CC[NH2+]CCOCCNCCNc1c2c([n+](C)c3ccccc13)-c1ccccc1C2=O (protonated)
CC[NH2+]CCOCCNCCNc1c2c([n+](C)c3ccccc13)-c1ccccc1C2=O (3D coordinates assigned)
CC[NH2+]CCOCCNCCNc1c2c([n+](C)c3ccccc13)-c1ccccc1C2=O (nonaromatic ring conformer: 117.4171107632102 kcal/mol)

>  <smiles>  (17) 
CCNCCOCCNCCNc1c2c([n+](C)c3ccccc13)-c1ccccc1C2=O

>  <score_type>  (17) 
oracle

>  <origin>  (17) 
adg

>  <m_score__min__energy>  (17) 
-9.0399999999999991

>  <m_primary>  (17) 
energy

$$$$
17:0
     RDKit          3D

 79 82  0  0  0  0  0  0  0  0999 V2000
   -0.1170   20.6510  -35.0950 C   0  0  0  0  0  0  0  0  0  0  0  0
   -0.7680   21.5260  -34.0160 C   0  0  0  0  0  0  0  0  0  0  0  0
   -1.6540   20.7940  -33.0770 N   0  0  0  0  0  0  0  0  0  0  0  0
   -0.9700   20.4650  -31.8170 C   0  0  0  0  0  0  0  0  0  0  0  0
   -2.3080   19.5930  -33.6460 C   0  0  0  0  0  0  0  0  0  0  0  0
   -3.8420   19.6810  -33.6150 C   0  0  0  0  0  0  0  0  0  0  0  0
   -4.3010   20.9240  -32.9910 N   0  0  0  0  0  0  0  0  0  0  0  0
   -5.4560   21.0930  -32.1260 C   0  0  0  0  0  0  0  0  0  0  0  0
   -6.5440   20.1820  -32.1220 C   0  0  0  0  0  0  0  0  0  0  0  0
   -6.3700   18.7840  -32.2260 C   0  0  0  0  0  0  0  0  0  0  0  0
   -7.4650   17.9220  -32.2440 C   0  0  0  0  0  0  0  0  0  0  0  0
   -8.7510   18.4250  -32.1210 C   0  0  0  0  0  0  0  0  0  0  0  0
   -8.9520   19.7920  -31.9580 C   0  0  0  0  0  0  0  0  0  0  0  0
   -7.8600   20.6970  -31.9530 C   0  0  0  0  0  0  0  0  0  0  0  0
   -8.0520   22.0500  -31.7740 N   0  0  0  0  0  0  0  0  0  0  0  0
   -9.3920   22.6440  -31.9690 C   0  0  0  0  0  0  0  0  0  0  0  0
   -6.9880   22.8430  -31.3950 C   0  0  0  0  0  0  0  0  0  0  0  0
   -7.1930   24.1390  -30.8680 C   0  0  0  0  0  0  0  0  0  0  0  0
   -6.1210   24.9470  -30.5180 C   0  0  0  0  0  0  0  0  0  0  0  0
   -4.8210   24.4770  -30.6340 C   0  0  0  0  0  0  0  0  0  0  0  0
   -4.5610   23.1790  -31.1070 C   0  0  0  0  0  0  0  0  0  0  0  0
   -3.2170   22.6520  -31.0300 N   0  0  0  0  0  0  0  0  0  0  0  0
   -2.2620   23.0690  -29.9950 C   0  0  0  0  0  0  0  0  0  0  0  0
   -2.8290   22.9820  -28.5630 C   0  0  0  0  0  0  0  0  0  0  0  0
   -2.8300   21.6090  -27.8150 C   0  0  0  0  0  0  0  0  0  0  0  0
   -1.5170   21.0120  -27.3740 N   0  0  0  0  0  0  0  0  0  0  0  0
   -0.6400   22.1380  -26.8880 C   0  0  0  0  0  0  0  0  0  0  0  0
   -0.4930   22.2800  -25.3560 C   0  0  0  0  0  0  0  0  0  0  0  0
   -1.6860   20.0130  -26.2580 C   0  0  0  0  0  0  0  0  0  0  0  0
   -1.7470   18.5450  -26.7200 C   0  0  0  0  0  0  0  0  0  0  0  0
   -0.5000   18.1350  -27.5200 C   0  0  0  0  0  0  0  0  0  0  0  0
    0.1980   19.3240  -28.1890 C   0  0  0  0  0  0  0  0  0  0  0  0
   -0.8120   20.4200  -28.5650 C   0  0  0  0  0  0  0  0  0  0  0  0
   -5.6560   22.3620  -31.5330 C   0  0  0  0  0  0  0  0  0  0  0  0
    0.4740   19.8567  -34.6156 H   0  0  0  0  0  0  0  0  0  0  0  0
   -0.8997   20.1984  -35.7215 H   0  0  0  0  0  0  0  0  0  0  0  0
    0.5415   21.2706  -35.7215 H   0  0  0  0  0  0  0  0  0  0  0  0
    0.0329   22.0019  -33.4312 H   0  0  0  0  0  0  0  0  0  0  0  0
   -1.4053   22.2499  -34.5450 H   0  0  0  0  0  0  0  0  0  0  0  0
   -1.6001   20.7681  -30.9678 H   0  0  0  0  0  0  0  0  0  0  0  0
   -0.7885   19.3811  -31.7705 H   0  0  0  0  0  0  0  0  0  0  0  0
   -0.0099   20.9998  -31.7705 H   0  0  0  0  0  0  0  0  0  0  0  0
   -1.9834   19.4774  -34.6906 H   0  0  0  0  0  0  0  0  0  0  0  0
   -2.0126   18.7310  -33.0299 H   0  0  0  0  0  0  0  0  0  0  0  0
   -4.2224   19.6382  -34.6463 H   0  0  0  0  0  0  0  0  0  0  0  0
   -4.2218   18.8378  -33.0194 H   0  0  0  0  0  0  0  0  0  0  0  0
   -3.7030   21.7720  -33.1260 H   0  0  0  0  0  0  0  0  0  0  0  0
   -5.3536   18.3689  -32.2939 H   0  0  0  0  0  0  0  0  0  0  0  0
   -7.3083   16.8390  -32.3562 H   0  0  0  0  0  0  0  0  0  0  0  0
   -9.6132   17.7427  -32.1523 H   0  0  0  0  0  0  0  0  0  0  0  0
   -9.9745   20.1772  -31.8309 H   0  0  0  0  0  0  0  0  0  0  0  0
   -9.8493   22.8467  -30.9893 H   0  0  0  0  0  0  0  0  0  0  0  0
   -9.2978   23.5847  -32.5314 H   0  0  0  0  0  0  0  0  0  0  0  0
  -10.0257   21.9425  -32.5314 H   0  0  0  0  0  0  0  0  0  0  0  0
   -8.2189   24.5125  -30.7334 H   0  0  0  0  0  0  0  0  0  0  0  0
   -6.3029   25.9662  -30.1464 H   0  0  0  0  0  0  0  0  0  0  0  0
   -3.9815   25.1294  -30.3518 H   0  0  0  0  0  0  0  0  0  0  0  0
   -2.9270   21.9480  -31.7390 H   0  0  0  0  0  0  0  0  0  0  0  0
   -1.3752   22.4212  -30.0582 H   0  0  0  0  0  0  0  0  0  0  0  0
   -2.0213   24.1256  -30.1839 H   0  0  0  0  0  0  0  0  0  0  0  0
   -2.2465   23.6817  -27.9457 H   0  0  0  0  0  0  0  0  0  0  0  0
   -3.8983   23.2034  -28.6958 H   0  0  0  0  0  0  0  0  0  0  0  0
   -3.4455   21.7351  -26.9121 H   0  0  0  0  0  0  0  0  0  0  0  0
   -3.2004   20.8995  -28.5696 H   0  0  0  0  0  0  0  0  0  0  0  0
    0.3650   21.9852  -27.3083 H   0  0  0  0  0  0  0  0  0  0  0  0
   -1.1366   23.0611  -27.2215 H   0  0  0  0  0  0  0  0  0  0  0  0
   -1.1975   21.5995  -24.8554 H   0  0  0  0  0  0  0  0  0  0  0  0
    0.5356   22.0248  -25.0611 H   0  0  0  0  0  0  0  0  0  0  0  0
   -0.7125   23.3168  -25.0611 H   0  0  0  0  0  0  0  0  0  0  0  0
   -0.8361   20.1212  -25.5681 H   0  0  0  0  0  0  0  0  0  0  0  0
   -2.6543   20.2329  -25.7846 H   0  0  0  0  0  0  0  0  0  0  0  0
   -1.8279   17.8980  -25.8341 H   0  0  0  0  0  0  0  0  0  0  0  0
   -2.6215   18.4345  -27.3781 H   0  0  0  0  0  0  0  0  0  0  0  0
    0.2118   17.6499  -26.8359 H   0  0  0  0  0  0  0  0  0  0  0  0
   -0.8298   17.4543  -28.3187 H   0  0  0  0  0  0  0  0  0  0  0  0
    0.9399   19.7428  -27.4931 H   0  0  0  0  0  0  0  0  0  0  0  0
    0.6866   18.9695  -29.1085 H   0  0  0  0  0  0  0  0  0  0  0  0
   -0.2755   21.2247  -29.0890 H   0  0  0  0  0  0  0  0  0  0  0  0
   -1.5795   19.9528  -29.1997 H   0  0  0  0  0  0  0  0  0  0  0  0
  1  2  1  0
  2  3  1  0
  3  4  1  0
  3  5  1  0
  5  6  1  0
  6  7  1  0
  7  8  1  0
  8  9  2  0
  9 10  1  0
 10 11  2  0
 11 12  1  0
 12 13  2  0
 13 14  1  0
 14 15  2  0
 15 16  1  0
 15 17  1  0
 17 18  2  0
 18 19  1  0
 19 20  2  0
 20 21  1  0
 21 22  1  0
 22 23  1  0
 23 24  1  0
 24 25  1  0
 25 26  1  0
 26 27  1  0
 27 28  1  0
 26 29  1  0
 29 30  1  0
 30 31  1  0
 31 32  1  0
 32 33  1  0
 21 34  2  0
 34  8  1  0
 14  9  1  0
 34 17  1  0
 33 26  1  0
  1 35  1  0
  1 36  1  0
  1 37  1  0
  2 38  1  0
  2 39  1  0
  4 40  1  0
  4 41  1  0
  4 42  1  0
  5 43  1  0
  5 44  1  0
  6 45  1  0
  6 46  1  0
  7 47  1  0
 10 48  1  0
 11 49  1  0
 12 50  1  0
 13 51  1  0
 16 52  1  0
 16 53  1  0
 16 54  1  0
 18 55  1  0
 19 56  1  0
 20 57  1  0
 22 58  1  0
 23 59  1  0
 23 60  1  0
 24 61  1  0
 24 62  1  0
 25 63  1  0
 25 64  1  0
 27 65  1  0
 27 66  1  0
 28 67  1  0
 28 68  1  0
 28 69  1  0
 29 70  1  0
 29 71  1  0
 30 72  1  0
 30 73  1  0
 31 74  1  0
 31 75  1  0
 32 76  1  0
 32 77  1  0
 33 78  1  0
 33 79  1  0
M  CHG  2  15   1  26   1
M  END
>  <UniqueID>  (18) 
18

>  <SMILES>  (18) 
CCN(C)CCNc1c2ccccc2[n+](C)c2cccc(NCCC[N+]3(CC)CCCCC3)c12

>  <Energy>  (18) 
153.0345723747041

>  <Genealogy>  (18) 
CCN(C)CCNc1c2ccccc2[n+](C)c2cccc(NCCC[N+]3(CC)CCCCC3)c12 (3D coordinates assigned)
CCN(C)CCNc1c2ccccc2[n+](C)c2cccc(NCCC[N+]3(CC)CCCCC3)c12 (nonaromatic ring conformer: 153.0345723747041 kcal/mol)

>  <smiles>  (18) 
CCN(C)CCNc1c2ccccc2[n+](C)c2cccc(NCCC[N+]3(CC)CCCCC3)c12

>  <score_type>  (18) 
oracle

>  <origin>  (18) 
adg

>  <m_score__min__energy>  (18) 
-8.2400000000000002

>  <m_primary>  (18) 
energy

$$$$
18:0
     RDKit          3D

 49 52  0  0  0  0  0  0  0  0999 V2000
    0.3840   19.0710  -33.0270 C   0  0  0  0  0  0  0  0  0  0  0  0
   -0.3810   19.2590  -34.3430 C   0  0  0  0  0  0  0  0  0  0  0  0
   -0.3120   20.7150  -34.8180 C   0  0  0  0  0  0  0  0  0  0  0  0
   -1.8200   18.7950  -34.2090 C   0  0  0  0  0  0  0  0  0  0  0  0
   -2.2020   17.5410  -34.7160 C   0  0  0  0  0  0  0  0  0  0  0  0
   -3.5220   17.1050  -34.6000 C   0  0  0  0  0  0  0  0  0  0  0  0
   -4.4780   17.9090  -33.9770 C   0  0  0  0  0  0  0  0  0  0  0  0
   -4.1240   19.1680  -33.4610 C   0  0  0  0  0  0  0  0  0  0  0  0
   -5.1390   20.0260  -32.8000 C   0  0  0  0  0  0  0  0  0  0  0  0
   -4.7540   21.1740  -32.1500 N   0  0  0  0  0  0  0  0  0  0  0  0
   -5.6540   21.9910  -31.5240 C   0  0  0  0  0  0  0  0  0  0  0  0
   -5.2150   23.1830  -30.8570 N   0  0  0  0  0  0  0  0  0  0  0  0
   -6.0930   24.3570  -30.7930 C   0  0  0  0  0  0  0  0  0  0  0  0
   -5.2710   25.6640  -30.7010 C   0  0  0  0  0  0  0  0  0  0  0  0
   -3.8850   25.4560  -30.4770 O   0  0  0  0  0  0  0  0  0  0  0  0
   -3.6920   24.5050  -29.4510 C   0  0  0  0  0  0  0  0  0  0  0  0
   -4.0440   23.1130  -29.9780 C   0  0  0  0  0  0  0  0  0  0  0  0
   -6.9950   21.6270  -31.5860 C   0  0  0  0  0  0  0  0  0  0  0  0
   -8.0930   22.2550  -31.1280 N   0  0  0  0  0  0  0  0  0  0  0  0
   -9.1190   21.4500  -31.5070 C   0  0  0  0  0  0  0  0  0  0  0  0
   -8.6940   20.3640  -32.2010 N   0  0  0  0  0  0  0  0  0  0  0  0
   -9.5010   19.2640  -32.7150 C   0  0  0  0  0  0  0  0  0  0  0  0
   -7.3590   20.4940  -32.2310 C   0  0  0  0  0  0  0  0  0  0  0  0
   -6.4650   19.6810  -32.8420 N   0  0  0  0  0  0  0  0  0  0  0  0
   -2.7890   19.6020  -33.5830 C   0  0  0  0  0  0  0  0  0  0  0  0
   -0.2973   19.2384  -32.1797 H   0  0  0  0  0  0  0  0  0  0  0  0
    0.7846   18.0477  -32.9787 H   0  0  0  0  0  0  0  0  0  0  0  0
    1.2133   19.7921  -32.9787 H   0  0  0  0  0  0  0  0  0  0  0  0
    0.1041   18.6333  -35.1067 H   0  0  0  0  0  0  0  0  0  0  0  0
   -0.2803   21.3842  -33.9456 H   0  0  0  0  0  0  0  0  0  0  0  0
    0.5940   20.8602  -35.4246 H   0  0  0  0  0  0  0  0  0  0  0  0
   -1.2002   20.9453  -35.4246 H   0  0  0  0  0  0  0  0  0  0  0  0
   -1.4556   16.8995  -35.2072 H   0  0  0  0  0  0  0  0  0  0  0  0
   -3.8110   16.1225  -35.0015 H   0  0  0  0  0  0  0  0  0  0  0  0
   -5.5158   17.5550  -33.8891 H   0  0  0  0  0  0  0  0  0  0  0  0
   -6.7172   24.3883  -31.6982 H   0  0  0  0  0  0  0  0  0  0  0  0
   -6.7201   24.2751  -29.8930 H   0  0  0  0  0  0  0  0  0  0  0  0
   -5.3905   26.2157  -31.6451 H   0  0  0  0  0  0  0  0  0  0  0  0
   -5.6546   26.2227  -29.8346 H   0  0  0  0  0  0  0  0  0  0  0  0
   -2.6404   24.5206  -29.1288 H   0  0  0  0  0  0  0  0  0  0  0  0
   -4.3394   24.7495  -28.5960 H   0  0  0  0  0  0  0  0  0  0  0  0
   -3.1896   22.7121  -30.5430 H   0  0  0  0  0  0  0  0  0  0  0  0
   -4.2744   22.4557  -29.1266 H   0  0  0  0  0  0  0  0  0  0  0  0
   -8.1560   23.1620  -30.6150 H   0  0  0  0  0  0  0  0  0  0  0  0
  -10.1751   21.6550  -31.2774 H   0  0  0  0  0  0  0  0  0  0  0  0
   -9.9202   18.6925  -31.8738 H   0  0  0  0  0  0  0  0  0  0  0  0
  -10.3200   19.6660  -33.3295 H   0  0  0  0  0  0  0  0  0  0  0  0
   -8.8717   18.6035  -33.3295 H   0  0  0  0  0  0  0  0  0  0  0  0
   -2.4998   20.5852  -33.1835 H   0  0  0  0  0  0  0  0  0  0  0  0
  1  2  1  0
  2  3  1  0
  2  4  1  0
  4  5  2  0
  5  6  1  0
  6  7  2  0
  7  8  1  0
  8  9  1  0
  9 10  2  0
 10 11  1  0
 11 12  1  0
 12 13  1  0
 13 14  1  0
 14 15  1  0
 15 16  1  0
 16 17  1  0
 11 18  2  0
 18 19  1  0
 19 20  2  0
 20 21  1  0
 21 22  1  0
 21 23  1  0
 23 24  2  0
  8 25  2  0
 25  4  1  0
 24  9  1  0
 17 12  1  0
 23 18  1  0
  1 26  1  0
  1 27  1  0
  1 28  1  0
  2 29  1  0
  3 30  1  0
  3 31  1  0
  3 32  1  0
  5 33  1  0
  6 34  1  0
  7 35  1  0
 13 36  1  0
 13 37  1  0
 14 38  1  0
 14 39  1  0
 16 40  1  0
 16 41  1  0
 17 42  1  0
 17 43  1  0
 19 44  1  0
 20 45  1  0
 22 46  1  0
 22 47  1  0
 22 48  1  0
 25 49  1  0
M  CHG  1  19   1
M  END
>  <UniqueID>  (19) 
19

>  <SMILES>  (19) 
CC(C)c1cccc(-c2nc(N3CCOCC3)c3[nH+]cn(C)c3n2)c1

>  <Energy>  (19) 
100.82488723792366

>  <Genealogy>  (19) 
CC(C)c1cccc(-c2nc(N3CCOCC3)c3[nH+]cn(C)c3n2)c1 (protonated)
CC(C)c1cccc(-c2nc(N3CCOCC3)c3[nH+]cn(C)c3n2)c1 (3D coordinates assigned)
CC(C)c1cccc(-c2nc(N3CCOCC3)c3[nH+]cn(C)c3n2)c1 (nonaromatic ring conformer: 100.82488723792366 kcal/mol)

>  <smiles>  (19) 
CC(C)c1cccc(-c2nc(N3CCOCC3)c3ncn(C)c3n2)c1

>  <score_type>  (19) 
oracle

>  <origin>  (19) 
adg

>  <m_score__min__energy>  (19) 
-7.7199999999999998

>  <m_primary>  (19) 
energy

$$$$
19:0
     RDKit          3D

 58 60  0  0  0  0  0  0  0  0999 V2000
    0.3040   23.2100  -27.7200 C   0  0  0  0  0  0  0  0  0  0  0  0
    0.0500   24.5550  -28.2700 N   0  0  0  0  0  0  0  0  0  0  0  0
   -0.2730   25.4780  -27.1680 C   0  0  0  0  0  0  0  0  0  0  0  0
   -1.0540   24.5270  -29.2540 C   0  0  0  0  0  0  0  0  0  0  0  0
   -1.3580   23.0920  -29.6890 C   0  0  0  0  0  0  0  0  0  0  0  0
   -2.7540   22.9470  -29.8520 O   0  0  0  0  0  0  0  0  0  0  0  0
   -3.4420   23.4030  -28.7010 C   0  0  0  0  0  0  0  0  0  0  0  0
   -4.3960   24.5470  -29.0640 C   0  0  0  0  0  0  0  0  0  0  0  0
   -4.2310   24.9220  -30.4190 O   0  0  0  0  0  0  0  0  0  0  0  0
   -5.4640   25.2890  -31.0090 C   0  0  0  0  0  0  0  0  0  0  0  0
   -6.0300   24.1160  -31.8090 C   0  0  0  0  0  0  0  0  0  0  0  0
   -5.4890   22.8520  -31.3120 N   0  0  0  0  0  0  0  0  0  0  0  0
   -5.7110   21.6210  -32.0180 C   0  0  0  0  0  0  0  0  0  0  0  0
   -6.9990   21.0970  -32.1080 C   0  0  0  0  0  0  0  0  0  0  0  0
   -7.2310   19.8870  -32.7100 C   0  0  0  0  0  0  0  0  0  0  0  0
   -6.2180   19.1410  -33.2600 N   0  0  0  0  0  0  0  0  0  0  0  0
   -6.5110   17.8320  -33.8760 C   0  0  0  0  0  0  0  0  0  0  0  0
   -4.9290   19.6490  -33.2500 C   0  0  0  0  0  0  0  0  0  0  0  0
   -3.8530   18.9530  -33.8540 C   0  0  0  0  0  0  0  0  0  0  0  0
   -2.5650   19.4910  -33.8630 C   0  0  0  0  0  0  0  0  0  0  0  0
   -2.3190   20.7330  -33.2880 C   0  0  0  0  0  0  0  0  0  0  0  0
   -3.3540   21.4430  -32.6840 C   0  0  0  0  0  0  0  0  0  0  0  0
   -4.6570   20.9110  -32.6340 C   0  0  0  0  0  0  0  0  0  0  0  0
   -8.6760   19.5240  -32.6520 C   0  0  0  0  0  0  0  0  0  0  0  0
   -9.3510   20.7190  -31.9630 C   0  0  0  0  0  0  0  0  0  0  0  0
   -8.2410   21.7050  -31.5680 C   0  0  0  0  0  0  0  0  0  0  0  0
    0.2954   23.2556  -26.6210 H   0  0  0  0  0  0  0  0  0  0  0  0
   -0.4795   22.5190  -28.0644 H   0  0  0  0  0  0  0  0  0  0  0  0
    1.2856   22.8524  -28.0644 H   0  0  0  0  0  0  0  0  0  0  0  0
   -0.0972   24.9755  -26.2054 H   0  0  0  0  0  0  0  0  0  0  0  0
    0.3662   26.3705  -27.2379 H   0  0  0  0  0  0  0  0  0  0  0  0
   -1.3292   25.7771  -27.2379 H   0  0  0  0  0  0  0  0  0  0  0  0
   -1.9546   24.9641  -28.7981 H   0  0  0  0  0  0  0  0  0  0  0  0
   -0.7526   25.1072  -30.1386 H   0  0  0  0  0  0  0  0  0  0  0  0
   -0.8514   22.8803  -30.6422 H   0  0  0  0  0  0  0  0  0  0  0  0
   -0.9978   22.3876  -28.9247 H   0  0  0  0  0  0  0  0  0  0  0  0
   -4.0205   22.5716  -28.2719 H   0  0  0  0  0  0  0  0  0  0  0  0
   -2.7073   23.7709  -27.9697 H   0  0  0  0  0  0  0  0  0  0  0  0
   -5.4332   24.2175  -28.9038 H   0  0  0  0  0  0  0  0  0  0  0  0
   -4.1694   25.4139  -28.4259 H   0  0  0  0  0  0  0  0  0  0  0  0
   -6.1767   25.5691  -30.2193 H   0  0  0  0  0  0  0  0  0  0  0  0
   -5.3016   26.1419  -31.6844 H   0  0  0  0  0  0  0  0  0  0  0  0
   -7.1255   24.1051  -31.7104 H   0  0  0  0  0  0  0  0  0  0  0  0
   -5.7467   24.2347  -32.8652 H   0  0  0  0  0  0  0  0  0  0  0  0
   -4.6530   22.9110  -30.6870 H   0  0  0  0  0  0  0  0  0  0  0  0
   -6.6783   17.0845  -33.0866 H   0  0  0  0  0  0  0  0  0  0  0  0
   -7.4130   17.9142  -34.5003 H   0  0  0  0  0  0  0  0  0  0  0  0
   -5.6601   17.5218  -34.5003 H   0  0  0  0  0  0  0  0  0  0  0  0
   -4.0351   17.9746  -34.3226 H   0  0  0  0  0  0  0  0  0  0  0  0
   -1.7406   18.9298  -34.3272 H   0  0  0  0  0  0  0  0  0  0  0  0
   -1.3039   21.1561  -33.3102 H   0  0  0  0  0  0  0  0  0  0  0  0
   -3.1515   22.4295  -32.2415 H   0  0  0  0  0  0  0  0  0  0  0  0
   -9.0809   19.3807  -33.6647 H   0  0  0  0  0  0  0  0  0  0  0  0
   -8.8468   18.5812  -32.1117 H   0  0  0  0  0  0  0  0  0  0  0  0
  -10.0561   21.2033  -32.6546 H   0  0  0  0  0  0  0  0  0  0  0  0
   -9.9139   20.3907  -31.0768 H   0  0  0  0  0  0  0  0  0  0  0  0
   -8.4189   22.6926  -32.0186 H   0  0  0  0  0  0  0  0  0  0  0  0
   -8.1908   21.8670  -30.4811 H   0  0  0  0  0  0  0  0  0  0  0  0
  1  2  1  0
  2  3  1  0
  2  4  1  0
  4  5  1  0
  5  6  1  0
  6  7  1  0
  7  8  1  0
  8  9  1  0
  9 10  1  0
 10 11  1  0
 11 12  1  0
 12 13  1  0
 13 14  2  0
 14 15  1  0
 15 16  2  0
 16 17  1  0
 16 18  1  0
 18 19  2  0
 19 20  1  0
 20 21  2  0
 21 22  1  0
 22 23  2  0
 15 24  1  0
 24 25  1  0
 25 26  1  0
 23 13  1  0
 26 14  1  0
 23 18  1  0
  1 27  1  0
  1 28  1  0
  1 29  1  0
  3 30  1  0
  3 31  1  0
  3 32  1  0
  4 33  1  0
  4 34  1  0
  5 35  1  0
  5 36  1  0
  7 37  1  0
  7 38  1  0
  8 39  1  0
  8 40  1  0
 10 41  1  0
 10 42  1  0
 11 43  1  0
 11 44  1  0
 12 45  1  0
 17 46  1  0
 17 47  1  0
 17 48  1  0
 19 49  1  0
 20 50  1  0
 21 51  1  0
 22 52  1  0
 24 53  1  0
 24 54  1  0
 25 55  1  0
 25 56  1  0
 26 57  1  0
 26 58  1  0
M  CHG  1  16   1
M  END
>  <UniqueID>  (20) 
20

>  <SMILES>  (20) 
CN(C)CCOCCOCCNc1c2c([n+](C)c3ccccc13)CCC2

>  <Energy>  (20) 
80.16992346918767

>  <Genealogy>  (20) 
CN(C)CCOCCOCCNc1c2c([n+](C)c3ccccc13)CCC2 (3D coordinates assigned)
CN(C)CCOCCOCCNc1c2c([n+](C)c3ccccc13)CCC2 (nonaromatic ring conformer: 80.16992346918767 kcal/mol)

>  <smiles>  (20) 
CN(C)CCOCCOCCNc1c2c([n+](C)c3ccccc13)CCC2

>  <score_type>  (20) 
oracle

>  <origin>  (20) 
adg

>  <m_score__min__energy>  (20) 
-8.6999999999999993

>  <m_primary>  (20) 
energy

$$$$
