0:0
     RDKit          3D

 71 73  0  0  0  0  0  0  0  0999 V2000
   -3.1920   18.5740  -25.7530 C   0  0  0  0  0  0  0  0  0  0  0  0
   -3.0980   19.3050  -27.0950 C   0  0  0  0  0  0  0  0  0  0  0  0
   -1.7520   19.9270  -27.2980 N   0  0  0  0  0  0  0  0  0  0  0  0
   -1.3530   20.7290  -26.1120 C   0  0  0  0  0  0  0  0  0  0  0  0
   -0.6390   22.0340  -26.5000 C   0  0  0  0  0  0  0  0  0  0  0  0
   -0.7080   18.9000  -27.5750 C   0  0  0  0  0  0  0  0  0  0  0  0
   -0.2070   18.9170  -29.0290 C   0  0  0  0  0  0  0  0  0  0  0  0
   -1.1150   19.6340  -29.8490 O   0  0  0  0  0  0  0  0  0  0  0  0
   -0.4880   20.7570  -30.4460 C   0  0  0  0  0  0  0  0  0  0  0  0
   -1.1630   22.0840  -30.0470 C   0  0  0  0  0  0  0  0  0  0  0  0
   -2.2240   21.8940  -29.1260 O   0  0  0  0  0  0  0  0  0  0  0  0
   -3.4110   22.5550  -29.5340 C   0  0  0  0  0  0  0  0  0  0  0  0
   -3.1560   23.5510  -30.6790 C   0  0  0  0  0  0  0  0  0  0  0  0
   -4.2800   24.4020  -30.8340 O   0  0  0  0  0  0  0  0  0  0  0  0
   -5.4510   23.8460  -30.2600 C   0  0  0  0  0  0  0  0  0  0  0  0
   -6.5570   23.6790  -31.3070 C   0  0  0  0  0  0  0  0  0  0  0  0
   -6.0430   23.0130  -32.5030 N   0  0  0  0  0  0  0  0  0  0  0  0
   -5.9340   21.5790  -32.5730 C   0  0  0  0  0  0  0  0  0  0  0  0
   -7.0770   20.7760  -32.4220 C   0  0  0  0  0  0  0  0  0  0  0  0
   -8.3490   21.3550  -32.2100 C   0  0  0  0  0  0  0  0  0  0  0  0
   -9.4880   20.5590  -32.1280 C   0  0  0  0  0  0  0  0  0  0  0  0
   -9.3860   19.1790  -32.2550 C   0  0  0  0  0  0  0  0  0  0  0  0
   -8.1380   18.5830  -32.4330 C   0  0  0  0  0  0  0  0  0  0  0  0
   -6.9520   19.3610  -32.4760 C   0  0  0  0  0  0  0  0  0  0  0  0
   -5.7000   18.7780  -32.5730 N   0  0  0  0  0  0  0  0  0  0  0  0
   -5.5360   17.3270  -32.3360 C   0  0  0  0  0  0  0  0  0  0  0  0
   -4.5940   19.5540  -32.8700 C   0  0  0  0  0  0  0  0  0  0  0  0
   -3.3420   18.9750  -33.2100 C   0  0  0  0  0  0  0  0  0  0  0  0
   -2.2260   19.7710  -33.4730 C   0  0  0  0  0  0  0  0  0  0  0  0
   -0.6860   19.0250  -33.8560 Cl  0  0  0  0  0  0  0  0  0  0  0  0
   -2.3360   21.1580  -33.4460 C   0  0  0  0  0  0  0  0  0  0  0  0
   -3.5600   21.7550  -33.1670 C   0  0  0  0  0  0  0  0  0  0  0  0
   -4.6950   20.9730  -32.8610 C   0  0  0  0  0  0  0  0  0  0  0  0
   -3.0986   19.3005  -24.9324 H   0  0  0  0  0  0  0  0  0  0  0  0
   -4.1633   18.0627  -25.6812 H   0  0  0  0  0  0  0  0  0  0  0  0
   -2.3817   17.8336  -25.6812 H   0  0  0  0  0  0  0  0  0  0  0  0
   -3.2832   18.5852  -27.9059 H   0  0  0  0  0  0  0  0  0  0  0  0
   -3.8492   20.1085  -27.0991 H   0  0  0  0  0  0  0  0  0  0  0  0
   -1.7680   20.5830  -28.1150 H   0  0  0  0  0  0  0  0  0  0  0  0
   -2.2553   20.9783  -25.5344 H   0  0  0  0  0  0  0  0  0  0  0  0
   -0.6495   20.1251  -25.5201 H   0  0  0  0  0  0  0  0  0  0  0  0
   -0.3431   22.5749  -25.5890 H   0  0  0  0  0  0  0  0  0  0  0  0
    0.2564   21.7994  -27.0943 H   0  0  0  0  0  0  0  0  0  0  0  0
   -1.3194   22.6615  -27.0943 H   0  0  0  0  0  0  0  0  0  0  0  0
    0.1478   19.0839  -26.9089 H   0  0  0  0  0  0  0  0  0  0  0  0
   -1.1659   17.9152  -27.4002 H   0  0  0  0  0  0  0  0  0  0  0  0
    0.7796   19.4020  -29.0682 H   0  0  0  0  0  0  0  0  0  0  0  0
   -0.1305   17.8827  -29.3955 H   0  0  0  0  0  0  0  0  0  0  0  0
    0.5644   20.7856  -30.1274 H   0  0  0  0  0  0  0  0  0  0  0  0
   -0.5743   20.6502  -31.5374 H   0  0  0  0  0  0  0  0  0  0  0  0
   -0.4090   22.7398  -29.5872 H   0  0  0  0  0  0  0  0  0  0  0  0
   -1.5854   22.5331  -30.9580 H   0  0  0  0  0  0  0  0  0  0  0  0
   -4.1370   21.8019  -29.8743 H   0  0  0  0  0  0  0  0  0  0  0  0
   -3.7961   23.1209  -28.6729 H   0  0  0  0  0  0  0  0  0  0  0  0
   -2.2684   24.1572  -30.4450 H   0  0  0  0  0  0  0  0  0  0  0  0
   -2.9892   22.9954  -31.6136 H   0  0  0  0  0  0  0  0  0  0  0  0
   -5.2088   22.8612  -29.8341 H   0  0  0  0  0  0  0  0  0  0  0  0
   -5.8130   24.5292  -29.4776 H   0  0  0  0  0  0  0  0  0  0  0  0
   -7.3705   23.0747  -30.8791 H   0  0  0  0  0  0  0  0  0  0  0  0
   -6.9282   24.6751  -31.5899 H   0  0  0  0  0  0  0  0  0  0  0  0
   -5.9600   23.5760  -33.3800 H   0  0  0  0  0  0  0  0  0  0  0  0
   -8.4398   22.4466  -32.1087 H   0  0  0  0  0  0  0  0  0  0  0  0
  -10.4712   21.0235  -31.9623 H   0  0  0  0  0  0  0  0  0  0  0  0
  -10.2914   18.5556  -32.2150 H   0  0  0  0  0  0  0  0  0  0  0  0
   -8.0717   17.4904  -32.5420 H   0  0  0  0  0  0  0  0  0  0  0  0
   -5.5140   17.1325  -31.2536 H   0  0  0  0  0  0  0  0  0  0  0  0
   -6.3785   16.7839  -32.7891 H   0  0  0  0  0  0  0  0  0  0  0  0
   -4.5936   16.9857  -32.7891 H   0  0  0  0  0  0  0  0  0  0  0  0
   -3.2505   17.8803  -33.2670 H   0  0  0  0  0  0  0  0  0  0  0  0
   -1.4530   21.7829  -33.6457 H   0  0  0  0  0  0  0  0  0  0  0  0
   -3.6454   22.8515  -33.1849 H   0  0  0  0  0  0  0  0  0  0  0  0
  1  2  1  0
  2  3  1  0
  3  4  1  0
  4  5  1  0
  3  6  1  0
  6  7  1  0
  7  8  1  0
  8  9  1  0
  9 10  1  0
 10 11  1  0
 11 12  1  0
 12 13  1  0
 13 14  1  0
 14 15  1  0
 15 16  1  0
 16 17  1  0
 17 18  1  0
 18 19  2  0
 19 20  1  0
 20 21  2  0
 21 22  1  0
 22 23  2  0
 23 24  1  0
 24 25  2  0
 25 26  1  0
 25 27  1  0
 27 28  2  0
 28 29  1  0
 29 30  1  0
 29 31  2  0
 31 32  1  0
 32 33  2  0
 33 18  1  0
 24 19  1  0
 33 27  1  0
  1 34  1  0
  1 35  1  0
  1 36  1  0
  2 37  1  0
  2 38  1  0
  3 39  1  0
  4 40  1  0
  4 41  1  0
  5 42  1  0
  5 43  1  0
  5 44  1  0
  6 45  1  0
  6 46  1  0
  7 47  1  0
  7 48  1  0
  9 49  1  0
  9 50  1  0
 10 51  1  0
 10 52  1  0
 12 53  1  0
 12 54  1  0
 13 55  1  0
 13 56  1  0
 15 57  1  0
 15 58  1  0
 16 59  1  0
 16 60  1  0
 17 61  1  0
 20 62  1  0
 21 63  1  0
 22 64  1  0
 23 65  1  0
 26 66  1  0
 26 67  1  0
 26 68  1  0
 28 69  1  0
 31 70  1  0
 32 71  1  0
M  CHG  2   3   1  25   1
M  END
>  <UniqueID>  (1) 
1

>  <SMILES>  (1) 
CC[NH+](CC)CCOCCOCCOCCNc1c2ccccc2[n+](C)c2cc(Cl)ccc12

>  <Energy>  (1) 
104.44090993079479

>  <Genealogy>  (1) 
CC[NH+](CC)CCOCCOCCOCCNc1c2ccccc2[n+](C)c2cc(Cl)ccc12 (protonated)
CC[NH+](CC)CCOCCOCCOCCNc1c2ccccc2[n+](C)c2cc(Cl)ccc12 (3D coordinates assigned)
CC[NH+](CC)CCOCCOCCOCCNc1c2ccccc2[n+](C)c2cc(Cl)ccc12 (optimized conformer: 104.44090993079479 kcal/mol)

>  <smiles>  (1) 
CCN(CC)CCOCCOCCOCCNc1c2ccccc2[n+](C)c2cc(Cl)ccc12

>  <score_type>  (1) 
oracle

>  <origin>  (1) 
adg

>  <m_score__min__energy>  (1) 
-9.5600000000000005

>  <m_primary>  (1) 
energy

$$$$
1:0
     RDKit          3D

 60 62  0  0  0  0  0  0  0  0999 V2000
   -5.7310   25.7370  -30.3640 C   0  0  0  0  0  0  0  0  0  0  0  0
   -4.7080   24.8150  -30.8870 N   0  0  0  0  0  0  0  0  0  0  0  0
   -3.9020   24.2910  -29.7740 C   0  0  0  0  0  0  0  0  0  0  0  0
   -5.3240   23.7010  -31.6400 C   0  0  0  0  0  0  0  0  0  0  0  0
   -4.3050   22.5900  -31.9300 C   0  0  0  0  0  0  0  0  0  0  0  0
   -4.6990   21.8020  -33.0980 N   0  0  0  0  0  0  0  0  0  0  0  0
   -5.0600   20.4150  -32.9760 C   0  0  0  0  0  0  0  0  0  0  0  0
   -6.3650   20.0780  -32.5830 C   0  0  0  0  0  0  0  0  0  0  0  0
   -7.1980   21.0180  -31.9400 C   0  0  0  0  0  0  0  0  0  0  0  0
   -8.4780   20.6640  -31.5180 C   0  0  0  0  0  0  0  0  0  0  0  0
   -8.9410   19.3690  -31.7180 C   0  0  0  0  0  0  0  0  0  0  0  0
   -8.1430   18.4310  -32.3720 C   0  0  0  0  0  0  0  0  0  0  0  0
   -6.8550   18.7770  -32.8550 C   0  0  0  0  0  0  0  0  0  0  0  0
   -6.0930   17.8990  -33.5990 N   0  0  0  0  0  0  0  0  0  0  0  0
   -6.7290   16.7090  -34.2090 C   0  0  0  0  0  0  0  0  0  0  0  0
   -4.7440   18.1420  -33.7840 C   0  0  0  0  0  0  0  0  0  0  0  0
   -3.8930   17.1650  -34.3510 C   0  0  0  0  0  0  0  0  0  0  0  0
   -2.5510   17.4330  -34.5900 C   0  0  0  0  0  0  0  0  0  0  0  0
   -1.9900   18.6260  -34.1660 C   0  0  0  0  0  0  0  0  0  0  0  0
   -2.7550   19.5770  -33.4630 C   0  0  0  0  0  0  0  0  0  0  0  0
   -2.0910   20.6910  -32.7920 N   0  0  0  0  0  0  0  0  0  0  0  0
   -0.6860   20.4190  -32.4000 C   0  0  0  0  0  0  0  0  0  0  0  0
   -0.3960   20.8690  -30.9440 C   0  0  0  0  0  0  0  0  0  0  0  0
   -1.4630   21.6930  -30.3350 N   0  0  0  0  0  0  0  0  0  0  0  0
   -2.3620   20.9220  -29.4620 C   0  0  0  0  0  0  0  0  0  0  0  0
   -0.9400   22.8830  -29.6430 C   0  0  0  0  0  0  0  0  0  0  0  0
   -4.1770   19.3960  -33.4040 C   0  0  0  0  0  0  0  0  0  0  0  0
   -5.7121   25.7200  -29.2643 H   0  0  0  0  0  0  0  0  0  0  0  0
   -5.5211   26.7569  -30.7186 H   0  0  0  0  0  0  0  0  0  0  0  0
   -6.7237   25.4226  -30.7186 H   0  0  0  0  0  0  0  0  0  0  0  0
   -4.3591   24.5882  -28.8186 H   0  0  0  0  0  0  0  0  0  0  0  0
   -3.8616   23.1935  -29.8355 H   0  0  0  0  0  0  0  0  0  0  0  0
   -2.8825   24.6995  -29.8355 H   0  0  0  0  0  0  0  0  0  0  0  0
   -6.1509   23.2825  -31.0474 H   0  0  0  0  0  0  0  0  0  0  0  0
   -5.6912   24.0932  -32.5999 H   0  0  0  0  0  0  0  0  0  0  0  0
   -3.3219   23.0455  -32.1196 H   0  0  0  0  0  0  0  0  0  0  0  0
   -4.2611   21.9214  -31.0576 H   0  0  0  0  0  0  0  0  0  0  0  0
   -4.6140   22.2320  -34.0470 H   0  0  0  0  0  0  0  0  0  0  0  0
   -6.8329   22.0416  -31.7700 H   0  0  0  0  0  0  0  0  0  0  0  0
   -9.1214   21.4089  -31.0270 H   0  0  0  0  0  0  0  0  0  0  0  0
   -9.9407   19.0829  -31.3591 H   0  0  0  0  0  0  0  0  0  0  0  0
   -8.5181   17.4069  -32.5156 H   0  0  0  0  0  0  0  0  0  0  0  0
   -7.0879   16.0375  -33.4150 H   0  0  0  0  0  0  0  0  0  0  0  0
   -7.5779   17.0261  -34.8326 H   0  0  0  0  0  0  0  0  0  0  0  0
   -5.9937   16.1794  -34.8326 H   0  0  0  0  0  0  0  0  0  0  0  0
   -4.3007   16.1760  -34.6071 H   0  0  0  0  0  0  0  0  0  0  0  0
   -1.9310   16.6940  -35.1186 H   0  0  0  0  0  0  0  0  0  0  0  0
   -0.9315   18.8339  -34.3814 H   0  0  0  0  0  0  0  0  0  0  0  0
   -2.1560   21.5410  -33.3960 H   0  0  0  0  0  0  0  0  0  0  0  0
   -2.5850   20.8900  -31.8950 H   0  0  0  0  0  0  0  0  0  0  0  0
   -0.4960   19.3387  -32.4832 H   0  0  0  0  0  0  0  0  0  0  0  0
   -0.0274   20.9895  -33.0715 H   0  0  0  0  0  0  0  0  0  0  0  0
   -0.2614   19.9690  -30.3261 H   0  0  0  0  0  0  0  0  0  0  0  0
    0.5039   21.5003  -30.9839 H   0  0  0  0  0  0  0  0  0  0  0  0
   -2.1189   21.1305  -28.4096 H   0  0  0  0  0  0  0  0  0  0  0  0
   -3.4043   21.2113  -29.6618 H   0  0  0  0  0  0  0  0  0  0  0  0
   -2.2349   19.8478  -29.6618 H   0  0  0  0  0  0  0  0  0  0  0  0
   -1.0059   22.7331  -28.5552 H   0  0  0  0  0  0  0  0  0  0  0  0
    0.1105   23.0410  -29.9284 H   0  0  0  0  0  0  0  0  0  0  0  0
   -1.5340   23.7638  -29.9284 H   0  0  0  0  0  0  0  0  0  0  0  0
  1  2  1  0
  2  3  1  0
  2  4  1  0
  4  5  1  0
  5  6  1  0
  6  7  1  0
  7  8  2  0
  8  9  1  0
  9 10  2  0
 10 11  1  0
 11 12  2  0
 12 13  1  0
 13 14  2  0
 14 15  1  0
 14 16  1  0
 16 17  2  0
 17 18  1  0
 18 19  2  0
 19 20  1  0
 20 21  1  0
 21 22  1  0
 22 23  1  0
 23 24  1  0
 24 25  1  0
 24 26  1  0
 20 27  2  0
 27  7  1  0
 13  8  1  0
 27 16  1  0
  1 28  1  0
  1 29  1  0
  1 30  1  0
  3 31  1  0
  3 32  1  0
  3 33  1  0
  4 34  1  0
  4 35  1  0
  5 36  1  0
  5 37  1  0
  6 38  1  0
  9 39  1  0
 10 40  1  0
 11 41  1  0
 12 42  1  0
 15 43  1  0
 15 44  1  0
 15 45  1  0
 17 46  1  0
 18 47  1  0
 19 48  1  0
 21 49  1  0
 21 50  1  0
 22 51  1  0
 22 52  1  0
 23 53  1  0
 23 54  1  0
 25 55  1  0
 25 56  1  0
 25 57  1  0
 26 58  1  0
 26 59  1  0
 26 60  1  0
M  CHG  2  14   1  21   1
M  END
>  <UniqueID>  (2) 
2

>  <SMILES>  (2) 
CN(C)CCNc1c2ccccc2[n+](C)c2cccc([NH2+]CCN(C)C)c12

>  <Energy>  (2) 
103.56558691394773

>  <Genealogy>  (2) 
CN(C)CCNc1c2ccccc2[n+](C)c2cccc([NH2+]CCN(C)C)c12 (protonated)
CN(C)CCNc1c2ccccc2[n+](C)c2cccc([NH2+]CCN(C)C)c12 (3D coordinates assigned)
CN(C)CCNc1c2ccccc2[n+](C)c2cccc([NH2+]CCN(C)C)c12 (optimized conformer: 103.56558691394773 kcal/mol)

>  <smiles>  (2) 
CN(C)CCNc1cccc2c1c(NCCN(C)C)c1ccccc1[n+]2C

>  <score_type>  (2) 
oracle

>  <origin>  (2) 
adg

>  <m_score__min__energy>  (2) 
-7.1200000000000001

>  <m_primary>  (2) 
energy

$$$$
2:0
     RDKit          3D

 60 62  0  0  0  0  0  0  0  0999 V2000
   -4.5940   13.6600  -32.0080 C   0  0  0  0  0  0  0  0  0  0  0  0
   -4.9210   13.9880  -33.4640 C   0  0  0  0  0  0  0  0  0  0  0  0
   -4.8610   15.4390  -33.7000 N   0  0  0  0  0  0  0  0  0  0  0  0
   -5.9350   16.1650  -32.9990 C   0  0  0  0  0  0  0  0  0  0  0  0
   -6.5920   17.2410  -33.8820 C   0  0  0  0  0  0  0  0  0  0  0  0
   -5.5740   17.9890  -34.6180 N   0  0  0  0  0  0  0  0  0  0  0  0
   -4.4450   18.5930  -33.9640 C   0  0  0  0  0  0  0  0  0  0  0  0
   -3.1740   18.0050  -34.1010 C   0  0  0  0  0  0  0  0  0  0  0  0
   -3.0990   16.8100  -34.8450 O   0  0  0  0  0  0  0  0  0  0  0  0
   -1.9470   16.2780  -35.4920 C   0  0  0  0  0  0  0  0  0  0  0  0
   -2.0530   18.6150  -33.4930 C   0  0  0  0  0  0  0  0  0  0  0  0
   -0.7740   18.0650  -33.6730 O   0  0  0  0  0  0  0  0  0  0  0  0
    0.1320   17.7260  -32.6270 C   0  0  0  0  0  0  0  0  0  0  0  0
   -2.2360   19.7730  -32.7160 C   0  0  0  0  0  0  0  0  0  0  0  0
   -3.5130   20.3410  -32.5160 C   0  0  0  0  0  0  0  0  0  0  0  0
   -4.6160   19.7570  -33.1800 C   0  0  0  0  0  0  0  0  0  0  0  0
   -5.8700   20.3630  -33.0540 C   0  0  0  0  0  0  0  0  0  0  0  0
   -6.0040   21.5760  -32.3840 C   0  0  0  0  0  0  0  0  0  0  0  0
   -7.2520   22.2020  -32.3400 C   0  0  0  0  0  0  0  0  0  0  0  0
   -7.3990   23.4340  -31.7210 C   0  0  0  0  0  0  0  0  0  0  0  0
   -6.2880   24.1080  -31.1900 C   0  0  0  0  0  0  0  0  0  0  0  0
   -6.4380   25.3710  -30.5960 O   0  0  0  0  0  0  0  0  0  0  0  0
   -6.4770   25.6190  -29.1940 C   0  0  0  0  0  0  0  0  0  0  0  0
   -5.0030   23.5010  -31.2600 C   0  0  0  0  0  0  0  0  0  0  0  0
   -3.8280   24.1980  -30.9100 O   0  0  0  0  0  0  0  0  0  0  0  0
   -3.3790   24.5360  -29.6020 C   0  0  0  0  0  0  0  0  0  0  0  0
   -4.8780   22.1680  -31.7670 C   0  0  0  0  0  0  0  0  0  0  0  0
   -3.6930   21.4490  -31.7070 N   0  0  0  0  0  0  0  0  0  0  0  0
   -2.6710   21.7700  -30.6870 C   0  0  0  0  0  0  0  0  0  0  0  0
   -5.2133   14.2812  -31.3442 H   0  0  0  0  0  0  0  0  0  0  0  0
   -4.8027   12.5972  -31.8158 H   0  0  0  0  0  0  0  0  0  0  0  0
   -3.5306   13.8655  -31.8158 H   0  0  0  0  0  0  0  0  0  0  0  0
   -4.1935   13.4860  -34.1187 H   0  0  0  0  0  0  0  0  0  0  0  0
   -5.9403   13.6374  -33.6836 H   0  0  0  0  0  0  0  0  0  0  0  0
   -4.9090   15.6360  -34.7280 H   0  0  0  0  0  0  0  0  0  0  0  0
   -3.9460   15.8020  -33.3430 H   0  0  0  0  0  0  0  0  0  0  0  0
   -6.7055   15.4432  -32.6901 H   0  0  0  0  0  0  0  0  0  0  0  0
   -5.4856   16.6721  -32.1324 H   0  0  0  0  0  0  0  0  0  0  0  0
   -7.2732   16.7565  -34.5970 H   0  0  0  0  0  0  0  0  0  0  0  0
   -7.1507   17.9372  -33.2392 H   0  0  0  0  0  0  0  0  0  0  0  0
   -5.6120   17.9970  -35.6630 H   0  0  0  0  0  0  0  0  0  0  0  0
   -1.2228   15.9435  -34.7346 H   0  0  0  0  0  0  0  0  0  0  0  0
   -2.2408   15.4244  -36.1205 H   0  0  0  0  0  0  0  0  0  0  0  0
   -1.4877   17.0552  -36.1205 H   0  0  0  0  0  0  0  0  0  0  0  0
   -0.3480   17.9056  -31.6537 H   0  0  0  0  0  0  0  0  0  0  0  0
    0.4070   16.6642  -32.7099 H   0  0  0  0  0  0  0  0  0  0  0  0
    1.0365   18.3465  -32.7099 H   0  0  0  0  0  0  0  0  0  0  0  0
   -1.3601   20.2493  -32.2513 H   0  0  0  0  0  0  0  0  0  0  0  0
   -6.7569   19.8777  -33.4874 H   0  0  0  0  0  0  0  0  0  0  0  0
   -8.1242   21.7142  -32.7996 H   0  0  0  0  0  0  0  0  0  0  0  0
   -8.3978   23.8885  -31.6451 H   0  0  0  0  0  0  0  0  0  0  0  0
   -6.3285   24.6744  -28.6503 H   0  0  0  0  0  0  0  0  0  0  0  0
   -5.6791   26.3266  -28.9245 H   0  0  0  0  0  0  0  0  0  0  0  0
   -7.4536   26.0475  -28.9245 H   0  0  0  0  0  0  0  0  0  0  0  0
   -4.0246   24.0500  -28.8557 H   0  0  0  0  0  0  0  0  0  0  0  0
   -2.3426   24.1920  -29.4698 H   0  0  0  0  0  0  0  0  0  0  0  0
   -3.4229   25.6271  -29.4698 H   0  0  0  0  0  0  0  0  0  0  0  0
   -3.1000   21.6353  -29.6831 H   0  0  0  0  0  0  0  0  0  0  0  0
   -1.8074   21.0999  -30.8097 H   0  0  0  0  0  0  0  0  0  0  0  0
   -2.3456   22.8136  -30.8097 H   0  0  0  0  0  0  0  0  0  0  0  0
  1  2  1  0
  2  3  1  0
  3  4  1  0
  4  5  1  0
  5  6  1  0
  6  7  1  0
  7  8  2  0
  8  9  1  0
  9 10  1  0
  8 11  1  0
 11 12  1  0
 12 13  1  0
 11 14  2  0
 14 15  1  0
 15 16  2  0
 16 17  1  0
 17 18  2  0
 18 19  1  0
 19 20  2  0
 20 21  1  0
 21 22  1  0
 22 23  1  0
 21 24  2  0
 24 25  1  0
 25 26  1  0
 24 27  1  0
 27 28  2  0
 28 29  1  0
 16  7  1  0
 27 18  1  0
 28 15  1  0
  1 30  1  0
  1 31  1  0
  1 32  1  0
  2 33  1  0
  2 34  1  0
  3 35  1  0
  3 36  1  0
  4 37  1  0
  4 38  1  0
  5 39  1  0
  5 40  1  0
  6 41  1  0
 10 42  1  0
 10 43  1  0
 10 44  1  0
 13 45  1  0
 13 46  1  0
 13 47  1  0
 14 48  1  0
 17 49  1  0
 19 50  1  0
 20 51  1  0
 23 52  1  0
 23 53  1  0
 23 54  1  0
 26 55  1  0
 26 56  1  0
 26 57  1  0
 29 58  1  0
 29 59  1  0
 29 60  1  0
M  CHG  2   3   1  28   1
M  END
>  <UniqueID>  (3) 
3

>  <SMILES>  (3) 
CC[NH2+]CCNc1c(OC)c(OC)cc2c1cc1ccc(OC)c(OC)c1[n+]2C

>  <Energy>  (3) 
90.68403530163926

>  <Genealogy>  (3) 
CC[NH2+]CCNc1c(OC)c(OC)cc2c1cc1ccc(OC)c(OC)c1[n+]2C (protonated)
CC[NH2+]CCNc1c(OC)c(OC)cc2c1cc1ccc(OC)c(OC)c1[n+]2C (3D coordinates assigned)
CC[NH2+]CCNc1c(OC)c(OC)cc2c1cc1ccc(OC)c(OC)c1[n+]2C (optimized conformer: 90.68403530163926 kcal/mol)

>  <smiles>  (3) 
CCNCCNc1c(OC)c(OC)cc2c1cc1ccc(OC)c(OC)c1[n+]2C

>  <score_type>  (3) 
oracle

>  <origin>  (3) 
adg

>  <m_score__min__energy>  (3) 
-6.3200000000000003

>  <m_primary>  (3) 
energy

$$$$
3:0
     RDKit          3D

 75 78  0  0  0  0  0  0  0  0999 V2000
    0.6130   22.6280  -35.7120 C   0  0  0  0  0  0  0  0  0  0  0  0
    0.7860   21.1310  -35.4290 C   0  0  0  0  0  0  0  0  0  0  0  0
   -0.3600   20.5620  -34.6710 N   0  0  1  0  0  0  0  0  0  0  0  0
   -0.5320   19.1320  -34.9950 C   0  0  0  0  0  0  0  0  0  0  0  0
   -0.1580   20.7180  -33.2070 C   0  0  0  0  0  0  0  0  0  0  0  0
   -1.2610   21.5600  -32.5380 C   0  0  0  0  0  0  0  0  0  0  0  0
   -2.2790   20.7050  -31.9250 N   0  0  0  0  0  0  0  0  0  0  0  0
   -3.6810   20.9900  -32.0750 C   0  0  0  0  0  0  0  0  0  0  0  0
   -4.4970   20.1550  -32.8590 C   0  0  0  0  0  0  0  0  0  0  0  0
   -3.9470   19.0750  -33.5830 C   0  0  0  0  0  0  0  0  0  0  0  0
   -4.7530   18.2700  -34.3840 C   0  0  0  0  0  0  0  0  0  0  0  0
   -6.1120   18.5340  -34.4910 C   0  0  0  0  0  0  0  0  0  0  0  0
   -6.6810   19.5870  -33.7760 C   0  0  0  0  0  0  0  0  0  0  0  0
   -5.8950   20.3990  -32.9180 C   0  0  0  0  0  0  0  0  0  0  0  0
   -6.4550   21.4100  -32.1590 N   0  0  0  0  0  0  0  0  0  0  0  0
   -7.9220   21.4780  -31.9840 C   0  0  0  0  0  0  0  0  0  0  0  0
   -5.6410   22.3490  -31.5510 C   0  0  0  0  0  0  0  0  0  0  0  0
   -6.1630   23.5480  -31.0090 C   0  0  0  0  0  0  0  0  0  0  0  0
   -5.3380   24.4740  -30.3720 C   0  0  0  0  0  0  0  0  0  0  0  0
   -3.9590   24.2460  -30.2730 C   0  0  0  0  0  0  0  0  0  0  0  0
   -3.0800   25.1460  -29.6430 O   0  0  0  0  0  0  0  0  0  0  0  0
   -1.9600   24.7880  -28.8340 C   0  0  0  0  0  0  0  0  0  0  0  0
   -2.3570   23.6810  -27.8250 C   0  0  0  0  0  0  0  0  0  0  0  0
   -1.4320   22.5000  -27.7490 N   0  0  0  0  0  0  0  0  0  0  0  0
   -0.0250   22.9410  -27.9460 C   0  0  0  0  0  0  0  0  0  0  0  0
   -1.7820   21.4820  -28.7980 C   0  0  0  0  0  0  0  0  0  0  0  0
   -2.7610   20.4150  -28.2810 C   0  0  0  0  0  0  0  0  0  0  0  0
   -2.1520   19.6210  -27.1900 N   0  0  0  0  0  0  0  0  0  0  0  0
   -3.1980   18.9530  -26.3990 C   0  0  0  0  0  0  0  0  0  0  0  0
   -1.2380   20.4090  -26.3270 C   0  0  0  0  0  0  0  0  0  0  0  0
   -1.5530   21.9180  -26.3690 C   0  0  0  0  0  0  0  0  0  0  0  0
   -3.4210   23.0900  -30.8380 C   0  0  0  0  0  0  0  0  0  0  0  0
   -4.2400   22.1360  -31.4780 C   0  0  0  0  0  0  0  0  0  0  0  0
    0.5497   23.1761  -34.7604 H   0  0  0  0  0  0  0  0  0  0  0  0
    1.4748   22.9940  -36.2893 H   0  0  0  0  0  0  0  0  0  0  0  0
   -0.3096   22.7878  -36.2893 H   0  0  0  0  0  0  0  0  0  0  0  0
    0.8754   20.5982  -36.3872 H   0  0  0  0  0  0  0  0  0  0  0  0
    1.6896   21.0078  -34.8140 H   0  0  0  0  0  0  0  0  0  0  0  0
   -1.2420   21.0530  -34.9510 H   0  0  0  0  0  0  0  0  0  0  0  0
   -0.6019   18.5509  -34.0637 H   0  0  0  0  0  0  0  0  0  0  0  0
   -1.4528   18.9971  -35.5814 H   0  0  0  0  0  0  0  0  0  0  0  0
    0.3306   18.7826  -35.5814 H   0  0  0  0  0  0  0  0  0  0  0  0
   -0.1493   19.7197  -32.7452 H   0  0  0  0  0  0  0  0  0  0  0  0
    0.7962   21.2448  -33.0589 H   0  0  0  0  0  0  0  0  0  0  0  0
   -0.8080   22.1928  -31.7606 H   0  0  0  0  0  0  0  0  0  0  0  0
   -1.7432   22.1792  -33.3087 H   0  0  0  0  0  0  0  0  0  0  0  0
   -1.9790   20.0020  -31.2120 H   0  0  0  0  0  0  0  0  0  0  0  0
   -2.8691   18.8669  -33.5136 H   0  0  0  0  0  0  0  0  0  0  0  0
   -4.3127   17.4242  -34.9324 H   0  0  0  0  0  0  0  0  0  0  0  0
   -6.7419   17.9101  -35.1422 H   0  0  0  0  0  0  0  0  0  0  0  0
   -7.7569   19.7917  -33.8787 H   0  0  0  0  0  0  0  0  0  0  0  0
   -8.1631   21.4892  -30.9108 H   0  0  0  0  0  0  0  0  0  0  0  0
   -8.3054   22.3949  -32.4555 H   0  0  0  0  0  0  0  0  0  0  0  0
   -8.3886   20.6005  -32.4555 H   0  0  0  0  0  0  0  0  0  0  0  0
   -7.2405   23.7531  -31.0920 H   0  0  0  0  0  0  0  0  0  0  0  0
   -5.7725   25.3896  -29.9443 H   0  0  0  0  0  0  0  0  0  0  0  0
   -1.1500   24.4172  -29.4793 H   0  0  0  0  0  0  0  0  0  0  0  0
   -1.6226   25.6749  -28.2776 H   0  0  0  0  0  0  0  0  0  0  0  0
   -2.4038   24.1373  -26.8252 H   0  0  0  0  0  0  0  0  0  0  0  0
   -3.3184   23.2835  -28.1824 H   0  0  0  0  0  0  0  0  0  0  0  0
    0.4529   23.0908  -26.9666 H   0  0  0  0  0  0  0  0  0  0  0  0
    0.5249   22.1721  -28.5085 H   0  0  0  0  0  0  0  0  0  0  0  0
   -0.0123   23.8862  -28.5085 H   0  0  0  0  0  0  0  0  0  0  0  0
   -2.2435   21.9998  -29.6517 H   0  0  0  0  0  0  0  0  0  0  0  0
   -0.8531   20.9697  -29.0891 H   0  0  0  0  0  0  0  0  0  0  0  0
   -3.6669   20.9111  -27.9025 H   0  0  0  0  0  0  0  0  0  0  0  0
   -3.0111   19.7372  -29.1105 H   0  0  0  0  0  0  0  0  0  0  0  0
   -2.9888   19.0866  -25.3274 H   0  0  0  0  0  0  0  0  0  0  0  0
   -4.1769   19.3935  -26.6392 H   0  0  0  0  0  0  0  0  0  0  0  0
   -3.2101   17.8796  -26.6392 H   0  0  0  0  0  0  0  0  0  0  0  0
   -1.3371   20.0552  -25.2902 H   0  0  0  0  0  0  0  0  0  0  0  0
   -0.2138   20.2675  -26.7024 H   0  0  0  0  0  0  0  0  0  0  0  0
   -2.5818   22.0723  -26.0115 H   0  0  0  0  0  0  0  0  0  0  0  0
   -0.8177   22.4277  -25.7290 H   0  0  0  0  0  0  0  0  0  0  0  0
   -2.3358   22.9185  -30.7835 H   0  0  0  0  0  0  0  0  0  0  0  0
  1  2  1  0
  2  3  1  0
  3  4  1  0
  3  5  1  0
  5  6  1  0
  6  7  1  0
  7  8  1  0
  8  9  2  0
  9 10  1  0
 10 11  2  0
 11 12  1  0
 12 13  2  0
 13 14  1  0
 14 15  2  0
 15 16  1  0
 15 17  1  0
 17 18  2  0
 18 19  1  0
 19 20  2  0
 20 21  1  0
 21 22  1  0
 22 23  1  0
 23 24  1  0
 24 25  1  0
 24 26  1  0
 26 27  1  0
 27 28  1  0
 28 29  1  0
 28 30  1  0
 30 31  1  0
 20 32  1  0
 32 33  2  0
 33  8  1  0
 14  9  1  0
 33 17  1  0
 31 24  1  0
  1 34  1  0
  1 35  1  0
  1 36  1  0
  2 37  1  0
  2 38  1  0
  3 39  1  6
  4 40  1  0
  4 41  1  0
  4 42  1  0
  5 43  1  0
  5 44  1  0
  6 45  1  0
  6 46  1  0
  7 47  1  0
 10 48  1  0
 11 49  1  0
 12 50  1  0
 13 51  1  0
 16 52  1  0
 16 53  1  0
 16 54  1  0
 18 55  1  0
 19 56  1  0
 22 57  1  0
 22 58  1  0
 23 59  1  0
 23 60  1  0
 25 61  1  0
 25 62  1  0
 25 63  1  0
 26 64  1  0
 26 65  1  0
 27 66  1  0
 27 67  1  0
 29 68  1  0
 29 69  1  0
 29 70  1  0
 30 71  1  0
 30 72  1  0
 31 73  1  0
 31 74  1  0
 32 75  1  0
M  CHG  3   3   1  15   1  24   1
M  END
>  <UniqueID>  (4) 
4

>  <SMILES>  (4) 
CC[N@@H+](C)CCNc1c2ccccc2[n+](C)c2ccc(OCC[N+]3(C)CCN(C)CC3)cc12

>  <Energy>  (4) 
124.47047590507034

>  <Genealogy>  (4) 
CC[NH+](C)CCNc1c2ccccc2[n+](C)c2ccc(OCC[N+]3(C)CCN(C)CC3)cc12 (protonated)
CC[N@@H+](C)CCNc1c2ccccc2[n+](C)c2ccc(OCC[N+]3(C)CCN(C)CC3)cc12 (chirality)
CC[N@@H+](C)CCNc1c2ccccc2[n+](C)c2ccc(OCC[N+]3(C)CCN(C)CC3)cc12 (3D coordinates assigned)
CC[N@@H+](C)CCNc1c2ccccc2[n+](C)c2ccc(OCC[N+]3(C)CCN(C)CC3)cc12 (nonaromatic ring conformer: 124.47047590507034 kcal/mol)

>  <smiles>  (4) 
CCN(C)CCNc1c2ccccc2[n+](C)c2ccc(OCC[N+]3(C)CCN(C)CC3)cc12

>  <score_type>  (4) 
oracle

>  <origin>  (4) 
adg

>  <m_score__min__energy>  (4) 
-7.5899999999999999

>  <m_primary>  (4) 
energy

$$$$
4:0
     RDKit          3D

 77 80  0  0  0  0  0  0  0  0999 V2000
   -1.6110   17.8050  -34.5510 C   0  0  0  0  0  0  0  0  0  0  0  0
   -2.0050   16.7370  -33.5330 C   0  0  0  0  0  0  0  0  0  0  0  0
   -3.3610   16.2310  -33.8090 N   0  0  0  0  0  0  0  0  0  0  0  0
   -3.4570   14.8780  -34.3860 C   0  0  0  0  0  0  0  0  0  0  0  0
   -4.9070   14.4050  -34.4180 C   0  0  0  0  0  0  0  0  0  0  0  0
   -4.5520   17.0310  -33.5300 C   0  0  0  0  0  0  0  0  0  0  0  0
   -5.2920   16.8550  -32.3360 C   0  0  0  0  0  0  0  0  0  0  0  0
   -6.4300   17.6210  -32.0720 C   0  0  0  0  0  0  0  0  0  0  0  0
   -6.8610   18.5900  -32.9840 C   0  0  0  0  0  0  0  0  0  0  0  0
   -8.1130   19.3820  -32.7200 C   0  0  0  0  0  0  0  0  0  0  0  0
   -8.2720   19.6650  -31.2210 C   0  0  0  0  0  0  0  0  0  0  0  0
   -8.2170   21.1230  -30.9670 N   0  0  0  0  0  0  0  0  0  0  0  0
   -9.5140   21.6140  -30.4680 C   0  0  0  0  0  0  0  0  0  0  0  0
   -7.7910   21.8820  -32.1690 C   0  0  0  0  0  0  0  0  0  0  0  0
   -7.9890   23.3900  -31.9520 C   0  0  0  0  0  0  0  0  0  0  0  0
   -6.6680   24.1330  -31.7150 C   0  0  0  0  0  0  0  0  0  0  0  0
   -6.3600   24.2600  -30.2180 C   0  0  0  0  0  0  0  0  0  0  0  0
   -6.0020   22.9500  -29.6500 N   0  0  0  0  0  0  0  0  0  0  0  0
   -4.5630   22.7400  -29.6880 C   0  0  0  0  0  0  0  0  0  0  0  0
   -3.7240   23.2640  -28.6710 C   0  0  0  0  0  0  0  0  0  0  0  0
   -4.2150   24.1590  -27.6880 C   0  0  0  0  0  0  0  0  0  0  0  0
   -3.3730   24.6880  -26.7120 C   0  0  0  0  0  0  0  0  0  0  0  0
   -2.0270   24.3540  -26.6980 C   0  0  0  0  0  0  0  0  0  0  0  0
   -1.5140   23.4780  -27.6520 C   0  0  0  0  0  0  0  0  0  0  0  0
   -2.3490   22.8950  -28.6400 C   0  0  0  0  0  0  0  0  0  0  0  0
   -1.8490   22.0030  -29.5640 N   0  0  0  0  0  0  0  0  0  0  0  0
   -0.5280   21.3690  -29.3440 C   0  0  0  0  0  0  0  0  0  0  0  0
   -2.5820   21.6940  -30.6910 C   0  0  0  0  0  0  0  0  0  0  0  0
   -1.9850   21.0480  -31.8050 C   0  0  0  0  0  0  0  0  0  0  0  0
   -2.7340   20.7030  -32.9260 C   0  0  0  0  0  0  0  0  0  0  0  0
   -4.0870   21.0050  -32.9800 C   0  0  0  0  0  0  0  0  0  0  0  0
   -4.6980   21.6690  -31.9190 C   0  0  0  0  0  0  0  0  0  0  0  0
   -3.9620   22.0340  -30.7640 C   0  0  0  0  0  0  0  0  0  0  0  0
   -6.1520   18.7690  -34.1760 C   0  0  0  0  0  0  0  0  0  0  0  0
   -5.0110   18.0090  -34.4440 C   0  0  0  0  0  0  0  0  0  0  0  0
   -1.2771   18.7100  -34.0224 H   0  0  0  0  0  0  0  0  0  0  0  0
   -0.7934   17.4263  -35.1820 H   0  0  0  0  0  0  0  0  0  0  0  0
   -2.4787   18.0480  -35.1820 H   0  0  0  0  0  0  0  0  0  0  0  0
   -1.2898   15.9031  -33.5891 H   0  0  0  0  0  0  0  0  0  0  0  0
   -1.9915   17.1837  -32.5279 H   0  0  0  0  0  0  0  0  0  0  0  0
   -3.0601   14.8943  -35.4118 H   0  0  0  0  0  0  0  0  0  0  0  0
   -2.8737   14.1857  -33.7611 H   0  0  0  0  0  0  0  0  0  0  0  0
   -5.2762   14.2846  -33.3888 H   0  0  0  0  0  0  0  0  0  0  0  0
   -5.5237   15.1485  -34.9441 H   0  0  0  0  0  0  0  0  0  0  0  0
   -4.9666   13.4408  -34.9441 H   0  0  0  0  0  0  0  0  0  0  0  0
   -4.9653   16.1021  -31.6036 H   0  0  0  0  0  0  0  0  0  0  0  0
   -6.9915   17.4609  -31.1397 H   0  0  0  0  0  0  0  0  0  0  0  0
   -8.0571   20.3368  -33.2634 H   0  0  0  0  0  0  0  0  0  0  0  0
   -8.9793   18.7969  -33.0624 H   0  0  0  0  0  0  0  0  0  0  0  0
   -9.2407   19.2727  -30.8779 H   0  0  0  0  0  0  0  0  0  0  0  0
   -7.4532   19.1743  -30.6743 H   0  0  0  0  0  0  0  0  0  0  0  0
   -9.5083   21.6118  -29.3680 H   0  0  0  0  0  0  0  0  0  0  0  0
   -9.6829   22.6383  -30.8318 H   0  0  0  0  0  0  0  0  0  0  0  0
  -10.3188   20.9583  -30.8318 H   0  0  0  0  0  0  0  0  0  0  0  0
   -6.7275   21.6812  -32.3656 H   0  0  0  0  0  0  0  0  0  0  0  0
   -8.4022   21.5629  -33.0261 H   0  0  0  0  0  0  0  0  0  0  0  0
   -8.4754   23.8128  -32.8434 H   0  0  0  0  0  0  0  0  0  0  0  0
   -8.6078   23.5174  -31.0515 H   0  0  0  0  0  0  0  0  0  0  0  0
   -5.8527   23.5785  -32.2026 H   0  0  0  0  0  0  0  0  0  0  0  0
   -6.7584   25.1446  -32.1376 H   0  0  0  0  0  0  0  0  0  0  0  0
   -5.5195   24.9560  -30.0796 H   0  0  0  0  0  0  0  0  0  0  0  0
   -7.2553   24.6375  -29.7024 H   0  0  0  0  0  0  0  0  0  0  0  0
   -6.3610   22.8670  -28.6720 H   0  0  0  0  0  0  0  0  0  0  0  0
   -6.4990   22.1830  -30.1570 H   0  0  0  0  0  0  0  0  0  0  0  0
   -5.2783   24.4407  -27.6957 H   0  0  0  0  0  0  0  0  0  0  0  0
   -3.7767   25.3720  -25.9510 H   0  0  0  0  0  0  0  0  0  0  0  0
   -1.3632   24.7816  -25.9321 H   0  0  0  0  0  0  0  0  0  0  0  0
   -0.4415   23.2337  -27.6391 H   0  0  0  0  0  0  0  0  0  0  0  0
   -0.3399   21.2787  -28.2640 H   0  0  0  0  0  0  0  0  0  0  0  0
   -0.5203   20.3691  -29.8024 H   0  0  0  0  0  0  0  0  0  0  0  0
    0.2569   21.9885  -29.8024 H   0  0  0  0  0  0  0  0  0  0  0  0
   -0.9101   20.8157  -31.7818 H   0  0  0  0  0  0  0  0  0  0  0  0
   -2.2522   20.1897  -33.7712 H   0  0  0  0  0  0  0  0  0  0  0  0
   -4.6784   20.7195  -33.8625 H   0  0  0  0  0  0  0  0  0  0  0  0
   -5.7687   21.9140  -31.9784 H   0  0  0  0  0  0  0  0  0  0  0  0
   -6.4956   19.5143  -34.9085 H   0  0  0  0  0  0  0  0  0  0  0  0
   -4.4598   18.1736  -35.3816 H   0  0  0  0  0  0  0  0  0  0  0  0
  1  2  1  0
  2  3  1  0
  3  4  1  0
  4  5  1  0
  3  6  1  0
  6  7  2  0
  7  8  1  0
  8  9  2  0
  9 10  1  0
 10 11  1  0
 11 12  1  0
 12 13  1  0
 12 14  1  0
 14 15  1  0
 15 16  1  0
 16 17  1  0
 17 18  1  0
 18 19  1  0
 19 20  1  0
 20 21  2  0
 21 22  1  0
 22 23  2  0
 23 24  1  0
 24 25  2  0
 25 26  1  0
 26 27  1  0
 26 28  2  0
 28 29  1  0
 29 30  2  0
 30 31  1  0
 31 32  2  0
 32 33  1  0
  9 34  1  0
 34 35  2  0
 35  6  1  0
 33 19  2  0
 25 20  1  0
 33 28  1  0
  1 36  1  0
  1 37  1  0
  1 38  1  0
  2 39  1  0
  2 40  1  0
  4 41  1  0
  4 42  1  0
  5 43  1  0
  5 44  1  0
  5 45  1  0
  7 46  1  0
  8 47  1  0
 10 48  1  0
 10 49  1  0
 11 50  1  0
 11 51  1  0
 13 52  1  0
 13 53  1  0
 13 54  1  0
 14 55  1  0
 14 56  1  0
 15 57  1  0
 15 58  1  0
 16 59  1  0
 16 60  1  0
 17 61  1  0
 17 62  1  0
 18 63  1  0
 18 64  1  0
 21 65  1  0
 22 66  1  0
 23 67  1  0
 24 68  1  0
 27 69  1  0
 27 70  1  0
 27 71  1  0
 29 72  1  0
 30 73  1  0
 31 74  1  0
 32 75  1  0
 34 76  1  0
 35 77  1  0
M  CHG  2  18   1  26   1
M  END
>  <UniqueID>  (5) 
5

>  <SMILES>  (5) 
CCN(CC)c1ccc(CCN(C)CCCC[NH2+]c2c3ccccc3[n+](C)c3ccccc23)cc1

>  <Energy>  (5) 
101.04258487104472

>  <Genealogy>  (5) 
CCN(CC)c1ccc(CCN(C)CCCC[NH2+]c2c3ccccc3[n+](C)c3ccccc23)cc1 (protonated)
CCN(CC)c1ccc(CCN(C)CCCC[NH2+]c2c3ccccc3[n+](C)c3ccccc23)cc1 (3D coordinates assigned)
CCN(CC)c1ccc(CCN(C)CCCC[NH2+]c2c3ccccc3[n+](C)c3ccccc23)cc1 (optimized conformer: 101.04258487104472 kcal/mol)

>  <smiles>  (5) 
CCN(CC)c1ccc(CCN(C)CCCCNc2c3ccccc3[n+](C)c3ccccc23)cc1

>  <score_type>  (5) 
oracle

>  <origin>  (5) 
adg

>  <m_score__min__energy>  (5) 
-8.7799999999999994

>  <m_primary>  (5) 
energy

$$$$
5:0
     RDKit          3D

 52 54  0  0  0  0  0  0  0  0999 V2000
   -2.5290   24.5030  -29.3450 C   0  0  0  0  0  0  0  0  0  0  0  0
   -3.9340   23.9370  -29.6160 C   0  0  0  0  0  0  0  0  0  0  0  0
   -4.5770   24.4590  -30.8410 N   0  0  0  0  0  0  0  0  0  0  0  0
   -5.3940   25.6670  -30.5910 C   0  0  0  0  0  0  0  0  0  0  0  0
   -6.6040   25.3250  -29.7230 C   0  0  0  0  0  0  0  0  0  0  0  0
   -5.2690   23.4240  -31.6440 C   0  0  0  0  0  0  0  0  0  0  0  0
   -4.2970   22.2970  -32.0010 C   0  0  0  0  0  0  0  0  0  0  0  0
   -4.7060   21.6380  -33.2430 N   0  0  0  0  0  0  0  0  0  0  0  0
   -5.1910   20.2850  -33.2350 C   0  0  0  0  0  0  0  0  0  0  0  0
   -6.5120   20.0050  -32.8420 C   0  0  0  0  0  0  0  0  0  0  0  0
   -7.3810   21.0390  -32.4330 C   0  0  0  0  0  0  0  0  0  0  0  0
   -8.6680   20.7570  -31.9650 C   0  0  0  0  0  0  0  0  0  0  0  0
   -9.5830   21.8760  -31.5590 C   0  0  0  0  0  0  0  0  0  0  0  0
   -9.1080   19.4330  -31.9250 C   0  0  0  0  0  0  0  0  0  0  0  0
   -8.2790   18.4000  -32.3630 C   0  0  0  0  0  0  0  0  0  0  0  0
   -6.9830   18.6650  -32.8740 C   0  0  0  0  0  0  0  0  0  0  0  0
   -6.1860   17.6610  -33.3940 N   0  0  0  0  0  0  0  0  0  0  0  0
   -6.7730   16.3400  -33.7150 C   0  0  0  0  0  0  0  0  0  0  0  0
   -4.8480   17.9010  -33.6480 C   0  0  0  0  0  0  0  0  0  0  0  0
   -3.9450   16.8470  -33.9450 C   0  0  0  0  0  0  0  0  0  0  0  0
   -2.6060   17.1070  -34.2430 C   0  0  0  0  0  0  0  0  0  0  0  0
   -1.4200   15.6670  -34.6510 Br  0  0  0  0  0  0  0  0  0  0  0  0
   -2.1290   18.4130  -34.2300 C   0  0  0  0  0  0  0  0  0  0  0  0
   -2.9810   19.4640  -33.9030 C   0  0  0  0  0  0  0  0  0  0  0  0
   -4.3390   19.2270  -33.6020 C   0  0  0  0  0  0  0  0  0  0  0  0
   -2.3636   24.5696  -28.2595 H   0  0  0  0  0  0  0  0  0  0  0  0
   -1.7739   23.8389  -29.7909 H   0  0  0  0  0  0  0  0  0  0  0  0
   -2.4451   25.5051  -29.7909 H   0  0  0  0  0  0  0  0  0  0  0  0
   -3.8525   22.8440  -29.7092 H   0  0  0  0  0  0  0  0  0  0  0  0
   -4.5665   24.2494  -28.7720 H   0  0  0  0  0  0  0  0  0  0  0  0
   -4.7793   26.4192  -30.0748 H   0  0  0  0  0  0  0  0  0  0  0  0
   -5.7480   26.0625  -31.5545 H   0  0  0  0  0  0  0  0  0  0  0  0
   -6.3274   25.4032  -28.6612 H   0  0  0  0  0  0  0  0  0  0  0  0
   -7.4221   26.0271  -29.9414 H   0  0  0  0  0  0  0  0  0  0  0  0
   -6.9336   24.2985  -29.9414 H   0  0  0  0  0  0  0  0  0  0  0  0
   -6.1061   23.0114  -31.0618 H   0  0  0  0  0  0  0  0  0  0  0  0
   -5.6463   23.8806  -32.5709 H   0  0  0  0  0  0  0  0  0  0  0  0
   -3.2884   22.7167  -32.1296 H   0  0  0  0  0  0  0  0  0  0  0  0
   -4.2998   21.5555  -31.1885 H   0  0  0  0  0  0  0  0  0  0  0  0
   -4.2690   21.9770  -34.1320 H   0  0  0  0  0  0  0  0  0  0  0  0
   -7.0403   22.0837  -32.4832 H   0  0  0  0  0  0  0  0  0  0  0  0
   -9.6289   21.9322  -30.4614 H   0  0  0  0  0  0  0  0  0  0  0  0
   -9.1999   22.8264  -31.9591 H   0  0  0  0  0  0  0  0  0  0  0  0
  -10.5905   21.6893  -31.9591 H   0  0  0  0  0  0  0  0  0  0  0  0
  -10.1146   19.2027  -31.5458 H   0  0  0  0  0  0  0  0  0  0  0  0
   -8.6371   17.3612  -32.3110 H   0  0  0  0  0  0  0  0  0  0  0  0
   -7.0096   15.8074  -32.7821 H   0  0  0  0  0  0  0  0  0  0  0  0
   -7.6935   16.4803  -34.3007 H   0  0  0  0  0  0  0  0  0  0  0  0
   -6.0519   15.7509  -34.3007 H   0  0  0  0  0  0  0  0  0  0  0  0
   -4.3061   15.8080  -33.9403 H   0  0  0  0  0  0  0  0  0  0  0  0
   -1.0768   18.6159  -34.4785 H   0  0  0  0  0  0  0  0  0  0  0  0
   -2.5908   20.4922  -33.8789 H   0  0  0  0  0  0  0  0  0  0  0  0
  1  2  1  0
  2  3  1  0
  3  4  1  0
  4  5  1  0
  3  6  1  0
  6  7  1  0
  7  8  1  0
  8  9  1  0
  9 10  2  0
 10 11  1  0
 11 12  2  0
 12 13  1  0
 12 14  1  0
 14 15  2  0
 15 16  1  0
 16 17  2  0
 17 18  1  0
 17 19  1  0
 19 20  2  0
 20 21  1  0
 21 22  1  0
 21 23  2  0
 23 24  1  0
 24 25  2  0
 25  9  1  0
 16 10  1  0
 25 19  1  0
  1 26  1  0
  1 27  1  0
  1 28  1  0
  2 29  1  0
  2 30  1  0
  4 31  1  0
  4 32  1  0
  5 33  1  0
  5 34  1  0
  5 35  1  0
  6 36  1  0
  6 37  1  0
  7 38  1  0
  7 39  1  0
  8 40  1  0
 11 41  1  0
 13 42  1  0
 13 43  1  0
 13 44  1  0
 14 45  1  0
 15 46  1  0
 18 47  1  0
 18 48  1  0
 18 49  1  0
 20 50  1  0
 23 51  1  0
 24 52  1  0
M  CHG  1  17   1
M  END
>  <UniqueID>  (6) 
6

>  <SMILES>  (6) 
CCN(CC)CCNc1c2cc(C)ccc2[n+](C)c2cc(Br)ccc12

>  <Energy>  (6) 
77.93089270005429

>  <Genealogy>  (6) 
CCN(CC)CCNc1c2cc(C)ccc2[n+](C)c2cc(Br)ccc12 (3D coordinates assigned)
CCN(CC)CCNc1c2cc(C)ccc2[n+](C)c2cc(Br)ccc12 (optimized conformer: 77.93089270005429 kcal/mol)

>  <smiles>  (6) 
CCN(CC)CCNc1c2cc(C)ccc2[n+](C)c2cc(Br)ccc12

>  <score_type>  (6) 
oracle

>  <origin>  (6) 
adg

>  <m_score__min__energy>  (6) 
-9.0199999999999996

>  <m_primary>  (6) 
energy

$$$$
6:0
     RDKit          3D

 44 46  0  0  0  0  0  0  0  0999 V2000
   -0.5050   20.3710  -29.4520 C   0  0  0  0  0  0  0  0  0  0  0  0
   -1.2130   20.7440  -30.7100 C   0  0  0  0  0  0  0  0  0  0  0  0
   -0.9970   21.8890  -31.3840 N   0  0  0  0  0  0  0  0  0  0  0  0
   -1.8030   21.8570  -32.4330 N   0  0  0  0  0  0  0  0  0  0  0  0
   -2.4780   20.6930  -32.3540 C   0  0  0  0  0  0  0  0  0  0  0  0
   -3.4870   20.2330  -33.3600 C   0  0  0  0  0  0  0  0  0  0  0  0
   -4.7420   19.8290  -32.6900 N   0  0  0  0  0  0  0  0  0  0  0  0
   -5.1210   20.8280  -31.6570 C   0  0  0  0  0  0  0  0  0  0  0  0
   -5.6170   22.1450  -32.2920 C   0  0  0  0  0  0  0  0  0  0  0  0
   -4.9560   23.3130  -31.6690 N   0  0  0  0  0  0  0  0  0  0  0  0
   -4.1760   22.9110  -30.4830 C   0  0  0  0  0  0  0  0  0  0  0  0
   -3.4990   24.1400  -29.8400 C   0  0  0  0  0  0  0  0  0  0  0  0
   -3.8650   25.3470  -30.4830 O   0  0  0  0  0  0  0  0  0  0  0  0
   -5.2720   25.4780  -30.4780 C   0  0  0  0  0  0  0  0  0  0  0  0
   -5.9420   24.3490  -31.2920 C   0  0  0  0  0  0  0  0  0  0  0  0
   -5.8350   19.6170  -33.6800 C   0  0  0  0  0  0  0  0  0  0  0  0
   -7.1270   19.3270  -32.9750 C   0  0  0  0  0  0  0  0  0  0  0  0
   -8.2190   20.2110  -32.9730 C   0  0  0  0  0  0  0  0  0  0  0  0
   -9.3060   19.7480  -32.2460 C   0  0  0  0  0  0  0  0  0  0  0  0
   -8.9080   18.2400  -31.6180 S   0  0  0  0  0  0  0  0  0  0  0  0
   -7.3580   18.1580  -32.2570 C   0  0  0  0  0  0  0  0  0  0  0  0
   -2.1210   20.0040  -31.2980 O   0  0  0  0  0  0  0  0  0  0  0  0
   -1.1051   20.6871  -28.5860 H   0  0  0  0  0  0  0  0  0  0  0  0
   -0.3624   19.2807  -29.4209 H   0  0  0  0  0  0  0  0  0  0  0  0
    0.4748   20.8700  -29.4209 H   0  0  0  0  0  0  0  0  0  0  0  0
   -3.6992   21.0539  -34.0608 H   0  0  0  0  0  0  0  0  0  0  0  0
   -3.0790   19.3668  -33.9015 H   0  0  0  0  0  0  0  0  0  0  0  0
   -5.9238   20.4085  -31.0329 H   0  0  0  0  0  0  0  0  0  0  0  0
   -4.2293   21.0526  -31.0533 H   0  0  0  0  0  0  0  0  0  0  0  0
   -5.3896   22.1340  -33.3682 H   0  0  0  0  0  0  0  0  0  0  0  0
   -6.7018   22.2269  -32.1295 H   0  0  0  0  0  0  0  0  0  0  0  0
   -4.8484   22.4427  -29.7491 H   0  0  0  0  0  0  0  0  0  0  0  0
   -3.3982   22.1978  -30.7934 H   0  0  0  0  0  0  0  0  0  0  0  0
   -3.7975   24.1967  -28.7828 H   0  0  0  0  0  0  0  0  0  0  0  0
   -2.4104   24.0188  -29.9415 H   0  0  0  0  0  0  0  0  0  0  0  0
   -5.6326   25.4341  -29.4397 H   0  0  0  0  0  0  0  0  0  0  0  0
   -5.5333   26.4418  -30.9394 H   0  0  0  0  0  0  0  0  0  0  0  0
   -6.7341   23.8879  -30.6838 H   0  0  0  0  0  0  0  0  0  0  0  0
   -6.3654   24.7818  -32.2104 H   0  0  0  0  0  0  0  0  0  0  0  0
   -5.9511   20.5236  -34.2920 H   0  0  0  0  0  0  0  0  0  0  0  0
   -5.5767   18.7606  -34.3203 H   0  0  0  0  0  0  0  0  0  0  0  0
   -8.2127   21.1778  -33.4977 H   0  0  0  0  0  0  0  0  0  0  0  0
  -10.2611   20.2752  -32.1051 H   0  0  0  0  0  0  0  0  0  0  0  0
   -6.6495   17.3262  -32.1303 H   0  0  0  0  0  0  0  0  0  0  0  0
  1  2  1  0
  2  3  2  0
  3  4  1  0
  4  5  2  0
  5  6  1  0
  6  7  1  0
  7  8  1  0
  8  9  1  0
  9 10  1  0
 10 11  1  0
 11 12  1  0
 12 13  1  0
 13 14  1  0
 14 15  1  0
  7 16  1  0
 16 17  1  0
 17 18  1  0
 18 19  2  0
 19 20  1  0
 20 21  1  0
  5 22  1  0
 22  2  1  0
 15 10  1  0
 21 17  2  0
  1 23  1  0
  1 24  1  0
  1 25  1  0
  6 26  1  0
  6 27  1  0
  8 28  1  0
  8 29  1  0
  9 30  1  0
  9 31  1  0
 11 32  1  0
 11 33  1  0
 12 34  1  0
 12 35  1  0
 14 36  1  0
 14 37  1  0
 15 38  1  0
 15 39  1  0
 16 40  1  0
 16 41  1  0
 18 42  1  0
 19 43  1  0
 21 44  1  0
M  END
>  <UniqueID>  (7) 
7

>  <SMILES>  (7) 
Cc1nnc(CN(CCN2CCOCC2)Cc2ccsc2)o1

>  <Energy>  (7) 
117.4014540996503

>  <Genealogy>  (7) 
Cc1nnc(CN(CCN2CCOCC2)Cc2ccsc2)o1 (3D coordinates assigned)
Cc1nnc(CN(CCN2CCOCC2)Cc2ccsc2)o1 (nonaromatic ring conformer: 117.4014540996503 kcal/mol)

>  <smiles>  (7) 
Cc1nnc(CN(CCN2CCOCC2)Cc2ccsc2)o1

>  <score_type>  (7) 
oracle

>  <origin>  (7) 
adg

>  <m_score__min__energy>  (7) 
-7.8099999999999996

>  <m_primary>  (7) 
energy

$$$$
7:0
     RDKit          3D

 54 56  0  0  0  0  0  0  0  0999 V2000
   -4.0560   22.0900  -32.7450 C   0  0  0  0  0  0  0  0  0  0  0  0
   -3.7430   20.7620  -33.2810 N   0  0  0  0  0  0  0  0  0  0  0  0
   -2.5160   20.3070  -33.6760 C   0  0  0  0  0  0  0  0  0  0  0  0
   -1.2520   21.1350  -33.7860 C   0  0  0  0  0  0  0  0  0  0  0  0
   -0.1270   20.4220  -34.4400 N   0  0  0  0  0  0  0  0  0  0  0  0
    1.0320   20.2600  -33.5460 C   0  0  0  0  0  0  0  0  0  0  0  0
    0.2800   21.0620  -35.7050 C   0  0  0  0  0  0  0  0  0  0  0  0
   -2.5180   18.9980  -34.0200 N   0  0  0  0  0  0  0  0  0  0  0  0
   -3.7930   18.6280  -33.8380 C   0  0  0  0  0  0  0  0  0  0  0  0
   -4.3100   17.3580  -34.0540 C   0  0  0  0  0  0  0  0  0  0  0  0
   -5.6720   17.1560  -33.8200 C   0  0  0  0  0  0  0  0  0  0  0  0
   -6.4900   18.2180  -33.3940 C   0  0  0  0  0  0  0  0  0  0  0  0
   -7.8150   17.9830  -33.2130 F   0  0  0  0  0  0  0  0  0  0  0  0
   -5.9560   19.5160  -33.1760 C   0  0  0  0  0  0  0  0  0  0  0  0
   -6.9330   20.6200  -32.8310 C   0  0  0  0  0  0  0  0  0  0  0  0
   -6.7030   21.0960  -31.4610 N   0  0  0  0  0  0  0  0  0  0  0  0
   -7.9410   21.6000  -30.8520 C   0  0  0  0  0  0  0  0  0  0  0  0
   -7.6270   22.6630  -29.7970 C   0  0  0  0  0  0  0  0  0  0  0  0
   -6.4220   23.4280  -30.1920 N   0  0  0  0  0  0  0  0  0  0  0  0
   -5.2630   23.1070  -29.3390 C   0  0  0  0  0  0  0  0  0  0  0  0
   -4.0150   23.8710  -29.8290 C   0  0  0  0  0  0  0  0  0  0  0  0
   -4.3230   24.7980  -30.8550 O   0  0  0  0  0  0  0  0  0  0  0  0
   -5.3570   25.6610  -30.4260 C   0  0  0  0  0  0  0  0  0  0  0  0
   -6.6660   24.8830  -30.1850 C   0  0  0  0  0  0  0  0  0  0  0  0
   -4.5590   19.6830  -33.4020 C   0  0  0  0  0  0  0  0  0  0  0  0
   -4.0473   22.0531  -31.6457 H   0  0  0  0  0  0  0  0  0  0  0  0
   -3.3036   22.8128  -33.0936 H   0  0  0  0  0  0  0  0  0  0  0  0
   -5.0520   22.4007  -33.0936 H   0  0  0  0  0  0  0  0  0  0  0  0
   -1.4783   22.0381  -34.3719 H   0  0  0  0  0  0  0  0  0  0  0  0
   -0.9311   21.3696  -32.7603 H   0  0  0  0  0  0  0  0  0  0  0  0
   -0.4700   19.4600  -34.6780 H   0  0  0  0  0  0  0  0  0  0  0  0
    0.6971   20.3068  -32.4993 H   0  0  0  0  0  0  0  0  0  0  0  0
    1.5080   19.2866  -33.7355 H   0  0  0  0  0  0  0  0  0  0  0  0
    1.7567   21.0656  -33.7355 H   0  0  0  0  0  0  0  0  0  0  0  0
    0.8585   21.9717  -35.4862 H   0  0  0  0  0  0  0  0  0  0  0  0
    0.9004   20.3639  -36.2861 H   0  0  0  0  0  0  0  0  0  0  0  0
   -0.6154   21.3278  -36.2861 H   0  0  0  0  0  0  0  0  0  0  0  0
   -3.6663   16.5354  -34.3991 H   0  0  0  0  0  0  0  0  0  0  0  0
   -6.1088   16.1577  -33.9702 H   0  0  0  0  0  0  0  0  0  0  0  0
   -6.7980   21.4561  -33.5329 H   0  0  0  0  0  0  0  0  0  0  0  0
   -7.9575   20.2265  -32.9053 H   0  0  0  0  0  0  0  0  0  0  0  0
   -6.0280   21.8950  -31.5200 H   0  0  0  0  0  0  0  0  0  0  0  0
   -8.5747   22.0430  -31.6344 H   0  0  0  0  0  0  0  0  0  0  0  0
   -8.4648   20.7628  -30.3676 H   0  0  0  0  0  0  0  0  0  0  0  0
   -8.4813   23.3501  -29.7066 H   0  0  0  0  0  0  0  0  0  0  0  0
   -7.4412   22.1698  -28.8315 H   0  0  0  0  0  0  0  0  0  0  0  0
   -5.4834   23.3981  -28.3014 H   0  0  0  0  0  0  0  0  0  0  0  0
   -5.0664   22.0260  -29.3913 H   0  0  0  0  0  0  0  0  0  0  0  0
   -3.5769   24.4155  -28.9795 H   0  0  0  0  0  0  0  0  0  0  0  0
   -3.3086   23.1349  -30.2402 H   0  0  0  0  0  0  0  0  0  0  0  0
   -5.0516   26.1492  -29.4888 H   0  0  0  0  0  0  0  0  0  0  0  0
   -5.5355   26.4096  -31.2120 H   0  0  0  0  0  0  0  0  0  0  0  0
   -7.0834   25.1736  -29.2096 H   0  0  0  0  0  0  0  0  0  0  0  0
   -7.3727   25.1250  -30.9925 H   0  0  0  0  0  0  0  0  0  0  0  0
  1  2  1  0
  2  3  1  0
  3  4  1  0
  4  5  1  0
  5  6  1  0
  5  7  1  0
  3  8  2  0
  8  9  1  0
  9 10  2  0
 10 11  1  0
 11 12  2  0
 12 13  1  0
 12 14  1  0
 14 15  1  0
 15 16  1  0
 16 17  1  0
 17 18  1  0
 18 19  1  0
 19 20  1  0
 20 21  1  0
 21 22  1  0
 22 23  1  0
 23 24  1  0
 14 25  2  0
 25  2  1  0
 25  9  1  0
 24 19  1  0
  1 26  1  0
  1 27  1  0
  1 28  1  0
  4 29  1  0
  4 30  1  0
  5 31  1  0
  6 32  1  0
  6 33  1  0
  6 34  1  0
  7 35  1  0
  7 36  1  0
  7 37  1  0
 10 38  1  0
 11 39  1  0
 15 40  1  0
 15 41  1  0
 16 42  1  0
 17 43  1  0
 17 44  1  0
 18 45  1  0
 18 46  1  0
 20 47  1  0
 20 48  1  0
 21 49  1  0
 21 50  1  0
 23 51  1  0
 23 52  1  0
 24 53  1  0
 24 54  1  0
M  CHG  1   5   1
M  END
>  <UniqueID>  (8) 
8

>  <SMILES>  (8) 
Cn1c(C[NH+](C)C)nc2ccc(F)c(CNCCN3CCOCC3)c21

>  <Energy>  (8) 
108.31100319521707

>  <Genealogy>  (8) 
Cn1c(C[NH+](C)C)nc2ccc(F)c(CNCCN3CCOCC3)c21 (protonated)
Cn1c(C[NH+](C)C)nc2ccc(F)c(CNCCN3CCOCC3)c21 (3D coordinates assigned)
Cn1c(C[NH+](C)C)nc2ccc(F)c(CNCCN3CCOCC3)c21 (nonaromatic ring conformer: 108.31100319521707 kcal/mol)

>  <smiles>  (8) 
CN(C)Cc1nc2ccc(F)c(CNCCN3CCOCC3)c2n1C

>  <score_type>  (8) 
oracle

>  <origin>  (8) 
adg

>  <m_score__min__energy>  (8) 
-6.9900000000000002

>  <m_primary>  (8) 
energy

$$$$
8:0
     RDKit          3D

 40 41  0  0  0  0  0  0  0  0999 V2000
   -2.4330   24.4940  -28.9240 C   0  0  0  0  0  0  0  0  0  0  0  0
   -3.1610   24.9250  -30.0690 O   0  0  0  0  0  0  0  0  0  0  0  0
   -4.4400   24.4630  -30.4190 C   0  0  0  0  0  0  0  0  0  0  0  0
   -5.6090   25.1760  -30.0890 C   0  0  0  0  0  0  0  0  0  0  0  0
   -6.8640   24.6880  -30.4620 C   0  0  0  0  0  0  0  0  0  0  0  0
   -6.9730   23.4790  -31.1630 C   0  0  0  0  0  0  0  0  0  0  0  0
   -8.3240   22.9890  -31.6170 C   0  0  0  0  0  0  0  0  0  0  0  0
   -8.5610   21.6070  -31.1710 N   0  0  0  0  0  0  0  0  0  0  0  0
   -9.5760   20.9150  -31.9870 C   0  0  0  0  0  0  0  0  0  0  0  0
   -8.9610   19.6490  -32.6030 C   0  0  0  0  0  0  0  0  0  0  0  0
   -7.5110   19.4980  -32.3570 N   0  0  0  0  0  0  0  0  0  0  0  0
   -6.6130   20.0160  -33.4070 C   0  0  0  0  0  0  0  0  0  0  0  0
   -6.0780   18.8970  -34.3090 C   0  0  0  0  0  0  0  0  0  0  0  0
   -5.4800   17.8810  -33.5340 O   0  0  0  0  0  0  0  0  0  0  0  0
   -6.4690   17.2470  -32.7520 C   0  0  0  0  0  0  0  0  0  0  0  0
   -7.0840   18.2240  -31.7380 C   0  0  0  0  0  0  0  0  0  0  0  0
   -5.8110   22.7650  -31.4890 C   0  0  0  0  0  0  0  0  0  0  0  0
   -4.5530   23.2540  -31.1210 C   0  0  0  0  0  0  0  0  0  0  0  0
   -3.1170   22.3460  -31.5710 Cl  0  0  0  0  0  0  0  0  0  0  0  0
   -2.9633   24.8079  -28.0128 H   0  0  0  0  0  0  0  0  0  0  0  0
   -2.3442   23.3977  -28.9372 H   0  0  0  0  0  0  0  0  0  0  0  0
   -1.4291   24.9434  -28.9372 H   0  0  0  0  0  0  0  0  0  0  0  0
   -5.5335   26.1228  -29.5342 H   0  0  0  0  0  0  0  0  0  0  0  0
   -7.7706   25.2551  -30.2044 H   0  0  0  0  0  0  0  0  0  0  0  0
   -9.1033   23.6414  -31.1962 H   0  0  0  0  0  0  0  0  0  0  0  0
   -8.3540   23.0124  -32.7163 H   0  0  0  0  0  0  0  0  0  0  0  0
   -7.6550   21.0920  -31.2640 H   0  0  0  0  0  0  0  0  0  0  0  0
  -10.4296   20.6363  -31.3517 H   0  0  0  0  0  0  0  0  0  0  0  0
   -9.9197   21.5839  -32.7898 H   0  0  0  0  0  0  0  0  0  0  0  0
   -9.4757   18.7741  -32.1791 H   0  0  0  0  0  0  0  0  0  0  0  0
   -9.0897   19.7330  -33.6922 H   0  0  0  0  0  0  0  0  0  0  0  0
   -7.1685   20.7360  -34.0259 H   0  0  0  0  0  0  0  0  0  0  0  0
   -5.7541   20.4946  -32.9138 H   0  0  0  0  0  0  0  0  0  0  0  0
   -6.9102   18.4689  -34.8870 H   0  0  0  0  0  0  0  0  0  0  0  0
   -5.3219   19.3182  -34.9879 H   0  0  0  0  0  0  0  0  0  0  0  0
   -7.2625   16.8694  -33.4136 H   0  0  0  0  0  0  0  0  0  0  0  0
   -5.9997   16.4198  -32.1993 H   0  0  0  0  0  0  0  0  0  0  0  0
   -7.9607   17.7461  -31.2765 H   0  0  0  0  0  0  0  0  0  0  0  0
   -6.3095   18.4603  -30.9935 H   0  0  0  0  0  0  0  0  0  0  0  0
   -5.8891   21.8147  -32.0374 H   0  0  0  0  0  0  0  0  0  0  0  0
  1  2  1  0
  2  3  1  0
  3  4  2  0
  4  5  1  0
  5  6  2  0
  6  7  1  0
  7  8  1  0
  8  9  1  0
  9 10  1  0
 10 11  1  0
 11 12  1  0
 12 13  1  0
 13 14  1  0
 14 15  1  0
 15 16  1  0
  6 17  1  0
 17 18  2  0
 18 19  1  0
 18  3  1  0
 16 11  1  0
  1 20  1  0
  1 21  1  0
  1 22  1  0
  4 23  1  0
  5 24  1  0
  7 25  1  0
  7 26  1  0
  8 27  1  0
  9 28  1  0
  9 29  1  0
 10 30  1  0
 10 31  1  0
 12 32  1  0
 12 33  1  0
 13 34  1  0
 13 35  1  0
 15 36  1  0
 15 37  1  0
 16 38  1  0
 16 39  1  0
 17 40  1  0
M  END
>  <UniqueID>  (9) 
9

>  <SMILES>  (9) 
COc1ccc(CNCCN2CCOCC2)cc1Cl

>  <Energy>  (9) 
46.656074111022875

>  <Genealogy>  (9) 
COc1ccc(CNCCN2CCOCC2)cc1Cl (3D coordinates assigned)
COc1ccc(CNCCN2CCOCC2)cc1Cl (nonaromatic ring conformer: 46.656074111022875 kcal/mol)

>  <smiles>  (9) 
COc1ccc(CNCCN2CCOCC2)cc1Cl

>  <score_type>  (9) 
oracle

>  <origin>  (9) 
adg

>  <m_score__min__energy>  (9) 
-7.2199999999999998

>  <m_primary>  (9) 
energy

$$$$
9:0
     RDKit          3D

 95 97  0  0  0  0  0  0  0  0999 V2000
   -3.7307   21.5212  -30.3711 H   0  0  0  0  0  0  0  0  0  0  0  0
   -3.9930   21.4920  -31.4390 C   0  0  0  0  0  0  0  0  0  0  0  0
   -4.9500   22.2560  -32.0040 N   0  0  0  0  0  0  0  0  0  0  0  0
   -5.9050   22.9850  -31.2910 O   0  0  0  0  0  0  0  0  0  0  0  0
   -6.0060   24.3390  -31.5800 C   0  0  0  0  0  0  0  0  0  0  0  0
   -7.0643   24.6281  -31.6594 H   0  0  0  0  0  0  0  0  0  0  0  0
   -5.5147   24.5686  -32.5370 H   0  0  0  0  0  0  0  0  0  0  0  0
   -5.3160   25.1320  -30.3940 C   0  0  0  0  0  0  0  0  0  0  0  0
   -5.5677   24.6222  -29.4523 H   0  0  0  0  0  0  0  0  0  0  0  0
   -5.6984   26.1617  -30.4530 H   0  0  0  0  0  0  0  0  0  0  0  0
   -3.8540   25.2360  -30.4770 O   0  0  0  0  0  0  0  0  0  0  0  0
   -3.1930   24.1940  -29.7390 C   0  0  0  0  0  0  0  0  0  0  0  0
   -2.2815   24.6151  -29.2897 H   0  0  0  0  0  0  0  0  0  0  0  0
   -2.9828   23.3858  -30.4550 H   0  0  0  0  0  0  0  0  0  0  0  0
   -4.0440   23.5760  -28.6140 C   0  0  0  0  0  0  0  0  0  0  0  0
   -4.7497   22.8545  -29.0516 H   0  0  0  0  0  0  0  0  0  0  0  0
   -4.5872   24.3835  -28.1013 H   0  0  0  0  0  0  0  0  0  0  0  0
   -3.1650   22.8590  -27.5960 N   0  0  0  0  0  0  0  0  0  0  0  0
   -2.4370   21.6870  -28.2600 C   0  0  0  0  0  0  0  0  0  0  0  0
   -1.3520   21.8631  -28.2185 H   0  0  0  0  0  0  0  0  0  0  0  0
   -2.7656   21.6078  -29.3068 H   0  0  0  0  0  0  0  0  0  0  0  0
   -2.7690   20.3630  -27.5250 C   0  0  0  0  0  0  0  0  0  0  0  0
   -2.7279   20.5268  -26.4380 H   0  0  0  0  0  0  0  0  0  0  0  0
   -3.7785   20.0298  -27.8077 H   0  0  0  0  0  0  0  0  0  0  0  0
   -2.0361   19.5929  -27.8077 H   0  0  0  0  0  0  0  0  0  0  0  0
   -2.1780   23.9130  -27.1440 C   0  0  0  0  0  0  0  0  0  0  0  0
   -1.4191   23.4309  -26.5103 H   0  0  0  0  0  0  0  0  0  0  0  0
   -1.7415   24.3586  -28.0501 H   0  0  0  0  0  0  0  0  0  0  0  0
   -2.8300   25.0610  -26.3400 C   0  0  0  0  0  0  0  0  0  0  0  0
   -2.7183   24.8643  -25.2635 H   0  0  0  0  0  0  0  0  0  0  0  0
   -2.3369   26.0114  -26.5922 H   0  0  0  0  0  0  0  0  0  0  0  0
   -3.8988   25.1243  -26.5922 H   0  0  0  0  0  0  0  0  0  0  0  0
   -3.3760   20.6600  -32.3740 C   0  0  0  0  0  0  0  0  0  0  0  0
   -3.9610   19.6040  -33.0370 C   0  0  0  0  0  0  0  0  0  0  0  0
   -5.3560   19.2640  -32.9460 N   0  0  0  0  0  0  0  0  0  0  0  0
   -6.0700   18.8290  -34.1270 C   0  0  0  0  0  0  0  0  0  0  0  0
   -6.7574   19.6247  -34.4501 H   0  0  0  0  0  0  0  0  0  0  0  0
   -5.3456   18.6125  -34.9260 H   0  0  0  0  0  0  0  0  0  0  0  0
   -6.8710   17.5620  -33.8210 C   0  0  0  0  0  0  0  0  0  0  0  0
   -7.9272   17.8289  -33.6689 H   0  0  0  0  0  0  0  0  0  0  0  0
   -6.7749   16.8662  -34.6675 H   0  0  0  0  0  0  0  0  0  0  0  0
   -6.3490   16.9010  -32.5900 N   0  0  0  0  0  0  0  0  0  0  0  0
   -5.5770   15.6790  -32.6290 C   0  0  0  0  0  0  0  0  0  0  0  0
   -4.9980   15.2480  -31.5780 O   0  0  0  0  0  0  0  0  0  0  0  0
   -5.5350   14.8510  -33.8830 C   0  0  0  0  0  0  0  0  0  0  0  0
   -5.9886   13.8700  -33.6781 H   0  0  0  0  0  0  0  0  0  0  0  0
   -6.0916   15.3860  -34.6666 H   0  0  0  0  0  0  0  0  0  0  0  0
   -4.1090   14.6430  -34.3710 C   0  0  0  0  0  0  0  0  0  0  0  0
   -3.5836   13.9369  -33.7112 H   0  0  0  0  0  0  0  0  0  0  0  0
   -4.1004   14.2259  -35.3888 H   0  0  0  0  0  0  0  0  0  0  0  0
   -3.4410   15.9620  -34.3370 N   0  0  0  0  0  0  0  0  0  0  0  0
   -2.8520   16.2560  -35.7010 C   0  0  0  0  0  0  0  0  0  0  0  0
   -1.8737   16.7443  -35.5804 H   0  0  0  0  0  0  0  0  0  0  0  0
   -2.7261   15.3150  -36.2566 H   0  0  0  0  0  0  0  0  0  0  0  0
   -3.5284   16.9222  -36.2566 H   0  0  0  0  0  0  0  0  0  0  0  0
   -2.4470   15.9470  -33.2010 C   0  0  0  0  0  0  0  0  0  0  0  0
   -1.9111   16.9075  -33.1884 H   0  0  0  0  0  0  0  0  0  0  0  0
   -3.0073   15.7845  -32.2684 H   0  0  0  0  0  0  0  0  0  0  0  0
   -1.4290   14.8210  -33.3320 C   0  0  0  0  0  0  0  0  0  0  0  0
   -1.7911   14.0822  -34.0621 H   0  0  0  0  0  0  0  0  0  0  0  0
   -0.4680   15.2329  -33.6738 H   0  0  0  0  0  0  0  0  0  0  0  0
   -1.2390   14.1410  -31.9650 C   0  0  0  0  0  0  0  0  0  0  0  0
   -0.1614   13.9909  -31.8032 H   0  0  0  0  0  0  0  0  0  0  0  0
   -1.6986   14.8062  -31.2192 H   0  0  0  0  0  0  0  0  0  0  0  0
   -1.9240   12.8090  -31.8280 N   0  0  0  0  0  0  0  0  0  0  0  0
   -1.9880   12.2070  -33.1940 C   0  0  0  0  0  0  0  0  0  0  0  0
   -2.1039   11.1164  -33.1090 H   0  0  0  0  0  0  0  0  0  0  0  0
   -2.8467   12.6256  -33.7393 H   0  0  0  0  0  0  0  0  0  0  0  0
   -1.0605   12.4357  -33.7393 H   0  0  0  0  0  0  0  0  0  0  0  0
   -1.1420   11.9080  -30.9340 C   0  0  0  0  0  0  0  0  0  0  0  0
   -1.3573   12.1561  -29.8842 H   0  0  0  0  0  0  0  0  0  0  0  0
   -1.4241   10.8629  -31.1291 H   0  0  0  0  0  0  0  0  0  0  0  0
   -0.0675   12.0403  -31.1291 H   0  0  0  0  0  0  0  0  0  0  0  0
   -3.3210   12.9360  -31.2850 C   0  0  0  0  0  0  0  0  0  0  0  0
   -3.2887   12.9331  -30.1855 H   0  0  0  0  0  0  0  0  0  0  0  0
   -3.7666   13.8784  -31.6362 H   0  0  0  0  0  0  0  0  0  0  0  0
   -3.9293   12.0894  -31.6362 H   0  0  0  0  0  0  0  0  0  0  0  0
   -6.4130   17.6960  -31.3600 C   0  0  0  0  0  0  0  0  0  0  0  0
   -7.4328   17.6496  -30.9502 H   0  0  0  0  0  0  0  0  0  0  0  0
   -5.6963   17.2884  -30.6319 H   0  0  0  0  0  0  0  0  0  0  0  0
   -6.0480   19.1700  -31.6560 C   0  0  0  0  0  0  0  0  0  0  0  0
   -6.9671   19.7734  -31.6904 H   0  0  0  0  0  0  0  0  0  0  0  0
   -5.3859   19.5455  -30.8618 H   0  0  0  0  0  0  0  0  0  0  0  0
   -3.0560   18.9180  -33.8130 N   0  0  0  0  0  0  0  0  0  0  0  0
   -3.2000   18.1220  -34.4500 H   0  0  0  0  0  0  0  0  0  0  0  0
   -1.9200   19.5970  -33.5160 C   0  0  0  0  0  0  0  0  0  0  0  0
   -0.6370   19.3320  -34.0790 C   0  0  0  0  0  0  0  0  0  0  0  0
   -0.4948   18.5216  -34.8091 H   0  0  0  0  0  0  0  0  0  0  0  0
    0.4500   20.1450  -33.6690 C   0  0  0  0  0  0  0  0  0  0  0  0
    1.4549   19.9608  -34.0768 H   0  0  0  0  0  0  0  0  0  0  0  0
    0.2500   21.1900  -32.7400 C   0  0  0  0  0  0  0  0  0  0  0  0
    1.0968   21.8181  -32.4263 H   0  0  0  0  0  0  0  0  0  0  0  0
   -1.0510   21.4290  -32.2100 C   0  0  0  0  0  0  0  0  0  0  0  0
   -1.2411   22.2370  -31.4882 H   0  0  0  0  0  0  0  0  0  0  0  0
   -2.0520   20.6030  -32.6440 N   0  0  0  0  0  0  0  0  0  0  0  0
  1  2  1  0
  2  3  2  0
  3  4  1  0
  4  5  1  0
  5  6  1  0
  5  7  1  0
  5  8  1  0
  8  9  1  0
  8 10  1  0
  8 11  1  0
 11 12  1  0
 12 13  1  0
 12 14  1  0
 12 15  1  0
 15 16  1  0
 15 17  1  0
 15 18  1  0
 18 19  1  0
 19 20  1  0
 19 21  1  0
 19 22  1  0
 22 23  1  0
 22 24  1  0
 22 25  1  0
 18 26  1  0
 26 27  1  0
 26 28  1  0
 26 29  1  0
 29 30  1  0
 29 31  1  0
 29 32  1  0
  2 33  1  0
 33 34  2  0
 34 35  1  0
 35 36  1  0
 36 37  1  0
 36 38  1  0
 36 39  1  0
 39 40  1  0
 39 41  1  0
 39 42  1  0
 42 43  1  0
 43 44  2  0
 43 45  1  0
 45 46  1  0
 45 47  1  0
 45 48  1  0
 48 49  1  0
 48 50  1  0
 48 51  1  0
 51 52  1  0
 52 53  1  0
 52 54  1  0
 52 55  1  0
 51 56  1  0
 56 57  1  0
 56 58  1  0
 56 59  1  0
 59 60  1  0
 59 61  1  0
 59 62  1  0
 62 63  1  0
 62 64  1  0
 62 65  1  0
 65 66  1  0
 66 67  1  0
 66 68  1  0
 66 69  1  0
 65 70  1  0
 70 71  1  0
 70 72  1  0
 70 73  1  0
 65 74  1  0
 74 75  1  0
 74 76  1  0
 74 77  1  0
 42 78  1  0
 78 79  1  0
 78 80  1  0
 78 81  1  0
 81 82  1  0
 81 83  1  0
 34 84  1  0
 84 85  1  0
 84 86  2  0
 86 87  1  0
 87 88  1  0
 87 89  2  0
 89 90  1  0
 89 91  1  0
 91 92  1  0
 91 93  2  0
 93 94  1  0
 93 95  1  0
 95 33  1  0
 81 35  1  0
 95 86  1  0
M  CHG  2  65   1  84   1
M  END
>  <UniqueID>  (10) 
10

>  <SMILES>  (10) 
CCN(CC)CCOCCO/N=C/c1c(N2CCN(C(=O)CCN(C)CCC[N+](C)(C)C)CC2)[nH+]c2ccccn12

>  <Energy>  (10) 
220.09865260768328

>  <Genealogy>  (10) 
CCN(CC)CCOCCON=Cc1c(N2CCN(C(=O)CCN(C)CCC[N+](C)(C)C)CC2)[nH+]c2ccccn12 (protonated)
CCN(CC)CCOCCO/N=C/c1c(N2CCN(C(=O)CCN(C)CCC[N+](C)(C)C)CC2)[nH+]c2ccccn12 (cis-trans isomerization)
CCN(CC)CCOCCO/N=C/c1c(N2CCN(C(=O)CCN(C)CCC[N+](C)(C)C)CC2)[nH+]c2ccccn12 (3D coordinates assigned)
CCN(CC)CCOCCO/N=C/c1c(N2CCN(C(=O)CCN(C)CCC[N+](C)(C)C)CC2)[nH+]c2ccccn12 (nonaromatic ring conformer: 220.09865260768328 kcal/mol)

>  <smiles>  (10) 
CCN(CC)CCOCCON=Cc1c(N2CCN(C(=O)CCN(C)CCC[N+](C)(C)C)CC2)nc2ccccn12

>  <score_type>  (10) 
oracle

>  <origin>  (10) 
adg

>  <m_score__min__energy>  (10) 
-8.9600000000000009

>  <m_primary>  (10) 
energy

$$$$
10:0
     RDKit          3D

 63 65  0  0  0  0  0  0  0  0999 V2000
    0.5050   17.4350  -27.7890 C   0  0  0  0  0  0  0  0  0  0  0  0
    0.1630   18.1730  -29.0880 C   0  0  0  0  0  0  0  0  0  0  0  0
   -0.7230   19.3330  -28.8770 N   0  0  0  0  0  0  0  0  0  0  0  0
   -1.4400   19.3380  -27.5840 C   0  0  0  0  0  0  0  0  0  0  0  0
   -2.6730   20.2550  -27.5740 C   0  0  0  0  0  0  0  0  0  0  0  0
   -2.7720   20.9470  -28.8020 O   0  0  0  0  0  0  0  0  0  0  0  0
   -2.1370   22.2110  -28.7280 C   0  0  0  0  0  0  0  0  0  0  0  0
   -1.2280   22.4530  -29.9410 C   0  0  0  0  0  0  0  0  0  0  0  0
   -1.0430   21.2100  -30.6980 N   0  0  0  0  0  0  0  0  0  0  0  0
   -0.9720   21.4840  -32.1380 C   0  0  0  0  0  0  0  0  0  0  0  0
   -2.3600   21.3820  -32.7760 C   0  0  0  0  0  0  0  0  0  0  0  0
   -3.3900   21.1400  -31.7660 N   0  0  0  0  0  0  0  0  0  0  0  0
   -4.7230   20.7930  -32.1700 C   0  0  0  0  0  0  0  0  0  0  0  0
   -4.9490   19.5740  -32.8330 C   0  0  0  0  0  0  0  0  0  0  0  0
   -3.8690   18.7570  -33.2360 C   0  0  0  0  0  0  0  0  0  0  0  0
   -4.0930   17.5750  -33.9350 C   0  0  0  0  0  0  0  0  0  0  0  0
   -5.3890   17.1900  -34.2530 C   0  0  0  0  0  0  0  0  0  0  0  0
   -6.4710   17.9730  -33.8510 C   0  0  0  0  0  0  0  0  0  0  0  0
   -6.2780   19.1640  -33.1060 C   0  0  0  0  0  0  0  0  0  0  0  0
   -7.3400   19.9210  -32.6550 N   0  0  0  0  0  0  0  0  0  0  0  0
   -8.7050   19.3450  -32.6480 C   0  0  0  0  0  0  0  0  0  0  0  0
   -7.1270   21.2080  -32.1960 C   0  0  0  0  0  0  0  0  0  0  0  0
   -8.2070   22.1040  -32.0040 C   0  0  0  0  0  0  0  0  0  0  0  0
   -8.0000   23.3850  -31.5090 C   0  0  0  0  0  0  0  0  0  0  0  0
   -6.7180   23.8270  -31.2210 C   0  0  0  0  0  0  0  0  0  0  0  0
   -5.6070   22.9960  -31.4430 C   0  0  0  0  0  0  0  0  0  0  0  0
   -4.3060   23.4790  -31.2180 O   0  0  0  0  0  0  0  0  0  0  0  0
   -3.9470   24.4410  -30.2310 C   0  0  0  0  0  0  0  0  0  0  0  0
   -5.8060   21.6690  -31.9250 C   0  0  0  0  0  0  0  0  0  0  0  0
    0.2172   18.0560  -26.9278 H   0  0  0  0  0  0  0  0  0  0  0  0
   -0.0433   16.4820  -27.7534 H   0  0  0  0  0  0  0  0  0  0  0  0
    1.5865   17.2373  -27.7534 H   0  0  0  0  0  0  0  0  0  0  0  0
    1.0983   18.5255  -29.5473 H   0  0  0  0  0  0  0  0  0  0  0  0
   -0.3724   17.4645  -29.7371 H   0  0  0  0  0  0  0  0  0  0  0  0
   -0.1540   20.2080  -28.9620 H   0  0  0  0  0  0  0  0  0  0  0  0
   -1.4320   19.3580  -29.6480 H   0  0  0  0  0  0  0  0  0  0  0  0
   -1.7671   18.3114  -27.3626 H   0  0  0  0  0  0  0  0  0  0  0  0
   -0.7418   19.7241  -26.8268 H   0  0  0  0  0  0  0  0  0  0  0  0
   -3.5776   19.6472  -27.4247 H   0  0  0  0  0  0  0  0  0  0  0  0
   -2.5735   20.9840  -26.7563 H   0  0  0  0  0  0  0  0  0  0  0  0
   -2.9063   22.9966  -28.6949 H   0  0  0  0  0  0  0  0  0  0  0  0
   -1.5163   22.2340  -27.8202 H   0  0  0  0  0  0  0  0  0  0  0  0
   -1.6882   23.2096  -30.5935 H   0  0  0  0  0  0  0  0  0  0  0  0
   -0.2475   22.8045  -29.5874 H   0  0  0  0  0  0  0  0  0  0  0  0
   -1.8770   20.6000  -30.5260 H   0  0  0  0  0  0  0  0  0  0  0  0
   -0.5764   22.4985  -32.2937 H   0  0  0  0  0  0  0  0  0  0  0  0
   -0.3108   20.7410  -32.6078 H   0  0  0  0  0  0  0  0  0  0  0  0
   -2.5845   22.3233  -33.2990 H   0  0  0  0  0  0  0  0  0  0  0  0
   -2.3581   20.5375  -33.4808 H   0  0  0  0  0  0  0  0  0  0  0  0
   -3.2740   21.5640  -30.8180 H   0  0  0  0  0  0  0  0  0  0  0  0
   -2.8392   19.0589  -32.9943 H   0  0  0  0  0  0  0  0  0  0  0  0
   -3.2430   16.9450  -34.2360 H   0  0  0  0  0  0  0  0  0  0  0  0
   -5.5625   16.2655  -34.8232 H   0  0  0  0  0  0  0  0  0  0  0  0
   -7.4919   17.6612  -34.1165 H   0  0  0  0  0  0  0  0  0  0  0  0
   -9.0383   19.2044  -31.6092 H   0  0  0  0  0  0  0  0  0  0  0  0
   -9.3943   20.0290  -33.1648 H   0  0  0  0  0  0  0  0  0  0  0  0
   -8.6959   18.3740  -33.1648 H   0  0  0  0  0  0  0  0  0  0  0  0
   -9.2284   21.7793  -32.2515 H   0  0  0  0  0  0  0  0  0  0  0  0
   -8.8584   24.0529  -31.3445 H   0  0  0  0  0  0  0  0  0  0  0  0
   -6.5691   24.8383  -30.8147 H   0  0  0  0  0  0  0  0  0  0  0  0
   -4.1059   24.0153  -29.2292 H   0  0  0  0  0  0  0  0  0  0  0  0
   -2.8875   24.7113  -30.3507 H   0  0  0  0  0  0  0  0  0  0  0  0
   -4.5704   25.3394  -30.3507 H   0  0  0  0  0  0  0  0  0  0  0  0
  1  2  1  0
  2  3  1  0
  3  4  1  0
  4  5  1  0
  5  6  1  0
  6  7  1  0
  7  8  1  0
  8  9  1  0
  9 10  1  0
 10 11  1  0
 11 12  1  0
 12 13  1  0
 13 14  2  0
 14 15  1  0
 15 16  2  0
 16 17  1  0
 17 18  2  0
 18 19  1  0
 19 20  2  0
 20 21  1  0
 20 22  1  0
 22 23  2  0
 23 24  1  0
 24 25  2  0
 25 26  1  0
 26 27  1  0
 27 28  1  0
 26 29  2  0
 29 13  1  0
 19 14  1  0
 29 22  1  0
  1 30  1  0
  1 31  1  0
  1 32  1  0
  2 33  1  0
  2 34  1  0
  3 35  1  0
  3 36  1  0
  4 37  1  0
  4 38  1  0
  5 39  1  0
  5 40  1  0
  7 41  1  0
  7 42  1  0
  8 43  1  0
  8 44  1  0
  9 45  1  0
 10 46  1  0
 10 47  1  0
 11 48  1  0
 11 49  1  0
 12 50  1  0
 15 51  1  0
 16 52  1  0
 17 53  1  0
 18 54  1  0
 21 55  1  0
 21 56  1  0
 21 57  1  0
 23 58  1  0
 24 59  1  0
 25 60  1  0
 28 61  1  0
 28 62  1  0
 28 63  1  0
M  CHG  2   3   1  20   1
M  END
>  <UniqueID>  (11) 
11

>  <SMILES>  (11) 
CC[NH2+]CCOCCNCCNc1c2ccccc2[n+](C)c2cccc(OC)c12

>  <Energy>  (11) 
87.78139637635769

>  <Genealogy>  (11) 
CC[NH2+]CCOCCNCCNc1c2ccccc2[n+](C)c2cccc(OC)c12 (protonated)
CC[NH2+]CCOCCNCCNc1c2ccccc2[n+](C)c2cccc(OC)c12 (3D coordinates assigned)
CC[NH2+]CCOCCNCCNc1c2ccccc2[n+](C)c2cccc(OC)c12 (optimized conformer: 87.78139637635769 kcal/mol)

>  <smiles>  (11) 
CCNCCOCCNCCNc1c2ccccc2[n+](C)c2cccc(OC)c12

>  <score_type>  (11) 
oracle

>  <origin>  (11) 
adg

>  <m_score__min__energy>  (11) 
-7.5300000000000002

>  <m_primary>  (11) 
energy

$$$$
11:0
     RDKit          3D

 54 55  0  0  0  0  0  0  0  0999 V2000
   -7.2590   22.6360  -30.0950 C   0  0  0  0  0  0  0  0  0  0  0  0
   -6.9970   23.5500  -31.2900 C   0  0  0  0  0  0  0  0  0  0  0  0
   -5.8850   22.9900  -32.1830 C   0  0  0  0  0  0  0  0  0  0  0  0
   -4.7940   22.4570  -31.3610 N   0  0  0  0  0  0  0  0  0  0  0  0
   -4.3530   21.1700  -31.2930 C   0  0  0  0  0  0  0  0  0  0  0  0
   -5.0250   20.0570  -31.8930 N   0  0  0  0  0  0  0  0  0  0  0  0
   -5.4070   20.1200  -33.3020 C   0  0  0  0  0  0  0  0  0  0  0  0
   -6.8590   19.6460  -33.5400 C   0  0  0  0  0  0  0  0  0  0  0  0
   -7.4920   18.9500  -32.3950 N   0  0  0  0  0  0  0  0  0  0  0  0
   -7.1680   17.5090  -32.3290 C   0  0  0  0  0  0  0  0  0  0  0  0
   -6.5740   17.0230  -33.6490 C   0  0  0  0  0  0  0  0  0  0  0  0
   -8.9310   19.2590  -32.2290 C   0  0  0  0  0  0  0  0  0  0  0  0
   -9.1360   20.7690  -32.2930 C   0  0  0  0  0  0  0  0  0  0  0  0
   -3.1970   21.0190  -30.5970 N   0  0  0  0  0  0  0  0  0  0  0  0
   -2.9160   22.2790  -30.2150 C   0  0  0  0  0  0  0  0  0  0  0  0
   -3.8580   23.1440  -30.6750 C   0  0  0  0  0  0  0  0  0  0  0  0
   -3.7260   24.5070  -30.4310 C   0  0  0  0  0  0  0  0  0  0  0  0
   -4.5690   25.3450  -30.8460 O   0  0  0  0  0  0  0  0  0  0  0  0
   -2.6440   24.9220  -29.7150 N   0  0  0  0  0  0  0  0  0  0  0  0
   -1.7050   24.0410  -29.2510 C   0  0  0  0  0  0  0  0  0  0  0  0
   -0.7260   24.4830  -28.5940 O   0  0  0  0  0  0  0  0  0  0  0  0
   -1.8300   22.6910  -29.4980 N   0  0  0  0  0  0  0  0  0  0  0  0
   -0.8150   21.7290  -29.0340 C   0  0  0  0  0  0  0  0  0  0  0  0
   -1.0770   21.2900  -27.5870 C   0  0  0  0  0  0  0  0  0  0  0  0
   -2.1740   20.2310  -27.4870 C   0  0  0  0  0  0  0  0  0  0  0  0
   -7.0983   23.1967  -29.1624 H   0  0  0  0  0  0  0  0  0  0  0  0
   -8.2971   22.2740  -30.1309 H   0  0  0  0  0  0  0  0  0  0  0  0
   -6.5703   21.7790  -30.1309 H   0  0  0  0  0  0  0  0  0  0  0  0
   -7.9202   23.6411  -31.8812 H   0  0  0  0  0  0  0  0  0  0  0  0
   -6.6789   24.5333  -30.9132 H   0  0  0  0  0  0  0  0  0  0  0  0
   -6.2941   22.1843  -32.8102 H   0  0  0  0  0  0  0  0  0  0  0  0
   -5.4935   23.7987  -32.8176 H   0  0  0  0  0  0  0  0  0  0  0  0
   -5.6550   19.5130  -31.2610 H   0  0  0  0  0  0  0  0  0  0  0  0
   -5.3138   21.1603  -33.6472 H   0  0  0  0  0  0  0  0  0  0  0  0
   -4.7388   19.4486  -33.8613 H   0  0  0  0  0  0  0  0  0  0  0  0
   -7.4697   20.5285  -33.7814 H   0  0  0  0  0  0  0  0  0  0  0  0
   -6.8094   18.9091  -34.3552 H   0  0  0  0  0  0  0  0  0  0  0  0
   -6.4393   17.3403  -31.5224 H   0  0  0  0  0  0  0  0  0  0  0  0
   -8.0944   16.9491  -32.1332 H   0  0  0  0  0  0  0  0  0  0  0  0
   -5.7375   16.3386  -33.4447 H   0  0  0  0  0  0  0  0  0  0  0  0
   -7.3470   16.4950  -34.2266 H   0  0  0  0  0  0  0  0  0  0  0  0
   -6.2096   17.8853  -34.2266 H   0  0  0  0  0  0  0  0  0  0  0  0
   -9.5051   18.7763  -33.0336 H   0  0  0  0  0  0  0  0  0  0  0  0
   -9.2776   18.8823  -31.2554 H   0  0  0  0  0  0  0  0  0  0  0  0
   -9.1911   21.1751  -31.2722 H   0  0  0  0  0  0  0  0  0  0  0  0
   -8.2924   21.2313  -32.8265 H   0  0  0  0  0  0  0  0  0  0  0  0
  -10.0723   20.9896  -32.8265 H   0  0  0  0  0  0  0  0  0  0  0  0
   -0.8374   20.8433  -29.6860 H   0  0  0  0  0  0  0  0  0  0  0  0
    0.1690   22.2191  -29.0734 H   0  0  0  0  0  0  0  0  0  0  0  0
   -0.1473   20.8754  -27.1702 H   0  0  0  0  0  0  0  0  0  0  0  0
   -1.4130   22.1738  -27.0249 H   0  0  0  0  0  0  0  0  0  0  0  0
   -2.3884   20.0240  -26.4281 H   0  0  0  0  0  0  0  0  0  0  0  0
   -3.0854   20.5995  -27.9804 H   0  0  0  0  0  0  0  0  0  0  0  0
   -1.8379   19.3071  -27.9804 H   0  0  0  0  0  0  0  0  0  0  0  0
  1  2  1  0
  2  3  1  0
  3  4  1  0
  4  5  1  0
  5  6  1  0
  6  7  1  0
  7  8  1  0
  8  9  1  0
  9 10  1  0
 10 11  1  0
  9 12  1  0
 12 13  1  0
  5 14  2  0
 14 15  1  0
 15 16  2  0
 16 17  1  0
 17 18  2  0
 17 19  1  0
 19 20  1  0
 20 21  2  0
 20 22  1  0
 22 23  1  0
 23 24  1  0
 24 25  1  0
 16  4  1  0
 22 15  1  0
  1 26  1  0
  1 27  1  0
  1 28  1  0
  2 29  1  0
  2 30  1  0
  3 31  1  0
  3 32  1  0
  6 33  1  0
  7 34  1  0
  7 35  1  0
  8 36  1  0
  8 37  1  0
 10 38  1  0
 10 39  1  0
 11 40  1  0
 11 41  1  0
 11 42  1  0
 12 43  1  0
 12 44  1  0
 13 45  1  0
 13 46  1  0
 13 47  1  0
 23 48  1  0
 23 49  1  0
 24 50  1  0
 24 51  1  0
 25 52  1  0
 25 53  1  0
 25 54  1  0
M  CHG  1  19  -1
M  END
>  <UniqueID>  (12) 
12

>  <SMILES>  (12) 
CCCn1c(NCCN(CC)CC)nc2c1c(=O)[n-]c(=O)n2CCC

>  <Energy>  (12) 
89.91012849007876

>  <Genealogy>  (12) 
CCCn1c(NCCN(CC)CC)nc2c1c(=O)[n-]c(=O)n2CCC (protonated)
CCCn1c(NCCN(CC)CC)nc2c1c(=O)[n-]c(=O)n2CCC (3D coordinates assigned)
CCCn1c(NCCN(CC)CC)nc2c1c(=O)[n-]c(=O)n2CCC (optimized conformer: 89.91012849007876 kcal/mol)

>  <smiles>  (12) 
CCCn1c(NCCN(CC)CC)nc2c1c(=O)[nH]c(=O)n2CCC

>  <score_type>  (12) 
oracle

>  <origin>  (12) 
adg

>  <m_score__min__energy>  (12) 
-7.9699999999999998

>  <m_primary>  (12) 
energy

$$$$
12:0
     RDKit          3D

 33 34  0  0  0  0  0  0  0  0999 V2000
   -8.7840   22.9990  -31.9630 C   0  0  0  0  0  0  0  0  0  0  0  0
   -7.7450   22.6640  -30.8980 C   0  0  0  0  0  0  0  0  0  0  0  0
   -6.4040   22.5680  -31.4860 N   0  0  0  0  0  0  0  0  0  0  0  0
   -5.9440   21.5990  -32.3020 C   0  0  0  0  0  0  0  0  0  0  0  0
   -6.7430   20.4440  -32.8220 C   0  0  0  0  0  0  0  0  0  0  0  0
   -4.6440   21.8940  -32.6470 C   0  0  0  0  0  0  0  0  0  0  0  0
   -4.2720   23.0390  -32.0420 N   0  0  0  0  0  0  0  0  0  0  0  0
   -5.3600   23.4200  -31.3390 C   0  0  0  0  0  0  0  0  0  0  0  0
   -5.3700   24.6590  -30.4900 C   0  0  0  0  0  0  0  0  0  0  0  0
   -4.0270   25.2570  -30.4230 N   0  0  0  0  0  0  0  0  0  0  0  0
   -3.2730   24.8320  -29.2320 C   0  0  0  0  0  0  0  0  0  0  0  0
   -2.8440   23.3970  -29.3440 C   0  0  0  0  0  0  0  0  0  0  0  0
   -3.5160   22.3400  -28.7120 C   0  0  0  0  0  0  0  0  0  0  0  0
   -2.9280   21.1010  -28.9280 C   0  0  0  0  0  0  0  0  0  0  0  0
   -1.5810   21.3270  -29.9080 S   0  0  0  0  0  0  0  0  0  0  0  0
   -1.7300   22.9920  -30.0710 C   0  0  0  0  0  0  0  0  0  0  0  0
   -9.7231   23.3018  -31.4767 H   0  0  0  0  0  0  0  0  0  0  0  0
   -8.4136   23.8232  -32.5902 H   0  0  0  0  0  0  0  0  0  0  0  0
   -8.9648   22.1136  -32.5902 H   0  0  0  0  0  0  0  0  0  0  0  0
   -7.7467   23.4537  -30.1323 H   0  0  0  0  0  0  0  0  0  0  0  0
   -8.0022   21.6931  -30.4495 H   0  0  0  0  0  0  0  0  0  0  0  0
   -7.1435   19.8651  -31.9767 H   0  0  0  0  0  0  0  0  0  0  0  0
   -7.5748   20.8203  -33.4356 H   0  0  0  0  0  0  0  0  0  0  0  0
   -6.0976   19.7983  -33.4356 H   0  0  0  0  0  0  0  0  0  0  0  0
   -4.0091   21.2900  -33.3119 H   0  0  0  0  0  0  0  0  0  0  0  0
   -6.0685   25.3888  -30.9252 H   0  0  0  0  0  0  0  0  0  0  0  0
   -5.6860   24.3866  -29.4722 H   0  0  0  0  0  0  0  0  0  0  0  0
   -3.4930   24.9210  -31.2590 H   0  0  0  0  0  0  0  0  0  0  0  0
   -2.3803   25.4662  -29.1273 H   0  0  0  0  0  0  0  0  0  0  0  0
   -3.9258   24.9327  -28.3524 H   0  0  0  0  0  0  0  0  0  0  0  0
   -4.4218   22.4795  -28.1037 H   0  0  0  0  0  0  0  0  0  0  0  0
   -3.2818   20.1394  -28.5278 H   0  0  0  0  0  0  0  0  0  0  0  0
   -1.0634   23.6471  -30.6510 H   0  0  0  0  0  0  0  0  0  0  0  0
  1  2  1  0
  2  3  1  0
  3  4  1  0
  4  5  1  0
  4  6  2  0
  6  7  1  0
  7  8  2  0
  8  9  1  0
  9 10  1  0
 10 11  1  0
 11 12  1  0
 12 13  1  0
 13 14  2  0
 14 15  1  0
 15 16  1  0
  8  3  1  0
 16 12  2  0
  1 17  1  0
  1 18  1  0
  1 19  1  0
  2 20  1  0
  2 21  1  0
  5 22  1  0
  5 23  1  0
  5 24  1  0
  6 25  1  0
  9 26  1  0
  9 27  1  0
 10 28  1  0
 11 29  1  0
 11 30  1  0
 13 31  1  0
 14 32  1  0
 16 33  1  0
M  END
>  <UniqueID>  (13) 
13

>  <SMILES>  (13) 
CCn1c(C)cnc1CNCc1ccsc1

>  <Energy>  (13) 
79.99486575976898

>  <Genealogy>  (13) 
CCn1c(C)cnc1CNCc1ccsc1 (3D coordinates assigned)
CCn1c(C)cnc1CNCc1ccsc1 (optimized conformer: 79.99486575976898 kcal/mol)

>  <smiles>  (13) 
CCn1c(C)cnc1CNCc1ccsc1

>  <score_type>  (13) 
oracle

>  <origin>  (13) 
adg

>  <m_score__min__energy>  (13) 
-6.0700000000000003

>  <m_primary>  (13) 
energy

$$$$
13:0
     RDKit          3D

 57 59  0  0  0  0  0  0  0  0999 V2000
   -1.8410   19.3060  -26.9310 C   0  0  0  0  0  0  0  0  0  0  0  0
   -2.6720   20.1740  -27.8690 C   0  0  0  0  0  0  0  0  0  0  0  0
   -1.8850   20.6150  -28.9730 O   0  0  0  0  0  0  0  0  0  0  0  0
   -2.0260   21.8790  -29.5560 C   0  0  0  0  0  0  0  0  0  0  0  0
   -2.8040   22.0570  -30.5310 O   0  0  0  0  0  0  0  0  0  0  0  0
   -1.2880   23.0440  -28.9740 C   0  0  0  0  0  0  0  0  0  0  0  0
   -2.0000   24.3030  -29.2330 N   0  0  0  0  0  0  0  0  0  0  0  0
   -3.1230   24.5270  -28.3040 C   0  0  0  0  0  0  0  0  0  0  0  0
   -4.4660   24.5000  -29.0440 C   0  0  0  0  0  0  0  0  0  0  0  0
   -4.2800   24.7890  -30.4750 N   0  0  0  0  0  0  0  0  0  0  0  0
   -5.5640   24.9250  -31.1760 C   0  0  0  0  0  0  0  0  0  0  0  0
   -5.7210   23.7900  -32.1860 C   0  0  0  0  0  0  0  0  0  0  0  0
   -5.0900   22.5710  -31.6840 N   0  0  0  0  0  0  0  0  0  0  0  0
   -5.4350   21.2850  -32.2300 C   0  0  0  0  0  0  0  0  0  0  0  0
   -4.4590   20.4930  -32.8610 C   0  0  0  0  0  0  0  0  0  0  0  0
   -3.1420   20.9660  -33.0400 C   0  0  0  0  0  0  0  0  0  0  0  0
   -2.1950   20.1990  -33.7170 C   0  0  0  0  0  0  0  0  0  0  0  0
   -2.5410   18.9520  -34.2210 C   0  0  0  0  0  0  0  0  0  0  0  0
   -3.8280   18.4520  -34.0320 C   0  0  0  0  0  0  0  0  0  0  0  0
   -4.8050   19.1940  -33.3210 C   0  0  0  0  0  0  0  0  0  0  0  0
   -6.0680   18.6860  -33.0830 N   0  0  0  0  0  0  0  0  0  0  0  0
   -6.3360   17.2450  -33.2810 C   0  0  0  0  0  0  0  0  0  0  0  0
   -7.0750   19.5230  -32.6410 C   0  0  0  0  0  0  0  0  0  0  0  0
   -8.4350   19.1230  -32.6530 C   0  0  0  0  0  0  0  0  0  0  0  0
   -9.4390   19.9680  -32.1790 C   0  0  0  0  0  0  0  0  0  0  0  0
   -9.1200   21.2340  -31.7020 C   0  0  0  0  0  0  0  0  0  0  0  0
   -7.7990   21.6700  -31.7120 C   0  0  0  0  0  0  0  0  0  0  0  0
   -6.7650   20.8310  -32.1810 C   0  0  0  0  0  0  0  0  0  0  0  0
   -2.0824   19.5582  -25.8879 H   0  0  0  0  0  0  0  0  0  0  0  0
   -2.0692   18.2456  -27.1141 H   0  0  0  0  0  0  0  0  0  0  0  0
   -0.7717   19.4878  -27.1141 H   0  0  0  0  0  0  0  0  0  0  0  0
   -3.5243   19.5882  -28.2436 H   0  0  0  0  0  0  0  0  0  0  0  0
   -3.0298   21.0540  -27.3143 H   0  0  0  0  0  0  0  0  0  0  0  0
   -1.1922   22.9023  -27.8874 H   0  0  0  0  0  0  0  0  0  0  0  0
   -0.2956   23.1001  -29.4452 H   0  0  0  0  0  0  0  0  0  0  0  0
   -2.3880   24.2440  -30.2030 H   0  0  0  0  0  0  0  0  0  0  0  0
   -3.1188   23.7372  -27.5384 H   0  0  0  0  0  0  0  0  0  0  0  0
   -3.0000   25.5166  -27.8396 H   0  0  0  0  0  0  0  0  0  0  0  0
   -4.9189   23.5037  -28.9332 H   0  0  0  0  0  0  0  0  0  0  0  0
   -5.1225   25.2693  -28.6113 H   0  0  0  0  0  0  0  0  0  0  0  0
   -3.7740   23.9780  -30.9060 H   0  0  0  0  0  0  0  0  0  0  0  0
   -6.3857   24.8813  -30.4460 H   0  0  0  0  0  0  0  0  0  0  0  0
   -5.5906   25.8895  -31.7043 H   0  0  0  0  0  0  0  0  0  0  0  0
   -6.7913   23.6009  -32.3554 H   0  0  0  0  0  0  0  0  0  0  0  0
   -5.2350   24.0813  -33.1289 H   0  0  0  0  0  0  0  0  0  0  0  0
   -4.5950   22.6160  -30.7650 H   0  0  0  0  0  0  0  0  0  0  0  0
   -2.8591   21.9512  -32.6408 H   0  0  0  0  0  0  0  0  0  0  0  0
   -1.1727   20.5819  -33.8521 H   0  0  0  0  0  0  0  0  0  0  0  0
   -1.7969   18.3572  -34.7710 H   0  0  0  0  0  0  0  0  0  0  0  0
   -4.0903   17.4652  -34.4412 H   0  0  0  0  0  0  0  0  0  0  0  0
   -6.4278   16.7513  -32.3023 H   0  0  0  0  0  0  0  0  0  0  0  0
   -7.2728   17.1202  -33.8440 H   0  0  0  0  0  0  0  0  0  0  0  0
   -5.5067   16.7918  -33.8440 H   0  0  0  0  0  0  0  0  0  0  0  0
   -8.7032   18.1298  -33.0425 H   0  0  0  0  0  0  0  0  0  0  0  0
  -10.4862   19.6313  -32.1828 H   0  0  0  0  0  0  0  0  0  0  0  0
   -9.9128   21.8917  -31.3162 H   0  0  0  0  0  0  0  0  0  0  0  0
   -7.5573   22.6803  -31.3502 H   0  0  0  0  0  0  0  0  0  0  0  0
  1  2  1  0
  2  3  1  0
  3  4  1  0
  4  5  2  0
  4  6  1  0
  6  7  1  0
  7  8  1  0
  8  9  1  0
  9 10  1  0
 10 11  1  0
 11 12  1  0
 12 13  1  0
 13 14  1  0
 14 15  2  0
 15 16  1  0
 16 17  2  0
 17 18  1  0
 18 19  2  0
 19 20  1  0
 20 21  2  0
 21 22  1  0
 21 23  1  0
 23 24  2  0
 24 25  1  0
 25 26  2  0
 26 27  1  0
 27 28  2  0
 28 14  1  0
 20 15  1  0
 28 23  1  0
  1 29  1  0
  1 30  1  0
  1 31  1  0
  2 32  1  0
  2 33  1  0
  6 34  1  0
  6 35  1  0
  7 36  1  0
  8 37  1  0
  8 38  1  0
  9 39  1  0
  9 40  1  0
 10 41  1  0
 11 42  1  0
 11 43  1  0
 12 44  1  0
 12 45  1  0
 13 46  1  0
 16 47  1  0
 17 48  1  0
 18 49  1  0
 19 50  1  0
 22 51  1  0
 22 52  1  0
 22 53  1  0
 24 54  1  0
 25 55  1  0
 26 56  1  0
 27 57  1  0
M  CHG  1  21   1
M  END
>  <UniqueID>  (14) 
14

>  <SMILES>  (14) 
CCOC(=O)CNCCNCCNc1c2ccccc2[n+](C)c2ccccc12

>  <Energy>  (14) 
72.79539726562315

>  <Genealogy>  (14) 
CCOC(=O)CNCCNCCNc1c2ccccc2[n+](C)c2ccccc12 (3D coordinates assigned)
CCOC(=O)CNCCNCCNc1c2ccccc2[n+](C)c2ccccc12 (optimized conformer: 72.79539726562315 kcal/mol)

>  <smiles>  (14) 
CCOC(=O)CNCCNCCNc1c2ccccc2[n+](C)c2ccccc12

>  <score_type>  (14) 
oracle

>  <origin>  (14) 
adg

>  <m_score__min__energy>  (14) 
-8.1300000000000008

>  <m_primary>  (14) 
energy

$$$$
14:0
     RDKit          3D

 40 40  0  0  0  0  0  0  0  0999 V2000
   -0.8540   25.3970  -24.3310 C   0  0  0  0  0  0  0  0  0  0  0  0
   -1.6380   25.7170  -25.6020 C   0  0  0  0  0  0  0  0  0  0  0  0
   -1.0380   25.0670  -26.8620 C   0  0  0  0  0  0  0  0  0  0  0  0
   -1.2340   25.9030  -28.1350 C   0  0  0  0  0  0  0  0  0  0  0  0
   -1.7230   25.0620  -29.2360 N   0  0  0  0  0  0  0  0  0  0  0  0
   -2.8300   24.1810  -28.8290 C   0  0  0  0  0  0  0  0  0  0  0  0
   -4.1650   24.5390  -29.5150 C   0  0  1  0  0  0  0  0  0  0  0  0
   -3.9290   25.4580  -30.5500 O   0  0  0  0  0  0  0  0  0  0  0  0
   -4.8440   23.2830  -30.0790 C   0  0  0  0  0  0  0  0  0  0  0  0
   -4.9460   23.3780  -31.4860 O   0  0  0  0  0  0  0  0  0  0  0  0
   -6.2680   23.7160  -31.8440 C   0  0  0  0  0  0  0  0  0  0  0  0
   -7.0670   22.4540  -32.0020 C   0  0  0  0  0  0  0  0  0  0  0  0
   -6.4760   21.3170  -32.5790 C   0  0  0  0  0  0  0  0  0  0  0  0
   -7.2220   20.1460  -32.7470 C   0  0  0  0  0  0  0  0  0  0  0  0
   -8.5620   20.1050  -32.3540 C   0  0  0  0  0  0  0  0  0  0  0  0
   -9.1610   21.2380  -31.7930 C   0  0  0  0  0  0  0  0  0  0  0  0
   -8.4190   22.4120  -31.6230 C   0  0  0  0  0  0  0  0  0  0  0  0
   -1.4649   25.6463  -23.4508 H   0  0  0  0  0  0  0  0  0  0  0  0
   -0.6056   24.3255  -24.3134 H   0  0  0  0  0  0  0  0  0  0  0  0
    0.0732   25.9886  -24.3134 H   0  0  0  0  0  0  0  0  0  0  0  0
   -2.6689   25.3540  -25.4780 H   0  0  0  0  0  0  0  0  0  0  0  0
   -1.5993   26.8069  -25.7453 H   0  0  0  0  0  0  0  0  0  0  0  0
    0.0409   24.9259  -26.7008 H   0  0  0  0  0  0  0  0  0  0  0  0
   -1.5649   24.1139  -27.0165 H   0  0  0  0  0  0  0  0  0  0  0  0
   -1.9664   26.6991  -27.9354 H   0  0  0  0  0  0  0  0  0  0  0  0
   -0.2668   26.3395  -28.4249 H   0  0  0  0  0  0  0  0  0  0  0  0
   -2.0250   25.6710  -30.0310 H   0  0  0  0  0  0  0  0  0  0  0  0
   -2.5681   23.1449  -29.0896 H   0  0  0  0  0  0  0  0  0  0  0  0
   -2.9712   24.3071  -27.7454 H   0  0  0  0  0  0  0  0  0  0  0  0
   -4.8350   24.9876  -28.7668 H   0  0  0  0  0  0  0  0  0  0  0  0
   -3.4950   24.9540  -31.2880 H   0  0  0  0  0  0  0  0  0  0  0  0
   -4.2471   22.3972  -29.8162 H   0  0  0  0  0  0  0  0  0  0  0  0
   -5.8527   23.1945  -29.6493 H   0  0  0  0  0  0  0  0  0  0  0  0
   -6.7156   24.3403  -31.0567 H   0  0  0  0  0  0  0  0  0  0  0  0
   -6.2661   24.2768  -32.7903 H   0  0  0  0  0  0  0  0  0  0  0  0
   -5.4241   21.3481  -32.8993 H   0  0  0  0  0  0  0  0  0  0  0  0
   -6.7525   19.2551  -33.1896 H   0  0  0  0  0  0  0  0  0  0  0  0
   -9.1459   19.1821  -32.4856 H   0  0  0  0  0  0  0  0  0  0  0  0
  -10.2166   21.2059  -31.4852 H   0  0  0  0  0  0  0  0  0  0  0  0
   -8.8956   23.3045  -31.1914 H   0  0  0  0  0  0  0  0  0  0  0  0
  1  2  1  0
  2  3  1  0
  3  4  1  0
  4  5  1  0
  5  6  1  0
  6  7  1  0
  7  8  1  0
  7  9  1  0
  9 10  1  0
 10 11  1  0
 11 12  1  0
 12 13  2  0
 13 14  1  0
 14 15  2  0
 15 16  1  0
 16 17  2  0
 17 12  1  0
  1 18  1  0
  1 19  1  0
  1 20  1  0
  2 21  1  0
  2 22  1  0
  3 23  1  0
  3 24  1  0
  4 25  1  0
  4 26  1  0
  5 27  1  0
  6 28  1  0
  6 29  1  0
  7 30  1  1
  8 31  1  0
  9 32  1  0
  9 33  1  0
 11 34  1  0
 11 35  1  0
 13 36  1  0
 14 37  1  0
 15 38  1  0
 16 39  1  0
 17 40  1  0
M  END
>  <UniqueID>  (15) 
15

>  <SMILES>  (15) 
CCCCNC[C@@H](O)COCc1ccccc1

>  <Energy>  (15) 
30.654059880845086

>  <Genealogy>  (15) 
CCCCNC[C@@H](O)COCc1ccccc1 (chirality)
CCCCNC[C@@H](O)COCc1ccccc1 (3D coordinates assigned)
CCCCNC[C@@H](O)COCc1ccccc1 (optimized conformer: 30.654059880845086 kcal/mol)

>  <smiles>  (15) 
CCCCNCC(O)COCc1ccccc1

>  <score_type>  (15) 
oracle

>  <origin>  (15) 
adg

>  <m_score__min__energy>  (15) 
-7.4299999999999997

>  <m_primary>  (15) 
energy

$$$$
15:0
     RDKit          3D

 65 67  0  0  0  0  0  0  0  0999 V2000
    0.9740   21.5030  -34.9660 C   0  0  0  0  0  0  0  0  0  0  0  0
   -0.3560   20.8180  -35.3060 C   0  0  0  0  0  0  0  0  0  0  0  0
   -1.3400   21.0010  -34.2220 N   0  0  0  0  0  0  0  0  0  0  0  0
   -0.7620   20.8320  -32.8780 C   0  0  0  0  0  0  0  0  0  0  0  0
   -1.8060   20.9800  -31.7310 C   0  0  1  0  0  0  0  0  0  0  0  0
   -1.1080   21.3580  -30.3950 C   0  0  0  0  0  0  0  0  0  0  0  0
   -1.1740   20.2320  -29.3450 C   0  0  0  0  0  0  0  0  0  0  0  0
   -1.7580   20.7540  -28.0220 C   0  0  0  0  0  0  0  0  0  0  0  0
   -1.8240   22.2870  -27.9780 C   0  0  0  0  0  0  0  0  0  0  0  0
   -3.1680   22.7790  -28.2870 N   0  0  0  0  0  0  0  0  0  0  0  0
   -3.4870   23.9650  -28.7110 C   0  0  0  0  0  0  0  0  0  0  0  0
   -4.7760   24.4910  -28.3790 N   0  0  0  0  0  0  0  0  0  0  0  0
   -2.6170   24.7400  -29.5450 N   0  0  0  0  0  0  0  0  0  0  0  0
   -2.8440   22.0680  -32.1030 C   0  0  0  0  0  0  0  0  0  0  0  0
   -3.7580   21.6140  -33.1560 N   0  0  0  0  0  0  0  0  0  0  0  0
   -4.9680   20.8840  -32.8640 C   0  0  0  0  0  0  0  0  0  0  0  0
   -6.0980   21.5540  -32.3560 C   0  0  0  0  0  0  0  0  0  0  0  0
   -5.9890   22.8710  -31.8560 C   0  0  0  0  0  0  0  0  0  0  0  0
   -7.1200   23.5790  -31.4620 C   0  0  0  0  0  0  0  0  0  0  0  0
   -8.3740   22.9890  -31.5540 C   0  0  0  0  0  0  0  0  0  0  0  0
   -8.4960   21.6670  -31.9860 C   0  0  0  0  0  0  0  0  0  0  0  0
   -7.3580   20.8990  -32.3380 C   0  0  0  0  0  0  0  0  0  0  0  0
   -7.4530   19.5590  -32.6750 N   0  0  0  0  0  0  0  0  0  0  0  0
   -8.7140   18.8260  -32.4190 C   0  0  0  0  0  0  0  0  0  0  0  0
   -6.3550   18.8940  -33.1960 C   0  0  0  0  0  0  0  0  0  0  0  0
   -6.4610   17.5850  -33.7370 C   0  0  0  0  0  0  0  0  0  0  0  0
   -5.3370   16.8890  -34.1780 C   0  0  0  0  0  0  0  0  0  0  0  0
   -4.0830   17.4770  -34.1000 C   0  0  0  0  0  0  0  0  0  0  0  0
   -3.9510   18.7930  -33.6580 C   0  0  0  0  0  0  0  0  0  0  0  0
   -5.0810   19.5280  -33.2240 C   0  0  0  0  0  0  0  0  0  0  0  0
    1.0875   21.5615  -33.8734 H   0  0  0  0  0  0  0  0  0  0  0  0
    1.8053   20.9209  -35.3904 H   0  0  0  0  0  0  0  0  0  0  0  0
    0.9828   22.5178  -35.3904 H   0  0  0  0  0  0  0  0  0  0  0  0
   -0.7576   21.2532  -36.2330 H   0  0  0  0  0  0  0  0  0  0  0  0
   -0.1719   19.7409  -35.4326 H   0  0  0  0  0  0  0  0  0  0  0  0
   -1.8500   21.9100  -34.3000 H   0  0  0  0  0  0  0  0  0  0  0  0
   -0.3146   19.8291  -32.8147 H   0  0  0  0  0  0  0  0  0  0  0  0
   -0.0167   21.6297  -32.7430 H   0  0  0  0  0  0  0  0  0  0  0  0
   -2.3159   20.0144  -31.5986 H   0  0  0  0  0  0  0  0  0  0  0  0
   -0.0515   21.5832  -30.6023 H   0  0  0  0  0  0  0  0  0  0  0  0
   -1.6379   22.2281  -29.9801 H   0  0  0  0  0  0  0  0  0  0  0  0
   -1.8118   19.4206  -29.7257 H   0  0  0  0  0  0  0  0  0  0  0  0
   -0.1548   19.8623  -29.1594 H   0  0  0  0  0  0  0  0  0  0  0  0
   -2.7751   20.3527  -27.9017 H   0  0  0  0  0  0  0  0  0  0  0  0
   -1.0961   20.4225  -27.2084 H   0  0  0  0  0  0  0  0  0  0  0  0
   -1.5424   22.6274  -26.9706 H   0  0  0  0  0  0  0  0  0  0  0  0
   -1.1309   22.6825  -28.7351 H   0  0  0  0  0  0  0  0  0  0  0  0
   -5.4300   23.9220  -27.7970 H   0  0  0  0  0  0  0  0  0  0  0  0
   -5.1330   25.3560  -28.8500 H   0  0  0  0  0  0  0  0  0  0  0  0
   -2.9360   25.6730  -29.8890 H   0  0  0  0  0  0  0  0  0  0  0  0
   -1.7100   24.3760  -29.9220 H   0  0  0  0  0  0  0  0  0  0  0  0
   -3.4306   22.3209  -31.2075 H   0  0  0  0  0  0  0  0  0  0  0  0
   -2.2982   22.9454  -32.4801 H   0  0  0  0  0  0  0  0  0  0  0  0
   -3.5590   21.9270  -34.1370 H   0  0  0  0  0  0  0  0  0  0  0  0
   -4.9981   23.3422  -31.7773 H   0  0  0  0  0  0  0  0  0  0  0  0
   -7.0212   24.6050  -31.0780 H   0  0  0  0  0  0  0  0  0  0  0  0
   -9.2725   23.5643  -31.2861 H   0  0  0  0  0  0  0  0  0  0  0  0
   -9.4953   21.2124  -32.0545 H   0  0  0  0  0  0  0  0  0  0  0  0
   -8.8712   18.7346  -31.3341 H   0  0  0  0  0  0  0  0  0  0  0  0
   -9.5551   19.3759  -32.8664 H   0  0  0  0  0  0  0  0  0  0  0  0
   -8.6524   17.8230  -32.8664 H   0  0  0  0  0  0  0  0  0  0  0  0
   -7.4509   17.1107  -33.8094 H   0  0  0  0  0  0  0  0  0  0  0  0
   -5.4442   15.8738  -34.5878 H   0  0  0  0  0  0  0  0  0  0  0  0
   -3.1897   16.9032  -34.3878 H   0  0  0  0  0  0  0  0  0  0  0  0
   -2.9578   19.2656  -33.6463 H   0  0  0  0  0  0  0  0  0  0  0  0
  1  2  1  0
  2  3  1  0
  3  4  1  0
  4  5  1  0
  5  6  1  0
  6  7  1  0
  7  8  1  0
  8  9  1  0
  9 10  1  0
 10 11  2  3
 11 12  1  0
 11 13  1  0
  5 14  1  0
 14 15  1  0
 15 16  1  0
 16 17  2  0
 17 18  1  0
 18 19  2  0
 19 20  1  0
 20 21  2  0
 21 22  1  0
 22 23  2  0
 23 24  1  0
 23 25  1  0
 25 26  2  0
 26 27  1  0
 27 28  2  0
 28 29  1  0
 29 30  2  0
 30 16  1  0
 22 17  1  0
 30 25  1  0
  1 31  1  0
  1 32  1  0
  1 33  1  0
  2 34  1  0
  2 35  1  0
  3 36  1  0
  4 37  1  0
  4 38  1  0
  5 39  1  1
  6 40  1  0
  6 41  1  0
  7 42  1  0
  7 43  1  0
  8 44  1  0
  8 45  1  0
  9 46  1  0
  9 47  1  0
 12 48  1  0
 12 49  1  0
 13 50  1  0
 13 51  1  0
 14 52  1  0
 14 53  1  0
 15 54  1  0
 18 55  1  0
 19 56  1  0
 20 57  1  0
 21 58  1  0
 24 59  1  0
 24 60  1  0
 24 61  1  0
 26 62  1  0
 27 63  1  0
 28 64  1  0
 29 65  1  0
M  CHG  1  23   1
M  END
>  <UniqueID>  (16) 
16

>  <SMILES>  (16) 
CCNC[C@@H](CCCCN=C(N)N)CNc1c2ccccc2[n+](C)c2ccccc12

>  <Energy>  (16) 
87.0787593571348

>  <Genealogy>  (16) 
CCNC[C@@H](CCCCN=C(N)N)CNc1c2ccccc2[n+](C)c2ccccc12 (chirality)
CCNC[C@@H](CCCCN=C(N)N)CNc1c2ccccc2[n+](C)c2ccccc12 (3D coordinates assigned)
CCNC[C@@H](CCCCN=C(N)N)CNc1c2ccccc2[n+](C)c2ccccc12 (optimized conformer: 87.0787593571348 kcal/mol)

>  <smiles>  (16) 
CCNCC(CCCCN=C(N)N)CNc1c2ccccc2[n+](C)c2ccccc12

>  <score_type>  (16) 
oracle

>  <origin>  (16) 
adg

>  <m_score__min__energy>  (16) 
-10.199999999999999

>  <m_primary>  (16) 
energy

$$$$
16:0
     RDKit          3D

 64 66  0  0  0  0  0  0  0  0999 V2000
   -2.1490   20.4050  -28.4690 C   0  0  0  0  0  0  0  0  0  0  0  0
   -3.1260   21.1970  -29.3600 C   0  0  0  0  0  0  0  0  0  0  0  0
   -3.5870   22.4890  -28.7820 N   0  0  1  0  0  0  0  0  0  0  0  0
   -4.2310   22.3040  -27.4680 C   0  0  0  0  0  0  0  0  0  0  0  0
   -2.5030   23.5130  -28.7090 C   0  0  0  0  0  0  0  0  0  0  0  0
   -2.9300   24.8670  -29.2980 C   0  0  0  0  0  0  0  0  0  0  0  0
   -3.7120   24.6610  -30.4550 O   0  0  0  0  0  0  0  0  0  0  0  0
   -4.8180   25.5390  -30.4560 C   0  0  0  0  0  0  0  0  0  0  0  0
   -5.8210   25.0700  -29.4080 C   0  0  0  0  0  0  0  0  0  0  0  0
   -6.2810   23.7840  -29.7590 O   0  0  0  0  0  0  0  0  0  0  0  0
   -7.2030   23.8440  -30.8320 C   0  0  0  0  0  0  0  0  0  0  0  0
   -6.5250   23.3350  -32.1060 C   0  0  0  0  0  0  0  0  0  0  0  0
   -5.3420   22.5280  -31.7920 N   0  0  0  0  0  0  0  0  0  0  0  0
   -5.1740   21.2200  -32.3670 C   0  0  0  0  0  0  0  0  0  0  0  0
   -3.9230   20.8140  -32.8680 C   0  0  0  0  0  0  0  0  0  0  0  0
   -2.7540   21.5630  -32.6180 C   0  0  0  0  0  0  0  0  0  0  0  0
   -1.5250   21.1620  -33.1430 C   0  0  0  0  0  0  0  0  0  0  0  0
   -1.4370   20.0010  -33.9060 C   0  0  0  0  0  0  0  0  0  0  0  0
   -2.5760   19.2280  -34.1390 C   0  0  0  0  0  0  0  0  0  0  0  0
   -3.8370   19.6160  -33.6230 C   0  0  0  0  0  0  0  0  0  0  0  0
   -4.9630   18.8480  -33.8290 N   0  0  0  0  0  0  0  0  0  0  0  0
   -5.0110   17.9500  -35.0000 C   0  0  0  0  0  0  0  0  0  0  0  0
   -6.0880   19.0550  -33.0500 C   0  0  0  0  0  0  0  0  0  0  0  0
   -7.1050   18.0620  -32.8630 C   0  0  0  0  0  0  0  0  0  0  0  0
   -6.8900   16.5910  -33.1360 C   0  0  0  0  0  0  0  0  0  0  0  0
   -8.3190   18.4180  -32.2610 C   0  0  0  0  0  0  0  0  0  0  0  0
   -8.5120   19.6960  -31.7510 C   0  0  0  0  0  0  0  0  0  0  0  0
   -7.4790   20.6260  -31.7900 C   0  0  0  0  0  0  0  0  0  0  0  0
   -6.2500   20.3110  -32.3990 C   0  0  0  0  0  0  0  0  0  0  0  0
   -2.3823   20.5941  -27.4108 H   0  0  0  0  0  0  0  0  0  0  0  0
   -2.2493   19.3301  -28.6802 H   0  0  0  0  0  0  0  0  0  0  0  0
   -1.1181   20.7255  -28.6802 H   0  0  0  0  0  0  0  0  0  0  0  0
   -2.6236   21.4089  -30.3153 H   0  0  0  0  0  0  0  0  0  0  0  0
   -4.0224   20.5694  -29.4724 H   0  0  0  0  0  0  0  0  0  0  0  0
   -4.3440   22.8460  -29.4130 H   0  0  0  0  0  0  0  0  0  0  0  0
   -3.5031   22.5131  -26.6702 H   0  0  0  0  0  0  0  0  0  0  0  0
   -5.0831   22.9937  -27.3769 H   0  0  0  0  0  0  0  0  0  0  0  0
   -4.5871   21.2672  -27.3769 H   0  0  0  0  0  0  0  0  0  0  0  0
   -2.2262   23.6588  -27.6544 H   0  0  0  0  0  0  0  0  0  0  0  0
   -1.6542   23.1434  -29.3031 H   0  0  0  0  0  0  0  0  0  0  0  0
   -3.5202   25.4196  -28.5522 H   0  0  0  0  0  0  0  0  0  0  0  0
   -2.0333   25.4456  -29.5645 H   0  0  0  0  0  0  0  0  0  0  0  0
   -4.4809   26.5579  -30.2147 H   0  0  0  0  0  0  0  0  0  0  0  0
   -5.2906   25.5424  -31.4493 H   0  0  0  0  0  0  0  0  0  0  0  0
   -5.3343   25.0317  -28.4223 H   0  0  0  0  0  0  0  0  0  0  0  0
   -6.6686   25.7698  -29.3640 H   0  0  0  0  0  0  0  0  0  0  0  0
   -8.0757   23.2148  -30.6030 H   0  0  0  0  0  0  0  0  0  0  0  0
   -7.5330   24.8831  -30.9785 H   0  0  0  0  0  0  0  0  0  0  0  0
   -7.2399   22.7187  -32.6710 H   0  0  0  0  0  0  0  0  0  0  0  0
   -6.2058   24.2034  -32.7010 H   0  0  0  0  0  0  0  0  0  0  0  0
   -4.7060   22.8220  -31.0190 H   0  0  0  0  0  0  0  0  0  0  0  0
   -2.8120   22.4729  -32.0026 H   0  0  0  0  0  0  0  0  0  0  0  0
   -0.6242   21.7643  -32.9537 H   0  0  0  0  0  0  0  0  0  0  0  0
   -0.4684   19.6921  -34.3260 H   0  0  0  0  0  0  0  0  0  0  0  0
   -2.4931   18.3049  -34.7315 H   0  0  0  0  0  0  0  0  0  0  0  0
   -5.0668   16.9056  -34.6591 H   0  0  0  0  0  0  0  0  0  0  0  0
   -5.8978   18.1856  -35.6066 H   0  0  0  0  0  0  0  0  0  0  0  0
   -4.1041   18.0897  -35.6066 H   0  0  0  0  0  0  0  0  0  0  0  0
   -6.8108   16.0488  -32.1822 H   0  0  0  0  0  0  0  0  0  0  0  0
   -7.7401   16.1969  -33.7122 H   0  0  0  0  0  0  0  0  0  0  0  0
   -5.9627   16.4567  -33.7122 H   0  0  0  0  0  0  0  0  0  0  0  0
   -9.1290   17.6770  -32.1913 H   0  0  0  0  0  0  0  0  0  0  0  0
   -9.4836   19.9725  -31.3157 H   0  0  0  0  0  0  0  0  0  0  0  0
   -7.6241   21.6191  -31.3398 H   0  0  0  0  0  0  0  0  0  0  0  0
  1  2  1  0
  2  3  1  0
  3  4  1  0
  3  5  1  0
  5  6  1  0
  6  7  1  0
  7  8  1  0
  8  9  1  0
  9 10  1  0
 10 11  1  0
 11 12  1  0
 12 13  1  0
 13 14  1  0
 14 15  2  0
 15 16  1  0
 16 17  2  0
 17 18  1  0
 18 19  2  0
 19 20  1  0
 20 21  2  0
 21 22  1  0
 21 23  1  0
 23 24  2  0
 24 25  1  0
 24 26  1  0
 26 27  2  0
 27 28  1  0
 28 29  2  0
 29 14  1  0
 20 15  1  0
 29 23  1  0
  1 30  1  0
  1 31  1  0
  1 32  1  0
  2 33  1  0
  2 34  1  0
  3 35  1  6
  4 36  1  0
  4 37  1  0
  4 38  1  0
  5 39  1  0
  5 40  1  0
  6 41  1  0
  6 42  1  0
  8 43  1  0
  8 44  1  0
  9 45  1  0
  9 46  1  0
 11 47  1  0
 11 48  1  0
 12 49  1  0
 12 50  1  0
 13 51  1  0
 16 52  1  0
 17 53  1  0
 18 54  1  0
 19 55  1  0
 22 56  1  0
 22 57  1  0
 22 58  1  0
 25 59  1  0
 25 60  1  0
 25 61  1  0
 26 62  1  0
 27 63  1  0
 28 64  1  0
M  CHG  2   3   1  21   1
M  END
>  <UniqueID>  (17) 
17

>  <SMILES>  (17) 
CC[N@@H+](C)CCOCCOCCNc1c2ccccc2[n+](C)c2c(C)cccc12

>  <Energy>  (17) 
98.65039053681663

>  <Genealogy>  (17) 
CC[NH+](C)CCOCCOCCNc1c2ccccc2[n+](C)c2c(C)cccc12 (protonated)
CC[N@@H+](C)CCOCCOCCNc1c2ccccc2[n+](C)c2c(C)cccc12 (chirality)
CC[N@@H+](C)CCOCCOCCNc1c2ccccc2[n+](C)c2c(C)cccc12 (3D coordinates assigned)
CC[N@@H+](C)CCOCCOCCNc1c2ccccc2[n+](C)c2c(C)cccc12 (optimized conformer: 98.65039053681663 kcal/mol)

>  <smiles>  (17) 
CCN(C)CCOCCOCCNc1c2ccccc2[n+](C)c2c(C)cccc12

>  <score_type>  (17) 
oracle

>  <origin>  (17) 
adg

>  <m_score__min__energy>  (17) 
-9.8800000000000008

>  <m_primary>  (17) 
energy

$$$$
17:0
     RDKit          3D

 44 44  0  0  0  0  0  0  0  0999 V2000
   -5.7770   16.1600  -33.0790 C   0  0  0  0  0  0  0  0  0  0  0  0
   -6.6580   16.8230  -34.1420 C   0  0  0  0  0  0  0  0  0  0  0  0
   -6.1730   18.1690  -34.5080 N   0  0  0  0  0  0  0  0  0  0  0  0
   -4.7100   18.2200  -34.7220 C   0  0  0  0  0  0  0  0  0  0  0  0
   -4.0180   19.2580  -33.8210 C   0  0  0  0  0  0  0  0  0  0  0  0
   -4.8580   19.6420  -32.7510 O   0  0  0  0  0  0  0  0  0  0  0  0
   -5.1460   21.0250  -32.8110 C   0  0  0  0  0  0  0  0  0  0  0  0
   -6.2100   21.3830  -31.7550 C   0  0  2  0  0  0  0  0  0  0  0  0
   -7.6490   21.2420  -32.3030 C   0  0  0  0  0  0  0  0  0  0  0  0
   -7.9740   19.8290  -32.6040 N   0  0  0  0  0  0  0  0  0  0  0  0
   -9.4290   19.6510  -32.7380 C   0  0  0  0  0  0  0  0  0  0  0  0
   -7.4650   18.9300  -31.5530 C   0  0  0  0  0  0  0  0  0  0  0  0
   -5.9810   22.7860  -31.2220 C   0  0  0  0  0  0  0  0  0  0  0  0
   -7.0310   23.4950  -30.6170 C   0  0  0  0  0  0  0  0  0  0  0  0
   -6.8170   24.7860  -30.1310 C   0  0  0  0  0  0  0  0  0  0  0  0
   -5.5540   25.3640  -30.2530 C   0  0  0  0  0  0  0  0  0  0  0  0
   -4.5440   24.6710  -30.8430 N   0  0  0  0  0  0  0  0  0  0  0  0
   -4.7240   23.4130  -31.3230 C   0  0  0  0  0  0  0  0  0  0  0  0
   -6.1412   16.4341  -32.0779 H   0  0  0  0  0  0  0  0  0  0  0  0
   -5.8186   15.0672  -33.1978 H   0  0  0  0  0  0  0  0  0  0  0  0
   -4.7385   16.5025  -33.1978 H   0  0  0  0  0  0  0  0  0  0  0  0
   -6.6629   16.1912  -35.0425 H   0  0  0  0  0  0  0  0  0  0  0  0
   -7.6694   16.9308  -33.7232 H   0  0  0  0  0  0  0  0  0  0  0  0
   -6.4520   18.8410  -33.7550 H   0  0  0  0  0  0  0  0  0  0  0  0
   -6.6590   18.4870  -35.3800 H   0  0  0  0  0  0  0  0  0  0  0  0
   -4.2872   17.2278  -34.5060 H   0  0  0  0  0  0  0  0  0  0  0  0
   -4.5354   18.5155  -35.7671 H   0  0  0  0  0  0  0  0  0  0  0  0
   -3.0940   18.8215  -33.4139 H   0  0  0  0  0  0  0  0  0  0  0  0
   -3.7907   20.1491  -34.4246 H   0  0  0  0  0  0  0  0  0  0  0  0
   -4.2281   21.5981  -32.6134 H   0  0  0  0  0  0  0  0  0  0  0  0
   -5.5296   21.2730  -33.8117 H   0  0  0  0  0  0  0  0  0  0  0  0
   -6.1028   20.6633  -30.9300 H   0  0  0  0  0  0  0  0  0  0  0  0
   -8.3574   21.6203  -31.5513 H   0  0  0  0  0  0  0  0  0  0  0  0
   -7.7240   21.8216  -33.2349 H   0  0  0  0  0  0  0  0  0  0  0  0
   -9.8852   19.5952  -31.7386 H   0  0  0  0  0  0  0  0  0  0  0  0
   -9.8537   20.5039  -33.2878 H   0  0  0  0  0  0  0  0  0  0  0  0
   -9.6355   18.7209  -33.2878 H   0  0  0  0  0  0  0  0  0  0  0  0
   -7.7028   19.3499  -30.5645 H   0  0  0  0  0  0  0  0  0  0  0  0
   -7.9377   17.9420  -31.6550 H   0  0  0  0  0  0  0  0  0  0  0  0
   -6.3746   18.8270  -31.6550 H   0  0  0  0  0  0  0  0  0  0  0  0
   -8.0247   23.0321  -30.5257 H   0  0  0  0  0  0  0  0  0  0  0  0
   -7.6380   25.3427  -29.6557 H   0  0  0  0  0  0  0  0  0  0  0  0
   -5.3748   26.3803  -29.8721 H   0  0  0  0  0  0  0  0  0  0  0  0
   -3.8836   22.8813  -31.7930 H   0  0  0  0  0  0  0  0  0  0  0  0
  1  2  1  0
  2  3  1  0
  3  4  1  0
  4  5  1  0
  5  6  1  0
  6  7  1  0
  7  8  1  0
  8  9  1  0
  9 10  1  0
 10 11  1  0
 10 12  1  0
  8 13  1  0
 13 14  2  0
 14 15  1  0
 15 16  2  0
 16 17  1  0
 17 18  2  0
 18 13  1  0
  1 19  1  0
  1 20  1  0
  1 21  1  0
  2 22  1  0
  2 23  1  0
  3 24  1  0
  3 25  1  0
  4 26  1  0
  4 27  1  0
  5 28  1  0
  5 29  1  0
  7 30  1  0
  7 31  1  0
  8 32  1  1
  9 33  1  0
  9 34  1  0
 11 35  1  0
 11 36  1  0
 11 37  1  0
 12 38  1  0
 12 39  1  0
 12 40  1  0
 14 41  1  0
 15 42  1  0
 16 43  1  0
 18 44  1  0
M  CHG  1   3   1
M  END
>  <UniqueID>  (18) 
18

>  <SMILES>  (18) 
CC[NH2+]CCOC[C@H](CN(C)C)c1cccnc1

>  <Energy>  (18) 
41.36579456371759

>  <Genealogy>  (18) 
CC[NH2+]CCOCC(CN(C)C)c1cccnc1 (protonated)
CC[NH2+]CCOC[C@H](CN(C)C)c1cccnc1 (chirality)
CC[NH2+]CCOC[C@H](CN(C)C)c1cccnc1 (3D coordinates assigned)
CC[NH2+]CCOC[C@H](CN(C)C)c1cccnc1 (optimized conformer: 41.36579456371759 kcal/mol)

>  <smiles>  (18) 
CCNCCOCC(CN(C)C)c1cccnc1

>  <score_type>  (18) 
oracle

>  <origin>  (18) 
adg

>  <m_score__min__energy>  (18) 
-5.1799999999999997

>  <m_primary>  (18) 
energy

$$$$
18:0
     RDKit          3D

102105  0  0  0  0  0  0  0  0999 V2000
   -5.8030   25.1950  -29.7130 C   0  0  0  0  0  0  0  0  0  0  0  0
   -4.7750   24.0890  -29.9630 C   0  0  0  0  0  0  0  0  0  0  0  0
   -3.7130   24.0850  -28.9310 N   0  0  0  0  0  0  0  0  0  0  0  0
   -4.2400   24.4580  -27.6000 C   0  0  0  0  0  0  0  0  0  0  0  0
   -3.1030   24.9060  -26.6900 C   0  0  0  0  0  0  0  0  0  0  0  0
   -2.9180   22.8330  -28.8880 C   0  0  0  0  0  0  0  0  0  0  0  0
   -3.4480   21.7790  -27.8940 C   0  0  0  0  0  0  0  0  0  0  0  0
   -3.0830   20.4810  -28.3270 O   0  0  0  0  0  0  0  0  0  0  0  0
   -2.3400   19.7980  -27.3370 C   0  0  0  0  0  0  0  0  0  0  0  0
   -0.8830   19.6500  -27.7820 C   0  0  0  0  0  0  0  0  0  0  0  0
   -0.6070   20.5100  -28.8690 O   0  0  0  0  0  0  0  0  0  0  0  0
    0.0850   19.8330  -29.9040 C   0  0  0  0  0  0  0  0  0  0  0  0
   -0.8060   19.7700  -31.1400 C   0  0  0  0  0  0  0  0  0  0  0  0
   -1.4750   21.0050  -31.2910 O   0  0  0  0  0  0  0  0  0  0  0  0
   -2.8450   20.7760  -31.5480 C   0  0  0  0  0  0  0  0  0  0  0  0
   -3.4570   22.0170  -32.1920 C   0  0  0  0  0  0  0  0  0  0  0  0
   -4.3550   21.6360  -33.2790 N   0  0  0  0  0  0  0  0  0  0  0  0
   -5.4950   20.7960  -33.0330 C   0  0  0  0  0  0  0  0  0  0  0  0
   -6.6920   21.3470  -32.5400 C   0  0  0  0  0  0  0  0  0  0  0  0
   -6.8250   22.7380  -32.3430 C   0  0  0  0  0  0  0  0  0  0  0  0
   -8.0170   23.2810  -31.8690 C   0  0  0  0  0  0  0  0  0  0  0  0
   -9.0990   22.4520  -31.5980 C   0  0  0  0  0  0  0  0  0  0  0  0
   -8.9890   21.0740  -31.7780 C   0  0  0  0  0  0  0  0  0  0  0  0
   -7.7780   20.4870  -32.2250 C   0  0  0  0  0  0  0  0  0  0  0  0
   -7.6420   19.1190  -32.3660 N   0  0  0  0  0  0  0  0  0  0  0  0
   -8.6430   18.2110  -31.7620 C   0  0  0  0  0  0  0  0  0  0  0  0
   -6.5560   18.6000  -33.0460 C   0  0  0  0  0  0  0  0  0  0  0  0
   -6.5260   17.2520  -33.4860 C   0  0  0  0  0  0  0  0  0  0  0  0
   -5.3950   16.7170  -34.1250 C   0  0  0  0  0  0  0  0  0  0  0  0
   -5.3360   15.3850  -34.5660 O   0  0  0  0  0  0  0  0  0  0  0  0
   -5.6760   14.2550  -33.7680 C   0  0  0  0  0  0  0  0  0  0  0  0
   -4.6550   14.0320  -32.6330 C   0  0  0  0  0  0  0  0  0  0  0  0
   -3.4040   13.2560  -32.9510 N   0  0  0  0  0  0  0  0  0  0  0  0
   -3.6610   11.7990  -32.7940 C   0  0  0  0  0  0  0  0  0  0  0  0
   -2.3450   13.6620  -31.9530 C   0  0  0  0  0  0  0  0  0  0  0  0
   -0.9770   14.0030  -32.5840 C   0  0  0  0  0  0  0  0  0  0  0  0
   -1.0780   15.0530  -33.6460 N   0  0  0  0  0  0  0  0  0  0  0  0
   -1.1310   16.3970  -33.0150 C   0  0  0  0  0  0  0  0  0  0  0  0
    0.1530   14.9930  -34.4730 C   0  0  0  0  0  0  0  0  0  0  0  0
   -2.2830   14.8670  -34.5220 C   0  0  0  0  0  0  0  0  0  0  0  0
   -2.9320   13.4850  -34.3520 C   0  0  0  0  0  0  0  0  0  0  0  0
   -4.2870   17.5320  -34.3450 C   0  0  0  0  0  0  0  0  0  0  0  0
   -4.3080   18.8710  -33.9690 C   0  0  0  0  0  0  0  0  0  0  0  0
   -5.4420   19.4260  -33.3400 C   0  0  0  0  0  0  0  0  0  0  0  0
   -5.9339   25.3359  -28.6299 H   0  0  0  0  0  0  0  0  0  0  0  0
   -5.4491   26.1335  -30.1647 H   0  0  0  0  0  0  0  0  0  0  0  0
   -6.7648   24.9105  -30.1647 H   0  0  0  0  0  0  0  0  0  0  0  0
   -5.2880   23.1160  -29.9504 H   0  0  0  0  0  0  0  0  0  0  0  0
   -4.3035   24.2734  -30.9396 H   0  0  0  0  0  0  0  0  0  0  0  0
   -4.9611   25.2810  -27.7124 H   0  0  0  0  0  0  0  0  0  0  0  0
   -4.7346   23.5835  -27.1521 H   0  0  0  0  0  0  0  0  0  0  0  0
   -3.4057   24.7867  -25.6392 H   0  0  0  0  0  0  0  0  0  0  0  0
   -2.2120   24.2917  -26.8869 H   0  0  0  0  0  0  0  0  0  0  0  0
   -2.8705   25.9630  -26.8869 H   0  0  0  0  0  0  0  0  0  0  0  0
   -2.9196   22.3890  -29.8944 H   0  0  0  0  0  0  0  0  0  0  0  0
   -1.9104   23.1110  -28.5453 H   0  0  0  0  0  0  0  0  0  0  0  0
   -3.0168   21.9663  -26.8995 H   0  0  0  0  0  0  0  0  0  0  0  0
   -4.5446   21.8486  -27.8432 H   0  0  0  0  0  0  0  0  0  0  0  0
   -2.3772   20.3674  -26.3966 H   0  0  0  0  0  0  0  0  0  0  0  0
   -2.7740   18.7985  -27.1865 H   0  0  0  0  0  0  0  0  0  0  0  0
   -0.2203   19.9047  -26.9417 H   0  0  0  0  0  0  0  0  0  0  0  0
   -0.7119   18.6106  -28.0987 H   0  0  0  0  0  0  0  0  0  0  0  0
    1.0111   20.3757  -30.1445 H   0  0  0  0  0  0  0  0  0  0  0  0
    0.3379   18.8138  -29.5764 H   0  0  0  0  0  0  0  0  0  0  0  0
   -0.1889   19.5742  -32.0293 H   0  0  0  0  0  0  0  0  0  0  0  0
   -1.5426   18.9612  -31.0250 H   0  0  0  0  0  0  0  0  0  0  0  0
   -2.9519   19.9190  -32.2293 H   0  0  0  0  0  0  0  0  0  0  0  0
   -3.3640   20.5602  -30.6025 H   0  0  0  0  0  0  0  0  0  0  0  0
   -4.0234   22.5771  -31.4334 H   0  0  0  0  0  0  0  0  0  0  0  0
   -2.6493   22.6430  -32.5991 H   0  0  0  0  0  0  0  0  0  0  0  0
   -4.3260   22.1930  -34.1620 H   0  0  0  0  0  0  0  0  0  0  0  0
   -5.9768   23.4018  -32.5665 H   0  0  0  0  0  0  0  0  0  0  0  0
   -8.1019   24.3660  -31.7092 H   0  0  0  0  0  0  0  0  0  0  0  0
  -10.0451   22.8845  -31.2404 H   0  0  0  0  0  0  0  0  0  0  0  0
   -9.8567   20.4308  -31.5697 H   0  0  0  0  0  0  0  0  0  0  0  0
   -8.5775   18.2704  -30.6656 H   0  0  0  0  0  0  0  0  0  0  0  0
   -9.6511   18.5092  -32.0858 H   0  0  0  0  0  0  0  0  0  0  0  0
   -8.4442   17.1787  -32.0858 H   0  0  0  0  0  0  0  0  0  0  0  0
   -7.4061   16.6125  -33.3236 H   0  0  0  0  0  0  0  0  0  0  0  0
   -6.6706   14.4162  -33.3266 H   0  0  0  0  0  0  0  0  0  0  0  0
   -5.6718   13.3645  -34.4138 H   0  0  0  0  0  0  0  0  0  0  0  0
   -4.3426   15.0238  -32.2742 H   0  0  0  0  0  0  0  0  0  0  0  0
   -5.1884   13.4066  -31.9020 H   0  0  0  0  0  0  0  0  0  0  0  0
   -3.7053   11.5477  -31.7240 H   0  0  0  0  0  0  0  0  0  0  0  0
   -4.6183   11.5420  -33.2710 H   0  0  0  0  0  0  0  0  0  0  0  0
   -2.8494   11.2300  -33.2710 H   0  0  0  0  0  0  0  0  0  0  0  0
   -2.7047   14.5483  -31.4098 H   0  0  0  0  0  0  0  0  0  0  0  0
   -2.1822   12.7955  -31.2952 H   0  0  0  0  0  0  0  0  0  0  0  0
   -0.3048   14.3660  -31.7926 H   0  0  0  0  0  0  0  0  0  0  0  0
   -0.5909   13.0877  -33.0564 H   0  0  0  0  0  0  0  0  0  0  0  0
   -1.1267   16.2886  -31.9204 H   0  0  0  0  0  0  0  0  0  0  0  0
   -0.2553   16.9842  -33.3287 H   0  0  0  0  0  0  0  0  0  0  0  0
   -2.0502   16.9134  -33.3287 H   0  0  0  0  0  0  0  0  0  0  0  0
    1.0343   14.9500  -33.8161 H   0  0  0  0  0  0  0  0  0  0  0  0
    0.1248   14.0952  -35.1079 H   0  0  0  0  0  0  0  0  0  0  0  0
    0.2122   15.8893  -35.1079 H   0  0  0  0  0  0  0  0  0  0  0  0
   -3.0252   15.6380  -34.2678 H   0  0  0  0  0  0  0  0  0  0  0  0
   -1.9502   14.9515  -35.5671 H   0  0  0  0  0  0  0  0  0  0  0  0
   -3.7924   13.4105  -35.0333 H   0  0  0  0  0  0  0  0  0  0  0  0
   -2.1737   12.7227  -34.5839 H   0  0  0  0  0  0  0  0  0  0  0  0
   -3.3877   17.1131  -34.8202 H   0  0  0  0  0  0  0  0  0  0  0  0
   -3.4302   19.5044  -34.1644 H   0  0  0  0  0  0  0  0  0  0  0  0
  1  2  1  0
  2  3  1  0
  3  4  1  0
  4  5  1  0
  3  6  1  0
  6  7  1  0
  7  8  1  0
  8  9  1  0
  9 10  1  0
 10 11  1  0
 11 12  1  0
 12 13  1  0
 13 14  1  0
 14 15  1  0
 15 16  1  0
 16 17  1  0
 17 18  1  0
 18 19  2  0
 19 20  1  0
 20 21  2  0
 21 22  1  0
 22 23  2  0
 23 24  1  0
 24 25  2  0
 25 26  1  0
 25 27  1  0
 27 28  2  0
 28 29  1  0
 29 30  1  0
 30 31  1  0
 31 32  1  0
 32 33  1  0
 33 34  1  0
 33 35  1  0
 35 36  1  0
 36 37  1  0
 37 38  1  0
 37 39  1  0
 37 40  1  0
 40 41  1  0
 29 42  2  0
 42 43  1  0
 43 44  2  0
 44 18  1  0
 24 19  1  0
 44 27  1  0
 41 33  1  0
  1 45  1  0
  1 46  1  0
  1 47  1  0
  2 48  1  0
  2 49  1  0
  4 50  1  0
  4 51  1  0
  5 52  1  0
  5 53  1  0
  5 54  1  0
  6 55  1  0
  6 56  1  0
  7 57  1  0
  7 58  1  0
  9 59  1  0
  9 60  1  0
 10 61  1  0
 10 62  1  0
 12 63  1  0
 12 64  1  0
 13 65  1  0
 13 66  1  0
 15 67  1  0
 15 68  1  0
 16 69  1  0
 16 70  1  0
 17 71  1  0
 20 72  1  0
 21 73  1  0
 22 74  1  0
 23 75  1  0
 26 76  1  0
 26 77  1  0
 26 78  1  0
 28 79  1  0
 31 80  1  0
 31 81  1  0
 32 82  1  0
 32 83  1  0
 34 84  1  0
 34 85  1  0
 34 86  1  0
 35 87  1  0
 35 88  1  0
 36 89  1  0
 36 90  1  0
 38 91  1  0
 38 92  1  0
 38 93  1  0
 39 94  1  0
 39 95  1  0
 39 96  1  0
 40 97  1  0
 40 98  1  0
 41 99  1  0
 41100  1  0
 42101  1  0
 43102  1  0
M  CHG  3  25   1  33   1  37   1
M  END
>  <UniqueID>  (19) 
19

>  <SMILES>  (19) 
CCN(CC)CCOCCOCCOCCNc1c2ccccc2[n+](C)c2cc(OCC[N+]3(C)CC[N+](C)(C)CC3)ccc12

>  <Energy>  (19) 
159.96557315032865

>  <Genealogy>  (19) 
CCN(CC)CCOCCOCCOCCNc1c2ccccc2[n+](C)c2cc(OCC[N+]3(C)CC[N+](C)(C)CC3)ccc12 (3D coordinates assigned)
CCN(CC)CCOCCOCCOCCNc1c2ccccc2[n+](C)c2cc(OCC[N+]3(C)CC[N+](C)(C)CC3)ccc12 (nonaromatic ring conformer: 159.96557315032865 kcal/mol)

>  <smiles>  (19) 
CCN(CC)CCOCCOCCOCCNc1c2ccccc2[n+](C)c2cc(OCC[N+]3(C)CC[N+](C)(C)CC3)ccc12

>  <score_type>  (19) 
oracle

>  <origin>  (19) 
adg

>  <m_score__min__energy>  (19) 
-9.1600000000000001

>  <m_primary>  (19) 
energy

$$$$
19:0
     RDKit          3D

 51 53  0  0  0  0  0  0  0  0999 V2000
    0.2590   18.4560  -28.1860 C   0  0  0  0  0  0  0  0  0  0  0  0
   -0.8630   18.7340  -27.1930 C   0  0  0  0  0  0  0  0  0  0  0  0
   -1.7520   19.8040  -27.7160 N   0  0  0  0  0  0  0  0  0  0  0  0
   -3.0890   19.7520  -27.0800 C   0  0  0  0  0  0  0  0  0  0  0  0
   -3.1330   18.6900  -25.9830 C   0  0  0  0  0  0  0  0  0  0  0  0
   -1.1660   21.1550  -27.5420 C   0  0  0  0  0  0  0  0  0  0  0  0
   -1.6960   22.1590  -28.5820 C   0  0  0  0  0  0  0  0  0  0  0  0
   -2.9390   22.7110  -28.1780 O   0  0  0  0  0  0  0  0  0  0  0  0
   -2.7900   24.0760  -27.8440 C   0  0  0  0  0  0  0  0  0  0  0  0
   -2.5350   24.8900  -29.0840 C   0  0  0  0  0  0  0  0  0  0  0  0
   -1.4750   25.5670  -29.1550 O   0  0  0  0  0  0  0  0  0  0  0  0
   -3.4780   24.9790  -30.1630 N   0  0  0  0  0  0  0  0  0  0  0  0
   -4.4440   23.9940  -30.5520 C   0  0  0  0  0  0  0  0  0  0  0  0
   -4.0600   22.8370  -31.2480 C   0  0  0  0  0  0  0  0  0  0  0  0
   -5.0120   21.8540  -31.5770 C   0  0  0  0  0  0  0  0  0  0  0  0
   -4.6500   20.6500  -32.2070 C   0  0  0  0  0  0  0  0  0  0  0  0
   -3.4380   20.4430  -32.5020 O   0  0  0  0  0  0  0  0  0  0  0  0
   -5.6060   19.7030  -32.4890 N   0  0  0  0  0  0  0  0  0  0  0  0
   -5.2560   18.5240  -33.1040 C   0  0  0  0  0  0  0  0  0  0  0  0
   -6.2150   17.5530  -33.3920 C   0  0  0  0  0  0  0  0  0  0  0  0
   -7.5440   17.7780  -33.0500 C   0  0  0  0  0  0  0  0  0  0  0  0
   -7.9040   18.9710  -32.4290 C   0  0  0  0  0  0  0  0  0  0  0  0
   -6.9230   19.9360  -32.1480 C   0  0  0  0  0  0  0  0  0  0  0  0
   -7.2860   21.1030  -31.5420 N   0  0  0  0  0  0  0  0  0  0  0  0
   -6.3650   22.0620  -31.2540 C   0  0  0  0  0  0  0  0  0  0  0  0
   -6.7560   23.2530  -30.6240 C   0  0  0  0  0  0  0  0  0  0  0  0
   -5.8040   24.2150  -30.2760 C   0  0  0  0  0  0  0  0  0  0  0  0
   -6.3270   25.6720  -29.4450 Cl  0  0  0  0  0  0  0  0  0  0  0  0
    1.1849   18.2266  -27.6383 H   0  0  0  0  0  0  0  0  0  0  0  0
   -0.0150   17.5986  -28.8183 H   0  0  0  0  0  0  0  0  0  0  0  0
    0.4170   19.3422  -28.8183 H   0  0  0  0  0  0  0  0  0  0  0  0
   -1.4493   17.8160  -27.0397 H   0  0  0  0  0  0  0  0  0  0  0  0
   -0.4266   19.0622  -26.2381 H   0  0  0  0  0  0  0  0  0  0  0  0
   -3.3160   20.7339  -26.6392 H   0  0  0  0  0  0  0  0  0  0  0  0
   -3.8324   19.4930  -27.8482 H   0  0  0  0  0  0  0  0  0  0  0  0
   -3.1127   19.1793  -24.9980 H   0  0  0  0  0  0  0  0  0  0  0  0
   -4.0564   18.1002  -26.0805 H   0  0  0  0  0  0  0  0  0  0  0  0
   -2.2616   18.0258  -26.0805 H   0  0  0  0  0  0  0  0  0  0  0  0
   -1.4162   21.5224  -26.5358 H   0  0  0  0  0  0  0  0  0  0  0  0
   -0.0779   21.0706  -27.6792 H   0  0  0  0  0  0  0  0  0  0  0  0
   -0.9645   22.9719  -28.7007 H   0  0  0  0  0  0  0  0  0  0  0  0
   -1.8447   21.6276  -29.5336 H   0  0  0  0  0  0  0  0  0  0  0  0
   -3.7095   24.4334  -27.3575 H   0  0  0  0  0  0  0  0  0  0  0  0
   -1.9356   24.1868  -27.1601 H   0  0  0  0  0  0  0  0  0  0  0  0
   -3.0081   22.6977  -31.5382 H   0  0  0  0  0  0  0  0  0  0  0  0
   -4.2046   18.3440  -33.3727 H   0  0  0  0  0  0  0  0  0  0  0  0
   -5.9219   16.6152  -33.8865 H   0  0  0  0  0  0  0  0  0  0  0  0
   -8.3074   17.0169  -33.2691 H   0  0  0  0  0  0  0  0  0  0  0  0
   -8.9540   19.1573  -32.1592 H   0  0  0  0  0  0  0  0  0  0  0  0
   -8.2910   21.2640  -31.2940 H   0  0  0  0  0  0  0  0  0  0  0  0
   -7.8187   23.4307  -30.4026 H   0  0  0  0  0  0  0  0  0  0  0  0
  1  2  1  0
  2  3  1  0
  3  4  1  0
  4  5  1  0
  3  6  1  0
  6  7  1  0
  7  8  1  0
  8  9  1  0
  9 10  1  0
 10 11  2  0
 10 12  1  0
 12 13  1  0
 13 14  2  0
 14 15  1  0
 15 16  1  0
 16 17  2  0
 16 18  1  0
 18 19  1  0
 19 20  2  0
 20 21  1  0
 21 22  2  0
 22 23  1  0
 23 24  2  0
 24 25  1  0
 25 26  1  0
 26 27  2  0
 27 28  1  0
 27 13  1  0
 25 15  2  0
 23 18  1  0
  1 29  1  0
  1 30  1  0
  1 31  1  0
  2 32  1  0
  2 33  1  0
  4 34  1  0
  4 35  1  0
  5 36  1  0
  5 37  1  0
  5 38  1  0
  6 39  1  0
  6 40  1  0
  7 41  1  0
  7 42  1  0
  9 43  1  0
  9 44  1  0
 14 45  1  0
 19 46  1  0
 20 47  1  0
 21 48  1  0
 22 49  1  0
 24 50  1  0
 26 51  1  0
M  CHG  2  12  -1  24   1
M  END
>  <UniqueID>  (20) 
20

>  <SMILES>  (20) 
CCN(CC)CCOCC(=O)[N-]c1cc2c(=O)n3ccccc3[nH+]c2cc1Cl

>  <Energy>  (20) 
64.58192854778986

>  <Genealogy>  (20) 
CCN(CC)CCOCC(=O)[N-]c1cc2c(=O)n3ccccc3[nH+]c2cc1Cl (protonated)
CCN(CC)CCOCC(=O)[N-]c1cc2c(=O)n3ccccc3[nH+]c2cc1Cl (3D coordinates assigned)
CCN(CC)CCOCC(=O)[N-]c1cc2c(=O)n3ccccc3[nH+]c2cc1Cl (optimized conformer: 64.58192854778986 kcal/mol)

>  <smiles>  (20) 
CCN(CC)CCOCC(=O)Nc1cc2c(=O)n3ccccc3nc2cc1Cl

>  <score_type>  (20) 
oracle

>  <origin>  (20) 
adg

>  <m_score__min__energy>  (20) 
-9.5700000000000003

>  <m_primary>  (20) 
energy

$$$$
20:0
     RDKit          3D

 55 57  0  0  0  0  0  0  0  0999 V2000
   -2.8200   21.1840  -28.3390 C   0  0  0  0  0  0  0  0  0  0  0  0
   -2.9680   21.0800  -29.8520 C   0  0  0  0  0  0  0  0  0  0  0  0
   -2.6850   22.3810  -30.4700 N   0  0  0  0  0  0  0  0  0  0  0  0
   -1.3710   22.9210  -30.0760 C   0  0  0  0  0  0  0  0  0  0  0  0
   -1.4880   24.1240  -29.1300 C   0  0  0  0  0  0  0  0  0  0  0  0
   -2.6260   24.9010  -29.4340 O   0  0  0  0  0  0  0  0  0  0  0  0
   -3.7120   24.5380  -28.6170 C   0  0  0  0  0  0  0  0  0  0  0  0
   -4.9930   24.6280  -29.4350 C   0  0  0  0  0  0  0  0  0  0  0  0
   -4.6710   24.6050  -30.8090 O   0  0  0  0  0  0  0  0  0  0  0  0
   -5.8550   24.5640  -31.5770 C   0  0  0  0  0  0  0  0  0  0  0  0
   -5.9020   23.2690  -32.3980 C   0  0  0  0  0  0  0  0  0  0  0  0
   -4.8930   22.2800  -31.9710 N   0  0  0  0  0  0  0  0  0  0  0  0
   -5.2310   20.9300  -32.3890 C   0  0  0  0  0  0  0  0  0  0  0  0
   -6.5300   20.3600  -32.2400 C   0  0  0  0  0  0  0  0  0  0  0  0
   -7.6060   21.0910  -31.6820 C   0  0  0  0  0  0  0  0  0  0  0  0
   -8.8760   20.5290  -31.5690 C   0  0  0  0  0  0  0  0  0  0  0  0
   -9.1130   19.2350  -32.0070 C   0  0  0  0  0  0  0  0  0  0  0  0
   -8.0810   18.4860  -32.5620 C   0  0  0  0  0  0  0  0  0  0  0  0
   -6.7680   19.0130  -32.6850 C   0  0  0  0  0  0  0  0  0  0  0  0
   -5.7440   18.2630  -33.2470 N   0  0  0  0  0  0  0  0  0  0  0  0
   -5.9550   16.8450  -33.6190 C   0  0  0  0  0  0  0  0  0  0  0  0
   -4.5290   18.8680  -33.4830 C   0  0  0  0  0  0  0  0  0  0  0  0
   -3.4360   18.3070  -34.1880 C   0  0  0  0  0  0  0  0  0  0  0  0
   -2.3180   19.1350  -34.2230 C   0  0  0  0  0  0  0  0  0  0  0  0
   -2.6850   20.5680  -33.4270 S   0  0  0  0  0  0  0  0  0  0  0  0
   -4.2650   20.1460  -33.0240 C   0  0  0  0  0  0  0  0  0  0  0  0
   -3.6269   20.6170  -27.8518 H   0  0  0  0  0  0  0  0  0  0  0  0
   -1.8467   20.7702  -28.0365 H   0  0  0  0  0  0  0  0  0  0  0  0
   -2.8795   22.2399  -28.0365 H   0  0  0  0  0  0  0  0  0  0  0  0
   -2.2606   20.3310  -30.2375 H   0  0  0  0  0  0  0  0  0  0  0  0
   -3.9972   20.7781  -30.0963 H   0  0  0  0  0  0  0  0  0  0  0  0
   -3.4500   23.0510  -30.2240 H   0  0  0  0  0  0  0  0  0  0  0  0
   -0.8016   22.1280  -29.5691 H   0  0  0  0  0  0  0  0  0  0  0  0
   -0.8634   23.2633  -30.9898 H   0  0  0  0  0  0  0  0  0  0  0  0
   -1.5673   23.7605  -28.0948 H   0  0  0  0  0  0  0  0  0  0  0  0
   -0.5934   24.7524  -29.2519 H   0  0  0  0  0  0  0  0  0  0  0  0
   -3.5752   23.5078  -28.2564 H   0  0  0  0  0  0  0  0  0  0  0  0
   -3.7722   25.2155  -27.7525 H   0  0  0  0  0  0  0  0  0  0  0  0
   -5.6429   23.7734  -29.1954 H   0  0  0  0  0  0  0  0  0  0  0  0
   -5.5187   25.5640  -29.1951 H   0  0  0  0  0  0  0  0  0  0  0  0
   -6.7260   24.6021  -30.9063 H   0  0  0  0  0  0  0  0  0  0  0  0
   -5.8728   25.4260  -32.2601 H   0  0  0  0  0  0  0  0  0  0  0  0
   -6.9006   22.8207  -32.2891 H   0  0  0  0  0  0  0  0  0  0  0  0
   -5.6829   23.5332  -33.4431 H   0  0  0  0  0  0  0  0  0  0  0  0
   -3.9370   22.5710  -32.2600 H   0  0  0  0  0  0  0  0  0  0  0  0
   -4.8510   22.3030  -30.9250 H   0  0  0  0  0  0  0  0  0  0  0  0
   -7.4368   22.1199  -31.3317 H   0  0  0  0  0  0  0  0  0  0  0  0
   -9.6960   21.1158  -31.1294 H   0  0  0  0  0  0  0  0  0  0  0  0
  -10.1192   18.8000  -31.9153 H   0  0  0  0  0  0  0  0  0  0  0  0
   -8.2860   17.4639  -32.9131 H   0  0  0  0  0  0  0  0  0  0  0  0
   -6.0456   16.2363  -32.7072 H   0  0  0  0  0  0  0  0  0  0  0  0
   -6.8764   16.7550  -34.2130 H   0  0  0  0  0  0  0  0  0  0  0  0
   -5.0997   16.4906  -34.2130 H   0  0  0  0  0  0  0  0  0  0  0  0
   -3.4678   17.3145  -34.6613 H   0  0  0  0  0  0  0  0  0  0  0  0
   -1.3541   18.8915  -34.6937 H   0  0  0  0  0  0  0  0  0  0  0  0
  1  2  1  0
  2  3  1  0
  3  4  1  0
  4  5  1  0
  5  6  1  0
  6  7  1  0
  7  8  1  0
  8  9  1  0
  9 10  1  0
 10 11  1  0
 11 12  1  0
 12 13  1  0
 13 14  2  0
 14 15  1  0
 15 16  2  0
 16 17  1  0
 17 18  2  0
 18 19  1  0
 19 20  2  0
 20 21  1  0
 20 22  1  0
 22 23  1  0
 23 24  2  0
 24 25  1  0
 25 26  1  0
 26 13  1  0
 19 14  1  0
 26 22  2  0
  1 27  1  0
  1 28  1  0
  1 29  1  0
  2 30  1  0
  2 31  1  0
  3 32  1  0
  4 33  1  0
  4 34  1  0
  5 35  1  0
  5 36  1  0
  7 37  1  0
  7 38  1  0
  8 39  1  0
  8 40  1  0
 10 41  1  0
 10 42  1  0
 11 43  1  0
 11 44  1  0
 12 45  1  0
 12 46  1  0
 15 47  1  0
 16 48  1  0
 17 49  1  0
 18 50  1  0
 21 51  1  0
 21 52  1  0
 21 53  1  0
 23 54  1  0
 24 55  1  0
M  CHG  2  12   1  20   1
M  END
>  <UniqueID>  (21) 
21

>  <SMILES>  (21) 
CCNCCOCCOCC[NH2+]c1c2ccccc2[n+](C)c2ccsc12

>  <Energy>  (21) 
97.07186027566351

>  <Genealogy>  (21) 
CCNCCOCCOCC[NH2+]c1c2ccccc2[n+](C)c2ccsc12 (protonated)
CCNCCOCCOCC[NH2+]c1c2ccccc2[n+](C)c2ccsc12 (3D coordinates assigned)
CCNCCOCCOCC[NH2+]c1c2ccccc2[n+](C)c2ccsc12 (optimized conformer: 97.07186027566351 kcal/mol)

>  <smiles>  (21) 
CCNCCOCCOCCNc1c2ccccc2[n+](C)c2ccsc12

>  <score_type>  (21) 
oracle

>  <origin>  (21) 
adg

>  <m_score__min__energy>  (21) 
-7.7199999999999998

>  <m_primary>  (21) 
energy

$$$$
21:0
     RDKit          3D

 55 57  0  0  0  0  0  0  0  0999 V2000
   -1.7350   18.8960  -26.7150 C   0  0  0  0  0  0  0  0  0  0  0  0
   -2.7340   19.7750  -27.4680 C   0  0  0  0  0  0  0  0  0  0  0  0
   -2.0850   20.9710  -28.0240 N   0  0  0  0  0  0  0  0  0  0  0  0
   -0.7340   21.3310  -27.5640 C   0  0  0  0  0  0  0  0  0  0  0  0
   -0.8110   22.2480  -26.3520 C   0  0  0  0  0  0  0  0  0  0  0  0
   -2.9000   21.9960  -28.6260 C   0  0  0  0  0  0  0  0  0  0  0  0
   -3.7610   22.6950  -27.8340 N   0  0  0  0  0  0  0  0  0  0  0  0
   -4.5830   23.6590  -28.3230 C   0  0  0  0  0  0  0  0  0  0  0  0
   -4.5750   23.9580  -29.6830 C   0  0  0  0  0  0  0  0  0  0  0  0
   -5.7290   25.3100  -30.3800 Br  0  0  0  0  0  0  0  0  0  0  0  0
   -3.7040   23.2690  -30.5270 C   0  0  0  0  0  0  0  0  0  0  0  0
   -2.8400   22.2870  -30.0120 C   0  0  0  0  0  0  0  0  0  0  0  0
   -1.8550   21.6220  -30.9410 C   0  0  0  0  0  0  0  0  0  0  0  0
   -2.2270   21.8000  -32.3600 N   0  0  0  0  0  0  0  0  0  0  0  0
   -3.2540   20.8830  -32.9170 C   0  0  1  0  0  0  0  0  0  0  0  0
   -3.1620   19.4260  -32.4220 C   0  0  0  0  0  0  0  0  0  0  0  0
   -4.0810   18.5030  -33.2410 C   0  0  0  0  0  0  0  0  0  0  0  0
   -5.3730   19.1920  -33.7260 C   0  0  0  0  0  0  0  0  0  0  0  0
   -5.6940   20.3760  -32.9160 N   0  0  0  0  0  0  0  0  0  0  0  0
   -7.0600   20.6470  -32.5490 C   0  0  0  0  0  0  0  0  0  0  0  0
   -8.0470   19.6620  -32.7180 C   0  0  0  0  0  0  0  0  0  0  0  0
   -9.3730   19.9220  -32.3580 C   0  0  0  0  0  0  0  0  0  0  0  0
   -9.7240   21.1660  -31.8280 C   0  0  0  0  0  0  0  0  0  0  0  0
   -8.7490   22.1530  -31.6580 C   0  0  0  0  0  0  0  0  0  0  0  0
   -7.4230   21.8980  -32.0180 C   0  0  0  0  0  0  0  0  0  0  0  0
   -4.6820   21.4270  -32.7190 C   0  0  0  0  0  0  0  0  0  0  0  0
   -1.8789   19.0226  -25.6318 H   0  0  0  0  0  0  0  0  0  0  0  0
   -1.8970   17.8422  -26.9857 H   0  0  0  0  0  0  0  0  0  0  0  0
   -0.7104   19.1908  -26.9857 H   0  0  0  0  0  0  0  0  0  0  0  0
   -3.1745   19.1921  -28.2903 H   0  0  0  0  0  0  0  0  0  0  0  0
   -3.5104   20.1005  -26.7600 H   0  0  0  0  0  0  0  0  0  0  0  0
   -0.1884   20.4156  -27.2914 H   0  0  0  0  0  0  0  0  0  0  0  0
   -0.2099   21.8570  -28.3756 H   0  0  0  0  0  0  0  0  0  0  0  0
   -0.7604   21.6459  -25.4328 H   0  0  0  0  0  0  0  0  0  0  0  0
    0.0309   22.9556  -26.3735 H   0  0  0  0  0  0  0  0  0  0  0  0
   -1.7591   22.8053  -26.3735 H   0  0  0  0  0  0  0  0  0  0  0  0
   -5.2556   24.2040  -27.6443 H   0  0  0  0  0  0  0  0  0  0  0  0
   -3.6932   23.4957  -31.6033 H   0  0  0  0  0  0  0  0  0  0  0  0
   -0.8598   22.0608  -30.7768 H   0  0  0  0  0  0  0  0  0  0  0  0
   -1.8551   20.5440  -30.7219 H   0  0  0  0  0  0  0  0  0  0  0  0
   -1.3540   21.6710  -32.9250 H   0  0  0  0  0  0  0  0  0  0  0  0
   -3.0250   20.8500  -33.9924 H   0  0  0  0  0  0  0  0  0  0  0  0
   -2.1232   19.0780  -32.5208 H   0  0  0  0  0  0  0  0  0  0  0  0
   -3.4825   19.3937  -31.3702 H   0  0  0  0  0  0  0  0  0  0  0  0
   -3.5239   18.1492  -34.1211 H   0  0  0  0  0  0  0  0  0  0  0  0
   -4.3837   17.6784  -32.5788 H   0  0  0  0  0  0  0  0  0  0  0  0
   -5.2405   19.5016  -34.7732 H   0  0  0  0  0  0  0  0  0  0  0  0
   -6.2015   18.4749  -33.6290 H   0  0  0  0  0  0  0  0  0  0  0  0
   -7.7755   18.6812  -33.1356 H   0  0  0  0  0  0  0  0  0  0  0  0
  -10.1408   19.1459  -32.4923 H   0  0  0  0  0  0  0  0  0  0  0  0
  -10.7673   21.3687  -31.5446 H   0  0  0  0  0  0  0  0  0  0  0  0
   -9.0259   23.1321  -31.2401 H   0  0  0  0  0  0  0  0  0  0  0  0
   -6.6598   22.6790  -31.8856 H   0  0  0  0  0  0  0  0  0  0  0  0
   -4.8602   22.2347  -33.4442 H   0  0  0  0  0  0  0  0  0  0  0  0
   -4.7686   21.7993  -31.6876 H   0  0  0  0  0  0  0  0  0  0  0  0
  1  2  1  0
  2  3  1  0
  3  4  1  0
  4  5  1  0
  3  6  1  0
  6  7  2  0
  7  8  1  0
  8  9  2  0
  9 10  1  0
  9 11  1  0
 11 12  2  0
 12 13  1  0
 13 14  1  0
 14 15  1  0
 15 16  1  0
 16 17  1  0
 17 18  1  0
 18 19  1  0
 19 20  1  0
 20 21  2  0
 21 22  1  0
 22 23  2  0
 23 24  1  0
 24 25  2  0
 19 26  1  0
 12  6  1  0
 26 15  1  0
 25 20  1  0
  1 27  1  0
  1 28  1  0
  1 29  1  0
  2 30  1  0
  2 31  1  0
  4 32  1  0
  4 33  1  0
  5 34  1  0
  5 35  1  0
  5 36  1  0
  8 37  1  0
 11 38  1  0
 13 39  1  0
 13 40  1  0
 14 41  1  0
 15 42  1  6
 16 43  1  0
 16 44  1  0
 17 45  1  0
 17 46  1  0
 18 47  1  0
 18 48  1  0
 21 49  1  0
 22 50  1  0
 23 51  1  0
 24 52  1  0
 25 53  1  0
 26 54  1  0
 26 55  1  0
M  END
>  <UniqueID>  (22) 
22

>  <SMILES>  (22) 
CCN(CC)c1ncc(Br)cc1CN[C@H]1CCCN(c2ccccc2)C1

>  <Energy>  (22) 
66.58459796297508

>  <Genealogy>  (22) 
CCN(CC)c1ncc(Br)cc1CN[C@H]1CCCN(c2ccccc2)C1 (chirality)
CCN(CC)c1ncc(Br)cc1CN[C@H]1CCCN(c2ccccc2)C1 (3D coordinates assigned)
CCN(CC)c1ncc(Br)cc1CN[C@H]1CCCN(c2ccccc2)C1 (nonaromatic ring conformer: 66.58459796297508 kcal/mol)

>  <smiles>  (22) 
CCN(CC)c1ncc(Br)cc1CNC1CCCN(c2ccccc2)C1

>  <score_type>  (22) 
oracle

>  <origin>  (22) 
adg

>  <m_score__min__energy>  (22) 
-8.7699999999999996

>  <m_primary>  (22) 
energy

$$$$
22:0
     RDKit          3D

 34 36  0  0  0  0  0  0  0  0999 V2000
    2.4710   23.7450  -35.7140 C   0  0  0  0  0  0  0  0  0  0  0  0
    1.2790   24.6450  -36.0100 C   0  0  0  0  0  0  0  0  0  0  0  0
    1.5970   26.0310  -35.6260 N   0  0  0  0  0  0  0  0  0  0  0  0
    0.6680   27.0670  -36.1430 C   0  0  2  0  0  0  0  0  0  0  0  0
   -0.5920   26.3480  -36.7100 C   0  0  0  0  0  0  0  0  0  0  0  0
   -1.6150   27.3720  -37.2440 C   0  0  1  0  0  0  0  0  0  0  0  0
   -2.0540   28.3020  -36.0960 C   0  0  0  0  0  0  0  0  0  0  0  0
   -0.8210   29.0410  -35.5350 C   0  0  2  0  0  0  0  0  0  0  0  0
   -0.1680   29.8770  -36.6580 C   0  0  0  0  0  0  0  0  0  0  0  0
    0.2690   28.9470  -37.8120 C   0  0  2  0  0  0  0  0  0  0  0  0
   -0.9640   28.2040  -38.3690 C   0  0  0  0  0  0  0  0  0  0  0  0
    1.2990   27.9210  -37.2850 C   0  0  0  0  0  0  0  0  0  0  0  0
    0.1990   28.0130  -34.9960 C   0  0  0  0  0  0  0  0  0  0  0  0
    2.5971   23.6498  -34.6254 H   0  0  0  0  0  0  0  0  0  0  0  0
    2.2973   22.7508  -36.1514 H   0  0  0  0  0  0  0  0  0  0  0  0
    3.3797   24.1843  -36.1514 H   0  0  0  0  0  0  0  0  0  0  0  0
    1.0498   24.6067  -37.0852 H   0  0  0  0  0  0  0  0  0  0  0  0
    0.4082   24.2978  -35.4345 H   0  0  0  0  0  0  0  0  0  0  0  0
    1.5960   26.0660  -34.5780 H   0  0  0  0  0  0  0  0  0  0  0  0
   -0.2879   25.6811  -37.5302 H   0  0  0  0  0  0  0  0  0  0  0  0
   -1.0619   25.7705  -35.9003 H   0  0  0  0  0  0  0  0  0  0  0  0
   -2.4949   26.8454  -37.6421 H   0  0  0  0  0  0  0  0  0  0  0  0
   -2.7804   29.0357  -36.4755 H   0  0  0  0  0  0  0  0  0  0  0  0
   -2.5196   27.7056  -35.2976 H   0  0  0  0  0  0  0  0  0  0  0  0
   -1.1340   29.7062  -34.7168 H   0  0  0  0  0  0  0  0  0  0  0  0
   -0.8937   30.6123  -37.0357 H   0  0  0  0  0  0  0  0  0  0  0  0
    0.7131   30.3999  -36.2577 H   0  0  0  0  0  0  0  0  0  0  0  0
    0.7271   29.5456  -38.6132 H   0  0  0  0  0  0  0  0  0  0  0  0
   -1.6910   28.9355  -38.7516 H   0  0  0  0  0  0  0  0  0  0  0  0
   -0.6517   27.5360  -39.1852 H   0  0  0  0  0  0  0  0  0  0  0  0
    1.6062   27.2585  -38.1076 H   0  0  0  0  0  0  0  0  0  0  0  0
    2.1740   28.4588  -36.8911 H   0  0  0  0  0  0  0  0  0  0  0  0
    1.0695   28.5458  -34.5857 H   0  0  0  0  0  0  0  0  0  0  0  0
   -0.2793   27.4122  -34.2084 H   0  0  0  0  0  0  0  0  0  0  0  0
  1  2  1  0
  2  3  1  0
  4  3  1  1
  4  5  1  0
  5  6  1  0
  6  7  1  0
  7  8  1  0
  8  9  1  0
  9 10  1  0
 10 11  1  0
 10 12  1  0
  8 13  1  0
 12  4  1  0
 13  4  1  0
 11  6  1  0
  1 14  1  0
  1 15  1  0
  1 16  1  0
  2 17  1  0
  2 18  1  0
  3 19  1  0
  5 20  1  0
  5 21  1  0
  6 22  1  6
  7 23  1  0
  7 24  1  0
  8 25  1  1
  9 26  1  0
  9 27  1  0
 10 28  1  6
 11 29  1  0
 11 30  1  0
 12 31  1  0
 12 32  1  0
 13 33  1  0
 13 34  1  0
M  END
>  <UniqueID>  (23) 
23

>  <SMILES>  (23) 
CCNC12CC3CC(CC(C3)C1)C2

>  <Energy>  (23) 
32.69628659156208

>  <Genealogy>  (23) 
CCNC12CC3CC(CC(C3)C1)C2 (3D coordinates assigned)
CCNC12CC3CC(CC(C3)C1)C2 (nonaromatic ring conformer: 32.69628659156208 kcal/mol)

>  <smiles>  (23) 
CCNC12CC3CC(CC(C3)C1)C2

>  <score_type>  (23) 
oracle

>  <origin>  (23) 
adg

>  <m_score__min__energy>  (23) 
-6.1699999999999999

>  <m_primary>  (23) 
energy

$$$$
23:0
     RDKit          3D

 36 39  0  0  0  0  0  0  0  0999 V2000
   -4.1720   24.3460  -26.7190 C   0  0  0  0  0  0  0  0  0  0  0  0
   -3.0860   23.4850  -27.3960 C   0  0  2  0  0  0  0  0  0  0  0  0
   -1.8060   24.2980  -27.6520 C   0  0  0  0  0  0  0  0  0  0  0  0
   -1.9930   25.2140  -28.8070 C   0  0  0  0  0  0  0  0  0  0  0  0
   -1.2380   26.2110  -28.9520 O   0  0  0  0  0  0  0  0  0  0  0  0
   -2.9800   24.9250  -29.7880 N   0  0  0  0  0  0  0  0  0  0  0  0
   -3.9560   23.8340  -29.6880 C   0  0  1  0  0  0  0  0  0  0  0  0
   -4.0730   23.1990  -31.0700 C   0  0  0  0  0  0  0  0  0  0  0  0
   -2.8210   22.6070  -31.3850 O   0  0  0  0  0  0  0  0  0  0  0  0
   -2.1930   21.7970  -30.4430 C   0  0  0  0  0  0  0  0  0  0  0  0
   -1.1330   20.9850  -30.8430 C   0  0  0  0  0  0  0  0  0  0  0  0
   -0.6160   20.0310  -29.9730 C   0  0  0  0  0  0  0  0  0  0  0  0
   -1.2210   19.8170  -28.7290 C   0  0  0  0  0  0  0  0  0  0  0  0
   -0.7910   18.7530  -27.9190 C   0  0  0  0  0  0  0  0  0  0  0  0
   -1.4540   18.4640  -26.7270 C   0  0  0  0  0  0  0  0  0  0  0  0
   -2.5640   19.2160  -26.3450 C   0  0  0  0  0  0  0  0  0  0  0  0
   -2.9940   20.2870  -27.1310 C   0  0  0  0  0  0  0  0  0  0  0  0
   -2.2970   20.6470  -28.3070 C   0  0  0  0  0  0  0  0  0  0  0  0
   -2.6740   21.7660  -29.1130 C   0  0  0  0  0  0  0  0  0  0  0  0
   -3.5940   22.8170  -28.6390 N   0  0  1  0  0  0  0  0  0  0  0  0
   -4.0735   24.2679  -25.6262 H   0  0  0  0  0  0  0  0  0  0  0  0
   -4.0505   25.3959  -27.0240 H   0  0  0  0  0  0  0  0  0  0  0  0
   -5.1665   23.9883  -27.0240 H   0  0  0  0  0  0  0  0  0  0  0  0
   -2.8214   22.6784  -26.6965 H   0  0  0  0  0  0  0  0  0  0  0  0
   -1.5677   24.8896  -26.7558 H   0  0  0  0  0  0  0  0  0  0  0  0
   -0.9832   23.6039  -27.8783 H   0  0  0  0  0  0  0  0  0  0  0  0
   -4.9251   24.2412  -29.3639 H   0  0  0  0  0  0  0  0  0  0  0  0
   -4.8591   22.4296  -31.0626 H   0  0  0  0  0  0  0  0  0  0  0  0
   -4.3374   23.9589  -31.8201 H   0  0  0  0  0  0  0  0  0  0  0  0
   -0.7042   21.0991  -31.8495 H   0  0  0  0  0  0  0  0  0  0  0  0
    0.2685   19.4446  -30.2625 H   0  0  0  0  0  0  0  0  0  0  0  0
    0.0726   18.1451  -28.2265 H   0  0  0  0  0  0  0  0  0  0  0  0
   -1.1009   17.6418  -26.0873 H   0  0  0  0  0  0  0  0  0  0  0  0
   -3.1036   18.9645  -25.4200 H   0  0  0  0  0  0  0  0  0  0  0  0
   -3.8857   20.8573  -26.8316 H   0  0  0  0  0  0  0  0  0  0  0  0
   -4.4860   22.3270  -28.3990 H   0  0  0  0  0  0  0  0  0  0  0  0
  1  2  1  0
  2  3  1  0
  3  4  1  0
  4  5  2  0
  4  6  1  0
  6  7  1  0
  7  8  1  0
  8  9  1  0
  9 10  1  0
 10 11  2  0
 11 12  1  0
 12 13  2  0
 13 14  1  0
 14 15  2  0
 15 16  1  0
 16 17  2  0
 17 18  1  0
 18 19  2  0
 19 20  1  0
 20  2  1  0
 20  7  1  0
 19 10  1  0
 18 13  1  0
  1 21  1  0
  1 22  1  0
  1 23  1  0
  2 24  1  1
  3 25  1  0
  3 26  1  0
  7 27  1  1
  8 28  1  0
  8 29  1  0
 11 30  1  0
 12 31  1  0
 14 32  1  0
 15 33  1  0
 16 34  1  0
 17 35  1  0
 20 36  1  1
M  CHG  2   6  -1  20   1
M  END
>  <UniqueID>  (24) 
24

>  <SMILES>  (24) 
C[C@@H]1CC(=O)[N-][C@H]2COc3ccc4ccccc4c3[NH+]12

>  <Energy>  (24) 
63.520421061689504

>  <Genealogy>  (24) 
CC1CC(=O)[N-]C2COc3ccc4ccccc4c3[NH+]12 (protonated)
C[C@@H]1CC(=O)[N-][C@H]2COc3ccc4ccccc4c3[NH+]12 (chirality)
C[C@@H]1CC(=O)[N-][C@H]2COc3ccc4ccccc4c3[NH+]12 (3D coordinates assigned)
C[C@@H]1CC(=O)[N-][C@H]2COc3ccc4ccccc4c3[NH+]12 (nonaromatic ring conformer: 63.520421061689504 kcal/mol)

>  <smiles>  (24) 
CC1CC(=O)NC2COc3ccc4ccccc4c3N12

>  <score_type>  (24) 
oracle

>  <origin>  (24) 
adg

>  <m_score__min__energy>  (24) 
-7.9400000000000004

>  <m_primary>  (24) 
energy

$$$$
24:0
     RDKit          3D

 53 56  0  0  0  0  0  0  0  0999 V2000
   -2.6480   25.2300  -26.3800 C   0  0  0  0  0  0  0  0  0  0  0  0
   -1.6160   25.2850  -27.5020 C   0  0  0  0  0  0  0  0  0  0  0  0
   -2.2800   25.2760  -28.8140 N   0  0  0  0  0  0  0  0  0  0  0  0
   -2.3600   23.9150  -29.3640 C   0  0  0  0  0  0  0  0  0  0  0  0
   -3.5490   23.8100  -30.3200 C   0  0  0  0  0  0  0  0  0  0  0  0
   -4.0370   25.1010  -30.6350 O   0  0  0  0  0  0  0  0  0  0  0  0
   -5.3630   25.2840  -30.1740 C   0  0  0  0  0  0  0  0  0  0  0  0
   -6.2840   24.1510  -30.6490 C   0  0  0  0  0  0  0  0  0  0  0  0
   -5.8900   23.6610  -31.9720 N   0  0  0  0  0  0  0  0  0  0  0  0
   -5.9310   22.2710  -32.3460 C   0  0  0  0  0  0  0  0  0  0  0  0
   -7.1270   21.5140  -32.2860 C   0  0  0  0  0  0  0  0  0  0  0  0
   -8.3380   22.1030  -31.8720 C   0  0  0  0  0  0  0  0  0  0  0  0
   -9.5010   21.3440  -31.7670 C   0  0  0  0  0  0  0  0  0  0  0  0
   -9.4800   19.9870  -32.0660 C   0  0  0  0  0  0  0  0  0  0  0  0
   -8.3040   19.3790  -32.5080 C   0  0  0  0  0  0  0  0  0  0  0  0
   -7.1140   20.1270  -32.6710 C   0  0  0  0  0  0  0  0  0  0  0  0
   -5.9550   19.5500  -33.1730 N   0  0  0  0  0  0  0  0  0  0  0  0
   -5.9630   18.2330  -33.8310 C   0  0  0  0  0  0  0  0  0  0  0  0
   -4.7960   20.2780  -33.1050 C   0  0  0  0  0  0  0  0  0  0  0  0
   -4.7740   21.6030  -32.7320 C   0  0  0  0  0  0  0  0  0  0  0  0
   -3.5520   22.0900  -32.7760 O   0  0  0  0  0  0  0  0  0  0  0  0
   -2.7620   21.1130  -33.1590 C   0  0  0  0  0  0  0  0  0  0  0  0
   -1.3800   21.1750  -33.3220 C   0  0  0  0  0  0  0  0  0  0  0  0
   -0.7040   19.9990  -33.6830 C   0  0  0  0  0  0  0  0  0  0  0  0
   -1.4130   18.7920  -33.8540 C   0  0  0  0  0  0  0  0  0  0  0  0
   -2.8090   18.7500  -33.6860 C   0  0  0  0  0  0  0  0  0  0  0  0
   -3.4700   19.9450  -33.3690 C   0  0  0  0  0  0  0  0  0  0  0  0
   -2.1343   25.2574  -25.4077 H   0  0  0  0  0  0  0  0  0  0  0  0
   -3.3247   26.0934  -26.4616 H   0  0  0  0  0  0  0  0  0  0  0  0
   -3.2291   24.2996  -26.4616 H   0  0  0  0  0  0  0  0  0  0  0  0
   -1.0226   26.2059  -27.4030 H   0  0  0  0  0  0  0  0  0  0  0  0
   -0.9629   24.4029  -27.4280 H   0  0  0  0  0  0  0  0  0  0  0  0
   -3.2600   25.6180  -28.6760 H   0  0  0  0  0  0  0  0  0  0  0  0
   -1.4322   23.6866  -29.9091 H   0  0  0  0  0  0  0  0  0  0  0  0
   -2.4928   23.1983  -28.5402 H   0  0  0  0  0  0  0  0  0  0  0  0
   -3.2290   23.3067  -31.2443 H   0  0  0  0  0  0  0  0  0  0  0  0
   -4.3495   23.2314  -29.8359 H   0  0  0  0  0  0  0  0  0  0  0  0
   -5.3596   25.3049  -29.0742 H   0  0  0  0  0  0  0  0  0  0  0  0
   -5.7430   26.2323  -30.5819 H   0  0  0  0  0  0  0  0  0  0  0  0
   -6.2305   23.3208  -29.9293 H   0  0  0  0  0  0  0  0  0  0  0  0
   -7.3093   24.5436  -30.7165 H   0  0  0  0  0  0  0  0  0  0  0  0
   -5.5320   24.3590  -32.6600 H   0  0  0  0  0  0  0  0  0  0  0  0
   -8.3653   23.1754  -31.6287 H   0  0  0  0  0  0  0  0  0  0  0  0
  -10.4393   21.8202  -31.4463 H   0  0  0  0  0  0  0  0  0  0  0  0
  -10.3959   19.3883  -31.9536 H   0  0  0  0  0  0  0  0  0  0  0  0
   -8.3022   18.3023  -32.7330 H   0  0  0  0  0  0  0  0  0  0  0  0
   -5.9678   17.4415  -33.0671 H   0  0  0  0  0  0  0  0  0  0  0  0
   -6.8617   18.1422  -34.4588 H   0  0  0  0  0  0  0  0  0  0  0  0
   -5.0655   18.1313  -34.4588 H   0  0  0  0  0  0  0  0  0  0  0  0
   -0.8342   22.1182  -33.1722 H   0  0  0  0  0  0  0  0  0  0  0  0
    0.3855   20.0190  -33.8334 H   0  0  0  0  0  0  0  0  0  0  0  0
   -0.8689   17.8741  -34.1214 H   0  0  0  0  0  0  0  0  0  0  0  0
   -3.3653   17.8079  -33.7999 H   0  0  0  0  0  0  0  0  0  0  0  0
  1  2  1  0
  2  3  1  0
  3  4  1  0
  4  5  1  0
  5  6  1  0
  6  7  1  0
  7  8  1  0
  8  9  1  0
  9 10  1  0
 10 11  2  0
 11 12  1  0
 12 13  2  0
 13 14  1  0
 14 15  2  0
 15 16  1  0
 16 17  2  0
 17 18  1  0
 17 19  1  0
 19 20  2  0
 20 21  1  0
 21 22  1  0
 22 23  2  0
 23 24  1  0
 24 25  2  0
 25 26  1  0
 26 27  2  0
 20 10  1  0
 27 22  1  0
 16 11  1  0
 27 19  1  0
  1 28  1  0
  1 29  1  0
  1 30  1  0
  2 31  1  0
  2 32  1  0
  3 33  1  0
  4 34  1  0
  4 35  1  0
  5 36  1  0
  5 37  1  0
  7 38  1  0
  7 39  1  0
  8 40  1  0
  8 41  1  0
  9 42  1  0
 12 43  1  0
 13 44  1  0
 14 45  1  0
 15 46  1  0
 18 47  1  0
 18 48  1  0
 18 49  1  0
 23 50  1  0
 24 51  1  0
 25 52  1  0
 26 53  1  0
M  CHG  1  17   1
M  END
>  <UniqueID>  (25) 
25

>  <SMILES>  (25) 
CCNCCOCCNc1c2ccccc2[n+](C)c2c1oc1ccccc12

>  <Energy>  (25) 
111.78659671649795

>  <Genealogy>  (25) 
CCNCCOCCNc1c2ccccc2[n+](C)c2c1oc1ccccc12 (3D coordinates assigned)
CCNCCOCCNc1c2ccccc2[n+](C)c2c1oc1ccccc12 (optimized conformer: 111.78659671649795 kcal/mol)

>  <smiles>  (25) 
CCNCCOCCNc1c2ccccc2[n+](C)c2c1oc1ccccc12

>  <score_type>  (25) 
oracle

>  <origin>  (25) 
adg

>  <m_score__min__energy>  (25) 
-9.25

>  <m_primary>  (25) 
energy

$$$$
25:0
     RDKit          3D

 53 54  0  0  0  0  0  0  0  0999 V2000
   -5.9450   22.8890  -31.9970 C   0  0  0  0  0  0  0  0  0  0  0  0
   -5.9320   24.1500  -31.1470 C   0  0  0  0  0  0  0  0  0  0  0  0
   -4.5930   24.6130  -31.0020 O   0  0  0  0  0  0  0  0  0  0  0  0
   -3.8970   24.5350  -29.7920 C   0  0  0  0  0  0  0  0  0  0  0  0
   -2.6890   24.8920  -29.7220 O   0  0  0  0  0  0  0  0  0  0  0  0
   -4.5980   24.0300  -28.5690 C   0  0  0  0  0  0  0  0  0  0  0  0
   -3.6130   23.6420  -27.4520 C   0  0  0  0  0  0  0  0  0  0  0  0
   -3.1010   22.1940  -27.5460 C   0  0  0  0  0  0  0  0  0  0  0  0
   -3.1240   21.6280  -28.9830 C   0  0  0  0  0  0  0  0  0  0  0  0
   -2.1630   22.3230  -29.8700 N   0  0  0  0  0  0  0  0  0  0  0  0
   -1.1560   21.4190  -30.4600 C   0  0  0  0  0  0  0  0  0  0  0  0
   -1.6760   20.7170  -31.6900 C   0  0  0  0  0  0  0  0  0  0  0  0
   -2.6220   21.3480  -32.5130 C   0  0  0  0  0  0  0  0  0  0  0  0
   -3.2140   20.6500  -33.5680 C   0  0  0  0  0  0  0  0  0  0  0  0
   -2.8630   19.3110  -33.8160 C   0  0  0  0  0  0  0  0  0  0  0  0
   -3.4970   18.5430  -34.8040 O   0  0  0  0  0  0  0  0  0  0  0  0
   -4.5560   17.6190  -34.5450 C   0  0  0  0  0  0  0  0  0  0  0  0
   -5.6500   18.2910  -33.7480 C   0  0  0  0  0  0  0  0  0  0  0  0
   -6.2130   19.4930  -34.2140 C   0  0  0  0  0  0  0  0  0  0  0  0
   -7.1670   20.1710  -33.4500 C   0  0  0  0  0  0  0  0  0  0  0  0
   -7.5700   19.6570  -32.2160 C   0  0  0  0  0  0  0  0  0  0  0  0
   -8.7470   20.5240  -31.2460 Cl  0  0  0  0  0  0  0  0  0  0  0  0
   -7.0280   18.4580  -31.7480 C   0  0  0  0  0  0  0  0  0  0  0  0
   -6.0700   17.7720  -32.5040 C   0  0  0  0  0  0  0  0  0  0  0  0
   -5.4030   16.2780  -31.8540 Cl  0  0  0  0  0  0  0  0  0  0  0  0
   -1.8700   18.7070  -33.0390 C   0  0  0  0  0  0  0  0  0  0  0  0
   -1.2890   19.3980  -31.9730 C   0  0  0  0  0  0  0  0  0  0  0  0
   -5.9541   22.0053  -31.3420 H   0  0  0  0  0  0  0  0  0  0  0  0
   -6.8432   22.8840  -32.6319 H   0  0  0  0  0  0  0  0  0  0  0  0
   -5.0470   22.8655  -32.6319 H   0  0  0  0  0  0  0  0  0  0  0  0
   -6.5376   24.9275  -31.6357 H   0  0  0  0  0  0  0  0  0  0  0  0
   -6.3515   23.9269  -30.1549 H   0  0  0  0  0  0  0  0  0  0  0  0
   -5.2668   24.8184  -28.1933 H   0  0  0  0  0  0  0  0  0  0  0  0
   -5.1607   23.1279  -28.8510 H   0  0  0  0  0  0  0  0  0  0  0  0
   -2.7476   24.3191  -27.5030 H   0  0  0  0  0  0  0  0  0  0  0  0
   -4.1600   23.7257  -26.5013 H   0  0  0  0  0  0  0  0  0  0  0  0
   -2.0653   22.1656  -27.1764 H   0  0  0  0  0  0  0  0  0  0  0  0
   -3.7754   21.5708  -26.9404 H   0  0  0  0  0  0  0  0  0  0  0  0
   -2.8655   20.5594  -28.9477 H   0  0  0  0  0  0  0  0  0  0  0  0
   -4.1339   21.7805  -29.3914 H   0  0  0  0  0  0  0  0  0  0  0  0
   -2.6560   22.8510  -30.6290 H   0  0  0  0  0  0  0  0  0  0  0  0
   -1.6440   23.0310  -29.3010 H   0  0  0  0  0  0  0  0  0  0  0  0
   -0.2688   22.0079  -30.7359 H   0  0  0  0  0  0  0  0  0  0  0  0
   -0.9085   20.6522  -29.7111 H   0  0  0  0  0  0  0  0  0  0  0  0
   -2.8981   22.3963  -32.3263 H   0  0  0  0  0  0  0  0  0  0  0  0
   -3.9572   21.1493  -34.2070 H   0  0  0  0  0  0  0  0  0  0  0  0
   -4.9688   17.2621  -35.5001 H   0  0  0  0  0  0  0  0  0  0  0  0
   -4.1598   16.7708  -33.9675 H   0  0  0  0  0  0  0  0  0  0  0  0
   -5.9004   19.9020  -35.1861 H   0  0  0  0  0  0  0  0  0  0  0  0
   -7.6010   21.1110  -33.8215 H   0  0  0  0  0  0  0  0  0  0  0  0
   -7.3556   18.0505  -30.7802 H   0  0  0  0  0  0  0  0  0  0  0  0
   -1.5443   17.6817  -33.2684 H   0  0  0  0  0  0  0  0  0  0  0  0
   -0.5250   18.9063  -31.3529 H   0  0  0  0  0  0  0  0  0  0  0  0
  1  2  1  0
  2  3  1  0
  3  4  1  0
  4  5  2  0
  4  6  1  0
  6  7  1  0
  7  8  1  0
  8  9  1  0
  9 10  1  0
 10 11  1  0
 11 12  1  0
 12 13  2  0
 13 14  1  0
 14 15  2  0
 15 16  1  0
 16 17  1  0
 17 18  1  0
 18 19  2  0
 19 20  1  0
 20 21  2  0
 21 22  1  0
 21 23  1  0
 23 24  2  0
 24 25  1  0
 15 26  1  0
 26 27  2  0
 27 12  1  0
 24 18  1  0
  1 28  1  0
  1 29  1  0
  1 30  1  0
  2 31  1  0
  2 32  1  0
  6 33  1  0
  6 34  1  0
  7 35  1  0
  7 36  1  0
  8 37  1  0
  8 38  1  0
  9 39  1  0
  9 40  1  0
 10 41  1  0
 10 42  1  0
 11 43  1  0
 11 44  1  0
 13 45  1  0
 14 46  1  0
 17 47  1  0
 17 48  1  0
 19 49  1  0
 20 50  1  0
 23 51  1  0
 26 52  1  0
 27 53  1  0
M  CHG  1  10   1
M  END
>  <UniqueID>  (26) 
26

>  <SMILES>  (26) 
CCOC(=O)CCCC[NH2+]Cc1ccc(OCc2ccc(Cl)cc2Cl)cc1

>  <Energy>  (26) 
43.5187744306282

>  <Genealogy>  (26) 
CCOC(=O)CCCC[NH2+]Cc1ccc(OCc2ccc(Cl)cc2Cl)cc1 (protonated)
CCOC(=O)CCCC[NH2+]Cc1ccc(OCc2ccc(Cl)cc2Cl)cc1 (3D coordinates assigned)
CCOC(=O)CCCC[NH2+]Cc1ccc(OCc2ccc(Cl)cc2Cl)cc1 (optimized conformer: 43.5187744306282 kcal/mol)

>  <smiles>  (26) 
CCOC(=O)CCCCNCc1ccc(OCc2ccc(Cl)cc2Cl)cc1

>  <score_type>  (26) 
oracle

>  <origin>  (26) 
adg

>  <m_score__min__energy>  (26) 
-7.75

>  <m_primary>  (26) 
energy

$$$$
