0:0
     RDKit          3D

 47 50  0  0  0  0  0  0  0  0999 V2000
   -5.3620   25.7130  -30.5440 C   0  0  0  0  0  0  0  0  0  0  0  0
   -4.0020   25.3020  -30.4690 O   0  0  0  0  0  0  0  0  0  0  0  0
   -3.5740   24.0860  -29.9160 C   0  0  0  0  0  0  0  0  0  0  0  0
   -4.0820   23.7100  -28.6520 C   0  0  0  0  0  0  0  0  0  0  0  0
   -3.7000   22.4990  -28.0490 C   0  0  0  0  0  0  0  0  0  0  0  0
   -2.7980   21.6840  -28.7340 C   0  0  0  0  0  0  0  0  0  0  0  0
   -2.2990   22.0390  -29.9610 C   0  0  0  0  0  0  0  0  0  0  0  0
   -2.6630   23.2320  -30.5860 C   0  0  0  0  0  0  0  0  0  0  0  0
   -1.5120   20.9900  -30.3990 C   0  0  0  0  0  0  0  0  0  0  0  0
   -0.8970   20.8100  -31.7580 C   0  0  0  0  0  0  0  0  0  0  0  0
   -1.8560   20.1290  -32.7480 C   0  0  0  0  0  0  0  0  0  0  0  0
   -2.7720   21.0970  -33.3600 N   0  0  0  0  0  0  0  0  0  0  0  0
   -4.1840   21.1290  -33.0800 C   0  0  0  0  0  0  0  0  0  0  0  0
   -4.8300   22.3190  -32.6980 C   0  0  0  0  0  0  0  0  0  0  0  0
   -6.1740   22.3070  -32.3210 C   0  0  0  0  0  0  0  0  0  0  0  0
   -6.9000   21.1080  -32.3320 C   0  0  0  0  0  0  0  0  0  0  0  0
   -8.2430   21.0790  -31.9250 C   0  0  0  0  0  0  0  0  0  0  0  0
   -8.9540   19.8760  -31.9370 C   0  0  0  0  0  0  0  0  0  0  0  0
   -8.3330   18.6970  -32.3560 C   0  0  0  0  0  0  0  0  0  0  0  0
   -6.9960   18.7120  -32.7660 C   0  0  0  0  0  0  0  0  0  0  0  0
   -6.2700   19.9140  -32.7560 C   0  0  0  0  0  0  0  0  0  0  0  0
   -4.9220   19.9370  -33.1400 C   0  0  0  0  0  0  0  0  0  0  0  0
   -1.5670   20.0300  -29.3910 C   0  0  0  0  0  0  0  0  0  0  0  0
   -2.3490   20.4650  -28.3750 N   0  0  0  0  0  0  0  0  0  0  0  0
   -2.7220   19.7030  -27.1880 C   0  0  0  0  0  0  0  0  0  0  0  0
   -5.7648   25.8347  -29.5277 H   0  0  0  0  0  0  0  0  0  0  0  0
   -5.4265   26.6708  -31.0812 H   0  0  0  0  0  0  0  0  0  0  0  0
   -5.9462   24.9513  -31.0812 H   0  0  0  0  0  0  0  0  0  0  0  0
   -4.7871   24.3751  -28.1320 H   0  0  0  0  0  0  0  0  0  0  0  0
   -4.0997   22.2031  -27.0678 H   0  0  0  0  0  0  0  0  0  0  0  0
   -2.2544   23.5021  -31.5710 H   0  0  0  0  0  0  0  0  0  0  0  0
   -0.6219   21.7982  -32.1552 H   0  0  0  0  0  0  0  0  0  0  0  0
   -0.0152   20.1622  -31.6447 H   0  0  0  0  0  0  0  0  0  0  0  0
   -1.2669   19.6439  -33.5402 H   0  0  0  0  0  0  0  0  0  0  0  0
   -2.4539   19.3888  -32.1961 H   0  0  0  0  0  0  0  0  0  0  0  0
   -2.4360   21.5660  -34.2310 H   0  0  0  0  0  0  0  0  0  0  0  0
   -4.2714   23.2666  -32.6964 H   0  0  0  0  0  0  0  0  0  0  0  0
   -6.6653   23.2421  -32.0141 H   0  0  0  0  0  0  0  0  0  0  0  0
   -8.7369   22.0052  -31.5959 H   0  0  0  0  0  0  0  0  0  0  0  0
  -10.0058   19.8574  -31.6155 H   0  0  0  0  0  0  0  0  0  0  0  0
   -8.8978   17.7531  -32.3635 H   0  0  0  0  0  0  0  0  0  0  0  0
   -6.5124   17.7810  -33.0968 H   0  0  0  0  0  0  0  0  0  0  0  0
   -4.4389   19.0133  -33.4912 H   0  0  0  0  0  0  0  0  0  0  0  0
   -1.0501   19.0594  -29.4168 H   0  0  0  0  0  0  0  0  0  0  0  0
   -2.4448   20.2693  -26.2866 H   0  0  0  0  0  0  0  0  0  0  0  0
   -3.8079   19.5275  -27.1912 H   0  0  0  0  0  0  0  0  0  0  0  0
   -2.1945   18.7377  -27.1912 H   0  0  0  0  0  0  0  0  0  0  0  0
  1  2  1  0
  2  3  1  0
  3  4  2  0
  4  5  1  0
  5  6  2  0
  6  7  1  0
  7  8  2  0
  7  9  1  0
  9 10  1  0
 10 11  1  0
 11 12  1  0
 12 13  1  0
 13 14  2  0
 14 15  1  0
 15 16  2  0
 16 17  1  0
 17 18  2  0
 18 19  1  0
 19 20  2  0
 20 21  1  0
 21 22  2  0
  9 23  2  0
 23 24  1  0
 24 25  1  0
  8  3  1  0
 22 13  1  0
 24  6  1  0
 21 16  1  0
  1 26  1  0
  1 27  1  0
  1 28  1  0
  4 29  1  0
  5 30  1  0
  8 31  1  0
 10 32  1  0
 10 33  1  0
 11 34  1  0
 11 35  1  0
 12 36  1  0
 14 37  1  0
 15 38  1  0
 17 39  1  0
 18 40  1  0
 19 41  1  0
 20 42  1  0
 22 43  1  0
 23 44  1  0
 25 45  1  0
 25 46  1  0
 25 47  1  0
M  END
>  <UniqueID>  (1) 
1

>  <SMILES>  (1) 
COc1ccc2c(c1)c(CCNc1ccc3ccccc3c1)cn2C

>  <Energy>  (1) 
79.6933511503591

>  <Genealogy>  (1) 
COc1ccc2c(c1)c(CCNc1ccc3ccccc3c1)cn2C (3D coordinates assigned)
COc1ccc2c(c1)c(CCNc1ccc3ccccc3c1)cn2C (optimized conformer: 79.6933511503591 kcal/mol)

>  <smiles>  (1) 
COc1ccc2c(c1)c(CCNc1ccc3ccccc3c1)cn2C

>  <score_type>  (1) 
oracle

>  <origin>  (1) 
adg

>  <m_score__min__energy>  (1) 
-9.5

>  <m_primary>  (1) 
energy

$$$$
1:0
     RDKit          3D

 49 51  0  0  0  0  0  0  0  0999 V2000
   -1.8240   25.3320  -26.7970 C   0  0  0  0  0  0  0  0  0  0  0  0
   -3.1310   25.3080  -26.0080 C   0  0  0  0  0  0  0  0  0  0  0  0
   -4.2460   24.8390  -26.8500 N   0  0  0  0  0  0  0  0  0  0  0  0
   -3.8260   23.7650  -27.7760 C   0  0  0  0  0  0  0  0  0  0  0  0
   -4.4460   23.9120  -29.1770 C   0  0  0  0  0  0  0  0  0  0  0  0
   -5.5780   24.8540  -29.1540 N   0  0  0  0  0  0  0  0  0  0  0  0
   -5.8120   25.5040  -30.4510 C   0  0  0  0  0  0  0  0  0  0  0  0
   -6.0390   24.4710  -31.5580 C   0  0  0  0  0  0  0  0  0  0  0  0
   -6.5470   23.2250  -30.9860 N   0  0  0  0  0  0  0  0  0  0  0  0
   -6.4770   21.9900  -31.7150 C   0  0  0  0  0  0  0  0  0  0  0  0
   -5.2500   21.4570  -32.1800 C   0  0  0  0  0  0  0  0  0  0  0  0
   -4.0420   22.1600  -31.9950 C   0  0  0  0  0  0  0  0  0  0  0  0
   -2.8370   21.6280  -32.4510 C   0  0  0  0  0  0  0  0  0  0  0  0
   -2.8120   20.3980  -33.1000 C   0  0  0  0  0  0  0  0  0  0  0  0
   -3.9930   19.6870  -33.3110 C   0  0  0  0  0  0  0  0  0  0  0  0
   -5.2390   20.1950  -32.8700 C   0  0  0  0  0  0  0  0  0  0  0  0
   -6.4220   19.5050  -33.0910 N   0  0  0  0  0  0  0  0  0  0  0  0
   -6.4320   18.2170  -33.8080 C   0  0  0  0  0  0  0  0  0  0  0  0
   -7.5850   20.0540  -32.6180 C   0  0  0  0  0  0  0  0  0  0  0  0
   -8.8870   19.5790  -32.6510 C   0  0  0  0  0  0  0  0  0  0  0  0
   -9.6650   20.4480  -32.0330 O   0  0  0  0  0  0  0  0  0  0  0  0
   -8.9400   21.4590  -31.5990 C   0  0  0  0  0  0  0  0  0  0  0  0
   -7.6250   21.2450  -31.9560 C   0  0  0  0  0  0  0  0  0  0  0  0
   -0.9743   25.3476  -26.0986 H   0  0  0  0  0  0  0  0  0  0  0  0
   -1.7616   24.4349  -27.4304 H   0  0  0  0  0  0  0  0  0  0  0  0
   -1.7945   26.2308  -27.4304 H   0  0  0  0  0  0  0  0  0  0  0  0
   -3.0199   24.6312  -25.1480 H   0  0  0  0  0  0  0  0  0  0  0  0
   -3.3541   26.3298  -25.6671 H   0  0  0  0  0  0  0  0  0  0  0  0
   -4.6570   25.6440  -27.3780 H   0  0  0  0  0  0  0  0  0  0  0  0
   -4.9910   24.4570  -26.2210 H   0  0  0  0  0  0  0  0  0  0  0  0
   -2.7305   23.7913  -27.8715 H   0  0  0  0  0  0  0  0  0  0  0  0
   -4.1752   22.8098  -27.3569 H   0  0  0  0  0  0  0  0  0  0  0  0
   -3.6802   24.2860  -29.8724 H   0  0  0  0  0  0  0  0  0  0  0  0
   -4.8138   22.9282  -29.5038 H   0  0  0  0  0  0  0  0  0  0  0  0
   -6.4450   24.3160  -28.9150 H   0  0  0  0  0  0  0  0  0  0  0  0
   -6.7006   26.1478  -30.3740 H   0  0  0  0  0  0  0  0  0  0  0  0
   -4.9222   26.0978  -30.7073 H   0  0  0  0  0  0  0  0  0  0  0  0
   -6.7703   24.8651  -32.2790 H   0  0  0  0  0  0  0  0  0  0  0  0
   -5.0837   24.2711  -32.0653 H   0  0  0  0  0  0  0  0  0  0  0  0
   -6.7030   23.1900  -29.9530 H   0  0  0  0  0  0  0  0  0  0  0  0
   -4.0505   23.1356  -31.4870 H   0  0  0  0  0  0  0  0  0  0  0  0
   -1.9005   22.1841  -32.2967 H   0  0  0  0  0  0  0  0  0  0  0  0
   -1.8547   19.9835  -33.4490 H   0  0  0  0  0  0  0  0  0  0  0  0
   -3.9560   18.7167  -33.8279 H   0  0  0  0  0  0  0  0  0  0  0  0
   -6.4384   17.3922  -33.0802 H   0  0  0  0  0  0  0  0  0  0  0  0
   -7.3306   18.1558  -34.4394 H   0  0  0  0  0  0  0  0  0  0  0  0
   -5.5344   18.1419  -34.4394 H   0  0  0  0  0  0  0  0  0  0  0  0
   -9.2162   18.6370  -33.1140 H   0  0  0  0  0  0  0  0  0  0  0  0
   -9.3203   22.3293  -31.0441 H   0  0  0  0  0  0  0  0  0  0  0  0
  1  2  1  0
  2  3  1  0
  3  4  1  0
  4  5  1  0
  5  6  1  0
  6  7  1  0
  7  8  1  0
  8  9  1  0
  9 10  1  0
 10 11  2  0
 11 12  1  0
 12 13  2  0
 13 14  1  0
 14 15  2  0
 15 16  1  0
 16 17  2  0
 17 18  1  0
 17 19  1  0
 19 20  2  0
 20 21  1  0
 21 22  1  0
 22 23  2  0
 23 10  1  0
 16 11  1  0
 23 19  1  0
  1 24  1  0
  1 25  1  0
  1 26  1  0
  2 27  1  0
  2 28  1  0
  3 29  1  0
  3 30  1  0
  4 31  1  0
  4 32  1  0
  5 33  1  0
  5 34  1  0
  6 35  1  0
  7 36  1  0
  7 37  1  0
  8 38  1  0
  8 39  1  0
  9 40  1  0
 12 41  1  0
 13 42  1  0
 14 43  1  0
 15 44  1  0
 18 45  1  0
 18 46  1  0
 18 47  1  0
 20 48  1  0
 22 49  1  0
M  CHG  2   3   1  17   1
M  END
>  <UniqueID>  (2) 
2

>  <SMILES>  (2) 
CC[NH2+]CCNCCNc1c2ccccc2[n+](C)c2cocc12

>  <Energy>  (2) 
96.38391768260406

>  <Genealogy>  (2) 
CC[NH2+]CCNCCNc1c2ccccc2[n+](C)c2cocc12 (protonated)
CC[NH2+]CCNCCNc1c2ccccc2[n+](C)c2cocc12 (3D coordinates assigned)
CC[NH2+]CCNCCNc1c2ccccc2[n+](C)c2cocc12 (optimized conformer: 96.38391768260406 kcal/mol)

>  <smiles>  (2) 
CCNCCNCCNc1c2ccccc2[n+](C)c2cocc12

>  <score_type>  (2) 
oracle

>  <origin>  (2) 
adg

>  <m_score__min__energy>  (2) 
-7.8700000000000001

>  <m_primary>  (2) 
energy

$$$$
2:0
     RDKit          3D

 58 60  0  0  0  0  0  0  0  0999 V2000
    1.2600   25.5420  -35.7800 C   0  0  0  0  0  0  0  0  0  0  0  0
    0.2820   24.4270  -36.1210 C   0  0  0  0  0  0  0  0  0  0  0  0
    0.7230   23.2240  -35.5270 O   0  0  0  0  0  0  0  0  0  0  0  0
    2.0790   22.9710  -35.8540 C   0  0  0  0  0  0  0  0  0  0  0  0
    2.3400   21.4680  -35.9010 C   0  0  0  0  0  0  0  0  0  0  0  0
    1.1690   20.8010  -36.3200 O   0  0  0  0  0  0  0  0  0  0  0  0
    1.0200   19.6020  -35.5920 C   0  0  0  0  0  0  0  0  0  0  0  0
   -0.0760   19.7950  -34.5380 C   0  0  0  0  0  0  0  0  0  0  0  0
   -0.5950   21.1740  -34.5150 N   0  0  0  0  0  0  0  0  0  0  0  0
   -1.2490   21.5320  -33.2340 C   0  0  0  0  0  0  0  0  0  0  0  0
   -2.4690   20.6440  -32.9360 C   0  0  0  0  0  0  0  0  0  0  0  0
   -3.6990   21.2390  -33.4630 N   0  0  0  0  0  0  0  0  0  0  0  0
   -4.9940   20.8440  -32.9760 C   0  0  0  0  0  0  0  0  0  0  0  0
   -5.4920   19.5570  -33.2400 C   0  0  0  0  0  0  0  0  0  0  0  0
   -4.6740   18.5730  -33.8360 C   0  0  0  0  0  0  0  0  0  0  0  0
   -5.1570   17.2870  -34.0600 C   0  0  0  0  0  0  0  0  0  0  0  0
   -6.4510   16.9520  -33.6760 C   0  0  0  0  0  0  0  0  0  0  0  0
   -7.2730   17.9040  -33.0780 C   0  0  0  0  0  0  0  0  0  0  0  0
   -6.8230   19.2340  -32.8670 C   0  0  0  0  0  0  0  0  0  0  0  0
   -7.6380   20.1950  -32.2990 N   0  0  0  0  0  0  0  0  0  0  0  0
   -9.0940   19.9620  -32.1870 C   0  0  0  0  0  0  0  0  0  0  0  0
   -7.0900   21.3820  -31.8480 C   0  0  0  0  0  0  0  0  0  0  0  0
   -7.8190   22.2760  -31.0230 C   0  0  0  0  0  0  0  0  0  0  0  0
   -7.2720   23.4940  -30.6200 C   0  0  0  0  0  0  0  0  0  0  0  0
   -5.9820   23.8460  -31.0070 C   0  0  0  0  0  0  0  0  0  0  0  0
   -5.2980   25.3780  -30.4950 Cl  0  0  0  0  0  0  0  0  0  0  0  0
   -5.2260   22.9690  -31.7820 C   0  0  0  0  0  0  0  0  0  0  0  0
   -5.7600   21.7330  -32.2030 C   0  0  0  0  0  0  0  0  0  0  0  0
    1.3424   25.6359  -34.6871 H   0  0  0  0  0  0  0  0  0  0  0  0
    2.2475   25.3057  -36.2032 H   0  0  0  0  0  0  0  0  0  0  0  0
    0.8970   26.4902  -36.2032 H   0  0  0  0  0  0  0  0  0  0  0  0
   -0.7162   24.6829  -35.7362 H   0  0  0  0  0  0  0  0  0  0  0  0
    0.2299   24.3025  -37.2127 H   0  0  0  0  0  0  0  0  0  0  0  0
    2.3031   23.4093  -36.8377 H   0  0  0  0  0  0  0  0  0  0  0  0
    2.7232   23.4226  -35.0851 H   0  0  0  0  0  0  0  0  0  0  0  0
    3.1547   21.2591  -36.6099 H   0  0  0  0  0  0  0  0  0  0  0  0
    2.6260   21.1136  -34.8997 H   0  0  0  0  0  0  0  0  0  0  0  0
    0.7363   18.7879  -36.2752 H   0  0  0  0  0  0  0  0  0  0  0  0
    1.9694   19.3439  -35.1000 H   0  0  0  0  0  0  0  0  0  0  0  0
   -0.9060   19.1086  -34.7614 H   0  0  0  0  0  0  0  0  0  0  0  0
    0.3652   19.5856  -33.5524 H   0  0  0  0  0  0  0  0  0  0  0  0
    0.1780   21.8380  -34.7580 H   0  0  0  0  0  0  0  0  0  0  0  0
   -1.3060   21.2530  -35.2790 H   0  0  0  0  0  0  0  0  0  0  0  0
   -0.5191   21.4162  -32.4192 H   0  0  0  0  0  0  0  0  0  0  0  0
   -1.5995   22.5717  -33.3130 H   0  0  0  0  0  0  0  0  0  0  0  0
   -2.3184   19.6592  -33.4024 H   0  0  0  0  0  0  0  0  0  0  0  0
   -2.5696   20.5454  -31.8451 H   0  0  0  0  0  0  0  0  0  0  0  0
   -3.6380   21.9410  -34.2340 H   0  0  0  0  0  0  0  0  0  0  0  0
   -3.6435   18.8253  -34.1266 H   0  0  0  0  0  0  0  0  0  0  0  0
   -4.5146   16.5349  -34.5412 H   0  0  0  0  0  0  0  0  0  0  0  0
   -6.8264   15.9320  -33.8451 H   0  0  0  0  0  0  0  0  0  0  0  0
   -8.2884   17.6206  -32.7637 H   0  0  0  0  0  0  0  0  0  0  0  0
   -9.3775   19.9166  -31.1251 H   0  0  0  0  0  0  0  0  0  0  0  0
   -9.6357   20.7849  -32.6763 H   0  0  0  0  0  0  0  0  0  0  0  0
   -9.3519   19.0112  -32.6763 H   0  0  0  0  0  0  0  0  0  0  0  0
   -8.8333   22.0041  -30.6953 H   0  0  0  0  0  0  0  0  0  0  0  0
   -7.8623   24.1792  -29.9939 H   0  0  0  0  0  0  0  0  0  0  0  0
   -4.2003   23.2437  -32.0691 H   0  0  0  0  0  0  0  0  0  0  0  0
  1  2  1  0
  2  3  1  0
  3  4  1  0
  4  5  1  0
  5  6  1  0
  6  7  1  0
  7  8  1  0
  8  9  1  0
  9 10  1  0
 10 11  1  0
 11 12  1  0
 12 13  1  0
 13 14  2  0
 14 15  1  0
 15 16  2  0
 16 17  1  0
 17 18  2  0
 18 19  1  0
 19 20  2  0
 20 21  1  0
 20 22  1  0
 22 23  2  0
 23 24  1  0
 24 25  2  0
 25 26  1  0
 25 27  1  0
 27 28  2  0
 28 13  1  0
 19 14  1  0
 28 22  1  0
  1 29  1  0
  1 30  1  0
  1 31  1  0
  2 32  1  0
  2 33  1  0
  4 34  1  0
  4 35  1  0
  5 36  1  0
  5 37  1  0
  7 38  1  0
  7 39  1  0
  8 40  1  0
  8 41  1  0
  9 42  1  0
  9 43  1  0
 10 44  1  0
 10 45  1  0
 11 46  1  0
 11 47  1  0
 12 48  1  0
 15 49  1  0
 16 50  1  0
 17 51  1  0
 18 52  1  0
 21 53  1  0
 21 54  1  0
 21 55  1  0
 23 56  1  0
 24 57  1  0
 27 58  1  0
M  CHG  2   9   1  20   1
M  END
>  <UniqueID>  (3) 
3

>  <SMILES>  (3) 
CCOCCOCC[NH2+]CCNc1c2ccccc2[n+](C)c2ccc(Cl)cc12

>  <Energy>  (3) 
82.41383238171815

>  <Genealogy>  (3) 
CCOCCOCC[NH2+]CCNc1c2ccccc2[n+](C)c2ccc(Cl)cc12 (protonated)
CCOCCOCC[NH2+]CCNc1c2ccccc2[n+](C)c2ccc(Cl)cc12 (3D coordinates assigned)
CCOCCOCC[NH2+]CCNc1c2ccccc2[n+](C)c2ccc(Cl)cc12 (optimized conformer: 82.41383238171815 kcal/mol)

>  <smiles>  (3) 
CCOCCOCCNCCNc1c2ccccc2[n+](C)c2ccc(Cl)cc12

>  <score_type>  (3) 
oracle

>  <origin>  (3) 
adg

>  <m_score__min__energy>  (3) 
-8.7699999999999996

>  <m_primary>  (3) 
energy

$$$$
3:0
     RDKit          3D

 63 65  0  0  0  0  0  0  0  0999 V2000
   -0.4890   22.1780  -29.4470 C   0  0  0  0  0  0  0  0  0  0  0  0
    0.1310   22.9870  -28.3140 C   0  0  0  0  0  0  0  0  0  0  0  0
    0.2360   24.3510  -28.6820 O   0  0  0  0  0  0  0  0  0  0  0  0
   -0.0790   25.2060  -27.5950 C   0  0  0  0  0  0  0  0  0  0  0  0
   -1.5020   25.7630  -27.7240 C   0  0  0  0  0  0  0  0  0  0  0  0
   -2.0360   25.4830  -29.0070 O   0  0  0  0  0  0  0  0  0  0  0  0
   -3.0580   24.5070  -28.9530 C   0  0  0  0  0  0  0  0  0  0  0  0
   -3.2330   23.8330  -30.3170 C   0  0  0  0  0  0  0  0  0  0  0  0
   -4.3190   24.3880  -31.0340 O   0  0  0  0  0  0  0  0  0  0  0  0
   -5.5180   24.2740  -30.2930 C   0  0  0  0  0  0  0  0  0  0  0  0
   -6.5400   23.4870  -31.1160 C   0  0  0  0  0  0  0  0  0  0  0  0
   -5.9460   22.9640  -32.3500 N   0  0  0  0  0  0  0  0  0  0  0  0
   -5.9160   21.5580  -32.6530 C   0  0  0  0  0  0  0  0  0  0  0  0
   -4.7380   20.9510  -33.1260 C   0  0  0  0  0  0  0  0  0  0  0  0
   -4.7090   19.5440  -33.3100 C   0  0  0  0  0  0  0  0  0  0  0  0
   -5.8090   18.7770  -32.9780 N   0  0  0  0  0  0  0  0  0  0  0  0
   -5.6900   17.3040  -32.9000 C   0  0  0  0  0  0  0  0  0  0  0  0
   -7.0210   19.3850  -32.7120 C   0  0  0  0  0  0  0  0  0  0  0  0
   -8.2280   18.6440  -32.6380 C   0  0  0  0  0  0  0  0  0  0  0  0
   -9.4330   19.2630  -32.3060 C   0  0  0  0  0  0  0  0  0  0  0  0
   -9.4710   20.6290  -32.0490 C   0  0  0  0  0  0  0  0  0  0  0  0
   -8.3090   21.3900  -32.1510 C   0  0  0  0  0  0  0  0  0  0  0  0
   -7.0830   20.7880  -32.5070 C   0  0  0  0  0  0  0  0  0  0  0  0
   -3.4140   18.9160  -33.8210 C   0  0  0  0  0  0  0  0  0  0  0  0
   -2.2840   18.9690  -32.7770 C   0  0  0  0  0  0  0  0  0  0  0  0
   -1.4660   20.2760  -32.7700 C   0  0  0  0  0  0  0  0  0  0  0  0
   -2.2990   21.5450  -32.5010 C   0  0  0  0  0  0  0  0  0  0  0  0
   -3.5020   21.7860  -33.4500 C   0  0  0  0  0  0  0  0  0  0  0  0
   -1.1072   21.3714  -29.0260 H   0  0  0  0  0  0  0  0  0  0  0  0
   -1.1165   22.8357  -30.0664 H   0  0  0  0  0  0  0  0  0  0  0  0
    0.3092   21.7430  -30.0664 H   0  0  0  0  0  0  0  0  0  0  0  0
   -0.5019   22.9008  -27.4184 H   0  0  0  0  0  0  0  0  0  0  0  0
    1.1373   22.5952  -28.1045 H   0  0  0  0  0  0  0  0  0  0  0  0
    0.0005   24.6378  -26.6565 H   0  0  0  0  0  0  0  0  0  0  0  0
    0.6275   26.0492  -27.5980 H   0  0  0  0  0  0  0  0  0  0  0  0
   -2.1416   25.3003  -26.9580 H   0  0  0  0  0  0  0  0  0  0  0  0
   -1.4684   26.8537  -27.5856 H   0  0  0  0  0  0  0  0  0  0  0  0
   -2.7915   23.7456  -28.2052 H   0  0  0  0  0  0  0  0  0  0  0  0
   -4.0027   24.9980  -28.6765 H   0  0  0  0  0  0  0  0  0  0  0  0
   -2.3118   23.9674  -30.9029 H   0  0  0  0  0  0  0  0  0  0  0  0
   -3.4389   22.7653  -30.1505 H   0  0  0  0  0  0  0  0  0  0  0  0
   -5.3192   23.7455  -29.3490 H   0  0  0  0  0  0  0  0  0  0  0  0
   -5.9133   25.2759  -30.0697 H   0  0  0  0  0  0  0  0  0  0  0  0
   -6.9124   22.6453  -30.5136 H   0  0  0  0  0  0  0  0  0  0  0  0
   -7.3612   24.1663  -31.3885 H   0  0  0  0  0  0  0  0  0  0  0  0
   -5.6920   23.6410  -33.1020 H   0  0  0  0  0  0  0  0  0  0  0  0
   -5.6649   16.9935  -31.8450 H   0  0  0  0  0  0  0  0  0  0  0  0
   -6.5535   16.8395  -33.3985 H   0  0  0  0  0  0  0  0  0  0  0  0
   -4.7631   16.9841  -33.3985 H   0  0  0  0  0  0  0  0  0  0  0  0
   -8.2136   17.5639  -32.8457 H   0  0  0  0  0  0  0  0  0  0  0  0
  -10.3566   18.6684  -32.2473 H   0  0  0  0  0  0  0  0  0  0  0  0
  -10.4192   21.1088  -31.7650 H   0  0  0  0  0  0  0  0  0  0  0  0
   -8.3471   22.4712  -31.9521 H   0  0  0  0  0  0  0  0  0  0  0  0
   -3.6087   17.8642  -34.0776 H   0  0  0  0  0  0  0  0  0  0  0  0
   -3.0862   19.4913  -34.6994 H   0  0  0  0  0  0  0  0  0  0  0  0
   -2.7331   18.8419  -31.7809 H   0  0  0  0  0  0  0  0  0  0  0  0
   -1.5804   18.1666  -33.0437 H   0  0  0  0  0  0  0  0  0  0  0  0
   -0.6968   20.1967  -31.9876 H   0  0  0  0  0  0  0  0  0  0  0  0
   -1.0407   20.3866  -33.7784 H   0  0  0  0  0  0  0  0  0  0  0  0
   -2.6887   21.4798  -31.4744 H   0  0  0  0  0  0  0  0  0  0  0  0
   -1.6146   22.3891  -32.6716 H   0  0  0  0  0  0  0  0  0  0  0  0
   -3.7795   22.8488  -33.3906 H   0  0  0  0  0  0  0  0  0  0  0  0
   -3.1739   21.4840  -34.4556 H   0  0  0  0  0  0  0  0  0  0  0  0
  1  2  1  0
  2  3  1  0
  3  4  1  0
  4  5  1  0
  5  6  1  0
  6  7  1  0
  7  8  1  0
  8  9  1  0
  9 10  1  0
 10 11  1  0
 11 12  1  0
 12 13  1  0
 13 14  2  0
 14 15  1  0
 15 16  2  0
 16 17  1  0
 16 18  1  0
 18 19  2  0
 19 20  1  0
 20 21  2  0
 21 22  1  0
 22 23  2  0
 15 24  1  0
 24 25  1  0
 25 26  1  0
 26 27  1  0
 27 28  1  0
 23 13  1  0
 28 14  1  0
 23 18  1  0
  1 29  1  0
  1 30  1  0
  1 31  1  0
  2 32  1  0
  2 33  1  0
  4 34  1  0
  4 35  1  0
  5 36  1  0
  5 37  1  0
  7 38  1  0
  7 39  1  0
  8 40  1  0
  8 41  1  0
 10 42  1  0
 10 43  1  0
 11 44  1  0
 11 45  1  0
 12 46  1  0
 17 47  1  0
 17 48  1  0
 17 49  1  0
 19 50  1  0
 20 51  1  0
 21 52  1  0
 22 53  1  0
 24 54  1  0
 24 55  1  0
 25 56  1  0
 25 57  1  0
 26 58  1  0
 26 59  1  0
 27 60  1  0
 27 61  1  0
 28 62  1  0
 28 63  1  0
M  CHG  1  16   1
M  END
>  <UniqueID>  (4) 
4

>  <SMILES>  (4) 
CCOCCOCCOCCNc1c2c([n+](C)c3ccccc13)CCCCC2

>  <Energy>  (4) 
91.38579300231432

>  <Genealogy>  (4) 
CCOCCOCCOCCNc1c2c([n+](C)c3ccccc13)CCCCC2 (3D coordinates assigned)
CCOCCOCCOCCNc1c2c([n+](C)c3ccccc13)CCCCC2 (nonaromatic ring conformer: 91.38579300231432 kcal/mol)

>  <smiles>  (4) 
CCOCCOCCOCCNc1c2c([n+](C)c3ccccc13)CCCCC2

>  <score_type>  (4) 
oracle

>  <origin>  (4) 
adg

>  <m_score__min__energy>  (4) 
-7.5800000000000001

>  <m_primary>  (4) 
energy

$$$$
4:0
     RDKit          3D

 43 45  0  0  0  0  0  0  0  0999 V2000
   -8.9170   18.6660  -31.7030 C   0  0  0  0  0  0  0  0  0  0  0  0
   -7.8740   19.4250  -32.3930 N   0  0  0  0  0  0  0  0  0  0  0  0
   -6.7230   18.9740  -32.9500 C   0  0  0  0  0  0  0  0  0  0  0  0
   -6.3150   17.5580  -33.0760 C   0  0  0  0  0  0  0  0  0  0  0  0
   -6.7960   16.7520  -34.1200 C   0  0  0  0  0  0  0  0  0  0  0  0
   -6.3720   15.4250  -34.2170 C   0  0  0  0  0  0  0  0  0  0  0  0
   -5.4880   14.9220  -33.3140 N   0  0  0  0  0  0  0  0  0  0  0  0
   -4.9920   15.6840  -32.3050 C   0  0  0  0  0  0  0  0  0  0  0  0
   -5.3900   17.0170  -32.1720 C   0  0  0  0  0  0  0  0  0  0  0  0
   -5.9460   19.9980  -33.3660 N   0  0  0  0  0  0  0  0  0  0  0  0
   -6.6120   21.1070  -33.0910 N   0  0  0  0  0  0  0  0  0  0  0  0
   -7.7760   20.7630  -32.5170 C   0  0  0  0  0  0  0  0  0  0  0  0
   -9.0000   21.9560  -31.9540 S   0  0  0  0  0  0  0  0  0  0  0  0
   -8.2310   22.2090  -30.3100 C   0  0  0  0  0  0  0  0  0  0  0  0
   -6.6940   22.2150  -30.3770 C   0  0  0  0  0  0  0  0  0  0  0  0
   -6.1860   23.1910  -31.3710 N   0  0  0  0  0  0  0  0  0  0  0  0
   -6.5240   24.5990  -31.0200 C   0  0  0  0  0  0  0  0  0  0  0  0
   -5.3260   25.4300  -30.5110 C   0  0  0  0  0  0  0  0  0  0  0  0
   -4.3620   24.5680  -29.7000 C   0  0  0  0  0  0  0  0  0  0  0  0
   -3.8220   23.3960  -30.5360 C   0  0  0  0  0  0  0  0  0  0  0  0
   -4.7550   23.0100  -31.7000 C   0  0  0  0  0  0  0  0  0  0  0  0
   -8.7829   18.7636  -30.6156 H   0  0  0  0  0  0  0  0  0  0  0  0
   -9.9047   19.0581  -31.9873 H   0  0  0  0  0  0  0  0  0  0  0  0
   -8.8477   17.6056  -31.9873 H   0  0  0  0  0  0  0  0  0  0  0  0
   -7.5021   17.1630  -34.8566 H   0  0  0  0  0  0  0  0  0  0  0  0
   -6.7540   14.7848  -35.0259 H   0  0  0  0  0  0  0  0  0  0  0  0
   -4.2757   15.2511  -31.5912 H   0  0  0  0  0  0  0  0  0  0  0  0
   -4.9797   17.6384  -31.3624 H   0  0  0  0  0  0  0  0  0  0  0  0
   -6.2720   22.0730  -33.2960 H   0  0  0  0  0  0  0  0  0  0  0  0
   -8.5709   23.1738  -29.9056 H   0  0  0  0  0  0  0  0  0  0  0  0
   -8.5356   21.3720  -29.6645 H   0  0  0  0  0  0  0  0  0  0  0  0
   -6.2962   22.4777  -29.3857 H   0  0  0  0  0  0  0  0  0  0  0  0
   -6.3630   21.2122  -30.6851 H   0  0  0  0  0  0  0  0  0  0  0  0
   -6.9284   25.0905  -31.9172 H   0  0  0  0  0  0  0  0  0  0  0  0
   -7.2501   24.5533  -30.1949 H   0  0  0  0  0  0  0  0  0  0  0  0
   -4.7903   25.8531  -31.3736 H   0  0  0  0  0  0  0  0  0  0  0  0
   -5.7083   26.2311  -29.8613 H   0  0  0  0  0  0  0  0  0  0  0  0
   -3.5178   25.1901  -29.3678 H   0  0  0  0  0  0  0  0  0  0  0  0
   -4.9060   24.1571  -28.8367 H   0  0  0  0  0  0  0  0  0  0  0  0
   -2.8438   23.6816  -30.9501 H   0  0  0  0  0  0  0  0  0  0  0  0
   -3.7458   22.5234  -29.8706 H   0  0  0  0  0  0  0  0  0  0  0  0
   -4.5117   23.6390  -32.5690 H   0  0  0  0  0  0  0  0  0  0  0  0
   -4.5961   21.9424  -31.9122 H   0  0  0  0  0  0  0  0  0  0  0  0
  1  2  1  0
  2  3  1  0
  3  4  1  0
  4  5  2  0
  5  6  1  0
  6  7  2  0
  7  8  1  0
  8  9  2  0
  3 10  2  0
 10 11  1  0
 11 12  2  0
 12 13  1  0
 13 14  1  0
 14 15  1  0
 15 16  1  0
 16 17  1  0
 17 18  1  0
 18 19  1  0
 19 20  1  0
 20 21  1  0
 12  2  1  0
 21 16  1  0
  9  4  1  0
  1 22  1  0
  1 23  1  0
  1 24  1  0
  5 25  1  0
  6 26  1  0
  8 27  1  0
  9 28  1  0
 11 29  1  0
 14 30  1  0
 14 31  1  0
 15 32  1  0
 15 33  1  0
 17 34  1  0
 17 35  1  0
 18 36  1  0
 18 37  1  0
 19 38  1  0
 19 39  1  0
 20 40  1  0
 20 41  1  0
 21 42  1  0
 21 43  1  0
M  CHG  1  11   1
M  END
>  <UniqueID>  (5) 
5

>  <SMILES>  (5) 
Cn1c(-c2ccncc2)n[nH+]c1SCCN1CCCCC1

>  <Energy>  (5) 
90.1793915670466

>  <Genealogy>  (5) 
Cn1c(-c2ccncc2)n[nH+]c1SCCN1CCCCC1 (protonated)
Cn1c(-c2ccncc2)n[nH+]c1SCCN1CCCCC1 (3D coordinates assigned)
Cn1c(-c2ccncc2)n[nH+]c1SCCN1CCCCC1 (nonaromatic ring conformer: 90.1793915670466 kcal/mol)

>  <smiles>  (5) 
Cn1c(SCCN2CCCCC2)nnc1-c1ccncc1

>  <score_type>  (5) 
oracle

>  <origin>  (5) 
adg

>  <m_score__min__energy>  (5) 
-7.5499999999999998

>  <m_primary>  (5) 
energy

$$$$
5:0
     RDKit          3D

 58 60  0  0  0  0  0  0  0  0999 V2000
    0.7300   24.9190  -36.1180 C   0  0  0  0  0  0  0  0  0  0  0  0
    1.3410   23.5270  -36.2430 C   0  0  0  0  0  0  0  0  0  0  0  0
    0.9270   22.7090  -35.1630 O   0  0  0  0  0  0  0  0  0  0  0  0
    1.3270   21.3630  -35.3520 C   0  0  0  0  0  0  0  0  0  0  0  0
    0.1140   20.4290  -35.2510 C   0  0  0  0  0  0  0  0  0  0  0  0
   -1.0190   21.1110  -34.6030 N   0  0  0  0  0  0  0  0  0  0  0  0
   -1.0380   20.8890  -33.1430 C   0  0  0  0  0  0  0  0  0  0  0  0
   -2.2760   21.4920  -32.4590 C   0  0  0  0  0  0  0  0  0  0  0  0
   -3.4110   21.5680  -33.3820 N   0  0  0  0  0  0  0  0  0  0  0  0
   -4.6930   21.0240  -33.0280 C   0  0  0  0  0  0  0  0  0  0  0  0
   -5.0040   19.6940  -33.3440 C   0  0  0  0  0  0  0  0  0  0  0  0
   -6.2330   19.1430  -32.9300 C   0  0  0  0  0  0  0  0  0  0  0  0
   -7.1280   19.8930  -32.1870 N   0  0  0  0  0  0  0  0  0  0  0  0
   -8.3090   19.2380  -31.5760 C   0  0  0  0  0  0  0  0  0  0  0  0
   -9.5340   19.3510  -32.4810 C   0  0  0  0  0  0  0  0  0  0  0  0
   -6.8980   21.2480  -31.9990 C   0  0  0  0  0  0  0  0  0  0  0  0
   -7.8730   22.1040  -31.4200 C   0  0  0  0  0  0  0  0  0  0  0  0
   -7.6120   23.4560  -31.2020 C   0  0  0  0  0  0  0  0  0  0  0  0
   -6.3840   23.9970  -31.5620 C   0  0  0  0  0  0  0  0  0  0  0  0
   -5.4180   23.1950  -32.1610 C   0  0  0  0  0  0  0  0  0  0  0  0
   -5.6610   21.8250  -32.4000 C   0  0  0  0  0  0  0  0  0  0  0  0
   -6.5230   17.7290  -33.4270 C   0  0  0  0  0  0  0  0  0  0  0  0
   -5.3170   16.8080  -33.1830 C   0  0  0  0  0  0  0  0  0  0  0  0
   -3.9630   17.4280  -33.6060 C   0  0  0  0  0  0  0  0  0  0  0  0
   -4.0900   18.8380  -34.2000 C   0  0  0  0  0  0  0  0  0  0  0  0
    0.6173   25.1758  -35.0543 H   0  0  0  0  0  0  0  0  0  0  0  0
    1.3885   25.6535  -36.6048 H   0  0  0  0  0  0  0  0  0  0  0  0
   -0.2564   24.9315  -36.6048 H   0  0  0  0  0  0  0  0  0  0  0  0
    1.0144   23.0711  -37.1893 H   0  0  0  0  0  0  0  0  0  0  0  0
    2.4373   23.6148  -36.2253 H   0  0  0  0  0  0  0  0  0  0  0  0
    1.7853   21.2566  -36.3463 H   0  0  0  0  0  0  0  0  0  0  0  0
    2.0536   21.0922  -34.5718 H   0  0  0  0  0  0  0  0  0  0  0  0
   -0.1846   20.1151  -36.2621 H   0  0  0  0  0  0  0  0  0  0  0  0
    0.3922   19.5543  -34.6449 H   0  0  0  0  0  0  0  0  0  0  0  0
   -0.9260   22.1410  -34.7700 H   0  0  0  0  0  0  0  0  0  0  0  0
   -1.9170   20.7950  -35.0340 H   0  0  0  0  0  0  0  0  0  0  0  0
   -1.0256   19.8056  -32.9531 H   0  0  0  0  0  0  0  0  0  0  0  0
   -0.1535   21.3900  -32.7228 H   0  0  0  0  0  0  0  0  0  0  0  0
   -2.5536   20.8621  -31.6010 H   0  0  0  0  0  0  0  0  0  0  0  0
   -2.0280   22.5118  -32.1295 H   0  0  0  0  0  0  0  0  0  0  0  0
   -3.3430   22.1950  -34.2150 H   0  0  0  0  0  0  0  0  0  0  0  0
   -8.0831   18.1744  -31.4094 H   0  0  0  0  0  0  0  0  0  0  0  0
   -8.5322   19.7413  -30.6237 H   0  0  0  0  0  0  0  0  0  0  0  0
  -10.4401   19.4346  -31.8629 H   0  0  0  0  0  0  0  0  0  0  0  0
   -9.4396   20.2443  -33.1160 H   0  0  0  0  0  0  0  0  0  0  0  0
   -9.6046   18.4556  -33.1160 H   0  0  0  0  0  0  0  0  0  0  0  0
   -8.8531   21.6918  -31.1382 H   0  0  0  0  0  0  0  0  0  0  0  0
   -8.3803   24.0961  -30.7438 H   0  0  0  0  0  0  0  0  0  0  0  0
   -6.1754   25.0604  -31.3732 H   0  0  0  0  0  0  0  0  0  0  0  0
   -4.4523   23.6340  -32.4522 H   0  0  0  0  0  0  0  0  0  0  0  0
   -7.3963   17.3299  -32.8903 H   0  0  0  0  0  0  0  0  0  0  0  0
   -6.7239   17.7688  -34.5078 H   0  0  0  0  0  0  0  0  0  0  0  0
   -5.2710   16.5736  -32.1092 H   0  0  0  0  0  0  0  0  0  0  0  0
   -5.4671   15.9118  -33.8029 H   0  0  0  0  0  0  0  0  0  0  0  0
   -3.3133   17.4814  -32.7200 H   0  0  0  0  0  0  0  0  0  0  0  0
   -3.5456   16.7832  -34.3934 H   0  0  0  0  0  0  0  0  0  0  0  0
   -3.0943   19.3035  -34.2440 H   0  0  0  0  0  0  0  0  0  0  0  0
   -4.5174   18.7614  -35.2107 H   0  0  0  0  0  0  0  0  0  0  0  0
  1  2  1  0
  2  3  1  0
  3  4  1  0
  4  5  1  0
  5  6  1  0
  6  7  1  0
  7  8  1  0
  8  9  1  0
  9 10  1  0
 10 11  2  0
 11 12  1  0
 12 13  2  0
 13 14  1  0
 14 15  1  0
 13 16  1  0
 16 17  2  0
 17 18  1  0
 18 19  2  0
 19 20  1  0
 20 21  2  0
 12 22  1  0
 22 23  1  0
 23 24  1  0
 24 25  1  0
 21 10  1  0
 25 11  1  0
 21 16  1  0
  1 26  1  0
  1 27  1  0
  1 28  1  0
  2 29  1  0
  2 30  1  0
  4 31  1  0
  4 32  1  0
  5 33  1  0
  5 34  1  0
  6 35  1  0
  6 36  1  0
  7 37  1  0
  7 38  1  0
  8 39  1  0
  8 40  1  0
  9 41  1  0
 14 42  1  0
 14 43  1  0
 15 44  1  0
 15 45  1  0
 15 46  1  0
 17 47  1  0
 18 48  1  0
 19 49  1  0
 20 50  1  0
 22 51  1  0
 22 52  1  0
 23 53  1  0
 23 54  1  0
 24 55  1  0
 24 56  1  0
 25 57  1  0
 25 58  1  0
M  CHG  2   6   1  13   1
M  END
>  <UniqueID>  (6) 
6

>  <SMILES>  (6) 
CCOCC[NH2+]CCNc1c2c([n+](CC)c3ccccc13)CCCC2

>  <Energy>  (6) 
80.79998730423958

>  <Genealogy>  (6) 
CCOCC[NH2+]CCNc1c2c([n+](CC)c3ccccc13)CCCC2 (protonated)
CCOCC[NH2+]CCNc1c2c([n+](CC)c3ccccc13)CCCC2 (3D coordinates assigned)
CCOCC[NH2+]CCNc1c2c([n+](CC)c3ccccc13)CCCC2 (nonaromatic ring conformer: 80.79998730423958 kcal/mol)

>  <smiles>  (6) 
CCOCCNCCNc1c2c([n+](CC)c3ccccc13)CCCC2

>  <score_type>  (6) 
oracle

>  <origin>  (6) 
adg

>  <m_score__min__energy>  (6) 
-8

>  <m_primary>  (6) 
energy

$$$$
6:0
     RDKit          3D

 70 72  0  0  0  0  0  0  0  0999 V2000
    1.4830   28.7210  -23.4540 C   0  0  0  0  0  0  0  0  0  0  0  0
    1.5040   27.2270  -23.7890 C   0  0  0  0  0  0  0  0  0  0  0  0
    0.5210   26.4560  -23.0030 N   0  0  0  0  0  0  0  0  0  0  0  0
   -0.8410   26.5530  -23.5580 C   0  0  0  0  0  0  0  0  0  0  0  0
   -0.9990   25.6590  -24.8000 C   0  0  0  0  0  0  0  0  0  0  0  0
   -1.7320   26.3780  -25.9390 C   0  0  0  0  0  0  0  0  0  0  0  0
   -1.5450   25.4740  -27.5260 S   0  0  0  0  0  0  0  0  0  0  0  0
   -2.8200   24.1950  -27.2120 C   0  0  0  0  0  0  0  0  0  0  0  0
   -3.3120   23.5840  -28.5280 C   0  0  0  0  0  0  0  0  0  0  0  0
   -4.6850   24.1480  -28.9480 C   0  0  0  0  0  0  0  0  0  0  0  0
   -4.7550   24.4760  -30.4580 C   0  0  0  0  0  0  0  0  0  0  0  0
   -6.0880   24.0550  -31.1100 C   0  0  0  0  0  0  0  0  0  0  0  0
   -5.9110   23.2790  -32.3450 N   0  0  0  0  0  0  0  0  0  0  0  0
   -5.8670   21.8420  -32.3810 C   0  0  0  0  0  0  0  0  0  0  0  0
   -7.0060   21.1000  -32.0400 C   0  0  0  0  0  0  0  0  0  0  0  0
   -6.9790   19.6960  -32.1340 C   0  0  0  0  0  0  0  0  0  0  0  0
   -5.8510   19.0410  -32.5990 N   0  0  0  0  0  0  0  0  0  0  0  0
   -5.9210   17.5990  -32.9340 C   0  0  0  0  0  0  0  0  0  0  0  0
   -6.0660   17.3890  -34.4400 C   0  0  0  0  0  0  0  0  0  0  0  0
   -4.6760   19.7510  -32.7950 C   0  0  0  0  0  0  0  0  0  0  0  0
   -3.4420   19.1060  -33.0750 C   0  0  0  0  0  0  0  0  0  0  0  0
   -2.2790   19.8410  -33.3050 C   0  0  0  0  0  0  0  0  0  0  0  0
   -2.3040   21.2300  -33.2560 C   0  0  0  0  0  0  0  0  0  0  0  0
   -3.4890   21.8930  -32.9530 C   0  0  0  0  0  0  0  0  0  0  0  0
   -4.6780   21.1710  -32.7090 C   0  0  0  0  0  0  0  0  0  0  0  0
   -8.2450   18.9820  -31.6740 C   0  0  0  0  0  0  0  0  0  0  0  0
   -9.4650   19.6260  -32.3410 C   0  0  0  0  0  0  0  0  0  0  0  0
   -9.5420   21.1530  -32.1090 C   0  0  0  0  0  0  0  0  0  0  0  0
   -8.2620   21.7680  -31.5050 C   0  0  0  0  0  0  0  0  0  0  0  0
    1.4812   28.8519  -22.3618 H   0  0  0  0  0  0  0  0  0  0  0  0
    2.3744   29.2048  -23.8798 H   0  0  0  0  0  0  0  0  0  0  0  0
    0.5783   29.1796  -23.8798 H   0  0  0  0  0  0  0  0  0  0  0  0
    1.2763   27.1022  -24.8579 H   0  0  0  0  0  0  0  0  0  0  0  0
    2.5045   26.8435  -23.5402 H   0  0  0  0  0  0  0  0  0  0  0  0
    0.8280   25.4540  -23.0100 H   0  0  0  0  0  0  0  0  0  0  0  0
    0.5190   26.7910  -22.0090 H   0  0  0  0  0  0  0  0  0  0  0  0
   -1.5642   26.2352  -22.7925 H   0  0  0  0  0  0  0  0  0  0  0  0
   -1.0238   27.5966  -23.8537 H   0  0  0  0  0  0  0  0  0  0  0  0
   -0.0003   25.3621  -25.1527 H   0  0  0  0  0  0  0  0  0  0  0  0
   -1.5977   24.7822  -24.5122 H   0  0  0  0  0  0  0  0  0  0  0  0
   -2.8011   26.4476  -25.6898 H   0  0  0  0  0  0  0  0  0  0  0  0
   -1.2943   27.3804  -26.0561 H   0  0  0  0  0  0  0  0  0  0  0  0
   -2.3880   23.4012  -26.5849 H   0  0  0  0  0  0  0  0  0  0  0  0
   -3.6729   24.6649  -26.7004 H   0  0  0  0  0  0  0  0  0  0  0  0
   -2.5798   23.8058  -29.3184 H   0  0  0  0  0  0  0  0  0  0  0  0
   -3.4205   22.4994  -28.3800 H   0  0  0  0  0  0  0  0  0  0  0  0
   -5.4592   23.4028  -28.7128 H   0  0  0  0  0  0  0  0  0  0  0  0
   -4.8441   25.0855  -28.3950 H   0  0  0  0  0  0  0  0  0  0  0  0
   -4.6306   25.5614  -30.5861 H   0  0  0  0  0  0  0  0  0  0  0  0
   -3.9546   23.9070  -30.9536 H   0  0  0  0  0  0  0  0  0  0  0  0
   -6.6506   23.4423  -30.3902 H   0  0  0  0  0  0  0  0  0  0  0  0
   -6.6250   24.9767  -31.3784 H   0  0  0  0  0  0  0  0  0  0  0  0
   -6.1100   23.7660  -33.2490 H   0  0  0  0  0  0  0  0  0  0  0  0
   -5.0002   17.1054  -32.5898 H   0  0  0  0  0  0  0  0  0  0  0  0
   -6.8015   17.1676  -32.4354 H   0  0  0  0  0  0  0  0  0  0  0  0
   -6.6818   16.4972  -34.6282 H   0  0  0  0  0  0  0  0  0  0  0  0
   -6.5494   18.2696  -34.8881 H   0  0  0  0  0  0  0  0  0  0  0  0
   -5.0712   17.2490  -34.8881 H   0  0  0  0  0  0  0  0  0  0  0  0
   -3.4027   18.0073  -33.1111 H   0  0  0  0  0  0  0  0  0  0  0  0
   -1.3367   19.3185  -33.5264 H   0  0  0  0  0  0  0  0  0  0  0  0
   -1.3876   21.8045  -33.4566 H   0  0  0  0  0  0  0  0  0  0  0  0
   -3.5000   22.9918  -32.9029 H   0  0  0  0  0  0  0  0  0  0  0  0
   -8.1904   17.9203  -31.9563 H   0  0  0  0  0  0  0  0  0  0  0  0
   -8.3372   19.0662  -30.5811 H   0  0  0  0  0  0  0  0  0  0  0  0
   -9.4133   19.4377  -33.4235 H   0  0  0  0  0  0  0  0  0  0  0  0
  -10.3626   19.1780  -31.8898 H   0  0  0  0  0  0  0  0  0  0  0  0
   -9.7346   21.6394  -33.0767 H   0  0  0  0  0  0  0  0  0  0  0  0
  -10.3474   21.3209  -31.3789 H   0  0  0  0  0  0  0  0  0  0  0  0
   -8.2295   22.8387  -31.7551 H   0  0  0  0  0  0  0  0  0  0  0  0
   -8.2917   21.6162  -30.4159 H   0  0  0  0  0  0  0  0  0  0  0  0
  1  2  1  0
  2  3  1  0
  3  4  1  0
  4  5  1  0
  5  6  1  0
  6  7  1  0
  7  8  1  0
  8  9  1  0
  9 10  1  0
 10 11  1  0
 11 12  1  0
 12 13  1  0
 13 14  1  0
 14 15  2  0
 15 16  1  0
 16 17  2  0
 17 18  1  0
 18 19  1  0
 17 20  1  0
 20 21  2  0
 21 22  1  0
 22 23  2  0
 23 24  1  0
 24 25  2  0
 16 26  1  0
 26 27  1  0
 27 28  1  0
 28 29  1  0
 25 14  1  0
 29 15  1  0
 25 20  1  0
  1 30  1  0
  1 31  1  0
  1 32  1  0
  2 33  1  0
  2 34  1  0
  3 35  1  0
  3 36  1  0
  4 37  1  0
  4 38  1  0
  5 39  1  0
  5 40  1  0
  6 41  1  0
  6 42  1  0
  8 43  1  0
  8 44  1  0
  9 45  1  0
  9 46  1  0
 10 47  1  0
 10 48  1  0
 11 49  1  0
 11 50  1  0
 12 51  1  0
 12 52  1  0
 13 53  1  0
 18 54  1  0
 18 55  1  0
 19 56  1  0
 19 57  1  0
 19 58  1  0
 21 59  1  0
 22 60  1  0
 23 61  1  0
 24 62  1  0
 26 63  1  0
 26 64  1  0
 27 65  1  0
 27 66  1  0
 28 67  1  0
 28 68  1  0
 29 69  1  0
 29 70  1  0
M  CHG  2   3   1  17   1
M  END
>  <UniqueID>  (7) 
7

>  <SMILES>  (7) 
CC[NH2+]CCCSCCCCCNc1c2c([n+](CC)c3ccccc13)CCCC2

>  <Energy>  (7) 
82.21807830298398

>  <Genealogy>  (7) 
CC[NH2+]CCCSCCCCCNc1c2c([n+](CC)c3ccccc13)CCCC2 (protonated)
CC[NH2+]CCCSCCCCCNc1c2c([n+](CC)c3ccccc13)CCCC2 (3D coordinates assigned)
CC[NH2+]CCCSCCCCCNc1c2c([n+](CC)c3ccccc13)CCCC2 (nonaromatic ring conformer: 82.21807830298398 kcal/mol)

>  <smiles>  (7) 
CCNCCCSCCCCCNc1c2c([n+](CC)c3ccccc13)CCCC2

>  <score_type>  (7) 
oracle

>  <origin>  (7) 
adg

>  <m_score__min__energy>  (7) 
-9.8599999999999994

>  <m_primary>  (7) 
energy

$$$$
7:0
     RDKit          3D

 43 44  0  0  0  0  0  0  0  0999 V2000
   -1.5760   25.2480  -27.7760 C   0  0  0  0  0  0  0  0  0  0  0  0
   -2.3120   24.2490  -28.6610 C   0  0  0  0  0  0  0  0  0  0  0  0
   -2.9860   24.9180  -29.7260 O   0  0  0  0  0  0  0  0  0  0  0  0
   -4.1160   24.4380  -30.4080 C   0  0  0  0  0  0  0  0  0  0  0  0
   -3.9770   23.2770  -31.1770 C   0  0  0  0  0  0  0  0  0  0  0  0
   -5.0720   22.7400  -31.8590 C   0  0  0  0  0  0  0  0  0  0  0  0
   -6.3290   23.3650  -31.7930 C   0  0  0  0  0  0  0  0  0  0  0  0
   -7.4730   22.7830  -32.4540 N   0  0  0  0  0  0  0  0  0  0  0  0
   -7.9840   21.5940  -31.7450 C   0  0  0  0  0  0  0  0  0  0  0  0
   -9.3570   21.1280  -32.2610 C   0  0  0  0  0  0  0  0  0  0  0  0
   -9.2660   19.7690  -32.8070 N   0  0  0  0  0  0  0  0  0  0  0  0
   -8.3760   18.9330  -31.9960 C   0  0  0  0  0  0  0  0  0  0  0  0
   -7.2530   18.4260  -32.8570 C   0  0  0  0  0  0  0  0  0  0  0  0
   -7.1050   17.0490  -33.0900 C   0  0  0  0  0  0  0  0  0  0  0  0
   -6.0970   16.5830  -33.9390 C   0  0  0  0  0  0  0  0  0  0  0  0
   -5.2330   17.4870  -34.5630 C   0  0  0  0  0  0  0  0  0  0  0  0
   -5.3840   18.8590  -34.3480 C   0  0  0  0  0  0  0  0  0  0  0  0
   -6.3930   19.3300  -33.5020 C   0  0  0  0  0  0  0  0  0  0  0  0
   -6.4640   24.5450  -31.0420 C   0  0  0  0  0  0  0  0  0  0  0  0
   -5.3710   25.0750  -30.3510 C   0  0  0  0  0  0  0  0  0  0  0  0
   -1.7561   25.0035  -26.7188 H   0  0  0  0  0  0  0  0  0  0  0  0
   -0.4972   25.1980  -27.9853 H   0  0  0  0  0  0  0  0  0  0  0  0
   -1.9434   26.2635  -27.9853 H   0  0  0  0  0  0  0  0  0  0  0  0
   -1.5866   23.5380  -29.0832 H   0  0  0  0  0  0  0  0  0  0  0  0
   -3.0568   23.7177  -28.0502 H   0  0  0  0  0  0  0  0  0  0  0  0
   -2.9967   22.7826  -31.2452 H   0  0  0  0  0  0  0  0  0  0  0  0
   -4.9493   21.8215  -32.4518 H   0  0  0  0  0  0  0  0  0  0  0  0
   -7.2430   22.5270  -33.4440 H   0  0  0  0  0  0  0  0  0  0  0  0
   -8.2350   23.5000  -32.4920 H   0  0  0  0  0  0  0  0  0  0  0  0
   -7.2639   20.7726  -31.8746 H   0  0  0  0  0  0  0  0  0  0  0  0
   -8.1072   21.8702  -30.6874 H   0  0  0  0  0  0  0  0  0  0  0  0
  -10.0781   21.1370  -31.4304 H   0  0  0  0  0  0  0  0  0  0  0  0
   -9.6882   21.8103  -33.0577 H   0  0  0  0  0  0  0  0  0  0  0  0
   -8.8610   19.8300  -33.7710 H   0  0  0  0  0  0  0  0  0  0  0  0
   -7.9645   19.5291  -31.1682 H   0  0  0  0  0  0  0  0  0  0  0  0
   -8.9402   18.0823  -31.5860 H   0  0  0  0  0  0  0  0  0  0  0  0
   -7.7848   16.3346  -32.6026 H   0  0  0  0  0  0  0  0  0  0  0  0
   -5.9837   15.5033  -34.1162 H   0  0  0  0  0  0  0  0  0  0  0  0
   -4.4342   17.1183  -35.2233 H   0  0  0  0  0  0  0  0  0  0  0  0
   -4.7080   19.5702  -34.8451 H   0  0  0  0  0  0  0  0  0  0  0  0
   -6.5135   20.4115  -33.3412 H   0  0  0  0  0  0  0  0  0  0  0  0
   -7.4374   25.0554  -30.9977 H   0  0  0  0  0  0  0  0  0  0  0  0
   -5.4914   25.9945  -29.7594 H   0  0  0  0  0  0  0  0  0  0  0  0
  1  2  1  0
  2  3  1  0
  3  4  1  0
  4  5  2  0
  5  6  1  0
  6  7  2  0
  7  8  1  0
  8  9  1  0
  9 10  1  0
 10 11  1  0
 11 12  1  0
 12 13  1  0
 13 14  2  0
 14 15  1  0
 15 16  2  0
 16 17  1  0
 17 18  2  0
  7 19  1  0
 19 20  2  0
 20  4  1  0
 18 13  1  0
  1 21  1  0
  1 22  1  0
  1 23  1  0
  2 24  1  0
  2 25  1  0
  5 26  1  0
  6 27  1  0
  8 28  1  0
  8 29  1  0
  9 30  1  0
  9 31  1  0
 10 32  1  0
 10 33  1  0
 11 34  1  0
 12 35  1  0
 12 36  1  0
 14 37  1  0
 15 38  1  0
 16 39  1  0
 17 40  1  0
 18 41  1  0
 19 42  1  0
 20 43  1  0
M  CHG  1   8   1
M  END
>  <UniqueID>  (8) 
8

>  <SMILES>  (8) 
CCOc1ccc([NH2+]CCNCc2ccccc2)cc1

>  <Energy>  (8) 
35.372326533076475

>  <Genealogy>  (8) 
CCOc1ccc([NH2+]CCNCc2ccccc2)cc1 (protonated)
CCOc1ccc([NH2+]CCNCc2ccccc2)cc1 (3D coordinates assigned)
CCOc1ccc([NH2+]CCNCc2ccccc2)cc1 (optimized conformer: 35.372326533076475 kcal/mol)

>  <smiles>  (8) 
CCOc1ccc(NCCNCc2ccccc2)cc1

>  <score_type>  (8) 
oracle

>  <origin>  (8) 
adg

>  <m_score__min__energy>  (8) 
-7.21

>  <m_primary>  (8) 
energy

$$$$
8:0
     RDKit          3D

 44 46  0  0  0  0  0  0  0  0999 V2000
   -6.7870   24.7480  -29.8130 C   0  0  0  0  0  0  0  0  0  0  0  0
   -5.6490   25.6640  -30.2470 C   0  0  0  0  0  0  0  0  0  0  0  0
   -4.7890   24.9730  -31.2130 N   0  0  0  0  0  0  0  0  0  0  0  0
   -4.0520   23.8610  -30.5890 C   0  0  0  0  0  0  0  0  0  0  0  0
   -3.9190   22.6980  -31.5770 C   0  0  0  0  0  0  0  0  0  0  0  0
   -4.9880   22.7250  -32.5910 N   0  0  0  0  0  0  0  0  0  0  0  0
   -5.6530   21.4320  -32.6640 C   0  0  0  0  0  0  0  0  0  0  0  0
   -7.0350   21.3110  -32.3600 C   0  0  0  0  0  0  0  0  0  0  0  0
   -7.7850   22.4030  -31.8520 C   0  0  0  0  0  0  0  0  0  0  0  0
   -9.1590   22.3010  -31.6540 C   0  0  0  0  0  0  0  0  0  0  0  0
   -9.8200   21.1210  -31.9560 C   0  0  0  0  0  0  0  0  0  0  0  0
   -9.1030   20.0160  -32.4070 C   0  0  0  0  0  0  0  0  0  0  0  0
   -7.6930   20.0660  -32.5630 C   0  0  0  0  0  0  0  0  0  0  0  0
   -6.9710   18.9420  -32.9130 N   0  0  0  0  0  0  0  0  0  0  0  0
   -7.6000   17.6040  -32.8240 C   0  0  0  0  0  0  0  0  0  0  0  0
   -5.6470   19.0560  -33.2880 C   0  0  0  0  0  0  0  0  0  0  0  0
   -4.9530   17.9670  -33.8790 C   0  0  0  0  0  0  0  0  0  0  0  0
   -3.5920   18.0450  -34.1640 C   0  0  0  0  0  0  0  0  0  0  0  0
   -2.6880   16.5510  -34.9400 Br  0  0  0  0  0  0  0  0  0  0  0  0
   -2.8890   19.2050  -33.8750 C   0  0  0  0  0  0  0  0  0  0  0  0
   -3.5510   20.3110  -33.3510 C   0  0  0  0  0  0  0  0  0  0  0  0
   -4.9470   20.2800  -33.0990 C   0  0  0  0  0  0  0  0  0  0  0  0
   -6.8307   24.7128  -28.7144 H   0  0  0  0  0  0  0  0  0  0  0  0
   -7.7390   25.1347  -30.2057 H   0  0  0  0  0  0  0  0  0  0  0  0
   -6.6127   23.7354  -30.2057 H   0  0  0  0  0  0  0  0  0  0  0  0
   -6.0670   26.5684  -30.7132 H   0  0  0  0  0  0  0  0  0  0  0  0
   -5.0520   25.9404  -29.3654 H   0  0  0  0  0  0  0  0  0  0  0  0
   -4.0950   25.6670  -31.5830 H   0  0  0  0  0  0  0  0  0  0  0  0
   -3.0494   24.2072  -30.2974 H   0  0  0  0  0  0  0  0  0  0  0  0
   -4.6024   23.5177  -29.7006 H   0  0  0  0  0  0  0  0  0  0  0  0
   -2.9448   22.7686  -32.0829 H   0  0  0  0  0  0  0  0  0  0  0  0
   -4.0011   21.7564  -31.0143 H   0  0  0  0  0  0  0  0  0  0  0  0
   -4.6080   23.0000  -33.5220 H   0  0  0  0  0  0  0  0  0  0  0  0
   -5.6680   23.4900  -32.3840 H   0  0  0  0  0  0  0  0  0  0  0  0
   -7.2722   23.3458  -31.6106 H   0  0  0  0  0  0  0  0  0  0  0  0
   -9.7214   23.1589  -31.2569 H   0  0  0  0  0  0  0  0  0  0  0  0
  -10.9119   21.0573  -31.8393 H   0  0  0  0  0  0  0  0  0  0  0  0
   -9.6396   19.0862  -32.6471 H   0  0  0  0  0  0  0  0  0  0  0  0
   -7.7292   17.3292  -31.7668 H   0  0  0  0  0  0  0  0  0  0  0  0
   -8.5818   17.6267  -33.3196 H   0  0  0  0  0  0  0  0  0  0  0  0
   -6.9562   16.8625  -33.3196 H   0  0  0  0  0  0  0  0  0  0  0  0
   -5.5014   17.0435  -34.1164 H   0  0  0  0  0  0  0  0  0  0  0  0
   -1.8057   19.2508  -34.0604 H   0  0  0  0  0  0  0  0  0  0  0  0
   -2.9820   21.2256  -33.1282 H   0  0  0  0  0  0  0  0  0  0  0  0
  1  2  1  0
  2  3  1  0
  3  4  1  0
  4  5  1  0
  5  6  1  0
  6  7  1  0
  7  8  2  0
  8  9  1  0
  9 10  2  0
 10 11  1  0
 11 12  2  0
 12 13  1  0
 13 14  2  0
 14 15  1  0
 14 16  1  0
 16 17  2  0
 17 18  1  0
 18 19  1  0
 18 20  2  0
 20 21  1  0
 21 22  2  0
 22  7  1  0
 13  8  1  0
 22 16  1  0
  1 23  1  0
  1 24  1  0
  1 25  1  0
  2 26  1  0
  2 27  1  0
  3 28  1  0
  4 29  1  0
  4 30  1  0
  5 31  1  0
  5 32  1  0
  6 33  1  0
  6 34  1  0
  9 35  1  0
 10 36  1  0
 11 37  1  0
 12 38  1  0
 15 39  1  0
 15 40  1  0
 15 41  1  0
 17 42  1  0
 20 43  1  0
 21 44  1  0
M  CHG  2   6   1  14   1
M  END
>  <UniqueID>  (9) 
9

>  <SMILES>  (9) 
CCNCC[NH2+]c1c2ccccc2[n+](C)c2cc(Br)ccc12

>  <Energy>  (9) 
69.80944488723812

>  <Genealogy>  (9) 
CCNCC[NH2+]c1c2ccccc2[n+](C)c2cc(Br)ccc12 (protonated)
CCNCC[NH2+]c1c2ccccc2[n+](C)c2cc(Br)ccc12 (3D coordinates assigned)
CCNCC[NH2+]c1c2ccccc2[n+](C)c2cc(Br)ccc12 (optimized conformer: 69.80944488723812 kcal/mol)

>  <smiles>  (9) 
CCNCCNc1c2ccccc2[n+](C)c2cc(Br)ccc12

>  <score_type>  (9) 
oracle

>  <origin>  (9) 
adg

>  <m_score__min__energy>  (9) 
-8.1300000000000008

>  <m_primary>  (9) 
energy

$$$$
9:0
     RDKit          3D

 54 56  0  0  0  0  0  0  0  0999 V2000
   -2.5340   22.9920  -30.0630 C   0  0  0  0  0  0  0  0  0  0  0  0
   -3.4070   24.1680  -29.6540 C   0  0  0  0  0  0  0  0  0  0  0  0
   -3.9270   24.7860  -30.8130 O   0  0  0  0  0  0  0  0  0  0  0  0
   -4.9790   25.6700  -30.4770 C   0  0  0  0  0  0  0  0  0  0  0  0
   -5.8160   25.1090  -29.3230 C   0  0  0  0  0  0  0  0  0  0  0  0
   -6.5140   23.8870  -29.7470 N   0  0  0  0  0  0  0  0  0  0  0  0
   -7.3130   24.1150  -30.9620 C   0  0  0  0  0  0  0  0  0  0  0  0
   -6.6680   23.4420  -32.1770 C   0  0  0  0  0  0  0  0  0  0  0  0
   -5.6130   22.5120  -31.7720 N   0  0  0  0  0  0  0  0  0  0  0  0
   -5.5450   21.2010  -32.3460 C   0  0  0  0  0  0  0  0  0  0  0  0
   -4.3640   20.7620  -32.9600 C   0  0  0  0  0  0  0  0  0  0  0  0
   -4.3040   19.4650  -33.5040 C   0  0  0  0  0  0  0  0  0  0  0  0
   -5.4330   18.6750  -33.5570 N   0  0  0  0  0  0  0  0  0  0  0  0
   -5.4310   17.4460  -34.3770 C   0  0  0  0  0  0  0  0  0  0  0  0
   -6.5670   19.0450  -32.8560 C   0  0  0  0  0  0  0  0  0  0  0  0
   -7.6670   18.1650  -32.6930 C   0  0  0  0  0  0  0  0  0  0  0  0
   -8.8180   18.5700  -32.0170 C   0  0  0  0  0  0  0  0  0  0  0  0
   -8.9010   19.8500  -31.4800 C   0  0  0  0  0  0  0  0  0  0  0  0
   -7.8260   20.7270  -31.5970 C   0  0  0  0  0  0  0  0  0  0  0  0
   -6.6460   20.3330  -32.2610 C   0  0  0  0  0  0  0  0  0  0  0  0
   -2.9550   19.0060  -34.0350 C   0  0  0  0  0  0  0  0  0  0  0  0
   -1.8260   19.4680  -33.1050 C   0  0  0  0  0  0  0  0  0  0  0  0
   -1.8460   20.9840  -32.8130 C   0  0  0  0  0  0  0  0  0  0  0  0
   -3.1760   21.6790  -33.1560 C   0  0  0  0  0  0  0  0  0  0  0  0
   -2.1572   22.4845  -29.1627 H   0  0  0  0  0  0  0  0  0  0  0  0
   -3.1278   22.2851  -30.6611 H   0  0  0  0  0  0  0  0  0  0  0  0
   -1.6855   23.3558  -30.6611 H   0  0  0  0  0  0  0  0  0  0  0  0
   -4.2353   23.8100  -29.0249 H   0  0  0  0  0  0  0  0  0  0  0  0
   -2.8066   24.8939  -29.0860 H   0  0  0  0  0  0  0  0  0  0  0  0
   -4.5534   26.6385  -30.1757 H   0  0  0  0  0  0  0  0  0  0  0  0
   -5.6292   25.7931  -31.3557 H   0  0  0  0  0  0  0  0  0  0  0  0
   -5.1549   24.8740  -28.4758 H   0  0  0  0  0  0  0  0  0  0  0  0
   -6.5606   25.8607  -29.0223 H   0  0  0  0  0  0  0  0  0  0  0  0
   -7.1770   23.6200  -28.9810 H   0  0  0  0  0  0  0  0  0  0  0  0
   -8.3206   23.6994  -30.8132 H   0  0  0  0  0  0  0  0  0  0  0  0
   -7.3665   25.1978  -31.1483 H   0  0  0  0  0  0  0  0  0  0  0  0
   -7.4399   22.8886  -32.7319 H   0  0  0  0  0  0  0  0  0  0  0  0
   -6.2190   24.2226  -32.8087 H   0  0  0  0  0  0  0  0  0  0  0  0
   -4.8340   22.8210  -31.1470 H   0  0  0  0  0  0  0  0  0  0  0  0
   -5.4296   16.5654  -33.7178 H   0  0  0  0  0  0  0  0  0  0  0  0
   -6.3291   17.4273  -35.0119 H   0  0  0  0  0  0  0  0  0  0  0  0
   -4.5328   17.4302  -35.0119 H   0  0  0  0  0  0  0  0  0  0  0  0
   -7.6117   17.1470  -33.1061 H   0  0  0  0  0  0  0  0  0  0  0  0
   -9.6631   17.8743  -31.9083 H   0  0  0  0  0  0  0  0  0  0  0  0
   -9.8172   20.1701  -30.9621 H   0  0  0  0  0  0  0  0  0  0  0  0
   -7.8978   21.7370  -31.1673 H   0  0  0  0  0  0  0  0  0  0  0  0
   -2.9454   17.9079  -34.0981 H   0  0  0  0  0  0  0  0  0  0  0  0
   -2.7970   19.4445  -35.0314 H   0  0  0  0  0  0  0  0  0  0  0  0
   -1.9192   18.9289  -32.1507 H   0  0  0  0  0  0  0  0  0  0  0  0
   -0.8772   19.2511  -33.6176 H   0  0  0  0  0  0  0  0  0  0  0  0
   -1.6473   21.1308  -31.7411 H   0  0  0  0  0  0  0  0  0  0  0  0
   -1.0786   21.4384  -33.4569 H   0  0  0  0  0  0  0  0  0  0  0  0
   -3.2951   22.5580  -32.5054 H   0  0  0  0  0  0  0  0  0  0  0  0
   -3.1432   21.9693  -34.2165 H   0  0  0  0  0  0  0  0  0  0  0  0
  1  2  1  0
  2  3  1  0
  3  4  1  0
  4  5  1  0
  5  6  1  0
  6  7  1  0
  7  8  1  0
  8  9  1  0
  9 10  1  0
 10 11  2  0
 11 12  1  0
 12 13  2  0
 13 14  1  0
 13 15  1  0
 15 16  2  0
 16 17  1  0
 17 18  2  0
 18 19  1  0
 19 20  2  0
 12 21  1  0
 21 22  1  0
 22 23  1  0
 23 24  1  0
 20 10  1  0
 24 11  1  0
 20 15  1  0
  1 25  1  0
  1 26  1  0
  1 27  1  0
  2 28  1  0
  2 29  1  0
  4 30  1  0
  4 31  1  0
  5 32  1  0
  5 33  1  0
  6 34  1  0
  7 35  1  0
  7 36  1  0
  8 37  1  0
  8 38  1  0
  9 39  1  0
 14 40  1  0
 14 41  1  0
 14 42  1  0
 16 43  1  0
 17 44  1  0
 18 45  1  0
 19 46  1  0
 21 47  1  0
 21 48  1  0
 22 49  1  0
 22 50  1  0
 23 51  1  0
 23 52  1  0
 24 53  1  0
 24 54  1  0
M  CHG  1  13   1
M  END
>  <UniqueID>  (10) 
10

>  <SMILES>  (10) 
CCOCCNCCNc1c2c([n+](C)c3ccccc13)CCCC2

>  <Energy>  (10) 
73.91643860063347

>  <Genealogy>  (10) 
CCOCCNCCNc1c2c([n+](C)c3ccccc13)CCCC2 (3D coordinates assigned)
CCOCCNCCNc1c2c([n+](C)c3ccccc13)CCCC2 (nonaromatic ring conformer: 73.91643860063347 kcal/mol)

>  <smiles>  (10) 
CCOCCNCCNc1c2c([n+](C)c3ccccc13)CCCC2

>  <score_type>  (10) 
oracle

>  <origin>  (10) 
adg

>  <m_score__min__energy>  (10) 
-9.3900000000000006

>  <m_primary>  (10) 
energy

$$$$
10:0
     RDKit          3D

 82 86  0  0  0  0  0  0  0  0999 V2000
   -0.0150   20.3320  -32.2430 C   0  0  0  0  0  0  0  0  0  0  0  0
   -0.0390   21.2270  -33.4910 C   0  0  0  0  0  0  0  0  0  0  0  0
   -0.8620   20.6530  -34.5990 N   0  0  0  0  0  0  0  0  0  0  0  0
   -0.1040   19.6080  -35.3450 C   0  0  0  0  0  0  0  0  0  0  0  0
   -0.5020   18.1710  -34.9720 C   0  0  0  0  0  0  0  0  0  0  0  0
   -2.1320   20.1100  -34.0350 C   0  0  0  0  0  0  0  0  0  0  0  0
   -3.0980   21.1480  -33.4330 C   0  0  0  0  0  0  0  0  0  0  0  0
   -3.7380   20.6760  -32.2020 N   0  0  0  0  0  0  0  0  0  0  0  0
   -5.1660   20.5860  -32.0660 C   0  0  0  0  0  0  0  0  0  0  0  0
   -5.8640   19.3990  -32.3920 C   0  0  0  0  0  0  0  0  0  0  0  0
   -5.1670   18.2120  -32.6940 C   0  0  0  0  0  0  0  0  0  0  0  0
   -5.8550   17.0430  -33.0120 C   0  0  0  0  0  0  0  0  0  0  0  0
   -7.2470   17.0270  -33.0140 C   0  0  0  0  0  0  0  0  0  0  0  0
   -7.9660   18.1810  -32.7020 C   0  0  0  0  0  0  0  0  0  0  0  0
   -7.3020   19.3950  -32.3990 C   0  0  0  0  0  0  0  0  0  0  0  0
   -8.0060   20.5510  -32.0920 N   0  0  0  0  0  0  0  0  0  0  0  0
   -9.4750   20.6160  -32.2060 C   0  0  0  0  0  0  0  0  0  0  0  0
   -7.3060   21.6360  -31.6380 C   0  0  0  0  0  0  0  0  0  0  0  0
   -7.8350   22.7710  -31.1170 N   0  0  0  0  0  0  0  0  0  0  0  0
   -6.7760   23.5160  -30.7480 C   0  0  0  0  0  0  0  0  0  0  0  0
   -6.8140   24.7590  -30.1190 C   0  0  0  0  0  0  0  0  0  0  0  0
   -5.5960   25.3620  -29.7630 C   0  0  0  0  0  0  0  0  0  0  0  0
   -4.3600   24.7080  -30.0240 C   0  0  0  0  0  0  0  0  0  0  0  0
   -3.1180   25.2840  -29.7060 O   0  0  0  0  0  0  0  0  0  0  0  0
   -2.2770   24.8970  -28.6180 C   0  0  0  0  0  0  0  0  0  0  0  0
   -1.1770   23.9180  -29.1010 C   0  0  0  0  0  0  0  0  0  0  0  0
   -0.9750   22.6920  -28.2570 N   0  0  0  0  0  0  0  0  0  0  0  0
    0.3020   22.7960  -27.5000 C   0  0  0  0  0  0  0  0  0  0  0  0
   -0.8760   21.5100  -29.1790 C   0  0  0  0  0  0  0  0  0  0  0  0
   -1.3300   20.2010  -28.5110 C   0  0  0  0  0  0  0  0  0  0  0  0
   -2.7600   20.2560  -28.1380 N   0  0  0  0  0  0  0  0  0  0  0  0
   -3.0450   19.3180  -27.0400 C   0  0  0  0  0  0  0  0  0  0  0  0
   -3.2390   21.6240  -27.8260 C   0  0  0  0  0  0  0  0  0  0  0  0
   -2.1110   22.5240  -27.2830 C   0  0  0  0  0  0  0  0  0  0  0  0
   -4.3630   23.4310  -30.6210 C   0  0  0  0  0  0  0  0  0  0  0  0
   -5.5850   22.8770  -31.0150 C   0  0  0  0  0  0  0  0  0  0  0  0
   -5.9260   21.6670  -31.6090 C   0  0  0  0  0  0  0  0  0  0  0  0
   -0.0319   20.9607  -31.3405 H   0  0  0  0  0  0  0  0  0  0  0  0
   -0.8958   19.6731  -32.2473 H   0  0  0  0  0  0  0  0  0  0  0  0
    0.8998   19.7212  -32.2473 H   0  0  0  0  0  0  0  0  0  0  0  0
   -0.4568   22.2060  -33.2135 H   0  0  0  0  0  0  0  0  0  0  0  0
    0.9948   21.3137  -33.8566 H   0  0  0  0  0  0  0  0  0  0  0  0
   -1.0950   21.4250  -35.2660 H   0  0  0  0  0  0  0  0  0  0  0  0
   -0.2841   19.7500  -36.4208 H   0  0  0  0  0  0  0  0  0  0  0  0
    0.9562   19.7275  -35.0774 H   0  0  0  0  0  0  0  0  0  0  0  0
   -0.5298   18.0707  -33.8769 H   0  0  0  0  0  0  0  0  0  0  0  0
   -1.4961   17.9467  -35.3861 H   0  0  0  0  0  0  0  0  0  0  0  0
    0.2350   17.4672  -35.3861 H   0  0  0  0  0  0  0  0  0  0  0  0
   -2.6623   19.5847  -34.8430 H   0  0  0  0  0  0  0  0  0  0  0  0
   -1.8331   19.4609  -33.1987 H   0  0  0  0  0  0  0  0  0  0  0  0
   -2.5337   22.0649  -33.2073 H   0  0  0  0  0  0  0  0  0  0  0  0
   -3.8921   21.3313  -34.1718 H   0  0  0  0  0  0  0  0  0  0  0  0
   -3.1380   20.4300  -31.3820 H   0  0  0  0  0  0  0  0  0  0  0  0
   -4.0671   18.2084  -32.6785 H   0  0  0  0  0  0  0  0  0  0  0  0
   -5.2962   16.1292  -33.2624 H   0  0  0  0  0  0  0  0  0  0  0  0
   -7.7830   16.0992  -33.2630 H   0  0  0  0  0  0  0  0  0  0  0  0
   -9.0654   18.1477  -32.6911 H   0  0  0  0  0  0  0  0  0  0  0  0
   -9.9203   20.6357  -31.2004 H   0  0  0  0  0  0  0  0  0  0  0  0
   -9.7605   21.5277  -32.7513 H   0  0  0  0  0  0  0  0  0  0  0  0
   -9.8399   19.7331  -32.7513 H   0  0  0  0  0  0  0  0  0  0  0  0
   -8.8370   23.0160  -30.9610 H   0  0  0  0  0  0  0  0  0  0  0  0
   -7.7726   25.2551  -29.9068 H   0  0  0  0  0  0  0  0  0  0  0  0
   -5.5982   26.3492  -29.2778 H   0  0  0  0  0  0  0  0  0  0  0  0
   -1.8019   25.7929  -28.1918 H   0  0  0  0  0  0  0  0  0  0  0  0
   -2.8909   24.3934  -27.8567 H   0  0  0  0  0  0  0  0  0  0  0  0
   -1.4411   23.5885  -30.1167 H   0  0  0  0  0  0  0  0  0  0  0  0
   -0.2324   24.4787  -29.0433 H   0  0  0  0  0  0  0  0  0  0  0  0
    0.0908   22.7788  -26.4206 H   0  0  0  0  0  0  0  0  0  0  0  0
    0.9525   21.9479  -27.7599 H   0  0  0  0  0  0  0  0  0  0  0  0
    0.8066   23.7382  -27.7599 H   0  0  0  0  0  0  0  0  0  0  0  0
   -1.5097   21.6951  -30.0588 H   0  0  0  0  0  0  0  0  0  0  0  0
    0.1813   21.3927  -29.4590 H   0  0  0  0  0  0  0  0  0  0  0  0
   -1.1744   19.3680  -29.2124 H   0  0  0  0  0  0  0  0  0  0  0  0
   -0.7378   20.0547  -27.5956 H   0  0  0  0  0  0  0  0  0  0  0  0
   -2.8911   19.8245  -26.0758 H   0  0  0  0  0  0  0  0  0  0  0  0
   -4.0878   18.9753  -27.1118 H   0  0  0  0  0  0  0  0  0  0  0  0
   -2.3691   18.4531  -27.1118 H   0  0  0  0  0  0  0  0  0  0  0  0
   -3.6428   22.0763  -28.7438 H   0  0  0  0  0  0  0  0  0  0  0  0
   -4.0119   21.5428  -27.0475 H   0  0  0  0  0  0  0  0  0  0  0  0
   -2.5306   23.5158  -27.0587 H   0  0  0  0  0  0  0  0  0  0  0  0
   -1.7053   22.0381  -26.3834 H   0  0  0  0  0  0  0  0  0  0  0  0
   -3.4226   22.8812  -30.7739 H   0  0  0  0  0  0  0  0  0  0  0  0
  1  2  1  0
  2  3  1  0
  3  4  1  0
  4  5  1  0
  3  6  1  0
  6  7  1  0
  7  8  1  0
  8  9  1  0
  9 10  2  0
 10 11  1  0
 11 12  2  0
 12 13  1  0
 13 14  2  0
 14 15  1  0
 15 16  2  0
 16 17  1  0
 16 18  1  0
 18 19  1  0
 19 20  1  0
 20 21  2  0
 21 22  1  0
 22 23  2  0
 23 24  1  0
 24 25  1  0
 25 26  1  0
 26 27  1  0
 27 28  1  0
 27 29  1  0
 29 30  1  0
 30 31  1  0
 31 32  1  0
 31 33  1  0
 33 34  1  0
 23 35  1  0
 35 36  2  0
 36 37  1  0
 37  9  1  0
 15 10  1  0
 37 18  2  0
 36 20  1  0
 34 27  1  0
  1 38  1  0
  1 39  1  0
  1 40  1  0
  2 41  1  0
  2 42  1  0
  3 43  1  0
  4 44  1  0
  4 45  1  0
  5 46  1  0
  5 47  1  0
  5 48  1  0
  6 49  1  0
  6 50  1  0
  7 51  1  0
  7 52  1  0
  8 53  1  0
 11 54  1  0
 12 55  1  0
 13 56  1  0
 14 57  1  0
 17 58  1  0
 17 59  1  0
 17 60  1  0
 19 61  1  0
 21 62  1  0
 22 63  1  0
 25 64  1  0
 25 65  1  0
 26 66  1  0
 26 67  1  0
 28 68  1  0
 28 69  1  0
 28 70  1  0
 29 71  1  0
 29 72  1  0
 30 73  1  0
 30 74  1  0
 32 75  1  0
 32 76  1  0
 32 77  1  0
 33 78  1  0
 33 79  1  0
 34 80  1  0
 34 81  1  0
 35 82  1  0
M  CHG  3   3   1  16   1  27   1
M  END
>  <UniqueID>  (11) 
11

>  <SMILES>  (11) 
CC[NH+](CC)CCNc1c2ccccc2[n+](C)c2[nH]c3ccc(OCC[N+]4(C)CCN(C)CC4)cc3c12

>  <Energy>  (11) 
170.02369361840422

>  <Genealogy>  (11) 
CC[NH+](CC)CCNc1c2ccccc2[n+](C)c2[nH]c3ccc(OCC[N+]4(C)CCN(C)CC4)cc3c12 (protonated)
CC[NH+](CC)CCNc1c2ccccc2[n+](C)c2[nH]c3ccc(OCC[N+]4(C)CCN(C)CC4)cc3c12 (3D coordinates assigned)
CC[NH+](CC)CCNc1c2ccccc2[n+](C)c2[nH]c3ccc(OCC[N+]4(C)CCN(C)CC4)cc3c12 (nonaromatic ring conformer: 170.02369361840422 kcal/mol)

>  <smiles>  (11) 
CCN(CC)CCNc1c2ccccc2[n+](C)c2[nH]c3ccc(OCC[N+]4(C)CCN(C)CC4)cc3c12

>  <score_type>  (11) 
oracle

>  <origin>  (11) 
adg

>  <m_score__min__energy>  (11) 
-9.0099999999999998

>  <m_primary>  (11) 
energy

$$$$
11:0
     RDKit          3D

 50 51  0  0  0  0  0  0  0  0999 V2000
   -6.4840   25.3910  -29.4840 C   0  0  0  0  0  0  0  0  0  0  0  0
   -5.5200   26.0500  -30.4640 C   0  0  0  0  0  0  0  0  0  0  0  0
   -4.5690   25.1080  -30.9290 O   0  0  0  0  0  0  0  0  0  0  0  0
   -5.0690   23.7860  -30.8360 C   0  0  0  0  0  0  0  0  0  0  0  0
   -5.6320   23.3340  -32.1850 C   0  0  0  0  0  0  0  0  0  0  0  0
   -5.9270   21.9000  -32.1580 N   0  0  0  0  0  0  0  0  0  0  0  0
   -5.0390   20.8820  -32.2900 C   0  0  0  0  0  0  0  0  0  0  0  0
   -3.2700   21.0960  -32.5440 S   0  0  0  0  0  0  0  0  0  0  0  0
   -2.8270   21.0570  -30.7700 C   0  0  0  0  0  0  0  0  0  0  0  0
   -2.1730   22.3850  -30.3820 C   0  0  0  0  0  0  0  0  0  0  0  0
   -2.6020   22.8800  -28.9920 C   0  0  0  0  0  0  0  0  0  0  0  0
   -1.9630   24.2230  -28.6120 C   0  0  0  0  0  0  0  0  0  0  0  0
   -2.5570   25.2680  -29.3330 O   0  0  0  0  0  0  0  0  0  0  0  0
   -5.6970   19.6560  -32.2770 C   0  0  0  0  0  0  0  0  0  0  0  0
   -4.9550   18.0290  -32.4210 S   0  0  0  0  0  0  0  0  0  0  0  0
   -5.9780   17.5570  -33.8560 C   0  0  0  0  0  0  0  0  0  0  0  0
   -5.7380   18.5210  -35.0080 C   0  0  0  0  0  0  0  0  0  0  0  0
   -7.0380   19.9500  -32.1550 C   0  0  0  0  0  0  0  0  0  0  0  0
   -8.1540   19.1180  -32.1150 C   0  0  0  0  0  0  0  0  0  0  0  0
   -9.4200   19.7210  -32.0060 C   0  0  0  0  0  0  0  0  0  0  0  0
   -9.5400   21.1270  -31.9460 C   0  0  0  0  0  0  0  0  0  0  0  0
   -8.3950   21.9440  -31.9880 C   0  0  0  0  0  0  0  0  0  0  0  0
   -7.1460   21.3200  -32.0880 C   0  0  0  0  0  0  0  0  0  0  0  0
   -6.1655   25.6087  -28.4539 H   0  0  0  0  0  0  0  0  0  0  0  0
   -7.4979   25.7858  -29.6455 H   0  0  0  0  0  0  0  0  0  0  0  0
   -6.4842   24.3029  -29.6455 H   0  0  0  0  0  0  0  0  0  0  0  0
   -6.0869   26.4456  -31.3197 H   0  0  0  0  0  0  0  0  0  0  0  0
   -4.9919   26.8671  -29.9508 H   0  0  0  0  0  0  0  0  0  0  0  0
   -4.2539   23.1100  -30.5383 H   0  0  0  0  0  0  0  0  0  0  0  0
   -5.8735   23.7601  -30.0862 H   0  0  0  0  0  0  0  0  0  0  0  0
   -6.5567   23.8907  -32.3972 H   0  0  0  0  0  0  0  0  0  0  0  0
   -4.8853   23.5309  -32.9684 H   0  0  0  0  0  0  0  0  0  0  0  0
   -3.7350   20.9049  -30.1679 H   0  0  0  0  0  0  0  0  0  0  0  0
   -2.1235   20.2320  -30.5842 H   0  0  0  0  0  0  0  0  0  0  0  0
   -1.0810   22.2526  -30.3857 H   0  0  0  0  0  0  0  0  0  0  0  0
   -2.4968   23.1386  -31.1149 H   0  0  0  0  0  0  0  0  0  0  0  0
   -3.6957   22.9969  -28.9833 H   0  0  0  0  0  0  0  0  0  0  0  0
   -2.2638   22.1343  -28.2575 H   0  0  0  0  0  0  0  0  0  0  0  0
   -2.1037   24.3996  -27.5354 H   0  0  0  0  0  0  0  0  0  0  0  0
   -0.8901   24.1884  -28.8523 H   0  0  0  0  0  0  0  0  0  0  0  0
   -3.5110   25.3020  -29.0550 H   0  0  0  0  0  0  0  0  0  0  0  0
   -5.7122   16.5378  -34.1730 H   0  0  0  0  0  0  0  0  0  0  0  0
   -7.0394   17.5948  -33.5698 H   0  0  0  0  0  0  0  0  0  0  0  0
   -5.4904   19.5155  -34.6084 H   0  0  0  0  0  0  0  0  0  0  0  0
   -4.9035   18.1553  -35.6243 H   0  0  0  0  0  0  0  0  0  0  0  0
   -6.6466   18.5893  -35.6243 H   0  0  0  0  0  0  0  0  0  0  0  0
   -8.0488   18.0243  -32.1670 H   0  0  0  0  0  0  0  0  0  0  0  0
  -10.3226   19.0934  -31.9672 H   0  0  0  0  0  0  0  0  0  0  0  0
  -10.5360   21.5869  -31.8658 H   0  0  0  0  0  0  0  0  0  0  0  0
   -8.4790   23.0399  -31.9436 H   0  0  0  0  0  0  0  0  0  0  0  0
  1  2  1  0
  2  3  1  0
  3  4  1  0
  4  5  1  0
  5  6  1  0
  6  7  1  0
  7  8  1  0
  8  9  1  0
  9 10  1  0
 10 11  1  0
 11 12  1  0
 12 13  1  0
  7 14  2  0
 14 15  1  0
 15 16  1  0
 16 17  1  0
 14 18  1  0
 18 19  2  0
 19 20  1  0
 20 21  2  0
 21 22  1  0
 22 23  2  0
 23  6  1  0
 23 18  1  0
  1 24  1  0
  1 25  1  0
  1 26  1  0
  2 27  1  0
  2 28  1  0
  4 29  1  0
  4 30  1  0
  5 31  1  0
  5 32  1  0
  9 33  1  0
  9 34  1  0
 10 35  1  0
 10 36  1  0
 11 37  1  0
 11 38  1  0
 12 39  1  0
 12 40  1  0
 13 41  1  0
 16 42  1  0
 16 43  1  0
 17 44  1  0
 17 45  1  0
 17 46  1  0
 19 47  1  0
 20 48  1  0
 21 49  1  0
 22 50  1  0
M  END
>  <UniqueID>  (12) 
12

>  <SMILES>  (12) 
CCOCCn1c(SCCCCO)c(SCC)c2ccccc21

>  <Energy>  (12) 
64.25943178476054

>  <Genealogy>  (12) 
CCOCCn1c(SCCCCO)c(SCC)c2ccccc21 (3D coordinates assigned)
CCOCCn1c(SCCCCO)c(SCC)c2ccccc21 (optimized conformer: 64.25943178476054 kcal/mol)

>  <smiles>  (12) 
CCOCCn1c(SCCCCO)c(SCC)c2ccccc21

>  <score_type>  (12) 
oracle

>  <origin>  (12) 
adg

>  <m_score__min__energy>  (12) 
-8.3699999999999992

>  <m_primary>  (12) 
energy

$$$$
12:0
     RDKit          3D

 56 58  0  0  0  0  0  0  0  0999 V2000
   -6.1980   25.4620  -29.6280 C   0  0  0  0  0  0  0  0  0  0  0  0
   -5.2980   25.3790  -30.8610 C   0  0  0  0  0  0  0  0  0  0  0  0
   -3.8840   25.2960  -30.4750 N   0  0  0  0  0  0  0  0  0  0  0  0
   -3.7090   24.5610  -29.2130 C   0  0  0  0  0  0  0  0  0  0  0  0
   -3.2120   23.1400  -29.4880 C   0  0  0  0  0  0  0  0  0  0  0  0
   -2.1720   23.1550  -30.4490 O   0  0  0  0  0  0  0  0  0  0  0  0
   -1.8840   21.8500  -30.9200 C   0  0  0  0  0  0  0  0  0  0  0  0
   -3.1620   21.1840  -31.4340 C   0  0  0  0  0  0  0  0  0  0  0  0
   -3.1480   21.0510  -32.9600 C   0  0  0  0  0  0  0  0  0  0  0  0
   -4.4590   21.3890  -33.5160 N   0  0  0  0  0  0  0  0  0  0  0  0
   -5.6270   20.6530  -33.1260 C   0  0  0  0  0  0  0  0  0  0  0  0
   -6.7160   21.3210  -32.5500 C   0  0  0  0  0  0  0  0  0  0  0  0
   -7.8490   20.5850  -32.1330 C   0  0  0  0  0  0  0  0  0  0  0  0
   -7.8500   19.2050  -32.2190 N   0  0  0  0  0  0  0  0  0  0  0  0
   -8.9430   18.4240  -31.5960 C   0  0  0  0  0  0  0  0  0  0  0  0
   -6.8390   18.5500  -32.8990 C   0  0  0  0  0  0  0  0  0  0  0  0
   -6.9060   17.1620  -33.1840 C   0  0  0  0  0  0  0  0  0  0  0  0
   -5.8530   16.5050  -33.8230 C   0  0  0  0  0  0  0  0  0  0  0  0
   -4.7140   17.2090  -34.1990 C   0  0  0  0  0  0  0  0  0  0  0  0
   -4.6320   18.5780  -33.9630 C   0  0  0  0  0  0  0  0  0  0  0  0
   -5.6940   19.2670  -33.3370 C   0  0  0  0  0  0  0  0  0  0  0  0
   -9.0370   21.3420  -31.5470 C   0  0  0  0  0  0  0  0  0  0  0  0
   -9.0850   22.8160  -31.9590 C   0  0  0  0  0  0  0  0  0  0  0  0
   -7.7370   23.4710  -31.6980 C   0  0  0  0  0  0  0  0  0  0  0  0
   -6.7060   22.7580  -32.4410 N   0  0  0  0  0  0  0  0  0  0  0  0
   -5.5810   25.4051  -28.7191 H   0  0  0  0  0  0  0  0  0  0  0  0
   -6.7478   26.4147  -29.6388 H   0  0  0  0  0  0  0  0  0  0  0  0
   -6.9128   24.6260  -29.6388 H   0  0  0  0  0  0  0  0  0  0  0  0
   -5.5655   24.4841  -31.4421 H   0  0  0  0  0  0  0  0  0  0  0  0
   -5.4442   26.2875  -31.4637 H   0  0  0  0  0  0  0  0  0  0  0  0
   -3.3910   24.7600  -31.2280 H   0  0  0  0  0  0  0  0  0  0  0  0
   -2.9741   25.0871  -28.5860 H   0  0  0  0  0  0  0  0  0  0  0  0
   -4.6776   24.5063  -28.6946 H   0  0  0  0  0  0  0  0  0  0  0  0
   -2.8341   22.7014  -28.5527 H   0  0  0  0  0  0  0  0  0  0  0  0
   -4.0477   22.5403  -29.8779 H   0  0  0  0  0  0  0  0  0  0  0  0
   -1.1513   21.9117  -31.7381 H   0  0  0  0  0  0  0  0  0  0  0  0
   -1.4724   21.2512  -30.0941 H   0  0  0  0  0  0  0  0  0  0  0  0
   -3.2476   20.1820  -30.9882 H   0  0  0  0  0  0  0  0  0  0  0  0
   -4.0186   21.8125  -31.1491 H   0  0  0  0  0  0  0  0  0  0  0  0
   -2.3917   21.7329  -33.3759 H   0  0  0  0  0  0  0  0  0  0  0  0
   -2.9069   20.0108  -33.2243 H   0  0  0  0  0  0  0  0  0  0  0  0
   -4.5250   22.0100  -34.3540 H   0  0  0  0  0  0  0  0  0  0  0  0
   -8.8586   18.4843  -30.5009 H   0  0  0  0  0  0  0  0  0  0  0  0
   -9.9133   18.8345  -31.9122 H   0  0  0  0  0  0  0  0  0  0  0  0
   -8.8690   17.3730  -31.9122 H   0  0  0  0  0  0  0  0  0  0  0  0
   -7.8029   16.5937  -32.8966 H   0  0  0  0  0  0  0  0  0  0  0  0
   -5.9244   15.4270  -34.0298 H   0  0  0  0  0  0  0  0  0  0  0  0
   -3.8777   16.6835  -34.6831 H   0  0  0  0  0  0  0  0  0  0  0  0
   -3.7302   19.1295  -34.2674 H   0  0  0  0  0  0  0  0  0  0  0  0
   -9.9626   20.8549  -31.8876 H   0  0  0  0  0  0  0  0  0  0  0  0
   -8.9300   21.3151  -30.4525 H   0  0  0  0  0  0  0  0  0  0  0  0
   -9.3239   22.8876  -33.0303 H   0  0  0  0  0  0  0  0  0  0  0  0
   -9.8581   23.3315  -31.3702 H   0  0  0  0  0  0  0  0  0  0  0  0
   -7.7681   24.5203  -32.0265 H   0  0  0  0  0  0  0  0  0  0  0  0
   -7.5100   23.4336  -30.6223 H   0  0  0  0  0  0  0  0  0  0  0  0
   -6.0020   23.3250  -32.9640 H   0  0  0  0  0  0  0  0  0  0  0  0
  1  2  1  0
  2  3  1  0
  3  4  1  0
  4  5  1  0
  5  6  1  0
  6  7  1  0
  7  8  1  0
  8  9  1  0
  9 10  1  0
 10 11  1  0
 11 12  2  0
 12 13  1  0
 13 14  2  0
 14 15  1  0
 14 16  1  0
 16 17  2  0
 17 18  1  0
 18 19  2  0
 19 20  1  0
 20 21  2  0
 13 22  1  0
 22 23  1  0
 23 24  1  0
 24 25  1  0
 21 11  1  0
 25 12  1  0
 21 16  1  0
  1 26  1  0
  1 27  1  0
  1 28  1  0
  2 29  1  0
  2 30  1  0
  3 31  1  0
  4 32  1  0
  4 33  1  0
  5 34  1  0
  5 35  1  0
  7 36  1  0
  7 37  1  0
  8 38  1  0
  8 39  1  0
  9 40  1  0
  9 41  1  0
 10 42  1  0
 15 43  1  0
 15 44  1  0
 15 45  1  0
 17 46  1  0
 18 47  1  0
 19 48  1  0
 20 49  1  0
 22 50  1  0
 22 51  1  0
 23 52  1  0
 23 53  1  0
 24 54  1  0
 24 55  1  0
 25 56  1  0
M  CHG  1  14   1
M  END
>  <UniqueID>  (13) 
13

>  <SMILES>  (13) 
CCNCCOCCCNc1c2c([n+](C)c3ccccc13)CCCN2

>  <Energy>  (13) 
70.22594919786057

>  <Genealogy>  (13) 
CCNCCOCCCNc1c2c([n+](C)c3ccccc13)CCCN2 (3D coordinates assigned)
CCNCCOCCCNc1c2c([n+](C)c3ccccc13)CCCN2 (nonaromatic ring conformer: 70.22594919786057 kcal/mol)

>  <smiles>  (13) 
CCNCCOCCCNc1c2c([n+](C)c3ccccc13)CCCN2

>  <score_type>  (13) 
oracle

>  <origin>  (13) 
adg

>  <m_score__min__energy>  (13) 
-9.0099999999999998

>  <m_primary>  (13) 
energy

$$$$
13:0
     RDKit          3D

 28 29  0  0  0  0  0  0  0  0999 V2000
   -9.1100   19.9450  -31.9360 C   0  0  0  0  0  0  0  0  0  0  0  0
   -7.8020   20.6430  -32.0960 C   0  0  0  0  0  0  0  0  0  0  0  0
   -7.4600   21.8560  -31.5270 C   0  0  0  0  0  0  0  0  0  0  0  0
   -6.1430   22.0320  -31.8960 C   0  0  0  0  0  0  0  0  0  0  0  0
   -5.3250   23.1580  -31.5300 N   0  0  0  0  0  0  0  0  0  0  0  0
   -5.8760   24.5140  -31.5950 C   0  0  0  0  0  0  0  0  0  0  0  0
   -5.2890   25.3620  -30.4630 C   0  0  0  0  0  0  0  0  0  0  0  0
   -3.8750   25.2910  -30.4630 O   0  0  0  0  0  0  0  0  0  0  0  0
   -3.4630   23.9700  -30.1650 C   0  0  0  0  0  0  0  0  0  0  0  0
   -3.8930   23.0020  -31.2720 C   0  0  0  0  0  0  0  0  0  0  0  0
   -5.7450   20.9790  -32.6440 N   0  0  0  0  0  0  0  0  0  0  0  0
   -4.4460   20.7750  -33.2750 C   0  0  0  0  0  0  0  0  0  0  0  0
   -6.7480   20.1240  -32.7580 N   0  0  0  0  0  0  0  0  0  0  0  0
   -9.3334   19.8258  -30.8656 H   0  0  0  0  0  0  0  0  0  0  0  0
   -9.9036   20.5396  -32.4122 H   0  0  0  0  0  0  0  0  0  0  0  0
   -9.0579   18.9548  -32.4122 H   0  0  0  0  0  0  0  0  0  0  0  0
   -8.0906   22.5239  -30.9219 H   0  0  0  0  0  0  0  0  0  0  0  0
   -5.6187   24.9677  -32.5635 H   0  0  0  0  0  0  0  0  0  0  0  0
   -6.9699   24.4692  -31.4883 H   0  0  0  0  0  0  0  0  0  0  0  0
   -5.5975   26.4090  -30.5995 H   0  0  0  0  0  0  0  0  0  0  0  0
   -5.6615   24.9751  -29.5030 H   0  0  0  0  0  0  0  0  0  0  0  0
   -2.3672   23.9467  -30.0714 H   0  0  0  0  0  0  0  0  0  0  0  0
   -3.9352   23.6583  -29.2217 H   0  0  0  0  0  0  0  0  0  0  0  0
   -3.3292   23.2222  -32.1905 H   0  0  0  0  0  0  0  0  0  0  0  0
   -3.6890   21.9689  -30.9541 H   0  0  0  0  0  0  0  0  0  0  0  0
   -3.6762   20.6541  -32.4986 H   0  0  0  0  0  0  0  0  0  0  0  0
   -4.4804   19.8712  -33.9011 H   0  0  0  0  0  0  0  0  0  0  0  0
   -4.2017   21.6458  -33.9011 H   0  0  0  0  0  0  0  0  0  0  0  0
  1  2  1  0
  2  3  1  0
  3  4  2  0
  4  5  1  0
  5  6  1  0
  6  7  1  0
  7  8  1  0
  8  9  1  0
  9 10  1  0
  4 11  1  0
 11 12  1  0
 11 13  1  0
 13  2  2  0
 10  5  1  0
  1 14  1  0
  1 15  1  0
  1 16  1  0
  3 17  1  0
  6 18  1  0
  6 19  1  0
  7 20  1  0
  7 21  1  0
  9 22  1  0
  9 23  1  0
 10 24  1  0
 10 25  1  0
 12 26  1  0
 12 27  1  0
 12 28  1  0
M  END
>  <UniqueID>  (14) 
14

>  <SMILES>  (14) 
Cc1cc(N2CCOCC2)n(C)n1

>  <Energy>  (14) 
60.46432952450509

>  <Genealogy>  (14) 
Cc1cc(N2CCOCC2)n(C)n1 (3D coordinates assigned)
Cc1cc(N2CCOCC2)n(C)n1 (nonaromatic ring conformer: 60.46432952450509 kcal/mol)

>  <smiles>  (14) 
Cc1cc(N2CCOCC2)n(C)n1

>  <score_type>  (14) 
oracle

>  <origin>  (14) 
adg

>  <m_score__min__energy>  (14) 
-5.8600000000000003

>  <m_primary>  (14) 
energy

$$$$
14:0
     RDKit          3D

 85 89  0  0  0  0  0  0  0  0999 V2000
   -2.3900   20.0710  -27.4560 C   0  0  0  0  0  0  0  0  0  0  0  0
   -3.0120   21.1980  -28.2650 C   0  0  0  0  0  0  0  0  0  0  0  0
   -2.5980   21.0890  -29.6110 O   0  0  0  0  0  0  0  0  0  0  0  0
   -1.1880   21.1650  -29.7060 C   0  0  0  0  0  0  0  0  0  0  0  0
   -0.7560   21.5570  -31.1190 C   0  0  0  0  0  0  0  0  0  0  0  0
   -1.1470   20.5420  -32.0250 O   0  0  0  0  0  0  0  0  0  0  0  0
   -1.5240   21.0970  -33.2710 C   0  0  0  0  0  0  0  0  0  0  0  0
   -3.0480   21.2050  -33.3780 C   0  0  0  0  0  0  0  0  0  0  0  0
   -3.6960   20.6400  -32.1920 N   0  0  0  0  0  0  0  0  0  0  0  0
   -5.1240   20.5650  -32.0840 C   0  0  0  0  0  0  0  0  0  0  0  0
   -5.8310   19.3930  -32.4430 C   0  0  0  0  0  0  0  0  0  0  0  0
   -5.1390   18.2200  -32.8060 C   0  0  0  0  0  0  0  0  0  0  0  0
   -5.8360   17.0540  -33.1190 C   0  0  0  0  0  0  0  0  0  0  0  0
   -7.2250   17.0330  -33.0640 C   0  0  0  0  0  0  0  0  0  0  0  0
   -7.9380   18.1840  -32.7270 C   0  0  0  0  0  0  0  0  0  0  0  0
   -7.2680   19.3990  -32.4430 C   0  0  0  0  0  0  0  0  0  0  0  0
   -7.9620   20.5700  -32.1720 N   0  0  0  0  0  0  0  0  0  0  0  0
   -9.4300   20.6590  -32.2840 C   0  0  0  0  0  0  0  0  0  0  0  0
   -7.2490   21.6620  -31.7510 C   0  0  0  0  0  0  0  0  0  0  0  0
   -7.7630   22.8360  -31.3080 N   0  0  0  0  0  0  0  0  0  0  0  0
   -6.6960   23.5710  -30.9390 C   0  0  0  0  0  0  0  0  0  0  0  0
   -6.7160   24.8460  -30.3800 C   0  0  0  0  0  0  0  0  0  0  0  0
   -5.4930   25.4090  -29.9790 C   0  0  0  0  0  0  0  0  0  0  0  0
   -4.2850   24.6870  -30.1050 C   0  0  0  0  0  0  0  0  0  0  0  0
   -3.1120   25.2830  -29.6280 O   0  0  0  0  0  0  0  0  0  0  0  0
   -2.0390   24.5820  -29.0130 C   0  0  0  0  0  0  0  0  0  0  0  0
   -1.9770   24.8210  -27.4810 C   0  0  0  0  0  0  0  0  0  0  0  0
   -0.6230   24.9580  -26.8410 N   0  0  0  0  0  0  0  0  0  0  0  0
    0.3770   24.1290  -27.5720 C   0  0  0  0  0  0  0  0  0  0  0  0
   -0.7340   24.4040  -25.4470 C   0  0  0  0  0  0  0  0  0  0  0  0
    0.2750   25.0390  -24.4680 C   0  0  0  0  0  0  0  0  0  0  0  0
    0.0530   26.5120  -24.3080 N   0  0  0  0  0  0  0  0  0  0  0  0
   -0.8320   26.7640  -23.1390 C   0  0  0  0  0  0  0  0  0  0  0  0
    1.3610   27.1680  -24.0350 C   0  0  0  0  0  0  0  0  0  0  0  0
   -0.5720   27.1200  -25.5270 C   0  0  0  0  0  0  0  0  0  0  0  0
   -0.1530   26.3840  -26.8140 C   0  0  0  0  0  0  0  0  0  0  0  0
   -4.2940   23.3970  -30.6840 C   0  0  0  0  0  0  0  0  0  0  0  0
   -5.5170   22.8820  -31.1250 C   0  0  0  0  0  0  0  0  0  0  0  0
   -5.8720   21.6630  -31.6760 C   0  0  0  0  0  0  0  0  0  0  0  0
   -2.5066   20.2824  -26.3828 H   0  0  0  0  0  0  0  0  0  0  0  0
   -2.8930   19.1236  -27.6999 H   0  0  0  0  0  0  0  0  0  0  0  0
   -1.3203   19.9916  -27.6999 H   0  0  0  0  0  0  0  0  0  0  0  0
   -4.1084   21.1277  -28.2108 H   0  0  0  0  0  0  0  0  0  0  0  0
   -2.6886   22.1670  -27.8570 H   0  0  0  0  0  0  0  0  0  0  0  0
   -0.8194   21.9188  -28.9947 H   0  0  0  0  0  0  0  0  0  0  0  0
   -0.7665   20.1764  -29.4716 H   0  0  0  0  0  0  0  0  0  0  0  0
   -1.2361   22.5059  -31.4003 H   0  0  0  0  0  0  0  0  0  0  0  0
    0.3368   21.6787  -31.1504 H   0  0  0  0  0  0  0  0  0  0  0  0
   -1.0835   22.1003  -33.3672 H   0  0  0  0  0  0  0  0  0  0  0  0
   -1.1592   20.4407  -34.0748 H   0  0  0  0  0  0  0  0  0  0  0  0
   -3.3284   22.2646  -33.4714 H   0  0  0  0  0  0  0  0  0  0  0  0
   -3.3794   20.6408  -34.2622 H   0  0  0  0  0  0  0  0  0  0  0  0
   -3.1100   20.1500  -31.4830 H   0  0  0  0  0  0  0  0  0  0  0  0
   -4.0396   18.2246  -32.8426 H   0  0  0  0  0  0  0  0  0  0  0  0
   -5.2852   16.1476  -33.4105 H   0  0  0  0  0  0  0  0  0  0  0  0
   -7.7661   16.1018  -33.2879 H   0  0  0  0  0  0  0  0  0  0  0  0
   -9.0364   18.1472  -32.6812 H   0  0  0  0  0  0  0  0  0  0  0  0
   -9.8735   20.6859  -31.2777 H   0  0  0  0  0  0  0  0  0  0  0  0
   -9.7013   21.5752  -32.8289 H   0  0  0  0  0  0  0  0  0  0  0  0
   -9.8100   19.7822  -32.8289 H   0  0  0  0  0  0  0  0  0  0  0  0
   -8.7630   23.1180  -31.2060 H   0  0  0  0  0  0  0  0  0  0  0  0
   -7.6607   25.3958  -30.2561 H   0  0  0  0  0  0  0  0  0  0  0  0
   -5.4756   26.4263  -29.5610 H   0  0  0  0  0  0  0  0  0  0  0  0
   -2.1686   23.5054  -29.1976 H   0  0  0  0  0  0  0  0  0  0  0  0
   -1.1007   24.9557  -29.4489 H   0  0  0  0  0  0  0  0  0  0  0  0
   -2.5326   25.7470  -27.2719 H   0  0  0  0  0  0  0  0  0  0  0  0
   -2.3957   23.9029  -27.0430 H   0  0  0  0  0  0  0  0  0  0  0  0
    1.0146   23.6005  -26.8480 H   0  0  0  0  0  0  0  0  0  0  0  0
   -0.1460   23.3959  -28.2037 H   0  0  0  0  0  0  0  0  0  0  0  0
    1.0004   24.7788  -28.2037 H   0  0  0  0  0  0  0  0  0  0  0  0
   -1.7515   24.5926  -25.0741 H   0  0  0  0  0  0  0  0  0  0  0  0
   -0.5111   23.3281  -25.5000 H   0  0  0  0  0  0  0  0  0  0  0  0
    0.1689   24.5554  -23.4857 H   0  0  0  0  0  0  0  0  0  0  0  0
    1.2848   24.8908  -24.8783 H   0  0  0  0  0  0  0  0  0  0  0  0
   -0.2664   26.6029  -22.2094 H   0  0  0  0  0  0  0  0  0  0  0  0
   -1.1960   27.8015  -23.1716 H   0  0  0  0  0  0  0  0  0  0  0  0
   -1.6880   26.0739  -23.1716 H   0  0  0  0  0  0  0  0  0  0  0  0
    1.5132   27.2443  -22.9483 H   0  0  0  0  0  0  0  0  0  0  0  0
    2.1709   26.5694  -24.4775 H   0  0  0  0  0  0  0  0  0  0  0  0
    1.3656   28.1751  -24.4775 H   0  0  0  0  0  0  0  0  0  0  0  0
   -1.6664   27.0695  -25.4285 H   0  0  0  0  0  0  0  0  0  0  0  0
   -0.2288   28.1623  -25.6027 H   0  0  0  0  0  0  0  0  0  0  0  0
   -0.5815   26.9129  -27.6781 H   0  0  0  0  0  0  0  0  0  0  0  0
    0.9464   26.3739  -26.8499 H   0  0  0  0  0  0  0  0  0  0  0  0
   -3.3658   22.8154  -30.7846 H   0  0  0  0  0  0  0  0  0  0  0  0
  1  2  1  0
  2  3  1  0
  3  4  1  0
  4  5  1  0
  5  6  1  0
  6  7  1  0
  7  8  1  0
  8  9  1  0
  9 10  1  0
 10 11  2  0
 11 12  1  0
 12 13  2  0
 13 14  1  0
 14 15  2  0
 15 16  1  0
 16 17  2  0
 17 18  1  0
 17 19  1  0
 19 20  1  0
 20 21  1  0
 21 22  2  0
 22 23  1  0
 23 24  2  0
 24 25  1  0
 25 26  1  0
 26 27  1  0
 27 28  1  0
 28 29  1  0
 28 30  1  0
 30 31  1  0
 31 32  1  0
 32 33  1  0
 32 34  1  0
 32 35  1  0
 35 36  1  0
 24 37  1  0
 37 38  2  0
 38 39  1  0
 39 10  1  0
 16 11  1  0
 39 19  2  0
 38 21  1  0
 36 28  1  0
  1 40  1  0
  1 41  1  0
  1 42  1  0
  2 43  1  0
  2 44  1  0
  4 45  1  0
  4 46  1  0
  5 47  1  0
  5 48  1  0
  7 49  1  0
  7 50  1  0
  8 51  1  0
  8 52  1  0
  9 53  1  0
 12 54  1  0
 13 55  1  0
 14 56  1  0
 15 57  1  0
 18 58  1  0
 18 59  1  0
 18 60  1  0
 20 61  1  0
 22 62  1  0
 23 63  1  0
 26 64  1  0
 26 65  1  0
 27 66  1  0
 27 67  1  0
 29 68  1  0
 29 69  1  0
 29 70  1  0
 30 71  1  0
 30 72  1  0
 31 73  1  0
 31 74  1  0
 33 75  1  0
 33 76  1  0
 33 77  1  0
 34 78  1  0
 34 79  1  0
 34 80  1  0
 35 81  1  0
 35 82  1  0
 36 83  1  0
 36 84  1  0
 37 85  1  0
M  CHG  3  17   1  28   1  32   1
M  END
>  <UniqueID>  (15) 
15

>  <SMILES>  (15) 
CCOCCOCCNc1c2ccccc2[n+](C)c2[nH]c3ccc(OCC[N+]4(C)CC[N+](C)(C)CC4)cc3c12

>  <Energy>  (15) 
174.67608791084197

>  <Genealogy>  (15) 
CCOCCOCCNc1c2ccccc2[n+](C)c2[nH]c3ccc(OCC[N+]4(C)CC[N+](C)(C)CC4)cc3c12 (3D coordinates assigned)
CCOCCOCCNc1c2ccccc2[n+](C)c2[nH]c3ccc(OCC[N+]4(C)CC[N+](C)(C)CC4)cc3c12 (nonaromatic ring conformer: 174.67608791084197 kcal/mol)

>  <smiles>  (15) 
CCOCCOCCNc1c2ccccc2[n+](C)c2[nH]c3ccc(OCC[N+]4(C)CC[N+](C)(C)CC4)cc3c12

>  <score_type>  (15) 
oracle

>  <origin>  (15) 
adg

>  <m_score__min__energy>  (15) 
-9.5600000000000005

>  <m_primary>  (15) 
energy

$$$$
15:0
     RDKit          3D

 46 47  0  0  0  0  0  0  0  0999 V2000
   -5.7220   19.7980  -32.5450 C   0  0  0  0  0  0  0  0  0  0  0  0
   -6.9260   20.5630  -33.0840 C   0  0  0  0  0  0  0  0  0  0  0  0
   -7.8850   20.8320  -31.9880 N   0  0  0  0  0  0  0  0  0  0  0  0
   -9.0790   19.9650  -32.0890 C   0  0  0  0  0  0  0  0  0  0  0  0
   -8.7450   18.5530  -31.6120 C   0  0  0  0  0  0  0  0  0  0  0  0
   -8.2580   22.2650  -31.9260 C   0  0  0  0  0  0  0  0  0  0  0  0
   -7.0060   23.1490  -31.8680 C   0  0  0  0  0  0  0  0  0  0  0  0
   -6.8370   23.8030  -30.4910 C   0  0  0  0  0  0  0  0  0  0  0  0
   -5.4090   24.9430  -30.4750 S   0  0  0  0  0  0  0  0  0  0  0  0
   -4.5140   24.0340  -29.2070 C   0  0  0  0  0  0  0  0  0  0  0  0
   -4.3070   24.4970  -27.9620 N   0  0  0  0  0  0  0  0  0  0  0  0
   -3.5770   23.6090  -27.3090 N   0  0  0  0  0  0  0  0  0  0  0  0
   -3.3580   22.5910  -28.1690 C   0  0  0  0  0  0  0  0  0  0  0  0
   -2.5440   21.4090  -27.8150 C   0  0  0  0  0  0  0  0  0  0  0  0
   -1.1660   21.4100  -28.0880 C   0  0  0  0  0  0  0  0  0  0  0  0
   -0.3780   20.3050  -27.7510 C   0  0  0  0  0  0  0  0  0  0  0  0
   -0.9560   19.1980  -27.1270 C   0  0  0  0  0  0  0  0  0  0  0  0
   -2.3220   19.1960  -26.8320 C   0  0  0  0  0  0  0  0  0  0  0  0
   -3.1130   20.2980  -27.1690 C   0  0  0  0  0  0  0  0  0  0  0  0
   -3.9260   22.8330  -29.3750 N   0  0  0  0  0  0  0  0  0  0  0  0
   -3.8990   22.0140  -30.5870 C   0  0  0  0  0  0  0  0  0  0  0  0
   -5.7419   19.8106  -31.4453 H   0  0  0  0  0  0  0  0  0  0  0  0
   -5.7595   18.7577  -32.9005 H   0  0  0  0  0  0  0  0  0  0  0  0
   -4.7961   20.2738  -32.9005 H   0  0  0  0  0  0  0  0  0  0  0  0
   -6.5885   21.5169  -33.5155 H   0  0  0  0  0  0  0  0  0  0  0  0
   -7.4215   19.9589  -33.8583 H   0  0  0  0  0  0  0  0  0  0  0  0
   -9.8834   20.3794  -31.4635 H   0  0  0  0  0  0  0  0  0  0  0  0
   -9.4049   19.9224  -33.1387 H   0  0  0  0  0  0  0  0  0  0  0  0
   -8.7394   18.5292  -30.5123 H   0  0  0  0  0  0  0  0  0  0  0  0
   -9.5016   17.8497  -31.9901 H   0  0  0  0  0  0  0  0  0  0  0  0
   -7.7535   18.2632  -31.9901 H   0  0  0  0  0  0  0  0  0  0  0  0
   -8.8425   22.5250  -32.8208 H   0  0  0  0  0  0  0  0  0  0  0  0
   -8.8543   22.4363  -31.0176 H   0  0  0  0  0  0  0  0  0  0  0  0
   -6.1220   22.5294  -32.0794 H   0  0  0  0  0  0  0  0  0  0  0  0
   -7.1152   23.9480  -32.6161 H   0  0  0  0  0  0  0  0  0  0  0  0
   -7.7494   24.3667  -30.2466 H   0  0  0  0  0  0  0  0  0  0  0  0
   -6.6606   23.0116  -29.7476 H   0  0  0  0  0  0  0  0  0  0  0  0
   -4.6420   25.4020  -27.5640 H   0  0  0  0  0  0  0  0  0  0  0  0
   -0.7043   22.2847  -28.5694 H   0  0  0  0  0  0  0  0  0  0  0  0
    0.6984   20.3081  -27.9778 H   0  0  0  0  0  0  0  0  0  0  0  0
   -0.3361   18.3272  -26.8675 H   0  0  0  0  0  0  0  0  0  0  0  0
   -2.7752   18.3262  -26.3340 H   0  0  0  0  0  0  0  0  0  0  0  0
   -4.1861   20.2957  -26.9274 H   0  0  0  0  0  0  0  0  0  0  0  0
   -3.8639   20.9501  -30.3099 H   0  0  0  0  0  0  0  0  0  0  0  0
   -4.8040   22.2085  -31.1812 H   0  0  0  0  0  0  0  0  0  0  0  0
   -3.0087   22.2677  -31.1812 H   0  0  0  0  0  0  0  0  0  0  0  0
  1  2  1  0
  2  3  1  0
  3  4  1  0
  4  5  1  0
  3  6  1  0
  6  7  1  0
  7  8  1  0
  8  9  1  0
  9 10  1  0
 10 11  2  0
 11 12  1  0
 12 13  2  0
 13 14  1  0
 14 15  2  0
 15 16  1  0
 16 17  2  0
 17 18  1  0
 18 19  2  0
 13 20  1  0
 20 21  1  0
 20 10  1  0
 19 14  1  0
  1 22  1  0
  1 23  1  0
  1 24  1  0
  2 25  1  0
  2 26  1  0
  4 27  1  0
  4 28  1  0
  5 29  1  0
  5 30  1  0
  5 31  1  0
  6 32  1  0
  6 33  1  0
  7 34  1  0
  7 35  1  0
  8 36  1  0
  8 37  1  0
 11 38  1  0
 15 39  1  0
 16 40  1  0
 17 41  1  0
 18 42  1  0
 19 43  1  0
 21 44  1  0
 21 45  1  0
 21 46  1  0
M  CHG  1  11   1
M  END
>  <UniqueID>  (16) 
16

>  <SMILES>  (16) 
CCN(CC)CCCSc1[nH+]nc(-c2ccccc2)n1C

>  <Energy>  (16) 
74.35334650250103

>  <Genealogy>  (16) 
CCN(CC)CCCSc1[nH+]nc(-c2ccccc2)n1C (protonated)
CCN(CC)CCCSc1[nH+]nc(-c2ccccc2)n1C (3D coordinates assigned)
CCN(CC)CCCSc1[nH+]nc(-c2ccccc2)n1C (optimized conformer: 74.35334650250103 kcal/mol)

>  <smiles>  (16) 
CCN(CC)CCCSc1nnc(-c2ccccc2)n1C

>  <score_type>  (16) 
oracle

>  <origin>  (16) 
adg

>  <m_score__min__energy>  (16) 
-7.0999999999999996

>  <m_primary>  (16) 
energy

$$$$
16:0
     RDKit          3D

 69 71  0  0  0  0  0  0  0  0999 V2000
   -2.3850   20.5160  -28.6150 C   0  0  0  0  0  0  0  0  0  0  0  0
   -3.4630   21.4110  -29.2070 C   0  0  0  0  0  0  0  0  0  0  0  0
   -2.8780   22.2670  -30.1660 O   0  0  0  0  0  0  0  0  0  0  0  0
   -1.4730   22.0960  -30.1960 C   0  0  0  0  0  0  0  0  0  0  0  0
   -0.7790   23.3770  -29.7180 C   0  0  0  0  0  0  0  0  0  0  0  0
   -1.5960   24.1120  -28.6490 C   0  0  0  0  0  0  0  0  0  0  0  0
   -2.7360   24.8060  -29.2600 N   0  0  0  0  0  0  0  0  0  0  0  0
   -3.9720   24.5210  -28.5190 C   0  0  0  0  0  0  0  0  0  0  0  0
   -5.1810   24.6290  -29.4460 C   0  0  0  0  0  0  0  0  0  0  0  0
   -4.7450   24.6230  -30.7870 O   0  0  0  0  0  0  0  0  0  0  0  0
   -5.8450   24.5450  -31.6790 C   0  0  0  0  0  0  0  0  0  0  0  0
   -5.9330   23.1590  -32.3420 C   0  0  0  0  0  0  0  0  0  0  0  0
   -5.0130   22.1770  -31.7240 N   0  0  0  0  0  0  0  0  0  0  0  0
   -5.4050   20.8120  -32.0290 C   0  0  0  0  0  0  0  0  0  0  0  0
   -6.7460   20.3820  -31.8510 C   0  0  0  0  0  0  0  0  0  0  0  0
   -7.1230   19.0800  -32.2420 C   0  0  0  0  0  0  0  0  0  0  0  0
   -6.1740   18.1660  -32.6420 N   0  0  0  0  0  0  0  0  0  0  0  0
   -6.5380   16.7410  -32.7860 C   0  0  0  0  0  0  0  0  0  0  0  0
   -4.8840   18.5780  -32.8910 C   0  0  0  0  0  0  0  0  0  0  0  0
   -4.4600   19.8740  -32.5220 C   0  0  0  0  0  0  0  0  0  0  0  0
   -2.9600   20.1290  -32.5340 C   0  0  0  0  0  0  0  0  0  0  0  0
   -2.2960   19.6770  -33.8480 C   0  0  0  0  0  0  0  0  0  0  0  0
   -2.9810   18.4700  -34.5190 C   0  0  0  0  0  0  0  0  0  0  0  0
   -3.8610   17.6680  -33.5530 C   0  0  0  0  0  0  0  0  0  0  0  0
   -8.6020   18.7270  -32.1530 C   0  0  0  0  0  0  0  0  0  0  0  0
   -9.4780   19.9030  -32.6190 C   0  0  0  0  0  0  0  0  0  0  0  0
   -9.1020   21.2570  -31.9770 C   0  0  0  0  0  0  0  0  0  0  0  0
   -7.8120   21.2100  -31.1510 C   0  0  0  0  0  0  0  0  0  0  0  0
   -2.4357   20.5581  -27.5170 H   0  0  0  0  0  0  0  0  0  0  0  0
   -2.5436   19.4803  -28.9499 H   0  0  0  0  0  0  0  0  0  0  0  0
   -1.3961   20.8624  -28.9499 H   0  0  0  0  0  0  0  0  0  0  0  0
   -4.2334   20.7907  -29.6883 H   0  0  0  0  0  0  0  0  0  0  0  0
   -3.9264   22.0101  -28.4093 H   0  0  0  0  0  0  0  0  0  0  0  0
   -1.1933   21.2619  -29.5357 H   0  0  0  0  0  0  0  0  0  0  0  0
   -1.1576   21.8773  -31.2269 H   0  0  0  0  0  0  0  0  0  0  0  0
    0.2015   23.1125  -29.2953 H   0  0  0  0  0  0  0  0  0  0  0  0
   -0.6731   24.0476  -30.5835 H   0  0  0  0  0  0  0  0  0  0  0  0
   -1.9677   23.3837  -27.9132 H   0  0  0  0  0  0  0  0  0  0  0  0
   -0.9507   24.8539  -28.1558 H   0  0  0  0  0  0  0  0  0  0  0  0
   -2.8470   24.4340  -30.2320 H   0  0  0  0  0  0  0  0  0  0  0  0
   -3.9211   23.5028  -28.1058 H   0  0  0  0  0  0  0  0  0  0  0  0
   -4.0784   25.2526  -27.7045 H   0  0  0  0  0  0  0  0  0  0  0  0
   -5.8524   23.7747  -29.2746 H   0  0  0  0  0  0  0  0  0  0  0  0
   -5.7202   25.5652  -29.2391 H   0  0  0  0  0  0  0  0  0  0  0  0
   -6.7733   24.7339  -31.1199 H   0  0  0  0  0  0  0  0  0  0  0  0
   -5.7047   25.2981  -32.4684 H   0  0  0  0  0  0  0  0  0  0  0  0
   -6.9635   22.7864  -32.2458 H   0  0  0  0  0  0  0  0  0  0  0  0
   -5.6418   23.2731  -33.3966 H   0  0  0  0  0  0  0  0  0  0  0  0
   -4.9830   22.3250  -30.6890 H   0  0  0  0  0  0  0  0  0  0  0  0
   -4.0170   22.3380  -31.9910 H   0  0  0  0  0  0  0  0  0  0  0  0
   -6.6533   16.2895  -31.7896 H   0  0  0  0  0  0  0  0  0  0  0  0
   -7.4860   16.6587  -33.3378 H   0  0  0  0  0  0  0  0  0  0  0  0
   -5.7456   16.2141  -33.3378 H   0  0  0  0  0  0  0  0  0  0  0  0
   -2.7842   21.2069  -32.4024 H   0  0  0  0  0  0  0  0  0  0  0  0
   -2.5147   19.5440  -31.7157 H   0  0  0  0  0  0  0  0  0  0  0  0
   -2.3162   20.5211  -34.5530 H   0  0  0  0  0  0  0  0  0  0  0  0
   -1.2742   19.3594  -33.5931 H   0  0  0  0  0  0  0  0  0  0  0  0
   -3.6098   18.8374  -35.3434 H   0  0  0  0  0  0  0  0  0  0  0  0
   -2.1872   17.7977  -34.8766 H   0  0  0  0  0  0  0  0  0  0  0  0
   -4.3853   16.8780  -34.1107 H   0  0  0  0  0  0  0  0  0  0  0  0
   -3.2237   17.2213  -32.7757 H   0  0  0  0  0  0  0  0  0  0  0  0
   -8.8026   17.8539  -32.7913 H   0  0  0  0  0  0  0  0  0  0  0  0
   -8.8463   18.5017  -31.1044 H   0  0  0  0  0  0  0  0  0  0  0  0
   -9.3785   19.9977  -33.7104 H   0  0  0  0  0  0  0  0  0  0  0  0
  -10.5082   19.6769  -32.3067 H   0  0  0  0  0  0  0  0  0  0  0  0
   -8.9736   21.9982  -32.7796 H   0  0  0  0  0  0  0  0  0  0  0  0
   -9.9162   21.5226  -31.2867 H   0  0  0  0  0  0  0  0  0  0  0  0
   -7.4371   22.2346  -31.0109 H   0  0  0  0  0  0  0  0  0  0  0  0
   -8.0350   20.7448  -30.1795 H   0  0  0  0  0  0  0  0  0  0  0  0
  1  2  1  0
  2  3  1  0
  3  4  1  0
  4  5  1  0
  5  6  1  0
  6  7  1  0
  7  8  1  0
  8  9  1  0
  9 10  1  0
 10 11  1  0
 11 12  1  0
 12 13  1  0
 13 14  1  0
 14 15  2  0
 15 16  1  0
 16 17  2  0
 17 18  1  0
 17 19  1  0
 19 20  2  0
 20 21  1  0
 21 22  1  0
 22 23  1  0
 23 24  1  0
 16 25  1  0
 25 26  1  0
 26 27  1  0
 27 28  1  0
 20 14  1  0
 28 15  1  0
 24 19  1  0
  1 29  1  0
  1 30  1  0
  1 31  1  0
  2 32  1  0
  2 33  1  0
  4 34  1  0
  4 35  1  0
  5 36  1  0
  5 37  1  0
  6 38  1  0
  6 39  1  0
  7 40  1  0
  8 41  1  0
  8 42  1  0
  9 43  1  0
  9 44  1  0
 11 45  1  0
 11 46  1  0
 12 47  1  0
 12 48  1  0
 13 49  1  0
 13 50  1  0
 18 51  1  0
 18 52  1  0
 18 53  1  0
 21 54  1  0
 21 55  1  0
 22 56  1  0
 22 57  1  0
 23 58  1  0
 23 59  1  0
 24 60  1  0
 24 61  1  0
 25 62  1  0
 25 63  1  0
 26 64  1  0
 26 65  1  0
 27 66  1  0
 27 67  1  0
 28 68  1  0
 28 69  1  0
M  CHG  2  13   1  17   1
M  END
>  <UniqueID>  (17) 
17

>  <SMILES>  (17) 
CCOCCCNCCOCC[NH2+]c1c2c([n+](C)c3c1CCCC3)CCCC2

>  <Energy>  (17) 
90.70104103148792

>  <Genealogy>  (17) 
CCOCCCNCCOCC[NH2+]c1c2c([n+](C)c3c1CCCC3)CCCC2 (protonated)
CCOCCCNCCOCC[NH2+]c1c2c([n+](C)c3c1CCCC3)CCCC2 (3D coordinates assigned)
CCOCCCNCCOCC[NH2+]c1c2c([n+](C)c3c1CCCC3)CCCC2 (nonaromatic ring conformer: 90.70104103148792 kcal/mol)

>  <smiles>  (17) 
CCOCCCNCCOCCNc1c2c([n+](C)c3c1CCCC3)CCCC2

>  <score_type>  (17) 
oracle

>  <origin>  (17) 
adg

>  <m_score__min__energy>  (17) 
-8.6799999999999997

>  <m_primary>  (17) 
energy

$$$$
17:0
     RDKit          3D

 54 56  0  0  0  0  0  0  0  0999 V2000
   -2.2060   25.3960  -26.3340 C   0  0  0  0  0  0  0  0  0  0  0  0
   -3.6940   25.2990  -25.9860 C   0  0  0  0  0  0  0  0  0  0  0  0
   -4.5140   24.8980  -27.1450 N   0  0  0  0  0  0  0  0  0  0  0  0
   -4.0790   23.6260  -27.7560 C   0  0  0  0  0  0  0  0  0  0  0  0
   -3.4330   23.8310  -29.1360 C   0  0  0  0  0  0  0  0  0  0  0  0
   -4.0970   24.8700  -29.8310 O   0  0  0  0  0  0  0  0  0  0  0  0
   -5.5040   24.6960  -29.8040 C   0  0  0  0  0  0  0  0  0  0  0  0
   -6.1210   25.0150  -31.1710 C   0  0  0  0  0  0  0  0  0  0  0  0
   -6.2710   23.7570  -32.0340 C   0  0  0  0  0  0  0  0  0  0  0  0
   -5.2950   22.7400  -31.6400 N   0  0  0  0  0  0  0  0  0  0  0  0
   -5.2860   21.4300  -32.2330 C   0  0  0  0  0  0  0  0  0  0  0  0
   -4.1070   20.9120  -32.7970 C   0  0  0  0  0  0  0  0  0  0  0  0
   -2.8840   21.6070  -32.6830 C   0  0  0  0  0  0  0  0  0  0  0  0
   -1.7100   21.0740  -33.2090 C   0  0  0  0  0  0  0  0  0  0  0  0
   -1.7290   19.8330  -33.8340 C   0  0  0  0  0  0  0  0  0  0  0  0
   -2.9230   19.1220  -33.9500 C   0  0  0  0  0  0  0  0  0  0  0  0
   -4.1430   19.6550  -33.4580 C   0  0  0  0  0  0  0  0  0  0  0  0
   -5.3390   18.9750  -33.5910 N   0  0  0  0  0  0  0  0  0  0  0  0
   -5.4400   17.8270  -34.5180 C   0  0  0  0  0  0  0  0  0  0  0  0
   -6.4450   19.3790  -32.8660 C   0  0  0  0  0  0  0  0  0  0  0  0
   -7.6000   18.5650  -32.7490 C   0  0  0  0  0  0  0  0  0  0  0  0
   -8.7280   19.0070  -32.0570 C   0  0  0  0  0  0  0  0  0  0  0  0
   -9.8200   18.2110  -31.9620 F   0  0  0  0  0  0  0  0  0  0  0  0
   -8.7310   20.2610  -31.4560 C   0  0  0  0  0  0  0  0  0  0  0  0
   -7.5990   21.0680  -31.5200 C   0  0  0  0  0  0  0  0  0  0  0  0
   -6.4420   20.6340  -32.2010 C   0  0  0  0  0  0  0  0  0  0  0  0
   -1.6145   25.4346  -25.4074 H   0  0  0  0  0  0  0  0  0  0  0  0
   -1.9089   24.5153  -26.9223 H   0  0  0  0  0  0  0  0  0  0  0  0
   -2.0257   26.3078  -26.9223 H   0  0  0  0  0  0  0  0  0  0  0  0
   -3.8228   24.5543  -25.1867 H   0  0  0  0  0  0  0  0  0  0  0  0
   -4.0304   26.2955  -25.6638 H   0  0  0  0  0  0  0  0  0  0  0  0
   -5.5120   24.8150  -26.8400 H   0  0  0  0  0  0  0  0  0  0  0  0
   -4.4850   25.6500  -27.8710 H   0  0  0  0  0  0  0  0  0  0  0  0
   -3.3462   23.1465  -27.0904 H   0  0  0  0  0  0  0  0  0  0  0  0
   -4.9708   22.9966  -27.8926 H   0  0  0  0  0  0  0  0  0  0  0  0
   -2.3738   24.0981  -29.0065 H   0  0  0  0  0  0  0  0  0  0  0  0
   -3.5143   22.8993  -29.7151 H   0  0  0  0  0  0  0  0  0  0  0  0
   -5.7329   23.6530  -29.5401 H   0  0  0  0  0  0  0  0  0  0  0  0
   -5.9289   25.3832  -29.0576 H   0  0  0  0  0  0  0  0  0  0  0  0
   -7.1141   25.4626  -31.0180 H   0  0  0  0  0  0  0  0  0  0  0  0
   -5.4505   25.7119  -31.6951 H   0  0  0  0  0  0  0  0  0  0  0  0
   -7.2858   23.3516  -31.9081 H   0  0  0  0  0  0  0  0  0  0  0  0
   -6.0956   24.0267  -33.0859 H   0  0  0  0  0  0  0  0  0  0  0  0
   -4.6290   22.9480  -30.8630 H   0  0  0  0  0  0  0  0  0  0  0  0
   -2.8579   22.5811  -32.1727 H   0  0  0  0  0  0  0  0  0  0  0  0
   -0.7674   21.6354  -33.1298 H   0  0  0  0  0  0  0  0  0  0  0  0
   -0.7980   19.4096  -34.2390 H   0  0  0  0  0  0  0  0  0  0  0  0
   -2.9193   18.1324  -34.4304 H   0  0  0  0  0  0  0  0  0  0  0  0
   -5.5220   16.8949  -33.9397 H   0  0  0  0  0  0  0  0  0  0  0  0
   -6.3312   17.9449  -35.1519 H   0  0  0  0  0  0  0  0  0  0  0  0
   -4.5419   17.7874  -35.1519 H   0  0  0  0  0  0  0  0  0  0  0  0
   -7.6069   17.5672  -33.2121 H   0  0  0  0  0  0  0  0  0  0  0  0
   -9.6293   20.6156  -30.9293 H   0  0  0  0  0  0  0  0  0  0  0  0
   -7.6064   22.0550  -31.0344 H   0  0  0  0  0  0  0  0  0  0  0  0
  1  2  1  0
  2  3  1  0
  3  4  1  0
  4  5  1  0
  5  6  1  0
  6  7  1  0
  7  8  1  0
  8  9  1  0
  9 10  1  0
 10 11  1  0
 11 12  2  0
 12 13  1  0
 13 14  2  0
 14 15  1  0
 15 16  2  0
 16 17  1  0
 17 18  2  0
 18 19  1  0
 18 20  1  0
 20 21  2  0
 21 22  1  0
 22 23  1  0
 22 24  2  0
 24 25  1  0
 25 26  2  0
 26 11  1  0
 17 12  1  0
 26 20  1  0
  1 27  1  0
  1 28  1  0
  1 29  1  0
  2 30  1  0
  2 31  1  0
  3 32  1  0
  3 33  1  0
  4 34  1  0
  4 35  1  0
  5 36  1  0
  5 37  1  0
  7 38  1  0
  7 39  1  0
  8 40  1  0
  8 41  1  0
  9 42  1  0
  9 43  1  0
 10 44  1  0
 13 45  1  0
 14 46  1  0
 15 47  1  0
 16 48  1  0
 19 49  1  0
 19 50  1  0
 19 51  1  0
 21 52  1  0
 24 53  1  0
 25 54  1  0
M  CHG  2   3   1  18   1
M  END
>  <UniqueID>  (18) 
18

>  <SMILES>  (18) 
CC[NH2+]CCOCCCNc1c2ccccc2[n+](C)c2cc(F)ccc12

>  <Energy>  (18) 
78.91833940085223

>  <Genealogy>  (18) 
CC[NH2+]CCOCCCNc1c2ccccc2[n+](C)c2cc(F)ccc12 (protonated)
CC[NH2+]CCOCCCNc1c2ccccc2[n+](C)c2cc(F)ccc12 (3D coordinates assigned)
CC[NH2+]CCOCCCNc1c2ccccc2[n+](C)c2cc(F)ccc12 (optimized conformer: 78.91833940085223 kcal/mol)

>  <smiles>  (18) 
CCNCCOCCCNc1c2ccccc2[n+](C)c2cc(F)ccc12

>  <score_type>  (18) 
oracle

>  <origin>  (18) 
adg

>  <m_score__min__energy>  (18) 
-8.2899999999999991

>  <m_primary>  (18) 
energy

$$$$
18:0
     RDKit          3D

 73 75  0  0  0  0  0  0  0  0999 V2000
   -0.4900   22.4620  -24.2710 C   0  0  0  0  0  0  0  0  0  0  0  0
   -0.1410   23.2650  -25.5200 C   0  0  0  0  0  0  0  0  0  0  0  0
    0.2070   22.3430  -26.6980 C   0  0  0  0  0  0  0  0  0  0  0  0
   -1.0050   21.8430  -27.3880 N   0  0  0  0  0  0  0  0  0  0  0  0
   -1.1800   20.3700  -27.3240 C   0  0  0  0  0  0  0  0  0  0  0  0
   -2.6520   19.9120  -27.3930 C   0  0  0  0  0  0  0  0  0  0  0  0
   -2.9650   18.9070  -26.2860 C   0  0  0  0  0  0  0  0  0  0  0  0
   -1.0860   22.3510  -28.7780 C   0  0  0  0  0  0  0  0  0  0  0  0
   -0.4920   23.7560  -28.8690 C   0  0  0  0  0  0  0  0  0  0  0  0
   -1.5020   24.6690  -29.2420 O   0  0  0  0  0  0  0  0  0  0  0  0
   -2.0370   25.2830  -28.0880 C   0  0  0  0  0  0  0  0  0  0  0  0
   -3.1010   24.3740  -27.4680 C   0  0  0  0  0  0  0  0  0  0  0  0
   -4.0710   23.8080  -28.5120 C   0  0  0  0  0  0  0  0  0  0  0  0
   -5.0710   24.8280  -28.8730 N   0  0  0  0  0  0  0  0  0  0  0  0
   -4.8670   25.3310  -30.2360 C   0  0  0  0  0  0  0  0  0  0  0  0
   -5.7450   24.5500  -31.2110 C   0  0  0  0  0  0  0  0  0  0  0  0
   -6.0400   23.2240  -30.6740 N   0  0  0  0  0  0  0  0  0  0  0  0
   -5.9580   22.0470  -31.4960 C   0  0  0  0  0  0  0  0  0  0  0  0
   -4.7080   21.5610  -31.9140 C   0  0  0  0  0  0  0  0  0  0  0  0
   -3.5160   22.1990  -31.5140 C   0  0  0  0  0  0  0  0  0  0  0  0
   -2.2770   21.6890  -31.8900 C   0  0  0  0  0  0  0  0  0  0  0  0
   -2.2030   20.5330  -32.6570 C   0  0  0  0  0  0  0  0  0  0  0  0
   -3.3670   19.8960  -33.0800 C   0  0  0  0  0  0  0  0  0  0  0  0
   -4.6460   20.4150  -32.7510 C   0  0  0  0  0  0  0  0  0  0  0  0
   -5.8100   19.8290  -33.2130 N   0  0  0  0  0  0  0  0  0  0  0  0
   -5.7530   18.8300  -34.3040 C   0  0  0  0  0  0  0  0  0  0  0  0
   -7.0290   20.1940  -32.6720 C   0  0  0  0  0  0  0  0  0  0  0  0
   -8.2080   19.4420  -32.9120 C   0  0  0  0  0  0  0  0  0  0  0  0
   -9.4360   19.8400  -32.3850 C   0  0  0  0  0  0  0  0  0  0  0  0
   -9.5210   20.9790  -31.5940 C   0  0  0  0  0  0  0  0  0  0  0  0
   -8.3760   21.7170  -31.3070 C   0  0  0  0  0  0  0  0  0  0  0  0
   -7.1220   21.3330  -31.8280 C   0  0  0  0  0  0  0  0  0  0  0  0
   -0.2354   23.0478  -23.3755 H   0  0  0  0  0  0  0  0  0  0  0  0
   -1.5669   22.2376  -24.2684 H   0  0  0  0  0  0  0  0  0  0  0  0
    0.0806   21.5215  -24.2684 H   0  0  0  0  0  0  0  0  0  0  0  0
   -1.0031   23.8897  -25.7967 H   0  0  0  0  0  0  0  0  0  0  0  0
    0.7369   23.8892  -25.2970 H   0  0  0  0  0  0  0  0  0  0  0  0
    0.8202   22.9037  -27.4188 H   0  0  0  0  0  0  0  0  0  0  0  0
    0.7541   21.4754  -26.3005 H   0  0  0  0  0  0  0  0  0  0  0  0
   -0.6372   19.9197  -28.1681 H   0  0  0  0  0  0  0  0  0  0  0  0
   -0.7894   20.0440  -26.3487 H   0  0  0  0  0  0  0  0  0  0  0  0
   -3.3071   20.7883  -27.2791 H   0  0  0  0  0  0  0  0  0  0  0  0
   -2.8229   19.4269  -28.3654 H   0  0  0  0  0  0  0  0  0  0  0  0
   -2.8166   19.3833  -25.3056 H   0  0  0  0  0  0  0  0  0  0  0  0
   -4.0094   18.5740  -26.3776 H   0  0  0  0  0  0  0  0  0  0  0  0
   -2.2944   18.0399  -26.3776 H   0  0  0  0  0  0  0  0  0  0  0  0
   -0.5258   21.6772  -29.4430 H   0  0  0  0  0  0  0  0  0  0  0  0
   -2.1425   22.3907  -29.0816 H   0  0  0  0  0  0  0  0  0  0  0  0
   -0.0798   24.0442  -27.8907 H   0  0  0  0  0  0  0  0  0  0  0  0
    0.3100   23.7677  -29.6217 H   0  0  0  0  0  0  0  0  0  0  0  0
   -1.2320   25.4546  -27.3583 H   0  0  0  0  0  0  0  0  0  0  0  0
   -2.4946   26.2442  -28.3650 H   0  0  0  0  0  0  0  0  0  0  0  0
   -2.5982   23.5361  -26.9629 H   0  0  0  0  0  0  0  0  0  0  0  0
   -3.6871   24.9796  -26.7611 H   0  0  0  0  0  0  0  0  0  0  0  0
   -3.5088   23.5144  -29.4107 H   0  0  0  0  0  0  0  0  0  0  0  0
   -4.5843   22.9309  -28.0911 H   0  0  0  0  0  0  0  0  0  0  0  0
   -4.9840   25.6340  -28.2090 H   0  0  0  0  0  0  0  0  0  0  0  0
   -5.1353   26.3970  -30.2761 H   0  0  0  0  0  0  0  0  0  0  0  0
   -3.8108   25.2045  -30.5161 H   0  0  0  0  0  0  0  0  0  0  0  0
   -6.6869   25.0958  -31.3689 H   0  0  0  0  0  0  0  0  0  0  0  0
   -5.2101   24.4395  -32.1658 H   0  0  0  0  0  0  0  0  0  0  0  0
   -6.1700   23.1130  -29.6420 H   0  0  0  0  0  0  0  0  0  0  0  0
   -3.5659   23.1092  -30.8984 H   0  0  0  0  0  0  0  0  0  0  0  0
   -1.3548   22.2020  -31.5794 H   0  0  0  0  0  0  0  0  0  0  0  0
   -1.2214   20.1193  -32.9312 H   0  0  0  0  0  0  0  0  0  0  0  0
   -3.2937   18.9760  -33.6786 H   0  0  0  0  0  0  0  0  0  0  0  0
   -5.6953   17.8195  -33.8732 H   0  0  0  0  0  0  0  0  0  0  0  0
   -6.6573   18.9129  -34.9247 H   0  0  0  0  0  0  0  0  0  0  0  0
   -4.8640   19.0153  -34.9247 H   0  0  0  0  0  0  0  0  0  0  0  0
   -8.1523   18.5297  -33.5241 H   0  0  0  0  0  0  0  0  0  0  0  0
  -10.3403   19.2504  -32.5962 H   0  0  0  0  0  0  0  0  0  0  0  0
  -10.4946   21.2982  -31.1938 H   0  0  0  0  0  0  0  0  0  0  0  0
   -8.4495   22.6089  -30.6674 H   0  0  0  0  0  0  0  0  0  0  0  0
  1  2  1  0
  2  3  1  0
  3  4  1  0
  4  5  1  0
  5  6  1  0
  6  7  1  0
  4  8  1  0
  8  9  1  0
  9 10  1  0
 10 11  1  0
 11 12  1  0
 12 13  1  0
 13 14  1  0
 14 15  1  0
 15 16  1  0
 16 17  1  0
 17 18  1  0
 18 19  2  0
 19 20  1  0
 20 21  2  0
 21 22  1  0
 22 23  2  0
 23 24  1  0
 24 25  2  0
 25 26  1  0
 25 27  1  0
 27 28  2  0
 28 29  1  0
 29 30  2  0
 30 31  1  0
 31 32  2  0
 32 18  1  0
 24 19  1  0
 32 27  1  0
  1 33  1  0
  1 34  1  0
  1 35  1  0
  2 36  1  0
  2 37  1  0
  3 38  1  0
  3 39  1  0
  5 40  1  0
  5 41  1  0
  6 42  1  0
  6 43  1  0
  7 44  1  0
  7 45  1  0
  7 46  1  0
  8 47  1  0
  8 48  1  0
  9 49  1  0
  9 50  1  0
 11 51  1  0
 11 52  1  0
 12 53  1  0
 12 54  1  0
 13 55  1  0
 13 56  1  0
 14 57  1  0
 15 58  1  0
 15 59  1  0
 16 60  1  0
 16 61  1  0
 17 62  1  0
 20 63  1  0
 21 64  1  0
 22 65  1  0
 23 66  1  0
 26 67  1  0
 26 68  1  0
 26 69  1  0
 28 70  1  0
 29 71  1  0
 30 72  1  0
 31 73  1  0
M  CHG  1  25   1
M  END
>  <UniqueID>  (19) 
19

>  <SMILES>  (19) 
CCCN(CCC)CCOCCCNCCNc1c2ccccc2[n+](C)c2ccccc12

>  <Energy>  (19) 
86.60426934880752

>  <Genealogy>  (19) 
CCCN(CCC)CCOCCCNCCNc1c2ccccc2[n+](C)c2ccccc12 (3D coordinates assigned)
CCCN(CCC)CCOCCCNCCNc1c2ccccc2[n+](C)c2ccccc12 (optimized conformer: 86.60426934880752 kcal/mol)

>  <smiles>  (19) 
CCCN(CCC)CCOCCCNCCNc1c2ccccc2[n+](C)c2ccccc12

>  <score_type>  (19) 
oracle

>  <origin>  (19) 
adg

>  <m_score__min__energy>  (19) 
-9.9399999999999995

>  <m_primary>  (19) 
energy

$$$$
19:0
     RDKit          3D

 47 49  0  0  0  0  0  0  0  0999 V2000
   -4.4670   24.1310  -28.7050 C   0  0  0  0  0  0  0  0  0  0  0  0
   -3.6790   24.6480  -29.9030 C   0  0  0  0  0  0  0  0  0  0  0  0
   -4.5740   24.8340  -31.0500 N   0  0  0  0  0  0  0  0  0  0  0  0
   -5.9370   25.1330  -30.5910 C   0  0  0  0  0  0  0  0  0  0  0  0
   -6.9480   24.1910  -31.2520 C   0  0  0  0  0  0  0  0  0  0  0  0
   -6.2960   23.3280  -32.3520 C   0  0  0  0  0  0  0  0  0  0  0  0
   -5.1430   22.5560  -31.8430 N   0  0  0  0  0  0  0  0  0  0  0  0
   -5.2500   21.1330  -32.1370 C   0  0  0  0  0  0  0  0  0  0  0  0
   -6.5020   20.4820  -32.0890 C   0  0  0  0  0  0  0  0  0  0  0  0
   -7.5410   20.9430  -31.2510 C   0  0  0  0  0  0  0  0  0  0  0  0
   -8.7650   20.2820  -31.2060 C   0  0  0  0  0  0  0  0  0  0  0  0
   -8.9740   19.1470  -31.9810 C   0  0  0  0  0  0  0  0  0  0  0  0
   -7.9640   18.6740  -32.8190 C   0  0  0  0  0  0  0  0  0  0  0  0
   -6.7170   19.3420  -32.9060 C   0  0  0  0  0  0  0  0  0  0  0  0
   -5.7250   18.9190  -33.7650 N   0  0  0  0  0  0  0  0  0  0  0  0
   -6.0510   18.0010  -34.8790 C   0  0  0  0  0  0  0  0  0  0  0  0
   -4.4240   19.3370  -33.5620 C   0  0  0  0  0  0  0  0  0  0  0  0
   -3.3340   18.6970  -34.2020 C   0  0  0  0  0  0  0  0  0  0  0  0
   -2.0230   19.0840  -33.9430 C   0  0  0  0  0  0  0  0  0  0  0  0
   -1.7580   20.0550  -32.9880 C   0  0  0  0  0  0  0  0  0  0  0  0
   -2.8010   20.6920  -32.3150 C   0  0  0  0  0  0  0  0  0  0  0  0
   -2.2860   21.6410  -30.7180 Br  0  0  0  0  0  0  0  0  0  0  0  0
   -4.1520   20.4110  -32.6660 C   0  0  0  0  0  0  0  0  0  0  0  0
   -3.9750   24.4538  -27.7756 H   0  0  0  0  0  0  0  0  0  0  0  0
   -5.4900   24.5340  -28.7374 H   0  0  0  0  0  0  0  0  0  0  0  0
   -4.5046   23.0321  -28.7374 H   0  0  0  0  0  0  0  0  0  0  0  0
   -3.2132   25.6104  -29.6447 H   0  0  0  0  0  0  0  0  0  0  0  0
   -2.9015   23.9159  -30.1668 H   0  0  0  0  0  0  0  0  0  0  0  0
   -4.2310   25.6630  -31.5930 H   0  0  0  0  0  0  0  0  0  0  0  0
   -5.9864   25.0076  -29.4993 H   0  0  0  0  0  0  0  0  0  0  0  0
   -6.1846   26.1686  -30.8670 H   0  0  0  0  0  0  0  0  0  0  0  0
   -7.3711   23.5275  -30.4834 H   0  0  0  0  0  0  0  0  0  0  0  0
   -7.7312   24.8055  -31.7201 H   0  0  0  0  0  0  0  0  0  0  0  0
   -7.0471   22.6266  -32.7443 H   0  0  0  0  0  0  0  0  0  0  0  0
   -5.9303   24.0031  -33.1398 H   0  0  0  0  0  0  0  0  0  0  0  0
   -4.3100   22.9850  -32.2960 H   0  0  0  0  0  0  0  0  0  0  0  0
   -5.0430   22.7020  -30.8120 H   0  0  0  0  0  0  0  0  0  0  0  0
   -7.3811   21.8345  -30.6268 H   0  0  0  0  0  0  0  0  0  0  0  0
   -9.5686   20.6584  -30.5559 H   0  0  0  0  0  0  0  0  0  0  0  0
   -9.9386   18.6204  -31.9333 H   0  0  0  0  0  0  0  0  0  0  0  0
   -8.1379   17.7698  -33.4208 H   0  0  0  0  0  0  0  0  0  0  0  0
   -6.3930   17.0379  -34.4723 H   0  0  0  0  0  0  0  0  0  0  0  0
   -6.8475   18.4419  -35.4964 H   0  0  0  0  0  0  0  0  0  0  0  0
   -5.1548   17.8408  -35.4964 H   0  0  0  0  0  0  0  0  0  0  0  0
   -3.5272   17.8816  -34.9146 H   0  0  0  0  0  0  0  0  0  0  0  0
   -1.1942   18.6189  -34.4969 H   0  0  0  0  0  0  0  0  0  0  0  0
   -0.7164   20.3250  -32.7595 H   0  0  0  0  0  0  0  0  0  0  0  0
  1  2  1  0
  2  3  1  0
  3  4  1  0
  4  5  1  0
  5  6  1  0
  6  7  1  0
  7  8  1  0
  8  9  2  0
  9 10  1  0
 10 11  2  0
 11 12  1  0
 12 13  2  0
 13 14  1  0
 14 15  2  0
 15 16  1  0
 15 17  1  0
 17 18  2  0
 18 19  1  0
 19 20  2  0
 20 21  1  0
 21 22  1  0
 21 23  2  0
 23  8  1  0
 14  9  1  0
 23 17  1  0
  1 24  1  0
  1 25  1  0
  1 26  1  0
  2 27  1  0
  2 28  1  0
  3 29  1  0
  4 30  1  0
  4 31  1  0
  5 32  1  0
  5 33  1  0
  6 34  1  0
  6 35  1  0
  7 36  1  0
  7 37  1  0
 10 38  1  0
 11 39  1  0
 12 40  1  0
 13 41  1  0
 16 42  1  0
 16 43  1  0
 16 44  1  0
 18 45  1  0
 19 46  1  0
 20 47  1  0
M  CHG  2   7   1  15   1
M  END
>  <UniqueID>  (20) 
20

>  <SMILES>  (20) 
CCNCCC[NH2+]c1c2ccccc2[n+](C)c2cccc(Br)c12

>  <Energy>  (20) 
82.2978975456915

>  <Genealogy>  (20) 
CCNCCC[NH2+]c1c2ccccc2[n+](C)c2cccc(Br)c12 (protonated)
CCNCCC[NH2+]c1c2ccccc2[n+](C)c2cccc(Br)c12 (3D coordinates assigned)
CCNCCC[NH2+]c1c2ccccc2[n+](C)c2cccc(Br)c12 (optimized conformer: 82.2978975456915 kcal/mol)

>  <smiles>  (20) 
CCNCCCNc1c2ccccc2[n+](C)c2cccc(Br)c12

>  <score_type>  (20) 
oracle

>  <origin>  (20) 
adg

>  <m_score__min__energy>  (20) 
-8.5299999999999994

>  <m_primary>  (20) 
energy

$$$$
20:0
     RDKit          3D

 55 59  0  0  0  0  0  0  0  0999 V2000
   -2.6980   21.3500  -30.1260 C   0  0  0  0  0  0  0  0  0  0  0  0
   -3.0560   21.4900  -31.5380 N   0  0  0  0  0  0  0  0  0  0  0  0
   -3.9910   22.2920  -32.1030 C   0  0  0  0  0  0  0  0  0  0  0  0
   -4.9360   23.1680  -31.3780 C   0  0  0  0  0  0  0  0  0  0  0  0
   -6.3170   23.0440  -31.6120 C   0  0  0  0  0  0  0  0  0  0  0  0
   -7.2260   23.8480  -30.9170 C   0  0  0  0  0  0  0  0  0  0  0  0
   -6.7660   24.7720  -29.9760 C   0  0  0  0  0  0  0  0  0  0  0  0
   -5.3970   24.8890  -29.7230 C   0  0  0  0  0  0  0  0  0  0  0  0
   -4.4840   24.0870  -30.4150 C   0  0  0  0  0  0  0  0  0  0  0  0
   -3.9410   22.2310  -33.4510 N   0  0  0  0  0  0  0  0  0  0  0  0
   -2.9820   21.3700  -33.7500 N   0  0  0  0  0  0  0  0  0  0  0  0
   -2.4550   20.9180  -32.6000 C   0  0  0  0  0  0  0  0  0  0  0  0
   -1.0880   19.7540  -32.5240 S   0  0  0  0  0  0  0  0  0  0  0  0
   -1.8370   18.5470  -33.6720 C   0  0  0  0  0  0  0  0  0  0  0  0
   -1.9070   17.1560  -33.0340 C   0  0  0  0  0  0  0  0  0  0  0  0
   -2.8170   16.1790  -33.7930 C   0  0  0  0  0  0  0  0  0  0  0  0
   -4.1930   16.1790  -33.2390 N   0  0  0  0  0  0  0  0  0  0  0  0
   -5.2090   15.7340  -34.2180 C   0  0  0  0  0  0  0  0  0  0  0  0
   -6.2200   16.8450  -34.4370 C   0  0  2  0  0  0  0  0  0  0  0  0
   -5.6810   18.1460  -35.0130 C   0  0  0  0  0  0  0  0  0  0  0  0
   -5.8280   17.9610  -33.5070 C   0  0  1  0  0  0  0  0  0  0  0  0
   -6.9640   18.6610  -32.8070 C   0  0  0  0  0  0  0  0  0  0  0  0
   -7.9130   17.9090  -32.0950 C   0  0  0  0  0  0  0  0  0  0  0  0
   -8.9870   18.5440  -31.4660 C   0  0  0  0  0  0  0  0  0  0  0  0
   -9.1310   19.9310  -31.5520 C   0  0  0  0  0  0  0  0  0  0  0  0
   -8.2030   20.6860  -32.2750 C   0  0  0  0  0  0  0  0  0  0  0  0
   -7.1260   20.0560  -32.9090 C   0  0  0  0  0  0  0  0  0  0  0  0
   -6.2520   20.8030  -33.6290 F   0  0  0  0  0  0  0  0  0  0  0  0
   -4.6080   17.5020  -32.7310 C   0  0  0  0  0  0  0  0  0  0  0  0
   -3.5402   21.6794  -29.4998 H   0  0  0  0  0  0  0  0  0  0  0  0
   -2.4694   20.2962  -29.9084 H   0  0  0  0  0  0  0  0  0  0  0  0
   -1.8152   21.9692  -29.9084 H   0  0  0  0  0  0  0  0  0  0  0  0
   -6.6841   22.3109  -32.3454 H   0  0  0  0  0  0  0  0  0  0  0  0
   -8.3044   23.7526  -31.1116 H   0  0  0  0  0  0  0  0  0  0  0  0
   -7.4817   25.4077  -29.4340 H   0  0  0  0  0  0  0  0  0  0  0  0
   -5.0365   25.6135  -28.9779 H   0  0  0  0  0  0  0  0  0  0  0  0
   -3.4079   24.1756  -30.2050 H   0  0  0  0  0  0  0  0  0  0  0  0
   -2.6960   21.1080  -34.7180 H   0  0  0  0  0  0  0  0  0  0  0  0
   -2.8545   18.8772  -33.9283 H   0  0  0  0  0  0  0  0  0  0  0  0
   -1.2130   18.4879  -34.5759 H   0  0  0  0  0  0  0  0  0  0  0  0
   -0.8913   16.7347  -33.0050 H   0  0  0  0  0  0  0  0  0  0  0  0
   -2.3351   17.2823  -32.0286 H   0  0  0  0  0  0  0  0  0  0  0  0
   -2.8573   16.4762  -34.8513 H   0  0  0  0  0  0  0  0  0  0  0  0
   -2.4015   15.1660  -33.6875 H   0  0  0  0  0  0  0  0  0  0  0  0
   -4.7178   15.4917  -35.1720 H   0  0  0  0  0  0  0  0  0  0  0  0
   -5.7228   14.8407  -33.8334 H   0  0  0  0  0  0  0  0  0  0  0  0
   -7.1047   16.2475  -34.7021 H   0  0  0  0  0  0  0  0  0  0  0  0
   -4.6812   18.1749  -35.4708 H   0  0  0  0  0  0  0  0  0  0  0  0
   -6.0360   18.8822  -35.7492 H   0  0  0  0  0  0  0  0  0  0  0  0
   -7.8102   16.8156  -32.0323 H   0  0  0  0  0  0  0  0  0  0  0  0
   -9.7211   17.9503  -30.9016 H   0  0  0  0  0  0  0  0  0  0  0  0
   -9.9743   20.4287  -31.0509 H   0  0  0  0  0  0  0  0  0  0  0  0
   -8.3194   21.7775  -32.3458 H   0  0  0  0  0  0  0  0  0  0  0  0
   -3.7895   18.2241  -32.8674 H   0  0  0  0  0  0  0  0  0  0  0  0
   -4.8495   17.4330  -31.6601 H   0  0  0  0  0  0  0  0  0  0  0  0
  1  2  1  0
  2  3  1  0
  3  4  1  0
  4  5  2  0
  5  6  1  0
  6  7  2  0
  7  8  1  0
  8  9  2  0
  3 10  2  0
 10 11  1  0
 11 12  2  0
 12 13  1  0
 13 14  1  0
 14 15  1  0
 15 16  1  0
 16 17  1  0
 17 18  1  0
 18 19  1  0
 19 20  1  0
 20 21  1  0
 21 22  1  1
 22 23  2  0
 23 24  1  0
 24 25  2  0
 25 26  1  0
 26 27  2  0
 27 28  1  0
 21 29  1  0
 12  2  1  0
 29 17  1  0
  9  4  1  0
 21 19  1  0
 27 22  1  0
  1 30  1  0
  1 31  1  0
  1 32  1  0
  5 33  1  0
  6 34  1  0
  7 35  1  0
  8 36  1  0
  9 37  1  0
 11 38  1  0
 14 39  1  0
 14 40  1  0
 15 41  1  0
 15 42  1  0
 16 43  1  0
 16 44  1  0
 18 45  1  0
 18 46  1  0
 19 47  1  6
 20 48  1  0
 20 49  1  0
 23 50  1  0
 24 51  1  0
 25 52  1  0
 26 53  1  0
 29 54  1  0
 29 55  1  0
M  CHG  1  11   1
M  END
>  <UniqueID>  (21) 
21

>  <SMILES>  (21) 
Cn1c(-c2ccccc2)n[nH+]c1SCCCN1C[C@@H]2C[C@]2(c2ccccc2F)C1

>  <Energy>  (21) 
367.4911386654335

>  <Genealogy>  (21) 
Cn1c(-c2ccccc2)n[nH+]c1SCCCN1CC2CC2(c2ccccc2F)C1 (protonated)
Cn1c(-c2ccccc2)n[nH+]c1SCCCN1C[C@@H]2C[C@]2(c2ccccc2F)C1 (chirality)
Cn1c(-c2ccccc2)n[nH+]c1SCCCN1C[C@@H]2C[C@]2(c2ccccc2F)C1 (3D coordinates assigned)
Cn1c(-c2ccccc2)n[nH+]c1SCCCN1C[C@@H]2C[C@]2(c2ccccc2F)C1 (nonaromatic ring conformer: 367.4911386654335 kcal/mol)

>  <smiles>  (21) 
Cn1c(SCCCN2CC3CC3(c3ccccc3F)C2)nnc1-c1ccccc1

>  <score_type>  (21) 
oracle

>  <origin>  (21) 
adg

>  <m_score__min__energy>  (21) 
-9.25

>  <m_primary>  (21) 
energy

$$$$
21:0
     RDKit          3D

 59 63  0  0  0  0  0  0  0  0999 V2000
   -5.5110   25.6670  -30.8360 C   0  0  0  0  0  0  0  0  0  0  0  0
   -6.1850   25.2950  -29.5120 C   0  0  0  0  0  0  0  0  0  0  0  0
   -5.2180   24.8410  -28.4950 N   0  0  0  0  0  0  0  0  0  0  0  0
   -4.0680   24.1430  -29.0980 C   0  0  0  0  0  0  0  0  0  0  0  0
   -4.4310   22.7140  -29.5390 C   0  0  0  0  0  0  0  0  0  0  0  0
   -3.2270   21.9480  -30.1120 C   0  0  0  0  0  0  0  0  0  0  0  0
   -3.6550   20.6500  -30.8110 C   0  0  0  0  0  0  0  0  0  0  0  0
   -3.8480   20.8510  -32.2470 N   0  0  0  0  0  0  0  0  0  0  0  0
   -4.0700   19.7290  -33.1120 C   0  0  0  0  0  0  0  0  0  0  0  0
   -2.9710   19.0960  -33.7310 C   0  0  0  0  0  0  0  0  0  0  0  0
   -1.7080   19.7160  -33.7990 C   0  0  0  0  0  0  0  0  0  0  0  0
   -0.6340   19.0750  -34.4130 C   0  0  0  0  0  0  0  0  0  0  0  0
   -0.7980   17.8040  -34.9590 C   0  0  0  0  0  0  0  0  0  0  0  0
   -2.0330   17.1580  -34.8830 C   0  0  0  0  0  0  0  0  0  0  0  0
   -3.1410   17.7810  -34.2610 C   0  0  0  0  0  0  0  0  0  0  0  0
   -4.3510   17.1270  -34.1150 N   0  0  0  0  0  0  0  0  0  0  0  0
   -4.5320   15.7350  -34.5660 C   0  0  0  0  0  0  0  0  0  0  0  0
   -5.3920   17.8030  -33.5400 C   0  0  0  0  0  0  0  0  0  0  0  0
   -6.5990   17.2510  -33.2580 N   0  0  0  0  0  0  0  0  0  0  0  0
   -7.2730   18.2770  -32.7080 C   0  0  0  0  0  0  0  0  0  0  0  0
   -8.5630   18.2320  -32.1920 C   0  0  0  0  0  0  0  0  0  0  0  0
   -9.1070   19.4140  -31.6700 C   0  0  0  0  0  0  0  0  0  0  0  0
   -8.3980   20.6330  -31.7660 C   0  0  0  0  0  0  0  0  0  0  0  0
   -9.0000   21.8290  -31.3470 C   0  0  0  0  0  0  0  0  0  0  0  0
   -8.3680   23.0530  -31.5790 C   0  0  0  0  0  0  0  0  0  0  0  0
   -7.1560   23.0940  -32.2690 C   0  0  0  0  0  0  0  0  0  0  0  0
   -6.5360   21.9110  -32.6800 C   0  0  0  0  0  0  0  0  0  0  0  0
   -7.0970   20.6640  -32.3530 C   0  0  0  0  0  0  0  0  0  0  0  0
   -6.5140   19.4210  -32.6970 C   0  0  0  0  0  0  0  0  0  0  0  0
   -5.2790   19.0970  -33.1560 N   0  0  0  0  0  0  0  0  0  0  0  0
   -4.5647   26.1893  -30.6317 H   0  0  0  0  0  0  0  0  0  0  0  0
   -5.3081   24.7531  -31.4136 H   0  0  0  0  0  0  0  0  0  0  0  0
   -6.1761   26.3258  -31.4136 H   0  0  0  0  0  0  0  0  0  0  0  0
   -6.7152   26.1779  -29.1256 H   0  0  0  0  0  0  0  0  0  0  0  0
   -6.8769   24.4633  -29.7108 H   0  0  0  0  0  0  0  0  0  0  0  0
   -5.7210   24.1790  -27.8600 H   0  0  0  0  0  0  0  0  0  0  0  0
   -4.8890   25.6560  -27.9240 H   0  0  0  0  0  0  0  0  0  0  0  0
   -3.7282   24.7108  -29.9767 H   0  0  0  0  0  0  0  0  0  0  0  0
   -3.2747   24.0744  -28.3391 H   0  0  0  0  0  0  0  0  0  0  0  0
   -4.8165   22.1638  -28.6680 H   0  0  0  0  0  0  0  0  0  0  0  0
   -5.1854   22.7928  -30.3356 H   0  0  0  0  0  0  0  0  0  0  0  0
   -2.7105   22.5905  -30.8402 H   0  0  0  0  0  0  0  0  0  0  0  0
   -2.5626   21.6824  -29.2765 H   0  0  0  0  0  0  0  0  0  0  0  0
   -2.8759   19.8886  -30.6585 H   0  0  0  0  0  0  0  0  0  0  0  0
   -4.6120   20.3246  -30.3771 H   0  0  0  0  0  0  0  0  0  0  0  0
   -3.6620   21.7850  -32.6780 H   0  0  0  0  0  0  0  0  0  0  0  0
   -1.5682   20.7162  -33.3630 H   0  0  0  0  0  0  0  0  0  0  0  0
    0.3451   19.5735  -34.4667 H   0  0  0  0  0  0  0  0  0  0  0  0
    0.0501   17.3069  -35.4526 H   0  0  0  0  0  0  0  0  0  0  0  0
   -2.1465   16.1516  -35.3122 H   0  0  0  0  0  0  0  0  0  0  0  0
   -4.6179   15.0742  -33.6908 H   0  0  0  0  0  0  0  0  0  0  0  0
   -5.4472   15.6619  -35.1719 H   0  0  0  0  0  0  0  0  0  0  0  0
   -3.6659   15.4303  -35.1719 H   0  0  0  0  0  0  0  0  0  0  0  0
   -9.1405   17.2958  -32.1932 H   0  0  0  0  0  0  0  0  0  0  0  0
  -10.0927   19.3926  -31.1822 H   0  0  0  0  0  0  0  0  0  0  0  0
   -9.9728   21.8028  -30.8342 H   0  0  0  0  0  0  0  0  0  0  0  0
   -8.8263   23.9853  -31.2174 H   0  0  0  0  0  0  0  0  0  0  0  0
   -6.6857   24.0633  -32.4908 H   0  0  0  0  0  0  0  0  0  0  0  0
   -5.6040   21.9557  -33.2625 H   0  0  0  0  0  0  0  0  0  0  0  0
  1  2  1  0
  2  3  1  0
  3  4  1  0
  4  5  1  0
  5  6  1  0
  6  7  1  0
  7  8  1  0
  8  9  1  0
  9 10  2  0
 10 11  1  0
 11 12  2  0
 12 13  1  0
 13 14  2  0
 14 15  1  0
 15 16  2  0
 16 17  1  0
 16 18  1  0
 18 19  1  0
 19 20  1  0
 20 21  2  0
 21 22  1  0
 22 23  2  0
 23 24  1  0
 24 25  2  0
 25 26  1  0
 26 27  2  0
 27 28  1  0
 28 29  2  0
 29 30  1  0
 30  9  1  0
 15 10  1  0
 30 18  2  0
 29 20  1  0
 28 23  1  0
  1 31  1  0
  1 32  1  0
  1 33  1  0
  2 34  1  0
  2 35  1  0
  3 36  1  0
  3 37  1  0
  4 38  1  0
  4 39  1  0
  5 40  1  0
  5 41  1  0
  6 42  1  0
  6 43  1  0
  7 44  1  0
  7 45  1  0
  8 46  1  0
 11 47  1  0
 12 48  1  0
 13 49  1  0
 14 50  1  0
 17 51  1  0
 17 52  1  0
 17 53  1  0
 21 54  1  0
 22 55  1  0
 24 56  1  0
 25 57  1  0
 26 58  1  0
 27 59  1  0
M  CHG  4   3   1  16   1  19  -1  30   1
M  END
>  <UniqueID>  (22) 
22

>  <SMILES>  (22) 
CC[NH2+]CCCCNc1c2ccccc2[n+](C)c2[n-]c3ccc4ccccc4c3[n+]12

>  <Energy>  (22) 
130.38942101239968

>  <Genealogy>  (22) 
CC[NH2+]CCCCNc1c2ccccc2[n+](C)c2[n-]c3ccc4ccccc4c3[n+]12 (protonated)
CC[NH2+]CCCCNc1c2ccccc2[n+](C)c2[n-]c3ccc4ccccc4c3[n+]12 (3D coordinates assigned)
CC[NH2+]CCCCNc1c2ccccc2[n+](C)c2[n-]c3ccc4ccccc4c3[n+]12 (optimized conformer: 130.38942101239968 kcal/mol)

>  <smiles>  (22) 
CCNCCCCNc1c2ccccc2[n+](C)c2[nH]c3ccc4ccccc4c3[n+]12

>  <score_type>  (22) 
oracle

>  <origin>  (22) 
adg

>  <m_score__min__energy>  (22) 
-8.9100000000000001

>  <m_primary>  (22) 
energy

$$$$
22:0
     RDKit          3D

 39 41  0  0  0  0  0  0  0  0999 V2000
   -6.8490   23.6870  -30.0920 C   0  0  0  0  0  0  0  0  0  0  0  0
   -6.0800   24.9410  -29.6960 C   0  0  0  0  0  0  0  0  0  0  0  0
   -4.4870   25.0590  -30.5850 S   0  0  0  0  0  0  0  0  0  0  0  0
   -3.5460   24.1590  -29.3480 C   0  0  0  0  0  0  0  0  0  0  0  0
   -2.8680   24.7810  -28.3620 N   0  0  0  0  0  0  0  0  0  0  0  0
   -2.3070   23.7780  -27.6540 C   0  0  0  0  0  0  0  0  0  0  0  0
   -1.4910   24.0120  -26.4420 C   0  0  0  0  0  0  0  0  0  0  0  0
   -0.5080   23.0820  -26.0750 C   0  0  0  0  0  0  0  0  0  0  0  0
    0.2680   23.3100  -24.9360 C   0  0  0  0  0  0  0  0  0  0  0  0
    0.0820   24.4350  -24.1950 N   0  0  0  0  0  0  0  0  0  0  0  0
   -0.8510   25.3640  -24.5390 C   0  0  0  0  0  0  0  0  0  0  0  0
   -1.6470   25.1740  -25.6690 C   0  0  0  0  0  0  0  0  0  0  0  0
   -2.6470   22.5600  -28.2330 C   0  0  0  0  0  0  0  0  0  0  0  0
   -2.1610   21.2200  -27.8410 C   0  0  0  0  0  0  0  0  0  0  0  0
   -0.8790   20.7920  -28.2200 C   0  0  0  0  0  0  0  0  0  0  0  0
   -0.4240   19.5210  -27.8540 C   0  0  0  0  0  0  0  0  0  0  0  0
   -1.2460   18.6710  -27.1070 C   0  0  0  0  0  0  0  0  0  0  0  0
   -2.5230   19.0910  -26.7270 C   0  0  0  0  0  0  0  0  0  0  0  0
   -2.9810   20.3610  -27.0900 C   0  0  0  0  0  0  0  0  0  0  0  0
   -3.4190   22.8140  -29.3100 N   0  0  0  0  0  0  0  0  0  0  0  0
   -3.9700   21.8460  -30.2580 C   0  0  0  0  0  0  0  0  0  0  0  0
   -7.1750   23.1554  -29.1859 H   0  0  0  0  0  0  0  0  0  0  0  0
   -7.7293   23.9696  -30.6880 H   0  0  0  0  0  0  0  0  0  0  0  0
   -6.1980   23.0306  -30.6880 H   0  0  0  0  0  0  0  0  0  0  0  0
   -6.6895   25.8247  -29.9359 H   0  0  0  0  0  0  0  0  0  0  0  0
   -5.8703   24.8909  -28.6173 H   0  0  0  0  0  0  0  0  0  0  0  0
   -0.3487   22.1777  -26.6807 H   0  0  0  0  0  0  0  0  0  0  0  0
    1.0320   22.5771  -24.6375 H   0  0  0  0  0  0  0  0  0  0  0  0
    0.6710   24.5920  -23.3460 H   0  0  0  0  0  0  0  0  0  0  0  0
   -0.9780   26.2674  -23.9244 H   0  0  0  0  0  0  0  0  0  0  0  0
   -2.3931   25.9307  -25.9530 H   0  0  0  0  0  0  0  0  0  0  0  0
   -0.2299   21.4585  -28.8069 H   0  0  0  0  0  0  0  0  0  0  0  0
    0.5811   19.1897  -28.1539 H   0  0  0  0  0  0  0  0  0  0  0  0
   -0.8870   17.6720  -26.8188 H   0  0  0  0  0  0  0  0  0  0  0  0
   -3.1694   18.4211  -26.1410 H   0  0  0  0  0  0  0  0  0  0  0  0
   -3.9863   20.6888  -26.7868 H   0  0  0  0  0  0  0  0  0  0  0  0
   -4.4406   21.0192  -29.7059 H   0  0  0  0  0  0  0  0  0  0  0  0
   -4.7224   22.3397  -30.8905 H   0  0  0  0  0  0  0  0  0  0  0  0
   -3.1613   21.4511  -30.8905 H   0  0  0  0  0  0  0  0  0  0  0  0
  1  2  1  0
  2  3  1  0
  3  4  1  0
  4  5  2  0
  5  6  1  0
  6  7  1  0
  7  8  2  0
  8  9  1  0
  9 10  2  0
 10 11  1  0
 11 12  2  0
  6 13  2  0
 13 14  1  0
 14 15  2  0
 15 16  1  0
 16 17  2  0
 17 18  1  0
 18 19  2  0
 13 20  1  0
 20 21  1  0
 20  4  1  0
 12  7  1  0
 19 14  1  0
  1 22  1  0
  1 23  1  0
  1 24  1  0
  2 25  1  0
  2 26  1  0
  8 27  1  0
  9 28  1  0
 10 29  1  0
 11 30  1  0
 12 31  1  0
 15 32  1  0
 16 33  1  0
 17 34  1  0
 18 35  1  0
 19 36  1  0
 21 37  1  0
 21 38  1  0
 21 39  1  0
M  CHG  1  10   1
M  END
>  <UniqueID>  (23) 
23

>  <SMILES>  (23) 
CCSc1nc(-c2cc[nH+]cc2)c(-c2ccccc2)n1C

>  <Energy>  (23) 
73.40078926673543

>  <Genealogy>  (23) 
CCSc1nc(-c2cc[nH+]cc2)c(-c2ccccc2)n1C (protonated)
CCSc1nc(-c2cc[nH+]cc2)c(-c2ccccc2)n1C (3D coordinates assigned)
CCSc1nc(-c2cc[nH+]cc2)c(-c2ccccc2)n1C (optimized conformer: 73.40078926673543 kcal/mol)

>  <smiles>  (23) 
CCSc1nc(-c2ccncc2)c(-c2ccccc2)n1C

>  <score_type>  (23) 
oracle

>  <origin>  (23) 
adg

>  <m_score__min__energy>  (23) 
-7.1500000000000004

>  <m_primary>  (23) 
energy

$$$$
