0:0
     RDKit          3D

 29 30  0  0  0  0  0  0  0  0999 V2000
   -4.2840   26.4010  -31.2160 H   0  0  0  0  0  0  0  0  0  0  0  0
   -8.0620   18.3680  -32.0250 N   0  0  0  0  0  0  0  0  0  0  0  0
   -8.0140   19.6680  -31.9180 C   0  0  0  0  0  0  0  0  0  0  0  0
   -3.1070   23.7020  -30.8600 N   0  0  0  0  0  0  0  0  0  0  0  0
   -3.0950   22.3780  -31.1660 C   0  0  0  0  0  0  0  0  0  0  0  0
   -2.1387   21.8381  -31.2288 H   0  0  0  0  0  0  0  0  0  0  0  0
   -4.2940   21.7010  -31.4010 C   0  0  0  0  0  0  0  0  0  0  0  0
   -4.2842   20.6288  -31.6468 H   0  0  0  0  0  0  0  0  0  0  0  0
   -5.5130   22.3960  -31.3220 C   0  0  0  0  0  0  0  0  0  0  0  0
   -6.8010   21.7030  -31.5700 C   0  0  0  0  0  0  0  0  0  0  0  0
   -7.9880   22.4410  -31.7070 C   0  0  0  0  0  0  0  0  0  0  0  0
   -7.9692   23.5377  -31.6241 H   0  0  0  0  0  0  0  0  0  0  0  0
   -9.1880   21.7790  -31.9480 C   0  0  0  0  0  0  0  0  0  0  0  0
  -10.1212   22.3516  -32.0539 H   0  0  0  0  0  0  0  0  0  0  0  0
   -5.4910   23.7650  -31.0030 C   0  0  0  0  0  0  0  0  0  0  0  0
   -6.4318   24.3310  -30.9353 H   0  0  0  0  0  0  0  0  0  0  0  0
   -4.2690   24.4050  -30.7720 C   0  0  0  0  0  0  0  0  0  0  0  0
   -4.2440   25.6640  -30.4760 N   0  0  0  0  0  0  0  0  0  0  0  0
   -7.2110   17.5140  -32.8530 C   0  0  0  0  0  0  0  0  0  0  0  0
   -6.5419   16.9324  -32.2017 H   0  0  0  0  0  0  0  0  0  0  0  0
   -7.8534   16.8425  -33.4415 H   0  0  0  0  0  0  0  0  0  0  0  0
   -6.3700   18.3510  -33.8140 C   0  0  0  0  0  0  0  0  0  0  0  0
   -5.7054   19.0124  -33.2389 H   0  0  0  0  0  0  0  0  0  0  0  0
   -5.7658   17.6852  -34.4477 H   0  0  0  0  0  0  0  0  0  0  0  0
   -7.0329   18.9584  -34.4477 H   0  0  0  0  0  0  0  0  0  0  0  0
   -6.8430   20.3380  -31.6730 N   0  0  0  0  0  0  0  0  0  0  0  0
   -5.9550   19.8100  -31.5310 H   0  0  0  0  0  0  0  0  0  0  0  0
   -9.2060   20.3900  -32.0550 C   0  0  0  0  0  0  0  0  0  0  0  0
  -10.1523   19.8629  -32.2462 H   0  0  0  0  0  0  0  0  0  0  0  0
  1  2  1  0
  2  3  2  0
  3  4  1  0
  4  5  1  0
  5  6  1  0
  5  7  2  0
  7  8  1  0
  7  9  1  0
  9 10  1  0
 10 11  2  0
 11 12  1  0
 11 13  1  0
 13 14  1  0
 13 15  2  0
 15 16  1  0
 15 17  1  0
 17 18  2  0
 18 19  1  0
 19 20  1  0
 19 21  1  0
 19 22  1  0
 22 23  1  0
 22 24  1  0
 22 25  1  0
 17 26  1  0
 26 27  1  0
  9 28  2  0
 28 29  1  0
 28  3  1  0
 26 10  1  0
M  CHG  1   4  -1
M  END
>  <UniqueID>  (1) 
1

>  <SMILES>  (1) 
[H]/N=c1/cc(-c2ccc/c(=N/CC)[nH]2)cc[n-]1

>  <Energy>  (1) 
34.4185629022659

>  <Genealogy>  (1) 
CCN=c1cccc(-c2cc[n-]c(=N)c2)[nH]1 (protonated)
[H]/N=c1/cc(-c2ccc/c(=N/CC)[nH]2)cc[n-]1 (cis-trans isomerization)
[H]/N=c1/cc(-c2ccc/c(=N/CC)[nH]2)cc[n-]1 (3D coordinates assigned)
[H]/N=c1/cc(-c2ccc/c(=N/CC)[nH]2)cc[n-]1 (optimized conformer: 34.4185629022659 kcal/mol)

>  <smiles>  (1) 
CCN=c1cccc(-c2cc[nH]c(=N)c2)[nH]1

>  <score_type>  (1) 
oracle

>  <origin>  (1) 
adg

>  <m_score__min__energy>  (1) 
-7.9699999999999998

>  <m_primary>  (1) 
energy

$$$$
1:0
     RDKit          3D

 51 53  0  0  0  0  0  0  0  0999 V2000
   -2.7280   21.0760  -29.2150 C   0  0  0  0  0  0  0  0  0  0  0  0
   -1.3910   21.6930  -29.1860 N   0  0  0  0  0  0  0  0  0  0  0  0
   -0.9730   22.0250  -30.5570 C   0  0  0  0  0  0  0  0  0  0  0  0
   -1.3830   22.9060  -28.3370 C   0  0  0  0  0  0  0  0  0  0  0  0
   -2.7220   23.6410  -28.4460 C   0  0  0  0  0  0  0  0  0  0  0  0
   -2.5580   24.9140  -29.2160 C   0  0  0  0  0  0  0  0  0  0  0  0
   -1.5760   25.6680  -28.9750 O   0  0  0  0  0  0  0  0  0  0  0  0
   -3.5270   25.2640  -30.2120 N   0  0  0  0  0  0  0  0  0  0  0  0
   -4.6770   24.4940  -30.5920 C   0  0  0  0  0  0  0  0  0  0  0  0
   -5.9880   24.9530  -30.3710 C   0  0  0  0  0  0  0  0  0  0  0  0
   -7.0800   24.1870  -30.7870 C   0  0  0  0  0  0  0  0  0  0  0  0
   -6.8780   22.9650  -31.4310 C   0  0  0  0  0  0  0  0  0  0  0  0
   -5.5770   22.4960  -31.6600 C   0  0  0  0  0  0  0  0  0  0  0  0
   -5.3510   21.1950  -32.3810 C   0  0  0  0  0  0  0  0  0  0  0  0
   -4.2590   21.3210  -33.3490 N   0  0  0  0  0  0  0  0  0  0  0  0
   -2.9860   20.6670  -33.1910 C   0  0  0  0  0  0  0  0  0  0  0  0
   -2.8450   19.4990  -32.4180 C   0  0  0  0  0  0  0  0  0  0  0  0
   -1.5960   18.8900  -32.2730 C   0  0  0  0  0  0  0  0  0  0  0  0
   -0.4680   19.4250  -32.9090 C   0  0  0  0  0  0  0  0  0  0  0  0
   -0.5960   20.5990  -33.6770 C   0  0  0  0  0  0  0  0  0  0  0  0
   -1.8530   21.2090  -33.8170 C   0  0  0  0  0  0  0  0  0  0  0  0
    0.6070   21.1590  -34.3250 C   0  0  0  0  0  0  0  0  0  0  0  0
    0.5880   22.2970  -34.8650 O   0  0  0  0  0  0  0  0  0  0  0  0
    1.8190   20.4030  -34.3110 N   0  0  0  0  0  0  0  0  0  0  0  0
    1.8110   19.0040  -33.8920 C   0  0  0  0  0  0  0  0  0  0  0  0
    0.8940   18.8110  -32.6760 C   0  0  0  0  0  0  0  0  0  0  0  0
   -4.4810   23.2780  -31.2580 C   0  0  0  0  0  0  0  0  0  0  0  0
   -3.0794   20.9138  -28.1853 H   0  0  0  0  0  0  0  0  0  0  0  0
   -3.4279   21.7422  -29.7407 H   0  0  0  0  0  0  0  0  0  0  0  0
   -2.6753   20.1112  -29.7407 H   0  0  0  0  0  0  0  0  0  0  0  0
   -0.1121   22.7088  -30.5224 H   0  0  0  0  0  0  0  0  0  0  0  0
   -0.6886   21.1039  -31.0868 H   0  0  0  0  0  0  0  0  0  0  0  0
   -1.8058   22.5105  -31.0868 H   0  0  0  0  0  0  0  0  0  0  0  0
   -1.2133   22.6147  -27.2899 H   0  0  0  0  0  0  0  0  0  0  0  0
   -0.5792   23.5753  -28.6775 H   0  0  0  0  0  0  0  0  0  0  0  0
   -3.4483   22.9962  -28.9624 H   0  0  0  0  0  0  0  0  0  0  0  0
   -3.0809   23.8801  -27.4341 H   0  0  0  0  0  0  0  0  0  0  0  0
   -6.1541   25.9177  -29.8693 H   0  0  0  0  0  0  0  0  0  0  0  0
   -8.1031   24.5483  -30.6063 H   0  0  0  0  0  0  0  0  0  0  0  0
   -7.7419   22.3686  -31.7596 H   0  0  0  0  0  0  0  0  0  0  0  0
   -5.0952   20.4158  -31.6479 H   0  0  0  0  0  0  0  0  0  0  0  0
   -6.2713   20.9255  -32.9200 H   0  0  0  0  0  0  0  0  0  0  0  0
   -4.3990   21.9290  -34.1890 H   0  0  0  0  0  0  0  0  0  0  0  0
   -3.7255   19.0622  -31.9241 H   0  0  0  0  0  0  0  0  0  0  0  0
   -1.4976   17.9849  -31.6557 H   0  0  0  0  0  0  0  0  0  0  0  0
   -1.9506   22.1213  -34.4238 H   0  0  0  0  0  0  0  0  0  0  0  0
    1.4477   18.3799  -34.7218 H   0  0  0  0  0  0  0  0  0  0  0  0
    2.8343   18.7101  -33.6155 H   0  0  0  0  0  0  0  0  0  0  0  0
    0.7734   17.7343  -32.4860 H   0  0  0  0  0  0  0  0  0  0  0  0
    1.3556   19.3106  -31.8116 H   0  0  0  0  0  0  0  0  0  0  0  0
   -3.4585   22.9314  -31.4687 H   0  0  0  0  0  0  0  0  0  0  0  0
  1  2  1  0
  2  3  1  0
  2  4  1  0
  4  5  1  0
  5  6  1  0
  6  7  2  0
  6  8  1  0
  8  9  1  0
  9 10  2  0
 10 11  1  0
 11 12  2  0
 12 13  1  0
 13 14  1  0
 14 15  1  0
 15 16  1  0
 16 17  2  0
 17 18  1  0
 18 19  2  0
 19 20  1  0
 20 21  2  0
 20 22  1  0
 22 23  2  0
 22 24  1  0
 24 25  1  0
 25 26  1  0
 13 27  2  0
 27  9  1  0
 21 16  1  0
 26 19  1  0
  1 28  1  0
  1 29  1  0
  1 30  1  0
  3 31  1  0
  3 32  1  0
  3 33  1  0
  4 34  1  0
  4 35  1  0
  5 36  1  0
  5 37  1  0
 10 38  1  0
 11 39  1  0
 12 40  1  0
 14 41  1  0
 14 42  1  0
 15 43  1  0
 17 44  1  0
 18 45  1  0
 21 46  1  0
 25 47  1  0
 25 48  1  0
 26 49  1  0
 26 50  1  0
 27 51  1  0
M  CHG  2   8  -1  24  -1
M  END
>  <UniqueID>  (2) 
2

>  <SMILES>  (2) 
CN(C)CCC(=O)[N-]c1cccc(CNc2ccc3c(c2)C(=O)[N-]CC3)c1

>  <Energy>  (2) 
53.651578655256564

>  <Genealogy>  (2) 
CN(C)CCC(=O)[N-]c1cccc(CNc2ccc3c(c2)C(=O)[N-]CC3)c1 (protonated)
CN(C)CCC(=O)[N-]c1cccc(CNc2ccc3c(c2)C(=O)[N-]CC3)c1 (3D coordinates assigned)
CN(C)CCC(=O)[N-]c1cccc(CNc2ccc3c(c2)C(=O)[N-]CC3)c1 (nonaromatic ring conformer: 53.651578655256564 kcal/mol)

>  <smiles>  (2) 
CN(C)CCC(=O)Nc1cccc(CNc2ccc3c(c2)C(=O)NCC3)c1

>  <score_type>  (2) 
oracle

>  <origin>  (2) 
adg

>  <m_score__min__energy>  (2) 
-10.84

>  <m_primary>  (2) 
energy

$$$$
2:0
     RDKit          3D

 37 38  0  0  0  0  0  0  0  0999 V2000
   -0.8010   26.9540  -27.8470 C   0  0  0  0  0  0  0  0  0  0  0  0
   -1.2480   26.1870  -28.9430 O   0  0  0  0  0  0  0  0  0  0  0  0
   -1.0250   24.8190  -28.6780 C   0  0  0  0  0  0  0  0  0  0  0  0
   -2.1590   24.0010  -29.2930 C   0  0  0  0  0  0  0  0  0  0  0  0
   -3.1660   24.8580  -29.8330 O   0  0  0  0  0  0  0  0  0  0  0  0
   -4.4070   24.4420  -30.3420 C   0  0  0  0  0  0  0  0  0  0  0  0
   -5.6270   25.0370  -29.9630 C   0  0  0  0  0  0  0  0  0  0  0  0
   -6.8330   24.5780  -30.5020 C   0  0  0  0  0  0  0  0  0  0  0  0
   -6.8420   23.5140  -31.4230 C   0  0  0  0  0  0  0  0  0  0  0  0
   -8.0250   23.0120  -31.9910 O   0  0  0  0  0  0  0  0  0  0  0  0
   -8.8010   21.9350  -31.4650 C   0  0  0  0  0  0  0  0  0  0  0  0
   -8.2790   20.6090  -31.9530 C   0  0  0  0  0  0  0  0  0  0  0  0
   -7.3090   20.5510  -32.9660 C   0  0  0  0  0  0  0  0  0  0  0  0
   -6.8230   19.3160  -33.4070 C   0  0  0  0  0  0  0  0  0  0  0  0
   -7.2950   18.1320  -32.8330 C   0  0  0  0  0  0  0  0  0  0  0  0
   -8.2500   18.1820  -31.8140 C   0  0  0  0  0  0  0  0  0  0  0  0
   -8.7390   19.4150  -31.3710 C   0  0  0  0  0  0  0  0  0  0  0  0
   -5.6290   22.9270  -31.7960 C   0  0  0  0  0  0  0  0  0  0  0  0
   -4.4230   23.3850  -31.2590 C   0  0  0  0  0  0  0  0  0  0  0  0
   -1.0906   26.4571  -26.9093 H   0  0  0  0  0  0  0  0  0  0  0  0
    0.2941   27.0493  -27.8885 H   0  0  0  0  0  0  0  0  0  0  0  0
   -1.2579   27.9538  -27.8885 H   0  0  0  0  0  0  0  0  0  0  0  0
   -0.0660   24.5096  -29.1192 H   0  0  0  0  0  0  0  0  0  0  0  0
   -0.9936   24.6517  -27.5912 H   0  0  0  0  0  0  0  0  0  0  0  0
   -1.7534   23.3695  -30.0971 H   0  0  0  0  0  0  0  0  0  0  0  0
   -2.6104   23.3769  -28.5076 H   0  0  0  0  0  0  0  0  0  0  0  0
   -5.6306   25.8661  -29.2401 H   0  0  0  0  0  0  0  0  0  0  0  0
   -7.7802   25.0514  -30.2043 H   0  0  0  0  0  0  0  0  0  0  0  0
   -8.7526   21.9590  -30.3663 H   0  0  0  0  0  0  0  0  0  0  0  0
   -9.8404   22.0510  -31.8060 H   0  0  0  0  0  0  0  0  0  0  0  0
   -6.9295   21.4808  -33.4148 H   0  0  0  0  0  0  0  0  0  0  0  0
   -6.0685   19.2763  -34.2064 H   0  0  0  0  0  0  0  0  0  0  0  0
   -6.9147   17.1611  -33.1834 H   0  0  0  0  0  0  0  0  0  0  0  0
   -8.6176   17.2501  -31.3597 H   0  0  0  0  0  0  0  0  0  0  0  0
   -9.4861   19.4506  -30.5644 H   0  0  0  0  0  0  0  0  0  0  0  0
   -5.6241   22.0975  -32.5184 H   0  0  0  0  0  0  0  0  0  0  0  0
   -3.4774   22.9103  -31.5599 H   0  0  0  0  0  0  0  0  0  0  0  0
  1  2  1  0
  2  3  1  0
  3  4  1  0
  4  5  1  0
  5  6  1  0
  6  7  2  0
  7  8  1  0
  8  9  2  0
  9 10  1  0
 10 11  1  0
 11 12  1  0
 12 13  2  0
 13 14  1  0
 14 15  2  0
 15 16  1  0
 16 17  2  0
  9 18  1  0
 18 19  2  0
 19  6  1  0
 17 12  1  0
  1 20  1  0
  1 21  1  0
  1 22  1  0
  3 23  1  0
  3 24  1  0
  4 25  1  0
  4 26  1  0
  7 27  1  0
  8 28  1  0
 11 29  1  0
 11 30  1  0
 13 31  1  0
 14 32  1  0
 15 33  1  0
 16 34  1  0
 17 35  1  0
 18 36  1  0
 19 37  1  0
M  END
>  <UniqueID>  (3) 
3

>  <SMILES>  (3) 
COCCOc1ccc(OCc2ccccc2)cc1

>  <Energy>  (3) 
35.90134133332413

>  <Genealogy>  (3) 
COCCOc1ccc(OCc2ccccc2)cc1 (3D coordinates assigned)
COCCOc1ccc(OCc2ccccc2)cc1 (optimized conformer: 35.90134133332413 kcal/mol)

>  <smiles>  (3) 
COCCOc1ccc(OCc2ccccc2)cc1

>  <score_type>  (3) 
oracle

>  <origin>  (3) 
adg

>  <m_score__min__energy>  (3) 
-7.6200000000000001

>  <m_primary>  (3) 
energy

$$$$
3:0
     RDKit          3D

 33 36  0  0  0  0  0  0  0  0999 V2000
   -5.3900   14.5040  -33.4150 C   0  0  0  0  0  0  0  0  0  0  0  0
   -4.8790   15.2410  -32.3440 C   0  0  0  0  0  0  0  0  0  0  0  0
   -5.3610   16.5270  -32.0830 C   0  0  0  0  0  0  0  0  0  0  0  0
   -6.3650   17.0900  -32.8940 C   0  0  0  0  0  0  0  0  0  0  0  0
   -6.8800   18.4560  -32.6170 C   0  0  0  0  0  0  0  0  0  0  0  0
   -8.1810   18.6390  -32.1160 C   0  0  0  0  0  0  0  0  0  0  0  0
   -8.6690   19.9230  -31.8620 C   0  0  0  0  0  0  0  0  0  0  0  0
   -7.8660   21.0400  -32.1040 C   0  0  0  0  0  0  0  0  0  0  0  0
   -6.5500   20.8740  -32.5660 C   0  0  0  0  0  0  0  0  0  0  0  0
   -6.0680   19.5850  -32.8370 C   0  0  0  0  0  0  0  0  0  0  0  0
   -5.6620   22.0010  -32.6320 N   0  0  0  0  0  0  0  0  0  0  0  0
   -5.8280   23.0980  -31.7190 C   0  0  0  0  0  0  0  0  0  0  0  0
   -4.7060   23.7860  -31.2340 C   0  0  0  0  0  0  0  0  0  0  0  0
   -4.8500   24.7390  -30.2210 C   0  0  0  0  0  0  0  0  0  0  0  0
   -6.1120   25.0040  -29.6820 C   0  0  0  0  0  0  0  0  0  0  0  0
   -7.2380   24.3370  -30.1730 C   0  0  0  0  0  0  0  0  0  0  0  0
   -7.1020   23.3990  -31.2030 C   0  0  0  0  0  0  0  0  0  0  0  0
   -8.5630   22.6880  -31.9640 S   0  0  0  0  0  0  0  0  0  0  0  0
   -6.8730   16.3380  -33.9700 C   0  0  0  0  0  0  0  0  0  0  0  0
   -6.3860   15.0520  -34.2260 C   0  0  0  0  0  0  0  0  0  0  0  0
   -5.0082   13.4928  -33.6194 H   0  0  0  0  0  0  0  0  0  0  0  0
   -4.0955   14.8084  -31.7045 H   0  0  0  0  0  0  0  0  0  0  0  0
   -4.9534   17.1026  -31.2389 H   0  0  0  0  0  0  0  0  0  0  0  0
   -8.8194   17.7643  -31.9226 H   0  0  0  0  0  0  0  0  0  0  0  0
   -9.6884   20.0548  -31.4703 H   0  0  0  0  0  0  0  0  0  0  0  0
   -5.0468   19.4550  -33.2247 H   0  0  0  0  0  0  0  0  0  0  0  0
   -4.7440   21.8910  -33.1220 H   0  0  0  0  0  0  0  0  0  0  0  0
   -3.7104   23.5753  -31.6516 H   0  0  0  0  0  0  0  0  0  0  0  0
   -3.9686   25.2810  -29.8477 H   0  0  0  0  0  0  0  0  0  0  0  0
   -6.2193   25.7385  -28.8702 H   0  0  0  0  0  0  0  0  0  0  0  0
   -8.2310   24.5492  -29.7500 H   0  0  0  0  0  0  0  0  0  0  0  0
   -7.6572   16.7640  -34.6130 H   0  0  0  0  0  0  0  0  0  0  0  0
   -6.7887   14.4707  -35.0686 H   0  0  0  0  0  0  0  0  0  0  0  0
  1  2  2  0
  2  3  1  0
  3  4  2  0
  4  5  1  0
  5  6  2  0
  6  7  1  0
  7  8  2  0
  8  9  1  0
  9 10  2  0
  9 11  1  0
 11 12  1  0
 12 13  2  0
 13 14  1  0
 14 15  2  0
 15 16  1  0
 16 17  2  0
 17 18  1  0
  4 19  1  0
 19 20  2  0
 20  1  1  0
 10  5  1  0
 17 12  1  0
 18  8  1  0
  1 21  1  0
  2 22  1  0
  3 23  1  0
  6 24  1  0
  7 25  1  0
 10 26  1  0
 11 27  1  0
 13 28  1  0
 14 29  1  0
 15 30  1  0
 16 31  1  0
 19 32  1  0
 20 33  1  0
M  END
>  <UniqueID>  (4) 
4

>  <SMILES>  (4) 
c1ccc(-c2ccc3c(c2)Nc2ccccc2S3)cc1

>  <Energy>  (4) 
57.3753602480657

>  <Genealogy>  (4) 
c1ccc(-c2ccc3c(c2)Nc2ccccc2S3)cc1 (3D coordinates assigned)
c1ccc(-c2ccc3c(c2)Nc2ccccc2S3)cc1 (nonaromatic ring conformer: 57.3753602480657 kcal/mol)

>  <smiles>  (4) 
c1ccc(-c2ccc3c(c2)Nc2ccccc2S3)cc1

>  <score_type>  (4) 
oracle

>  <origin>  (4) 
adg

>  <m_score__min__energy>  (4) 
-8.4900000000000002

>  <m_primary>  (4) 
energy

$$$$
4:0
     RDKit          3D

 54 57  0  0  0  0  0  0  0  0999 V2000
   -0.1110   17.6410  -32.6220 C   0  0  0  0  0  0  0  0  0  0  0  0
   -0.1550   19.0470  -32.8440 O   0  0  0  0  0  0  0  0  0  0  0  0
   -0.5650   19.9930  -31.8910 C   0  0  0  0  0  0  0  0  0  0  0  0
    0.2800   20.4090  -30.8450 C   0  0  0  0  0  0  0  0  0  0  0  0
   -0.1560   21.3530  -29.9140 C   0  0  0  0  0  0  0  0  0  0  0  0
   -1.4410   21.9110  -30.0180 C   0  0  0  0  0  0  0  0  0  0  0  0
   -1.9370   22.8660  -29.0690 N   0  0  0  0  0  0  0  0  0  0  0  0
   -2.6540   24.0720  -29.3640 C   0  0  0  0  0  0  0  0  0  0  0  0
   -2.0670   25.1880  -29.3560 O   0  0  0  0  0  0  0  0  0  0  0  0
   -4.0750   24.0000  -29.7330 C   0  0  0  0  0  0  0  0  0  0  0  0
   -5.0190   24.9950  -29.5550 C   0  0  0  0  0  0  0  0  0  0  0  0
   -6.1990   24.4770  -30.0490 C   0  0  0  0  0  0  0  0  0  0  0  0
   -7.4090   25.1650  -30.1010 O   0  0  0  0  0  0  0  0  0  0  0  0
   -6.0200   23.2180  -30.5070 N   0  0  0  0  0  0  0  0  0  0  0  0
   -7.0090   22.3510  -31.0950 C   0  0  0  0  0  0  0  0  0  0  0  0
   -8.3100   22.2800  -30.5640 C   0  0  0  0  0  0  0  0  0  0  0  0
   -9.2620   21.4290  -31.1350 C   0  0  0  0  0  0  0  0  0  0  0  0
   -8.9250   20.6390  -32.2380 C   0  0  0  0  0  0  0  0  0  0  0  0
   -9.8500   19.8150  -32.7900 F   0  0  0  0  0  0  0  0  0  0  0  0
   -7.6330   20.6960  -32.7680 C   0  0  0  0  0  0  0  0  0  0  0  0
   -6.6780   21.5440  -32.1990 C   0  0  0  0  0  0  0  0  0  0  0  0
   -4.7160   22.9250  -30.3220 C   0  0  0  0  0  0  0  0  0  0  0  0
   -2.2920   21.4810  -31.0420 C   0  0  0  0  0  0  0  0  0  0  0  0
   -1.8610   20.5330  -31.9820 C   0  0  0  0  0  0  0  0  0  0  0  0
   -2.9500   20.0070  -33.2690 S   0  0  0  0  0  0  0  0  0  0  0  0
   -2.1550   19.8660  -34.5360 O   0  0  0  0  0  0  0  0  0  0  0  0
   -4.0270   21.0340  -33.4840 O   0  0  0  0  0  0  0  0  0  0  0  0
   -3.6590   18.4680  -32.8240 N   0  0  0  0  0  0  0  0  0  0  0  0
   -5.1080   18.5870  -32.5440 C   0  0  0  0  0  0  0  0  0  0  0  0
   -5.9820   18.1300  -33.7250 C   0  0  0  0  0  0  0  0  0  0  0  0
   -5.3410   18.4150  -34.9470 O   0  0  0  0  0  0  0  0  0  0  0  0
   -4.2030   17.5850  -35.1100 C   0  0  0  0  0  0  0  0  0  0  0  0
   -3.3630   17.4240  -33.8210 C   0  0  0  0  0  0  0  0  0  0  0  0
   -0.1047   17.4406  -31.5404 H   0  0  0  0  0  0  0  0  0  0  0  0
   -0.9948   17.1701  -33.0770 H   0  0  0  0  0  0  0  0  0  0  0  0
    0.8006   17.2263  -33.0770 H   0  0  0  0  0  0  0  0  0  0  0  0
    1.2922   19.9867  -30.7606 H   0  0  0  0  0  0  0  0  0  0  0  0
    0.5099   21.6616  -29.0947 H   0  0  0  0  0  0  0  0  0  0  0  0
   -4.8623   25.9899  -29.1127 H   0  0  0  0  0  0  0  0  0  0  0  0
   -7.7470   25.6820  -29.3000 H   0  0  0  0  0  0  0  0  0  0  0  0
   -8.5801   22.8974  -29.6946 H   0  0  0  0  0  0  0  0  0  0  0  0
  -10.2777   21.3813  -30.7154 H   0  0  0  0  0  0  0  0  0  0  0  0
   -7.3670   20.0726  -33.6344 H   0  0  0  0  0  0  0  0  0  0  0  0
   -5.6612   21.5805  -32.6172 H   0  0  0  0  0  0  0  0  0  0  0  0
   -4.2353   21.9748  -30.5979 H   0  0  0  0  0  0  0  0  0  0  0  0
   -3.3105   21.8909  -31.1108 H   0  0  0  0  0  0  0  0  0  0  0  0
   -5.3489   17.9672  -31.6678 H   0  0  0  0  0  0  0  0  0  0  0  0
   -5.3246   19.6502  -32.3631 H   0  0  0  0  0  0  0  0  0  0  0  0
   -6.1552   17.0463  -33.6502 H   0  0  0  0  0  0  0  0  0  0  0  0
   -6.9407   18.6682  -33.6899 H   0  0  0  0  0  0  0  0  0  0  0  0
   -4.5423   16.5889  -35.4304 H   0  0  0  0  0  0  0  0  0  0  0  0
   -3.5565   18.0678  -35.8576 H   0  0  0  0  0  0  0  0  0  0  0  0
   -3.5803   16.4408  -33.3782 H   0  0  0  0  0  0  0  0  0  0  0  0
   -2.3024   17.5156  -34.0980 H   0  0  0  0  0  0  0  0  0  0  0  0
  1  2  1  0
  2  3  1  0
  3  4  2  0
  4  5  1  0
  5  6  2  0
  6  7  1  0
  7  8  1  0
  8  9  2  0
  8 10  1  0
 10 11  1  0
 11 12  2  0
 12 13  1  0
 12 14  1  0
 14 15  1  0
 15 16  2  0
 16 17  1  0
 17 18  2  0
 18 19  1  0
 18 20  1  0
 20 21  2  0
 14 22  1  0
  6 23  1  0
 23 24  2  0
 24 25  1  0
 25 26  2  0
 25 27  2  0
 25 28  1  0
 28 29  1  0
 29 30  1  0
 30 31  1  0
 31 32  1  0
 32 33  1  0
 24  3  1  0
 33 28  1  0
 22 10  2  0
 21 15  1  0
  1 34  1  0
  1 35  1  0
  1 36  1  0
  4 37  1  0
  5 38  1  0
 11 39  1  0
 13 40  1  0
 16 41  1  0
 17 42  1  0
 20 43  1  0
 21 44  1  0
 22 45  1  0
 23 46  1  0
 29 47  1  0
 29 48  1  0
 30 49  1  0
 30 50  1  0
 32 51  1  0
 32 52  1  0
 33 53  1  0
 33 54  1  0
M  CHG  1   7  -1
M  END
>  <UniqueID>  (5) 
5

>  <SMILES>  (5) 
COc1ccc([N-]C(=O)c2cc(O)n(-c3ccc(F)cc3)c2)cc1S(=O)(=O)N1CCOCC1

>  <Energy>  (5) 
101.72230677269899

>  <Genealogy>  (5) 
COc1ccc([N-]C(=O)c2cc(O)n(-c3ccc(F)cc3)c2)cc1S(=O)(=O)N1CCOCC1 (protonated)
COc1ccc([N-]C(=O)c2cc(O)n(-c3ccc(F)cc3)c2)cc1S(=O)(=O)N1CCOCC1 (3D coordinates assigned)
COc1ccc([N-]C(=O)c2cc(O)n(-c3ccc(F)cc3)c2)cc1S(=O)(=O)N1CCOCC1 (nonaromatic ring conformer: 101.72230677269899 kcal/mol)

>  <smiles>  (5) 
COc1ccc(NC(=O)c2cc(O)n(-c3ccc(F)cc3)c2)cc1S(=O)(=O)N1CCOCC1

>  <score_type>  (5) 
oracle

>  <origin>  (5) 
adg

>  <m_score__min__energy>  (5) 
-10.73

>  <m_primary>  (5) 
energy

$$$$
5:0
     RDKit          3D

 57 60  0  0  0  0  0  0  0  0999 V2000
   -9.0350   19.1630  -31.9240 C   0  0  0  0  0  0  0  0  0  0  0  0
   -7.6900   18.7550  -32.4730 C   0  0  0  0  0  0  0  0  0  0  0  0
   -7.5190   17.3890  -32.7410 C   0  0  0  0  0  0  0  0  0  0  0  0
   -6.2920   16.9070  -33.1660 C   0  0  0  0  0  0  0  0  0  0  0  0
   -5.2490   17.7520  -33.3180 N   0  0  0  0  0  0  0  0  0  0  0  0
   -5.3470   19.0930  -33.1030 C   0  0  0  0  0  0  0  0  0  0  0  0
   -6.6000   19.6560  -32.7080 C   0  0  0  0  0  0  0  0  0  0  0  0
   -6.6680   21.0690  -32.5530 C   0  0  0  0  0  0  0  0  0  0  0  0
   -7.9050   21.7620  -32.3080 N   0  0  0  0  0  0  0  0  0  0  0  0
   -7.9750   23.0790  -31.6710 C   0  0  0  0  0  0  0  0  0  0  0  0
   -7.4340   23.0330  -30.2650 C   0  0  0  0  0  0  0  0  0  0  0  0
   -8.0030   22.2950  -29.4150 O   0  0  0  0  0  0  0  0  0  0  0  0
   -6.2720   23.7880  -29.8800 N   0  0  0  0  0  0  0  0  0  0  0  0
   -5.3580   23.2320  -28.8790 C   0  0  0  0  0  0  0  0  0  0  0  0
   -4.1060   24.1130  -28.7310 C   0  0  0  0  0  0  0  0  0  0  0  0
   -3.6000   24.5630  -30.0470 N   0  0  0  0  0  0  0  0  0  0  0  0
   -3.0020   23.4490  -30.8130 C   0  0  0  0  0  0  0  0  0  0  0  0
   -2.2310   22.5340  -29.8990 C   0  0  0  0  0  0  0  0  0  0  0  0
   -2.6990   21.2390  -29.6190 C   0  0  0  0  0  0  0  0  0  0  0  0
   -1.9670   20.3890  -28.7850 C   0  0  0  0  0  0  0  0  0  0  0  0
   -0.7650   20.8280  -28.2240 C   0  0  0  0  0  0  0  0  0  0  0  0
   -0.2920   22.1160  -28.4960 C   0  0  0  0  0  0  0  0  0  0  0  0
   -1.0210   22.9650  -29.3340 C   0  0  0  0  0  0  0  0  0  0  0  0
   -4.6050   25.3250  -30.8390 C   0  0  0  0  0  0  0  0  0  0  0  0
   -6.0540   25.1610  -30.3440 C   0  0  0  0  0  0  0  0  0  0  0  0
   -5.5090   21.8330  -32.7270 C   0  0  0  0  0  0  0  0  0  0  0  0
   -4.3050   21.2330  -33.0690 C   0  0  0  0  0  0  0  0  0  0  0  0
   -3.2850   21.9640  -33.2050 O   0  0  0  0  0  0  0  0  0  0  0  0
   -4.2340   19.8810  -33.2690 N   0  0  0  0  0  0  0  0  0  0  0  0
   -2.9550   19.2470  -33.6430 C   0  0  0  0  0  0  0  0  0  0  0  0
   -9.0007   19.1526  -30.8246 H   0  0  0  0  0  0  0  0  0  0  0  0
   -9.2817   20.1764  -32.2736 H   0  0  0  0  0  0  0  0  0  0  0  0
   -9.8031   18.4574  -32.2736 H   0  0  0  0  0  0  0  0  0  0  0  0
   -8.3641   16.6966  -32.6130 H   0  0  0  0  0  0  0  0  0  0  0  0
   -6.1667   15.8353  -33.3799 H   0  0  0  0  0  0  0  0  0  0  0  0
   -8.7580   21.4260  -32.8020 H   0  0  0  0  0  0  0  0  0  0  0  0
   -7.3828   23.7946  -32.2602 H   0  0  0  0  0  0  0  0  0  0  0  0
   -9.0292   23.3904  -31.6289 H   0  0  0  0  0  0  0  0  0  0  0  0
   -5.8757   23.1759  -27.9101 H   0  0  0  0  0  0  0  0  0  0  0  0
   -5.0459   22.2291  -29.2060 H   0  0  0  0  0  0  0  0  0  0  0  0
   -4.3595   24.9953  -28.1249 H   0  0  0  0  0  0  0  0  0  0  0  0
   -3.3200   23.5164  -28.2450 H   0  0  0  0  0  0  0  0  0  0  0  0
   -3.8026   22.8778  -31.3057 H   0  0  0  0  0  0  0  0  0  0  0  0
   -2.3138   23.8633  -31.5645 H   0  0  0  0  0  0  0  0  0  0  0  0
   -3.6461   20.8924  -30.0583 H   0  0  0  0  0  0  0  0  0  0  0  0
   -2.3369   19.3755  -28.5706 H   0  0  0  0  0  0  0  0  0  0  0  0
   -0.1894   20.1593  -27.5670 H   0  0  0  0  0  0  0  0  0  0  0  0
    0.6530   22.4606  -28.0508 H   0  0  0  0  0  0  0  0  0  0  0  0
   -0.6444   23.9754  -29.5514 H   0  0  0  0  0  0  0  0  0  0  0  0
   -4.3433   26.3924  -30.7929 H   0  0  0  0  0  0  0  0  0  0  0  0
   -4.5727   24.9224  -31.8622 H   0  0  0  0  0  0  0  0  0  0  0  0
   -6.2369   25.8595  -29.5141 H   0  0  0  0  0  0  0  0  0  0  0  0
   -6.7454   25.3768  -31.1719 H   0  0  0  0  0  0  0  0  0  0  0  0
   -5.5525   22.9237  -32.5910 H   0  0  0  0  0  0  0  0  0  0  0  0
   -2.4017   18.9727  -32.7327 H   0  0  0  0  0  0  0  0  0  0  0  0
   -3.1538   18.3431  -34.2375 H   0  0  0  0  0  0  0  0  0  0  0  0
   -2.3561   19.9525  -34.2375 H   0  0  0  0  0  0  0  0  0  0  0  0
  1  2  1  0
  2  3  2  0
  3  4  1  0
  4  5  2  0
  5  6  1  0
  6  7  2  0
  7  8  1  0
  8  9  1  0
  9 10  1  0
 10 11  1  0
 11 12  2  0
 11 13  1  0
 13 14  1  0
 14 15  1  0
 15 16  1  0
 16 17  1  0
 17 18  1  0
 18 19  2  0
 19 20  1  0
 20 21  2  0
 21 22  1  0
 22 23  2  0
 16 24  1  0
 24 25  1  0
  8 26  2  0
 26 27  1  0
 27 28  2  0
 27 29  1  0
 29 30  1  0
  7  2  1  0
 25 13  1  0
 29  6  1  0
 23 18  1  0
  1 31  1  0
  1 32  1  0
  1 33  1  0
  3 34  1  0
  4 35  1  0
  9 36  1  0
 10 37  1  0
 10 38  1  0
 14 39  1  0
 14 40  1  0
 15 41  1  0
 15 42  1  0
 17 43  1  0
 17 44  1  0
 19 45  1  0
 20 46  1  0
 21 47  1  0
 22 48  1  0
 23 49  1  0
 24 50  1  0
 24 51  1  0
 25 52  1  0
 25 53  1  0
 26 54  1  0
 30 55  1  0
 30 56  1  0
 30 57  1  0
M  END
>  <UniqueID>  (6) 
6

>  <SMILES>  (6) 
Cc1ccnc2c1c(NCC(=O)N1CCN(Cc3ccccc3)CC1)cc(=O)n2C

>  <Energy>  (6) 
86.55568526353294

>  <Genealogy>  (6) 
Cc1ccnc2c1c(NCC(=O)N1CCN(Cc3ccccc3)CC1)cc(=O)n2C (3D coordinates assigned)
Cc1ccnc2c1c(NCC(=O)N1CCN(Cc3ccccc3)CC1)cc(=O)n2C (nonaromatic ring conformer: 86.55568526353294 kcal/mol)

>  <smiles>  (6) 
Cc1ccnc2c1c(NCC(=O)N1CCN(Cc3ccccc3)CC1)cc(=O)n2C

>  <score_type>  (6) 
oracle

>  <origin>  (6) 
adg

>  <m_score__min__energy>  (6) 
-9.5199999999999996

>  <m_primary>  (6) 
energy

$$$$
6:0
     RDKit          3D

 54 57  0  0  0  0  0  0  0  0999 V2000
    3.7540   24.1890  -35.4570 C   0  0  0  0  0  0  0  0  0  0  0  0
    3.2390   23.7240  -36.7780 C   0  0  0  0  0  0  0  0  0  0  0  0
    2.1460   24.1730  -37.2140 O   0  0  0  0  0  0  0  0  0  0  0  0
    4.0100   22.7970  -37.5500 N   0  0  0  0  0  0  0  0  0  0  0  0
    5.0310   21.9110  -36.9960 C   0  0  0  0  0  0  0  0  0  0  0  0
    4.4150   20.5670  -36.5930 C   0  0  2  0  0  0  0  0  0  0  0  0
    2.8590   20.5890  -36.5490 C   0  0  0  0  0  0  0  0  0  0  0  0
    2.5040   20.2600  -35.1720 N   0  0  0  0  0  0  0  0  0  0  0  0
    1.1690   20.2790  -34.6280 C   0  0  0  0  0  0  0  0  0  0  0  0
    0.3760   21.4330  -34.7420 C   0  0  0  0  0  0  0  0  0  0  0  0
   -0.9160   21.4620  -34.2120 C   0  0  0  0  0  0  0  0  0  0  0  0
   -1.4380   20.3420  -33.5480 C   0  0  0  0  0  0  0  0  0  0  0  0
   -2.7690   20.3890  -33.0020 N   0  0  0  0  0  0  0  0  0  0  0  0
   -3.2290   21.5450  -32.2260 C   0  0  0  0  0  0  0  0  0  0  0  0
   -4.6110   21.9850  -32.7140 C   0  0  0  0  0  0  0  0  0  0  0  0
   -5.5010   20.8220  -32.8360 N   0  0  0  0  0  0  0  0  0  0  0  0
   -6.8960   20.9340  -32.4980 C   0  0  0  0  0  0  0  0  0  0  0  0
   -7.7740   19.8530  -32.6960 C   0  0  0  0  0  0  0  0  0  0  0  0
   -9.1270   19.9730  -32.3660 C   0  0  0  0  0  0  0  0  0  0  0  0
   -9.6170   21.1710  -31.8400 C   0  0  0  0  0  0  0  0  0  0  0  0
   -8.7540   22.2520  -31.6430 C   0  0  0  0  0  0  0  0  0  0  0  0
   -7.3990   22.1350  -31.9690 C   0  0  0  0  0  0  0  0  0  0  0  0
   -5.0260   19.6690  -33.6120 C   0  0  0  0  0  0  0  0  0  0  0  0
   -3.6570   19.2260  -33.0990 C   0  0  0  0  0  0  0  0  0  0  0  0
   -0.6450   19.1900  -33.4190 C   0  0  0  0  0  0  0  0  0  0  0  0
   -1.1290   18.0850  -32.7970 F   0  0  0  0  0  0  0  0  0  0  0  0
    0.6480   19.1610  -33.9510 C   0  0  0  0  0  0  0  0  0  0  0  0
    3.7170   20.0410  -34.4760 C   0  0  0  0  0  0  0  0  0  0  0  0
    3.7880   19.6560  -33.2800 O   0  0  0  0  0  0  0  0  0  0  0  0
    4.8220   20.2280  -35.2720 O   0  0  0  0  0  0  0  0  0  0  0  0
    3.1991   23.6880  -34.6501 H   0  0  0  0  0  0  0  0  0  0  0  0
    4.8232   23.9443  -35.3735 H   0  0  0  0  0  0  0  0  0  0  0  0
    3.6194   25.2775  -35.3735 H   0  0  0  0  0  0  0  0  0  0  0  0
    5.8105   21.7393  -37.7529 H   0  0  0  0  0  0  0  0  0  0  0  0
    5.4662   22.3844  -36.1035 H   0  0  0  0  0  0  0  0  0  0  0  0
    4.7570   19.8502  -37.3541 H   0  0  0  0  0  0  0  0  0  0  0  0
    2.4808   21.5869  -36.8157 H   0  0  0  0  0  0  0  0  0  0  0  0
    2.4201   19.8785  -37.2649 H   0  0  0  0  0  0  0  0  0  0  0  0
    0.7759   22.3212  -35.2530 H   0  0  0  0  0  0  0  0  0  0  0  0
   -1.5286   22.3697  -34.3161 H   0  0  0  0  0  0  0  0  0  0  0  0
   -3.2885   21.2698  -31.1626 H   0  0  0  0  0  0  0  0  0  0  0  0
   -2.5183   22.3743  -32.3570 H   0  0  0  0  0  0  0  0  0  0  0  0
   -5.0406   22.6972  -31.9941 H   0  0  0  0  0  0  0  0  0  0  0  0
   -4.5080   22.4626  -33.6995 H   0  0  0  0  0  0  0  0  0  0  0  0
   -7.3940   18.9085  -33.1126 H   0  0  0  0  0  0  0  0  0  0  0  0
   -9.8073   19.1225  -32.5208 H   0  0  0  0  0  0  0  0  0  0  0  0
  -10.6821   21.2631  -31.5810 H   0  0  0  0  0  0  0  0  0  0  0  0
   -9.1406   23.1959  -31.2312 H   0  0  0  0  0  0  0  0  0  0  0  0
   -6.7229   22.9881  -31.8104 H   0  0  0  0  0  0  0  0  0  0  0  0
   -5.7407   18.8394  -33.5074 H   0  0  0  0  0  0  0  0  0  0  0  0
   -4.9410   19.9550  -34.6708 H   0  0  0  0  0  0  0  0  0  0  0  0
   -3.7691   18.7669  -32.1057 H   0  0  0  0  0  0  0  0  0  0  0  0
   -3.2249   18.4931  -33.7962 H   0  0  0  0  0  0  0  0  0  0  0  0
    1.2632   18.2560  -33.8392 H   0  0  0  0  0  0  0  0  0  0  0  0
  1  2  1  0
  2  3  2  0
  2  4  1  0
  4  5  1  0
  5  6  1  0
  6  7  1  0
  7  8  1  0
  8  9  1  0
  9 10  2  0
 10 11  1  0
 11 12  2  0
 12 13  1  0
 13 14  1  0
 14 15  1  0
 15 16  1  0
 16 17  1  0
 17 18  2  0
 18 19  1  0
 19 20  2  0
 20 21  1  0
 21 22  2  0
 16 23  1  0
 23 24  1  0
 12 25  1  0
 25 26  1  0
 25 27  2  0
  8 28  1  0
 28 29  2  0
 28 30  1  0
 30  6  1  0
 27  9  1  0
 24 13  1  0
 22 17  1  0
  1 31  1  0
  1 32  1  0
  1 33  1  0
  5 34  1  0
  5 35  1  0
  6 36  1  6
  7 37  1  0
  7 38  1  0
 10 39  1  0
 11 40  1  0
 14 41  1  0
 14 42  1  0
 15 43  1  0
 15 44  1  0
 18 45  1  0
 19 46  1  0
 20 47  1  0
 21 48  1  0
 22 49  1  0
 23 50  1  0
 23 51  1  0
 24 52  1  0
 24 53  1  0
 27 54  1  0
M  CHG  1   4  -1
M  END
>  <UniqueID>  (7) 
7

>  <SMILES>  (7) 
CC(=O)[N-]C[C@@H]1CN(c2ccc(N3CCN(c4ccccc4)CC3)c(F)c2)C(=O)O1

>  <Energy>  (7) 
79.96051841259343

>  <Genealogy>  (7) 
CC(=O)[N-]CC1CN(c2ccc(N3CCN(c4ccccc4)CC3)c(F)c2)C(=O)O1 (protonated)
CC(=O)[N-]C[C@@H]1CN(c2ccc(N3CCN(c4ccccc4)CC3)c(F)c2)C(=O)O1 (chirality)
CC(=O)[N-]C[C@@H]1CN(c2ccc(N3CCN(c4ccccc4)CC3)c(F)c2)C(=O)O1 (3D coordinates assigned)
CC(=O)[N-]C[C@@H]1CN(c2ccc(N3CCN(c4ccccc4)CC3)c(F)c2)C(=O)O1 (nonaromatic ring conformer: 79.96051841259343 kcal/mol)

>  <smiles>  (7) 
CC(=O)NCC1CN(c2ccc(N3CCN(c4ccccc4)CC3)c(F)c2)C(=O)O1

>  <score_type>  (7) 
oracle

>  <origin>  (7) 
adg

>  <m_score__min__energy>  (7) 
-9.4700000000000006

>  <m_primary>  (7) 
energy

$$$$
7:0
     RDKit          3D

 56 60  0  0  0  0  0  0  0  0999 V2000
   -0.1450   20.8540  -32.9230 C   0  0  0  0  0  0  0  0  0  0  0  0
   -1.2420   21.1110  -33.9490 C   0  0  0  0  0  0  0  0  0  0  0  0
   -2.5530   20.8930  -33.3490 N   0  0  0  0  0  0  0  0  0  0  0  0
   -3.3570   21.8470  -32.8440 C   0  0  0  0  0  0  0  0  0  0  0  0
   -4.4720   21.2280  -32.3130 C   0  0  0  0  0  0  0  0  0  0  0  0
   -5.6510   21.8670  -31.6830 C   0  0  0  0  0  0  0  0  0  0  0  0
   -6.9160   21.2930  -31.8780 C   0  0  0  0  0  0  0  0  0  0  0  0
   -8.0520   21.9220  -31.3690 C   0  0  0  0  0  0  0  0  0  0  0  0
   -7.9350   23.0860  -30.6800 N   0  0  0  0  0  0  0  0  0  0  0  0
   -6.7280   23.6650  -30.4570 C   0  0  0  0  0  0  0  0  0  0  0  0
   -5.5520   23.0670  -30.9370 C   0  0  0  0  0  0  0  0  0  0  0  0
   -4.2510   23.6720  -30.5790 C   0  0  0  0  0  0  0  0  0  0  0  0
   -4.0540   24.8910  -30.8400 O   0  0  0  0  0  0  0  0  0  0  0  0
   -3.2080   22.8900  -29.9640 N   0  0  0  0  0  0  0  0  0  0  0  0
   -3.5580   21.9120  -28.9280 C   0  0  0  0  0  0  0  0  0  0  0  0
   -2.5140   20.7900  -28.8480 C   0  0  0  0  0  0  0  0  0  0  0  0
   -1.1220   21.2760  -28.8670 N   0  0  0  0  0  0  0  0  0  0  0  0
   -0.4970   21.7310  -27.2940 S   0  0  0  0  0  0  0  0  0  0  0  0
    0.9350   21.2900  -27.1770 O   0  0  0  0  0  0  0  0  0  0  0  0
   -1.2860   21.0070  -26.2390 O   0  0  0  0  0  0  0  0  0  0  0  0
   -0.5790   23.4520  -26.9500 C   0  0  0  0  0  0  0  0  0  0  0  0
   -1.1990   24.0180  -25.8380 C   0  0  0  0  0  0  0  0  0  0  0  0
   -1.0140   25.4030  -25.7760 C   0  0  0  0  0  0  0  0  0  0  0  0
   -1.5180   26.2590  -24.7940 C   0  0  0  0  0  0  0  0  0  0  0  0
   -1.2190   27.6300  -24.8740 C   0  0  0  0  0  0  0  0  0  0  0  0
   -0.4220   28.1280  -25.9250 C   0  0  0  0  0  0  0  0  0  0  0  0
   -0.0620   29.8420  -26.0130 Cl  0  0  0  0  0  0  0  0  0  0  0  0
    0.0790   27.2570  -26.9070 C   0  0  0  0  0  0  0  0  0  0  0  0
   -0.2360   25.9050  -26.8090 C   0  0  0  0  0  0  0  0  0  0  0  0
    0.2380   24.6520  -27.8220 S   0  0  0  0  0  0  0  0  0  0  0  0
   -0.8390   22.2440  -29.9410 C   0  0  0  0  0  0  0  0  0  0  0  0
   -1.8360   23.4000  -29.9740 C   0  0  0  0  0  0  0  0  0  0  0  0
   -4.2770   19.8770  -32.5480 C   0  0  0  0  0  0  0  0  0  0  0  0
   -3.0940   19.6980  -33.1670 N   0  0  0  0  0  0  0  0  0  0  0  0
   -0.5609   20.9514  -31.9093 H   0  0  0  0  0  0  0  0  0  0  0  0
    0.2540   19.8381  -33.0595 H   0  0  0  0  0  0  0  0  0  0  0  0
    0.6638   21.5870  -33.0595 H   0  0  0  0  0  0  0  0  0  0  0  0
   -1.1725   22.1502  -34.3028 H   0  0  0  0  0  0  0  0  0  0  0  0
   -1.1137   20.4177  -34.7933 H   0  0  0  0  0  0  0  0  0  0  0  0
   -3.1607   22.9293  -32.8526 H   0  0  0  0  0  0  0  0  0  0  0  0
   -7.0119   20.3475  -32.4319 H   0  0  0  0  0  0  0  0  0  0  0  0
   -9.0444   21.4743  -31.5260 H   0  0  0  0  0  0  0  0  0  0  0  0
   -6.6707   24.6096  -29.8962 H   0  0  0  0  0  0  0  0  0  0  0  0
   -3.6106   22.4231  -27.9553 H   0  0  0  0  0  0  0  0  0  0  0  0
   -4.5299   21.4655  -29.1849 H   0  0  0  0  0  0  0  0  0  0  0  0
   -2.6746   20.2316  -27.9140 H   0  0  0  0  0  0  0  0  0  0  0  0
   -2.6480   20.1607  -29.7402 H   0  0  0  0  0  0  0  0  0  0  0  0
   -1.7687   23.4417  -25.0941 H   0  0  0  0  0  0  0  0  0  0  0  0
   -2.1373   25.8675  -23.9735 H   0  0  0  0  0  0  0  0  0  0  0  0
   -1.6096   28.3195  -24.1111 H   0  0  0  0  0  0  0  0  0  0  0  0
    0.7032   27.6334  -27.7308 H   0  0  0  0  0  0  0  0  0  0  0  0
    0.1699   22.6544  -29.7873 H   0  0  0  0  0  0  0  0  0  0  0  0
   -0.9206   21.7091  -30.8987 H   0  0  0  0  0  0  0  0  0  0  0  0
   -1.6801   24.0386  -29.0920 H   0  0  0  0  0  0  0  0  0  0  0  0
   -1.6779   23.9818  -30.8941 H   0  0  0  0  0  0  0  0  0  0  0  0
   -4.9783   19.0757  -32.2723 H   0  0  0  0  0  0  0  0  0  0  0  0
  1  2  1  0
  2  3  1  0
  3  4  1  0
  4  5  2  0
  5  6  1  0
  6  7  2  0
  7  8  1  0
  8  9  2  0
  9 10  1  0
 10 11  2  0
 11 12  1  0
 12 13  2  0
 12 14  1  0
 14 15  1  0
 15 16  1  0
 16 17  1  0
 17 18  1  0
 18 19  2  0
 18 20  2  0
 18 21  1  0
 21 22  2  0
 22 23  1  0
 23 24  2  0
 24 25  1  0
 25 26  2  0
 26 27  1  0
 26 28  1  0
 28 29  2  0
 29 30  1  0
 17 31  1  0
 31 32  1  0
  5 33  1  0
 33 34  2  0
 34  3  1  0
 11  6  1  0
 32 14  1  0
 30 21  1  0
 29 23  1  0
  1 35  1  0
  1 36  1  0
  1 37  1  0
  2 38  1  0
  2 39  1  0
  4 40  1  0
  7 41  1  0
  8 42  1  0
 10 43  1  0
 15 44  1  0
 15 45  1  0
 16 46  1  0
 16 47  1  0
 22 48  1  0
 24 49  1  0
 25 50  1  0
 28 51  1  0
 31 52  1  0
 31 53  1  0
 32 54  1  0
 32 55  1  0
 33 56  1  0
M  END
>  <UniqueID>  (8) 
8

>  <SMILES>  (8) 
CCn1cc(-c2ccncc2C(=O)N2CCN(S(=O)(=O)c3cc4ccc(Cl)cc4s3)CC2)cn1

>  <Energy>  (8) 
130.25636405073885

>  <Genealogy>  (8) 
CCn1cc(-c2ccncc2C(=O)N2CCN(S(=O)(=O)c3cc4ccc(Cl)cc4s3)CC2)cn1 (3D coordinates assigned)
CCn1cc(-c2ccncc2C(=O)N2CCN(S(=O)(=O)c3cc4ccc(Cl)cc4s3)CC2)cn1 (nonaromatic ring conformer: 130.25636405073885 kcal/mol)

>  <smiles>  (8) 
CCn1cc(-c2ccncc2C(=O)N2CCN(S(=O)(=O)c3cc4ccc(Cl)cc4s3)CC2)cn1

>  <score_type>  (8) 
oracle

>  <origin>  (8) 
adg

>  <m_score__min__energy>  (8) 
-10.6

>  <m_primary>  (8) 
energy

$$$$
8:0
     RDKit          3D

 32 34  0  0  1  0  0  0  0  0999 V2000
   -2.3450   24.7310  -28.3020 C   0  0  0  0  0  0  0  0  0  0  0  0
   -3.0550   25.2430  -29.4020 O   0  0  0  0  0  0  0  0  0  0  0  0
   -4.0660   24.6000  -30.0790 C   0  0  0  0  0  0  0  0  0  0  0  0
   -5.0220   25.2410  -30.8410 C   0  0  0  0  0  0  0  0  0  0  0  0
   -6.0140   24.5450  -31.4980 C   0  0  0  0  0  0  0  0  0  0  0  0
   -6.0660   23.1550  -31.4000 C   0  0  0  0  0  0  0  0  0  0  0  0
   -7.0840   22.4220  -32.0740 N   0  0  0  0  0  0  0  0  0  0  0  0
   -7.0500   21.1570  -32.2470 C   0  0  0  0  0  0  0  0  0  0  0  0
   -8.1070   20.3740  -31.8250 C   0  0  0  0  0  0  0  0  0  0  0  0
   -7.9980   19.0120  -32.0470 C   0  0  0  0  0  0  0  0  0  0  0  0
   -9.1400   18.1730  -31.5910 C   0  0  0  0  0  0  0  0  0  0  0  0
   -6.9170   18.4780  -32.6450 N   0  0  0  0  0  0  0  0  0  0  0  0
   -5.9010   19.2630  -33.0470 C   0  0  0  0  0  0  0  0  0  0  0  0
   -4.7410   18.9720  -33.6530 N   0  0  0  0  0  0  0  0  0  0  0  0
   -4.1170   20.1610  -33.8120 C   0  0  0  0  0  0  0  0  0  0  0  0
   -4.8840   21.1480  -33.3130 N   0  0  0  0  0  0  0  0  0  0  0  0
   -5.9890   20.5960  -32.8380 N   0  0  0  0  0  0  0  0  0  0  0  0
   -5.1180   22.4930  -30.6420 C   0  0  0  0  0  0  0  0  0  0  0  0
   -4.1240   23.2270  -29.9880 C   0  0  0  0  0  0  0  0  0  0  0  0
   -2.8180   25.0721  -27.3693 H   0  0  0  0  0  0  0  0  0  0  0  0
   -2.3560   23.6316  -28.3380 H   0  0  0  0  0  0  0  0  0  0  0  0
   -1.3054   25.0886  -28.3380 H   0  0  0  0  0  0  0  0  0  0  0  0
   -4.9914   26.3373  -30.9263 H   0  0  0  0  0  0  0  0  0  0  0  0
   -6.7621   25.0843  -32.0976 H   0  0  0  0  0  0  0  0  0  0  0  0
   -8.9908   20.8109  -31.3371 H   0  0  0  0  0  0  0  0  0  0  0  0
   -9.1653   18.1544  -30.4914 H   0  0  0  0  0  0  0  0  0  0  0  0
  -10.0811   18.5961  -31.9723 H   0  0  0  0  0  0  0  0  0  0  0  0
   -9.0175   17.1485  -31.9723 H   0  0  0  0  0  0  0  0  0  0  0  0
   -3.1309   20.3006  -34.2789 H   0  0  0  0  0  0  0  0  0  0  0  0
   -4.6480   22.1720  -33.3020 H   0  0  0  0  0  0  0  0  0  0  0  0
   -5.1456   21.3969  -30.5541 H   0  0  0  0  0  0  0  0  0  0  0  0
   -3.3711   22.6958  -29.3871 H   0  0  0  0  0  0  0  0  0  0  0  0
  1  2  1  0
  2  3  1  0
  3  4  2  0
  4  5  1  0
  5  6  2  0
  6  7  1  0
  7  8  2  0
  8  9  1  0
  9 10  2  0
 10 11  1  0
 10 12  1  0
 12 13  2  0
 13 14  1  0
 14 15  2  0
 15 16  1  0
 16 17  1  0
  6 18  1  0
 18 19  2  0
 19  3  1  0
 17  8  1  0
 17 13  1  0
  1 20  1  0
  1 21  1  0
  1 22  1  0
  4 23  1  0
  5 24  1  0
  9 25  1  0
 11 26  1  0
 11 27  1  0
 11 28  1  0
 15 29  1  0
 16 30  1  0
 18 31  1  0
 19 32  1  0
M  END
>  <smiles>  (9) 
COc1ccc(N=c2cc(C)nc3nc[nH]n23)cc1

>  <score_type>  (9) 
oracle

>  <origin>  (9) 
adg

>  <m_score__min__energy>  (9) 
-6.9900000000000002

>  <m_primary>  (9) 
energy

$$$$
9:0
     RDKit          3D

 43 45  0  0  0  0  0  0  0  0999 V2000
    2.5805   25.1049  -27.7494 H   0  0  0  0  0  0  0  0  0  0  0  0
    1.7320   25.6260  -27.2820 C   0  0  0  0  0  0  0  0  0  0  0  0
    0.4610   25.3470  -27.6780 N   0  0  0  0  0  0  0  0  0  0  0  0
   -0.6180   25.9660  -27.1240 C   0  0  0  0  0  0  0  0  0  0  0  0
   -1.9980   25.6250  -27.6090 C   0  0  0  0  0  0  0  0  0  0  0  0
   -2.6066   26.5406  -27.6458 H   0  0  0  0  0  0  0  0  0  0  0  0
   -2.4518   24.8994  -26.9180 H   0  0  0  0  0  0  0  0  0  0  0  0
   -1.9330   25.0350  -28.9440 N   0  0  0  0  0  0  0  0  0  0  0  0
   -1.9820   25.6840  -29.7620 H   0  0  0  0  0  0  0  0  0  0  0  0
   -1.7160   23.6290  -29.1630 C   0  0  0  0  0  0  0  0  0  0  0  0
   -2.0820   23.0620  -30.2790 N   0  0  0  0  0  0  0  0  0  0  0  0
   -3.3850   22.5420  -30.5910 C   0  0  0  0  0  0  0  0  0  0  0  0
   -3.4710   21.3660  -31.0330 O   0  0  0  0  0  0  0  0  0  0  0  0
   -4.6260   23.3250  -30.3750 C   0  0  0  0  0  0  0  0  0  0  0  0
   -5.8020   22.6560  -29.9910 C   0  0  0  0  0  0  0  0  0  0  0  0
   -5.7851   21.5672  -29.8351 H   0  0  0  0  0  0  0  0  0  0  0  0
   -6.9930   23.3660  -29.8060 C   0  0  0  0  0  0  0  0  0  0  0  0
   -7.9099   22.8334  -29.5135 H   0  0  0  0  0  0  0  0  0  0  0  0
   -7.0200   24.7500  -29.9920 C   0  0  0  0  0  0  0  0  0  0  0  0
   -7.9596   25.3053  -29.8547 H   0  0  0  0  0  0  0  0  0  0  0  0
   -5.8550   25.4280  -30.3520 C   0  0  0  0  0  0  0  0  0  0  0  0
   -5.8780   26.5187  -30.4926 H   0  0  0  0  0  0  0  0  0  0  0  0
   -4.6580   24.7280  -30.5350 C   0  0  0  0  0  0  0  0  0  0  0  0
   -3.5060   25.4380  -30.8540 O   0  0  0  0  0  0  0  0  0  0  0  0
   -0.9730   22.8660  -28.1960 N   0  0  0  0  0  0  0  0  0  0  0  0
   -0.3430   23.3840  -27.5450 H   0  0  0  0  0  0  0  0  0  0  0  0
   -0.9420   21.4300  -28.1480 C   0  0  0  0  0  0  0  0  0  0  0  0
    0.0980   20.7410  -28.7930 C   0  0  0  0  0  0  0  0  0  0  0  0
    0.8665   21.3036  -29.3433 H   0  0  0  0  0  0  0  0  0  0  0  0
    0.1640   19.3460  -28.7410 C   0  0  0  0  0  0  0  0  0  0  0  0
    0.9765   18.8146  -29.2582 H   0  0  0  0  0  0  0  0  0  0  0  0
   -0.8020   18.6250  -28.0320 C   0  0  0  0  0  0  0  0  0  0  0  0
   -0.7534   17.5266  -27.9970 H   0  0  0  0  0  0  0  0  0  0  0  0
   -1.8290   19.3010  -27.3680 C   0  0  0  0  0  0  0  0  0  0  0  0
   -2.5834   18.7339  -26.8030 H   0  0  0  0  0  0  0  0  0  0  0  0
   -1.9000   20.6960  -27.4200 C   0  0  0  0  0  0  0  0  0  0  0  0
   -2.7071   21.2233  -26.8904 H   0  0  0  0  0  0  0  0  0  0  0  0
   -0.4250   26.9330  -26.1240 C   0  0  0  0  0  0  0  0  0  0  0  0
   -1.2868   27.4510  -25.6779 H   0  0  0  0  0  0  0  0  0  0  0  0
    0.8730   27.2300  -25.7020 C   0  0  0  0  0  0  0  0  0  0  0  0
    1.0383   27.9795  -24.9140 H   0  0  0  0  0  0  0  0  0  0  0  0
    1.9600   26.5740  -26.2820 C   0  0  0  0  0  0  0  0  0  0  0  0
    2.9854   26.8013  -25.9549 H   0  0  0  0  0  0  0  0  0  0  0  0
  1  2  1  0
  2  3  2  0
  3  4  1  0
  4  5  1  0
  5  6  1  0
  5  7  1  0
  5  8  1  0
  8  9  1  0
  8 10  1  0
 10 11  2  0
 11 12  1  0
 12 13  2  0
 12 14  1  0
 14 15  2  0
 15 16  1  0
 15 17  1  0
 17 18  1  0
 17 19  2  0
 19 20  1  0
 19 21  1  0
 21 22  1  0
 21 23  2  0
 23 24  1  0
 10 25  1  0
 25 26  1  0
 25 27  1  0
 27 28  2  0
 28 29  1  0
 28 30  1  0
 30 31  1  0
 30 32  2  0
 32 33  1  0
 32 34  1  0
 34 35  1  0
 34 36  2  0
 36 37  1  0
  4 38  2  0
 38 39  1  0
 38 40  1  0
 40 41  1  0
 40 42  2  0
 42 43  1  0
 42  2  1  0
 23 14  1  0
 36 27  1  0
M  CHG  1  24  -1
M  END
>  <UniqueID>  (10) 
9

>  <SMILES>  (10) 
O=C(/N=C(\NCc1ccccn1)Nc1ccccc1)c1ccccc1[O-]

>  <Energy>  (10) 
58.18863325923707

>  <Genealogy>  (10) 
O=C(N=C(NCc1ccccn1)Nc1ccccc1)c1ccccc1[O-] (protonated)
O=C(/N=C(\NCc1ccccn1)Nc1ccccc1)c1ccccc1[O-] (cis-trans isomerization)
O=C(/N=C(\NCc1ccccn1)Nc1ccccc1)c1ccccc1[O-] (3D coordinates assigned)
O=C(/N=C(\NCc1ccccn1)Nc1ccccc1)c1ccccc1[O-] (optimized conformer: 58.18863325923707 kcal/mol)

>  <smiles>  (10) 
O=C(N=C(NCc1ccccn1)Nc1ccccc1)c1ccccc1O

>  <score_type>  (10) 
oracle

>  <origin>  (10) 
adg

>  <m_score__min__energy>  (10) 
-11.960000000000001

>  <m_primary>  (10) 
energy

$$$$
10:0
     RDKit          3D

 48 51  0  0  0  0  0  0  0  0999 V2000
   -1.8420   20.4510  -30.9350 C   0  0  0  0  0  0  0  0  0  0  0  0
   -2.0410   20.5310  -29.5270 O   0  0  0  0  0  0  0  0  0  0  0  0
   -1.6090   21.5880  -28.7140 C   0  0  0  0  0  0  0  0  0  0  0  0
   -0.3320   21.5760  -28.1220 C   0  0  0  0  0  0  0  0  0  0  0  0
    0.0730   22.6050  -27.2700 C   0  0  0  0  0  0  0  0  0  0  0  0
   -0.7940   23.6700  -26.9800 C   0  0  0  0  0  0  0  0  0  0  0  0
   -0.3850   24.7760  -26.0760 C   0  0  0  0  0  0  0  0  0  0  0  0
    0.0680   24.5370  -24.7650 C   0  0  0  0  0  0  0  0  0  0  0  0
    0.4320   25.5800  -23.9700 N   0  0  0  0  0  0  0  0  0  0  0  0
    0.3580   26.8640  -24.4190 C   0  0  0  0  0  0  0  0  0  0  0  0
    0.7300   27.9420  -23.6010 C   0  0  0  0  0  0  0  0  0  0  0  0
    0.6410   29.2510  -24.0860 C   0  0  0  0  0  0  0  0  0  0  0  0
    0.1810   29.4900  -25.3860 C   0  0  0  0  0  0  0  0  0  0  0  0
   -0.1930   28.4210  -26.2070 C   0  0  0  0  0  0  0  0  0  0  0  0
   -0.1050   27.1100  -25.7280 C   0  0  0  0  0  0  0  0  0  0  0  0
   -0.4630   26.0630  -26.5150 N   0  0  0  0  0  0  0  0  0  0  0  0
   -2.0610   23.6950  -27.5860 C   0  0  0  0  0  0  0  0  0  0  0  0
   -2.4720   22.6810  -28.4590 C   0  0  0  0  0  0  0  0  0  0  0  0
   -3.7840   22.7980  -29.0330 N   0  0  0  0  0  0  0  0  0  0  0  0
   -4.1950   23.4360  -30.5930 S   0  0  0  0  0  0  0  0  0  0  0  0
   -3.1440   23.0570  -31.5990 O   0  0  0  0  0  0  0  0  0  0  0  0
   -4.3070   24.9340  -30.5260 O   0  0  0  0  0  0  0  0  0  0  0  0
   -5.7500   22.7700  -31.0790 C   0  0  0  0  0  0  0  0  0  0  0  0
   -6.8720   23.6020  -31.1940 C   0  0  0  0  0  0  0  0  0  0  0  0
   -8.1030   23.0730  -31.5930 C   0  0  0  0  0  0  0  0  0  0  0  0
   -8.2250   21.7030  -31.8750 C   0  0  0  0  0  0  0  0  0  0  0  0
   -9.5350   21.1390  -32.3420 C   0  0  0  0  0  0  0  0  0  0  0  0
   -7.0950   20.8770  -31.7860 C   0  0  0  0  0  0  0  0  0  0  0  0
   -5.8650   21.4070  -31.3860 C   0  0  0  0  0  0  0  0  0  0  0  0
   -0.8395   20.0480  -31.1413 H   0  0  0  0  0  0  0  0  0  0  0  0
   -2.6014   19.7883  -31.3756 H   0  0  0  0  0  0  0  0  0  0  0  0
   -1.9314   21.4549  -31.3756 H   0  0  0  0  0  0  0  0  0  0  0  0
    0.3562   20.7444  -28.3336 H   0  0  0  0  0  0  0  0  0  0  0  0
    1.0779   22.5810  -26.8231 H   0  0  0  0  0  0  0  0  0  0  0  0
    0.1278   23.5072  -24.3829 H   0  0  0  0  0  0  0  0  0  0  0  0
    0.7630   25.3790  -23.0000 H   0  0  0  0  0  0  0  0  0  0  0  0
    1.0915   27.7576  -22.5786 H   0  0  0  0  0  0  0  0  0  0  0  0
    0.9334   30.0949  -23.4438 H   0  0  0  0  0  0  0  0  0  0  0  0
    0.1134   30.5211  -25.7631 H   0  0  0  0  0  0  0  0  0  0  0  0
   -0.5558   28.6112  -27.2279 H   0  0  0  0  0  0  0  0  0  0  0  0
   -2.7447   24.5292  -27.3699 H   0  0  0  0  0  0  0  0  0  0  0  0
   -6.7837   24.6752  -30.9695 H   0  0  0  0  0  0  0  0  0  0  0  0
   -8.9787   23.7321  -31.6863 H   0  0  0  0  0  0  0  0  0  0  0  0
  -10.1515   20.8736  -31.4705 H   0  0  0  0  0  0  0  0  0  0  0  0
  -10.0620   21.8899  -32.9489 H   0  0  0  0  0  0  0  0  0  0  0  0
   -9.3517   20.2401  -32.9489 H   0  0  0  0  0  0  0  0  0  0  0  0
   -7.1770   19.8080  -32.0319 H   0  0  0  0  0  0  0  0  0  0  0  0
   -4.9842   20.7523  -31.3118 H   0  0  0  0  0  0  0  0  0  0  0  0
  1  2  1  0
  2  3  1  0
  3  4  2  0
  4  5  1  0
  5  6  2  0
  6  7  1  0
  7  8  2  0
  8  9  1  0
  9 10  2  0
 10 11  1  0
 11 12  2  0
 12 13  1  0
 13 14  2  0
 14 15  1  0
 15 16  2  0
  6 17  1  0
 17 18  2  0
 18 19  1  0
 19 20  1  0
 20 21  2  0
 20 22  2  0
 20 23  1  0
 23 24  2  0
 24 25  1  0
 25 26  2  0
 26 27  1  0
 26 28  1  0
 28 29  2  0
 18  3  1  0
 29 23  1  0
 16  7  1  0
 15 10  1  0
  1 30  1  0
  1 31  1  0
  1 32  1  0
  4 33  1  0
  5 34  1  0
  8 35  1  0
  9 36  1  0
 11 37  1  0
 12 38  1  0
 13 39  1  0
 14 40  1  0
 17 41  1  0
 24 42  1  0
 25 43  1  0
 27 44  1  0
 27 45  1  0
 27 46  1  0
 28 47  1  0
 29 48  1  0
M  CHG  2   9   1  19  -1
M  END
>  <UniqueID>  (11) 
10

>  <SMILES>  (11) 
COc1ccc(-c2c[nH+]c3ccccc3n2)cc1[N-]S(=O)(=O)c1ccc(C)cc1

>  <Energy>  (11) 
66.43275769468802

>  <Genealogy>  (11) 
COc1ccc(-c2c[nH+]c3ccccc3n2)cc1[N-]S(=O)(=O)c1ccc(C)cc1 (protonated)
COc1ccc(-c2c[nH+]c3ccccc3n2)cc1[N-]S(=O)(=O)c1ccc(C)cc1 (3D coordinates assigned)
COc1ccc(-c2c[nH+]c3ccccc3n2)cc1[N-]S(=O)(=O)c1ccc(C)cc1 (optimized conformer: 66.43275769468802 kcal/mol)

>  <smiles>  (11) 
COc1ccc(-c2cnc3ccccc3n2)cc1NS(=O)(=O)c1ccc(C)cc1

>  <score_type>  (11) 
oracle

>  <origin>  (11) 
adg

>  <m_score__min__energy>  (11) 
-10.81

>  <m_primary>  (11) 
energy

$$$$
11:0
     RDKit          3D

 47 49  0  0  1  0  0  0  0  0999 V2000
   -3.2610   23.8680  -30.0560 C   0  0  0  0  0  0  0  0  0  0  0  0
   -4.2240   24.5470  -30.8440 O   0  0  0  0  0  0  0  0  0  0  0  0
   -5.4620   23.9400  -31.0090 C   0  0  0  0  0  0  0  0  0  0  0  0
   -6.1530   23.9410  -32.2000 C   0  0  0  0  0  0  0  0  0  0  0  0
   -7.3750   23.3330  -32.3390 C   0  0  0  0  0  0  0  0  0  0  0  0
   -7.9160   22.6990  -31.2250 C   0  0  0  0  0  0  0  0  0  0  0  0
   -9.2530   22.0370  -31.3830 C   0  0  0  0  0  0  0  0  0  0  0  0
   -9.1100   21.0100  -32.4080 N   0  0  0  0  0  0  0  0  0  0  0  0
   -8.2550   20.0680  -32.3440 C   0  0  0  0  0  0  0  0  0  0  0  0
   -6.9280   20.3430  -32.4780 N   0  0  0  0  0  0  0  0  0  0  0  0
   -6.0010   19.3710  -32.4150 C   0  0  0  0  0  0  0  0  0  0  0  0
   -4.6300   19.7110  -32.5610 N   0  0  0  0  0  0  0  0  0  0  0  0
   -4.2380   21.0320  -32.0660 C   0  0  0  0  0  0  0  0  0  0  0  0
   -3.4040   21.7180  -33.1070 C   0  0  0  0  0  0  0  0  0  0  0  0
   -2.2010   20.8780  -33.4820 C   0  0  0  0  0  0  0  0  0  0  0  0
   -1.2690   20.6270  -32.3410 C   0  0  0  0  0  0  0  0  0  0  0  0
   -2.6930   19.6030  -34.0940 C   0  0  0  0  0  0  0  0  0  0  0  0
   -3.6250   18.8870  -33.1400 C   0  0  0  0  0  0  0  0  0  0  0  0
   -6.4570   18.0890  -32.2080 C   0  0  0  0  0  0  0  0  0  0  0  0
   -7.7990   17.7810  -32.0680 C   0  0  0  0  0  0  0  0  0  0  0  0
   -8.6730   18.8110  -32.1420 N   0  0  0  0  0  0  0  0  0  0  0  0
   -7.2410   22.6810  -30.0060 C   0  0  0  0  0  0  0  0  0  0  0  0
   -5.9950   23.3050  -29.8830 C   0  0  0  0  0  0  0  0  0  0  0  0
   -3.4831   24.0246  -28.9901 H   0  0  0  0  0  0  0  0  0  0  0  0
   -3.2939   22.7922  -30.2832 H   0  0  0  0  0  0  0  0  0  0  0  0
   -2.2588   24.2603  -30.2832 H   0  0  0  0  0  0  0  0  0  0  0  0
   -5.7098   24.4469  -33.0704 H   0  0  0  0  0  0  0  0  0  0  0  0
   -7.9098   23.3464  -33.3002 H   0  0  0  0  0  0  0  0  0  0  0  0
   -9.5610   21.5789  -30.4315 H   0  0  0  0  0  0  0  0  0  0  0  0
  -10.0194   22.7713  -31.6718 H   0  0  0  0  0  0  0  0  0  0  0  0
   -5.1378   21.6307  -31.8615 H   0  0  0  0  0  0  0  0  0  0  0  0
   -3.6572   20.9230  -31.1382 H   0  0  0  0  0  0  0  0  0  0  0  0
   -4.0174   21.8879  -34.0042 H   0  0  0  0  0  0  0  0  0  0  0  0
   -3.0481   22.6740  -32.6954 H   0  0  0  0  0  0  0  0  0  0  0  0
   -1.5975   21.4398  -34.2101 H   0  0  0  0  0  0  0  0  0  0  0  0
   -1.8049   20.7713  -31.3913 H   0  0  0  0  0  0  0  0  0  0  0  0
   -0.8916   19.5952  -32.3960 H   0  0  0  0  0  0  0  0  0  0  0  0
   -0.4245   21.3297  -32.3960 H   0  0  0  0  0  0  0  0  0  0  0  0
   -3.2325   19.8320  -35.0248 H   0  0  0  0  0  0  0  0  0  0  0  0
   -1.8315   18.9531  -34.3075 H   0  0  0  0  0  0  0  0  0  0  0  0
   -4.1227   18.0756  -33.6913 H   0  0  0  0  0  0  0  0  0  0  0  0
   -3.0017   18.5261  -32.3086 H   0  0  0  0  0  0  0  0  0  0  0  0
   -5.7219   17.2727  -32.1513 H   0  0  0  0  0  0  0  0  0  0  0  0
   -8.1389   16.7477  -31.9043 H   0  0  0  0  0  0  0  0  0  0  0  0
   -9.6970   18.6150  -32.0410 H   0  0  0  0  0  0  0  0  0  0  0  0
   -7.6891   22.1748  -29.1382 H   0  0  0  0  0  0  0  0  0  0  0  0
   -5.4500   23.2964  -28.9275 H   0  0  0  0  0  0  0  0  0  0  0  0
  1  2  1  0
  2  3  1  0
  3  4  2  0
  4  5  1  0
  5  6  2  0
  6  7  1  0
  7  8  1  0
  8  9  2  0
  9 10  1  0
 10 11  2  0
 11 12  1  0
 12 13  1  0
 13 14  1  0
 14 15  1  0
 15 16  1  0
 15 17  1  0
 17 18  1  0
 11 19  1  0
 19 20  2  0
 20 21  1  0
  6 22  1  0
 22 23  2  0
 23  3  1  0
 21  9  1  0
 18 12  1  0
  1 24  1  0
  1 25  1  0
  1 26  1  0
  4 27  1  0
  5 28  1  0
  7 29  1  0
  7 30  1  0
 13 31  1  0
 13 32  1  0
 14 33  1  0
 14 34  1  0
 15 35  1  0
 16 36  1  0
 16 37  1  0
 16 38  1  0
 17 39  1  0
 17 40  1  0
 18 41  1  0
 18 42  1  0
 19 43  1  0
 20 44  1  0
 21 45  1  0
 22 46  1  0
 23 47  1  0
M  END
>  <smiles>  (12) 
COc1ccc(CN=c2nc(N3CCC(C)CC3)cc[nH]2)cc1

>  <score_type>  (12) 
oracle

>  <origin>  (12) 
adg

>  <m_score__min__energy>  (12) 
-8.3100000000000005

>  <m_primary>  (12) 
energy

$$$$
12:0
     RDKit          3D

 42 44  0  0  0  0  0  0  0  0999 V2000
   -5.3350   24.9280  -31.2540 O   0  0  0  0  0  0  0  0  0  0  0  0
   -5.3780   23.7130  -30.9160 C   0  0  0  0  0  0  0  0  0  0  0  0
   -6.4930   22.9110  -31.2270 N   0  0  0  0  0  0  0  0  0  0  0  0
   -7.6260   23.4160  -31.9350 C   0  0  0  0  0  0  0  0  0  0  0  0
   -8.9060   22.6670  -31.6400 C   0  0  0  0  0  0  0  0  0  0  0  0
   -8.6570   21.2150  -31.8410 C   0  0  0  0  0  0  0  0  0  0  0  0
   -7.9430   20.3610  -31.0700 N   0  0  0  0  0  0  0  0  0  0  0  0
   -7.9790   19.1260  -31.6270 C   0  0  0  0  0  0  0  0  0  0  0  0
   -8.7230   19.2130  -32.7540 N   0  0  0  0  0  0  0  0  0  0  0  0
   -9.1120   20.4590  -32.8560 N   0  0  0  0  0  0  0  0  0  0  0  0
   -4.2080   23.2070  -30.1910 C   0  0  0  0  0  0  0  0  0  0  0  0
   -3.9250   23.5690  -28.8900 C   0  0  0  0  0  0  0  0  0  0  0  0
   -2.8220   23.0940  -28.2040 C   0  0  0  0  0  0  0  0  0  0  0  0
   -1.9630   22.2150  -28.8550 C   0  0  0  0  0  0  0  0  0  0  0  0
   -2.2270   21.8390  -30.1590 C   0  0  0  0  0  0  0  0  0  0  0  0
   -3.3340   22.3250  -30.8250 C   0  0  0  0  0  0  0  0  0  0  0  0
   -3.6300   21.8100  -32.5090 S   0  0  0  0  0  0  0  0  0  0  0  0
   -5.1110   20.8150  -32.6930 C   0  0  0  0  0  0  0  0  0  0  0  0
   -4.8260   19.5720  -33.4820 C   0  0  0  0  0  0  0  0  0  0  0  0
   -5.8070   18.9220  -34.2050 C   0  0  0  0  0  0  0  0  0  0  0  0
   -5.4650   17.7730  -34.9130 C   0  0  0  0  0  0  0  0  0  0  0  0
   -4.1440   17.3100  -34.8740 C   0  0  0  0  0  0  0  0  0  0  0  0
   -3.8370   16.1810  -35.5790 F   0  0  0  0  0  0  0  0  0  0  0  0
   -3.1720   17.9710  -34.1470 C   0  0  0  0  0  0  0  0  0  0  0  0
   -3.5120   19.1050  -33.4480 C   0  0  0  0  0  0  0  0  0  0  0  0
   -6.4430   21.9000  -30.9030 H   0  0  0  0  0  0  0  0  0  0  0  0
   -7.7681   24.4708  -31.6571 H   0  0  0  0  0  0  0  0  0  0  0  0
   -7.4185   23.2909  -33.0080 H   0  0  0  0  0  0  0  0  0  0  0  0
   -9.2127   22.8508  -30.5997 H   0  0  0  0  0  0  0  0  0  0  0  0
   -9.7076   23.0095  -32.3110 H   0  0  0  0  0  0  0  0  0  0  0  0
   -7.4932   18.2202  -31.2353 H   0  0  0  0  0  0  0  0  0  0  0  0
   -8.9580   18.4500  -33.4310 H   0  0  0  0  0  0  0  0  0  0  0  0
   -4.6052   24.2646  -28.3768 H   0  0  0  0  0  0  0  0  0  0  0  0
   -2.6284   23.4045  -27.1666 H   0  0  0  0  0  0  0  0  0  0  0  0
   -1.0776   21.8207  -28.3348 H   0  0  0  0  0  0  0  0  0  0  0  0
   -1.5463   21.1438  -30.6722 H   0  0  0  0  0  0  0  0  0  0  0  0
   -5.4809   20.5321  -31.6964 H   0  0  0  0  0  0  0  0  0  0  0  0
   -5.8673   21.4064  -33.2299 H   0  0  0  0  0  0  0  0  0  0  0  0
   -6.8382   19.3046  -34.2211 H   0  0  0  0  0  0  0  0  0  0  0  0
   -6.2252   17.2340  -35.4974 H   0  0  0  0  0  0  0  0  0  0  0  0
   -2.1387   17.5943  -34.1279 H   0  0  0  0  0  0  0  0  0  0  0  0
   -2.7504   19.6423  -32.8638 H   0  0  0  0  0  0  0  0  0  0  0  0
  1  2  2  0
  2  3  1  0
  3  4  1  0
  4  5  1  0
  5  6  1  0
  6  7  1  0
  7  8  2  0
  8  9  1  0
  9 10  1  0
  2 11  1  0
 11 12  2  0
 12 13  1  0
 13 14  2  0
 14 15  1  0
 15 16  2  0
 16 17  1  0
 17 18  1  0
 18 19  1  0
 19 20  2  0
 20 21  1  0
 21 22  2  0
 22 23  1  0
 22 24  1  0
 24 25  2  0
 10  6  2  0
 16 11  1  0
 25 19  1  0
  3 26  1  0
  4 27  1  0
  4 28  1  0
  5 29  1  0
  5 30  1  0
  8 31  1  0
  9 32  1  0
 12 33  1  0
 13 34  1  0
 14 35  1  0
 15 36  1  0
 18 37  1  0
 18 38  1  0
 20 39  1  0
 21 40  1  0
 24 41  1  0
 25 42  1  0
M  END
>  <smiles>  (13) 
O=C(NCCc1nc[nH]n1)c1ccccc1SCc1ccc(F)cc1

>  <score_type>  (13) 
oracle

>  <origin>  (13) 
adg

>  <m_score__min__energy>  (13) 
-8.4100000000000001

>  <m_primary>  (13) 
energy

$$$$
13:0
     RDKit          3D

 46 50  0  0  0  0  0  0  0  0999 V2000
   -3.1910   25.2650  -29.9820 O   0  0  0  0  0  0  0  0  0  0  0  0
   -4.4490   24.7950  -30.3440 C   0  0  0  0  0  0  0  0  0  0  0  0
   -5.6260   25.5350  -30.3470 C   0  0  0  0  0  0  0  0  0  0  0  0
   -6.6370   24.6610  -30.7250 C   0  0  0  0  0  0  0  0  0  0  0  0
   -6.0990   23.4500  -30.9470 N   0  0  0  0  0  0  0  0  0  0  0  0
   -6.7340   22.3300  -31.2770 N   0  0  0  0  0  0  0  0  0  0  0  0
   -6.0170   21.1760  -31.4170 C   0  0  0  0  0  0  0  0  0  0  0  0
   -6.6940   19.9080  -31.7770 C   0  0  0  0  0  0  0  0  0  0  0  0
   -8.0850   19.7670  -31.6320 C   0  0  0  0  0  0  0  0  0  0  0  0
   -8.7100   18.5670  -31.9760 C   0  0  0  0  0  0  0  0  0  0  0  0
   -7.9400   17.5110  -32.4650 C   0  0  0  0  0  0  0  0  0  0  0  0
   -6.5960   17.6550  -32.6030 N   0  0  0  0  0  0  0  0  0  0  0  0
   -5.9630   18.8130  -32.2740 C   0  0  0  0  0  0  0  0  0  0  0  0
   -4.6630   21.2050  -31.2180 N   0  0  0  0  0  0  0  0  0  0  0  0
   -4.0080   22.3550  -30.8860 C   0  0  0  0  0  0  0  0  0  0  0  0
   -2.5800   22.3410  -30.7070 N   0  0  0  0  0  0  0  0  0  0  0  0
   -2.0360   22.8520  -29.4710 C   0  0  0  0  0  0  0  0  0  0  0  0
   -0.8830   23.6580  -29.4850 C   0  0  0  0  0  0  0  0  0  0  0  0
   -0.3600   24.1640  -28.2910 C   0  0  0  0  0  0  0  0  0  0  0  0
   -0.9840   23.8760  -27.0740 C   0  0  0  0  0  0  0  0  0  0  0  0
   -2.1340   23.0820  -27.0510 C   0  0  0  0  0  0  0  0  0  0  0  0
   -2.6600   22.5730  -28.2410 C   0  0  0  0  0  0  0  0  0  0  0  0
   -1.7300   21.6720  -31.6670 C   0  0  0  0  0  0  0  0  0  0  0  0
   -0.4910   21.1300  -31.2760 C   0  0  0  0  0  0  0  0  0  0  0  0
    0.3200   20.4730  -32.2070 C   0  0  0  0  0  0  0  0  0  0  0  0
   -0.0980   20.3480  -33.5330 C   0  0  0  0  0  0  0  0  0  0  0  0
   -1.3250   20.8800  -33.9330 C   0  0  0  0  0  0  0  0  0  0  0  0
   -2.1390   21.5390  -33.0070 C   0  0  0  0  0  0  0  0  0  0  0  0
   -4.7780   23.5120  -30.7350 C   0  0  0  0  0  0  0  0  0  0  0  0
   -3.0920   26.0500  -29.3500 H   0  0  0  0  0  0  0  0  0  0  0  0
   -5.7349   26.6012  -30.0992 H   0  0  0  0  0  0  0  0  0  0  0  0
   -7.7019   24.9177  -30.8259 H   0  0  0  0  0  0  0  0  0  0  0  0
   -8.6834   20.6054  -31.2460 H   0  0  0  0  0  0  0  0  0  0  0  0
   -9.7984   18.4551  -31.8627 H   0  0  0  0  0  0  0  0  0  0  0  0
   -8.4217   16.5608  -32.7391 H   0  0  0  0  0  0  0  0  0  0  0  0
   -4.8729   18.8941  -32.3972 H   0  0  0  0  0  0  0  0  0  0  0  0
   -0.3903   23.8914  -30.4404 H   0  0  0  0  0  0  0  0  0  0  0  0
    0.5443   24.7900  -28.3096 H   0  0  0  0  0  0  0  0  0  0  0  0
   -0.5705   24.2737  -26.1355 H   0  0  0  0  0  0  0  0  0  0  0  0
   -2.6263   22.8572  -26.0933 H   0  0  0  0  0  0  0  0  0  0  0  0
   -3.5668   21.9508  -28.2163 H   0  0  0  0  0  0  0  0  0  0  0  0
   -0.1586   21.2238  -30.2316 H   0  0  0  0  0  0  0  0  0  0  0  0
    1.2879   20.0545  -31.8941 H   0  0  0  0  0  0  0  0  0  0  0  0
    0.5403   19.8296  -34.2636 H   0  0  0  0  0  0  0  0  0  0  0  0
   -1.6519   20.7805  -34.9786 H   0  0  0  0  0  0  0  0  0  0  0  0
   -3.1050   21.9561  -33.3277 H   0  0  0  0  0  0  0  0  0  0  0  0
  1  2  1  0
  2  3  1  0
  3  4  2  0
  4  5  1  0
  5  6  1  0
  6  7  2  0
  7  8  1  0
  8  9  2  0
  9 10  1  0
 10 11  2  0
 11 12  1  0
 12 13  2  0
  7 14  1  0
 14 15  2  0
 15 16  1  0
 16 17  1  0
 17 18  2  0
 18 19  1  0
 19 20  2  0
 20 21  1  0
 21 22  2  0
 16 23  1  0
 23 24  2  0
 24 25  1  0
 25 26  2  0
 26 27  1  0
 27 28  2  0
 15 29  1  0
 29  2  2  0
 29  5  1  0
 13  8  1  0
 22 17  1  0
 28 23  1  0
  1 30  1  0
  3 31  1  0
  4 32  1  0
  9 33  1  0
 10 34  1  0
 11 35  1  0
 13 36  1  0
 18 37  1  0
 19 38  1  0
 20 39  1  0
 21 40  1  0
 22 41  1  0
 24 42  1  0
 25 43  1  0
 26 44  1  0
 27 45  1  0
 28 46  1  0
M  END
>  <UniqueID>  (14) 
11

>  <SMILES>  (14) 
Oc1ccn2nc(-c3cccnc3)nc(N(c3ccccc3)c3ccccc3)c12

>  <Energy>  (14) 
102.63953586823742

>  <Genealogy>  (14) 
Oc1ccn2nc(-c3cccnc3)nc(N(c3ccccc3)c3ccccc3)c12 (3D coordinates assigned)
Oc1ccn2nc(-c3cccnc3)nc(N(c3ccccc3)c3ccccc3)c12 (optimized conformer: 102.63953586823742 kcal/mol)

>  <smiles>  (14) 
Oc1ccn2nc(-c3cccnc3)nc(N(c3ccccc3)c3ccccc3)c12

>  <score_type>  (14) 
oracle

>  <origin>  (14) 
adg

>  <m_score__min__energy>  (14) 
-9.2899999999999991

>  <m_primary>  (14) 
energy

$$$$
14:0
     RDKit          3D

 43 46  0  0  0  0  0  0  0  0999 V2000
   -2.5100   19.4460  -33.4770 C   0  0  0  0  0  0  0  0  0  0  0  0
   -3.2180   20.5380  -32.7320 C   0  0  0  0  0  0  0  0  0  0  0  0
   -3.4730   20.4060  -31.3580 C   0  0  0  0  0  0  0  0  0  0  0  0
   -4.1660   21.4080  -30.6710 C   0  0  0  0  0  0  0  0  0  0  0  0
   -4.6190   22.5480  -31.3500 C   0  0  0  0  0  0  0  0  0  0  0  0
   -5.3350   23.5730  -30.6440 N   0  0  0  0  0  0  0  0  0  0  0  0
   -6.6420   23.9090  -30.7490 C   0  0  0  0  0  0  0  0  0  0  0  0
   -7.6120   23.3030  -31.7240 C   0  0  0  0  0  0  0  0  0  0  0  0
   -8.0800   22.0360  -31.2590 O   0  0  0  0  0  0  0  0  0  0  0  0
   -7.7480   20.7950  -31.8260 C   0  0  0  0  0  0  0  0  0  0  0  0
   -8.2600   19.5650  -31.3260 C   0  0  0  0  0  0  0  0  0  0  0  0
   -7.9050   18.3430  -31.9240 C   0  0  0  0  0  0  0  0  0  0  0  0
   -7.0380   18.3770  -33.0170 C   0  0  0  0  0  0  0  0  0  0  0  0
   -6.5430   19.5580  -33.5000 C   0  0  0  0  0  0  0  0  0  0  0  0
   -5.7250   19.2610  -34.5710 C   0  0  0  0  0  0  0  0  0  0  0  0
   -5.7660   17.8750  -34.6900 C   0  0  0  0  0  0  0  0  0  0  0  0
   -6.5680   17.3420  -33.7390 N   0  0  0  0  0  0  0  0  0  0  0  0
   -6.8600   15.9250  -33.5450 C   0  0  0  0  0  0  0  0  0  0  0  0
   -6.8740   20.7850  -32.9310 C   0  0  0  0  0  0  0  0  0  0  0  0
   -6.9420   24.9720  -29.9710 N   0  0  0  0  0  0  0  0  0  0  0  0
   -5.8230   25.3020  -29.3450 N   0  0  0  0  0  0  0  0  0  0  0  0
   -4.8560   24.4660  -29.7570 C   0  0  0  0  0  0  0  0  0  0  0  0
   -3.3130   24.5180  -29.2050 S   0  0  0  0  0  0  0  0  0  0  0  0
   -4.3860   22.6680  -32.7280 C   0  0  0  0  0  0  0  0  0  0  0  0
   -3.6930   21.6680  -33.4160 C   0  0  0  0  0  0  0  0  0  0  0  0
   -2.0566   18.7467  -32.7591 H   0  0  0  0  0  0  0  0  0  0  0  0
   -3.2306   18.9065  -34.1092 H   0  0  0  0  0  0  0  0  0  0  0  0
   -1.7234   19.8838  -34.1092 H   0  0  0  0  0  0  0  0  0  0  0  0
   -3.1266   19.5114  -30.8197 H   0  0  0  0  0  0  0  0  0  0  0  0
   -4.3565   21.3012  -29.5929 H   0  0  0  0  0  0  0  0  0  0  0  0
   -8.4698   23.9806  -31.8464 H   0  0  0  0  0  0  0  0  0  0  0  0
   -7.0975   23.1557  -32.6850 H   0  0  0  0  0  0  0  0  0  0  0  0
   -8.9410   19.5703  -30.4622 H   0  0  0  0  0  0  0  0  0  0  0  0
   -8.2986   17.3895  -31.5420 H   0  0  0  0  0  0  0  0  0  0  0  0
   -5.1612   19.9684  -35.1968 H   0  0  0  0  0  0  0  0  0  0  0  0
   -5.2229   17.2943  -35.4502 H   0  0  0  0  0  0  0  0  0  0  0  0
   -6.9055   15.7041  -32.4684 H   0  0  0  0  0  0  0  0  0  0  0  0
   -7.8269   15.6828  -34.0102 H   0  0  0  0  0  0  0  0  0  0  0  0
   -6.0676   15.3203  -34.0102 H   0  0  0  0  0  0  0  0  0  0  0  0
   -6.4636   21.7226  -33.3340 H   0  0  0  0  0  0  0  0  0  0  0  0
   -5.7340   26.0860  -28.6610 H   0  0  0  0  0  0  0  0  0  0  0  0
   -4.7504   23.5533  -33.2697 H   0  0  0  0  0  0  0  0  0  0  0  0
   -3.5192   21.7669  -34.4977 H   0  0  0  0  0  0  0  0  0  0  0  0
  1  2  1  0
  2  3  2  0
  3  4  1  0
  4  5  2  0
  5  6  1  0
  6  7  1  0
  7  8  1  0
  8  9  1  0
  9 10  1  0
 10 11  2  0
 11 12  1  0
 12 13  2  0
 13 14  1  0
 14 15  1  0
 15 16  2  0
 16 17  1  0
 17 18  1  0
 14 19  2  0
  7 20  2  0
 20 21  1  0
 21 22  1  0
 22 23  2  0
  5 24  1  0
 24 25  2  0
 25  2  1  0
 22  6  1  0
 19 10  1  0
 17 13  1  0
  1 26  1  0
  1 27  1  0
  1 28  1  0
  3 29  1  0
  4 30  1  0
  8 31  1  0
  8 32  1  0
 11 33  1  0
 12 34  1  0
 15 35  1  0
 16 36  1  0
 18 37  1  0
 18 38  1  0
 18 39  1  0
 19 40  1  0
 21 41  1  0
 24 42  1  0
 25 43  1  0
M  END
>  <UniqueID>  (15) 
12

>  <SMILES>  (15) 
Cc1ccc(-n2c(COc3ccc4c(ccn4C)c3)n[nH]c2=S)cc1

>  <Energy>  (15) 
121.64059964733931

>  <Genealogy>  (15) 
Cc1ccc(-n2c(COc3ccc4c(ccn4C)c3)n[nH]c2=S)cc1 (3D coordinates assigned)
Cc1ccc(-n2c(COc3ccc4c(ccn4C)c3)n[nH]c2=S)cc1 (optimized conformer: 121.64059964733931 kcal/mol)

>  <smiles>  (15) 
Cc1ccc(-n2c(COc3ccc4c(ccn4C)c3)n[nH]c2=S)cc1

>  <score_type>  (15) 
oracle

>  <origin>  (15) 
adg

>  <m_score__min__energy>  (15) 
-8.6899999999999995

>  <m_primary>  (15) 
energy

$$$$
15:0
     RDKit          3D

 39 39  0  0  0  0  0  0  0  0999 V2000
   -2.7540   19.1190  -26.3510 C   0  0  0  0  0  0  0  0  0  0  0  0
   -2.1710   19.9360  -27.5030 C   0  0  0  0  0  0  0  0  0  0  0  0
   -2.2040   21.4430  -27.2160 C   0  0  0  0  0  0  0  0  0  0  0  0
   -3.4740   22.0430  -27.6280 N   0  0  0  0  0  0  0  0  0  0  0  0
   -3.5230   23.0990  -28.5960 C   0  0  0  0  0  0  0  0  0  0  0  0
   -2.4560   23.5240  -29.1170 O   0  0  0  0  0  0  0  0  0  0  0  0
   -4.7910   23.6660  -28.9630 N   0  0  0  0  0  0  0  0  0  0  0  0
   -4.9490   24.7420  -29.9030 C   0  0  0  0  0  0  0  0  0  0  0  0
   -3.9490   25.2450  -30.4820 O   0  0  0  0  0  0  0  0  0  0  0  0
   -6.3100   25.3080  -30.1790 C   0  0  0  0  0  0  0  0  0  0  0  0
   -7.1120   24.3530  -30.8690 O   0  0  0  0  0  0  0  0  0  0  0  0
   -7.1680   22.9960  -30.5230 C   0  0  0  0  0  0  0  0  0  0  0  0
   -7.5350   22.6600  -29.3660 O   0  0  0  0  0  0  0  0  0  0  0  0
   -6.7630   21.9710  -31.5190 C   0  0  0  0  0  0  0  0  0  0  0  0
   -5.3990   21.8620  -31.8520 C   0  0  0  0  0  0  0  0  0  0  0  0
   -4.9610   20.9110  -32.7790 C   0  0  0  0  0  0  0  0  0  0  0  0
   -3.2170   20.7830  -33.1800 S   0  0  0  0  0  0  0  0  0  0  0  0
   -2.6960   21.8320  -31.7860 C   0  0  0  0  0  0  0  0  0  0  0  0
   -5.8800   20.0520  -33.3830 C   0  0  0  0  0  0  0  0  0  0  0  0
   -7.2370   20.1510  -33.0730 C   0  0  0  0  0  0  0  0  0  0  0  0
   -7.6900   21.1020  -32.1500 C   0  0  0  0  0  0  0  0  0  0  0  0
   -9.4270   21.1860  -31.8710 Cl  0  0  0  0  0  0  0  0  0  0  0  0
   -2.4397   19.5594  -25.3933 H   0  0  0  0  0  0  0  0  0  0  0  0
   -3.8521   19.1264  -26.4152 H   0  0  0  0  0  0  0  0  0  0  0  0
   -2.3899   18.0830  -26.4152 H   0  0  0  0  0  0  0  0  0  0  0  0
   -1.1272   19.6282  -27.6636 H   0  0  0  0  0  0  0  0  0  0  0  0
   -2.7844   19.7477  -28.3965 H   0  0  0  0  0  0  0  0  0  0  0  0
   -2.0670   21.6038  -26.1365 H   0  0  0  0  0  0  0  0  0  0  0  0
   -1.3961   21.9201  -27.7902 H   0  0  0  0  0  0  0  0  0  0  0  0
   -4.3710   21.7190  -27.2010 H   0  0  0  0  0  0  0  0  0  0  0  0
   -5.6480   23.2760  -28.5100 H   0  0  0  0  0  0  0  0  0  0  0  0
   -6.7947   25.5685  -29.2265 H   0  0  0  0  0  0  0  0  0  0  0  0
   -6.2039   26.2058  -30.8056 H   0  0  0  0  0  0  0  0  0  0  0  0
   -4.6688   22.5335  -31.3768 H   0  0  0  0  0  0  0  0  0  0  0  0
   -2.9443   21.3321  -30.8381 H   0  0  0  0  0  0  0  0  0  0  0  0
   -1.6101   21.9993  -31.8388 H   0  0  0  0  0  0  0  0  0  0  0  0
   -3.2189   22.7983  -31.8388 H   0  0  0  0  0  0  0  0  0  0  0  0
   -5.5346   19.2964  -34.1039 H   0  0  0  0  0  0  0  0  0  0  0  0
   -7.9575   19.4759  -33.5580 H   0  0  0  0  0  0  0  0  0  0  0  0
  1  2  1  0
  2  3  1  0
  3  4  1  0
  4  5  1  0
  5  6  2  0
  5  7  1  0
  7  8  1  0
  8  9  2  0
  8 10  1  0
 10 11  1  0
 11 12  1  0
 12 13  2  0
 12 14  1  0
 14 15  2  0
 15 16  1  0
 16 17  1  0
 17 18  1  0
 16 19  2  0
 19 20  1  0
 20 21  2  0
 21 22  1  0
 21 14  1  0
  1 23  1  0
  1 24  1  0
  1 25  1  0
  2 26  1  0
  2 27  1  0
  3 28  1  0
  3 29  1  0
  4 30  1  0
  7 31  1  0
 10 32  1  0
 10 33  1  0
 15 34  1  0
 18 35  1  0
 18 36  1  0
 18 37  1  0
 19 38  1  0
 20 39  1  0
M  END
>  <UniqueID>  (16) 
13

>  <SMILES>  (16) 
CCCNC(=O)NC(=O)COC(=O)c1cc(SC)ccc1Cl

>  <Energy>  (16) 
26.995699459798235

>  <Genealogy>  (16) 
CCCNC(=O)NC(=O)COC(=O)c1cc(SC)ccc1Cl (3D coordinates assigned)
CCCNC(=O)NC(=O)COC(=O)c1cc(SC)ccc1Cl (optimized conformer: 26.995699459798235 kcal/mol)

>  <smiles>  (16) 
CCCNC(=O)NC(=O)COC(=O)c1cc(SC)ccc1Cl

>  <score_type>  (16) 
oracle

>  <origin>  (16) 
adg

>  <m_score__min__energy>  (16) 
-8.6099999999999994

>  <m_primary>  (16) 
energy

$$$$
16:0
     RDKit          3D

 26 27  0  0  0  0  0  0  0  0999 V2000
   -7.4930   21.9750  -30.7860 O   0  0  0  0  0  0  0  0  0  0  0  0
   -6.7530   21.7630  -31.7850 C   0  0  0  0  0  0  0  0  0  0  0  0
   -5.9900   22.8470  -32.3440 N   0  0  0  0  0  0  0  0  0  0  0  0
   -5.9500   24.1700  -31.7270 C   0  0  0  0  0  0  0  0  0  0  0  0
   -5.0320   24.1580  -30.5460 C   0  0  0  0  0  0  0  0  0  0  0  0
   -5.2890   23.5640  -29.3270 C   0  0  0  0  0  0  0  0  0  0  0  0
   -4.1800   23.8240  -28.5500 C   0  0  0  0  0  0  0  0  0  0  0  0
   -3.3200   24.5580  -29.3410 C   0  0  0  0  0  0  0  0  0  0  0  0
   -3.8570   24.7430  -30.5250 O   0  0  0  0  0  0  0  0  0  0  0  0
   -6.7020   20.4040  -32.3740 C   0  0  0  0  0  0  0  0  0  0  0  0
   -7.6060   19.4160  -31.9400 C   0  0  0  0  0  0  0  0  0  0  0  0
   -7.5660   18.1290  -32.4840 C   0  0  0  0  0  0  0  0  0  0  0  0
   -6.6190   17.8100  -33.4610 C   0  0  0  0  0  0  0  0  0  0  0  0
   -6.5640   16.0500  -34.2010 Br  0  0  0  0  0  0  0  0  0  0  0  0
   -5.7080   18.7790  -33.8910 C   0  0  0  0  0  0  0  0  0  0  0  0
   -5.7450   20.0670  -33.3500 C   0  0  0  0  0  0  0  0  0  0  0  0
   -5.4900   22.7200  -33.2510 H   0  0  0  0  0  0  0  0  0  0  0  0
   -5.5877   24.9037  -32.4622 H   0  0  0  0  0  0  0  0  0  0  0  0
   -6.9622   24.4430  -31.3939 H   0  0  0  0  0  0  0  0  0  0  0  0
   -6.1887   23.0018  -29.0366 H   0  0  0  0  0  0  0  0  0  0  0  0
   -4.0142   23.5096  -27.5090 H   0  0  0  0  0  0  0  0  0  0  0  0
   -2.3341   24.9315  -29.0273 H   0  0  0  0  0  0  0  0  0  0  0  0
   -8.3497   19.6587  -31.1667 H   0  0  0  0  0  0  0  0  0  0  0  0
   -8.2811   17.3661  -32.1425 H   0  0  0  0  0  0  0  0  0  0  0  0
   -4.9600   18.5271  -34.6572 H   0  0  0  0  0  0  0  0  0  0  0  0
   -5.0213   20.8228  -33.6891 H   0  0  0  0  0  0  0  0  0  0  0  0
  1  2  2  0
  2  3  1  0
  3  4  1  0
  4  5  1  0
  5  6  2  0
  6  7  1  0
  7  8  2  0
  8  9  1  0
  2 10  1  0
 10 11  2  0
 11 12  1  0
 12 13  2  0
 13 14  1  0
 13 15  1  0
 15 16  2  0
  9  5  1  0
 16 10  1  0
  3 17  1  0
  4 18  1  0
  4 19  1  0
  6 20  1  0
  7 21  1  0
  8 22  1  0
 11 23  1  0
 12 24  1  0
 15 25  1  0
 16 26  1  0
M  END
>  <UniqueID>  (17) 
14

>  <SMILES>  (17) 
O=C(NCc1ccco1)c1ccc(Br)cc1

>  <Energy>  (17) 
51.733236126624796

>  <Genealogy>  (17) 
O=C(NCc1ccco1)c1ccc(Br)cc1 (3D coordinates assigned)
O=C(NCc1ccco1)c1ccc(Br)cc1 (optimized conformer: 51.733236126624796 kcal/mol)

>  <smiles>  (17) 
O=C(NCc1ccco1)c1ccc(Br)cc1

>  <score_type>  (17) 
oracle

>  <origin>  (17) 
adg

>  <m_score__min__energy>  (17) 
-7.0499999999999998

>  <m_primary>  (17) 
energy

$$$$
17:0
     RDKit          3D

 30 32  0  0  0  0  0  0  0  0999 V2000
   -5.5960   25.9340  -29.5080 H   0  0  0  0  0  0  0  0  0  0  0  0
   -6.3930   25.3930  -29.8960 N   0  0  0  0  0  0  0  0  0  0  0  0
   -6.3700   24.2880  -30.5800 C   0  0  0  0  0  0  0  0  0  0  0  0
   -7.5670   23.7780  -30.9470 N   0  0  0  0  0  0  0  0  0  0  0  0
   -7.6810   22.5640  -31.5220 C   0  0  0  0  0  0  0  0  0  0  0  0
   -9.1810   22.0480  -31.9560 S   0  0  0  0  0  0  0  0  0  0  0  0
   -6.5660   21.7970  -31.7050 N   0  0  0  0  0  0  0  0  0  0  0  0
   -6.6650   20.4690  -32.2600 C   0  0  0  0  0  0  0  0  0  0  0  0
   -7.3950   19.4770  -31.5910 C   0  0  0  0  0  0  0  0  0  0  0  0
   -7.8995   19.7133  -30.6425 H   0  0  0  0  0  0  0  0  0  0  0  0
   -7.4840   18.1890  -32.1250 C   0  0  0  0  0  0  0  0  0  0  0  0
   -8.0591   17.4165  -31.5936 H   0  0  0  0  0  0  0  0  0  0  0  0
   -6.8470   17.8740  -33.3310 C   0  0  0  0  0  0  0  0  0  0  0  0
   -6.9660   16.5670  -33.8270 O   0  0  0  0  0  0  0  0  0  0  0  0
   -5.9120   15.6100  -33.8340 C   0  0  0  0  0  0  0  0  0  0  0  0
   -5.6368   15.3601  -32.7987 H   0  0  0  0  0  0  0  0  0  0  0  0
   -6.2462   14.7003  -34.3543 H   0  0  0  0  0  0  0  0  0  0  0  0
   -5.0387   16.0302  -34.3543 H   0  0  0  0  0  0  0  0  0  0  0  0
   -6.1110   18.8710  -34.0010 C   0  0  0  0  0  0  0  0  0  0  0  0
   -5.6051   18.6347  -34.9487 H   0  0  0  0  0  0  0  0  0  0  0  0
   -6.0210   20.1600  -33.4660 C   0  0  0  0  0  0  0  0  0  0  0  0
   -5.4432   20.9335  -33.9931 H   0  0  0  0  0  0  0  0  0  0  0  0
   -5.3370   22.3050  -31.3760 C   0  0  0  0  0  0  0  0  0  0  0  0
   -4.2310   21.5350  -31.5660 N   0  0  0  0  0  0  0  0  0  0  0  0
   -2.9980   22.0130  -31.3100 C   0  0  0  0  0  0  0  0  0  0  0  0
   -1.9890   21.2790  -31.4730 O   0  0  0  0  0  0  0  0  0  0  0  0
   -2.8490   23.2880  -30.9030 N   0  0  0  0  0  0  0  0  0  0  0  0
   -3.9270   24.0850  -30.7060 C   0  0  0  0  0  0  0  0  0  0  0  0
   -3.7120   25.2940  -30.4350 O   0  0  0  0  0  0  0  0  0  0  0  0
   -5.2080   23.5850  -30.8650 N   0  0  0  0  0  0  0  0  0  0  0  0
  1  2  1  0
  2  3  2  0
  3  4  1  0
  4  5  1  0
  5  6  2  0
  5  7  1  0
  7  8  1  0
  8  9  2  0
  9 10  1  0
  9 11  1  0
 11 12  1  0
 11 13  2  0
 13 14  1  0
 14 15  1  0
 15 16  1  0
 15 17  1  0
 15 18  1  0
 13 19  1  0
 19 20  1  0
 19 21  2  0
 21 22  1  0
  7 23  1  0
 23 24  2  0
 24 25  1  0
 25 26  2  0
 25 27  1  0
 27 28  1  0
 28 29  2  0
 28 30  1  0
 30  3  1  0
 21  8  1  0
 30 23  1  0
M  CHG  2   4  -1  27  -1
M  END
>  <UniqueID>  (18) 
15

>  <SMILES>  (18) 
[H]/N=c1/[n-]c(=S)n(-c2ccc(OC)cc2)c2nc(=O)[n-]c(=O)n12

>  <Energy>  (18) 
60.60325612891868

>  <Genealogy>  (18) 
COc1ccc(-n2c(=S)[n-]c(=N)n3c(=O)[n-]c(=O)nc23)cc1 (protonated)
[H]/N=c1/[n-]c(=S)n(-c2ccc(OC)cc2)c2nc(=O)[n-]c(=O)n12 (cis-trans isomerization)
[H]/N=c1/[n-]c(=S)n(-c2ccc(OC)cc2)c2nc(=O)[n-]c(=O)n12 (3D coordinates assigned)
[H]/N=c1/[n-]c(=S)n(-c2ccc(OC)cc2)c2nc(=O)[n-]c(=O)n12 (optimized conformer: 60.60325612891868 kcal/mol)

>  <smiles>  (18) 
COc1ccc(-n2c(=S)[nH]c(=N)n3c(=O)[nH]c(=O)nc23)cc1

>  <score_type>  (18) 
oracle

>  <origin>  (18) 
adg

>  <m_score__min__energy>  (18) 
-8.3000000000000007

>  <m_primary>  (18) 
energy

$$$$
18:0
     RDKit          3D

 45 48  0  0  1  0  0  0  0  0999 V2000
   -6.8720   23.8550  -33.0590 O   0  0  0  0  0  0  0  0  0  0  0  0
   -6.7870   23.1350  -31.9710 C   0  0  0  0  0  0  0  0  0  0  0  0
   -5.7800   23.5670  -31.0590 C   0  0  0  0  0  0  0  0  0  0  0  0
   -5.7990   24.5660  -30.1410 C   0  0  0  0  0  0  0  0  0  0  0  0
   -4.7470   24.8380  -29.3410 N   0  0  0  0  0  0  0  0  0  0  0  0
   -3.6170   24.1320  -29.4060 C   0  0  0  0  0  0  0  0  0  0  0  0
   -2.5550   24.4900  -28.5150 N   0  0  0  0  0  0  0  0  0  0  0  0
   -2.5300   24.4230  -27.0720 C   0  0  0  0  0  0  0  0  0  0  0  0
   -1.9740   25.8100  -26.7200 C   0  0  0  0  0  0  0  0  0  0  0  0
   -0.9420   25.9970  -27.7850 C   0  0  0  0  0  0  0  0  0  0  0  0
   -1.2240   25.0040  -28.8740 C   0  0  0  0  0  0  0  0  0  0  0  0
   -3.5430   23.1390  -30.2890 N   0  0  0  0  0  0  0  0  0  0  0  0
   -4.5600   22.8310  -31.1040 C   0  0  0  0  0  0  0  0  0  0  0  0
   -4.4230   21.8790  -31.9090 N   0  0  0  0  0  0  0  0  0  0  0  0
   -3.7020   21.7630  -33.1210 C   0  0  0  0  0  0  0  0  0  0  0  0
   -2.7160   20.6600  -33.2700 C   0  0  0  0  0  0  0  0  0  0  0  0
   -3.2380   19.6970  -34.1760 F   0  0  0  0  0  0  0  0  0  0  0  0
   -2.4120   19.9890  -32.1290 F   0  0  0  0  0  0  0  0  0  0  0  0
   -1.5990   21.1360  -33.9070 F   0  0  0  0  0  0  0  0  0  0  0  0
   -7.7200   22.0490  -31.9220 C   0  0  0  0  0  0  0  0  0  0  0  0
   -9.1010   22.3010  -31.7360 C   0  0  0  0  0  0  0  0  0  0  0  0
   -9.7750   21.1440  -31.7990 N   0  0  0  0  0  0  0  0  0  0  0  0
   -8.9280   20.1260  -32.0150 C   0  0  0  0  0  0  0  0  0  0  0  0
   -9.1280   18.8040  -32.1350 N   0  0  0  0  0  0  0  0  0  0  0  0
   -8.0860   17.9770  -32.3310 C   0  0  0  0  0  0  0  0  0  0  0  0
   -6.8190   18.5080  -32.4060 C   0  0  0  0  0  0  0  0  0  0  0  0
   -6.6120   19.8600  -32.2840 C   0  0  0  0  0  0  0  0  0  0  0  0
   -7.6550   20.7000  -32.0900 C   0  0  0  0  0  0  0  0  0  0  0  0
   -6.7078   25.1783  -30.0452 H   0  0  0  0  0  0  0  0  0  0  0  0
   -4.8560   25.6210  -28.6720 H   0  0  0  0  0  0  0  0  0  0  0  0
   -3.5382   24.2756  -26.6576 H   0  0  0  0  0  0  0  0  0  0  0  0
   -1.9427   23.5849  -26.6686 H   0  0  0  0  0  0  0  0  0  0  0  0
   -2.7551   26.5824  -26.7775 H   0  0  0  0  0  0  0  0  0  0  0  0
   -1.5805   25.8885  -25.6958 H   0  0  0  0  0  0  0  0  0  0  0  0
   -0.9992   27.0195  -28.1865 H   0  0  0  0  0  0  0  0  0  0  0  0
    0.0669   25.8423  -27.3748 H   0  0  0  0  0  0  0  0  0  0  0  0
   -1.2411   25.4921  -29.8596 H   0  0  0  0  0  0  0  0  0  0  0  0
   -0.4606   24.2157  -28.9509 H   0  0  0  0  0  0  0  0  0  0  0  0
   -4.4420   21.6450  -33.9263 H   0  0  0  0  0  0  0  0  0  0  0  0
   -3.0857   22.6737  -33.1497 H   0  0  0  0  0  0  0  0  0  0  0  0
   -9.5501   23.2907  -31.5665 H   0  0  0  0  0  0  0  0  0  0  0  0
  -10.8260   21.0530  -31.6910 H   0  0  0  0  0  0  0  0  0  0  0  0
   -8.2441   16.8929  -32.4298 H   0  0  0  0  0  0  0  0  0  0  0  0
   -5.9597   17.8401  -32.5659 H   0  0  0  0  0  0  0  0  0  0  0  0
   -5.5904   20.2633  -32.3444 H   0  0  0  0  0  0  0  0  0  0  0  0
  1  2  2  0
  2  3  1  0
  3  4  2  0
  4  5  1  0
  5  6  1  0
  6  7  1  0
  7  8  1  0
  8  9  1  0
  9 10  1  0
 10 11  1  0
  6 12  2  0
 12 13  1  0
 13 14  2  0
 14 15  1  0
 15 16  1  0
 16 17  1  0
 16 18  1  0
 16 19  1  0
  2 20  1  0
 20 21  2  0
 21 22  1  0
 22 23  1  0
 23 24  2  0
 24 25  1  0
 25 26  2  0
 26 27  1  0
 27 28  2  0
 13  3  1  0
 28 20  1  0
 11  7  1  0
 28 23  1  0
  4 29  1  0
  5 30  1  0
  8 31  1  0
  8 32  1  0
  9 33  1  0
  9 34  1  0
 10 35  1  0
 10 36  1  0
 11 37  1  0
 11 38  1  0
 15 39  1  0
 15 40  1  0
 21 41  1  0
 22 42  1  0
 25 43  1  0
 26 44  1  0
 27 45  1  0
M  END
>  <smiles>  (19) 
O=C(c1c[nH]c(N2CCCC2)nc1=NCC(F)(F)F)c1c[nH]c2ncccc12

>  <score_type>  (19) 
oracle

>  <origin>  (19) 
adg

>  <m_score__min__energy>  (19) 
-8.0299999999999994

>  <m_primary>  (19) 
energy

$$$$
19:0
     RDKit          3D

 41 43  0  0  0  0  0  0  0  0999 V2000
   -0.8890   26.5890  -24.4190 C   0  0  0  0  0  0  0  0  0  0  0  0
   -1.2610   26.1230  -25.7950 C   0  0  0  0  0  0  0  0  0  0  0  0
   -2.3780   25.2960  -25.9700 C   0  0  0  0  0  0  0  0  0  0  0  0
   -2.7550   24.8820  -27.2510 C   0  0  0  0  0  0  0  0  0  0  0  0
   -2.0010   25.2690  -28.3710 C   0  0  0  0  0  0  0  0  0  0  0  0
   -2.3980   24.9080  -29.6990 N   0  0  0  0  0  0  0  0  0  0  0  0
   -3.7420   24.7180  -30.1600 C   0  0  0  0  0  0  0  0  0  0  0  0
   -4.2850   25.6260  -30.8430 O   0  0  0  0  0  0  0  0  0  0  0  0
   -4.4570   23.4110  -29.9910 C   0  0  0  0  0  0  0  0  0  0  0  0
   -4.5310   22.5610  -31.5980 S   0  0  0  0  0  0  0  0  0  0  0  0
   -6.3010   22.8020  -31.7660 C   0  0  0  0  0  0  0  0  0  0  0  0
   -6.9170   23.9570  -31.4530 N   0  0  0  0  0  0  0  0  0  0  0  0
   -8.2180   23.7510  -31.5980 N   0  0  0  0  0  0  0  0  0  0  0  0
   -8.3770   22.4710  -31.9880 C   0  0  0  0  0  0  0  0  0  0  0  0
   -7.1900   21.8480  -32.1090 N   0  0  0  0  0  0  0  0  0  0  0  0
   -6.9640   20.4780  -32.4880 C   0  0  0  0  0  0  0  0  0  0  0  0
   -5.9980   20.1510  -33.4530 C   0  0  0  0  0  0  0  0  0  0  0  0
   -5.8200   18.8240  -33.8560 C   0  0  0  0  0  0  0  0  0  0  0  0
   -6.6060   17.8040  -33.3020 C   0  0  0  0  0  0  0  0  0  0  0  0
   -6.4590   16.3950  -33.7960 C   0  0  0  0  0  0  0  0  0  0  0  0
   -7.5780   18.1280  -32.3430 C   0  0  0  0  0  0  0  0  0  0  0  0
   -7.7520   19.4540  -31.9380 C   0  0  0  0  0  0  0  0  0  0  0  0
   -0.8990   26.1140  -28.1970 C   0  0  0  0  0  0  0  0  0  0  0  0
   -0.5280   26.5390  -26.9180 C   0  0  0  0  0  0  0  0  0  0  0  0
   -1.3917   25.9593  -23.6702 H   0  0  0  0  0  0  0  0  0  0  0  0
    0.2007   26.5145  -24.2887 H   0  0  0  0  0  0  0  0  0  0  0  0
   -1.2031   27.6351  -24.2887 H   0  0  0  0  0  0  0  0  0  0  0  0
   -2.9610   24.9709  -25.0957 H   0  0  0  0  0  0  0  0  0  0  0  0
   -3.6460   24.2504  -27.3823 H   0  0  0  0  0  0  0  0  0  0  0  0
   -3.9140   22.7849  -29.2677 H   0  0  0  0  0  0  0  0  0  0  0  0
   -5.4766   23.5916  -29.6199 H   0  0  0  0  0  0  0  0  0  0  0  0
   -9.3504   21.9969  -32.1822 H   0  0  0  0  0  0  0  0  0  0  0  0
   -5.3770   20.9441  -33.8950 H   0  0  0  0  0  0  0  0  0  0  0  0
   -5.0592   18.5791  -34.6118 H   0  0  0  0  0  0  0  0  0  0  0  0
   -6.3876   15.7110  -32.9375 H   0  0  0  0  0  0  0  0  0  0  0  0
   -7.3341   16.1273  -34.4064 H   0  0  0  0  0  0  0  0  0  0  0  0
   -5.5475   16.3137  -34.4064 H   0  0  0  0  0  0  0  0  0  0  0  0
   -8.2050   17.3354  -31.9086 H   0  0  0  0  0  0  0  0  0  0  0  0
   -8.5128   19.6978  -31.1818 H   0  0  0  0  0  0  0  0  0  0  0  0
   -0.3211   26.4458  -29.0722 H   0  0  0  0  0  0  0  0  0  0  0  0
    0.3409   27.2014  -26.7909 H   0  0  0  0  0  0  0  0  0  0  0  0
  1  2  1  0
  2  3  2  0
  3  4  1  0
  4  5  2  0
  5  6  1  0
  6  7  1  0
  7  8  2  0
  7  9  1  0
  9 10  1  0
 10 11  1  0
 11 12  2  0
 12 13  1  0
 13 14  2  0
 14 15  1  0
 15 16  1  0
 16 17  2  0
 17 18  1  0
 18 19  2  0
 19 20  1  0
 19 21  1  0
 21 22  2  0
  5 23  1  0
 23 24  2  0
 24  2  1  0
 15 11  1  0
 22 16  1  0
  1 25  1  0
  1 26  1  0
  1 27  1  0
  3 28  1  0
  4 29  1  0
  9 30  1  0
  9 31  1  0
 14 32  1  0
 17 33  1  0
 18 34  1  0
 20 35  1  0
 20 36  1  0
 20 37  1  0
 21 38  1  0
 22 39  1  0
 23 40  1  0
 24 41  1  0
M  CHG  1   6  -1
M  END
>  <UniqueID>  (20) 
16

>  <SMILES>  (20) 
Cc1ccc([N-]C(=O)CSc2nncn2-c2ccc(C)cc2)cc1

>  <Energy>  (20) 
76.53865954600985

>  <Genealogy>  (20) 
Cc1ccc([N-]C(=O)CSc2nncn2-c2ccc(C)cc2)cc1 (protonated)
Cc1ccc([N-]C(=O)CSc2nncn2-c2ccc(C)cc2)cc1 (3D coordinates assigned)
Cc1ccc([N-]C(=O)CSc2nncn2-c2ccc(C)cc2)cc1 (optimized conformer: 76.53865954600985 kcal/mol)

>  <smiles>  (20) 
Cc1ccc(NC(=O)CSc2nncn2-c2ccc(C)cc2)cc1

>  <score_type>  (20) 
oracle

>  <origin>  (20) 
adg

>  <m_score__min__energy>  (20) 
-10.91

>  <m_primary>  (20) 
energy

$$$$
20:0
     RDKit          3D

 48 50  0  0  0  0  0  0  0  0999 V2000
   -1.3450   20.3960  -33.1960 C   0  0  0  0  0  0  0  0  0  0  0  0
   -2.8210   20.4730  -33.3920 C   0  0  0  0  0  0  0  0  0  0  0  0
   -3.6110   21.5980  -33.2680 C   0  0  0  0  0  0  0  0  0  0  0  0
   -4.8770   21.1990  -33.4620 N   0  0  0  0  0  0  0  0  0  0  0  0
   -4.8510   19.8920  -33.6780 N   0  0  0  0  0  0  0  0  0  0  0  0
   -6.0290   19.0820  -33.9700 C   0  0  0  0  0  0  0  0  0  0  0  0
   -6.8350   18.8020  -32.6930 C   0  0  0  0  0  0  0  0  0  0  0  0
   -6.8200   19.9750  -31.7020 C   0  0  0  0  0  0  0  0  0  0  0  0
   -7.5670   21.1330  -32.2290 N   0  0  0  0  0  0  0  0  0  0  0  0
   -8.9840   21.1280  -31.8610 C   0  0  0  0  0  0  0  0  0  0  0  0
   -9.4740   22.5690  -31.9740 C   0  0  0  0  0  0  0  0  0  0  0  0
   -8.2330   23.3930  -32.2930 C   0  0  0  0  0  0  0  0  0  0  0  0
   -7.0610   22.4860  -31.9250 C   0  0  1  0  0  0  0  0  0  0  0  0
   -6.6630   22.7120  -30.4320 C   0  0  0  0  0  0  0  0  0  0  0  0
   -5.2910   23.2080  -30.2950 N   0  0  0  0  0  0  0  0  0  0  0  0
   -4.2240   22.4280  -30.2650 N   0  0  0  0  0  0  0  0  0  0  0  0
   -3.1640   23.2590  -30.2700 C   0  0  0  0  0  0  0  0  0  0  0  0
   -1.7500   22.7870  -30.2840 C   0  0  0  0  0  0  0  0  0  0  0  0
   -3.5170   24.5590  -30.3630 N   0  0  0  0  0  0  0  0  0  0  0  0
   -4.8630   24.4850  -30.3790 C   0  0  0  0  0  0  0  0  0  0  0  0
   -5.7460   25.6800  -30.5550 C   0  0  0  0  0  0  0  0  0  0  0  0
   -3.6150   19.4120  -33.6400 N   0  0  0  0  0  0  0  0  0  0  0  0
   -1.1182   20.3842  -32.1197 H   0  0  0  0  0  0  0  0  0  0  0  0
   -0.9607   19.4766  -33.6618 H   0  0  0  0  0  0  0  0  0  0  0  0
   -0.8671   21.2704  -33.6618 H   0  0  0  0  0  0  0  0  0  0  0  0
   -3.2695   22.6212  -33.0524 H   0  0  0  0  0  0  0  0  0  0  0  0
   -5.7350   21.7950  -33.4480 H   0  0  0  0  0  0  0  0  0  0  0  0
   -6.6666   19.6198  -34.6871 H   0  0  0  0  0  0  0  0  0  0  0  0
   -5.6980   18.1220  -34.3930 H   0  0  0  0  0  0  0  0  0  0  0  0
   -7.8779   18.5956  -32.9754 H   0  0  0  0  0  0  0  0  0  0  0  0
   -6.3665   17.9426  -32.1912 H   0  0  0  0  0  0  0  0  0  0  0  0
   -7.2809   19.6514  -30.7571 H   0  0  0  0  0  0  0  0  0  0  0  0
   -5.7754   20.2801  -31.5417 H   0  0  0  0  0  0  0  0  0  0  0  0
   -9.5509   20.4804  -32.5461 H   0  0  0  0  0  0  0  0  0  0  0  0
   -9.1255   20.7419  -30.8408 H   0  0  0  0  0  0  0  0  0  0  0  0
  -10.2156   22.6614  -32.7812 H   0  0  0  0  0  0  0  0  0  0  0  0
   -9.9647   22.9085  -31.0499 H   0  0  0  0  0  0  0  0  0  0  0  0
   -8.2030   23.6514  -33.3618 H   0  0  0  0  0  0  0  0  0  0  0  0
   -8.2121   24.3447  -31.7418 H   0  0  0  0  0  0  0  0  0  0  0  0
   -6.1305   22.6795  -32.4788 H   0  0  0  0  0  0  0  0  0  0  0  0
   -7.3514   23.4467  -29.9890 H   0  0  0  0  0  0  0  0  0  0  0  0
   -6.7255   21.7431  -29.9150 H   0  0  0  0  0  0  0  0  0  0  0  0
   -1.3930   22.6678  -29.2504 H   0  0  0  0  0  0  0  0  0  0  0  0
   -1.6912   21.8205  -30.8060 H   0  0  0  0  0  0  0  0  0  0  0  0
   -1.1225   23.5244  -30.8060 H   0  0  0  0  0  0  0  0  0  0  0  0
   -6.0349   26.0710  -29.5682 H   0  0  0  0  0  0  0  0  0  0  0  0
   -5.2038   26.4575  -31.1131 H   0  0  0  0  0  0  0  0  0  0  0  0
   -6.6485   25.3900  -31.1131 H   0  0  0  0  0  0  0  0  0  0  0  0
  1  2  1  0
  2  3  1  0
  3  4  2  0
  4  5  1  0
  5  6  1  0
  6  7  1  0
  7  8  1  0
  8  9  1  0
  9 10  1  0
 10 11  1  0
 11 12  1  0
 12 13  1  0
 13 14  1  0
 14 15  1  0
 15 16  1  0
 16 17  2  0
 17 18  1  0
 17 19  1  0
 19 20  2  0
 20 21  1  0
  5 22  1  0
 22  2  2  0
 13  9  1  0
 20 15  1  0
  1 23  1  0
  1 24  1  0
  1 25  1  0
  3 26  1  0
  4 27  1  0
  6 28  1  0
  6 29  1  0
  7 30  1  0
  7 31  1  0
  8 32  1  0
  8 33  1  0
 10 34  1  0
 10 35  1  0
 11 36  1  0
 11 37  1  0
 12 38  1  0
 12 39  1  0
 13 40  1  6
 14 41  1  0
 14 42  1  0
 18 43  1  0
 18 44  1  0
 18 45  1  0
 21 46  1  0
 21 47  1  0
 21 48  1  0
M  CHG  1   4   1
M  END
>  <UniqueID>  (21) 
17

>  <SMILES>  (21) 
Cc1c[nH+]n(CCCN2CCC[C@H]2Cn2nc(C)nc2C)n1

>  <Energy>  (21) 
114.40859151402186

>  <Genealogy>  (21) 
Cc1c[nH+]n(CCCN2CCCC2Cn2nc(C)nc2C)n1 (protonated)
Cc1c[nH+]n(CCCN2CCC[C@H]2Cn2nc(C)nc2C)n1 (chirality)
Cc1c[nH+]n(CCCN2CCC[C@H]2Cn2nc(C)nc2C)n1 (3D coordinates assigned)
Cc1c[nH+]n(CCCN2CCC[C@H]2Cn2nc(C)nc2C)n1 (nonaromatic ring conformer: 114.40859151402186 kcal/mol)

>  <smiles>  (21) 
Cc1cnn(CCCN2CCCC2Cn2nc(C)nc2C)n1

>  <score_type>  (21) 
oracle

>  <origin>  (21) 
adg

>  <m_score__min__energy>  (21) 
-7.6900000000000004

>  <m_primary>  (21) 
energy

$$$$
21:0
     RDKit          3D

 52 54  0  0  0  0  0  0  0  0999 V2000
    2.2340   24.4870  -24.3900 C   0  0  0  0  0  0  0  0  0  0  0  0
    1.2140   23.9090  -25.2000 O   0  0  0  0  0  0  0  0  0  0  0  0
   -0.0340   24.5020  -25.4420 C   0  0  0  0  0  0  0  0  0  0  0  0
   -0.4980   25.6130  -24.7140 C   0  0  0  0  0  0  0  0  0  0  0  0
   -1.7510   26.1630  -24.9920 C   0  0  0  0  0  0  0  0  0  0  0  0
   -2.5520   25.6160  -25.9970 C   0  0  0  0  0  0  0  0  0  0  0  0
   -2.1000   24.5150  -26.7390 C   0  0  0  0  0  0  0  0  0  0  0  0
   -2.9550   23.9200  -27.8260 C   0  0  0  0  0  0  0  0  0  0  0  0
   -3.2110   24.9010  -28.8780 N   0  0  0  0  0  0  0  0  0  0  0  0
   -3.8280   24.6260  -30.1430 C   0  0  0  0  0  0  0  0  0  0  0  0
   -3.1470   24.0540  -31.0340 O   0  0  0  0  0  0  0  0  0  0  0  0
   -5.2370   25.0540  -30.4540 C   0  0  0  0  0  0  0  0  0  0  0  0
   -5.6910   24.4740  -31.6760 O   0  0  0  0  0  0  0  0  0  0  0  0
   -6.2960   23.2110  -31.7940 C   0  0  0  0  0  0  0  0  0  0  0  0
   -5.5520   22.0260  -31.9560 C   0  0  0  0  0  0  0  0  0  0  0  0
   -6.2050   20.7940  -32.0710 C   0  0  0  0  0  0  0  0  0  0  0  0
   -7.6030   20.7280  -32.0220 C   0  0  0  0  0  0  0  0  0  0  0  0
   -8.4240   19.1720  -32.1670 S   0  0  0  0  0  0  0  0  0  0  0  0
   -8.9830   18.7810  -30.8260 O   0  0  0  0  0  0  0  0  0  0  0  0
   -9.5720   19.3080  -33.1270 O   0  0  0  0  0  0  0  0  0  0  0  0
   -7.3470   17.9180  -32.7310 N   0  0  0  0  0  0  0  0  0  0  0  0
   -6.5450   18.3970  -33.8650 C   0  0  0  0  0  0  0  0  0  0  0  0
   -5.6150   17.2710  -34.3650 C   0  0  0  0  0  0  0  0  0  0  0  0
   -5.6390   16.1380  -33.5150 O   0  0  0  0  0  0  0  0  0  0  0  0
   -5.3650   16.5290  -32.1840 C   0  0  0  0  0  0  0  0  0  0  0  0
   -6.4670   17.4640  -31.6410 C   0  0  0  0  0  0  0  0  0  0  0  0
   -8.3450   21.9060  -31.8590 C   0  0  0  0  0  0  0  0  0  0  0  0
   -7.6930   23.1370  -31.7440 C   0  0  0  0  0  0  0  0  0  0  0  0
   -0.8420   23.9580  -26.4500 C   0  0  0  0  0  0  0  0  0  0  0  0
    1.9836   24.3451  -23.3283 H   0  0  0  0  0  0  0  0  0  0  0  0
    3.1957   23.9996  -24.6082 H   0  0  0  0  0  0  0  0  0  0  0  0
    2.3101   25.5625  -24.6082 H   0  0  0  0  0  0  0  0  0  0  0  0
    0.1288   26.0501  -23.9227 H   0  0  0  0  0  0  0  0  0  0  0  0
   -2.1085   27.0302  -24.4174 H   0  0  0  0  0  0  0  0  0  0  0  0
   -3.5406   26.0501  -26.2072 H   0  0  0  0  0  0  0  0  0  0  0  0
   -2.4356   23.0528  -28.2598 H   0  0  0  0  0  0  0  0  0  0  0  0
   -3.9163   23.6107  -27.3899 H   0  0  0  0  0  0  0  0  0  0  0  0
   -5.8989   24.7332  -29.6361 H   0  0  0  0  0  0  0  0  0  0  0  0
   -5.2551   26.1489  -30.5584 H   0  0  0  0  0  0  0  0  0  0  0  0
   -4.4535   22.0694  -31.9922 H   0  0  0  0  0  0  0  0  0  0  0  0
   -5.6176   19.8730  -32.2005 H   0  0  0  0  0  0  0  0  0  0  0  0
   -7.2151   18.7055  -34.6809 H   0  0  0  0  0  0  0  0  0  0  0  0
   -5.9348   19.2528  -33.5406 H   0  0  0  0  0  0  0  0  0  0  0  0
   -5.9382   16.9656  -35.3711 H   0  0  0  0  0  0  0  0  0  0  0  0
   -4.5871   17.6627  -34.3755 H   0  0  0  0  0  0  0  0  0  0  0  0
   -5.3107   15.6317  -31.5500 H   0  0  0  0  0  0  0  0  0  0  0  0
   -4.4082   17.0715  -32.1693 H   0  0  0  0  0  0  0  0  0  0  0  0
   -7.0663   16.9211  -30.8953 H   0  0  0  0  0  0  0  0  0  0  0  0
   -5.9909   18.3426  -31.1812 H   0  0  0  0  0  0  0  0  0  0  0  0
   -9.4435   21.8615  -31.8215 H   0  0  0  0  0  0  0  0  0  0  0  0
   -8.2831   24.0561  -31.6130 H   0  0  0  0  0  0  0  0  0  0  0  0
   -0.4882   23.0866  -27.0206 H   0  0  0  0  0  0  0  0  0  0  0  0
  1  2  1  0
  2  3  1  0
  3  4  2  0
  4  5  1  0
  5  6  2  0
  6  7  1  0
  7  8  1  0
  8  9  1  0
  9 10  1  0
 10 11  2  0
 10 12  1  0
 12 13  1  0
 13 14  1  0
 14 15  2  0
 15 16  1  0
 16 17  2  0
 17 18  1  0
 18 19  2  0
 18 20  2  0
 18 21  1  0
 21 22  1  0
 22 23  1  0
 23 24  1  0
 24 25  1  0
 25 26  1  0
 17 27  1  0
 27 28  2  0
  7 29  2  0
 29  3  1  0
 28 14  1  0
 26 21  1  0
  1 30  1  0
  1 31  1  0
  1 32  1  0
  4 33  1  0
  5 34  1  0
  6 35  1  0
  8 36  1  0
  8 37  1  0
 12 38  1  0
 12 39  1  0
 15 40  1  0
 16 41  1  0
 22 42  1  0
 22 43  1  0
 23 44  1  0
 23 45  1  0
 25 46  1  0
 25 47  1  0
 26 48  1  0
 26 49  1  0
 27 50  1  0
 28 51  1  0
 29 52  1  0
M  CHG  1   9  -1
M  END
>  <UniqueID>  (22) 
18

>  <SMILES>  (22) 
COc1cccc(C[N-]C(=O)COc2ccc(S(=O)(=O)N3CCOCC3)cc2)c1

>  <Energy>  (22) 
57.085352371706385

>  <Genealogy>  (22) 
COc1cccc(C[N-]C(=O)COc2ccc(S(=O)(=O)N3CCOCC3)cc2)c1 (protonated)
COc1cccc(C[N-]C(=O)COc2ccc(S(=O)(=O)N3CCOCC3)cc2)c1 (3D coordinates assigned)
COc1cccc(C[N-]C(=O)COc2ccc(S(=O)(=O)N3CCOCC3)cc2)c1 (nonaromatic ring conformer: 57.085352371706385 kcal/mol)

>  <smiles>  (22) 
COc1cccc(CNC(=O)COc2ccc(S(=O)(=O)N3CCOCC3)cc2)c1

>  <score_type>  (22) 
oracle

>  <origin>  (22) 
adg

>  <m_score__min__energy>  (22) 
-9.4600000000000009

>  <m_primary>  (22) 
energy

$$$$
22:0
     RDKit          3D

 41 42  0  0  0  0  0  0  0  0999 V2000
    2.0500   26.3540  -23.7360 C   0  0  0  0  0  0  0  0  0  0  0  0
    1.1380   27.2560  -23.0120 N   0  0  0  0  0  0  0  0  0  0  0  0
    1.3560   28.6460  -23.4570 C   0  0  0  0  0  0  0  0  0  0  0  0
   -0.2680   26.8340  -23.2260 C   0  0  0  0  0  0  0  0  0  0  0  0
   -0.4950   26.3200  -24.6300 C   0  0  0  0  0  0  0  0  0  0  0  0
   -0.6870   27.2150  -25.6930 C   0  0  0  0  0  0  0  0  0  0  0  0
   -0.9230   26.7360  -26.9860 C   0  0  0  0  0  0  0  0  0  0  0  0
   -0.9740   25.3540  -27.2380 C   0  0  0  0  0  0  0  0  0  0  0  0
   -1.2190   24.8470  -28.6090 C   0  0  0  0  0  0  0  0  0  0  0  0
   -0.3950   24.0570  -29.1440 O   0  0  0  0  0  0  0  0  0  0  0  0
   -2.3670   25.2920  -29.3440 N   0  0  0  0  0  0  0  0  0  0  0  0
   -3.4410   24.4740  -29.8300 C   0  0  0  0  0  0  0  0  0  0  0  0
   -4.7810   24.8960  -29.7750 C   0  0  0  0  0  0  0  0  0  0  0  0
   -5.7940   24.0850  -30.2920 C   0  0  0  0  0  0  0  0  0  0  0  0
   -5.4790   22.8570  -30.8780 C   0  0  0  0  0  0  0  0  0  0  0  0
   -4.1500   22.4290  -30.9620 C   0  0  0  0  0  0  0  0  0  0  0  0
   -3.8910   21.1900  -31.5710 O   0  0  0  0  0  0  0  0  0  0  0  0
   -3.9510   20.9320  -32.9730 C   0  0  0  0  0  0  0  0  0  0  0  0
   -5.2670   20.9040  -33.3970 F   0  0  0  0  0  0  0  0  0  0  0  0
   -3.3750   19.7020  -33.2260 F   0  0  0  0  0  0  0  0  0  0  0  0
   -3.2510   21.9030  -33.6670 F   0  0  0  0  0  0  0  0  0  0  0  0
   -3.1300   23.2500  -30.4400 C   0  0  0  0  0  0  0  0  0  0  0  0
   -0.7820   24.4610  -26.1690 C   0  0  0  0  0  0  0  0  0  0  0  0
   -0.5480   24.9410  -24.8760 C   0  0  0  0  0  0  0  0  0  0  0  0
    2.6395   25.7710  -23.0131 H   0  0  0  0  0  0  0  0  0  0  0  0
    1.4642   25.6701  -24.3678 H   0  0  0  0  0  0  0  0  0  0  0  0
    2.7274   26.9473  -24.3678 H   0  0  0  0  0  0  0  0  0  0  0  0
    1.3690   27.1900  -21.9910 H   0  0  0  0  0  0  0  0  0  0  0  0
    1.4586   29.3003  -22.5788 H   0  0  0  0  0  0  0  0  0  0  0  0
    2.2732   28.6977  -24.0620 H   0  0  0  0  0  0  0  0  0  0  0  0
    0.4986   28.9761  -24.0620 H   0  0  0  0  0  0  0  0  0  0  0  0
   -0.5122   26.0347  -22.5108 H   0  0  0  0  0  0  0  0  0  0  0  0
   -0.9140   27.7116  -23.0756 H   0  0  0  0  0  0  0  0  0  0  0  0
   -0.6518   28.2989  -25.5089 H   0  0  0  0  0  0  0  0  0  0  0  0
   -1.0699   27.4468  -27.8125 H   0  0  0  0  0  0  0  0  0  0  0  0
   -5.0323   25.8672  -29.3237 H   0  0  0  0  0  0  0  0  0  0  0  0
   -6.8421   24.4143  -30.2375 H   0  0  0  0  0  0  0  0  0  0  0  0
   -6.2829   22.2210  -31.2769 H   0  0  0  0  0  0  0  0  0  0  0  0
   -2.0807   22.9278  -30.5117 H   0  0  0  0  0  0  0  0  0  0  0  0
   -0.8161   23.3767  -26.3508 H   0  0  0  0  0  0  0  0  0  0  0  0
   -0.4047   24.2320  -24.0473 H   0  0  0  0  0  0  0  0  0  0  0  0
  1  2  1  0
  2  3  1  0
  2  4  1  0
  4  5  1  0
  5  6  2  0
  6  7  1  0
  7  8  2  0
  8  9  1  0
  9 10  2  0
  9 11  1  0
 11 12  1  0
 12 13  2  0
 13 14  1  0
 14 15  2  0
 15 16  1  0
 16 17  1  0
 17 18  1  0
 18 19  1  0
 18 20  1  0
 18 21  1  0
 16 22  2  0
  8 23  1  0
 23 24  2  0
 24  5  1  0
 22 12  1  0
  1 25  1  0
  1 26  1  0
  1 27  1  0
  2 28  1  0
  3 29  1  0
  3 30  1  0
  3 31  1  0
  4 32  1  0
  4 33  1  0
  6 34  1  0
  7 35  1  0
 13 36  1  0
 14 37  1  0
 15 38  1  0
 22 39  1  0
 23 40  1  0
 24 41  1  0
M  CHG  2   2   1  11  -1
M  END
>  <UniqueID>  (23) 
19

>  <SMILES>  (23) 
C[NH+](C)Cc1ccc(C(=O)[N-]c2cccc(OC(F)(F)F)c2)cc1

>  <Energy>  (23) 
45.82487941498142

>  <Genealogy>  (23) 
C[NH+](C)Cc1ccc(C(=O)[N-]c2cccc(OC(F)(F)F)c2)cc1 (protonated)
C[NH+](C)Cc1ccc(C(=O)[N-]c2cccc(OC(F)(F)F)c2)cc1 (3D coordinates assigned)
C[NH+](C)Cc1ccc(C(=O)[N-]c2cccc(OC(F)(F)F)c2)cc1 (optimized conformer: 45.82487941498142 kcal/mol)

>  <smiles>  (23) 
CN(C)Cc1ccc(C(=O)Nc2cccc(OC(F)(F)F)c2)cc1

>  <score_type>  (23) 
oracle

>  <origin>  (23) 
adg

>  <m_score__min__energy>  (23) 
-8.6199999999999992

>  <m_primary>  (23) 
energy

$$$$
23:0
     RDKit          3D

 30 30  0  0  0  0  0  0  0  0999 V2000
   -5.3650   25.1250  -28.3240 N   0  0  0  0  0  0  0  0  0  0  0  0
   -6.2120   25.6480  -29.3980 C   0  0  0  0  0  0  0  0  0  0  0  0
   -5.4900   25.6610  -30.7620 C   0  0  0  0  0  0  0  0  0  0  0  0
   -4.2110   24.9330  -30.7680 N   0  0  0  0  0  0  0  0  0  0  0  0
   -4.3840   23.4780  -30.8580 C   0  0  0  0  0  0  0  0  0  0  0  0
   -5.2380   23.1180  -32.0760 C   0  0  0  0  0  0  0  0  0  0  0  0
   -7.0280   23.2230  -31.7060 S   0  0  0  0  0  0  0  0  0  0  0  0
   -7.3900   21.4960  -32.0390 C   0  0  0  0  0  0  0  0  0  0  0  0
   -6.5140   20.7320  -32.8210 C   0  0  0  0  0  0  0  0  0  0  0  0
   -6.7940   19.3850  -33.0720 C   0  0  0  0  0  0  0  0  0  0  0  0
   -7.9400   18.7950  -32.5310 C   0  0  0  0  0  0  0  0  0  0  0  0
   -8.8060   19.5510  -31.7360 C   0  0  0  0  0  0  0  0  0  0  0  0
   -8.5300   20.8990  -31.4850 C   0  0  0  0  0  0  0  0  0  0  0  0
   -4.3760   25.0340  -28.6500 H   0  0  0  0  0  0  0  0  0  0  0  0
   -5.7160   24.1810  -28.0460 H   0  0  0  0  0  0  0  0  0  0  0  0
   -5.4130   25.7500  -27.4880 H   0  0  0  0  0  0  0  0  0  0  0  0
   -7.1095   25.0173  -29.4792 H   0  0  0  0  0  0  0  0  0  0  0  0
   -6.4714   26.6867  -29.1455 H   0  0  0  0  0  0  0  0  0  0  0  0
   -6.1535   25.2012  -31.5092 H   0  0  0  0  0  0  0  0  0  0  0  0
   -5.2596   26.7120  -30.9907 H   0  0  0  0  0  0  0  0  0  0  0  0
   -3.6070   25.2680  -31.5530 H   0  0  0  0  0  0  0  0  0  0  0  0
   -3.3975   23.0006  -30.9528 H   0  0  0  0  0  0  0  0  0  0  0  0
   -4.8899   23.1213  -29.9487 H   0  0  0  0  0  0  0  0  0  0  0  0
   -5.0021   23.8140  -32.8945 H   0  0  0  0  0  0  0  0  0  0  0  0
   -5.0078   22.0807  -32.3605 H   0  0  0  0  0  0  0  0  0  0  0  0
   -5.6057   21.1917  -33.2377 H   0  0  0  0  0  0  0  0  0  0  0  0
   -6.1116   18.7891  -33.6959 H   0  0  0  0  0  0  0  0  0  0  0  0
   -8.1602   17.7360  -32.7309 H   0  0  0  0  0  0  0  0  0  0  0  0
   -9.7056   19.0853  -31.3072 H   0  0  0  0  0  0  0  0  0  0  0  0
   -9.2082   21.4906  -30.8525 H   0  0  0  0  0  0  0  0  0  0  0  0
  1  2  1  0
  2  3  1  0
  3  4  1  0
  4  5  1  0
  5  6  1  0
  6  7  1  0
  7  8  1  0
  8  9  2  0
  9 10  1  0
 10 11  2  0
 11 12  1  0
 12 13  2  0
 13  8  1  0
  1 14  1  0
  1 15  1  0
  1 16  1  0
  2 17  1  0
  2 18  1  0
  3 19  1  0
  3 20  1  0
  4 21  1  0
  5 22  1  0
  5 23  1  0
  6 24  1  0
  6 25  1  0
  9 26  1  0
 10 27  1  0
 11 28  1  0
 12 29  1  0
 13 30  1  0
M  CHG  1   1   1
M  END
>  <UniqueID>  (24) 
20

>  <SMILES>  (24) 
[NH3+]CCNCCSc1ccccc1

>  <Energy>  (24) 
21.006031561108962

>  <Genealogy>  (24) 
[NH3+]CCNCCSc1ccccc1 (protonated)
[NH3+]CCNCCSc1ccccc1 (3D coordinates assigned)
[NH3+]CCNCCSc1ccccc1 (optimized conformer: 21.006031561108962 kcal/mol)

>  <smiles>  (24) 
NCCNCCSc1ccccc1

>  <score_type>  (24) 
oracle

>  <origin>  (24) 
adg

>  <m_score__min__energy>  (24) 
-6.2000000000000002

>  <m_primary>  (24) 
energy

$$$$
24:0
     RDKit          3D

 31 32  0  0  0  0  0  0  0  0999 V2000
   -6.8410   19.3530  -33.1900 C   0  0  0  0  0  0  0  0  0  0  0  0
   -7.6250   20.3890  -32.5070 N   0  0  0  0  0  0  0  0  0  0  0  0
   -9.0630   20.1890  -32.2910 C   0  0  0  0  0  0  0  0  0  0  0  0
   -7.0080   21.6120  -32.0380 C   0  0  0  0  0  0  0  0  0  0  0  0
   -5.6560   21.9100  -32.2980 C   0  0  0  0  0  0  0  0  0  0  0  0
   -5.1070   23.1030  -31.8250 C   0  0  0  0  0  0  0  0  0  0  0  0
   -5.8940   23.9990  -31.0930 C   0  0  0  0  0  0  0  0  0  0  0  0
   -5.3260   25.3010  -30.5940 C   0  0  0  0  0  0  0  0  0  0  0  0
   -3.8660   25.2330  -30.5280 N   0  0  0  0  0  0  0  0  0  0  0  0
   -3.1900   24.7140  -29.5470 C   0  0  0  0  0  0  0  0  0  0  0  0
   -2.0060   25.2740  -29.1830 N   0  0  0  0  0  0  0  0  0  0  0  0
   -1.2700   24.7590  -28.1640 C   0  0  0  0  0  0  0  0  0  0  0  0
   -1.7270   23.6380  -27.4740 C   0  0  0  0  0  0  0  0  0  0  0  0
   -2.9430   23.0740  -27.8550 C   0  0  0  0  0  0  0  0  0  0  0  0
   -3.6500   23.6180  -28.8790 N   0  0  0  0  0  0  0  0  0  0  0  0
   -7.2340   23.6750  -30.8540 C   0  0  0  0  0  0  0  0  0  0  0  0
   -7.7500   22.5070  -31.3240 N   0  0  0  0  0  0  0  0  0  0  0  0
   -6.3539   18.7094  -32.4426 H   0  0  0  0  0  0  0  0  0  0  0  0
   -7.5069   18.7446  -33.8196 H   0  0  0  0  0  0  0  0  0  0  0  0
   -6.0746   19.8286  -33.8196 H   0  0  0  0  0  0  0  0  0  0  0  0
   -9.2711   20.1601  -31.2112 H   0  0  0  0  0  0  0  0  0  0  0  0
   -9.6215   21.0181  -32.7499 H   0  0  0  0  0  0  0  0  0  0  0  0
   -9.3741   19.2389  -32.7499 H   0  0  0  0  0  0  0  0  0  0  0  0
   -5.0355   21.2055  -32.8714 H   0  0  0  0  0  0  0  0  0  0  0  0
   -4.0522   23.3396  -32.0284 H   0  0  0  0  0  0  0  0  0  0  0  0
   -5.6198   26.1100  -31.2790 H   0  0  0  0  0  0  0  0  0  0  0  0
   -5.7184   25.4961  -29.5851 H   0  0  0  0  0  0  0  0  0  0  0  0
   -0.3144   25.2263  -27.8839 H   0  0  0  0  0  0  0  0  0  0  0  0
   -1.1416   23.2083  -26.6478 H   0  0  0  0  0  0  0  0  0  0  0  0
   -3.3296   22.1897  -27.3272 H   0  0  0  0  0  0  0  0  0  0  0  0
   -7.8722   24.3666  -30.2844 H   0  0  0  0  0  0  0  0  0  0  0  0
  1  2  1  0
  2  3  1  0
  2  4  1  0
  4  5  2  0
  5  6  1  0
  6  7  2  0
  7  8  1  0
  8  9  1  0
  9 10  2  3
 10 11  1  0
 11 12  2  0
 12 13  1  0
 13 14  2  0
 14 15  1  0
  7 16  1  0
 16 17  2  0
 17  4  1  0
 15 10  1  0
  1 18  1  0
  1 19  1  0
  1 20  1  0
  3 21  1  0
  3 22  1  0
  3 23  1  0
  5 24  1  0
  6 25  1  0
  8 26  1  0
  8 27  1  0
 12 28  1  0
 13 29  1  0
 14 30  1  0
 16 31  1  0
M  CHG  1  15  -1
M  END
>  <UniqueID>  (25) 
21

>  <SMILES>  (25) 
CN(C)c1ccc(CN=c2nccc[n-]2)cn1

>  <Energy>  (25) 
31.271014566911404

>  <Genealogy>  (25) 
CN(C)c1ccc(CN=c2nccc[n-]2)cn1 (protonated)
CN(C)c1ccc(CN=c2nccc[n-]2)cn1 (3D coordinates assigned)
CN(C)c1ccc(CN=c2nccc[n-]2)cn1 (optimized conformer: 31.271014566911404 kcal/mol)

>  <smiles>  (25) 
CN(C)c1ccc(CN=c2nccc[nH]2)cn1

>  <score_type>  (25) 
oracle

>  <origin>  (25) 
adg

>  <m_score__min__energy>  (25) 
-7.7400000000000002

>  <m_primary>  (25) 
energy

$$$$
25:0
     RDKit          3D

 26 27  0  0  0  0  0  0  0  0999 V2000
   -3.1220   21.1900  -32.1540 C   0  0  0  0  0  0  0  0  0  0  0  0
   -4.5200   21.7270  -32.0620 C   0  0  0  0  0  0  0  0  0  0  0  0
   -5.5320   20.9860  -32.5800 N   0  0  0  0  0  0  0  0  0  0  0  0
   -6.8010   21.3890  -32.5380 N   0  0  0  0  0  0  0  0  0  0  0  0
   -7.1560   22.5710  -31.9640 C   0  0  0  0  0  0  0  0  0  0  0  0
   -8.6090   22.9700  -31.9400 C   0  0  0  0  0  0  0  0  0  0  0  0
   -6.1580   23.3820  -31.3810 C   0  0  0  0  0  0  0  0  0  0  0  0
   -4.8100   22.9720  -31.4690 C   0  0  0  0  0  0  0  0  0  0  0  0
   -3.7070   23.8090  -30.8410 C   0  0  0  0  0  0  0  0  0  0  0  0
   -4.1040   25.2070  -30.6350 N   0  0  0  0  0  0  0  0  0  0  0  0
   -5.3730   25.2800  -29.9050 C   0  0  0  0  0  0  0  0  0  0  0  0
   -6.5160   24.7120  -30.7500 C   0  0  0  0  0  0  0  0  0  0  0  0
   -2.7210   21.0360  -31.1413 H   0  0  0  0  0  0  0  0  0  0  0  0
   -3.1321   20.2318  -32.6941 H   0  0  0  0  0  0  0  0  0  0  0  0
   -2.4880   21.9086  -32.6941 H   0  0  0  0  0  0  0  0  0  0  0  0
   -7.5290   20.7690  -32.9600 H   0  0  0  0  0  0  0  0  0  0  0  0
   -8.9466   23.0627  -30.8972 H   0  0  0  0  0  0  0  0  0  0  0  0
   -8.7327   23.9354  -32.4526 H   0  0  0  0  0  0  0  0  0  0  0  0
   -9.2083   22.2032  -32.4526 H   0  0  0  0  0  0  0  0  0  0  0  0
   -3.4440   23.3707  -29.8670 H   0  0  0  0  0  0  0  0  0  0  0  0
   -2.8521   23.8050  -31.5332 H   0  0  0  0  0  0  0  0  0  0  0  0
   -4.2170   25.6710  -31.5680 H   0  0  0  0  0  0  0  0  0  0  0  0
   -5.2884   24.6992  -28.9747 H   0  0  0  0  0  0  0  0  0  0  0  0
   -5.5906   26.3341  -29.6781 H   0  0  0  0  0  0  0  0  0  0  0  0
   -7.3967   24.5724  -30.1058 H   0  0  0  0  0  0  0  0  0  0  0  0
   -6.7213   25.4254  -31.5617 H   0  0  0  0  0  0  0  0  0  0  0  0
  1  2  1  0
  2  3  2  0
  3  4  1  0
  4  5  2  0
  5  6  1  0
  5  7  1  0
  7  8  2  0
  8  9  1  0
  9 10  1  0
 10 11  1  0
 11 12  1  0
  8  2  1  0
 12  7  1  0
  1 13  1  0
  1 14  1  0
  1 15  1  0
  4 16  1  0
  6 17  1  0
  6 18  1  0
  6 19  1  0
  9 20  1  0
  9 21  1  0
 10 22  1  0
 11 23  1  0
 11 24  1  0
 12 25  1  0
 12 26  1  0
M  CHG  1   4   1
M  END
>  <UniqueID>  (26) 
22

>  <SMILES>  (26) 
Cc1n[nH+]c(C)c2c1CNCC2

>  <Energy>  (26) 
28.69715862012466

>  <Genealogy>  (26) 
Cc1n[nH+]c(C)c2c1CNCC2 (protonated)
Cc1n[nH+]c(C)c2c1CNCC2 (3D coordinates assigned)
Cc1n[nH+]c(C)c2c1CNCC2 (nonaromatic ring conformer: 28.69715862012466 kcal/mol)

>  <smiles>  (26) 
Cc1nnc(C)c2c1CCNC2

>  <score_type>  (26) 
oracle

>  <origin>  (26) 
adg

>  <m_score__min__energy>  (26) 
-5.9900000000000002

>  <m_primary>  (26) 
energy

$$$$
26:0
     RDKit          3D

 41 43  0  0  0  0  0  0  0  0999 V2000
   -3.5710   20.5520  -33.1060 C   0  0  0  0  0  0  0  0  0  0  0  0
   -4.9230   20.6060  -33.5500 O   0  0  0  0  0  0  0  0  0  0  0  0
   -5.9220   19.6890  -33.1840 C   0  0  0  0  0  0  0  0  0  0  0  0
   -5.8590   18.3360  -33.5770 C   0  0  0  0  0  0  0  0  0  0  0  0
   -6.8390   17.4310  -33.1610 C   0  0  0  0  0  0  0  0  0  0  0  0
   -7.8870   17.8600  -32.3490 C   0  0  0  0  0  0  0  0  0  0  0  0
   -7.9680   19.1980  -31.9590 C   0  0  0  0  0  0  0  0  0  0  0  0
   -7.0020   20.1260  -32.3810 C   0  0  0  0  0  0  0  0  0  0  0  0
   -7.1240   21.5010  -31.9740 N   0  0  0  0  0  0  0  0  0  0  0  0
   -6.1290   22.3120  -31.5580 C   0  0  0  0  0  0  0  0  0  0  0  0
   -6.6650   23.5610  -31.3360 C   0  0  0  0  0  0  0  0  0  0  0  0
   -5.9390   24.7910  -30.8910 C   0  0  0  0  0  0  0  0  0  0  0  0
   -4.5010   24.7160  -31.2180 N   0  0  0  0  0  0  0  0  0  0  0  0
   -3.5710   24.3780  -30.1110 C   0  0  0  0  0  0  0  0  0  0  0  0
   -4.2380   24.2080  -28.7430 C   0  0  0  0  0  0  0  0  0  0  0  0
   -4.2530   22.7130  -28.4560 C   0  0  0  0  0  0  0  0  0  0  0  0
   -3.1290   22.1000  -29.2820 C   0  0  0  0  0  0  0  0  0  0  0  0
   -2.7590   23.1050  -30.3710 C   0  0  0  0  0  0  0  0  0  0  0  0
   -8.0070   23.4450  -31.6360 C   0  0  0  0  0  0  0  0  0  0  0  0
   -8.2600   22.1830  -32.0330 N   0  0  0  0  0  0  0  0  0  0  0  0
   -3.5460   20.5510  -32.0063 H   0  0  0  0  0  0  0  0  0  0  0  0
   -3.0972   19.6342  -33.4844 H   0  0  0  0  0  0  0  0  0  0  0  0
   -3.0255   21.4291  -33.4844 H   0  0  0  0  0  0  0  0  0  0  0  0
   -5.0325   17.9907  -34.2155 H   0  0  0  0  0  0  0  0  0  0  0  0
   -6.7831   16.3783  -33.4750 H   0  0  0  0  0  0  0  0  0  0  0  0
   -8.6516   17.1433  -32.0148 H   0  0  0  0  0  0  0  0  0  0  0  0
   -8.7963   19.5286  -31.3151 H   0  0  0  0  0  0  0  0  0  0  0  0
   -5.0758   22.0260  -31.4205 H   0  0  0  0  0  0  0  0  0  0  0  0
   -6.3754   25.6661  -31.3948 H   0  0  0  0  0  0  0  0  0  0  0  0
   -6.0416   24.8776  -29.7992 H   0  0  0  0  0  0  0  0  0  0  0  0
   -4.2130   25.6520  -31.5900 H   0  0  0  0  0  0  0  0  0  0  0  0
   -2.9142   25.2599  -30.0839 H   0  0  0  0  0  0  0  0  0  0  0  0
   -3.6620   24.7381  -27.9702 H   0  0  0  0  0  0  0  0  0  0  0  0
   -5.2558   24.6251  -28.7406 H   0  0  0  0  0  0  0  0  0  0  0  0
   -4.0802   22.5303  -27.3851 H   0  0  0  0  0  0  0  0  0  0  0  0
   -5.2249   22.2687  -28.7169 H   0  0  0  0  0  0  0  0  0  0  0  0
   -2.2569   21.9023  -28.6414 H   0  0  0  0  0  0  0  0  0  0  0  0
   -3.4508   21.1470  -29.7273 H   0  0  0  0  0  0  0  0  0  0  0  0
   -1.6830   23.3292  -30.3265 H   0  0  0  0  0  0  0  0  0  0  0  0
   -2.9815   22.6980  -31.3684 H   0  0  0  0  0  0  0  0  0  0  0  0
   -8.7501   24.2527  -31.5627 H   0  0  0  0  0  0  0  0  0  0  0  0
  1  2  1  0
  2  3  1  0
  3  4  2  0
  4  5  1  0
  5  6  2  0
  6  7  1  0
  7  8  2  0
  8  9  1  0
  9 10  1  0
 10 11  2  0
 11 12  1  0
 12 13  1  0
 13 14  1  0
 14 15  1  0
 15 16  1  0
 16 17  1  0
 17 18  1  0
 11 19  1  0
 19 20  2  0
  8  3  1  0
 20  9  1  0
 18 14  1  0
  1 21  1  0
  1 22  1  0
  1 23  1  0
  4 24  1  0
  5 25  1  0
  6 26  1  0
  7 27  1  0
 10 28  1  0
 12 29  1  0
 12 30  1  0
 13 31  1  0
 14 32  1  0
 15 33  1  0
 15 34  1  0
 16 35  1  0
 16 36  1  0
 17 37  1  0
 17 38  1  0
 18 39  1  0
 18 40  1  0
 19 41  1  0
M  END
>  <UniqueID>  (27) 
23

>  <SMILES>  (27) 
COc1ccccc1-n1cc(CNC2CCCC2)cn1

>  <Energy>  (27) 
81.56707534590934

>  <Genealogy>  (27) 
COc1ccccc1-n1cc(CNC2CCCC2)cn1 (3D coordinates assigned)
COc1ccccc1-n1cc(CNC2CCCC2)cn1 (nonaromatic ring conformer: 81.56707534590934 kcal/mol)

>  <smiles>  (27) 
COc1ccccc1-n1cc(CNC2CCCC2)cn1

>  <score_type>  (27) 
oracle

>  <origin>  (27) 
adg

>  <m_score__min__energy>  (27) 
-8.1799999999999997

>  <m_primary>  (27) 
energy

$$$$
27:0
     RDKit          3D

 36 39  0  0  0  0  0  0  0  0999 V2000
   -0.1840   24.2560  -28.7690 O   0  0  0  0  0  0  0  0  0  0  0  0
   -1.3190   24.0950  -29.2890 C   0  0  0  0  0  0  0  0  0  0  0  0
   -2.3030   25.0250  -29.1110 N   0  0  0  0  0  0  0  0  0  0  0  0
   -3.5470   24.8820  -29.6730 C   0  0  0  0  0  0  0  0  0  0  0  0
   -3.8510   23.7550  -30.4590 C   0  0  0  0  0  0  0  0  0  0  0  0
   -2.8410   22.8060  -30.6240 C   0  0  0  0  0  0  0  0  0  0  0  0
   -1.6080   22.9730  -30.0600 C   0  0  0  0  0  0  0  0  0  0  0  0
   -0.8540   21.8890  -30.4570 C   0  0  0  0  0  0  0  0  0  0  0  0
   -1.6400   21.1120  -31.2380 N   0  0  0  0  0  0  0  0  0  0  0  0
   -2.8500   21.6550  -31.3300 N   0  0  0  0  0  0  0  0  0  0  0  0
   -3.9350   21.1270  -32.1660 C   0  0  1  0  0  0  0  0  0  0  0  0
   -4.0420   19.5970  -31.9290 C   0  0  0  0  0  0  0  0  0  0  0  0
   -5.1170   18.8590  -32.7720 C   0  0  0  0  0  0  0  0  0  0  0  0
   -6.5600   19.1300  -32.3900 C   0  0  0  0  0  0  0  0  0  0  0  0
   -7.3920   18.0590  -32.0230 C   0  0  0  0  0  0  0  0  0  0  0  0
   -8.7220   18.2850  -31.6590 C   0  0  0  0  0  0  0  0  0  0  0  0
   -9.2350   19.5830  -31.6530 C   0  0  0  0  0  0  0  0  0  0  0  0
   -8.4170   20.6600  -32.0010 C   0  0  0  0  0  0  0  0  0  0  0  0
   -7.0740   20.4460  -32.3530 C   0  0  0  0  0  0  0  0  0  0  0  0
   -6.2030   21.6140  -32.7570 C   0  0  0  0  0  0  0  0  0  0  0  0
   -5.1270   21.8480  -31.8610 O   0  0  0  0  0  0  0  0  0  0  0  0
   -4.3125   25.6545  -29.5077 H   0  0  0  0  0  0  0  0  0  0  0  0
   -4.8404   23.6277  -30.9226 H   0  0  0  0  0  0  0  0  0  0  0  0
    0.1943   21.6919  -30.1882 H   0  0  0  0  0  0  0  0  0  0  0  0
   -1.3420   20.2320  -31.7140 H   0  0  0  0  0  0  0  0  0  0  0  0
   -3.7448   21.2654  -33.2406 H   0  0  0  0  0  0  0  0  0  0  0  0
   -3.0643   19.1497  -32.1616 H   0  0  0  0  0  0  0  0  0  0  0  0
   -4.3491   19.4767  -30.8796 H   0  0  0  0  0  0  0  0  0  0  0  0
   -4.9848   19.1573  -33.8225 H   0  0  0  0  0  0  0  0  0  0  0  0
   -4.9564   17.7868  -32.5862 H   0  0  0  0  0  0  0  0  0  0  0  0
   -6.9930   17.0339  -32.0222 H   0  0  0  0  0  0  0  0  0  0  0  0
   -9.3656   17.4387  -31.3768 H   0  0  0  0  0  0  0  0  0  0  0  0
  -10.2846   19.7578  -31.3739 H   0  0  0  0  0  0  0  0  0  0  0  0
   -8.8263   21.6810  -31.9995 H   0  0  0  0  0  0  0  0  0  0  0  0
   -5.7882   21.4114  -33.7555 H   0  0  0  0  0  0  0  0  0  0  0  0
   -6.8373   22.5126  -32.7464 H   0  0  0  0  0  0  0  0  0  0  0  0
  1  2  2  0
  2  3  1  0
  3  4  1  0
  4  5  2  0
  5  6  1  0
  6  7  2  0
  7  8  1  0
  8  9  2  0
  9 10  1  0
 10 11  1  0
 11 12  1  0
 12 13  1  0
 13 14  1  0
 14 15  2  0
 15 16  1  0
 16 17  2  0
 17 18  1  0
 18 19  2  0
 19 20  1  0
 20 21  1  0
  7  2  1  0
 21 11  1  0
 10  6  1  0
 19 14  1  0
  4 22  1  0
  5 23  1  0
  8 24  1  0
  9 25  1  0
 11 26  1  6
 12 27  1  0
 12 28  1  0
 13 29  1  0
 13 30  1  0
 15 31  1  0
 16 32  1  0
 17 33  1  0
 18 34  1  0
 20 35  1  0
 20 36  1  0
M  CHG  2   3  -1   9   1
M  END
>  <UniqueID>  (28) 
24

>  <SMILES>  (28) 
O=c1[n-]ccc2c1c[nH+]n2[C@H]1CCc2ccccc2CO1

>  <Energy>  (28) 
98.88629104182873

>  <Genealogy>  (28) 
O=c1[n-]ccc2c1c[nH+]n2C1CCc2ccccc2CO1 (protonated)
O=c1[n-]ccc2c1c[nH+]n2[C@H]1CCc2ccccc2CO1 (chirality)
O=c1[n-]ccc2c1c[nH+]n2[C@H]1CCc2ccccc2CO1 (3D coordinates assigned)
O=c1[n-]ccc2c1c[nH+]n2[C@H]1CCc2ccccc2CO1 (nonaromatic ring conformer: 98.88629104182873 kcal/mol)

>  <smiles>  (28) 
O=c1[nH]ccc2c1cnn2C1CCc2ccccc2CO1

>  <score_type>  (28) 
oracle

>  <origin>  (28) 
adg

>  <m_score__min__energy>  (28) 
-6.9900000000000002

>  <m_primary>  (28) 
energy

$$$$
28:0
     RDKit          3D

 42 45  0  0  0  0  0  0  0  0999 V2000
   -3.8640   25.1450  -30.4610 O   0  0  0  0  0  0  0  0  0  0  0  0
   -4.6280   24.3160  -29.8950 C   0  0  0  0  0  0  0  0  0  0  0  0
   -4.5380   24.1030  -28.4760 N   0  0  0  0  0  0  0  0  0  0  0  0
   -3.4330   24.5480  -27.6700 C   0  0  0  0  0  0  0  0  0  0  0  0
   -3.6320   25.0780  -26.3800 C   0  0  0  0  0  0  0  0  0  0  0  0
   -2.5440   25.5240  -25.6220 C   0  0  0  0  0  0  0  0  0  0  0  0
   -1.2530   25.4530  -26.1500 C   0  0  0  0  0  0  0  0  0  0  0  0
   -1.0510   24.9730  -27.4500 C   0  0  0  0  0  0  0  0  0  0  0  0
   -2.1350   24.5160  -28.2060 C   0  0  0  0  0  0  0  0  0  0  0  0
    0.2440   24.9620  -27.9770 O   0  0  0  0  0  0  0  0  0  0  0  0
    1.3080   25.6700  -27.3370 C   0  0  0  0  0  0  0  0  0  0  0  0
    1.1840   25.5500  -25.8120 C   0  0  0  0  0  0  0  0  0  0  0  0
   -0.1480   25.8630  -25.3970 O   0  0  0  0  0  0  0  0  0  0  0  0
   -5.6350   23.5900  -30.7010 C   0  0  0  0  0  0  0  0  0  0  0  0
   -6.9680   24.0370  -30.6940 C   0  0  0  0  0  0  0  0  0  0  0  0
   -7.9290   23.4200  -31.4960 C   0  0  0  0  0  0  0  0  0  0  0  0
   -7.5730   22.3530  -32.3190 C   0  0  0  0  0  0  0  0  0  0  0  0
   -6.2560   21.8930  -32.3380 C   0  0  0  0  0  0  0  0  0  0  0  0
   -5.2760   22.4940  -31.5290 C   0  0  0  0  0  0  0  0  0  0  0  0
   -3.9050   21.9260  -31.5340 C   0  0  0  0  0  0  0  0  0  0  0  0
   -3.2930   21.5260  -30.3330 C   0  0  0  0  0  0  0  0  0  0  0  0
   -2.0010   20.9910  -30.3440 C   0  0  0  0  0  0  0  0  0  0  0  0
   -1.3160   20.8410  -31.5520 C   0  0  0  0  0  0  0  0  0  0  0  0
   -1.9210   21.2230  -32.7510 C   0  0  0  0  0  0  0  0  0  0  0  0
   -3.2120   21.7600  -32.7460 C   0  0  0  0  0  0  0  0  0  0  0  0
   -5.3260   23.6200  -27.9900 H   0  0  0  0  0  0  0  0  0  0  0  0
   -4.6492   25.1416  -25.9661 H   0  0  0  0  0  0  0  0  0  0  0  0
   -2.7050   25.9297  -24.6123 H   0  0  0  0  0  0  0  0  0  0  0  0
   -1.9708   24.1305  -29.2231 H   0  0  0  0  0  0  0  0  0  0  0  0
    2.2709   25.2458  -27.6576 H   0  0  0  0  0  0  0  0  0  0  0  0
    1.2524   26.7319  -27.6187 H   0  0  0  0  0  0  0  0  0  0  0  0
    1.4266   24.5211  -25.5079 H   0  0  0  0  0  0  0  0  0  0  0  0
    1.8818   26.2568  -25.3392 H   0  0  0  0  0  0  0  0  0  0  0  0
   -7.2561   24.8811  -30.0502 H   0  0  0  0  0  0  0  0  0  0  0  0
   -8.9695   23.7765  -31.4786 H   0  0  0  0  0  0  0  0  0  0  0  0
   -8.3316   21.8728  -32.9546 H   0  0  0  0  0  0  0  0  0  0  0  0
   -5.9819   21.0522  -32.9921 H   0  0  0  0  0  0  0  0  0  0  0  0
   -3.8328   21.6344  -29.3807 H   0  0  0  0  0  0  0  0  0  0  0  0
   -1.5237   20.6880  -29.4004 H   0  0  0  0  0  0  0  0  0  0  0  0
   -0.2991   20.4216  -31.5587 H   0  0  0  0  0  0  0  0  0  0  0  0
   -1.3809   21.1012  -33.7015 H   0  0  0  0  0  0  0  0  0  0  0  0
   -3.6871   22.0536  -33.6937 H   0  0  0  0  0  0  0  0  0  0  0  0
  1  2  2  0
  2  3  1  0
  3  4  1  0
  4  5  2  0
  5  6  1  0
  6  7  2  0
  7  8  1  0
  8  9  2  0
  8 10  1  0
 10 11  1  0
 11 12  1  0
 12 13  1  0
  2 14  1  0
 14 15  2  0
 15 16  1  0
 16 17  2  0
 17 18  1  0
 18 19  2  0
 19 20  1  0
 20 21  2  0
 21 22  1  0
 22 23  2  0
 23 24  1  0
 24 25  2  0
  9  4  1  0
 19 14  1  0
 25 20  1  0
 13  7  1  0
  3 26  1  0
  5 27  1  0
  6 28  1  0
  9 29  1  0
 11 30  1  0
 11 31  1  0
 12 32  1  0
 12 33  1  0
 15 34  1  0
 16 35  1  0
 17 36  1  0
 18 37  1  0
 21 38  1  0
 22 39  1  0
 23 40  1  0
 24 41  1  0
 25 42  1  0
M  END
>  <UniqueID>  (29) 
25

>  <SMILES>  (29) 
O=C(Nc1ccc2c(c1)OCCO2)c1ccccc1-c1ccccc1

>  <Energy>  (29) 
61.981950770691405

>  <Genealogy>  (29) 
O=C(Nc1ccc2c(c1)OCCO2)c1ccccc1-c1ccccc1 (3D coordinates assigned)
O=C(Nc1ccc2c(c1)OCCO2)c1ccccc1-c1ccccc1 (nonaromatic ring conformer: 61.981950770691405 kcal/mol)

>  <smiles>  (29) 
O=C(Nc1ccc2c(c1)OCCO2)c1ccccc1-c1ccccc1

>  <score_type>  (29) 
oracle

>  <origin>  (29) 
adg

>  <m_score__min__energy>  (29) 
-8.5600000000000005

>  <m_primary>  (29) 
energy

$$$$
29:0
     RDKit          3D

 33 34  0  0  0  0  0  0  0  0999 V2000
   -2.5230   18.6970  -33.4690 C   0  0  0  0  0  0  0  0  0  0  0  0
   -3.6780   19.0250  -34.2310 O   0  0  0  0  0  0  0  0  0  0  0  0
   -4.7510   18.1460  -34.3980 C   0  0  0  0  0  0  0  0  0  0  0  0
   -4.7530   17.3210  -35.3520 O   0  0  0  0  0  0  0  0  0  0  0  0
   -5.9030   18.2000  -33.4840 C   0  0  0  0  0  0  0  0  0  0  0  0
   -7.1820   17.1070  -33.5050 S   0  0  0  0  0  0  0  0  0  0  0  0
   -8.1260   17.8760  -32.3460 C   0  0  0  0  0  0  0  0  0  0  0  0
   -7.4500   19.0120  -31.9220 C   0  0  0  0  0  0  0  0  0  0  0  0
   -6.2030   19.1880  -32.5390 C   0  0  0  0  0  0  0  0  0  0  0  0
   -5.3400   20.2820  -32.2030 N   0  0  0  0  0  0  0  0  0  0  0  0
   -5.8450   21.5240  -31.6870 C   0  0  0  0  0  0  0  0  0  0  0  0
   -7.0780   21.7810  -31.7790 O   0  0  0  0  0  0  0  0  0  0  0  0
   -4.9380   22.5120  -31.0560 C   0  0  0  0  0  0  0  0  0  0  0  0
   -5.3950   23.7970  -30.7160 C   0  0  0  0  0  0  0  0  0  0  0  0
   -4.5290   24.7290  -30.1370 C   0  0  0  0  0  0  0  0  0  0  0  0
   -3.1850   24.3930  -29.8910 C   0  0  0  0  0  0  0  0  0  0  0  0
   -2.2780   25.2930  -29.3110 O   0  0  0  0  0  0  0  0  0  0  0  0
   -1.7080   25.1360  -28.0160 C   0  0  0  0  0  0  0  0  0  0  0  0
   -2.7270   23.1180  -30.2380 C   0  0  0  0  0  0  0  0  0  0  0  0
   -3.5910   22.1850  -30.8180 C   0  0  0  0  0  0  0  0  0  0  0  0
   -2.7598   18.7642  -32.3969 H   0  0  0  0  0  0  0  0  0  0  0  0
   -2.2033   17.6725  -33.7103 H   0  0  0  0  0  0  0  0  0  0  0  0
   -1.7125   19.4005  -33.7103 H   0  0  0  0  0  0  0  0  0  0  0  0
   -9.1089   17.5378  -31.9860 H   0  0  0  0  0  0  0  0  0  0  0  0
   -7.8544   19.7084  -31.1727 H   0  0  0  0  0  0  0  0  0  0  0  0
   -4.3590   20.2530  -32.5570 H   0  0  0  0  0  0  0  0  0  0  0  0
   -6.4429   24.0715  -30.9072 H   0  0  0  0  0  0  0  0  0  0  0  0
   -4.9001   25.7301  -29.8723 H   0  0  0  0  0  0  0  0  0  0  0  0
   -2.4707   25.3461  -27.2517 H   0  0  0  0  0  0  0  0  0  0  0  0
   -1.3449   24.1044  -27.8978 H   0  0  0  0  0  0  0  0  0  0  0  0
   -0.8679   25.8362  -27.8978 H   0  0  0  0  0  0  0  0  0  0  0  0
   -1.6771   22.8470  -30.0528 H   0  0  0  0  0  0  0  0  0  0  0  0
   -3.2148   21.1878  -31.0903 H   0  0  0  0  0  0  0  0  0  0  0  0
  1  2  1  0
  2  3  1  0
  3  4  2  0
  3  5  1  0
  5  6  1  0
  6  7  1  0
  7  8  2  0
  8  9  1  0
  9 10  1  0
 10 11  1  0
 11 12  2  0
 11 13  1  0
 13 14  2  0
 14 15  1  0
 15 16  2  0
 16 17  1  0
 17 18  1  0
 16 19  1  0
 19 20  2  0
  9  5  2  0
 20 13  1  0
  1 21  1  0
  1 22  1  0
  1 23  1  0
  7 24  1  0
  8 25  1  0
 10 26  1  0
 14 27  1  0
 15 28  1  0
 18 29  1  0
 18 30  1  0
 18 31  1  0
 19 32  1  0
 20 33  1  0
M  END
>  <UniqueID>  (30) 
26

>  <SMILES>  (30) 
COC(=O)c1sccc1NC(=O)c1ccc(OC)cc1

>  <Energy>  (30) 
63.091651203773345

>  <Genealogy>  (30) 
COC(=O)c1sccc1NC(=O)c1ccc(OC)cc1 (3D coordinates assigned)
COC(=O)c1sccc1NC(=O)c1ccc(OC)cc1 (optimized conformer: 63.091651203773345 kcal/mol)

>  <smiles>  (30) 
COC(=O)c1sccc1NC(=O)c1ccc(OC)cc1

>  <score_type>  (30) 
oracle

>  <origin>  (30) 
adg

>  <m_score__min__energy>  (30) 
-6.4000000000000004

>  <m_primary>  (30) 
energy

$$$$
30:0
     RDKit          3D

 44 46  0  0  1  0  0  0  0  0999 V2000
   -2.5260   24.5460  -29.1710 C   0  0  0  0  0  0  0  0  0  0  0  0
   -3.2450   24.9170  -30.3240 O   0  0  0  0  0  0  0  0  0  0  0  0
   -4.5650   24.5420  -30.4220 C   0  0  0  0  0  0  0  0  0  0  0  0
   -5.5460   25.3930  -29.8900 C   0  0  0  0  0  0  0  0  0  0  0  0
   -6.8860   25.0850  -29.9530 C   0  0  0  0  0  0  0  0  0  0  0  0
   -7.2230   23.8960  -30.5660 C   0  0  0  0  0  0  0  0  0  0  0  0
   -6.2610   23.0620  -31.0860 C   0  0  0  0  0  0  0  0  0  0  0  0
   -4.8910   23.3560  -31.0330 C   0  0  0  0  0  0  0  0  0  0  0  0
   -3.9740   22.4340  -31.5790 N   0  0  0  0  0  0  0  0  0  0  0  0
   -4.3310   21.8680  -32.8900 C   0  0  0  0  0  0  0  0  0  0  0  0
   -3.1530   21.1420  -33.4600 C   0  0  0  0  0  0  0  0  0  0  0  0
   -2.7050   20.0880  -32.5970 N   0  0  0  0  0  0  0  0  0  0  0  0
   -3.5320   18.9230  -32.8110 C   0  0  0  0  0  0  0  0  0  0  0  0
   -4.1000   18.9220  -34.1750 C   0  0  0  0  0  0  0  0  0  0  0  0
   -5.3530   18.5130  -34.3220 C   0  0  0  0  0  0  0  0  0  0  0  0
   -6.4340   18.9120  -33.4280 C   0  0  0  0  0  0  0  0  0  0  0  0
   -7.0340   18.1030  -32.4470 C   0  0  0  0  0  0  0  0  0  0  0  0
   -7.9760   18.8390  -31.8430 N   0  0  0  0  0  0  0  0  0  0  0  0
   -8.0120   20.0680  -32.3830 C   0  0  0  0  0  0  0  0  0  0  0  0
   -7.0630   20.1040  -33.3550 N   0  0  0  0  0  0  0  0  0  0  0  0
   -2.6580   20.4650  -31.2190 C   0  0  0  0  0  0  0  0  0  0  0  0
   -2.7550   21.9820  -31.0040 C   0  0  0  0  0  0  0  0  0  0  0  0
   -3.0933   24.8387  -28.2752 H   0  0  0  0  0  0  0  0  0  0  0  0
   -2.3735   23.4566  -29.1687 H   0  0  0  0  0  0  0  0  0  0  0  0
   -1.5498   25.0529  -29.1687 H   0  0  0  0  0  0  0  0  0  0  0  0
   -5.2353   26.3323  -29.4093 H   0  0  0  0  0  0  0  0  0  0  0  0
   -7.6516   25.7549  -29.5346 H   0  0  0  0  0  0  0  0  0  0  0  0
   -8.2824   23.6092  -30.6404 H   0  0  0  0  0  0  0  0  0  0  0  0
   -6.5800   22.1240  -31.5640 H   0  0  0  0  0  0  0  0  0  0  0  0
   -5.1702   21.1671  -32.7701 H   0  0  0  0  0  0  0  0  0  0  0  0
   -4.6247   22.6802  -33.5713 H   0  0  0  0  0  0  0  0  0  0  0  0
   -3.4374   20.7099  -34.4308 H   0  0  0  0  0  0  0  0  0  0  0  0
   -2.3301   21.8632  -33.5724 H   0  0  0  0  0  0  0  0  0  0  0  0
   -2.9215   18.0182  -32.6746 H   0  0  0  0  0  0  0  0  0  0  0  0
   -4.3592   18.9417  -32.0862 H   0  0  0  0  0  0  0  0  0  0  0  0
   -3.5037   19.2495  -35.0394 H   0  0  0  0  0  0  0  0  0  0  0  0
   -5.5885   17.8397  -35.1594 H   0  0  0  0  0  0  0  0  0  0  0  0
   -6.7771   17.0583  -32.2178 H   0  0  0  0  0  0  0  0  0  0  0  0
   -8.5810   18.5030  -31.0790 H   0  0  0  0  0  0  0  0  0  0  0  0
   -8.6829   20.8902  -32.0933 H   0  0  0  0  0  0  0  0  0  0  0  0
   -3.4972   19.9833  -30.6958 H   0  0  0  0  0  0  0  0  0  0  0  0
   -1.6841   20.1402  -30.8240 H   0  0  0  0  0  0  0  0  0  0  0  0
   -2.7449   22.2071  -29.9273 H   0  0  0  0  0  0  0  0  0  0  0  0
   -1.9006   22.4886  -31.4766 H   0  0  0  0  0  0  0  0  0  0  0  0
  1  2  1  0
  2  3  1  0
  3  4  2  0
  4  5  1  0
  5  6  2  0
  6  7  1  0
  7  8  2  0
  8  9  1  0
  9 10  1  0
 10 11  1  0
 11 12  1  0
 12 13  1  0
 13 14  1  0
 14 15  2  0
 15 16  1  0
 16 17  2  0
 17 18  1  0
 18 19  1  0
 19 20  2  0
 12 21  1  0
 21 22  1  0
  8  3  1  0
 22  9  1  0
 20 16  1  0
  1 23  1  0
  1 24  1  0
  1 25  1  0
  4 26  1  0
  5 27  1  0
  6 28  1  0
  7 29  1  0
 10 30  1  0
 10 31  1  0
 11 32  1  0
 11 33  1  0
 13 34  1  0
 13 35  1  0
 14 36  1  0
 15 37  1  0
 17 38  1  0
 18 39  1  0
 19 40  1  0
 21 41  1  0
 21 42  1  0
 22 43  1  0
 22 44  1  0
M  END
>  <smiles>  (31) 
COc1ccccc1N1CCN(CC=Cc2c[nH]cn2)CC1

>  <score_type>  (31) 
oracle

>  <origin>  (31) 
adg

>  <m_score__min__energy>  (31) 
-7.8700000000000001

>  <m_primary>  (31) 
energy

$$$$
31:0
     RDKit          3D

 32 33  0  0  0  0  0  0  0  0999 V2000
   -6.1770   23.8010  -32.3170 C   0  0  0  0  0  0  0  0  0  0  0  0
   -6.2640   24.1990  -30.8440 C   0  0  0  0  0  0  0  0  0  0  0  0
   -5.2840   25.3280  -30.4620 C   0  0  0  0  0  0  0  0  0  0  0  0
   -3.8640   24.9740  -30.6270 N   0  0  0  0  0  0  0  0  0  0  0  0
   -3.2670   24.4410  -29.3940 C   0  0  0  0  0  0  0  0  0  0  0  0
   -2.0290   23.6000  -29.7190 C   0  0  0  0  0  0  0  0  0  0  0  0
   -2.3430   22.5210  -30.7130 C   0  0  0  0  0  0  0  0  0  0  0  0
   -1.3600   21.7830  -31.3680 C   0  0  0  0  0  0  0  0  0  0  0  0
   -2.1340   20.6430  -32.3310 S   0  0  0  0  0  0  0  0  0  0  0  0
   -3.6760   21.1300  -31.8710 C   0  0  0  0  0  0  0  0  0  0  0  0
   -4.9300   20.5310  -32.3410 C   0  0  0  0  0  0  0  0  0  0  0  0
   -5.0830   19.7690  -33.4960 C   0  0  0  0  0  0  0  0  0  0  0  0
   -6.3950   19.3270  -33.6980 C   0  0  0  0  0  0  0  0  0  0  0  0
   -7.2700   19.7410  -32.7040 C   0  0  0  0  0  0  0  0  0  0  0  0
   -9.1330   19.3470  -32.6210 Br  0  0  0  0  0  0  0  0  0  0  0  0
   -6.4250   20.6550  -31.5750 S   0  0  0  0  0  0  0  0  0  0  0  0
   -3.6240   22.1520  -30.9880 N   0  0  0  0  0  0  0  0  0  0  0  0
   -5.9427   22.7290  -32.3939 H   0  0  0  0  0  0  0  0  0  0  0  0
   -7.1403   24.0020  -32.8086 H   0  0  0  0  0  0  0  0  0  0  0  0
   -5.3854   24.3856  -32.8086 H   0  0  0  0  0  0  0  0  0  0  0  0
   -7.2887   24.5390  -30.6334 H   0  0  0  0  0  0  0  0  0  0  0  0
   -5.9925   23.3144  -30.2491 H   0  0  0  0  0  0  0  0  0  0  0  0
   -5.4983   26.2006  -31.0965 H   0  0  0  0  0  0  0  0  0  0  0  0
   -5.4374   25.5322  -29.3921 H   0  0  0  0  0  0  0  0  0  0  0  0
   -3.7610   24.2780  -31.4000 H   0  0  0  0  0  0  0  0  0  0  0  0
   -2.9757   25.2774  -28.7417 H   0  0  0  0  0  0  0  0  0  0  0  0
   -4.0067   23.8047  -28.8862 H   0  0  0  0  0  0  0  0  0  0  0  0
   -1.2510   24.2558  -30.1370 H   0  0  0  0  0  0  0  0  0  0  0  0
   -1.6818   23.1235  -28.7903 H   0  0  0  0  0  0  0  0  0  0  0  0
   -0.2729   21.9212  -31.2724 H   0  0  0  0  0  0  0  0  0  0  0  0
   -4.2546   19.5374  -34.1817 H   0  0  0  0  0  0  0  0  0  0  0  0
   -6.7018   18.7134  -34.5579 H   0  0  0  0  0  0  0  0  0  0  0  0
  1  2  1  0
  2  3  1  0
  3  4  1  0
  4  5  1  0
  5  6  1  0
  6  7  1  0
  7  8  2  0
  8  9  1  0
  9 10  1  0
 10 11  1  0
 11 12  2  0
 12 13  1  0
 13 14  2  0
 14 15  1  0
 14 16  1  0
 10 17  2  0
 17  7  1  0
 16 11  1  0
  1 18  1  0
  1 19  1  0
  1 20  1  0
  2 21  1  0
  2 22  1  0
  3 23  1  0
  3 24  1  0
  4 25  1  0
  5 26  1  0
  5 27  1  0
  6 28  1  0
  6 29  1  0
  8 30  1  0
 12 31  1  0
 13 32  1  0
M  END
>  <UniqueID>  (32) 
27

>  <SMILES>  (32) 
CCCNCCc1csc(-c2ccc(Br)s2)n1

>  <Energy>  (32) 
80.36311834249594

>  <Genealogy>  (32) 
CCCNCCc1csc(-c2ccc(Br)s2)n1 (3D coordinates assigned)
CCCNCCc1csc(-c2ccc(Br)s2)n1 (optimized conformer: 80.36311834249594 kcal/mol)

>  <smiles>  (32) 
CCCNCCc1csc(-c2ccc(Br)s2)n1

>  <score_type>  (32) 
oracle

>  <origin>  (32) 
adg

>  <m_score__min__energy>  (32) 
-7.4500000000000002

>  <m_primary>  (32) 
energy

$$$$
32:0
     RDKit          3D

 29 31  0  0  0  0  0  0  0  0999 V2000
   -6.2290   17.0270  -34.3770 C   0  0  0  0  0  0  0  0  0  0  0  0
   -5.7320   18.2750  -34.7580 C   0  0  0  0  0  0  0  0  0  0  0  0
   -5.7710   19.3480  -33.8620 C   0  0  0  0  0  0  0  0  0  0  0  0
   -6.3110   19.1770  -32.5760 C   0  0  0  0  0  0  0  0  0  0  0  0
   -6.3180   20.3270  -31.6030 C   0  0  0  0  0  0  0  0  0  0  0  0
   -7.5860   21.0560  -31.6880 N   0  0  0  0  0  0  0  0  0  0  0  0
   -8.7450   20.5790  -32.1770 C   0  0  0  0  0  0  0  0  0  0  0  0
   -9.6570   21.5590  -32.3180 N   0  0  0  0  0  0  0  0  0  0  0  0
   -9.0810   22.6870  -31.9290 N   0  0  0  0  0  0  0  0  0  0  0  0
   -7.8290   22.3770  -31.5430 C   0  0  0  0  0  0  0  0  0  0  0  0
   -6.8520   23.3920  -31.1170 C   0  0  0  0  0  0  0  0  0  0  0  0
   -5.5550   23.4320  -31.6490 C   0  0  0  0  0  0  0  0  0  0  0  0
   -4.6860   24.3840  -31.2180 N   0  0  0  0  0  0  0  0  0  0  0  0
   -5.0460   25.2940  -30.2760 C   0  0  0  0  0  0  0  0  0  0  0  0
   -6.3270   25.2400  -29.7260 C   0  0  0  0  0  0  0  0  0  0  0  0
   -7.1980   24.2880  -30.1550 N   0  0  0  0  0  0  0  0  0  0  0  0
   -6.8080   17.9180  -32.2010 C   0  0  0  0  0  0  0  0  0  0  0  0
   -6.7660   16.8480  -33.0990 C   0  0  0  0  0  0  0  0  0  0  0  0
   -6.1979   16.1841  -35.0831 H   0  0  0  0  0  0  0  0  0  0  0  0
   -5.3094   18.4143  -35.7640 H   0  0  0  0  0  0  0  0  0  0  0  0
   -5.3775   20.3295  -34.1650 H   0  0  0  0  0  0  0  0  0  0  0  0
   -6.1899   19.9392  -30.5816 H   0  0  0  0  0  0  0  0  0  0  0  0
   -5.4938   21.0117  -31.8517 H   0  0  0  0  0  0  0  0  0  0  0  0
   -8.9244   19.5235  -32.4293 H   0  0  0  0  0  0  0  0  0  0  0  0
   -5.2438   22.6994  -32.4083 H   0  0  0  0  0  0  0  0  0  0  0  0
   -4.3340   26.0664  -29.9498 H   0  0  0  0  0  0  0  0  0  0  0  0
   -6.6297   25.9610  -28.9523 H   0  0  0  0  0  0  0  0  0  0  0  0
   -7.2320   17.7736  -31.1963 H   0  0  0  0  0  0  0  0  0  0  0  0
   -7.1559   15.8639  -32.7998 H   0  0  0  0  0  0  0  0  0  0  0  0
  1  2  2  0
  2  3  1  0
  3  4  2  0
  4  5  1  0
  5  6  1  0
  6  7  1  0
  7  8  2  0
  8  9  1  0
  9 10  2  0
 10 11  1  0
 11 12  2  0
 12 13  1  0
 13 14  2  0
 14 15  1  0
 15 16  2  0
  4 17  1  0
 17 18  2  0
 18  1  1  0
 10  6  1  0
 16 11  1  0
  1 19  1  0
  2 20  1  0
  3 21  1  0
  5 22  1  0
  5 23  1  0
  7 24  1  0
 12 25  1  0
 14 26  1  0
 15 27  1  0
 17 28  1  0
 18 29  1  0
M  END
>  <UniqueID>  (33) 
28

>  <SMILES>  (33) 
c1ccc(Cn2cnnc2-c2cnccn2)cc1

>  <Energy>  (33) 
71.16515489877523

>  <Genealogy>  (33) 
c1ccc(Cn2cnnc2-c2cnccn2)cc1 (3D coordinates assigned)
c1ccc(Cn2cnnc2-c2cnccn2)cc1 (optimized conformer: 71.16515489877523 kcal/mol)

>  <smiles>  (33) 
c1ccc(Cn2cnnc2-c2cnccn2)cc1

>  <score_type>  (33) 
oracle

>  <origin>  (33) 
adg

>  <m_score__min__energy>  (33) 
-7.2000000000000002

>  <m_primary>  (33) 
energy

$$$$
33:0
     RDKit          3D

 45 48  0  0  0  0  0  0  0  0999 V2000
   -0.8880   26.7030  -28.4670 O   0  0  0  0  0  0  0  0  0  0  0  0
   -1.2200   25.5760  -28.9180 C   0  0  0  0  0  0  0  0  0  0  0  0
   -2.4910   25.2960  -29.3090 N   0  0  0  0  0  0  0  0  0  0  0  0
   -2.3850   24.0190  -29.7070 C   0  0  0  0  0  0  0  0  0  0  0  0
   -3.3880   23.2020  -30.2200 C   0  0  0  0  0  0  0  0  0  0  0  0
   -3.0410   21.8870  -30.5790 C   0  0  0  0  0  0  0  0  0  0  0  0
   -1.7120   21.4180  -30.4090 C   0  0  0  0  0  0  0  0  0  0  0  0
   -1.3420   20.0220  -30.8320 C   0  0  0  0  0  0  0  0  0  0  0  0
   -0.8240   20.0210  -32.2870 C   0  0  0  0  0  0  0  0  0  0  0  0
   -1.8270   19.6010  -33.3000 N   0  0  0  0  0  0  0  0  0  0  0  0
   -2.6180   20.7370  -33.8580 C   0  0  0  0  0  0  0  0  0  0  0  0
   -4.0270   20.8720  -33.2510 C   0  0  0  0  0  0  0  0  0  0  0  0
   -4.7300   19.5840  -33.2370 N   0  0  0  0  0  0  0  0  0  0  0  0
   -6.1040   19.5270  -32.8180 C   0  0  0  0  0  0  0  0  0  0  0  0
   -6.7660   18.2920  -32.7210 C   0  0  0  0  0  0  0  0  0  0  0  0
   -8.1050   18.2390  -32.3220 C   0  0  0  0  0  0  0  0  0  0  0  0
   -8.7940   19.4170  -32.0210 C   0  0  0  0  0  0  0  0  0  0  0  0
   -8.1440   20.6520  -32.1180 C   0  0  0  0  0  0  0  0  0  0  0  0
   -9.0110   22.1310  -31.7490 Cl  0  0  0  0  0  0  0  0  0  0  0  0
   -6.8040   20.7080  -32.5160 C   0  0  0  0  0  0  0  0  0  0  0  0
   -3.9870   18.3570  -33.5330 C   0  0  0  0  0  0  0  0  0  0  0  0
   -2.6260   18.4320  -32.8420 C   0  0  0  0  0  0  0  0  0  0  0  0
   -0.7220   22.2870  -29.8970 C   0  0  0  0  0  0  0  0  0  0  0  0
   -1.1050   23.5800  -29.5530 C   0  0  0  0  0  0  0  0  0  0  0  0
   -0.3350   24.5560  -29.0500 N   0  0  0  0  0  0  0  0  0  0  0  0
   -4.4169   23.5719  -30.3406 H   0  0  0  0  0  0  0  0  0  0  0  0
   -3.8066   21.2158  -30.9954 H   0  0  0  0  0  0  0  0  0  0  0  0
   -0.5548   19.6381  -30.1665 H   0  0  0  0  0  0  0  0  0  0  0  0
   -2.2342   19.3816  -30.7699 H   0  0  0  0  0  0  0  0  0  0  0  0
   -0.4928   21.0404  -32.5341 H   0  0  0  0  0  0  0  0  0  0  0  0
   -0.0107   19.2816  -32.3281 H   0  0  0  0  0  0  0  0  0  0  0  0
   -1.2540   19.2460  -34.1040 H   0  0  0  0  0  0  0  0  0  0  0  0
   -2.0673   21.6698  -33.6667 H   0  0  0  0  0  0  0  0  0  0  0  0
   -2.7499   20.5380  -34.9318 H   0  0  0  0  0  0  0  0  0  0  0  0
   -3.9381   21.2423  -32.2190 H   0  0  0  0  0  0  0  0  0  0  0  0
   -4.6044   21.5747  -33.8697 H   0  0  0  0  0  0  0  0  0  0  0  0
   -6.2286   17.3624  -32.9600 H   0  0  0  0  0  0  0  0  0  0  0  0
   -8.6170   17.2685  -32.2449 H   0  0  0  0  0  0  0  0  0  0  0  0
   -9.8475   19.3732  -31.7078 H   0  0  0  0  0  0  0  0  0  0  0  0
   -6.2959   21.6806  -32.5930 H   0  0  0  0  0  0  0  0  0  0  0  0
   -4.5452   17.4863  -33.1584 H   0  0  0  0  0  0  0  0  0  0  0  0
   -3.8513   18.2529  -34.6196 H   0  0  0  0  0  0  0  0  0  0  0  0
   -2.7838   18.5141  -31.7565 H   0  0  0  0  0  0  0  0  0  0  0  0
   -2.0668   17.5198  -33.0972 H   0  0  0  0  0  0  0  0  0  0  0  0
    0.3185   21.9519  -29.7743 H   0  0  0  0  0  0  0  0  0  0  0  0
  1  2  2  0
  2  3  1  0
  3  4  1  0
  4  5  2  0
  5  6  1  0
  6  7  2  0
  7  8  1  0
  8  9  1  0
  9 10  1  0
 10 11  1  0
 11 12  1  0
 12 13  1  0
 13 14  1  0
 14 15  2  0
 15 16  1  0
 16 17  2  0
 17 18  1  0
 18 19  1  0
 18 20  2  0
 13 21  1  0
 21 22  1  0
  7 23  1  0
 23 24  2  0
 24 25  1  0
 25  2  1  0
 24  4  1  0
 22 10  1  0
 20 14  1  0
  5 26  1  0
  6 27  1  0
  8 28  1  0
  8 29  1  0
  9 30  1  0
  9 31  1  0
 10 32  1  0
 11 33  1  0
 11 34  1  0
 12 35  1  0
 12 36  1  0
 15 37  1  0
 16 38  1  0
 17 39  1  0
 20 40  1  0
 21 41  1  0
 21 42  1  0
 22 43  1  0
 22 44  1  0
 23 45  1  0
M  CHG  3   3  -1  10   1  25  -1
M  END
>  <UniqueID>  (34) 
29

>  <SMILES>  (34) 
O=c1[n-]c2ccc(CC[NH+]3CCN(c4cccc(Cl)c4)CC3)cc2[n-]1

>  <Energy>  (34) 
97.70979195936651

>  <Genealogy>  (34) 
O=c1[n-]c2ccc(CC[NH+]3CCN(c4cccc(Cl)c4)CC3)cc2[n-]1 (protonated)
O=c1[n-]c2ccc(CC[NH+]3CCN(c4cccc(Cl)c4)CC3)cc2[n-]1 (3D coordinates assigned)
O=c1[n-]c2ccc(CC[NH+]3CCN(c4cccc(Cl)c4)CC3)cc2[n-]1 (nonaromatic ring conformer: 97.70979195936651 kcal/mol)

>  <smiles>  (34) 
O=c1[nH]c2ccc(CCN3CCN(c4cccc(Cl)c4)CC3)cc2[nH]1

>  <score_type>  (34) 
oracle

>  <origin>  (34) 
adg

>  <m_score__min__energy>  (34) 
-10.550000000000001

>  <m_primary>  (34) 
energy

$$$$
34:0
     RDKit          3D

 43 45  0  0  0  0  0  0  0  0999 V2000
   -7.6200   23.4160  -32.3420 C   0  0  0  0  0  0  0  0  0  0  0  0
   -6.5970   23.8430  -31.3450 C   0  0  0  0  0  0  0  0  0  0  0  0
   -5.3040   23.4570  -31.3930 N   0  0  0  0  0  0  0  0  0  0  0  0
   -4.5660   24.0390  -30.4090 C   0  0  0  0  0  0  0  0  0  0  0  0
   -3.0960   23.8050  -30.2870 C   0  0  0  0  0  0  0  0  0  0  0  0
   -2.8650   22.4380  -29.7590 N   0  0  0  0  0  0  0  0  0  0  0  0
   -1.8850   21.6620  -30.5590 C   0  0  0  0  0  0  0  0  0  0  0  0
   -0.4400   21.7420  -30.0130 C   0  0  0  0  0  0  0  0  0  0  0  0
   -0.2190   22.9870  -29.1470 C   0  0  0  0  0  0  0  0  0  0  0  0
   -1.1970   23.0400  -27.9550 C   0  0  1  0  0  0  0  0  0  0  0  0
   -1.3510   24.4110  -27.5700 O   0  0  0  0  0  0  0  0  0  0  0  0
   -1.0950   24.9670  -26.3040 C   0  0  0  0  0  0  0  0  0  0  0  0
   -1.6110   26.2360  -26.0280 C   0  0  0  0  0  0  0  0  0  0  0  0
   -1.3880   26.8350  -24.7880 C   0  0  0  0  0  0  0  0  0  0  0  0
   -0.6410   26.1530  -23.8270 C   0  0  0  0  0  0  0  0  0  0  0  0
   -0.1400   24.9190  -24.1000 N   0  0  0  0  0  0  0  0  0  0  0  0
   -0.3460   24.3160  -25.3030 C   0  0  0  0  0  0  0  0  0  0  0  0
   -2.5630   22.3680  -28.3090 C   0  0  1  0  0  0  0  0  0  0  0  0
   -3.7580   22.8380  -27.4630 C   0  0  0  0  0  0  0  0  0  0  0  0
   -5.2640   24.9240  -29.5890 C   0  0  0  0  0  0  0  0  0  0  0  0
   -6.8620   24.9550  -30.1130 S   0  0  0  0  0  0  0  0  0  0  0  0
   -8.5116   23.0439  -31.8161 H   0  0  0  0  0  0  0  0  0  0  0  0
   -7.8975   24.2734  -32.9727 H   0  0  0  0  0  0  0  0  0  0  0  0
   -7.2056   22.6157  -32.9727 H   0  0  0  0  0  0  0  0  0  0  0  0
   -2.6240   23.9027  -31.2758 H   0  0  0  0  0  0  0  0  0  0  0  0
   -2.6580   24.5461  -29.6021 H   0  0  0  0  0  0  0  0  0  0  0  0
   -2.1972   20.6073  -30.5639 H   0  0  0  0  0  0  0  0  0  0  0  0
   -1.8736   22.0990  -31.5684 H   0  0  0  0  0  0  0  0  0  0  0  0
   -0.2405   20.8472  -29.4052 H   0  0  0  0  0  0  0  0  0  0  0  0
    0.2440   21.8014  -30.8724 H   0  0  0  0  0  0  0  0  0  0  0  0
    0.8111   22.9736  -28.7614 H   0  0  0  0  0  0  0  0  0  0  0  0
   -0.3967   23.8737  -29.7733 H   0  0  0  0  0  0  0  0  0  0  0  0
   -0.7933   22.4676  -27.1068 H   0  0  0  0  0  0  0  0  0  0  0  0
   -2.1968   26.7660  -26.7934 H   0  0  0  0  0  0  0  0  0  0  0  0
   -1.7962   27.8330  -24.5705 H   0  0  0  0  0  0  0  0  0  0  0  0
   -0.4569   26.6150  -22.8458 H   0  0  0  0  0  0  0  0  0  0  0  0
    0.4160   24.4220  -23.3700 H   0  0  0  0  0  0  0  0  0  0  0  0
    0.0735   23.3173  -25.4945 H   0  0  0  0  0  0  0  0  0  0  0  0
   -2.4189   21.3118  -28.0375 H   0  0  0  0  0  0  0  0  0  0  0  0
   -3.5120   22.7412  -26.3952 H   0  0  0  0  0  0  0  0  0  0  0  0
   -3.9797   23.8903  -27.6943 H   0  0  0  0  0  0  0  0  0  0  0  0
   -4.6372   22.2187  -27.6943 H   0  0  0  0  0  0  0  0  0  0  0  0
   -4.8451   25.4989  -28.7499 H   0  0  0  0  0  0  0  0  0  0  0  0
  1  2  1  0
  2  3  2  0
  3  4  1  0
  4  5  1  0
  5  6  1  0
  6  7  1  0
  7  8  1  0
  8  9  1  0
  9 10  1  0
 10 11  1  0
 11 12  1  0
 12 13  2  0
 13 14  1  0
 14 15  2  0
 15 16  1  0
 16 17  2  0
 10 18  1  0
 18 19  1  0
  4 20  2  0
 20 21  1  0
 21  2  1  0
 18  6  1  0
 17 12  1  0
  1 22  1  0
  1 23  1  0
  1 24  1  0
  5 25  1  0
  5 26  1  0
  7 27  1  0
  7 28  1  0
  8 29  1  0
  8 30  1  0
  9 31  1  0
  9 32  1  0
 10 33  1  1
 13 34  1  0
 14 35  1  0
 15 36  1  0
 16 37  1  0
 17 38  1  0
 18 39  1  1
 19 40  1  0
 19 41  1  0
 19 42  1  0
 20 43  1  0
M  CHG  1  16   1
M  END
>  <UniqueID>  (35) 
30

>  <SMILES>  (35) 
Cc1nc(CN2CCC[C@@H](Oc3ccc[nH+]c3)[C@H]2C)cs1

>  <Energy>  (35) 
84.88666105593852

>  <Genealogy>  (35) 
Cc1nc(CN2CCCC(Oc3ccc[nH+]c3)C2C)cs1 (protonated)
Cc1nc(CN2CCC[C@@H](Oc3ccc[nH+]c3)[C@H]2C)cs1 (chirality)
Cc1nc(CN2CCC[C@@H](Oc3ccc[nH+]c3)[C@H]2C)cs1 (3D coordinates assigned)
Cc1nc(CN2CCC[C@@H](Oc3ccc[nH+]c3)[C@H]2C)cs1 (nonaromatic ring conformer: 84.88666105593852 kcal/mol)

>  <smiles>  (35) 
Cc1nc(CN2CCCC(Oc3cccnc3)C2C)cs1

>  <score_type>  (35) 
oracle

>  <origin>  (35) 
adg

>  <m_score__min__energy>  (35) 
-6.7699999999999996

>  <m_primary>  (35) 
energy

$$$$
35:0
     RDKit          3D

 52 55  0  0  0  0  0  0  0  0999 V2000
   -0.1930   22.1420  -29.4630 C   0  0  0  0  0  0  0  0  0  0  0  0
   -0.8440   23.2780  -28.8240 N   0  0  0  0  0  0  0  0  0  0  0  0
   -1.9010   23.2110  -27.9940 C   0  0  0  0  0  0  0  0  0  0  0  0
   -2.1820   24.4920  -27.5680 C   0  0  0  0  0  0  0  0  0  0  0  0
   -3.2480   24.9190  -26.6050 C   0  0  0  0  0  0  0  0  0  0  0  0
   -4.6050   24.8760  -27.1910 N   0  0  0  0  0  0  0  0  0  0  0  0
   -4.7220   24.4800  -28.6210 C   0  0  0  0  0  0  0  0  0  0  0  0
   -4.9040   22.9670  -28.8500 C   0  0  0  0  0  0  0  0  0  0  0  0
   -4.8460   22.6160  -30.3540 C   0  0  0  0  0  0  0  0  0  0  0  0
   -5.1110   23.7840  -31.2290 N   0  0  0  0  0  0  0  0  0  0  0  0
   -5.3800   23.3630  -32.6210 C   0  0  0  0  0  0  0  0  0  0  0  0
   -5.5420   21.8560  -32.6950 C   0  0  0  0  0  0  0  0  0  0  0  0
   -4.3980   21.1140  -33.0390 C   0  0  0  0  0  0  0  0  0  0  0  0
   -4.4340   19.7230  -33.1000 C   0  0  0  0  0  0  0  0  0  0  0  0
   -5.6090   19.0390  -32.8070 C   0  0  0  0  0  0  0  0  0  0  0  0
   -6.7660   19.7410  -32.4480 C   0  0  0  0  0  0  0  0  0  0  0  0
   -7.9410   19.0350  -32.1480 C   0  0  0  0  0  0  0  0  0  0  0  0
   -9.1020   19.7170  -31.7910 C   0  0  0  0  0  0  0  0  0  0  0  0
   -9.1010   21.1060  -31.7240 C   0  0  0  0  0  0  0  0  0  0  0  0
   -7.9420   21.8280  -32.0160 C   0  0  0  0  0  0  0  0  0  0  0  0
   -6.7500   21.1650  -32.3870 C   0  0  0  0  0  0  0  0  0  0  0  0
   -6.2220   24.5970  -30.6960 C   0  0  0  0  0  0  0  0  0  0  0  0
   -5.7970   25.2900  -29.3890 C   0  0  0  0  0  0  0  0  0  0  0  0
   -1.2440   25.2980  -28.1870 C   0  0  0  0  0  0  0  0  0  0  0  0
   -0.4340   24.5320  -28.9430 N   0  0  0  0  0  0  0  0  0  0  0  0
    0.1970   21.4614  -28.6918 H   0  0  0  0  0  0  0  0  0  0  0  0
   -0.9215   21.6069  -30.0898 H   0  0  0  0  0  0  0  0  0  0  0  0
    0.6370   22.5000  -30.0898 H   0  0  0  0  0  0  0  0  0  0  0  0
   -2.4435   22.2982  -27.7069 H   0  0  0  0  0  0  0  0  0  0  0  0
   -3.2212   24.2495  -25.7326 H   0  0  0  0  0  0  0  0  0  0  0  0
   -3.0420   25.9631  -26.3269 H   0  0  0  0  0  0  0  0  0  0  0  0
   -5.0000   25.8420  -27.1020 H   0  0  0  0  0  0  0  0  0  0  0  0
   -5.2170   24.2600  -26.6040 H   0  0  0  0  0  0  0  0  0  0  0  0
   -3.7404   24.7385  -29.0448 H   0  0  0  0  0  0  0  0  0  0  0  0
   -4.1031   22.4261  -28.3246 H   0  0  0  0  0  0  0  0  0  0  0  0
   -5.8908   22.6733  -28.4626 H   0  0  0  0  0  0  0  0  0  0  0  0
   -3.8443   22.2244  -30.5848 H   0  0  0  0  0  0  0  0  0  0  0  0
   -5.6314   21.8712  -30.5501 H   0  0  0  0  0  0  0  0  0  0  0  0
   -6.3040   23.8448  -32.9734 H   0  0  0  0  0  0  0  0  0  0  0  0
   -4.5325   23.6627  -33.2549 H   0  0  0  0  0  0  0  0  0  0  0  0
   -3.4590   21.6410  -33.2637 H   0  0  0  0  0  0  0  0  0  0  0  0
   -3.5297   19.1633  -33.3810 H   0  0  0  0  0  0  0  0  0  0  0  0
   -5.6294   17.9404  -32.8576 H   0  0  0  0  0  0  0  0  0  0  0  0
   -7.9453   17.9360  -32.1950 H   0  0  0  0  0  0  0  0  0  0  0  0
  -10.0203   19.1564  -31.5619 H   0  0  0  0  0  0  0  0  0  0  0  0
  -10.0197   21.6397  -31.4390 H   0  0  0  0  0  0  0  0  0  0  0  0
   -7.9568   22.9263  -31.9566 H   0  0  0  0  0  0  0  0  0  0  0  0
   -6.5014   25.3602  -31.4372 H   0  0  0  0  0  0  0  0  0  0  0  0
   -7.0799   23.9399  -30.4903 H   0  0  0  0  0  0  0  0  0  0  0  0
   -5.3878   26.2821  -29.6306 H   0  0  0  0  0  0  0  0  0  0  0  0
   -6.6848   25.3699  -28.7444 H   0  0  0  0  0  0  0  0  0  0  0  0
   -1.1710   26.3903  -28.0792 H   0  0  0  0  0  0  0  0  0  0  0  0
  1  2  1  0
  2  3  1  0
  3  4  2  0
  4  5  1  0
  5  6  1  0
  6  7  1  0
  7  8  1  0
  8  9  1  0
  9 10  1  0
 10 11  1  0
 11 12  1  0
 12 13  2  0
 13 14  1  0
 14 15  2  0
 15 16  1  0
 16 17  2  0
 17 18  1  0
 18 19  2  0
 19 20  1  0
 20 21  2  0
 10 22  1  0
 22 23  1  0
  4 24  1  0
 24 25  2  0
 25  2  1  0
 23  7  1  0
 21 12  1  0
 21 16  1  0
  1 26  1  0
  1 27  1  0
  1 28  1  0
  3 29  1  0
  5 30  1  0
  5 31  1  0
  6 32  1  0
  6 33  1  0
  7 34  1  0
  8 35  1  0
  8 36  1  0
  9 37  1  0
  9 38  1  0
 11 39  1  0
 11 40  1  0
 13 41  1  0
 14 42  1  0
 15 43  1  0
 17 44  1  0
 18 45  1  0
 19 46  1  0
 20 47  1  0
 22 48  1  0
 22 49  1  0
 23 50  1  0
 23 51  1  0
 24 52  1  0
M  CHG  1   6   1
M  END
>  <UniqueID>  (36) 
31

>  <SMILES>  (36) 
Cn1cc(C[NH2+]C2CCN(Cc3cccc4ccccc34)CC2)cn1

>  <Energy>  (36) 
102.42833492683282

>  <Genealogy>  (36) 
Cn1cc(C[NH2+]C2CCN(Cc3cccc4ccccc34)CC2)cn1 (protonated)
Cn1cc(C[NH2+]C2CCN(Cc3cccc4ccccc34)CC2)cn1 (3D coordinates assigned)
Cn1cc(C[NH2+]C2CCN(Cc3cccc4ccccc34)CC2)cn1 (nonaromatic ring conformer: 102.42833492683282 kcal/mol)

>  <smiles>  (36) 
Cn1cc(CNC2CCN(Cc3cccc4ccccc34)CC2)cn1

>  <score_type>  (36) 
oracle

>  <origin>  (36) 
adg

>  <m_score__min__energy>  (36) 
-9.2100000000000009

>  <m_primary>  (36) 
energy

$$$$
36:0
     RDKit          3D

 32 32  0  0  0  0  0  0  0  0999 V2000
   -6.4520   18.3790  -33.3910 C   0  0  0  0  0  0  0  0  0  0  0  0
   -6.7820   18.4140  -31.9000 C   0  0  0  0  0  0  0  0  0  0  0  0
   -8.2940   18.4400  -31.6200 C   0  0  0  0  0  0  0  0  0  0  0  0
   -9.0000   19.6990  -32.1700 C   0  0  0  0  0  0  0  0  0  0  0  0
   -8.9300   20.9010  -31.2110 C   0  0  0  0  0  0  0  0  0  0  0  0
   -8.9500   22.2450  -31.9590 C   0  0  0  0  0  0  0  0  0  0  0  0
   -7.8290   23.1900  -31.4960 C   0  0  0  0  0  0  0  0  0  0  0  0
   -6.4680   22.6860  -31.9000 C   0  0  0  0  0  0  0  0  0  0  0  0
   -6.3660   21.6230  -32.7420 N   0  0  0  0  0  0  0  0  0  0  0  0
   -4.7330   21.4320  -32.8320 S   0  0  0  0  0  0  0  0  0  0  0  0
   -4.1010   22.6120  -31.8710 N   0  0  0  0  0  0  0  0  0  0  0  0
   -5.2270   23.2240  -31.4220 C   0  0  0  0  0  0  0  0  0  0  0  0
   -5.0880   24.6310  -30.3670 S   0  0  0  0  0  0  0  0  0  0  0  0
   -3.4950   25.2920  -30.4790 N   0  0  0  0  0  0  0  0  0  0  0  0
   -6.1030   25.6770  -30.7330 O   0  0  0  0  0  0  0  0  0  0  0  0
   -5.3380   24.2010  -28.9490 O   0  0  0  0  0  0  0  0  0  0  0  0
   -5.3661   18.2638  -33.5236 H   0  0  0  0  0  0  0  0  0  0  0  0
   -6.9708   17.5308  -33.8616 H   0  0  0  0  0  0  0  0  0  0  0  0
   -6.7814   19.3171  -33.8616 H   0  0  0  0  0  0  0  0  0  0  0  0
   -6.3528   17.5196  -31.4248 H   0  0  0  0  0  0  0  0  0  0  0  0
   -6.3553   19.3413  -31.4901 H   0  0  0  0  0  0  0  0  0  0  0  0
   -8.7498   17.5537  -32.0855 H   0  0  0  0  0  0  0  0  0  0  0  0
   -8.4210   18.4486  -30.5274 H   0  0  0  0  0  0  0  0  0  0  0  0
   -8.5220   19.9811  -33.1197 H   0  0  0  0  0  0  0  0  0  0  0  0
  -10.0627   19.4469  -32.3012 H   0  0  0  0  0  0  0  0  0  0  0  0
   -9.7934   20.8617  -30.5306 H   0  0  0  0  0  0  0  0  0  0  0  0
   -7.9808   20.8367  -30.6588 H   0  0  0  0  0  0  0  0  0  0  0  0
   -8.8277   22.0523  -33.0351 H   0  0  0  0  0  0  0  0  0  0  0  0
   -9.9114   22.7343  -31.7440 H   0  0  0  0  0  0  0  0  0  0  0  0
   -7.9898   24.1805  -31.9467 H   0  0  0  0  0  0  0  0  0  0  0  0
   -7.8606   23.2447  -30.3978 H   0  0  0  0  0  0  0  0  0  0  0  0
   -3.5120   26.0250  -31.2210 H   0  0  0  0  0  0  0  0  0  0  0  0
  1  2  1  0
  2  3  1  0
  3  4  1  0
  4  5  1  0
  5  6  1  0
  6  7  1  0
  7  8  1  0
  8  9  2  0
  9 10  1  0
 10 11  1  0
 11 12  2  0
 12 13  1  0
 13 14  1  0
 13 15  2  0
 13 16  2  0
 12  8  1  0
  1 17  1  0
  1 18  1  0
  1 19  1  0
  2 20  1  0
  2 21  1  0
  3 22  1  0
  3 23  1  0
  4 24  1  0
  4 25  1  0
  5 26  1  0
  5 27  1  0
  6 28  1  0
  6 29  1  0
  7 30  1  0
  7 31  1  0
 14 32  1  0
M  CHG  1  14  -1
M  END
>  <UniqueID>  (37) 
32

>  <SMILES>  (37) 
CCCCCCCc1nsnc1S([NH-])(=O)=O

>  <Energy>  (37) 
56.3787816970937

>  <Genealogy>  (37) 
CCCCCCCc1nsnc1S([NH-])(=O)=O (protonated)
CCCCCCCc1nsnc1S([NH-])(=O)=O (3D coordinates assigned)
CCCCCCCc1nsnc1S([NH-])(=O)=O (optimized conformer: 56.3787816970937 kcal/mol)

>  <smiles>  (37) 
CCCCCCCc1nsnc1S(N)(=O)=O

>  <score_type>  (37) 
oracle

>  <origin>  (37) 
adg

>  <m_score__min__energy>  (37) 
-9.25

>  <m_primary>  (37) 
energy

$$$$
37:0
     RDKit          3D

 21 22  0  0  0  0  0  0  0  0999 V2000
   -5.7480   25.1840  -29.1000 N   0  0  0  0  0  0  0  0  0  0  0  0
   -5.1770   24.7220  -30.3260 C   0  0  0  0  0  0  0  0  0  0  0  0
   -4.2080   25.3550  -30.8280 O   0  0  0  0  0  0  0  0  0  0  0  0
   -5.7070   23.5180  -31.0010 C   0  0  0  0  0  0  0  0  0  0  0  0
   -4.8690   22.6900  -31.7690 C   0  0  0  0  0  0  0  0  0  0  0  0
   -5.3980   21.5590  -32.3950 C   0  0  0  0  0  0  0  0  0  0  0  0
   -6.7570   21.2570  -32.2580 C   0  0  0  0  0  0  0  0  0  0  0  0
   -7.3210   20.1300  -32.8740 C   0  0  0  0  0  0  0  0  0  0  0  0
   -8.6840   19.8560  -32.7160 C   0  0  0  0  0  0  0  0  0  0  0  0
   -9.4870   20.7040  -31.9460 C   0  0  0  0  0  0  0  0  0  0  0  0
   -8.9320   21.8290  -31.3280 C   0  0  0  0  0  0  0  0  0  0  0  0
   -7.5700   22.1110  -31.4810 C   0  0  0  0  0  0  0  0  0  0  0  0
   -7.0270   23.2050  -30.8820 N   0  0  0  0  0  0  0  0  0  0  0  0
   -6.5500   24.6880  -28.6510 H   0  0  0  0  0  0  0  0  0  0  0  0
   -5.3640   26.0340  -28.6320 H   0  0  0  0  0  0  0  0  0  0  0  0
   -3.8013   22.9321  -31.8763 H   0  0  0  0  0  0  0  0  0  0  0  0
   -4.7467   20.9065  -32.9951 H   0  0  0  0  0  0  0  0  0  0  0  0
   -6.6921   19.4620  -33.4809 H   0  0  0  0  0  0  0  0  0  0  0  0
   -9.1252   18.9714  -33.1985 H   0  0  0  0  0  0  0  0  0  0  0  0
  -10.5584   20.4852  -31.8263 H   0  0  0  0  0  0  0  0  0  0  0  0
   -9.5662   22.4923  -30.7215 H   0  0  0  0  0  0  0  0  0  0  0  0
  1  2  1  0
  2  3  2  0
  2  4  1  0
  4  5  2  0
  5  6  1  0
  6  7  2  0
  7  8  1  0
  8  9  2  0
  9 10  1  0
 10 11  2  0
 11 12  1  0
 12 13  2  0
 13  4  1  0
 12  7  1  0
  1 14  1  0
  1 15  1  0
  5 16  1  0
  6 17  1  0
  8 18  1  0
  9 19  1  0
 10 20  1  0
 11 21  1  0
M  END
>  <UniqueID>  (38) 
33

>  <SMILES>  (38) 
NC(=O)c1ccc2ccccc2n1

>  <Energy>  (38) 
23.63268543930764

>  <Genealogy>  (38) 
NC(=O)c1ccc2ccccc2n1 (3D coordinates assigned)
NC(=O)c1ccc2ccccc2n1 (optimized conformer: 23.63268543930764 kcal/mol)

>  <smiles>  (38) 
NC(=O)c1ccc2ccccc2n1

>  <score_type>  (38) 
oracle

>  <origin>  (38) 
adg

>  <m_score__min__energy>  (38) 
-7.4699999999999998

>  <m_primary>  (38) 
energy

$$$$
38:0
     RDKit          3D

 30 32  0  0  0  0  0  0  0  0999 V2000
    0.2190   22.3560  -26.9060 C   0  0  0  0  0  0  0  0  0  0  0  0
   -0.7200   23.0280  -27.8620 C   0  0  0  0  0  0  0  0  0  0  0  0
   -1.1120   22.3820  -29.0420 C   0  0  0  0  0  0  0  0  0  0  0  0
   -2.0160   22.9920  -29.9160 C   0  0  0  0  0  0  0  0  0  0  0  0
   -2.5520   24.2560  -29.6120 C   0  0  0  0  0  0  0  0  0  0  0  0
   -3.4910   24.9170  -30.4730 N   0  0  0  0  0  0  0  0  0  0  0  0
   -5.1820   24.5480  -30.5750 S   0  0  0  0  0  0  0  0  0  0  0  0
   -5.8920   25.7030  -31.2250 O   0  0  0  0  0  0  0  0  0  0  0  0
   -5.7240   24.3570  -29.1870 O   0  0  0  0  0  0  0  0  0  0  0  0
   -5.4370   23.0620  -31.4950 C   0  0  0  0  0  0  0  0  0  0  0  0
   -4.3510   22.4330  -32.1300 C   0  0  0  0  0  0  0  0  0  0  0  0
   -4.5340   21.2550  -32.8690 C   0  0  0  0  0  0  0  0  0  0  0  0
   -5.8040   20.6750  -32.9840 C   0  0  0  0  0  0  0  0  0  0  0  0
   -6.8880   21.2790  -32.3500 C   0  0  0  0  0  0  0  0  0  0  0  0
   -8.1450   20.7730  -32.4080 N   0  0  0  0  0  0  0  0  0  0  0  0
   -8.9510   21.8880  -31.4920 S   0  0  0  0  0  0  0  0  0  0  0  0
   -7.8190   22.9920  -31.0110 N   0  0  0  0  0  0  0  0  0  0  0  0
   -6.7090   22.4770  -31.6000 C   0  0  0  0  0  0  0  0  0  0  0  0
   -2.1720   24.8920  -28.4240 C   0  0  0  0  0  0  0  0  0  0  0  0
   -1.2680   24.2820  -27.5500 C   0  0  0  0  0  0  0  0  0  0  0  0
   -0.0892   22.5765  -25.8733 H   0  0  0  0  0  0  0  0  0  0  0  0
    0.1949   21.2688  -27.0716 H   0  0  0  0  0  0  0  0  0  0  0  0
    1.2403   22.7296  -27.0716 H   0  0  0  0  0  0  0  0  0  0  0  0
   -0.7056   21.3884  -29.2820 H   0  0  0  0  0  0  0  0  0  0  0  0
   -2.3093   22.4815  -30.8452 H   0  0  0  0  0  0  0  0  0  0  0  0
   -3.3453   22.8705  -32.0460 H   0  0  0  0  0  0  0  0  0  0  0  0
   -3.6723   20.7822  -33.3629 H   0  0  0  0  0  0  0  0  0  0  0  0
   -5.9439   19.7534  -33.5680 H   0  0  0  0  0  0  0  0  0  0  0  0
   -2.5883   25.8797  -28.1766 H   0  0  0  0  0  0  0  0  0  0  0  0
   -0.9850   24.7864  -26.6143 H   0  0  0  0  0  0  0  0  0  0  0  0
  1  2  1  0
  2  3  2  0
  3  4  1  0
  4  5  2  0
  5  6  1  0
  6  7  1  0
  7  8  2  0
  7  9  2  0
  7 10  1  0
 10 11  2  0
 11 12  1  0
 12 13  2  0
 13 14  1  0
 14 15  2  0
 15 16  1  0
 16 17  1  0
 17 18  2  0
  5 19  1  0
 19 20  2  0
 20  2  1  0
 18 10  1  0
 18 14  1  0
  1 21  1  0
  1 22  1  0
  1 23  1  0
  3 24  1  0
  4 25  1  0
 11 26  1  0
 12 27  1  0
 13 28  1  0
 19 29  1  0
 20 30  1  0
M  CHG  1   6  -1
M  END
>  <UniqueID>  (39) 
34

>  <SMILES>  (39) 
Cc1ccc([N-]S(=O)(=O)c2cccc3nsnc23)cc1

>  <Energy>  (39) 
73.24058048425805

>  <Genealogy>  (39) 
Cc1ccc([N-]S(=O)(=O)c2cccc3nsnc23)cc1 (protonated)
Cc1ccc([N-]S(=O)(=O)c2cccc3nsnc23)cc1 (3D coordinates assigned)
Cc1ccc([N-]S(=O)(=O)c2cccc3nsnc23)cc1 (optimized conformer: 73.24058048425805 kcal/mol)

>  <smiles>  (39) 
Cc1ccc(NS(=O)(=O)c2cccc3nsnc23)cc1

>  <score_type>  (39) 
oracle

>  <origin>  (39) 
adg

>  <m_score__min__energy>  (39) 
-9

>  <m_primary>  (39) 
energy

$$$$
39:0
     RDKit          3D

 36 38  0  0  0  0  0  0  0  0999 V2000
    0.7210   24.5640  -27.9390 N   0  0  0  0  0  0  0  0  0  0  0  0
    0.0950   23.6810  -28.3460 C   0  0  0  0  0  0  0  0  0  0  0  0
   -0.6860   22.5800  -28.8550 C   0  0  0  0  0  0  0  0  0  0  0  0
   -0.1010   21.3090  -28.9140 C   0  0  0  0  0  0  0  0  0  0  0  0
   -0.8270   20.2190  -29.4000 C   0  0  0  0  0  0  0  0  0  0  0  0
   -2.1430   20.3920  -29.8290 C   0  0  0  0  0  0  0  0  0  0  0  0
   -2.7370   21.6560  -29.7770 C   0  0  0  0  0  0  0  0  0  0  0  0
   -2.0190   22.7610  -29.2920 C   0  0  0  0  0  0  0  0  0  0  0  0
   -2.7930   24.3510  -29.2530 S   0  0  0  0  0  0  0  0  0  0  0  0
   -3.5710   24.5390  -27.9800 O   0  0  0  0  0  0  0  0  0  0  0  0
   -1.7340   25.4130  -29.3370 O   0  0  0  0  0  0  0  0  0  0  0  0
   -3.8730   24.5090  -30.5980 N   0  0  0  0  0  0  0  0  0  0  0  0
   -4.9750   23.6240  -30.8020 C   0  0  0  0  0  0  0  0  0  0  0  0
   -5.6490   23.2090  -29.8190 O   0  0  0  0  0  0  0  0  0  0  0  0
   -5.3030   23.1580  -32.1900 C   0  0  1  0  0  0  0  0  0  0  0  0
   -4.4440   21.9710  -32.5350 C   0  0  0  0  0  0  0  0  0  0  0  0
   -3.2390   22.1520  -32.8570 O   0  0  0  0  0  0  0  0  0  0  0  0
   -4.9570   20.6380  -32.4420 N   0  0  0  0  0  0  0  0  0  0  0  0
   -6.3520   20.3840  -32.2280 C   0  0  0  0  0  0  0  0  0  0  0  0
   -6.8140   19.0650  -32.1090 C   0  0  0  0  0  0  0  0  0  0  0  0
   -8.1760   18.8080  -31.9340 C   0  0  0  0  0  0  0  0  0  0  0  0
   -9.0860   19.8650  -31.8810 C   0  0  0  0  0  0  0  0  0  0  0  0
   -8.6370   21.1840  -32.0010 C   0  0  0  0  0  0  0  0  0  0  0  0
   -7.2680   21.4540  -32.1700 C   0  0  0  0  0  0  0  0  0  0  0  0
   -6.7750   22.8440  -32.2940 C   0  0  0  0  0  0  0  0  0  0  0  0
   -7.5910   23.7940  -32.4350 O   0  0  0  0  0  0  0  0  0  0  0  0
    0.9362   21.1682  -28.5757 H   0  0  0  0  0  0  0  0  0  0  0  0
   -0.3607   19.2237  -29.4444 H   0  0  0  0  0  0  0  0  0  0  0  0
   -2.7142   19.5321  -30.2089 H   0  0  0  0  0  0  0  0  0  0  0  0
   -3.7745   21.7862  -30.1185 H   0  0  0  0  0  0  0  0  0  0  0  0
   -5.0867   23.9542  -32.9175 H   0  0  0  0  0  0  0  0  0  0  0  0
   -4.2990   19.8360  -32.5680 H   0  0  0  0  0  0  0  0  0  0  0  0
   -6.1005   18.2290  -32.1537 H   0  0  0  0  0  0  0  0  0  0  0  0
   -8.5316   17.7715  -31.8379 H   0  0  0  0  0  0  0  0  0  0  0  0
  -10.1581   19.6602  -31.7446 H   0  0  0  0  0  0  0  0  0  0  0  0
   -9.3583   22.0137  -31.9630 H   0  0  0  0  0  0  0  0  0  0  0  0
  1  2  3  0
  2  3  1  0
  3  4  2  0
  4  5  1  0
  5  6  2  0
  6  7  1  0
  7  8  2  0
  8  9  1  0
  9 10  2  0
  9 11  2  0
  9 12  1  0
 12 13  1  0
 13 14  2  0
 13 15  1  0
 15 16  1  0
 16 17  2  0
 16 18  1  0
 18 19  1  0
 19 20  2  0
 20 21  1  0
 21 22  2  0
 22 23  1  0
 23 24  2  0
 24 25  1  0
 25 26  2  0
  8  3  1  0
 25 15  1  0
 24 19  1  0
  4 27  1  0
  5 28  1  0
  6 29  1  0
  7 30  1  0
 15 31  1  6
 18 32  1  0
 20 33  1  0
 21 34  1  0
 22 35  1  0
 23 36  1  0
M  CHG  1  12  -1
M  END
>  <UniqueID>  (40) 
35

>  <SMILES>  (40) 
N#Cc1ccccc1S(=O)(=O)[N-]C(=O)[C@H]1C(=O)Nc2ccccc2C1=O

>  <Energy>  (40) 
40.98210689761486

>  <Genealogy>  (40) 
N#Cc1ccccc1S(=O)(=O)[N-]C(=O)C1C(=O)Nc2ccccc2C1=O (protonated)
N#Cc1ccccc1S(=O)(=O)[N-]C(=O)[C@H]1C(=O)Nc2ccccc2C1=O (chirality)
N#Cc1ccccc1S(=O)(=O)[N-]C(=O)[C@H]1C(=O)Nc2ccccc2C1=O (3D coordinates assigned)
N#Cc1ccccc1S(=O)(=O)[N-]C(=O)[C@H]1C(=O)Nc2ccccc2C1=O (nonaromatic ring conformer: 40.98210689761486 kcal/mol)

>  <smiles>  (40) 
N#Cc1ccccc1S(=O)(=O)NC(=O)C1C(=O)Nc2ccccc2C1=O

>  <score_type>  (40) 
oracle

>  <origin>  (40) 
adg

>  <m_score__min__energy>  (40) 
-9.9800000000000004

>  <m_primary>  (40) 
energy

$$$$
40:0
     RDKit          3D

 45 47  0  0  0  0  0  0  0  0999 V2000
   -5.7440   25.4620  -30.4690 C   0  0  0  0  0  0  0  0  0  0  0  0
   -5.5700   24.5080  -31.5110 O   0  0  0  0  0  0  0  0  0  0  0  0
   -6.3130   23.3220  -31.6420 C   0  0  0  0  0  0  0  0  0  0  0  0
   -7.5790   23.1750  -31.0420 C   0  0  0  0  0  0  0  0  0  0  0  0
   -8.3030   21.9900  -31.1950 C   0  0  0  0  0  0  0  0  0  0  0  0
   -7.7750   20.9380  -31.9450 C   0  0  0  0  0  0  0  0  0  0  0  0
   -8.6870   19.4520  -32.1330 Cl  0  0  0  0  0  0  0  0  0  0  0  0
   -6.5210   21.0690  -32.5440 C   0  0  0  0  0  0  0  0  0  0  0  0
   -5.7750   22.2550  -32.4000 C   0  0  0  0  0  0  0  0  0  0  0  0
   -4.4850   22.3740  -33.0430 N   0  0  0  0  0  0  0  0  0  0  0  0
   -3.5140   21.4970  -32.4340 C   0  0  0  0  0  0  0  0  0  0  0  0
   -2.6670   20.4430  -33.3770 S   0  0  0  0  0  0  0  0  0  0  0  0
   -3.0400   21.7740  -31.1020 N   0  0  0  0  0  0  0  0  0  0  0  0
   -1.6100   22.0400  -30.8760 C   0  0  0  0  0  0  0  0  0  0  0  0
   -1.3280   22.4590  -29.4260 C   0  0  0  0  0  0  0  0  0  0  0  0
   -2.3370   23.4220  -28.9540 N   0  0  0  0  0  0  0  0  0  0  0  0
   -1.9650   24.4740  -28.0400 C   0  0  0  0  0  0  0  0  0  0  0  0
   -2.6690   24.6600  -26.8340 C   0  0  0  0  0  0  0  0  0  0  0  0
   -2.3120   25.6880  -25.9560 C   0  0  0  0  0  0  0  0  0  0  0  0
   -1.2520   26.5420  -26.2710 C   0  0  0  0  0  0  0  0  0  0  0  0
   -0.5470   26.3690  -27.4650 C   0  0  0  0  0  0  0  0  0  0  0  0
   -0.9020   25.3440  -28.3470 C   0  0  0  0  0  0  0  0  0  0  0  0
   -3.7630   23.1970  -29.2490 C   0  0  0  0  0  0  0  0  0  0  0  0
   -3.9790   21.8710  -29.9810 C   0  0  0  0  0  0  0  0  0  0  0  0
   -5.6526   24.9609  -29.4941 H   0  0  0  0  0  0  0  0  0  0  0  0
   -4.9734   26.2423  -30.5539 H   0  0  0  0  0  0  0  0  0  0  0  0
   -6.7405   25.9200  -30.5539 H   0  0  0  0  0  0  0  0  0  0  0  0
   -8.0008   23.9995  -30.4485 H   0  0  0  0  0  0  0  0  0  0  0  0
   -9.2913   21.8859  -30.7234 H   0  0  0  0  0  0  0  0  0  0  0  0
   -6.1109   20.2368  -33.1350 H   0  0  0  0  0  0  0  0  0  0  0  0
   -4.1650   23.3680  -32.9840 H   0  0  0  0  0  0  0  0  0  0  0  0
   -4.5490   22.1480  -34.0630 H   0  0  0  0  0  0  0  0  0  0  0  0
   -1.0387   21.1271  -31.0999 H   0  0  0  0  0  0  0  0  0  0  0  0
   -1.3088   22.8678  -31.5349 H   0  0  0  0  0  0  0  0  0  0  0  0
   -1.3514   21.5675  -28.7820 H   0  0  0  0  0  0  0  0  0  0  0  0
   -0.3380   22.9365  -29.3833 H   0  0  0  0  0  0  0  0  0  0  0  0
   -3.5054   23.9918  -26.5813 H   0  0  0  0  0  0  0  0  0  0  0  0
   -2.8665   25.8246  -25.0159 H   0  0  0  0  0  0  0  0  0  0  0  0
   -0.9725   27.3503  -25.5793 H   0  0  0  0  0  0  0  0  0  0  0  0
    0.2887   27.0404  -27.7114 H   0  0  0  0  0  0  0  0  0  0  0  0
   -0.3465   25.2165  -29.2878 H   0  0  0  0  0  0  0  0  0  0  0  0
   -4.3256   23.1799  -28.3039 H   0  0  0  0  0  0  0  0  0  0  0  0
   -4.1151   24.0122  -29.8982 H   0  0  0  0  0  0  0  0  0  0  0  0
   -3.8076   21.0360  -29.2857 H   0  0  0  0  0  0  0  0  0  0  0  0
   -5.0102   21.8254  -30.3611 H   0  0  0  0  0  0  0  0  0  0  0  0
  1  2  1  0
  2  3  1  0
  3  4  2  0
  4  5  1  0
  5  6  2  0
  6  7  1  0
  6  8  1  0
  8  9  2  0
  9 10  1  0
 10 11  1  0
 11 12  2  0
 11 13  1  0
 13 14  1  0
 14 15  1  0
 15 16  1  0
 16 17  1  0
 17 18  2  0
 18 19  1  0
 19 20  2  0
 20 21  1  0
 21 22  2  0
 16 23  1  0
 23 24  1  0
  9  3  1  0
 24 13  1  0
 22 17  1  0
  1 25  1  0
  1 26  1  0
  1 27  1  0
  4 28  1  0
  5 29  1  0
  8 30  1  0
 10 31  1  0
 10 32  1  0
 14 33  1  0
 14 34  1  0
 15 35  1  0
 15 36  1  0
 18 37  1  0
 19 38  1  0
 20 39  1  0
 21 40  1  0
 22 41  1  0
 23 42  1  0
 23 43  1  0
 24 44  1  0
 24 45  1  0
M  CHG  1  10   1
M  END
>  <UniqueID>  (41) 
36

>  <SMILES>  (41) 
COc1ccc(Cl)cc1[NH2+]C(=S)N1CCN(c2ccccc2)CC1

>  <Energy>  (41) 
56.6015346138793

>  <Genealogy>  (41) 
COc1ccc(Cl)cc1[NH2+]C(=S)N1CCN(c2ccccc2)CC1 (protonated)
COc1ccc(Cl)cc1[NH2+]C(=S)N1CCN(c2ccccc2)CC1 (3D coordinates assigned)
COc1ccc(Cl)cc1[NH2+]C(=S)N1CCN(c2ccccc2)CC1 (nonaromatic ring conformer: 56.6015346138793 kcal/mol)

>  <smiles>  (41) 
COc1ccc(Cl)cc1NC(=S)N1CCN(c2ccccc2)CC1

>  <score_type>  (41) 
oracle

>  <origin>  (41) 
adg

>  <m_score__min__energy>  (41) 
-7.7300000000000004

>  <m_primary>  (41) 
energy

$$$$
41:0
     RDKit          3D

 38 41  0  0  0  0  0  0  0  0999 V2000
   -3.0970   25.2990  -29.7130 O   0  0  0  0  0  0  0  0  0  0  0  0
   -3.9910   24.4890  -30.4020 C   0  0  0  0  0  0  0  0  0  0  0  0
   -5.3590   24.7750  -30.3700 C   0  0  0  0  0  0  0  0  0  0  0  0
   -6.2590   23.9600  -31.0590 C   0  0  0  0  0  0  0  0  0  0  0  0
   -5.7970   22.8570  -31.7830 C   0  0  0  0  0  0  0  0  0  0  0  0
   -4.4220   22.5590  -31.8250 C   0  0  0  0  0  0  0  0  0  0  0  0
   -3.9280   21.3870  -32.5940 C   0  0  0  0  0  0  0  0  0  0  0  0
   -2.6540   21.4100  -33.1860 C   0  0  0  0  0  0  0  0  0  0  0  0
   -2.1980   20.2960  -33.9080 C   0  0  0  0  0  0  0  0  0  0  0  0
   -0.8600   20.2790  -34.5550 C   0  0  0  0  0  0  0  0  0  0  0  0
   -0.1380   21.4690  -34.7810 C   0  0  0  0  0  0  0  0  0  0  0  0
    1.1240   21.4280  -35.3830 C   0  0  0  0  0  0  0  0  0  0  0  0
    1.6830   20.2050  -35.7570 C   0  0  0  0  0  0  0  0  0  0  0  0
    0.9850   19.0180  -35.5270 C   0  0  0  0  0  0  0  0  0  0  0  0
   -0.2780   19.0520  -34.9260 C   0  0  0  0  0  0  0  0  0  0  0  0
   -3.0120   19.2130  -34.0390 N   0  0  0  0  0  0  0  0  0  0  0  0
   -4.2510   19.1500  -33.4850 C   0  0  0  0  0  0  0  0  0  0  0  0
   -5.0570   17.9250  -33.6800 C   0  0  0  0  0  0  0  0  0  0  0  0
   -6.4340   17.7750  -33.5150 C   0  0  0  0  0  0  0  0  0  0  0  0
   -6.8880   16.4780  -33.7830 C   0  0  0  0  0  0  0  0  0  0  0  0
   -5.8830   15.5980  -34.1620 C   0  0  0  0  0  0  0  0  0  0  0  0
   -4.4290   16.4380  -34.1610 S   0  0  0  0  0  0  0  0  0  0  0  0
   -4.7280   20.2430  -32.7450 C   0  0  0  0  0  0  0  0  0  0  0  0
   -3.5230   23.3870  -31.1260 C   0  0  0  0  0  0  0  0  0  0  0  0
   -5.7263   25.6423  -29.8019 H   0  0  0  0  0  0  0  0  0  0  0  0
   -7.3351   24.1865  -31.0321 H   0  0  0  0  0  0  0  0  0  0  0  0
   -6.5119   22.2185  -32.3228 H   0  0  0  0  0  0  0  0  0  0  0  0
   -2.0150   22.2995  -33.0838 H   0  0  0  0  0  0  0  0  0  0  0  0
   -0.5699   22.4355  -34.4820 H   0  0  0  0  0  0  0  0  0  0  0  0
    1.6771   22.3618  -35.5621 H   0  0  0  0  0  0  0  0  0  0  0  0
    2.6741   20.1764  -36.2333 H   0  0  0  0  0  0  0  0  0  0  0  0
    1.4287   18.0546  -35.8187 H   0  0  0  0  0  0  0  0  0  0  0  0
   -0.8204   18.1129  -34.7420 H   0  0  0  0  0  0  0  0  0  0  0  0
   -7.0980   18.5953  -33.2048 H   0  0  0  0  0  0  0  0  0  0  0  0
   -7.9445   16.1830  -33.7008 H   0  0  0  0  0  0  0  0  0  0  0  0
   -6.0160   14.5365  -34.4180 H   0  0  0  0  0  0  0  0  0  0  0  0
   -5.7262   20.2035  -32.2844 H   0  0  0  0  0  0  0  0  0  0  0  0
   -2.4457   23.1661  -31.1493 H   0  0  0  0  0  0  0  0  0  0  0  0
  1  2  1  0
  2  3  2  0
  3  4  1  0
  4  5  2  0
  5  6  1  0
  6  7  1  0
  7  8  2  0
  8  9  1  0
  9 10  1  0
 10 11  2  0
 11 12  1  0
 12 13  2  0
 13 14  1  0
 14 15  2  0
  9 16  2  0
 16 17  1  0
 17 18  1  0
 18 19  2  0
 19 20  1  0
 20 21  2  0
 21 22  1  0
 17 23  2  0
  6 24  2  0
 24  2  1  0
 23  7  1  0
 15 10  1  0
 22 18  1  0
  3 25  1  0
  4 26  1  0
  5 27  1  0
  8 28  1  0
 11 29  1  0
 12 30  1  0
 13 31  1  0
 14 32  1  0
 15 33  1  0
 19 34  1  0
 20 35  1  0
 21 36  1  0
 23 37  1  0
 24 38  1  0
M  CHG  1   1  -1
M  END
>  <UniqueID>  (42) 
37

>  <SMILES>  (42) 
[O-]c1cccc(-c2cc(-c3ccccc3)nc(-c3cccs3)c2)c1

>  <Energy>  (42) 
79.41470446451343

>  <Genealogy>  (42) 
[O-]c1cccc(-c2cc(-c3ccccc3)nc(-c3cccs3)c2)c1 (protonated)
[O-]c1cccc(-c2cc(-c3ccccc3)nc(-c3cccs3)c2)c1 (3D coordinates assigned)
[O-]c1cccc(-c2cc(-c3ccccc3)nc(-c3cccs3)c2)c1 (optimized conformer: 79.41470446451343 kcal/mol)

>  <smiles>  (42) 
Oc1cccc(-c2cc(-c3ccccc3)nc(-c3cccs3)c2)c1

>  <score_type>  (42) 
oracle

>  <origin>  (42) 
adg

>  <m_score__min__energy>  (42) 
-11.039999999999999

>  <m_primary>  (42) 
energy

$$$$
42:0
     RDKit          3D

 33 34  0  0  0  0  0  0  0  0999 V2000
   -8.3628   23.1451  -32.6492 H   0  0  0  0  0  0  0  0  0  0  0  0
   -7.7040   22.5530  -31.9970 C   0  0  0  0  0  0  0  0  0  0  0  0
   -8.0300   21.2670  -31.7920 C   0  0  0  0  0  0  0  0  0  0  0  0
   -8.7957   21.0502  -31.0326 H   0  0  0  0  0  0  0  0  0  0  0  0
   -7.4330   20.1160  -32.5150 C   0  0  0  0  0  0  0  0  0  0  0  0
   -6.4170   20.3500  -33.4590 C   0  0  0  0  0  0  0  0  0  0  0  0
   -6.0917   21.3785  -33.6744 H   0  0  0  0  0  0  0  0  0  0  0  0
   -5.8240   19.2790  -34.1200 C   0  0  0  0  0  0  0  0  0  0  0  0
   -5.0387   19.4587  -34.8690 H   0  0  0  0  0  0  0  0  0  0  0  0
   -6.2280   17.9810  -33.8300 C   0  0  0  0  0  0  0  0  0  0  0  0
   -5.7656   17.1280  -34.3483 H   0  0  0  0  0  0  0  0  0  0  0  0
   -7.2240   17.7680  -32.8770 C   0  0  0  0  0  0  0  0  0  0  0  0
   -7.5373   16.7408  -32.6387 H   0  0  0  0  0  0  0  0  0  0  0  0
   -7.8170   18.8230  -32.2340 N   0  0  0  0  0  0  0  0  0  0  0  0
   -8.8640   18.5480  -31.2390 C   0  0  0  0  0  0  0  0  0  0  0  0
   -8.4463   18.6577  -30.2273 H   0  0  0  0  0  0  0  0  0  0  0  0
   -9.6927   19.2590  -31.3726 H   0  0  0  0  0  0  0  0  0  0  0  0
   -9.2363   17.5216  -31.3726 H   0  0  0  0  0  0  0  0  0  0  0  0
   -6.5270   23.2370  -31.4140 C   0  0  0  0  0  0  0  0  0  0  0  0
   -6.6360   24.4950  -30.7990 C   0  0  0  0  0  0  0  0  0  0  0  0
   -7.6121   25.0005  -30.7573 H   0  0  0  0  0  0  0  0  0  0  0  0
   -5.5120   25.1080  -30.2400 C   0  0  0  0  0  0  0  0  0  0  0  0
   -5.6050   26.1006  -29.7752 H   0  0  0  0  0  0  0  0  0  0  0  0
   -4.2610   24.4630  -30.2680 C   0  0  0  0  0  0  0  0  0  0  0  0
   -3.1090   25.0470  -29.7200 O   0  0  0  0  0  0  0  0  0  0  0  0
   -2.5270   24.6690  -28.4770 C   0  0  0  0  0  0  0  0  0  0  0  0
   -3.1365   25.0649  -27.6513 H   0  0  0  0  0  0  0  0  0  0  0  0
   -2.4866   23.5718  -28.4096 H   0  0  0  0  0  0  0  0  0  0  0  0
   -1.5082   25.0783  -28.4096 H   0  0  0  0  0  0  0  0  0  0  0  0
   -4.1610   23.1920  -30.8550 C   0  0  0  0  0  0  0  0  0  0  0  0
   -2.4840   22.2710  -30.9020 Br  0  0  0  0  0  0  0  0  0  0  0  0
   -5.2890   22.5810  -31.4150 C   0  0  0  0  0  0  0  0  0  0  0  0
   -5.2028   21.5784  -31.8592 H   0  0  0  0  0  0  0  0  0  0  0  0
  1  2  1  0
  2  3  2  0
  3  4  1  0
  3  5  1  0
  5  6  2  0
  6  7  1  0
  6  8  1  0
  8  9  1  0
  8 10  2  0
 10 11  1  0
 10 12  1  0
 12 13  1  0
 12 14  2  0
 14 15  1  0
 15 16  1  0
 15 17  1  0
 15 18  1  0
  2 19  1  0
 19 20  2  0
 20 21  1  0
 20 22  1  0
 22 23  1  0
 22 24  2  0
 24 25  1  0
 25 26  1  0
 26 27  1  0
 26 28  1  0
 26 29  1  0
 24 30  1  0
 30 31  1  0
 30 32  2  0
 32 33  1  0
 14  5  1  0
 32 19  1  0
M  CHG  1  14   1
M  END
>  <UniqueID>  (43) 
38

>  <SMILES>  (43) 
COc1ccc(/C=C\c2cccc[n+]2C)cc1Br

>  <Energy>  (43) 
45.10308652402794

>  <Genealogy>  (43) 
COc1ccc(/C=C\c2cccc[n+]2C)cc1Br (cis-trans isomerization)
COc1ccc(/C=C\c2cccc[n+]2C)cc1Br (3D coordinates assigned)
COc1ccc(/C=C\c2cccc[n+]2C)cc1Br (optimized conformer: 45.10308652402794 kcal/mol)

>  <smiles>  (43) 
COc1ccc(C=Cc2cccc[n+]2C)cc1Br

>  <score_type>  (43) 
oracle

>  <origin>  (43) 
adg

>  <m_score__min__energy>  (43) 
-7.4400000000000004

>  <m_primary>  (43) 
energy

$$$$
43:0
     RDKit          3D

 37 38  0  0  0  0  0  0  0  0999 V2000
   -9.0714   20.8534  -31.8801 H   0  0  0  0  0  0  0  0  0  0  0  0
   -8.1550   21.4560  -31.9650 C   0  0  0  0  0  0  0  0  0  0  0  0
   -8.0110   23.0920  -31.6000 S   0  0  0  0  0  0  0  0  0  0  0  0
   -6.3730   23.1450  -31.9950 C   0  0  0  0  0  0  0  0  0  0  0  0
   -5.5910   24.1840  -31.9310 N   0  0  0  0  0  0  0  0  0  0  0  0
   -4.7420   24.5760  -30.8410 C   0  0  0  0  0  0  0  0  0  0  0  0
   -4.3120   25.7560  -30.7320 O   0  0  0  0  0  0  0  0  0  0  0  0
   -4.3170   23.5460  -29.8420 C   0  0  0  0  0  0  0  0  0  0  0  0
   -4.8063   23.7523  -28.8787 H   0  0  0  0  0  0  0  0  0  0  0  0
   -4.6090   22.5514  -30.2100 H   0  0  0  0  0  0  0  0  0  0  0  0
   -2.8000   23.5780  -29.6530 C   0  0  0  0  0  0  0  0  0  0  0  0
   -2.5231   22.9077  -28.8260 H   0  0  0  0  0  0  0  0  0  0  0  0
   -2.3162   23.2473  -30.5839 H   0  0  0  0  0  0  0  0  0  0  0  0
   -2.3570   24.9340  -29.3430 N   0  0  0  0  0  0  0  0  0  0  0  0
   -1.5870   25.3080  -28.1920 C   0  0  0  0  0  0  0  0  0  0  0  0
   -0.4020   25.6990  -28.3530 O   0  0  0  0  0  0  0  0  0  0  0  0
   -2.1670   25.2790  -26.8110 C   0  0  0  0  0  0  0  0  0  0  0  0
   -1.3541   25.3196  -26.0710 H   0  0  0  0  0  0  0  0  0  0  0  0
   -2.8312   26.1451  -26.6740 H   0  0  0  0  0  0  0  0  0  0  0  0
   -2.7415   24.3510  -26.6740 H   0  0  0  0  0  0  0  0  0  0  0  0
   -5.9240   21.9400  -32.3990 N   0  0  0  0  0  0  0  0  0  0  0  0
   -6.9070   20.9960  -32.3950 C   0  0  0  0  0  0  0  0  0  0  0  0
   -6.6270   19.5900  -32.7730 C   0  0  0  0  0  0  0  0  0  0  0  0
   -7.5380   18.5920  -32.3860 C   0  0  0  0  0  0  0  0  0  0  0  0
   -8.4311   18.8652  -31.8049 H   0  0  0  0  0  0  0  0  0  0  0  0
   -7.3200   17.2580  -32.7320 C   0  0  0  0  0  0  0  0  0  0  0  0
   -8.0428   16.4866  -32.4278 H   0  0  0  0  0  0  0  0  0  0  0  0
   -6.1870   16.9010  -33.4630 C   0  0  0  0  0  0  0  0  0  0  0  0
   -6.0222   15.8500  -33.7427 H   0  0  0  0  0  0  0  0  0  0  0  0
   -5.2620   17.8760  -33.8400 C   0  0  0  0  0  0  0  0  0  0  0  0
   -4.3687   17.5875  -34.4134 H   0  0  0  0  0  0  0  0  0  0  0  0
   -5.4630   19.2280  -33.4920 C   0  0  0  0  0  0  0  0  0  0  0  0
   -4.5180   20.2140  -33.8190 O   0  0  0  0  0  0  0  0  0  0  0  0
   -3.3410   20.4930  -33.0690 C   0  0  0  0  0  0  0  0  0  0  0  0
   -3.5695   20.4388  -31.9944 H   0  0  0  0  0  0  0  0  0  0  0  0
   -2.5647   19.7540  -33.3165 H   0  0  0  0  0  0  0  0  0  0  0  0
   -2.9790   21.5018  -33.3165 H   0  0  0  0  0  0  0  0  0  0  0  0
  1  2  1  0
  2  3  1  0
  3  4  1  0
  4  5  2  0
  5  6  1  0
  6  7  2  0
  6  8  1  0
  8  9  1  0
  8 10  1  0
  8 11  1  0
 11 12  1  0
 11 13  1  0
 11 14  1  0
 14 15  1  0
 15 16  2  0
 15 17  1  0
 17 18  1  0
 17 19  1  0
 17 20  1  0
  4 21  1  0
 21 22  1  0
 22 23  1  0
 23 24  2  0
 24 25  1  0
 24 26  1  0
 26 27  1  0
 26 28  2  0
 28 29  1  0
 28 30  1  0
 30 31  1  0
 30 32  2  0
 32 33  1  0
 33 34  1  0
 34 35  1  0
 34 36  1  0
 34 37  1  0
 22  2  2  0
 32 23  1  0
M  CHG  2  14  -1  21  -1
M  END
>  <UniqueID>  (44) 
39

>  <SMILES>  (44) 
COc1ccccc1-c1cs/c(=N\C(=O)CC[N-]C(C)=O)[n-]1

>  <Energy>  (44) 
68.61373446514233

>  <Genealogy>  (44) 
COc1ccccc1-c1csc(=NC(=O)CC[N-]C(C)=O)[n-]1 (protonated)
COc1ccccc1-c1cs/c(=N\C(=O)CC[N-]C(C)=O)[n-]1 (cis-trans isomerization)
COc1ccccc1-c1cs/c(=N\C(=O)CC[N-]C(C)=O)[n-]1 (3D coordinates assigned)
COc1ccccc1-c1cs/c(=N\C(=O)CC[N-]C(C)=O)[n-]1 (optimized conformer: 68.61373446514233 kcal/mol)

>  <smiles>  (44) 
COc1ccccc1-c1csc(=NC(=O)CCNC(C)=O)[nH]1

>  <score_type>  (44) 
oracle

>  <origin>  (44) 
adg

>  <m_score__min__energy>  (44) 
-10.06

>  <m_primary>  (44) 
energy

$$$$
44:0
     RDKit          3D

 29 29  0  0  0  0  0  0  0  0999 V2000
   -4.5290   23.9190  -28.8290 C   0  0  0  0  0  0  0  0  0  0  0  0
   -4.8090   24.3140  -30.5400 S   0  0  0  0  0  0  0  0  0  0  0  0
   -4.1390   23.2830  -31.4040 O   0  0  0  0  0  0  0  0  0  0  0  0
   -4.2280   25.6690  -30.8370 O   0  0  0  0  0  0  0  0  0  0  0  0
   -6.5660   24.3240  -30.8630 C   0  0  0  0  0  0  0  0  0  0  0  0
   -6.9140   23.4000  -32.0360 C   0  0  0  0  0  0  0  0  0  0  0  0
   -7.1120   22.0030  -31.5860 N   0  0  0  0  0  0  0  0  0  0  0  0
   -6.8350   21.0310  -32.6770 C   0  0  0  0  0  0  0  0  0  0  0  0
   -7.5540   19.6930  -32.4640 C   0  0  0  0  0  0  0  0  0  0  0  0
   -9.0790   19.8860  -32.4460 C   0  0  0  0  0  0  0  0  0  0  0  0
   -9.4930   21.2690  -31.9130 C   0  0  0  0  0  0  0  0  0  0  0  0
   -8.4420   21.8250  -30.9430 C   0  0  0  0  0  0  0  0  0  0  0  0
   -5.0484   24.6517  -28.1938 H   0  0  0  0  0  0  0  0  0  0  0  0
   -4.9154   22.9111  -28.6174 H   0  0  0  0  0  0  0  0  0  0  0  0
   -3.4500   23.9499  -28.6174 H   0  0  0  0  0  0  0  0  0  0  0  0
   -7.0990   23.9806  -29.9641 H   0  0  0  0  0  0  0  0  0  0  0  0
   -6.8689   25.3491  -31.1224 H   0  0  0  0  0  0  0  0  0  0  0  0
   -7.8400   23.7575  -32.5101 H   0  0  0  0  0  0  0  0  0  0  0  0
   -6.0769   23.4175  -32.7494 H   0  0  0  0  0  0  0  0  0  0  0  0
   -7.1709   21.4648  -33.6304 H   0  0  0  0  0  0  0  0  0  0  0  0
   -5.7530   20.8332  -32.6834 H   0  0  0  0  0  0  0  0  0  0  0  0
   -7.2875   19.0069  -33.2815 H   0  0  0  0  0  0  0  0  0  0  0  0
   -7.2412   19.2765  -31.4952 H   0  0  0  0  0  0  0  0  0  0  0  0
   -9.4605   19.7748  -33.4717 H   0  0  0  0  0  0  0  0  0  0  0  0
   -9.5034   19.1277  -31.7715 H   0  0  0  0  0  0  0  0  0  0  0  0
   -9.6025   21.9623  -32.7600 H   0  0  0  0  0  0  0  0  0  0  0  0
  -10.4457   21.1643  -31.3731 H   0  0  0  0  0  0  0  0  0  0  0  0
   -8.7871   22.8006  -30.5700 H   0  0  0  0  0  0  0  0  0  0  0  0
   -8.3239   21.0987  -30.1254 H   0  0  0  0  0  0  0  0  0  0  0  0
  1  2  1  0
  2  3  2  0
  2  4  2  0
  2  5  1  0
  5  6  1  0
  6  7  1  0
  7  8  1  0
  8  9  1  0
  9 10  1  0
 10 11  1  0
 11 12  1  0
 12  7  1  0
  1 13  1  0
  1 14  1  0
  1 15  1  0
  5 16  1  0
  5 17  1  0
  6 18  1  0
  6 19  1  0
  8 20  1  0
  8 21  1  0
  9 22  1  0
  9 23  1  0
 10 24  1  0
 10 25  1  0
 11 26  1  0
 11 27  1  0
 12 28  1  0
 12 29  1  0
M  END
>  <UniqueID>  (45) 
40

>  <SMILES>  (45) 
CS(=O)(=O)CCN1CCCCC1

>  <Energy>  (45) 
24.33710973036278

>  <Genealogy>  (45) 
CS(=O)(=O)CCN1CCCCC1 (3D coordinates assigned)
CS(=O)(=O)CCN1CCCCC1 (nonaromatic ring conformer: 24.33710973036278 kcal/mol)

>  <smiles>  (45) 
CS(=O)(=O)CCN1CCCCC1

>  <score_type>  (45) 
oracle

>  <origin>  (45) 
adg

>  <m_score__min__energy>  (45) 
-6.54

>  <m_primary>  (45) 
energy

$$$$
45:0
     RDKit          3D

 25 26  0  0  0  0  0  0  0  0999 V2000
   -6.8940   25.2950  -29.6310 C   0  0  0  0  0  0  0  0  0  0  0  0
   -5.8200   24.6080  -30.3390 N   0  0  0  0  0  0  0  0  0  0  0  0
   -4.5190   24.5740  -30.0010 C   0  0  0  0  0  0  0  0  0  0  0  0
   -3.8170   23.8040  -30.8570 N   0  0  0  0  0  0  0  0  0  0  0  0
   -4.6730   23.3260  -31.7480 N   0  0  0  0  0  0  0  0  0  0  0  0
   -5.8860   23.8090  -31.4200 C   0  0  0  0  0  0  0  0  0  0  0  0
   -7.3870   23.4230  -32.3280 S   0  0  0  0  0  0  0  0  0  0  0  0
   -7.8820   22.0430  -31.2380 C   0  0  0  0  0  0  0  0  0  0  0  0
   -7.5370   20.7140  -31.8520 C   0  0  0  0  0  0  0  0  0  0  0  0
   -6.4000   20.5890  -32.6670 C   0  0  0  0  0  0  0  0  0  0  0  0
   -6.0900   19.3600  -33.2590 C   0  0  0  0  0  0  0  0  0  0  0  0
   -6.9110   18.2500  -33.0410 C   0  0  0  0  0  0  0  0  0  0  0  0
   -6.4890   16.5750  -33.8560 Br  0  0  0  0  0  0  0  0  0  0  0  0
   -8.0450   18.3680  -32.2330 C   0  0  0  0  0  0  0  0  0  0  0  0
   -8.3590   19.5950  -31.6410 C   0  0  0  0  0  0  0  0  0  0  0  0
   -6.7399   25.1964  -28.5463 H   0  0  0  0  0  0  0  0  0  0  0  0
   -6.8921   26.3600  -29.9063 H   0  0  0  0  0  0  0  0  0  0  0  0
   -7.8601   24.8468  -29.9063 H   0  0  0  0  0  0  0  0  0  0  0  0
   -4.0849   25.1040  -29.1404 H   0  0  0  0  0  0  0  0  0  0  0  0
   -7.3583   22.1404  -30.2756 H   0  0  0  0  0  0  0  0  0  0  0  0
   -8.9715   22.0873  -31.0930 H   0  0  0  0  0  0  0  0  0  0  0  0
   -5.7512   21.4602  -32.8404 H   0  0  0  0  0  0  0  0  0  0  0  0
   -5.1988   19.2670  -33.8970 H   0  0  0  0  0  0  0  0  0  0  0  0
   -8.6914   17.4944  -32.0625 H   0  0  0  0  0  0  0  0  0  0  0  0
   -9.2537   19.6843  -31.0073 H   0  0  0  0  0  0  0  0  0  0  0  0
  1  2  1  0
  2  3  1  0
  3  4  2  0
  4  5  1  0
  5  6  2  0
  6  7  1  0
  7  8  1  0
  8  9  1  0
  9 10  2  0
 10 11  1  0
 11 12  2  0
 12 13  1  0
 12 14  1  0
 14 15  2  0
  6  2  1  0
 15  9  1  0
  1 16  1  0
  1 17  1  0
  1 18  1  0
  3 19  1  0
  8 20  1  0
  8 21  1  0
 10 22  1  0
 11 23  1  0
 14 24  1  0
 15 25  1  0
M  END
>  <UniqueID>  (46) 
41

>  <SMILES>  (46) 
Cn1cnnc1SCc1ccc(Br)cc1

>  <Energy>  (46) 
53.39994519427977

>  <Genealogy>  (46) 
Cn1cnnc1SCc1ccc(Br)cc1 (3D coordinates assigned)
Cn1cnnc1SCc1ccc(Br)cc1 (optimized conformer: 53.39994519427977 kcal/mol)

>  <smiles>  (46) 
Cn1cnnc1SCc1ccc(Br)cc1

>  <score_type>  (46) 
oracle

>  <origin>  (46) 
adg

>  <m_score__min__energy>  (46) 
-7.1399999999999997

>  <m_primary>  (46) 
energy

$$$$
46:0
     RDKit          3D

 39 41  0  0  0  0  0  0  0  0999 V2000
    0.7100   16.9280  -27.4890 C   0  0  0  0  0  0  0  0  0  0  0  0
    0.1000   18.2050  -27.9680 C   0  0  0  0  0  0  0  0  0  0  0  0
    0.4180   18.6540  -29.1020 O   0  0  0  0  0  0  0  0  0  0  0  0
   -0.9070   18.8560  -27.1780 N   0  0  0  0  0  0  0  0  0  0  0  0
   -1.4360   20.1600  -27.4710 C   0  0  0  0  0  0  0  0  0  0  0  0
   -0.5950   21.2790  -27.3870 C   0  0  0  0  0  0  0  0  0  0  0  0
   -1.0890   22.5570  -27.6630 C   0  0  0  0  0  0  0  0  0  0  0  0
   -2.4290   22.7350  -28.0250 C   0  0  0  0  0  0  0  0  0  0  0  0
   -2.9210   24.0650  -28.2360 N   0  0  0  0  0  0  0  0  0  0  0  0
   -2.6020   24.9170  -29.3470 C   0  0  0  0  0  0  0  0  0  0  0  0
   -1.5050   25.5330  -29.3430 O   0  0  0  0  0  0  0  0  0  0  0  0
   -3.4910   25.0900  -30.4610 N   0  0  0  0  0  0  0  0  0  0  0  0
   -4.7230   24.3900  -30.6860 C   0  0  0  0  0  0  0  0  0  0  0  0
   -5.9200   24.9750  -30.2650 C   0  0  0  0  0  0  0  0  0  0  0  0
   -7.1390   24.3450  -30.5160 C   0  0  0  0  0  0  0  0  0  0  0  0
   -7.1730   23.1200  -31.1860 C   0  0  0  0  0  0  0  0  0  0  0  0
   -5.9780   22.5000  -31.5950 C   0  0  0  0  0  0  0  0  0  0  0  0
   -5.9980   21.2140  -32.3280 C   0  0  0  0  0  0  0  0  0  0  0  0
   -4.8960   20.6470  -32.8720 N   0  0  0  0  0  0  0  0  0  0  0  0
   -5.1770   19.4790  -33.5090 C   0  0  0  0  0  0  0  0  0  0  0  0
   -6.5120   19.0980  -33.4830 C   0  0  0  0  0  0  0  0  0  0  0  0
   -7.3620   20.2710  -32.6310 S   0  0  0  0  0  0  0  0  0  0  0  0
   -4.7530   23.1320  -31.3140 C   0  0  0  0  0  0  0  0  0  0  0  0
   -3.2570   21.6110  -28.1730 C   0  0  0  0  0  0  0  0  0  0  0  0
   -2.7660   20.3330  -27.8950 C   0  0  0  0  0  0  0  0  0  0  0  0
    0.7164   16.9146  -26.3891 H   0  0  0  0  0  0  0  0  0  0  0  0
    0.1209   16.0775  -27.8626 H   0  0  0  0  0  0  0  0  0  0  0  0
    1.7418   16.8517  -27.8626 H   0  0  0  0  0  0  0  0  0  0  0  0
   -1.3460   18.3090  -26.4030 H   0  0  0  0  0  0  0  0  0  0  0  0
    0.4597   21.1502  -27.1022 H   0  0  0  0  0  0  0  0  0  0  0  0
   -0.4206   23.4280  -27.5953 H   0  0  0  0  0  0  0  0  0  0  0  0
   -5.9010   25.9375  -29.7328 H   0  0  0  0  0  0  0  0  0  0  0  0
   -8.0770   24.8147  -30.1850 H   0  0  0  0  0  0  0  0  0  0  0  0
   -8.1391   22.6374  -31.3950 H   0  0  0  0  0  0  0  0  0  0  0  0
   -4.4024   18.8790  -34.0090 H   0  0  0  0  0  0  0  0  0  0  0  0
   -6.9369   18.1913  -33.9383 H   0  0  0  0  0  0  0  0  0  0  0  0
   -3.8095   22.6374  -31.5881 H   0  0  0  0  0  0  0  0  0  0  0  0
   -4.2967   21.7371  -28.5093 H   0  0  0  0  0  0  0  0  0  0  0  0
   -3.4226   19.4578  -28.0082 H   0  0  0  0  0  0  0  0  0  0  0  0
  1  2  1  0
  2  3  2  0
  2  4  1  0
  4  5  1  0
  5  6  2  0
  6  7  1  0
  7  8  2  0
  8  9  1  0
  9 10  1  0
 10 11  2  0
 10 12  1  0
 12 13  1  0
 13 14  2  0
 14 15  1  0
 15 16  2  0
 16 17  1  0
 17 18  1  0
 18 19  2  0
 19 20  1  0
 20 21  2  0
 21 22  1  0
 17 23  2  0
  8 24  1  0
 24 25  2  0
 25  5  1  0
 23 13  1  0
 22 18  1  0
  1 26  1  0
  1 27  1  0
  1 28  1  0
  4 29  1  0
  6 30  1  0
  7 31  1  0
 14 32  1  0
 15 33  1  0
 16 34  1  0
 20 35  1  0
 21 36  1  0
 23 37  1  0
 24 38  1  0
 25 39  1  0
M  CHG  2   9  -1  12  -1
M  END
>  <UniqueID>  (47) 
42

>  <SMILES>  (47) 
CC(=O)Nc1ccc([N-]C(=O)[N-]c2cccc(-c3nccs3)c2)cc1

>  <Energy>  (47) 
79.67702209702516

>  <Genealogy>  (47) 
CC(=O)Nc1ccc([N-]C(=O)[N-]c2cccc(-c3nccs3)c2)cc1 (protonated)
CC(=O)Nc1ccc([N-]C(=O)[N-]c2cccc(-c3nccs3)c2)cc1 (3D coordinates assigned)
CC(=O)Nc1ccc([N-]C(=O)[N-]c2cccc(-c3nccs3)c2)cc1 (optimized conformer: 79.67702209702516 kcal/mol)

>  <smiles>  (47) 
CC(=O)Nc1ccc(NC(=O)Nc2cccc(-c3nccs3)c2)cc1

>  <score_type>  (47) 
oracle

>  <origin>  (47) 
adg

>  <m_score__min__energy>  (47) 
-11.42

>  <m_primary>  (47) 
energy

$$$$
47:0
     RDKit          3D

 36 38  0  0  0  0  0  0  0  0999 V2000
   -6.3410   18.5020  -33.3570 C   0  0  0  0  0  0  0  0  0  0  0  0
   -6.4310   19.8310  -32.7700 N   0  0  0  0  0  0  0  0  0  0  0  0
   -7.4930   20.3210  -32.0940 C   0  0  0  0  0  0  0  0  0  0  0  0
   -7.2140   21.6330  -31.7880 C   0  0  0  0  0  0  0  0  0  0  0  0
   -5.9910   21.8790  -32.3320 C   0  0  0  0  0  0  0  0  0  0  0  0
   -5.5200   20.7800  -32.9470 N   0  0  0  0  0  0  0  0  0  0  0  0
   -5.3990   23.2410  -32.3470 C   0  0  0  0  0  0  0  0  0  0  0  0
   -5.8750   23.9970  -31.1740 N   0  0  0  0  0  0  0  0  0  0  0  0
   -5.0610   25.0620  -30.6660 C   0  0  0  0  0  0  0  0  0  0  0  0
   -5.6050   26.1400  -30.3090 O   0  0  0  0  0  0  0  0  0  0  0  0
   -3.6440   24.9100  -30.5080 N   0  0  0  0  0  0  0  0  0  0  0  0
   -2.9800   24.0180  -29.5600 C   0  0  0  0  0  0  0  0  0  0  0  0
   -2.4070   24.7830  -28.4030 C   0  0  0  0  0  0  0  0  0  0  0  0
   -2.8890   24.5820  -27.1010 C   0  0  0  0  0  0  0  0  0  0  0  0
   -2.3190   25.2940  -26.0440 C   0  0  0  0  0  0  0  0  0  0  0  0
   -1.2850   26.1980  -26.2920 C   0  0  0  0  0  0  0  0  0  0  0  0
   -0.8370   26.3800  -27.6020 C   0  0  0  0  0  0  0  0  0  0  0  0
   -1.4030   25.6770  -28.6190 N   0  0  0  0  0  0  0  0  0  0  0  0
   -7.2180   23.8130  -30.5700 C   0  0  0  0  0  0  0  0  0  0  0  0
   -8.0770   22.7070  -31.2290 C   0  0  0  0  0  0  0  0  0  0  0  0
   -6.2901   17.7500  -32.5558 H   0  0  0  0  0  0  0  0  0  0  0  0
   -7.2286   18.3152  -33.9794 H   0  0  0  0  0  0  0  0  0  0  0  0
   -5.4364   18.4365  -33.9794 H   0  0  0  0  0  0  0  0  0  0  0  0
   -8.4109   19.7725  -31.8360 H   0  0  0  0  0  0  0  0  0  0  0  0
   -4.3022   23.1644  -32.3134 H   0  0  0  0  0  0  0  0  0  0  0  0
   -5.7023   23.7624  -33.2669 H   0  0  0  0  0  0  0  0  0  0  0  0
   -3.7114   23.2891  -29.1809 H   0  0  0  0  0  0  0  0  0  0  0  0
   -2.1568   23.5073  -30.0811 H   0  0  0  0  0  0  0  0  0  0  0  0
   -3.7074   23.8709  -26.9149 H   0  0  0  0  0  0  0  0  0  0  0  0
   -2.6842   25.1428  -25.0175 H   0  0  0  0  0  0  0  0  0  0  0  0
   -0.8280   26.7609  -25.4647 H   0  0  0  0  0  0  0  0  0  0  0  0
   -0.0256   27.0926  -27.8114 H   0  0  0  0  0  0  0  0  0  0  0  0
   -7.0843   23.5564  -29.5087 H   0  0  0  0  0  0  0  0  0  0  0  0
   -7.7592   24.7586  -30.7215 H   0  0  0  0  0  0  0  0  0  0  0  0
   -8.7488   22.2736  -30.4735 H   0  0  0  0  0  0  0  0  0  0  0  0
   -8.6602   23.1536  -32.0478 H   0  0  0  0  0  0  0  0  0  0  0  0
  1  2  1  0
  2  3  1  0
  3  4  2  0
  4  5  1  0
  5  6  2  0
  5  7  1  0
  7  8  1  0
  8  9  1  0
  9 10  2  0
  9 11  1  0
 11 12  1  0
 12 13  1  0
 13 14  2  0
 14 15  1  0
 15 16  2  0
 16 17  1  0
 17 18  2  0
  8 19  1  0
 19 20  1  0
  6  2  1  0
 18 13  1  0
 20  4  1  0
  1 21  1  0
  1 22  1  0
  1 23  1  0
  3 24  1  0
  7 25  1  0
  7 26  1  0
 12 27  1  0
 12 28  1  0
 14 29  1  0
 15 30  1  0
 16 31  1  0
 17 32  1  0
 19 33  1  0
 19 34  1  0
 20 35  1  0
 20 36  1  0
M  CHG  1  11  -1
M  END
>  <UniqueID>  (48) 
43

>  <SMILES>  (48) 
Cn1cc2c(n1)CN(C(=O)[N-]Cc1ccccn1)CC2

>  <Energy>  (48) 
72.91753844142842

>  <Genealogy>  (48) 
Cn1cc2c(n1)CN(C(=O)[N-]Cc1ccccn1)CC2 (protonated)
Cn1cc2c(n1)CN(C(=O)[N-]Cc1ccccn1)CC2 (3D coordinates assigned)
Cn1cc2c(n1)CN(C(=O)[N-]Cc1ccccn1)CC2 (nonaromatic ring conformer: 72.91753844142842 kcal/mol)

>  <smiles>  (48) 
Cn1cc2c(n1)CN(C(=O)NCc1ccccn1)CC2

>  <score_type>  (48) 
oracle

>  <origin>  (48) 
adg

>  <m_score__min__energy>  (48) 
-8.6600000000000001

>  <m_primary>  (48) 
energy

$$$$
48:0
     RDKit          3D

 28 30  0  0  0  0  0  0  0  0999 V2000
   -9.6858   22.3617  -31.1177 H   0  0  0  0  0  0  0  0  0  0  0  0
   -8.7370   22.2450  -31.6620 C   0  0  0  0  0  0  0  0  0  0  0  0
   -8.0280   23.3410  -31.9700 C   0  0  0  0  0  0  0  0  0  0  0  0
   -8.3453   23.9362  -32.8389 H   0  0  0  0  0  0  0  0  0  0  0  0
   -6.8430   23.7960  -31.2080 C   0  0  0  0  0  0  0  0  0  0  0  0
   -5.5620   23.3640  -31.5370 C   0  0  0  0  0  0  0  0  0  0  0  0
   -5.3062   22.6752  -32.3556 H   0  0  0  0  0  0  0  0  0  0  0  0
   -4.4720   24.0720  -30.4730 S   0  0  0  0  0  0  0  0  0  0  0  0
   -5.6020   24.9350  -29.5810 C   0  0  0  0  0  0  0  0  0  0  0  0
   -5.3832   25.5914  -28.7258 H   0  0  0  0  0  0  0  0  0  0  0  0
   -6.8600   24.6780  -30.1080 C   0  0  0  0  0  0  0  0  0  0  0  0
   -7.7831   25.1206  -29.7055 H   0  0  0  0  0  0  0  0  0  0  0  0
   -8.2870   20.8850  -32.0290 C   0  0  0  0  0  0  0  0  0  0  0  0
   -7.2750   20.7050  -32.9230 N   0  0  0  0  0  0  0  0  0  0  0  0
   -6.8380   19.4670  -33.2810 C   0  0  0  0  0  0  0  0  0  0  0  0
   -5.7950   19.3290  -34.2040 C   0  0  0  0  0  0  0  0  0  0  0  0
   -5.3262   20.2224  -34.6422 H   0  0  0  0  0  0  0  0  0  0  0  0
   -5.3490   18.0540  -34.5690 C   0  0  0  0  0  0  0  0  0  0  0  0
   -4.5283   17.9464  -35.2935 H   0  0  0  0  0  0  0  0  0  0  0  0
   -5.9440   16.9160  -34.0150 C   0  0  0  0  0  0  0  0  0  0  0  0
   -5.5898   15.9161  -34.3060 H   0  0  0  0  0  0  0  0  0  0  0  0
   -6.9870   17.0440  -33.0930 C   0  0  0  0  0  0  0  0  0  0  0  0
   -7.4521   16.1463  -32.6596 H   0  0  0  0  0  0  0  0  0  0  0  0
   -7.4400   18.3190  -32.7210 C   0  0  0  0  0  0  0  0  0  0  0  0
   -8.4820   18.4830  -31.8000 C   0  0  0  0  0  0  0  0  0  0  0  0
   -8.9647   17.6021  -31.3516 H   0  0  0  0  0  0  0  0  0  0  0  0
   -8.9070   19.7660  -31.4520 C   0  0  0  0  0  0  0  0  0  0  0  0
   -9.7246   19.8996  -30.7284 H   0  0  0  0  0  0  0  0  0  0  0  0
  1  2  1  0
  2  3  2  0
  3  4  1  0
  3  5  1  0
  5  6  2  0
  6  7  1  0
  6  8  1  0
  8  9  1  0
  9 10  1  0
  9 11  2  0
 11 12  1  0
  2 13  1  0
 13 14  2  0
 14 15  1  0
 15 16  2  0
 16 17  1  0
 16 18  1  0
 18 19  1  0
 18 20  2  0
 20 21  1  0
 20 22  1  0
 22 23  1  0
 22 24  2  0
 24 25  1  0
 25 26  1  0
 25 27  2  0
 27 28  1  0
 11  5  1  0
 27 13  1  0
 24 15  1  0
M  END
>  <UniqueID>  (49) 
44

>  <SMILES>  (49) 
C(=C/c1ccc2ccccc2n1)\c1ccsc1

>  <Energy>  (49) 
59.66116149311761

>  <Genealogy>  (49) 
C(=C/c1ccc2ccccc2n1)\c1ccsc1 (cis-trans isomerization)
C(=C/c1ccc2ccccc2n1)\c1ccsc1 (3D coordinates assigned)
C(=C/c1ccc2ccccc2n1)\c1ccsc1 (optimized conformer: 59.66116149311761 kcal/mol)

>  <smiles>  (49) 
C(=Cc1ccc2ccccc2n1)c1ccsc1

>  <score_type>  (49) 
oracle

>  <origin>  (49) 
adg

>  <m_score__min__energy>  (49) 
-7.9199999999999999

>  <m_primary>  (49) 
energy

$$$$
49:0
     RDKit          3D

 41 43  0  0  0  0  0  0  0  0999 V2000
   -7.4738   24.5605  -30.6739 H   0  0  0  0  0  0  0  0  0  0  0  0
   -6.3790   24.5830  -30.5690 C   0  0  0  0  0  0  0  0  0  0  0  0
   -5.5070   24.3450  -31.5740 N   0  0  0  0  0  0  0  0  0  0  0  0
   -4.2290   24.4330  -31.2070 N   0  0  0  0  0  0  0  0  0  0  0  0
   -4.0700   24.7520  -29.9050 C   0  0  0  0  0  0  0  0  0  0  0  0
   -2.8950   24.8380  -29.3550 N   0  0  0  0  0  0  0  0  0  0  0  0
   -1.8760   23.8280  -29.3360 C   0  0  0  0  0  0  0  0  0  0  0  0
   -0.7100   24.1580  -28.9910 O   0  0  0  0  0  0  0  0  0  0  0  0
   -2.2070   22.3610  -29.5030 C   0  0  0  0  0  0  0  0  0  0  0  0
   -1.2681   21.7882  -29.5209 H   0  0  0  0  0  0  0  0  0  0  0  0
   -2.8471   22.0665  -28.6583 H   0  0  0  0  0  0  0  0  0  0  0  0
   -2.9570   22.0820  -30.7520 N   0  0  1  0  0  0  0  0  0  0  0  0
   -3.5660   22.9080  -30.9570 H   0  0  0  0  0  0  0  0  0  0  0  0
   -2.0030   21.9320  -31.8840 C   0  0  0  0  0  0  0  0  0  0  0  0
   -1.6877   22.9343  -32.2094 H   0  0  0  0  0  0  0  0  0  0  0  0
   -1.1587   21.3285  -31.5193 H   0  0  0  0  0  0  0  0  0  0  0  0
   -2.6030   21.1900  -33.0970 C   0  0  0  0  0  0  0  0  0  0  0  0
   -2.1944   21.6260  -34.0205 H   0  0  0  0  0  0  0  0  0  0  0  0
   -2.3381   20.1255  -33.0158 H   0  0  0  0  0  0  0  0  0  0  0  0
   -4.1280   21.3040  -33.1260 C   0  0  0  0  0  0  0  0  0  0  0  0
   -4.4031   22.3651  -33.2172 H   0  0  0  0  0  0  0  0  0  0  0  0
   -4.4959   20.7223  -33.9841 H   0  0  0  0  0  0  0  0  0  0  0  0
   -4.7850   20.7210  -31.8290 C   0  0  0  0  0  0  0  0  0  0  0  0
   -6.1020   21.4870  -31.5240 C   0  0  0  0  0  0  0  0  0  0  0  0
   -6.5142   21.1144  -30.5746 H   0  0  0  0  0  0  0  0  0  0  0  0
   -5.8585   22.5583  -31.4687 H   0  0  0  0  0  0  0  0  0  0  0  0
   -7.1670   21.3060  -32.6310 C   0  0  0  0  0  0  0  0  0  0  0  0
   -8.1571   21.2344  -32.1570 H   0  0  0  0  0  0  0  0  0  0  0  0
   -7.0959   22.1746  -33.3022 H   0  0  0  0  0  0  0  0  0  0  0  0
   -6.9480   20.0990  -33.4460 N   0  0  0  0  0  0  0  0  0  0  0  0
   -7.8530   19.8490  -33.9070 H   0  0  0  0  0  0  0  0  0  0  0  0
   -6.5280   18.9640  -32.6180 C   0  0  0  0  0  0  0  0  0  0  0  0
   -7.2498   18.8286  -31.7991 H   0  0  0  0  0  0  0  0  0  0  0  0
   -6.4899   18.0633  -33.2483 H   0  0  0  0  0  0  0  0  0  0  0  0
   -5.1260   19.2090  -32.0210 C   0  0  0  0  0  0  0  0  0  0  0  0
   -5.0739   18.7133  -31.0404 H   0  0  0  0  0  0  0  0  0  0  0  0
   -4.3951   18.8011  -32.7347 H   0  0  0  0  0  0  0  0  0  0  0  0
   -3.8030   20.8730  -30.6200 C   0  0  0  0  0  0  0  0  0  0  0  0
   -4.3886   20.9469  -29.6918 H   0  0  0  0  0  0  0  0  0  0  0  0
   -3.1437   19.9927  -30.6001 H   0  0  0  0  0  0  0  0  0  0  0  0
   -5.5620   24.9190  -29.1330 S   0  0  0  0  0  0  0  0  0  0  0  0
  1  2  1  0
  2  3  2  0
  3  4  1  0
  4  5  1  0
  5  6  2  0
  6  7  1  0
  7  8  2  0
  7  9  1  0
  9 10  1  0
  9 11  1  0
  9 12  1  0
 12 13  1  6
 12 14  1  0
 14 15  1  0
 14 16  1  0
 14 17  1  0
 17 18  1  0
 17 19  1  0
 17 20  1  0
 20 21  1  0
 20 22  1  0
 20 23  1  0
 23 24  1  0
 24 25  1  0
 24 26  1  0
 24 27  1  0
 27 28  1  0
 27 29  1  0
 27 30  1  0
 30 31  1  0
 30 32  1  0
 32 33  1  0
 32 34  1  0
 32 35  1  0
 35 36  1  0
 35 37  1  0
 23 38  1  0
 38 39  1  0
 38 40  1  0
  5 41  1  0
 41  2  1  0
 38 12  1  0
 35 23  1  0
M  CHG  2   4  -1  12   1
M  END
>  <UniqueID>  (50) 
45

>  <SMILES>  (50) 
O=C(C[N@H+]1CCCC2(CCNCC2)C1)/N=c1/[n-]ncs1

>  <Energy>  (50) 
97.82514236063659

>  <Genealogy>  (50) 
O=C(C[NH+]1CCCC2(CCNCC2)C1)N=c1[n-]ncs1 (protonated)
O=C(C[N@H+]1CCCC2(CCNCC2)C1)N=c1[n-]ncs1 (chirality)
O=C(C[N@H+]1CCCC2(CCNCC2)C1)/N=c1/[n-]ncs1 (cis-trans isomerization)
O=C(C[N@H+]1CCCC2(CCNCC2)C1)/N=c1/[n-]ncs1 (3D coordinates assigned)
O=C(C[N@H+]1CCCC2(CCNCC2)C1)/N=c1/[n-]ncs1 (nonaromatic ring conformer: 97.82514236063659 kcal/mol)

>  <smiles>  (50) 
O=C(CN1CCCC2(CCNCC2)C1)N=c1[nH]ncs1

>  <score_type>  (50) 
oracle

>  <origin>  (50) 
adg

>  <m_score__min__energy>  (50) 
-8.3300000000000001

>  <m_primary>  (50) 
energy

$$$$
