0:0
     RDKit          3D

 51 53  0  0  0  0  0  0  0  0999 V2000
   -1.6490   25.2710  -27.3720 C   0  0  0  0  0  0  0  0  0  0  0  0
   -2.0410   25.3220  -28.7400 O   0  0  0  0  0  0  0  0  0  0  0  0
   -2.4550   24.2110  -29.4910 C   0  0  0  0  0  0  0  0  0  0  0  0
   -1.8650   22.9270  -29.3170 C   0  0  0  0  0  0  0  0  0  0  0  0
   -2.2960   21.8300  -30.0800 C   0  0  0  0  0  0  0  0  0  0  0  0
   -3.3100   22.0450  -31.0100 C   0  0  0  0  0  0  0  0  0  0  0  0
   -3.8910   23.2690  -31.1840 C   0  0  0  0  0  0  0  0  0  0  0  0
   -4.8610   23.1880  -32.1180 N   0  0  0  0  0  0  0  0  0  0  0  0
   -4.8340   21.8840  -32.4910 C   0  0  0  0  0  0  0  0  0  0  0  0
   -3.8910   21.1630  -31.8400 N   0  0  0  0  0  0  0  0  0  0  0  0
   -3.6550   19.7250  -31.9510 C   0  0  0  0  0  0  0  0  0  0  0  0
   -4.1660   19.2110  -33.3030 C   0  0  0  0  0  0  0  0  0  0  0  0
   -5.2820   18.1430  -33.1740 C   0  0  0  0  0  0  0  0  0  0  0  0
   -5.7800   18.0470  -31.7030 C   0  0  0  0  0  0  0  0  0  0  0  0
   -7.1190   18.7660  -31.4510 C   0  0  0  0  0  0  0  0  0  0  0  0
   -7.2770   19.9170  -32.3530 N   0  0  0  0  0  0  0  0  0  0  0  0
   -7.6110   21.2300  -31.8600 C   0  0  0  0  0  0  0  0  0  0  0  0
   -8.2630   22.0220  -32.5960 O   0  0  0  0  0  0  0  0  0  0  0  0
   -7.2150   21.6740  -30.4770 C   0  0  0  0  0  0  0  0  0  0  0  0
   -6.9070   23.1010  -30.4570 N   0  0  0  0  0  0  0  0  0  0  0  0
   -7.1950   19.6990  -33.8050 C   0  0  0  0  0  0  0  0  0  0  0  0
   -6.4710   18.3850  -34.1330 C   0  0  0  0  0  0  0  0  0  0  0  0
   -3.4880   24.3920  -30.4380 C   0  0  0  0  0  0  0  0  0  0  0  0
   -4.0530   25.6710  -30.5800 O   0  0  0  0  0  0  0  0  0  0  0  0
   -5.4370   25.9760  -30.4550 C   0  0  0  0  0  0  0  0  0  0  0  0
   -2.5361   25.3864  -26.7318 H   0  0  0  0  0  0  0  0  0  0  0  0
   -1.1699   24.3030  -27.1637 H   0  0  0  0  0  0  0  0  0  0  0  0
   -0.9382   26.0842  -27.1637 H   0  0  0  0  0  0  0  0  0  0  0  0
   -1.0626   22.7929  -28.5766 H   0  0  0  0  0  0  0  0  0  0  0  0
   -1.8478   20.8342  -29.9476 H   0  0  0  0  0  0  0  0  0  0  0  0
   -5.5098   21.4558  -33.2459 H   0  0  0  0  0  0  0  0  0  0  0  0
   -2.5762   19.5258  -31.8699 H   0  0  0  0  0  0  0  0  0  0  0  0
   -4.1923   19.2080  -31.1423 H   0  0  0  0  0  0  0  0  0  0  0  0
   -4.5638   20.0639  -33.8725 H   0  0  0  0  0  0  0  0  0  0  0  0
   -3.3157   18.7322  -33.8107 H   0  0  0  0  0  0  0  0  0  0  0  0
   -4.8309   17.1844  -33.4701 H   0  0  0  0  0  0  0  0  0  0  0  0
   -5.9037   16.9843  -31.4475 H   0  0  0  0  0  0  0  0  0  0  0  0
   -5.0259   18.5460  -31.0766 H   0  0  0  0  0  0  0  0  0  0  0  0
   -7.9445   18.0593  -31.6216 H   0  0  0  0  0  0  0  0  0  0  0  0
   -7.1316   19.1298  -30.4130 H   0  0  0  0  0  0  0  0  0  0  0  0
   -8.0450   21.4748  -29.7832 H   0  0  0  0  0  0  0  0  0  0  0  0
   -6.3174   21.1161  -30.1719 H   0  0  0  0  0  0  0  0  0  0  0  0
   -5.9060   23.2060  -30.1740 H   0  0  0  0  0  0  0  0  0  0  0  0
   -6.9790   23.4630  -31.4370 H   0  0  0  0  0  0  0  0  0  0  0  0
   -8.2132   19.6599  -34.2193 H   0  0  0  0  0  0  0  0  0  0  0  0
   -6.6253   20.5289  -34.2486 H   0  0  0  0  0  0  0  0  0  0  0  0
   -7.1822   17.5511  -34.0392 H   0  0  0  0  0  0  0  0  0  0  0  0
   -6.0809   18.4508  -35.1594 H   0  0  0  0  0  0  0  0  0  0  0  0
   -5.7047   26.0350  -29.3897 H   0  0  0  0  0  0  0  0  0  0  0  0
   -5.6449   26.9415  -30.9393 H   0  0  0  0  0  0  0  0  0  0  0  0
   -6.0315   25.1873  -30.9393 H   0  0  0  0  0  0  0  0  0  0  0  0
  1  2  1  0
  2  3  1  0
  3  4  2  0
  4  5  1  0
  5  6  2  0
  6  7  1  0
  7  8  1  0
  8  9  2  0
  9 10  1  0
 10 11  1  0
 11 12  1  0
 12 13  1  0
 13 14  1  0
 14 15  1  0
 15 16  1  0
 16 17  1  0
 17 18  2  0
 17 19  1  0
 19 20  1  0
 16 21  1  0
 21 22  1  0
  7 23  2  0
 23 24  1  0
 24 25  1  0
 23  3  1  0
 10  6  1  0
 22 13  1  0
  1 26  1  0
  1 27  1  0
  1 28  1  0
  4 29  1  0
  5 30  1  0
  9 31  1  0
 11 32  1  0
 11 33  1  0
 12 34  1  0
 12 35  1  0
 13 36  1  0
 14 37  1  0
 14 38  1  0
 15 39  1  0
 15 40  1  0
 19 41  1  0
 19 42  1  0
 20 43  1  0
 20 44  1  0
 21 45  1  0
 21 46  1  0
 22 47  1  0
 22 48  1  0
 25 49  1  0
 25 50  1  0
 25 51  1  0
M  END
>  <UniqueID>  (1) 
1

>  <SMILES>  (1) 
COc1ccc2c(ncn2CCC2CCN(C(=O)CN)CC2)c1OC

>  <Energy>  (1) 
88.44371483449036

>  <Genealogy>  (1) 
COc1ccc2c(ncn2CCC2CCN(C(=O)CN)CC2)c1OC (3D coordinates assigned)
COc1ccc2c(ncn2CCC2CCN(C(=O)CN)CC2)c1OC (nonaromatic ring conformer: 88.44371483449036 kcal/mol)

>  <smiles>  (1) 
COc1ccc2c(ncn2CCC2CCN(C(=O)CN)CC2)c1OC

>  <score_type>  (1) 
oracle

>  <origin>  (1) 
adg

>  <m_score__min__energy>  (1) 
-7.4400000000000004

>  <m_primary>  (1) 
energy

$$$$
1:0
     RDKit          3D

 49 50  0  0  1  0  0  0  0  0999 V2000
   -6.4460   25.6720  -29.3540 C   0  0  0  0  0  0  0  0  0  0  0  0
   -5.5520   25.4760  -30.5450 C   0  0  0  0  0  0  0  0  0  0  0  0
   -4.8880   24.1820  -30.5340 N   0  0  0  0  0  0  0  0  0  0  0  0
   -3.6690   24.0510  -29.7460 C   0  0  0  0  0  0  0  0  0  0  0  0
   -5.4420   23.1070  -31.2830 C   0  0  0  0  0  0  0  0  0  0  0  0
   -6.7940   22.9220  -31.1950 N   0  0  0  0  0  0  0  0  0  0  0  0
   -7.3500   21.9190  -31.8930 C   0  0  0  0  0  0  0  0  0  0  0  0
   -6.5370   21.0940  -32.6850 C   0  0  0  0  0  0  0  0  0  0  0  0
   -5.1910   21.3120  -32.7450 C   0  0  0  0  0  0  0  0  0  0  0  0
   -4.4590   20.5650  -33.4600 N   0  0  0  0  0  0  0  0  0  0  0  0
   -3.6230   19.5220  -33.0020 C   0  0  0  0  0  0  0  0  0  0  0  0
   -2.5500   20.0030  -32.0460 C   0  0  0  0  0  0  0  0  0  0  0  0
   -1.9340   21.2300  -32.3500 N   0  0  0  0  0  0  0  0  0  0  0  0
   -1.0280   21.2300  -33.4670 C   0  0  0  0  0  0  0  0  0  0  0  0
   -1.2300   21.7280  -31.1870 C   0  0  0  0  0  0  0  0  0  0  0  0
   -4.6700   22.3220  -32.0360 N   0  0  0  0  0  0  0  0  0  0  0  0
   -7.2550   20.0230  -33.4170 C   0  0  0  0  0  0  0  0  0  0  0  0
   -8.1030   19.3430  -32.4910 N   0  0  0  0  0  0  0  0  0  0  0  0
   -7.5030   18.3520  -31.6780 C   0  0  0  0  0  0  0  0  0  0  0  0
   -9.1170   20.1460  -31.9620 C   0  0  0  0  0  0  0  0  0  0  0  0
   -8.7870   21.5960  -31.8990 C   0  0  0  0  0  0  0  0  0  0  0  0
   -5.8610   25.5437  -28.4313 H   0  0  0  0  0  0  0  0  0  0  0  0
   -6.8735   26.6852  -29.3792 H   0  0  0  0  0  0  0  0  0  0  0  0
   -7.2582   24.9306  -29.3792 H   0  0  0  0  0  0  0  0  0  0  0  0
   -6.1593   25.5535  -31.4589 H   0  0  0  0  0  0  0  0  0  0  0  0
   -4.7734   26.2523  -30.5108 H   0  0  0  0  0  0  0  0  0  0  0  0
   -3.9198   24.0780  -28.6753 H   0  0  0  0  0  0  0  0  0  0  0  0
   -3.1795   23.0951  -29.9840 H   0  0  0  0  0  0  0  0  0  0  0  0
   -2.9876   24.8811  -29.9840 H   0  0  0  0  0  0  0  0  0  0  0  0
   -4.2442   18.7754  -32.4856 H   0  0  0  0  0  0  0  0  0  0  0  0
   -3.1158   19.0957  -33.8801 H   0  0  0  0  0  0  0  0  0  0  0  0
   -3.0093   20.0986  -31.0511 H   0  0  0  0  0  0  0  0  0  0  0  0
   -1.7476   19.2536  -32.1131 H   0  0  0  0  0  0  0  0  0  0  0  0
   -0.7970   20.1929  -33.7518 H   0  0  0  0  0  0  0  0  0  0  0  0
   -1.4946   21.7485  -34.3175 H   0  0  0  0  0  0  0  0  0  0  0  0
   -0.0995   21.7485  -33.1860 H   0  0  0  0  0  0  0  0  0  0  0  0
   -1.7318   21.3730  -30.2748 H   0  0  0  0  0  0  0  0  0  0  0  0
   -0.1930   21.3614  -31.2013 H   0  0  0  0  0  0  0  0  0  0  0  0
   -1.2303   22.8279  -31.2013 H   0  0  0  0  0  0  0  0  0  0  0  0
   -3.6610   22.5100  -32.0640 H   0  0  0  0  0  0  0  0  0  0  0  0
   -7.8606   20.4637  -34.2226 H   0  0  0  0  0  0  0  0  0  0  0  0
   -6.5367   19.3193  -33.8629 H   0  0  0  0  0  0  0  0  0  0  0  0
   -7.6561   18.6049  -30.6185 H   0  0  0  0  0  0  0  0  0  0  0  0
   -7.9616   17.3753  -31.8918 H   0  0  0  0  0  0  0  0  0  0  0  0
   -6.4250   18.3056  -31.8918 H   0  0  0  0  0  0  0  0  0  0  0  0
  -10.0132   20.0246  -32.5882 H   0  0  0  0  0  0  0  0  0  0  0  0
   -9.2690   19.8145  -30.9242 H   0  0  0  0  0  0  0  0  0  0  0  0
   -9.2408   22.0853  -32.7735 H   0  0  0  0  0  0  0  0  0  0  0  0
   -9.1813   21.9542  -30.9366 H   0  0  0  0  0  0  0  0  0  0  0  0
  1  2  1  0
  2  3  1  0
  3  4  1  0
  3  5  1  0
  5  6  2  0
  6  7  1  0
  7  8  2  0
  8  9  1  0
  9 10  2  0
 10 11  1  0
 11 12  1  0
 12 13  1  0
 13 14  1  0
 13 15  1  0
  9 16  1  0
  8 17  1  0
 17 18  1  0
 18 19  1  0
 18 20  1  0
 20 21  1  0
 16  5  1  0
 21  7  1  0
  1 22  1  0
  1 23  1  0
  1 24  1  0
  2 25  1  0
  2 26  1  0
  4 27  1  0
  4 28  1  0
  4 29  1  0
 11 30  1  0
 11 31  1  0
 12 32  1  0
 12 33  1  0
 14 34  1  0
 14 35  1  0
 14 36  1  0
 15 37  1  0
 15 38  1  0
 15 39  1  0
 16 40  1  0
 17 41  1  0
 17 42  1  0
 19 43  1  0
 19 44  1  0
 19 45  1  0
 20 46  1  0
 20 47  1  0
 21 48  1  0
 21 49  1  0
M  END
>  <smiles>  (2) 
CCN(C)c1nc2c(c(=NCCN(C)C)[nH]1)CN(C)CC2

>  <score_type>  (2) 
oracle

>  <origin>  (2) 
adg

>  <m_score__min__energy>  (2) 
-6.0099999999999998

>  <m_primary>  (2) 
energy

$$$$
2:0
     RDKit          3D

 53 55  0  0  0  0  0  0  0  0999 V2000
   -0.0990   28.9460  -24.4920 C   0  0  0  0  0  0  0  0  0  0  0  0
   -0.3850   27.4840  -24.4970 C   0  0  0  0  0  0  0  0  0  0  0  0
   -0.0680   26.6490  -23.4880 N   0  0  0  0  0  0  0  0  0  0  0  0
   -0.4590   25.4500  -23.8880 N   0  0  0  0  0  0  0  0  0  0  0  0
   -0.9920   25.5850  -25.1200 C   0  0  0  0  0  0  0  0  0  0  0  0
   -1.5530   24.4910  -25.9470 C   0  0  0  0  0  0  0  0  0  0  0  0
   -0.9200   23.2370  -25.9530 C   0  0  0  0  0  0  0  0  0  0  0  0
   -1.4320   22.1870  -26.7190 C   0  0  0  0  0  0  0  0  0  0  0  0
   -2.5810   22.3760  -27.4890 C   0  0  0  0  0  0  0  0  0  0  0  0
   -3.2250   23.6220  -27.5010 C   0  0  0  0  0  0  0  0  0  0  0  0
   -4.4790   23.8120  -28.3170 C   0  0  0  0  0  0  0  0  0  0  0  0
   -4.2190   24.6340  -29.5230 N   0  0  0  0  0  0  0  0  0  0  0  0
   -5.4750   24.9750  -30.2400 C   0  0  0  0  0  0  0  0  0  0  0  0
   -5.7410   24.1330  -31.5060 C   0  0  0  0  0  0  0  0  0  0  0  0
   -5.0950   22.8170  -31.4260 N   0  0  0  0  0  0  0  0  0  0  0  0
   -5.7690   21.6380  -31.9030 C   0  0  0  0  0  0  0  0  0  0  0  0
   -5.1730   20.5260  -31.8820 O   0  0  0  0  0  0  0  0  0  0  0  0
   -7.0840   21.7320  -32.3880 O   0  0  0  0  0  0  0  0  0  0  0  0
   -8.2770   21.8610  -31.6010 C   0  0  0  0  0  0  0  0  0  0  0  0
   -9.1020   20.5840  -31.8160 C   0  0  0  0  0  0  0  0  0  0  0  0
   -9.1060   23.0740  -32.0660 C   0  0  0  0  0  0  0  0  0  0  0  0
   -7.9280   21.9820  -30.1040 C   0  0  0  0  0  0  0  0  0  0  0  0
   -3.6790   22.7370  -31.0500 C   0  0  0  0  0  0  0  0  0  0  0  0
   -3.2000   24.0540  -30.4250 C   0  0  0  0  0  0  0  0  0  0  0  0
   -2.7080   24.6760  -26.7280 C   0  0  0  0  0  0  0  0  0  0  0  0
   -0.9440   26.8410  -25.4970 O   0  0  0  0  0  0  0  0  0  0  0  0
   -0.0293   29.3024  -23.4537 H   0  0  0  0  0  0  0  0  0  0  0  0
    0.8532   29.1351  -25.0093 H   0  0  0  0  0  0  0  0  0  0  0  0
   -0.9097   29.4800  -25.0093 H   0  0  0  0  0  0  0  0  0  0  0  0
   -0.3470   24.5820  -23.3210 H   0  0  0  0  0  0  0  0  0  0  0  0
   -0.0137   23.0806  -25.3496 H   0  0  0  0  0  0  0  0  0  0  0  0
   -0.9286   21.2089  -26.7154 H   0  0  0  0  0  0  0  0  0  0  0  0
   -2.9825   21.5454  -28.0881 H   0  0  0  0  0  0  0  0  0  0  0  0
   -4.8556   22.8268  -28.6295 H   0  0  0  0  0  0  0  0  0  0  0  0
   -5.2214   24.3338  -27.6953 H   0  0  0  0  0  0  0  0  0  0  0  0
   -6.3165   24.8278  -29.5470 H   0  0  0  0  0  0  0  0  0  0  0  0
   -5.3694   26.0173  -30.5753 H   0  0  0  0  0  0  0  0  0  0  0  0
   -6.8260   23.9917  -31.6191 H   0  0  0  0  0  0  0  0  0  0  0  0
   -5.3222   24.6696  -32.3701 H   0  0  0  0  0  0  0  0  0  0  0  0
   -9.3778   20.1571  -30.8405 H   0  0  0  0  0  0  0  0  0  0  0  0
  -10.0140   20.8274  -32.3808 H   0  0  0  0  0  0  0  0  0  0  0  0
   -8.5052   19.8527  -32.3808 H   0  0  0  0  0  0  0  0  0  0  0  0
   -9.4798   23.6210  -31.1879 H   0  0  0  0  0  0  0  0  0  0  0  0
   -8.4734   23.7402  -32.6710 H   0  0  0  0  0  0  0  0  0  0  0  0
   -9.9565   22.7267  -32.6710 H   0  0  0  0  0  0  0  0  0  0  0  0
   -8.7963   21.6809  -29.4996 H   0  0  0  0  0  0  0  0  0  0  0  0
   -7.0751   21.3271  -29.8722 H   0  0  0  0  0  0  0  0  0  0  0  0
   -7.6635   23.0243  -29.8722 H   0  0  0  0  0  0  0  0  0  0  0  0
   -3.5458   21.9238  -30.3213 H   0  0  0  0  0  0  0  0  0  0  0  0
   -3.0864   22.5436  -31.9564 H   0  0  0  0  0  0  0  0  0  0  0  0
   -2.2822   23.8625  -29.8497 H   0  0  0  0  0  0  0  0  0  0  0  0
   -3.0133   24.7713  -31.2378 H   0  0  0  0  0  0  0  0  0  0  0  0
   -3.2112   25.6542  -26.7339 H   0  0  0  0  0  0  0  0  0  0  0  0
  1  2  1  0
  2  3  2  0
  3  4  1  0
  4  5  2  0
  5  6  1  0
  6  7  2  0
  7  8  1  0
  8  9  2  0
  9 10  1  0
 10 11  1  0
 11 12  1  0
 12 13  1  0
 13 14  1  0
 14 15  1  0
 15 16  1  0
 16 17  2  0
 16 18  1  0
 18 19  1  0
 19 20  1  0
 19 21  1  0
 19 22  1  0
 15 23  1  0
 23 24  1  0
 10 25  2  0
  5 26  1  0
 26  2  1  0
 25  6  1  0
 24 12  1  0
  1 27  1  0
  1 28  1  0
  1 29  1  0
  4 30  1  0
  7 31  1  0
  8 32  1  0
  9 33  1  0
 11 34  1  0
 11 35  1  0
 13 36  1  0
 13 37  1  0
 14 38  1  0
 14 39  1  0
 20 40  1  0
 20 41  1  0
 20 42  1  0
 21 43  1  0
 21 44  1  0
 21 45  1  0
 22 46  1  0
 22 47  1  0
 22 48  1  0
 23 49  1  0
 23 50  1  0
 24 51  1  0
 24 52  1  0
 25 53  1  0
M  CHG  1   4   1
M  END
>  <UniqueID>  (3) 
2

>  <SMILES>  (3) 
Cc1n[nH+]c(-c2cccc(CN3CCN(C(=O)OC(C)(C)C)CC3)c2)o1

>  <Energy>  (3) 
91.51730183968496

>  <Genealogy>  (3) 
Cc1n[nH+]c(-c2cccc(CN3CCN(C(=O)OC(C)(C)C)CC3)c2)o1 (protonated)
Cc1n[nH+]c(-c2cccc(CN3CCN(C(=O)OC(C)(C)C)CC3)c2)o1 (3D coordinates assigned)
Cc1n[nH+]c(-c2cccc(CN3CCN(C(=O)OC(C)(C)C)CC3)c2)o1 (nonaromatic ring conformer: 91.51730183968496 kcal/mol)

>  <smiles>  (3) 
Cc1nnc(-c2cccc(CN3CCN(C(=O)OC(C)(C)C)CC3)c2)o1

>  <score_type>  (3) 
oracle

>  <origin>  (3) 
adg

>  <m_score__min__energy>  (3) 
-8.2699999999999996

>  <m_primary>  (3) 
energy

$$$$
3:0
     RDKit          3D

 46 48  0  0  0  0  0  0  0  0999 V2000
   -5.3630   25.2730  -29.7950 C   0  0  0  0  0  0  0  0  0  0  0  0
   -4.5590   24.8360  -30.8680 O   0  0  0  0  0  0  0  0  0  0  0  0
   -4.6470   23.4320  -31.0040 C   0  0  0  0  0  0  0  0  0  0  0  0
   -6.0640   23.0240  -31.2620 C   0  0  0  0  0  0  0  0  0  0  0  0
   -7.0080   23.7730  -31.9350 C   0  0  0  0  0  0  0  0  0  0  0  0
   -8.1480   22.9990  -31.9610 C   0  0  0  0  0  0  0  0  0  0  0  0
   -7.8190   21.8240  -31.3100 C   0  0  0  0  0  0  0  0  0  0  0  0
   -8.7280   20.6390  -31.1230 C   0  0  0  0  0  0  0  0  0  0  0  0
   -8.5570   19.6160  -32.1790 N   0  0  0  0  0  0  0  0  0  0  0  0
   -8.2510   18.2640  -31.6300 C   0  0  0  0  0  0  0  0  0  0  0  0
   -7.2760   17.4450  -32.4940 C   0  0  0  0  0  0  0  0  0  0  0  0
   -6.0760   18.2850  -32.8140 C   0  0  0  0  0  0  0  0  0  0  0  0
   -4.7730   17.7770  -32.7480 C   0  0  0  0  0  0  0  0  0  0  0  0
   -3.6730   18.6140  -33.0200 C   0  0  0  0  0  0  0  0  0  0  0  0
   -2.3500   18.1470  -32.9580 O   0  0  0  0  0  0  0  0  0  0  0  0
   -1.5950   17.7120  -34.0840 C   0  0  0  0  0  0  0  0  0  0  0  0
   -3.8900   19.9600  -33.3620 C   0  0  0  0  0  0  0  0  0  0  0  0
   -2.7730   20.7760  -33.5970 O   0  0  0  0  0  0  0  0  0  0  0  0
   -1.8460   21.1810  -32.5940 C   0  0  0  0  0  0  0  0  0  0  0  0
   -5.2070   20.4500  -33.4620 C   0  0  0  0  0  0  0  0  0  0  0  0
   -6.2930   19.6110  -33.1880 C   0  0  0  0  0  0  0  0  0  0  0  0
   -7.7190   20.0820  -33.3150 C   0  0  0  0  0  0  0  0  0  0  0  0
   -6.5710   21.8670  -30.9050 O   0  0  0  0  0  0  0  0  0  0  0  0
   -4.8787   25.0098  -28.8430 H   0  0  0  0  0  0  0  0  0  0  0  0
   -5.4898   26.3642  -29.8525 H   0  0  0  0  0  0  0  0  0  0  0  0
   -6.3476   24.7859  -29.8525 H   0  0  0  0  0  0  0  0  0  0  0  0
   -4.0170   23.1085  -31.8457 H   0  0  0  0  0  0  0  0  0  0  0  0
   -4.3020   22.9594  -30.0725 H   0  0  0  0  0  0  0  0  0  0  0  0
   -6.8776   24.7784  -32.3618 H   0  0  0  0  0  0  0  0  0  0  0  0
   -9.1186   23.2614  -32.4072 H   0  0  0  0  0  0  0  0  0  0  0  0
   -8.5099   20.1784  -30.1482 H   0  0  0  0  0  0  0  0  0  0  0  0
   -9.7645   21.0033  -31.1778 H   0  0  0  0  0  0  0  0  0  0  0  0
   -7.8076   18.3883  -30.6310 H   0  0  0  0  0  0  0  0  0  0  0  0
   -9.1996   17.7077  -31.6054 H   0  0  0  0  0  0  0  0  0  0  0  0
   -6.9602   16.5474  -31.9421 H   0  0  0  0  0  0  0  0  0  0  0  0
   -7.7741   17.1415  -33.4267 H   0  0  0  0  0  0  0  0  0  0  0  0
   -4.6079   16.7222  -32.4832 H   0  0  0  0  0  0  0  0  0  0  0  0
   -0.6899   17.1905  -33.7393 H   0  0  0  0  0  0  0  0  0  0  0  0
   -2.2043   17.0265  -34.6913 H   0  0  0  0  0  0  0  0  0  0  0  0
   -1.3075   18.5829  -34.6913 H   0  0  0  0  0  0  0  0  0  0  0  0
   -2.2765   20.9929  -31.5994 H   0  0  0  0  0  0  0  0  0  0  0  0
   -0.9133   20.6084  -32.7041 H   0  0  0  0  0  0  0  0  0  0  0  0
   -1.6324   22.2544  -32.7041 H   0  0  0  0  0  0  0  0  0  0  0  0
   -5.3823   21.4953  -33.7564 H   0  0  0  0  0  0  0  0  0  0  0  0
   -7.7301   21.1817  -33.3382 H   0  0  0  0  0  0  0  0  0  0  0  0
   -8.1364   19.6630  -34.2425 H   0  0  0  0  0  0  0  0  0  0  0  0
  1  2  1  0
  2  3  1  0
  3  4  1  0
  4  5  2  0
  5  6  1  0
  6  7  2  0
  7  8  1  0
  8  9  1  0
  9 10  1  0
 10 11  1  0
 11 12  1  0
 12 13  2  0
 13 14  1  0
 14 15  1  0
 15 16  1  0
 14 17  2  0
 17 18  1  0
 18 19  1  0
 17 20  1  0
 20 21  2  0
 21 22  1  0
  7 23  1  0
 23  4  1  0
 22  9  1  0
 21 12  1  0
  1 24  1  0
  1 25  1  0
  1 26  1  0
  3 27  1  0
  3 28  1  0
  5 29  1  0
  6 30  1  0
  8 31  1  0
  8 32  1  0
 10 33  1  0
 10 34  1  0
 11 35  1  0
 11 36  1  0
 13 37  1  0
 16 38  1  0
 16 39  1  0
 16 40  1  0
 19 41  1  0
 19 42  1  0
 19 43  1  0
 20 44  1  0
 22 45  1  0
 22 46  1  0
M  END
>  <UniqueID>  (4) 
3

>  <SMILES>  (4) 
COCc1ccc(CN2CCc3cc(OC)c(OC)cc3C2)o1

>  <Energy>  (4) 
80.0269843616044

>  <Genealogy>  (4) 
COCc1ccc(CN2CCc3cc(OC)c(OC)cc3C2)o1 (3D coordinates assigned)
COCc1ccc(CN2CCc3cc(OC)c(OC)cc3C2)o1 (nonaromatic ring conformer: 80.0269843616044 kcal/mol)

>  <smiles>  (4) 
COCc1ccc(CN2CCc3cc(OC)c(OC)cc3C2)o1

>  <score_type>  (4) 
oracle

>  <origin>  (4) 
adg

>  <m_score__min__energy>  (4) 
-7.29

>  <m_primary>  (4) 
energy

$$$$
4:0
     RDKit          3D

 40 40  0  0  0  0  0  0  0  0999 V2000
   -7.1446   25.0946  -31.5341 H   0  0  0  0  0  0  0  0  0  0  0  0
   -6.2510   24.5110  -31.2680 C   0  0  0  0  0  0  0  0  0  0  0  0
   -5.3360   25.1010  -30.2710 C   0  0  0  0  0  0  0  0  0  0  0  0
   -5.8280   25.6320  -29.2380 O   0  0  0  0  0  0  0  0  0  0  0  0
   -3.9530   25.1190  -30.4780 O   0  0  0  0  0  0  0  0  0  0  0  0
   -3.1140   23.9780  -30.3190 C   0  0  0  0  0  0  0  0  0  0  0  0
   -2.3341   23.9943  -31.0946 H   0  0  0  0  0  0  0  0  0  0  0  0
   -3.7323   23.0731  -30.4125 H   0  0  0  0  0  0  0  0  0  0  0  0
   -2.4450   23.9730  -28.9330 C   0  0  0  0  0  0  0  0  0  0  0  0
   -1.5300   24.5814  -28.9836 H   0  0  0  0  0  0  0  0  0  0  0  0
   -2.2289   22.9254  -28.6765 H   0  0  0  0  0  0  0  0  0  0  0  0
   -3.3210   24.5220  -27.8600 N   0  0  0  0  0  0  0  0  0  0  0  0
   -3.9390   25.2570  -28.2800 H   0  0  0  0  0  0  0  0  0  0  0  0
   -4.2170   23.4630  -27.3250 C   0  0  0  0  0  0  0  0  0  0  0  0
   -5.2470   23.6849  -27.6410 H   0  0  0  0  0  0  0  0  0  0  0  0
   -4.1086   23.4675  -26.2304 H   0  0  0  0  0  0  0  0  0  0  0  0
   -3.8510   22.0530  -27.8120 C   0  0  0  0  0  0  0  0  0  0  0  0
   -3.6810   21.3981  -26.9447 H   0  0  0  0  0  0  0  0  0  0  0  0
   -4.6743   21.6499  -28.4200 H   0  0  0  0  0  0  0  0  0  0  0  0
   -2.9356   22.1012  -28.4200 H   0  0  0  0  0  0  0  0  0  0  0  0
   -2.5130   25.1150  -26.7500 C   0  0  0  0  0  0  0  0  0  0  0  0
   -3.1126   25.8894  -26.2493 H   0  0  0  0  0  0  0  0  0  0  0  0
   -2.2465   24.3052  -26.0549 H   0  0  0  0  0  0  0  0  0  0  0  0
   -1.2130   25.7480  -27.2580 C   0  0  0  0  0  0  0  0  0  0  0  0
   -0.5929   26.0499  -26.4011 H   0  0  0  0  0  0  0  0  0  0  0  0
   -0.6633   25.0167  -27.8688 H   0  0  0  0  0  0  0  0  0  0  0  0
   -1.4497   26.6317  -27.8688 H   0  0  0  0  0  0  0  0  0  0  0  0
   -6.0910   23.3270  -31.8790 C   0  0  0  0  0  0  0  0  0  0  0  0
   -5.1166   23.1313  -32.3504 H   0  0  0  0  0  0  0  0  0  0  0  0
   -7.1120   22.2650  -31.9720 C   0  0  0  0  0  0  0  0  0  0  0  0
   -8.4580   22.5820  -31.7420 C   0  0  0  0  0  0  0  0  0  0  0  0
   -8.7474   23.6220  -31.5308 H   0  0  0  0  0  0  0  0  0  0  0  0
   -9.4350   21.5810  -31.7800 C   0  0  0  0  0  0  0  0  0  0  0  0
  -10.4914   21.8376  -31.6121 H   0  0  0  0  0  0  0  0  0  0  0  0
   -9.0700   20.2560  -32.0310 C   0  0  0  0  0  0  0  0  0  0  0  0
   -9.8403   19.4718  -32.0705 H   0  0  0  0  0  0  0  0  0  0  0  0
   -7.7260   19.9260  -32.2320 C   0  0  0  0  0  0  0  0  0  0  0  0
   -7.2270   18.1140  -32.5670 Br  0  0  0  0  0  0  0  0  0  0  0  0
   -6.7460   20.9230  -32.1860 C   0  0  0  0  0  0  0  0  0  0  0  0
   -5.6866   20.6575  -32.3174 H   0  0  0  0  0  0  0  0  0  0  0  0
  1  2  1  0
  2  3  1  0
  3  4  2  0
  3  5  1  0
  5  6  1  0
  6  7  1  0
  6  8  1  0
  6  9  1  0
  9 10  1  0
  9 11  1  0
  9 12  1  0
 12 13  1  0
 12 14  1  0
 14 15  1  0
 14 16  1  0
 14 17  1  0
 17 18  1  0
 17 19  1  0
 17 20  1  0
 12 21  1  0
 21 22  1  0
 21 23  1  0
 21 24  1  0
 24 25  1  0
 24 26  1  0
 24 27  1  0
  2 28  2  0
 28 29  1  0
 28 30  1  0
 30 31  2  0
 31 32  1  0
 31 33  1  0
 33 34  1  0
 33 35  2  0
 35 36  1  0
 35 37  1  0
 37 38  1  0
 37 39  2  0
 39 40  1  0
 39 30  1  0
M  CHG  1  12   1
M  END
>  <UniqueID>  (5) 
4

>  <SMILES>  (5) 
CC[NH+](CC)CCOC(=O)/C=C\c1cccc(Br)c1

>  <Energy>  (5) 
43.05715064404674

>  <Genealogy>  (5) 
CC[NH+](CC)CCOC(=O)C=Cc1cccc(Br)c1 (protonated)
CC[NH+](CC)CCOC(=O)/C=C\c1cccc(Br)c1 (cis-trans isomerization)
CC[NH+](CC)CCOC(=O)/C=C\c1cccc(Br)c1 (3D coordinates assigned)
CC[NH+](CC)CCOC(=O)/C=C\c1cccc(Br)c1 (optimized conformer: 43.05715064404674 kcal/mol)

>  <smiles>  (5) 
CCN(CC)CCOC(=O)C=Cc1cccc(Br)c1

>  <score_type>  (5) 
oracle

>  <origin>  (5) 
adg

>  <m_score__min__energy>  (5) 
-6.2300000000000004

>  <m_primary>  (5) 
energy

$$$$
5:0
     RDKit          3D

 32 34  0  0  0  0  0  0  0  0999 V2000
   -6.0730   24.9720  -30.4650 C   0  0  0  0  0  0  0  0  0  0  0  0
   -6.4400   23.7450  -30.8450 C   0  0  0  0  0  0  0  0  0  0  0  0
   -6.8090   23.4350  -32.2690 C   0  0  0  0  0  0  0  0  0  0  0  0
   -7.5080   22.1420  -32.3470 N   0  0  0  0  0  0  0  0  0  0  0  0
   -6.8180   21.0630  -32.7460 N   0  0  0  0  0  0  0  0  0  0  0  0
   -7.3880   19.8240  -32.8270 C   0  0  0  0  0  0  0  0  0  0  0  0
   -6.5760   18.6690  -33.2780 C   0  0  0  0  0  0  0  0  0  0  0  0
   -6.8840   17.3160  -33.1140 C   0  0  0  0  0  0  0  0  0  0  0  0
   -5.8300   16.6510  -33.6950 C   0  0  0  0  0  0  0  0  0  0  0  0
   -5.5770   15.2880  -33.8390 C   0  0  0  0  0  0  0  0  0  0  0  0
   -4.3900   14.9090  -34.4930 C   0  0  0  0  0  0  0  0  0  0  0  0
   -3.4960   15.8910  -34.9800 C   0  0  0  0  0  0  0  0  0  0  0  0
   -3.7830   17.2580  -34.8180 C   0  0  0  0  0  0  0  0  0  0  0  0
   -4.9660   17.6020  -34.1660 C   0  0  0  0  0  0  0  0  0  0  0  0
   -5.4220   18.8020  -33.9110 O   0  0  0  0  0  0  0  0  0  0  0  0
   -8.7340   19.6760  -32.4770 C   0  0  0  0  0  0  0  0  0  0  0  0
   -9.4550   20.7850  -32.0530 C   0  0  0  0  0  0  0  0  0  0  0  0
   -8.8270   22.0260  -31.9880 C   0  0  0  0  0  0  0  0  0  0  0  0
   -9.4860   23.0280  -31.5960 O   0  0  0  0  0  0  0  0  0  0  0  0
   -5.8089   25.1667  -29.4151 H   0  0  0  0  0  0  0  0  0  0  0  0
   -6.0349   25.7877  -31.2020 H   0  0  0  0  0  0  0  0  0  0  0  0
   -6.4731   22.9401  -30.0960 H   0  0  0  0  0  0  0  0  0  0  0  0
   -7.4681   24.2273  -32.6535 H   0  0  0  0  0  0  0  0  0  0  0  0
   -5.8909   23.3818  -32.8725 H   0  0  0  0  0  0  0  0  0  0  0  0
   -5.8090   21.1710  -33.0020 H   0  0  0  0  0  0  0  0  0  0  0  0
   -7.7703   16.8808  -32.6292 H   0  0  0  0  0  0  0  0  0  0  0  0
   -6.2806   14.5348  -33.4548 H   0  0  0  0  0  0  0  0  0  0  0  0
   -4.1560   13.8425  -34.6263 H   0  0  0  0  0  0  0  0  0  0  0  0
   -2.5704   15.5834  -35.4886 H   0  0  0  0  0  0  0  0  0  0  0  0
   -3.0962   18.0308  -35.1936 H   0  0  0  0  0  0  0  0  0  0  0  0
   -9.2175   18.6898  -32.5370 H   0  0  0  0  0  0  0  0  0  0  0  0
  -10.5134   20.6836  -31.7709 H   0  0  0  0  0  0  0  0  0  0  0  0
  1  2  2  0
  2  3  1  0
  3  4  1  0
  4  5  1  0
  5  6  2  0
  6  7  1  0
  7  8  2  0
  8  9  1  0
  9 10  2  0
 10 11  1  0
 11 12  2  0
 12 13  1  0
 13 14  2  0
 14 15  1  0
  6 16  1  0
 16 17  2  0
 17 18  1  0
 18 19  2  0
 18  4  1  0
 15  7  1  0
 14  9  1  0
  1 20  1  0
  1 21  1  0
  2 22  1  0
  3 23  1  0
  3 24  1  0
  5 25  1  0
  8 26  1  0
 10 27  1  0
 11 28  1  0
 12 29  1  0
 13 30  1  0
 16 31  1  0
 17 32  1  0
M  CHG  1   5   1
M  END
>  <UniqueID>  (6) 
5

>  <SMILES>  (6) 
C=CCn1[nH+]c(-c2cc3ccccc3o2)ccc1=O

>  <Energy>  (6) 
68.19404830263328

>  <Genealogy>  (6) 
C=CCn1[nH+]c(-c2cc3ccccc3o2)ccc1=O (protonated)
C=CCn1[nH+]c(-c2cc3ccccc3o2)ccc1=O (3D coordinates assigned)
C=CCn1[nH+]c(-c2cc3ccccc3o2)ccc1=O (optimized conformer: 68.19404830263328 kcal/mol)

>  <smiles>  (6) 
C=CCn1nc(-c2cc3ccccc3o2)ccc1=O

>  <score_type>  (6) 
oracle

>  <origin>  (6) 
adg

>  <m_score__min__energy>  (6) 
-6.1399999999999997

>  <m_primary>  (6) 
energy

$$$$
6:0
     RDKit          3D

 49 51  0  0  0  0  0  0  0  0999 V2000
   -5.4780   16.5750  -31.9770 C   0  0  0  0  0  0  0  0  0  0  0  0
   -6.4860   17.4390  -31.2010 C   0  0  0  0  0  0  0  0  0  0  0  0
   -7.2780   18.3670  -32.0430 N   0  0  0  0  0  0  0  0  0  0  0  0
   -8.7380   18.3640  -31.7980 C   0  0  0  0  0  0  0  0  0  0  0  0
   -9.4750   19.5730  -32.3820 C   0  0  0  0  0  0  0  0  0  0  0  0
   -6.8780   18.4760  -33.4620 C   0  0  0  0  0  0  0  0  0  0  0  0
   -6.3360   19.8820  -33.7670 C   0  0  0  0  0  0  0  0  0  0  0  0
   -6.6180   20.8160  -32.6600 N   0  0  0  0  0  0  0  0  0  0  0  0
   -5.4690   21.6510  -32.3740 C   0  0  0  0  0  0  0  0  0  0  0  0
   -4.2070   21.1200  -32.7110 C   0  0  0  0  0  0  0  0  0  0  0  0
   -3.0290   21.7510  -32.3150 C   0  0  0  0  0  0  0  0  0  0  0  0
   -1.6940   21.2080  -32.6510 C   0  0  0  0  0  0  0  0  0  0  0  0
   -1.1120   21.1020  -33.9140 C   0  0  0  0  0  0  0  0  0  0  0  0
    0.1750   20.5490  -33.8880 C   0  0  0  0  0  0  0  0  0  0  0  0
    0.6170   20.2180  -32.6160 C   0  0  0  0  0  0  0  0  0  0  0  0
   -0.5940   20.6150  -31.5230 S   0  0  0  0  0  0  0  0  0  0  0  0
   -3.1070   22.8750  -31.5670 N   0  0  0  0  0  0  0  0  0  0  0  0
   -4.2840   23.4510  -31.2220 C   0  0  0  0  0  0  0  0  0  0  0  0
   -4.2460   24.5590  -30.4420 N   0  0  0  0  0  0  0  0  0  0  0  0
   -5.3650   25.2100  -30.0560 C   0  0  0  0  0  0  0  0  0  0  0  0
   -6.6030   24.7800  -30.5040 C   0  0  0  0  0  0  0  0  0  0  0  0
   -6.7100   23.6620  -31.3510 C   0  0  0  0  0  0  0  0  0  0  0  0
   -8.0820   23.4200  -31.9250 C   0  0  0  0  0  0  0  0  0  0  0  0
   -5.5280   22.9040  -31.6640 C   0  0  0  0  0  0  0  0  0  0  0  0
   -4.8403   16.0284  -31.2667 H   0  0  0  0  0  0  0  0  0  0  0  0
   -6.0208   15.8574  -32.6097 H   0  0  0  0  0  0  0  0  0  0  0  0
   -4.8518   17.2212  -32.6097 H   0  0  0  0  0  0  0  0  0  0  0  0
   -7.1842   16.7675  -30.6798 H   0  0  0  0  0  0  0  0  0  0  0  0
   -5.8973   18.0652  -30.5145 H   0  0  0  0  0  0  0  0  0  0  0  0
   -9.1611   17.4527  -32.2458 H   0  0  0  0  0  0  0  0  0  0  0  0
   -8.8756   18.4064  -30.7075 H   0  0  0  0  0  0  0  0  0  0  0  0
   -9.8573   20.2001  -31.5631 H   0  0  0  0  0  0  0  0  0  0  0  0
   -8.7816   20.1611  -33.0012 H   0  0  0  0  0  0  0  0  0  0  0  0
  -10.3154   19.2261  -33.0012 H   0  0  0  0  0  0  0  0  0  0  0  0
   -6.0951   17.7332  -33.6746 H   0  0  0  0  0  0  0  0  0  0  0  0
   -7.7599   18.2921  -34.0933 H   0  0  0  0  0  0  0  0  0  0  0  0
   -5.2479   19.8220  -33.9171 H   0  0  0  0  0  0  0  0  0  0  0  0
   -6.8333   20.2572  -34.6736 H   0  0  0  0  0  0  0  0  0  0  0  0
   -6.8270   20.2470  -31.8050 H   0  0  0  0  0  0  0  0  0  0  0  0
   -7.4840   21.3670  -32.8110 H   0  0  0  0  0  0  0  0  0  0  0  0
   -4.1512   20.1908  -33.2971 H   0  0  0  0  0  0  0  0  0  0  0  0
   -1.6140   21.4211  -34.8393 H   0  0  0  0  0  0  0  0  0  0  0  0
    0.7794   20.3918  -34.7935 H   0  0  0  0  0  0  0  0  0  0  0  0
    1.5915   19.7728  -32.3665 H   0  0  0  0  0  0  0  0  0  0  0  0
   -5.2930   26.0802  -29.3870 H   0  0  0  0  0  0  0  0  0  0  0  0
   -7.5112   25.3179  -30.1945 H   0  0  0  0  0  0  0  0  0  0  0  0
   -8.8049   23.2925  -31.1058 H   0  0  0  0  0  0  0  0  0  0  0  0
   -8.3773   24.2799  -32.5441 H   0  0  0  0  0  0  0  0  0  0  0  0
   -8.0653   22.5109  -32.5441 H   0  0  0  0  0  0  0  0  0  0  0  0
  1  2  1  0
  2  3  1  0
  3  4  1  0
  4  5  1  0
  3  6  1  0
  6  7  1  0
  7  8  1  0
  8  9  1  0
  9 10  2  0
 10 11  1  0
 11 12  1  0
 12 13  2  0
 13 14  1  0
 14 15  2  0
 15 16  1  0
 11 17  2  0
 17 18  1  0
 18 19  2  0
 19 20  1  0
 20 21  2  0
 21 22  1  0
 22 23  1  0
 22 24  2  0
 24  9  1  0
 16 12  1  0
 24 18  1  0
  1 25  1  0
  1 26  1  0
  1 27  1  0
  2 28  1  0
  2 29  1  0
  4 30  1  0
  4 31  1  0
  5 32  1  0
  5 33  1  0
  5 34  1  0
  6 35  1  0
  6 36  1  0
  7 37  1  0
  7 38  1  0
  8 39  1  0
  8 40  1  0
 10 41  1  0
 13 42  1  0
 14 43  1  0
 15 44  1  0
 20 45  1  0
 21 46  1  0
 23 47  1  0
 23 48  1  0
 23 49  1  0
M  CHG  1   8   1
M  END
>  <UniqueID>  (7) 
6

>  <SMILES>  (7) 
CCN(CC)CC[NH2+]c1cc(-c2cccs2)nc2nccc(C)c12

>  <Energy>  (7) 
102.25371805406265

>  <Genealogy>  (7) 
CCN(CC)CC[NH2+]c1cc(-c2cccs2)nc2nccc(C)c12 (protonated)
CCN(CC)CC[NH2+]c1cc(-c2cccs2)nc2nccc(C)c12 (3D coordinates assigned)
CCN(CC)CC[NH2+]c1cc(-c2cccs2)nc2nccc(C)c12 (optimized conformer: 102.25371805406265 kcal/mol)

>  <smiles>  (7) 
CCN(CC)CCNc1cc(-c2cccs2)nc2nccc(C)c12

>  <score_type>  (7) 
oracle

>  <origin>  (7) 
adg

>  <m_score__min__energy>  (7) 
-7.9500000000000002

>  <m_primary>  (7) 
energy

$$$$
7:0
     RDKit          3D

 38 39  0  0  0  0  0  0  0  0999 V2000
   -2.9520   16.3440  -33.5860 C   0  0  0  0  0  0  0  0  0  0  0  0
   -3.7670   17.5480  -33.8680 N   0  0  0  0  0  0  0  0  0  0  0  0
   -2.8950   18.7470  -33.8780 C   0  0  0  0  0  0  0  0  0  0  0  0
   -4.3760   17.3990  -35.2120 C   0  0  0  0  0  0  0  0  0  0  0  0
   -4.8690   17.6920  -32.8700 C   0  0  0  0  0  0  0  0  0  0  0  0
   -6.1900   18.1450  -33.4650 C   0  0  0  0  0  0  0  0  0  0  0  0
   -7.0830   17.2870  -33.6960 O   0  0  0  0  0  0  0  0  0  0  0  0
   -6.4430   19.5120  -33.8190 N   0  0  0  0  0  0  0  0  0  0  0  0
   -6.6460   20.5910  -32.8920 C   0  0  0  0  0  0  0  0  0  0  0  0
   -7.8750   20.7350  -32.2150 C   0  0  0  0  0  0  0  0  0  0  0  0
   -8.9750   19.8370  -32.4900 C   0  0  0  0  0  0  0  0  0  0  0  0
   -9.8550   19.1180  -32.7090 N   0  0  0  0  0  0  0  0  0  0  0  0
   -8.0420   21.7560  -31.3260 N   0  0  0  0  0  0  0  0  0  0  0  0
   -9.2450   21.8770  -30.6590 O   0  0  0  0  0  0  0  0  0  0  0  0
   -7.0410   22.6560  -31.0970 C   0  0  0  0  0  0  0  0  0  0  0  0
   -7.2050   23.7060  -30.1730 C   0  0  0  0  0  0  0  0  0  0  0  0
   -6.1780   24.6270  -29.9580 C   0  0  0  0  0  0  0  0  0  0  0  0
   -6.3490   25.6330  -29.0650 F   0  0  0  0  0  0  0  0  0  0  0  0
   -4.9790   24.5150  -30.6630 C   0  0  0  0  0  0  0  0  0  0  0  0
   -3.9830   25.4130  -30.4540 F   0  0  0  0  0  0  0  0  0  0  0  0
   -4.8000   23.4820  -31.5840 C   0  0  0  0  0  0  0  0  0  0  0  0
   -5.8240   22.5400  -31.8100 C   0  0  0  0  0  0  0  0  0  0  0  0
   -5.6600   21.5210  -32.7080 N   0  0  0  0  0  0  0  0  0  0  0  0
   -4.4780   21.4350  -33.4220 O   0  0  0  0  0  0  0  0  0  0  0  0
   -2.8609   16.2094  -32.4981 H   0  0  0  0  0  0  0  0  0  0  0  0
   -3.4386   15.4607  -34.0252 H   0  0  0  0  0  0  0  0  0  0  0  0
   -1.9511   16.4676  -34.0252 H   0  0  0  0  0  0  0  0  0  0  0  0
   -2.6752   19.0492  -32.8434 H   0  0  0  0  0  0  0  0  0  0  0  0
   -1.9550   18.5124  -34.3990 H   0  0  0  0  0  0  0  0  0  0  0  0
   -3.4078   19.5690  -34.3990 H   0  0  0  0  0  0  0  0  0  0  0  0
   -5.4395   17.1388  -35.1059 H   0  0  0  0  0  0  0  0  0  0  0  0
   -4.2836   18.3463  -35.7635 H   0  0  0  0  0  0  0  0  0  0  0  0
   -3.8567   16.6014  -35.7635 H   0  0  0  0  0  0  0  0  0  0  0  0
   -5.0250   16.7172  -32.3849 H   0  0  0  0  0  0  0  0  0  0  0  0
   -4.5555   18.4738  -32.1626 H   0  0  0  0  0  0  0  0  0  0  0  0
   -8.1491   23.8012  -29.6166 H   0  0  0  0  0  0  0  0  0  0  0  0
   -3.8529   23.4022  -32.1377 H   0  0  0  0  0  0  0  0  0  0  0  0
   -4.3230   21.9440  -34.2840 H   0  0  0  0  0  0  0  0  0  0  0  0
  1  2  1  0
  2  3  1  0
  2  4  1  0
  2  5  1  0
  5  6  1  0
  6  7  2  0
  6  8  1  0
  8  9  1  0
  9 10  2  0
 10 11  1  0
 11 12  3  0
 10 13  1  0
 13 14  1  0
 13 15  2  0
 15 16  1  0
 16 17  2  0
 17 18  1  0
 17 19  1  0
 19 20  1  0
 19 21  2  0
 21 22  1  0
 22 23  2  0
 23 24  1  0
 23  9  1  0
 22 15  1  0
  1 25  1  0
  1 26  1  0
  1 27  1  0
  3 28  1  0
  3 29  1  0
  3 30  1  0
  4 31  1  0
  4 32  1  0
  4 33  1  0
  5 34  1  0
  5 35  1  0
 16 36  1  0
 21 37  1  0
 24 38  1  0
M  CHG  5   2   1   8  -1  13   1  14  -1  23   1
M  END
>  <UniqueID>  (8) 
7

>  <SMILES>  (8) 
C[N+](C)(C)CC(=O)[N-]c1c(C#N)[n+]([O-])c2cc(F)c(F)cc2[n+]1O

>  <Energy>  (8) 
57.67822393866731

>  <Genealogy>  (8) 
C[N+](C)(C)CC(=O)[N-]c1c(C#N)[n+]([O-])c2cc(F)c(F)cc2[n+]1O (protonated)
C[N+](C)(C)CC(=O)[N-]c1c(C#N)[n+]([O-])c2cc(F)c(F)cc2[n+]1O (3D coordinates assigned)
C[N+](C)(C)CC(=O)[N-]c1c(C#N)[n+]([O-])c2cc(F)c(F)cc2[n+]1O (optimized conformer: 57.67822393866731 kcal/mol)

>  <smiles>  (8) 
C[N+](C)(C)CC(=O)Nc1c(C#N)[n+]([O-])c2cc(F)c(F)cc2[n+]1[O-]

>  <score_type>  (8) 
oracle

>  <origin>  (8) 
adg

>  <m_score__min__energy>  (8) 
-5.9800000000000004

>  <m_primary>  (8) 
energy

$$$$
8:0
     RDKit          3D

 43 45  0  0  0  0  0  0  0  0999 V2000
   -4.9451   20.4545  -31.2581 H   0  0  0  0  0  0  0  0  0  0  0  0
   -4.7770   21.3530  -31.8700 C   0  0  0  0  0  0  0  0  0  0  0  0
   -4.2640   21.1890  -33.0940 C   0  0  0  0  0  0  0  0  0  0  0  0
   -4.5106   21.9171  -33.8808 H   0  0  0  0  0  0  0  0  0  0  0  0
   -3.3740   20.0540  -33.4160 C   0  0  0  0  0  0  0  0  0  0  0  0
   -3.7540   18.9000  -34.0210 N   0  0  0  0  0  0  0  0  0  0  0  0
   -5.0590   18.5450  -34.5940 C   0  0  0  0  0  0  0  0  0  0  0  0
   -5.6249   19.4672  -34.7923 H   0  0  0  0  0  0  0  0  0  0  0  0
   -4.8859   17.9836  -35.5240 H   0  0  0  0  0  0  0  0  0  0  0  0
   -5.8710   17.6570  -33.6400 C   0  0  0  0  0  0  0  0  0  0  0  0
   -6.3036   16.8222  -34.2110 H   0  0  0  0  0  0  0  0  0  0  0  0
   -5.1947   17.2879  -32.8549 H   0  0  0  0  0  0  0  0  0  0  0  0
   -6.9840   18.4250  -32.9790 C   0  0  0  0  0  0  0  0  0  0  0  0
   -7.7480   17.8320  -31.9590 C   0  0  0  0  0  0  0  0  0  0  0  0
   -7.5593   16.7877  -31.6695 H   0  0  0  0  0  0  0  0  0  0  0  0
   -8.7470   18.5650  -31.3110 C   0  0  0  0  0  0  0  0  0  0  0  0
   -9.3426   18.0960  -30.5140 H   0  0  0  0  0  0  0  0  0  0  0  0
   -8.9900   19.8920  -31.6740 C   0  0  0  0  0  0  0  0  0  0  0  0
   -9.7765   20.4668  -31.1631 H   0  0  0  0  0  0  0  0  0  0  0  0
   -8.2340   20.4890  -32.6860 C   0  0  0  0  0  0  0  0  0  0  0  0
   -8.4271   21.5334  -32.9721 H   0  0  0  0  0  0  0  0  0  0  0  0
   -7.2320   19.7610  -33.3360 C   0  0  0  0  0  0  0  0  0  0  0  0
   -6.6362   20.2361  -34.1293 H   0  0  0  0  0  0  0  0  0  0  0  0
   -2.6130   18.2020  -34.2100 C   0  0  0  0  0  0  0  0  0  0  0  0
   -2.5382   17.2142  -34.6883 H   0  0  0  0  0  0  0  0  0  0  0  0
   -1.5580   18.9310  -33.7050 C   0  0  0  0  0  0  0  0  0  0  0  0
   -0.5023   18.6219  -33.7078 H   0  0  0  0  0  0  0  0  0  0  0  0
   -2.0390   20.0850  -33.2080 N   0  0  0  0  0  0  0  0  0  0  0  0
   -1.2500   21.1830  -32.6590 C   0  0  0  0  0  0  0  0  0  0  0  0
   -1.2794   21.1420  -31.5602 H   0  0  0  0  0  0  0  0  0  0  0  0
   -0.2085   21.0932  -33.0015 H   0  0  0  0  0  0  0  0  0  0  0  0
   -1.6673   22.1414  -33.0015 H   0  0  0  0  0  0  0  0  0  0  0  0
   -5.1340   22.6680  -31.2840 C   0  0  0  0  0  0  0  0  0  0  0  0
   -4.1690   23.5770  -30.8050 C   0  0  0  0  0  0  0  0  0  0  0  0
   -3.1002   23.3243  -30.8660 H   0  0  0  0  0  0  0  0  0  0  0  0
   -4.5660   24.8000  -30.2520 C   0  0  0  0  0  0  0  0  0  0  0  0
   -3.8076   25.5070  -29.8845 H   0  0  0  0  0  0  0  0  0  0  0  0
   -5.9200   25.1260  -30.1650 C   0  0  0  0  0  0  0  0  0  0  0  0
   -6.2272   26.0905  -29.7344 H   0  0  0  0  0  0  0  0  0  0  0  0
   -6.8850   24.2270  -30.6250 C   0  0  0  0  0  0  0  0  0  0  0  0
   -7.9526   24.4822  -30.5529 H   0  0  0  0  0  0  0  0  0  0  0  0
   -6.4950   23.0030  -31.1770 C   0  0  0  0  0  0  0  0  0  0  0  0
   -7.2599   22.2960  -31.5306 H   0  0  0  0  0  0  0  0  0  0  0  0
  1  2  1  0
  2  3  2  0
  3  4  1  0
  3  5  1  0
  5  6  1  0
  6  7  1  0
  7  8  1  0
  7  9  1  0
  7 10  1  0
 10 11  1  0
 10 12  1  0
 10 13  1  0
 13 14  2  0
 14 15  1  0
 14 16  1  0
 16 17  1  0
 16 18  2  0
 18 19  1  0
 18 20  1  0
 20 21  1  0
 20 22  2  0
 22 23  1  0
  6 24  1  0
 24 25  1  0
 24 26  2  0
 26 27  1  0
 26 28  1  0
 28 29  1  0
 29 30  1  0
 29 31  1  0
 29 32  1  0
  2 33  1  0
 33 34  2  0
 34 35  1  0
 34 36  1  0
 36 37  1  0
 36 38  2  0
 38 39  1  0
 38 40  1  0
 40 41  1  0
 40 42  2  0
 42 43  1  0
 28  5  2  0
 42 33  1  0
 22 13  1  0
M  CHG  1  28   1
M  END
>  <UniqueID>  (9) 
8

>  <SMILES>  (9) 
C[n+]1ccn(CCc2ccccc2)c1/C=C/c1ccccc1

>  <Energy>  (9) 
77.57913855494154

>  <Genealogy>  (9) 
C[n+]1ccn(CCc2ccccc2)c1/C=C/c1ccccc1 (cis-trans isomerization)
C[n+]1ccn(CCc2ccccc2)c1/C=C/c1ccccc1 (3D coordinates assigned)
C[n+]1ccn(CCc2ccccc2)c1/C=C/c1ccccc1 (optimized conformer: 77.57913855494154 kcal/mol)

>  <smiles>  (9) 
C[n+]1ccn(CCc2ccccc2)c1C=Cc1ccccc1

>  <score_type>  (9) 
oracle

>  <origin>  (9) 
adg

>  <m_score__min__energy>  (9) 
-7.1699999999999999

>  <m_primary>  (9) 
energy

$$$$
9:0
     RDKit          3D

 56 58  0  0  0  0  0  0  0  0999 V2000
   -2.8030   19.5860  -26.8190 C   0  0  0  0  0  0  0  0  0  0  0  0
   -2.2030   20.6250  -27.5850 O   0  0  0  0  0  0  0  0  0  0  0  0
   -2.9120   21.5430  -28.3750 C   0  0  0  0  0  0  0  0  0  0  0  0
   -3.5990   22.5730  -27.7330 C   0  0  0  0  0  0  0  0  0  0  0  0
   -4.3220   23.5110  -28.4700 C   0  0  0  0  0  0  0  0  0  0  0  0
   -4.3820   23.4350  -29.8710 C   0  0  0  0  0  0  0  0  0  0  0  0
   -5.1990   24.4790  -30.6150 C   0  0  0  0  0  0  0  0  0  0  0  0
   -6.6430   24.3770  -30.3350 N   0  0  0  0  0  0  0  0  0  0  0  0
   -7.4130   23.7470  -31.4210 C   0  0  0  0  0  0  0  0  0  0  0  0
   -7.8390   22.3060  -31.0510 C   0  0  1  0  0  0  0  0  0  0  0  0
   -8.2210   22.2810  -29.7190 F   0  0  0  0  0  0  0  0  0  0  0  0
   -9.0660   21.8940  -31.9030 C   0  0  0  0  0  0  0  0  0  0  0  0
   -9.1230   20.3730  -32.0790 C   0  0  0  0  0  0  0  0  0  0  0  0
   -7.9570   19.8710  -32.8540 N   0  0  2  0  0  0  0  0  0  0  0  0
   -7.7610   18.4520  -32.6000 C   0  0  0  0  0  0  0  0  0  0  0  0
   -8.3150   17.9220  -31.6460 O   0  0  0  0  0  0  0  0  0  0  0  0
   -6.8590   17.6000  -33.4770 C   0  0  2  0  0  0  0  0  0  0  0  0
   -5.7560   16.9040  -32.7070 C   0  0  0  0  0  0  0  0  0  0  0  0
   -4.4840   17.3920  -33.3740 C   0  0  0  0  0  0  0  0  0  0  0  0
   -4.8100   17.9030  -34.6430 O   0  0  0  0  0  0  0  0  0  0  0  0
   -6.1160   18.4110  -34.5340 C   0  0  0  0  0  0  0  0  0  0  0  0
   -6.6960   20.6280  -32.6100 C   0  0  0  0  0  0  0  0  0  0  0  0
   -6.6630   21.3050  -31.2310 C   0  0  0  0  0  0  0  0  0  0  0  0
   -3.6770   22.3970  -30.5370 C   0  0  0  0  0  0  0  0  0  0  0  0
   -3.6500   22.2880  -32.0400 C   0  0  0  0  0  0  0  0  0  0  0  0
   -2.9500   21.4610  -29.7780 C   0  0  0  0  0  0  0  0  0  0  0  0
   -2.6785   19.8017  -25.7476 H   0  0  0  0  0  0  0  0  0  0  0  0
   -3.8749   19.5259  -27.0588 H   0  0  0  0  0  0  0  0  0  0  0  0
   -2.3193   18.6276  -27.0588 H   0  0  0  0  0  0  0  0  0  0  0  0
   -3.5705   22.6463  -26.6358 H   0  0  0  0  0  0  0  0  0  0  0  0
   -4.8520   24.3207  -27.9470 H   0  0  0  0  0  0  0  0  0  0  0  0
   -4.8517   25.4782  -30.3133 H   0  0  0  0  0  0  0  0  0  0  0  0
   -5.0564   24.3068  -31.6920 H   0  0  0  0  0  0  0  0  0  0  0  0
   -6.7850   23.8310  -29.4520 H   0  0  0  0  0  0  0  0  0  0  0  0
   -8.3139   24.3474  -31.6155 H   0  0  0  0  0  0  0  0  0  0  0  0
   -6.7740   23.6996  -32.3151 H   0  0  0  0  0  0  0  0  0  0  0  0
   -9.9838   22.2331  -31.4004 H   0  0  0  0  0  0  0  0  0  0  0  0
   -8.9773   22.3598  -32.8956 H   0  0  0  0  0  0  0  0  0  0  0  0
   -9.1243   19.8980  -31.0869 H   0  0  0  0  0  0  0  0  0  0  0  0
  -10.0398   20.1233  -32.6333 H   0  0  0  0  0  0  0  0  0  0  0  0
   -8.1910   19.9960  -33.8670 H   0  0  0  0  0  0  0  0  0  0  0  0
   -7.5639   16.8824  -33.9222 H   0  0  0  0  0  0  0  0  0  0  0  0
   -5.7772   17.1923  -31.6457 H   0  0  0  0  0  0  0  0  0  0  0  0
   -5.8516   15.8083  -32.7246 H   0  0  0  0  0  0  0  0  0  0  0  0
   -4.0251   18.1831  -32.7627 H   0  0  0  0  0  0  0  0  0  0  0  0
   -3.7705   16.5610  -33.4756 H   0  0  0  0  0  0  0  0  0  0  0  0
   -6.0798   19.4686  -34.2338 H   0  0  0  0  0  0  0  0  0  0  0  0
   -6.6335   18.3365  -35.5018 H   0  0  0  0  0  0  0  0  0  0  0  0
   -5.8486   19.9300  -32.6788 H   0  0  0  0  0  0  0  0  0  0  0  0
   -6.6350   21.4217  -33.3692 H   0  0  0  0  0  0  0  0  0  0  0  0
   -6.7320   20.5309  -30.4526 H   0  0  0  0  0  0  0  0  0  0  0  0
   -5.7206   21.8662  -31.1480 H   0  0  0  0  0  0  0  0  0  0  0  0
   -3.3948   21.2576  -32.3284 H   0  0  0  0  0  0  0  0  0  0  0  0
   -4.6396   22.5475  -32.4443 H   0  0  0  0  0  0  0  0  0  0  0  0
   -2.8960   22.9794  -32.4443 H   0  0  0  0  0  0  0  0  0  0  0  0
   -2.4042   20.6544  -30.2894 H   0  0  0  0  0  0  0  0  0  0  0  0
  1  2  1  0
  2  3  1  0
  3  4  2  0
  4  5  1  0
  5  6  2  0
  6  7  1  0
  7  8  1  0
  8  9  1  0
  9 10  1  0
 10 11  1  1
 10 12  1  0
 12 13  1  0
 13 14  1  0
 14 15  1  0
 15 16  2  0
 15 17  1  0
 17 18  1  0
 18 19  1  0
 19 20  1  0
 20 21  1  0
 14 22  1  0
 22 23  1  0
  6 24  1  0
 24 25  1  0
 24 26  2  0
 26  3  1  0
 23 10  1  0
 21 17  1  0
  1 27  1  0
  1 28  1  0
  1 29  1  0
  4 30  1  0
  5 31  1  0
  7 32  1  0
  7 33  1  0
  8 34  1  0
  9 35  1  0
  9 36  1  0
 12 37  1  0
 12 38  1  0
 13 39  1  0
 13 40  1  0
 14 41  1  6
 17 42  1  6
 18 43  1  0
 18 44  1  0
 19 45  1  0
 19 46  1  0
 21 47  1  0
 21 48  1  0
 22 49  1  0
 22 50  1  0
 23 51  1  0
 23 52  1  0
 25 53  1  0
 25 54  1  0
 25 55  1  0
 26 56  1  0
M  CHG  1  14   1
M  END
>  <UniqueID>  (10) 
9

>  <SMILES>  (10) 
COc1ccc(CNCC2(F)CC[NH+](C(=O)[C@@H]3CCOC3)CC2)c(C)c1

>  <Energy>  (10) 
67.78644608331336

>  <Genealogy>  (10) 
COc1ccc(CNCC2(F)CC[NH+](C(=O)C3CCOC3)CC2)c(C)c1 (protonated)
COc1ccc(CNCC2(F)CC[NH+](C(=O)[C@@H]3CCOC3)CC2)c(C)c1 (chirality)
COc1ccc(CNCC2(F)CC[NH+](C(=O)[C@@H]3CCOC3)CC2)c(C)c1 (3D coordinates assigned)
COc1ccc(CNCC2(F)CC[NH+](C(=O)[C@@H]3CCOC3)CC2)c(C)c1 (nonaromatic ring conformer: 67.78644608331336 kcal/mol)

>  <smiles>  (10) 
COc1ccc(CNCC2(F)CCN(C(=O)C3CCOC3)CC2)c(C)c1

>  <score_type>  (10) 
oracle

>  <origin>  (10) 
adg

>  <m_score__min__energy>  (10) 
-7.8799999999999999

>  <m_primary>  (10) 
energy

$$$$
10:0
     RDKit          3D

 55 57  0  0  0  0  0  0  0  0999 V2000
   -1.7110   18.3680  -32.8050 C   0  0  0  0  0  0  0  0  0  0  0  0
   -2.6580   19.3450  -32.4370 O   0  0  0  0  0  0  0  0  0  0  0  0
   -3.0510   20.0710  -33.5840 C   0  0  0  0  0  0  0  0  0  0  0  0
   -3.9830   21.2150  -33.1720 C   0  0  0  0  0  0  0  0  0  0  0  0
   -4.0720   21.3360  -31.7050 N   0  0  0  0  0  0  0  0  0  0  0  0
   -4.5240   22.6580  -31.3220 C   0  0  0  0  0  0  0  0  0  0  0  0
   -3.5670   23.5740  -30.8440 C   0  0  0  0  0  0  0  0  0  0  0  0
   -3.9260   24.8160  -30.4370 N   0  0  0  0  0  0  0  0  0  0  0  0
   -5.2140   25.2320  -30.4820 C   0  0  0  0  0  0  0  0  0  0  0  0
   -6.2060   24.3850  -30.9670 C   0  0  0  0  0  0  0  0  0  0  0  0
   -5.8900   23.0830  -31.4040 C   0  0  0  0  0  0  0  0  0  0  0  0
   -7.0320   22.2630  -32.0150 C   0  0  2  0  0  0  0  0  0  0  0  0
   -8.4180   22.9480  -31.9440 C   0  0  0  0  0  0  0  0  0  0  0  0
   -9.5310   21.9670  -31.5580 C   0  0  0  0  0  0  0  0  0  0  0  0
   -9.3990   20.6460  -32.3310 C   0  0  0  0  0  0  0  0  0  0  0  0
   -8.0540   20.0100  -32.2290 N   0  0  0  0  0  0  0  0  0  0  0  0
   -8.1190   18.6320  -31.6940 C   0  0  0  0  0  0  0  0  0  0  0  0
   -6.7170   18.1030  -31.3620 C   0  0  0  0  0  0  0  0  0  0  0  0
   -5.9560   17.7520  -32.6140 C   0  0  0  0  0  0  0  0  0  0  0  0
   -6.1200   18.5180  -33.7800 C   0  0  0  0  0  0  0  0  0  0  0  0
   -5.4450   18.1680  -34.9530 C   0  0  0  0  0  0  0  0  0  0  0  0
   -4.6090   17.0490  -34.9740 C   0  0  0  0  0  0  0  0  0  0  0  0
   -4.4480   16.2760  -33.8210 C   0  0  0  0  0  0  0  0  0  0  0  0
   -5.1210   16.6220  -32.6460 C   0  0  0  0  0  0  0  0  0  0  0  0
   -7.0460   20.8090  -31.4990 C   0  0  0  0  0  0  0  0  0  0  0  0
   -1.2762   17.9194  -31.8996 H   0  0  0  0  0  0  0  0  0  0  0  0
   -2.2038   17.5860  -33.4013 H   0  0  0  0  0  0  0  0  0  0  0  0
   -0.9140   18.8362  -33.4013 H   0  0  0  0  0  0  0  0  0  0  0  0
   -2.1599   20.4846  -34.0789 H   0  0  0  0  0  0  0  0  0  0  0  0
   -3.5791   19.4007  -34.2781 H   0  0  0  0  0  0  0  0  0  0  0  0
   -3.5965   22.1580  -33.5859 H   0  0  0  0  0  0  0  0  0  0  0  0
   -4.9884   20.9997  -33.5628 H   0  0  0  0  0  0  0  0  0  0  0  0
   -3.1530   21.1030  -31.2850 H   0  0  0  0  0  0  0  0  0  0  0  0
   -4.7590   20.6330  -31.3440 H   0  0  0  0  0  0  0  0  0  0  0  0
   -2.5090   23.2761  -30.8002 H   0  0  0  0  0  0  0  0  0  0  0  0
   -5.4768   26.2420  -30.1343 H   0  0  0  0  0  0  0  0  0  0  0  0
   -7.2478   24.7355  -31.0097 H   0  0  0  0  0  0  0  0  0  0  0  0
   -6.8114   22.2144  -33.0915 H   0  0  0  0  0  0  0  0  0  0  0  0
   -8.3779   23.7511  -31.1934 H   0  0  0  0  0  0  0  0  0  0  0  0
   -8.6497   23.3445  -32.9435 H   0  0  0  0  0  0  0  0  0  0  0  0
   -9.4685   21.7596  -30.4795 H   0  0  0  0  0  0  0  0  0  0  0  0
  -10.5001   22.4227  -31.8095 H   0  0  0  0  0  0  0  0  0  0  0  0
  -10.1452   19.9400  -31.9376 H   0  0  0  0  0  0  0  0  0  0  0  0
   -9.5563   20.8842  -33.3933 H   0  0  0  0  0  0  0  0  0  0  0  0
   -8.7300   18.6299  -30.7793 H   0  0  0  0  0  0  0  0  0  0  0  0
   -8.5669   17.9804  -32.4587 H   0  0  0  0  0  0  0  0  0  0  0  0
   -6.1629   18.8768  -30.8105 H   0  0  0  0  0  0  0  0  0  0  0  0
   -6.8234   17.1933  -30.7528 H   0  0  0  0  0  0  0  0  0  0  0  0
   -6.7820   19.3964  -33.7700 H   0  0  0  0  0  0  0  0  0  0  0  0
   -5.5724   18.7750  -35.8615 H   0  0  0  0  0  0  0  0  0  0  0  0
   -4.0776   16.7764  -35.8978 H   0  0  0  0  0  0  0  0  0  0  0  0
   -3.7908   15.3941  -33.8382 H   0  0  0  0  0  0  0  0  0  0  0  0
   -4.9966   16.0072  -31.7423 H   0  0  0  0  0  0  0  0  0  0  0  0
   -7.2906   20.8078  -30.4265 H   0  0  0  0  0  0  0  0  0  0  0  0
   -6.0533   20.3641  -31.6620 H   0  0  0  0  0  0  0  0  0  0  0  0
  1  2  1  0
  2  3  1  0
  3  4  1  0
  4  5  1  0
  5  6  1  0
  6  7  2  0
  7  8  1  0
  8  9  2  0
  9 10  1  0
 10 11  2  0
 11 12  1  0
 12 13  1  0
 13 14  1  0
 14 15  1  0
 15 16  1  0
 16 17  1  0
 17 18  1  0
 18 19  1  0
 19 20  2  0
 20 21  1  0
 21 22  2  0
 22 23  1  0
 23 24  2  0
 16 25  1  0
 11  6  1  0
 25 12  1  0
 24 19  1  0
  1 26  1  0
  1 27  1  0
  1 28  1  0
  3 29  1  0
  3 30  1  0
  4 31  1  0
  4 32  1  0
  5 33  1  0
  5 34  1  0
  7 35  1  0
  9 36  1  0
 10 37  1  0
 12 38  1  6
 13 39  1  0
 13 40  1  0
 14 41  1  0
 14 42  1  0
 15 43  1  0
 15 44  1  0
 17 45  1  0
 17 46  1  0
 18 47  1  0
 18 48  1  0
 20 49  1  0
 21 50  1  0
 22 51  1  0
 23 52  1  0
 24 53  1  0
 25 54  1  0
 25 55  1  0
M  CHG  1   5   1
M  END
>  <UniqueID>  (11) 
10

>  <SMILES>  (11) 
COCC[NH2+]c1cnccc1[C@@H]1CCCN(CCc2ccccc2)C1

>  <Energy>  (11) 
69.80502872532225

>  <Genealogy>  (11) 
COCC[NH2+]c1cnccc1C1CCCN(CCc2ccccc2)C1 (protonated)
COCC[NH2+]c1cnccc1[C@@H]1CCCN(CCc2ccccc2)C1 (chirality)
COCC[NH2+]c1cnccc1[C@@H]1CCCN(CCc2ccccc2)C1 (3D coordinates assigned)
COCC[NH2+]c1cnccc1[C@@H]1CCCN(CCc2ccccc2)C1 (nonaromatic ring conformer: 69.80502872532225 kcal/mol)

>  <smiles>  (11) 
COCCNc1cnccc1C1CCCN(CCc2ccccc2)C1

>  <score_type>  (11) 
oracle

>  <origin>  (11) 
adg

>  <m_score__min__energy>  (11) 
-7.8899999999999997

>  <m_primary>  (11) 
energy

$$$$
11:0
     RDKit          3D

 43 44  0  0  0  0  0  0  0  0999 V2000
   -3.7550   21.4730  -33.0780 C   0  0  0  0  0  0  0  0  0  0  0  0
   -3.4700   22.2670  -31.8080 C   0  0  0  0  0  0  0  0  0  0  0  0
   -4.7170   22.9560  -31.3190 C   0  0  0  0  0  0  0  0  0  0  0  0
   -4.6220   24.1300  -30.5590 C   0  0  0  0  0  0  0  0  0  0  0  0
   -5.7770   24.7840  -30.1310 C   0  0  0  0  0  0  0  0  0  0  0  0
   -7.0360   24.2810  -30.4660 C   0  0  0  0  0  0  0  0  0  0  0  0
   -7.1580   23.1110  -31.2440 C   0  0  0  0  0  0  0  0  0  0  0  0
   -8.4890   22.5540  -31.6220 C   0  0  0  0  0  0  0  0  0  0  0  0
   -9.2670   23.2430  -32.3380 O   0  0  0  0  0  0  0  0  0  0  0  0
   -8.9430   21.1780  -31.2130 C   0  0  0  0  0  0  0  0  0  0  0  0
   -9.1530   20.2890  -32.4570 C   0  0  0  0  0  0  0  0  0  0  0  0
   -8.0180   19.3900  -32.7650 N   0  0  0  0  0  0  0  0  0  0  0  0
   -6.9220   20.0340  -33.5020 C   0  0  0  0  0  0  0  0  0  0  0  0
   -6.0090   18.9550  -34.1170 C   0  0  0  0  0  0  0  0  0  0  0  0
   -5.9570   17.7040  -33.3190 N   0  0  0  0  0  0  0  0  0  0  0  0
   -6.8570   16.6660  -33.8520 C   0  0  0  0  0  0  0  0  0  0  0  0
   -6.1810   17.9390  -31.8780 C   0  0  0  0  0  0  0  0  0  0  0  0
   -7.5320   18.6320  -31.5930 C   0  0  0  0  0  0  0  0  0  0  0  0
   -5.9830   22.4590  -31.6670 C   0  0  0  0  0  0  0  0  0  0  0  0
   -4.1154   20.4690  -32.8096 H   0  0  0  0  0  0  0  0  0  0  0  0
   -4.5230   21.9920  -33.6703 H   0  0  0  0  0  0  0  0  0  0  0  0
   -2.8323   21.3852  -33.6703 H   0  0  0  0  0  0  0  0  0  0  0  0
   -3.1066   21.5819  -31.0279 H   0  0  0  0  0  0  0  0  0  0  0  0
   -2.7093   23.0296  -32.0312 H   0  0  0  0  0  0  0  0  0  0  0  0
   -3.6334   24.5367  -30.2994 H   0  0  0  0  0  0  0  0  0  0  0  0
   -5.6960   25.6998  -29.5271 H   0  0  0  0  0  0  0  0  0  0  0  0
   -7.9408   24.8021  -30.1199 H   0  0  0  0  0  0  0  0  0  0  0  0
   -8.1792   20.7217  -30.5661 H   0  0  0  0  0  0  0  0  0  0  0  0
   -9.8960   21.2633  -30.6703 H   0  0  0  0  0  0  0  0  0  0  0  0
  -10.0468   19.6699  -32.2905 H   0  0  0  0  0  0  0  0  0  0  0  0
   -9.2563   20.9694  -33.3152 H   0  0  0  0  0  0  0  0  0  0  0  0
   -7.3388   20.6614  -34.3037 H   0  0  0  0  0  0  0  0  0  0  0  0
   -6.3357   20.6593  -32.8126 H   0  0  0  0  0  0  0  0  0  0  0  0
   -6.3838   18.7123  -35.1223 H   0  0  0  0  0  0  0  0  0  0  0  0
   -4.9895   19.3673  -34.1426 H   0  0  0  0  0  0  0  0  0  0  0  0
   -7.3267   16.1243  -33.0177 H   0  0  0  0  0  0  0  0  0  0  0  0
   -7.6367   17.1378  -34.4681 H   0  0  0  0  0  0  0  0  0  0  0  0
   -6.2795   15.9611  -34.4681 H   0  0  0  0  0  0  0  0  0  0  0  0
   -6.1645   16.9708  -31.3562 H   0  0  0  0  0  0  0  0  0  0  0  0
   -5.3823   18.6056  -31.5206 H   0  0  0  0  0  0  0  0  0  0  0  0
   -8.2767   17.8661  -31.3305 H   0  0  0  0  0  0  0  0  0  0  0  0
   -7.3848   19.3406  -30.7646 H   0  0  0  0  0  0  0  0  0  0  0  0
   -6.0586   21.5478  -32.2785 H   0  0  0  0  0  0  0  0  0  0  0  0
  1  2  1  0
  2  3  1  0
  3  4  2  0
  4  5  1  0
  5  6  2  0
  6  7  1  0
  7  8  1  0
  8  9  2  0
  8 10  1  0
 10 11  1  0
 11 12  1  0
 12 13  1  0
 13 14  1  0
 14 15  1  0
 15 16  1  0
 15 17  1  0
 17 18  1  0
  7 19  2  0
 19  3  1  0
 18 12  1  0
  1 20  1  0
  1 21  1  0
  1 22  1  0
  2 23  1  0
  2 24  1  0
  4 25  1  0
  5 26  1  0
  6 27  1  0
 10 28  1  0
 10 29  1  0
 11 30  1  0
 11 31  1  0
 13 32  1  0
 13 33  1  0
 14 34  1  0
 14 35  1  0
 16 36  1  0
 16 37  1  0
 16 38  1  0
 17 39  1  0
 17 40  1  0
 18 41  1  0
 18 42  1  0
 19 43  1  0
M  END
>  <UniqueID>  (12) 
11

>  <SMILES>  (12) 
CCc1cccc(C(=O)CCN2CCN(C)CC2)c1

>  <Energy>  (12) 
51.95945536521115

>  <Genealogy>  (12) 
CCc1cccc(C(=O)CCN2CCN(C)CC2)c1 (3D coordinates assigned)
CCc1cccc(C(=O)CCN2CCN(C)CC2)c1 (nonaromatic ring conformer: 51.95945536521115 kcal/mol)

>  <smiles>  (12) 
CCc1cccc(C(=O)CCN2CCN(C)CC2)c1

>  <score_type>  (12) 
oracle

>  <origin>  (12) 
adg

>  <m_score__min__energy>  (12) 
-7.8200000000000003

>  <m_primary>  (12) 
energy

$$$$
12:0
     RDKit          3D

 56 59  0  0  0  0  0  0  0  0999 V2000
   -0.6110   18.6320  -31.7580 C   0  0  0  0  0  0  0  0  0  0  0  0
   -0.8460   18.9660  -30.3970 O   0  0  0  0  0  0  0  0  0  0  0  0
   -1.0380   20.2690  -29.9190 C   0  0  0  0  0  0  0  0  0  0  0  0
   -0.5770   21.4010  -30.6160 C   0  0  0  0  0  0  0  0  0  0  0  0
   -0.8020   22.6830  -30.1080 C   0  0  0  0  0  0  0  0  0  0  0  0
   -1.4810   22.8490  -28.8960 C   0  0  0  0  0  0  0  0  0  0  0  0
   -1.7960   24.4730  -28.2920 S   0  0  0  0  0  0  0  0  0  0  0  0
   -2.3780   24.4330  -26.9090 O   0  0  0  0  0  0  0  0  0  0  0  0
   -0.5010   25.2300  -28.2480 O   0  0  0  0  0  0  0  0  0  0  0  0
   -2.8940   25.2890  -29.3570 N   0  0  0  0  0  0  0  0  0  0  0  0
   -4.0650   24.6980  -29.9350 C   0  0  0  0  0  0  0  0  0  0  0  0
   -5.3480   25.2280  -29.7280 C   0  0  0  0  0  0  0  0  0  0  0  0
   -6.4630   24.5950  -30.2770 C   0  0  0  0  0  0  0  0  0  0  0  0
   -6.3120   23.4230  -31.0220 C   0  0  0  0  0  0  0  0  0  0  0  0
   -5.0350   22.8890  -31.2480 C   0  0  0  0  0  0  0  0  0  0  0  0
   -4.8810   21.6290  -32.0040 C   0  0  0  0  0  0  0  0  0  0  0  0
   -3.6400   21.2240  -32.5020 C   0  0  0  0  0  0  0  0  0  0  0  0
   -3.5440   20.0250  -33.2030 C   0  0  0  0  0  0  0  0  0  0  0  0
   -4.6840   19.2260  -33.3700 C   0  0  0  0  0  0  0  0  0  0  0  0
   -4.6450   17.9700  -34.0860 N   0  0  0  0  0  0  0  0  0  0  0  0
   -3.3920   17.1950  -34.2030 C   0  0  0  0  0  0  0  0  0  0  0  0
   -3.5770   15.7260  -33.7580 C   0  0  0  0  0  0  0  0  0  0  0  0
   -4.6410   14.9370  -34.5560 C   0  0  0  0  0  0  0  0  0  0  0  0
   -6.0680   15.0410  -33.9790 C   0  0  0  0  0  0  0  0  0  0  0  0
   -6.6770   16.4610  -33.9390 C   0  0  0  0  0  0  0  0  0  0  0  0
   -5.8880   17.5110  -34.7500 C   0  0  0  0  0  0  0  0  0  0  0  0
   -5.8670   19.6810  -32.8750 N   0  0  0  0  0  0  0  0  0  0  0  0
   -5.9620   20.8390  -32.2200 N   0  0  0  0  0  0  0  0  0  0  0  0
   -3.9170   23.5420  -30.7110 C   0  0  0  0  0  0  0  0  0  0  0  0
   -1.9250   21.7220  -28.1900 C   0  0  0  0  0  0  0  0  0  0  0  0
   -1.7100   20.4430  -28.7050 C   0  0  0  0  0  0  0  0  0  0  0  0
    0.0212   17.7334  -31.8111 H   0  0  0  0  0  0  0  0  0  0  0  0
   -1.5707   18.4352  -32.2582 H   0  0  0  0  0  0  0  0  0  0  0  0
   -0.1016   19.4688  -32.2582 H   0  0  0  0  0  0  0  0  0  0  0  0
   -0.0366   21.2760  -31.5659 H   0  0  0  0  0  0  0  0  0  0  0  0
   -0.4446   23.5635  -30.6620 H   0  0  0  0  0  0  0  0  0  0  0  0
   -5.4744   26.1439  -29.1320 H   0  0  0  0  0  0  0  0  0  0  0  0
   -7.4656   25.0205  -30.1227 H   0  0  0  0  0  0  0  0  0  0  0  0
   -7.1981   22.9170  -31.4330 H   0  0  0  0  0  0  0  0  0  0  0  0
   -2.7474   21.8465  -32.3417 H   0  0  0  0  0  0  0  0  0  0  0  0
   -2.5789   19.7062  -33.6236 H   0  0  0  0  0  0  0  0  0  0  0  0
   -3.0619   17.2095  -35.2522 H   0  0  0  0  0  0  0  0  0  0  0  0
   -2.6427   17.6582  -33.5442 H   0  0  0  0  0  0  0  0  0  0  0  0
   -2.6121   15.2100  -33.8707 H   0  0  0  0  0  0  0  0  0  0  0  0
   -3.9316   15.7595  -32.7173 H   0  0  0  0  0  0  0  0  0  0  0  0
   -4.6562   15.3226  -35.5861 H   0  0  0  0  0  0  0  0  0  0  0  0
   -4.3545   13.8763  -34.5030 H   0  0  0  0  0  0  0  0  0  0  0  0
   -6.7267   14.4087  -34.5924 H   0  0  0  0  0  0  0  0  0  0  0  0
   -5.9894   14.7207  -32.9296 H   0  0  0  0  0  0  0  0  0  0  0  0
   -7.6988   16.4096  -34.3430 H   0  0  0  0  0  0  0  0  0  0  0  0
   -6.6498   16.7871  -32.8888 H   0  0  0  0  0  0  0  0  0  0  0  0
   -5.6196   17.0691  -35.7209 H   0  0  0  0  0  0  0  0  0  0  0  0
   -6.5395   18.3913  -34.8535 H   0  0  0  0  0  0  0  0  0  0  0  0
   -2.9105   23.1412  -30.9017 H   0  0  0  0  0  0  0  0  0  0  0  0
   -2.4439   21.8463  -27.2281 H   0  0  0  0  0  0  0  0  0  0  0  0
   -2.0722   19.5642  -28.1513 H   0  0  0  0  0  0  0  0  0  0  0  0
  1  2  1  0
  2  3  1  0
  3  4  2  0
  4  5  1  0
  5  6  2  0
  6  7  1  0
  7  8  2  0
  7  9  2  0
  7 10  1  0
 10 11  1  0
 11 12  2  0
 12 13  1  0
 13 14  2  0
 14 15  1  0
 15 16  1  0
 16 17  2  0
 17 18  1  0
 18 19  2  0
 19 20  1  0
 20 21  1  0
 21 22  1  0
 22 23  1  0
 23 24  1  0
 24 25  1  0
 25 26  1  0
 19 27  1  0
 27 28  2  0
 15 29  2  0
  6 30  1  0
 30 31  2  0
 31  3  1  0
 29 11  1  0
 28 16  1  0
 26 20  1  0
  1 32  1  0
  1 33  1  0
  1 34  1  0
  4 35  1  0
  5 36  1  0
 12 37  1  0
 13 38  1  0
 14 39  1  0
 17 40  1  0
 18 41  1  0
 21 42  1  0
 21 43  1  0
 22 44  1  0
 22 45  1  0
 23 46  1  0
 23 47  1  0
 24 48  1  0
 24 49  1  0
 25 50  1  0
 25 51  1  0
 26 52  1  0
 26 53  1  0
 29 54  1  0
 30 55  1  0
 31 56  1  0
M  CHG  1  10  -1
M  END
>  <UniqueID>  (13) 
12

>  <SMILES>  (13) 
COc1ccc(S(=O)(=O)[N-]c2cccc(-c3ccc(N4CCCCCC4)nn3)c2)cc1

>  <Energy>  (13) 
74.9914615954232

>  <Genealogy>  (13) 
COc1ccc(S(=O)(=O)[N-]c2cccc(-c3ccc(N4CCCCCC4)nn3)c2)cc1 (protonated)
COc1ccc(S(=O)(=O)[N-]c2cccc(-c3ccc(N4CCCCCC4)nn3)c2)cc1 (3D coordinates assigned)
COc1ccc(S(=O)(=O)[N-]c2cccc(-c3ccc(N4CCCCCC4)nn3)c2)cc1 (nonaromatic ring conformer: 74.9914615954232 kcal/mol)

>  <smiles>  (13) 
COc1ccc(S(=O)(=O)Nc2cccc(-c3ccc(N4CCCCCC4)nn3)c2)cc1

>  <score_type>  (13) 
oracle

>  <origin>  (13) 
adg

>  <m_score__min__energy>  (13) 
-8.7599999999999998

>  <m_primary>  (13) 
energy

$$$$
13:0
     RDKit          3D

 39 41  0  0  0  0  0  0  0  0999 V2000
   -9.0190   18.5680  -31.9330 C   0  0  0  0  0  0  0  0  0  0  0  0
   -7.6490   19.1640  -32.1340 C   0  0  0  0  0  0  0  0  0  0  0  0
   -7.3290   20.3650  -31.4850 C   0  0  0  0  0  0  0  0  0  0  0  0
   -6.0630   20.9450  -31.6460 C   0  0  0  0  0  0  0  0  0  0  0  0
   -5.7370   22.1830  -30.9770 N   0  0  0  0  0  0  0  0  0  0  0  0
   -4.3760   22.7400  -31.1130 C   0  0  0  0  0  0  0  0  0  0  0  0
   -4.0520   23.8350  -30.0810 C   0  0  0  0  0  0  0  0  0  0  0  0
   -4.6630   25.2080  -30.4160 C   0  0  0  0  0  0  0  0  0  0  0  0
   -6.1470   25.3780  -30.0430 C   0  0  0  0  0  0  0  0  0  0  0  0
   -7.0650   24.2900  -30.6260 C   0  0  0  0  0  0  0  0  0  0  0  0
   -6.7550   22.8530  -30.1470 C   0  0  0  0  0  0  0  0  0  0  0  0
   -5.1400   20.3320  -32.4450 N   0  0  0  0  0  0  0  0  0  0  0  0
   -5.4100   19.1640  -33.0930 C   0  0  0  0  0  0  0  0  0  0  0  0
   -4.4290   18.5700  -33.9070 C   0  0  0  0  0  0  0  0  0  0  0  0
   -4.6960   17.3750  -34.5760 C   0  0  0  0  0  0  0  0  0  0  0  0
   -5.9400   16.7610  -34.4410 C   0  0  0  0  0  0  0  0  0  0  0  0
   -6.9270   17.3360  -33.6370 C   0  0  0  0  0  0  0  0  0  0  0  0
   -6.6770   18.5450  -32.9530 C   0  0  0  0  0  0  0  0  0  0  0  0
   -9.2254   18.4782  -30.8563 H   0  0  0  0  0  0  0  0  0  0  0  0
   -9.7739   19.2190  -32.3980 H   0  0  0  0  0  0  0  0  0  0  0  0
   -9.0573   17.5719  -32.3980 H   0  0  0  0  0  0  0  0  0  0  0  0
   -8.0769   20.8557  -30.8448 H   0  0  0  0  0  0  0  0  0  0  0  0
   -3.6515   21.9214  -30.9905 H   0  0  0  0  0  0  0  0  0  0  0  0
   -4.3164   23.2064  -32.1074 H   0  0  0  0  0  0  0  0  0  0  0  0
   -4.4378   23.5137  -29.1023 H   0  0  0  0  0  0  0  0  0  0  0  0
   -2.9594   23.9625  -30.0829 H   0  0  0  0  0  0  0  0  0  0  0  0
   -4.0876   25.9760  -29.8784 H   0  0  0  0  0  0  0  0  0  0  0  0
   -4.6122   25.3039  -31.5106 H   0  0  0  0  0  0  0  0  0  0  0  0
   -6.2336   25.3532  -28.9467 H   0  0  0  0  0  0  0  0  0  0  0  0
   -6.4760   26.3364  -30.4712 H   0  0  0  0  0  0  0  0  0  0  0  0
   -8.1008   24.5288  -30.3429 H   0  0  0  0  0  0  0  0  0  0  0  0
   -6.8991   24.2958  -31.7134 H   0  0  0  0  0  0  0  0  0  0  0  0
   -6.3893   22.8989  -29.1106 H   0  0  0  0  0  0  0  0  0  0  0  0
   -7.6840   22.2693  -30.2255 H   0  0  0  0  0  0  0  0  0  0  0  0
   -4.2080   20.7830  -32.5790 H   0  0  0  0  0  0  0  0  0  0  0  0
   -3.4455   19.0503  -34.0169 H   0  0  0  0  0  0  0  0  0  0  0  0
   -3.9235   16.9167  -35.2110 H   0  0  0  0  0  0  0  0  0  0  0  0
   -6.1456   15.8189  -34.9703 H   0  0  0  0  0  0  0  0  0  0  0  0
   -7.9054   16.8434  -33.5363 H   0  0  0  0  0  0  0  0  0  0  0  0
  1  2  1  0
  2  3  2  0
  3  4  1  0
  4  5  1  0
  5  6  1  0
  6  7  1  0
  7  8  1  0
  8  9  1  0
  9 10  1  0
 10 11  1  0
  4 12  2  0
 12 13  1  0
 13 14  2  0
 14 15  1  0
 15 16  2  0
 16 17  1  0
 17 18  2  0
 18  2  1  0
 11  5  1  0
 18 13  1  0
  1 19  1  0
  1 20  1  0
  1 21  1  0
  3 22  1  0
  6 23  1  0
  6 24  1  0
  7 25  1  0
  7 26  1  0
  8 27  1  0
  8 28  1  0
  9 29  1  0
  9 30  1  0
 10 31  1  0
 10 32  1  0
 11 33  1  0
 11 34  1  0
 12 35  1  0
 14 36  1  0
 15 37  1  0
 16 38  1  0
 17 39  1  0
M  CHG  1  12   1
M  END
>  <UniqueID>  (14) 
13

>  <SMILES>  (14) 
Cc1cc(N2CCCCCC2)[nH+]c2ccccc12

>  <Energy>  (14) 
52.17157992757335

>  <Genealogy>  (14) 
Cc1cc(N2CCCCCC2)[nH+]c2ccccc12 (protonated)
Cc1cc(N2CCCCCC2)[nH+]c2ccccc12 (3D coordinates assigned)
Cc1cc(N2CCCCCC2)[nH+]c2ccccc12 (nonaromatic ring conformer: 52.17157992757335 kcal/mol)

>  <smiles>  (14) 
Cc1cc(N2CCCCCC2)nc2ccccc12

>  <score_type>  (14) 
oracle

>  <origin>  (14) 
adg

>  <m_score__min__energy>  (14) 
-4.9400000000000004

>  <m_primary>  (14) 
energy

$$$$
14:0
     RDKit          3D

 50 52  0  0  0  0  0  0  0  0999 V2000
   -4.8530   24.9610  -30.3100 C   0  0  0  0  0  0  0  0  0  0  0  0
   -3.4350   24.9130  -30.1870 O   0  0  0  0  0  0  0  0  0  0  0  0
   -2.7450   24.2970  -29.1300 C   0  0  0  0  0  0  0  0  0  0  0  0
   -2.8650   24.7580  -27.8030 C   0  0  0  0  0  0  0  0  0  0  0  0
   -2.1510   24.1440  -26.7730 C   0  0  0  0  0  0  0  0  0  0  0  0
   -1.3000   23.0760  -27.0510 C   0  0  0  0  0  0  0  0  0  0  0  0
   -1.1720   22.6070  -28.3590 C   0  0  0  0  0  0  0  0  0  0  0  0
   -1.9080   23.1900  -29.4060 C   0  0  0  0  0  0  0  0  0  0  0  0
   -1.7680   22.6470  -30.8180 C   0  0  0  0  0  0  0  0  0  0  0  0
   -2.7320   21.5730  -31.1500 N   0  0  0  0  0  0  0  0  0  0  0  0
   -3.9130   22.0110  -31.9290 C   0  0  0  0  0  0  0  0  0  0  0  0
   -3.8510   21.5360  -33.3910 C   0  0  0  0  0  0  0  0  0  0  0  0
   -3.7100   20.0540  -33.5200 N   0  0  0  0  0  0  0  0  0  0  0  0
   -4.9940   19.3980  -33.8980 C   0  0  0  0  0  0  0  0  0  0  0  0
   -5.7600   18.8280  -32.6860 C   0  0  0  0  0  0  0  0  0  0  0  0
   -7.0520   19.5540  -32.4160 C   0  0  0  0  0  0  0  0  0  0  0  0
   -7.0380   20.9200  -32.0890 C   0  0  0  0  0  0  0  0  0  0  0  0
   -8.2390   21.6060  -31.8810 C   0  0  0  0  0  0  0  0  0  0  0  0
   -9.4600   20.9360  -32.0040 C   0  0  0  0  0  0  0  0  0  0  0  0
   -9.4820   19.5780  -32.3320 C   0  0  0  0  0  0  0  0  0  0  0  0
   -8.2840   18.8870  -32.5390 C   0  0  0  0  0  0  0  0  0  0  0  0
   -3.1480   19.4210  -32.2970 C   0  0  0  0  0  0  0  0  0  0  0  0
   -2.1030   20.3270  -31.6400 C   0  0  0  0  0  0  0  0  0  0  0  0
   -5.3076   24.9764  -29.3085 H   0  0  0  0  0  0  0  0  0  0  0  0
   -5.1429   25.8695  -30.8583 H   0  0  0  0  0  0  0  0  0  0  0  0
   -5.2037   24.0742  -30.8583 H   0  0  0  0  0  0  0  0  0  0  0  0
   -3.5262   25.6078  -27.5779 H   0  0  0  0  0  0  0  0  0  0  0  0
   -2.2602   24.5039  -25.7393 H   0  0  0  0  0  0  0  0  0  0  0  0
   -0.7289   22.6024  -26.2389 H   0  0  0  0  0  0  0  0  0  0  0  0
   -0.4882   21.7725  -28.5734 H   0  0  0  0  0  0  0  0  0  0  0  0
   -1.9186   23.4770  -31.5240 H   0  0  0  0  0  0  0  0  0  0  0  0
   -0.7631   22.2054  -30.8904 H   0  0  0  0  0  0  0  0  0  0  0  0
   -4.8193   21.5996  -31.4606 H   0  0  0  0  0  0  0  0  0  0  0  0
   -3.9286   23.1109  -31.9307 H   0  0  0  0  0  0  0  0  0  0  0  0
   -4.7763   21.8452  -33.8992 H   0  0  0  0  0  0  0  0  0  0  0  0
   -2.9592   21.9913  -33.8464 H   0  0  0  0  0  0  0  0  0  0  0  0
   -3.0110   19.8740  -34.2810 H   0  0  0  0  0  0  0  0  0  0  0  0
   -5.6328   20.1405  -34.3986 H   0  0  0  0  0  0  0  0  0  0  0  0
   -4.7497   18.5536  -34.5593 H   0  0  0  0  0  0  0  0  0  0  0  0
   -5.9861   17.7691  -32.8799 H   0  0  0  0  0  0  0  0  0  0  0  0
   -5.1190   18.9538  -31.8010 H   0  0  0  0  0  0  0  0  0  0  0  0
   -6.0796   21.4518  -31.9962 H   0  0  0  0  0  0  0  0  0  0  0  0
   -8.2229   22.6745  -31.6202 H   0  0  0  0  0  0  0  0  0  0  0  0
  -10.4034   21.4781  -31.8425 H   0  0  0  0  0  0  0  0  0  0  0  0
  -10.4431   19.0516  -32.4275 H   0  0  0  0  0  0  0  0  0  0  0  0
   -8.3053   17.8183  -32.7989 H   0  0  0  0  0  0  0  0  0  0  0  0
   -3.9627   19.2344  -31.5819 H   0  0  0  0  0  0  0  0  0  0  0  0
   -2.6622   18.4765  -32.5833 H   0  0  0  0  0  0  0  0  0  0  0  0
   -1.6445   19.7956  -30.7930 H   0  0  0  0  0  0  0  0  0  0  0  0
   -1.3366   20.5849  -32.3857 H   0  0  0  0  0  0  0  0  0  0  0  0
  1  2  1  0
  2  3  1  0
  3  4  2  0
  4  5  1  0
  5  6  2  0
  6  7  1  0
  7  8  2  0
  8  9  1  0
  9 10  1  0
 10 11  1  0
 11 12  1  0
 12 13  1  0
 13 14  1  0
 14 15  1  0
 15 16  1  0
 16 17  2  0
 17 18  1  0
 18 19  2  0
 19 20  1  0
 20 21  2  0
 13 22  1  0
 22 23  1  0
  8  3  1  0
 23 10  1  0
 21 16  1  0
  1 24  1  0
  1 25  1  0
  1 26  1  0
  4 27  1  0
  5 28  1  0
  6 29  1  0
  7 30  1  0
  9 31  1  0
  9 32  1  0
 11 33  1  0
 11 34  1  0
 12 35  1  0
 12 36  1  0
 13 37  1  0
 14 38  1  0
 14 39  1  0
 15 40  1  0
 15 41  1  0
 17 42  1  0
 18 43  1  0
 19 44  1  0
 20 45  1  0
 21 46  1  0
 22 47  1  0
 22 48  1  0
 23 49  1  0
 23 50  1  0
M  CHG  1  13   1
M  END
>  <UniqueID>  (15) 
14

>  <SMILES>  (15) 
COc1ccccc1CN1CC[NH+](CCc2ccccc2)CC1

>  <Energy>  (15) 
67.21288653142055

>  <Genealogy>  (15) 
COc1ccccc1CN1CC[NH+](CCc2ccccc2)CC1 (protonated)
COc1ccccc1CN1CC[NH+](CCc2ccccc2)CC1 (3D coordinates assigned)
COc1ccccc1CN1CC[NH+](CCc2ccccc2)CC1 (nonaromatic ring conformer: 67.21288653142055 kcal/mol)

>  <smiles>  (15) 
COc1ccccc1CN1CCN(CCc2ccccc2)CC1

>  <score_type>  (15) 
oracle

>  <origin>  (15) 
adg

>  <m_score__min__energy>  (15) 
-7.7599999999999998

>  <m_primary>  (15) 
energy

$$$$
15:0
     RDKit          3D

 49 52  0  0  0  0  0  0  0  0999 V2000
   -4.9600   13.4070  -33.3480 C   0  0  0  0  0  0  0  0  0  0  0  0
   -5.4330   14.3660  -34.2900 O   0  0  0  0  0  0  0  0  0  0  0  0
   -5.5330   15.7410  -34.0360 C   0  0  0  0  0  0  0  0  0  0  0  0
   -6.6870   16.3260  -33.4820 C   0  0  0  0  0  0  0  0  0  0  0  0
   -6.7390   17.7030  -33.2490 C   0  0  0  0  0  0  0  0  0  0  0  0
   -5.6390   18.5200  -33.5610 C   0  0  0  0  0  0  0  0  0  0  0  0
   -5.7000   19.9420  -33.3420 N   0  0  0  0  0  0  0  0  0  0  0  0
   -6.9870   20.6100  -33.1040 C   0  0  0  0  0  0  0  0  0  0  0  0
   -6.9310   21.3730  -31.7790 C   0  0  0  0  0  0  0  0  0  0  0  0
   -5.6790   22.1370  -31.6580 N   0  0  0  0  0  0  0  0  0  0  0  0
   -5.5570   23.1050  -30.6080 C   0  0  0  0  0  0  0  0  0  0  0  0
   -6.3550   24.2040  -30.6190 N   0  0  0  0  0  0  0  0  0  0  0  0
   -6.2700   25.1470  -29.6490 C   0  0  0  0  0  0  0  0  0  0  0  0
   -5.3760   25.0030  -28.6350 N   0  0  0  0  0  0  0  0  0  0  0  0
   -4.5560   23.9190  -28.5700 C   0  0  0  0  0  0  0  0  0  0  0  0
   -3.6490   23.8200  -27.5080 O   0  0  0  0  0  0  0  0  0  0  0  0
   -2.4350   24.5210  -27.4300 C   0  0  0  0  0  0  0  0  0  0  0  0
   -2.2140   25.3720  -26.3430 C   0  0  0  0  0  0  0  0  0  0  0  0
   -1.0130   26.0770  -26.2370 C   0  0  0  0  0  0  0  0  0  0  0  0
   -0.0360   25.9130  -27.2200 C   0  0  0  0  0  0  0  0  0  0  0  0
   -0.2560   25.0740  -28.2660 N   0  0  0  0  0  0  0  0  0  0  0  0
   -1.4180   24.3780  -28.3920 C   0  0  0  0  0  0  0  0  0  0  0  0
   -4.6110   22.9440  -29.5820 C   0  0  0  0  0  0  0  0  0  0  0  0
   -3.4370   21.6300  -29.6390 Cl  0  0  0  0  0  0  0  0  0  0  0  0
   -4.7040   22.1470  -32.7550 C   0  0  0  0  0  0  0  0  0  0  0  0
   -4.4520   20.7170  -33.2510 C   0  0  0  0  0  0  0  0  0  0  0  0
   -4.4920   17.9340  -34.1210 C   0  0  0  0  0  0  0  0  0  0  0  0
   -4.4410   16.5570  -34.3510 C   0  0  0  0  0  0  0  0  0  0  0  0
   -5.1415   13.7751  -32.3274 H   0  0  0  0  0  0  0  0  0  0  0  0
   -5.4922   12.4555  -33.4947 H   0  0  0  0  0  0  0  0  0  0  0  0
   -3.8812   13.2501  -33.4947 H   0  0  0  0  0  0  0  0  0  0  0  0
   -7.5529   15.6958  -33.2310 H   0  0  0  0  0  0  0  0  0  0  0  0
   -7.6471   18.1503  -32.8185 H   0  0  0  0  0  0  0  0  0  0  0  0
   -7.1912   21.3144  -33.9239 H   0  0  0  0  0  0  0  0  0  0  0  0
   -7.7871   19.8565  -33.0585 H   0  0  0  0  0  0  0  0  0  0  0  0
   -7.7820   22.0682  -31.7289 H   0  0  0  0  0  0  0  0  0  0  0  0
   -6.9762   20.6452  -30.9555 H   0  0  0  0  0  0  0  0  0  0  0  0
   -6.9252   26.0299  -29.6823 H   0  0  0  0  0  0  0  0  0  0  0  0
   -5.3240   25.7350  -27.8920 H   0  0  0  0  0  0  0  0  0  0  0  0
   -2.9877   25.4866  -25.5695 H   0  0  0  0  0  0  0  0  0  0  0  0
   -0.8390   26.7542  -25.3878 H   0  0  0  0  0  0  0  0  0  0  0  0
    0.9135   26.4637  -27.1479 H   0  0  0  0  0  0  0  0  0  0  0  0
   -1.5629   23.7020  -29.2476 H   0  0  0  0  0  0  0  0  0  0  0  0
   -5.0951   22.7556  -33.5836 H   0  0  0  0  0  0  0  0  0  0  0  0
   -3.7576   22.5733  -32.3910 H   0  0  0  0  0  0  0  0  0  0  0  0
   -3.9876   20.7623  -34.2471 H   0  0  0  0  0  0  0  0  0  0  0  0
   -3.7905   20.2162  -32.5287 H   0  0  0  0  0  0  0  0  0  0  0  0
   -3.6280   18.5635  -34.3802 H   0  0  0  0  0  0  0  0  0  0  0  0
   -3.5338   16.1101  -34.7838 H   0  0  0  0  0  0  0  0  0  0  0  0
  1  2  1  0
  2  3  1  0
  3  4  2  0
  4  5  1  0
  5  6  2  0
  6  7  1  0
  7  8  1  0
  8  9  1  0
  9 10  1  0
 10 11  1  0
 11 12  2  0
 12 13  1  0
 13 14  2  0
 14 15  1  0
 15 16  1  0
 16 17  1  0
 17 18  2  0
 18 19  1  0
 19 20  2  0
 20 21  1  0
 21 22  2  0
 15 23  2  0
 23 24  1  0
 10 25  1  0
 25 26  1  0
  6 27  1  0
 27 28  2  0
 28  3  1  0
 26  7  1  0
 23 11  1  0
 22 17  1  0
  1 29  1  0
  1 30  1  0
  1 31  1  0
  4 32  1  0
  5 33  1  0
  8 34  1  0
  8 35  1  0
  9 36  1  0
  9 37  1  0
 13 38  1  0
 14 39  1  0
 18 40  1  0
 19 41  1  0
 20 42  1  0
 22 43  1  0
 25 44  1  0
 25 45  1  0
 26 46  1  0
 26 47  1  0
 27 48  1  0
 28 49  1  0
M  CHG  1  14   1
M  END
>  <UniqueID>  (16) 
15

>  <SMILES>  (16) 
COc1ccc(N2CCN(c3nc[nH+]c(Oc4cccnc4)c3Cl)CC2)cc1

>  <Energy>  (16) 
71.85390517563482

>  <Genealogy>  (16) 
COc1ccc(N2CCN(c3nc[nH+]c(Oc4cccnc4)c3Cl)CC2)cc1 (protonated)
COc1ccc(N2CCN(c3nc[nH+]c(Oc4cccnc4)c3Cl)CC2)cc1 (3D coordinates assigned)
COc1ccc(N2CCN(c3nc[nH+]c(Oc4cccnc4)c3Cl)CC2)cc1 (nonaromatic ring conformer: 71.85390517563482 kcal/mol)

>  <smiles>  (16) 
COc1ccc(N2CCN(c3ncnc(Oc4cccnc4)c3Cl)CC2)cc1

>  <score_type>  (16) 
oracle

>  <origin>  (16) 
adg

>  <m_score__min__energy>  (16) 
-7.3600000000000003

>  <m_primary>  (16) 
energy

$$$$
16:0
     RDKit          3D

 48 51  0  0  0  0  0  0  0  0999 V2000
   -3.4320   16.0120  -35.1920 C   0  0  0  0  0  0  0  0  0  0  0  0
   -3.0070   17.3710  -35.1660 O   0  0  0  0  0  0  0  0  0  0  0  0
   -3.6250   18.3800  -34.4130 C   0  0  0  0  0  0  0  0  0  0  0  0
   -2.9030   19.4190  -33.8120 C   0  0  0  0  0  0  0  0  0  0  0  0
   -3.5610   20.4000  -33.0660 C   0  0  0  0  0  0  0  0  0  0  0  0
   -4.9650   20.3680  -32.8930 C   0  0  0  0  0  0  0  0  0  0  0  0
   -5.6720   21.3420  -32.1250 C   0  0  0  0  0  0  0  0  0  0  0  0
   -4.9100   22.4500  -31.3980 C   0  0  0  0  0  0  0  0  0  0  0  0
   -5.3630   23.8460  -31.8510 C   0  0  0  0  0  0  0  0  0  0  0  0
   -4.7430   24.8920  -31.0230 N   0  0  0  0  0  0  0  0  0  0  0  0
   -4.9210   24.6220  -29.5900 C   0  0  0  0  0  0  0  0  0  0  0  0
   -3.5950   24.2940  -28.9700 C   0  0  0  0  0  0  0  0  0  0  0  0
   -3.5010   23.3980  -27.8930 C   0  0  0  0  0  0  0  0  0  0  0  0
   -2.2520   23.1450  -27.3210 C   0  0  0  0  0  0  0  0  0  0  0  0
   -1.1160   23.7800  -27.8220 C   0  0  0  0  0  0  0  0  0  0  0  0
   -1.2450   24.6660  -28.8950 C   0  0  0  0  0  0  0  0  0  0  0  0
   -2.4690   24.9020  -29.4370 N   0  0  0  0  0  0  0  0  0  0  0  0
   -7.0970   21.2680  -32.0750 C   0  0  0  0  0  0  0  0  0  0  0  0
   -7.8960   22.2230  -31.3990 C   0  0  0  0  0  0  0  0  0  0  0  0
   -9.2870   22.1130  -31.3760 C   0  0  0  0  0  0  0  0  0  0  0  0
   -9.9170   21.0520  -32.0180 C   0  0  0  0  0  0  0  0  0  0  0  0
   -9.1580   20.0990  -32.6930 C   0  0  0  0  0  0  0  0  0  0  0  0
   -7.7560   20.1980  -32.7340 C   0  0  0  0  0  0  0  0  0  0  0  0
   -7.0420   19.2630  -33.4150 N   0  0  0  0  0  0  0  0  0  0  0  0
   -5.6890   19.3230  -33.5200 C   0  0  0  0  0  0  0  0  0  0  0  0
   -5.0110   18.3410  -34.2630 C   0  0  0  0  0  0  0  0  0  0  0  0
   -3.5471   15.6440  -34.1618 H   0  0  0  0  0  0  0  0  0  0  0  0
   -4.3958   15.9392  -35.7172 H   0  0  0  0  0  0  0  0  0  0  0  0
   -2.6814   15.4031  -35.7172 H   0  0  0  0  0  0  0  0  0  0  0  0
   -1.8100   19.4629  -33.9282 H   0  0  0  0  0  0  0  0  0  0  0  0
   -2.9778   21.2110  -32.6054 H   0  0  0  0  0  0  0  0  0  0  0  0
   -5.0855   22.3523  -30.3165 H   0  0  0  0  0  0  0  0  0  0  0  0
   -3.8415   22.3432  -31.6365 H   0  0  0  0  0  0  0  0  0  0  0  0
   -5.0707   23.9968  -32.9007 H   0  0  0  0  0  0  0  0  0  0  0  0
   -6.4557   23.9136  -31.7437 H   0  0  0  0  0  0  0  0  0  0  0  0
   -3.7140   24.8930  -31.2200 H   0  0  0  0  0  0  0  0  0  0  0  0
   -5.3441   25.5113  -29.0999 H   0  0  0  0  0  0  0  0  0  0  0  0
   -5.6046   23.7698  -29.4615 H   0  0  0  0  0  0  0  0  0  0  0  0
   -4.4015   22.9005  -27.5038 H   0  0  0  0  0  0  0  0  0  0  0  0
   -2.1646   22.4457  -26.4764 H   0  0  0  0  0  0  0  0  0  0  0  0
   -0.1289   23.5856  -27.3773 H   0  0  0  0  0  0  0  0  0  0  0  0
   -0.3566   25.1721  -29.3007 H   0  0  0  0  0  0  0  0  0  0  0  0
   -7.4117   23.0655  -30.8835 H   0  0  0  0  0  0  0  0  0  0  0  0
   -9.8876   22.8684  -30.8481 H   0  0  0  0  0  0  0  0  0  0  0  0
  -11.0133   20.9657  -31.9926 H   0  0  0  0  0  0  0  0  0  0  0  0
   -9.6601   19.2611  -33.1988 H   0  0  0  0  0  0  0  0  0  0  0  0
   -7.5540   18.4820  -33.8880 H   0  0  0  0  0  0  0  0  0  0  0  0
   -5.5832   17.5282  -34.7340 H   0  0  0  0  0  0  0  0  0  0  0  0
  1  2  1  0
  2  3  1  0
  3  4  2  0
  4  5  1  0
  5  6  2  0
  6  7  1  0
  7  8  1  0
  8  9  1  0
  9 10  1  0
 10 11  1  0
 11 12  1  0
 12 13  2  0
 13 14  1  0
 14 15  2  0
 15 16  1  0
 16 17  2  0
  7 18  2  0
 18 19  1  0
 19 20  2  0
 20 21  1  0
 21 22  2  0
 22 23  1  0
 23 24  2  0
 24 25  1  0
 25 26  2  0
 26  3  1  0
 25  6  1  0
 17 12  1  0
 23 18  1  0
  1 27  1  0
  1 28  1  0
  1 29  1  0
  4 30  1  0
  5 31  1  0
  8 32  1  0
  8 33  1  0
  9 34  1  0
  9 35  1  0
 10 36  1  0
 11 37  1  0
 11 38  1  0
 13 39  1  0
 14 40  1  0
 15 41  1  0
 16 42  1  0
 19 43  1  0
 20 44  1  0
 21 45  1  0
 22 46  1  0
 24 47  1  0
 26 48  1  0
M  CHG  1  24   1
M  END
>  <UniqueID>  (17) 
16

>  <SMILES>  (17) 
COc1ccc2c(CCNCc3ccccn3)c3ccccc3[nH+]c2c1

>  <Energy>  (17) 
62.479574834440996

>  <Genealogy>  (17) 
COc1ccc2c(CCNCc3ccccn3)c3ccccc3[nH+]c2c1 (protonated)
COc1ccc2c(CCNCc3ccccn3)c3ccccc3[nH+]c2c1 (3D coordinates assigned)
COc1ccc2c(CCNCc3ccccn3)c3ccccc3[nH+]c2c1 (optimized conformer: 62.479574834440996 kcal/mol)

>  <smiles>  (17) 
COc1ccc2c(CCNCc3ccccn3)c3ccccc3nc2c1

>  <score_type>  (17) 
oracle

>  <origin>  (17) 
adg

>  <m_score__min__energy>  (17) 
-8.7899999999999991

>  <m_primary>  (17) 
energy

$$$$
17:0
     RDKit          3D

 61 65  0  0  0  0  0  0  0  0999 V2000
    0.5730   21.5360  -34.5140 C   0  0  0  0  0  0  0  0  0  0  0  0
    1.2730   20.2090  -34.2240 C   0  0  0  0  0  0  0  0  0  0  0  0
    0.8640   19.6170  -32.8670 C   0  0  0  0  0  0  0  0  0  0  0  0
   -0.5140   20.0100  -32.4990 N   0  0  0  0  0  0  0  0  0  0  0  0
   -1.5850   19.5080  -33.2010 C   0  0  0  0  0  0  0  0  0  0  0  0
   -1.4120   18.7020  -34.1560 O   0  0  0  0  0  0  0  0  0  0  0  0
   -2.8690   19.9330  -32.8590 C   0  0  0  0  0  0  0  0  0  0  0  0
   -3.0360   20.8740  -31.8840 C   0  0  0  0  0  0  0  0  0  0  0  0
   -4.3970   21.1860  -31.8350 C   0  0  0  0  0  0  0  0  0  0  0  0
   -4.9950   20.3470  -32.7780 C   0  0  0  0  0  0  0  0  0  0  0  0
   -4.0600   19.5680  -33.3890 N   0  0  0  0  0  0  0  0  0  0  0  0
   -4.2950   18.5370  -34.4040 C   0  0  0  0  0  0  0  0  0  0  0  0
   -6.4360   20.3180  -33.0810 C   0  0  0  0  0  0  0  0  0  0  0  0
   -6.8420   20.0530  -34.2440 O   0  0  0  0  0  0  0  0  0  0  0  0
   -7.3900   20.5560  -32.0420 N   0  0  0  0  0  0  0  0  0  0  0  0
   -7.9270   19.3730  -31.3480 C   0  0  0  0  0  0  0  0  0  0  0  0
   -9.0930   18.7570  -32.1170 C   0  0  0  0  0  0  0  0  0  0  0  0
   -7.5090   21.9230  -31.4990 C   0  0  0  0  0  0  0  0  0  0  0  0
   -7.7380   22.9870  -32.5860 C   0  0  0  0  0  0  0  0  0  0  0  0
   -9.0800   23.3470  -31.9680 C   0  0  0  0  0  0  0  0  0  0  0  0
   -8.8980   22.2660  -30.9140 C   0  0  0  0  0  0  0  0  0  0  0  0
   -6.3670   22.2690  -30.6310 N   0  0  0  0  0  0  0  0  0  0  0  0
   -6.5730   22.8140  -29.4050 O   0  0  0  0  0  0  0  0  0  0  0  0
   -5.0380   22.3400  -31.1640 C   0  0  0  0  0  0  0  0  0  0  0  0
   -4.4030   23.4230  -31.0550 O   0  0  0  0  0  0  0  0  0  0  0  0
   -1.9850   21.3250  -31.1320 N   0  0  0  0  0  0  0  0  0  0  0  0
   -2.1870   22.1090  -29.9380 C   0  0  0  0  0  0  0  0  0  0  0  0
   -1.6760   23.4150  -29.8500 C   0  0  0  0  0  0  0  0  0  0  0  0
   -1.8780   24.1740  -28.6930 C   0  0  0  0  0  0  0  0  0  0  0  0
   -2.5840   23.6320  -27.6150 C   0  0  0  0  0  0  0  0  0  0  0  0
   -3.0840   22.3300  -27.6910 C   0  0  0  0  0  0  0  0  0  0  0  0
   -2.8810   21.5670  -28.8440 C   0  0  0  0  0  0  0  0  0  0  0  0
   -0.7170   20.8930  -31.4560 C   0  0  0  0  0  0  0  0  0  0  0  0
    0.2710   21.2960  -30.7800 O   0  0  0  0  0  0  0  0  0  0  0  0
    0.3132   22.0285  -33.5653 H   0  0  0  0  0  0  0  0  0  0  0  0
    1.2453   22.1864  -35.0927 H   0  0  0  0  0  0  0  0  0  0  0  0
   -0.3434   21.3483  -35.0927 H   0  0  0  0  0  0  0  0  0  0  0  0
    1.0122   19.4913  -35.0158 H   0  0  0  0  0  0  0  0  0  0  0  0
    2.3559   20.3998  -34.1946 H   0  0  0  0  0  0  0  0  0  0  0  0
    0.9200   18.5199  -32.9238 H   0  0  0  0  0  0  0  0  0  0  0  0
    1.5506   20.0041  -32.0997 H   0  0  0  0  0  0  0  0  0  0  0  0
   -4.5134   17.5789  -33.9097 H   0  0  0  0  0  0  0  0  0  0  0  0
   -5.1497   18.8288  -35.0320 H   0  0  0  0  0  0  0  0  0  0  0  0
   -3.3983   18.4296  -35.0320 H   0  0  0  0  0  0  0  0  0  0  0  0
   -7.1282   18.6233  -31.2484 H   0  0  0  0  0  0  0  0  0  0  0  0
   -8.2925   19.6881  -30.3595 H   0  0  0  0  0  0  0  0  0  0  0  0
   -9.8350   18.3650  -31.4058 H   0  0  0  0  0  0  0  0  0  0  0  0
   -9.5616   19.5252  -32.7497 H   0  0  0  0  0  0  0  0  0  0  0  0
   -8.7226   17.9369  -32.7497 H   0  0  0  0  0  0  0  0  0  0  0  0
   -7.0045   23.8066  -32.5712 H   0  0  0  0  0  0  0  0  0  0  0  0
   -7.6749   22.7131  -33.6495 H   0  0  0  0  0  0  0  0  0  0  0  0
   -9.1250   24.3672  -31.5593 H   0  0  0  0  0  0  0  0  0  0  0  0
   -9.9875   23.3660  -32.5894 H   0  0  0  0  0  0  0  0  0  0  0  0
   -8.8686   22.6462  -29.8822 H   0  0  0  0  0  0  0  0  0  0  0  0
   -9.6570   21.4798  -30.7882 H   0  0  0  0  0  0  0  0  0  0  0  0
   -5.8150   23.4410  -29.2710 H   0  0  0  0  0  0  0  0  0  0  0  0
   -1.1150   23.8419  -30.6944 H   0  0  0  0  0  0  0  0  0  0  0  0
   -1.4812   25.1981  -28.6311 H   0  0  0  0  0  0  0  0  0  0  0  0
   -2.7458   24.2310  -26.7067 H   0  0  0  0  0  0  0  0  0  0  0  0
   -3.6386   21.9045  -26.8417 H   0  0  0  0  0  0  0  0  0  0  0  0
   -3.2663   20.5379  -28.8949 H   0  0  0  0  0  0  0  0  0  0  0  0
  1  2  1  0
  2  3  1  0
  3  4  1  0
  4  5  1  0
  5  6  2  0
  5  7  1  0
  7  8  2  0
  8  9  1  0
  9 10  2  0
 10 11  1  0
 11 12  1  0
 10 13  1  0
 13 14  2  0
 13 15  1  0
 15 16  1  0
 16 17  1  0
 15 18  1  0
 18 19  1  0
 19 20  1  0
 20 21  1  0
 18 22  1  0
 22 23  1  0
 22 24  1  0
 24 25  2  0
  8 26  1  0
 26 27  1  0
 27 28  2  0
 28 29  1  0
 29 30  2  0
 30 31  1  0
 31 32  2  0
 26 33  1  0
 33 34  2  0
 33  4  1  0
 11  7  1  0
 21 18  1  0
 32 27  1  0
 24  9  1  0
  1 35  1  0
  1 36  1  0
  1 37  1  0
  2 38  1  0
  2 39  1  0
  3 40  1  0
  3 41  1  0
 12 42  1  0
 12 43  1  0
 12 44  1  0
 16 45  1  0
 16 46  1  0
 17 47  1  0
 17 48  1  0
 17 49  1  0
 19 50  1  0
 19 51  1  0
 20 52  1  0
 20 53  1  0
 21 54  1  0
 21 55  1  0
 23 56  1  0
 28 57  1  0
 29 58  1  0
 30 59  1  0
 31 60  1  0
 32 61  1  0
M  END
>  <UniqueID>  (18) 
17

>  <SMILES>  (18) 
CCCn1c(=O)c2c(c3c(n2C)C(=O)N(CC)C2(CCC2)N(O)C3=O)n(-c2ccccc2)c1=O

>  <Energy>  (18) 
195.17369596212552

>  <Genealogy>  (18) 
CCCn1c(=O)c2c(c3c(n2C)C(=O)N(CC)C2(CCC2)N(O)C3=O)n(-c2ccccc2)c1=O (3D coordinates assigned)
CCCn1c(=O)c2c(c3c(n2C)C(=O)N(CC)C2(CCC2)N(O)C3=O)n(-c2ccccc2)c1=O (nonaromatic ring conformer: 195.17369596212552 kcal/mol)

>  <smiles>  (18) 
CCCn1c(=O)c2c(c3c(n2C)C(=O)N(CC)C2(CCC2)N(O)C3=O)n(-c2ccccc2)c1=O

>  <score_type>  (18) 
oracle

>  <origin>  (18) 
adg

>  <m_score__min__energy>  (18) 
-8.3599999999999994

>  <m_primary>  (18) 
energy

$$$$
18:0
     RDKit          3D

 44 47  0  0  0  0  0  0  0  0999 V2000
   -5.7340   24.7420  -30.3910 C   0  0  0  0  0  0  0  0  0  0  0  0
   -4.4660   24.2770  -30.8410 O   0  0  0  0  0  0  0  0  0  0  0  0
   -4.2140   22.9690  -31.2820 C   0  0  0  0  0  0  0  0  0  0  0  0
   -4.4350   22.6670  -32.6300 C   0  0  0  0  0  0  0  0  0  0  0  0
   -4.2130   21.3740  -33.1140 C   0  0  0  0  0  0  0  0  0  0  0  0
   -3.7850   20.3520  -32.2500 C   0  0  0  0  0  0  0  0  0  0  0  0
   -3.5410   18.9530  -32.7840 C   0  0  0  0  0  0  0  0  0  0  0  0
   -4.7670   18.2010  -33.1430 N   0  0  0  0  0  0  0  0  0  0  0  0
   -5.4320   17.5050  -32.0370 C   0  0  0  0  0  0  0  0  0  0  0  0
   -6.9380   17.6270  -32.2420 C   0  0  1  0  0  0  0  0  0  0  0  0
   -7.6490   18.6240  -31.3210 C   0  0  0  0  0  0  0  0  0  0  0  0
   -7.9350   19.5240  -32.5290 C   0  0  2  0  0  0  0  0  0  0  0  0
   -7.4500   20.9610  -32.3780 C   0  0  0  0  0  0  0  0  0  0  0  0
   -8.6520   21.6630  -31.7880 C   0  0  0  0  0  0  0  0  0  0  0  0
   -9.8550   20.8130  -32.1960 C   0  0  0  0  0  0  0  0  0  0  0  0
   -9.3690   19.5730  -32.8140 N   0  0  0  0  0  0  0  0  0  0  0  0
   -7.1630   18.5340  -33.4370 C   0  0  1  0  0  0  0  0  0  0  0  0
   -5.7670   18.9230  -33.9430 C   0  0  0  0  0  0  0  0  0  0  0  0
   -3.5170   20.6680  -30.9070 C   0  0  0  0  0  0  0  0  0  0  0  0
   -3.7420   21.9610  -30.4220 C   0  0  0  0  0  0  0  0  0  0  0  0
   -5.7528   24.7489  -29.2912 H   0  0  0  0  0  0  0  0  0  0  0  0
   -5.9053   25.7614  -30.7671 H   0  0  0  0  0  0  0  0  0  0  0  0
   -6.5237   24.0750  -30.7671 H   0  0  0  0  0  0  0  0  0  0  0  0
   -4.7862   23.4530  -33.3147 H   0  0  0  0  0  0  0  0  0  0  0  0
   -4.3748   21.1552  -34.1798 H   0  0  0  0  0  0  0  0  0  0  0  0
   -2.9142   19.0350  -33.6842 H   0  0  0  0  0  0  0  0  0  0  0  0
   -3.0606   18.3906  -31.9698 H   0  0  0  0  0  0  0  0  0  0  0  0
   -5.1403   16.4444  -32.0340 H   0  0  0  0  0  0  0  0  0  0  0  0
   -5.1398   17.9499  -31.0744 H   0  0  0  0  0  0  0  0  0  0  0  0
   -7.2741   16.5806  -32.1953 H   0  0  0  0  0  0  0  0  0  0  0  0
   -8.5506   18.2235  -30.8345 H   0  0  0  0  0  0  0  0  0  0  0  0
   -7.1401   19.0256  -30.4324 H   0  0  0  0  0  0  0  0  0  0  0  0
   -6.5860   21.0178  -31.6995 H   0  0  0  0  0  0  0  0  0  0  0  0
   -7.1083   21.4058  -33.3243 H   0  0  0  0  0  0  0  0  0  0  0  0
   -8.5695   21.7134  -30.6923 H   0  0  0  0  0  0  0  0  0  0  0  0
   -8.7402   22.6986  -32.1482 H   0  0  0  0  0  0  0  0  0  0  0  0
  -10.4564   20.5722  -31.3070 H   0  0  0  0  0  0  0  0  0  0  0  0
  -10.4798   21.3678  -32.9114 H   0  0  0  0  0  0  0  0  0  0  0  0
   -9.4910   19.6710  -33.8500 H   0  0  0  0  0  0  0  0  0  0  0  0
   -7.6672   18.2686  -34.3779 H   0  0  0  0  0  0  0  0  0  0  0  0
   -5.6653   18.6464  -35.0028 H   0  0  0  0  0  0  0  0  0  0  0  0
   -5.6179   20.0085  -33.8453 H   0  0  0  0  0  0  0  0  0  0  0  0
   -3.1271   19.8923  -30.2315 H   0  0  0  0  0  0  0  0  0  0  0  0
   -3.5489   22.1902  -29.3636 H   0  0  0  0  0  0  0  0  0  0  0  0
  1  2  1  0
  2  3  1  0
  3  4  2  0
  4  5  1  0
  5  6  2  0
  6  7  1  0
  7  8  1  0
  8  9  1  0
  9 10  1  0
 10 11  1  0
 11 12  1  0
 12 13  1  0
 13 14  1  0
 14 15  1  0
 15 16  1  0
 12 17  1  0
 17 18  1  0
  6 19  1  0
 19 20  2  0
 20  3  1  0
 18  8  1  0
 17 10  1  0
 12 16  1  6
  1 21  1  0
  1 22  1  0
  1 23  1  0
  4 24  1  0
  5 25  1  0
  7 26  1  0
  7 27  1  0
  9 28  1  0
  9 29  1  0
 10 30  1  6
 11 31  1  0
 11 32  1  0
 13 33  1  0
 13 34  1  0
 14 35  1  0
 14 36  1  0
 15 37  1  0
 15 38  1  0
 16 39  1  0
 17 40  1  6
 18 41  1  0
 18 42  1  0
 19 43  1  0
 20 44  1  0
M  END
>  <UniqueID>  (19) 
18

>  <SMILES>  (19) 
COc1ccc(CN2CC3[C@@H](C2)C[C@@]32CCCN2)cc1

>  <Energy>  (19) 
120.82243947152614

>  <Genealogy>  (19) 
COc1ccc(CN2CC3[C@@H](C2)C[C@@]32CCCN2)cc1 (chirality)
COc1ccc(CN2CC3[C@@H](C2)C[C@@]32CCCN2)cc1 (3D coordinates assigned)
COc1ccc(CN2CC3[C@@H](C2)C[C@@]32CCCN2)cc1 (nonaromatic ring conformer: 120.82243947152614 kcal/mol)

>  <smiles>  (19) 
COc1ccc(CN2CC3CC4(CCCN4)C3C2)cc1

>  <score_type>  (19) 
oracle

>  <origin>  (19) 
adg

>  <m_score__min__energy>  (19) 
-8.5

>  <m_primary>  (19) 
energy

$$$$
19:0
     RDKit          3D

 41 43  0  0  0  0  0  0  0  0999 V2000
   -4.9690   15.4480  -31.8510 C   0  0  0  0  0  0  0  0  0  0  0  0
   -5.2440   16.4130  -33.0230 C   0  0  0  0  0  0  0  0  0  0  0  0
   -5.8170   15.5700  -34.1840 C   0  0  0  0  0  0  0  0  0  0  0  0
   -3.9800   16.9410  -33.4380 O   0  0  0  0  0  0  0  0  0  0  0  0
   -3.5560   18.2360  -33.1330 C   0  0  0  0  0  0  0  0  0  0  0  0
   -2.1590   18.5080  -33.0250 N   0  0  0  0  0  0  0  0  0  0  0  0
   -4.4300   19.1830  -32.9480 N   0  0  0  0  0  0  0  0  0  0  0  0
   -5.8680   18.9590  -33.2040 C   0  0  2  0  0  0  0  0  0  0  0  0
   -6.1100   18.9400  -34.7350 C   0  0  0  0  0  0  0  0  0  0  0  0
   -6.6890   20.1440  -32.6180 C   0  0  0  0  0  0  0  0  0  0  0  0
   -6.0830   21.3000  -32.0650 C   0  0  0  0  0  0  0  0  0  0  0  0
   -6.8650   22.3340  -31.5270 C   0  0  0  0  0  0  0  0  0  0  0  0
   -6.2500   23.5160  -30.9830 N   0  0  0  0  0  0  0  0  0  0  0  0
   -6.8340   24.4010  -30.1510 C   0  0  0  0  0  0  0  0  0  0  0  0
   -5.9230   25.3910  -29.8570 C   0  0  0  0  0  0  0  0  0  0  0  0
   -4.7850   25.0400  -30.5560 C   0  0  0  0  0  0  0  0  0  0  0  0
   -5.0060   23.8960  -31.2320 N   0  0  0  0  0  0  0  0  0  0  0  0
   -8.2180   22.2150  -31.5160 N   0  0  0  0  0  0  0  0  0  0  0  0
   -8.8440   21.1190  -32.0060 C   0  0  0  0  0  0  0  0  0  0  0  0
   -8.1040   20.0680  -32.5500 C   0  0  0  0  0  0  0  0  0  0  0  0
   -8.7840   18.9770  -32.9900 F   0  0  0  0  0  0  0  0  0  0  0  0
   -6.2350   17.5640  -32.5810 C   0  0  0  0  0  0  0  0  0  0  0  0
   -6.1760   17.7010  -31.1990 F   0  0  0  0  0  0  0  0  0  0  0  0
   -7.5360   17.2090  -32.9160 F   0  0  0  0  0  0  0  0  0  0  0  0
   -5.1196   15.9763  -30.8980 H   0  0  0  0  0  0  0  0  0  0  0  0
   -5.6594   14.5937  -31.9097 H   0  0  0  0  0  0  0  0  0  0  0  0
   -3.9319   15.0860  -31.9097 H   0  0  0  0  0  0  0  0  0  0  0  0
   -6.3911   14.7254  -33.7753 H   0  0  0  0  0  0  0  0  0  0  0  0
   -6.4767   16.1971  -34.8017 H   0  0  0  0  0  0  0  0  0  0  0  0
   -4.9911   15.1873  -34.8017 H   0  0  0  0  0  0  0  0  0  0  0  0
   -1.4660   17.7410  -33.1710 H   0  0  0  0  0  0  0  0  0  0  0  0
   -1.8110   19.4670  -32.8030 H   0  0  0  0  0  0  0  0  0  0  0  0
   -4.0830   20.1120  -32.6230 H   0  0  0  0  0  0  0  0  0  0  0  0
   -7.1884   18.8553  -34.9347 H   0  0  0  0  0  0  0  0  0  0  0  0
   -5.7270   19.8710  -35.1783 H   0  0  0  0  0  0  0  0  0  0  0  0
   -5.5864   18.0802  -35.1783 H   0  0  0  0  0  0  0  0  0  0  0  0
   -4.9865   21.3878  -32.0574 H   0  0  0  0  0  0  0  0  0  0  0  0
   -7.8646   24.3424  -29.7709 H   0  0  0  0  0  0  0  0  0  0  0  0
   -6.0695   26.2675  -29.2087 H   0  0  0  0  0  0  0  0  0  0  0  0
   -3.8427   25.6075  -30.5602 H   0  0  0  0  0  0  0  0  0  0  0  0
   -9.9418   21.0565  -31.9752 H   0  0  0  0  0  0  0  0  0  0  0  0
  1  2  1  0
  2  3  1  0
  2  4  1  0
  4  5  1  0
  5  6  1  0
  5  7  2  0
  7  8  1  0
  8  9  1  6
  8 10  1  0
 10 11  2  0
 11 12  1  0
 12 13  1  0
 13 14  1  0
 14 15  2  0
 15 16  1  0
 16 17  2  0
 12 18  2  0
 18 19  1  0
 19 20  2  0
 20 21  1  0
  8 22  1  0
 22 23  1  0
 22 24  1  0
 22  2  1  0
 20 10  1  0
 17 13  1  0
  1 25  1  0
  1 26  1  0
  1 27  1  0
  3 28  1  0
  3 29  1  0
  3 30  1  0
  6 31  1  0
  6 32  1  0
  7 33  1  0
  9 34  1  0
  9 35  1  0
  9 36  1  0
 11 37  1  0
 14 38  1  0
 15 39  1  0
 16 40  1  0
 19 41  1  0
M  CHG  1   7   1
M  END
>  <UniqueID>  (20) 
19

>  <SMILES>  (20) 
CC1(C)OC(N)=[NH+][C@](C)(c2cc(-n3cccn3)ncc2F)C1(F)F

>  <Energy>  (20) 
89.91438054363651

>  <Genealogy>  (20) 
CC1(C)OC(N)=[NH+]C(C)(c2cc(-n3cccn3)ncc2F)C1(F)F (protonated)
CC1(C)OC(N)=[NH+][C@](C)(c2cc(-n3cccn3)ncc2F)C1(F)F (chirality)
CC1(C)OC(N)=[NH+][C@](C)(c2cc(-n3cccn3)ncc2F)C1(F)F (3D coordinates assigned)
CC1(C)OC(N)=[NH+][C@](C)(c2cc(-n3cccn3)ncc2F)C1(F)F (nonaromatic ring conformer: 89.91438054363651 kcal/mol)

>  <smiles>  (20) 
CC1(C)OC(N)=NC(C)(c2cc(-n3cccn3)ncc2F)C1(F)F

>  <score_type>  (20) 
oracle

>  <origin>  (20) 
adg

>  <m_score__min__energy>  (20) 
-6.8200000000000003

>  <m_primary>  (20) 
energy

$$$$
20:0
     RDKit          3D

 57 59  0  0  0  0  0  0  0  0999 V2000
   -2.7850   24.5790  -27.3880 C   0  0  0  0  0  0  0  0  0  0  0  0
   -2.1530   24.7410  -28.7660 C   0  0  0  0  0  0  0  0  0  0  0  0
   -3.1100   25.2320  -29.7070 O   0  0  0  0  0  0  0  0  0  0  0  0
   -4.2640   24.5500  -30.1240 C   0  0  0  0  0  0  0  0  0  0  0  0
   -5.3140   25.1820  -30.8190 C   0  0  0  0  0  0  0  0  0  0  0  0
   -6.4410   24.4540  -31.2080 C   0  0  0  0  0  0  0  0  0  0  0  0
   -6.5390   23.0860  -30.9140 C   0  0  0  0  0  0  0  0  0  0  0  0
   -7.7510   22.3070  -31.3610 C   0  0  0  0  0  0  0  0  0  0  0  0
   -7.3970   20.9060  -31.7250 N   0  0  1  0  0  0  0  0  0  0  0  0
   -8.5780   20.0300  -31.5990 C   0  0  0  0  0  0  0  0  0  0  0  0
   -6.8460   20.8190  -33.1000 C   0  0  0  0  0  0  0  0  0  0  0  0
   -5.5500   20.0360  -33.1290 C   0  0  0  0  0  0  0  0  0  0  0  0
   -5.4210   18.6510  -33.1450 C   0  0  0  0  0  0  0  0  0  0  0  0
   -6.5240   17.6450  -33.2000 C   0  0  0  0  0  0  0  0  0  0  0  0
   -4.1310   18.3130  -32.9650 N   0  0  0  0  0  0  0  0  0  0  0  0
   -3.4260   19.4290  -32.8750 N   0  0  0  0  0  0  0  0  0  0  0  0
   -2.0110   19.4360  -32.5050 C   0  0  0  0  0  0  0  0  0  0  0  0
   -1.1780   19.8480  -33.6890 C   0  0  0  0  0  0  0  0  0  0  0  0
   -0.6740   18.8750  -34.5690 C   0  0  0  0  0  0  0  0  0  0  0  0
    0.1390   19.2480  -35.6440 C   0  0  0  0  0  0  0  0  0  0  0  0
    0.4620   20.5920  -35.8430 C   0  0  0  0  0  0  0  0  0  0  0  0
   -0.0290   21.5670  -34.9690 C   0  0  0  0  0  0  0  0  0  0  0  0
   -0.8460   21.1990  -33.8960 C   0  0  0  0  0  0  0  0  0  0  0  0
   -4.2490   20.5000  -32.9750 C   0  0  0  0  0  0  0  0  0  0  0  0
   -3.8000   21.9290  -32.8570 C   0  0  0  0  0  0  0  0  0  0  0  0
   -5.4880   22.4510  -30.2370 C   0  0  0  0  0  0  0  0  0  0  0  0
   -4.3620   23.1810  -29.8440 C   0  0  0  0  0  0  0  0  0  0  0  0
   -2.0290   24.7728  -26.6128 H   0  0  0  0  0  0  0  0  0  0  0  0
   -3.6140   25.2937  -27.2785 H   0  0  0  0  0  0  0  0  0  0  0  0
   -3.1680   23.5537  -27.2785 H   0  0  0  0  0  0  0  0  0  0  0  0
   -1.3162   25.4517  -28.6980 H   0  0  0  0  0  0  0  0  0  0  0  0
   -1.7935   23.7591  -29.1074 H   0  0  0  0  0  0  0  0  0  0  0  0
   -5.2460   26.2539  -31.0565 H   0  0  0  0  0  0  0  0  0  0  0  0
   -7.2567   24.9567  -31.7483 H   0  0  0  0  0  0  0  0  0  0  0  0
   -8.4858   22.2887  -30.5426 H   0  0  0  0  0  0  0  0  0  0  0  0
   -8.1683   22.7997  -32.2516 H   0  0  0  0  0  0  0  0  0  0  0  0
   -6.6800   20.5310  -31.0600 H   0  0  0  0  0  0  0  0  0  0  0  0
   -8.8003   19.8651  -30.5344 H   0  0  0  0  0  0  0  0  0  0  0  0
   -9.4420   20.5073  -32.0843 H   0  0  0  0  0  0  0  0  0  0  0  0
   -8.3719   19.0646  -32.0843 H   0  0  0  0  0  0  0  0  0  0  0  0
   -7.5804   20.3191  -33.7486 H   0  0  0  0  0  0  0  0  0  0  0  0
   -6.6411   21.8396  -33.4554 H   0  0  0  0  0  0  0  0  0  0  0  0
   -6.8229   17.3724  -32.1771 H   0  0  0  0  0  0  0  0  0  0  0  0
   -7.3859   18.0745  -33.7317 H   0  0  0  0  0  0  0  0  0  0  0  0
   -6.1754   16.7474  -33.7317 H   0  0  0  0  0  0  0  0  0  0  0  0
   -1.8522   20.1474  -31.6812 H   0  0  0  0  0  0  0  0  0  0  0  0
   -1.7137   18.4266  -32.1846 H   0  0  0  0  0  0  0  0  0  0  0  0
   -0.9203   17.8146  -34.4114 H   0  0  0  0  0  0  0  0  0  0  0  0
    0.5243   18.4822  -36.3333 H   0  0  0  0  0  0  0  0  0  0  0  0
    1.1031   20.8839  -36.6878 H   0  0  0  0  0  0  0  0  0  0  0  0
    0.2280   22.6250  -35.1260 H   0  0  0  0  0  0  0  0  0  0  0  0
   -1.2307   21.9689  -33.2110 H   0  0  0  0  0  0  0  0  0  0  0  0
   -3.7148   22.2000  -31.7943 H   0  0  0  0  0  0  0  0  0  0  0  0
   -2.8214   22.0474  -33.3451 H   0  0  0  0  0  0  0  0  0  0  0  0
   -4.5351   22.5858  -33.3451 H   0  0  0  0  0  0  0  0  0  0  0  0
   -5.5495   21.3755  -30.0144 H   0  0  0  0  0  0  0  0  0  0  0  0
   -3.5446   22.6749  -29.3094 H   0  0  0  0  0  0  0  0  0  0  0  0
  1  2  1  0
  2  3  1  0
  3  4  1  0
  4  5  2  0
  5  6  1  0
  6  7  2  0
  7  8  1  0
  8  9  1  0
  9 10  1  0
  9 11  1  0
 11 12  1  0
 12 13  1  0
 13 14  1  0
 13 15  2  0
 15 16  1  0
 16 17  1  0
 17 18  1  0
 18 19  2  0
 19 20  1  0
 20 21  2  0
 21 22  1  0
 22 23  2  0
 16 24  1  0
 24 25  1  0
  7 26  1  0
 26 27  2  0
 27  4  1  0
 24 12  2  0
 23 18  1  0
  1 28  1  0
  1 29  1  0
  1 30  1  0
  2 31  1  0
  2 32  1  0
  5 33  1  0
  6 34  1  0
  8 35  1  0
  8 36  1  0
  9 37  1  1
 10 38  1  0
 10 39  1  0
 10 40  1  0
 11 41  1  0
 11 42  1  0
 14 43  1  0
 14 44  1  0
 14 45  1  0
 17 46  1  0
 17 47  1  0
 19 48  1  0
 20 49  1  0
 21 50  1  0
 22 51  1  0
 23 52  1  0
 25 53  1  0
 25 54  1  0
 25 55  1  0
 26 56  1  0
 27 57  1  0
M  CHG  1   9   1
M  END
>  <UniqueID>  (21) 
20

>  <SMILES>  (21) 
CCOc1ccc(C[N@@H+](C)Cc2c(C)nn(Cc3ccccc3)c2C)cc1

>  <Energy>  (21) 
82.94536320812325

>  <Genealogy>  (21) 
CCOc1ccc(C[NH+](C)Cc2c(C)nn(Cc3ccccc3)c2C)cc1 (protonated)
CCOc1ccc(C[N@@H+](C)Cc2c(C)nn(Cc3ccccc3)c2C)cc1 (chirality)
CCOc1ccc(C[N@@H+](C)Cc2c(C)nn(Cc3ccccc3)c2C)cc1 (3D coordinates assigned)
CCOc1ccc(C[N@@H+](C)Cc2c(C)nn(Cc3ccccc3)c2C)cc1 (optimized conformer: 82.94536320812325 kcal/mol)

>  <smiles>  (21) 
CCOc1ccc(CN(C)Cc2c(C)nn(Cc3ccccc3)c2C)cc1

>  <score_type>  (21) 
oracle

>  <origin>  (21) 
adg

>  <m_score__min__energy>  (21) 
-8.0199999999999996

>  <m_primary>  (21) 
energy

$$$$
21:0
     RDKit          3D

 43 44  0  0  0  0  0  0  0  0999 V2000
   -5.7020   17.5010  -32.3080 C   0  0  0  0  0  0  0  0  0  0  0  0
   -6.9540   17.6040  -31.6680 O   0  0  0  0  0  0  0  0  0  0  0  0
   -7.8910   18.2600  -32.5050 C   0  0  0  0  0  0  0  0  0  0  0  0
   -9.1220   18.6540  -31.6970 C   0  0  0  0  0  0  0  0  0  0  0  0
   -8.8980   19.9050  -31.0550 O   0  0  0  0  0  0  0  0  0  0  0  0
   -8.6330   21.0820  -31.7620 C   0  0  0  0  0  0  0  0  0  0  0  0
   -9.5730   21.6990  -32.3370 O   0  0  0  0  0  0  0  0  0  0  0  0
   -7.2500   21.6000  -31.8360 C   0  0  0  0  0  0  0  0  0  0  0  0
   -6.3270   21.0330  -32.7340 C   0  0  0  0  0  0  0  0  0  0  0  0
   -5.0270   21.5350  -32.8230 C   0  0  0  0  0  0  0  0  0  0  0  0
   -4.6320   22.6060  -32.0200 C   0  0  0  0  0  0  0  0  0  0  0  0
   -5.5350   23.1790  -31.1160 C   0  0  0  0  0  0  0  0  0  0  0  0
   -5.0570   24.5850  -30.1700 S   0  0  0  0  0  0  0  0  0  0  0  0
   -5.8120   25.7920  -30.6500 O   0  0  0  0  0  0  0  0  0  0  0  0
   -5.3760   24.3630  -28.7190 O   0  0  0  0  0  0  0  0  0  0  0  0
   -3.3590   24.8660  -30.3540 N   0  0  0  0  0  0  0  0  0  0  0  0
   -2.4090   24.0550  -29.6650 C   0  0  0  0  0  0  0  0  0  0  0  0
   -2.5430   22.6610  -29.6940 C   0  0  0  0  0  0  0  0  0  0  0  0
   -1.6050   21.8510  -29.0510 C   0  0  0  0  0  0  0  0  0  0  0  0
   -0.5280   22.4300  -28.3760 C   0  0  0  0  0  0  0  0  0  0  0  0
   -0.3900   23.8210  -28.3380 C   0  0  0  0  0  0  0  0  0  0  0  0
   -1.3330   24.6470  -28.9800 C   0  0  0  0  0  0  0  0  0  0  0  0
   -1.2340   26.0480  -28.9620 O   0  0  0  0  0  0  0  0  0  0  0  0
   -0.8100   26.8110  -27.8390 C   0  0  0  0  0  0  0  0  0  0  0  0
   -6.8410   22.6760  -31.0260 C   0  0  0  0  0  0  0  0  0  0  0  0
   -4.9072   17.4356  -31.5504 H   0  0  0  0  0  0  0  0  0  0  0  0
   -5.6846   16.5984  -32.9365 H   0  0  0  0  0  0  0  0  0  0  0  0
   -5.5373   18.3886  -32.9365 H   0  0  0  0  0  0  0  0  0  0  0  0
   -7.4298   19.1633  -32.9309 H   0  0  0  0  0  0  0  0  0  0  0  0
   -8.1921   17.5791  -33.3147 H   0  0  0  0  0  0  0  0  0  0  0  0
   -9.9884   18.7387  -32.3695 H   0  0  0  0  0  0  0  0  0  0  0  0
   -9.3176   17.8850  -30.9352 H   0  0  0  0  0  0  0  0  0  0  0  0
   -6.6315   20.1888  -33.3701 H   0  0  0  0  0  0  0  0  0  0  0  0
   -4.3123   21.0851  -33.5279 H   0  0  0  0  0  0  0  0  0  0  0  0
   -3.6084   23.0012  -32.0975 H   0  0  0  0  0  0  0  0  0  0  0  0
   -3.3902   22.2028  -30.2253 H   0  0  0  0  0  0  0  0  0  0  0  0
   -1.7142   20.7567  -29.0760 H   0  0  0  0  0  0  0  0  0  0  0  0
    0.2128   21.7908  -27.8735 H   0  0  0  0  0  0  0  0  0  0  0  0
    0.4592   24.2723  -27.8041 H   0  0  0  0  0  0  0  0  0  0  0  0
   -1.0984   26.2920  -26.9130 H   0  0  0  0  0  0  0  0  0  0  0  0
    0.2832   26.9293  -27.8677 H   0  0  0  0  0  0  0  0  0  0  0  0
   -1.2869   27.8018  -27.8677 H   0  0  0  0  0  0  0  0  0  0  0  0
   -7.5513   23.1259  -30.3168 H   0  0  0  0  0  0  0  0  0  0  0  0
  1  2  1  0
  2  3  1  0
  3  4  1  0
  4  5  1  0
  5  6  1  0
  6  7  2  0
  6  8  1  0
  8  9  2  0
  9 10  1  0
 10 11  2  0
 11 12  1  0
 12 13  1  0
 13 14  2  0
 13 15  2  0
 13 16  1  0
 16 17  1  0
 17 18  2  0
 18 19  1  0
 19 20  2  0
 20 21  1  0
 21 22  2  0
 22 23  1  0
 23 24  1  0
 12 25  2  0
 25  8  1  0
 22 17  1  0
  1 26  1  0
  1 27  1  0
  1 28  1  0
  3 29  1  0
  3 30  1  0
  4 31  1  0
  4 32  1  0
  9 33  1  0
 10 34  1  0
 11 35  1  0
 18 36  1  0
 19 37  1  0
 20 38  1  0
 21 39  1  0
 24 40  1  0
 24 41  1  0
 24 42  1  0
 25 43  1  0
M  CHG  1  16  -1
M  END
>  <UniqueID>  (22) 
21

>  <SMILES>  (22) 
COCCOC(=O)c1cccc(S(=O)(=O)[N-]c2ccccc2OC)c1

>  <Energy>  (22) 
48.510260068189325

>  <Genealogy>  (22) 
COCCOC(=O)c1cccc(S(=O)(=O)[N-]c2ccccc2OC)c1 (protonated)
COCCOC(=O)c1cccc(S(=O)(=O)[N-]c2ccccc2OC)c1 (3D coordinates assigned)
COCCOC(=O)c1cccc(S(=O)(=O)[N-]c2ccccc2OC)c1 (optimized conformer: 48.510260068189325 kcal/mol)

>  <smiles>  (22) 
COCCOC(=O)c1cccc(S(=O)(=O)Nc2ccccc2OC)c1

>  <score_type>  (22) 
oracle

>  <origin>  (22) 
adg

>  <m_score__min__energy>  (22) 
-9.9299999999999997

>  <m_primary>  (22) 
energy

$$$$
22:0
     RDKit          3D

 57 60  0  0  0  0  0  0  0  0999 V2000
   -1.3360   25.3510  -27.7870 C   0  0  0  0  0  0  0  0  0  0  0  0
   -2.0000   25.3000  -29.0450 O   0  0  0  0  0  0  0  0  0  0  0  0
   -2.3320   24.1150  -29.7190 C   0  0  0  0  0  0  0  0  0  0  0  0
   -3.5520   24.0560  -30.4010 C   0  0  0  0  0  0  0  0  0  0  0  0
   -3.9270   22.8970  -31.0860 C   0  0  0  0  0  0  0  0  0  0  0  0
   -3.0890   21.7710  -31.0890 C   0  0  0  0  0  0  0  0  0  0  0  0
   -3.4900   20.5520  -31.8260 C   0  0  0  0  0  0  0  0  0  0  0  0
   -4.7110   19.9780  -31.6290 N   0  0  0  0  0  0  0  0  0  0  0  0
   -4.9360   18.9270  -32.4460 C   0  0  0  0  0  0  0  0  0  0  0  0
   -6.1780   18.0920  -32.4060 C   0  0  0  0  0  0  0  0  0  0  0  0
   -7.2820   18.7750  -33.0830 N   0  0  0  0  0  0  0  0  0  0  0  0
   -7.8800   19.9910  -32.5920 C   0  0  0  0  0  0  0  0  0  0  0  0
   -9.2490   20.0050  -32.2910 C   0  0  0  0  0  0  0  0  0  0  0  0
   -9.8560   21.1660  -31.8120 C   0  0  0  0  0  0  0  0  0  0  0  0
   -9.1060   22.3280  -31.6280 C   0  0  0  0  0  0  0  0  0  0  0  0
   -7.7290   22.3450  -31.9240 C   0  0  0  0  0  0  0  0  0  0  0  0
   -6.9150   23.5770  -31.7350 C   0  0  0  0  0  0  0  0  0  0  0  0
   -6.9050   24.3300  -30.4390 C   0  0  0  0  0  0  0  0  0  0  0  0
   -6.2070   24.0110  -32.6840 O   0  0  0  0  0  0  0  0  0  0  0  0
   -7.1260   21.1670  -32.4060 C   0  0  0  0  0  0  0  0  0  0  0  0
   -3.6110   18.6350  -33.4360 S   0  0  0  0  0  0  0  0  0  0  0  0
   -2.7130   19.9190  -32.8110 C   0  0  0  0  0  0  0  0  0  0  0  0
   -1.3200   20.2210  -33.2050 C   0  0  0  0  0  0  0  0  0  0  0  0
   -1.0670   21.1270  -34.2470 C   0  0  0  0  0  0  0  0  0  0  0  0
    0.2460   21.4190  -34.6270 C   0  0  0  0  0  0  0  0  0  0  0  0
    1.3290   20.7980  -33.9770 C   0  0  0  0  0  0  0  0  0  0  0  0
    2.6630   21.0610  -34.3180 O   0  0  0  0  0  0  0  0  0  0  0  0
    3.0680   21.9430  -35.3600 C   0  0  0  0  0  0  0  0  0  0  0  0
    1.0730   19.8800  -32.9520 C   0  0  0  0  0  0  0  0  0  0  0  0
   -0.2390   19.5880  -32.5700 C   0  0  0  0  0  0  0  0  0  0  0  0
   -1.8580   21.8330  -30.4170 C   0  0  0  0  0  0  0  0  0  0  0  0
   -1.4820   22.9930  -29.7330 C   0  0  0  0  0  0  0  0  0  0  0  0
   -2.0788   25.2939  -26.9777 H   0  0  0  0  0  0  0  0  0  0  0  0
   -0.6392   24.5037  -27.7055 H   0  0  0  0  0  0  0  0  0  0  0  0
   -0.7768   26.2947  -27.7055 H   0  0  0  0  0  0  0  0  0  0  0  0
   -4.2215   24.9288  -30.3981 H   0  0  0  0  0  0  0  0  0  0  0  0
   -4.8848   22.8670  -31.6261 H   0  0  0  0  0  0  0  0  0  0  0  0
   -5.4140   20.3270  -30.9390 H   0  0  0  0  0  0  0  0  0  0  0  0
   -5.9846   17.1326  -32.9081 H   0  0  0  0  0  0  0  0  0  0  0  0
   -6.4573   17.9231  -31.3555 H   0  0  0  0  0  0  0  0  0  0  0  0
   -7.6680   18.3580  -33.9620 H   0  0  0  0  0  0  0  0  0  0  0  0
   -9.8488   19.0940  -32.4335 H   0  0  0  0  0  0  0  0  0  0  0  0
  -10.9309   21.1654  -31.5783 H   0  0  0  0  0  0  0  0  0  0  0  0
   -9.5939   23.2380  -31.2488 H   0  0  0  0  0  0  0  0  0  0  0  0
   -6.9145   23.6176  -29.6009 H   0  0  0  0  0  0  0  0  0  0  0  0
   -5.9985   24.9506  -30.3825 H   0  0  0  0  0  0  0  0  0  0  0  0
   -7.7947   24.9744  -30.3825 H   0  0  0  0  0  0  0  0  0  0  0  0
   -6.0513   21.1648  -32.6406 H   0  0  0  0  0  0  0  0  0  0  0  0
   -1.9071   21.6100  -34.7676 H   0  0  0  0  0  0  0  0  0  0  0  0
    0.4339   22.1378  -35.4382 H   0  0  0  0  0  0  0  0  0  0  0  0
    3.4890   22.8598  -34.9215 H   0  0  0  0  0  0  0  0  0  0  0  0
    3.8302   21.4505  -35.9817 H   0  0  0  0  0  0  0  0  0  0  0  0
    2.1977   22.2001  -35.9817 H   0  0  0  0  0  0  0  0  0  0  0  0
    1.9122   19.3839  -32.4425 H   0  0  0  0  0  0  0  0  0  0  0  0
   -0.4261   18.8588  -31.7680 H   0  0  0  0  0  0  0  0  0  0  0  0
   -1.1848   20.9632  -30.4287 H   0  0  0  0  0  0  0  0  0  0  0  0
   -0.5183   23.0290  -29.2038 H   0  0  0  0  0  0  0  0  0  0  0  0
  1  2  1  0
  2  3  1  0
  3  4  2  0
  4  5  1  0
  5  6  2  0
  6  7  1  0
  7  8  1  0
  8  9  2  0
  9 10  1  0
 10 11  1  0
 11 12  1  0
 12 13  2  0
 13 14  1  0
 14 15  2  0
 15 16  1  0
 16 17  1  0
 17 18  1  0
 17 19  2  0
 16 20  2  0
  9 21  1  0
 21 22  1  0
 22 23  1  0
 23 24  2  0
 24 25  1  0
 25 26  2  0
 26 27  1  0
 27 28  1  0
 26 29  1  0
 29 30  2  0
  6 31  1  0
 31 32  2  0
 32  3  1  0
 22  7  2  0
 30 23  1  0
 20 12  1  0
  1 33  1  0
  1 34  1  0
  1 35  1  0
  4 36  1  0
  5 37  1  0
  8 38  1  0
 10 39  1  0
 10 40  1  0
 11 41  1  0
 13 42  1  0
 14 43  1  0
 15 44  1  0
 18 45  1  0
 18 46  1  0
 18 47  1  0
 20 48  1  0
 24 49  1  0
 25 50  1  0
 28 51  1  0
 28 52  1  0
 28 53  1  0
 29 54  1  0
 30 55  1  0
 31 56  1  0
 32 57  1  0
M  CHG  1   8   1
M  END
>  <UniqueID>  (23) 
22

>  <SMILES>  (23) 
COc1ccc(-c2[nH+]c(CNc3cccc(C(C)=O)c3)sc2-c2ccc(OC)cc2)cc1

>  <Energy>  (23) 
96.96712550193436

>  <Genealogy>  (23) 
COc1ccc(-c2[nH+]c(CNc3cccc(C(C)=O)c3)sc2-c2ccc(OC)cc2)cc1 (protonated)
COc1ccc(-c2[nH+]c(CNc3cccc(C(C)=O)c3)sc2-c2ccc(OC)cc2)cc1 (3D coordinates assigned)
COc1ccc(-c2[nH+]c(CNc3cccc(C(C)=O)c3)sc2-c2ccc(OC)cc2)cc1 (optimized conformer: 96.96712550193436 kcal/mol)

>  <smiles>  (23) 
COc1ccc(-c2nc(CNc3cccc(C(C)=O)c3)sc2-c2ccc(OC)cc2)cc1

>  <score_type>  (23) 
oracle

>  <origin>  (23) 
adg

>  <m_score__min__energy>  (23) 
-9.0299999999999994

>  <m_primary>  (23) 
energy

$$$$
23:0
     RDKit          3D

 44 47  0  0  0  0  0  0  0  0999 V2000
   -1.7850   17.2710  -33.2060 C   0  0  0  0  0  0  0  0  0  0  0  0
   -1.8630   18.1180  -34.3490 O   0  0  0  0  0  0  0  0  0  0  0  0
   -0.9880   19.1830  -34.6160 C   0  0  0  0  0  0  0  0  0  0  0  0
    0.2120   18.9890  -35.3300 C   0  0  0  0  0  0  0  0  0  0  0  0
    1.0880   20.0530  -35.5500 C   0  0  0  0  0  0  0  0  0  0  0  0
    0.7800   21.3230  -35.0640 C   0  0  0  0  0  0  0  0  0  0  0  0
    1.6330   22.3550  -35.2800 F   0  0  0  0  0  0  0  0  0  0  0  0
   -0.4070   21.5350  -34.3620 C   0  0  0  0  0  0  0  0  0  0  0  0
   -1.3060   20.4770  -34.1390 C   0  0  0  0  0  0  0  0  0  0  0  0
   -2.5650   20.7430  -33.4030 C   0  0  0  0  0  0  0  0  0  0  0  0
   -2.7720   21.7580  -32.4830 C   0  0  0  0  0  0  0  0  0  0  0  0
   -4.0730   21.6190  -32.0300 C   0  0  0  0  0  0  0  0  0  0  0  0
   -4.7540   22.5420  -31.0940 C   0  0  0  0  0  0  0  0  0  0  0  0
   -5.8170   23.3510  -31.5230 C   0  0  0  0  0  0  0  0  0  0  0  0
   -6.4340   24.2180  -30.6180 C   0  0  0  0  0  0  0  0  0  0  0  0
   -6.0010   24.2850  -29.3300 N   0  0  0  0  0  0  0  0  0  0  0  0
   -4.9630   23.5240  -28.8920 C   0  0  0  0  0  0  0  0  0  0  0  0
   -4.3180   22.6440  -29.7640 C   0  0  0  0  0  0  0  0  0  0  0  0
   -4.5980   20.5060  -32.6830 C   0  0  0  0  0  0  0  0  0  0  0  0
   -5.9320   19.9000  -32.4890 C   0  0  0  0  0  0  0  0  0  0  0  0
   -7.0810   20.6870  -32.6730 C   0  0  0  0  0  0  0  0  0  0  0  0
   -8.3520   20.1330  -32.4940 C   0  0  0  0  0  0  0  0  0  0  0  0
   -8.4870   18.7880  -32.1430 C   0  0  0  0  0  0  0  0  0  0  0  0
   -9.7200   18.2530  -31.9710 F   0  0  0  0  0  0  0  0  0  0  0  0
   -7.3510   17.9910  -31.9790 C   0  0  0  0  0  0  0  0  0  0  0  0
   -6.0760   18.5390  -32.1570 C   0  0  0  0  0  0  0  0  0  0  0  0
   -4.9900   17.7350  -32.0380 F   0  0  0  0  0  0  0  0  0  0  0  0
   -3.6750   19.9870  -33.5160 N   0  0  0  0  0  0  0  0  0  0  0  0
   -1.8412   17.8815  -32.2927 H   0  0  0  0  0  0  0  0  0  0  0  0
   -2.6211   16.5564  -33.2214 H   0  0  0  0  0  0  0  0  0  0  0  0
   -0.8324   16.7211  -33.2214 H   0  0  0  0  0  0  0  0  0  0  0  0
    0.4602   17.9898  -35.7173 H   0  0  0  0  0  0  0  0  0  0  0  0
    2.0222   19.8895  -36.1073 H   0  0  0  0  0  0  0  0  0  0  0  0
   -0.6418   22.5392  -33.9794 H   0  0  0  0  0  0  0  0  0  0  0  0
   -2.0456   22.5238  -32.1733 H   0  0  0  0  0  0  0  0  0  0  0  0
   -6.1626   23.3028  -32.5662 H   0  0  0  0  0  0  0  0  0  0  0  0
   -7.2727   24.8486  -30.9479 H   0  0  0  0  0  0  0  0  0  0  0  0
   -6.4740   24.9380  -28.6660 H   0  0  0  0  0  0  0  0  0  0  0  0
   -4.6298   23.6017  -27.8466 H   0  0  0  0  0  0  0  0  0  0  0  0
   -3.4733   22.0345  -29.4104 H   0  0  0  0  0  0  0  0  0  0  0  0
   -6.9801   21.7443  -32.9593 H   0  0  0  0  0  0  0  0  0  0  0  0
   -9.2473   20.7575  -32.6298 H   0  0  0  0  0  0  0  0  0  0  0  0
   -7.4594   16.9301  -31.7093 H   0  0  0  0  0  0  0  0  0  0  0  0
   -3.7990   19.1490  -34.1270 H   0  0  0  0  0  0  0  0  0  0  0  0
  1  2  1  0
  2  3  1  0
  3  4  2  0
  4  5  1  0
  5  6  2  0
  6  7  1  0
  6  8  1  0
  8  9  2  0
  9 10  1  0
 10 11  2  0
 11 12  1  0
 12 13  1  0
 13 14  2  0
 14 15  1  0
 15 16  2  0
 16 17  1  0
 17 18  2  0
 12 19  2  0
 19 20  1  0
 20 21  2  0
 21 22  1  0
 22 23  2  0
 23 24  1  0
 23 25  1  0
 25 26  2  0
 26 27  1  0
 19 28  1  0
  9  3  1  0
 28 10  1  0
 18 13  1  0
 26 20  1  0
  1 29  1  0
  1 30  1  0
  1 31  1  0
  4 32  1  0
  5 33  1  0
  8 34  1  0
 11 35  1  0
 14 36  1  0
 15 37  1  0
 16 38  1  0
 17 39  1  0
 18 40  1  0
 21 41  1  0
 22 42  1  0
 25 43  1  0
 28 44  1  0
M  CHG  1  16   1
M  END
>  <UniqueID>  (24) 
23

>  <SMILES>  (24) 
COc1ccc(F)cc1-c1cc(-c2cc[nH+]cc2)c(-c2ccc(F)cc2F)[nH]1

>  <Energy>  (24) 
87.38904294330155

>  <Genealogy>  (24) 
COc1ccc(F)cc1-c1cc(-c2cc[nH+]cc2)c(-c2ccc(F)cc2F)[nH]1 (protonated)
COc1ccc(F)cc1-c1cc(-c2cc[nH+]cc2)c(-c2ccc(F)cc2F)[nH]1 (3D coordinates assigned)
COc1ccc(F)cc1-c1cc(-c2cc[nH+]cc2)c(-c2ccc(F)cc2F)[nH]1 (optimized conformer: 87.38904294330155 kcal/mol)

>  <smiles>  (24) 
COc1ccc(F)cc1-c1cc(-c2ccncc2)c(-c2ccc(F)cc2F)[nH]1

>  <score_type>  (24) 
oracle

>  <origin>  (24) 
adg

>  <m_score__min__energy>  (24) 
-6.9199999999999999

>  <m_primary>  (24) 
energy

$$$$
24:0
     RDKit          3D

 42 44  0  0  0  0  0  0  0  0999 V2000
   -1.8620   24.2360  -29.1380 C   0  0  0  0  0  0  0  0  0  0  0  0
   -2.8140   24.6800  -30.0990 O   0  0  0  0  0  0  0  0  0  0  0  0
   -3.8800   23.9040  -30.5810 C   0  0  0  0  0  0  0  0  0  0  0  0
   -3.6740   22.6610  -31.2090 C   0  0  0  0  0  0  0  0  0  0  0  0
   -4.7590   21.9160  -31.6780 C   0  0  0  0  0  0  0  0  0  0  0  0
   -4.5470   20.7080  -32.2600 N   0  0  0  0  0  0  0  0  0  0  0  0
   -5.5780   19.9490  -32.7160 C   0  0  0  0  0  0  0  0  0  0  0  0
   -5.3180   18.6280  -33.3390 C   0  0  0  0  0  0  0  0  0  0  0  0
   -6.1590   17.5320  -33.0760 C   0  0  0  0  0  0  0  0  0  0  0  0
   -5.8950   16.2970  -33.6740 C   0  0  0  0  0  0  0  0  0  0  0  0
   -4.8310   16.1520  -34.5080 N   0  0  0  0  0  0  0  0  0  0  0  0
   -4.0000   17.1920  -34.7820 C   0  0  0  0  0  0  0  0  0  0  0  0
   -4.2260   18.4450  -34.2060 C   0  0  0  0  0  0  0  0  0  0  0  0
   -6.8510   20.4140  -32.5990 N   0  0  0  0  0  0  0  0  0  0  0  0
   -7.1270   21.6210  -32.0370 C   0  0  0  0  0  0  0  0  0  0  0  0
   -8.4930   22.0590  -31.9680 N   0  0  0  0  0  0  0  0  0  0  0  0
   -9.5000   21.2300  -31.3050 C   0  0  0  0  0  0  0  0  0  0  0  0
   -8.8150   23.4380  -32.3310 C   0  0  0  0  0  0  0  0  0  0  0  0
   -6.0700   22.4100  -31.5400 C   0  0  0  0  0  0  0  0  0  0  0  0
   -6.2790   23.6410  -30.8940 C   0  0  0  0  0  0  0  0  0  0  0  0
   -5.1860   24.3930  -30.4190 C   0  0  0  0  0  0  0  0  0  0  0  0
   -5.3570   25.6320  -29.7800 O   0  0  0  0  0  0  0  0  0  0  0  0
   -6.5040   25.9990  -29.0210 C   0  0  0  0  0  0  0  0  0  0  0  0
   -2.2512   24.4175  -28.1253 H   0  0  0  0  0  0  0  0  0  0  0  0
   -1.6792   23.1597  -29.2731 H   0  0  0  0  0  0  0  0  0  0  0  0
   -0.9200   24.7877  -29.2731 H   0  0  0  0  0  0  0  0  0  0  0  0
   -2.6518   22.2736  -31.3313 H   0  0  0  0  0  0  0  0  0  0  0  0
   -7.0210   17.6464  -32.4024 H   0  0  0  0  0  0  0  0  0  0  0  0
   -6.5510   15.4381  -33.4691 H   0  0  0  0  0  0  0  0  0  0  0  0
   -4.6480   15.2210  -34.9460 H   0  0  0  0  0  0  0  0  0  0  0  0
   -3.1460   17.0468  -35.4600 H   0  0  0  0  0  0  0  0  0  0  0  0
   -3.5522   19.2851  -34.4300 H   0  0  0  0  0  0  0  0  0  0  0  0
   -9.3895   21.3209  -30.2143 H   0  0  0  0  0  0  0  0  0  0  0  0
  -10.5046   21.5663  -31.6011 H   0  0  0  0  0  0  0  0  0  0  0  0
   -9.3629   20.1795  -31.6011 H   0  0  0  0  0  0  0  0  0  0  0  0
   -8.9543   24.0347  -31.4174 H   0  0  0  0  0  0  0  0  0  0  0  0
   -7.9919   23.8627  -32.9244 H   0  0  0  0  0  0  0  0  0  0  0  0
   -9.7411   23.4543  -32.9244 H   0  0  0  0  0  0  0  0  0  0  0  0
   -7.3028   24.0198  -30.7584 H   0  0  0  0  0  0  0  0  0  0  0  0
   -6.2728   25.9250  -27.9481 H   0  0  0  0  0  0  0  0  0  0  0  0
   -6.7891   27.0332  -29.2642 H   0  0  0  0  0  0  0  0  0  0  0  0
   -7.3365   25.3224  -29.2642 H   0  0  0  0  0  0  0  0  0  0  0  0
  1  2  1  0
  2  3  1  0
  3  4  2  0
  4  5  1  0
  5  6  2  0
  6  7  1  0
  7  8  1  0
  8  9  2  0
  9 10  1  0
 10 11  2  0
 11 12  1  0
 12 13  2  0
  7 14  2  0
 14 15  1  0
 15 16  1  0
 16 17  1  0
 16 18  1  0
 15 19  2  0
 19 20  1  0
 20 21  2  0
 21 22  1  0
 22 23  1  0
 21  3  1  0
 19  5  1  0
 13  8  1  0
  1 24  1  0
  1 25  1  0
  1 26  1  0
  4 27  1  0
  9 28  1  0
 10 29  1  0
 11 30  1  0
 12 31  1  0
 13 32  1  0
 17 33  1  0
 17 34  1  0
 17 35  1  0
 18 36  1  0
 18 37  1  0
 18 38  1  0
 20 39  1  0
 23 40  1  0
 23 41  1  0
 23 42  1  0
M  CHG  1  11   1
M  END
>  <UniqueID>  (25) 
24

>  <SMILES>  (25) 
COc1cc2nc(-c3cc[nH+]cc3)nc(N(C)C)c2cc1OC

>  <Energy>  (25) 
51.797768480534444

>  <Genealogy>  (25) 
COc1cc2nc(-c3cc[nH+]cc3)nc(N(C)C)c2cc1OC (protonated)
COc1cc2nc(-c3cc[nH+]cc3)nc(N(C)C)c2cc1OC (3D coordinates assigned)
COc1cc2nc(-c3cc[nH+]cc3)nc(N(C)C)c2cc1OC (optimized conformer: 51.797768480534444 kcal/mol)

>  <smiles>  (25) 
COc1cc2nc(-c3ccncc3)nc(N(C)C)c2cc1OC

>  <score_type>  (25) 
oracle

>  <origin>  (25) 
adg

>  <m_score__min__energy>  (25) 
-6.3799999999999999

>  <m_primary>  (25) 
energy

$$$$
25:0
     RDKit          3D

 50 53  0  0  0  0  0  0  0  0999 V2000
   -3.1890   20.9870  -29.9930 C   0  0  0  0  0  0  0  0  0  0  0  0
   -3.4910   22.2990  -29.5300 O   0  0  0  0  0  0  0  0  0  0  0  0
   -2.8360   22.9390  -28.4660 C   0  0  0  0  0  0  0  0  0  0  0  0
   -1.6000   22.4820  -27.9660 C   0  0  0  0  0  0  0  0  0  0  0  0
   -0.9710   23.1540  -26.9150 C   0  0  0  0  0  0  0  0  0  0  0  0
   -1.5660   24.2820  -26.3490 C   0  0  0  0  0  0  0  0  0  0  0  0
   -2.7920   24.7450  -26.8350 C   0  0  0  0  0  0  0  0  0  0  0  0
   -3.4290   24.0820  -27.8960 C   0  0  0  0  0  0  0  0  0  0  0  0
   -4.6920   24.5490  -28.3900 N   0  0  0  0  0  0  0  0  0  0  0  0
   -4.8770   24.9580  -29.7540 C   0  0  0  0  0  0  0  0  0  0  0  0
   -3.8850   25.2540  -30.4730 O   0  0  0  0  0  0  0  0  0  0  0  0
   -6.2550   25.0330  -30.3500 C   0  0  0  0  0  0  0  0  0  0  0  0
   -6.2680   24.5690  -31.7020 O   0  0  0  0  0  0  0  0  0  0  0  0
   -6.1940   23.2230  -32.0990 C   0  0  0  0  0  0  0  0  0  0  0  0
   -7.3760   22.4740  -32.1200 C   0  0  0  0  0  0  0  0  0  0  0  0
   -7.3510   21.1180  -32.4540 C   0  0  0  0  0  0  0  0  0  0  0  0
   -6.1390   20.4840  -32.7750 C   0  0  0  0  0  0  0  0  0  0  0  0
   -6.1050   19.0330  -33.0890 C   0  0  0  0  0  0  0  0  0  0  0  0
   -7.2060   18.2130  -32.7790 C   0  0  0  0  0  0  0  0  0  0  0  0
   -7.1860   16.8510  -33.0810 C   0  0  0  0  0  0  0  0  0  0  0  0
   -6.0640   16.2790  -33.6960 C   0  0  0  0  0  0  0  0  0  0  0  0
   -6.0340   14.9090  -34.0030 C   0  0  0  0  0  0  0  0  0  0  0  0
   -4.9090   14.3530  -34.6160 C   0  0  0  0  0  0  0  0  0  0  0  0
   -3.8090   15.1550  -34.9280 C   0  0  0  0  0  0  0  0  0  0  0  0
   -3.8250   16.5210  -34.6280 C   0  0  0  0  0  0  0  0  0  0  0  0
   -4.9500   17.0930  -34.0130 C   0  0  0  0  0  0  0  0  0  0  0  0
   -4.9780   18.4620  -33.7080 C   0  0  0  0  0  0  0  0  0  0  0  0
   -4.9560   21.2430  -32.7780 C   0  0  0  0  0  0  0  0  0  0  0  0
   -4.9830   22.6010  -32.4500 C   0  0  0  0  0  0  0  0  0  0  0  0
   -3.0356   20.3204  -29.1315 H   0  0  0  0  0  0  0  0  0  0  0  0
   -4.0243   20.6120  -30.6026 H   0  0  0  0  0  0  0  0  0  0  0  0
   -2.2738   21.0149  -30.6026 H   0  0  0  0  0  0  0  0  0  0  0  0
   -1.1279   21.5911  -28.4058 H   0  0  0  0  0  0  0  0  0  0  0  0
   -0.0047   22.7931  -26.5329 H   0  0  0  0  0  0  0  0  0  0  0  0
   -1.0698   24.8073  -25.5196 H   0  0  0  0  0  0  0  0  0  0  0  0
   -3.2598   25.6327  -26.3842 H   0  0  0  0  0  0  0  0  0  0  0  0
   -5.5390   24.3620  -27.8070 H   0  0  0  0  0  0  0  0  0  0  0  0
   -6.9372   24.4107  -29.7522 H   0  0  0  0  0  0  0  0  0  0  0  0
   -6.5766   26.0849  -30.3435 H   0  0  0  0  0  0  0  0  0  0  0  0
   -8.3325   22.9571  -31.8715 H   0  0  0  0  0  0  0  0  0  0  0  0
   -8.2879   20.5418  -32.4658 H   0  0  0  0  0  0  0  0  0  0  0  0
   -8.0911   18.6502  -32.2938 H   0  0  0  0  0  0  0  0  0  0  0  0
   -8.0551   16.2231  -32.8352 H   0  0  0  0  0  0  0  0  0  0  0  0
   -6.8979   14.2728  -33.7603 H   0  0  0  0  0  0  0  0  0  0  0  0
   -4.8892   13.2792  -34.8540 H   0  0  0  0  0  0  0  0  0  0  0  0
   -2.9266   14.7106  -35.4116 H   0  0  0  0  0  0  0  0  0  0  0  0
   -2.9552   17.1478  -34.8742 H   0  0  0  0  0  0  0  0  0  0  0  0
   -4.1121   19.0939  -33.9547 H   0  0  0  0  0  0  0  0  0  0  0  0
   -4.0012   20.7641  -33.0407 H   0  0  0  0  0  0  0  0  0  0  0  0
   -4.0519   23.1865  -32.4665 H   0  0  0  0  0  0  0  0  0  0  0  0
  1  2  1  0
  2  3  1  0
  3  4  2  0
  4  5  1  0
  5  6  2  0
  6  7  1  0
  7  8  2  0
  8  9  1  0
  9 10  1  0
 10 11  2  0
 10 12  1  0
 12 13  1  0
 13 14  1  0
 14 15  2  0
 15 16  1  0
 16 17  2  0
 17 18  1  0
 18 19  2  0
 19 20  1  0
 20 21  2  0
 21 22  1  0
 22 23  2  0
 23 24  1  0
 24 25  2  0
 25 26  1  0
 26 27  2  0
 17 28  1  0
 28 29  2  0
  8  3  1  0
 29 14  1  0
 27 18  1  0
 26 21  1  0
  1 30  1  0
  1 31  1  0
  1 32  1  0
  4 33  1  0
  5 34  1  0
  6 35  1  0
  7 36  1  0
  9 37  1  0
 12 38  1  0
 12 39  1  0
 15 40  1  0
 16 41  1  0
 19 42  1  0
 20 43  1  0
 22 44  1  0
 23 45  1  0
 24 46  1  0
 25 47  1  0
 27 48  1  0
 28 49  1  0
 29 50  1  0
M  END
>  <UniqueID>  (26) 
25

>  <SMILES>  (26) 
COc1ccccc1NC(=O)COc1ccc(-c2ccc3ccccc3c2)cc1

>  <Energy>  (26) 
64.03417425840239

>  <Genealogy>  (26) 
COc1ccccc1NC(=O)COc1ccc(-c2ccc3ccccc3c2)cc1 (3D coordinates assigned)
COc1ccccc1NC(=O)COc1ccc(-c2ccc3ccccc3c2)cc1 (optimized conformer: 64.03417425840239 kcal/mol)

>  <smiles>  (26) 
COc1ccccc1NC(=O)COc1ccc(-c2ccc3ccccc3c2)cc1

>  <score_type>  (26) 
oracle

>  <origin>  (26) 
adg

>  <m_score__min__energy>  (26) 
-10.41

>  <m_primary>  (26) 
energy

$$$$
26:0
     RDKit          3D

 49 51  0  0  0  0  0  0  0  0999 V2000
   -3.0820   24.5460  -29.1200 C   0  0  0  0  0  0  0  0  0  0  0  0
   -3.5230   24.4460  -30.4710 O   0  0  0  0  0  0  0  0  0  0  0  0
   -4.0120   23.2720  -31.0650 C   0  0  0  0  0  0  0  0  0  0  0  0
   -5.3700   23.1160  -31.3900 C   0  0  0  0  0  0  0  0  0  0  0  0
   -5.8340   21.9330  -31.9790 C   0  0  0  0  0  0  0  0  0  0  0  0
   -7.2960   21.7710  -32.3380 C   0  0  2  0  0  0  0  0  0  0  0  0
   -8.0280   23.1110  -32.3420 C   0  0  0  0  0  0  0  0  0  0  0  0
   -9.4150   22.7640  -31.8620 C   0  0  0  0  0  0  0  0  0  0  0  0
   -9.1960   21.5860  -30.9310 C   0  0  0  0  0  0  0  0  0  0  0  0
   -7.9710   20.8980  -31.3610 N   0  0  0  0  0  0  0  0  0  0  0  0
   -8.3170   19.3190  -32.0340 S   0  0  0  0  0  0  0  0  0  0  0  0
   -9.4010   19.4490  -33.0670 O   0  0  0  0  0  0  0  0  0  0  0  0
   -8.8220   18.4170  -30.9420 O   0  0  0  0  0  0  0  0  0  0  0  0
   -6.8890   18.5890  -32.7770 C   0  0  0  0  0  0  0  0  0  0  0  0
   -6.1490   17.6180  -32.0850 C   0  0  0  0  0  0  0  0  0  0  0  0
   -5.0260   17.0340  -32.6790 C   0  0  0  0  0  0  0  0  0  0  0  0
   -4.6290   17.4230  -33.9600 C   0  0  0  0  0  0  0  0  0  0  0  0
   -5.3530   18.3990  -34.6500 C   0  0  0  0  0  0  0  0  0  0  0  0
   -6.4770   18.9850  -34.0600 C   0  0  0  0  0  0  0  0  0  0  0  0
   -4.9240   20.9050  -32.2570 C   0  0  0  0  0  0  0  0  0  0  0  0
   -3.5580   21.0370  -31.9400 C   0  0  0  0  0  0  0  0  0  0  0  0
   -2.6520   20.0010  -32.2160 O   0  0  0  0  0  0  0  0  0  0  0  0
   -2.0040   19.7910  -33.4670 C   0  0  0  0  0  0  0  0  0  0  0  0
   -3.1010   22.2360  -31.3350 C   0  0  0  0  0  0  0  0  0  0  0  0
   -1.7590   22.4690  -30.9780 O   0  0  0  0  0  0  0  0  0  0  0  0
   -0.9330   21.6280  -30.1800 C   0  0  0  0  0  0  0  0  0  0  0  0
   -3.9276   24.3542  -28.4431 H   0  0  0  0  0  0  0  0  0  0  0  0
   -2.2903   23.8046  -28.9369 H   0  0  0  0  0  0  0  0  0  0  0  0
   -2.6876   25.5564  -28.9369 H   0  0  0  0  0  0  0  0  0  0  0  0
   -6.0768   23.9322  -31.1795 H   0  0  0  0  0  0  0  0  0  0  0  0
   -7.3277   21.3306  -33.3455 H   0  0  0  0  0  0  0  0  0  0  0  0
   -7.5438   23.8242  -31.6587 H   0  0  0  0  0  0  0  0  0  0  0  0
   -8.0280   23.5931  -33.3307 H   0  0  0  0  0  0  0  0  0  0  0  0
   -9.8655   23.6103  -31.3227 H   0  0  0  0  0  0  0  0  0  0  0  0
  -10.1029   22.5295  -32.6877 H   0  0  0  0  0  0  0  0  0  0  0  0
   -9.0821   21.9423  -29.8965 H   0  0  0  0  0  0  0  0  0  0  0  0
  -10.0557   20.9008  -30.9681 H   0  0  0  0  0  0  0  0  0  0  0  0
   -6.4534   17.3154  -31.0722 H   0  0  0  0  0  0  0  0  0  0  0  0
   -4.4543   16.2668  -32.1363 H   0  0  0  0  0  0  0  0  0  0  0  0
   -3.7462   16.9611  -34.4261 H   0  0  0  0  0  0  0  0  0  0  0  0
   -5.0383   18.7065  -35.6582 H   0  0  0  0  0  0  0  0  0  0  0  0
   -7.0404   19.7586  -34.6024 H   0  0  0  0  0  0  0  0  0  0  0  0
   -5.2822   19.9791  -32.7308 H   0  0  0  0  0  0  0  0  0  0  0  0
   -0.9707   19.4561  -33.2931 H   0  0  0  0  0  0  0  0  0  0  0  0
   -2.5473   19.0229  -34.0370 H   0  0  0  0  0  0  0  0  0  0  0  0
   -1.9935   20.7317  -34.0370 H   0  0  0  0  0  0  0  0  0  0  0  0
   -1.1276   21.8262  -29.1156 H   0  0  0  0  0  0  0  0  0  0  0  0
   -1.1573   20.5746  -30.4039 H   0  0  0  0  0  0  0  0  0  0  0  0
    0.1242   21.8333  -30.4039 H   0  0  0  0  0  0  0  0  0  0  0  0
  1  2  1  0
  2  3  1  0
  3  4  2  0
  4  5  1  0
  5  6  1  0
  6  7  1  0
  7  8  1  0
  8  9  1  0
  9 10  1  0
 10 11  1  0
 11 12  2  0
 11 13  2  0
 11 14  1  0
 14 15  2  0
 15 16  1  0
 16 17  2  0
 17 18  1  0
 18 19  2  0
  5 20  2  0
 20 21  1  0
 21 22  1  0
 22 23  1  0
 21 24  2  0
 24 25  1  0
 25 26  1  0
 24  3  1  0
 10  6  1  0
 19 14  1  0
  1 27  1  0
  1 28  1  0
  1 29  1  0
  4 30  1  0
  6 31  1  6
  7 32  1  0
  7 33  1  0
  8 34  1  0
  8 35  1  0
  9 36  1  0
  9 37  1  0
 15 38  1  0
 16 39  1  0
 17 40  1  0
 18 41  1  0
 19 42  1  0
 20 43  1  0
 23 44  1  0
 23 45  1  0
 23 46  1  0
 26 47  1  0
 26 48  1  0
 26 49  1  0
M  END
>  <UniqueID>  (27) 
26

>  <SMILES>  (27) 
COc1cc([C@@H]2CCCN2S(=O)(=O)c2ccccc2)cc(OC)c1OC

>  <Energy>  (27) 
52.364494747424

>  <Genealogy>  (27) 
COc1cc([C@@H]2CCCN2S(=O)(=O)c2ccccc2)cc(OC)c1OC (chirality)
COc1cc([C@@H]2CCCN2S(=O)(=O)c2ccccc2)cc(OC)c1OC (3D coordinates assigned)
COc1cc([C@@H]2CCCN2S(=O)(=O)c2ccccc2)cc(OC)c1OC (nonaromatic ring conformer: 52.364494747424 kcal/mol)

>  <smiles>  (27) 
COc1cc(C2CCCN2S(=O)(=O)c2ccccc2)cc(OC)c1OC

>  <score_type>  (27) 
oracle

>  <origin>  (27) 
adg

>  <m_score__min__energy>  (27) 
-8.4900000000000002

>  <m_primary>  (27) 
energy

$$$$
27:0
     RDKit          3D

 47 50  0  0  0  0  0  0  0  0999 V2000
   -5.3470   25.9470  -30.4690 C   0  0  0  0  0  0  0  0  0  0  0  0
   -4.0810   25.3080  -30.5860 O   0  0  0  0  0  0  0  0  0  0  0  0
   -3.6910   24.1810  -29.8470 C   0  0  0  0  0  0  0  0  0  0  0  0
   -3.7110   24.1560  -28.4430 C   0  0  0  0  0  0  0  0  0  0  0  0
   -3.3240   23.0070  -27.7530 C   0  0  0  0  0  0  0  0  0  0  0  0
   -2.9070   21.8570  -28.4460 C   0  0  0  0  0  0  0  0  0  0  0  0
   -2.5860   20.6680  -27.6980 N   0  0  0  0  0  0  0  0  0  0  0  0
   -3.4820   19.8910  -27.1040 N   0  0  0  0  0  0  0  0  0  0  0  0
   -2.7890   18.9100  -26.5020 C   0  0  0  0  0  0  0  0  0  0  0  0
   -1.4510   19.1300  -26.7460 C   0  0  0  0  0  0  0  0  0  0  0  0
   -1.3470   20.2430  -27.4920 N   0  0  0  0  0  0  0  0  0  0  0  0
   -2.8480   21.8920  -29.8620 C   0  0  0  0  0  0  0  0  0  0  0  0
   -2.3310   20.7600  -30.6560 C   0  0  0  0  0  0  0  0  0  0  0  0
   -1.1820   20.3080  -30.4000 O   0  0  0  0  0  0  0  0  0  0  0  0
   -3.1210   20.1550  -31.6940 N   0  0  0  0  0  0  0  0  0  0  0  0
   -2.6280   19.8740  -33.0340 C   0  0  0  0  0  0  0  0  0  0  0  0
   -3.8630   19.5220  -33.8530 C   0  0  0  0  0  0  0  0  0  0  0  0
   -4.9420   19.1630  -32.8290 C   0  0  2  0  0  0  0  0  0  0  0  0
   -6.2350   19.5870  -33.2610 O   0  0  0  0  0  0  0  0  0  0  0  0
   -6.9360   20.6060  -32.6130 C   0  0  0  0  0  0  0  0  0  0  0  0
   -6.4380   21.9140  -32.6590 C   0  0  0  0  0  0  0  0  0  0  0  0
   -7.1250   22.9530  -32.0260 C   0  0  0  0  0  0  0  0  0  0  0  0
   -8.3090   22.6890  -31.3350 C   0  0  0  0  0  0  0  0  0  0  0  0
   -8.8040   21.3830  -31.2670 C   0  0  0  0  0  0  0  0  0  0  0  0
   -8.1200   20.3370  -31.9010 C   0  0  0  0  0  0  0  0  0  0  0  0
   -8.7320   18.6980  -31.7390 Cl  0  0  0  0  0  0  0  0  0  0  0  0
   -4.5380   19.8840  -31.5490 C   0  0  0  0  0  0  0  0  0  0  0  0
   -3.2620   23.0480  -30.5440 C   0  0  0  0  0  0  0  0  0  0  0  0
   -5.5971   26.0732  -29.4053 H   0  0  0  0  0  0  0  0  0  0  0  0
   -5.3066   26.9327  -30.9556 H   0  0  0  0  0  0  0  0  0  0  0  0
   -6.1160   25.3291  -30.9556 H   0  0  0  0  0  0  0  0  0  0  0  0
   -4.0335   25.0471  -27.8845 H   0  0  0  0  0  0  0  0  0  0  0  0
   -3.3454   23.0007  -26.6532 H   0  0  0  0  0  0  0  0  0  0  0  0
   -3.2138   18.0798  -25.9187 H   0  0  0  0  0  0  0  0  0  0  0  0
   -0.6167   18.5060  -26.3931 H   0  0  0  0  0  0  0  0  0  0  0  0
   -2.1273   20.7591  -33.4535 H   0  0  0  0  0  0  0  0  0  0  0  0
   -1.8895   19.0588  -33.0359 H   0  0  0  0  0  0  0  0  0  0  0  0
   -4.1801   20.3826  -34.4603 H   0  0  0  0  0  0  0  0  0  0  0  0
   -3.6688   18.6932  -34.5497 H   0  0  0  0  0  0  0  0  0  0  0  0
   -5.0120   18.0745  -32.6864 H   0  0  0  0  0  0  0  0  0  0  0  0
   -5.5014   22.1245  -33.1961 H   0  0  0  0  0  0  0  0  0  0  0  0
   -6.7327   23.9796  -32.0721 H   0  0  0  0  0  0  0  0  0  0  0  0
   -8.8530   23.5091  -30.8436 H   0  0  0  0  0  0  0  0  0  0  0  0
   -9.7325   21.1762  -30.7146 H   0  0  0  0  0  0  0  0  0  0  0  0
   -5.1009   20.8229  -31.4415 H   0  0  0  0  0  0  0  0  0  0  0  0
   -4.7509   19.2812  -30.6539 H   0  0  0  0  0  0  0  0  0  0  0  0
   -3.2484   23.0619  -31.6438 H   0  0  0  0  0  0  0  0  0  0  0  0
  1  2  1  0
  2  3  1  0
  3  4  2  0
  4  5  1  0
  5  6  2  0
  6  7  1  0
  7  8  1  0
  8  9  2  0
  9 10  1  0
 10 11  2  0
  6 12  1  0
 12 13  1  0
 13 14  2  0
 13 15  1  0
 15 16  1  0
 16 17  1  0
 17 18  1  0
 18 19  1  0
 19 20  1  0
 20 21  2  0
 21 22  1  0
 22 23  2  0
 23 24  1  0
 24 25  2  0
 25 26  1  0
 18 27  1  0
 12 28  2  0
 28  3  1  0
 11  7  1  0
 27 15  1  0
 25 20  1  0
  1 29  1  0
  1 30  1  0
  1 31  1  0
  4 32  1  0
  5 33  1  0
  9 34  1  0
 10 35  1  0
 16 36  1  0
 16 37  1  0
 17 38  1  0
 17 39  1  0
 18 40  1  1
 21 41  1  0
 22 42  1  0
 23 43  1  0
 24 44  1  0
 27 45  1  0
 27 46  1  0
 28 47  1  0
M  END
>  <UniqueID>  (28) 
27

>  <SMILES>  (28) 
COc1ccc(-n2nccn2)c(C(=O)N2CC[C@H](Oc3ccccc3Cl)C2)c1

>  <Energy>  (28) 
98.36949331200394

>  <Genealogy>  (28) 
COc1ccc(-n2nccn2)c(C(=O)N2CC[C@H](Oc3ccccc3Cl)C2)c1 (chirality)
COc1ccc(-n2nccn2)c(C(=O)N2CC[C@H](Oc3ccccc3Cl)C2)c1 (3D coordinates assigned)
COc1ccc(-n2nccn2)c(C(=O)N2CC[C@H](Oc3ccccc3Cl)C2)c1 (nonaromatic ring conformer: 98.36949331200394 kcal/mol)

>  <smiles>  (28) 
COc1ccc(-n2nccn2)c(C(=O)N2CCC(Oc3ccccc3Cl)C2)c1

>  <score_type>  (28) 
oracle

>  <origin>  (28) 
adg

>  <m_score__min__energy>  (28) 
-9.1400000000000006

>  <m_primary>  (28) 
energy

$$$$
28:0
     RDKit          3D

 35 36  0  0  0  0  0  0  0  0999 V2000
   -2.3500   24.5880  -27.3310 C   0  0  0  0  0  0  0  0  0  0  0  0
   -1.7790   24.9790  -28.9710 S   0  0  0  0  0  0  0  0  0  0  0  0
   -1.2170   26.3720  -28.9630 O   0  0  0  0  0  0  0  0  0  0  0  0
   -0.6920   24.0170  -29.3660 O   0  0  0  0  0  0  0  0  0  0  0  0
   -3.1150   24.9230  -30.0900 N   0  0  0  0  0  0  0  0  0  0  0  0
   -4.3940   24.6440  -29.4250 C   0  0  2  0  0  0  0  0  0  0  0  0
   -4.5550   23.1150  -29.2770 C   0  0  0  0  0  0  0  0  0  0  0  0
   -5.2990   22.5240  -30.4800 C   0  0  0  0  0  0  0  0  0  0  0  0
   -6.6920   23.0400  -30.5660 N   0  0  2  0  0  0  0  0  0  0  0  0
   -7.2940   22.8070  -31.9050 C   0  0  0  0  0  0  0  0  0  0  0  0
   -7.7340   21.3810  -32.1520 C   0  0  0  0  0  0  0  0  0  0  0  0
   -9.0500   20.9460  -31.9930 C   0  0  0  0  0  0  0  0  0  0  0  0
   -9.1150   19.3060  -32.3610 S   0  0  0  0  0  0  0  0  0  0  0  0
   -7.4810   19.1320  -32.7030 C   0  0  0  0  0  0  0  0  0  0  0  0
   -6.6380   17.5050  -33.2310 Br  0  0  0  0  0  0  0  0  0  0  0  0
   -6.8530   20.3550  -32.5320 C   0  0  0  0  0  0  0  0  0  0  0  0
   -6.8540   24.4410  -30.0840 C   0  0  0  0  0  0  0  0  0  0  0  0
   -5.5670   25.2690  -30.2210 C   0  0  0  0  0  0  0  0  0  0  0  0
   -1.6792   25.0473  -26.5900 H   0  0  0  0  0  0  0  0  0  0  0  0
   -3.3693   24.9786  -27.1948 H   0  0  0  0  0  0  0  0  0  0  0  0
   -2.3544   23.4965  -27.1948 H   0  0  0  0  0  0  0  0  0  0  0  0
   -4.4051   25.0998  -28.4239 H   0  0  0  0  0  0  0  0  0  0  0  0
   -3.5591   22.6531  -29.2072 H   0  0  0  0  0  0  0  0  0  0  0  0
   -5.1386   22.9096  -28.3675 H   0  0  0  0  0  0  0  0  0  0  0  0
   -4.7606   22.7929  -31.4008 H   0  0  0  0  0  0  0  0  0  0  0  0
   -5.3422   21.4318  -30.3569 H   0  0  0  0  0  0  0  0  0  0  0  0
   -7.2540   22.4450  -29.9100 H   0  0  0  0  0  0  0  0  0  0  0  0
   -8.1729   23.4607  -32.0057 H   0  0  0  0  0  0  0  0  0  0  0  0
   -6.5099   23.0265  -32.6446 H   0  0  0  0  0  0  0  0  0  0  0  0
   -9.9005   21.5695  -31.6802 H   0  0  0  0  0  0  0  0  0  0  0  0
   -5.7735   20.5072  -32.6790 H   0  0  0  0  0  0  0  0  0  0  0  0
   -7.6480   24.9254  -30.6713 H   0  0  0  0  0  0  0  0  0  0  0  0
   -7.1077   24.3967  -29.0146 H   0  0  0  0  0  0  0  0  0  0  0  0
   -5.2884   25.3210  -31.2839 H   0  0  0  0  0  0  0  0  0  0  0  0
   -5.7607   26.2723  -29.8138 H   0  0  0  0  0  0  0  0  0  0  0  0
  1  2  1  0
  2  3  2  0
  2  4  2  0
  2  5  1  0
  5  6  1  0
  6  7  1  0
  7  8  1  0
  8  9  1  0
  9 10  1  0
 10 11  1  0
 11 12  2  0
 12 13  1  0
 13 14  1  0
 14 15  1  0
 14 16  2  0
  9 17  1  0
 17 18  1  0
 18  6  1  0
 16 11  1  0
  1 19  1  0
  1 20  1  0
  1 21  1  0
  6 22  1  1
  7 23  1  0
  7 24  1  0
  8 25  1  0
  8 26  1  0
  9 27  1  1
 10 28  1  0
 10 29  1  0
 12 30  1  0
 16 31  1  0
 17 32  1  0
 17 33  1  0
 18 34  1  0
 18 35  1  0
M  CHG  2   5  -1   9   1
M  END
>  <UniqueID>  (29) 
28

>  <SMILES>  (29) 
CS(=O)(=O)[N-]C1CC[NH+](Cc2csc(Br)c2)CC1

>  <Energy>  (29) 
65.11323746913102

>  <Genealogy>  (29) 
CS(=O)(=O)[N-]C1CC[NH+](Cc2csc(Br)c2)CC1 (protonated)
CS(=O)(=O)[N-]C1CC[NH+](Cc2csc(Br)c2)CC1 (3D coordinates assigned)
CS(=O)(=O)[N-]C1CC[NH+](Cc2csc(Br)c2)CC1 (nonaromatic ring conformer: 65.11323746913102 kcal/mol)

>  <smiles>  (29) 
CS(=O)(=O)NC1CCN(Cc2csc(Br)c2)CC1

>  <score_type>  (29) 
oracle

>  <origin>  (29) 
adg

>  <m_score__min__energy>  (29) 
-9.3699999999999992

>  <m_primary>  (29) 
energy

$$$$
29:0
     RDKit          3D

 41 43  0  0  0  0  0  0  0  0999 V2000
   -5.1660   25.0430  -30.2600 C   0  0  0  0  0  0  0  0  0  0  0  0
   -3.7780   24.8860  -30.5370 O   0  0  0  0  0  0  0  0  0  0  0  0
   -2.8620   24.2480  -29.6860 C   0  0  0  0  0  0  0  0  0  0  0  0
   -2.2400   24.9250  -28.6170 C   0  0  0  0  0  0  0  0  0  0  0  0
   -1.3130   24.2650  -27.8070 C   0  0  0  0  0  0  0  0  0  0  0  0
   -0.9960   22.9290  -28.0510 C   0  0  0  0  0  0  0  0  0  0  0  0
   -1.6080   22.2450  -29.1050 C   0  0  0  0  0  0  0  0  0  0  0  0
   -2.5460   22.8950  -29.9230 C   0  0  0  0  0  0  0  0  0  0  0  0
   -3.1720   22.1790  -30.9990 N   0  0  0  0  0  0  0  0  0  0  0  0
   -2.3870   21.7940  -32.1760 C   0  0  0  0  0  0  0  0  0  0  0  0
   -3.2800   21.1310  -33.2320 C   0  0  0  0  0  0  0  0  0  0  0  0
   -4.5070   21.9160  -33.4480 N   0  0  0  0  0  0  0  0  0  0  0  0
   -5.3160   22.1500  -32.2150 C   0  0  1  0  0  0  0  0  0  0  0  0
   -6.6620   21.4470  -32.2770 C   0  0  0  0  0  0  0  0  0  0  0  0
   -6.7550   20.0980  -32.6680 C   0  0  0  0  0  0  0  0  0  0  0  0
   -7.9960   19.4560  -32.7070 C   0  0  0  0  0  0  0  0  0  0  0  0
   -9.1550   20.1500  -32.3520 C   0  0  0  0  0  0  0  0  0  0  0  0
   -9.0750   21.4850  -31.9540 C   0  0  0  0  0  0  0  0  0  0  0  0
   -7.8360   22.1320  -31.9130 C   0  0  0  0  0  0  0  0  0  0  0  0
   -4.5780   21.7750  -30.9080 C   0  0  0  0  0  0  0  0  0  0  0  0
   -5.3229   25.0607  -29.1714 H   0  0  0  0  0  0  0  0  0  0  0  0
   -5.5227   25.9872  -30.6973 H   0  0  0  0  0  0  0  0  0  0  0  0
   -5.7246   24.2023  -30.6973 H   0  0  0  0  0  0  0  0  0  0  0  0
   -2.4861   25.9788  -28.4198 H   0  0  0  0  0  0  0  0  0  0  0  0
   -0.8320   24.8001  -26.9749 H   0  0  0  0  0  0  0  0  0  0  0  0
   -0.2634   22.4129  -27.4131 H   0  0  0  0  0  0  0  0  0  0  0  0
   -1.3535   21.1918  -29.2947 H   0  0  0  0  0  0  0  0  0  0  0  0
   -1.9220   22.6919  -32.6090 H   0  0  0  0  0  0  0  0  0  0  0  0
   -1.6145   21.0752  -31.8653 H   0  0  0  0  0  0  0  0  0  0  0  0
   -2.7259   21.0602  -34.1796 H   0  0  0  0  0  0  0  0  0  0  0  0
   -3.5612   20.1287  -32.8765 H   0  0  0  0  0  0  0  0  0  0  0  0
   -4.2260   22.8420  -33.8490 H   0  0  0  0  0  0  0  0  0  0  0  0
   -5.0730   21.4400  -34.1890 H   0  0  0  0  0  0  0  0  0  0  0  0
   -5.4840   23.2368  -32.1876 H   0  0  0  0  0  0  0  0  0  0  0  0
   -5.8450   19.5454  -32.9447 H   0  0  0  0  0  0  0  0  0  0  0  0
   -8.0600   18.4027  -33.0177 H   0  0  0  0  0  0  0  0  0  0  0  0
  -10.1311   19.6440  -32.3862 H   0  0  0  0  0  0  0  0  0  0  0  0
   -9.9883   22.0295  -31.6720 H   0  0  0  0  0  0  0  0  0  0  0  0
   -7.7787   23.1832  -31.5941 H   0  0  0  0  0  0  0  0  0  0  0  0
   -5.0521   22.2907  -30.0599 H   0  0  0  0  0  0  0  0  0  0  0  0
   -4.6345   20.6867  -30.7581 H   0  0  0  0  0  0  0  0  0  0  0  0
  1  2  1  0
  2  3  1  0
  3  4  2  0
  4  5  1  0
  5  6  2  0
  6  7  1  0
  7  8  2  0
  8  9  1  0
  9 10  1  0
 10 11  1  0
 11 12  1  0
 12 13  1  0
 13 14  1  0
 14 15  2  0
 15 16  1  0
 16 17  2  0
 17 18  1  0
 18 19  2  0
 13 20  1  0
  8  3  1  0
 20  9  1  0
 19 14  1  0
  1 21  1  0
  1 22  1  0
  1 23  1  0
  4 24  1  0
  5 25  1  0
  6 26  1  0
  7 27  1  0
 10 28  1  0
 10 29  1  0
 11 30  1  0
 11 31  1  0
 12 32  1  0
 12 33  1  0
 13 34  1  1
 15 35  1  0
 16 36  1  0
 17 37  1  0
 18 38  1  0
 19 39  1  0
 20 40  1  0
 20 41  1  0
M  CHG  1  12   1
M  END
>  <UniqueID>  (30) 
29

>  <SMILES>  (30) 
COc1ccccc1N1CC[NH2+][C@@H](c2ccccc2)C1

>  <Energy>  (30) 
53.38981857738474

>  <Genealogy>  (30) 
COc1ccccc1N1CC[NH2+]C(c2ccccc2)C1 (protonated)
COc1ccccc1N1CC[NH2+][C@@H](c2ccccc2)C1 (chirality)
COc1ccccc1N1CC[NH2+][C@@H](c2ccccc2)C1 (3D coordinates assigned)
COc1ccccc1N1CC[NH2+][C@@H](c2ccccc2)C1 (nonaromatic ring conformer: 53.38981857738474 kcal/mol)

>  <smiles>  (30) 
COc1ccccc1N1CCNC(c2ccccc2)C1

>  <score_type>  (30) 
oracle

>  <origin>  (30) 
adg

>  <m_score__min__energy>  (30) 
-7.6799999999999997

>  <m_primary>  (30) 
energy

$$$$
30:0
     RDKit          3D

 48 52  0  0  0  0  0  0  0  0999 V2000
    1.4050   15.5520  -27.9840 C   0  0  0  0  0  0  0  0  0  0  0  0
    0.9900   16.8530  -28.5920 C   0  0  0  0  0  0  0  0  0  0  0  0
    0.9580   18.0200  -27.8080 C   0  0  0  0  0  0  0  0  0  0  0  0
    0.5650   19.1970  -28.4360 C   0  0  0  0  0  0  0  0  0  0  0  0
    0.4700   20.4150  -27.8780 N   0  0  0  0  0  0  0  0  0  0  0  0
    0.0610   21.1940  -28.9110 C   0  0  0  0  0  0  0  0  0  0  0  0
   -0.1830   22.6620  -28.7520 C   0  0  0  0  0  0  0  0  0  0  0  0
   -0.1050   20.5080  -30.0780 N   0  0  0  0  0  0  0  0  0  0  0  0
   -0.4940   21.0700  -31.3790 C   0  0  0  0  0  0  0  0  0  0  0  0
   -1.9950   21.1220  -31.5400 C   0  0  0  0  0  0  0  0  0  0  0  0
   -2.8530   20.9270  -30.4420 C   0  0  0  0  0  0  0  0  0  0  0  0
   -4.2390   20.9390  -30.6180 C   0  0  0  0  0  0  0  0  0  0  0  0
   -4.7910   21.1170  -31.8940 C   0  0  0  0  0  0  0  0  0  0  0  0
   -6.2600   21.1340  -32.0780 C   0  0  0  0  0  0  0  0  0  0  0  0
   -6.8630   20.0290  -32.7040 C   0  0  0  0  0  0  0  0  0  0  0  0
   -8.2500   19.9490  -32.8250 C   0  0  0  0  0  0  0  0  0  0  0  0
   -9.0550   20.9700  -32.3220 C   0  0  0  0  0  0  0  0  0  0  0  0
   -8.4750   22.0820  -31.7100 C   0  0  0  0  0  0  0  0  0  0  0  0
   -7.0770   22.1920  -31.5930 C   0  0  0  0  0  0  0  0  0  0  0  0
   -6.5110   23.4310  -31.0060 C   0  0  0  0  0  0  0  0  0  0  0  0
   -5.2650   23.8900  -31.3490 N   0  0  0  0  0  0  0  0  0  0  0  0
   -4.9760   25.0390  -30.7090 C   0  0  0  0  0  0  0  0  0  0  0  0
   -3.8950   25.6680  -30.8390 O   0  0  0  0  0  0  0  0  0  0  0  0
   -6.2490   25.4800  -29.7480 S   0  0  0  0  0  0  0  0  0  0  0  0
   -7.2290   24.1900  -30.1250 N   0  0  0  0  0  0  0  0  0  0  0  0
   -3.9370   21.2980  -32.9940 C   0  0  0  0  0  0  0  0  0  0  0  0
   -2.5500   21.2850  -32.8190 C   0  0  0  0  0  0  0  0  0  0  0  0
    0.2230   19.2370  -29.7580 C   0  0  0  0  0  0  0  0  0  0  0  0
    0.2570   18.0630  -30.5310 C   0  0  0  0  0  0  0  0  0  0  0  0
   -0.1830   17.9910  -32.2270 Cl  0  0  0  0  0  0  0  0  0  0  0  0
    0.6420   16.9060  -29.9150 N   0  0  0  0  0  0  0  0  0  0  0  0
    1.3786   15.6348  -26.8874 H   0  0  0  0  0  0  0  0  0  0  0  0
    0.7152   14.7590  -28.3086 H   0  0  0  0  0  0  0  0  0  0  0  0
    2.4266   15.3049  -28.3086 H   0  0  0  0  0  0  0  0  0  0  0  0
    1.2323   18.0026  -26.7429 H   0  0  0  0  0  0  0  0  0  0  0  0
   -0.2247   22.9130  -27.6818 H   0  0  0  0  0  0  0  0  0  0  0  0
    0.6342   23.2233  -29.2287 H   0  0  0  0  0  0  0  0  0  0  0  0
   -1.1378   22.9287  -29.2287 H   0  0  0  0  0  0  0  0  0  0  0  0
   -0.0913   22.0903  -31.4611 H   0  0  0  0  0  0  0  0  0  0  0  0
   -0.0873   20.4204  -32.1681 H   0  0  0  0  0  0  0  0  0  0  0  0
   -2.4303   20.7642  -29.4396 H   0  0  0  0  0  0  0  0  0  0  0  0
   -4.9013   20.8079  -29.7495 H   0  0  0  0  0  0  0  0  0  0  0  0
   -6.2343   19.2191  -33.1025 H   0  0  0  0  0  0  0  0  0  0  0  0
   -8.7093   19.0794  -33.3178 H   0  0  0  0  0  0  0  0  0  0  0  0
  -10.1494   20.8990  -32.4077 H   0  0  0  0  0  0  0  0  0  0  0  0
   -9.1182   22.8819  -31.3144 H   0  0  0  0  0  0  0  0  0  0  0  0
   -4.3611   21.4506  -33.9974 H   0  0  0  0  0  0  0  0  0  0  0  0
   -1.8887   21.4034  -33.6900 H   0  0  0  0  0  0  0  0  0  0  0  0
  1  2  1  0
  2  3  2  0
  3  4  1  0
  4  5  1  0
  5  6  2  0
  6  7  1  0
  6  8  1  0
  8  9  1  0
  9 10  1  0
 10 11  2  0
 11 12  1  0
 12 13  2  0
 13 14  1  0
 14 15  2  0
 15 16  1  0
 16 17  2  0
 17 18  1  0
 18 19  2  0
 19 20  1  0
 20 21  2  0
 21 22  1  0
 22 23  2  0
 22 24  1  0
 24 25  1  0
 13 26  1  0
 26 27  2  0
  8 28  1  0
 28 29  1  0
 29 30  1  0
 29 31  2  0
 31  2  1  0
 28  4  2  0
 27 10  1  0
 19 14  1  0
 25 20  1  0
  1 32  1  0
  1 33  1  0
  1 34  1  0
  3 35  1  0
  7 36  1  0
  7 37  1  0
  7 38  1  0
  9 39  1  0
  9 40  1  0
 11 41  1  0
 12 42  1  0
 15 43  1  0
 16 44  1  0
 17 45  1  0
 18 46  1  0
 26 47  1  0
 27 48  1  0
M  CHG  1  25  -1
M  END
>  <UniqueID>  (31) 
30

>  <SMILES>  (31) 
Cc1cc2nc(C)n(Cc3ccc(-c4ccccc4-c4nc(=O)s[n-]4)cc3)c2c(Cl)n1

>  <Energy>  (31) 
141.7941136607465

>  <Genealogy>  (31) 
Cc1cc2nc(C)n(Cc3ccc(-c4ccccc4-c4nc(=O)s[n-]4)cc3)c2c(Cl)n1 (protonated)
Cc1cc2nc(C)n(Cc3ccc(-c4ccccc4-c4nc(=O)s[n-]4)cc3)c2c(Cl)n1 (3D coordinates assigned)
Cc1cc2nc(C)n(Cc3ccc(-c4ccccc4-c4nc(=O)s[n-]4)cc3)c2c(Cl)n1 (optimized conformer: 141.7941136607465 kcal/mol)

>  <smiles>  (31) 
Cc1cc2nc(C)n(Cc3ccc(-c4ccccc4-c4nc(=O)s[nH]4)cc3)c2c(Cl)n1

>  <score_type>  (31) 
oracle

>  <origin>  (31) 
adg

>  <m_score__min__energy>  (31) 
-10.449999999999999

>  <m_primary>  (31) 
energy

$$$$
31:0
     RDKit          3D

 43 44  0  0  0  0  0  0  0  0999 V2000
   -0.4680   20.8430  -34.1370 C   0  0  0  0  0  0  0  0  0  0  0  0
   -1.9010   21.1590  -34.1670 N   0  0  0  0  0  0  0  0  0  0  0  0
   -2.6070   20.6770  -32.9550 C   0  0  0  0  0  0  0  0  0  0  0  0
   -4.1220   20.3880  -33.1870 C   0  0  1  0  0  0  0  0  0  0  0  0
   -4.4920   18.9690  -32.7130 C   0  0  0  0  0  0  0  0  0  0  0  0
   -5.9630   18.5990  -33.0360 C   0  0  0  0  0  0  0  0  0  0  0  0
   -6.2850   17.2980  -32.2650 C   0  0  0  0  0  0  0  0  0  0  0  0
   -6.1120   18.3420  -34.5550 C   0  0  0  0  0  0  0  0  0  0  0  0
   -6.8880   19.6840  -32.6150 N   0  0  0  0  0  0  0  0  0  0  0  0
   -8.3440   19.4800  -32.7260 C   0  0  0  0  0  0  0  0  0  0  0  0
   -6.3920   20.9920  -32.2120 C   0  0  0  0  0  0  0  0  0  0  0  0
   -7.2410   21.9020  -31.5440 C   0  0  0  0  0  0  0  0  0  0  0  0
   -6.8010   23.1760  -31.1950 C   0  0  0  0  0  0  0  0  0  0  0  0
   -5.5000   23.5830  -31.5090 C   0  0  0  0  0  0  0  0  0  0  0  0
   -5.0170   24.8630  -31.1980 O   0  0  0  0  0  0  0  0  0  0  0  0
   -5.6460   25.7620  -30.2890 C   0  0  0  0  0  0  0  0  0  0  0  0
   -4.6420   22.6900  -32.1540 C   0  0  0  0  0  0  0  0  0  0  0  0
   -5.0530   21.3770  -32.4840 C   0  0  0  0  0  0  0  0  0  0  0  0
   -0.1307   20.7686  -33.0926 H   0  0  0  0  0  0  0  0  0  0  0  0
   -0.2931   19.8847  -34.6479 H   0  0  0  0  0  0  0  0  0  0  0  0
    0.0938   21.6388  -34.6479 H   0  0  0  0  0  0  0  0  0  0  0  0
   -1.9860   22.2020  -34.2190 H   0  0  0  0  0  0  0  0  0  0  0  0
   -2.3300   20.7830  -35.0440 H   0  0  0  0  0  0  0  0  0  0  0  0
   -2.1237   19.7483  -32.6175 H   0  0  0  0  0  0  0  0  0  0  0  0
   -2.5433   21.4790  -32.2048 H   0  0  0  0  0  0  0  0  0  0  0  0
   -4.2672   20.4932  -34.2723 H   0  0  0  0  0  0  0  0  0  0  0  0
   -3.8290   18.2466  -33.2116 H   0  0  0  0  0  0  0  0  0  0  0  0
   -4.3727   18.9403  -31.6199 H   0  0  0  0  0  0  0  0  0  0  0  0
   -6.2371   17.4915  -31.1832 H   0  0  0  0  0  0  0  0  0  0  0  0
   -7.2953   16.9543  -32.5316 H   0  0  0  0  0  0  0  0  0  0  0  0
   -5.5516   16.5227  -32.5316 H   0  0  0  0  0  0  0  0  0  0  0  0
   -6.6578   17.4006  -34.7158 H   0  0  0  0  0  0  0  0  0  0  0  0
   -6.6691   19.1719  -35.0144 H   0  0  0  0  0  0  0  0  0  0  0  0
   -5.1150   18.2709  -35.0144 H   0  0  0  0  0  0  0  0  0  0  0  0
   -8.7834   19.4184  -31.7195 H   0  0  0  0  0  0  0  0  0  0  0  0
   -8.7921   20.3241  -33.2707 H   0  0  0  0  0  0  0  0  0  0  0  0
   -8.5428   18.5452  -33.2707 H   0  0  0  0  0  0  0  0  0  0  0  0
   -8.2686   21.5986  -31.2950 H   0  0  0  0  0  0  0  0  0  0  0  0
   -7.4790   23.8652  -30.6703 H   0  0  0  0  0  0  0  0  0  0  0  0
   -5.4286   25.4512  -29.2565 H   0  0  0  0  0  0  0  0  0  0  0  0
   -5.2616   26.7793  -30.4544 H   0  0  0  0  0  0  0  0  0  0  0  0
   -6.7334   25.7495  -30.4544 H   0  0  0  0  0  0  0  0  0  0  0  0
   -3.6231   23.0148  -32.4115 H   0  0  0  0  0  0  0  0  0  0  0  0
  1  2  1  0
  2  3  1  0
  3  4  1  0
  4  5  1  0
  5  6  1  0
  6  7  1  0
  6  8  1  0
  6  9  1  0
  9 10  1  0
  9 11  1  0
 11 12  2  0
 12 13  1  0
 13 14  2  0
 14 15  1  0
 15 16  1  0
 14 17  1  0
 17 18  2  0
 18  4  1  0
 18 11  1  0
  1 19  1  0
  1 20  1  0
  1 21  1  0
  2 22  1  0
  2 23  1  0
  3 24  1  0
  3 25  1  0
  4 26  1  6
  5 27  1  0
  5 28  1  0
  7 29  1  0
  7 30  1  0
  7 31  1  0
  8 32  1  0
  8 33  1  0
  8 34  1  0
 10 35  1  0
 10 36  1  0
 10 37  1  0
 12 38  1  0
 13 39  1  0
 16 40  1  0
 16 41  1  0
 16 42  1  0
 17 43  1  0
M  CHG  1   2   1
M  END
>  <UniqueID>  (32) 
31

>  <SMILES>  (32) 
C[NH2+]C[C@H]1CC(C)(C)N(C)c2ccc(OC)cc21

>  <Energy>  (32) 
50.92718624808763

>  <Genealogy>  (32) 
C[NH2+]CC1CC(C)(C)N(C)c2ccc(OC)cc21 (protonated)
C[NH2+]C[C@H]1CC(C)(C)N(C)c2ccc(OC)cc21 (chirality)
C[NH2+]C[C@H]1CC(C)(C)N(C)c2ccc(OC)cc21 (3D coordinates assigned)
C[NH2+]C[C@H]1CC(C)(C)N(C)c2ccc(OC)cc21 (nonaromatic ring conformer: 50.92718624808763 kcal/mol)

>  <smiles>  (32) 
CNCC1CC(C)(C)N(C)c2ccc(OC)cc21

>  <score_type>  (32) 
oracle

>  <origin>  (32) 
adg

>  <m_score__min__energy>  (32) 
-7.0899999999999999

>  <m_primary>  (32) 
energy

$$$$
32:0
     RDKit          3D

 41 43  0  0  0  0  0  0  0  0999 V2000
   -8.8090   17.8530  -31.8060 O   0  0  0  0  0  0  0  0  0  0  0  0
   -7.9240   18.6440  -32.2340 C   0  0  0  0  0  0  0  0  0  0  0  0
   -6.7820   18.0960  -33.0000 C   0  0  0  0  0  0  0  0  0  0  0  0
   -5.9680   17.1020  -32.4320 C   0  0  0  0  0  0  0  0  0  0  0  0
   -4.8960   16.5890  -33.1630 C   0  0  0  0  0  0  0  0  0  0  0  0
   -4.6370   17.0720  -34.4460 C   0  0  0  0  0  0  0  0  0  0  0  0
   -5.4520   18.0740  -34.9760 C   0  0  0  0  0  0  0  0  0  0  0  0
   -6.4930   18.5660  -34.2500 N   0  0  0  0  0  0  0  0  0  0  0  0
   -8.0570   20.0600  -31.9940 N   0  0  0  0  0  0  0  0  0  0  0  0
   -9.3340   20.7250  -32.3150 C   0  0  0  0  0  0  0  0  0  0  0  0
   -9.5760   22.0000  -31.4800 C   0  0  0  0  0  0  0  0  0  0  0  0
   -8.9390   23.2800  -32.0330 C   0  0  0  0  0  0  0  0  0  0  0  0
   -7.4680   23.2970  -31.8710 N   0  0  0  0  0  0  0  0  0  0  0  0
   -7.0540   23.5980  -30.4800 C   0  0  0  0  0  0  0  0  0  0  0  0
   -5.6240   24.0580  -30.3700 C   0  0  0  0  0  0  0  0  0  0  0  0
   -4.5400   23.3020  -29.9760 C   0  0  0  0  0  0  0  0  0  0  0  0
   -3.4510   24.1450  -30.0630 C   0  0  0  0  0  0  0  0  0  0  0  0
   -3.8380   25.3310  -30.4760 O   0  0  0  0  0  0  0  0  0  0  0  0
   -5.1370   25.3140  -30.6690 C   0  0  0  0  0  0  0  0  0  0  0  0
   -6.7260   22.1640  -32.4810 C   0  0  0  0  0  0  0  0  0  0  0  0
   -6.8310   20.8320  -31.7070 C   0  0  0  0  0  0  0  0  0  0  0  0
   -6.1744   16.7305  -31.4174 H   0  0  0  0  0  0  0  0  0  0  0  0
   -4.2569   15.8060  -32.7290 H   0  0  0  0  0  0  0  0  0  0  0  0
   -3.7996   16.6677  -35.0337 H   0  0  0  0  0  0  0  0  0  0  0  0
   -5.2522   18.4672  -35.9837 H   0  0  0  0  0  0  0  0  0  0  0  0
   -7.0610   19.3370  -34.6650 H   0  0  0  0  0  0  0  0  0  0  0  0
   -9.3284   20.9993  -33.3802 H   0  0  0  0  0  0  0  0  0  0  0  0
  -10.1423   20.0177  -32.0776 H   0  0  0  0  0  0  0  0  0  0  0  0
  -10.6621   22.1621  -31.4155 H   0  0  0  0  0  0  0  0  0  0  0  0
   -9.0968   21.8197  -30.5064 H   0  0  0  0  0  0  0  0  0  0  0  0
   -9.1768   23.3580  -33.1042 H   0  0  0  0  0  0  0  0  0  0  0  0
   -9.3475   24.1288  -31.4650 H   0  0  0  0  0  0  0  0  0  0  0  0
   -7.7069   24.3903  -30.0852 H   0  0  0  0  0  0  0  0  0  0  0  0
   -7.1409   22.6642  -29.9051 H   0  0  0  0  0  0  0  0  0  0  0  0
   -4.5429   22.2486  -29.6591 H   0  0  0  0  0  0  0  0  0  0  0  0
   -2.4144   23.8661  -29.8227 H   0  0  0  0  0  0  0  0  0  0  0  0
   -5.7410   26.1660  -31.0143 H   0  0  0  0  0  0  0  0  0  0  0  0
   -7.1202   22.0028  -33.4952 H   0  0  0  0  0  0  0  0  0  0  0  0
   -5.6631   22.4469  -32.4694 H   0  0  0  0  0  0  0  0  0  0  0  0
   -5.9624   20.2106  -31.9704 H   0  0  0  0  0  0  0  0  0  0  0  0
   -6.8625   21.0893  -30.6380 H   0  0  0  0  0  0  0  0  0  0  0  0
  1  2  2  0
  2  3  1  0
  3  4  2  0
  4  5  1  0
  5  6  2  0
  6  7  1  0
  7  8  2  0
  2  9  1  0
  9 10  1  0
 10 11  1  0
 11 12  1  0
 12 13  1  0
 13 14  1  0
 14 15  1  0
 15 16  1  0
 16 17  2  0
 17 18  1  0
 18 19  1  0
 13 20  1  0
 20 21  1  0
  8  3  1  0
 21  9  1  0
 19 15  2  0
  4 22  1  0
  5 23  1  0
  6 24  1  0
  7 25  1  0
  8 26  1  0
 10 27  1  0
 10 28  1  0
 11 29  1  0
 11 30  1  0
 12 31  1  0
 12 32  1  0
 14 33  1  0
 14 34  1  0
 16 35  1  0
 17 36  1  0
 19 37  1  0
 20 38  1  0
 20 39  1  0
 21 40  1  0
 21 41  1  0
M  CHG  1   8   1
M  END
>  <UniqueID>  (33) 
32

>  <SMILES>  (33) 
O=C(c1cccc[nH+]1)N1CCCN(Cc2ccoc2)CC1

>  <Energy>  (33) 
85.78497565894678

>  <Genealogy>  (33) 
O=C(c1cccc[nH+]1)N1CCCN(Cc2ccoc2)CC1 (protonated)
O=C(c1cccc[nH+]1)N1CCCN(Cc2ccoc2)CC1 (3D coordinates assigned)
O=C(c1cccc[nH+]1)N1CCCN(Cc2ccoc2)CC1 (nonaromatic ring conformer: 85.78497565894678 kcal/mol)

>  <smiles>  (33) 
O=C(c1ccccn1)N1CCCN(Cc2ccoc2)CC1

>  <score_type>  (33) 
oracle

>  <origin>  (33) 
adg

>  <m_score__min__energy>  (33) 
-6.6900000000000004

>  <m_primary>  (33) 
energy

$$$$
33:0
     RDKit          3D

 43 46  0  0  0  0  0  0  0  0999 V2000
   -0.4190   27.4100  -23.7590 C   0  0  0  0  0  0  0  0  0  0  0  0
   -1.2070   27.6120  -24.9280 O   0  0  0  0  0  0  0  0  0  0  0  0
   -1.4470   26.6330  -25.9040 C   0  0  0  0  0  0  0  0  0  0  0  0
   -2.3630   25.5810  -25.6980 C   0  0  0  0  0  0  0  0  0  0  0  0
   -2.5760   24.6240  -26.6910 C   0  0  0  0  0  0  0  0  0  0  0  0
   -1.8780   24.6950  -27.9030 C   0  0  0  0  0  0  0  0  0  0  0  0
   -2.1110   23.6840  -28.9600 C   0  0  0  0  0  0  0  0  0  0  0  0
   -2.9230   24.0260  -30.0590 C   0  0  0  0  0  0  0  0  0  0  0  0
   -3.4830   25.2960  -30.1550 O   0  0  0  0  0  0  0  0  0  0  0  0
   -3.1880   23.0920  -31.0610 C   0  0  0  0  0  0  0  0  0  0  0  0
   -2.6550   21.8070  -30.9870 C   0  0  0  0  0  0  0  0  0  0  0  0
   -1.8370   21.4400  -29.9100 C   0  0  0  0  0  0  0  0  0  0  0  0
   -1.2970   20.1470  -29.8490 C   0  0  0  0  0  0  0  0  0  0  0  0
   -0.4620   19.7660  -28.7860 C   0  0  0  0  0  0  0  0  0  0  0  0
    0.1090   18.3960  -28.7260 C   0  0  0  0  0  0  0  0  0  0  0  0
    0.3990   17.7950  -27.4860 C   0  0  0  0  0  0  0  0  0  0  0  0
    0.9350   16.5050  -27.4340 C   0  0  0  0  0  0  0  0  0  0  0  0
    1.1880   15.8020  -28.6130 C   0  0  0  0  0  0  0  0  0  0  0  0
    0.9060   16.3880  -29.8500 C   0  0  0  0  0  0  0  0  0  0  0  0
    0.3680   17.6760  -29.9090 C   0  0  0  0  0  0  0  0  0  0  0  0
   -0.1690   20.7020  -27.7820 C   0  0  0  0  0  0  0  0  0  0  0  0
   -0.7020   21.9920  -27.8310 C   0  0  0  0  0  0  0  0  0  0  0  0
   -1.5520   22.3800  -28.8860 C   0  0  0  0  0  0  0  0  0  0  0  0
   -0.9710   25.7420  -28.1170 C   0  0  0  0  0  0  0  0  0  0  0  0
   -0.7520   26.7060  -27.1270 C   0  0  0  0  0  0  0  0  0  0  0  0
    0.1610   27.7300  -27.3750 O   0  0  0  0  0  0  0  0  0  0  0  0
   -1.0407   27.5694  -22.8657 H   0  0  0  0  0  0  0  0  0  0  0  0
   -0.0268   26.3823  -23.7542 H   0  0  0  0  0  0  0  0  0  0  0  0
    0.4192   28.1223  -23.7542 H   0  0  0  0  0  0  0  0  0  0  0  0
   -2.9135   25.5142  -24.7480 H   0  0  0  0  0  0  0  0  0  0  0  0
   -3.2958   23.8098  -26.5209 H   0  0  0  0  0  0  0  0  0  0  0  0
   -3.8220   23.3721  -31.9151 H   0  0  0  0  0  0  0  0  0  0  0  0
   -2.8775   21.0763  -31.7785 H   0  0  0  0  0  0  0  0  0  0  0  0
   -1.5303   19.4226  -30.6433 H   0  0  0  0  0  0  0  0  0  0  0  0
    0.2027   18.3437  -26.5531 H   0  0  0  0  0  0  0  0  0  0  0  0
    1.1580   16.0426  -26.4612 H   0  0  0  0  0  0  0  0  0  0  0  0
    1.6093   14.7869  -28.5685 H   0  0  0  0  0  0  0  0  0  0  0  0
    1.1080   15.8342  -30.7787 H   0  0  0  0  0  0  0  0  0  0  0  0
    0.1452   18.1309  -30.8854 H   0  0  0  0  0  0  0  0  0  0  0  0
    0.4878   20.4163  -26.9471 H   0  0  0  0  0  0  0  0  0  0  0  0
   -0.4557   22.7129  -27.0376 H   0  0  0  0  0  0  0  0  0  0  0  0
   -0.4271   25.8062  -29.0709 H   0  0  0  0  0  0  0  0  0  0  0  0
    0.3240   28.4800  -26.7150 H   0  0  0  0  0  0  0  0  0  0  0  0
  1  2  1  0
  2  3  1  0
  3  4  2  0
  4  5  1  0
  5  6  2  0
  6  7  1  0
  7  8  2  0
  8  9  1  0
  8 10  1  0
 10 11  2  0
 11 12  1  0
 12 13  2  0
 13 14  1  0
 14 15  1  0
 15 16  2  0
 16 17  1  0
 17 18  2  0
 18 19  1  0
 19 20  2  0
 14 21  2  0
 21 22  1  0
 22 23  2  0
  6 24  1  0
 24 25  2  0
 25 26  1  0
 25  3  1  0
 23  7  1  0
 23 12  1  0
 20 15  1  0
  1 27  1  0
  1 28  1  0
  1 29  1  0
  4 30  1  0
  5 31  1  0
 10 32  1  0
 11 33  1  0
 13 34  1  0
 16 35  1  0
 17 36  1  0
 18 37  1  0
 19 38  1  0
 20 39  1  0
 21 40  1  0
 22 41  1  0
 24 42  1  0
 26 43  1  0
M  CHG  1   9  -1
M  END
>  <UniqueID>  (34) 
33

>  <SMILES>  (34) 
COc1ccc(-c2c([O-])ccc3cc(-c4ccccc4)ccc23)cc1O

>  <Energy>  (34) 
65.55301851001832

>  <Genealogy>  (34) 
COc1ccc(-c2c([O-])ccc3cc(-c4ccccc4)ccc23)cc1O (protonated)
COc1ccc(-c2c([O-])ccc3cc(-c4ccccc4)ccc23)cc1O (3D coordinates assigned)
COc1ccc(-c2c([O-])ccc3cc(-c4ccccc4)ccc23)cc1O (optimized conformer: 65.55301851001832 kcal/mol)

>  <smiles>  (34) 
COc1ccc(-c2c(O)ccc3cc(-c4ccccc4)ccc23)cc1O

>  <score_type>  (34) 
oracle

>  <origin>  (34) 
adg

>  <m_score__min__energy>  (34) 
-10.02

>  <m_primary>  (34) 
energy

$$$$
34:0
     RDKit          3D

 35 37  0  0  0  0  0  0  0  0999 V2000
   -5.4240   23.2080  -31.3200 C   0  0  0  0  0  0  0  0  0  0  0  0
   -4.2990   24.0460  -31.0750 O   0  0  0  0  0  0  0  0  0  0  0  0
   -3.3380   23.8160  -30.0790 C   0  0  0  0  0  0  0  0  0  0  0  0
   -2.3410   22.8760  -30.3280 C   0  0  0  0  0  0  0  0  0  0  0  0
   -1.3650   22.6110  -29.3690 C   0  0  0  0  0  0  0  0  0  0  0  0
   -1.3580   23.2800  -28.1380 C   0  0  0  0  0  0  0  0  0  0  0  0
   -2.3640   24.2500  -27.8690 C   0  0  0  0  0  0  0  0  0  0  0  0
   -3.3480   24.4950  -28.8480 C   0  0  0  0  0  0  0  0  0  0  0  0
   -2.4850   25.0030  -26.5920 C   0  0  0  0  0  0  0  0  0  0  0  0
   -3.6400   25.1870  -26.1180 O   0  0  0  0  0  0  0  0  0  0  0  0
   -1.3460   25.5760  -25.9120 N   0  0  0  0  0  0  0  0  0  0  0  0
   -1.5210   26.7500  -25.0440 C   0  0  0  0  0  0  0  0  0  0  0  0
   -0.8800   26.5100  -23.6630 C   0  0  0  0  0  0  0  0  0  0  0  0
    0.3240   25.6510  -23.7040 N   0  0  0  0  0  0  0  0  0  0  0  0
    0.9650   25.6150  -25.0260 C   0  0  0  0  0  0  0  0  0  0  0  0
    0.0030   25.0210  -26.0810 C   0  0  1  0  0  0  0  0  0  0  0  0
   -0.0660   23.4920  -25.9780 C   0  0  0  0  0  0  0  0  0  0  0  0
   -0.3320   22.9190  -27.2520 O   0  0  0  0  0  0  0  0  0  0  0  0
   -5.8568   22.8856  -30.3615 H   0  0  0  0  0  0  0  0  0  0  0  0
   -6.1787   23.7658  -31.8939 H   0  0  0  0  0  0  0  0  0  0  0  0
   -5.1056   22.3252  -31.8939 H   0  0  0  0  0  0  0  0  0  0  0  0
   -2.3237   22.3391  -31.2879 H   0  0  0  0  0  0  0  0  0  0  0  0
   -0.5866   21.8636  -29.5823 H   0  0  0  0  0  0  0  0  0  0  0  0
   -4.1391   25.2318  -28.6449 H   0  0  0  0  0  0  0  0  0  0  0  0
   -1.0445   27.6218  -25.5161 H   0  0  0  0  0  0  0  0  0  0  0  0
   -2.5975   26.9296  -24.9066 H   0  0  0  0  0  0  0  0  0  0  0  0
   -0.5965   27.4843  -23.2383 H   0  0  0  0  0  0  0  0  0  0  0  0
   -1.6273   25.9847  -23.0502 H   0  0  0  0  0  0  0  0  0  0  0  0
    1.0200   26.0070  -23.0060 H   0  0  0  0  0  0  0  0  0  0  0  0
    0.0690   24.6760  -23.4180 H   0  0  0  0  0  0  0  0  0  0  0  0
    1.2398   26.6380  -25.3226 H   0  0  0  0  0  0  0  0  0  0  0  0
    1.8626   24.9818  -24.9679 H   0  0  0  0  0  0  0  0  0  0  0  0
    0.3949   25.2903  -27.0729 H   0  0  0  0  0  0  0  0  0  0  0  0
    0.8952   23.1106  -25.6030 H   0  0  0  0  0  0  0  0  0  0  0  0
   -0.8776   23.2180  -25.2880 H   0  0  0  0  0  0  0  0  0  0  0  0
  1  2  1  0
  2  3  1  0
  3  4  2  0
  4  5  1  0
  5  6  2  0
  6  7  1  0
  7  8  2  0
  7  9  1  0
  9 10  2  0
  9 11  1  0
 11 12  1  0
 12 13  1  0
 13 14  1  0
 14 15  1  0
 15 16  1  0
 16 17  1  0
 17 18  1  0
  8  3  1  0
 16 11  1  0
 18  6  1  0
  1 19  1  0
  1 20  1  0
  1 21  1  0
  4 22  1  0
  5 23  1  0
  8 24  1  0
 12 25  1  0
 12 26  1  0
 13 27  1  0
 13 28  1  0
 14 29  1  0
 14 30  1  0
 15 31  1  0
 15 32  1  0
 16 33  1  6
 17 34  1  0
 17 35  1  0
M  CHG  1  14   1
M  END
>  <UniqueID>  (35) 
34

>  <SMILES>  (35) 
COc1ccc2c(c1)C(=O)N1CC[NH2+]C[C@H]1CO2

>  <Energy>  (35) 
53.614657878246604

>  <Genealogy>  (35) 
COc1ccc2c(c1)C(=O)N1CC[NH2+]CC1CO2 (protonated)
COc1ccc2c(c1)C(=O)N1CC[NH2+]C[C@H]1CO2 (chirality)
COc1ccc2c(c1)C(=O)N1CC[NH2+]C[C@H]1CO2 (3D coordinates assigned)
COc1ccc2c(c1)C(=O)N1CC[NH2+]C[C@H]1CO2 (nonaromatic ring conformer: 53.614657878246604 kcal/mol)

>  <smiles>  (35) 
COc1ccc2c(c1)C(=O)N1CCNCC1CO2

>  <score_type>  (35) 
oracle

>  <origin>  (35) 
adg

>  <m_score__min__energy>  (35) 
-5.0300000000000002

>  <m_primary>  (35) 
energy

$$$$
35:0
     RDKit          3D

 35 37  0  0  0  0  0  0  0  0999 V2000
   -3.2270   18.9170  -34.2090 C   0  0  0  0  0  0  0  0  0  0  0  0
   -2.8420   20.0220  -33.2700 C   0  0  0  0  0  0  0  0  0  0  0  0
   -1.5480   20.0670  -32.7340 C   0  0  0  0  0  0  0  0  0  0  0  0
   -1.2180   21.0690  -31.8240 C   0  0  0  0  0  0  0  0  0  0  0  0
   -2.1740   22.0140  -31.4540 C   0  0  0  0  0  0  0  0  0  0  0  0
   -3.4610   21.9500  -32.0060 C   0  0  0  0  0  0  0  0  0  0  0  0
   -4.4820   22.9460  -31.6060 C   0  0  0  0  0  0  0  0  0  0  0  0
   -4.1010   24.0070  -30.8400 N   0  0  0  0  0  0  0  0  0  0  0  0
   -4.9820   24.9550  -30.4260 C   0  0  0  0  0  0  0  0  0  0  0  0
   -6.3250   24.8650  -30.7890 C   0  0  0  0  0  0  0  0  0  0  0  0
   -6.7480   23.8020  -31.5850 C   0  0  0  0  0  0  0  0  0  0  0  0
   -5.8290   22.8230  -32.0030 C   0  0  0  0  0  0  0  0  0  0  0  0
   -6.2170   21.7830  -32.8620 O   0  0  0  0  0  0  0  0  0  0  0  0
   -7.1560   20.7860  -32.5590 C   0  0  0  0  0  0  0  0  0  0  0  0
   -6.7160   19.4610  -32.4500 C   0  0  0  0  0  0  0  0  0  0  0  0
   -7.6180   18.4400  -32.1330 C   0  0  0  0  0  0  0  0  0  0  0  0
   -8.9650   18.7410  -31.9090 C   0  0  0  0  0  0  0  0  0  0  0  0
   -9.8380   17.7510  -31.5980 F   0  0  0  0  0  0  0  0  0  0  0  0
   -9.4090   20.0640  -31.9950 C   0  0  0  0  0  0  0  0  0  0  0  0
   -8.5090   21.0850  -32.3140 C   0  0  0  0  0  0  0  0  0  0  0  0
   -3.7690   20.9440  -32.8810 N   0  0  0  0  0  0  0  0  0  0  0  0
   -3.5346   18.0340  -33.6296 H   0  0  0  0  0  0  0  0  0  0  0  0
   -4.0625   19.2489  -34.8429 H   0  0  0  0  0  0  0  0  0  0  0  0
   -2.3662   18.6579  -34.8429 H   0  0  0  0  0  0  0  0  0  0  0  0
   -0.7990   19.3174  -33.0293 H   0  0  0  0  0  0  0  0  0  0  0  0
   -0.2048   21.1145  -31.3981 H   0  0  0  0  0  0  0  0  0  0  0  0
   -1.9199   22.8051  -30.7332 H   0  0  0  0  0  0  0  0  0  0  0  0
   -4.6355   25.7937  -29.8043 H   0  0  0  0  0  0  0  0  0  0  0  0
   -7.0439   25.6256  -30.4504 H   0  0  0  0  0  0  0  0  0  0  0  0
   -7.8032   23.7286  -31.8870 H   0  0  0  0  0  0  0  0  0  0  0  0
   -5.6550   19.2218  -32.6146 H   0  0  0  0  0  0  0  0  0  0  0  0
   -7.2675   17.3999  -32.0599 H   0  0  0  0  0  0  0  0  0  0  0  0
  -10.4672   20.3016  -31.8115 H   0  0  0  0  0  0  0  0  0  0  0  0
   -8.8597   22.1259  -32.3737 H   0  0  0  0  0  0  0  0  0  0  0  0
   -4.7460   20.8580  -33.2430 H   0  0  0  0  0  0  0  0  0  0  0  0
  1  2  1  0
  2  3  2  0
  3  4  1  0
  4  5  2  0
  5  6  1  0
  6  7  1  0
  7  8  2  0
  8  9  1  0
  9 10  2  0
 10 11  1  0
 11 12  2  0
 12 13  1  0
 13 14  1  0
 14 15  2  0
 15 16  1  0
 16 17  2  0
 17 18  1  0
 17 19  1  0
 19 20  2  0
  6 21  2  0
 21  2  1  0
 12  7  1  0
 20 14  1  0
  1 22  1  0
  1 23  1  0
  1 24  1  0
  3 25  1  0
  4 26  1  0
  5 27  1  0
  9 28  1  0
 10 29  1  0
 11 30  1  0
 15 31  1  0
 16 32  1  0
 19 33  1  0
 20 34  1  0
 21 35  1  0
M  CHG  1  21   1
M  END
>  <UniqueID>  (36) 
35

>  <SMILES>  (36) 
Cc1cccc(-c2ncccc2Oc2ccc(F)cc2)[nH+]1

>  <Energy>  (36) 
48.8855548829572

>  <Genealogy>  (36) 
Cc1cccc(-c2ncccc2Oc2ccc(F)cc2)[nH+]1 (protonated)
Cc1cccc(-c2ncccc2Oc2ccc(F)cc2)[nH+]1 (3D coordinates assigned)
Cc1cccc(-c2ncccc2Oc2ccc(F)cc2)[nH+]1 (optimized conformer: 48.8855548829572 kcal/mol)

>  <smiles>  (36) 
Cc1cccc(-c2ncccc2Oc2ccc(F)cc2)n1

>  <score_type>  (36) 
oracle

>  <origin>  (36) 
adg

>  <m_score__min__energy>  (36) 
-6.5599999999999996

>  <m_primary>  (36) 
energy

$$$$
36:0
     RDKit          3D

 51 53  0  0  0  0  0  0  0  0999 V2000
   -3.0030   24.3140  -29.5980 C   0  0  0  0  0  0  0  0  0  0  0  0
   -3.9850   24.6240  -30.5810 O   0  0  0  0  0  0  0  0  0  0  0  0
   -5.1660   23.8920  -30.7790 C   0  0  0  0  0  0  0  0  0  0  0  0
   -5.7870   23.7850  -32.0380 C   0  0  0  0  0  0  0  0  0  0  0  0
   -6.9650   23.0460  -32.1830 C   0  0  0  0  0  0  0  0  0  0  0  0
   -7.5320   22.4000  -31.0770 C   0  0  0  0  0  0  0  0  0  0  0  0
   -9.0480   21.5210  -31.2510 S   0  0  0  0  0  0  0  0  0  0  0  0
   -9.8340   21.6130  -29.9730 O   0  0  0  0  0  0  0  0  0  0  0  0
   -9.8640   22.1270  -32.3590 O   0  0  0  0  0  0  0  0  0  0  0  0
   -8.7170   19.8070  -31.6210 C   0  0  0  0  0  0  0  0  0  0  0  0
   -7.3150   19.6480  -32.1440 C   0  0  0  0  0  0  0  0  0  0  0  0
   -6.9810   20.1180  -33.4230 C   0  0  0  0  0  0  0  0  0  0  0  0
   -5.6650   20.0310  -33.8840 C   0  0  0  0  0  0  0  0  0  0  0  0
   -4.6630   19.4790  -33.0710 C   0  0  0  0  0  0  0  0  0  0  0  0
   -3.2390   19.3900  -33.5760 C   0  0  0  0  0  0  0  0  0  0  0  0
   -2.6080   20.7300  -33.7000 N   0  0  0  0  0  0  0  0  0  0  0  0
   -1.1160   20.6570  -33.7740 C   0  0  0  0  0  0  0  0  0  0  0  0
   -0.3890   21.1310  -32.4990 C   0  0  0  0  0  0  0  0  0  0  0  0
   -1.1420   20.6950  -31.2430 C   0  0  0  0  0  0  0  0  0  0  0  0
   -2.5850   21.2280  -31.2330 C   0  0  0  0  0  0  0  0  0  0  0  0
   -3.0810   21.6430  -32.6330 C   0  0  0  0  0  0  0  0  0  0  0  0
   -4.9960   19.0190  -31.7860 C   0  0  0  0  0  0  0  0  0  0  0  0
   -6.3130   19.1030  -31.3270 C   0  0  0  0  0  0  0  0  0  0  0  0
   -6.9180   22.5080  -29.8230 C   0  0  0  0  0  0  0  0  0  0  0  0
   -5.7420   23.2480  -29.6770 C   0  0  0  0  0  0  0  0  0  0  0  0
   -3.4330   24.4497  -28.5947 H   0  0  0  0  0  0  0  0  0  0  0  0
   -2.6790   23.2699  -29.7199 H   0  0  0  0  0  0  0  0  0  0  0  0
   -2.1383   24.9828  -29.7199 H   0  0  0  0  0  0  0  0  0  0  0  0
   -5.3434   24.2851  -32.9116 H   0  0  0  0  0  0  0  0  0  0  0  0
   -7.4479   22.9717  -33.1685 H   0  0  0  0  0  0  0  0  0  0  0  0
   -8.8328   19.2089  -30.7051 H   0  0  0  0  0  0  0  0  0  0  0  0
   -9.4266   19.4625  -32.3877 H   0  0  0  0  0  0  0  0  0  0  0  0
   -7.7585   20.5568  -34.0655 H   0  0  0  0  0  0  0  0  0  0  0  0
   -5.4127   20.3973  -34.8901 H   0  0  0  0  0  0  0  0  0  0  0  0
   -2.6498   18.7836  -32.8723 H   0  0  0  0  0  0  0  0  0  0  0  0
   -3.2607   18.9306  -34.5753 H   0  0  0  0  0  0  0  0  0  0  0  0
   -2.9450   21.1530  -34.5990 H   0  0  0  0  0  0  0  0  0  0  0  0
   -0.8320   19.6112  -33.9629 H   0  0  0  0  0  0  0  0  0  0  0  0
   -0.8088   21.3383  -34.5812 H   0  0  0  0  0  0  0  0  0  0  0  0
    0.6222   20.6985  -32.4801 H   0  0  0  0  0  0  0  0  0  0  0  0
   -0.3390   22.2298  -32.5130 H   0  0  0  0  0  0  0  0  0  0  0  0
   -1.1673   19.5959  -31.2057 H   0  0  0  0  0  0  0  0  0  0  0  0
   -0.6177   21.1063  -30.3678 H   0  0  0  0  0  0  0  0  0  0  0  0
   -3.2475   20.4402  -30.8452 H   0  0  0  0  0  0  0  0  0  0  0  0
   -2.6010   22.1257  -30.5975 H   0  0  0  0  0  0  0  0  0  0  0  0
   -4.1810   21.6426  -32.6313 H   0  0  0  0  0  0  0  0  0  0  0  0
   -2.6755   22.6429  -32.8468 H   0  0  0  0  0  0  0  0  0  0  0  0
   -4.2166   18.5909  -31.1385 H   0  0  0  0  0  0  0  0  0  0  0  0
   -6.5656   18.7399  -30.3198 H   0  0  0  0  0  0  0  0  0  0  0  0
   -7.3632   22.0085  -28.9499 H   0  0  0  0  0  0  0  0  0  0  0  0
   -5.2649   23.3253  -28.6889 H   0  0  0  0  0  0  0  0  0  0  0  0
  1  2  1  0
  2  3  1  0
  3  4  2  0
  4  5  1  0
  5  6  2  0
  6  7  1  0
  7  8  2  0
  7  9  2  0
  7 10  1  0
 10 11  1  0
 11 12  2  0
 12 13  1  0
 13 14  2  0
 14 15  1  0
 15 16  1  0
 16 17  1  0
 17 18  1  0
 18 19  1  0
 19 20  1  0
 20 21  1  0
 14 22  1  0
 22 23  2  0
  6 24  1  0
 24 25  2  0
 25  3  1  0
 23 11  1  0
 21 16  1  0
  1 26  1  0
  1 27  1  0
  1 28  1  0
  4 29  1  0
  5 30  1  0
 10 31  1  0
 10 32  1  0
 12 33  1  0
 13 34  1  0
 15 35  1  0
 15 36  1  0
 16 37  1  0
 17 38  1  0
 17 39  1  0
 18 40  1  0
 18 41  1  0
 19 42  1  0
 19 43  1  0
 20 44  1  0
 20 45  1  0
 21 46  1  0
 21 47  1  0
 22 48  1  0
 23 49  1  0
 24 50  1  0
 25 51  1  0
M  CHG  1  16   1
M  END
>  <UniqueID>  (37) 
36

>  <SMILES>  (37) 
COc1ccc(S(=O)(=O)Cc2ccc(C[NH+]3CCCCC3)cc2)cc1

>  <Energy>  (37) 
55.32419747959405

>  <Genealogy>  (37) 
COc1ccc(S(=O)(=O)Cc2ccc(C[NH+]3CCCCC3)cc2)cc1 (protonated)
COc1ccc(S(=O)(=O)Cc2ccc(C[NH+]3CCCCC3)cc2)cc1 (3D coordinates assigned)
COc1ccc(S(=O)(=O)Cc2ccc(C[NH+]3CCCCC3)cc2)cc1 (nonaromatic ring conformer: 55.32419747959405 kcal/mol)

>  <smiles>  (37) 
COc1ccc(S(=O)(=O)Cc2ccc(CN3CCCCC3)cc2)cc1

>  <score_type>  (37) 
oracle

>  <origin>  (37) 
adg

>  <m_score__min__energy>  (37) 
-8.6400000000000006

>  <m_primary>  (37) 
energy

$$$$
37:0
     RDKit          3D

 33 34  0  0  0  0  0  0  0  0999 V2000
   -6.5750   17.5400  -32.1240 C   0  0  0  0  0  0  0  0  0  0  0  0
   -6.1090   18.0810  -33.4730 C   0  0  0  0  0  0  0  0  0  0  0  0
   -6.8390   19.3000  -33.8230 N   0  0  0  0  0  0  0  0  0  0  0  0
   -7.3170   20.2750  -32.8730 C   0  0  0  0  0  0  0  0  0  0  0  0
   -8.6870   20.3140  -32.5690 C   0  0  0  0  0  0  0  0  0  0  0  0
   -9.1840   21.2360  -31.6460 C   0  0  0  0  0  0  0  0  0  0  0  0
   -8.3200   22.1320  -31.0140 C   0  0  0  0  0  0  0  0  0  0  0  0
   -6.9470   22.1190  -31.3070 C   0  0  0  0  0  0  0  0  0  0  0  0
   -6.0060   23.0620  -30.5960 C   0  0  2  0  0  0  0  0  0  0  0  0
   -5.6310   24.2340  -31.5340 C   0  0  0  0  0  0  0  0  0  0  0  0
   -4.7340   25.1860  -30.8600 N   0  0  0  0  0  0  0  0  0  0  0  0
   -3.8230   24.5420  -29.8990 C   0  0  0  0  0  0  0  0  0  0  0  0
   -3.6610   23.0380  -30.1710 C   0  0  0  0  0  0  0  0  0  0  0  0
   -4.8870   22.3290  -30.1030 O   0  0  0  0  0  0  0  0  0  0  0  0
   -6.4480   21.1770  -32.2250 C   0  0  0  0  0  0  0  0  0  0  0  0
   -6.0887   18.1045  -31.3148 H   0  0  0  0  0  0  0  0  0  0  0  0
   -7.6666   17.6490  -32.0425 H   0  0  0  0  0  0  0  0  0  0  0  0
   -6.3056   16.4766  -32.0425 H   0  0  0  0  0  0  0  0  0  0  0  0
   -5.0338   18.3071  -33.4192 H   0  0  0  0  0  0  0  0  0  0  0  0
   -6.3016   17.3204  -34.2440 H   0  0  0  0  0  0  0  0  0  0  0  0
   -7.0290   19.4630  -34.8380 H   0  0  0  0  0  0  0  0  0  0  0  0
   -9.3750   19.6118  -33.0625 H   0  0  0  0  0  0  0  0  0  0  0  0
  -10.2595   21.2565  -31.4161 H   0  0  0  0  0  0  0  0  0  0  0  0
   -8.7168   22.8517  -30.2829 H   0  0  0  0  0  0  0  0  0  0  0  0
   -6.4900   23.5186  -29.7201 H   0  0  0  0  0  0  0  0  0  0  0  0
   -5.1255   23.8334  -32.4251 H   0  0  0  0  0  0  0  0  0  0  0  0
   -6.5527   24.7632  -31.8174 H   0  0  0  0  0  0  0  0  0  0  0  0
   -4.1640   25.6670  -31.5950 H   0  0  0  0  0  0  0  0  0  0  0  0
   -2.8362   25.0230  -29.9693 H   0  0  0  0  0  0  0  0  0  0  0  0
   -4.2547   24.6589  -28.8940 H   0  0  0  0  0  0  0  0  0  0  0  0
   -3.2354   22.9072  -31.1769 H   0  0  0  0  0  0  0  0  0  0  0  0
   -3.0010   22.6310  -29.3907 H   0  0  0  0  0  0  0  0  0  0  0  0
   -5.3696   21.1437  -32.4394 H   0  0  0  0  0  0  0  0  0  0  0  0
  1  2  1  0
  2  3  1  0
  3  4  1  0
  4  5  2  0
  5  6  1  0
  6  7  2  0
  7  8  1  0
  8  9  1  0
  9 10  1  0
 10 11  1  0
 11 12  1  0
 12 13  1  0
 13 14  1  0
  8 15  2  0
 15  4  1  0
 14  9  1  0
  1 16  1  0
  1 17  1  0
  1 18  1  0
  2 19  1  0
  2 20  1  0
  3 21  1  0
  5 22  1  0
  6 23  1  0
  7 24  1  0
  9 25  1  1
 10 26  1  0
 10 27  1  0
 11 28  1  0
 12 29  1  0
 12 30  1  0
 13 31  1  0
 13 32  1  0
 15 33  1  0
M  END
>  <UniqueID>  (38) 
37

>  <SMILES>  (38) 
CCNc1cccc([C@@H]2CNCCO2)c1

>  <Energy>  (38) 
40.94263451713715

>  <Genealogy>  (38) 
CCNc1cccc([C@@H]2CNCCO2)c1 (chirality)
CCNc1cccc([C@@H]2CNCCO2)c1 (3D coordinates assigned)
CCNc1cccc([C@@H]2CNCCO2)c1 (nonaromatic ring conformer: 40.94263451713715 kcal/mol)

>  <smiles>  (38) 
CCNc1cccc(C2CNCCO2)c1

>  <score_type>  (38) 
oracle

>  <origin>  (38) 
adg

>  <m_score__min__energy>  (38) 
-6.96

>  <m_primary>  (38) 
energy

$$$$
38:0
     RDKit          3D

 37 40  0  0  0  0  0  0  0  0999 V2000
   -6.5300   11.6750  -35.2170 C   0  0  0  0  0  0  0  0  0  0  0  0
   -6.2140   13.0850  -34.8160 C   0  0  0  0  0  0  0  0  0  0  0  0
   -4.8870   13.5200  -34.7270 C   0  0  0  0  0  0  0  0  0  0  0  0
   -4.6070   14.8450  -34.3910 C   0  0  0  0  0  0  0  0  0  0  0  0
   -5.6640   15.7400  -34.1620 C   0  0  0  0  0  0  0  0  0  0  0  0
   -5.3950   17.1080  -33.7980 N   0  0  0  0  0  0  0  0  0  0  0  0
   -4.2740   17.7220  -34.3070 C   0  0  0  0  0  0  0  0  0  0  0  0
   -3.9810   19.0170  -33.9930 N   0  0  0  0  0  0  0  0  0  0  0  0
   -4.8030   19.7090  -33.1680 C   0  0  0  0  0  0  0  0  0  0  0  0
   -4.6110   21.0310  -32.7640 C   0  0  0  0  0  0  0  0  0  0  0  0
   -5.6260   21.4750  -31.9090 C   0  0  0  0  0  0  0  0  0  0  0  0
   -5.6670   22.8020  -31.2550 C   0  0  0  0  0  0  0  0  0  0  0  0
   -4.4800   23.3300  -30.7140 C   0  0  0  0  0  0  0  0  0  0  0  0
   -4.4800   24.5690  -30.0700 C   0  0  0  0  0  0  0  0  0  0  0  0
   -5.6630   25.3000  -29.9610 C   0  0  0  0  0  0  0  0  0  0  0  0
   -6.8470   24.7980  -30.5040 C   0  0  0  0  0  0  0  0  0  0  0  0
   -6.8610   23.5560  -31.1540 C   0  0  0  0  0  0  0  0  0  0  0  0
   -8.3720   23.0360  -31.8910 Cl  0  0  0  0  0  0  0  0  0  0  0  0
   -6.7230   20.2060  -31.6460 S   0  0  0  0  0  0  0  0  0  0  0  0
   -5.9250   19.1140  -32.6400 C   0  0  0  0  0  0  0  0  0  0  0  0
   -6.2300   17.7950  -32.9480 C   0  0  0  0  0  0  0  0  0  0  0  0
   -7.2460   17.2450  -32.4380 O   0  0  0  0  0  0  0  0  0  0  0  0
   -6.9520   15.2980  -34.2630 N   0  0  0  0  0  0  0  0  0  0  0  0
   -7.2440   14.0090  -34.5910 C   0  0  0  0  0  0  0  0  0  0  0  0
   -6.6679   11.0596  -34.3157 H   0  0  0  0  0  0  0  0  0  0  0  0
   -7.4533   11.6620  -35.8147 H   0  0  0  0  0  0  0  0  0  0  0  0
   -5.7005   11.2691  -35.8147 H   0  0  0  0  0  0  0  0  0  0  0  0
   -4.0639   12.8168  -34.9221 H   0  0  0  0  0  0  0  0  0  0  0  0
   -3.5647   15.1861  -34.3061 H   0  0  0  0  0  0  0  0  0  0  0  0
   -3.6049   17.1613  -34.9762 H   0  0  0  0  0  0  0  0  0  0  0  0
   -3.7603   21.6521  -33.0810 H   0  0  0  0  0  0  0  0  0  0  0  0
   -3.5426   22.7608  -30.7993 H   0  0  0  0  0  0  0  0  0  0  0  0
   -3.5461   24.9690  -29.6482 H   0  0  0  0  0  0  0  0  0  0  0  0
   -5.6629   26.2725  -29.4469 H   0  0  0  0  0  0  0  0  0  0  0  0
   -7.7759   25.3813  -30.4212 H   0  0  0  0  0  0  0  0  0  0  0  0
   -7.7410   15.9640  -34.1030 H   0  0  0  0  0  0  0  0  0  0  0  0
   -8.2933   13.6912  -34.6798 H   0  0  0  0  0  0  0  0  0  0  0  0
  1  2  1  0
  2  3  2  0
  3  4  1  0
  4  5  2  0
  5  6  1  0
  6  7  1  0
  7  8  2  0
  8  9  1  0
  9 10  1  0
 10 11  2  0
 11 12  1  0
 12 13  2  0
 13 14  1  0
 14 15  2  0
 15 16  1  0
 16 17  2  0
 17 18  1  0
 11 19  1  0
 19 20  1  0
 20 21  1  0
 21 22  2  0
  5 23  1  0
 23 24  2  0
 24  2  1  0
 21  6  1  0
 20  9  2  0
 17 12  1  0
  1 25  1  0
  1 26  1  0
  1 27  1  0
  3 28  1  0
  4 29  1  0
  7 30  1  0
 10 31  1  0
 13 32  1  0
 14 33  1  0
 15 34  1  0
 16 35  1  0
 23 36  1  0
 24 37  1  0
M  CHG  1  23   1
M  END
>  <UniqueID>  (39) 
38

>  <SMILES>  (39) 
Cc1ccc(-n2cnc3cc(-c4ccccc4Cl)sc3c2=O)[nH+]c1

>  <Energy>  (39) 
88.58676106085471

>  <Genealogy>  (39) 
Cc1ccc(-n2cnc3cc(-c4ccccc4Cl)sc3c2=O)[nH+]c1 (protonated)
Cc1ccc(-n2cnc3cc(-c4ccccc4Cl)sc3c2=O)[nH+]c1 (3D coordinates assigned)
Cc1ccc(-n2cnc3cc(-c4ccccc4Cl)sc3c2=O)[nH+]c1 (optimized conformer: 88.58676106085471 kcal/mol)

>  <smiles>  (39) 
Cc1ccc(-n2cnc3cc(-c4ccccc4Cl)sc3c2=O)nc1

>  <score_type>  (39) 
oracle

>  <origin>  (39) 
adg

>  <m_score__min__energy>  (39) 
-7.25

>  <m_primary>  (39) 
energy

$$$$
39:0
     RDKit          3D

 51 53  0  0  0  0  0  0  0  0999 V2000
   -1.1220   26.3730  -27.9860 C   0  0  0  0  0  0  0  0  0  0  0  0
   -1.8320   25.6200  -28.9640 O   0  0  0  0  0  0  0  0  0  0  0  0
   -1.8780   24.2170  -29.0120 C   0  0  0  0  0  0  0  0  0  0  0  0
   -0.7420   23.4470  -29.3340 C   0  0  0  0  0  0  0  0  0  0  0  0
   -0.8220   22.0550  -29.3890 C   0  0  0  0  0  0  0  0  0  0  0  0
   -2.0320   21.4120  -29.1300 C   0  0  0  0  0  0  0  0  0  0  0  0
   -3.1670   22.1610  -28.8090 C   0  0  0  0  0  0  0  0  0  0  0  0
   -3.0970   23.5610  -28.7330 C   0  0  0  0  0  0  0  0  0  0  0  0
   -4.3430   24.3500  -28.4150 C   0  0  0  0  0  0  0  0  0  0  0  0
   -4.9620   24.9210  -29.6940 C   0  0  0  0  0  0  0  0  0  0  0  0
   -5.7770   23.9000  -30.3630 N   0  0  0  0  0  0  0  0  0  0  0  0
   -7.2220   23.8670  -30.1140 C   0  0  0  0  0  0  0  0  0  0  0  0
   -7.8280   22.5190  -30.5090 C   0  0  0  0  0  0  0  0  0  0  0  0
   -7.4440   22.1820  -31.8940 N   0  0  0  0  0  0  0  0  0  0  0  0
   -8.2110   21.0100  -32.3720 C   0  0  0  0  0  0  0  0  0  0  0  0
   -7.7250   19.7240  -31.6890 C   0  0  0  0  0  0  0  0  0  0  0  0
   -7.0350   18.8250  -32.6810 C   0  0  0  0  0  0  0  0  0  0  0  0
   -6.3380   19.3740  -33.7710 C   0  0  0  0  0  0  0  0  0  0  0  0
   -5.7260   18.5350  -34.7100 C   0  0  0  0  0  0  0  0  0  0  0  0
   -5.8140   17.1480  -34.5720 C   0  0  0  0  0  0  0  0  0  0  0  0
   -6.5180   16.5940  -33.4980 C   0  0  0  0  0  0  0  0  0  0  0  0
   -7.1310   17.4290  -32.5570 C   0  0  0  0  0  0  0  0  0  0  0  0
   -5.9890   21.9210  -31.9590 C   0  0  0  0  0  0  0  0  0  0  0  0
   -5.2080   23.0720  -31.3960 C   0  0  0  0  0  0  0  0  0  0  0  0
   -4.0240   23.2630  -31.7880 O   0  0  0  0  0  0  0  0  0  0  0  0
   -1.4278   26.0486  -26.9804 H   0  0  0  0  0  0  0  0  0  0  0  0
   -0.0414   26.2099  -28.1110 H   0  0  0  0  0  0  0  0  0  0  0  0
   -1.3483   27.4422  -28.1110 H   0  0  0  0  0  0  0  0  0  0  0  0
    0.2149   23.9473  -29.5435 H   0  0  0  0  0  0  0  0  0  0  0  0
    0.0716   21.4634  -29.6373 H   0  0  0  0  0  0  0  0  0  0  0  0
   -2.0929   20.3148  -29.1784 H   0  0  0  0  0  0  0  0  0  0  0  0
   -4.1217   21.6503  -28.6146 H   0  0  0  0  0  0  0  0  0  0  0  0
   -5.0731   23.6899  -27.9238 H   0  0  0  0  0  0  0  0  0  0  0  0
   -4.0741   25.1833  -27.7492 H   0  0  0  0  0  0  0  0  0  0  0  0
   -5.5969   25.7818  -29.4373 H   0  0  0  0  0  0  0  0  0  0  0  0
   -4.1559   25.2375  -30.3722 H   0  0  0  0  0  0  0  0  0  0  0  0
   -7.4043   24.0409  -29.0432 H   0  0  0  0  0  0  0  0  0  0  0  0
   -7.6955   24.6504  -30.7240 H   0  0  0  0  0  0  0  0  0  0  0  0
   -7.4575   21.7389  -29.8277 H   0  0  0  0  0  0  0  0  0  0  0  0
   -8.9242   22.5812  -30.4421 H   0  0  0  0  0  0  0  0  0  0  0  0
   -9.2766   21.1590  -32.1435 H   0  0  0  0  0  0  0  0  0  0  0  0
   -8.0620   20.9104  -33.4573 H   0  0  0  0  0  0  0  0  0  0  0  0
   -7.0197   19.9853  -30.8864 H   0  0  0  0  0  0  0  0  0  0  0  0
   -8.5942   19.1928  -31.2738 H   0  0  0  0  0  0  0  0  0  0  0  0
   -6.2731   20.4660  -33.8867 H   0  0  0  0  0  0  0  0  0  0  0  0
   -5.1751   18.9688  -35.5576 H   0  0  0  0  0  0  0  0  0  0  0  0
   -5.3291   16.4907  -35.3088 H   0  0  0  0  0  0  0  0  0  0  0  0
   -6.5899   15.5014  -33.3929 H   0  0  0  0  0  0  0  0  0  0  0  0
   -7.6900   16.9906  -31.7172 H   0  0  0  0  0  0  0  0  0  0  0  0
   -5.7604   21.0142  -31.3798 H   0  0  0  0  0  0  0  0  0  0  0  0
   -5.7046   21.7882  -33.0133 H   0  0  0  0  0  0  0  0  0  0  0  0
  1  2  1  0
  2  3  1  0
  3  4  2  0
  4  5  1  0
  5  6  2  0
  6  7  1  0
  7  8  2  0
  8  9  1  0
  9 10  1  0
 10 11  1  0
 11 12  1  0
 12 13  1  0
 13 14  1  0
 14 15  1  0
 15 16  1  0
 16 17  1  0
 17 18  2  0
 18 19  1  0
 19 20  2  0
 20 21  1  0
 21 22  2  0
 14 23  1  0
 23 24  1  0
 24 25  2  0
  8  3  1  0
 24 11  1  0
 22 17  1  0
  1 26  1  0
  1 27  1  0
  1 28  1  0
  4 29  1  0
  5 30  1  0
  6 31  1  0
  7 32  1  0
  9 33  1  0
  9 34  1  0
 10 35  1  0
 10 36  1  0
 12 37  1  0
 12 38  1  0
 13 39  1  0
 13 40  1  0
 15 41  1  0
 15 42  1  0
 16 43  1  0
 16 44  1  0
 18 45  1  0
 19 46  1  0
 20 47  1  0
 21 48  1  0
 22 49  1  0
 23 50  1  0
 23 51  1  0
M  END
>  <UniqueID>  (40) 
39

>  <SMILES>  (40) 
COc1ccccc1CCN1CCN(CCc2ccccc2)CC1=O

>  <Energy>  (40) 
48.11327425974326

>  <Genealogy>  (40) 
COc1ccccc1CCN1CCN(CCc2ccccc2)CC1=O (3D coordinates assigned)
COc1ccccc1CCN1CCN(CCc2ccccc2)CC1=O (nonaromatic ring conformer: 48.11327425974326 kcal/mol)

>  <smiles>  (40) 
COc1ccccc1CCN1CCN(CCc2ccccc2)CC1=O

>  <score_type>  (40) 
oracle

>  <origin>  (40) 
adg

>  <m_score__min__energy>  (40) 
-8.6899999999999995

>  <m_primary>  (40) 
energy

$$$$
40:0
     RDKit          3D

 40 43  0  0  1  0  0  0  0  0999 V2000
   -0.8730   24.4730  -28.6700 C   0  0  0  0  0  0  0  0  0  0  0  0
   -2.2060   24.3180  -29.3180 C   0  0  0  0  0  0  0  0  0  0  0  0
   -3.1490   24.9170  -29.5900 N   0  0  0  0  0  0  0  0  0  0  0  0
   -4.2540   24.5460  -30.1900 C   0  0  0  0  0  0  0  0  0  0  0  0
   -5.4330   25.4360  -30.4950 C   0  0  0  0  0  0  0  0  0  0  0  0
   -4.2690   23.2110  -30.5460 C   0  0  0  0  0  0  0  0  0  0  0  0
   -5.2720   22.4170  -31.2110 C   0  0  0  0  0  0  0  0  0  0  0  0
   -6.5460   22.5420  -30.8000 N   0  0  0  0  0  0  0  0  0  0  0  0
   -7.5480   21.8230  -31.3840 C   0  0  0  0  0  0  0  0  0  0  0  0
   -8.8440   21.9450  -30.9710 C   0  0  0  0  0  0  0  0  0  0  0  0
   -9.8280   21.1920  -31.5960 C   0  0  0  0  0  0  0  0  0  0  0  0
   -9.4850   20.3250  -32.6270 C   0  0  0  0  0  0  0  0  0  0  0  0
   -8.1730   20.1970  -33.0490 C   0  0  0  0  0  0  0  0  0  0  0  0
   -7.2050   20.9550  -32.4150 C   0  0  0  0  0  0  0  0  0  0  0  0
   -5.8890   20.8280  -32.8370 C   0  0  0  0  0  0  0  0  0  0  0  0
   -5.5960   20.0280  -33.7840 N   0  0  0  0  0  0  0  0  0  0  0  0
   -5.6350   18.6210  -33.5770 C   0  0  0  0  0  0  0  0  0  0  0  0
   -5.6760   18.1960  -32.2460 C   0  0  0  0  0  0  0  0  0  0  0  0
   -5.7160   16.8530  -31.9350 C   0  0  0  0  0  0  0  0  0  0  0  0
   -5.7130   15.9460  -32.9770 C   0  0  0  0  0  0  0  0  0  0  0  0
   -5.6720   16.3430  -34.2990 C   0  0  0  0  0  0  0  0  0  0  0  0
   -5.6320   17.7060  -34.6110 C   0  0  0  0  0  0  0  0  0  0  0  0
   -4.9460   21.5760  -32.2110 N   0  0  0  0  0  0  0  0  0  0  0  0
   -2.6940   22.6030  -29.9880 S   0  0  0  0  0  0  0  0  0  0  0  0
   -0.9930   24.4591  -27.5767 H   0  0  0  0  0  0  0  0  0  0  0  0
   -0.2173   23.6450  -28.9775 H   0  0  0  0  0  0  0  0  0  0  0  0
   -0.4248   25.4293  -28.9775 H   0  0  0  0  0  0  0  0  0  0  0  0
   -5.8870   25.7787  -29.5535 H   0  0  0  0  0  0  0  0  0  0  0  0
   -5.0948   26.3060  -31.0770 H   0  0  0  0  0  0  0  0  0  0  0  0
   -6.1770   24.8723  -31.0770 H   0  0  0  0  0  0  0  0  0  0  0  0
   -9.1049   22.6321  -30.1525 H   0  0  0  0  0  0  0  0  0  0  0  0
  -10.8768   21.2810  -31.2763 H   0  0  0  0  0  0  0  0  0  0  0  0
  -10.2703   19.7300  -33.1162 H   0  0  0  0  0  0  0  0  0  0  0  0
   -7.9072   19.5109  -33.8667 H   0  0  0  0  0  0  0  0  0  0  0  0
   -5.6764   18.9415  -31.4371 H   0  0  0  0  0  0  0  0  0  0  0  0
   -5.7493   16.5143  -30.8890 H   0  0  0  0  0  0  0  0  0  0  0  0
   -5.7443   14.8710  -32.7458 H   0  0  0  0  0  0  0  0  0  0  0  0
   -5.6708   15.5915  -35.1023 H   0  0  0  0  0  0  0  0  0  0  0  0
   -5.5989   18.0418  -35.6580 H   0  0  0  0  0  0  0  0  0  0  0  0
   -3.9570   21.4760  -32.5310 H   0  0  0  0  0  0  0  0  0  0  0  0
  1  2  1  0
  2  3  2  0
  3  4  1  0
  4  5  1  0
  4  6  2  0
  6  7  1  0
  7  8  2  0
  8  9  1  0
  9 10  2  0
 10 11  1  0
 11 12  2  0
 12 13  1  0
 13 14  2  0
 14 15  1  0
 15 16  2  0
 16 17  1  0
 17 18  2  0
 18 19  1  0
 19 20  2  0
 20 21  1  0
 21 22  2  0
 15 23  1  0
  6 24  1  0
 24  2  1  0
 23  7  1  0
 14  9  1  0
 22 17  1  0
  1 25  1  0
  1 26  1  0
  1 27  1  0
  5 28  1  0
  5 29  1  0
  5 30  1  0
 10 31  1  0
 11 32  1  0
 12 33  1  0
 13 34  1  0
 18 35  1  0
 19 36  1  0
 20 37  1  0
 21 38  1  0
 22 39  1  0
 23 40  1  0
M  END
>  <smiles>  (41) 
Cc1nc(C)c(-c2nc3ccccc3c(=Nc3ccccc3)[nH]2)s1

>  <score_type>  (41) 
oracle

>  <origin>  (41) 
adg

>  <m_score__min__energy>  (41) 
-8.6400000000000006

>  <m_primary>  (41) 
energy

$$$$
41:0
     RDKit          3D

 42 44  0  0  0  0  0  0  0  0999 V2000
   -6.8630   16.8390  -33.2120 C   0  0  0  0  0  0  0  0  0  0  0  0
   -5.6180   17.4990  -32.5930 C   0  0  0  0  0  0  0  0  0  0  0  0
   -4.6980   18.1590  -33.5650 N   0  0  0  0  0  0  0  0  0  0  0  0
   -4.8520   17.6650  -34.9570 C   0  0  0  0  0  0  0  0  0  0  0  0
   -3.8050   16.6110  -35.3390 C   0  0  0  0  0  0  0  0  0  0  0  0
   -4.8040   19.6440  -33.5310 C   0  0  0  0  0  0  0  0  0  0  0  0
   -4.5900   20.2490  -32.1270 C   0  0  0  0  0  0  0  0  0  0  0  0
   -5.6110   21.2570  -31.8150 N   0  0  0  0  0  0  0  0  0  0  0  0
   -6.9590   21.1140  -31.9020 C   0  0  0  0  0  0  0  0  0  0  0  0
   -7.6810   19.9740  -32.2690 C   0  0  0  0  0  0  0  0  0  0  0  0
   -9.0850   20.0600  -32.2930 C   0  0  0  0  0  0  0  0  0  0  0  0
   -9.7380   21.2640  -31.9550 C   0  0  0  0  0  0  0  0  0  0  0  0
   -8.9960   22.3990  -31.5860 C   0  0  0  0  0  0  0  0  0  0  0  0
   -7.6080   22.2880  -31.5700 C   0  0  0  0  0  0  0  0  0  0  0  0
   -6.6230   23.2000  -31.2630 C   0  0  0  0  0  0  0  0  0  0  0  0
   -6.6890   24.5330  -30.8710 C   0  0  0  0  0  0  0  0  0  0  0  0
   -5.4690   25.1910  -30.6410 C   0  0  0  0  0  0  0  0  0  0  0  0
   -4.2810   24.5290  -30.8020 N   0  0  0  0  0  0  0  0  0  0  0  0
   -4.2230   23.2200  -31.1860 C   0  0  0  0  0  0  0  0  0  0  0  0
   -5.4230   22.5430  -31.4200 C   0  0  0  0  0  0  0  0  0  0  0  0
   -7.5281   16.4864  -32.4100 H   0  0  0  0  0  0  0  0  0  0  0  0
   -7.3960   17.5730  -33.8342 H   0  0  0  0  0  0  0  0  0  0  0  0
   -6.5547   15.9859  -33.8342 H   0  0  0  0  0  0  0  0  0  0  0  0
   -5.9579   18.2604  -31.8756 H   0  0  0  0  0  0  0  0  0  0  0  0
   -5.0400   16.6855  -32.1303 H   0  0  0  0  0  0  0  0  0  0  0  0
   -3.7240   17.9050  -33.2780 H   0  0  0  0  0  0  0  0  0  0  0  0
   -5.8522   17.2194  -35.0620 H   0  0  0  0  0  0  0  0  0  0  0  0
   -4.7126   18.5251  -35.6284 H   0  0  0  0  0  0  0  0  0  0  0  0
   -3.3727   16.1758  -34.4259 H   0  0  0  0  0  0  0  0  0  0  0  0
   -4.2829   15.8177  -35.9325 H   0  0  0  0  0  0  0  0  0  0  0  0
   -3.0085   17.0836  -35.9325 H   0  0  0  0  0  0  0  0  0  0  0  0
   -4.0451   20.0620  -34.2087 H   0  0  0  0  0  0  0  0  0  0  0  0
   -5.8284   19.9005  -33.8390 H   0  0  0  0  0  0  0  0  0  0  0  0
   -4.6419   19.4441  -31.3791 H   0  0  0  0  0  0  0  0  0  0  0  0
   -3.6047   20.7378  -32.1079 H   0  0  0  0  0  0  0  0  0  0  0  0
   -7.1664   19.0378  -32.5311 H   0  0  0  0  0  0  0  0  0  0  0  0
   -9.6796   19.1796  -32.5782 H   0  0  0  0  0  0  0  0  0  0  0  0
  -10.8365   21.3148  -31.9805 H   0  0  0  0  0  0  0  0  0  0  0  0
   -9.4944   23.3425  -31.3190 H   0  0  0  0  0  0  0  0  0  0  0  0
   -7.6527   25.0487  -30.7467 H   0  0  0  0  0  0  0  0  0  0  0  0
   -5.4681   26.2459  -30.3292 H   0  0  0  0  0  0  0  0  0  0  0  0
   -3.2556   22.7109  -31.3082 H   0  0  0  0  0  0  0  0  0  0  0  0
  1  2  1  0
  2  3  1  0
  3  4  1  0
  4  5  1  0
  3  6  1  0
  6  7  1  0
  7  8  1  0
  8  9  1  0
  9 10  2  0
 10 11  1  0
 11 12  2  0
 12 13  1  0
 13 14  2  0
 14 15  1  0
 15 16  2  0
 16 17  1  0
 17 18  2  0
 18 19  1  0
 19 20  2  0
 20  8  1  0
 14  9  1  0
 20 15  1  0
  1 21  1  0
  1 22  1  0
  1 23  1  0
  2 24  1  0
  2 25  1  0
  3 26  1  0
  4 27  1  0
  4 28  1  0
  5 29  1  0
  5 30  1  0
  5 31  1  0
  6 32  1  0
  6 33  1  0
  7 34  1  0
  7 35  1  0
 10 36  1  0
 11 37  1  0
 12 38  1  0
 13 39  1  0
 16 40  1  0
 17 41  1  0
 19 42  1  0
M  CHG  1   3   1
M  END
>  <UniqueID>  (42) 
40

>  <SMILES>  (42) 
CC[NH+](CC)CCn1c2ccccc2c2ccncc21

>  <Energy>  (42) 
89.56714727680837

>  <Genealogy>  (42) 
CC[NH+](CC)CCn1c2ccccc2c2ccncc21 (protonated)
CC[NH+](CC)CCn1c2ccccc2c2ccncc21 (3D coordinates assigned)
CC[NH+](CC)CCn1c2ccccc2c2ccncc21 (optimized conformer: 89.56714727680837 kcal/mol)

>  <smiles>  (42) 
CCN(CC)CCn1c2ccccc2c2ccncc21

>  <score_type>  (42) 
oracle

>  <origin>  (42) 
adg

>  <m_score__min__energy>  (42) 
-7.04

>  <m_primary>  (42) 
energy

$$$$
42:0
     RDKit          3D

 71 72  0  0  0  0  0  0  0  0999 V2000
   -1.8800   19.5210  -26.7320 C   0  0  0  0  0  0  0  0  0  0  0  0
   -1.7890   20.7480  -27.6610 C   0  0  0  0  0  0  0  0  0  0  0  0
   -3.0890   21.2780  -28.1740 N   0  0  2  0  0  0  0  0  0  0  0  0
   -3.3880   20.9500  -29.5940 C   0  0  0  0  0  0  0  0  0  0  0  0
   -2.1010   20.6980  -30.4220 C   0  0  0  0  0  0  0  0  0  0  0  0
   -2.3770   20.1290  -31.7550 N   0  0  0  0  0  0  0  0  0  0  0  0
   -2.3020   21.0810  -32.8860 C   0  0  0  0  0  0  0  0  0  0  0  0
   -3.6700   21.4530  -33.4890 C   0  0  0  0  0  0  0  0  0  0  0  0
   -4.6630   21.8720  -32.4050 C   0  0  0  0  0  0  0  0  0  0  0  0
   -5.2800   20.7120  -31.8510 O   0  0  0  0  0  0  0  0  0  0  0  0
   -6.6400   20.3690  -31.9660 C   0  0  0  0  0  0  0  0  0  0  0  0
   -7.6600   21.3370  -31.8850 C   0  0  0  0  0  0  0  0  0  0  0  0
   -8.9970   20.9670  -32.0430 C   0  0  0  0  0  0  0  0  0  0  0  0
   -9.3310   19.6380  -32.3060 C   0  0  0  0  0  0  0  0  0  0  0  0
   -8.3280   18.6720  -32.3940 C   0  0  0  0  0  0  0  0  0  0  0  0
   -6.9810   19.0190  -32.2100 C   0  0  0  0  0  0  0  0  0  0  0  0
   -5.9060   17.9390  -32.2600 C   0  0  0  0  0  0  0  0  0  0  0  0
   -5.5440   17.4710  -33.6400 N   0  0  0  0  0  0  0  0  0  0  0  0
   -4.1250   17.0510  -33.7400 C   0  0  0  0  0  0  0  0  0  0  0  0
   -5.7600   18.5900  -34.5930 C   0  0  0  0  0  0  0  0  0  0  0  0
   -6.4090   16.3370  -34.0450 C   0  0  0  0  0  0  0  0  0  0  0  0
   -3.3340   22.7140  -27.8440 C   0  0  0  0  0  0  0  0  0  0  0  0
   -4.2020   23.4520  -28.8390 C   0  0  0  0  0  0  0  0  0  0  0  0
   -5.5290   23.0320  -29.0550 C   0  0  0  0  0  0  0  0  0  0  0  0
   -6.3310   23.6760  -29.9980 C   0  0  0  0  0  0  0  0  0  0  0  0
   -5.8220   24.7490  -30.7340 C   0  0  0  0  0  0  0  0  0  0  0  0
   -4.5180   25.1970  -30.5120 C   0  0  0  0  0  0  0  0  0  0  0  0
   -3.6960   24.5600  -29.5590 C   0  0  0  0  0  0  0  0  0  0  0  0
   -2.3850   25.0030  -29.3050 O   0  0  0  0  0  0  0  0  0  0  0  0
   -1.8550   25.2710  -28.0120 C   0  0  0  0  0  0  0  0  0  0  0  0
   -1.8554   19.8524  -25.6834 H   0  0  0  0  0  0  0  0  0  0  0  0
   -2.8204   18.9840  -26.9249 H   0  0  0  0  0  0  0  0  0  0  0  0
   -1.0291   18.8511  -26.9249 H   0  0  0  0  0  0  0  0  0  0  0  0
   -1.2922   21.5560  -27.1040 H   0  0  0  0  0  0  0  0  0  0  0  0
   -1.2358   20.4079  -28.5489 H   0  0  0  0  0  0  0  0  0  0  0  0
   -3.8220   20.7800  -27.6180 H   0  0  0  0  0  0  0  0  0  0  0  0
   -4.0115   20.0443  -29.6244 H   0  0  0  0  0  0  0  0  0  0  0  0
   -3.9101   21.8113  -30.0362 H   0  0  0  0  0  0  0  0  0  0  0  0
   -1.5741   21.6549  -30.5513 H   0  0  0  0  0  0  0  0  0  0  0  0
   -1.4923   19.9661  -29.8707 H   0  0  0  0  0  0  0  0  0  0  0  0
   -3.3510   19.7410  -31.7360 H   0  0  0  0  0  0  0  0  0  0  0  0
   -1.8197   22.0031  -32.5295 H   0  0  0  0  0  0  0  0  0  0  0  0
   -1.7303   20.5820  -33.6823 H   0  0  0  0  0  0  0  0  0  0  0  0
   -3.5356   22.2875  -34.1929 H   0  0  0  0  0  0  0  0  0  0  0  0
   -4.0730   20.5684  -34.0039 H   0  0  0  0  0  0  0  0  0  0  0  0
   -4.1312   22.4184  -31.6121 H   0  0  0  0  0  0  0  0  0  0  0  0
   -5.4335   22.5220  -32.8452 H   0  0  0  0  0  0  0  0  0  0  0  0
   -7.4020   22.3895  -31.6964 H   0  0  0  0  0  0  0  0  0  0  0  0
   -9.7894   21.7254  -31.9599 H   0  0  0  0  0  0  0  0  0  0  0  0
  -10.3842   19.3521  -32.4439 H   0  0  0  0  0  0  0  0  0  0  0  0
   -8.5962   17.6273  -32.6099 H   0  0  0  0  0  0  0  0  0  0  0  0
   -4.9977   18.3387  -31.7855 H   0  0  0  0  0  0  0  0  0  0  0  0
   -6.3219   17.0652  -31.7370 H   0  0  0  0  0  0  0  0  0  0  0  0
   -3.7072   16.9273  -32.7300 H   0  0  0  0  0  0  0  0  0  0  0  0
   -4.0626   16.0959  -34.2821 H   0  0  0  0  0  0  0  0  0  0  0  0
   -3.5528   17.8183  -34.2821 H   0  0  0  0  0  0  0  0  0  0  0  0
   -5.9394   19.5194  -34.0326 H   0  0  0  0  0  0  0  0  0  0  0  0
   -4.8684   18.7098  -35.2260 H   0  0  0  0  0  0  0  0  0  0  0  0
   -6.6321   18.3693  -35.2260 H   0  0  0  0  0  0  0  0  0  0  0  0
   -6.7947   15.8313  -33.1475 H   0  0  0  0  0  0  0  0  0  0  0  0
   -7.2511   16.7139  -34.6440 H   0  0  0  0  0  0  0  0  0  0  0  0
   -5.8229   15.6245  -34.6440 H   0  0  0  0  0  0  0  0  0  0  0  0
   -3.8245   22.7607  -26.8605 H   0  0  0  0  0  0  0  0  0  0  0  0
   -2.3517   23.2088  -27.8616 H   0  0  0  0  0  0  0  0  0  0  0  0
   -5.9362   22.1900  -28.4760 H   0  0  0  0  0  0  0  0  0  0  0  0
   -7.3650   23.3385  -30.1621 H   0  0  0  0  0  0  0  0  0  0  0  0
   -6.4501   25.2423  -31.4904 H   0  0  0  0  0  0  0  0  0  0  0  0
   -4.1293   26.0523  -31.0841 H   0  0  0  0  0  0  0  0  0  0  0  0
   -2.5594   24.9148  -27.2459 H   0  0  0  0  0  0  0  0  0  0  0  0
   -0.8926   24.7512  -27.8952 H   0  0  0  0  0  0  0  0  0  0  0  0
   -1.7032   26.3542  -27.8952 H   0  0  0  0  0  0  0  0  0  0  0  0
  1  2  1  0
  2  3  1  0
  3  4  1  0
  4  5  1  0
  5  6  1  0
  6  7  1  0
  7  8  1  0
  8  9  1  0
  9 10  1  0
 10 11  1  0
 11 12  2  0
 12 13  1  0
 13 14  2  0
 14 15  1  0
 15 16  2  0
 16 17  1  0
 17 18  1  0
 18 19  1  0
 18 20  1  0
 18 21  1  0
  3 22  1  0
 22 23  1  0
 23 24  2  0
 24 25  1  0
 25 26  2  0
 26 27  1  0
 27 28  2  0
 28 29  1  0
 29 30  1  0
 16 11  1  0
 28 23  1  0
  1 31  1  0
  1 32  1  0
  1 33  1  0
  2 34  1  0
  2 35  1  0
  3 36  1  1
  4 37  1  0
  4 38  1  0
  5 39  1  0
  5 40  1  0
  6 41  1  0
  7 42  1  0
  7 43  1  0
  8 44  1  0
  8 45  1  0
  9 46  1  0
  9 47  1  0
 12 48  1  0
 13 49  1  0
 14 50  1  0
 15 51  1  0
 17 52  1  0
 17 53  1  0
 19 54  1  0
 19 55  1  0
 19 56  1  0
 20 57  1  0
 20 58  1  0
 20 59  1  0
 21 60  1  0
 21 61  1  0
 21 62  1  0
 22 63  1  0
 22 64  1  0
 24 65  1  0
 25 66  1  0
 26 67  1  0
 27 68  1  0
 30 69  1  0
 30 70  1  0
 30 71  1  0
M  CHG  2   3   1  18   1
M  END
>  <UniqueID>  (43) 
41

>  <SMILES>  (43) 
CC[N@H+](CCNCCCOc1ccccc1C[N+](C)(C)C)Cc1ccccc1OC

>  <Energy>  (43) 
91.69947857272311

>  <Genealogy>  (43) 
CC[NH+](CCNCCCOc1ccccc1C[N+](C)(C)C)Cc1ccccc1OC (protonated)
CC[N@H+](CCNCCCOc1ccccc1C[N+](C)(C)C)Cc1ccccc1OC (chirality)
CC[N@H+](CCNCCCOc1ccccc1C[N+](C)(C)C)Cc1ccccc1OC (3D coordinates assigned)
CC[N@H+](CCNCCCOc1ccccc1C[N+](C)(C)C)Cc1ccccc1OC (optimized conformer: 91.69947857272311 kcal/mol)

>  <smiles>  (43) 
CCN(CCNCCCOc1ccccc1C[N+](C)(C)C)Cc1ccccc1OC

>  <score_type>  (43) 
oracle

>  <origin>  (43) 
adg

>  <m_score__min__energy>  (43) 
-6.0599999999999996

>  <m_primary>  (43) 
energy

$$$$
43:0
     RDKit          3D

 35 36  0  0  0  0  0  0  0  0999 V2000
   -8.1690   18.4200  -32.7050 C   0  0  0  0  0  0  0  0  0  0  0  0
   -6.9860   19.3440  -32.7740 C   0  0  0  0  0  0  0  0  0  0  0  0
   -6.8470   20.3980  -31.8620 C   0  0  0  0  0  0  0  0  0  0  0  0
   -5.7780   21.2500  -31.9290 N   0  0  0  0  0  0  0  0  0  0  0  0
   -5.6850   22.3520  -30.9500 C   0  0  2  0  0  0  0  0  0  0  0  0
   -7.0420   22.6670  -30.3450 C   0  0  0  0  0  0  0  0  0  0  0  0
   -6.9250   24.1270  -30.0310 C   0  0  0  0  0  0  0  0  0  0  0  0
   -5.8960   24.6170  -31.0490 C   0  0  1  0  0  0  0  0  0  0  0  0
   -4.9380   25.6750  -30.4820 C   0  0  0  0  0  0  0  0  0  0  0  0
   -3.5500   25.2230  -30.5620 N   0  0  0  0  0  0  0  0  0  0  0  0
   -2.8520   24.5610  -29.5020 C   0  0  0  0  0  0  0  0  0  0  0  0
   -2.3380   25.2210  -28.5590 O   0  0  0  0  0  0  0  0  0  0  0  0
   -2.7660   23.0690  -29.4990 C   0  0  0  0  0  0  0  0  0  0  0  0
   -2.7150   22.5900  -30.8150 O   0  0  0  0  0  0  0  0  0  0  0  0
   -5.1660   23.5170  -31.5520 O   0  0  0  0  0  0  0  0  0  0  0  0
   -4.8500   21.0890  -32.9290 C   0  0  0  0  0  0  0  0  0  0  0  0
   -3.8720   21.8760  -33.0370 O   0  0  0  0  0  0  0  0  0  0  0  0
   -4.9800   20.0800  -33.8280 N   0  0  0  0  0  0  0  0  0  0  0  0
   -6.0180   19.2100  -33.7750 C   0  0  0  0  0  0  0  0  0  0  0  0
   -6.1010   18.2910  -34.6330 O   0  0  0  0  0  0  0  0  0  0  0  0
   -8.4201   18.2238  -31.6522 H   0  0  0  0  0  0  0  0  0  0  0  0
   -9.0293   18.8877  -33.2062 H   0  0  0  0  0  0  0  0  0  0  0  0
   -7.9236   17.4721  -33.2062 H   0  0  0  0  0  0  0  0  0  0  0  0
   -7.6078   20.5430  -31.0809 H   0  0  0  0  0  0  0  0  0  0  0  0
   -5.0053   22.0201  -30.1514 H   0  0  0  0  0  0  0  0  0  0  0  0
   -7.8519   22.4788  -31.0652 H   0  0  0  0  0  0  0  0  0  0  0  0
   -7.2864   22.0480  -29.4692 H   0  0  0  0  0  0  0  0  0  0  0  0
   -7.8893   24.6388  -30.1661 H   0  0  0  0  0  0  0  0  0  0  0  0
   -6.6315   24.3239  -28.9893 H   0  0  0  0  0  0  0  0  0  0  0  0
   -6.4540   25.1072  -31.8604 H   0  0  0  0  0  0  0  0  0  0  0  0
   -5.0471   26.6050  -31.0592 H   0  0  0  0  0  0  0  0  0  0  0  0
   -5.1903   25.8451  -29.4249 H   0  0  0  0  0  0  0  0  0  0  0  0
   -1.8578   22.7574  -28.9623 H   0  0  0  0  0  0  0  0  0  0  0  0
   -3.6546   22.6567  -28.9985 H   0  0  0  0  0  0  0  0  0  0  0  0
   -3.3180   23.1670  -31.3500 H   0  0  0  0  0  0  0  0  0  0  0  0
  1  2  1  0
  2  3  2  0
  3  4  1  0
  4  5  1  0
  5  6  1  0
  6  7  1  0
  7  8  1  0
  8  9  1  0
  9 10  1  0
 10 11  1  0
 11 12  2  0
 11 13  1  0
 13 14  1  0
  8 15  1  0
  4 16  1  0
 16 17  2  0
 16 18  1  0
 18 19  1  0
 19 20  2  0
 19  2  1  0
 15  5  1  0
  1 21  1  0
  1 22  1  0
  1 23  1  0
  3 24  1  0
  5 25  1  1
  6 26  1  0
  6 27  1  0
  7 28  1  0
  7 29  1  0
  8 30  1  6
  9 31  1  0
  9 32  1  0
 13 33  1  0
 13 34  1  0
 14 35  1  0
M  CHG  2  10  -1  18  -1
M  END
>  <UniqueID>  (44) 
42

>  <SMILES>  (44) 
Cc1cn([C@@H]2CC[C@@H](C[N-]C(=O)CO)O2)c(=O)[n-]c1=O

>  <Energy>  (44) 
35.14547217073808

>  <Genealogy>  (44) 
Cc1cn(C2CCC(C[N-]C(=O)CO)O2)c(=O)[n-]c1=O (protonated)
Cc1cn([C@@H]2CC[C@@H](C[N-]C(=O)CO)O2)c(=O)[n-]c1=O (chirality)
Cc1cn([C@@H]2CC[C@@H](C[N-]C(=O)CO)O2)c(=O)[n-]c1=O (3D coordinates assigned)
Cc1cn([C@@H]2CC[C@@H](C[N-]C(=O)CO)O2)c(=O)[n-]c1=O (nonaromatic ring conformer: 35.14547217073808 kcal/mol)

>  <smiles>  (44) 
Cc1cn(C2CCC(CNC(=O)CO)O2)c(=O)[nH]c1=O

>  <score_type>  (44) 
oracle

>  <origin>  (44) 
adg

>  <m_score__min__energy>  (44) 
-8.4000000000000004

>  <m_primary>  (44) 
energy

$$$$
44:0
     RDKit          3D

 38 41  0  0  1  0  0  0  0  0999 V2000
   -2.9190   24.4600  -27.6990 C   0  0  0  0  0  0  0  0  0  0  0  0
   -2.7440   24.7580  -29.0730 O   0  0  0  0  0  0  0  0  0  0  0  0
   -3.7790   24.5720  -29.9780 C   0  0  0  0  0  0  0  0  0  0  0  0
   -4.8640   25.3130  -30.2160 N   0  0  0  0  0  0  0  0  0  0  0  0
   -5.5950   24.7490  -31.1860 N   0  0  0  0  0  0  0  0  0  0  0  0
   -4.9790   23.6120  -31.5930 C   0  0  0  0  0  0  0  0  0  0  0  0
   -5.2810   22.6790  -32.5250 N   0  0  0  0  0  0  0  0  0  0  0  0
   -4.4510   21.6370  -32.7040 C   0  0  0  0  0  0  0  0  0  0  0  0
   -4.7190   20.7280  -33.5910 N   0  0  0  0  0  0  0  0  0  0  0  0
   -5.3330   19.4920  -33.2430 C   0  0  0  0  0  0  0  0  0  0  0  0
   -4.6130   18.3040  -33.3220 C   0  0  0  0  0  0  0  0  0  0  0  0
   -5.1470   17.0860  -33.0020 C   0  0  0  0  0  0  0  0  0  0  0  0
   -6.4600   17.0460  -32.5820 C   0  0  0  0  0  0  0  0  0  0  0  0
   -7.1920   18.2180  -32.4970 C   0  0  0  0  0  0  0  0  0  0  0  0
   -8.5160   18.1790  -32.0740 C   0  0  0  0  0  0  0  0  0  0  0  0
   -9.2800   19.3020  -31.9720 C   0  0  0  0  0  0  0  0  0  0  0  0
   -8.7260   20.5320  -32.3000 C   0  0  0  0  0  0  0  0  0  0  0  0
   -7.4090   20.6200  -32.7270 C   0  0  0  0  0  0  0  0  0  0  0  0
   -6.6620   19.4550  -32.8180 C   0  0  0  0  0  0  0  0  0  0  0  0
   -3.3170   21.4600  -32.0000 N   0  0  0  0  0  0  0  0  0  0  0  0
   -3.0170   22.3880  -31.0740 C   0  0  0  0  0  0  0  0  0  0  0  0
   -1.7780   22.2340  -30.2740 C   0  0  0  0  0  0  0  0  0  0  0  0
   -3.8210   23.4810  -30.8380 C   0  0  0  0  0  0  0  0  0  0  0  0
   -2.4550   25.2502  -27.0904 H   0  0  0  0  0  0  0  0  0  0  0  0
   -3.9934   24.4040  -27.4699 H   0  0  0  0  0  0  0  0  0  0  0  0
   -2.4445   23.4944  -27.4699 H   0  0  0  0  0  0  0  0  0  0  0  0
   -5.0730   26.2050  -29.6940 H   0  0  0  0  0  0  0  0  0  0  0  0
   -6.1490   22.7670  -33.1000 H   0  0  0  0  0  0  0  0  0  0  0  0
   -3.5662   18.3462  -33.6572 H   0  0  0  0  0  0  0  0  0  0  0  0
   -4.5476   16.1667  -33.0773 H   0  0  0  0  0  0  0  0  0  0  0  0
   -6.9245   16.0852  -32.3152 H   0  0  0  0  0  0  0  0  0  0  0  0
   -8.9617   17.2079  -31.8128 H   0  0  0  0  0  0  0  0  0  0  0  0
  -10.3245   19.2351  -31.6335 H   0  0  0  0  0  0  0  0  0  0  0  0
   -9.3361   21.4439  -32.2207 H   0  0  0  0  0  0  0  0  0  0  0  0
   -6.9667   21.5928  -32.9878 H   0  0  0  0  0  0  0  0  0  0  0  0
   -2.0269   22.2649  -29.2030 H   0  0  0  0  0  0  0  0  0  0  0  0
   -1.3048   21.2701  -30.5128 H   0  0  0  0  0  0  0  0  0  0  0  0
   -1.0832   23.0527  -30.5128 H   0  0  0  0  0  0  0  0  0  0  0  0
  1  2  1  0
  2  3  1  0
  3  4  1  0
  4  5  1  0
  5  6  2  0
  6  7  1  0
  7  8  1  0
  8  9  2  0
  9 10  1  0
 10 11  2  0
 11 12  1  0
 12 13  2  0
 13 14  1  0
 14 15  2  0
 15 16  1  0
 16 17  2  0
 17 18  1  0
 18 19  2  0
  8 20  1  0
 20 21  2  0
 21 22  1  0
 21 23  1  0
 23  3  2  0
 23  6  1  0
 19 10  1  0
 19 14  1  0
  1 24  1  0
  1 25  1  0
  1 26  1  0
  4 27  1  0
  7 28  1  0
 11 29  1  0
 12 30  1  0
 13 31  1  0
 15 32  1  0
 16 33  1  0
 17 34  1  0
 18 35  1  0
 22 36  1  0
 22 37  1  0
 22 38  1  0
M  END
>  <smiles>  (45) 
COc1[nH]nc2[nH]c(=Nc3cccc4ccccc34)nc(C)c12

>  <score_type>  (45) 
oracle

>  <origin>  (45) 
adg

>  <m_score__min__energy>  (45) 
-8.9700000000000006

>  <m_primary>  (45) 
energy

$$$$
45:0
     RDKit          3D

 52 54  0  0  0  0  0  0  0  0999 V2000
   -3.7910   24.1760  -28.2820 C   0  0  0  0  0  0  0  0  0  0  0  0
   -2.8470   24.5730  -29.4100 C   0  0  0  0  0  0  0  0  0  0  0  0
   -3.5790   25.2980  -30.4460 N   0  0  0  0  0  0  0  0  0  0  0  0
   -5.0010   25.3070  -30.6350 C   0  0  0  0  0  0  0  0  0  0  0  0
   -5.6590   26.2740  -30.1660 O   0  0  0  0  0  0  0  0  0  0  0  0
   -5.7250   24.1970  -31.3710 C   0  0  2  0  0  0  0  0  0  0  0  0
   -7.2170   24.1440  -30.9910 C   0  0  0  0  0  0  0  0  0  0  0  0
   -7.9730   23.0410  -31.7730 C   0  0  0  0  0  0  0  0  0  0  0  0
   -7.0780   21.9660  -32.2730 N   0  0  2  0  0  0  0  0  0  0  0  0
   -7.8300   20.7680  -32.5970 C   0  0  0  0  0  0  0  0  0  0  0  0
   -9.0940   20.8030  -32.6070 O   0  0  0  0  0  0  0  0  0  0  0  0
   -7.1520   19.4740  -32.8760 C   0  0  0  0  0  0  0  0  0  0  0  0
   -7.8580   18.2740  -32.7140 C   0  0  0  0  0  0  0  0  0  0  0  0
   -7.2400   17.0550  -32.9720 C   0  0  0  0  0  0  0  0  0  0  0  0
   -5.9090   17.0100  -33.3850 C   0  0  0  0  0  0  0  0  0  0  0  0
   -5.1530   18.1960  -33.5400 C   0  0  0  0  0  0  0  0  0  0  0  0
   -3.7540   18.1530  -33.9620 N   0  0  0  0  0  0  0  0  0  0  0  0
   -2.8730   19.3020  -33.6620 C   0  0  0  0  0  0  0  0  0  0  0  0
   -1.4550   19.1510  -34.2220 C   0  0  0  0  0  0  0  0  0  0  0  0
   -1.0070   17.8220  -34.1080 O   0  0  0  0  0  0  0  0  0  0  0  0
   -1.7520   17.0270  -35.0000 C   0  0  0  0  0  0  0  0  0  0  0  0
   -3.2080   16.9080  -34.5460 C   0  0  0  0  0  0  0  0  0  0  0  0
   -5.8020   19.4260  -33.2750 C   0  0  0  0  0  0  0  0  0  0  0  0
   -6.0190   21.6440  -31.2960 C   0  0  0  0  0  0  0  0  0  0  0  0
   -5.0490   22.8310  -31.1180 C   0  0  0  0  0  0  0  0  0  0  0  0
   -3.3104   24.3781  -27.3134 H   0  0  0  0  0  0  0  0  0  0  0  0
   -4.7203   24.7595  -28.3591 H   0  0  0  0  0  0  0  0  0  0  0  0
   -4.0239   23.1037  -28.3591 H   0  0  0  0  0  0  0  0  0  0  0  0
   -2.0511   25.2174  -29.0084 H   0  0  0  0  0  0  0  0  0  0  0  0
   -2.4079   23.6647  -29.8483 H   0  0  0  0  0  0  0  0  0  0  0  0
   -5.6610   24.4206  -32.4461 H   0  0  0  0  0  0  0  0  0  0  0  0
   -7.3026   23.9385  -29.9138 H   0  0  0  0  0  0  0  0  0  0  0  0
   -7.6687   25.1138  -31.2466 H   0  0  0  0  0  0  0  0  0  0  0  0
   -8.7233   22.5906  -31.1065 H   0  0  0  0  0  0  0  0  0  0  0  0
   -8.4356   23.5179  -32.6497 H   0  0  0  0  0  0  0  0  0  0  0  0
   -6.6310   22.3260  -33.1490 H   0  0  0  0  0  0  0  0  0  0  0  0
   -8.9062   18.2965  -32.3811 H   0  0  0  0  0  0  0  0  0  0  0  0
   -7.8055   16.1195  -32.8493 H   0  0  0  0  0  0  0  0  0  0  0  0
   -5.4394   16.0374  -33.5936 H   0  0  0  0  0  0  0  0  0  0  0  0
   -3.3231   20.2075  -34.0949 H   0  0  0  0  0  0  0  0  0  0  0  0
   -2.7826   19.3616  -32.5673 H   0  0  0  0  0  0  0  0  0  0  0  0
   -1.4544   19.4411  -35.2831 H   0  0  0  0  0  0  0  0  0  0  0  0
   -0.7793   19.7995  -33.6450 H   0  0  0  0  0  0  0  0  0  0  0  0
   -1.7235   17.4853  -35.9996 H   0  0  0  0  0  0  0  0  0  0  0  0
   -1.3098   16.0201  -35.0240 H   0  0  0  0  0  0  0  0  0  0  0  0
   -3.8219   16.6350  -35.4170 H   0  0  0  0  0  0  0  0  0  0  0  0
   -3.2361   16.1436  -33.7555 H   0  0  0  0  0  0  0  0  0  0  0  0
   -5.2395   20.3651  -33.3831 H   0  0  0  0  0  0  0  0  0  0  0  0
   -6.4833   21.4108  -30.3265 H   0  0  0  0  0  0  0  0  0  0  0  0
   -5.4497   20.7800  -31.6693 H   0  0  0  0  0  0  0  0  0  0  0  0
   -4.6599   22.8162  -30.0892 H   0  0  0  0  0  0  0  0  0  0  0  0
   -4.2443   22.7163  -31.8592 H   0  0  0  0  0  0  0  0  0  0  0  0
  1  2  1  0
  2  3  1  0
  3  4  1  0
  4  5  2  0
  4  6  1  0
  6  7  1  0
  7  8  1  0
  8  9  1  0
  9 10  1  0
 10 11  2  0
 10 12  1  0
 12 13  2  0
 13 14  1  0
 14 15  2  0
 15 16  1  0
 16 17  1  0
 17 18  1  0
 18 19  1  0
 19 20  1  0
 20 21  1  0
 21 22  1  0
 16 23  2  0
  9 24  1  0
 24 25  1  0
 25  6  1  0
 23 12  1  0
 22 17  1  0
  1 26  1  0
  1 27  1  0
  1 28  1  0
  2 29  1  0
  2 30  1  0
  6 31  1  6
  7 32  1  0
  7 33  1  0
  8 34  1  0
  8 35  1  0
  9 36  1  6
 13 37  1  0
 14 38  1  0
 15 39  1  0
 18 40  1  0
 18 41  1  0
 19 42  1  0
 19 43  1  0
 21 44  1  0
 21 45  1  0
 22 46  1  0
 22 47  1  0
 23 48  1  0
 24 49  1  0
 24 50  1  0
 25 51  1  0
 25 52  1  0
M  CHG  2   3  -1   9   1
M  END
>  <UniqueID>  (46) 
43

>  <SMILES>  (46) 
CC[N-]C(=O)C1CC[NH+](C(=O)c2cccc(N3CCOCC3)c2)CC1

>  <Energy>  (46) 
68.79972868900354

>  <Genealogy>  (46) 
CC[N-]C(=O)C1CC[NH+](C(=O)c2cccc(N3CCOCC3)c2)CC1 (protonated)
CC[N-]C(=O)C1CC[NH+](C(=O)c2cccc(N3CCOCC3)c2)CC1 (3D coordinates assigned)
CC[N-]C(=O)C1CC[NH+](C(=O)c2cccc(N3CCOCC3)c2)CC1 (nonaromatic ring conformer: 68.79972868900354 kcal/mol)

>  <smiles>  (46) 
CCNC(=O)C1CCN(C(=O)c2cccc(N3CCOCC3)c2)CC1

>  <score_type>  (46) 
oracle

>  <origin>  (46) 
adg

>  <m_score__min__energy>  (46) 
-9.8800000000000008

>  <m_primary>  (46) 
energy

$$$$
46:0
     RDKit          3D

 45 47  0  0  0  0  0  0  0  0999 V2000
   -6.9496   16.0795  -32.2774 H   0  0  0  0  0  0  0  0  0  0  0  0
   -6.1360   16.7720  -32.5390 C   0  0  0  0  0  0  0  0  0  0  0  0
   -5.2060   16.4170  -33.5140 C   0  0  0  0  0  0  0  0  0  0  0  0
   -5.2961   15.4514  -34.0332 H   0  0  0  0  0  0  0  0  0  0  0  0
   -4.1600   17.2850  -33.8330 C   0  0  0  0  0  0  0  0  0  0  0  0
   -3.4348   16.9990  -34.6091 H   0  0  0  0  0  0  0  0  0  0  0  0
   -4.0210   18.5240  -33.1730 C   0  0  0  0  0  0  0  0  0  0  0  0
   -2.8690   19.4350  -33.5450 C   0  0  0  0  0  0  0  0  0  0  0  0
   -2.1620   18.8770  -34.5930 F   0  0  0  0  0  0  0  0  0  0  0  0
   -2.0020   19.6080  -32.4790 F   0  0  0  0  0  0  0  0  0  0  0  0
   -3.3270   20.6870  -33.9140 F   0  0  0  0  0  0  0  0  0  0  0  0
   -5.0070   18.8990  -32.2200 C   0  0  0  0  0  0  0  0  0  0  0  0
   -4.9770   20.4820  -31.3520 S   0  0  0  0  0  0  0  0  0  0  0  0
   -5.9030   21.4400  -32.6090 C   0  0  1  0  0  0  0  0  0  0  0  0
   -5.2451   21.6425  -33.4670 H   0  0  0  0  0  0  0  0  0  0  0  0
   -7.0950   20.6610  -33.1120 C   0  0  0  0  0  0  0  0  0  0  0  0
   -7.0260   20.0480  -34.1660 O   0  0  0  0  0  0  0  0  0  0  0  0
   -8.3590   20.6120  -32.3010 C   0  0  0  0  0  0  0  0  0  0  0  0
   -9.1583   20.1461  -32.8961 H   0  0  0  0  0  0  0  0  0  0  0  0
   -8.1866   20.0201  -31.3900 H   0  0  0  0  0  0  0  0  0  0  0  0
   -8.7740   22.0330  -31.9140 C   0  0  0  0  0  0  0  0  0  0  0  0
   -9.0221   22.5956  -32.8261 H   0  0  0  0  0  0  0  0  0  0  0  0
   -9.6467   21.9721  -31.2472 H   0  0  0  0  0  0  0  0  0  0  0  0
   -7.6450   22.7560  -31.1720 C   0  0  0  0  0  0  0  0  0  0  0  0
   -7.9460   23.7980  -30.9886 H   0  0  0  0  0  0  0  0  0  0  0  0
   -7.4613   22.2321  -30.2224 H   0  0  0  0  0  0  0  0  0  0  0  0
   -6.3670   22.7470  -31.9780 C   0  0  0  0  0  0  0  0  0  0  0  0
   -5.6270   23.8080  -31.9490 N   0  0  0  0  0  0  0  0  0  0  0  0
   -5.8460   24.9580  -31.0960 C   0  0  0  0  0  0  0  0  0  0  0  0
   -5.7144   25.8782  -31.6842 H   0  0  0  0  0  0  0  0  0  0  0  0
   -6.8677   24.9175  -30.6905 H   0  0  0  0  0  0  0  0  0  0  0  0
   -4.8450   24.9490  -29.9380 C   0  0  2  0  0  0  0  0  0  0  0  0
   -5.0546   25.8360  -29.3221 H   0  0  0  0  0  0  0  0  0  0  0  0
   -3.5290   24.9900  -30.4480 O   0  0  0  0  0  0  0  0  0  0  0  0
   -2.7580   24.0570  -29.7250 C   0  0  0  0  0  0  0  0  0  0  0  0
   -1.8731   24.5592  -29.3070 H   0  0  0  0  0  0  0  0  0  0  0  0
   -2.4390   23.2476  -30.3981 H   0  0  0  0  0  0  0  0  0  0  0  0
   -3.5870   23.4760  -28.5980 C   0  0  0  0  0  0  0  0  0  0  0  0
   -3.3847   23.9956  -27.6498 H   0  0  0  0  0  0  0  0  0  0  0  0
   -3.3707   22.4153  -28.4030 H   0  0  0  0  0  0  0  0  0  0  0  0
   -4.9900   23.7170  -29.0540 C   0  0  0  0  0  0  0  0  0  0  0  0
   -5.6560   23.9161  -28.2015 H   0  0  0  0  0  0  0  0  0  0  0  0
   -5.4353   22.8557  -29.5735 H   0  0  0  0  0  0  0  0  0  0  0  0
   -6.0360   18.0040  -31.8950 C   0  0  0  0  0  0  0  0  0  0  0  0
   -6.7717   18.2768  -31.1241 H   0  0  0  0  0  0  0  0  0  0  0  0
  1  2  1  0
  2  3  2  0
  3  4  1  0
  3  5  1  0
  5  6  1  0
  5  7  2  0
  7  8  1  0
  8  9  1  0
  8 10  1  0
  8 11  1  0
  7 12  1  0
 12 13  1  0
 13 14  1  0
 14 15  1  6
 14 16  1  0
 16 17  2  0
 16 18  1  0
 18 19  1  0
 18 20  1  0
 18 21  1  0
 21 22  1  0
 21 23  1  0
 21 24  1  0
 24 25  1  0
 24 26  1  0
 24 27  1  0
 27 28  2  0
 28 29  1  0
 29 30  1  0
 29 31  1  0
 29 32  1  0
 32 33  1  1
 32 34  1  0
 34 35  1  0
 35 36  1  0
 35 37  1  0
 35 38  1  0
 38 39  1  0
 38 40  1  0
 38 41  1  0
 41 42  1  0
 41 43  1  0
 12 44  2  0
 44 45  1  0
 44  2  1  0
 27 14  1  0
 41 32  1  0
M  END
>  <UniqueID>  (47) 
44

>  <SMILES>  (47) 
O=C1CCC/C(=N/C[C@H]2CCCO2)[C@H]1Sc1ccccc1C(F)(F)F

>  <Energy>  (47) 
39.57111787902108

>  <Genealogy>  (47) 
O=C1CCCC(=NC[C@H]2CCCO2)[C@H]1Sc1ccccc1C(F)(F)F (chirality)
O=C1CCC/C(=N/C[C@H]2CCCO2)[C@H]1Sc1ccccc1C(F)(F)F (cis-trans isomerization)
O=C1CCC/C(=N/C[C@H]2CCCO2)[C@H]1Sc1ccccc1C(F)(F)F (3D coordinates assigned)
O=C1CCC/C(=N/C[C@H]2CCCO2)[C@H]1Sc1ccccc1C(F)(F)F (nonaromatic ring conformer: 39.57111787902108 kcal/mol)

>  <smiles>  (47) 
O=C1CCCC(=NCC2CCCO2)C1Sc1ccccc1C(F)(F)F

>  <score_type>  (47) 
oracle

>  <origin>  (47) 
adg

>  <m_score__min__energy>  (47) 
-8.4800000000000004

>  <m_primary>  (47) 
energy

$$$$
47:0
     RDKit          3D

 37 38  0  0  0  0  0  0  0  0999 V2000
   -2.3750   25.5150  -26.4140 C   0  0  0  0  0  0  0  0  0  0  0  0
   -1.5980   26.0790  -27.5320 N   0  0  0  0  0  0  0  0  0  0  0  0
   -0.7750   27.1960  -27.0410 C   0  0  0  0  0  0  0  0  0  0  0  0
   -0.7400   25.0480  -28.1580 C   0  0  0  0  0  0  0  0  0  0  0  0
   -1.4700   24.3420  -29.3080 C   0  0  0  0  0  0  0  0  0  0  0  0
   -2.7950   24.9250  -29.5380 N   0  0  0  0  0  0  0  0  0  0  0  0
   -3.9160   24.1650  -30.0280 C   0  0  0  0  0  0  0  0  0  0  0  0
   -5.1580   24.7930  -30.1920 C   0  0  0  0  0  0  0  0  0  0  0  0
   -6.2550   24.0730  -30.6650 C   0  0  0  0  0  0  0  0  0  0  0  0
   -6.1120   22.7090  -30.9730 C   0  0  0  0  0  0  0  0  0  0  0  0
   -7.2480   21.8990  -31.4840 C   0  0  0  0  0  0  0  0  0  0  0  0
   -6.9960   20.7050  -32.1870 C   0  0  0  0  0  0  0  0  0  0  0  0
   -8.0540   19.9280  -32.6690 C   0  0  0  0  0  0  0  0  0  0  0  0
   -9.3740   20.3260  -32.4490 C   0  0  0  0  0  0  0  0  0  0  0  0
   -9.6390   21.5010  -31.7420 C   0  0  0  0  0  0  0  0  0  0  0  0
   -8.5860   22.2840  -31.2600 C   0  0  0  0  0  0  0  0  0  0  0  0
   -4.8930   22.1230  -30.8160 N   0  0  0  0  0  0  0  0  0  0  0  0
   -3.8090   22.8040  -30.3580 C   0  0  0  0  0  0  0  0  0  0  0  0
   -1.9316   25.8369  -25.4602 H   0  0  0  0  0  0  0  0  0  0  0  0
   -3.4143   25.8704  -26.4737 H   0  0  0  0  0  0  0  0  0  0  0  0
   -2.3591   24.4167  -26.4737 H   0  0  0  0  0  0  0  0  0  0  0  0
   -0.7752   27.1957  -25.9410 H   0  0  0  0  0  0  0  0  0  0  0  0
    0.2557   27.0808  -27.4075 H   0  0  0  0  0  0  0  0  0  0  0  0
   -1.1904   28.1463  -27.4075 H   0  0  0  0  0  0  0  0  0  0  0  0
    0.1688   25.5276  -28.5506 H   0  0  0  0  0  0  0  0  0  0  0  0
   -0.4841   24.2978  -27.3953 H   0  0  0  0  0  0  0  0  0  0  0  0
   -0.8715   24.4402  -30.2257 H   0  0  0  0  0  0  0  0  0  0  0  0
   -1.5995   23.2835  -29.0380 H   0  0  0  0  0  0  0  0  0  0  0  0
   -2.9400   25.9420  -29.3410 H   0  0  0  0  0  0  0  0  0  0  0  0
   -5.2684   25.8595  -29.9464 H   0  0  0  0  0  0  0  0  0  0  0  0
   -7.2274   24.5702  -30.7964 H   0  0  0  0  0  0  0  0  0  0  0  0
   -5.9588   20.3811  -32.3583 H   0  0  0  0  0  0  0  0  0  0  0  0
   -7.8457   19.0008  -33.2229 H   0  0  0  0  0  0  0  0  0  0  0  0
  -10.2045   19.7148  -32.8321 H   0  0  0  0  0  0  0  0  0  0  0  0
  -10.6792   21.8112  -31.5639 H   0  0  0  0  0  0  0  0  0  0  0  0
   -8.8026   23.2069  -30.7021 H   0  0  0  0  0  0  0  0  0  0  0  0
   -2.8446   22.2871  -30.2455 H   0  0  0  0  0  0  0  0  0  0  0  0
  1  2  1  0
  2  3  1  0
  2  4  1  0
  4  5  1  0
  5  6  1  0
  6  7  1  0
  7  8  2  0
  8  9  1  0
  9 10  2  0
 10 11  1  0
 11 12  2  0
 12 13  1  0
 13 14  2  0
 14 15  1  0
 15 16  2  0
 10 17  1  0
 17 18  2  0
 18  7  1  0
 16 11  1  0
  1 19  1  0
  1 20  1  0
  1 21  1  0
  3 22  1  0
  3 23  1  0
  3 24  1  0
  4 25  1  0
  4 26  1  0
  5 27  1  0
  5 28  1  0
  6 29  1  0
  8 30  1  0
  9 31  1  0
 12 32  1  0
 13 33  1  0
 14 34  1  0
 15 35  1  0
 16 36  1  0
 18 37  1  0
M  END
>  <UniqueID>  (48) 
45

>  <SMILES>  (48) 
CN(C)CCNc1ccc(-c2ccccc2)nc1

>  <Energy>  (48) 
40.07304814021755

>  <Genealogy>  (48) 
CN(C)CCNc1ccc(-c2ccccc2)nc1 (3D coordinates assigned)
CN(C)CCNc1ccc(-c2ccccc2)nc1 (optimized conformer: 40.07304814021755 kcal/mol)

>  <smiles>  (48) 
CN(C)CCNc1ccc(-c2ccccc2)nc1

>  <score_type>  (48) 
oracle

>  <origin>  (48) 
adg

>  <m_score__min__energy>  (48) 
-6.5899999999999999

>  <m_primary>  (48) 
energy

$$$$
48:0
     RDKit          3D

 49 51  0  0  0  0  0  0  0  0999 V2000
   -2.0950   25.0620  -28.3300 C   0  0  0  0  0  0  0  0  0  0  0  0
   -2.4590   24.9180  -29.6970 O   0  0  0  0  0  0  0  0  0  0  0  0
   -3.5880   24.2020  -30.1110 C   0  0  0  0  0  0  0  0  0  0  0  0
   -4.5620   24.8140  -30.8390 N   0  0  0  0  0  0  0  0  0  0  0  0
   -5.6680   24.1540  -31.2690 C   0  0  0  0  0  0  0  0  0  0  0  0
   -5.8390   22.7930  -30.9760 C   0  0  0  0  0  0  0  0  0  0  0  0
   -7.0360   22.0600  -31.4530 C   0  0  0  0  0  0  0  0  0  0  0  0
   -8.3170   22.6150  -31.2750 C   0  0  0  0  0  0  0  0  0  0  0  0
   -9.4530   21.9300  -31.7160 C   0  0  0  0  0  0  0  0  0  0  0  0
   -9.3230   20.6890  -32.3430 C   0  0  0  0  0  0  0  0  0  0  0  0
   -8.0570   20.1310  -32.5330 C   0  0  0  0  0  0  0  0  0  0  0  0
   -6.9150   20.8100  -32.0930 C   0  0  0  0  0  0  0  0  0  0  0  0
   -5.6950   20.2620  -32.3270 F   0  0  0  0  0  0  0  0  0  0  0  0
   -4.8540   22.1460  -30.2150 C   0  0  0  0  0  0  0  0  0  0  0  0
   -3.7210   22.8430  -29.7750 C   0  0  0  0  0  0  0  0  0  0  0  0
   -2.6440   22.1220  -28.9950 C   0  0  0  0  0  0  0  0  0  0  0  0
   -1.2950   22.4330  -29.4930 N   0  0  0  0  0  0  0  0  0  0  0  0
   -0.5320   21.2170  -29.8060 C   0  0  0  0  0  0  0  0  0  0  0  0
   -1.1190   20.5390  -31.0470 C   0  0  0  0  0  0  0  0  0  0  0  0
   -1.4080   21.5520  -32.0890 N   0  0  0  0  0  0  0  0  0  0  0  0
   -0.4880   21.4470  -33.2370 C   0  0  0  0  0  0  0  0  0  0  0  0
   -0.7650   20.1790  -34.0790 C   0  0  0  0  0  0  0  0  0  0  0  0
   -2.0310   19.5990  -33.8120 O   0  0  0  0  0  0  0  0  0  0  0  0
   -3.0230   20.6020  -33.7680 C   0  0  0  0  0  0  0  0  0  0  0  0
   -2.8200   21.5140  -32.5400 C   0  0  0  0  0  0  0  0  0  0  0  0
   -2.9282   24.7324  -27.6920 H   0  0  0  0  0  0  0  0  0  0  0  0
   -1.2072   24.4474  -28.1203 H   0  0  0  0  0  0  0  0  0  0  0  0
   -1.8680   26.1177  -28.1203 H   0  0  0  0  0  0  0  0  0  0  0  0
   -6.4335   24.6892  -31.8499 H   0  0  0  0  0  0  0  0  0  0  0  0
   -8.4250   23.5942  -30.7857 H   0  0  0  0  0  0  0  0  0  0  0  0
  -10.4507   22.3692  -31.5689 H   0  0  0  0  0  0  0  0  0  0  0  0
  -10.2183   20.1507  -32.6874 H   0  0  0  0  0  0  0  0  0  0  0  0
   -7.9570   19.1548  -33.0300 H   0  0  0  0  0  0  0  0  0  0  0  0
   -4.9722   21.0822  -29.9615 H   0  0  0  0  0  0  0  0  0  0  0  0
   -2.7099   22.4227  -27.9390 H   0  0  0  0  0  0  0  0  0  0  0  0
   -2.8071   21.0407  -29.1141 H   0  0  0  0  0  0  0  0  0  0  0  0
   -1.3760   23.0150  -30.3600 H   0  0  0  0  0  0  0  0  0  0  0  0
    0.5176   21.4843  -29.9984 H   0  0  0  0  0  0  0  0  0  0  0  0
   -0.5888   20.5241  -28.9535 H   0  0  0  0  0  0  0  0  0  0  0  0
   -0.3960   19.8088  -31.4395 H   0  0  0  0  0  0  0  0  0  0  0  0
   -2.0532   20.0279  -30.7713 H   0  0  0  0  0  0  0  0  0  0  0  0
   -0.6130   22.3335  -33.8761 H   0  0  0  0  0  0  0  0  0  0  0  0
    0.5390   21.3826  -32.8483 H   0  0  0  0  0  0  0  0  0  0  0  0
   -0.7218   20.4499  -35.1442 H   0  0  0  0  0  0  0  0  0  0  0  0
   -0.0005   19.4346  -33.8117 H   0  0  0  0  0  0  0  0  0  0  0  0
   -2.9635   21.2095  -34.6831 H   0  0  0  0  0  0  0  0  0  0  0  0
   -4.0097   20.1215  -33.6933 H   0  0  0  0  0  0  0  0  0  0  0  0
   -3.1341   22.5349  -32.8029 H   0  0  0  0  0  0  0  0  0  0  0  0
   -3.4234   21.1051  -31.7162 H   0  0  0  0  0  0  0  0  0  0  0  0
  1  2  1  0
  2  3  1  0
  3  4  2  0
  4  5  1  0
  5  6  2  0
  6  7  1  0
  7  8  2  0
  8  9  1  0
  9 10  2  0
 10 11  1  0
 11 12  2  0
 12 13  1  0
  6 14  1  0
 14 15  2  0
 15 16  1  0
 16 17  1  0
 17 18  1  0
 18 19  1  0
 19 20  1  0
 20 21  1  0
 21 22  1  0
 22 23  1  0
 23 24  1  0
 24 25  1  0
 15  3  1  0
 25 20  1  0
 12  7  1  0
  1 26  1  0
  1 27  1  0
  1 28  1  0
  5 29  1  0
  8 30  1  0
  9 31  1  0
 10 32  1  0
 11 33  1  0
 14 34  1  0
 16 35  1  0
 16 36  1  0
 17 37  1  0
 18 38  1  0
 18 39  1  0
 19 40  1  0
 19 41  1  0
 21 42  1  0
 21 43  1  0
 22 44  1  0
 22 45  1  0
 24 46  1  0
 24 47  1  0
 25 48  1  0
 25 49  1  0
M  END
>  <UniqueID>  (49) 
46

>  <SMILES>  (49) 
COc1ncc(-c2ccccc2F)cc1CNCCN1CCOCC1

>  <Energy>  (49) 
64.74058084059911

>  <Genealogy>  (49) 
COc1ncc(-c2ccccc2F)cc1CNCCN1CCOCC1 (3D coordinates assigned)
COc1ncc(-c2ccccc2F)cc1CNCCN1CCOCC1 (nonaromatic ring conformer: 64.74058084059911 kcal/mol)

>  <smiles>  (49) 
COc1ncc(-c2ccccc2F)cc1CNCCN1CCOCC1

>  <score_type>  (49) 
oracle

>  <origin>  (49) 
adg

>  <m_score__min__energy>  (49) 
-8.5199999999999996

>  <m_primary>  (49) 
energy

$$$$
49:0
     RDKit          3D

 46 48  0  0  0  0  0  0  0  0999 V2000
   -8.8610   18.5380  -31.7780 C   0  0  0  0  0  0  0  0  0  0  0  0
   -7.4910   18.7970  -32.3300 C   0  0  0  0  0  0  0  0  0  0  0  0
   -6.3860   18.0840  -31.8420 C   0  0  0  0  0  0  0  0  0  0  0  0
   -5.1040   18.3510  -32.3300 C   0  0  0  0  0  0  0  0  0  0  0  0
   -4.9080   19.3380  -33.3100 C   0  0  0  0  0  0  0  0  0  0  0  0
   -3.5310   19.6270  -33.8450 C   0  0  0  0  0  0  0  0  0  0  0  0
   -3.1020   20.9750  -33.4680 N   0  0  0  0  0  0  0  0  0  0  0  0
   -3.2630   21.5380  -32.1480 C   0  0  0  0  0  0  0  0  0  0  0  0
   -2.3430   21.2700  -31.1250 C   0  0  0  0  0  0  0  0  0  0  0  0
   -2.5190   21.8290  -29.8660 C   0  0  0  0  0  0  0  0  0  0  0  0
   -3.6140   22.6530  -29.6250 C   0  0  0  0  0  0  0  0  0  0  0  0
   -4.5250   22.9250  -30.6120 N   0  0  0  0  0  0  0  0  0  0  0  0
   -5.6730   23.8140  -30.3080 C   0  0  1  0  0  0  0  0  0  0  0  0
   -5.4240   25.2310  -30.8500 C   0  0  0  0  0  0  0  0  0  0  0  0
   -6.9780   23.1820  -30.7740 C   0  0  0  0  0  0  0  0  0  0  0  0
   -7.6320   23.7330  -31.8900 C   0  0  0  0  0  0  0  0  0  0  0  0
   -8.8520   23.2130  -32.3300 C   0  0  0  0  0  0  0  0  0  0  0  0
   -9.4420   22.1440  -31.6530 C   0  0  0  0  0  0  0  0  0  0  0  0
   -8.8150   21.5970  -30.5320 C   0  0  0  0  0  0  0  0  0  0  0  0
   -7.5940   22.1140  -30.0880 C   0  0  0  0  0  0  0  0  0  0  0  0
   -4.3650   22.3730  -31.8650 C   0  0  0  0  0  0  0  0  0  0  0  0
   -5.2000   22.6160  -32.7790 O   0  0  0  0  0  0  0  0  0  0  0  0
   -6.0120   20.0690  -33.7770 C   0  0  0  0  0  0  0  0  0  0  0  0
   -7.2940   19.8020  -33.2880 C   0  0  0  0  0  0  0  0  0  0  0  0
   -8.8209   18.5456  -30.6788 H   0  0  0  0  0  0  0  0  0  0  0  0
   -9.5504   19.3217  -32.1252 H   0  0  0  0  0  0  0  0  0  0  0  0
   -9.2167   17.5567  -32.1252 H   0  0  0  0  0  0  0  0  0  0  0  0
   -6.5291   17.3115  -31.0720 H   0  0  0  0  0  0  0  0  0  0  0  0
   -4.2433   17.7849  -31.9444 H   0  0  0  0  0  0  0  0  0  0  0  0
   -2.8221   18.8939  -33.4326 H   0  0  0  0  0  0  0  0  0  0  0  0
   -3.5562   19.5578  -34.9425 H   0  0  0  0  0  0  0  0  0  0  0  0
   -2.5920   21.5240  -34.1960 H   0  0  0  0  0  0  0  0  0  0  0  0
   -1.4803   20.6159  -31.3197 H   0  0  0  0  0  0  0  0  0  0  0  0
   -1.7963   21.6214  -29.0632 H   0  0  0  0  0  0  0  0  0  0  0  0
   -3.7506   23.0932  -28.6262 H   0  0  0  0  0  0  0  0  0  0  0  0
   -5.7726   23.9308  -29.2188 H   0  0  0  0  0  0  0  0  0  0  0  0
   -5.3013   25.9290  -30.0088 H   0  0  0  0  0  0  0  0  0  0  0  0
   -4.5117   25.2335  -31.4645 H   0  0  0  0  0  0  0  0  0  0  0  0
   -6.2808   25.5443  -31.4645 H   0  0  0  0  0  0  0  0  0  0  0  0
   -7.1786   24.5822  -32.4222 H   0  0  0  0  0  0  0  0  0  0  0  0
   -9.3482   23.6464  -33.2109 H   0  0  0  0  0  0  0  0  0  0  0  0
  -10.4005   21.7329  -32.0027 H   0  0  0  0  0  0  0  0  0  0  0  0
   -9.2825   20.7574  -29.9968 H   0  0  0  0  0  0  0  0  0  0  0  0
   -7.1105   21.6852  -29.1979 H   0  0  0  0  0  0  0  0  0  0  0  0
   -5.8673   20.8560  -34.5317 H   0  0  0  0  0  0  0  0  0  0  0  0
   -8.1524   20.3829  -33.6564 H   0  0  0  0  0  0  0  0  0  0  0  0
  1  2  1  0
  2  3  2  0
  3  4  1  0
  4  5  2  0
  5  6  1  0
  6  7  1  0
  7  8  1  0
  8  9  2  0
  9 10  1  0
 10 11  2  0
 11 12  1  0
 12 13  1  0
 13 14  1  0
 13 15  1  0
 15 16  2  0
 16 17  1  0
 17 18  2  0
 18 19  1  0
 19 20  2  0
 12 21  1  0
 21 22  2  0
  5 23  1  0
 23 24  2  0
 24  2  1  0
 21  8  1  0
 20 15  1  0
  1 25  1  0
  1 26  1  0
  1 27  1  0
  3 28  1  0
  4 29  1  0
  6 30  1  0
  6 31  1  0
  7 32  1  0
  9 33  1  0
 10 34  1  0
 11 35  1  0
 13 36  1  1
 14 37  1  0
 14 38  1  0
 14 39  1  0
 16 40  1  0
 17 41  1  0
 18 42  1  0
 19 43  1  0
 20 44  1  0
 23 45  1  0
 24 46  1  0
M  END
>  <UniqueID>  (50) 
47

>  <SMILES>  (50) 
Cc1ccc(CNc2cccn([C@@H](C)c3ccccc3)c2=O)cc1

>  <Energy>  (50) 
52.42599594096371

>  <Genealogy>  (50) 
Cc1ccc(CNc2cccn([C@@H](C)c3ccccc3)c2=O)cc1 (chirality)
Cc1ccc(CNc2cccn([C@@H](C)c3ccccc3)c2=O)cc1 (3D coordinates assigned)
Cc1ccc(CNc2cccn([C@@H](C)c3ccccc3)c2=O)cc1 (optimized conformer: 52.42599594096371 kcal/mol)

>  <smiles>  (50) 
Cc1ccc(CNc2cccn(C(C)c3ccccc3)c2=O)cc1

>  <score_type>  (50) 
oracle

>  <origin>  (50) 
adg

>  <m_score__min__energy>  (50) 
-8.2599999999999998

>  <m_primary>  (50) 
energy

$$$$
