0:0
     RDKit          3D

 43 45  0  0  0  0  0  0  0  0999 V2000
   -8.5580   21.0570  -32.1510 C   0  0  0  0  0  0  0  0  0  0  0  0
   -7.3830   21.8450  -31.6350 C   0  0  0  0  0  0  0  0  0  0  0  0
   -7.6440   22.9690  -30.8330 C   0  0  0  0  0  0  0  0  0  0  0  0
   -6.6110   23.8010  -30.4060 C   0  0  0  0  0  0  0  0  0  0  0  0
   -5.2880   23.5380  -30.7770 C   0  0  0  0  0  0  0  0  0  0  0  0
   -4.2030   24.4700  -30.3850 C   0  0  0  0  0  0  0  0  0  0  0  0
   -4.1850   25.6370  -30.8610 O   0  0  0  0  0  0  0  0  0  0  0  0
   -3.1300   24.0640  -29.5250 N   0  0  0  0  0  0  0  0  0  0  0  0
   -2.9130   24.5410  -28.1920 C   0  0  0  0  0  0  0  0  0  0  0  0
   -1.6640   25.0630  -27.8430 C   0  0  0  0  0  0  0  0  0  0  0  0
   -1.4440   25.5480  -26.5530 C   0  0  0  0  0  0  0  0  0  0  0  0
   -2.4880   25.5250  -25.6270 C   0  0  0  0  0  0  0  0  0  0  0  0
   -3.7080   25.0400  -25.9850 N   0  0  0  0  0  0  0  0  0  0  0  0
   -3.9390   24.5490  -27.2340 C   0  0  0  0  0  0  0  0  0  0  0  0
   -5.0160   22.4190  -31.5800 C   0  0  0  0  0  0  0  0  0  0  0  0
   -6.0410   21.5520  -32.0010 C   0  0  0  0  0  0  0  0  0  0  0  0
   -5.5740   20.1680  -33.0280 S   0  0  0  0  0  0  0  0  0  0  0  0
   -4.1930   20.4360  -33.5580 O   0  0  0  0  0  0  0  0  0  0  0  0
   -6.4840   20.0570  -34.2180 O   0  0  0  0  0  0  0  0  0  0  0  0
   -5.5300   18.6360  -32.1700 N   0  0  0  0  0  0  0  0  0  0  0  0
   -5.2500   17.5100  -33.0640 C   0  0  0  0  0  0  0  0  0  0  0  0
   -6.5790   16.9080  -33.4940 C   0  0  0  0  0  0  0  0  0  0  0  0
   -7.5970   17.4270  -32.4970 C   0  0  0  0  0  0  0  0  0  0  0  0
   -6.8190   18.3280  -31.5470 C   0  0  0  0  0  0  0  0  0  0  0  0
   -9.1392   20.6672  -31.3023 H   0  0  0  0  0  0  0  0  0  0  0  0
   -9.1968   21.7100  -32.7638 H   0  0  0  0  0  0  0  0  0  0  0  0
   -8.1963   20.2182  -32.7638 H   0  0  0  0  0  0  0  0  0  0  0  0
   -8.6792   23.1954  -30.5379 H   0  0  0  0  0  0  0  0  0  0  0  0
   -6.8375   24.6712  -29.7724 H   0  0  0  0  0  0  0  0  0  0  0  0
   -0.8535   25.0915  -28.5862 H   0  0  0  0  0  0  0  0  0  0  0  0
   -0.4580   25.9443  -26.2690 H   0  0  0  0  0  0  0  0  0  0  0  0
   -2.3243   25.8996  -24.6058 H   0  0  0  0  0  0  0  0  0  0  0  0
   -4.4830   25.0420  -25.2860 H   0  0  0  0  0  0  0  0  0  0  0  0
   -4.9336   24.1571  -27.4932 H   0  0  0  0  0  0  0  0  0  0  0  0
   -3.9793   22.2157  -31.8866 H   0  0  0  0  0  0  0  0  0  0  0  0
   -4.6973   17.8632  -33.9470 H   0  0  0  0  0  0  0  0  0  0  0  0
   -4.6385   16.7555  -32.5475 H   0  0  0  0  0  0  0  0  0  0  0  0
   -6.8373   17.2332  -34.5126 H   0  0  0  0  0  0  0  0  0  0  0  0
   -6.5446   15.8086  -33.5091 H   0  0  0  0  0  0  0  0  0  0  0  0
   -8.3818   17.9998  -33.0128 H   0  0  0  0  0  0  0  0  0  0  0  0
   -8.0965   16.6063  -31.9614 H   0  0  0  0  0  0  0  0  0  0  0  0
   -7.3800   19.2576  -31.3706 H   0  0  0  0  0  0  0  0  0  0  0  0
   -6.6662   17.8240  -30.5813 H   0  0  0  0  0  0  0  0  0  0  0  0
  1  2  1  0
  2  3  2  0
  3  4  1  0
  4  5  2  0
  5  6  1  0
  6  7  2  0
  6  8  1  0
  8  9  1  0
  9 10  2  0
 10 11  1  0
 11 12  2  0
 12 13  1  0
 13 14  2  0
  5 15  1  0
 15 16  2  0
 16 17  1  0
 17 18  2  0
 17 19  2  0
 17 20  1  0
 20 21  1  0
 21 22  1  0
 22 23  1  0
 23 24  1  0
 16  2  1  0
 24 20  1  0
 14  9  1  0
  1 25  1  0
  1 26  1  0
  1 27  1  0
  3 28  1  0
  4 29  1  0
 10 30  1  0
 11 31  1  0
 12 32  1  0
 13 33  1  0
 14 34  1  0
 15 35  1  0
 21 36  1  0
 21 37  1  0
 22 38  1  0
 22 39  1  0
 23 40  1  0
 23 41  1  0
 24 42  1  0
 24 43  1  0
M  CHG  2   8  -1  13   1
M  END
>  <UniqueID>  (1) 
1

>  <SMILES>  (1) 
Cc1ccc(C(=O)[N-]c2ccc[nH+]c2)cc1S(=O)(=O)N1CCCC1

>  <Energy>  (1) 
53.19339560281231

>  <Genealogy>  (1) 
Cc1ccc(C(=O)[N-]c2ccc[nH+]c2)cc1S(=O)(=O)N1CCCC1 (protonated)
Cc1ccc(C(=O)[N-]c2ccc[nH+]c2)cc1S(=O)(=O)N1CCCC1 (3D coordinates assigned)
Cc1ccc(C(=O)[N-]c2ccc[nH+]c2)cc1S(=O)(=O)N1CCCC1 (nonaromatic ring conformer: 53.19339560281231 kcal/mol)

>  <smiles>  (1) 
Cc1ccc(C(=O)Nc2cccnc2)cc1S(=O)(=O)N1CCCC1

>  <score_type>  (1) 
oracle

>  <origin>  (1) 
adg

>  <m_score__min__energy>  (1) 
-9.7400000000000002

>  <m_primary>  (1) 
energy

$$$$
1:0
     RDKit          3D

 41 42  0  0  0  0  0  0  0  0999 V2000
   -7.6870   19.7610  -32.7440 C   0  0  0  0  0  0  0  0  0  0  0  0
   -7.0910   21.0190  -32.1660 C   0  0  0  0  0  0  0  0  0  0  0  0
   -5.7150   21.2540  -32.3040 C   0  0  0  0  0  0  0  0  0  0  0  0
   -5.1220   22.4210  -31.7990 C   0  0  0  0  0  0  0  0  0  0  0  0
   -3.6370   22.6130  -31.9710 C   0  0  0  0  0  0  0  0  0  0  0  0
   -5.9240   23.3660  -31.1160 C   0  0  0  0  0  0  0  0  0  0  0  0
   -5.2440   24.8610  -30.4460 S   0  0  0  0  0  0  0  0  0  0  0  0
   -5.7440   25.0120  -29.0370 O   0  0  0  0  0  0  0  0  0  0  0  0
   -5.7350   26.0520  -31.2200 O   0  0  0  0  0  0  0  0  0  0  0  0
   -3.4960   24.8710  -30.4100 N   0  0  0  0  0  0  0  0  0  0  0  0
   -2.8340   24.4630  -29.1570 C   0  0  0  0  0  0  0  0  0  0  0  0
   -2.9310   22.9510  -28.8910 C   0  0  0  0  0  0  0  0  0  0  0  0
   -2.5530   22.6200  -27.4300 C   0  0  0  0  0  0  0  0  0  0  0  0
   -1.5380   23.6100  -26.8180 C   0  0  0  0  0  0  0  0  0  0  0  0
   -0.6100   24.2150  -27.8800 C   0  0  0  0  0  0  0  0  0  0  0  0
   -1.3850   24.9850  -28.9720 C   0  0  0  0  0  0  0  0  0  0  0  0
   -7.3000   23.1290  -30.9770 C   0  0  0  0  0  0  0  0  0  0  0  0
   -7.8960   21.9760  -31.5090 C   0  0  0  0  0  0  0  0  0  0  0  0
   -9.3790   21.7690  -31.3430 C   0  0  0  0  0  0  0  0  0  0  0  0
   -8.0023   19.0956  -31.9268 H   0  0  0  0  0  0  0  0  0  0  0  0
   -8.5585   20.0192  -33.3635 H   0  0  0  0  0  0  0  0  0  0  0  0
   -6.9352   19.2501  -33.3635 H   0  0  0  0  0  0  0  0  0  0  0  0
   -5.0892   20.5094  -32.8178 H   0  0  0  0  0  0  0  0  0  0  0  0
   -3.1584   22.6749  -30.9825 H   0  0  0  0  0  0  0  0  0  0  0  0
   -3.2193   21.7614  -32.5280 H   0  0  0  0  0  0  0  0  0  0  0  0
   -3.4496   23.5429  -32.5280 H   0  0  0  0  0  0  0  0  0  0  0  0
   -3.4210   24.9772  -28.3817 H   0  0  0  0  0  0  0  0  0  0  0  0
   -3.9622   22.6180  -29.0799 H   0  0  0  0  0  0  0  0  0  0  0  0
   -2.2294   22.4319  -29.5605 H   0  0  0  0  0  0  0  0  0  0  0  0
   -3.4685   22.6385  -26.8205 H   0  0  0  0  0  0  0  0  0  0  0  0
   -2.0760   21.6288  -27.4353 H   0  0  0  0  0  0  0  0  0  0  0  0
   -2.0895   24.4234  -26.3239 H   0  0  0  0  0  0  0  0  0  0  0  0
   -0.9155   23.0564  -26.0997 H   0  0  0  0  0  0  0  0  0  0  0  0
    0.0866   24.9084  -27.3862 H   0  0  0  0  0  0  0  0  0  0  0  0
   -0.0766   23.3867  -28.3693 H   0  0  0  0  0  0  0  0  0  0  0  0
   -1.4268   26.0477  -28.6911 H   0  0  0  0  0  0  0  0  0  0  0  0
   -0.8540   24.8370  -29.9239 H   0  0  0  0  0  0  0  0  0  0  0  0
   -7.9226   23.8606  -30.4412 H   0  0  0  0  0  0  0  0  0  0  0  0
   -9.6268   21.7344  -30.2718 H   0  0  0  0  0  0  0  0  0  0  0  0
   -9.9207   22.6002  -31.8180 H   0  0  0  0  0  0  0  0  0  0  0  0
   -9.6724   20.8212  -31.8180 H   0  0  0  0  0  0  0  0  0  0  0  0
  1  2  1  0
  2  3  2  0
  3  4  1  0
  4  5  1  0
  4  6  2  0
  6  7  1  0
  7  8  2  0
  7  9  2  0
  7 10  1  0
 10 11  1  0
 11 12  1  0
 12 13  1  0
 13 14  1  0
 14 15  1  0
 15 16  1  0
  6 17  1  0
 17 18  2  0
 18 19  1  0
 18  2  1  0
 16 11  1  0
  1 20  1  0
  1 21  1  0
  1 22  1  0
  3 23  1  0
  5 24  1  0
  5 25  1  0
  5 26  1  0
 11 27  1  0
 12 28  1  0
 12 29  1  0
 13 30  1  0
 13 31  1  0
 14 32  1  0
 14 33  1  0
 15 34  1  0
 15 35  1  0
 16 36  1  0
 16 37  1  0
 17 38  1  0
 19 39  1  0
 19 40  1  0
 19 41  1  0
M  CHG  1  10  -1
M  END
>  <UniqueID>  (2) 
2

>  <SMILES>  (2) 
Cc1cc(C)c(S(=O)(=O)[N-]C2CCCCC2)cc1C

>  <Energy>  (2) 
49.366232034088014

>  <Genealogy>  (2) 
Cc1cc(C)c(S(=O)(=O)[N-]C2CCCCC2)cc1C (protonated)
Cc1cc(C)c(S(=O)(=O)[N-]C2CCCCC2)cc1C (3D coordinates assigned)
Cc1cc(C)c(S(=O)(=O)[N-]C2CCCCC2)cc1C (nonaromatic ring conformer: 49.366232034088014 kcal/mol)

>  <smiles>  (2) 
Cc1cc(C)c(S(=O)(=O)NC2CCCCC2)cc1C

>  <score_type>  (2) 
oracle

>  <origin>  (2) 
adg

>  <m_score__min__energy>  (2) 
-9.3599999999999994

>  <m_primary>  (2) 
energy

$$$$
2:0
     RDKit          3D

 28 30  0  0  0  0  0  0  0  0999 V2000
   -3.4890   25.2980  -30.4640 O   0  0  0  0  0  0  0  0  0  0  0  0
   -4.6750   24.5970  -30.6530 C   0  0  0  0  0  0  0  0  0  0  0  0
   -5.8890   25.2500  -30.4340 C   0  0  0  0  0  0  0  0  0  0  0  0
   -7.0960   24.5830  -30.6290 C   0  0  0  0  0  0  0  0  0  0  0  0
   -7.1060   23.2430  -31.0380 C   0  0  0  0  0  0  0  0  0  0  0  0
   -8.3260   22.5740  -31.2220 C   0  0  0  0  0  0  0  0  0  0  0  0
   -8.3410   21.2330  -31.6110 C   0  0  0  0  0  0  0  0  0  0  0  0
   -7.1430   20.5490  -31.8140 C   0  0  0  0  0  0  0  0  0  0  0  0
   -5.9200   21.2000  -31.6360 C   0  0  0  0  0  0  0  0  0  0  0  0
   -5.8790   22.5590  -31.2570 C   0  0  0  0  0  0  0  0  0  0  0  0
   -4.6540   23.2520  -31.0700 C   0  0  0  0  0  0  0  0  0  0  0  0
   -3.3450   22.6040  -31.3170 C   0  0  0  0  0  0  0  0  0  0  0  0
   -3.1030   21.9400  -32.5310 C   0  0  0  0  0  0  0  0  0  0  0  0
   -1.8710   21.3200  -32.7590 C   0  0  0  0  0  0  0  0  0  0  0  0
   -0.8760   21.3560  -31.7770 C   0  0  0  0  0  0  0  0  0  0  0  0
   -1.1130   22.0100  -30.5650 C   0  0  0  0  0  0  0  0  0  0  0  0
   -2.3440   22.6310  -30.3320 C   0  0  0  0  0  0  0  0  0  0  0  0
   -5.8925   26.2996  -30.1048 H   0  0  0  0  0  0  0  0  0  0  0  0
   -8.0463   25.1110  -30.4610 H   0  0  0  0  0  0  0  0  0  0  0  0
   -9.2738   23.1080  -31.0592 H   0  0  0  0  0  0  0  0  0  0  0  0
   -9.3002   20.7150  -31.7577 H   0  0  0  0  0  0  0  0  0  0  0  0
   -7.1611   19.4914  -32.1158 H   0  0  0  0  0  0  0  0  0  0  0  0
   -4.9810   20.6489  -31.7925 H   0  0  0  0  0  0  0  0  0  0  0  0
   -3.8848   21.9078  -33.3041 H   0  0  0  0  0  0  0  0  0  0  0  0
   -1.6840   20.8032  -33.7119 H   0  0  0  0  0  0  0  0  0  0  0  0
    0.0936   20.8693  -31.9587 H   0  0  0  0  0  0  0  0  0  0  0  0
   -0.3299   22.0363  -29.7930 H   0  0  0  0  0  0  0  0  0  0  0  0
   -2.5288   23.1417  -29.3754 H   0  0  0  0  0  0  0  0  0  0  0  0
  1  2  1  0
  2  3  2  0
  3  4  1  0
  4  5  2  0
  5  6  1  0
  6  7  2  0
  7  8  1  0
  8  9  2  0
  9 10  1  0
 10 11  2  0
 11 12  1  0
 12 13  2  0
 13 14  1  0
 14 15  2  0
 15 16  1  0
 16 17  2  0
 11  2  1  0
 17 12  1  0
 10  5  1  0
  3 18  1  0
  4 19  1  0
  6 20  1  0
  7 21  1  0
  8 22  1  0
  9 23  1  0
 13 24  1  0
 14 25  1  0
 15 26  1  0
 16 27  1  0
 17 28  1  0
M  CHG  1   1  -1
M  END
>  <UniqueID>  (3) 
3

>  <SMILES>  (3) 
[O-]c1ccc2ccccc2c1-c1ccccc1

>  <Energy>  (3) 
43.73369996385098

>  <Genealogy>  (3) 
[O-]c1ccc2ccccc2c1-c1ccccc1 (protonated)
[O-]c1ccc2ccccc2c1-c1ccccc1 (3D coordinates assigned)
[O-]c1ccc2ccccc2c1-c1ccccc1 (optimized conformer: 43.73369996385098 kcal/mol)

>  <smiles>  (3) 
Oc1ccc2ccccc2c1-c1ccccc1

>  <score_type>  (3) 
oracle

>  <origin>  (3) 
adg

>  <m_score__min__energy>  (3) 
-10.300000000000001

>  <m_primary>  (3) 
energy

$$$$
3:0
     RDKit          3D

 37 39  0  0  0  0  0  0  0  0999 V2000
   -3.7630   17.6570  -34.2050 C   0  0  0  0  0  0  0  0  0  0  0  0
   -4.7570   18.5770  -33.5330 C   0  0  0  0  0  0  0  0  0  0  0  0
   -4.3420   19.9080  -33.3390 C   0  0  0  0  0  0  0  0  0  0  0  0
   -4.9960   21.0170  -32.7620 C   0  0  0  0  0  0  0  0  0  0  0  0
   -4.2050   22.3100  -32.6970 C   0  0  0  0  0  0  0  0  0  0  0  0
   -4.6630   23.1470  -31.5310 C   0  0  0  0  0  0  0  0  0  0  0  0
   -4.0070   23.0560  -30.2920 C   0  0  0  0  0  0  0  0  0  0  0  0
   -4.4120   23.8590  -29.2210 C   0  0  0  0  0  0  0  0  0  0  0  0
   -5.4670   24.7610  -29.3810 C   0  0  0  0  0  0  0  0  0  0  0  0
   -6.1190   24.8640  -30.6140 C   0  0  0  0  0  0  0  0  0  0  0  0
   -5.7180   24.0630  -31.6870 C   0  0  0  0  0  0  0  0  0  0  0  0
   -6.2720   21.0460  -32.1860 C   0  0  0  0  0  0  0  0  0  0  0  0
   -7.1930   20.0090  -32.1190 C   0  0  0  0  0  0  0  0  0  0  0  0
   -8.4610   20.1060  -31.5540 C   0  0  0  0  0  0  0  0  0  0  0  0
   -9.0580   21.3190  -30.9060 C   0  0  0  0  0  0  0  0  0  0  0  0
   -9.1130   18.8960  -31.6960 C   0  0  0  0  0  0  0  0  0  0  0  0
   -8.2760   18.0140  -32.3430 C   0  0  0  0  0  0  0  0  0  0  0  0
   -7.0790   18.6510  -32.6220 C   0  0  0  0  0  0  0  0  0  0  0  0
   -6.0110   18.0260  -33.2440 C   0  0  0  0  0  0  0  0  0  0  0  0
   -3.1837   17.1208  -33.4389 H   0  0  0  0  0  0  0  0  0  0  0  0
   -4.3012   16.9313  -34.8325 H   0  0  0  0  0  0  0  0  0  0  0  0
   -3.0810   18.2496  -34.8325 H   0  0  0  0  0  0  0  0  0  0  0  0
   -3.3260   20.1217  -33.7023 H   0  0  0  0  0  0  0  0  0  0  0  0
   -3.1368   22.0760  -32.5779 H   0  0  0  0  0  0  0  0  0  0  0  0
   -4.3665   22.8746  -33.6271 H   0  0  0  0  0  0  0  0  0  0  0  0
   -3.1723   22.3511  -30.1639 H   0  0  0  0  0  0  0  0  0  0  0  0
   -3.8991   23.7803  -28.2511 H   0  0  0  0  0  0  0  0  0  0  0  0
   -5.7849   25.3904  -28.5368 H   0  0  0  0  0  0  0  0  0  0  0  0
   -6.9481   25.5760  -30.7395 H   0  0  0  0  0  0  0  0  0  0  0  0
   -6.2297   24.1497  -32.6569 H   0  0  0  0  0  0  0  0  0  0  0  0
   -6.5804   22.0005  -31.7345 H   0  0  0  0  0  0  0  0  0  0  0  0
   -9.0061   21.2135  -29.8123 H   0  0  0  0  0  0  0  0  0  0  0  0
   -8.4971   22.2134  -31.2151 H   0  0  0  0  0  0  0  0  0  0  0  0
  -10.1088   21.4202  -31.2151 H   0  0  0  0  0  0  0  0  0  0  0  0
  -10.1330   18.6737  -31.3493 H   0  0  0  0  0  0  0  0  0  0  0  0
   -8.5194   16.9718  -32.5970 H   0  0  0  0  0  0  0  0  0  0  0  0
   -6.1654   16.9792  -33.5446 H   0  0  0  0  0  0  0  0  0  0  0  0
  1  2  1  0
  2  3  2  0
  3  4  1  0
  4  5  1  0
  5  6  1  0
  6  7  2  0
  7  8  1  0
  8  9  2  0
  9 10  1  0
 10 11  2  0
  4 12  2  0
 12 13  1  0
 13 14  2  0
 14 15  1  0
 14 16  1  0
 16 17  2  0
 17 18  1  0
 18 19  2  0
 19  2  1  0
 11  6  1  0
 18 13  1  0
  1 20  1  0
  1 21  1  0
  1 22  1  0
  3 23  1  0
  5 24  1  0
  5 25  1  0
  7 26  1  0
  8 27  1  0
  9 28  1  0
 10 29  1  0
 11 30  1  0
 12 31  1  0
 15 32  1  0
 15 33  1  0
 15 34  1  0
 16 35  1  0
 17 36  1  0
 19 37  1  0
M  END
>  <UniqueID>  (4) 
4

>  <SMILES>  (4) 
Cc1cc(Cc2ccccc2)cc2c(C)ccc-2c1

>  <Energy>  (4) 
74.08217345010384

>  <Genealogy>  (4) 
Cc1cc(Cc2ccccc2)cc2c(C)ccc-2c1 (3D coordinates assigned)
Cc1cc(Cc2ccccc2)cc2c(C)ccc-2c1 (optimized conformer: 74.08217345010384 kcal/mol)

>  <smiles>  (4) 
Cc1cc(Cc2ccccc2)cc2c(C)ccc-2c1

>  <score_type>  (4) 
oracle

>  <origin>  (4) 
adg

>  <m_score__min__energy>  (4) 
-8.0800000000000001

>  <m_primary>  (4) 
energy

$$$$
4:0
     RDKit          3D

 74 78  0  0  0  0  0  0  0  0999 V2000
    0.2570   11.7670  -26.7960 C   0  0  0  0  0  0  0  0  0  0  0  0
    0.9370   12.9410  -26.1550 C   0  0  0  0  0  0  0  0  0  0  0  0
    1.0140   12.9750  -24.8960 O   0  0  0  0  0  0  0  0  0  0  0  0
    1.4990   14.0200  -26.9360 N   0  0  0  0  0  0  0  0  0  0  0  0
    1.9200   15.2500  -26.2440 C   0  0  0  0  0  0  0  0  0  0  0  0
    2.2340   16.3860  -27.2300 C   0  0  0  0  0  0  0  0  0  0  0  0
    1.1870   16.4050  -28.3550 C   0  0  0  0  0  0  0  0  0  0  0  0
    1.3880   17.6110  -29.2480 C   0  0  0  0  0  0  0  0  0  0  0  0
    2.1390   17.5150  -30.2560 O   0  0  0  0  0  0  0  0  0  0  0  0
    0.7630   18.8780  -28.9510 N   0  0  0  0  0  0  0  0  0  0  0  0
    0.7210   19.3690  -27.5600 C   0  0  0  0  0  0  0  0  0  0  0  0
    0.1490   20.7900  -27.4780 C   0  0  0  0  0  0  0  0  0  0  0  0
   -1.1520   20.8710  -28.3110 C   0  0  0  0  0  0  0  0  0  0  0  0
   -1.8520   22.1770  -28.1880 N   0  0  0  0  0  0  0  0  0  0  0  0
   -1.5040   23.1220  -29.2800 C   0  0  0  0  0  0  0  0  0  0  0  0
   -2.5960   24.1650  -29.5310 C   0  0  0  0  0  0  0  0  0  0  0  0
   -3.8590   23.4820  -29.8280 N   0  0  0  0  0  0  0  0  0  0  0  0
   -4.7920   24.0500  -30.7750 C   0  0  0  0  0  0  0  0  0  0  0  0
   -4.6230   25.2300  -31.1990 O   0  0  0  0  0  0  0  0  0  0  0  0
   -5.9710   23.2920  -31.2450 C   0  0  0  0  0  0  0  0  0  0  0  0
   -7.2440   23.8740  -31.1680 C   0  0  0  0  0  0  0  0  0  0  0  0
   -8.3670   23.1690  -31.6000 C   0  0  0  0  0  0  0  0  0  0  0  0
   -8.2310   21.8770  -32.1120 C   0  0  0  0  0  0  0  0  0  0  0  0
   -6.9640   21.2740  -32.2080 C   0  0  0  0  0  0  0  0  0  0  0  0
   -6.8530   19.9030  -32.7730 C   0  0  0  0  0  0  0  0  0  0  0  0
   -7.4550   18.7970  -32.1550 C   0  0  0  0  0  0  0  0  0  0  0  0
   -7.3040   17.5380  -32.7380 C   0  0  0  0  0  0  0  0  0  0  0  0
   -6.6020   17.4010  -33.8950 N   0  0  0  0  0  0  0  0  0  0  0  0
   -6.0540   18.4830  -34.5040 C   0  0  0  0  0  0  0  0  0  0  0  0
   -6.1820   19.7170  -33.9460 N   0  0  0  0  0  0  0  0  0  0  0  0
   -5.8270   22.0030  -31.7930 C   0  0  0  0  0  0  0  0  0  0  0  0
   -4.5790   21.5030  -31.9980 F   0  0  0  0  0  0  0  0  0  0  0  0
   -4.2260   22.3000  -29.0320 C   0  0  0  0  0  0  0  0  0  0  0  0
   -3.2930   22.1120  -27.8250 C   0  0  0  0  0  0  0  0  0  0  0  0
   -0.9150   20.5050  -29.8000 C   0  0  0  0  0  0  0  0  0  0  0  0
    0.4250   19.7890  -30.0550 C   0  0  0  0  0  0  0  0  0  0  0  0
    1.1960   15.0810  -29.1640 C   0  0  0  0  0  0  0  0  0  0  0  0
    1.7710   13.8870  -28.3780 C   0  0  0  0  0  0  0  0  0  0  0  0
   -0.1312   11.0968  -26.0149 H   0  0  0  0  0  0  0  0  0  0  0  0
   -0.5753   12.1220  -27.4215 H   0  0  0  0  0  0  0  0  0  0  0  0
    0.9790   11.2216  -27.4215 H   0  0  0  0  0  0  0  0  0  0  0  0
    1.1108   15.5751  -25.5736 H   0  0  0  0  0  0  0  0  0  0  0  0
    2.8376   15.0258  -25.6803 H   0  0  0  0  0  0  0  0  0  0  0  0
    2.2142   17.3479  -26.6968 H   0  0  0  0  0  0  0  0  0  0  0  0
    3.2310   16.2232  -27.6652 H   0  0  0  0  0  0  0  0  0  0  0  0
    0.1916   16.4889  -27.8945 H   0  0  0  0  0  0  0  0  0  0  0  0
    0.0891   18.6951  -26.9628 H   0  0  0  0  0  0  0  0  0  0  0  0
    1.7501   19.3903  -27.1722 H   0  0  0  0  0  0  0  0  0  0  0  0
   -0.0714   21.0366  -26.4289 H   0  0  0  0  0  0  0  0  0  0  0  0
    0.8843   21.5048  -27.8760 H   0  0  0  0  0  0  0  0  0  0  0  0
   -1.8224   20.1145  -27.8771 H   0  0  0  0  0  0  0  0  0  0  0  0
   -0.5743   23.6443  -29.0101 H   0  0  0  0  0  0  0  0  0  0  0  0
   -1.3883   22.5344  -30.2027 H   0  0  0  0  0  0  0  0  0  0  0  0
   -2.7188   24.7914  -28.6352 H   0  0  0  0  0  0  0  0  0  0  0  0
   -2.3108   24.7995  -30.3831 H   0  0  0  0  0  0  0  0  0  0  0  0
   -7.3576   24.8912  -30.7651 H   0  0  0  0  0  0  0  0  0  0  0  0
   -9.3628   23.6320  -31.5372 H   0  0  0  0  0  0  0  0  0  0  0  0
   -9.1233   21.3256  -32.4434 H   0  0  0  0  0  0  0  0  0  0  0  0
   -8.0351   18.9197  -31.2285 H   0  0  0  0  0  0  0  0  0  0  0  0
   -7.7536   16.6547  -32.2609 H   0  0  0  0  0  0  0  0  0  0  0  0
   -6.4890   16.4570  -34.3210 H   0  0  0  0  0  0  0  0  0  0  0  0
   -5.5057   18.3620  -35.4499 H   0  0  0  0  0  0  0  0  0  0  0  0
   -5.2573   22.4213  -28.6692 H   0  0  0  0  0  0  0  0  0  0  0  0
   -4.1349   21.4127  -29.6758 H   0  0  0  0  0  0  0  0  0  0  0  0
   -3.5056   22.9034  -27.0912 H   0  0  0  0  0  0  0  0  0  0  0  0
   -3.4839   21.1093  -27.4149 H   0  0  0  0  0  0  0  0  0  0  0  0
   -1.7303   19.8441  -30.1294 H   0  0  0  0  0  0  0  0  0  0  0  0
   -0.8876   21.4495  -30.3632 H   0  0  0  0  0  0  0  0  0  0  0  0
    0.3500   19.2099  -30.9872 H   0  0  0  0  0  0  0  0  0  0  0  0
    1.2159   20.5497  -30.1318 H   0  0  0  0  0  0  0  0  0  0  0  0
    0.1620   14.8423  -29.4535 H   0  0  0  0  0  0  0  0  0  0  0  0
    1.8466   15.2385  -30.0369 H   0  0  0  0  0  0  0  0  0  0  0  0
    1.3097   12.9589  -28.7464 H   0  0  0  0  0  0  0  0  0  0  0  0
    2.8606   13.8631  -28.5270 H   0  0  0  0  0  0  0  0  0  0  0  0
  1  2  1  0
  2  3  2  0
  2  4  1  0
  4  5  1  0
  5  6  1  0
  6  7  1  0
  7  8  1  0
  8  9  2  0
  8 10  1  0
 10 11  1  0
 11 12  1  0
 12 13  1  0
 13 14  1  0
 14 15  1  0
 15 16  1  0
 16 17  1  0
 17 18  1  0
 18 19  2  0
 18 20  1  0
 20 21  2  0
 21 22  1  0
 22 23  2  0
 23 24  1  0
 24 25  1  0
 25 26  2  0
 26 27  1  0
 27 28  2  0
 28 29  1  0
 29 30  2  0
 24 31  2  0
 31 32  1  0
 17 33  1  0
 33 34  1  0
 13 35  1  0
 35 36  1  0
  7 37  1  0
 37 38  1  0
 38  4  1  0
 36 10  1  0
 34 14  1  0
 31 20  1  0
 30 25  1  0
  1 39  1  0
  1 40  1  0
  1 41  1  0
  5 42  1  0
  5 43  1  0
  6 44  1  0
  6 45  1  0
  7 46  1  0
 11 47  1  0
 11 48  1  0
 12 49  1  0
 12 50  1  0
 13 51  1  0
 15 52  1  0
 15 53  1  0
 16 54  1  0
 16 55  1  0
 21 56  1  0
 22 57  1  0
 23 58  1  0
 26 59  1  0
 27 60  1  0
 28 61  1  0
 29 62  1  0
 33 63  1  0
 33 64  1  0
 34 65  1  0
 34 66  1  0
 35 67  1  0
 35 68  1  0
 36 69  1  0
 36 70  1  0
 37 71  1  0
 37 72  1  0
 38 73  1  0
 38 74  1  0
M  CHG  1  28   1
M  END
>  <UniqueID>  (5) 
5

>  <SMILES>  (5) 
CC(=O)N1CCC(C(=O)N2CCC(N3CCN(C(=O)c4cccc(-c5cc[nH+]cn5)c4F)CC3)CC2)CC1

>  <Energy>  (5) 
106.27122957796573

>  <Genealogy>  (5) 
CC(=O)N1CCC(C(=O)N2CCC(N3CCN(C(=O)c4cccc(-c5cc[nH+]cn5)c4F)CC3)CC2)CC1 (protonated)
CC(=O)N1CCC(C(=O)N2CCC(N3CCN(C(=O)c4cccc(-c5cc[nH+]cn5)c4F)CC3)CC2)CC1 (3D coordinates assigned)
CC(=O)N1CCC(C(=O)N2CCC(N3CCN(C(=O)c4cccc(-c5cc[nH+]cn5)c4F)CC3)CC2)CC1 (nonaromatic ring conformer: 106.27122957796573 kcal/mol)

>  <smiles>  (5) 
CC(=O)N1CCC(C(=O)N2CCC(N3CCN(C(=O)c4cccc(-c5ccncn5)c4F)CC3)CC2)CC1

>  <score_type>  (5) 
oracle

>  <origin>  (5) 
adg

>  <m_score__min__energy>  (5) 
-9.7300000000000004

>  <m_primary>  (5) 
energy

$$$$
5:0
     RDKit          3D

 29 31  0  0  0  0  0  0  0  0999 V2000
   -2.5660   24.5640  -29.1970 C   0  0  0  0  0  0  0  0  0  0  0  0
   -3.4930   25.1360  -30.1130 O   0  0  0  0  0  0  0  0  0  0  0  0
   -4.7130   24.5470  -30.4790 C   0  0  0  0  0  0  0  0  0  0  0  0
   -5.8980   25.1880  -30.1030 C   0  0  0  0  0  0  0  0  0  0  0  0
   -7.1380   24.6350  -30.4350 C   0  0  0  0  0  0  0  0  0  0  0  0
   -7.2030   23.4400  -31.1520 C   0  0  0  0  0  0  0  0  0  0  0  0
   -6.0260   22.7900  -31.5540 C   0  0  0  0  0  0  0  0  0  0  0  0
   -6.1020   21.5530  -32.2820 N   0  0  0  0  0  0  0  0  0  0  0  0
   -5.2870   21.2070  -33.2750 N   0  0  0  0  0  0  0  0  0  0  0  0
   -5.5900   20.0110  -33.7750 N   0  0  0  0  0  0  0  0  0  0  0  0
   -6.6440   19.5850  -33.0550 C   0  0  0  0  0  0  0  0  0  0  0  0
   -7.3270   18.3770  -33.1480 C   0  0  0  0  0  0  0  0  0  0  0  0
   -8.3740   18.1510  -32.2340 C   0  0  0  0  0  0  0  0  0  0  0  0
   -8.6960   19.1230  -31.2570 C   0  0  0  0  0  0  0  0  0  0  0  0
   -7.9790   20.3340  -31.1880 C   0  0  0  0  0  0  0  0  0  0  0  0
   -6.9650   20.5330  -32.1270 C   0  0  0  0  0  0  0  0  0  0  0  0
   -4.7820   23.3400  -31.2010 C   0  0  0  0  0  0  0  0  0  0  0  0
   -2.8952   24.7671  -28.1673 H   0  0  0  0  0  0  0  0  0  0  0  0
   -2.5148   23.4770  -29.3579 H   0  0  0  0  0  0  0  0  0  0  0  0
   -1.5715   25.0057  -29.3579 H   0  0  0  0  0  0  0  0  0  0  0  0
   -5.8538   26.1334  -29.5424 H   0  0  0  0  0  0  0  0  0  0  0  0
   -8.0648   25.1432  -30.1302 H   0  0  0  0  0  0  0  0  0  0  0  0
   -8.1816   23.0051  -31.4035 H   0  0  0  0  0  0  0  0  0  0  0  0
   -4.5090   21.8020  -33.6370 H   0  0  0  0  0  0  0  0  0  0  0  0
   -7.0595   17.6268  -33.9067 H   0  0  0  0  0  0  0  0  0  0  0  0
   -8.9457   17.2123  -32.2797 H   0  0  0  0  0  0  0  0  0  0  0  0
   -9.5128   18.9315  -30.5456 H   0  0  0  0  0  0  0  0  0  0  0  0
   -8.2089   21.0922  -30.4250 H   0  0  0  0  0  0  0  0  0  0  0  0
   -3.8550   22.8237  -31.4909 H   0  0  0  0  0  0  0  0  0  0  0  0
  1  2  1  0
  2  3  1  0
  3  4  2  0
  4  5  1  0
  5  6  2  0
  6  7  1  0
  7  8  1  0
  8  9  1  0
  9 10  2  0
 10 11  1  0
 11 12  2  0
 12 13  1  0
 13 14  2  0
 14 15  1  0
 15 16  2  0
  7 17  2  0
 17  3  1  0
 16  8  1  0
 16 11  1  0
  1 18  1  0
  1 19  1  0
  1 20  1  0
  4 21  1  0
  5 22  1  0
  6 23  1  0
  9 24  1  0
 12 25  1  0
 13 26  1  0
 14 27  1  0
 15 28  1  0
 17 29  1  0
M  CHG  1   9   1
M  END
>  <UniqueID>  (6) 
6

>  <SMILES>  (6) 
COc1cccc(-n2[nH+]nc3ccccc32)c1

>  <Energy>  (6) 
80.54253926310918

>  <Genealogy>  (6) 
COc1cccc(-n2[nH+]nc3ccccc32)c1 (protonated)
COc1cccc(-n2[nH+]nc3ccccc32)c1 (3D coordinates assigned)
COc1cccc(-n2[nH+]nc3ccccc32)c1 (optimized conformer: 80.54253926310918 kcal/mol)

>  <smiles>  (6) 
COc1cccc(-n2nnc3ccccc32)c1

>  <score_type>  (6) 
oracle

>  <origin>  (6) 
adg

>  <m_score__min__energy>  (6) 
-7.54

>  <m_primary>  (6) 
energy

$$$$
6:0
     RDKit          3D

 37 39  0  0  0  0  0  0  0  0999 V2000
   -1.6080   25.9250  -28.9640 O   0  0  0  0  0  0  0  0  0  0  0  0
   -2.3740   24.9240  -28.9430 C   0  0  0  0  0  0  0  0  0  0  0  0
   -2.5510   24.1530  -27.6740 C   0  0  0  0  0  0  0  0  0  0  0  0
   -2.1580   22.7150  -27.8870 C   0  0  0  0  0  0  0  0  0  0  0  0
   -3.1310   21.6970  -27.8510 C   0  0  0  0  0  0  0  0  0  0  0  0
   -4.4400   21.9970  -27.6520 F   0  0  0  0  0  0  0  0  0  0  0  0
   -2.7560   20.3600  -28.0140 C   0  0  0  0  0  0  0  0  0  0  0  0
   -1.4140   20.0240  -28.2050 C   0  0  0  0  0  0  0  0  0  0  0  0
   -0.4400   21.0250  -28.2270 C   0  0  0  0  0  0  0  0  0  0  0  0
   -0.8050   22.3650  -28.0640 C   0  0  0  0  0  0  0  0  0  0  0  0
    0.1610   23.3200  -28.0730 F   0  0  0  0  0  0  0  0  0  0  0  0
   -3.0750   24.5100  -30.1220 N   0  0  0  0  0  0  0  0  0  0  0  0
   -4.4920   24.3240  -30.2500 C   0  0  0  0  0  0  0  0  0  0  0  0
   -5.4130   25.2660  -29.7600 C   0  0  0  0  0  0  0  0  0  0  0  0
   -6.7850   25.0330  -29.8780 C   0  0  0  0  0  0  0  0  0  0  0  0
   -7.2510   23.8590  -30.4720 C   0  0  0  0  0  0  0  0  0  0  0  0
   -6.3450   22.8940  -30.9480 C   0  0  0  0  0  0  0  0  0  0  0  0
   -6.8380   21.6410  -31.5730 C   0  0  0  0  0  0  0  0  0  0  0  0
   -5.9580   20.7770  -32.2480 C   0  0  0  0  0  0  0  0  0  0  0  0
   -6.4350   19.6010  -32.8300 C   0  0  0  0  0  0  0  0  0  0  0  0
   -7.7930   19.2930  -32.7350 C   0  0  0  0  0  0  0  0  0  0  0  0
   -8.6370   20.1340  -32.0800 N   0  0  0  0  0  0  0  0  0  0  0  0
   -8.1970   21.2850  -31.5060 C   0  0  0  0  0  0  0  0  0  0  0  0
   -4.9640   23.1360  -30.8230 C   0  0  0  0  0  0  0  0  0  0  0  0
   -1.9169   24.5917  -26.8895 H   0  0  0  0  0  0  0  0  0  0  0  0
   -3.6067   24.1977  -27.3682 H   0  0  0  0  0  0  0  0  0  0  0  0
   -3.5209   19.5698  -27.9917 H   0  0  0  0  0  0  0  0  0  0  0  0
   -1.1240   18.9713  -28.3381 H   0  0  0  0  0  0  0  0  0  0  0  0
    0.6172   20.7584  -28.3730 H   0  0  0  0  0  0  0  0  0  0  0  0
   -5.0523   26.1889  -29.2824 H   0  0  0  0  0  0  0  0  0  0  0  0
   -7.5014   25.7779  -29.5012 H   0  0  0  0  0  0  0  0  0  0  0  0
   -8.3332   23.6874  -30.5685 H   0  0  0  0  0  0  0  0  0  0  0  0
   -4.8894   21.0285  -32.3179 H   0  0  0  0  0  0  0  0  0  0  0  0
   -5.7474   18.9240  -33.3581 H   0  0  0  0  0  0  0  0  0  0  0  0
   -8.1805   18.3696  -33.1902 H   0  0  0  0  0  0  0  0  0  0  0  0
   -8.9088   21.9426  -30.9855 H   0  0  0  0  0  0  0  0  0  0  0  0
   -4.2463   22.3827  -31.1798 H   0  0  0  0  0  0  0  0  0  0  0  0
  1  2  2  0
  2  3  1  0
  3  4  1  0
  4  5  2  0
  5  6  1  0
  5  7  1  0
  7  8  2  0
  8  9  1  0
  9 10  2  0
 10 11  1  0
  2 12  1  0
 12 13  1  0
 13 14  2  0
 14 15  1  0
 15 16  2  0
 16 17  1  0
 17 18  1  0
 18 19  2  0
 19 20  1  0
 20 21  2  0
 21 22  1  0
 22 23  2  0
 17 24  2  0
 10  4  1  0
 24 13  1  0
 23 18  1  0
  3 25  1  0
  3 26  1  0
  7 27  1  0
  8 28  1  0
  9 29  1  0
 14 30  1  0
 15 31  1  0
 16 32  1  0
 19 33  1  0
 20 34  1  0
 21 35  1  0
 23 36  1  0
 24 37  1  0
M  CHG  1  12  -1
M  END
>  <UniqueID>  (7) 
7

>  <SMILES>  (7) 
O=C(Cc1c(F)cccc1F)[N-]c1cccc(-c2cccnc2)c1

>  <Energy>  (7) 
48.34276238909146

>  <Genealogy>  (7) 
O=C(Cc1c(F)cccc1F)[N-]c1cccc(-c2cccnc2)c1 (protonated)
O=C(Cc1c(F)cccc1F)[N-]c1cccc(-c2cccnc2)c1 (3D coordinates assigned)
O=C(Cc1c(F)cccc1F)[N-]c1cccc(-c2cccnc2)c1 (optimized conformer: 48.34276238909146 kcal/mol)

>  <smiles>  (7) 
O=C(Cc1c(F)cccc1F)Nc1cccc(-c2cccnc2)c1

>  <score_type>  (7) 
oracle

>  <origin>  (7) 
adg

>  <m_score__min__energy>  (7) 
-9.8200000000000003

>  <m_primary>  (7) 
energy

$$$$
7:0
     RDKit          3D

 41 44  0  0  1  0  0  0  0  0999 V2000
   -3.4760   24.5240  -28.5470 O   0  0  0  0  0  0  0  0  0  0  0  0
   -4.5140   24.4840  -29.2810 C   0  0  0  0  0  0  0  0  0  0  0  0
   -5.7600   24.9310  -28.9730 N   0  0  0  0  0  0  0  0  0  0  0  0
   -6.5760   24.7090  -30.0120 N   0  0  0  0  0  0  0  0  0  0  0  0
   -5.8650   24.1170  -31.0020 C   0  0  0  0  0  0  0  0  0  0  0  0
   -6.3840   23.6970  -32.3330 C   0  0  0  0  0  0  0  0  0  0  0  0
   -7.3570   22.5850  -32.2170 C   0  0  0  0  0  0  0  0  0  0  0  0
   -8.5390   22.8560  -31.5240 C   0  0  0  0  0  0  0  0  0  0  0  0
   -9.5150   21.8940  -31.3560 C   0  0  0  0  0  0  0  0  0  0  0  0
   -9.3170   20.6260  -31.8880 C   0  0  0  0  0  0  0  0  0  0  0  0
   -8.1440   20.3640  -32.5730 C   0  0  0  0  0  0  0  0  0  0  0  0
   -7.1580   21.3350  -32.7420 C   0  0  0  0  0  0  0  0  0  0  0  0
   -4.5830   23.9810  -30.5360 N   0  0  0  0  0  0  0  0  0  0  0  0
   -3.5820   23.3940  -31.2090 N   0  0  0  0  0  0  0  0  0  0  0  0
   -3.2260   22.1930  -31.1520 C   0  0  0  0  0  0  0  0  0  0  0  0
   -3.7520   21.0350  -31.8240 C   0  0  0  0  0  0  0  0  0  0  0  0
   -3.2820   20.7940  -33.1120 C   0  0  0  0  0  0  0  0  0  0  0  0
   -3.7310   19.7130  -33.8250 C   0  0  0  0  0  0  0  0  0  0  0  0
   -4.6430   18.8180  -33.3430 C   0  0  0  0  0  0  0  0  0  0  0  0
   -5.1010   17.7270  -34.0490 C   0  0  0  0  0  0  0  0  0  0  0  0
   -6.0270   16.8380  -33.5320 C   0  0  0  0  0  0  0  0  0  0  0  0
   -6.5070   17.0680  -32.2380 C   0  0  0  0  0  0  0  0  0  0  0  0
   -6.0350   18.1660  -31.5500 C   0  0  0  0  0  0  0  0  0  0  0  0
   -5.1210   19.0350  -32.0740 C   0  0  0  0  0  0  0  0  0  0  0  0
   -4.6660   20.1350  -31.3470 C   0  0  0  0  0  0  0  0  0  0  0  0
   -6.0200   25.3770  -28.0620 H   0  0  0  0  0  0  0  0  0  0  0  0
   -6.8795   24.5558  -32.8094 H   0  0  0  0  0  0  0  0  0  0  0  0
   -5.5340   23.3468  -32.9371 H   0  0  0  0  0  0  0  0  0  0  0  0
   -8.6960   23.8597  -31.1021 H   0  0  0  0  0  0  0  0  0  0  0  0
  -10.4389   22.1289  -30.8071 H   0  0  0  0  0  0  0  0  0  0  0  0
  -10.0803   19.8433  -31.7666 H   0  0  0  0  0  0  0  0  0  0  0  0
   -7.9848   19.3613  -32.9963 H   0  0  0  0  0  0  0  0  0  0  0  0
   -6.2330   21.1009  -33.2893 H   0  0  0  0  0  0  0  0  0  0  0  0
   -2.3768   21.9933  -30.4819 H   0  0  0  0  0  0  0  0  0  0  0  0
   -2.5449   21.4761  -33.5608 H   0  0  0  0  0  0  0  0  0  0  0  0
   -3.3356   19.5580  -34.8397 H   0  0  0  0  0  0  0  0  0  0  0  0
   -4.7150   17.5557  -35.0647 H   0  0  0  0  0  0  0  0  0  0  0  0
   -6.3752   15.9765  -34.1206 H   0  0  0  0  0  0  0  0  0  0  0  0
   -7.2426   16.3898  -31.7808 H   0  0  0  0  0  0  0  0  0  0  0  0
   -6.4118   18.3502  -30.5331 H   0  0  0  0  0  0  0  0  0  0  0  0
   -5.0643   20.2877  -30.3331 H   0  0  0  0  0  0  0  0  0  0  0  0
  1  2  2  0
  2  3  1  0
  3  4  1  0
  4  5  2  0
  5  6  1  0
  6  7  1  0
  7  8  2  0
  8  9  1  0
  9 10  2  0
 10 11  1  0
 11 12  2  0
  5 13  1  0
 13 14  1  0
 14 15  2  0
 15 16  1  0
 16 17  2  0
 17 18  1  0
 18 19  2  0
 19 20  1  0
 20 21  2  0
 21 22  1  0
 22 23  2  0
 23 24  1  0
 24 25  2  0
 13  2  1  0
 25 16  1  0
 12  7  1  0
 24 19  1  0
  3 26  1  0
  6 27  1  0
  6 28  1  0
  8 29  1  0
  9 30  1  0
 10 31  1  0
 11 32  1  0
 12 33  1  0
 15 34  1  0
 17 35  1  0
 18 36  1  0
 20 37  1  0
 21 38  1  0
 22 39  1  0
 23 40  1  0
 25 41  1  0
M  END
>  <smiles>  (8) 
O=c1[nH]nc(Cc2ccccc2)n1N=Cc1ccc2ccccc2c1

>  <score_type>  (8) 
oracle

>  <origin>  (8) 
adg

>  <m_score__min__energy>  (8) 
-10

>  <m_primary>  (8) 
energy

$$$$
8:0
     RDKit          3D

 70 72  0  0  0  0  0  0  0  0999 V2000
   -7.6130   22.5160  -29.8570 C   0  0  0  0  0  0  0  0  0  0  0  0
   -7.8190   21.9100  -31.2530 C   0  0  0  0  0  0  0  0  0  0  0  0
   -9.2570   21.3920  -31.3820 C   0  0  0  0  0  0  0  0  0  0  0  0
   -7.4630   22.9630  -32.3370 C   0  0  0  0  0  0  0  0  0  0  0  0
   -6.0740   23.6480  -32.2180 C   0  0  1  0  0  0  0  0  0  0  0  0
   -5.9940   24.5380  -31.0610 N   0  0  0  0  0  0  0  0  0  0  0  0
   -4.8240   24.8380  -30.2820 C   0  0  0  0  0  0  0  0  0  0  0  0
   -3.8590   25.4240  -30.8410 O   0  0  0  0  0  0  0  0  0  0  0  0
   -4.7280   24.5310  -28.8120 C   0  0  0  0  0  0  0  0  0  0  0  0
   -3.4830   23.7390  -28.5040 C   0  0  0  0  0  0  0  0  0  0  0  0
   -3.5660   22.4870  -27.8680 C   0  0  0  0  0  0  0  0  0  0  0  0
   -2.4090   21.7570  -27.5860 C   0  0  0  0  0  0  0  0  0  0  0  0
   -2.4980   20.5650  -26.9520 F   0  0  0  0  0  0  0  0  0  0  0  0
   -1.1590   22.2600  -27.9540 C   0  0  0  0  0  0  0  0  0  0  0  0
   -1.0670   23.4910  -28.6070 C   0  0  0  0  0  0  0  0  0  0  0  0
    0.1440   23.9610  -28.9830 F   0  0  0  0  0  0  0  0  0  0  0  0
   -2.2210   24.2330  -28.8770 C   0  0  0  0  0  0  0  0  0  0  0  0
   -4.9330   22.6650  -32.1650 C   0  0  0  0  0  0  0  0  0  0  0  0
   -4.3200   22.3400  -33.2180 O   0  0  0  0  0  0  0  0  0  0  0  0
   -4.5780   22.0520  -30.9170 N   0  0  0  0  0  0  0  0  0  0  0  0
   -4.1070   20.6700  -30.8300 C   0  0  0  0  0  0  0  0  0  0  0  0
   -2.5780   20.6350  -30.6870 C   0  0  0  0  0  0  0  0  0  0  0  0
   -1.8770   21.6080  -31.6430 C   0  0  0  0  0  0  0  0  0  0  0  0
   -0.5810   21.0380  -32.0840 N   0  0  0  0  0  0  0  0  0  0  0  0
   -0.3470   21.1600  -33.5360 C   0  0  0  0  0  0  0  0  0  0  0  0
   -1.3420   20.3220  -34.3560 C   0  0  0  0  0  0  0  0  0  0  0  0
   -1.9120   19.2380  -33.5500 N   0  0  0  0  0  0  0  0  0  0  0  0
   -3.1940   18.6780  -33.9010 C   0  0  0  0  0  0  0  0  0  0  0  0
   -3.2720   17.4660  -34.6110 C   0  0  0  0  0  0  0  0  0  0  0  0
   -4.5140   16.9240  -34.9490 C   0  0  0  0  0  0  0  0  0  0  0  0
   -5.6910   17.5890  -34.5880 C   0  0  0  0  0  0  0  0  0  0  0  0
   -5.6260   18.8030  -33.9020 C   0  0  0  0  0  0  0  0  0  0  0  0
   -7.1040   19.6460  -33.4690 Cl  0  0  0  0  0  0  0  0  0  0  0  0
   -4.3820   19.3460  -33.5590 C   0  0  0  0  0  0  0  0  0  0  0  0
   -1.0710   18.5980  -32.5310 C   0  0  0  0  0  0  0  0  0  0  0  0
   -0.3860   19.6450  -31.6240 C   0  0  0  0  0  0  0  0  0  0  0  0
   -7.8672   21.7681  -29.0915 H   0  0  0  0  0  0  0  0  0  0  0  0
   -6.5618   22.8179  -29.7398 H   0  0  0  0  0  0  0  0  0  0  0  0
   -8.2625   23.3960  -29.7398 H   0  0  0  0  0  0  0  0  0  0  0  0
   -7.1481   21.0509  -31.4011 H   0  0  0  0  0  0  0  0  0  0  0  0
   -9.6828   21.2386  -30.3794 H   0  0  0  0  0  0  0  0  0  0  0  0
   -9.8641   22.1279  -31.9295 H   0  0  0  0  0  0  0  0  0  0  0  0
   -9.2553   20.4380  -31.9295 H   0  0  0  0  0  0  0  0  0  0  0  0
   -7.5038   22.4609  -33.3149 H   0  0  0  0  0  0  0  0  0  0  0  0
   -8.1957   23.7725  -32.2037 H   0  0  0  0  0  0  0  0  0  0  0  0
   -5.9730   24.2424  -33.1381 H   0  0  0  0  0  0  0  0  0  0  0  0
   -4.7018   25.4754  -28.2486 H   0  0  0  0  0  0  0  0  0  0  0  0
   -5.6040   23.9324  -28.5218 H   0  0  0  0  0  0  0  0  0  0  0  0
   -4.5495   22.0798  -27.5907 H   0  0  0  0  0  0  0  0  0  0  0  0
   -0.2474   21.6867  -27.7296 H   0  0  0  0  0  0  0  0  0  0  0  0
   -2.1410   25.2065  -29.3829 H   0  0  0  0  0  0  0  0  0  0  0  0
   -4.8490   22.5280  -30.0250 H   0  0  0  0  0  0  0  0  0  0  0  0
   -4.5643   20.1853  -29.9548 H   0  0  0  0  0  0  0  0  0  0  0  0
   -4.3924   20.1366  -31.7487 H   0  0  0  0  0  0  0  0  0  0  0  0
   -2.3140   20.9039  -29.6536 H   0  0  0  0  0  0  0  0  0  0  0  0
   -2.2417   19.6183  -30.9385 H   0  0  0  0  0  0  0  0  0  0  0  0
   -2.5168   21.7810  -32.5209 H   0  0  0  0  0  0  0  0  0  0  0  0
   -1.6951   22.5594  -31.1216 H   0  0  0  0  0  0  0  0  0  0  0  0
   -0.4513   22.2164  -33.8243 H   0  0  0  0  0  0  0  0  0  0  0  0
    0.6655   20.7859  -33.7480 H   0  0  0  0  0  0  0  0  0  0  0  0
   -2.1555   20.9736  -34.7078 H   0  0  0  0  0  0  0  0  0  0  0  0
   -0.8052   19.8781  -35.2073 H   0  0  0  0  0  0  0  0  0  0  0  0
   -2.3494   16.9422  -34.9016 H   0  0  0  0  0  0  0  0  0  0  0  0
   -4.5670   15.9732  -35.4997 H   0  0  0  0  0  0  0  0  0  0  0  0
   -6.6684   17.1547  -34.8450 H   0  0  0  0  0  0  0  0  0  0  0  0
   -4.3342   20.3025  -33.0179 H   0  0  0  0  0  0  0  0  0  0  0  0
   -1.6987   17.9425  -31.9095 H   0  0  0  0  0  0  0  0  0  0  0  0
   -0.2880   18.0193  -33.0429 H   0  0  0  0  0  0  0  0  0  0  0  0
   -0.8001   19.5516  -30.6092 H   0  0  0  0  0  0  0  0  0  0  0  0
    0.6947   19.4418  -31.6521 H   0  0  0  0  0  0  0  0  0  0  0  0
  1  2  1  0
  2  3  1  0
  2  4  1  0
  4  5  1  0
  5  6  1  0
  6  7  1  0
  7  8  2  0
  7  9  1  0
  9 10  1  0
 10 11  2  0
 11 12  1  0
 12 13  1  0
 12 14  2  0
 14 15  1  0
 15 16  1  0
 15 17  2  0
  5 18  1  0
 18 19  2  0
 18 20  1  0
 20 21  1  0
 21 22  1  0
 22 23  1  0
 23 24  1  0
 24 25  1  0
 25 26  1  0
 26 27  1  0
 27 28  1  0
 28 29  2  0
 29 30  1  0
 30 31  2  0
 31 32  1  0
 32 33  1  0
 32 34  2  0
 27 35  1  0
 35 36  1  0
 17 10  1  0
 36 24  1  0
 34 28  1  0
  1 37  1  0
  1 38  1  0
  1 39  1  0
  2 40  1  0
  3 41  1  0
  3 42  1  0
  3 43  1  0
  4 44  1  0
  4 45  1  0
  5 46  1  6
  9 47  1  0
  9 48  1  0
 11 49  1  0
 14 50  1  0
 17 51  1  0
 20 52  1  0
 21 53  1  0
 21 54  1  0
 22 55  1  0
 22 56  1  0
 23 57  1  0
 23 58  1  0
 25 59  1  0
 25 60  1  0
 26 61  1  0
 26 62  1  0
 29 63  1  0
 30 64  1  0
 31 65  1  0
 34 66  1  0
 35 67  1  0
 35 68  1  0
 36 69  1  0
 36 70  1  0
M  CHG  1   6  -1
M  END
>  <UniqueID>  (9) 
8

>  <SMILES>  (9) 
CC(C)C[C@@H]([N-]C(=O)Cc1cc(F)cc(F)c1)C(=O)NCCCN1CCN(c2cccc(Cl)c2)CC1

>  <Energy>  (9) 
69.50843780303173

>  <Genealogy>  (9) 
CC(C)CC([N-]C(=O)Cc1cc(F)cc(F)c1)C(=O)NCCCN1CCN(c2cccc(Cl)c2)CC1 (protonated)
CC(C)C[C@@H]([N-]C(=O)Cc1cc(F)cc(F)c1)C(=O)NCCCN1CCN(c2cccc(Cl)c2)CC1 (chirality)
CC(C)C[C@@H]([N-]C(=O)Cc1cc(F)cc(F)c1)C(=O)NCCCN1CCN(c2cccc(Cl)c2)CC1 (3D coordinates assigned)
CC(C)C[C@@H]([N-]C(=O)Cc1cc(F)cc(F)c1)C(=O)NCCCN1CCN(c2cccc(Cl)c2)CC1 (nonaromatic ring conformer: 69.50843780303173 kcal/mol)

>  <smiles>  (9) 
CC(C)CC(NC(=O)Cc1cc(F)cc(F)c1)C(=O)NCCCN1CCN(c2cccc(Cl)c2)CC1

>  <score_type>  (9) 
oracle

>  <origin>  (9) 
adg

>  <m_score__min__energy>  (9) 
-11.58

>  <m_primary>  (9) 
energy

$$$$
9:0
     RDKit          3D

 45 46  0  0  0  0  0  0  0  0999 V2000
   -0.6090   22.4180  -26.0430 C   0  0  0  0  0  0  0  0  0  0  0  0
   -0.7230   22.3430  -27.5650 C   0  0  0  0  0  0  0  0  0  0  0  0
   -0.1730   23.5940  -28.2700 C   0  0  0  0  0  0  0  0  0  0  0  0
   -1.1490   24.2280  -29.2760 C   0  0  0  0  0  0  0  0  0  0  0  0
   -1.5970   25.5180  -28.8540 O   0  0  0  0  0  0  0  0  0  0  0  0
   -1.4070   26.0840  -27.5810 C   0  0  0  0  0  0  0  0  0  0  0  0
   -0.4770   27.1210  -27.3560 C   0  0  0  0  0  0  0  0  0  0  0  0
   -0.3040   27.6490  -26.0760 C   0  0  0  0  0  0  0  0  0  0  0  0
   -1.0580   27.1640  -25.0080 C   0  0  0  0  0  0  0  0  0  0  0  0
   -1.9950   26.1510  -25.2190 C   0  0  0  0  0  0  0  0  0  0  0  0
   -2.1810   25.6050  -26.5010 C   0  0  0  0  0  0  0  0  0  0  0  0
   -3.2210   24.5200  -26.7030 C   0  0  0  0  0  0  0  0  0  0  0  0
   -4.1380   24.8050  -27.8240 N   0  0  0  0  0  0  0  0  0  0  0  0
   -4.5810   23.6050  -28.5670 C   0  0  0  0  0  0  0  0  0  0  0  0
   -4.3240   23.7110  -30.0880 C   0  0  2  0  0  0  0  0  0  0  0  0
   -3.9790   25.0170  -30.4730 O   0  0  0  0  0  0  0  0  0  0  0  0
   -5.5300   23.2400  -30.8590 C   0  0  0  0  0  0  0  0  0  0  0  0
   -5.7370   21.9490  -31.3280 C   0  0  0  0  0  0  0  0  0  0  0  0
   -6.9820   21.7830  -31.9470 C   0  0  0  0  0  0  0  0  0  0  0  0
   -7.5590   20.1240  -32.6920 Br  0  0  0  0  0  0  0  0  0  0  0  0
   -7.7640   22.9300  -31.9600 C   0  0  0  0  0  0  0  0  0  0  0  0
   -6.9030   24.1550  -31.1950 S   0  0  0  0  0  0  0  0  0  0  0  0
   -1.4446   21.8683  -25.5852 H   0  0  0  0  0  0  0  0  0  0  0  0
    0.3435   21.9695  -25.7241 H   0  0  0  0  0  0  0  0  0  0  0  0
   -0.6438   23.4702  -25.7241 H   0  0  0  0  0  0  0  0  0  0  0  0
   -0.1592   21.4661  -27.9162 H   0  0  0  0  0  0  0  0  0  0  0  0
   -1.7923   22.2689  -27.8121 H   0  0  0  0  0  0  0  0  0  0  0  0
    0.0686   24.3446  -27.5031 H   0  0  0  0  0  0  0  0  0  0  0  0
    0.7093   23.2731  -28.8431 H   0  0  0  0  0  0  0  0  0  0  0  0
   -0.6412   24.3293  -30.2465 H   0  0  0  0  0  0  0  0  0  0  0  0
   -2.0293   23.5727  -29.3513 H   0  0  0  0  0  0  0  0  0  0  0  0
    0.1153   27.5156  -28.1948 H   0  0  0  0  0  0  0  0  0  0  0  0
    0.4301   28.4510  -25.9088 H   0  0  0  0  0  0  0  0  0  0  0  0
   -0.9145   27.5795  -23.9996 H   0  0  0  0  0  0  0  0  0  0  0  0
   -2.5929   25.7768  -24.3749 H   0  0  0  0  0  0  0  0  0  0  0  0
   -2.7032   23.5709  -26.9057 H   0  0  0  0  0  0  0  0  0  0  0  0
   -3.8265   24.4683  -25.7861 H   0  0  0  0  0  0  0  0  0  0  0  0
   -3.6650   25.4570  -28.4900 H   0  0  0  0  0  0  0  0  0  0  0  0
   -4.9670   25.3210  -27.4500 H   0  0  0  0  0  0  0  0  0  0  0  0
   -4.0370   22.7312  -28.1791 H   0  0  0  0  0  0  0  0  0  0  0  0
   -5.6670   23.5085  -28.4214 H   0  0  0  0  0  0  0  0  0  0  0  0
   -3.4689   23.0602  -30.3228 H   0  0  0  0  0  0  0  0  0  0  0  0
   -3.5040   24.9620  -31.3430 H   0  0  0  0  0  0  0  0  0  0  0  0
   -4.9988   21.1402  -31.2238 H   0  0  0  0  0  0  0  0  0  0  0  0
   -8.7704   23.0214  -32.3946 H   0  0  0  0  0  0  0  0  0  0  0  0
  1  2  1  0
  2  3  1  0
  3  4  1  0
  4  5  1  0
  5  6  1  0
  6  7  2  0
  7  8  1  0
  8  9  2  0
  9 10  1  0
 10 11  2  0
 11 12  1  0
 12 13  1  0
 13 14  1  0
 14 15  1  0
 15 16  1  0
 15 17  1  0
 17 18  2  0
 18 19  1  0
 19 20  1  0
 19 21  2  0
 21 22  1  0
 11  6  1  0
 22 17  1  0
  1 23  1  0
  1 24  1  0
  1 25  1  0
  2 26  1  0
  2 27  1  0
  3 28  1  0
  3 29  1  0
  4 30  1  0
  4 31  1  0
  7 32  1  0
  8 33  1  0
  9 34  1  0
 10 35  1  0
 12 36  1  0
 12 37  1  0
 13 38  1  0
 13 39  1  0
 14 40  1  0
 14 41  1  0
 15 42  1  6
 16 43  1  0
 18 44  1  0
 21 45  1  0
M  CHG  1  13   1
M  END
>  <UniqueID>  (10) 
9

>  <SMILES>  (10) 
CCCCOc1ccccc1C[NH2+]C[C@H](O)c1cc(Br)cs1

>  <Energy>  (10) 
66.38169651742558

>  <Genealogy>  (10) 
CCCCOc1ccccc1C[NH2+]CC(O)c1cc(Br)cs1 (protonated)
CCCCOc1ccccc1C[NH2+]C[C@H](O)c1cc(Br)cs1 (chirality)
CCCCOc1ccccc1C[NH2+]C[C@H](O)c1cc(Br)cs1 (3D coordinates assigned)
CCCCOc1ccccc1C[NH2+]C[C@H](O)c1cc(Br)cs1 (optimized conformer: 66.38169651742558 kcal/mol)

>  <smiles>  (10) 
CCCCOc1ccccc1CNCC(O)c1cc(Br)cs1

>  <score_type>  (10) 
oracle

>  <origin>  (10) 
adg

>  <m_score__min__energy>  (10) 
-7.5

>  <m_primary>  (10) 
energy

$$$$
10:0
     RDKit          3D

 31 33  0  0  0  0  0  0  0  0999 V2000
   -6.3670   25.8960  -29.5240 C   0  0  0  0  0  0  0  0  0  0  0  0
   -5.3350   25.0260  -30.1480 C   0  0  0  0  0  0  0  0  0  0  0  0
   -4.0170   25.2520  -30.1590 N   0  0  0  0  0  0  0  0  0  0  0  0
   -3.4310   24.2760  -30.7990 N   0  0  0  0  0  0  0  0  0  0  0  0
   -4.3210   23.3500  -31.2440 C   0  0  0  0  0  0  0  0  0  0  0  0
   -3.9490   22.1400  -31.9390 C   0  0  0  0  0  0  0  0  0  0  0  0
   -2.7660   21.4800  -31.8580 C   0  0  0  0  0  0  0  0  0  0  0  0
   -2.5030   20.2770  -32.5300 C   0  0  0  0  0  0  0  0  0  0  0  0
   -3.4670   19.7010  -33.3260 C   0  0  0  0  0  0  0  0  0  0  0  0
   -3.2740   18.5470  -33.9900 F   0  0  0  0  0  0  0  0  0  0  0  0
   -4.6770   20.3780  -33.4100 C   0  0  0  0  0  0  0  0  0  0  0  0
   -4.9270   21.5500  -32.7510 C   0  0  0  0  0  0  0  0  0  0  0  0
   -5.5410   23.8190  -30.8350 C   0  0  0  0  0  0  0  0  0  0  0  0
   -6.8850   23.3070  -31.0400 C   0  0  0  0  0  0  0  0  0  0  0  0
   -7.4550   22.4230  -30.1190 C   0  0  0  0  0  0  0  0  0  0  0  0
   -8.7010   21.8860  -30.2560 C   0  0  0  0  0  0  0  0  0  0  0  0
   -9.4340   22.2280  -31.3520 N   0  0  0  0  0  0  0  0  0  0  0  0
   -8.9390   23.0810  -32.2850 C   0  0  0  0  0  0  0  0  0  0  0  0
   -7.6660   23.6240  -32.1340 C   0  0  0  0  0  0  0  0  0  0  0  0
   -6.2887   25.8300  -28.4288 H   0  0  0  0  0  0  0  0  0  0  0  0
   -6.2089   26.9375  -29.8408 H   0  0  0  0  0  0  0  0  0  0  0  0
   -7.3667   25.5641  -29.8408 H   0  0  0  0  0  0  0  0  0  0  0  0
   -3.5030   26.0550  -29.7420 H   0  0  0  0  0  0  0  0  0  0  0  0
   -1.9709   21.9113  -31.2320 H   0  0  0  0  0  0  0  0  0  0  0  0
   -1.5219   19.7918  -32.4203 H   0  0  0  0  0  0  0  0  0  0  0  0
   -5.4731   19.9505  -34.0373 H   0  0  0  0  0  0  0  0  0  0  0  0
   -5.9080   22.0356  -32.8597 H   0  0  0  0  0  0  0  0  0  0  0  0
   -6.8648   22.1448  -29.2334 H   0  0  0  0  0  0  0  0  0  0  0  0
   -9.1037   21.1946  -29.5011 H   0  0  0  0  0  0  0  0  0  0  0  0
   -9.5461   23.3441  -33.1637 H   0  0  0  0  0  0  0  0  0  0  0  0
   -7.2770   24.3149  -32.8964 H   0  0  0  0  0  0  0  0  0  0  0  0
  1  2  1  0
  2  3  1  0
  3  4  1  0
  4  5  2  0
  5  6  1  0
  6  7  2  0
  7  8  1  0
  8  9  2  0
  9 10  1  0
  9 11  1  0
 11 12  2  0
  5 13  1  0
 13 14  1  0
 14 15  2  0
 15 16  1  0
 16 17  2  0
 17 18  1  0
 18 19  2  0
 13  2  2  0
 19 14  1  0
 12  6  1  0
  1 20  1  0
  1 21  1  0
  1 22  1  0
  3 23  1  0
  7 24  1  0
  8 25  1  0
 11 26  1  0
 12 27  1  0
 15 28  1  0
 16 29  1  0
 18 30  1  0
 19 31  1  0
M  END
>  <smiles>  (11) 
Cc1[nH]nc(-c2ccc(F)cc2)c1-c1ccncc1

>  <score_type>  (11) 
oracle

>  <origin>  (11) 
adg

>  <m_score__min__energy>  (11) 
-7.5999999999999996

>  <m_primary>  (11) 
energy

$$$$
11:0
     RDKit          3D

 51 54  0  0  0  0  0  0  0  0999 V2000
   -0.7040   20.3300  -34.2710 C   0  0  0  0  0  0  0  0  0  0  0  0
   -1.5510   19.5980  -33.3940 O   0  0  0  0  0  0  0  0  0  0  0  0
   -2.7640   20.0420  -32.8310 C   0  0  0  0  0  0  0  0  0  0  0  0
   -3.9320   19.3310  -33.1600 C   0  0  0  0  0  0  0  0  0  0  0  0
   -5.1540   19.6890  -32.5950 C   0  0  0  0  0  0  0  0  0  0  0  0
   -5.2950   20.9140  -31.9340 C   0  0  0  0  0  0  0  0  0  0  0  0
   -4.1300   21.5320  -31.4360 C   0  0  0  0  0  0  0  0  0  0  0  0
   -4.2550   22.4650  -30.3950 O   0  0  0  0  0  0  0  0  0  0  0  0
   -3.6890   22.2880  -29.0980 C   0  0  0  0  0  0  0  0  0  0  0  0
   -2.8660   21.1560  -31.9560 C   0  0  0  0  0  0  0  0  0  0  0  0
   -1.7360   21.9210  -31.6550 O   0  0  0  0  0  0  0  0  0  0  0  0
   -0.6880   21.4120  -30.8340 C   0  0  0  0  0  0  0  0  0  0  0  0
   -6.6630   21.5110  -31.8340 C   0  0  0  0  0  0  0  0  0  0  0  0
   -7.7830   20.6540  -31.9600 C   0  0  0  0  0  0  0  0  0  0  0  0
   -9.0810   21.1760  -31.8630 C   0  0  0  0  0  0  0  0  0  0  0  0
   -9.2800   22.5460  -31.7180 C   0  0  0  0  0  0  0  0  0  0  0  0
   -8.1900   23.4130  -31.7150 C   0  0  0  0  0  0  0  0  0  0  0  0
   -6.8800   22.9150  -31.8330 C   0  0  0  0  0  0  0  0  0  0  0  0
   -5.7930   23.7930  -31.9640 O   0  0  0  0  0  0  0  0  0  0  0  0
   -5.4350   24.7920  -31.0500 C   0  0  0  0  0  0  0  0  0  0  0  0
   -6.3990   25.1740  -29.9790 C   0  0  0  0  0  0  0  0  0  0  0  0
   -4.2800   25.2980  -31.0570 O   0  0  0  0  0  0  0  0  0  0  0  0
   -7.6050   19.1660  -32.1100 C   0  0  0  0  0  0  0  0  0  0  0  0
   -6.3090   18.7610  -32.8510 C   0  0  1  0  0  0  0  0  0  0  0  0
   -6.4860   18.6130  -34.3060 N   0  0  0  0  0  0  0  0  0  0  0  0
   -5.2360   18.2040  -35.0160 C   0  0  0  0  0  0  0  0  0  0  0  0
   -3.9470   18.1810  -34.1400 C   0  0  0  0  0  0  0  0  0  0  0  0
   -0.0017   20.9369  -33.6807 H   0  0  0  0  0  0  0  0  0  0  0  0
   -0.1403   19.6301  -34.9053 H   0  0  0  0  0  0  0  0  0  0  0  0
   -1.3148   20.9892  -34.9053 H   0  0  0  0  0  0  0  0  0  0  0  0
   -4.4437   22.5240  -28.3333 H   0  0  0  0  0  0  0  0  0  0  0  0
   -3.3615   21.2445  -28.9802 H   0  0  0  0  0  0  0  0  0  0  0  0
   -2.8253   22.9589  -28.9802 H   0  0  0  0  0  0  0  0  0  0  0  0
   -0.9558   21.5420  -29.7750 H   0  0  0  0  0  0  0  0  0  0  0  0
   -0.5421   20.3427  -31.0467 H   0  0  0  0  0  0  0  0  0  0  0  0
    0.2427   21.9585  -31.0467 H   0  0  0  0  0  0  0  0  0  0  0  0
   -9.9470   20.4988  -31.9017 H   0  0  0  0  0  0  0  0  0  0  0  0
  -10.2992   22.9443  -31.6057 H   0  0  0  0  0  0  0  0  0  0  0  0
   -8.3551   24.4963  -31.6195 H   0  0  0  0  0  0  0  0  0  0  0  0
   -5.9434   24.9935  -28.9942 H   0  0  0  0  0  0  0  0  0  0  0  0
   -6.6516   26.2402  -30.0763 H   0  0  0  0  0  0  0  0  0  0  0  0
   -7.3133   24.5702  -30.0763 H   0  0  0  0  0  0  0  0  0  0  0  0
   -7.5847   18.7167  -31.1061 H   0  0  0  0  0  0  0  0  0  0  0  0
   -8.4469   18.8036  -32.7182 H   0  0  0  0  0  0  0  0  0  0  0  0
   -6.0690   17.7765  -32.4231 H   0  0  0  0  0  0  0  0  0  0  0  0
   -7.2260   17.8950  -34.4880 H   0  0  0  0  0  0  0  0  0  0  0  0
   -6.8240   19.5220  -34.7000 H   0  0  0  0  0  0  0  0  0  0  0  0
   -5.3903   17.1924  -35.4194 H   0  0  0  0  0  0  0  0  0  0  0  0
   -5.0633   18.9667  -35.7896 H   0  0  0  0  0  0  0  0  0  0  0  0
   -3.9091   17.2337  -33.5822 H   0  0  0  0  0  0  0  0  0  0  0  0
   -3.0739   18.2762  -34.8023 H   0  0  0  0  0  0  0  0  0  0  0  0
  1  2  1  0
  2  3  1  0
  3  4  2  0
  4  5  1  0
  5  6  2  0
  6  7  1  0
  7  8  1  0
  8  9  1  0
  7 10  2  0
 10 11  1  0
 11 12  1  0
  6 13  1  0
 13 14  2  0
 14 15  1  0
 15 16  2  0
 16 17  1  0
 17 18  2  0
 18 19  1  0
 19 20  1  0
 20 21  1  0
 20 22  2  0
 14 23  1  0
 23 24  1  0
 24 25  1  0
 25 26  1  0
 26 27  1  0
 10  3  1  0
 18 13  1  0
 27  4  1  0
 24  5  1  0
  1 28  1  0
  1 29  1  0
  1 30  1  0
  9 31  1  0
  9 32  1  0
  9 33  1  0
 12 34  1  0
 12 35  1  0
 12 36  1  0
 15 37  1  0
 16 38  1  0
 17 39  1  0
 21 40  1  0
 21 41  1  0
 21 42  1  0
 23 43  1  0
 23 44  1  0
 24 45  1  1
 25 46  1  0
 25 47  1  0
 26 48  1  0
 26 49  1  0
 27 50  1  0
 27 51  1  0
M  CHG  1  25   1
M  END
>  <UniqueID>  (12) 
10

>  <SMILES>  (12) 
COc1c2c3c(c(OC)c1OC)-c1c(cccc1OC(C)=O)C[C@H]3[NH2+]CC2

>  <Energy>  (12) 
99.3193551081148

>  <Genealogy>  (12) 
COc1c2c3c(c(OC)c1OC)-c1c(cccc1OC(C)=O)CC3[NH2+]CC2 (protonated)
COc1c2c3c(c(OC)c1OC)-c1c(cccc1OC(C)=O)C[C@H]3[NH2+]CC2 (chirality)
COc1c2c3c(c(OC)c1OC)-c1c(cccc1OC(C)=O)C[C@H]3[NH2+]CC2 (3D coordinates assigned)
COc1c2c3c(c(OC)c1OC)-c1c(cccc1OC(C)=O)C[C@H]3[NH2+]CC2 (nonaromatic ring conformer: 99.3193551081148 kcal/mol)

>  <smiles>  (12) 
COc1c2c3c(c(OC)c1OC)-c1c(cccc1OC(C)=O)CC3NCC2

>  <score_type>  (12) 
oracle

>  <origin>  (12) 
adg

>  <m_score__min__energy>  (12) 
-8.5199999999999996

>  <m_primary>  (12) 
energy

$$$$
12:0
     RDKit          3D

 59 63  0  0  1  0  0  0  0  0999 V2000
   -6.2030   23.1520  -32.5300 C   0  0  0  0  0  0  0  0  0  0  0  0
   -4.9010   23.0600  -31.8370 N   0  0  0  0  0  0  0  0  0  0  0  0
   -5.1190   23.0170  -30.4200 C   0  0  0  0  0  0  0  0  0  0  0  0
   -5.9780   24.2410  -30.0600 C   0  0  0  0  0  0  0  0  0  0  0  0
   -5.2380   25.4720  -30.5130 C   0  0  0  0  0  0  0  0  0  0  0  0
   -3.8560   25.2990  -30.4680 O   0  0  0  0  0  0  0  0  0  0  0  0
   -3.4520   24.5170  -29.4170 C   0  0  0  0  0  0  0  0  0  0  0  0
   -3.9050   23.0980  -29.5510 C   0  0  0  0  0  0  0  0  0  0  0  0
   -4.2480   21.9210  -32.4150 C   0  0  2  0  0  0  0  0  0  0  0  0
   -5.0430   20.6590  -32.3230 C   0  0  0  0  0  0  0  0  0  0  0  0
   -4.2650   19.4930  -32.7710 C   0  0  0  0  0  0  0  0  0  0  0  0
   -4.9840   18.3440  -33.0950 C   0  0  0  0  0  0  0  0  0  0  0  0
   -4.3910   17.1810  -33.5110 C   0  0  0  0  0  0  0  0  0  0  0  0
   -5.2000   16.0110  -33.8350 C   0  0  0  0  0  0  0  0  0  0  0  0
   -4.6250   14.7850  -33.7440 C   0  0  0  0  0  0  0  0  0  0  0  0
   -5.3370   13.6290  -34.0370 C   0  0  0  0  0  0  0  0  0  0  0  0
   -6.6600   13.7450  -34.4280 C   0  0  0  0  0  0  0  0  0  0  0  0
   -7.3670   12.6110  -34.7190 F   0  0  0  0  0  0  0  0  0  0  0  0
   -7.2530   14.9930  -34.5240 C   0  0  0  0  0  0  0  0  0  0  0  0
   -6.5240   16.1270  -34.2280 C   0  0  0  0  0  0  0  0  0  0  0  0
   -3.0140   17.1360  -33.6180 C   0  0  0  0  0  0  0  0  0  0  0  0
   -2.3010   18.2740  -33.2980 C   0  0  0  0  0  0  0  0  0  0  0  0
   -2.8960   19.4460  -32.8790 C   0  0  0  0  0  0  0  0  0  0  0  0
   -2.1530   20.6060  -32.5700 N   0  0  0  0  0  0  0  0  0  0  0  0
   -0.7090   20.5850  -32.6720 C   0  0  0  0  0  0  0  0  0  0  0  0
   -0.3300   20.8480  -34.0830 C   0  0  0  0  0  0  0  0  0  0  0  0
   -0.1940   19.9840  -35.1410 C   0  0  0  0  0  0  0  0  0  0  0  0
    0.1680   20.6600  -36.2470 N   0  0  0  0  0  0  0  0  0  0  0  0
    0.2640   21.9610  -35.8930 C   0  0  0  0  0  0  0  0  0  0  0  0
   -0.0360   22.0710  -34.5940 N   0  0  0  0  0  0  0  0  0  0  0  0
   -2.8100   21.8010  -32.1560 C   0  0  0  0  0  0  0  0  0  0  0  0
   -2.0910   22.6660  -31.5980 O   0  0  0  0  0  0  0  0  0  0  0  0
   -7.0112   23.2091  -31.7859 H   0  0  0  0  0  0  0  0  0  0  0  0
   -6.2202   24.0536  -33.1599 H   0  0  0  0  0  0  0  0  0  0  0  0
   -6.3468   22.2618  -33.1599 H   0  0  0  0  0  0  0  0  0  0  0  0
   -5.5722   22.0334  -30.2270 H   0  0  0  0  0  0  0  0  0  0  0  0
   -6.9500   24.1794  -30.5712 H   0  0  0  0  0  0  0  0  0  0  0  0
   -6.1583   24.2784  -28.9755 H   0  0  0  0  0  0  0  0  0  0  0  0
   -5.5331   25.7028  -31.5472 H   0  0  0  0  0  0  0  0  0  0  0  0
   -5.4989   26.2944  -29.8306 H   0  0  0  0  0  0  0  0  0  0  0  0
   -2.3532   24.5332  -29.3673 H   0  0  0  0  0  0  0  0  0  0  0  0
   -3.9046   24.9271  -28.5022 H   0  0  0  0  0  0  0  0  0  0  0  0
   -3.0976   22.5009  -30.0000 H   0  0  0  0  0  0  0  0  0  0  0  0
   -4.1544   22.7079  -28.5532 H   0  0  0  0  0  0  0  0  0  0  0  0
   -4.2373   22.1434  -33.4922 H   0  0  0  0  0  0  0  0  0  0  0  0
   -5.3471   20.5044  -31.2772 H   0  0  0  0  0  0  0  0  0  0  0  0
   -5.9213   20.7579  -32.9778 H   0  0  0  0  0  0  0  0  0  0  0  0
   -6.0806   18.3721  -33.0128 H   0  0  0  0  0  0  0  0  0  0  0  0
   -3.5733   14.7052  -33.4317 H   0  0  0  0  0  0  0  0  0  0  0  0
   -4.8593   12.6411  -33.9599 H   0  0  0  0  0  0  0  0  0  0  0  0
   -8.3042   15.0803  -34.8359 H   0  0  0  0  0  0  0  0  0  0  0  0
   -6.9922   17.1195  -34.3038 H   0  0  0  0  0  0  0  0  0  0  0  0
   -2.5012   16.2206  -33.9483 H   0  0  0  0  0  0  0  0  0  0  0  0
   -1.2045   18.2448  -33.3812 H   0  0  0  0  0  0  0  0  0  0  0  0
   -0.2803   21.3621  -32.0221 H   0  0  0  0  0  0  0  0  0  0  0  0
   -0.3242   19.6041  -32.3561 H   0  0  0  0  0  0  0  0  0  0  0  0
   -0.3572   18.8973  -35.0920 H   0  0  0  0  0  0  0  0  0  0  0  0
    0.3500   20.3030  -37.2020 H   0  0  0  0  0  0  0  0  0  0  0  0
    0.5420   22.7898  -36.5607 H   0  0  0  0  0  0  0  0  0  0  0  0
  1  2  1  0
  2  3  1  0
  3  4  1  0
  4  5  1  0
  5  6  1  0
  6  7  1  0
  7  8  1  0
  2  9  1  0
  9 10  1  0
 10 11  1  0
 11 12  2  0
 12 13  1  0
 13 14  1  0
 14 15  2  0
 15 16  1  0
 16 17  2  0
 17 18  1  0
 17 19  1  0
 19 20  2  0
 13 21  2  0
 21 22  1  0
 22 23  2  0
 23 24  1  0
 24 25  1  0
 25 26  1  0
 26 27  2  0
 27 28  1  0
 28 29  1  0
 29 30  2  0
 24 31  1  0
 31 32  2  0
  8  3  1  0
 31  9  1  0
 23 11  1  0
 30 26  1  0
 20 14  1  0
  1 33  1  0
  1 34  1  0
  1 35  1  0
  3 36  1  0
  4 37  1  0
  4 38  1  0
  5 39  1  0
  5 40  1  0
  7 41  1  0
  7 42  1  0
  8 43  1  0
  8 44  1  0
  9 45  1  6
 10 46  1  0
 10 47  1  0
 12 48  1  0
 15 49  1  0
 16 50  1  0
 19 51  1  0
 20 52  1  0
 21 53  1  0
 22 54  1  0
 25 55  1  0
 25 56  1  0
 27 57  1  0
 28 58  1  0
 29 59  1  0
M  END
>  <smiles>  (13) 
CN(C1CCOCC1)C1Cc2cc(-c3ccc(F)cc3)ccc2N(Cc2c[nH]cn2)C1=O

>  <score_type>  (13) 
oracle

>  <origin>  (13) 
adg

>  <m_score__min__energy>  (13) 
-9.5999999999999996

>  <m_primary>  (13) 
energy

$$$$
13:0
     RDKit          3D

 32 33  0  0  0  0  0  0  0  0999 V2000
   -2.1880   24.8100  -28.1760 C   0  0  0  0  0  0  0  0  0  0  0  0
   -2.8040   25.2890  -29.3670 O   0  0  0  0  0  0  0  0  0  0  0  0
   -3.8280   24.6210  -30.0540 C   0  0  0  0  0  0  0  0  0  0  0  0
   -5.0900   25.2180  -30.1060 C   0  0  0  0  0  0  0  0  0  0  0  0
   -6.1460   24.5890  -30.7650 C   0  0  0  0  0  0  0  0  0  0  0  0
   -5.9630   23.3440  -31.3770 C   0  0  0  0  0  0  0  0  0  0  0  0
   -7.1040   22.7090  -31.9690 N   0  0  0  0  0  0  0  0  0  0  0  0
   -8.1070   22.0010  -31.2330 C   0  0  0  0  0  0  0  0  0  0  0  0
   -8.3480   22.2960  -30.0320 O   0  0  0  0  0  0  0  0  0  0  0  0
   -8.9310   20.9630  -31.9230 C   0  0  0  0  0  0  0  0  0  0  0  0
   -8.0860   19.8360  -32.3090 N   0  0  0  0  0  0  0  0  0  0  0  0
   -8.4560   18.5430  -32.3490 C   0  0  0  0  0  0  0  0  0  0  0  0
   -7.3510   17.7830  -32.6840 C   0  0  0  0  0  0  0  0  0  0  0  0
   -6.3190   18.6940  -32.8250 C   0  0  0  0  0  0  0  0  0  0  0  0
   -6.7950   19.9290  -32.5850 N   0  0  0  0  0  0  0  0  0  0  0  0
   -4.6790   22.7480  -31.3800 C   0  0  0  0  0  0  0  0  0  0  0  0
   -4.4140   21.5440  -32.1220 N   0  0  0  0  0  0  0  0  0  0  0  0
   -4.3580   21.5720  -33.3690 O   0  0  0  0  0  0  0  0  0  0  0  0
   -4.3960   20.3250  -31.4830 O   0  0  0  0  0  0  0  0  0  0  0  0
   -3.6270   23.3840  -30.6960 C   0  0  0  0  0  0  0  0  0  0  0  0
   -2.7142   25.2192  -27.3009 H   0  0  0  0  0  0  0  0  0  0  0  0
   -2.2383   23.7114  -28.1535 H   0  0  0  0  0  0  0  0  0  0  0  0
   -1.1356   25.1294  -28.1535 H   0  0  0  0  0  0  0  0  0  0  0  0
   -5.2522   26.1928  -29.6229 H   0  0  0  0  0  0  0  0  0  0  0  0
   -7.1316   25.0759  -30.8040 H   0  0  0  0  0  0  0  0  0  0  0  0
   -9.7201   20.6113  -31.2421 H   0  0  0  0  0  0  0  0  0  0  0  0
   -9.3862   21.4006  -32.8237 H   0  0  0  0  0  0  0  0  0  0  0  0
   -9.4662   18.1564  -32.1491 H   0  0  0  0  0  0  0  0  0  0  0  0
   -7.3026   16.6914  -32.8109 H   0  0  0  0  0  0  0  0  0  0  0  0
   -5.2800   18.4485  -33.0899 H   0  0  0  0  0  0  0  0  0  0  0  0
   -6.2460   20.8170  -32.5980 H   0  0  0  0  0  0  0  0  0  0  0  0
   -2.6353   22.9092  -30.6623 H   0  0  0  0  0  0  0  0  0  0  0  0
  1  2  1  0
  2  3  1  0
  3  4  2  0
  4  5  1  0
  5  6  2  0
  6  7  1  0
  7  8  1  0
  8  9  2  0
  8 10  1  0
 10 11  1  0
 11 12  1  0
 12 13  2  0
 13 14  1  0
 14 15  2  0
  6 16  1  0
 16 17  1  0
 17 18  2  0
 17 19  1  0
 16 20  2  0
 20  3  1  0
 15 11  1  0
  1 21  1  0
  1 22  1  0
  1 23  1  0
  4 24  1  0
  5 25  1  0
 10 26  1  0
 10 27  1  0
 12 28  1  0
 13 29  1  0
 14 30  1  0
 15 31  1  0
 20 32  1  0
M  CHG  4   7  -1  15   1  17   1  19  -1
M  END
>  <UniqueID>  (14) 
11

>  <SMILES>  (14) 
COc1ccc([N-]C(=O)Cn2ccc[nH+]2)c([N+](=O)[O-])c1

>  <Energy>  (14) 
69.16541172192129

>  <Genealogy>  (14) 
COc1ccc([N-]C(=O)Cn2ccc[nH+]2)c([N+](=O)[O-])c1 (protonated)
COc1ccc([N-]C(=O)Cn2ccc[nH+]2)c([N+](=O)[O-])c1 (3D coordinates assigned)
COc1ccc([N-]C(=O)Cn2ccc[nH+]2)c([N+](=O)[O-])c1 (optimized conformer: 69.16541172192129 kcal/mol)

>  <smiles>  (14) 
COc1ccc(NC(=O)Cn2cccn2)c([N+](=O)[O-])c1

>  <score_type>  (14) 
oracle

>  <origin>  (14) 
adg

>  <m_score__min__energy>  (14) 
-6.1600000000000001

>  <m_primary>  (14) 
energy

$$$$
14:0
     RDKit          3D

 41 43  0  0  0  0  0  0  0  0999 V2000
   -6.0740   18.2780  -34.2210 C   0  0  0  0  0  0  0  0  0  0  0  0
   -6.2130   17.7750  -32.7880 C   0  0  0  0  0  0  0  0  0  0  0  0
   -7.4310   18.3600  -32.0610 C   0  0  0  0  0  0  0  0  0  0  0  0
   -7.1060   19.5890  -31.4090 O   0  0  0  0  0  0  0  0  0  0  0  0
   -7.6470   20.8570  -31.6890 C   0  0  0  0  0  0  0  0  0  0  0  0
   -9.0350   21.1090  -31.6990 C   0  0  0  0  0  0  0  0  0  0  0  0
   -9.5180   22.3870  -31.9930 C   0  0  0  0  0  0  0  0  0  0  0  0
   -8.6330   23.4230  -32.2910 C   0  0  0  0  0  0  0  0  0  0  0  0
   -7.2570   23.1850  -32.2920 C   0  0  0  0  0  0  0  0  0  0  0  0
   -6.7590   21.9120  -31.9810 C   0  0  0  0  0  0  0  0  0  0  0  0
   -5.3020   21.6810  -32.0100 C   0  0  0  0  0  0  0  0  0  0  0  0
   -4.8230   20.8320  -32.9550 N   0  0  0  0  0  0  0  0  0  0  0  0
   -3.5030   20.5560  -33.0710 C   0  0  0  0  0  0  0  0  0  0  0  0
   -3.1160   19.7560  -33.9650 O   0  0  0  0  0  0  0  0  0  0  0  0
   -2.5930   21.1650  -32.2040 C   0  0  0  0  0  0  0  0  0  0  0  0
   -1.2110   20.9310  -32.2820 C   0  0  0  0  0  0  0  0  0  0  0  0
   -0.3450   21.5810  -31.4030 C   0  0  0  0  0  0  0  0  0  0  0  0
   -0.8660   22.4590  -30.4540 C   0  0  0  0  0  0  0  0  0  0  0  0
   -2.2070   22.6730  -30.3880 N   0  0  0  0  0  0  0  0  0  0  0  0
   -3.0900   22.0550  -31.2260 C   0  0  0  0  0  0  0  0  0  0  0  0
   -4.4400   22.2980  -31.1270 N   0  0  0  0  0  0  0  0  0  0  0  0
   -4.9430   23.2770  -30.1380 C   0  0  0  0  0  0  0  0  0  0  0  0
   -4.7210   24.6720  -30.6290 C   0  0  0  0  0  0  0  0  0  0  0  0
   -5.6410   25.2870  -31.2290 O   0  0  0  0  0  0  0  0  0  0  0  0
   -3.4890   25.2870  -30.4450 O   0  0  0  0  0  0  0  0  0  0  0  0
   -5.7810   19.3382  -34.2107 H   0  0  0  0  0  0  0  0  0  0  0  0
   -5.3047   17.6901  -34.7430 H   0  0  0  0  0  0  0  0  0  0  0  0
   -7.0361   18.1685  -34.7430 H   0  0  0  0  0  0  0  0  0  0  0  0
   -6.3107   16.6795  -32.8093 H   0  0  0  0  0  0  0  0  0  0  0  0
   -5.3164   18.0976  -32.2384 H   0  0  0  0  0  0  0  0  0  0  0  0
   -8.2311   18.5436  -32.7932 H   0  0  0  0  0  0  0  0  0  0  0  0
   -7.7592   17.6387  -31.2981 H   0  0  0  0  0  0  0  0  0  0  0  0
   -9.7406   20.2956  -31.4743 H   0  0  0  0  0  0  0  0  0  0  0  0
  -10.6015   22.5768  -31.9894 H   0  0  0  0  0  0  0  0  0  0  0  0
   -9.0185   24.4263  -32.5250 H   0  0  0  0  0  0  0  0  0  0  0  0
   -6.5606   24.0002  -32.5380 H   0  0  0  0  0  0  0  0  0  0  0  0
   -0.8117   20.2360  -33.0353 H   0  0  0  0  0  0  0  0  0  0  0  0
    0.7390   21.4025  -31.4581 H   0  0  0  0  0  0  0  0  0  0  0  0
   -0.1916   22.9792  -29.7579 H   0  0  0  0  0  0  0  0  0  0  0  0
   -6.0196   23.1144  -29.9818 H   0  0  0  0  0  0  0  0  0  0  0  0
   -4.3998   23.1403  -29.1913 H   0  0  0  0  0  0  0  0  0  0  0  0
  1  2  1  0
  2  3  1  0
  3  4  1  0
  4  5  1  0
  5  6  2  0
  6  7  1  0
  7  8  2  0
  8  9  1  0
  9 10  2  0
 10 11  1  0
 11 12  2  0
 12 13  1  0
 13 14  2  0
 13 15  1  0
 15 16  2  0
 16 17  1  0
 17 18  2  0
 18 19  1  0
 19 20  2  0
 20 21  1  0
 21 22  1  0
 22 23  1  0
 23 24  2  0
 23 25  1  0
 10  5  1  0
 21 11  1  0
 20 15  1  0
  1 26  1  0
  1 27  1  0
  1 28  1  0
  2 29  1  0
  2 30  1  0
  3 31  1  0
  3 32  1  0
  6 33  1  0
  7 34  1  0
  8 35  1  0
  9 36  1  0
 16 37  1  0
 17 38  1  0
 18 39  1  0
 22 40  1  0
 22 41  1  0
M  CHG  1  25  -1
M  END
>  <UniqueID>  (15) 
12

>  <SMILES>  (15) 
CCCOc1ccccc1-c1nc(=O)c2cccnc2n1CC(=O)[O-]

>  <Energy>  (15) 
55.95652236623473

>  <Genealogy>  (15) 
CCCOc1ccccc1-c1nc(=O)c2cccnc2n1CC(=O)[O-] (protonated)
CCCOc1ccccc1-c1nc(=O)c2cccnc2n1CC(=O)[O-] (3D coordinates assigned)
CCCOc1ccccc1-c1nc(=O)c2cccnc2n1CC(=O)[O-] (optimized conformer: 55.95652236623473 kcal/mol)

>  <smiles>  (15) 
CCCOc1ccccc1-c1nc(=O)c2cccnc2n1CC(=O)O

>  <score_type>  (15) 
oracle

>  <origin>  (15) 
adg

>  <m_score__min__energy>  (15) 
-9.6400000000000006

>  <m_primary>  (15) 
energy

$$$$
15:0
     RDKit          3D

 38 40  0  0  0  0  0  0  0  0999 V2000
   -2.8740   21.0640  -33.1110 C   0  0  0  0  0  0  0  0  0  0  0  0
   -4.3420   21.0400  -32.8270 C   0  0  0  0  0  0  0  0  0  0  0  0
   -5.0310   22.2320  -32.5690 C   0  0  0  0  0  0  0  0  0  0  0  0
   -6.4130   22.2010  -32.3020 C   0  0  0  0  0  0  0  0  0  0  0  0
   -7.1450   23.3730  -32.0430 O   0  0  0  0  0  0  0  0  0  0  0  0
   -7.0970   24.1180  -30.8270 C   0  0  0  0  0  0  0  0  0  0  0  0
   -5.7670   24.1480  -30.3150 O   0  0  0  0  0  0  0  0  0  0  0  0
   -4.9450   25.2750  -30.4000 C   0  0  0  0  0  0  0  0  0  0  0  0
   -5.4490   26.4290  -30.4680 O   0  0  0  0  0  0  0  0  0  0  0  0
   -3.5260   25.0920  -30.4630 N   0  0  0  0  0  0  0  0  0  0  0  0
   -2.7440   24.1820  -29.6760 C   0  0  0  0  0  0  0  0  0  0  0  0
   -3.0030   22.7980  -29.6600 C   0  0  0  0  0  0  0  0  0  0  0  0
   -2.2030   21.9410  -28.8950 C   0  0  0  0  0  0  0  0  0  0  0  0
   -1.1360   22.4540  -28.1530 C   0  0  0  0  0  0  0  0  0  0  0  0
   -0.3630   21.6210  -27.4140 F   0  0  0  0  0  0  0  0  0  0  0  0
   -0.8600   23.8230  -28.1820 C   0  0  0  0  0  0  0  0  0  0  0  0
   -1.6550   24.6840  -28.9470 C   0  0  0  0  0  0  0  0  0  0  0  0
   -1.3730   26.0110  -28.9690 F   0  0  0  0  0  0  0  0  0  0  0  0
   -7.0780   20.9600  -32.2950 C   0  0  0  0  0  0  0  0  0  0  0  0
   -8.4570   20.8620  -32.0360 C   0  0  0  0  0  0  0  0  0  0  0  0
   -9.0870   19.6130  -32.0400 C   0  0  0  0  0  0  0  0  0  0  0  0
   -8.3510   18.4540  -32.3010 C   0  0  0  0  0  0  0  0  0  0  0  0
   -6.9810   18.5370  -32.5600 C   0  0  0  0  0  0  0  0  0  0  0  0
   -6.3400   19.7810  -32.5600 C   0  0  0  0  0  0  0  0  0  0  0  0
   -5.0080   19.8550  -32.8150 N   0  0  0  0  0  0  0  0  0  0  0  0
   -2.3171   21.0731  -32.1624 H   0  0  0  0  0  0  0  0  0  0  0  0
   -2.5978   20.1702  -33.6897 H   0  0  0  0  0  0  0  0  0  0  0  0
   -2.6272   21.9663  -33.6897 H   0  0  0  0  0  0  0  0  0  0  0  0
   -4.4928   23.1913  -32.5750 H   0  0  0  0  0  0  0  0  0  0  0  0
   -7.4349   25.1471  -31.0188 H   0  0  0  0  0  0  0  0  0  0  0  0
   -7.7534   23.6364  -30.0873 H   0  0  0  0  0  0  0  0  0  0  0  0
   -3.8363   22.3891  -30.2503 H   0  0  0  0  0  0  0  0  0  0  0  0
   -2.4148   20.8617  -28.8780 H   0  0  0  0  0  0  0  0  0  0  0  0
   -0.0160   24.2252  -27.6023 H   0  0  0  0  0  0  0  0  0  0  0  0
   -9.0420   21.7704  -31.8296 H   0  0  0  0  0  0  0  0  0  0  0  0
  -10.1658   19.5429  -31.8369 H   0  0  0  0  0  0  0  0  0  0  0  0
   -8.8516   17.4745  -32.3025 H   0  0  0  0  0  0  0  0  0  0  0  0
   -6.4047   17.6226  -32.7644 H   0  0  0  0  0  0  0  0  0  0  0  0
  1  2  1  0
  2  3  2  0
  3  4  1  0
  4  5  1  0
  5  6  1  0
  6  7  1  0
  7  8  1  0
  8  9  2  0
  8 10  1  0
 10 11  1  0
 11 12  2  0
 12 13  1  0
 13 14  2  0
 14 15  1  0
 14 16  1  0
 16 17  2  0
 17 18  1  0
  4 19  2  0
 19 20  1  0
 20 21  2  0
 21 22  1  0
 22 23  2  0
 23 24  1  0
 24 25  2  0
 25  2  1  0
 17 11  1  0
 24 19  1  0
  1 26  1  0
  1 27  1  0
  1 28  1  0
  3 29  1  0
  6 30  1  0
  6 31  1  0
 12 32  1  0
 13 33  1  0
 16 34  1  0
 20 35  1  0
 21 36  1  0
 22 37  1  0
 23 38  1  0
M  CHG  1  10  -1
M  END
>  <UniqueID>  (16) 
13

>  <SMILES>  (16) 
Cc1cc(OCOC(=O)[N-]c2ccc(F)cc2F)c2ccccc2n1

>  <Energy>  (16) 
45.17256597351404

>  <Genealogy>  (16) 
Cc1cc(OCOC(=O)[N-]c2ccc(F)cc2F)c2ccccc2n1 (protonated)
Cc1cc(OCOC(=O)[N-]c2ccc(F)cc2F)c2ccccc2n1 (3D coordinates assigned)
Cc1cc(OCOC(=O)[N-]c2ccc(F)cc2F)c2ccccc2n1 (optimized conformer: 45.17256597351404 kcal/mol)

>  <smiles>  (16) 
Cc1cc(OCOC(=O)Nc2ccc(F)cc2F)c2ccccc2n1

>  <score_type>  (16) 
oracle

>  <origin>  (16) 
adg

>  <m_score__min__energy>  (16) 
-9.9299999999999997

>  <m_primary>  (16) 
energy

$$$$
16:0
     RDKit          3D

 45 47  0  0  0  0  0  0  0  0999 V2000
   -9.0920   19.5060  -32.1390 C   0  0  0  0  0  0  0  0  0  0  0  0
   -8.2480   20.0140  -33.1670 O   0  0  0  0  0  0  0  0  0  0  0  0
   -6.8560   20.1510  -33.0540 C   0  0  0  0  0  0  0  0  0  0  0  0
   -6.3350   21.4040  -32.7150 C   0  0  0  0  0  0  0  0  0  0  0  0
   -4.9570   21.5900  -32.5900 C   0  0  0  0  0  0  0  0  0  0  0  0
   -4.0750   20.5200  -32.8020 C   0  0  0  0  0  0  0  0  0  0  0  0
   -2.5870   20.7080  -32.6550 C   0  0  0  0  0  0  0  0  0  0  0  0
   -2.1430   20.2960  -31.3050 N   0  0  0  0  0  0  0  0  0  0  0  0
   -0.7450   20.6990  -31.0400 C   0  0  0  0  0  0  0  0  0  0  0  0
   -0.6270   22.2050  -30.7600 C   0  0  0  0  0  0  0  0  0  0  0  0
   -1.6540   22.6450  -29.8100 N   0  0  0  0  0  0  0  0  0  0  0  0
   -1.6490   24.0070  -29.3440 C   0  0  0  0  0  0  0  0  0  0  0  0
   -0.5570   24.6230  -29.2230 O   0  0  0  0  0  0  0  0  0  0  0  0
   -2.8620   24.6760  -28.9790 N   0  0  0  0  0  0  0  0  0  0  0  0
   -4.1350   24.4760  -29.6080 C   0  0  0  0  0  0  0  0  0  0  0  0
   -4.9900   23.4780  -29.1300 C   0  0  0  0  0  0  0  0  0  0  0  0
   -6.2350   23.2770  -29.7290 C   0  0  0  0  0  0  0  0  0  0  0  0
   -6.6200   24.0930  -30.7940 C   0  0  0  0  0  0  0  0  0  0  0  0
   -5.7920   25.0780  -31.2310 N   0  0  0  0  0  0  0  0  0  0  0  0
   -4.5730   25.2900  -30.6670 C   0  0  0  0  0  0  0  0  0  0  0  0
   -2.5110   21.6390  -29.1750 C   0  0  0  0  0  0  0  0  0  0  0  0
   -3.1040   20.7000  -30.2390 C   0  0  0  0  0  0  0  0  0  0  0  0
   -4.5920   19.2610  -33.1430 C   0  0  0  0  0  0  0  0  0  0  0  0
   -5.9720   19.0750  -33.2690 C   0  0  0  0  0  0  0  0  0  0  0  0
   -8.6678   19.7613  -31.1567 H   0  0  0  0  0  0  0  0  0  0  0  0
  -10.0933   19.9516  -32.2330 H   0  0  0  0  0  0  0  0  0  0  0  0
   -9.1670   18.4126  -32.2330 H   0  0  0  0  0  0  0  0  0  0  0  0
   -7.0170   22.2503  -32.5454 H   0  0  0  0  0  0  0  0  0  0  0  0
   -4.5607   22.5810  -32.3238 H   0  0  0  0  0  0  0  0  0  0  0  0
   -2.0688   20.0968  -33.4086 H   0  0  0  0  0  0  0  0  0  0  0  0
   -2.3471   21.7718  -32.7989 H   0  0  0  0  0  0  0  0  0  0  0  0
   -0.3746   20.1444  -30.1652 H   0  0  0  0  0  0  0  0  0  0  0  0
   -0.1484   20.4706  -31.9355 H   0  0  0  0  0  0  0  0  0  0  0  0
    0.3669   22.4157  -30.3384 H   0  0  0  0  0  0  0  0  0  0  0  0
   -0.7679   22.7493  -31.7054 H   0  0  0  0  0  0  0  0  0  0  0  0
   -4.6812   22.8505  -28.2809 H   0  0  0  0  0  0  0  0  0  0  0  0
   -6.9053   22.4841  -29.3656 H   0  0  0  0  0  0  0  0  0  0  0  0
   -7.5946   23.9386  -31.2801 H   0  0  0  0  0  0  0  0  0  0  0  0
   -3.9287   26.0997  -31.0400 H   0  0  0  0  0  0  0  0  0  0  0  0
   -1.9142   21.0504  -28.4627 H   0  0  0  0  0  0  0  0  0  0  0  0
   -3.3312   22.1473  -28.6470 H   0  0  0  0  0  0  0  0  0  0  0  0
   -3.4616   19.7902  -29.7347 H   0  0  0  0  0  0  0  0  0  0  0  0
   -3.9107   21.2579  -30.7371 H   0  0  0  0  0  0  0  0  0  0  0  0
   -3.9082   18.4161  -33.3121 H   0  0  0  0  0  0  0  0  0  0  0  0
   -6.3691   18.0848  -33.5370 H   0  0  0  0  0  0  0  0  0  0  0  0
  1  2  1  0
  2  3  1  0
  3  4  2  0
  4  5  1  0
  5  6  2  0
  6  7  1  0
  7  8  1  0
  8  9  1  0
  9 10  1  0
 10 11  1  0
 11 12  1  0
 12 13  2  0
 12 14  1  0
 14 15  1  0
 15 16  2  0
 16 17  1  0
 17 18  2  0
 18 19  1  0
 19 20  2  0
 11 21  1  0
 21 22  1  0
  6 23  1  0
 23 24  2  0
 24  3  1  0
 22  8  1  0
 20 15  1  0
  1 25  1  0
  1 26  1  0
  1 27  1  0
  4 28  1  0
  5 29  1  0
  7 30  1  0
  7 31  1  0
  9 32  1  0
  9 33  1  0
 10 34  1  0
 10 35  1  0
 16 36  1  0
 17 37  1  0
 18 38  1  0
 20 39  1  0
 21 40  1  0
 21 41  1  0
 22 42  1  0
 22 43  1  0
 23 44  1  0
 24 45  1  0
M  CHG  1  14  -1
M  END
>  <UniqueID>  (17) 
14

>  <SMILES>  (17) 
COc1ccc(CN2CCN(C(=O)[N-]c3cccnc3)CC2)cc1

>  <Energy>  (17) 
58.4384308188426

>  <Genealogy>  (17) 
COc1ccc(CN2CCN(C(=O)[N-]c3cccnc3)CC2)cc1 (protonated)
COc1ccc(CN2CCN(C(=O)[N-]c3cccnc3)CC2)cc1 (3D coordinates assigned)
COc1ccc(CN2CCN(C(=O)[N-]c3cccnc3)CC2)cc1 (nonaromatic ring conformer: 58.4384308188426 kcal/mol)

>  <smiles>  (17) 
COc1ccc(CN2CCN(C(=O)Nc3cccnc3)CC2)cc1

>  <score_type>  (17) 
oracle

>  <origin>  (17) 
adg

>  <m_score__min__energy>  (17) 
-8.1600000000000001

>  <m_primary>  (17) 
energy

$$$$
17:0
     RDKit          3D

 59 61  0  0  1  0  0  0  0  0999 V2000
   -3.1050   21.1180  -27.9260 C   0  0  0  0  0  0  0  0  0  0  0  0
   -2.9700   22.5750  -27.5290 C   0  0  0  0  0  0  0  0  0  0  0  0
   -4.2150   23.2710  -27.5460 N   0  0  0  0  0  0  0  0  0  0  0  0
   -4.1840   24.5680  -26.9030 C   0  0  0  0  0  0  0  0  0  0  0  0
   -2.8010   25.0200  -26.5520 C   0  0  0  0  0  0  0  0  0  0  0  0
   -4.8930   23.2930  -28.8020 C   0  0  0  0  0  0  0  0  0  0  0  0
   -5.0150   24.7110  -29.2960 C   0  0  0  0  0  0  0  0  0  0  0  0
   -6.0640   24.7800  -30.3900 C   0  0  0  0  0  0  0  0  0  0  0  0
   -5.7310   23.7290  -31.4490 C   0  0  0  0  0  0  0  0  0  0  0  0
   -4.3240   23.6130  -31.5200 O   0  0  0  0  0  0  0  0  0  0  0  0
   -3.6460   22.4390  -31.7910 C   0  0  0  0  0  0  0  0  0  0  0  0
   -4.1220   21.4480  -32.6220 C   0  0  0  0  0  0  0  0  0  0  0  0
   -3.3210   20.3250  -32.7960 C   0  0  0  0  0  0  0  0  0  0  0  0
   -3.7260   19.2820  -33.6130 C   0  0  0  0  0  0  0  0  0  0  0  0
   -4.8680   19.3380  -34.2320 N   0  0  0  0  0  0  0  0  0  0  0  0
   -6.0610   19.1040  -33.4610 C   0  0  0  0  0  0  0  0  0  0  0  0
   -6.3270   17.8090  -33.0270 C   0  0  0  0  0  0  0  0  0  0  0  0
   -7.4370   17.4850  -32.2890 C   0  0  0  0  0  0  0  0  0  0  0  0
   -8.3130   18.5190  -31.9790 C   0  0  0  0  0  0  0  0  0  0  0  0
   -9.4220   18.2280  -31.2510 F   0  0  0  0  0  0  0  0  0  0  0  0
   -8.0620   19.8260  -32.4060 C   0  0  0  0  0  0  0  0  0  0  0  0
   -9.2410   21.0430  -31.9520 Cl  0  0  0  0  0  0  0  0  0  0  0  0
   -6.9440   20.1050  -33.1400 C   0  0  0  0  0  0  0  0  0  0  0  0
   -2.9600   18.1860  -33.7920 N   0  0  0  0  0  0  0  0  0  0  0  0
   -1.7840   18.1430  -33.1440 C   0  0  0  0  0  0  0  0  0  0  0  0
   -1.3280   19.1030  -32.3440 N   0  0  0  0  0  0  0  0  0  0  0  0
   -2.1000   20.1920  -32.1710 C   0  0  0  0  0  0  0  0  0  0  0  0
   -1.6300   21.1760  -31.3500 C   0  0  0  0  0  0  0  0  0  0  0  0
   -2.4060   22.2950  -31.1640 C   0  0  0  0  0  0  0  0  0  0  0  0
   -1.9200   23.3010  -30.3180 O   0  0  0  0  0  0  0  0  0  0  0  0
   -0.6850   23.0840  -29.6750 C   0  0  0  0  0  0  0  0  0  0  0  0
   -3.1627   20.4952  -27.0211 H   0  0  0  0  0  0  0  0  0  0  0  0
   -4.0194   20.9837  -28.5225 H   0  0  0  0  0  0  0  0  0  0  0  0
   -2.2308   20.8180  -28.5225 H   0  0  0  0  0  0  0  0  0  0  0  0
   -2.5535   22.6249  -26.5121 H   0  0  0  0  0  0  0  0  0  0  0  0
   -2.3106   23.0586  -28.2647 H   0  0  0  0  0  0  0  0  0  0  0  0
   -4.6306   25.3068  -27.5847 H   0  0  0  0  0  0  0  0  0  0  0  0
   -4.7473   24.4797  -25.9623 H   0  0  0  0  0  0  0  0  0  0  0  0
   -2.6934   25.0552  -25.4578 H   0  0  0  0  0  0  0  0  0  0  0  0
   -2.0676   24.3148  -26.9701 H   0  0  0  0  0  0  0  0  0  0  0  0
   -2.6256   26.0222  -26.9701 H   0  0  0  0  0  0  0  0  0  0  0  0
   -4.3245   22.6999  -29.5335 H   0  0  0  0  0  0  0  0  0  0  0  0
   -5.8990   22.8659  -28.6772 H   0  0  0  0  0  0  0  0  0  0  0  0
   -5.3116   25.3648  -28.4626 H   0  0  0  0  0  0  0  0  0  0  0  0
   -4.0461   25.0428  -29.6973 H   0  0  0  0  0  0  0  0  0  0  0  0
   -7.0577   24.5760  -29.9645 H   0  0  0  0  0  0  0  0  0  0  0  0
   -6.0704   25.7824  -30.8430 H   0  0  0  0  0  0  0  0  0  0  0  0
   -6.1718   22.7615  -31.1667 H   0  0  0  0  0  0  0  0  0  0  0  0
   -6.1403   24.0267  -32.4257 H   0  0  0  0  0  0  0  0  0  0  0  0
   -5.0950   21.5416  -33.1265 H   0  0  0  0  0  0  0  0  0  0  0  0
   -5.6165   17.0105  -33.2869 H   0  0  0  0  0  0  0  0  0  0  0  0
   -7.6255   16.4533  -31.9574 H   0  0  0  0  0  0  0  0  0  0  0  0
   -6.7508   21.1348  -33.4748 H   0  0  0  0  0  0  0  0  0  0  0  0
   -1.1544   17.2520  -33.2847 H   0  0  0  0  0  0  0  0  0  0  0  0
   -0.4000   19.0200  -31.8600 H   0  0  0  0  0  0  0  0  0  0  0  0
   -0.6553   21.0759  -30.8501 H   0  0  0  0  0  0  0  0  0  0  0  0
   -0.8297   23.1094  -28.5849 H   0  0  0  0  0  0  0  0  0  0  0  0
   -0.2860   22.1020  -29.9691 H   0  0  0  0  0  0  0  0  0  0  0  0
    0.0248   23.8712  -29.9691 H   0  0  0  0  0  0  0  0  0  0  0  0
  1  2  1  0
  2  3  1  0
  3  4  1  0
  4  5  1  0
  3  6  1  0
  6  7  1  0
  7  8  1  0
  8  9  1  0
  9 10  1  0
 10 11  1  0
 11 12  2  0
 12 13  1  0
 13 14  1  0
 14 15  2  0
 15 16  1  0
 16 17  2  0
 17 18  1  0
 18 19  2  0
 19 20  1  0
 19 21  1  0
 21 22  1  0
 21 23  2  0
 14 24  1  0
 24 25  2  0
 25 26  1  0
 26 27  1  0
 27 28  1  0
 28 29  2  0
 29 30  1  0
 30 31  1  0
 29 11  1  0
 27 13  2  0
 23 16  1  0
  1 32  1  0
  1 33  1  0
  1 34  1  0
  2 35  1  0
  2 36  1  0
  4 37  1  0
  4 38  1  0
  5 39  1  0
  5 40  1  0
  5 41  1  0
  6 42  1  0
  6 43  1  0
  7 44  1  0
  7 45  1  0
  8 46  1  0
  8 47  1  0
  9 48  1  0
  9 49  1  0
 12 50  1  0
 17 51  1  0
 18 52  1  0
 23 53  1  0
 25 54  1  0
 26 55  1  0
 28 56  1  0
 31 57  1  0
 31 58  1  0
 31 59  1  0
M  END
>  <smiles>  (18) 
CCN(CC)CCCCOc1cc2c(=Nc3ccc(F)c(Cl)c3)nc[nH]c2cc1OC

>  <score_type>  (18) 
oracle

>  <origin>  (18) 
adg

>  <m_score__min__energy>  (18) 
-8.6600000000000001

>  <m_primary>  (18) 
energy

$$$$
18:0
     RDKit          3D

 31 33  0  0  0  0  0  0  0  0999 V2000
   -4.9448   20.9673  -30.8060 H   0  0  0  0  0  0  0  0  0  0  0  0
   -5.4290   21.9540  -30.8500 C   0  0  0  0  0  0  0  0  0  0  0  0
   -4.7090   23.0200  -30.4710 C   0  0  0  0  0  0  0  0  0  0  0  0
   -3.3480   22.8540  -29.3130 S   0  0  0  0  0  0  0  0  0  0  0  0
   -2.9640   24.5790  -29.6330 C   0  0  0  0  0  0  0  0  0  0  0  0
   -1.9370   25.1310  -29.1620 O   0  0  0  0  0  0  0  0  0  0  0  0
   -3.8780   25.2900  -30.4560 N   0  0  0  0  0  0  0  0  0  0  0  0
   -4.8860   24.4080  -30.9120 C   0  0  0  0  0  0  0  0  0  0  0  0
   -5.8630   24.8210  -31.5900 O   0  0  0  0  0  0  0  0  0  0  0  0
   -6.8230   22.0130  -31.3210 C   0  0  0  0  0  0  0  0  0  0  0  0
   -7.5220   21.0890  -32.0910 C   0  0  0  0  0  0  0  0  0  0  0  0
   -7.0670   19.7830  -32.6160 C   0  0  0  0  0  0  0  0  0  0  0  0
   -6.3800   19.7350  -33.8390 C   0  0  0  0  0  0  0  0  0  0  0  0
   -6.1905   20.6647  -34.3955 H   0  0  0  0  0  0  0  0  0  0  0  0
   -5.9350   18.5150  -34.3550 C   0  0  0  0  0  0  0  0  0  0  0  0
   -5.3885   18.4908  -35.3093 H   0  0  0  0  0  0  0  0  0  0  0  0
   -6.1830   17.3170  -33.6590 C   0  0  0  0  0  0  0  0  0  0  0  0
   -5.7530   16.0680  -34.1330 O   0  0  0  0  0  0  0  0  0  0  0  0
   -5.0570   15.1070  -33.3480 C   0  0  0  0  0  0  0  0  0  0  0  0
   -5.2133   15.3228  -32.2808 H   0  0  0  0  0  0  0  0  0  0  0  0
   -5.4372   14.1008  -33.5782 H   0  0  0  0  0  0  0  0  0  0  0  0
   -3.9824   15.1544  -33.5782 H   0  0  0  0  0  0  0  0  0  0  0  0
   -6.8870   17.3640  -32.4520 C   0  0  0  0  0  0  0  0  0  0  0  0
   -7.0911   16.4324  -31.9039 H   0  0  0  0  0  0  0  0  0  0  0  0
   -7.3340   18.5830  -31.9350 C   0  0  0  0  0  0  0  0  0  0  0  0
   -7.8975   18.6033  -30.9905 H   0  0  0  0  0  0  0  0  0  0  0  0
   -8.7290   21.5710  -32.2910 O   0  0  0  0  0  0  0  0  0  0  0  0
   -8.8070   22.7230  -31.6610 C   0  0  0  0  0  0  0  0  0  0  0  0
   -9.7043   23.3591  -31.6473 H   0  0  0  0  0  0  0  0  0  0  0  0
   -7.6550   23.0290  -31.0350 N   0  0  0  0  0  0  0  0  0  0  0  0
   -7.4490   23.8840  -30.4730 H   0  0  0  0  0  0  0  0  0  0  0  0
  1  2  1  0
  2  3  2  0
  3  4  1  0
  4  5  1  0
  5  6  2  0
  5  7  1  0
  7  8  1  0
  8  9  2  0
  2 10  1  0
 10 11  2  0
 11 12  1  0
 12 13  2  0
 13 14  1  0
 13 15  1  0
 15 16  1  0
 15 17  2  0
 17 18  1  0
 18 19  1  0
 19 20  1  0
 19 21  1  0
 19 22  1  0
 17 23  1  0
 23 24  1  0
 23 25  2  0
 25 26  1  0
 11 27  1  0
 27 28  1  0
 28 29  1  0
 28 30  2  0
 30 31  1  0
  8  3  1  0
 30 10  1  0
 25 12  1  0
M  CHG  2   7  -1  30   1
M  END
>  <UniqueID>  (19) 
15

>  <SMILES>  (19) 
COc1ccc(-c2oc[nH+]c2/C=C2/SC(=O)[N-]C2=O)cc1

>  <Energy>  (19) 
92.62215703732788

>  <Genealogy>  (19) 
COc1ccc(-c2oc[nH+]c2C=C2SC(=O)[N-]C2=O)cc1 (protonated)
COc1ccc(-c2oc[nH+]c2/C=C2/SC(=O)[N-]C2=O)cc1 (cis-trans isomerization)
COc1ccc(-c2oc[nH+]c2/C=C2/SC(=O)[N-]C2=O)cc1 (3D coordinates assigned)
COc1ccc(-c2oc[nH+]c2/C=C2/SC(=O)[N-]C2=O)cc1 (nonaromatic ring conformer: 92.62215703732788 kcal/mol)

>  <smiles>  (19) 
COc1ccc(-c2ocnc2C=C2SC(=O)NC2=O)cc1

>  <score_type>  (19) 
oracle

>  <origin>  (19) 
adg

>  <m_score__min__energy>  (19) 
-8.7799999999999994

>  <m_primary>  (19) 
energy

$$$$
19:0
     RDKit          3D

 26 27  0  0  0  0  0  0  0  0999 V2000
   -1.5800   25.6730  -29.3020 O   0  0  0  0  0  0  0  0  0  0  0  0
   -1.7870   24.4730  -28.9810 C   0  0  0  0  0  0  0  0  0  0  0  0
   -1.8630   24.1220  -27.6400 O   0  0  0  0  0  0  0  0  0  0  0  0
   -1.8890   23.4200  -30.0370 C   0  0  0  0  0  0  0  0  0  0  0  0
   -3.2820   23.2590  -30.4470 N   0  0  0  0  0  0  0  0  0  0  0  0
   -4.1820   24.2450  -30.6570 C   0  0  0  0  0  0  0  0  0  0  0  0
   -3.8970   25.6010  -30.5470 O   0  0  0  0  0  0  0  0  0  0  0  0
   -5.4130   23.7110  -30.9800 C   0  0  0  0  0  0  0  0  0  0  0  0
   -5.2760   22.3420  -30.9170 C   0  0  0  0  0  0  0  0  0  0  0  0
   -3.9500   22.0940  -30.6040 C   0  0  0  0  0  0  0  0  0  0  0  0
   -3.3660   20.8380  -30.4600 O   0  0  0  0  0  0  0  0  0  0  0  0
   -6.3750   21.3760  -31.2430 C   0  0  0  0  0  0  0  0  0  0  0  0
   -7.7460   22.0770  -31.1730 C   0  0  0  0  0  0  0  0  0  0  0  0
   -7.7260   23.4520  -31.8760 C   0  0  0  0  0  0  0  0  0  0  0  0
   -6.7140   24.4140  -31.2210 C   0  0  0  0  0  0  0  0  0  0  0  0
   -1.2848   23.7165  -30.9071 H   0  0  0  0  0  0  0  0  0  0  0  0
   -1.5180   22.4662  -29.6338 H   0  0  0  0  0  0  0  0  0  0  0  0
   -2.3680   20.7360  -30.3300 H   0  0  0  0  0  0  0  0  0  0  0  0
   -6.2212   20.9815  -32.2582 H   0  0  0  0  0  0  0  0  0  0  0  0
   -6.3567   20.5550  -30.5112 H   0  0  0  0  0  0  0  0  0  0  0  0
   -8.4971   21.4388  -31.6613 H   0  0  0  0  0  0  0  0  0  0  0  0
   -7.9923   22.2393  -30.1133 H   0  0  0  0  0  0  0  0  0  0  0  0
   -7.4499   23.3087  -32.9311 H   0  0  0  0  0  0  0  0  0  0  0  0
   -8.7282   23.8967  -31.7871 H   0  0  0  0  0  0  0  0  0  0  0  0
   -6.5450   25.2726  -31.8876 H   0  0  0  0  0  0  0  0  0  0  0  0
   -7.1188   24.7598  -30.2584 H   0  0  0  0  0  0  0  0  0  0  0  0
  1  2  2  0
  2  3  1  0
  2  4  1  0
  4  5  1  0
  5  6  1  0
  6  7  1  0
  6  8  2  0
  8  9  1  0
  9 10  2  0
 10 11  1  0
  9 12  1  0
 12 13  1  0
 13 14  1  0
 14 15  1  0
 10  5  1  0
 15  8  1  0
  4 16  1  0
  4 17  1  0
 11 18  1  0
 12 19  1  0
 12 20  1  0
 13 21  1  0
 13 22  1  0
 14 23  1  0
 14 24  1  0
 15 25  1  0
 15 26  1  0
M  CHG  2   3  -1   7  -1
M  END
>  <UniqueID>  (20) 
16

>  <SMILES>  (20) 
O=C([O-])Cn1c([O-])c2c(c1O)CCCC2

>  <Energy>  (20) 
51.46869154451828

>  <Genealogy>  (20) 
O=C([O-])Cn1c([O-])c2c(c1O)CCCC2 (protonated)
O=C([O-])Cn1c([O-])c2c(c1O)CCCC2 (3D coordinates assigned)
O=C([O-])Cn1c([O-])c2c(c1O)CCCC2 (nonaromatic ring conformer: 51.46869154451828 kcal/mol)

>  <smiles>  (20) 
O=C(O)Cn1c(O)c2c(c1O)CCCC2

>  <score_type>  (20) 
oracle

>  <origin>  (20) 
adg

>  <m_score__min__energy>  (20) 
-9.7799999999999994

>  <m_primary>  (20) 
energy

$$$$
20:0
     RDKit          3D

 66 69  0  0  0  0  0  0  0  0999 V2000
   -8.6150   18.1750  -31.5880 C   0  0  0  0  0  0  0  0  0  0  0  0
   -8.8050   19.6730  -31.7660 C   0  0  0  0  0  0  0  0  0  0  0  0
   -8.1280   20.2020  -33.0420 C   0  0  0  0  0  0  0  0  0  0  0  0
   -6.6660   20.3850  -32.8740 N   0  0  0  0  0  0  0  0  0  0  0  0
   -6.1410   21.4620  -32.1850 C   0  0  0  0  0  0  0  0  0  0  0  0
   -7.1820   22.7150  -31.3940 S   0  0  0  0  0  0  0  0  0  0  0  0
   -6.1240   24.1660  -31.7470 C   0  0  0  0  0  0  0  0  0  0  0  0
   -4.9770   24.2730  -30.7950 C   0  0  0  0  0  0  0  0  0  0  0  0
   -4.2390   25.2940  -30.8330 O   0  0  0  0  0  0  0  0  0  0  0  0
   -4.6930   23.1970  -29.8860 N   0  0  0  0  0  0  0  0  0  0  0  0
   -3.7220   23.2800  -28.8270 C   0  0  0  0  0  0  0  0  0  0  0  0
   -3.5920   24.4690  -28.1060 C   0  0  0  0  0  0  0  0  0  0  0  0
   -2.6520   24.5730  -27.0800 C   0  0  0  0  0  0  0  0  0  0  0  0
   -1.8120   23.4890  -26.7660 C   0  0  0  0  0  0  0  0  0  0  0  0
   -0.8590   23.5690  -25.7370 O   0  0  0  0  0  0  0  0  0  0  0  0
   -0.7820   24.6250  -24.7850 C   0  0  0  0  0  0  0  0  0  0  0  0
   -1.9160   22.2940  -27.5080 C   0  0  0  0  0  0  0  0  0  0  0  0
   -0.8100   20.9480  -27.1340 S   0  0  0  0  0  0  0  0  0  0  0  0
   -1.3250   20.2470  -25.9070 O   0  0  0  0  0  0  0  0  0  0  0  0
    0.5400   21.5320  -26.8170 O   0  0  0  0  0  0  0  0  0  0  0  0
   -0.6010   19.7540  -28.3990 N   0  0  0  0  0  0  0  0  0  0  0  0
    0.2760   20.2450  -29.4800 C   0  0  0  0  0  0  0  0  0  0  0  0
    0.3020   19.2580  -30.6610 C   0  0  0  0  0  0  0  0  0  0  0  0
    0.2570   17.7810  -30.2250 C   0  0  0  0  0  0  0  0  0  0  0  0
    0.6760   17.6090  -28.7640 C   0  0  0  0  0  0  0  0  0  0  0  0
   -0.2560   18.4210  -27.8480 C   0  0  0  0  0  0  0  0  0  0  0  0
   -2.8630   22.2090  -28.5430 C   0  0  0  0  0  0  0  0  0  0  0  0
   -4.7970   21.6520  -32.1410 N   0  0  0  0  0  0  0  0  0  0  0  0
   -3.9300   20.7850  -32.7110 C   0  0  0  0  0  0  0  0  0  0  0  0
   -2.5500   21.0020  -32.6080 C   0  0  0  0  0  0  0  0  0  0  0  0
   -1.6540   20.1030  -33.1950 C   0  0  0  0  0  0  0  0  0  0  0  0
   -2.1350   18.9920  -33.8930 C   0  0  0  0  0  0  0  0  0  0  0  0
   -3.5130   18.7730  -34.0050 C   0  0  0  0  0  0  0  0  0  0  0  0
   -4.4210   19.6690  -33.4080 C   0  0  0  0  0  0  0  0  0  0  0  0
   -5.8120   19.5010  -33.4970 C   0  0  0  0  0  0  0  0  0  0  0  0
   -6.2760   18.5390  -34.1760 O   0  0  0  0  0  0  0  0  0  0  0  0
   -8.5845   17.9342  -30.5151 H   0  0  0  0  0  0  0  0  0  0  0  0
   -9.4525   17.6405  -32.0601 H   0  0  0  0  0  0  0  0  0  0  0  0
   -7.6705   17.8665  -32.0601 H   0  0  0  0  0  0  0  0  0  0  0  0
   -9.8823   19.8883  -31.8223 H   0  0  0  0  0  0  0  0  0  0  0  0
   -8.3383   20.1750  -30.9057 H   0  0  0  0  0  0  0  0  0  0  0  0
   -8.3025   19.4847  -33.8575 H   0  0  0  0  0  0  0  0  0  0  0  0
   -8.5645   21.1858  -33.2691 H   0  0  0  0  0  0  0  0  0  0  0  0
   -5.7285   24.0758  -32.7695 H   0  0  0  0  0  0  0  0  0  0  0  0
   -6.7414   25.0695  -31.6350 H   0  0  0  0  0  0  0  0  0  0  0  0
   -5.1550   22.2760  -30.0630 H   0  0  0  0  0  0  0  0  0  0  0  0
   -4.2343   25.3285  -28.3483 H   0  0  0  0  0  0  0  0  0  0  0  0
   -2.5670   25.5109  -26.5116 H   0  0  0  0  0  0  0  0  0  0  0  0
   -0.8126   24.2054  -23.7686 H   0  0  0  0  0  0  0  0  0  0  0  0
    0.1588   25.1774  -24.9254 H   0  0  0  0  0  0  0  0  0  0  0  0
   -1.6327   25.3080  -24.9254 H   0  0  0  0  0  0  0  0  0  0  0  0
   -0.0976   21.2177  -29.8324 H   0  0  0  0  0  0  0  0  0  0  0  0
    1.2975   20.3447  -29.0843 H   0  0  0  0  0  0  0  0  0  0  0  0
   -0.5687   19.4589  -31.3025 H   0  0  0  0  0  0  0  0  0  0  0  0
    1.2534   19.4112  -31.1914 H   0  0  0  0  0  0  0  0  0  0  0  0
   -0.7690   17.4041  -30.3483 H   0  0  0  0  0  0  0  0  0  0  0  0
    0.9625   17.2167  -30.8526 H   0  0  0  0  0  0  0  0  0  0  0  0
    0.6174   16.5449  -28.4915 H   0  0  0  0  0  0  0  0  0  0  0  0
    1.7074   17.9707  -28.6401 H   0  0  0  0  0  0  0  0  0  0  0  0
   -1.1858   17.8517  -27.7023 H   0  0  0  0  0  0  0  0  0  0  0  0
    0.2795   18.5872  -26.9016 H   0  0  0  0  0  0  0  0  0  0  0  0
   -2.9313   21.2875  -29.1398 H   0  0  0  0  0  0  0  0  0  0  0  0
   -2.1708   21.8802  -32.0650 H   0  0  0  0  0  0  0  0  0  0  0  0
   -0.5704   20.2704  -33.1073 H   0  0  0  0  0  0  0  0  0  0  0  0
   -1.4285   18.2873  -34.3559 H   0  0  0  0  0  0  0  0  0  0  0  0
   -3.8872   17.9001  -34.5599 H   0  0  0  0  0  0  0  0  0  0  0  0
  1  2  1  0
  2  3  1  0
  3  4  1  0
  4  5  1  0
  5  6  1  0
  6  7  1  0
  7  8  1  0
  8  9  2  0
  8 10  1  0
 10 11  1  0
 11 12  2  0
 12 13  1  0
 13 14  2  0
 14 15  1  0
 15 16  1  0
 14 17  1  0
 17 18  1  0
 18 19  2  0
 18 20  2  0
 18 21  1  0
 21 22  1  0
 22 23  1  0
 23 24  1  0
 24 25  1  0
 25 26  1  0
 17 27  2  0
  5 28  2  0
 28 29  1  0
 29 30  2  0
 30 31  1  0
 31 32  2  0
 32 33  1  0
 33 34  2  0
 34 35  1  0
 35 36  2  0
 35  4  1  0
 27 11  1  0
 34 29  1  0
 26 21  1  0
  1 37  1  0
  1 38  1  0
  1 39  1  0
  2 40  1  0
  2 41  1  0
  3 42  1  0
  3 43  1  0
  7 44  1  0
  7 45  1  0
 10 46  1  0
 12 47  1  0
 13 48  1  0
 16 49  1  0
 16 50  1  0
 16 51  1  0
 22 52  1  0
 22 53  1  0
 23 54  1  0
 23 55  1  0
 24 56  1  0
 24 57  1  0
 25 58  1  0
 25 59  1  0
 26 60  1  0
 26 61  1  0
 27 62  1  0
 30 63  1  0
 31 64  1  0
 32 65  1  0
 33 66  1  0
M  END
>  <UniqueID>  (21) 
17

>  <SMILES>  (21) 
CCCn1c(SCC(=O)Nc2ccc(OC)c(S(=O)(=O)N3CCCCC3)c2)nc2ccccc2c1=O

>  <Energy>  (21) 
82.6696807938399

>  <Genealogy>  (21) 
CCCn1c(SCC(=O)Nc2ccc(OC)c(S(=O)(=O)N3CCCCC3)c2)nc2ccccc2c1=O (3D coordinates assigned)
CCCn1c(SCC(=O)Nc2ccc(OC)c(S(=O)(=O)N3CCCCC3)c2)nc2ccccc2c1=O (nonaromatic ring conformer: 82.6696807938399 kcal/mol)

>  <smiles>  (21) 
CCCn1c(SCC(=O)Nc2ccc(OC)c(S(=O)(=O)N3CCCCC3)c2)nc2ccccc2c1=O

>  <score_type>  (21) 
oracle

>  <origin>  (21) 
adg

>  <m_score__min__energy>  (21) 
-11.289999999999999

>  <m_primary>  (21) 
energy

$$$$
21:0
     RDKit          3D

 53 55  0  0  0  0  0  0  0  0999 V2000
   -3.0882   20.7354  -29.3187 H   0  0  0  0  0  0  0  0  0  0  0  0
   -3.5590   21.3450  -30.1040 C   0  0  0  0  0  0  0  0  0  0  0  0
   -4.1200   20.7240  -31.2230 C   0  0  0  0  0  0  0  0  0  0  0  0
   -4.0924   19.6280  -31.3120 H   0  0  0  0  0  0  0  0  0  0  0  0
   -4.7180   21.4910  -32.2330 C   0  0  0  0  0  0  0  0  0  0  0  0
   -5.2870   20.8160  -33.4570 C   0  0  0  0  0  0  0  0  0  0  0  0
   -4.4871   20.6906  -34.2016 H   0  0  0  0  0  0  0  0  0  0  0  0
   -6.0954   21.4459  -33.8568 H   0  0  0  0  0  0  0  0  0  0  0  0
   -5.8460   19.4970  -33.1280 N   0  0  0  0  0  0  0  0  0  0  0  0
   -7.2090   19.2370  -32.7380 C   0  0  0  0  0  0  0  0  0  0  0  0
   -8.2030   19.9710  -33.1620 N   0  0  0  0  0  0  0  0  0  0  0  0
   -8.4370   19.9910  -34.1770 H   0  0  0  0  0  0  0  0  0  0  0  0
   -9.0840   20.7410  -32.2790 C   0  0  0  0  0  0  0  0  0  0  0  0
   -9.3448   20.1233  -31.4070 H   0  0  0  0  0  0  0  0  0  0  0  0
   -9.9851   21.0178  -32.8459 H   0  0  0  0  0  0  0  0  0  0  0  0
   -8.4040   22.0320  -31.7920 C   0  0  0  0  0  0  0  0  0  0  0  0
   -9.1841   22.7829  -31.5981 H   0  0  0  0  0  0  0  0  0  0  0  0
   -7.7061   22.3444  -32.5828 H   0  0  0  0  0  0  0  0  0  0  0  0
   -7.5740   21.8510  -30.5070 C   0  0  0  0  0  0  0  0  0  0  0  0
   -6.6338   21.3415  -30.7647 H   0  0  0  0  0  0  0  0  0  0  0  0
   -8.1782   21.2604  -29.8027 H   0  0  0  0  0  0  0  0  0  0  0  0
   -7.2400   23.1770  -29.8270 C   0  0  0  0  0  0  0  0  0  0  0  0
   -7.2726   23.0476  -28.7351 H   0  0  0  0  0  0  0  0  0  0  0  0
   -6.2325   23.4999  -30.1280 H   0  0  0  0  0  0  0  0  0  0  0  0
   -7.9744   23.9386  -30.1280 H   0  0  0  0  0  0  0  0  0  0  0  0
   -7.4420   17.6090  -31.9690 S   0  0  0  0  0  0  0  0  0  0  0  0
   -6.0390   17.1430  -33.0140 C   0  0  2  0  0  0  0  0  0  0  0  0
   -6.4875   16.9310  -33.9958 H   0  0  0  0  0  0  0  0  0  0  0  0
   -5.2530   15.8800  -32.7210 C   0  0  0  0  0  0  0  0  0  0  0  0
   -5.0886   15.7491  -31.6413 H   0  0  0  0  0  0  0  0  0  0  0  0
   -5.7543   14.9533  -33.0371 H   0  0  0  0  0  0  0  0  0  0  0  0
   -3.7210   16.2150  -33.5810 S   0  0  0  0  0  0  0  0  0  0  0  0
   -3.6400   15.4680  -34.8840 O   0  0  0  0  0  0  0  0  0  0  0  0
   -2.5270   15.9150  -32.7180 O   0  0  0  0  0  0  0  0  0  0  0  0
   -3.9190   17.9720  -33.8470 C   0  0  0  0  0  0  0  0  0  0  0  0
   -3.0046   18.5240  -33.5840 H   0  0  0  0  0  0  0  0  0  0  0  0
   -4.1181   18.2481  -34.8930 H   0  0  0  0  0  0  0  0  0  0  0  0
   -5.0590   18.2960  -32.8910 C   0  0  1  0  0  0  0  0  0  0  0  0
   -4.5710   18.4599  -31.9189 H   0  0  0  0  0  0  0  0  0  0  0  0
   -4.7730   22.8880  -32.0990 C   0  0  0  0  0  0  0  0  0  0  0  0
   -5.2620   23.4922  -32.8774 H   0  0  0  0  0  0  0  0  0  0  0  0
   -4.2060   23.5220  -30.9740 C   0  0  0  0  0  0  0  0  0  0  0  0
   -4.2290   24.9180  -30.8160 O   0  0  0  0  0  0  0  0  0  0  0  0
   -5.3880   25.6740  -30.4760 C   0  0  0  0  0  0  0  0  0  0  0  0
   -5.4790   25.7333  -29.3814 H   0  0  0  0  0  0  0  0  0  0  0  0
   -5.2992   26.6884  -30.8921 H   0  0  0  0  0  0  0  0  0  0  0  0
   -6.2806   25.1839  -30.8921 H   0  0  0  0  0  0  0  0  0  0  0  0
   -3.5930   22.7480  -29.9760 C   0  0  0  0  0  0  0  0  0  0  0  0
   -3.0250   23.4100  -28.8730 O   0  0  0  0  0  0  0  0  0  0  0  0
   -3.7580   23.8680  -27.7390 C   0  0  0  0  0  0  0  0  0  0  0  0
   -3.2470   23.5487  -26.8187 H   0  0  0  0  0  0  0  0  0  0  0  0
   -3.8203   24.9660  -27.7617 H   0  0  0  0  0  0  0  0  0  0  0  0
   -4.7722   23.4426  -27.7617 H   0  0  0  0  0  0  0  0  0  0  0  0
  1  2  1  0
  2  3  2  0
  3  4  1  0
  3  5  1  0
  5  6  1  0
  6  7  1  0
  6  8  1  0
  6  9  1  0
  9 10  1  0
 10 11  2  0
 11 12  1  0
 11 13  1  0
 13 14  1  0
 13 15  1  0
 13 16  1  0
 16 17  1  0
 16 18  1  0
 16 19  1  0
 19 20  1  0
 19 21  1  0
 19 22  1  0
 22 23  1  0
 22 24  1  0
 22 25  1  0
 10 26  1  0
 26 27  1  0
 27 28  1  6
 27 29  1  0
 29 30  1  0
 29 31  1  0
 29 32  1  0
 32 33  2  0
 32 34  2  0
 32 35  1  0
 35 36  1  0
 35 37  1  0
 35 38  1  0
 38 39  1  1
  5 40  2  0
 40 41  1  0
 40 42  1  0
 42 43  1  0
 43 44  1  0
 44 45  1  0
 44 46  1  0
 44 47  1  0
 42 48  2  0
 48 49  1  0
 49 50  1  0
 50 51  1  0
 50 52  1  0
 50 53  1  0
 48  2  1  0
 38  9  1  0
 38 27  1  0
M  CHG  1  11   1
M  END
>  <UniqueID>  (22) 
18

>  <SMILES>  (22) 
CCCC/[NH+]=C1\S[C@@H]2CS(=O)(=O)C[C@H]2N1Cc1ccc(OC)c(OC)c1

>  <Energy>  (22) 
66.73449229765845

>  <Genealogy>  (22) 
CCCC[NH+]=C1SC2CS(=O)(=O)CC2N1Cc1ccc(OC)c(OC)c1 (protonated)
CCCC[NH+]=C1S[C@@H]2CS(=O)(=O)C[C@H]2N1Cc1ccc(OC)c(OC)c1 (chirality)
CCCC/[NH+]=C1\S[C@@H]2CS(=O)(=O)C[C@H]2N1Cc1ccc(OC)c(OC)c1 (cis-trans isomerization)
CCCC/[NH+]=C1\S[C@@H]2CS(=O)(=O)C[C@H]2N1Cc1ccc(OC)c(OC)c1 (3D coordinates assigned)
CCCC/[NH+]=C1\S[C@@H]2CS(=O)(=O)C[C@H]2N1Cc1ccc(OC)c(OC)c1 (nonaromatic ring conformer: 66.73449229765845 kcal/mol)

>  <smiles>  (22) 
CCCCN=C1SC2CS(=O)(=O)CC2N1Cc1ccc(OC)c(OC)c1

>  <score_type>  (22) 
oracle

>  <origin>  (22) 
adg

>  <m_score__min__energy>  (22) 
-8.1300000000000008

>  <m_primary>  (22) 
energy

$$$$
22:0
     RDKit          3D

 42 44  0  0  0  0  0  0  0  0999 V2000
   -1.6470   19.8170  -26.3690 C   0  0  0  0  0  0  0  0  0  0  0  0
   -1.2590   21.0970  -26.8570 O   0  0  0  0  0  0  0  0  0  0  0  0
   -2.0440   21.8910  -27.7070 C   0  0  0  0  0  0  0  0  0  0  0  0
   -1.5080   22.9620  -28.4490 C   0  0  0  0  0  0  0  0  0  0  0  0
   -2.3310   23.7210  -29.2840 C   0  0  0  0  0  0  0  0  0  0  0  0
   -3.6960   23.4200  -29.3970 C   0  0  0  0  0  0  0  0  0  0  0  0
   -4.7290   24.3600  -30.4760 S   0  0  0  0  0  0  0  0  0  0  0  0
   -4.0630   25.6730  -30.7830 O   0  0  0  0  0  0  0  0  0  0  0  0
   -6.0330   24.6510  -29.7860 O   0  0  0  0  0  0  0  0  0  0  0  0
   -5.0460   23.5020  -31.9670 N   0  0  0  0  0  0  0  0  0  0  0  0
   -4.0760   22.4000  -32.1450 C   0  0  0  0  0  0  0  0  0  0  0  0
   -4.5960   21.3230  -33.1000 C   0  0  0  0  0  0  0  0  0  0  0  0
   -5.8550   20.7710  -32.5840 N   0  0  0  0  0  0  0  0  0  0  0  0
   -6.2320   19.4150  -32.9080 C   0  0  0  0  0  0  0  0  0  0  0  0
   -7.2030   18.7250  -32.1590 C   0  0  0  0  0  0  0  0  0  0  0  0
   -7.5340   17.4140  -32.5030 C   0  0  0  0  0  0  0  0  0  0  0  0
   -6.9000   16.7960  -33.5820 C   0  0  0  0  0  0  0  0  0  0  0  0
   -5.9370   17.5020  -34.3010 C   0  0  0  0  0  0  0  0  0  0  0  0
   -5.6260   18.7790  -33.9520 N   0  0  0  0  0  0  0  0  0  0  0  0
   -6.7250   21.6280  -31.7660 C   0  0  0  0  0  0  0  0  0  0  0  0
   -6.4710   23.1120  -32.0800 C   0  0  0  0  0  0  0  0  0  0  0  0
   -4.2310   22.3600  -28.6520 C   0  0  0  0  0  0  0  0  0  0  0  0
   -3.4080   21.6010  -27.8150 C   0  0  0  0  0  0  0  0  0  0  0  0
   -1.6438   19.8275  -25.2691 H   0  0  0  0  0  0  0  0  0  0  0  0
   -2.6580   19.5778  -26.7305 H   0  0  0  0  0  0  0  0  0  0  0  0
   -0.9390   19.0567  -26.7305 H   0  0  0  0  0  0  0  0  0  0  0  0
   -0.4372   23.2013  -28.3704 H   0  0  0  0  0  0  0  0  0  0  0  0
   -1.9063   24.5592  -29.8559 H   0  0  0  0  0  0  0  0  0  0  0  0
   -3.1410   22.8129  -32.5515 H   0  0  0  0  0  0  0  0  0  0  0  0
   -3.9122   21.9314  -31.1634 H   0  0  0  0  0  0  0  0  0  0  0  0
   -4.7702   21.7665  -34.0915 H   0  0  0  0  0  0  0  0  0  0  0  0
   -3.8512   20.5177  -33.1816 H   0  0  0  0  0  0  0  0  0  0  0  0
   -7.6978   19.2159  -31.3080 H   0  0  0  0  0  0  0  0  0  0  0  0
   -8.2938   16.8680  -31.9245 H   0  0  0  0  0  0  0  0  0  0  0  0
   -7.1573   15.7637  -33.8617 H   0  0  0  0  0  0  0  0  0  0  0  0
   -5.4279   17.0256  -35.1518 H   0  0  0  0  0  0  0  0  0  0  0  0
   -7.7764   21.3874  -31.9821 H   0  0  0  0  0  0  0  0  0  0  0  0
   -6.5044   21.4470  -30.7037 H   0  0  0  0  0  0  0  0  0  0  0  0
   -6.8071   23.3134  -33.1078 H   0  0  0  0  0  0  0  0  0  0  0  0
   -7.0287   23.7011  -31.3371 H   0  0  0  0  0  0  0  0  0  0  0  0
   -5.3029   22.1245  -28.7263 H   0  0  0  0  0  0  0  0  0  0  0  0
   -3.8365   20.7691  -27.2367 H   0  0  0  0  0  0  0  0  0  0  0  0
  1  2  1  0
  2  3  1  0
  3  4  2  0
  4  5  1  0
  5  6  2  0
  6  7  1  0
  7  8  2  0
  7  9  2  0
  7 10  1  0
 10 11  1  0
 11 12  1  0
 12 13  1  0
 13 14  1  0
 14 15  2  0
 15 16  1  0
 16 17  2  0
 17 18  1  0
 18 19  2  0
 13 20  1  0
 20 21  1  0
  6 22  1  0
 22 23  2  0
 23  3  1  0
 21 10  1  0
 19 14  1  0
  1 24  1  0
  1 25  1  0
  1 26  1  0
  4 27  1  0
  5 28  1  0
 11 29  1  0
 11 30  1  0
 12 31  1  0
 12 32  1  0
 15 33  1  0
 16 34  1  0
 17 35  1  0
 18 36  1  0
 20 37  1  0
 20 38  1  0
 21 39  1  0
 21 40  1  0
 22 41  1  0
 23 42  1  0
M  END
>  <UniqueID>  (23) 
19

>  <SMILES>  (23) 
COc1ccc(S(=O)(=O)N2CCN(c3ccccn3)CC2)cc1

>  <Energy>  (23) 
50.00402175705961

>  <Genealogy>  (23) 
COc1ccc(S(=O)(=O)N2CCN(c3ccccn3)CC2)cc1 (3D coordinates assigned)
COc1ccc(S(=O)(=O)N2CCN(c3ccccn3)CC2)cc1 (nonaromatic ring conformer: 50.00402175705961 kcal/mol)

>  <smiles>  (23) 
COc1ccc(S(=O)(=O)N2CCN(c3ccccn3)CC2)cc1

>  <score_type>  (23) 
oracle

>  <origin>  (23) 
adg

>  <m_score__min__energy>  (23) 
-8.4900000000000002

>  <m_primary>  (23) 
energy

$$$$
23:0
     RDKit          3D

 37 38  0  0  0  0  0  0  0  0999 V2000
   -2.4610   24.1940  -28.4810 C   0  0  0  0  0  0  0  0  0  0  0  0
   -2.8310   24.9000  -29.6590 O   0  0  0  0  0  0  0  0  0  0  0  0
   -4.0440   24.6820  -30.3170 C   0  0  0  0  0  0  0  0  0  0  0  0
   -4.6710   25.6400  -30.8480 O   0  0  0  0  0  0  0  0  0  0  0  0
   -4.6310   23.3050  -30.3420 C   0  0  0  0  0  0  0  0  0  0  0  0
   -5.1390   22.9350  -31.7400 C   0  0  0  0  0  0  0  0  0  0  0  0
   -6.5910   22.5280  -31.7190 C   0  0  0  0  0  0  0  0  0  0  0  0
   -7.5930   23.4550  -32.0440 C   0  0  0  0  0  0  0  0  0  0  0  0
   -8.9380   23.0860  -31.9850 C   0  0  0  0  0  0  0  0  0  0  0  0
   -9.2940   21.7920  -31.5990 C   0  0  0  0  0  0  0  0  0  0  0  0
   -8.3110   20.8540  -31.2650 C   0  0  0  0  0  0  0  0  0  0  0  0
   -8.7250   19.5670  -30.8830 O   0  0  0  0  0  0  0  0  0  0  0  0
   -8.8280   18.4420  -31.7570 C   0  0  0  0  0  0  0  0  0  0  0  0
   -7.5680   18.2760  -32.5590 C   0  0  0  0  0  0  0  0  0  0  0  0
   -6.7680   17.1330  -32.4140 C   0  0  0  0  0  0  0  0  0  0  0  0
   -5.6100   17.0050  -33.1830 C   0  0  0  0  0  0  0  0  0  0  0  0
   -5.2660   18.0070  -34.0920 C   0  0  0  0  0  0  0  0  0  0  0  0
   -6.0910   19.1260  -34.2190 C   0  0  0  0  0  0  0  0  0  0  0  0
   -7.2140   19.2340  -33.4610 N   0  0  0  0  0  0  0  0  0  0  0  0
   -6.9540   21.2310  -31.3210 C   0  0  0  0  0  0  0  0  0  0  0  0
   -2.7643   24.7728  -27.5961 H   0  0  0  0  0  0  0  0  0  0  0  0
   -2.9618   23.2147  -28.4679 H   0  0  0  0  0  0  0  0  0  0  0  0
   -1.3707   24.0485  -28.4679 H   0  0  0  0  0  0  0  0  0  0  0  0
   -3.8591   22.5821  -30.0395 H   0  0  0  0  0  0  0  0  0  0  0  0
   -5.4840   23.2813  -29.6479 H   0  0  0  0  0  0  0  0  0  0  0  0
   -5.0227   23.8051  -32.4029 H   0  0  0  0  0  0  0  0  0  0  0  0
   -4.5496   22.0800  -32.1026 H   0  0  0  0  0  0  0  0  0  0  0  0
   -7.3176   24.4762  -32.3464 H   0  0  0  0  0  0  0  0  0  0  0  0
   -9.7192   23.8161  -32.2431 H   0  0  0  0  0  0  0  0  0  0  0  0
  -10.3558   21.5079  -31.5572 H   0  0  0  0  0  0  0  0  0  0  0  0
   -8.9978   17.5344  -31.1591 H   0  0  0  0  0  0  0  0  0  0  0  0
   -9.6681   18.6063  -32.4478 H   0  0  0  0  0  0  0  0  0  0  0  0
   -7.0506   16.3446  -31.7008 H   0  0  0  0  0  0  0  0  0  0  0  0
   -4.9703   16.1169  -33.0730 H   0  0  0  0  0  0  0  0  0  0  0  0
   -4.3549   17.9159  -34.7015 H   0  0  0  0  0  0  0  0  0  0  0  0
   -5.8319   19.9213  -34.9334 H   0  0  0  0  0  0  0  0  0  0  0  0
   -6.1737   20.5042  -31.0510 H   0  0  0  0  0  0  0  0  0  0  0  0
  1  2  1  0
  2  3  1  0
  3  4  2  0
  3  5  1  0
  5  6  1  0
  6  7  1  0
  7  8  2  0
  8  9  1  0
  9 10  2  0
 10 11  1  0
 11 12  1  0
 12 13  1  0
 13 14  1  0
 14 15  2  0
 15 16  1  0
 16 17  2  0
 17 18  1  0
 18 19  2  0
 11 20  2  0
 20  7  1  0
 19 14  1  0
  1 21  1  0
  1 22  1  0
  1 23  1  0
  5 24  1  0
  5 25  1  0
  6 26  1  0
  6 27  1  0
  8 28  1  0
  9 29  1  0
 10 30  1  0
 13 31  1  0
 13 32  1  0
 15 33  1  0
 16 34  1  0
 17 35  1  0
 18 36  1  0
 20 37  1  0
M  END
>  <UniqueID>  (24) 
20

>  <SMILES>  (24) 
COC(=O)CCc1cccc(OCc2ccccn2)c1

>  <Energy>  (24) 
30.69885392844302

>  <Genealogy>  (24) 
COC(=O)CCc1cccc(OCc2ccccn2)c1 (3D coordinates assigned)
COC(=O)CCc1cccc(OCc2ccccn2)c1 (optimized conformer: 30.69885392844302 kcal/mol)

>  <smiles>  (24) 
COC(=O)CCc1cccc(OCc2ccccn2)c1

>  <score_type>  (24) 
oracle

>  <origin>  (24) 
adg

>  <m_score__min__energy>  (24) 
-7.4699999999999998

>  <m_primary>  (24) 
energy

$$$$
24:0
     RDKit          3D

 38 40  0  0  0  0  0  0  0  0999 V2000
   -0.5290   21.4680  -28.1100 C   0  0  0  0  0  0  0  0  0  0  0  0
   -0.8370   22.6290  -28.8750 O   0  0  0  0  0  0  0  0  0  0  0  0
   -2.0350   22.8410  -29.5760 C   0  0  0  0  0  0  0  0  0  0  0  0
   -2.7340   21.7610  -30.1530 C   0  0  0  0  0  0  0  0  0  0  0  0
   -3.9300   21.9650  -30.8540 C   0  0  0  0  0  0  0  0  0  0  0  0
   -4.6520   20.8190  -31.4560 C   0  0  0  0  0  0  0  0  0  0  0  0
   -6.0040   20.6760  -31.3840 N   0  0  0  0  0  0  0  0  0  0  0  0
   -6.2140   19.5290  -32.0440 C   0  0  0  0  0  0  0  0  0  0  0  0
   -7.4290   18.8940  -32.2830 C   0  0  0  0  0  0  0  0  0  0  0  0
   -7.4070   17.6880  -33.0070 C   0  0  0  0  0  0  0  0  0  0  0  0
   -6.1800   17.1430  -33.4760 C   0  0  0  0  0  0  0  0  0  0  0  0
   -6.1710   15.9090  -34.2150 N   0  0  0  0  0  0  0  0  0  0  0  0
   -7.2410   15.3640  -34.5560 O   0  0  0  0  0  0  0  0  0  0  0  0
   -4.9820   15.3090  -34.5600 O   0  0  0  0  0  0  0  0  0  0  0  0
   -4.9690   17.8280  -33.2070 C   0  0  0  0  0  0  0  0  0  0  0  0
   -5.0360   19.0190  -32.4870 C   0  0  0  0  0  0  0  0  0  0  0  0
   -4.0210   19.8170  -32.1280 N   0  0  0  0  0  0  0  0  0  0  0  0
   -4.4350   23.2650  -30.9800 C   0  0  0  0  0  0  0  0  0  0  0  0
   -3.7560   24.3570  -30.4110 C   0  0  0  0  0  0  0  0  0  0  0  0
   -4.2410   25.6710  -30.5230 O   0  0  0  0  0  0  0  0  0  0  0  0
   -5.6080   26.0440  -30.3860 C   0  0  0  0  0  0  0  0  0  0  0  0
   -2.5570   24.1530  -29.7100 C   0  0  0  0  0  0  0  0  0  0  0  0
   -1.9380   25.2980  -29.1710 O   0  0  0  0  0  0  0  0  0  0  0  0
   -1.4340   25.4500  -27.8490 C   0  0  0  0  0  0  0  0  0  0  0  0
   -0.5926   21.7076  -27.0383 H   0  0  0  0  0  0  0  0  0  0  0  0
   -1.2464   20.6695  -28.3504 H   0  0  0  0  0  0  0  0  0  0  0  0
    0.4898   21.1301  -28.3504 H   0  0  0  0  0  0  0  0  0  0  0  0
   -2.3338   20.7414  -30.0512 H   0  0  0  0  0  0  0  0  0  0  0  0
   -8.3749   19.3207  -31.9181 H   0  0  0  0  0  0  0  0  0  0  0  0
   -8.3500   17.1603  -33.2128 H   0  0  0  0  0  0  0  0  0  0  0  0
   -4.0044   17.4311  -33.5564 H   0  0  0  0  0  0  0  0  0  0  0  0
   -5.3727   23.4337  -31.5298 H   0  0  0  0  0  0  0  0  0  0  0  0
   -5.8638   26.1138  -29.3184 H   0  0  0  0  0  0  0  0  0  0  0  0
   -5.7718   27.0197  -30.8669 H   0  0  0  0  0  0  0  0  0  0  0  0
   -6.2447   25.2867  -30.8669 H   0  0  0  0  0  0  0  0  0  0  0  0
   -2.2266   25.2110  -27.1247 H   0  0  0  0  0  0  0  0  0  0  0  0
   -0.5836   24.7684  -27.7002 H   0  0  0  0  0  0  0  0  0  0  0  0
   -1.1022   26.4882  -27.7002 H   0  0  0  0  0  0  0  0  0  0  0  0
  1  2  1  0
  2  3  1  0
  3  4  2  0
  4  5  1  0
  5  6  1  0
  6  7  2  0
  7  8  1  0
  8  9  2  0
  9 10  1  0
 10 11  2  0
 11 12  1  0
 12 13  2  0
 12 14  1  0
 11 15  1  0
 15 16  2  0
 16 17  1  0
  5 18  2  0
 18 19  1  0
 19 20  1  0
 20 21  1  0
 19 22  2  0
 22 23  1  0
 23 24  1  0
 22  3  1  0
 17  6  1  0
 16  8  1  0
  1 25  1  0
  1 26  1  0
  1 27  1  0
  4 28  1  0
  9 29  1  0
 10 30  1  0
 15 31  1  0
 18 32  1  0
 21 33  1  0
 21 34  1  0
 21 35  1  0
 24 36  1  0
 24 37  1  0
 24 38  1  0
M  CHG  3  12   1  14  -1  17  -1
M  END
>  <UniqueID>  (25) 
21

>  <SMILES>  (25) 
COc1cc(-c2nc3ccc([N+](=O)[O-])cc3[n-]2)cc(OC)c1OC

>  <Energy>  (25) 
78.5641335837182

>  <Genealogy>  (25) 
COc1cc(-c2nc3ccc([N+](=O)[O-])cc3[n-]2)cc(OC)c1OC (protonated)
COc1cc(-c2nc3ccc([N+](=O)[O-])cc3[n-]2)cc(OC)c1OC (3D coordinates assigned)
COc1cc(-c2nc3ccc([N+](=O)[O-])cc3[n-]2)cc(OC)c1OC (optimized conformer: 78.5641335837182 kcal/mol)

>  <smiles>  (25) 
COc1cc(-c2nc3ccc([N+](=O)[O-])cc3[nH]2)cc(OC)c1OC

>  <score_type>  (25) 
oracle

>  <origin>  (25) 
adg

>  <m_score__min__energy>  (25) 
-7.2199999999999998

>  <m_primary>  (25) 
energy

$$$$
25:0
     RDKit          3D

 15 14  0  0  0  0  0  0  0  0999 V2000
   -3.1400   24.8790  -26.7220 C   0  0  0  0  0  0  0  0  0  0  0  0
   -3.2880   24.5160  -28.1340 N   0  0  0  0  0  0  0  0  0  0  0  0
   -4.2090   23.3800  -28.3070 C   0  0  0  0  0  0  0  0  0  0  0  0
   -4.9760   23.4730  -29.6350 C   0  0  0  0  0  0  0  0  0  0  0  0
   -5.0760   24.9950  -30.1590 S   0  0  0  0  0  4  0  0  0  0  0  0
   -6.2530   25.6470  -30.1230 O   0  0  0  0  0  0  0  0  0  0  0  0
   -3.8670   25.6630  -30.7640 O   0  0  0  0  0  0  0  0  0  0  0  0
   -3.4802   24.0445  -26.0913 H   0  0  0  0  0  0  0  0  0  0  0  0
   -2.0827   25.0934  -26.5074 H   0  0  0  0  0  0  0  0  0  0  0  0
   -3.7460   25.7716  -26.5074 H   0  0  0  0  0  0  0  0  0  0  0  0
   -3.7040   25.3430  -28.6220 H   0  0  0  0  0  0  0  0  0  0  0  0
   -3.6296   22.4451  -28.2938 H   0  0  0  0  0  0  0  0  0  0  0  0
   -4.9395   23.4001  -27.4848 H   0  0  0  0  0  0  0  0  0  0  0  0
   -4.4539   22.8688  -30.3916 H   0  0  0  0  0  0  0  0  0  0  0  0
   -5.9971   23.0991  -29.4689 H   0  0  0  0  0  0  0  0  0  0  0  0
  1  2  1  0
  2  3  1  0
  3  4  1  0
  4  5  1  0
  5  6  2  0
  5  7  1  0
  1  8  1  0
  1  9  1  0
  1 10  1  0
  2 11  1  0
  3 12  1  0
  3 13  1  0
  4 14  1  0
  4 15  1  0
M  CHG  2   5   1   7  -1
M  RAD  1   5   2
M  END
>  <UniqueID>  (26) 
22

>  <SMILES>  (26) 
CNCC[S+](=O)[O-]

>  <Energy>  (26) 
6.190591062482794

>  <Genealogy>  (26) 
CNCC[S+](=O)[O-] (chirality)
CNCC[S+](=O)[O-] (3D coordinates assigned)
CNCC[S+](=O)[O-] (optimized conformer: 6.190591062482794 kcal/mol)

>  <smiles>  (26) 
CNCC[S+](=O)[O-]

>  <score_type>  (26) 
oracle

>  <origin>  (26) 
adg

>  <m_score__min__energy>  (26) 
-4.9299999999999997

>  <m_primary>  (26) 
energy

$$$$
26:0
     RDKit          3D

 36 36  0  0  0  0  0  0  0  0999 V2000
   -4.1570   24.9240  -26.4110 C   0  0  0  0  0  0  0  0  0  0  0  0
   -2.6900   24.7790  -26.8270 C   0  0  0  0  0  0  0  0  0  0  0  0
   -2.4700   24.8100  -28.3560 C   0  0  1  0  0  0  0  0  0  0  0  0
   -1.0080   24.5290  -28.7300 C   0  0  0  0  0  0  0  0  0  0  0  0
   -3.3680   23.8670  -29.0330 N   0  0  0  0  0  0  0  0  0  0  0  0
   -4.1390   24.2390  -30.1870 C   0  0  0  0  0  0  0  0  0  0  0  0
   -3.8710   25.3110  -30.7960 O   0  0  0  0  0  0  0  0  0  0  0  0
   -5.2360   23.3750  -30.6850 C   0  0  0  0  0  0  0  0  0  0  0  0
   -5.0380   22.5060  -31.7700 C   0  0  0  0  0  0  0  0  0  0  0  0
   -6.0760   21.6890  -32.2260 C   0  0  0  0  0  0  0  0  0  0  0  0
   -7.3420   21.7120  -31.6060 C   0  0  0  0  0  0  0  0  0  0  0  0
   -8.4200   20.8640  -32.0790 N   0  0  0  0  0  0  0  0  0  0  0  0
   -8.1330   19.5520  -32.6720 C   0  0  0  0  0  0  0  0  0  0  0  0
   -9.8170   21.3050  -31.9760 C   0  0  0  0  0  0  0  0  0  0  0  0
   -7.5290   22.5780  -30.5090 C   0  0  0  0  0  0  0  0  0  0  0  0
   -6.4900   23.3940  -30.0540 C   0  0  0  0  0  0  0  0  0  0  0  0
   -4.2279   24.9310  -25.3133 H   0  0  0  0  0  0  0  0  0  0  0  0
   -4.5600   25.8664  -26.8105 H   0  0  0  0  0  0  0  0  0  0  0  0
   -4.7367   24.0788  -26.8105 H   0  0  0  0  0  0  0  0  0  0  0  0
   -2.1187   25.6046  -26.3775 H   0  0  0  0  0  0  0  0  0  0  0  0
   -2.3527   23.7931  -26.4745 H   0  0  0  0  0  0  0  0  0  0  0  0
   -2.7085   25.8277  -28.6986 H   0  0  0  0  0  0  0  0  0  0  0  0
   -0.4106   24.4142  -27.8135 H   0  0  0  0  0  0  0  0  0  0  0  0
   -0.9524   23.6037  -29.3223 H   0  0  0  0  0  0  0  0  0  0  0  0
   -0.6133   25.3677  -29.3223 H   0  0  0  0  0  0  0  0  0  0  0  0
   -3.4050   22.8760  -28.7020 H   0  0  0  0  0  0  0  0  0  0  0  0
   -4.0567   22.4680  -32.2656 H   0  0  0  0  0  0  0  0  0  0  0  0
   -5.9029   21.0185  -33.0807 H   0  0  0  0  0  0  0  0  0  0  0  0
   -7.9718   18.8151  -31.8714 H   0  0  0  0  0  0  0  0  0  0  0  0
   -8.9835   19.2370  -33.2945 H   0  0  0  0  0  0  0  0  0  0  0  0
   -7.2287   19.6209  -33.2945 H   0  0  0  0  0  0  0  0  0  0  0  0
  -10.0964   21.3932  -30.9157 H   0  0  0  0  0  0  0  0  0  0  0  0
   -9.9301   22.2825  -32.4676 H   0  0  0  0  0  0  0  0  0  0  0  0
  -10.4709   20.5696  -32.4676 H   0  0  0  0  0  0  0  0  0  0  0  0
   -8.5060   22.6116  -30.0046 H   0  0  0  0  0  0  0  0  0  0  0  0
   -6.6562   24.0579  -29.1928 H   0  0  0  0  0  0  0  0  0  0  0  0
  1  2  1  0
  2  3  1  0
  3  4  1  0
  3  5  1  0
  5  6  1  0
  6  7  2  0
  6  8  1  0
  8  9  2  0
  9 10  1  0
 10 11  2  0
 11 12  1  0
 12 13  1  0
 12 14  1  0
 11 15  1  0
 15 16  2  0
 16  8  1  0
  1 17  1  0
  1 18  1  0
  1 19  1  0
  2 20  1  0
  2 21  1  0
  3 22  1  6
  4 23  1  0
  4 24  1  0
  4 25  1  0
  5 26  1  0
  9 27  1  0
 10 28  1  0
 13 29  1  0
 13 30  1  0
 13 31  1  0
 14 32  1  0
 14 33  1  0
 14 34  1  0
 15 35  1  0
 16 36  1  0
M  END
>  <UniqueID>  (27) 
23

>  <SMILES>  (27) 
CC[C@@H](C)NC(=O)c1ccc(N(C)C)cc1

>  <Energy>  (27) 
30.549865022768177

>  <Genealogy>  (27) 
CC[C@@H](C)NC(=O)c1ccc(N(C)C)cc1 (chirality)
CC[C@@H](C)NC(=O)c1ccc(N(C)C)cc1 (3D coordinates assigned)
CC[C@@H](C)NC(=O)c1ccc(N(C)C)cc1 (optimized conformer: 30.549865022768177 kcal/mol)

>  <smiles>  (27) 
CCC(C)NC(=O)c1ccc(N(C)C)cc1

>  <score_type>  (27) 
oracle

>  <origin>  (27) 
adg

>  <m_score__min__energy>  (27) 
-6.3399999999999999

>  <m_primary>  (27) 
energy

$$$$
27:0
     RDKit          3D

 40 41  0  0  0  0  0  0  0  0999 V2000
   -0.6200   28.8340  -24.8370 C   0  0  0  0  0  0  0  0  0  0  0  0
   -1.2930   27.5410  -24.8240 N   0  0  0  0  0  0  0  0  0  0  0  0
   -0.9740   26.5170  -25.7750 C   0  0  0  0  0  0  0  0  0  0  0  0
   -0.0800   26.7200  -26.6420 O   0  0  0  0  0  0  0  0  0  0  0  0
   -1.6970   25.1900  -25.7390 C   0  0  0  0  0  0  0  0  0  0  0  0
   -0.8230   24.0720  -26.3500 C   0  0  0  0  0  0  0  0  0  0  0  0
   -0.8880   24.0410  -27.8850 C   0  0  0  0  0  0  0  0  0  0  0  0
   -2.2700   24.1250  -28.3770 N   0  0  0  0  0  0  0  0  0  0  0  0
   -2.5270   23.9340  -29.7800 C   0  0  0  0  0  0  0  0  0  0  0  0
   -1.8510   23.0950  -30.4320 O   0  0  0  0  0  0  0  0  0  0  0  0
   -3.5640   24.6580  -30.4530 N   0  0  0  0  0  0  0  0  0  0  0  0
   -4.8320   24.1120  -30.8400 C   0  0  0  0  0  0  0  0  0  0  0  0
   -6.0020   24.6740  -30.3170 C   0  0  0  0  0  0  0  0  0  0  0  0
   -7.2520   24.1600  -30.6730 C   0  0  0  0  0  0  0  0  0  0  0  0
   -7.3480   23.0720  -31.5550 C   0  0  0  0  0  0  0  0  0  0  0  0
   -8.6890   22.5040  -31.9180 C   0  0  0  0  0  0  0  0  0  0  0  0
   -6.1720   22.4810  -32.0470 C   0  0  0  0  0  0  0  0  0  0  0  0
   -6.2340   21.4030  -32.8710 F   0  0  0  0  0  0  0  0  0  0  0  0
   -4.9230   22.9960  -31.6880 C   0  0  0  0  0  0  0  0  0  0  0  0
   -3.3840   24.2070  -27.4230 C   0  0  0  0  0  0  0  0  0  0  0  0
   -3.1080   25.2990  -26.3830 C   0  0  0  0  0  0  0  0  0  0  0  0
   -0.4464   29.1674  -23.8032 H   0  0  0  0  0  0  0  0  0  0  0  0
    0.3438   28.7405  -25.3588 H   0  0  0  0  0  0  0  0  0  0  0  0
   -1.2495   29.5698  -25.3588 H   0  0  0  0  0  0  0  0  0  0  0  0
   -2.0270   27.3680  -24.1010 H   0  0  0  0  0  0  0  0  0  0  0  0
   -1.8688   24.9076  -24.6899 H   0  0  0  0  0  0  0  0  0  0  0  0
    0.2212   24.2353  -26.0452 H   0  0  0  0  0  0  0  0  0  0  0  0
   -1.2085   23.1099  -25.9815 H   0  0  0  0  0  0  0  0  0  0  0  0
   -0.3167   24.8929  -28.2824 H   0  0  0  0  0  0  0  0  0  0  0  0
   -0.4628   23.0851  -28.2248 H   0  0  0  0  0  0  0  0  0  0  0  0
   -5.9376   25.5244  -29.6223 H   0  0  0  0  0  0  0  0  0  0  0  0
   -8.1663   24.6108  -30.2595 H   0  0  0  0  0  0  0  0  0  0  0  0
   -9.2476   22.2674  -31.0004 H   0  0  0  0  0  0  0  0  0  0  0  0
   -9.2514   23.2412  -32.5098 H   0  0  0  0  0  0  0  0  0  0  0  0
   -8.5508   21.5871  -32.5098 H   0  0  0  0  0  0  0  0  0  0  0  0
   -4.0062   22.5246  -32.0718 H   0  0  0  0  0  0  0  0  0  0  0  0
   -4.3105   24.4470  -27.9653 H   0  0  0  0  0  0  0  0  0  0  0  0
   -3.4903   23.2399  -26.9098 H   0  0  0  0  0  0  0  0  0  0  0  0
   -3.1930   26.2793  -26.8747 H   0  0  0  0  0  0  0  0  0  0  0  0
   -3.8456   25.1756  -25.5763 H   0  0  0  0  0  0  0  0  0  0  0  0
  1  2  1  0
  2  3  1  0
  3  4  2  0
  3  5  1  0
  5  6  1  0
  6  7  1  0
  7  8  1  0
  8  9  1  0
  9 10  2  0
  9 11  1  0
 11 12  1  0
 12 13  2  0
 13 14  1  0
 14 15  2  0
 15 16  1  0
 15 17  1  0
 17 18  1  0
 17 19  2  0
  8 20  1  0
 20 21  1  0
 21  5  1  0
 19 12  1  0
  1 22  1  0
  1 23  1  0
  1 24  1  0
  2 25  1  0
  5 26  1  0
  6 27  1  0
  6 28  1  0
  7 29  1  0
  7 30  1  0
 13 31  1  0
 14 32  1  0
 16 33  1  0
 16 34  1  0
 16 35  1  0
 19 36  1  0
 20 37  1  0
 20 38  1  0
 21 39  1  0
 21 40  1  0
M  CHG  1  11  -1
M  END
>  <UniqueID>  (28) 
24

>  <SMILES>  (28) 
CNC(=O)C1CCN(C(=O)[N-]c2ccc(C)c(F)c2)CC1

>  <Energy>  (28) 
42.66083859001457

>  <Genealogy>  (28) 
CNC(=O)C1CCN(C(=O)[N-]c2ccc(C)c(F)c2)CC1 (protonated)
CNC(=O)C1CCN(C(=O)[N-]c2ccc(C)c(F)c2)CC1 (3D coordinates assigned)
CNC(=O)C1CCN(C(=O)[N-]c2ccc(C)c(F)c2)CC1 (nonaromatic ring conformer: 42.66083859001457 kcal/mol)

>  <smiles>  (28) 
CNC(=O)C1CCN(C(=O)Nc2ccc(C)c(F)c2)CC1

>  <score_type>  (28) 
oracle

>  <origin>  (28) 
adg

>  <m_score__min__energy>  (28) 
-8.6199999999999992

>  <m_primary>  (28) 
energy

$$$$
28:0
     RDKit          3D

 29 30  0  0  0  0  0  0  0  0999 V2000
   -0.8720   26.4760  -28.1970 C   0  0  0  0  0  0  0  0  0  0  0  0
   -1.7410   25.6560  -28.9700 O   0  0  0  0  0  0  0  0  0  0  0  0
   -2.1540   24.3610  -28.6090 C   0  0  0  0  0  0  0  0  0  0  0  0
   -1.5400   23.6710  -27.5430 C   0  0  0  0  0  0  0  0  0  0  0  0
   -1.9630   22.3910  -27.1880 C   0  0  0  0  0  0  0  0  0  0  0  0
   -3.0010   21.7790  -27.8850 C   0  0  0  0  0  0  0  0  0  0  0  0
   -3.6220   22.4450  -28.9430 C   0  0  0  0  0  0  0  0  0  0  0  0
   -3.2100   23.7380  -29.3240 C   0  0  0  0  0  0  0  0  0  0  0  0
   -3.8960   24.4140  -30.4600 C   0  0  0  0  0  0  0  0  0  0  0  0
   -4.0360   25.6670  -30.4670 O   0  0  0  0  0  0  0  0  0  0  0  0
   -4.3500   23.6420  -31.5820 N   0  0  0  0  0  0  0  0  0  0  0  0
   -5.6080   22.9610  -31.6980 C   0  0  0  0  0  0  0  0  0  0  0  0
   -6.7870   23.6890  -31.4900 C   0  0  0  0  0  0  0  0  0  0  0  0
   -8.0340   23.0670  -31.6140 C   0  0  0  0  0  0  0  0  0  0  0  0
   -8.1110   21.7170  -31.9630 C   0  0  0  0  0  0  0  0  0  0  0  0
   -6.9420   20.9880  -32.1970 C   0  0  0  0  0  0  0  0  0  0  0  0
   -7.0180   19.6830  -32.5570 F   0  0  0  0  0  0  0  0  0  0  0  0
   -5.6930   21.6060  -32.0730 C   0  0  0  0  0  0  0  0  0  0  0  0
   -1.0578   26.3007  -27.1271 H   0  0  0  0  0  0  0  0  0  0  0  0
    0.1732   26.2274  -28.4332 H   0  0  0  0  0  0  0  0  0  0  0  0
   -1.0596   27.5338  -28.4332 H   0  0  0  0  0  0  0  0  0  0  0  0
   -0.7195   24.1475  -26.9864 H   0  0  0  0  0  0  0  0  0  0  0  0
   -1.4754   21.8633  -26.3551 H   0  0  0  0  0  0  0  0  0  0  0  0
   -3.3324   20.7691  -27.6016 H   0  0  0  0  0  0  0  0  0  0  0  0
   -4.4432   21.9546  -29.4862 H   0  0  0  0  0  0  0  0  0  0  0  0
   -6.7318   24.7558  -31.2277 H   0  0  0  0  0  0  0  0  0  0  0  0
   -8.9548   23.6419  -31.4364 H   0  0  0  0  0  0  0  0  0  0  0  0
   -9.0919   21.2275  -32.0537 H   0  0  0  0  0  0  0  0  0  0  0  0
   -4.7751   21.0323  -32.2689 H   0  0  0  0  0  0  0  0  0  0  0  0
  1  2  1  0
  2  3  1  0
  3  4  2  0
  4  5  1  0
  5  6  2  0
  6  7  1  0
  7  8  2  0
  8  9  1  0
  9 10  2  0
  9 11  1  0
 11 12  1  0
 12 13  2  0
 13 14  1  0
 14 15  2  0
 15 16  1  0
 16 17  1  0
 16 18  2  0
  8  3  1  0
 18 12  1  0
  1 19  1  0
  1 20  1  0
  1 21  1  0
  4 22  1  0
  5 23  1  0
  6 24  1  0
  7 25  1  0
 13 26  1  0
 14 27  1  0
 15 28  1  0
 18 29  1  0
M  CHG  1  11  -1
M  END
>  <UniqueID>  (29) 
25

>  <SMILES>  (29) 
COc1ccccc1C(=O)[N-]c1cccc(F)c1

>  <Energy>  (29) 
35.519487832045996

>  <Genealogy>  (29) 
COc1ccccc1C(=O)[N-]c1cccc(F)c1 (protonated)
COc1ccccc1C(=O)[N-]c1cccc(F)c1 (3D coordinates assigned)
COc1ccccc1C(=O)[N-]c1cccc(F)c1 (optimized conformer: 35.519487832045996 kcal/mol)

>  <smiles>  (29) 
COc1ccccc1C(=O)Nc1cccc(F)c1

>  <score_type>  (29) 
oracle

>  <origin>  (29) 
adg

>  <m_score__min__energy>  (29) 
-7.7699999999999996

>  <m_primary>  (29) 
energy

$$$$
29:0
     RDKit          3D

 43 47  0  0  0  0  0  0  0  0999 V2000
   -3.3910   21.9560  -27.9570 C   0  0  0  0  0  0  0  0  0  0  0  0
   -3.7390   22.1570  -29.3220 O   0  0  0  0  0  0  0  0  0  0  0  0
   -4.5560   23.2000  -29.7910 C   0  0  0  0  0  0  0  0  0  0  0  0
   -4.9390   24.2750  -28.9640 C   0  0  0  0  0  0  0  0  0  0  0  0
   -5.7360   25.3050  -29.4700 C   0  0  0  0  0  0  0  0  0  0  0  0
   -6.1540   25.2790  -30.8010 C   0  0  0  0  0  0  0  0  0  0  0  0
   -5.7840   24.2190  -31.6300 C   0  0  0  0  0  0  0  0  0  0  0  0
   -5.0050   23.1660  -31.1260 C   0  0  0  0  0  0  0  0  0  0  0  0
   -4.6060   22.0720  -32.0280 C   0  0  0  0  0  0  0  0  0  0  0  0
   -3.3200   21.8880  -32.3960 N   0  0  0  0  0  0  0  0  0  0  0  0
   -3.2490   20.7250  -33.0310 N   0  0  0  0  0  0  0  0  0  0  0  0
   -4.4950   20.2200  -33.0410 C   0  0  0  0  0  0  0  0  0  0  0  0
   -4.8890   18.9700  -33.5380 C   0  0  0  0  0  0  0  0  0  0  0  0
   -3.9490   18.0250  -34.1850 C   0  0  0  0  0  0  0  0  0  0  0  0
   -4.3950   17.0790  -35.1270 C   0  0  0  0  0  0  0  0  0  0  0  0
   -3.4920   16.1870  -35.7150 C   0  0  0  0  0  0  0  0  0  0  0  0
   -2.1400   16.2230  -35.3630 C   0  0  0  0  0  0  0  0  0  0  0  0
   -1.2680   15.3550  -35.9340 F   0  0  0  0  0  0  0  0  0  0  0  0
   -1.6900   17.1460  -34.4170 C   0  0  0  0  0  0  0  0  0  0  0  0
   -2.5890   18.0400  -33.8260 C   0  0  0  0  0  0  0  0  0  0  0  0
   -6.1970   18.6150  -33.3790 N   0  0  0  0  0  0  0  0  0  0  0  0
   -7.1130   19.4460  -32.8010 C   0  0  0  0  0  0  0  0  0  0  0  0
   -8.4490   19.0490  -32.6970 C   0  0  0  0  0  0  0  0  0  0  0  0
   -9.3980   19.9220  -32.1600 C   0  0  0  0  0  0  0  0  0  0  0  0
   -9.0190   21.2000  -31.7440 C   0  0  0  0  0  0  0  0  0  0  0  0
   -7.6850   21.6090  -31.8380 C   0  0  0  0  0  0  0  0  0  0  0  0
   -6.7080   20.7220  -32.3310 C   0  0  0  0  0  0  0  0  0  0  0  0
   -5.3790   21.0330  -32.4330 N   0  0  0  0  0  0  0  0  0  0  0  0
   -4.1628   22.4018  -27.3124 H   0  0  0  0  0  0  0  0  0  0  0  0
   -3.3198   20.8777  -27.7517 H   0  0  0  0  0  0  0  0  0  0  0  0
   -2.4214   22.4331  -27.7517 H   0  0  0  0  0  0  0  0  0  0  0  0
   -4.6089   24.3033  -27.9151 H   0  0  0  0  0  0  0  0  0  0  0  0
   -6.0347   26.1386  -28.8174 H   0  0  0  0  0  0  0  0  0  0  0  0
   -6.7760   26.0951  -31.1974 H   0  0  0  0  0  0  0  0  0  0  0  0
   -6.1041   24.2088  -32.6823 H   0  0  0  0  0  0  0  0  0  0  0  0
   -5.4593   17.0409  -35.4023 H   0  0  0  0  0  0  0  0  0  0  0  0
   -3.8469   15.4556  -36.4561 H   0  0  0  0  0  0  0  0  0  0  0  0
   -0.6268   17.1702  -34.1360 H   0  0  0  0  0  0  0  0  0  0  0  0
   -2.2300   18.7596  -33.0755 H   0  0  0  0  0  0  0  0  0  0  0  0
   -8.7533   18.0485  -33.0382 H   0  0  0  0  0  0  0  0  0  0  0  0
  -10.4461   19.6021  -32.0646 H   0  0  0  0  0  0  0  0  0  0  0  0
   -9.7747   21.8895  -31.3397 H   0  0  0  0  0  0  0  0  0  0  0  0
   -7.3983   22.6243  -31.5267 H   0  0  0  0  0  0  0  0  0  0  0  0
  1  2  1  0
  2  3  1  0
  3  4  2  0
  4  5  1  0
  5  6  2  0
  6  7  1  0
  7  8  2  0
  8  9  1  0
  9 10  2  0
 10 11  1  0
 11 12  2  0
 12 13  1  0
 13 14  1  0
 14 15  2  0
 15 16  1  0
 16 17  2  0
 17 18  1  0
 17 19  1  0
 19 20  2  0
 13 21  2  0
 21 22  1  0
 22 23  2  0
 23 24  1  0
 24 25  2  0
 25 26  1  0
 26 27  2  0
 27 28  1  0
  8  3  1  0
 28  9  1  0
 28 12  1  0
 20 14  1  0
 27 22  1  0
  1 29  1  0
  1 30  1  0
  1 31  1  0
  4 32  1  0
  5 33  1  0
  6 34  1  0
  7 35  1  0
 15 36  1  0
 16 37  1  0
 19 38  1  0
 20 39  1  0
 23 40  1  0
 24 41  1  0
 25 42  1  0
 26 43  1  0
M  END
>  <UniqueID>  (30) 
26

>  <SMILES>  (30) 
COc1ccccc1-c1nnc2c(-c3ccc(F)cc3)nc3ccccc3n12

>  <Energy>  (30) 
109.78530174029268

>  <Genealogy>  (30) 
COc1ccccc1-c1nnc2c(-c3ccc(F)cc3)nc3ccccc3n12 (3D coordinates assigned)
COc1ccccc1-c1nnc2c(-c3ccc(F)cc3)nc3ccccc3n12 (optimized conformer: 109.78530174029268 kcal/mol)

>  <smiles>  (30) 
COc1ccccc1-c1nnc2c(-c3ccc(F)cc3)nc3ccccc3n12

>  <score_type>  (30) 
oracle

>  <origin>  (30) 
adg

>  <m_score__min__energy>  (30) 
-8.4900000000000002

>  <m_primary>  (30) 
energy

$$$$
30:0
     RDKit          3D

 54 57  0  0  0  0  0  0  0  0999 V2000
   -2.3610   24.4280  -29.1660 C   0  0  0  0  0  0  0  0  0  0  0  0
   -3.4080   24.9760  -29.9620 O   0  0  0  0  0  0  0  0  0  0  0  0
   -4.6290   24.3340  -30.2110 C   0  0  0  0  0  0  0  0  0  0  0  0
   -5.4180   24.7950  -31.2730 C   0  0  0  0  0  0  0  0  0  0  0  0
   -6.6480   24.1960  -31.5570 C   0  0  0  0  0  0  0  0  0  0  0  0
   -7.1140   23.1270  -30.7730 C   0  0  0  0  0  0  0  0  0  0  0  0
   -8.4360   22.4760  -31.0950 C   0  0  0  0  0  0  0  0  0  0  0  0
   -8.3220   21.6430  -32.3160 N   0  0  0  0  0  0  0  0  0  0  0  0
   -9.1750   20.4300  -32.2380 C   0  0  0  0  0  0  0  0  0  0  0  0
   -8.4500   19.2450  -31.5850 C   0  0  0  0  0  0  0  0  0  0  0  0
   -7.1740   18.9790  -32.2610 N   0  0  0  0  0  0  0  0  0  0  0  0
   -6.3900   17.8390  -31.8620 C   0  0  0  0  0  0  0  0  0  0  0  0
   -6.4620   17.4240  -30.6740 O   0  0  0  0  0  0  0  0  0  0  0  0
   -5.4670   17.1570  -32.7910 C   0  0  0  0  0  0  0  0  0  0  0  0
   -5.7740   15.9250  -33.2790 N   0  0  0  0  0  0  0  0  0  0  0  0
   -4.8020   15.4270  -34.0730 C   0  0  0  0  0  0  0  0  0  0  0  0
   -4.8430   14.0610  -34.6690 C   0  0  0  0  0  0  0  0  0  0  0  0
   -3.5020   16.4850  -34.1890 S   0  0  0  0  0  0  0  0  0  0  0  0
   -4.2240   17.6580  -33.2160 C   0  0  0  0  0  0  0  0  0  0  0  0
   -3.6460   18.9950  -32.9680 C   0  0  0  0  0  0  0  0  0  0  0  0
   -2.7800   19.5730  -33.9120 C   0  0  0  0  0  0  0  0  0  0  0  0
   -2.2180   20.8320  -33.6780 C   0  0  0  0  0  0  0  0  0  0  0  0
   -2.5260   21.5270  -32.5040 C   0  0  0  0  0  0  0  0  0  0  0  0
   -3.4050   20.9710  -31.5710 C   0  0  0  0  0  0  0  0  0  0  0  0
   -3.9700   19.7150  -31.8050 C   0  0  0  0  0  0  0  0  0  0  0  0
   -6.6650   19.9630  -33.2260 C   0  0  0  0  0  0  0  0  0  0  0  0
   -6.8950   21.3740  -32.6720 C   0  0  0  0  0  0  0  0  0  0  0  0
   -6.3210   22.6540  -29.7160 C   0  0  0  0  0  0  0  0  0  0  0  0
   -5.0870   23.2510  -29.4360 C   0  0  0  0  0  0  0  0  0  0  0  0
   -2.6049   24.5557  -28.1010 H   0  0  0  0  0  0  0  0  0  0  0  0
   -2.2514   23.3569  -29.3912 H   0  0  0  0  0  0  0  0  0  0  0  0
   -1.4184   24.9484  -29.3912 H   0  0  0  0  0  0  0  0  0  0  0  0
   -5.0661   25.6359  -31.8886 H   0  0  0  0  0  0  0  0  0  0  0  0
   -7.2544   24.5630  -32.3982 H   0  0  0  0  0  0  0  0  0  0  0  0
   -8.7415   21.8405  -30.2507 H   0  0  0  0  0  0  0  0  0  0  0  0
   -9.1858   23.2617  -31.2697 H   0  0  0  0  0  0  0  0  0  0  0  0
  -10.0710   20.6659  -31.6452 H   0  0  0  0  0  0  0  0  0  0  0  0
   -9.4367   20.1377  -33.2657 H   0  0  0  0  0  0  0  0  0  0  0  0
   -8.2563   19.4787  -30.5277 H   0  0  0  0  0  0  0  0  0  0  0  0
   -9.0868   18.3520  -31.6688 H   0  0  0  0  0  0  0  0  0  0  0  0
   -4.8655   13.3107  -33.8649 H   0  0  0  0  0  0  0  0  0  0  0  0
   -5.7446   13.9592  -35.2909 H   0  0  0  0  0  0  0  0  0  0  0  0
   -3.9491   13.9053  -35.2909 H   0  0  0  0  0  0  0  0  0  0  0  0
   -2.5429   19.0321  -34.8400 H   0  0  0  0  0  0  0  0  0  0  0  0
   -1.5342   21.2754  -34.4168 H   0  0  0  0  0  0  0  0  0  0  0  0
   -2.0756   22.5126  -32.3149 H   0  0  0  0  0  0  0  0  0  0  0  0
   -3.6522   21.5225  -30.6519 H   0  0  0  0  0  0  0  0  0  0  0  0
   -4.6726   19.2869  -31.0749 H   0  0  0  0  0  0  0  0  0  0  0  0
   -5.5887   19.8005  -33.3849 H   0  0  0  0  0  0  0  0  0  0  0  0
   -7.1935   19.8502  -34.1841 H   0  0  0  0  0  0  0  0  0  0  0  0
   -6.2800   21.4992  -31.7686 H   0  0  0  0  0  0  0  0  0  0  0  0
   -6.6167   22.0849  -33.4639 H   0  0  0  0  0  0  0  0  0  0  0  0
   -6.6715   21.8095  -29.1045 H   0  0  0  0  0  0  0  0  0  0  0  0
   -4.4716   22.8726  -28.6065 H   0  0  0  0  0  0  0  0  0  0  0  0
  1  2  1  0
  2  3  1  0
  3  4  2  0
  4  5  1  0
  5  6  2  0
  6  7  1  0
  7  8  1  0
  8  9  1  0
  9 10  1  0
 10 11  1  0
 11 12  1  0
 12 13  2  0
 12 14  1  0
 14 15  1  0
 15 16  2  0
 16 17  1  0
 16 18  1  0
 18 19  1  0
 19 20  1  0
 20 21  2  0
 21 22  1  0
 22 23  2  0
 23 24  1  0
 24 25  2  0
 11 26  1  0
 26 27  1  0
  6 28  1  0
 28 29  2  0
 29  3  1  0
 27  8  1  0
 19 14  2  0
 25 20  1  0
  1 30  1  0
  1 31  1  0
  1 32  1  0
  4 33  1  0
  5 34  1  0
  7 35  1  0
  7 36  1  0
  9 37  1  0
  9 38  1  0
 10 39  1  0
 10 40  1  0
 17 41  1  0
 17 42  1  0
 17 43  1  0
 21 44  1  0
 22 45  1  0
 23 46  1  0
 24 47  1  0
 25 48  1  0
 26 49  1  0
 26 50  1  0
 27 51  1  0
 27 52  1  0
 28 53  1  0
 29 54  1  0
M  END
>  <UniqueID>  (31) 
27

>  <SMILES>  (31) 
COc1ccc(CN2CCN(C(=O)c3nc(C)sc3-c3ccccc3)CC2)cc1

>  <Energy>  (31) 
99.48383856313356

>  <Genealogy>  (31) 
COc1ccc(CN2CCN(C(=O)c3nc(C)sc3-c3ccccc3)CC2)cc1 (3D coordinates assigned)
COc1ccc(CN2CCN(C(=O)c3nc(C)sc3-c3ccccc3)CC2)cc1 (nonaromatic ring conformer: 99.48383856313356 kcal/mol)

>  <smiles>  (31) 
COc1ccc(CN2CCN(C(=O)c3nc(C)sc3-c3ccccc3)CC2)cc1

>  <score_type>  (31) 
oracle

>  <origin>  (31) 
adg

>  <m_score__min__energy>  (31) 
-9.3599999999999994

>  <m_primary>  (31) 
energy

$$$$
31:0
     RDKit          3D

 94 95  0  0  0  0  0  0  0  0999 V2000
   -3.7210   22.8750  -27.8940 C   0  0  0  0  0  0  0  0  0  0  0  0
   -3.3100   24.3390  -28.0010 C   0  0  0  0  0  0  0  0  0  0  0  0
   -2.6000   24.6250  -29.3250 C   0  0  0  0  0  0  0  0  0  0  0  0
   -3.5110   25.2990  -30.2430 N   0  0  0  0  0  0  0  0  0  0  0  0
   -4.7530   24.7900  -30.7550 C   0  0  0  0  0  0  0  0  0  0  0  0
   -5.7260   25.5840  -30.8450 O   0  0  0  0  0  0  0  0  0  0  0  0
   -4.9220   23.3410  -31.1860 C   0  0  1  0  0  0  0  0  0  0  0  0
   -5.9850   23.1670  -32.2910 C   0  0  0  0  0  0  0  0  0  0  0  0
   -6.6030   21.7890  -32.3380 C   0  0  0  0  0  0  0  0  0  0  0  0
   -7.8960   21.5730  -31.8260 C   0  0  0  0  0  0  0  0  0  0  0  0
   -8.5000   20.3170  -31.9460 C   0  0  0  0  0  0  0  0  0  0  0  0
   -7.8120   19.2620  -32.5480 C   0  0  0  0  0  0  0  0  0  0  0  0
   -6.5260   19.4640  -33.0520 C   0  0  0  0  0  0  0  0  0  0  0  0
   -5.9250   20.7230  -32.9560 C   0  0  0  0  0  0  0  0  0  0  0  0
   -3.6410   22.7550  -31.6050 N   0  0  0  0  0  0  0  0  0  0  0  0
   -3.1770   21.4890  -31.1080 C   0  0  0  0  0  0  0  0  0  0  0  0
   -3.8820   20.8290  -30.2980 O   0  0  0  0  0  0  0  0  0  0  0  0
   -1.8640   20.9270  -31.5690 C   0  0  0  0  0  0  0  0  0  0  0  0
   -1.7410   21.0580  -33.0710 C   0  0  0  0  0  0  0  0  0  0  0  0
   -2.6960   21.5340  -33.6660 O   0  0  0  0  0  0  0  0  0  0  0  0
   -0.5170   20.6510  -33.8880 C   0  0  1  0  0  0  0  0  0  0  0  0
   -0.5350   19.1850  -34.3770 C   0  0  0  0  0  0  0  0  0  0  0  0
   -1.5190   18.2770  -33.5920 C   0  0  0  0  0  0  0  0  0  0  0  0
   -0.9860   16.8390  -33.5420 C   0  0  0  0  0  0  0  0  0  0  0  0
   -2.9220   18.2830  -34.2250 C   0  0  0  0  0  0  0  0  0  0  0  0
   -0.4120   21.5420  -35.0490 N   0  0  0  0  0  0  0  0  0  0  0  0
    0.7070   21.6480  -35.9450 C   0  0  0  0  0  0  0  0  0  0  0  0
    0.8910   20.7360  -36.7960 O   0  0  0  0  0  0  0  0  0  0  0  0
    1.7110   22.7750  -35.8340 C   0  0  2  0  0  0  0  0  0  0  0  0
    1.4780   23.8090  -36.8470 N   0  0  0  0  0  0  0  0  0  0  0  0
    1.1740   25.1750  -36.5350 C   0  0  0  0  0  0  0  0  0  0  0  0
    0.9070   25.5030  -35.3450 O   0  0  0  0  0  0  0  0  0  0  0  0
    1.2600   26.2610  -37.5810 C   0  0  0  0  0  0  0  0  0  0  0  0
    0.0280   27.2220  -37.6870 C   0  0  0  0  0  0  0  0  0  0  0  0
   -1.2420   26.4640  -37.2110 C   0  0  0  0  0  0  0  0  0  0  0  0
   -0.1810   27.5690  -39.1790 C   0  0  0  0  0  0  0  0  0  0  0  0
    0.2710   28.5390  -36.9190 C   0  0  0  0  0  0  0  0  0  0  0  0
   -0.3640   29.7530  -37.2760 C   0  0  0  0  0  0  0  0  0  0  0  0
   -0.1340   30.9230  -36.5450 C   0  0  0  0  0  0  0  0  0  0  0  0
    0.7510   30.9170  -35.4700 C   0  0  0  0  0  0  0  0  0  0  0  0
    1.4190   29.7440  -35.1260 C   0  0  0  0  0  0  0  0  0  0  0  0
    1.1920   28.5680  -35.8450 C   0  0  0  0  0  0  0  0  0  0  0  0
    3.1570   22.2220  -35.9280 C   0  0  0  0  0  0  0  0  0  0  0  0
    3.3600   21.0460  -34.9680 C   0  0  0  0  0  0  0  0  0  0  0  0
    4.2320   23.2980  -35.6940 C   0  0  0  0  0  0  0  0  0  0  0  0
   -3.8002   22.5929  -26.8337 H   0  0  0  0  0  0  0  0  0  0  0  0
   -4.6944   22.7306  -28.3855 H   0  0  0  0  0  0  0  0  0  0  0  0
   -2.9650   22.2450  -28.3855 H   0  0  0  0  0  0  0  0  0  0  0  0
   -4.2094   24.9688  -27.9341 H   0  0  0  0  0  0  0  0  0  0  0  0
   -2.6136   24.5635  -27.1797 H   0  0  0  0  0  0  0  0  0  0  0  0
   -1.7276   25.2687  -29.1391 H   0  0  0  0  0  0  0  0  0  0  0  0
   -2.2733   23.6748  -29.7726 H   0  0  0  0  0  0  0  0  0  0  0  0
   -5.2843   22.7973  -30.3011 H   0  0  0  0  0  0  0  0  0  0  0  0
   -6.7868   23.8999  -32.1181 H   0  0  0  0  0  0  0  0  0  0  0  0
   -5.4724   23.3188  -33.2523 H   0  0  0  0  0  0  0  0  0  0  0  0
   -8.4334   22.3946  -31.3298 H   0  0  0  0  0  0  0  0  0  0  0  0
   -9.5199   20.1602  -31.5649 H   0  0  0  0  0  0  0  0  0  0  0  0
   -8.2834   18.2711  -32.6252 H   0  0  0  0  0  0  0  0  0  0  0  0
   -5.9846   18.6316  -33.5253 H   0  0  0  0  0  0  0  0  0  0  0  0
   -4.9165   20.8804  -33.3661 H   0  0  0  0  0  0  0  0  0  0  0  0
   -3.0780   23.2180  -32.3540 H   0  0  0  0  0  0  0  0  0  0  0  0
   -1.0430   21.4783  -31.0873 H   0  0  0  0  0  0  0  0  0  0  0  0
   -1.8118   19.8630  -31.2950 H   0  0  0  0  0  0  0  0  0  0  0  0
    0.3510   20.7385  -33.2179 H   0  0  0  0  0  0  0  0  0  0  0  0
   -0.8257   19.1764  -35.4378 H   0  0  0  0  0  0  0  0  0  0  0  0
    0.4748   18.7799  -34.2150 H   0  0  0  0  0  0  0  0  0  0  0  0
   -1.5996   18.6789  -32.5712 H   0  0  0  0  0  0  0  0  0  0  0  0
   -0.8704   16.5271  -32.4935 H   0  0  0  0  0  0  0  0  0  0  0  0
   -1.6949   16.1674  -34.0483 H   0  0  0  0  0  0  0  0  0  0  0  0
   -0.0106   16.7917  -34.0483 H   0  0  0  0  0  0  0  0  0  0  0  0
   -3.6827   18.2863  -33.4305 H   0  0  0  0  0  0  0  0  0  0  0  0
   -3.0391   19.1817  -34.8485 H   0  0  0  0  0  0  0  0  0  0  0  0
   -3.0468   17.3854  -34.8485 H   0  0  0  0  0  0  0  0  0  0  0  0
    1.5797   23.2476  -34.8494 H   0  0  0  0  0  0  0  0  0  0  0  0
    2.1449   26.8743  -37.3553 H   0  0  0  0  0  0  0  0  0  0  0  0
    1.3056   25.7353  -38.5462 H   0  0  0  0  0  0  0  0  0  0  0  0
   -1.2689   26.4480  -36.1114 H   0  0  0  0  0  0  0  0  0  0  0  0
   -2.1384   26.9749  -37.5923 H   0  0  0  0  0  0  0  0  0  0  0  0
   -1.2178   25.4325  -37.5923 H   0  0  0  0  0  0  0  0  0  0  0  0
   -0.7470   28.5087  -39.2611 H   0  0  0  0  0  0  0  0  0  0  0  0
    0.7970   27.6860  -39.6687 H   0  0  0  0  0  0  0  0  0  0  0  0
   -0.7417   26.7592  -39.6687 H   0  0  0  0  0  0  0  0  0  0  0  0
   -1.0463   29.7763  -38.1385 H   0  0  0  0  0  0  0  0  0  0  0  0
   -0.6545   31.8520  -36.8205 H   0  0  0  0  0  0  0  0  0  0  0  0
    0.9225   31.8377  -34.8930 H   0  0  0  0  0  0  0  0  0  0  0  0
    2.1280   29.7438  -34.2850 H   0  0  0  0  0  0  0  0  0  0  0  0
    1.7366   27.6519  -35.5726 H   0  0  0  0  0  0  0  0  0  0  0  0
    3.2816   21.8674  -36.9618 H   0  0  0  0  0  0  0  0  0  0  0  0
    3.2980   21.4050  -33.9301 H   0  0  0  0  0  0  0  0  0  0  0  0
    2.5788   20.2914  -35.1422 H   0  0  0  0  0  0  0  0  0  0  0  0
    4.3489   20.5970  -35.1422 H   0  0  0  0  0  0  0  0  0  0  0  0
    4.3767   23.4428  -34.6132 H   0  0  0  0  0  0  0  0  0  0  0  0
    5.1792   22.9754  -36.1508 H   0  0  0  0  0  0  0  0  0  0  0  0
    3.9085   24.2449  -36.1508 H   0  0  0  0  0  0  0  0  0  0  0  0
  1  2  1  0
  2  3  1  0
  3  4  1  0
  4  5  1  0
  5  6  2  0
  5  7  1  0
  7  8  1  0
  8  9  1  0
  9 10  2  0
 10 11  1  0
 11 12  2  0
 12 13  1  0
 13 14  2  0
  7 15  1  0
 15 16  1  0
 16 17  2  0
 16 18  1  0
 18 19  1  0
 19 20  2  0
 19 21  1  0
 21 22  1  0
 22 23  1  0
 23 24  1  0
 23 25  1  0
 21 26  1  0
 26 27  1  0
 27 28  2  0
 27 29  1  0
 29 30  1  0
 30 31  1  0
 31 32  2  0
 31 33  1  0
 33 34  1  0
 34 35  1  0
 34 36  1  0
 34 37  1  0
 37 38  2  0
 38 39  1  0
 39 40  2  0
 40 41  1  0
 41 42  2  0
 29 43  1  0
 43 44  1  0
 43 45  1  0
 14  9  1  0
 42 37  1  0
  1 46  1  0
  1 47  1  0
  1 48  1  0
  2 49  1  0
  2 50  1  0
  3 51  1  0
  3 52  1  0
  7 53  1  1
  8 54  1  0
  8 55  1  0
 10 56  1  0
 11 57  1  0
 12 58  1  0
 13 59  1  0
 14 60  1  0
 15 61  1  0
 18 62  1  0
 18 63  1  0
 21 64  1  1
 22 65  1  0
 22 66  1  0
 23 67  1  0
 24 68  1  0
 24 69  1  0
 24 70  1  0
 25 71  1  0
 25 72  1  0
 25 73  1  0
 29 74  1  1
 33 75  1  0
 33 76  1  0
 35 77  1  0
 35 78  1  0
 35 79  1  0
 36 80  1  0
 36 81  1  0
 36 82  1  0
 38 83  1  0
 39 84  1  0
 40 85  1  0
 41 86  1  0
 42 87  1  0
 43 88  1  0
 44 89  1  0
 44 90  1  0
 44 91  1  0
 45 92  1  0
 45 93  1  0
 45 94  1  0
M  CHG  3   4  -1  26  -1  30  -1
M  END
>  <UniqueID>  (32) 
28

>  <SMILES>  (32) 
CCC[N-]C(=O)[C@@H](Cc1ccccc1)NC(=O)CC(=O)[C@@H](CC(C)C)[N-]C(=O)C([N-]C(=O)CC(C)(C)c1ccccc1)C(C)C

>  <Energy>  (32) 
73.47482282648765

>  <Genealogy>  (32) 
CCC[N-]C(=O)C(Cc1ccccc1)NC(=O)CC(=O)C(CC(C)C)[N-]C(=O)C([N-]C(=O)CC(C)(C)c1ccccc1)C(C)C (protonated)
CCC[N-]C(=O)[C@@H](Cc1ccccc1)NC(=O)CC(=O)[C@@H](CC(C)C)[N-]C(=O)C([N-]C(=O)CC(C)(C)c1ccccc1)C(C)C (chirality)
CCC[N-]C(=O)[C@@H](Cc1ccccc1)NC(=O)CC(=O)[C@@H](CC(C)C)[N-]C(=O)C([N-]C(=O)CC(C)(C)c1ccccc1)C(C)C (3D coordinates assigned)
CCC[N-]C(=O)[C@@H](Cc1ccccc1)NC(=O)CC(=O)[C@@H](CC(C)C)[N-]C(=O)C([N-]C(=O)CC(C)(C)c1ccccc1)C(C)C (optimized conformer: 73.47482282648765 kcal/mol)

>  <smiles>  (32) 
CCCNC(=O)C(Cc1ccccc1)NC(=O)CC(=O)C(CC(C)C)NC(=O)C(NC(=O)CC(C)(C)c1ccccc1)C(C)C

>  <score_type>  (32) 
oracle

>  <origin>  (32) 
adg

>  <m_score__min__energy>  (32) 
-13.93

>  <m_primary>  (32) 
energy

$$$$
32:0
     RDKit          3D

 36 37  0  0  0  0  0  0  0  0999 V2000
   -8.6139   21.6619  -29.8856 H   0  0  0  0  0  0  0  0  0  0  0  0
   -8.4850   21.6690  -30.9780 C   0  0  0  0  0  0  0  0  0  0  0  0
   -7.9340   22.8990  -31.5900 C   0  0  0  0  0  0  0  0  0  0  0  0
   -8.6050   23.4690  -32.4900 O   0  0  0  0  0  0  0  0  0  0  0  0
   -6.6600   23.5110  -31.1370 C   0  0  0  0  0  0  0  0  0  0  0  0
   -6.6850   24.7170  -30.4170 C   0  0  0  0  0  0  0  0  0  0  0  0
   -7.6462   25.2138  -30.2190 H   0  0  0  0  0  0  0  0  0  0  0  0
   -5.5020   25.2900  -29.9510 C   0  0  0  0  0  0  0  0  0  0  0  0
   -5.5391   26.2308  -29.3823 H   0  0  0  0  0  0  0  0  0  0  0  0
   -4.2710   24.6800  -30.2000 C   0  0  0  0  0  0  0  0  0  0  0  0
   -3.1120   25.2960  -29.7040 O   0  0  0  0  0  0  0  0  0  0  0  0
   -2.2990   24.7650  -28.6640 C   0  0  0  0  0  0  0  0  0  0  0  0
   -2.7242   25.0427  -27.6882 H   0  0  0  0  0  0  0  0  0  0  0  0
   -2.2633   23.6689  -28.7499 H   0  0  0  0  0  0  0  0  0  0  0  0
   -1.2810   25.1729  -28.7499 H   0  0  0  0  0  0  0  0  0  0  0  0
   -4.2340   23.4780  -30.9310 C   0  0  0  0  0  0  0  0  0  0  0  0
   -3.2672   22.9955  -31.1370 H   0  0  0  0  0  0  0  0  0  0  0  0
   -5.4240   22.8860  -31.4020 C   0  0  0  0  0  0  0  0  0  0  0  0
   -5.4140   21.6710  -32.1070 O   0  0  0  0  0  0  0  0  0  0  0  0
   -4.2630   21.0980  -32.7220 C   0  0  0  0  0  0  0  0  0  0  0  0
   -3.5663   20.7512  -31.9446 H   0  0  0  0  0  0  0  0  0  0  0  0
   -4.5675   20.2463  -33.3480 H   0  0  0  0  0  0  0  0  0  0  0  0
   -3.7669   21.8543  -33.3480 H   0  0  0  0  0  0  0  0  0  0  0  0
   -8.8400   20.5620  -31.6480 C   0  0  0  0  0  0  0  0  0  0  0  0
   -9.9152   20.3617  -31.7657 H   0  0  0  0  0  0  0  0  0  0  0  0
   -7.8950   19.5910  -32.2400 C   0  0  0  0  0  0  0  0  0  0  0  0
   -7.2210   19.8680  -33.4430 C   0  0  0  0  0  0  0  0  0  0  0  0
   -7.4037   20.8173  -33.9679 H   0  0  0  0  0  0  0  0  0  0  0  0
   -6.3190   18.9400  -33.9740 C   0  0  0  0  0  0  0  0  0  0  0  0
   -5.7785   19.1694  -34.9042 H   0  0  0  0  0  0  0  0  0  0  0  0
   -6.1040   17.7220  -33.3240 C   0  0  0  0  0  0  0  0  0  0  0  0
   -5.3884   16.9962  -33.7378 H   0  0  0  0  0  0  0  0  0  0  0  0
   -6.7990   17.4260  -32.1470 C   0  0  0  0  0  0  0  0  0  0  0  0
   -6.6375   16.4624  -31.6416 H   0  0  0  0  0  0  0  0  0  0  0  0
   -7.6980   18.3520  -31.6120 C   0  0  0  0  0  0  0  0  0  0  0  0
   -8.2537   18.1086  -30.6944 H   0  0  0  0  0  0  0  0  0  0  0  0
  1  2  1  0
  2  3  1  0
  3  4  2  0
  3  5  1  0
  5  6  2  0
  6  7  1  0
  6  8  1  0
  8  9  1  0
  8 10  2  0
 10 11  1  0
 11 12  1  0
 12 13  1  0
 12 14  1  0
 12 15  1  0
 10 16  1  0
 16 17  1  0
 16 18  2  0
 18 19  1  0
 19 20  1  0
 20 21  1  0
 20 22  1  0
 20 23  1  0
  2 24  2  0
 24 25  1  0
 24 26  1  0
 26 27  2  0
 27 28  1  0
 27 29  1  0
 29 30  1  0
 29 31  2  0
 31 32  1  0
 31 33  1  0
 33 34  1  0
 33 35  2  0
 35 36  1  0
 18  5  1  0
 35 26  1  0
M  END
>  <UniqueID>  (33) 
29

>  <SMILES>  (33) 
COc1ccc(C(=O)/C=C\c2ccccc2)c(OC)c1

>  <Energy>  (33) 
45.9478908915561

>  <Genealogy>  (33) 
COc1ccc(C(=O)/C=C\c2ccccc2)c(OC)c1 (cis-trans isomerization)
COc1ccc(C(=O)/C=C\c2ccccc2)c(OC)c1 (3D coordinates assigned)
COc1ccc(C(=O)/C=C\c2ccccc2)c(OC)c1 (optimized conformer: 45.9478908915561 kcal/mol)

>  <smiles>  (33) 
COc1ccc(C(=O)C=Cc2ccccc2)c(OC)c1

>  <score_type>  (33) 
oracle

>  <origin>  (33) 
adg

>  <m_score__min__energy>  (33) 
-8.0600000000000005

>  <m_primary>  (33) 
energy

$$$$
33:0
     RDKit          3D

 41 43  0  0  0  0  0  0  0  0999 V2000
   -6.6090   19.0330  -35.5020 H   0  0  0  0  0  0  0  0  0  0  0  0
   -6.1010   19.0470  -34.5900 N   0  0  0  0  0  0  0  0  0  0  0  0
   -6.7460   18.9610  -33.4740 C   0  0  0  0  0  0  0  0  0  0  0  0
   -6.2900   18.2640  -32.3800 O   0  0  0  0  0  0  0  0  0  0  0  0
   -7.2330   18.3790  -31.3200 C   0  0  0  0  0  0  0  0  0  0  0  0
   -6.7844   18.9011  -30.4620 H   0  0  0  0  0  0  0  0  0  0  0  0
   -7.5630   17.3933  -30.9602 H   0  0  0  0  0  0  0  0  0  0  0  0
   -8.4200   19.2080  -31.9020 C   0  0  1  0  0  0  0  0  0  0  0  0
   -9.3475   18.6173  -31.8734 H   0  0  0  0  0  0  0  0  0  0  0  0
   -8.7330   20.4830  -31.0910 C   0  0  0  0  0  0  0  0  0  0  0  0
   -9.7743   20.4269  -30.7408 H   0  0  0  0  0  0  0  0  0  0  0  0
   -8.0161   20.5224  -30.2576 H   0  0  0  0  0  0  0  0  0  0  0  0
   -8.5600   21.7790  -31.9010 C   0  0  0  0  0  0  0  0  0  0  0  0
   -8.4982   21.5215  -32.9686 H   0  0  0  0  0  0  0  0  0  0  0  0
   -9.4262   22.4228  -31.6883 H   0  0  0  0  0  0  0  0  0  0  0  0
   -7.3190   22.5420  -31.5160 C   0  0  0  0  0  0  0  0  0  0  0  0
   -6.1880   22.5290  -32.3480 C   0  0  0  0  0  0  0  0  0  0  0  0
   -6.1966   21.9370  -33.2750 H   0  0  0  0  0  0  0  0  0  0  0  0
   -5.0520   23.2650  -32.0030 C   0  0  0  0  0  0  0  0  0  0  0  0
   -4.1644   23.2346  -32.6520 H   0  0  0  0  0  0  0  0  0  0  0  0
   -5.0340   24.0410  -30.8380 C   0  0  0  0  0  0  0  0  0  0  0  0
   -3.8350   24.7630  -30.5080 N   0  0  0  0  0  0  0  0  0  0  0  0
   -2.9050   24.3930  -29.6760 C   0  0  0  0  0  0  0  0  0  0  0  0
   -2.1040   25.3040  -29.0580 N   0  0  0  0  0  0  0  0  0  0  0  0
   -1.1180   24.9160  -28.2090 C   0  0  0  0  0  0  0  0  0  0  0  0
   -0.4875   25.6700  -27.7150 H   0  0  0  0  0  0  0  0  0  0  0  0
   -0.9050   23.5500  -27.9630 C   0  0  0  0  0  0  0  0  0  0  0  0
    0.0940   23.0770  -27.0990 O   0  0  0  0  0  0  0  0  0  0  0  0
   -0.0560   22.9660  -25.6880 C   0  0  0  0  0  0  0  0  0  0  0  0
    0.7318   23.5490  -25.1885 H   0  0  0  0  0  0  0  0  0  0  0  0
   -1.0421   23.3536  -25.3925 H   0  0  0  0  0  0  0  0  0  0  0  0
    0.0264   21.9096  -25.3925 H   0  0  0  0  0  0  0  0  0  0  0  0
   -1.7290   22.6340  -28.6150 C   0  0  0  0  0  0  0  0  0  0  0  0
   -1.5891   21.5558  -28.4478 H   0  0  0  0  0  0  0  0  0  0  0  0
   -2.7040   23.0670  -29.4560 N   0  0  0  0  0  0  0  0  0  0  0  0
   -6.1540   24.0290  -29.9870 C   0  0  0  0  0  0  0  0  0  0  0  0
   -6.1353   24.6022  -29.0484 H   0  0  0  0  0  0  0  0  0  0  0  0
   -7.2910   23.2910  -30.3300 C   0  0  0  0  0  0  0  0  0  0  0  0
   -8.1683   23.2977  -29.6664 H   0  0  0  0  0  0  0  0  0  0  0  0
   -7.9960   19.5660  -33.2500 N   0  0  0  0  0  0  0  0  0  0  0  0
   -8.5600   20.0880  -33.9570 H   0  0  0  0  0  0  0  0  0  0  0  0
  1  2  1  0
  2  3  2  0
  3  4  1  0
  4  5  1  0
  5  6  1  0
  5  7  1  0
  5  8  1  0
  8  9  1  6
  8 10  1  0
 10 11  1  0
 10 12  1  0
 10 13  1  0
 13 14  1  0
 13 15  1  0
 13 16  1  0
 16 17  2  0
 17 18  1  0
 17 19  1  0
 19 20  1  0
 19 21  2  0
 21 22  1  0
 22 23  2  3
 23 24  1  0
 24 25  2  0
 25 26  1  0
 25 27  1  0
 27 28  1  0
 28 29  1  0
 29 30  1  0
 29 31  1  0
 29 32  1  0
 27 33  2  0
 33 34  1  0
 33 35  1  0
 21 36  1  0
 36 37  1  0
 36 38  2  0
 38 39  1  0
  8 40  1  0
 40 41  1  0
 40  3  1  0
 38 16  1  0
 35 23  1  0
M  CHG  1  35  -1
M  END
>  <UniqueID>  (34) 
30

>  <SMILES>  (34) 
[H]/N=C1/N[C@H](CCc2ccc(N=c3ncc(OC)c[n-]3)cc2)CO1

>  <Energy>  (34) 
59.65980631862959

>  <Genealogy>  (34) 
COc1cnc(=Nc2ccc(CCC3COC(=N)N3)cc2)[n-]c1 (protonated)
COc1cnc(=Nc2ccc(CC[C@@H]3COC(=N)N3)cc2)[n-]c1 (chirality)
[H]/N=C1/N[C@H](CCc2ccc(N=c3ncc(OC)c[n-]3)cc2)CO1 (cis-trans isomerization)
[H]/N=C1/N[C@H](CCc2ccc(N=c3ncc(OC)c[n-]3)cc2)CO1 (3D coordinates assigned)
[H]/N=C1/N[C@H](CCc2ccc(N=c3ncc(OC)c[n-]3)cc2)CO1 (nonaromatic ring conformer: 59.65980631862959 kcal/mol)

>  <smiles>  (34) 
COc1cnc(=Nc2ccc(CCC3COC(=N)N3)cc2)[nH]c1

>  <score_type>  (34) 
oracle

>  <origin>  (34) 
adg

>  <m_score__min__energy>  (34) 
-9.1400000000000006

>  <m_primary>  (34) 
energy

$$$$
34:0
     RDKit          3D

 65 64  0  0  0  0  0  0  0  0999 V2000
   -1.5540   24.9030  -29.3550 N   0  0  0  0  0  0  0  0  0  0  0  0
   -1.0780   24.9490  -27.9750 C   0  0  0  0  0  0  0  0  0  0  0  0
   -1.9460   24.0730  -27.0590 C   0  0  0  0  0  0  0  0  0  0  0  0
   -3.4010   24.5570  -26.9400 C   0  0  0  0  0  0  0  0  0  0  0  0
   -4.3610   23.8210  -27.8970 C   0  0  0  0  0  0  0  0  0  0  0  0
   -3.6750   22.8010  -28.7080 N   0  0  0  0  0  0  0  0  0  0  0  0
   -3.5030   21.5370  -27.9790 C   0  0  0  0  0  0  0  0  0  0  0  0
   -2.8450   20.4970  -28.8910 C   0  0  0  0  0  0  0  0  0  0  0  0
   -1.3200   20.6710  -28.9200 C   0  0  0  0  0  0  0  0  0  0  0  0
   -0.8730   22.0630  -29.4150 C   0  0  0  0  0  0  0  0  0  0  0  0
   -1.5540   22.5420  -30.6340 N   0  0  0  0  0  0  0  0  0  0  0  0
   -1.1600   21.8630  -31.8810 C   0  0  0  0  0  0  0  0  0  0  0  0
   -2.2370   20.8900  -32.3930 C   0  0  0  0  0  0  0  0  0  0  0  0
   -3.5610   21.5840  -32.7570 C   0  0  0  0  0  0  0  0  0  0  0  0
   -4.4040   21.8180  -31.5750 N   0  0  0  0  0  0  0  0  0  0  0  0
   -5.2210   20.6420  -31.2480 C   0  0  0  0  0  0  0  0  0  0  0  0
   -6.6910   20.9370  -31.5690 C   0  0  0  0  0  0  0  0  0  0  0  0
   -7.3390   21.8840  -30.5500 C   0  0  0  0  0  0  0  0  0  0  0  0
   -6.3350   22.7970  -29.9820 N   0  0  0  0  0  0  0  0  0  0  0  0
   -6.8480   24.1730  -29.8720 C   0  0  0  0  0  0  0  0  0  0  0  0
   -6.1080   25.1010  -30.8450 C   0  0  0  0  0  0  0  0  0  0  0  0
   -4.6310   25.3030  -30.4800 C   0  0  0  0  0  0  0  0  0  0  0  0
   -3.8260   24.1650  -30.9180 N   0  0  0  0  0  0  0  0  0  0  0  0
   -0.7800   24.5390  -29.9560 H   0  0  0  0  0  0  0  0  0  0  0  0
   -2.3220   24.1940  -29.4030 H   0  0  0  0  0  0  0  0  0  0  0  0
   -0.0403   24.5857  -27.9410 H   0  0  0  0  0  0  0  0  0  0  0  0
   -1.1365   25.9887  -27.6206 H   0  0  0  0  0  0  0  0  0  0  0  0
   -1.9521   23.0492  -27.4612 H   0  0  0  0  0  0  0  0  0  0  0  0
   -1.5060   24.1251  -26.0522 H   0  0  0  0  0  0  0  0  0  0  0  0
   -3.7417   24.3929  -25.9070 H   0  0  0  0  0  0  0  0  0  0  0  0
   -3.4168   25.6224  -27.2131 H   0  0  0  0  0  0  0  0  0  0  0  0
   -5.1450   23.3301  -27.3018 H   0  0  0  0  0  0  0  0  0  0  0  0
   -4.7843   24.5671  -28.5856 H   0  0  0  0  0  0  0  0  0  0  0  0
   -4.2250   22.6240  -29.5810 H   0  0  0  0  0  0  0  0  0  0  0  0
   -2.8650   21.7069  -27.0992 H   0  0  0  0  0  0  0  0  0  0  0  0
   -4.4875   21.1666  -27.6572 H   0  0  0  0  0  0  0  0  0  0  0  0
   -3.0844   19.4901  -28.5184 H   0  0  0  0  0  0  0  0  0  0  0  0
   -3.2311   20.6343  -29.9118 H   0  0  0  0  0  0  0  0  0  0  0  0
   -0.9322   20.5216  -27.9015 H   0  0  0  0  0  0  0  0  0  0  0  0
   -0.9212   19.9300  -29.6285 H   0  0  0  0  0  0  0  0  0  0  0  0
   -1.0640   22.7884  -28.6105 H   0  0  0  0  0  0  0  0  0  0  0  0
    0.1915   21.9684  -29.6756 H   0  0  0  0  0  0  0  0  0  0  0  0
   -2.5890   22.4620  -30.5120 H   0  0  0  0  0  0  0  0  0  0  0  0
   -0.9774   22.6243  -32.6537 H   0  0  0  0  0  0  0  0  0  0  0  0
   -0.2552   21.2750  -31.6677 H   0  0  0  0  0  0  0  0  0  0  0  0
   -1.8511   20.3823  -33.2893 H   0  0  0  0  0  0  0  0  0  0  0  0
   -2.4527   20.1843  -31.5772 H   0  0  0  0  0  0  0  0  0  0  0  0
   -3.3365   22.5514  -33.2301 H   0  0  0  0  0  0  0  0  0  0  0  0
   -4.1130   20.9241  -33.4425 H   0  0  0  0  0  0  0  0  0  0  0  0
   -3.7690   21.9990  -30.7610 H   0  0  0  0  0  0  0  0  0  0  0  0
   -4.8809   19.7819  -31.8435 H   0  0  0  0  0  0  0  0  0  0  0  0
   -5.1184   20.4098  -30.1777 H   0  0  0  0  0  0  0  0  0  0  0  0
   -6.7481   21.3993  -32.5655 H   0  0  0  0  0  0  0  0  0  0  0  0
   -7.2379   19.9833  -31.5323 H   0  0  0  0  0  0  0  0  0  0  0  0
   -8.1216   22.4731  -31.0504 H   0  0  0  0  0  0  0  0  0  0  0  0
   -7.7754   21.2857  -29.7366 H   0  0  0  0  0  0  0  0  0  0  0  0
   -5.5060   22.8110  -30.6230 H   0  0  0  0  0  0  0  0  0  0  0  0
   -7.9217   24.1794  -30.1112 H   0  0  0  0  0  0  0  0  0  0  0  0
   -6.6866   24.5322  -28.8449 H   0  0  0  0  0  0  0  0  0  0  0  0
   -6.1628   24.6658  -31.8537 H   0  0  0  0  0  0  0  0  0  0  0  0
   -6.5958   26.0856  -30.7937 H   0  0  0  0  0  0  0  0  0  0  0  0
   -4.2606   26.2159  -30.9693 H   0  0  0  0  0  0  0  0  0  0  0  0
   -4.5479   25.3926  -29.3868 H   0  0  0  0  0  0  0  0  0  0  0  0
   -2.9670   24.1200  -30.3210 H   0  0  0  0  0  0  0  0  0  0  0  0
   -4.3710   23.2950  -30.7220 H   0  0  0  0  0  0  0  0  0  0  0  0
  1  2  1  0
  2  3  1  0
  3  4  1  0
  4  5  1  0
  5  6  1  0
  6  7  1  0
  7  8  1  0
  8  9  1  0
  9 10  1  0
 10 11  1  0
 11 12  1  0
 12 13  1  0
 13 14  1  0
 14 15  1  0
 15 16  1  0
 16 17  1  0
 17 18  1  0
 18 19  1  0
 19 20  1  0
 20 21  1  0
 21 22  1  0
 22 23  1  0
  1 24  1  0
  1 25  1  0
  2 26  1  0
  2 27  1  0
  3 28  1  0
  3 29  1  0
  4 30  1  0
  4 31  1  0
  5 32  1  0
  5 33  1  0
  6 34  1  0
  7 35  1  0
  7 36  1  0
  8 37  1  0
  8 38  1  0
  9 39  1  0
  9 40  1  0
 10 41  1  0
 10 42  1  0
 11 43  1  0
 12 44  1  0
 12 45  1  0
 13 46  1  0
 13 47  1  0
 14 48  1  0
 14 49  1  0
 15 50  1  0
 16 51  1  0
 16 52  1  0
 17 53  1  0
 17 54  1  0
 18 55  1  0
 18 56  1  0
 19 57  1  0
 20 58  1  0
 20 59  1  0
 21 60  1  0
 21 61  1  0
 22 62  1  0
 22 63  1  0
 23 64  1  0
 23 65  1  0
M  END
>  <UniqueID>  (35) 
31

>  <SMILES>  (35) 
NCCCCNCCCCNCCCNCCCNCCCN

>  <Energy>  (35) 
39.470048950022914

>  <Genealogy>  (35) 
NCCCCNCCCCNCCCNCCCNCCCN (3D coordinates assigned)
NCCCCNCCCCNCCCNCCCNCCCN (optimized conformer: 39.470048950022914 kcal/mol)

>  <smiles>  (35) 
NCCCCNCCCCNCCCNCCCNCCCN

>  <score_type>  (35) 
oracle

>  <origin>  (35) 
adg

>  <m_score__min__energy>  (35) 
-3.3799999999999999

>  <m_primary>  (35) 
energy

$$$$
35:0
     RDKit          3D

 34 35  0  0  0  0  0  0  0  0999 V2000
   -4.2760   25.8430  -31.8140 H   0  0  0  0  0  0  0  0  0  0  0  0
   -4.5890   25.6360  -30.8400 N   0  0  0  0  0  0  0  0  0  0  0  0
   -4.0480   24.6790  -30.1570 C   0  0  0  0  0  0  0  0  0  0  0  0
   -2.7270   24.7980  -29.7220 O   0  0  0  0  0  0  0  0  0  0  0  0
   -2.0720   23.7900  -29.0010 C   0  0  0  0  0  0  0  0  0  0  0  0
   -0.7720   24.1690  -28.3520 C   0  0  0  0  0  0  0  0  0  0  0  0
   -0.8849   24.1361  -27.2583 H   0  0  0  0  0  0  0  0  0  0  0  0
    0.0120   23.4620  -28.6611 H   0  0  0  0  0  0  0  0  0  0  0  0
   -0.4908   25.1865  -28.6611 H   0  0  0  0  0  0  0  0  0  0  0  0
   -2.6110   22.5420  -28.9120 C   0  0  0  0  0  0  0  0  0  0  0  0
   -1.9270   21.4120  -28.2260 C   0  0  0  0  0  0  0  0  0  0  0  0
   -0.9020   20.8970  -28.7530 O   0  0  0  0  0  0  0  0  0  0  0  0
   -2.3780   20.9450  -26.9850 O   0  0  0  0  0  0  0  0  0  0  0  0
   -2.1170   19.6320  -26.4950 C   0  0  0  0  0  0  0  0  0  0  0  0
   -1.4912   19.0927  -27.2213 H   0  0  0  0  0  0  0  0  0  0  0  0
   -1.5965   19.7106  -25.5291 H   0  0  0  0  0  0  0  0  0  0  0  0
   -3.4190   18.8680  -26.2910 C   0  0  0  0  0  0  0  0  0  0  0  0
   -3.6126   18.7544  -25.2141 H   0  0  0  0  0  0  0  0  0  0  0  0
   -4.2468   19.4236  -26.7558 H   0  0  0  0  0  0  0  0  0  0  0  0
   -3.3377   17.8743  -26.7558 H   0  0  0  0  0  0  0  0  0  0  0  0
   -3.9010   22.2320  -29.6590 C   0  0  2  0  0  0  0  0  0  0  0  0
   -4.4746   21.4828  -29.0936 H   0  0  0  0  0  0  0  0  0  0  0  0
   -3.5600   21.6480  -31.0130 C   0  0  0  0  0  0  0  0  0  0  0  0
   -2.1370   21.9030  -31.8810 S   0  0  0  0  0  0  0  0  0  0  0  0
   -2.5440   20.9400  -33.1960 C   0  0  0  0  0  0  0  0  0  0  0  0
   -1.9191   20.7640  -34.0840 H   0  0  0  0  0  0  0  0  0  0  0  0
   -3.8060   20.4040  -32.9690 C   0  0  0  0  0  0  0  0  0  0  0  0
   -4.3116   19.7336  -33.6796 H   0  0  0  0  0  0  0  0  0  0  0  0
   -4.3730   20.7970  -31.7520 C   0  0  0  0  0  0  0  0  0  0  0  0
   -5.3654   20.4649  -31.4131 H   0  0  0  0  0  0  0  0  0  0  0  0
   -4.8350   23.4640  -29.7500 C   0  0  2  0  0  0  0  0  0  0  0  0
   -5.2594   23.6565  -28.7536 H   0  0  0  0  0  0  0  0  0  0  0  0
   -5.9860   23.2130  -30.6410 C   0  0  0  0  0  0  0  0  0  0  0  0
   -6.8870   23.0150  -31.3400 N   0  0  0  0  0  0  0  0  0  0  0  0
  1  2  1  0
  2  3  2  0
  3  4  1  0
  4  5  1  0
  5  6  1  0
  6  7  1  0
  6  8  1  0
  6  9  1  0
  5 10  2  0
 10 11  1  0
 11 12  2  0
 11 13  1  0
 13 14  1  0
 14 15  1  0
 14 16  1  0
 14 17  1  0
 17 18  1  0
 17 19  1  0
 17 20  1  0
 10 21  1  0
 21 22  1  1
 21 23  1  0
 23 24  1  0
 24 25  1  0
 25 26  1  0
 25 27  2  0
 27 28  1  0
 27 29  1  0
 29 30  1  0
 21 31  1  0
 31 32  1  1
 31 33  1  0
 33 34  3  0
 31  3  1  0
 29 23  2  0
M  END
>  <UniqueID>  (36) 
32

>  <SMILES>  (36) 
[H]/N=C1\OC(C)=C(C(=O)OCC)[C@H](c2cccs2)[C@@H]1C#N

>  <Energy>  (36) 
60.33199521752681

>  <Genealogy>  (36) 
CCOC(=O)C1=C(C)OC(=N)[C@@H](C#N)[C@H]1c1cccs1 (chirality)
[H]/N=C1\OC(C)=C(C(=O)OCC)[C@H](c2cccs2)[C@@H]1C#N (cis-trans isomerization)
[H]/N=C1\OC(C)=C(C(=O)OCC)[C@H](c2cccs2)[C@@H]1C#N (3D coordinates assigned)
[H]/N=C1\OC(C)=C(C(=O)OCC)[C@H](c2cccs2)[C@@H]1C#N (nonaromatic ring conformer: 60.33199521752681 kcal/mol)

>  <smiles>  (36) 
CCOC(=O)C1=C(C)OC(=N)C(C#N)C1c1cccs1

>  <score_type>  (36) 
oracle

>  <origin>  (36) 
adg

>  <m_score__min__energy>  (36) 
-6.6900000000000004

>  <m_primary>  (36) 
energy

$$$$
36:0
     RDKit          3D

 35 36  0  0  0  0  0  0  0  0999 V2000
   -9.0940   19.0070  -32.0000 C   0  0  0  0  0  0  0  0  0  0  0  0
   -8.4150   20.3020  -32.4290 C   0  0  0  0  0  0  0  0  0  0  0  0
   -8.6030   21.5890  -31.1450 S   0  0  0  0  0  0  0  0  0  0  0  0
   -7.6510   22.9040  -31.9940 C   0  0  0  0  0  0  0  0  0  0  0  0
   -6.6210   23.5290  -31.0870 C   0  0  0  0  0  0  0  0  0  0  0  0
   -6.8350   24.7750  -30.4700 C   0  0  0  0  0  0  0  0  0  0  0  0
   -5.7250   25.2800  -29.8090 C   0  0  0  0  0  0  0  0  0  0  0  0
   -4.4590   24.2000  -30.0140 S   0  0  0  0  0  0  0  0  0  0  0  0
   -5.3090   23.0640  -30.9180 C   0  0  0  0  0  0  0  0  0  0  0  0
   -4.6940   21.8470  -31.4700 C   0  0  0  0  0  0  0  0  0  0  0  0
   -4.1410   21.0310  -30.6850 O   0  0  0  0  0  0  0  0  0  0  0  0
   -4.7770   21.5510  -32.8710 N   0  0  0  0  0  0  0  0  0  0  0  0
   -4.1050   20.4020  -33.4710 C   0  0  0  0  0  0  0  0  0  0  0  0
   -4.9940   19.1910  -33.4080 C   0  0  0  0  0  0  0  0  0  0  0  0
   -5.3710   18.6550  -32.1690 C   0  0  0  0  0  0  0  0  0  0  0  0
   -6.1790   17.5170  -32.1170 C   0  0  0  0  0  0  0  0  0  0  0  0
   -6.5990   16.9220  -33.3080 C   0  0  0  0  0  0  0  0  0  0  0  0
   -6.2200   17.4480  -34.5030 N   0  0  0  0  0  0  0  0  0  0  0  0
   -5.4350   18.5560  -34.5800 C   0  0  0  0  0  0  0  0  0  0  0  0
   -9.1218   18.9540  -30.9016 H   0  0  0  0  0  0  0  0  0  0  0  0
  -10.1206   18.9832  -32.3943 H   0  0  0  0  0  0  0  0  0  0  0  0
   -8.5297   18.1490  -32.3943 H   0  0  0  0  0  0  0  0  0  0  0  0
   -7.3444   20.1105  -32.5938 H   0  0  0  0  0  0  0  0  0  0  0  0
   -8.8874   20.6575  -33.3566 H   0  0  0  0  0  0  0  0  0  0  0  0
   -7.1397   22.4670  -32.8644 H   0  0  0  0  0  0  0  0  0  0  0  0
   -8.3561   23.6904  -32.3011 H   0  0  0  0  0  0  0  0  0  0  0  0
   -7.7992   25.3031  -30.5084 H   0  0  0  0  0  0  0  0  0  0  0  0
   -5.6827   26.2251  -29.2477 H   0  0  0  0  0  0  0  0  0  0  0  0
   -5.4130   22.1160  -33.4740 H   0  0  0  0  0  0  0  0  0  0  0  0
   -3.8700   20.6262  -34.5219 H   0  0  0  0  0  0  0  0  0  0  0  0
   -3.1782   20.1969  -32.9151 H   0  0  0  0  0  0  0  0  0  0  0  0
   -5.0304   19.1307  -31.2375 H   0  0  0  0  0  0  0  0  0  0  0  0
   -6.4813   17.0939  -31.1477 H   0  0  0  0  0  0  0  0  0  0  0  0
   -7.2373   16.0266  -33.2795 H   0  0  0  0  0  0  0  0  0  0  0  0
   -5.1449   18.9556  -35.5629 H   0  0  0  0  0  0  0  0  0  0  0  0
  1  2  1  0
  2  3  1  0
  3  4  1  0
  4  5  1  0
  5  6  1  0
  6  7  2  0
  7  8  1  0
  8  9  1  0
  9 10  1  0
 10 11  2  0
 10 12  1  0
 12 13  1  0
 13 14  1  0
 14 15  2  0
 15 16  1  0
 16 17  2  0
 17 18  1  0
 18 19  2  0
  9  5  2  0
 19 14  1  0
  1 20  1  0
  1 21  1  0
  1 22  1  0
  2 23  1  0
  2 24  1  0
  4 25  1  0
  4 26  1  0
  6 27  1  0
  7 28  1  0
 12 29  1  0
 13 30  1  0
 13 31  1  0
 15 32  1  0
 16 33  1  0
 17 34  1  0
 19 35  1  0
M  END
>  <UniqueID>  (37) 
33

>  <SMILES>  (37) 
CCSCc1ccsc1C(=O)NCc1cccnc1

>  <Energy>  (37) 
57.77793759100183

>  <Genealogy>  (37) 
CCSCc1ccsc1C(=O)NCc1cccnc1 (3D coordinates assigned)
CCSCc1ccsc1C(=O)NCc1cccnc1 (optimized conformer: 57.77793759100183 kcal/mol)

>  <smiles>  (37) 
CCSCc1ccsc1C(=O)NCc1cccnc1

>  <score_type>  (37) 
oracle

>  <origin>  (37) 
adg

>  <m_score__min__energy>  (37) 
-6.8600000000000003

>  <m_primary>  (37) 
energy

$$$$
37:0
     RDKit          3D

 44 45  0  0  0  0  0  0  0  0999 V2000
   -9.4560   20.0520  -32.6830 C   0  0  0  0  0  0  0  0  0  0  0  0
   -8.2970   20.8930  -32.2170 C   0  0  0  0  0  0  0  0  0  0  0  0
   -8.5540   22.1000  -31.5470 C   0  0  0  0  0  0  0  0  0  0  0  0
   -7.5060   22.9070  -31.1030 C   0  0  0  0  0  0  0  0  0  0  0  0
   -6.1740   22.5320  -31.3280 C   0  0  0  0  0  0  0  0  0  0  0  0
   -5.0690   23.3870  -30.8300 C   0  0  0  0  0  0  0  0  0  0  0  0
   -4.9960   24.5800  -31.2300 O   0  0  0  0  0  0  0  0  0  0  0  0
   -4.0470   22.8880  -29.8780 C   0  0  0  0  0  0  0  0  0  0  0  0
   -4.1890   23.0810  -28.4970 C   0  0  0  0  0  0  0  0  0  0  0  0
   -3.2270   22.5960  -27.6080 C   0  0  0  0  0  0  0  0  0  0  0  0
   -2.0950   21.8890  -28.0700 C   0  0  0  0  0  0  0  0  0  0  0  0
   -1.0540   21.3710  -27.0550 C   0  0  0  0  0  0  0  0  0  0  0  0
    0.2550   21.0220  -27.7940 C   0  0  0  0  0  0  0  0  0  0  0  0
   -0.7130   22.4040  -25.9550 C   0  0  0  0  0  0  0  0  0  0  0  0
   -1.6020   20.1070  -26.3560 C   0  0  0  0  0  0  0  0  0  0  0  0
   -1.9730   21.6840  -29.4640 C   0  0  0  0  0  0  0  0  0  0  0  0
   -2.9390   22.1720  -30.3490 C   0  0  0  0  0  0  0  0  0  0  0  0
   -5.9090   21.3210  -31.9910 C   0  0  0  0  0  0  0  0  0  0  0  0
   -6.9550   20.5080  -32.4600 C   0  0  0  0  0  0  0  0  0  0  0  0
   -6.6100   19.2110  -33.1540 C   0  0  0  0  0  0  0  0  0  0  0  0
   -6.4560   19.4370  -34.5860 N   0  0  0  0  0  0  0  0  0  0  0  0
   -9.9979   19.6587  -31.8103 H   0  0  0  0  0  0  0  0  0  0  0  0
  -10.1358   20.6684  -33.2896 H   0  0  0  0  0  0  0  0  0  0  0  0
   -9.0808   19.2145  -33.2896 H   0  0  0  0  0  0  0  0  0  0  0  0
   -9.5936   22.4129  -31.3701 H   0  0  0  0  0  0  0  0  0  0  0  0
   -7.7266   23.8449  -30.5722 H   0  0  0  0  0  0  0  0  0  0  0  0
   -5.0664   23.6196  -28.1096 H   0  0  0  0  0  0  0  0  0  0  0  0
   -3.3533   22.7678  -26.5289 H   0  0  0  0  0  0  0  0  0  0  0  0
    1.0459   20.8111  -27.0591 H   0  0  0  0  0  0  0  0  0  0  0  0
    0.0947   20.1352  -28.4248 H   0  0  0  0  0  0  0  0  0  0  0  0
    0.5575   21.8709  -28.4248 H   0  0  0  0  0  0  0  0  0  0  0  0
   -0.8633   21.9486  -24.9650 H   0  0  0  0  0  0  0  0  0  0  0  0
    0.3363   22.7174  -26.0589 H   0  0  0  0  0  0  0  0  0  0  0  0
   -1.3695   23.2805  -26.0589 H   0  0  0  0  0  0  0  0  0  0  0  0
   -1.5454   20.2375  -25.2652 H   0  0  0  0  0  0  0  0  0  0  0  0
   -2.6494   19.9490  -26.6525 H   0  0  0  0  0  0  0  0  0  0  0  0
   -1.0014   19.2345  -26.6525 H   0  0  0  0  0  0  0  0  0  0  0  0
   -1.1060   21.1330  -29.8574 H   0  0  0  0  0  0  0  0  0  0  0  0
   -2.8276   21.9915  -31.4284 H   0  0  0  0  0  0  0  0  0  0  0  0
   -4.8667   21.0049  -32.1451 H   0  0  0  0  0  0  0  0  0  0  0  0
   -5.6680   18.8179  -32.7439 H   0  0  0  0  0  0  0  0  0  0  0  0
   -7.4206   18.4861  -32.9881 H   0  0  0  0  0  0  0  0  0  0  0  0
   -7.2400   20.0520  -34.9060 H   0  0  0  0  0  0  0  0  0  0  0  0
   -6.5820   18.5190  -35.0690 H   0  0  0  0  0  0  0  0  0  0  0  0
  1  2  1  0
  2  3  2  0
  3  4  1  0
  4  5  2  0
  5  6  1  0
  6  7  2  0
  6  8  1  0
  8  9  2  0
  9 10  1  0
 10 11  2  0
 11 12  1  0
 12 13  1  0
 12 14  1  0
 12 15  1  0
 11 16  1  0
 16 17  2  0
  5 18  1  0
 18 19  2  0
 19 20  1  0
 20 21  1  0
 19  2  1  0
 17  8  1  0
  1 22  1  0
  1 23  1  0
  1 24  1  0
  3 25  1  0
  4 26  1  0
  9 27  1  0
 10 28  1  0
 13 29  1  0
 13 30  1  0
 13 31  1  0
 14 32  1  0
 14 33  1  0
 14 34  1  0
 15 35  1  0
 15 36  1  0
 15 37  1  0
 16 38  1  0
 17 39  1  0
 18 40  1  0
 20 41  1  0
 20 42  1  0
 21 43  1  0
 21 44  1  0
M  END
>  <UniqueID>  (38) 
34

>  <SMILES>  (38) 
Cc1ccc(C(=O)c2ccc(C(C)(C)C)cc2)cc1CN

>  <Energy>  (38) 
50.27899968604459

>  <Genealogy>  (38) 
Cc1ccc(C(=O)c2ccc(C(C)(C)C)cc2)cc1CN (3D coordinates assigned)
Cc1ccc(C(=O)c2ccc(C(C)(C)C)cc2)cc1CN (optimized conformer: 50.27899968604459 kcal/mol)

>  <smiles>  (38) 
Cc1ccc(C(=O)c2ccc(C(C)(C)C)cc2)cc1CN

>  <score_type>  (38) 
oracle

>  <origin>  (38) 
adg

>  <m_score__min__energy>  (38) 
-8.2699999999999996

>  <m_primary>  (38) 
energy

$$$$
38:0
     RDKit          3D

 45 47  0  0  0  0  0  0  0  0999 V2000
   -6.5170   16.6580  -33.4940 C   0  0  0  0  0  0  0  0  0  0  0  0
   -6.4190   18.1240  -33.9020 C   0  0  0  0  0  0  0  0  0  0  0  0
   -6.6650   18.9990  -32.7450 N   0  0  0  0  0  0  0  0  0  0  0  0
   -7.7200   18.6450  -31.7790 C   0  0  0  0  0  0  0  0  0  0  0  0
   -9.1040   18.9500  -32.3460 C   0  0  0  0  0  0  0  0  0  0  0  0
   -5.9360   20.2460  -32.6470 C   0  0  0  0  0  0  0  0  0  0  0  0
   -4.6340   20.3130  -33.0650 N   0  0  0  0  0  0  0  0  0  0  0  0
   -3.9060   21.4720  -32.9920 C   0  0  0  0  0  0  0  0  0  0  0  0
   -4.4640   22.6100  -32.4840 N   0  0  0  0  0  0  0  0  0  0  0  0
   -5.7470   22.5500  -32.0590 C   0  0  0  0  0  0  0  0  0  0  0  0
   -6.4910   21.4190  -32.1230 C   0  0  0  0  0  0  0  0  0  0  0  0
   -7.7190   21.6440  -31.6150 N   0  0  0  0  0  0  0  0  0  0  0  0
   -7.6710   22.9560  -31.2580 C   0  0  0  0  0  0  0  0  0  0  0  0
   -6.4690   23.5330  -31.5090 N   0  0  0  0  0  0  0  0  0  0  0  0
   -6.0960   24.9310  -31.3170 C   0  0  0  0  0  0  0  0  0  0  0  0
   -5.1310   25.0470  -30.1820 C   0  0  0  0  0  0  0  0  0  0  0  0
   -5.5610   25.1720  -29.0040 O   0  0  0  0  0  0  0  0  0  0  0  0
   -3.7270   24.9680  -30.4350 N   0  0  0  0  0  0  0  0  0  0  0  0
   -2.9080   23.8440  -30.0050 C   0  0  0  0  0  0  0  0  0  0  0  0
   -1.9370   24.3070  -28.9590 C   0  0  0  0  0  0  0  0  0  0  0  0
   -2.3960   24.8460  -27.7480 C   0  0  0  0  0  0  0  0  0  0  0  0
   -1.4810   25.2370  -26.7670 C   0  0  0  0  0  0  0  0  0  0  0  0
   -0.1150   25.0750  -27.0030 C   0  0  0  0  0  0  0  0  0  0  0  0
    0.3140   24.5350  -28.1760 N   0  0  0  0  0  0  0  0  0  0  0  0
   -0.5560   24.1480  -29.1460 C   0  0  0  0  0  0  0  0  0  0  0  0
   -6.5221   16.5824  -32.3966 H   0  0  0  0  0  0  0  0  0  0  0  0
   -7.4460   16.2270  -33.8955 H   0  0  0  0  0  0  0  0  0  0  0  0
   -5.6537   16.1071  -33.8955 H   0  0  0  0  0  0  0  0  0  0  0  0
   -5.4124   18.3228  -34.2985 H   0  0  0  0  0  0  0  0  0  0  0  0
   -7.1775   18.3304  -34.6714 H   0  0  0  0  0  0  0  0  0  0  0  0
   -7.6533   17.5710  -31.5506 H   0  0  0  0  0  0  0  0  0  0  0  0
   -7.5751   19.2421  -30.8666 H   0  0  0  0  0  0  0  0  0  0  0  0
   -9.8127   19.1062  -31.5193 H   0  0  0  0  0  0  0  0  0  0  0  0
   -9.0551   19.8589  -32.9636 H   0  0  0  0  0  0  0  0  0  0  0  0
   -9.4416   18.1047  -32.9636 H   0  0  0  0  0  0  0  0  0  0  0  0
   -2.8644   21.4855  -33.3453 H   0  0  0  0  0  0  0  0  0  0  0  0
   -8.5201   23.4941  -30.8114 H   0  0  0  0  0  0  0  0  0  0  0  0
   -5.6267   25.3131  -32.2356 H   0  0  0  0  0  0  0  0  0  0  0  0
   -6.9972   25.5189  -31.0885 H   0  0  0  0  0  0  0  0  0  0  0  0
   -3.5537   23.0589  -29.5847 H   0  0  0  0  0  0  0  0  0  0  0  0
   -2.3557   23.4406  -30.8666 H   0  0  0  0  0  0  0  0  0  0  0  0
   -3.4755   24.9608  -27.5708 H   0  0  0  0  0  0  0  0  0  0  0  0
   -1.8337   25.6681  -25.8184 H   0  0  0  0  0  0  0  0  0  0  0  0
    0.6151   25.3840  -26.2405 H   0  0  0  0  0  0  0  0  0  0  0  0
   -0.1760   23.7089  -30.0802 H   0  0  0  0  0  0  0  0  0  0  0  0
  1  2  1  0
  2  3  1  0
  3  4  1  0
  4  5  1  0
  3  6  1  0
  6  7  2  0
  7  8  1  0
  8  9  2  0
  9 10  1  0
 10 11  2  0
 11 12  1  0
 12 13  2  0
 13 14  1  0
 14 15  1  0
 15 16  1  0
 16 17  2  0
 16 18  1  0
 18 19  1  0
 19 20  1  0
 20 21  2  0
 21 22  1  0
 22 23  2  0
 23 24  1  0
 24 25  2  0
 11  6  1  0
 25 20  1  0
 14 10  1  0
  1 26  1  0
  1 27  1  0
  1 28  1  0
  2 29  1  0
  2 30  1  0
  4 31  1  0
  4 32  1  0
  5 33  1  0
  5 34  1  0
  5 35  1  0
  8 36  1  0
 13 37  1  0
 15 38  1  0
 15 39  1  0
 19 40  1  0
 19 41  1  0
 21 42  1  0
 22 43  1  0
 23 44  1  0
 25 45  1  0
M  CHG  1  18  -1
M  END
>  <UniqueID>  (39) 
35

>  <SMILES>  (39) 
CCN(CC)c1ncnc2c1ncn2CC(=O)[N-]Cc1cccnc1

>  <Energy>  (39) 
80.36688046273589

>  <Genealogy>  (39) 
CCN(CC)c1ncnc2c1ncn2CC(=O)[N-]Cc1cccnc1 (protonated)
CCN(CC)c1ncnc2c1ncn2CC(=O)[N-]Cc1cccnc1 (3D coordinates assigned)
CCN(CC)c1ncnc2c1ncn2CC(=O)[N-]Cc1cccnc1 (optimized conformer: 80.36688046273589 kcal/mol)

>  <smiles>  (39) 
CCN(CC)c1ncnc2c1ncn2CC(=O)NCc1cccnc1

>  <score_type>  (39) 
oracle

>  <origin>  (39) 
adg

>  <m_score__min__energy>  (39) 
-9.3000000000000007

>  <m_primary>  (39) 
energy

$$$$
39:0
     RDKit          3D

 34 36  0  0  0  0  0  0  0  0999 V2000
   -3.8208   20.0300  -32.9117 H   0  0  0  0  0  0  0  0  0  0  0  0
   -4.2490   20.9400  -32.4660 C   0  0  0  0  0  0  0  0  0  0  0  0
   -3.5932   21.7803  -32.1942 H   0  0  0  0  0  0  0  0  0  0  0  0
   -5.5710   21.0250  -32.2540 C   0  0  0  0  0  0  0  0  0  0  0  0
   -6.2560   22.1110  -31.6990 C   0  0  0  0  0  0  0  0  0  0  0  0
   -5.7410   23.3040  -31.3410 C   0  0  0  0  0  0  0  0  0  0  0  0
   -6.0524   24.1934  -31.9084 H   0  0  0  0  0  0  0  0  0  0  0  0
   -4.7860   23.4870  -30.2350 C   0  0  0  0  0  0  0  0  0  0  0  0
   -4.6580   22.4450  -28.9140 S   0  0  0  0  0  0  0  0  0  0  0  0
   -3.5100   23.4070  -28.1500 C   0  0  0  0  0  0  0  0  0  0  0  0
   -2.9770   23.1370  -27.0430 O   0  0  0  0  0  0  0  0  0  0  0  0
   -3.2290   24.5210  -28.8570 N   0  0  0  0  0  0  0  0  0  0  0  0
   -2.5600   25.2600  -28.5470 H   0  0  0  0  0  0  0  0  0  0  0  0
   -3.9490   24.5820  -30.0080 C   0  0  0  0  0  0  0  0  0  0  0  0
   -3.8780   25.6800  -30.8570 O   0  0  0  0  0  0  0  0  0  0  0  0
   -7.5920   21.7380  -31.6330 C   0  0  0  0  0  0  0  0  0  0  0  0
   -8.4255   22.3445  -31.2491 H   0  0  0  0  0  0  0  0  0  0  0  0
   -7.6700   20.4580  -32.1430 C   0  0  0  0  0  0  0  0  0  0  0  0
   -8.9340   19.6610  -32.2580 C   0  0  0  0  0  0  0  0  0  0  0  0
   -9.3106   19.4236  -31.2521 H   0  0  0  0  0  0  0  0  0  0  0  0
   -9.6886   20.2470  -32.8032 H   0  0  0  0  0  0  0  0  0  0  0  0
   -8.7306   18.7275  -32.8032 H   0  0  0  0  0  0  0  0  0  0  0  0
   -6.4470   20.0220  -32.5140 N   0  0  0  0  0  0  0  0  0  0  0  0
   -6.1530   18.7360  -33.0870 C   0  0  0  0  0  0  0  0  0  0  0  0
   -5.7490   18.6390  -34.4260 C   0  0  0  0  0  0  0  0  0  0  0  0
   -5.6646   19.5478  -35.0399 H   0  0  0  0  0  0  0  0  0  0  0  0
   -5.4530   17.3920  -34.9840 C   0  0  0  0  0  0  0  0  0  0  0  0
   -5.1389   17.3210  -36.0358 H   0  0  0  0  0  0  0  0  0  0  0  0
   -5.5560   16.2350  -34.2060 C   0  0  0  0  0  0  0  0  0  0  0  0
   -5.3251   15.2539  -34.6467 H   0  0  0  0  0  0  0  0  0  0  0  0
   -5.9520   16.3240  -32.8690 C   0  0  0  0  0  0  0  0  0  0  0  0
   -6.0303   15.4130  -32.2576 H   0  0  0  0  0  0  0  0  0  0  0  0
   -6.2490   17.5700  -32.3070 C   0  0  0  0  0  0  0  0  0  0  0  0
   -6.6140   17.6470  -31.0020 F   0  0  0  0  0  0  0  0  0  0  0  0
  1  2  1  0
  2  3  1  0
  2  4  2  0
  4  5  1  0
  5  6  2  0
  6  7  1  0
  6  8  1  0
  8  9  1  0
  9 10  1  0
 10 11  2  0
 10 12  1  0
 12 13  1  0
 12 14  1  0
 14 15  1  0
  5 16  1  0
 16 17  1  0
 16 18  2  0
 18 19  1  0
 19 20  1  0
 19 21  1  0
 19 22  1  0
 18 23  1  0
 23 24  1  0
 24 25  2  0
 25 26  1  0
 25 27  1  0
 27 28  1  0
 27 29  2  0
 29 30  1  0
 29 31  1  0
 31 32  1  0
 31 33  2  0
 33 34  1  0
 23  4  1  0
 33 24  1  0
 14  8  2  0
M  CHG  1  15  -1
M  END
>  <UniqueID>  (40) 
36

>  <SMILES>  (40) 
C=c1/c(=C/c2sc(=O)[nH]c2[O-])cc(C)n1-c1ccccc1F

>  <Energy>  (40) 
109.22248820972129

>  <Genealogy>  (40) 
C=c1c(=Cc2sc(=O)[nH]c2[O-])cc(C)n1-c1ccccc1F (protonated)
C=c1/c(=C/c2sc(=O)[nH]c2[O-])cc(C)n1-c1ccccc1F (cis-trans isomerization)
C=c1/c(=C/c2sc(=O)[nH]c2[O-])cc(C)n1-c1ccccc1F (3D coordinates assigned)
C=c1/c(=C/c2sc(=O)[nH]c2[O-])cc(C)n1-c1ccccc1F (optimized conformer: 109.22248820972129 kcal/mol)

>  <smiles>  (40) 
C=c1c(=Cc2sc(=O)[nH]c2O)cc(C)n1-c1ccccc1F

>  <score_type>  (40) 
oracle

>  <origin>  (40) 
adg

>  <m_score__min__energy>  (40) 
-11.49

>  <m_primary>  (40) 
energy

$$$$
40:0
     RDKit          3D

 44 47  0  0  0  0  0  0  0  0999 V2000
   -6.2680   15.3770  -34.1210 C   0  0  0  0  0  0  0  0  0  0  0  0
   -7.2360   16.3010  -33.6350 O   0  0  0  0  0  0  0  0  0  0  0  0
   -6.9470   17.6140  -33.2340 C   0  0  0  0  0  0  0  0  0  0  0  0
   -5.8770   18.2750  -33.8470 C   0  0  0  0  0  0  0  0  0  0  0  0
   -5.5480   19.5830  -33.4840 C   0  0  0  0  0  0  0  0  0  0  0  0
   -6.2790   20.2530  -32.4880 C   0  0  0  0  0  0  0  0  0  0  0  0
   -5.9310   21.6040  -32.1300 N   0  0  0  0  0  0  0  0  0  0  0  0
   -6.4570   22.6820  -32.7090 N   0  0  0  0  0  0  0  0  0  0  0  0
   -5.8960   23.7860  -32.1550 C   0  0  0  0  0  0  0  0  0  0  0  0
   -4.9840   23.3740  -31.2070 C   0  0  0  0  0  0  0  0  0  0  0  0
   -4.0970   24.0370  -30.3750 C   0  0  0  0  0  0  0  0  0  0  0  0
   -4.0480   25.2980  -30.3680 O   0  0  0  0  0  0  0  0  0  0  0  0
   -3.2750   23.2830  -29.5700 N   0  0  0  0  0  0  0  0  0  0  0  0
   -2.3470   23.9480  -28.6910 C   0  0  0  0  0  0  0  0  0  0  0  0
   -0.9900   24.0070  -29.0400 C   0  0  0  0  0  0  0  0  0  0  0  0
   -0.0750   24.6540  -28.2070 C   0  0  0  0  0  0  0  0  0  0  0  0
   -0.5080   25.2510  -27.0240 C   0  0  0  0  0  0  0  0  0  0  0  0
   -1.8590   25.2020  -26.6660 C   0  0  0  0  0  0  0  0  0  0  0  0
   -2.7880   24.5450  -27.4890 C   0  0  0  0  0  0  0  0  0  0  0  0
   -4.2420   24.5130  -27.1040 C   0  0  0  0  0  0  0  0  0  0  0  0
   -3.3290   21.8980  -29.6150 C   0  0  0  0  0  0  0  0  0  0  0  0
   -2.4310   21.0480  -28.7640 C   0  0  0  0  0  0  0  0  0  0  0  0
   -4.2100   21.2700  -30.4550 N   0  0  0  0  0  0  0  0  0  0  0  0
   -5.0310   22.0230  -31.2190 C   0  0  0  0  0  0  0  0  0  0  0  0
   -7.3640   19.5950  -31.8830 C   0  0  0  0  0  0  0  0  0  0  0  0
   -7.6930   18.2860  -32.2480 C   0  0  0  0  0  0  0  0  0  0  0  0
   -5.7626   14.8946  -33.2714 H   0  0  0  0  0  0  0  0  0  0  0  0
   -6.7669   14.6116  -34.7336 H   0  0  0  0  0  0  0  0  0  0  0  0
   -5.5266   15.9109  -34.7336 H   0  0  0  0  0  0  0  0  0  0  0  0
   -5.2897   17.7601  -34.6216 H   0  0  0  0  0  0  0  0  0  0  0  0
   -4.7100   20.0929  -33.9817 H   0  0  0  0  0  0  0  0  0  0  0  0
   -6.1285   24.8288  -32.4168 H   0  0  0  0  0  0  0  0  0  0  0  0
   -0.6447   23.5412  -29.9748 H   0  0  0  0  0  0  0  0  0  0  0  0
    0.9887   24.6927  -28.4846 H   0  0  0  0  0  0  0  0  0  0  0  0
    0.2146   25.7618  -26.3706 H   0  0  0  0  0  0  0  0  0  0  0  0
   -2.1958   25.6807  -25.7347 H   0  0  0  0  0  0  0  0  0  0  0  0
   -4.3310   24.5110  -26.0076 H   0  0  0  0  0  0  0  0  0  0  0  0
   -4.7488   25.4002  -27.5114 H   0  0  0  0  0  0  0  0  0  0  0  0
   -4.7093   23.6044  -27.5114 H   0  0  0  0  0  0  0  0  0  0  0  0
   -2.6387   21.2446  -27.7018 H   0  0  0  0  0  0  0  0  0  0  0  0
   -2.6155   19.9860  -28.9833 H   0  0  0  0  0  0  0  0  0  0  0  0
   -1.3807   21.2905  -28.9833 H   0  0  0  0  0  0  0  0  0  0  0  0
   -7.9586   20.1138  -31.1167 H   0  0  0  0  0  0  0  0  0  0  0  0
   -8.5394   17.7788  -31.7619 H   0  0  0  0  0  0  0  0  0  0  0  0
  1  2  1  0
  2  3  1  0
  3  4  2  0
  4  5  1  0
  5  6  2  0
  6  7  1  0
  7  8  1  0
  8  9  2  0
  9 10  1  0
 10 11  1  0
 11 12  2  0
 11 13  1  0
 13 14  1  0
 14 15  2  0
 15 16  1  0
 16 17  2  0
 17 18  1  0
 18 19  2  0
 19 20  1  0
 13 21  1  0
 21 22  1  0
 21 23  2  0
 23 24  1  0
  6 25  1  0
 25 26  2  0
 26  3  1  0
 24  7  1  0
 24 10  2  0
 19 14  1  0
  1 27  1  0
  1 28  1  0
  1 29  1  0
  4 30  1  0
  5 31  1  0
  9 32  1  0
 15 33  1  0
 16 34  1  0
 17 35  1  0
 18 36  1  0
 20 37  1  0
 20 38  1  0
 20 39  1  0
 22 40  1  0
 22 41  1  0
 22 42  1  0
 25 43  1  0
 26 44  1  0
M  END
>  <UniqueID>  (41) 
37

>  <SMILES>  (41) 
COc1ccc(-n2ncc3c(=O)n(-c4ccccc4C)c(C)nc32)cc1

>  <Energy>  (41) 
102.30427129576438

>  <Genealogy>  (41) 
COc1ccc(-n2ncc3c(=O)n(-c4ccccc4C)c(C)nc32)cc1 (3D coordinates assigned)
COc1ccc(-n2ncc3c(=O)n(-c4ccccc4C)c(C)nc32)cc1 (optimized conformer: 102.30427129576438 kcal/mol)

>  <smiles>  (41) 
COc1ccc(-n2ncc3c(=O)n(-c4ccccc4C)c(C)nc32)cc1

>  <score_type>  (41) 
oracle

>  <origin>  (41) 
adg

>  <m_score__min__energy>  (41) 
-8.3900000000000006

>  <m_primary>  (41) 
energy

$$$$
41:0
     RDKit          3D

 33 34  0  0  0  0  0  0  0  0999 V2000
   -6.3890   14.7760  -34.2140 C   0  0  0  0  0  0  0  0  0  0  0  0
   -7.1820   15.9060  -33.8650 O   0  0  0  0  0  0  0  0  0  0  0  0
   -6.6610   17.1560  -33.4990 C   0  0  0  0  0  0  0  0  0  0  0  0
   -6.9250   17.7470  -32.2480 C   0  0  0  0  0  0  0  0  0  0  0  0
   -6.3810   18.9950  -31.9290 C   0  0  0  0  0  0  0  0  0  0  0  0
   -5.5540   19.6670  -32.8460 C   0  0  0  0  0  0  0  0  0  0  0  0
   -5.0010   20.9610  -32.5530 N   0  0  0  0  0  0  0  0  0  0  0  0
   -5.6580   21.9580  -31.7580 C   0  0  0  0  0  0  0  0  0  0  0  0
   -6.6630   21.6570  -31.0570 O   0  0  0  0  0  0  0  0  0  0  0  0
   -5.1130   23.2460  -31.7010 O   0  0  0  0  0  0  0  0  0  0  0  0
   -4.0610   23.6280  -30.8520 C   0  0  0  0  0  0  0  0  0  0  0  0
   -4.1110   24.8820  -30.2170 C   0  0  0  0  0  0  0  0  0  0  0  0
   -5.2600   25.8130  -30.4530 C   0  0  0  0  0  0  0  0  0  0  0  0
   -3.0970   25.2680  -29.3960 N   0  0  0  0  0  0  0  0  0  0  0  0
   -2.0260   24.4710  -29.1500 C   0  0  0  0  0  0  0  0  0  0  0  0
   -1.9450   23.2080  -29.7370 C   0  0  0  0  0  0  0  0  0  0  0  0
   -2.9710   22.7770  -30.5830 C   0  0  0  0  0  0  0  0  0  0  0  0
   -2.9210   21.6160  -31.0710 O   0  0  0  0  0  0  0  0  0  0  0  0
   -5.3130   19.0840  -34.0990 C   0  0  0  0  0  0  0  0  0  0  0  0
   -5.8560   17.8370  -34.4180 C   0  0  0  0  0  0  0  0  0  0  0  0
   -6.0388   14.2770  -33.2984 H   0  0  0  0  0  0  0  0  0  0  0  0
   -6.9930   14.0731  -34.8066 H   0  0  0  0  0  0  0  0  0  0  0  0
   -5.5226   15.1050  -34.8066 H   0  0  0  0  0  0  0  0  0  0  0  0
   -7.5618   17.2246  -31.5189 H   0  0  0  0  0  0  0  0  0  0  0  0
   -6.6016   19.4540  -30.9540 H   0  0  0  0  0  0  0  0  0  0  0  0
   -4.0300   21.1700  -32.8750 H   0  0  0  0  0  0  0  0  0  0  0  0
   -5.6683   26.1438  -29.4866 H   0  0  0  0  0  0  0  0  0  0  0  0
   -4.9124   26.6873  -31.0228 H   0  0  0  0  0  0  0  0  0  0  0  0
   -6.0433   25.2917  -31.0228 H   0  0  0  0  0  0  0  0  0  0  0  0
   -1.2211   24.8214  -28.4871 H   0  0  0  0  0  0  0  0  0  0  0  0
   -1.0814   22.5570  -29.5359 H   0  0  0  0  0  0  0  0  0  0  0  0
   -4.6914   19.6131  -34.8363 H   0  0  0  0  0  0  0  0  0  0  0  0
   -5.6487   17.3869  -35.4001 H   0  0  0  0  0  0  0  0  0  0  0  0
  1  2  1  0
  2  3  1  0
  3  4  2  0
  4  5  1  0
  5  6  2  0
  6  7  1  0
  7  8  1  0
  8  9  2  0
  8 10  1  0
 10 11  1  0
 11 12  2  0
 12 13  1  0
 12 14  1  0
 14 15  1  0
 15 16  2  0
 16 17  1  0
 17 18  2  0
  6 19  1  0
 19 20  2  0
 20  3  1  0
 17 11  1  0
  1 21  1  0
  1 22  1  0
  1 23  1  0
  4 24  1  0
  5 25  1  0
  7 26  1  0
 13 27  1  0
 13 28  1  0
 13 29  1  0
 15 30  1  0
 16 31  1  0
 19 32  1  0
 20 33  1  0
M  CHG  1  14  -1
M  END
>  <UniqueID>  (42) 
38

>  <SMILES>  (42) 
COc1ccc(NC(=O)Oc2c(C)[n-]ccc2=O)cc1

>  <Energy>  (42) 
42.43195700584924

>  <Genealogy>  (42) 
COc1ccc(NC(=O)Oc2c(C)[n-]ccc2=O)cc1 (protonated)
COc1ccc(NC(=O)Oc2c(C)[n-]ccc2=O)cc1 (3D coordinates assigned)
COc1ccc(NC(=O)Oc2c(C)[n-]ccc2=O)cc1 (optimized conformer: 42.43195700584924 kcal/mol)

>  <smiles>  (42) 
COc1ccc(NC(=O)Oc2c(C)[nH]ccc2=O)cc1

>  <score_type>  (42) 
oracle

>  <origin>  (42) 
adg

>  <m_score__min__energy>  (42) 
-7.5999999999999996

>  <m_primary>  (42) 
energy

$$$$
42:0
     RDKit          3D

 40 42  0  0  0  0  0  0  0  0999 V2000
   -9.1580   22.2220  -31.8990 C   0  0  0  0  0  0  0  0  0  0  0  0
   -8.0350   22.3280  -30.8750 C   0  0  0  0  0  0  0  0  0  0  0  0
   -6.7320   22.3410  -31.5480 N   0  0  0  0  0  0  0  0  0  0  0  0
   -5.8550   23.3760  -31.6830 C   0  0  0  0  0  0  0  0  0  0  0  0
   -6.1270   24.7910  -31.2510 C   0  0  0  0  0  0  0  0  0  0  0  0
   -5.2450   25.1870  -30.0670 C   0  0  0  0  0  0  0  0  0  0  0  0
   -3.8430   25.2070  -30.4660 N   0  0  0  0  0  0  0  0  0  0  0  0
   -2.8100   24.5650  -29.7150 C   0  0  0  0  0  0  0  0  0  0  0  0
   -1.9690   25.2520  -29.0750 O   0  0  0  0  0  0  0  0  0  0  0  0
   -2.7300   23.0990  -29.6880 C   0  0  0  0  0  0  0  0  0  0  0  0
   -3.3860   22.2610  -28.7950 C   0  0  0  0  0  0  0  0  0  0  0  0
   -3.1140   20.9050  -29.0090 C   0  0  0  0  0  0  0  0  0  0  0  0
   -2.2460   20.6700  -30.0680 C   0  0  0  0  0  0  0  0  0  0  0  0
   -1.8160   22.1520  -30.7370 S   0  0  0  0  0  0  0  0  0  0  0  0
   -4.7020   23.0260  -32.3110 N   0  0  0  0  0  0  0  0  0  0  0  0
   -4.8720   21.7130  -32.5510 C   0  0  0  0  0  0  0  0  0  0  0  0
   -3.9730   20.8420  -33.1610 C   0  0  0  0  0  0  0  0  0  0  0  0
   -4.3540   19.4900  -33.3020 C   0  0  0  0  0  0  0  0  0  0  0  0
   -3.4050   18.5040  -33.9150 C   0  0  0  0  0  0  0  0  0  0  0  0
   -5.6060   19.0540  -32.7990 C   0  0  0  0  0  0  0  0  0  0  0  0
   -6.4890   19.9610  -32.1880 C   0  0  0  0  0  0  0  0  0  0  0  0
   -6.0840   21.2940  -32.0880 C   0  0  0  0  0  0  0  0  0  0  0  0
  -10.1223   22.1310  -31.3776 H   0  0  0  0  0  0  0  0  0  0  0  0
   -9.1657   23.1234  -32.5294 H   0  0  0  0  0  0  0  0  0  0  0  0
   -8.9969   21.3351  -32.5294 H   0  0  0  0  0  0  0  0  0  0  0  0
   -8.1554   23.2576  -30.2994 H   0  0  0  0  0  0  0  0  0  0  0  0
   -8.0814   21.4592  -30.2019 H   0  0  0  0  0  0  0  0  0  0  0  0
   -5.9227   25.4687  -32.0930 H   0  0  0  0  0  0  0  0  0  0  0  0
   -7.1798   24.8641  -30.9407 H   0  0  0  0  0  0  0  0  0  0  0  0
   -5.5368   26.1877  -29.7156 H   0  0  0  0  0  0  0  0  0  0  0  0
   -5.3773   24.4513  -29.2600 H   0  0  0  0  0  0  0  0  0  0  0  0
   -4.0522   22.6266  -27.9997 H   0  0  0  0  0  0  0  0  0  0  0  0
   -3.5469   20.1006  -28.3962 H   0  0  0  0  0  0  0  0  0  0  0  0
   -1.8994   19.6837  -30.4103 H   0  0  0  0  0  0  0  0  0  0  0  0
   -2.9962   21.1964  -33.5218 H   0  0  0  0  0  0  0  0  0  0  0  0
   -2.8790   17.9574  -33.1184 H   0  0  0  0  0  0  0  0  0  0  0  0
   -3.9671   17.7928  -34.5381 H   0  0  0  0  0  0  0  0  0  0  0  0
   -2.6728   19.0385  -34.5381 H   0  0  0  0  0  0  0  0  0  0  0  0
   -5.8892   17.9948  -32.8879 H   0  0  0  0  0  0  0  0  0  0  0  0
   -7.4652   19.6324  -31.8019 H   0  0  0  0  0  0  0  0  0  0  0  0
  1  2  1  0
  2  3  1  0
  3  4  1  0
  4  5  1  0
  5  6  1  0
  6  7  1  0
  7  8  1  0
  8  9  2  0
  8 10  1  0
 10 11  2  0
 11 12  1  0
 12 13  2  0
 13 14  1  0
  4 15  2  0
 15 16  1  0
 16 17  2  0
 17 18  1  0
 18 19  1  0
 18 20  2  0
 20 21  1  0
 21 22  2  0
 22  3  1  0
 14 10  1  0
 22 16  1  0
  1 23  1  0
  1 24  1  0
  1 25  1  0
  2 26  1  0
  2 27  1  0
  5 28  1  0
  5 29  1  0
  6 30  1  0
  6 31  1  0
 11 32  1  0
 12 33  1  0
 13 34  1  0
 17 35  1  0
 19 36  1  0
 19 37  1  0
 19 38  1  0
 20 39  1  0
 21 40  1  0
M  CHG  1   7  -1
M  END
>  <UniqueID>  (43) 
39

>  <SMILES>  (43) 
CCn1c(CC[N-]C(=O)c2cccs2)nc2cc(C)ccc21

>  <Energy>  (43) 
94.00983661998397

>  <Genealogy>  (43) 
CCn1c(CC[N-]C(=O)c2cccs2)nc2cc(C)ccc21 (protonated)
CCn1c(CC[N-]C(=O)c2cccs2)nc2cc(C)ccc21 (3D coordinates assigned)
CCn1c(CC[N-]C(=O)c2cccs2)nc2cc(C)ccc21 (optimized conformer: 94.00983661998397 kcal/mol)

>  <smiles>  (43) 
CCn1c(CCNC(=O)c2cccs2)nc2cc(C)ccc21

>  <score_type>  (43) 
oracle

>  <origin>  (43) 
adg

>  <m_score__min__energy>  (43) 
-9.7699999999999996

>  <m_primary>  (43) 
energy

$$$$
43:0
     RDKit          3D

 46 49  0  0  0  0  0  0  0  0999 V2000
   -9.4900   19.6080  -33.0740 O   0  0  0  0  0  0  0  0  0  0  0  0
   -8.3160   19.8450  -32.6820 C   0  0  0  0  0  0  0  0  0  0  0  0
   -7.2560   18.8520  -32.9650 C   0  0  0  0  0  0  0  0  0  0  0  0
   -7.4750   17.5160  -33.0500 N   0  0  0  0  0  0  0  0  0  0  0  0
   -6.3070   16.9490  -33.2880 N   0  0  0  0  0  0  0  0  0  0  0  0
   -6.0580   15.6280  -33.4590 C   0  0  0  0  0  0  0  0  0  0  0  0
   -4.7380   15.2360  -33.7110 C   0  0  0  0  0  0  0  0  0  0  0  0
   -3.7370   16.2250  -33.7720 C   0  0  0  0  0  0  0  0  0  0  0  0
   -4.0540   17.5420  -33.5920 N   0  0  0  0  0  0  0  0  0  0  0  0
   -5.3480   17.8750  -33.3510 C   0  0  0  0  0  0  0  0  0  0  0  0
   -5.8960   19.1200  -33.1450 C   0  0  0  0  0  0  0  0  0  0  0  0
   -4.9860   20.8020  -33.1520 Br  0  0  0  0  0  0  0  0  0  0  0  0
   -8.0420   21.0780  -31.9810 N   0  0  0  0  0  0  0  0  0  0  0  0
   -7.0070   21.1200  -30.9370 C   0  0  0  0  0  0  0  0  0  0  0  0
   -7.1680   22.3590  -30.0560 C   0  0  0  0  0  0  0  0  0  0  0  0
   -7.2010   23.5600  -30.9080 N   0  0  0  0  0  0  0  0  0  0  0  0
   -7.1870   24.7850  -30.0820 C   0  0  0  0  0  0  0  0  0  0  0  0
   -5.8260   25.4870  -30.1680 C   0  0  0  0  0  0  0  0  0  0  0  0
   -4.7160   24.5380  -29.8250 C   0  0  0  0  0  0  0  0  0  0  0  0
   -4.4970   24.1380  -28.4980 C   0  0  0  0  0  0  0  0  0  0  0  0
   -3.4400   23.2740  -28.2120 C   0  0  0  0  0  0  0  0  0  0  0  0
   -2.6050   22.8310  -29.2400 C   0  0  0  0  0  0  0  0  0  0  0  0
   -2.8380   23.2660  -30.5450 C   0  0  0  0  0  0  0  0  0  0  0  0
   -3.8780   24.1030  -30.8070 N   0  0  0  0  0  0  0  0  0  0  0  0
   -8.3330   23.5530  -31.8780 C   0  0  0  0  0  0  0  0  0  0  0  0
   -9.0120   22.1780  -32.0650 C   0  0  0  0  0  0  0  0  0  0  0  0
   -6.8684   14.8864  -33.4015 H   0  0  0  0  0  0  0  0  0  0  0  0
   -4.4871   14.1752  -33.8586 H   0  0  0  0  0  0  0  0  0  0  0  0
   -2.6936   15.9355  -33.9657 H   0  0  0  0  0  0  0  0  0  0  0  0
   -3.3110   18.2720  -33.6400 H   0  0  0  0  0  0  0  0  0  0  0  0
   -7.0911   20.2197  -30.3106 H   0  0  0  0  0  0  0  0  0  0  0  0
   -6.0208   21.1607  -31.4225 H   0  0  0  0  0  0  0  0  0  0  0  0
   -8.1066   22.2860  -29.4870 H   0  0  0  0  0  0  0  0  0  0  0  0
   -6.3221   22.4264  -29.3560 H   0  0  0  0  0  0  0  0  0  0  0  0
   -7.9691   25.4703  -30.4407 H   0  0  0  0  0  0  0  0  0  0  0  0
   -7.3727   24.5050  -29.0346 H   0  0  0  0  0  0  0  0  0  0  0  0
   -5.6772   25.8616  -31.1915 H   0  0  0  0  0  0  0  0  0  0  0  0
   -5.8125   26.3204  -29.4502 H   0  0  0  0  0  0  0  0  0  0  0  0
   -5.1516   24.5017  -27.6923 H   0  0  0  0  0  0  0  0  0  0  0  0
   -3.2644   22.9420  -27.1781 H   0  0  0  0  0  0  0  0  0  0  0  0
   -1.7721   22.1461  -29.0230 H   0  0  0  0  0  0  0  0  0  0  0  0
   -2.1810   22.9323  -31.3617 H   0  0  0  0  0  0  0  0  0  0  0  0
   -9.0927   24.2653  -31.5237 H   0  0  0  0  0  0  0  0  0  0  0  0
   -7.9076   23.8258  -32.8551 H   0  0  0  0  0  0  0  0  0  0  0  0
   -9.7707   22.0452  -31.2797 H   0  0  0  0  0  0  0  0  0  0  0  0
   -9.4713   22.1551  -33.0642 H   0  0  0  0  0  0  0  0  0  0  0  0
  1  2  2  0
  2  3  1  0
  3  4  2  0
  4  5  1  0
  5  6  1  0
  6  7  2  0
  7  8  1  0
  8  9  2  0
  9 10  1  0
 10 11  2  0
 11 12  1  0
  2 13  1  0
 13 14  1  0
 14 15  1  0
 15 16  1  0
 16 17  1  0
 17 18  1  0
 18 19  1  0
 19 20  2  0
 20 21  1  0
 21 22  2  0
 22 23  1  0
 23 24  2  0
 16 25  1  0
 25 26  1  0
 11  3  1  0
 26 13  1  0
 10  5  1  0
 24 19  1  0
  6 27  1  0
  7 28  1  0
  8 29  1  0
  9 30  1  0
 14 31  1  0
 14 32  1  0
 15 33  1  0
 15 34  1  0
 17 35  1  0
 17 36  1  0
 18 37  1  0
 18 38  1  0
 20 39  1  0
 21 40  1  0
 22 41  1  0
 23 42  1  0
 25 43  1  0
 25 44  1  0
 26 45  1  0
 26 46  1  0
M  CHG  1   9   1
M  END
>  <UniqueID>  (44) 
40

>  <SMILES>  (44) 
O=C(c1nn2ccc[nH+]c2c1Br)N1CCN(CCc2ccccn2)CC1

>  <Energy>  (44) 
94.34004492042585

>  <Genealogy>  (44) 
O=C(c1nn2ccc[nH+]c2c1Br)N1CCN(CCc2ccccn2)CC1 (protonated)
O=C(c1nn2ccc[nH+]c2c1Br)N1CCN(CCc2ccccn2)CC1 (3D coordinates assigned)
O=C(c1nn2ccc[nH+]c2c1Br)N1CCN(CCc2ccccn2)CC1 (nonaromatic ring conformer: 94.34004492042585 kcal/mol)

>  <smiles>  (44) 
O=C(c1nn2cccnc2c1Br)N1CCN(CCc2ccccn2)CC1

>  <score_type>  (44) 
oracle

>  <origin>  (44) 
adg

>  <m_score__min__energy>  (44) 
-9.1699999999999999

>  <m_primary>  (44) 
energy

$$$$
44:0
     RDKit          3D

 39 41  0  0  1  0  0  0  0  0999 V2000
   -8.6260   18.5570  -31.5960 C   0  0  0  0  0  0  0  0  0  0  0  0
   -9.1760   19.5100  -32.6160 C   0  0  0  0  0  0  0  0  0  0  0  0
   -9.4850   20.8320  -31.9510 C   0  0  0  0  0  0  0  0  0  0  0  0
   -8.2270   21.5890  -31.7840 C   0  0  0  0  0  0  0  0  0  0  0  0
   -7.1260   21.1920  -32.4380 N   0  0  0  0  0  0  0  0  0  0  0  0
   -5.9470   21.7940  -32.3620 C   0  0  0  0  0  0  0  0  0  0  0  0
   -4.9250   21.3620  -33.0170 N   0  0  0  0  0  0  0  0  0  0  0  0
   -4.7360   19.9990  -33.3840 C   0  0  0  0  0  0  0  0  0  0  0  0
   -5.7210   19.3620  -34.1160 C   0  0  0  0  0  0  0  0  0  0  0  0
   -5.6190   18.0430  -34.5130 C   0  0  0  0  0  0  0  0  0  0  0  0
   -4.4950   17.3220  -34.1710 C   0  0  0  0  0  0  0  0  0  0  0  0
   -4.3620   15.8980  -34.5890 C   0  0  0  0  0  0  0  0  0  0  0  0
   -3.5010   17.9510  -33.4360 C   0  0  0  0  0  0  0  0  0  0  0  0
   -3.6080   19.2770  -33.0400 C   0  0  0  0  0  0  0  0  0  0  0  0
   -5.7960   22.9130  -31.5640 C   0  0  0  0  0  0  0  0  0  0  0  0
   -4.6150   23.5500  -31.4630 N   0  0  0  0  0  0  0  0  0  0  0  0
   -4.5710   24.6370  -30.6550 C   0  0  0  0  0  0  0  0  0  0  0  0
   -5.6610   25.0940  -29.9600 C   0  0  0  0  0  0  0  0  0  0  0  0
   -6.8690   24.4490  -30.0600 C   0  0  0  0  0  0  0  0  0  0  0  0
   -6.9280   23.3340  -30.8820 C   0  0  0  0  0  0  0  0  0  0  0  0
   -8.1100   22.6780  -30.9980 N   0  0  0  0  0  0  0  0  0  0  0  0
   -8.8440   18.9348  -30.5862 H   0  0  0  0  0  0  0  0  0  0  0  0
   -9.0933   17.5698  -31.7270 H   0  0  0  0  0  0  0  0  0  0  0  0
   -7.5375   18.4677  -31.7270 H   0  0  0  0  0  0  0  0  0  0  0  0
   -8.4332   19.6644  -33.4125 H   0  0  0  0  0  0  0  0  0  0  0  0
  -10.0963   19.0928  -33.0508 H   0  0  0  0  0  0  0  0  0  0  0  0
  -10.1816   21.4072  -32.5786 H   0  0  0  0  0  0  0  0  0  0  0  0
   -9.9475   20.6561  -30.9686 H   0  0  0  0  0  0  0  0  0  0  0  0
   -6.6222   19.9285  -34.3934 H   0  0  0  0  0  0  0  0  0  0  0  0
   -6.4254   17.5733  -35.0954 H   0  0  0  0  0  0  0  0  0  0  0  0
   -4.3022   15.2579  -33.6964 H   0  0  0  0  0  0  0  0  0  0  0  0
   -5.2371   15.6089  -35.1896 H   0  0  0  0  0  0  0  0  0  0  0  0
   -3.4485   15.7759  -35.1896 H   0  0  0  0  0  0  0  0  0  0  0  0
   -2.6013   17.3821  -33.1587 H   0  0  0  0  0  0  0  0  0  0  0  0
   -2.8029   19.7491  -32.4579 H   0  0  0  0  0  0  0  0  0  0  0  0
   -3.6182   25.1769  -30.5521 H   0  0  0  0  0  0  0  0  0  0  0  0
   -5.5671   25.9826  -29.3185 H   0  0  0  0  0  0  0  0  0  0  0  0
   -7.7539   24.8025  -29.5104 H   0  0  0  0  0  0  0  0  0  0  0  0
   -8.9740   22.9820  -30.4910 H   0  0  0  0  0  0  0  0  0  0  0  0
  1  2  1  0
  2  3  1  0
  3  4  1  0
  4  5  2  0
  5  6  1  0
  6  7  2  0
  7  8  1  0
  8  9  2  0
  9 10  1  0
 10 11  2  0
 11 12  1  0
 11 13  1  0
 13 14  2  0
  6 15  1  0
 15 16  2  0
 16 17  1  0
 17 18  2  0
 18 19  1  0
 19 20  2  0
 20 21  1  0
 21  4  1  0
 14  8  1  0
 20 15  1  0
  1 22  1  0
  1 23  1  0
  1 24  1  0
  2 25  1  0
  2 26  1  0
  3 27  1  0
  3 28  1  0
  9 29  1  0
 10 30  1  0
 12 31  1  0
 12 32  1  0
 12 33  1  0
 13 34  1  0
 14 35  1  0
 17 36  1  0
 18 37  1  0
 19 38  1  0
 21 39  1  0
M  END
>  <smiles>  (45) 
CCCc1nc(=Nc2ccc(C)cc2)c2ncccc2[nH]1

>  <score_type>  (45) 
oracle

>  <origin>  (45) 
adg

>  <m_score__min__energy>  (45) 
-7.5899999999999999

>  <m_primary>  (45) 
energy

$$$$
45:0
     RDKit          3D

 19 20  0  0  0  0  0  0  0  0999 V2000
   -3.0038   23.9410  -27.3856 H   0  0  0  0  0  0  0  0  0  0  0  0
   -3.4020   24.0910  -28.4000 C   0  0  0  0  0  0  0  0  0  0  0  0
   -2.8580   24.9160  -29.3220 N   0  0  0  0  0  0  0  0  0  0  0  0
   -3.5170   24.9340  -30.4800 N   0  0  0  0  0  0  0  0  0  0  0  0
   -4.6000   24.1300  -30.4850 C   0  0  0  0  0  0  0  0  0  0  0  0
   -5.3500   23.9820  -31.5370 N   0  0  0  0  0  0  0  0  0  0  0  0
   -5.5210   22.7640  -32.2750 C   0  0  0  0  0  0  0  0  0  0  0  0
   -4.5930   22.3850  -33.0380 O   0  0  0  0  0  0  0  0  0  0  0  0
   -6.7880   22.0010  -32.2270 C   0  0  0  0  0  0  0  0  0  0  0  0
   -6.8360   20.7400  -32.7420 N   0  0  0  0  0  0  0  0  0  0  0  0
   -7.9700   19.9910  -32.7120 C   0  0  0  0  0  0  0  0  0  0  0  0
   -7.9711   18.9782  -33.1412 H   0  0  0  0  0  0  0  0  0  0  0  0
   -9.1330   20.5060  -32.1370 C   0  0  0  0  0  0  0  0  0  0  0  0
  -10.0544   19.9057  -32.1120 H   0  0  0  0  0  0  0  0  0  0  0  0
   -9.1130   21.7920  -31.5940 C   0  0  0  0  0  0  0  0  0  0  0  0
  -10.0213   22.2108  -31.1361 H   0  0  0  0  0  0  0  0  0  0  0  0
   -7.9380   22.5460  -31.6330 C   0  0  0  0  0  0  0  0  0  0  0  0
   -7.9135   23.5579  -31.2022 H   0  0  0  0  0  0  0  0  0  0  0  0
   -4.7710   23.3230  -29.0110 S   0  0  0  0  0  0  0  0  0  0  0  0
  1  2  1  0
  2  3  2  0
  3  4  1  0
  4  5  1  0
  5  6  2  0
  6  7  1  0
  7  8  2  0
  7  9  1  0
  9 10  2  0
 10 11  1  0
 11 12  1  0
 11 13  2  0
 13 14  1  0
 13 15  1  0
 15 16  1  0
 15 17  2  0
 17 18  1  0
  5 19  1  0
 19  2  1  0
 17  9  1  0
M  CHG  1   4  -1
M  END
>  <UniqueID>  (46) 
41

>  <SMILES>  (46) 
O=C(/N=c1/[n-]ncs1)c1ccccn1

>  <Energy>  (46) 
62.194243159573944

>  <Genealogy>  (46) 
O=C(N=c1[n-]ncs1)c1ccccn1 (protonated)
O=C(/N=c1/[n-]ncs1)c1ccccn1 (cis-trans isomerization)
O=C(/N=c1/[n-]ncs1)c1ccccn1 (3D coordinates assigned)
O=C(/N=c1/[n-]ncs1)c1ccccn1 (optimized conformer: 62.194243159573944 kcal/mol)

>  <smiles>  (46) 
O=C(N=c1[nH]ncs1)c1ccccn1

>  <score_type>  (46) 
oracle

>  <origin>  (46) 
adg

>  <m_score__min__energy>  (46) 
-7.2000000000000002

>  <m_primary>  (46) 
energy

$$$$
46:0
     RDKit          3D

 45 47  0  0  0  0  0  0  0  0999 V2000
   -1.7370   25.2770  -25.7380 C   0  0  0  0  0  0  0  0  0  0  0  0
   -1.6430   25.9930  -27.0820 C   0  0  0  0  0  0  0  0  0  0  0  0
   -1.3980   25.0000  -28.2230 C   0  0  0  0  0  0  0  0  0  0  0  0
   -2.2510   25.2890  -29.3310 O   0  0  0  0  0  0  0  0  0  0  0  0
   -3.4730   24.6540  -29.6090 C   0  0  0  0  0  0  0  0  0  0  0  0
   -4.4470   25.2110  -30.4590 C   0  0  0  0  0  0  0  0  0  0  0  0
   -5.6440   24.5310  -30.7020 C   0  0  0  0  0  0  0  0  0  0  0  0
   -5.8830   23.2790  -30.1130 C   0  0  0  0  0  0  0  0  0  0  0  0
   -7.1810   22.5580  -30.3640 C   0  0  0  0  0  0  0  0  0  0  0  0
   -7.5360   22.6080  -31.8060 N   0  0  0  0  0  0  0  0  0  0  0  0
   -9.0070   22.5910  -32.0020 C   0  0  0  0  0  0  0  0  0  0  0  0
   -9.6430   21.2560  -31.5470 C   0  0  0  0  0  0  0  0  0  0  0  0
   -8.8110   20.1310  -31.9640 N   0  0  0  0  0  0  0  0  0  0  0  0
   -9.1100   18.8200  -31.9420 C   0  0  0  0  0  0  0  0  0  0  0  0
   -8.0050   18.1280  -32.4030 C   0  0  0  0  0  0  0  0  0  0  0  0
   -7.0280   19.0090  -32.6970 N   0  0  0  0  0  0  0  0  0  0  0  0
   -7.5420   20.2180  -32.3940 C   0  0  0  0  0  0  0  0  0  0  0  0
   -6.8890   21.5530  -32.6400 C   0  0  2  0  0  0  0  0  0  0  0  0
   -5.3620   21.5040  -32.4670 C   0  0  0  0  0  0  0  0  0  0  0  0
   -4.9160   22.7310  -29.2550 C   0  0  0  0  0  0  0  0  0  0  0  0
   -3.7210   23.4110  -29.0130 C   0  0  0  0  0  0  0  0  0  0  0  0
   -1.6407   26.0107  -24.9241 H   0  0  0  0  0  0  0  0  0  0  0  0
   -2.7096   24.7689  -25.6604 H   0  0  0  0  0  0  0  0  0  0  0  0
   -0.9285   24.5351  -25.6604 H   0  0  0  0  0  0  0  0  0  0  0  0
   -2.5848   26.5295  -27.2693 H   0  0  0  0  0  0  0  0  0  0  0  0
   -0.7973   26.6954  -27.0440 H   0  0  0  0  0  0  0  0  0  0  0  0
   -0.3489   25.0716  -28.5458 H   0  0  0  0  0  0  0  0  0  0  0  0
   -1.6160   23.9839  -27.8625 H   0  0  0  0  0  0  0  0  0  0  0  0
   -4.2654   26.1862  -30.9344 H   0  0  0  0  0  0  0  0  0  0  0  0
   -6.4036   24.9797  -31.3590 H   0  0  0  0  0  0  0  0  0  0  0  0
   -7.0773   21.5079  -30.0533 H   0  0  0  0  0  0  0  0  0  0  0  0
   -7.9773   23.0489  -29.7853 H   0  0  0  0  0  0  0  0  0  0  0  0
   -9.4513   23.4115  -31.4194 H   0  0  0  0  0  0  0  0  0  0  0  0
   -9.2053   22.7097  -33.0775 H   0  0  0  0  0  0  0  0  0  0  0  0
   -9.7350   21.2527  -30.4509 H   0  0  0  0  0  0  0  0  0  0  0  0
  -10.6366   21.1570  -32.0085 H   0  0  0  0  0  0  0  0  0  0  0  0
  -10.0627   18.3774  -31.6158 H   0  0  0  0  0  0  0  0  0  0  0  0
   -7.9347   17.0357  -32.5121 H   0  0  0  0  0  0  0  0  0  0  0  0
   -6.0850   18.7920  -33.0880 H   0  0  0  0  0  0  0  0  0  0  0  0
   -7.0484   21.8200  -33.6951 H   0  0  0  0  0  0  0  0  0  0  0  0
   -5.1145   21.4961  -31.3952 H   0  0  0  0  0  0  0  0  0  0  0  0
   -4.9683   20.5928  -32.9410 H   0  0  0  0  0  0  0  0  0  0  0  0
   -4.9107   22.3881  -32.9410 H   0  0  0  0  0  0  0  0  0  0  0  0
   -5.1010   21.7607  -28.7709 H   0  0  0  0  0  0  0  0  0  0  0  0
   -2.9666   22.9661  -28.3475 H   0  0  0  0  0  0  0  0  0  0  0  0
  1  2  1  0
  2  3  1  0
  3  4  1  0
  4  5  1  0
  5  6  2  0
  6  7  1  0
  7  8  2  0
  8  9  1  0
  9 10  1  0
 10 11  1  0
 11 12  1  0
 12 13  1  0
 13 14  1  0
 14 15  2  0
 15 16  1  0
 16 17  2  0
 17 18  1  0
 18 19  1  0
  8 20  1  0
 20 21  2  0
 21  5  1  0
 18 10  1  0
 17 13  1  0
  1 22  1  0
  1 23  1  0
  1 24  1  0
  2 25  1  0
  2 26  1  0
  3 27  1  0
  3 28  1  0
  6 29  1  0
  7 30  1  0
  9 31  1  0
  9 32  1  0
 11 33  1  0
 11 34  1  0
 12 35  1  0
 12 36  1  0
 14 37  1  0
 15 38  1  0
 16 39  1  0
 18 40  1  6
 19 41  1  0
 19 42  1  0
 19 43  1  0
 20 44  1  0
 21 45  1  0
M  CHG  1  16   1
M  END
>  <UniqueID>  (47) 
42

>  <SMILES>  (47) 
CCCOc1ccc(CN2CCn3cc[nH+]c3[C@@H]2C)cc1

>  <Energy>  (47) 
79.66068725624854

>  <Genealogy>  (47) 
CCCOc1ccc(CN2CCn3cc[nH+]c3C2C)cc1 (protonated)
CCCOc1ccc(CN2CCn3cc[nH+]c3[C@@H]2C)cc1 (chirality)
CCCOc1ccc(CN2CCn3cc[nH+]c3[C@@H]2C)cc1 (3D coordinates assigned)
CCCOc1ccc(CN2CCn3cc[nH+]c3[C@@H]2C)cc1 (nonaromatic ring conformer: 79.66068725624854 kcal/mol)

>  <smiles>  (47) 
CCCOc1ccc(CN2CCn3ccnc3C2C)cc1

>  <score_type>  (47) 
oracle

>  <origin>  (47) 
adg

>  <m_score__min__energy>  (47) 
-7.4900000000000002

>  <m_primary>  (47) 
energy

$$$$
47:0
     RDKit          3D

 39 41  0  0  0  0  0  0  0  0999 V2000
   -7.1800   23.0480  -32.3220 C   0  0  0  0  0  0  0  0  0  0  0  0
   -6.0290   23.5680  -31.5120 C   0  0  0  0  0  0  0  0  0  0  0  0
   -5.9790   24.9200  -31.1460 C   0  0  0  0  0  0  0  0  0  0  0  0
   -4.8920   25.4160  -30.4220 C   0  0  0  0  0  0  0  0  0  0  0  0
   -3.8380   24.5680  -30.0680 C   0  0  0  0  0  0  0  0  0  0  0  0
   -2.7860   25.0580  -29.3670 N   0  0  0  0  0  0  0  0  0  0  0  0
   -1.7270   24.2890  -28.9980 C   0  0  0  0  0  0  0  0  0  0  0  0
   -0.6230   24.9420  -28.2170 C   0  0  0  0  0  0  0  0  0  0  0  0
   -1.7000   22.9160  -29.3470 C   0  0  0  0  0  0  0  0  0  0  0  0
   -0.5390   22.0100  -28.9800 C   0  0  0  0  0  0  0  0  0  0  0  0
   -1.0310   20.7540  -28.3740 N   0  0  0  0  0  0  0  0  0  0  0  0
    0.0720   19.8070  -28.1280 C   0  0  0  0  0  0  0  0  0  0  0  0
   -0.4760   18.5010  -27.5140 C   0  0  0  0  0  0  0  0  0  0  0  0
   -1.8450   18.6030  -27.1640 O   0  0  0  0  0  0  0  0  0  0  0  0
   -2.0420   19.7350  -26.3410 C   0  0  0  0  0  0  0  0  0  0  0  0
   -1.7440   21.0370  -27.1120 C   0  0  0  0  0  0  0  0  0  0  0  0
   -2.7850   22.3830  -30.0770 C   0  0  0  0  0  0  0  0  0  0  0  0
   -2.7840   21.1630  -30.4020 O   0  0  0  0  0  0  0  0  0  0  0  0
   -3.8640   23.2090  -30.4430 C   0  0  0  0  0  0  0  0  0  0  0  0
   -4.9640   22.7170  -31.1720 C   0  0  0  0  0  0  0  0  0  0  0  0
   -7.9715   22.6904  -31.6470 H   0  0  0  0  0  0  0  0  0  0  0  0
   -7.5759   23.8547  -32.9564 H   0  0  0  0  0  0  0  0  0  0  0  0
   -6.8364   22.2177  -32.9564 H   0  0  0  0  0  0  0  0  0  0  0  0
   -6.8002   25.5943  -31.4304 H   0  0  0  0  0  0  0  0  0  0  0  0
   -4.8652   26.4761  -30.1297 H   0  0  0  0  0  0  0  0  0  0  0  0
   -0.8177   24.8269  -27.1405 H   0  0  0  0  0  0  0  0  0  0  0  0
    0.3359   24.4657  -28.4692 H   0  0  0  0  0  0  0  0  0  0  0  0
   -0.5786   26.0118  -28.4692 H   0  0  0  0  0  0  0  0  0  0  0  0
    0.0355   21.7728  -29.8876 H   0  0  0  0  0  0  0  0  0  0  0  0
    0.0997   22.5295  -28.2506 H   0  0  0  0  0  0  0  0  0  0  0  0
    0.5743   19.5787  -29.0796 H   0  0  0  0  0  0  0  0  0  0  0  0
    0.7869   20.2619  -27.4266 H   0  0  0  0  0  0  0  0  0  0  0  0
   -0.3580   17.6892  -28.2468 H   0  0  0  0  0  0  0  0  0  0  0  0
    0.0918   18.2983  -26.5939 H   0  0  0  0  0  0  0  0  0  0  0  0
   -3.0865   19.7519  -25.9965 H   0  0  0  0  0  0  0  0  0  0  0  0
   -1.3549   19.6696  -25.4845 H   0  0  0  0  0  0  0  0  0  0  0  0
   -2.6927   21.5445  -27.3409 H   0  0  0  0  0  0  0  0  0  0  0  0
   -1.1058   21.6770  -26.4851 H   0  0  0  0  0  0  0  0  0  0  0  0
   -4.9895   21.6604  -31.4769 H   0  0  0  0  0  0  0  0  0  0  0  0
  1  2  1  0
  2  3  2  0
  3  4  1  0
  4  5  2  0
  5  6  1  0
  6  7  1  0
  7  8  1  0
  7  9  2  0
  9 10  1  0
 10 11  1  0
 11 12  1  0
 12 13  1  0
 13 14  1  0
 14 15  1  0
 15 16  1  0
  9 17  1  0
 17 18  2  0
 17 19  1  0
 19 20  2  0
 20  2  1  0
 19  5  1  0
 16 11  1  0
  1 21  1  0
  1 22  1  0
  1 23  1  0
  3 24  1  0
  4 25  1  0
  8 26  1  0
  8 27  1  0
  8 28  1  0
 10 29  1  0
 10 30  1  0
 12 31  1  0
 12 32  1  0
 13 33  1  0
 13 34  1  0
 15 35  1  0
 15 36  1  0
 16 37  1  0
 16 38  1  0
 20 39  1  0
M  CHG  1   6  -1
M  END
>  <UniqueID>  (48) 
43

>  <SMILES>  (48) 
Cc1ccc2[n-]c(C)c(CN3CCOCC3)c(=O)c2c1

>  <Energy>  (48) 
54.37662299878638

>  <Genealogy>  (48) 
Cc1ccc2[n-]c(C)c(CN3CCOCC3)c(=O)c2c1 (protonated)
Cc1ccc2[n-]c(C)c(CN3CCOCC3)c(=O)c2c1 (3D coordinates assigned)
Cc1ccc2[n-]c(C)c(CN3CCOCC3)c(=O)c2c1 (nonaromatic ring conformer: 54.37662299878638 kcal/mol)

>  <smiles>  (48) 
Cc1ccc2[nH]c(C)c(CN3CCOCC3)c(=O)c2c1

>  <score_type>  (48) 
oracle

>  <origin>  (48) 
adg

>  <m_score__min__energy>  (48) 
-8.2799999999999994

>  <m_primary>  (48) 
energy

$$$$
48:0
     RDKit          3D

 35 36  0  0  0  0  0  0  0  0999 V2000
   -9.4220   19.8270  -32.3620 C   0  0  0  0  0  0  0  0  0  0  0  0
   -8.2930   19.0700  -31.6700 C   0  0  0  0  0  0  0  0  0  0  0  0
   -7.2340   18.6540  -32.6650 C   0  0  0  0  0  0  0  0  0  0  0  0
   -7.2390   17.3350  -33.1550 C   0  0  0  0  0  0  0  0  0  0  0  0
   -6.3320   16.9410  -34.1410 C   0  0  0  0  0  0  0  0  0  0  0  0
   -5.4230   17.8610  -34.6640 C   0  0  0  0  0  0  0  0  0  0  0  0
   -5.4140   19.1770  -34.1990 C   0  0  0  0  0  0  0  0  0  0  0  0
   -6.3030   19.5810  -33.1930 C   0  0  0  0  0  0  0  0  0  0  0  0
   -6.2730   20.9440  -32.7520 N   0  0  0  0  0  0  0  0  0  0  0  0
   -5.4590   21.3670  -31.6480 C   0  0  0  0  0  0  0  0  0  0  0  0
   -4.6640   20.5490  -31.1080 O   0  0  0  0  0  0  0  0  0  0  0  0
   -5.5680   22.7510  -31.1260 C   0  0  0  0  0  0  0  0  0  0  0  0
   -4.3840   23.4590  -30.8500 C   0  0  0  0  0  0  0  0  0  0  0  0
   -4.4300   24.7750  -30.3880 C   0  0  0  0  0  0  0  0  0  0  0  0
   -5.6580   25.4060  -30.1980 C   0  0  0  0  0  0  0  0  0  0  0  0
   -6.8450   24.7200  -30.4600 C   0  0  0  0  0  0  0  0  0  0  0  0
   -6.8190   23.3890  -30.9130 C   0  0  0  0  0  0  0  0  0  0  0  0
   -8.1280   22.6830  -31.1570 C   0  0  0  0  0  0  0  0  0  0  0  0
  -10.0842   20.2710  -31.6041 H   0  0  0  0  0  0  0  0  0  0  0  0
   -8.9978   20.6239  -32.9905 H   0  0  0  0  0  0  0  0  0  0  0  0
   -9.9982   19.1320  -32.9905 H   0  0  0  0  0  0  0  0  0  0  0  0
   -7.8368   19.7202  -30.9090 H   0  0  0  0  0  0  0  0  0  0  0  0
   -8.7106   18.1661  -31.2024 H   0  0  0  0  0  0  0  0  0  0  0  0
   -7.9632   16.6083  -32.7582 H   0  0  0  0  0  0  0  0  0  0  0  0
   -6.3343   15.9033  -34.5060 H   0  0  0  0  0  0  0  0  0  0  0  0
   -4.7126   17.5489  -35.4437 H   0  0  0  0  0  0  0  0  0  0  0  0
   -4.7047   19.9020  -34.6247 H   0  0  0  0  0  0  0  0  0  0  0  0
   -6.6880   21.6700  -33.3770 H   0  0  0  0  0  0  0  0  0  0  0  0
   -3.4105   22.9694  -31.0002 H   0  0  0  0  0  0  0  0  0  0  0  0
   -3.4959   25.3149  -30.1735 H   0  0  0  0  0  0  0  0  0  0  0  0
   -5.6918   26.4459  -29.8411 H   0  0  0  0  0  0  0  0  0  0  0  0
   -7.8104   25.2256  -30.3106 H   0  0  0  0  0  0  0  0  0  0  0  0
   -8.5942   22.4315  -30.1930 H   0  0  0  0  0  0  0  0  0  0  0  0
   -8.7989   23.3416  -31.7281 H   0  0  0  0  0  0  0  0  0  0  0  0
   -7.9462   21.7606  -31.7281 H   0  0  0  0  0  0  0  0  0  0  0  0
  1  2  1  0
  2  3  1  0
  3  4  2  0
  4  5  1  0
  5  6  2  0
  6  7  1  0
  7  8  2  0
  8  9  1  0
  9 10  1  0
 10 11  2  0
 10 12  1  0
 12 13  2  0
 13 14  1  0
 14 15  2  0
 15 16  1  0
 16 17  2  0
 17 18  1  0
  8  3  1  0
 17 12  1  0
  1 19  1  0
  1 20  1  0
  1 21  1  0
  2 22  1  0
  2 23  1  0
  4 24  1  0
  5 25  1  0
  6 26  1  0
  7 27  1  0
  9 28  1  0
 13 29  1  0
 14 30  1  0
 15 31  1  0
 16 32  1  0
 18 33  1  0
 18 34  1  0
 18 35  1  0
M  END
>  <UniqueID>  (49) 
44

>  <SMILES>  (49) 
CCc1ccccc1NC(=O)c1ccccc1C

>  <Energy>  (49) 
43.571672165507614

>  <Genealogy>  (49) 
CCc1ccccc1NC(=O)c1ccccc1C (3D coordinates assigned)
CCc1ccccc1NC(=O)c1ccccc1C (optimized conformer: 43.571672165507614 kcal/mol)

>  <smiles>  (49) 
CCc1ccccc1NC(=O)c1ccccc1C

>  <score_type>  (49) 
oracle

>  <origin>  (49) 
adg

>  <m_score__min__energy>  (49) 
-7.3200000000000003

>  <m_primary>  (49) 
energy

$$$$
