0:0
     RDKit          3D

 38 40  0  0  0  0  0  0  0  0999 V2000
   -5.7490   25.9980  -30.1140 C   0  0  0  0  0  0  0  0  0  0  0  0
   -4.9210   25.1140  -30.8620 O   0  0  0  0  0  0  0  0  0  0  0  0
   -5.3240   23.8530  -31.3250 C   0  0  0  0  0  0  0  0  0  0  0  0
   -4.4760   22.7300  -31.2900 C   0  0  0  0  0  0  0  0  0  0  0  0
   -4.9240   21.4930  -31.7630 C   0  0  0  0  0  0  0  0  0  0  0  0
   -6.2230   21.3570  -32.2820 C   0  0  0  0  0  0  0  0  0  0  0  0
   -6.6880   20.0800  -32.7570 N   0  0  0  0  0  0  0  0  0  0  0  0
   -6.4870   19.6850  -34.1570 C   0  0  0  0  0  0  0  0  0  0  0  0
   -5.7910   18.3230  -34.2080 C   0  0  0  0  0  0  0  0  0  0  0  0
   -6.4280   17.3550  -33.2980 N   0  0  0  0  0  0  0  0  0  0  0  0
   -5.9930   15.9790  -33.3250 C   0  0  0  0  0  0  0  0  0  0  0  0
   -5.0480   15.5420  -32.4470 N   0  0  0  0  0  0  0  0  0  0  0  0
   -4.6210   14.2520  -32.4550 C   0  0  0  0  0  0  0  0  0  0  0  0
   -5.1510   13.3510  -33.3750 C   0  0  0  0  0  0  0  0  0  0  0  0
   -6.1170   13.8080  -34.2700 C   0  0  0  0  0  0  0  0  0  0  0  0
   -6.5170   15.1050  -34.2300 N   0  0  0  0  0  0  0  0  0  0  0  0
   -7.5710   17.7700  -32.4680 C   0  0  0  0  0  0  0  0  0  0  0  0
   -7.2970   19.1310  -31.8140 C   0  0  0  0  0  0  0  0  0  0  0  0
   -7.0670   22.4780  -32.3090 C   0  0  0  0  0  0  0  0  0  0  0  0
   -6.6190   23.7150  -31.8370 C   0  0  0  0  0  0  0  0  0  0  0  0
   -5.5897   25.8280  -29.0390 H   0  0  0  0  0  0  0  0  0  0  0  0
   -5.4930   27.0385  -30.3625 H   0  0  0  0  0  0  0  0  0  0  0  0
   -6.8040   25.8106  -30.3625 H   0  0  0  0  0  0  0  0  0  0  0  0
   -3.4563   22.8261  -30.8887 H   0  0  0  0  0  0  0  0  0  0  0  0
   -4.2553   20.6203  -31.7287 H   0  0  0  0  0  0  0  0  0  0  0  0
   -7.4616   19.6179  -34.6626 H   0  0  0  0  0  0  0  0  0  0  0  0
   -5.8621   20.4353  -34.6635 H   0  0  0  0  0  0  0  0  0  0  0  0
   -5.8420   17.9341  -35.2357 H   0  0  0  0  0  0  0  0  0  0  0  0
   -4.7464   18.4579  -33.8910 H   0  0  0  0  0  0  0  0  0  0  0  0
   -3.8578   13.9200  -31.7358 H   0  0  0  0  0  0  0  0  0  0  0  0
   -4.8154   12.3036  -33.3950 H   0  0  0  0  0  0  0  0  0  0  0  0
   -6.5546   13.1191  -35.0075 H   0  0  0  0  0  0  0  0  0  0  0  0
   -8.4680   17.8466  -33.1001 H   0  0  0  0  0  0  0  0  0  0  0  0
   -7.7258   17.0211  -31.6773 H   0  0  0  0  0  0  0  0  0  0  0  0
   -8.2478   19.5496  -31.4525 H   0  0  0  0  0  0  0  0  0  0  0  0
   -6.5915   18.9746  -30.9846 H   0  0  0  0  0  0  0  0  0  0  0  0
   -8.0889   22.3824  -32.7047 H   0  0  0  0  0  0  0  0  0  0  0  0
   -7.2894   24.5865  -31.8682 H   0  0  0  0  0  0  0  0  0  0  0  0
  1  2  1  0
  2  3  1  0
  3  4  2  0
  4  5  1  0
  5  6  2  0
  6  7  1  0
  7  8  1  0
  8  9  1  0
  9 10  1  0
 10 11  1  0
 11 12  2  0
 12 13  1  0
 13 14  2  0
 14 15  1  0
 15 16  2  0
 10 17  1  0
 17 18  1  0
  6 19  1  0
 19 20  2  0
 20  3  1  0
 18  7  1  0
 16 11  1  0
  1 21  1  0
  1 22  1  0
  1 23  1  0
  4 24  1  0
  5 25  1  0
  8 26  1  0
  8 27  1  0
  9 28  1  0
  9 29  1  0
 13 30  1  0
 14 31  1  0
 15 32  1  0
 17 33  1  0
 17 34  1  0
 18 35  1  0
 18 36  1  0
 19 37  1  0
 20 38  1  0
M  END
>  <UniqueID>  (1) 
1

>  <SMILES>  (1) 
COc1ccc(N2CCN(c3ncccn3)CC2)cc1

>  <Energy>  (1) 
44.85605647938484

>  <Genealogy>  (1) 
COc1ccc(N2CCN(c3ncccn3)CC2)cc1 (3D coordinates assigned)
COc1ccc(N2CCN(c3ncccn3)CC2)cc1 (nonaromatic ring conformer: 44.85605647938484 kcal/mol)

>  <smiles>  (1) 
COc1ccc(N2CCN(c3ncccn3)CC2)cc1

>  <score_type>  (1) 
oracle

>  <origin>  (1) 
adg

>  <m_score__min__energy>  (1) 
-6.6299999999999999

>  <m_primary>  (1) 
energy

$$$$
1:0
     RDKit          3D

 39 41  0  0  0  0  0  0  0  0999 V2000
   -6.4440   16.3220  -34.2440 C   0  0  0  0  0  0  0  0  0  0  0  0
   -7.1560   16.6870  -33.1020 C   0  0  0  0  0  0  0  0  0  0  0  0
   -7.0580   17.9890  -32.6060 C   0  0  0  0  0  0  0  0  0  0  0  0
   -6.2320   18.9210  -33.2610 C   0  0  0  0  0  0  0  0  0  0  0  0
   -6.0950   20.3190  -32.7770 C   0  0  0  0  0  0  0  0  0  0  0  0
   -7.2290   21.0180  -32.3240 C   0  0  0  0  0  0  0  0  0  0  0  0
   -7.1200   22.3370  -31.8750 C   0  0  0  0  0  0  0  0  0  0  0  0
   -5.8770   22.9840  -31.8740 C   0  0  0  0  0  0  0  0  0  0  0  0
   -5.7750   24.4190  -31.4330 C   0  0  0  0  0  0  0  0  0  0  0  0
   -4.3820   24.7850  -31.1280 N   0  0  0  0  0  0  0  0  0  0  0  0
   -4.1330   24.9020  -29.6710 C   0  0  0  0  0  0  0  0  0  0  0  0
   -4.9870   23.8850  -28.9130 C   0  0  0  0  0  0  0  0  0  0  0  0
   -4.1450   22.6170  -28.7920 C   0  0  0  0  0  0  0  0  0  0  0  0
   -2.7150   22.9970  -29.1640 C   0  0  0  0  0  0  0  0  0  0  0  0
   -2.7000   24.5090  -29.3070 C   0  0  0  0  0  0  0  0  0  0  0  0
   -4.7450   22.2990  -32.3400 C   0  0  0  0  0  0  0  0  0  0  0  0
   -4.8510   20.9800  -32.7890 C   0  0  0  0  0  0  0  0  0  0  0  0
   -5.5570   18.5330  -34.3810 N   0  0  0  0  0  0  0  0  0  0  0  0
   -5.6420   17.2710  -34.8780 C   0  0  0  0  0  0  0  0  0  0  0  0
   -6.5139   15.2982  -34.6401 H   0  0  0  0  0  0  0  0  0  0  0  0
   -7.7942   15.9503  -32.5922 H   0  0  0  0  0  0  0  0  0  0  0  0
   -7.6228   18.2838  -31.7093 H   0  0  0  0  0  0  0  0  0  0  0  0
   -8.2106   20.5216  -32.3232 H   0  0  0  0  0  0  0  0  0  0  0  0
   -8.0146   22.8700  -31.5206 H   0  0  0  0  0  0  0  0  0  0  0  0
   -6.1487   25.0690  -32.2379 H   0  0  0  0  0  0  0  0  0  0  0  0
   -6.3761   24.5464  -30.5206 H   0  0  0  0  0  0  0  0  0  0  0  0
   -4.2120   25.7040  -31.6000 H   0  0  0  0  0  0  0  0  0  0  0  0
   -4.3527   25.9480  -29.4108 H   0  0  0  0  0  0  0  0  0  0  0  0
   -5.2397   24.2702  -27.9141 H   0  0  0  0  0  0  0  0  0  0  0  0
   -5.9316   23.6866  -29.4406 H   0  0  0  0  0  0  0  0  0  0  0  0
   -4.1792   22.2373  -27.7602 H   0  0  0  0  0  0  0  0  0  0  0  0
   -4.5271   21.8262  -29.4543 H   0  0  0  0  0  0  0  0  0  0  0  0
   -2.0190   22.6822  -28.3725 H   0  0  0  0  0  0  0  0  0  0  0  0
   -2.3993   22.5039  -30.0952 H   0  0  0  0  0  0  0  0  0  0  0  0
   -2.4012   24.9814  -28.3596 H   0  0  0  0  0  0  0  0  0  0  0  0
   -1.9809   24.8384  -30.0715 H   0  0  0  0  0  0  0  0  0  0  0  0
   -3.7676   22.8034  -32.3520 H   0  0  0  0  0  0  0  0  0  0  0  0
   -3.9567   20.4540  -33.1544 H   0  0  0  0  0  0  0  0  0  0  0  0
   -5.0775   16.9975  -35.7816 H   0  0  0  0  0  0  0  0  0  0  0  0
  1  2  2  0
  2  3  1  0
  3  4  2  0
  4  5  1  0
  5  6  2  0
  6  7  1  0
  7  8  2  0
  8  9  1  0
  9 10  1  0
 10 11  1  0
 11 12  1  0
 12 13  1  0
 13 14  1  0
 14 15  1  0
  8 16  1  0
 16 17  2  0
  4 18  1  0
 18 19  2  0
 19  1  1  0
 17  5  1  0
 15 11  1  0
  1 20  1  0
  2 21  1  0
  3 22  1  0
  6 23  1  0
  7 24  1  0
  9 25  1  0
  9 26  1  0
 10 27  1  0
 11 28  1  0
 12 29  1  0
 12 30  1  0
 13 31  1  0
 13 32  1  0
 14 33  1  0
 14 34  1  0
 15 35  1  0
 15 36  1  0
 16 37  1  0
 17 38  1  0
 19 39  1  0
M  END
>  <UniqueID>  (2) 
2

>  <SMILES>  (2) 
c1ccc(-c2ccc(CNC3CCCC3)cc2)nc1

>  <Energy>  (2) 
46.639279413331074

>  <Genealogy>  (2) 
c1ccc(-c2ccc(CNC3CCCC3)cc2)nc1 (3D coordinates assigned)
c1ccc(-c2ccc(CNC3CCCC3)cc2)nc1 (nonaromatic ring conformer: 46.639279413331074 kcal/mol)

>  <smiles>  (2) 
c1ccc(-c2ccc(CNC3CCCC3)cc2)nc1

>  <score_type>  (2) 
oracle

>  <origin>  (2) 
adg

>  <m_score__min__energy>  (2) 
-8

>  <m_primary>  (2) 
energy

$$$$
2:0
     RDKit          3D

 37 39  0  0  0  0  0  0  0  0999 V2000
    1.4200   24.5860  -27.8860 N   0  0  0  0  0  0  0  0  0  0  0  0
    0.5610   23.4300  -28.1350 C   0  0  0  0  0  0  0  0  0  0  0  0
   -0.8950   23.8180  -28.0890 C   0  0  0  0  0  0  0  0  0  0  0  0
   -1.6150   23.7170  -26.8900 C   0  0  0  0  0  0  0  0  0  0  0  0
   -2.9700   24.0530  -26.8530 C   0  0  0  0  0  0  0  0  0  0  0  0
   -3.6280   24.4740  -28.0170 C   0  0  0  0  0  0  0  0  0  0  0  0
   -4.9690   24.8510  -27.9590 O   0  0  0  0  0  0  0  0  0  0  0  0
   -2.9230   24.5300  -29.2360 C   0  0  0  0  0  0  0  0  0  0  0  0
   -3.5550   24.9380  -30.4580 N   0  0  0  0  0  0  0  0  0  0  0  0
   -4.9660   24.9630  -30.7090 C   0  0  0  0  0  0  0  0  0  0  0  0
   -5.5880   26.0470  -30.5600 O   0  0  0  0  0  0  0  0  0  0  0  0
   -5.6940   23.7750  -31.1950 C   0  0  0  0  0  0  0  0  0  0  0  0
   -7.0490   23.7290  -31.5060 C   0  0  0  0  0  0  0  0  0  0  0  0
   -7.4730   22.4830  -31.9830 C   0  0  0  0  0  0  0  0  0  0  0  0
   -6.4500   21.5400  -32.0630 C   0  0  0  0  0  0  0  0  0  0  0  0
   -6.6000   20.1480  -32.5300 C   0  0  0  0  0  0  0  0  0  0  0  0
   -7.4880   19.2580  -31.9030 C   0  0  0  0  0  0  0  0  0  0  0  0
   -7.6010   17.9500  -32.3790 C   0  0  0  0  0  0  0  0  0  0  0  0
   -6.8320   17.5370  -33.4680 C   0  0  0  0  0  0  0  0  0  0  0  0
   -5.9590   18.4450  -34.0700 C   0  0  0  0  0  0  0  0  0  0  0  0
   -5.8640   19.7150  -33.5930 N   0  0  0  0  0  0  0  0  0  0  0  0
   -5.0220   22.2690  -31.5420 S   0  0  0  0  0  0  0  0  0  0  0  0
   -1.5570   24.2230  -29.2580 C   0  0  0  0  0  0  0  0  0  0  0  0
    0.8280   25.3770  -27.5420 H   0  0  0  0  0  0  0  0  0  0  0  0
    1.8540   24.8830  -28.7910 H   0  0  0  0  0  0  0  0  0  0  0  0
    0.7920   23.0176  -29.1283 H   0  0  0  0  0  0  0  0  0  0  0  0
    0.7483   22.6797  -27.3527 H   0  0  0  0  0  0  0  0  0  0  0  0
   -1.1107   23.3719  -25.9753 H   0  0  0  0  0  0  0  0  0  0  0  0
   -3.5241   23.9869  -25.9051 H   0  0  0  0  0  0  0  0  0  0  0  0
   -5.3190   25.6550  -28.4680 H   0  0  0  0  0  0  0  0  0  0  0  0
   -7.7234   24.5900  -31.3883 H   0  0  0  0  0  0  0  0  0  0  0  0
   -8.5138   22.2688  -32.2674 H   0  0  0  0  0  0  0  0  0  0  0  0
   -8.0897   19.5889  -31.0437 H   0  0  0  0  0  0  0  0  0  0  0  0
   -8.2951   17.2462  -31.8963 H   0  0  0  0  0  0  0  0  0  0  0  0
   -6.9128   16.5078  -33.8476 H   0  0  0  0  0  0  0  0  0  0  0  0
   -5.3481   18.1332  -34.9300 H   0  0  0  0  0  0  0  0  0  0  0  0
   -0.9970   24.3001  -30.2016 H   0  0  0  0  0  0  0  0  0  0  0  0
  1  2  1  0
  2  3  1  0
  3  4  2  0
  4  5  1  0
  5  6  2  0
  6  7  1  0
  6  8  1  0
  8  9  1  0
  9 10  1  0
 10 11  2  0
 10 12  1  0
 12 13  2  0
 13 14  1  0
 14 15  2  0
 15 16  1  0
 16 17  2  0
 17 18  1  0
 18 19  2  0
 19 20  1  0
 20 21  2  0
 15 22  1  0
  8 23  2  0
 23  3  1  0
 22 12  1  0
 21 16  1  0
  1 24  1  0
  1 25  1  0
  2 26  1  0
  2 27  1  0
  4 28  1  0
  5 29  1  0
  7 30  1  0
 13 31  1  0
 14 32  1  0
 17 33  1  0
 18 34  1  0
 19 35  1  0
 20 36  1  0
 23 37  1  0
M  CHG  1   9  -1
M  END
>  <UniqueID>  (3) 
3

>  <SMILES>  (3) 
NCc1ccc(O)c([N-]C(=O)c2ccc(-c3ccccn3)s2)c1

>  <Energy>  (3) 
71.77829940201325

>  <Genealogy>  (3) 
NCc1ccc(O)c([N-]C(=O)c2ccc(-c3ccccn3)s2)c1 (protonated)
NCc1ccc(O)c([N-]C(=O)c2ccc(-c3ccccn3)s2)c1 (3D coordinates assigned)
NCc1ccc(O)c([N-]C(=O)c2ccc(-c3ccccn3)s2)c1 (optimized conformer: 71.77829940201325 kcal/mol)

>  <smiles>  (3) 
NCc1ccc(O)c(NC(=O)c2ccc(-c3ccccn3)s2)c1

>  <score_type>  (3) 
oracle

>  <origin>  (3) 
adg

>  <m_score__min__energy>  (3) 
-10.970000000000001

>  <m_primary>  (3) 
energy

$$$$
3:0
     RDKit          3D

 41 43  0  0  0  0  0  0  0  0999 V2000
   -5.7490   25.2140  -30.3880 C   0  0  0  0  0  0  0  0  0  0  0  0
   -6.2610   23.7880  -30.5780 C   0  0  0  0  0  0  0  0  0  0  0  0
   -6.5760   23.4670  -32.0480 C   0  0  0  0  0  0  0  0  0  0  0  0
   -6.2210   22.0710  -32.3900 N   0  0  0  0  0  0  0  0  0  0  0  0
   -4.9180   21.7680  -32.7170 C   0  0  0  0  0  0  0  0  0  0  0  0
   -4.0400   22.6750  -32.7050 O   0  0  0  0  0  0  0  0  0  0  0  0
   -4.5450   20.4460  -33.0430 C   0  0  0  0  0  0  0  0  0  0  0  0
   -3.1540   20.0830  -33.4200 C   0  0  0  0  0  0  0  0  0  0  0  0
   -2.8540   18.8590  -33.5210 O   0  0  0  0  0  0  0  0  0  0  0  0
   -2.1520   21.0980  -33.6850 N   0  0  0  0  0  0  0  0  0  0  0  0
   -1.0890   20.5860  -34.5640 C   0  0  0  0  0  0  0  0  0  0  0  0
    0.0490   20.0920  -33.6800 C   0  0  0  0  0  0  0  0  0  0  0  0
   -0.2150   20.6780  -32.3030 C   0  0  0  0  0  0  0  0  0  0  0  0
   -1.4810   21.5130  -32.4450 C   0  0  0  0  0  0  0  0  0  0  0  0
   -5.5110   19.4370  -32.9850 C   0  0  0  0  0  0  0  0  0  0  0  0
   -6.8260   19.7450  -32.6430 C   0  0  0  0  0  0  0  0  0  0  0  0
   -7.8100   18.7480  -32.5870 C   0  0  0  0  0  0  0  0  0  0  0  0
   -9.1190   19.0830  -32.2430 C   0  0  0  0  0  0  0  0  0  0  0  0
   -9.4320   20.4110  -31.9590 C   0  0  0  0  0  0  0  0  0  0  0  0
   -8.4670   21.3660  -32.0170 N   0  0  0  0  0  0  0  0  0  0  0  0
   -7.1740   21.0800  -32.3490 C   0  0  0  0  0  0  0  0  0  0  0  0
   -5.6697   25.4350  -29.3133 H   0  0  0  0  0  0  0  0  0  0  0  0
   -4.7589   25.3136  -30.8569 H   0  0  0  0  0  0  0  0  0  0  0  0
   -6.4496   25.9206  -30.8569 H   0  0  0  0  0  0  0  0  0  0  0  0
   -5.4927   23.0867  -30.2205 H   0  0  0  0  0  0  0  0  0  0  0  0
   -7.1957   23.6894  -30.0065 H   0  0  0  0  0  0  0  0  0  0  0  0
   -7.6519   23.6146  -32.2228 H   0  0  0  0  0  0  0  0  0  0  0  0
   -5.9787   24.1387  -32.6821 H   0  0  0  0  0  0  0  0  0  0  0  0
   -2.5950   21.9260  -34.1490 H   0  0  0  0  0  0  0  0  0  0  0  0
   -1.4755   19.7567  -35.1746 H   0  0  0  0  0  0  0  0  0  0  0  0
   -0.7344   21.3783  -35.2396 H   0  0  0  0  0  0  0  0  0  0  0  0
    0.0503   18.9929  -33.6352 H   0  0  0  0  0  0  0  0  0  0  0  0
    1.0298   20.4005  -34.0710 H   0  0  0  0  0  0  0  0  0  0  0  0
   -0.3662   19.8746  -31.5670 H   0  0  0  0  0  0  0  0  0  0  0  0
    0.6329   21.2837  -31.9506 H   0  0  0  0  0  0  0  0  0  0  0  0
   -2.1433   21.3390  -31.5841 H   0  0  0  0  0  0  0  0  0  0  0  0
   -1.2345   22.5845  -32.4798 H   0  0  0  0  0  0  0  0  0  0  0  0
   -5.2320   18.3970  -33.2100 H   0  0  0  0  0  0  0  0  0  0  0  0
   -7.5499   17.7036  -32.8140 H   0  0  0  0  0  0  0  0  0  0  0  0
   -9.8970   18.3068  -32.1962 H   0  0  0  0  0  0  0  0  0  0  0  0
  -10.4617   20.6866  -31.6875 H   0  0  0  0  0  0  0  0  0  0  0  0
  1  2  1  0
  2  3  1  0
  3  4  1  0
  4  5  1  0
  5  6  2  0
  5  7  1  0
  7  8  1  0
  8  9  2  0
  8 10  1  0
 10 11  1  0
 11 12  1  0
 12 13  1  0
 13 14  1  0
  7 15  2  0
 15 16  1  0
 16 17  2  0
 17 18  1  0
 18 19  2  0
 19 20  1  0
 20 21  2  0
 21  4  1  0
 14 10  1  0
 21 16  1  0
  1 22  1  0
  1 23  1  0
  1 24  1  0
  2 25  1  0
  2 26  1  0
  3 27  1  0
  3 28  1  0
 10 29  1  0
 11 30  1  0
 11 31  1  0
 12 32  1  0
 12 33  1  0
 13 34  1  0
 13 35  1  0
 14 36  1  0
 14 37  1  0
 15 38  1  0
 17 39  1  0
 18 40  1  0
 19 41  1  0
M  CHG  1  10   1
M  END
>  <UniqueID>  (4) 
4

>  <SMILES>  (4) 
CCCn1c(=O)c(C(=O)[NH+]2CCCC2)cc2cccnc21

>  <Energy>  (4) 
54.99233714241376

>  <Genealogy>  (4) 
CCCn1c(=O)c(C(=O)[NH+]2CCCC2)cc2cccnc21 (protonated)
CCCn1c(=O)c(C(=O)[NH+]2CCCC2)cc2cccnc21 (3D coordinates assigned)
CCCn1c(=O)c(C(=O)[NH+]2CCCC2)cc2cccnc21 (nonaromatic ring conformer: 54.99233714241376 kcal/mol)

>  <smiles>  (4) 
CCCn1c(=O)c(C(=O)N2CCCC2)cc2cccnc21

>  <score_type>  (4) 
oracle

>  <origin>  (4) 
adg

>  <m_score__min__energy>  (4) 
-6.7800000000000002

>  <m_primary>  (4) 
energy

$$$$
4:0
     RDKit          3D

 44 48  0  0  0  0  0  0  0  0999 V2000
   -6.4880   26.0090  -28.9860 C   0  0  0  0  0  0  0  0  0  0  0  0
   -6.1120   25.7200  -30.3280 O   0  0  0  0  0  0  0  0  0  0  0  0
   -5.9630   24.4260  -30.8540 C   0  0  0  0  0  0  0  0  0  0  0  0
   -7.0590   23.6740  -31.3020 C   0  0  0  0  0  0  0  0  0  0  0  0
   -6.8760   22.3840  -31.8220 C   0  0  0  0  0  0  0  0  0  0  0  0
   -7.9850   21.6610  -32.2560 C   0  0  0  0  0  0  0  0  0  0  0  0
   -7.8210   20.3830  -32.7680 C   0  0  0  0  0  0  0  0  0  0  0  0
   -6.5840   19.8130  -32.8610 N   0  0  0  0  0  0  0  0  0  0  0  0
   -6.5030   18.5460  -33.3730 C   0  0  0  0  0  0  0  0  0  0  0  0
   -5.2730   17.8880  -33.5020 C   0  0  0  0  0  0  0  0  0  0  0  0
   -4.1030   18.5750  -33.1350 C   0  0  0  0  0  0  0  0  0  0  0  0
   -4.1950   19.8630  -32.5990 C   0  0  0  0  0  0  0  0  0  0  0  0
   -5.4510   20.4960  -32.4530 C   0  0  0  0  0  0  0  0  0  0  0  0
   -5.5820   21.8150  -31.9090 C   0  0  0  0  0  0  0  0  0  0  0  0
   -4.4890   22.5880  -31.4460 C   0  0  0  0  0  0  0  0  0  0  0  0
   -4.6760   23.8830  -30.9240 C   0  0  0  0  0  0  0  0  0  0  0  0
   -3.6040   24.6650  -30.4630 O   0  0  0  0  0  0  0  0  0  0  0  0
   -2.7590   24.3230  -29.3690 C   0  0  0  0  0  0  0  0  0  0  0  0
   -2.7540   17.9180  -33.2970 C   0  0  0  0  0  0  0  0  0  0  0  0
   -2.6490   17.1930  -34.9620 S   0  0  0  0  0  0  0  0  0  0  0  0
   -3.9980   16.0480  -34.6470 C   0  0  0  0  0  0  0  0  0  0  0  0
   -3.8530   14.7060  -35.0180 C   0  0  0  0  0  0  0  0  0  0  0  0
   -4.8950   13.8020  -34.8070 C   0  0  0  0  0  0  0  0  0  0  0  0
   -6.0810   14.2310  -34.2090 C   0  0  0  0  0  0  0  0  0  0  0  0
   -6.2260   15.5630  -33.8110 C   0  0  0  0  0  0  0  0  0  0  0  0
   -5.1880   16.4920  -34.0290 C   0  0  0  0  0  0  0  0  0  0  0  0
   -5.8096   25.4876  -28.2947 H   0  0  0  0  0  0  0  0  0  0  0  0
   -6.4252   27.0935  -28.8131 H   0  0  0  0  0  0  0  0  0  0  0  0
   -7.5198   25.6693  -28.8131 H   0  0  0  0  0  0  0  0  0  0  0  0
   -8.0716   24.0998  -31.2451 H   0  0  0  0  0  0  0  0  0  0  0  0
   -8.9900   22.1037  -32.1925 H   0  0  0  0  0  0  0  0  0  0  0  0
   -8.7029   19.8186  -33.1051 H   0  0  0  0  0  0  0  0  0  0  0  0
   -7.4234   18.0336  -33.6899 H   0  0  0  0  0  0  0  0  0  0  0  0
   -3.2807   20.3895  -32.2876 H   0  0  0  0  0  0  0  0  0  0  0  0
   -3.4733   22.1684  -31.4951 H   0  0  0  0  0  0  0  0  0  0  0  0
   -3.2800   24.5339  -28.4234 H   0  0  0  0  0  0  0  0  0  0  0  0
   -2.5091   23.2529  -29.4193 H   0  0  0  0  0  0  0  0  0  0  0  0
   -1.8352   24.9180  -29.4193 H   0  0  0  0  0  0  0  0  0  0  0  0
   -1.9599   18.6686  -33.1702 H   0  0  0  0  0  0  0  0  0  0  0  0
   -2.6289   17.1309  -32.5388 H   0  0  0  0  0  0  0  0  0  0  0  0
   -2.9143   14.3628  -35.4775 H   0  0  0  0  0  0  0  0  0  0  0  0
   -4.7817   12.7512  -35.1120 H   0  0  0  0  0  0  0  0  0  0  0  0
   -6.9041   13.5186  -34.0505 H   0  0  0  0  0  0  0  0  0  0  0  0
   -7.1569   15.8890  -33.3240 H   0  0  0  0  0  0  0  0  0  0  0  0
  1  2  1  0
  2  3  1  0
  3  4  2  0
  4  5  1  0
  5  6  2  0
  6  7  1  0
  7  8  2  0
  8  9  1  0
  9 10  2  0
 10 11  1  0
 11 12  2  0
 12 13  1  0
 13 14  2  0
 14 15  1  0
 15 16  2  0
 16 17  1  0
 17 18  1  0
 11 19  1  0
 19 20  1  0
 20 21  1  0
 21 22  2  0
 22 23  1  0
 23 24  2  0
 24 25  1  0
 25 26  2  0
 16  3  1  0
 26 21  1  0
 14  5  1  0
 13  8  1  0
 26 10  1  0
  1 27  1  0
  1 28  1  0
  1 29  1  0
  4 30  1  0
  6 31  1  0
  7 32  1  0
  9 33  1  0
 12 34  1  0
 15 35  1  0
 18 36  1  0
 18 37  1  0
 18 38  1  0
 19 39  1  0
 19 40  1  0
 22 41  1  0
 23 42  1  0
 24 43  1  0
 25 44  1  0
M  CHG  1   8   1
M  END
>  <UniqueID>  (5) 
5

>  <SMILES>  (5) 
COc1cc2cc[n+]3cc4c(cc3c2cc1OC)CSc1ccccc1-4

>  <Energy>  (5) 
71.43584595429316

>  <Genealogy>  (5) 
COc1cc2cc[n+]3cc4c(cc3c2cc1OC)CSc1ccccc1-4 (3D coordinates assigned)
COc1cc2cc[n+]3cc4c(cc3c2cc1OC)CSc1ccccc1-4 (nonaromatic ring conformer: 71.43584595429316 kcal/mol)

>  <smiles>  (5) 
COc1cc2cc[n+]3cc4c(cc3c2cc1OC)CSc1ccccc1-4

>  <score_type>  (5) 
oracle

>  <origin>  (5) 
adg

>  <m_score__min__energy>  (5) 
-8.3200000000000003

>  <m_primary>  (5) 
energy

$$$$
5:0
     RDKit          3D

 44 46  0  0  0  0  0  0  0  0999 V2000
   -6.8160   24.8150  -29.9810 C   0  0  0  0  0  0  0  0  0  0  0  0
   -6.7370   23.6440  -30.9160 C   0  0  0  0  0  0  0  0  0  0  0  0
   -5.5350   23.3460  -31.5770 C   0  0  0  0  0  0  0  0  0  0  0  0
   -5.4710   22.2730  -32.4680 C   0  0  0  0  0  0  0  0  0  0  0  0
   -6.6070   21.4980  -32.7180 C   0  0  0  0  0  0  0  0  0  0  0  0
   -7.8210   21.8000  -32.0840 C   0  0  0  0  0  0  0  0  0  0  0  0
   -9.0430   20.9500  -32.3430 C   0  0  0  0  0  0  0  0  0  0  0  0
   -8.6960   19.6650  -32.9730 N   0  0  0  0  0  0  0  0  0  0  0  0
   -8.5570   18.5850  -31.9810 C   0  0  0  0  0  0  0  0  0  0  0  0
   -7.5760   17.5150  -32.4760 C   0  0  0  0  0  0  0  0  0  0  0  0
   -6.2360   18.1290  -32.7910 C   0  0  0  0  0  0  0  0  0  0  0  0
   -5.5040   18.7680  -31.7810 C   0  0  0  0  0  0  0  0  0  0  0  0
   -4.2450   19.3100  -32.0530 C   0  0  0  0  0  0  0  0  0  0  0  0
   -3.6850   19.2120  -33.3390 C   0  0  0  0  0  0  0  0  0  0  0  0
   -2.3830   19.7780  -33.6030 N   0  0  0  0  0  0  0  0  0  0  0  0
   -1.2530   19.1160  -33.9270 C   0  0  0  0  0  0  0  0  0  0  0  0
   -0.2350   20.0320  -34.0820 C   0  0  0  0  0  0  0  0  0  0  0  0
   -0.8230   21.2550  -33.8330 C   0  0  0  0  0  0  0  0  0  0  0  0
   -2.1250   21.0770  -33.5420 N   0  0  0  0  0  0  0  0  0  0  0  0
   -4.4190   18.5610  -34.3490 C   0  0  0  0  0  0  0  0  0  0  0  0
   -5.6790   18.0190  -34.0770 C   0  0  0  0  0  0  0  0  0  0  0  0
   -6.3560   17.3860  -35.0690 F   0  0  0  0  0  0  0  0  0  0  0  0
   -7.8820   22.8780  -31.1850 C   0  0  0  0  0  0  0  0  0  0  0  0
   -6.7918   24.4564  -28.9414 H   0  0  0  0  0  0  0  0  0  0  0  0
   -5.9609   25.4840  -30.1581 H   0  0  0  0  0  0  0  0  0  0  0  0
   -7.7532   25.3631  -30.1581 H   0  0  0  0  0  0  0  0  0  0  0  0
   -4.6409   23.9596  -31.3924 H   0  0  0  0  0  0  0  0  0  0  0  0
   -4.5237   22.0368  -32.9748 H   0  0  0  0  0  0  0  0  0  0  0  0
   -6.5487   20.6484  -33.4143 H   0  0  0  0  0  0  0  0  0  0  0  0
   -9.5474   20.7518  -31.3858 H   0  0  0  0  0  0  0  0  0  0  0  0
   -9.7006   21.5003  -33.0320 H   0  0  0  0  0  0  0  0  0  0  0  0
   -7.8070   19.7650  -33.5170 H   0  0  0  0  0  0  0  0  0  0  0  0
   -9.4630   19.4160  -33.6400 H   0  0  0  0  0  0  0  0  0  0  0  0
   -8.1832   19.0081  -31.0370 H   0  0  0  0  0  0  0  0  0  0  0  0
   -9.5410   18.1178  -31.8276 H   0  0  0  0  0  0  0  0  0  0  0  0
   -7.4491   16.7515  -31.6943 H   0  0  0  0  0  0  0  0  0  0  0  0
   -7.9810   17.0587  -33.3913 H   0  0  0  0  0  0  0  0  0  0  0  0
   -5.9235   18.8434  -30.7669 H   0  0  0  0  0  0  0  0  0  0  0  0
   -3.6866   19.8183  -31.2531 H   0  0  0  0  0  0  0  0  0  0  0  0
   -1.1597   18.0266  -34.0474 H   0  0  0  0  0  0  0  0  0  0  0  0
    0.8140   19.8322  -34.3458 H   0  0  0  0  0  0  0  0  0  0  0  0
   -0.3072   22.2260  -33.8671 H   0  0  0  0  0  0  0  0  0  0  0  0
   -3.9973   18.4780  -35.3615 H   0  0  0  0  0  0  0  0  0  0  0  0
   -8.8327   23.1231  -30.6890 H   0  0  0  0  0  0  0  0  0  0  0  0
  1  2  1  0
  2  3  2  0
  3  4  1  0
  4  5  2  0
  5  6  1  0
  6  7  1  0
  7  8  1  0
  8  9  1  0
  9 10  1  0
 10 11  1  0
 11 12  2  0
 12 13  1  0
 13 14  2  0
 14 15  1  0
 15 16  1  0
 16 17  2  0
 17 18  1  0
 18 19  2  0
 14 20  1  0
 20 21  2  0
 21 22  1  0
  6 23  2  0
 23  2  1  0
 21 11  1  0
 19 15  1  0
  1 24  1  0
  1 25  1  0
  1 26  1  0
  3 27  1  0
  4 28  1  0
  5 29  1  0
  7 30  1  0
  7 31  1  0
  8 32  1  0
  8 33  1  0
  9 34  1  0
  9 35  1  0
 10 36  1  0
 10 37  1  0
 12 38  1  0
 13 39  1  0
 16 40  1  0
 17 41  1  0
 18 42  1  0
 20 43  1  0
 23 44  1  0
M  CHG  1   8   1
M  END
>  <UniqueID>  (6) 
6

>  <SMILES>  (6) 
Cc1cccc(C[NH2+]CCc2ccc(-n3cccn3)cc2F)c1

>  <Energy>  (6) 
74.3022813622771

>  <Genealogy>  (6) 
Cc1cccc(C[NH2+]CCc2ccc(-n3cccn3)cc2F)c1 (protonated)
Cc1cccc(C[NH2+]CCc2ccc(-n3cccn3)cc2F)c1 (3D coordinates assigned)
Cc1cccc(C[NH2+]CCc2ccc(-n3cccn3)cc2F)c1 (optimized conformer: 74.3022813622771 kcal/mol)

>  <smiles>  (6) 
Cc1cccc(CNCCc2ccc(-n3cccn3)cc2F)c1

>  <score_type>  (6) 
oracle

>  <origin>  (6) 
adg

>  <m_score__min__energy>  (6) 
-7.4299999999999997

>  <m_primary>  (6) 
energy

$$$$
6:0
     RDKit          3D

 52 56  0  0  0  0  0  0  0  0999 V2000
   -6.5460   24.1480  -31.4630 C   0  0  0  0  0  0  0  0  0  0  0  0
   -7.2470   22.8410  -31.7390 C   0  0  0  0  0  0  0  0  0  0  0  0
   -8.6400   22.7800  -31.5900 C   0  0  0  0  0  0  0  0  0  0  0  0
   -9.3310   21.6060  -31.8790 C   0  0  0  0  0  0  0  0  0  0  0  0
   -8.6420   20.4740  -32.3090 C   0  0  0  0  0  0  0  0  0  0  0  0
   -7.2470   20.4890  -32.4340 C   0  0  0  0  0  0  0  0  0  0  0  0
   -6.5800   19.2870  -32.8630 N   0  0  0  0  0  0  0  0  0  0  0  0
   -6.5610   18.1680  -32.1390 N   0  0  0  0  0  0  0  0  0  0  0  0
   -5.8040   17.3100  -32.8450 C   0  0  0  0  0  0  0  0  0  0  0  0
   -5.4410   16.0040  -32.5340 C   0  0  0  0  0  0  0  0  0  0  0  0
   -4.6020   15.3310  -33.4460 C   0  0  0  0  0  0  0  0  0  0  0  0
   -4.1550   15.9800  -34.6230 C   0  0  0  0  0  0  0  0  0  0  0  0
   -4.5380   17.3060  -34.8980 C   0  0  0  0  0  0  0  0  0  0  0  0
   -5.3700   17.9300  -33.9760 C   0  0  0  0  0  0  0  0  0  0  0  0
   -5.8550   19.1760  -33.9730 N   0  0  0  0  0  0  0  0  0  0  0  0
   -6.5340   21.6800  -32.1410 C   0  0  0  0  0  0  0  0  0  0  0  0
   -5.0650   21.7350  -32.3250 C   0  0  0  0  0  0  0  0  0  0  0  0
   -4.5890   21.3690  -33.4300 O   0  0  0  0  0  0  0  0  0  0  0  0
   -4.1880   22.1950  -31.2740 N   0  0  0  0  0  0  0  0  0  0  0  0
   -2.8380   22.6700  -31.6110 C   0  0  0  0  0  0  0  0  0  0  0  0
   -1.8590   22.3360  -30.4730 C   0  0  0  0  0  0  0  0  0  0  0  0
   -1.9130   23.3110  -29.3100 C   0  0  0  0  0  0  0  0  0  0  0  0
   -0.6830   23.8160  -28.8470 C   0  0  0  0  0  0  0  0  0  0  0  0
   -0.6260   24.7080  -27.7780 C   0  0  0  0  0  0  0  0  0  0  0  0
   -1.7930   25.0900  -27.1290 C   0  0  0  0  0  0  0  0  0  0  0  0
   -3.0210   24.5750  -27.5380 C   0  0  0  0  0  0  0  0  0  0  0  0
   -3.1080   23.6640  -28.6110 C   0  0  0  0  0  0  0  0  0  0  0  0
   -4.5000   23.2070  -29.0130 C   0  0  0  0  0  0  0  0  0  0  0  0
   -4.5300   21.9310  -29.8650 C   0  0  0  0  0  0  0  0  0  0  0  0
   -6.4653   24.2985  -30.3763 H   0  0  0  0  0  0  0  0  0  0  0  0
   -5.5393   24.1248  -31.9057 H   0  0  0  0  0  0  0  0  0  0  0  0
   -7.1223   24.9738  -31.9057 H   0  0  0  0  0  0  0  0  0  0  0  0
   -9.1911   23.6662  -31.2422 H   0  0  0  0  0  0  0  0  0  0  0  0
  -10.4248   21.5723  -31.7674 H   0  0  0  0  0  0  0  0  0  0  0  0
   -9.1999   19.5580  -32.5531 H   0  0  0  0  0  0  0  0  0  0  0  0
   -5.7941   15.5157  -31.6137 H   0  0  0  0  0  0  0  0  0  0  0  0
   -4.2927   14.2953  -33.2420 H   0  0  0  0  0  0  0  0  0  0  0  0
   -3.5031   15.4432  -35.3279 H   0  0  0  0  0  0  0  0  0  0  0  0
   -4.1936   17.8263  -35.8039 H   0  0  0  0  0  0  0  0  0  0  0  0
   -5.6650   19.9280  -34.6690 H   0  0  0  0  0  0  0  0  0  0  0  0
   -2.5007   22.1800  -32.5363 H   0  0  0  0  0  0  0  0  0  0  0  0
   -2.8657   23.7605  -31.7527 H   0  0  0  0  0  0  0  0  0  0  0  0
   -2.0978   21.3313  -30.0942 H   0  0  0  0  0  0  0  0  0  0  0  0
   -0.8451   22.3978  -30.8951 H   0  0  0  0  0  0  0  0  0  0  0  0
    0.2496   23.5008  -29.3379 H   0  0  0  0  0  0  0  0  0  0  0  0
    0.3434   25.1097  -27.4481 H   0  0  0  0  0  0  0  0  0  0  0  0
   -1.7475   25.8005  -26.2905 H   0  0  0  0  0  0  0  0  0  0  0  0
   -3.9382   24.8841  -27.0153 H   0  0  0  0  0  0  0  0  0  0  0  0
   -5.0788   23.0215  -28.0962 H   0  0  0  0  0  0  0  0  0  0  0  0
   -4.9247   24.0085  -29.6353 H   0  0  0  0  0  0  0  0  0  0  0  0
   -3.8058   21.2128  -29.4531 H   0  0  0  0  0  0  0  0  0  0  0  0
   -5.5534   21.5287  -29.8353 H   0  0  0  0  0  0  0  0  0  0  0  0
  1  2  1  0
  2  3  2  0
  3  4  1  0
  4  5  2  0
  5  6  1  0
  6  7  1  0
  7  8  1  0
  8  9  2  0
  9 10  1  0
 10 11  2  0
 11 12  1  0
 12 13  2  0
 13 14  1  0
 14 15  2  0
  6 16  2  0
 16 17  1  0
 17 18  2  0
 17 19  1  0
 19 20  1  0
 20 21  1  0
 21 22  1  0
 22 23  2  0
 23 24  1  0
 24 25  2  0
 25 26  1  0
 26 27  2  0
 27 28  1  0
 28 29  1  0
 16  2  1  0
 29 19  1  0
 15  7  1  0
 27 22  1  0
 14  9  1  0
  1 30  1  0
  1 31  1  0
  1 32  1  0
  3 33  1  0
  4 34  1  0
  5 35  1  0
 10 36  1  0
 11 37  1  0
 12 38  1  0
 13 39  1  0
 15 40  1  0
 20 41  1  0
 20 42  1  0
 21 43  1  0
 21 44  1  0
 23 45  1  0
 24 46  1  0
 25 47  1  0
 26 48  1  0
 28 49  1  0
 28 50  1  0
 29 51  1  0
 29 52  1  0
M  CHG  1  15   1
M  END
>  <UniqueID>  (7) 
7

>  <SMILES>  (7) 
Cc1cccc(-n2nc3ccccc3[nH+]2)c1C(=O)N1CCc2ccccc2CC1

>  <Energy>  (7) 
123.08782377896134

>  <Genealogy>  (7) 
Cc1cccc(-n2nc3ccccc3[nH+]2)c1C(=O)N1CCc2ccccc2CC1 (protonated)
Cc1cccc(-n2nc3ccccc3[nH+]2)c1C(=O)N1CCc2ccccc2CC1 (3D coordinates assigned)
Cc1cccc(-n2nc3ccccc3[nH+]2)c1C(=O)N1CCc2ccccc2CC1 (nonaromatic ring conformer: 123.08782377896134 kcal/mol)

>  <smiles>  (7) 
Cc1cccc(-n2nc3ccccc3n2)c1C(=O)N1CCc2ccccc2CC1

>  <score_type>  (7) 
oracle

>  <origin>  (7) 
adg

>  <m_score__min__energy>  (7) 
-7.8200000000000003

>  <m_primary>  (7) 
energy

$$$$
7:0
     RDKit          3D

 56 58  0  0  0  0  0  0  0  0999 V2000
   -1.2600   17.1760  -33.1220 F   0  0  0  0  0  0  0  0  0  0  0  0
   -1.8100   17.6020  -34.3170 C   0  0  0  0  0  0  0  0  0  0  0  0
   -1.1700   18.7770  -34.6770 F   0  0  0  0  0  0  0  0  0  0  0  0
   -1.5730   16.6530  -35.2940 F   0  0  0  0  0  0  0  0  0  0  0  0
   -3.3030   17.8170  -34.1800 C   0  0  0  0  0  0  0  0  0  0  0  0
   -4.1880   16.8080  -34.6080 C   0  0  0  0  0  0  0  0  0  0  0  0
   -5.5700   16.9720  -34.4860 C   0  0  0  0  0  0  0  0  0  0  0  0
   -6.0890   18.1350  -33.9230 C   0  0  0  0  0  0  0  0  0  0  0  0
   -5.2300   19.1340  -33.4660 C   0  0  0  0  0  0  0  0  0  0  0  0
   -3.8390   18.9830  -33.5750 C   0  0  0  0  0  0  0  0  0  0  0  0
   -2.9920   20.0200  -33.0560 N   0  0  0  0  0  0  0  0  0  0  0  0
   -2.0760   19.7290  -31.9490 C   0  0  0  0  0  0  0  0  0  0  0  0
   -1.8330   20.9890  -31.1070 C   0  0  0  0  0  0  0  0  0  0  0  0
   -3.0940   21.7490  -30.9490 N   0  0  0  0  0  0  0  0  0  0  0  0
   -2.9050   22.8320  -29.9520 C   0  0  0  0  0  0  0  0  0  0  0  0
   -4.1750   23.6780  -29.7560 C   0  0  0  0  0  0  0  0  0  0  0  0
   -4.0580   24.8900  -30.4760 O   0  0  0  0  0  0  0  0  0  0  0  0
   -5.2890   25.5840  -30.4940 C   0  0  0  0  0  0  0  0  0  0  0  0
   -6.4470   24.5830  -30.5690 C   0  0  0  0  0  0  0  0  0  0  0  0
   -6.5140   23.8350  -31.9120 C   0  0  0  0  0  0  0  0  0  0  0  0
   -7.3970   22.6160  -31.8470 C   0  0  0  0  0  0  0  0  0  0  0  0
   -8.7940   22.7500  -31.9230 C   0  0  0  0  0  0  0  0  0  0  0  0
   -9.6130   21.6160  -31.8960 C   0  0  0  0  0  0  0  0  0  0  0  0
   -9.0450   20.3430  -31.7970 C   0  0  0  0  0  0  0  0  0  0  0  0
   -7.6560   20.2020  -31.7250 C   0  0  0  0  0  0  0  0  0  0  0  0
   -6.8330   21.3320  -31.7500 C   0  0  0  0  0  0  0  0  0  0  0  0
   -3.5770   22.2870  -32.2530 C   0  0  0  0  0  0  0  0  0  0  0  0
   -3.2030   21.4090  -33.4650 C   0  0  0  0  0  0  0  0  0  0  0  0
   -3.7865   15.8809  -35.0430 H   0  0  0  0  0  0  0  0  0  0  0  0
   -6.2496   16.1807  -34.8354 H   0  0  0  0  0  0  0  0  0  0  0  0
   -7.1779   18.2659  -33.8386 H   0  0  0  0  0  0  0  0  0  0  0  0
   -5.6460   20.0477  -33.0165 H   0  0  0  0  0  0  0  0  0  0  0  0
   -2.5149   18.9470  -31.3120 H   0  0  0  0  0  0  0  0  0  0  0  0
   -1.1158   19.3867  -32.3624 H   0  0  0  0  0  0  0  0  0  0  0  0
   -1.4582   20.6965  -30.1150 H   0  0  0  0  0  0  0  0  0  0  0  0
   -1.0926   21.6237  -31.6159 H   0  0  0  0  0  0  0  0  0  0  0  0
   -3.8170   21.0900  -30.5720 H   0  0  0  0  0  0  0  0  0  0  0  0
   -2.6294   22.3801  -28.9877 H   0  0  0  0  0  0  0  0  0  0  0  0
   -2.1134   23.4977  -30.3265 H   0  0  0  0  0  0  0  0  0  0  0  0
   -5.0475   23.1177  -30.1231 H   0  0  0  0  0  0  0  0  0  0  0  0
   -4.3018   23.9012  -28.6864 H   0  0  0  0  0  0  0  0  0  0  0  0
   -5.3836   26.1841  -29.5770 H   0  0  0  0  0  0  0  0  0  0  0  0
   -5.3215   26.2441  -31.3733 H   0  0  0  0  0  0  0  0  0  0  0  0
   -6.3239   23.8446  -29.7630 H   0  0  0  0  0  0  0  0  0  0  0  0
   -7.3811   25.1546  -30.4656 H   0  0  0  0  0  0  0  0  0  0  0  0
   -6.9107   24.5182  -32.6774 H   0  0  0  0  0  0  0  0  0  0  0  0
   -5.4963   23.4991  -32.1600 H   0  0  0  0  0  0  0  0  0  0  0  0
   -9.2450   23.7500  -32.0040 H   0  0  0  0  0  0  0  0  0  0  0  0
  -10.7059   21.7266  -31.9528 H   0  0  0  0  0  0  0  0  0  0  0  0
   -9.6904   19.4525  -31.7757 H   0  0  0  0  0  0  0  0  0  0  0  0
   -7.2095   19.1996  -31.6485 H   0  0  0  0  0  0  0  0  0  0  0  0
   -5.7406   21.2159  -31.6936 H   0  0  0  0  0  0  0  0  0  0  0  0
   -4.6730   22.3697  -32.2096 H   0  0  0  0  0  0  0  0  0  0  0  0
   -3.0871   23.2609  -32.3993 H   0  0  0  0  0  0  0  0  0  0  0  0
   -4.0176   21.4476  -34.2032 H   0  0  0  0  0  0  0  0  0  0  0  0
   -2.2700   21.7927  -33.9034 H   0  0  0  0  0  0  0  0  0  0  0  0
  1  2  1  0
  2  3  1  0
  2  4  1  0
  2  5  1  0
  5  6  2  0
  6  7  1  0
  7  8  2  0
  8  9  1  0
  9 10  2  0
 10 11  1  0
 11 12  1  0
 12 13  1  0
 13 14  1  0
 14 15  1  0
 15 16  1  0
 16 17  1  0
 17 18  1  0
 18 19  1  0
 19 20  1  0
 20 21  1  0
 21 22  2  0
 22 23  1  0
 23 24  2  0
 24 25  1  0
 25 26  2  0
 14 27  1  0
 27 28  1  0
 10  5  1  0
 28 11  1  0
 26 21  1  0
  6 29  1  0
  7 30  1  0
  8 31  1  0
  9 32  1  0
 12 33  1  0
 12 34  1  0
 13 35  1  0
 13 36  1  0
 14 37  1  0
 15 38  1  0
 15 39  1  0
 16 40  1  0
 16 41  1  0
 18 42  1  0
 18 43  1  0
 19 44  1  0
 19 45  1  0
 20 46  1  0
 20 47  1  0
 22 48  1  0
 23 49  1  0
 24 50  1  0
 25 51  1  0
 26 52  1  0
 27 53  1  0
 27 54  1  0
 28 55  1  0
 28 56  1  0
M  CHG  1  14   1
M  END
>  <UniqueID>  (8) 
8

>  <SMILES>  (8) 
FC(F)(F)c1ccccc1N1CC[NH+](CCOCCCc2ccccc2)CC1

>  <Energy>  (8) 
68.50876813455653

>  <Genealogy>  (8) 
FC(F)(F)c1ccccc1N1CC[NH+](CCOCCCc2ccccc2)CC1 (protonated)
FC(F)(F)c1ccccc1N1CC[NH+](CCOCCCc2ccccc2)CC1 (3D coordinates assigned)
FC(F)(F)c1ccccc1N1CC[NH+](CCOCCCc2ccccc2)CC1 (nonaromatic ring conformer: 68.50876813455653 kcal/mol)

>  <smiles>  (8) 
FC(F)(F)c1ccccc1N1CCN(CCOCCCc2ccccc2)CC1

>  <score_type>  (8) 
oracle

>  <origin>  (8) 
adg

>  <m_score__min__energy>  (8) 
-7.1600000000000001

>  <m_primary>  (8) 
energy

$$$$
8:0
     RDKit          3D

 38 39  0  0  0  0  0  0  0  0999 V2000
   -6.2580   26.0050  -29.3370 C   0  0  0  0  0  0  0  0  0  0  0  0
   -5.6510   24.5650  -30.1850 S   0  0  0  0  0  0  0  0  0  0  0  0
   -5.0360   23.6280  -29.1830 O   0  0  0  0  0  0  0  0  0  0  0  0
   -4.6100   24.9830  -31.1860 O   0  0  0  0  0  0  0  0  0  0  0  0
   -6.9740   23.7810  -30.9920 N   0  0  0  0  0  0  0  0  0  0  0  0
   -7.3120   22.5400  -30.2920 C   0  0  0  0  0  0  0  0  0  0  0  0
   -7.8960   21.5440  -31.2640 C   0  0  0  0  0  0  0  0  0  0  0  0
   -9.2900   21.4080  -31.3560 C   0  0  0  0  0  0  0  0  0  0  0  0
   -9.8520   20.5030  -32.2580 C   0  0  0  0  0  0  0  0  0  0  0  0
   -9.0140   19.7450  -33.0740 C   0  0  0  0  0  0  0  0  0  0  0  0
   -7.6670   19.8970  -32.9950 N   0  0  0  0  0  0  0  0  0  0  0  0
   -7.0880   20.7730  -32.1280 C   0  0  0  0  0  0  0  0  0  0  0  0
   -5.3370   20.9060  -32.1270 S   0  0  0  0  0  0  0  0  0  0  0  0
   -4.8620   22.5180  -32.1420 O   0  0  0  0  0  0  0  0  0  0  0  0
   -4.6070   19.9890  -33.4660 C   0  0  0  0  0  0  0  0  0  0  0  0
   -5.1370   18.5820  -33.4670 C   0  0  0  0  0  0  0  0  0  0  0  0
   -4.8710   17.7340  -32.3790 C   0  0  0  0  0  0  0  0  0  0  0  0
   -5.3260   16.4130  -32.3870 C   0  0  0  0  0  0  0  0  0  0  0  0
   -6.0410   15.9230  -33.4840 C   0  0  0  0  0  0  0  0  0  0  0  0
   -6.4790   14.6410  -33.4920 F   0  0  0  0  0  0  0  0  0  0  0  0
   -6.2980   16.7570  -34.5770 C   0  0  0  0  0  0  0  0  0  0  0  0
   -5.8460   18.0800  -34.5750 C   0  0  0  0  0  0  0  0  0  0  0  0
   -6.0970   18.8690  -35.6510 F   0  0  0  0  0  0  0  0  0  0  0  0
   -6.1910   25.8462  -28.2506 H   0  0  0  0  0  0  0  0  0  0  0  0
   -5.6516   26.8787  -29.6179 H   0  0  0  0  0  0  0  0  0  0  0  0
   -7.3069   26.1810  -29.6179 H   0  0  0  0  0  0  0  0  0  0  0  0
   -6.6370   23.5350  -31.9510 H   0  0  0  0  0  0  0  0  0  0  0  0
   -6.4029   22.1176  -29.8392 H   0  0  0  0  0  0  0  0  0  0  0  0
   -8.0521   22.7569  -29.5077 H   0  0  0  0  0  0  0  0  0  0  0  0
   -9.9429   22.0177  -30.7141 H   0  0  0  0  0  0  0  0  0  0  0  0
  -10.9441   20.3893  -32.3241 H   0  0  0  0  0  0  0  0  0  0  0  0
   -9.4445   19.0226  -33.7831 H   0  0  0  0  0  0  0  0  0  0  0  0
   -5.0230   22.8310  -31.2170 H   0  0  0  0  0  0  0  0  0  0  0  0
   -4.8577   20.4745  -34.4207 H   0  0  0  0  0  0  0  0  0  0  0  0
   -3.5147   19.9660  -33.3380 H   0  0  0  0  0  0  0  0  0  0  0  0
   -4.3019   18.1118  -31.5168 H   0  0  0  0  0  0  0  0  0  0  0  0
   -5.1212   15.7569  -31.5282 H   0  0  0  0  0  0  0  0  0  0  0  0
   -6.8578   16.3705  -35.4414 H   0  0  0  0  0  0  0  0  0  0  0  0
  1  2  1  0
  2  3  2  0
  2  4  2  0
  2  5  1  0
  5  6  1  0
  6  7  1  0
  7  8  2  0
  8  9  1  0
  9 10  2  0
 10 11  1  0
 11 12  2  0
 12 13  1  0
 13 14  1  6
 13 15  1  0
 15 16  1  0
 16 17  2  0
 17 18  1  0
 18 19  2  0
 19 20  1  0
 19 21  1  0
 21 22  2  0
 22 23  1  0
 12  7  1  0
 22 16  1  0
  1 24  1  0
  1 25  1  0
  1 26  1  0
  5 27  1  0
  6 28  1  0
  6 29  1  0
  8 30  1  0
  9 31  1  0
 10 32  1  0
 14 33  1  0
 15 34  1  0
 15 35  1  0
 17 36  1  0
 18 37  1  0
 21 38  1  0
M  CHG  1  13   1
M  END
>  <UniqueID>  (9) 
9

>  <SMILES>  (9) 
CS(=O)(=O)NCc1cccnc1[S@+](O)Cc1ccc(F)cc1F

>  <Energy>  (9) 
27.61910133883247

>  <Genealogy>  (9) 
CS(=O)(=O)NCc1cccnc1[S+](O)Cc1ccc(F)cc1F (protonated)
CS(=O)(=O)NCc1cccnc1[S@+](O)Cc1ccc(F)cc1F (chirality)
CS(=O)(=O)NCc1cccnc1[S@+](O)Cc1ccc(F)cc1F (3D coordinates assigned)
CS(=O)(=O)NCc1cccnc1[S@+](O)Cc1ccc(F)cc1F (optimized conformer: 27.61910133883247 kcal/mol)

>  <smiles>  (9) 
CS(=O)(=O)NCc1cccnc1[S+]([O-])Cc1ccc(F)cc1F

>  <score_type>  (9) 
oracle

>  <origin>  (9) 
adg

>  <m_score__min__energy>  (9) 
-7.8099999999999996

>  <m_primary>  (9) 
energy

$$$$
9:0
     RDKit          3D

 39 41  0  0  1  0  0  0  0  0999 V2000
   -1.6570   25.2260  -28.1320 C   0  0  0  0  0  0  0  0  0  0  0  0
   -2.4140   25.2960  -29.3020 O   0  0  0  0  0  0  0  0  0  0  0  0
   -3.1750   24.2660  -29.8370 C   0  0  0  0  0  0  0  0  0  0  0  0
   -2.6610   23.0230  -30.1420 C   0  0  0  0  0  0  0  0  0  0  0  0
   -3.4330   22.0010  -30.6770 C   0  0  0  0  0  0  0  0  0  0  0  0
   -4.7620   22.2820  -30.8960 C   0  0  0  0  0  0  0  0  0  0  0  0
   -5.3120   23.5050  -30.6050 C   0  0  0  0  0  0  0  0  0  0  0  0
   -6.7770   23.7420  -30.8710 C   0  0  0  0  0  0  0  0  0  0  0  0
   -7.4370   22.5420  -30.3950 N   0  0  0  0  0  0  0  0  0  0  0  0
   -7.9290   21.6880  -31.2210 C   0  0  0  0  0  0  0  0  0  0  0  0
   -7.1400   20.6940  -31.8100 C   0  0  0  0  0  0  0  0  0  0  0  0
   -7.6920   19.7850  -32.6960 C   0  0  0  0  0  0  0  0  0  0  0  0
   -6.8720   18.7510  -33.3100 C   0  0  0  0  0  0  0  0  0  0  0  0
   -5.8820   19.0250  -34.2320 C   0  0  0  0  0  0  0  0  0  0  0  0
   -5.1050   18.0240  -34.8110 C   0  0  0  0  0  0  0  0  0  0  0  0
   -5.2980   16.7010  -34.4820 C   0  0  0  0  0  0  0  0  0  0  0  0
   -6.2840   16.4070  -33.5650 C   0  0  0  0  0  0  0  0  0  0  0  0
   -7.0600   17.4200  -32.9880 C   0  0  0  0  0  0  0  0  0  0  0  0
   -9.0100   19.9290  -32.9400 N   0  0  0  0  0  0  0  0  0  0  0  0
   -9.7540   20.9020  -32.3550 C   0  0  0  0  0  0  0  0  0  0  0  0
   -9.2400   21.7870  -31.4980 N   0  0  0  0  0  0  0  0  0  0  0  0
   -4.5090   24.5020  -30.0720 C   0  0  0  0  0  0  0  0  0  0  0  0
   -2.3240   25.2877  -27.2595 H   0  0  0  0  0  0  0  0  0  0  0  0
   -1.1078   24.2732  -28.1071 H   0  0  0  0  0  0  0  0  0  0  0  0
   -0.9424   26.0619  -28.1071 H   0  0  0  0  0  0  0  0  0  0  0  0
   -1.5940   22.8335  -29.9533 H   0  0  0  0  0  0  0  0  0  0  0  0
   -3.0040   21.0162  -30.9139 H   0  0  0  0  0  0  0  0  0  0  0  0
   -5.4068   21.4980  -31.3196 H   0  0  0  0  0  0  0  0  0  0  0  0
   -7.1333   24.6250  -30.3202 H   0  0  0  0  0  0  0  0  0  0  0  0
   -6.9807   23.9347  -31.9347 H   0  0  0  0  0  0  0  0  0  0  0  0
   -6.0690   20.6342  -31.5663 H   0  0  0  0  0  0  0  0  0  0  0  0
   -5.7001   20.0710  -34.5199 H   0  0  0  0  0  0  0  0  0  0  0  0
   -4.3272   18.2941  -35.5405 H   0  0  0  0  0  0  0  0  0  0  0  0
   -4.6867   15.9066  -34.9351 H   0  0  0  0  0  0  0  0  0  0  0  0
   -6.4644   15.3595  -33.2817 H   0  0  0  0  0  0  0  0  0  0  0  0
   -7.8390   17.1496  -32.2600 H   0  0  0  0  0  0  0  0  0  0  0  0
   -9.5080   19.3020  -33.5850 H   0  0  0  0  0  0  0  0  0  0  0  0
  -10.8252   20.9638  -32.5973 H   0  0  0  0  0  0  0  0  0  0  0  0
   -4.9410   25.4857  -29.8362 H   0  0  0  0  0  0  0  0  0  0  0  0
  1  2  1  0
  2  3  1  0
  3  4  2  0
  4  5  1  0
  5  6  2  0
  6  7  1  0
  7  8  1  0
  8  9  1  0
  9 10  2  0
 10 11  1  0
 11 12  2  0
 12 13  1  0
 13 14  2  0
 14 15  1  0
 15 16  2  0
 16 17  1  0
 17 18  2  0
 12 19  1  0
 19 20  1  0
 20 21  2  0
  7 22  2  0
 22  3  1  0
 21 10  1  0
 18 13  1  0
  1 23  1  0
  1 24  1  0
  1 25  1  0
  4 26  1  0
  5 27  1  0
  6 28  1  0
  8 29  1  0
  8 30  1  0
 11 31  1  0
 14 32  1  0
 15 33  1  0
 16 34  1  0
 17 35  1  0
 18 36  1  0
 19 37  1  0
 20 38  1  0
 22 39  1  0
M  END
>  <smiles>  (10) 
COc1cccc(CN=c2cc(-c3ccccc3)[nH]cn2)c1

>  <score_type>  (10) 
oracle

>  <origin>  (10) 
adg

>  <m_score__min__energy>  (10) 
-8.4700000000000006

>  <m_primary>  (10) 
energy

$$$$
10:0
     RDKit          3D

 54 57  0  0  0  0  0  0  0  0999 V2000
   -4.1550   23.2980  -31.4130 O   0  0  0  0  0  0  0  0  0  0  0  0
   -4.8530   22.5520  -32.1500 C   0  0  0  0  0  0  0  0  0  0  0  0
   -4.2120   21.9300  -33.3660 C   0  0  0  0  0  0  0  0  0  0  0  0
   -3.1480   20.9570  -33.0240 N   0  0  0  0  0  0  0  0  0  0  0  0
   -1.8190   21.4420  -33.4390 C   0  0  0  0  0  0  0  0  0  0  0  0
   -0.7920   20.3030  -33.2840 C   0  0  0  0  0  0  0  0  0  0  0  0
   -1.0140   19.4610  -32.0690 N   0  0  0  0  0  0  0  0  0  0  0  0
   -1.6520   18.1490  -32.3780 C   0  0  0  0  0  0  0  0  0  0  0  0
   -2.2110   18.0690  -33.8150 C   0  0  0  0  0  0  0  0  0  0  0  0
   -3.6390   17.5900  -33.8560 C   0  0  0  0  0  0  0  0  0  0  0  0
   -4.0100   16.3990  -33.2040 C   0  0  0  0  0  0  0  0  0  0  0  0
   -5.3310   15.9400  -33.2720 C   0  0  0  0  0  0  0  0  0  0  0  0
   -6.2880   16.6630  -33.9940 C   0  0  0  0  0  0  0  0  0  0  0  0
   -5.9260   17.8450  -34.6500 C   0  0  0  0  0  0  0  0  0  0  0  0
   -4.6060   18.3060  -34.5860 C   0  0  0  0  0  0  0  0  0  0  0  0
   -1.7840   20.1940  -31.0380 C   0  0  0  0  0  0  0  0  0  0  0  0
   -3.1590   20.6730  -31.5670 C   0  0  0  0  0  0  0  0  0  0  0  0
   -6.2410   22.3640  -31.8350 N   0  0  0  0  0  0  0  0  0  0  0  0
   -7.2550   23.4150  -31.9340 C   0  0  0  0  0  0  0  0  0  0  0  0
   -8.6260   22.6900  -31.9430 C   0  0  0  0  0  0  0  0  0  0  0  0
   -8.2560   21.2490  -31.8800 C   0  0  0  0  0  0  0  0  0  0  0  0
   -9.1020   20.1410  -31.8720 C   0  0  0  0  0  0  0  0  0  0  0  0
   -8.5280   18.8590  -31.8160 C   0  0  0  0  0  0  0  0  0  0  0  0
   -7.1290   18.7120  -31.7630 C   0  0  0  0  0  0  0  0  0  0  0  0
   -6.2970   19.8460  -31.7700 C   0  0  0  0  0  0  0  0  0  0  0  0
   -6.8970   21.1080  -31.8380 C   0  0  0  0  0  0  0  0  0  0  0  0
   -4.9895   21.4105  -33.9454 H   0  0  0  0  0  0  0  0  0  0  0  0
   -3.7440   22.7410  -33.9432 H   0  0  0  0  0  0  0  0  0  0  0  0
   -1.8564   21.7629  -34.4905 H   0  0  0  0  0  0  0  0  0  0  0  0
   -1.5235   22.2940  -32.8091 H   0  0  0  0  0  0  0  0  0  0  0  0
   -0.8528   19.6562  -34.1717 H   0  0  0  0  0  0  0  0  0  0  0  0
    0.1972   20.7718  -33.1763 H   0  0  0  0  0  0  0  0  0  0  0  0
   -0.0760   19.2740  -31.6400 H   0  0  0  0  0  0  0  0  0  0  0  0
   -0.9005   17.3559  -32.2504 H   0  0  0  0  0  0  0  0  0  0  0  0
   -2.5011   18.0277  -31.6893 H   0  0  0  0  0  0  0  0  0  0  0  0
   -2.1622   19.0701  -34.2681 H   0  0  0  0  0  0  0  0  0  0  0  0
   -1.5999   17.3419  -34.3699 H   0  0  0  0  0  0  0  0  0  0  0  0
   -3.2594   15.8268  -32.6390 H   0  0  0  0  0  0  0  0  0  0  0  0
   -5.6171   15.0106  -32.7578 H   0  0  0  0  0  0  0  0  0  0  0  0
   -7.3257   16.3016  -34.0457 H   0  0  0  0  0  0  0  0  0  0  0  0
   -6.6794   18.4122  -35.2163 H   0  0  0  0  0  0  0  0  0  0  0  0
   -4.3232   19.2318  -35.1084 H   0  0  0  0  0  0  0  0  0  0  0  0
   -1.9475   19.5284  -30.1776 H   0  0  0  0  0  0  0  0  0  0  0  0
   -1.2036   21.0832  -30.7507 H   0  0  0  0  0  0  0  0  0  0  0  0
   -3.9047   19.8894  -31.3674 H   0  0  0  0  0  0  0  0  0  0  0  0
   -3.4044   21.6116  -31.0486 H   0  0  0  0  0  0  0  0  0  0  0  0
   -7.1874   24.0933  -31.0707 H   0  0  0  0  0  0  0  0  0  0  0  0
   -7.1161   24.0235  -32.8398 H   0  0  0  0  0  0  0  0  0  0  0  0
   -9.2299   22.9796  -31.0704 H   0  0  0  0  0  0  0  0  0  0  0  0
   -9.2367   22.9380  -32.8237 H   0  0  0  0  0  0  0  0  0  0  0  0
  -10.1941   20.2671  -31.9087 H   0  0  0  0  0  0  0  0  0  0  0  0
   -9.1737   17.9684  -31.8136 H   0  0  0  0  0  0  0  0  0  0  0  0
   -6.6849   17.7067  -31.7159 H   0  0  0  0  0  0  0  0  0  0  0  0
   -5.2028   19.7433  -31.7232 H   0  0  0  0  0  0  0  0  0  0  0  0
  1  2  2  0
  2  3  1  0
  3  4  1  0
  4  5  1  0
  5  6  1  0
  6  7  1  0
  7  8  1  0
  8  9  1  0
  9 10  1  0
 10 11  2  0
 11 12  1  0
 12 13  2  0
 13 14  1  0
 14 15  2  0
  7 16  1  0
 16 17  1  0
  2 18  1  0
 18 19  1  0
 19 20  1  0
 20 21  1  0
 21 22  2  0
 22 23  1  0
 23 24  2  0
 24 25  1  0
 25 26  2  0
 17  4  1  0
 26 18  1  0
 15 10  1  0
 26 21  1  0
  3 27  1  0
  3 28  1  0
  5 29  1  0
  5 30  1  0
  6 31  1  0
  6 32  1  0
  7 33  1  0
  8 34  1  0
  8 35  1  0
  9 36  1  0
  9 37  1  0
 11 38  1  0
 12 39  1  0
 13 40  1  0
 14 41  1  0
 15 42  1  0
 16 43  1  0
 16 44  1  0
 17 45  1  0
 17 46  1  0
 19 47  1  0
 19 48  1  0
 20 49  1  0
 20 50  1  0
 22 51  1  0
 23 52  1  0
 24 53  1  0
 25 54  1  0
M  CHG  1   7   1
M  END
>  <UniqueID>  (11) 
10

>  <SMILES>  (11) 
O=C(CN1CC[NH+](CCc2ccccc2)CC1)N1CCc2ccccc21

>  <Energy>  (11) 
87.20776926153697

>  <Genealogy>  (11) 
O=C(CN1CC[NH+](CCc2ccccc2)CC1)N1CCc2ccccc21 (protonated)
O=C(CN1CC[NH+](CCc2ccccc2)CC1)N1CCc2ccccc21 (3D coordinates assigned)
O=C(CN1CC[NH+](CCc2ccccc2)CC1)N1CCc2ccccc21 (nonaromatic ring conformer: 87.20776926153697 kcal/mol)

>  <smiles>  (11) 
O=C(CN1CCN(CCc2ccccc2)CC1)N1CCc2ccccc21

>  <score_type>  (11) 
oracle

>  <origin>  (11) 
adg

>  <m_score__min__energy>  (11) 
-8.5500000000000007

>  <m_primary>  (11) 
energy

$$$$
11:0
     RDKit          3D

 36 39  0  0  0  0  0  0  0  0999 V2000
   -2.0170   24.9350  -28.8660 C   0  0  0  0  0  0  0  0  0  0  0  0
   -3.1000   25.2980  -29.7170 O   0  0  0  0  0  0  0  0  0  0  0  0
   -4.1810   24.4600  -30.0260 C   0  0  0  0  0  0  0  0  0  0  0  0
   -5.4760   24.9730  -29.8940 C   0  0  0  0  0  0  0  0  0  0  0  0
   -6.5870   24.1800  -30.1870 C   0  0  0  0  0  0  0  0  0  0  0  0
   -6.4180   22.8580  -30.6270 C   0  0  0  0  0  0  0  0  0  0  0  0
   -5.1250   22.3330  -30.7640 C   0  0  0  0  0  0  0  0  0  0  0  0
   -4.0090   23.1320  -30.4580 C   0  0  0  0  0  0  0  0  0  0  0  0
   -4.9620   20.9250  -31.1790 C   0  0  0  0  0  0  0  0  0  0  0  0
   -3.9140   20.3100  -30.8470 O   0  0  0  0  0  0  0  0  0  0  0  0
   -6.0850   20.2210  -31.8730 C   0  0  0  0  0  0  0  0  0  0  0  0
   -7.3990   20.7440  -31.7100 C   0  0  0  0  0  0  0  0  0  0  0  0
   -8.5040   20.0580  -32.2770 C   0  0  0  0  0  0  0  0  0  0  0  0
   -9.8300   20.6060  -32.2730 N   0  0  0  0  0  0  0  0  0  0  0  0
   -8.3070   18.8300  -32.9120 C   0  0  0  0  0  0  0  0  0  0  0  0
   -7.0240   18.3230  -33.1160 C   0  0  0  0  0  0  0  0  0  0  0  0
   -6.8640   17.1230  -33.8290 C   0  0  0  0  0  0  0  0  0  0  0  0
   -5.5890   16.6420  -34.1230 C   0  0  0  0  0  0  0  0  0  0  0  0
   -4.4670   17.3660  -33.7300 C   0  0  0  0  0  0  0  0  0  0  0  0
   -4.6100   18.5560  -33.0120 C   0  0  0  0  0  0  0  0  0  0  0  0
   -5.8910   19.0370  -32.6480 C   0  0  0  0  0  0  0  0  0  0  0  0
   -7.5800   21.9930  -30.9100 C   0  0  0  0  0  0  0  0  0  0  0  0
   -8.7010   22.2890  -30.4140 O   0  0  0  0  0  0  0  0  0  0  0  0
   -2.3257   25.0385  -27.8153 H   0  0  0  0  0  0  0  0  0  0  0  0
   -1.7299   23.8915  -29.0628 H   0  0  0  0  0  0  0  0  0  0  0  0
   -1.1590   25.5947  -29.0628 H   0  0  0  0  0  0  0  0  0  0  0  0
   -5.6200   26.0100  -29.5565 H   0  0  0  0  0  0  0  0  0  0  0  0
   -7.5999   24.5934  -30.0724 H   0  0  0  0  0  0  0  0  0  0  0  0
   -2.9954   22.7163  -30.5570 H   0  0  0  0  0  0  0  0  0  0  0  0
  -10.0480   21.5050  -31.7940 H   0  0  0  0  0  0  0  0  0  0  0  0
  -10.5550   20.2380  -32.9290 H   0  0  0  0  0  0  0  0  0  0  0  0
   -9.1779   18.2533  -33.2569 H   0  0  0  0  0  0  0  0  0  0  0  0
   -7.7500   16.5597  -34.1572 H   0  0  0  0  0  0  0  0  0  0  0  0
   -5.4698   15.6920  -34.6646 H   0  0  0  0  0  0  0  0  0  0  0  0
   -3.4621   16.9992  -33.9862 H   0  0  0  0  0  0  0  0  0  0  0  0
   -3.7147   19.1273  -32.7254 H   0  0  0  0  0  0  0  0  0  0  0  0
  1  2  1  0
  2  3  1  0
  3  4  2  0
  4  5  1  0
  5  6  2  0
  6  7  1  0
  7  8  2  0
  7  9  1  0
  9 10  2  0
  9 11  1  0
 11 12  2  0
 12 13  1  0
 13 14  1  0
 13 15  2  0
 15 16  1  0
 16 17  2  0
 17 18  1  0
 18 19  2  0
 19 20  1  0
 20 21  2  0
 12 22  1  0
 22 23  2  0
  8  3  1  0
 21 11  1  0
 22  6  1  0
 21 16  1  0
  1 24  1  0
  1 25  1  0
  1 26  1  0
  4 27  1  0
  5 28  1  0
  8 29  1  0
 14 30  1  0
 14 31  1  0
 15 32  1  0
 17 33  1  0
 18 34  1  0
 19 35  1  0
 20 36  1  0
M  END
>  <UniqueID>  (12) 
11

>  <SMILES>  (12) 
COc1ccc2c(c1)C(=O)c1c(c(N)cc3ccccc13)C2=O

>  <Energy>  (12) 
62.9199245305865

>  <Genealogy>  (12) 
COc1ccc2c(c1)C(=O)c1c(c(N)cc3ccccc13)C2=O (3D coordinates assigned)
COc1ccc2c(c1)C(=O)c1c(c(N)cc3ccccc13)C2=O (nonaromatic ring conformer: 62.9199245305865 kcal/mol)

>  <smiles>  (12) 
COc1ccc2c(c1)C(=O)c1c(c(N)cc3ccccc13)C2=O

>  <score_type>  (12) 
oracle

>  <origin>  (12) 
adg

>  <m_score__min__energy>  (12) 
-8.5199999999999996

>  <m_primary>  (12) 
energy

$$$$
12:0
     RDKit          3D

 45 48  0  0  0  0  0  0  0  0999 V2000
   -0.7690   21.8510  -25.8620 O   0  0  0  0  0  0  0  0  0  0  0  0
   -1.3090   22.0170  -26.9900 C   0  0  0  0  0  0  0  0  0  0  0  0
   -0.7490   21.3560  -28.1380 N   0  0  0  0  0  0  0  0  0  0  0  0
   -0.0800   20.0840  -28.0630 C   0  0  0  0  0  0  0  0  0  0  0  0
    1.2710   19.9440  -28.4340 C   0  0  0  0  0  0  0  0  0  0  0  0
    1.9050   18.7020  -28.3330 C   0  0  0  0  0  0  0  0  0  0  0  0
    1.2020   17.5920  -27.8520 C   0  0  0  0  0  0  0  0  0  0  0  0
    2.0720   15.8970  -27.7150 Br  0  0  0  0  0  0  0  0  0  0  0  0
   -0.1330   17.7280  -27.4640 C   0  0  0  0  0  0  0  0  0  0  0  0
   -0.7700   18.9680  -27.5630 C   0  0  0  0  0  0  0  0  0  0  0  0
   -2.4980   22.9610  -27.0930 C   0  0  0  0  0  0  0  0  0  0  0  0
   -2.2420   24.2480  -27.9000 C   0  0  0  0  0  0  0  0  0  0  0  0
   -2.1140   23.9750  -29.4090 C   0  0  0  0  0  0  0  0  0  0  0  0
   -3.2350   23.1840  -29.9610 N   0  0  0  0  0  0  0  0  0  0  0  0
   -4.6610   24.1450  -30.3000 S   0  0  0  0  0  0  0  0  0  0  0  0
   -4.3110   25.3020  -31.1950 O   0  0  0  0  0  0  0  0  0  0  0  0
   -5.2310   24.6780  -29.0150 O   0  0  0  0  0  0  0  0  0  0  0  0
   -5.8930   23.1380  -31.0690 C   0  0  0  0  0  0  0  0  0  0  0  0
   -7.2540   23.4040  -30.8330 C   0  0  0  0  0  0  0  0  0  0  0  0
   -8.2550   22.6250  -31.4330 C   0  0  0  0  0  0  0  0  0  0  0  0
   -7.9180   21.5720  -32.2910 C   0  0  0  0  0  0  0  0  0  0  0  0
   -6.5750   21.3050  -32.5500 C   0  0  0  0  0  0  0  0  0  0  0  0
   -6.1740   20.3130  -33.3810 N   0  0  0  0  0  0  0  0  0  0  0  0
   -4.5330   20.5010  -33.2920 S   0  0  0  0  0  0  0  0  0  0  0  0
   -4.2730   21.7680  -32.2620 N   0  0  0  0  0  0  0  0  0  0  0  0
   -5.5530   22.0910  -31.9410 C   0  0  0  0  0  0  0  0  0  0  0  0
   -3.5320   21.9640  -29.1850 C   0  0  0  0  0  0  0  0  0  0  0  0
   -3.7210   22.2400  -27.6850 C   0  0  0  0  0  0  0  0  0  0  0  0
   -0.7190   21.8640  -29.0470 H   0  0  0  0  0  0  0  0  0  0  0  0
    1.8301   20.8156  -28.8049 H   0  0  0  0  0  0  0  0  0  0  0  0
    2.9583   18.5973  -28.6322 H   0  0  0  0  0  0  0  0  0  0  0  0
   -0.6842   16.8571  -27.0797 H   0  0  0  0  0  0  0  0  0  0  0  0
   -1.8187   19.0704  -27.2472 H   0  0  0  0  0  0  0  0  0  0  0  0
   -2.6861   23.2740  -26.0554 H   0  0  0  0  0  0  0  0  0  0  0  0
   -3.0801   24.9412  -27.7357 H   0  0  0  0  0  0  0  0  0  0  0  0
   -1.2908   24.6788  -27.5539 H   0  0  0  0  0  0  0  0  0  0  0  0
   -2.0758   24.9400  -29.9357 H   0  0  0  0  0  0  0  0  0  0  0  0
   -1.1976   23.3844  -29.5551 H   0  0  0  0  0  0  0  0  0  0  0  0
   -7.5374   24.2340  -30.1691 H   0  0  0  0  0  0  0  0  0  0  0  0
   -9.3132   22.8437  -31.2273 H   0  0  0  0  0  0  0  0  0  0  0  0
   -8.7055   20.9611  -32.7564 H   0  0  0  0  0  0  0  0  0  0  0  0
   -4.4557   21.5142  -29.5781 H   0  0  0  0  0  0  0  0  0  0  0  0
   -2.6704   21.2882  -29.2901 H   0  0  0  0  0  0  0  0  0  0  0  0
   -4.6114   22.8707  -27.5457 H   0  0  0  0  0  0  0  0  0  0  0  0
   -3.8422   21.2774  -27.1666 H   0  0  0  0  0  0  0  0  0  0  0  0
  1  2  2  0
  2  3  1  0
  3  4  1  0
  4  5  2  0
  5  6  1  0
  6  7  2  0
  7  8  1  0
  7  9  1  0
  9 10  2  0
  2 11  1  0
 11 12  1  0
 12 13  1  0
 13 14  1  0
 14 15  1  0
 15 16  2  0
 15 17  2  0
 15 18  1  0
 18 19  2  0
 19 20  1  0
 20 21  2  0
 21 22  1  0
 22 23  2  0
 23 24  1  0
 24 25  1  0
 25 26  2  0
 14 27  1  0
 27 28  1  0
 10  4  1  0
 28 11  1  0
 26 18  1  0
 26 22  1  0
  3 29  1  0
  5 30  1  0
  6 31  1  0
  9 32  1  0
 10 33  1  0
 11 34  1  0
 12 35  1  0
 12 36  1  0
 13 37  1  0
 13 38  1  0
 19 39  1  0
 20 40  1  0
 21 41  1  0
 27 42  1  0
 27 43  1  0
 28 44  1  0
 28 45  1  0
M  END
>  <UniqueID>  (13) 
12

>  <SMILES>  (13) 
O=C(Nc1ccc(Br)cc1)C1CCN(S(=O)(=O)c2cccc3nsnc23)CC1

>  <Energy>  (13) 
94.9263744488775

>  <Genealogy>  (13) 
O=C(Nc1ccc(Br)cc1)C1CCN(S(=O)(=O)c2cccc3nsnc23)CC1 (3D coordinates assigned)
O=C(Nc1ccc(Br)cc1)C1CCN(S(=O)(=O)c2cccc3nsnc23)CC1 (nonaromatic ring conformer: 94.9263744488775 kcal/mol)

>  <smiles>  (13) 
O=C(Nc1ccc(Br)cc1)C1CCN(S(=O)(=O)c2cccc3nsnc23)CC1

>  <score_type>  (13) 
oracle

>  <origin>  (13) 
adg

>  <m_score__min__energy>  (13) 
-10.57

>  <m_primary>  (13) 
energy

$$$$
13:0
     RDKit          3D

 35 36  0  0  0  0  0  0  0  0999 V2000
   -6.1240   25.7280  -29.3440 C   0  0  0  0  0  0  0  0  0  0  0  0
   -5.2890   24.7450  -30.0270 N   0  0  0  0  0  0  0  0  0  0  0  0
   -3.9990   24.9310  -30.2590 N   0  0  0  0  0  0  0  0  0  0  0  0
   -3.5170   23.8130  -30.8330 C   0  0  0  0  0  0  0  0  0  0  0  0
   -4.5350   22.8860  -30.9710 C   0  0  0  0  0  0  0  0  0  0  0  0
   -4.3770   21.5230  -31.5170 C   0  0  0  0  0  0  0  0  0  0  0  0
   -3.8520   20.6360  -30.7910 O   0  0  0  0  0  0  0  0  0  0  0  0
   -4.7650   21.2070  -32.8620 N   0  0  0  0  0  0  0  0  0  0  0  0
   -4.6840   19.8520  -33.3980 C   0  0  0  0  0  0  0  0  0  0  0  0
   -5.9290   19.0900  -33.0590 C   0  0  0  0  0  0  0  0  0  0  0  0
   -6.0110   17.6900  -33.1250 C   0  0  0  0  0  0  0  0  0  0  0  0
   -7.2420   17.1880  -32.7300 C   0  0  0  0  0  0  0  0  0  0  0  0
   -8.2180   18.4840  -32.2920 S   0  0  0  0  0  0  0  0  0  0  0  0
   -7.0940   19.6950  -32.6000 C   0  0  0  0  0  0  0  0  0  0  0  0
   -5.6550   23.5070  -30.4270 C   0  0  0  0  0  0  0  0  0  0  0  0
   -7.0280   22.9230  -30.2390 C   0  0  0  0  0  0  0  0  0  0  0  0
   -7.9730   22.9580  -31.7590 S   0  0  0  0  0  0  0  0  0  0  0  0
   -9.4070   21.8990  -31.7670 C   0  0  0  0  0  0  0  0  0  0  0  0
   -6.9900   22.6360  -33.0830 O   0  0  0  0  0  0  0  0  0  0  0  0
   -6.0196   25.6051  -28.2559 H   0  0  0  0  0  0  0  0  0  0  0  0
   -5.8064   26.7414  -29.6307 H   0  0  0  0  0  0  0  0  0  0  0  0
   -7.1754   25.5785  -29.6307 H   0  0  0  0  0  0  0  0  0  0  0  0
   -2.4733   23.6597  -31.1448 H   0  0  0  0  0  0  0  0  0  0  0  0
   -4.9730   21.9770  -33.5310 H   0  0  0  0  0  0  0  0  0  0  0  0
   -4.5724   19.8991  -34.4913 H   0  0  0  0  0  0  0  0  0  0  0  0
   -3.8165   19.3405  -32.9554 H   0  0  0  0  0  0  0  0  0  0  0  0
   -5.1788   17.0525  -33.4580 H   0  0  0  0  0  0  0  0  0  0  0  0
   -7.5294   16.1265  -32.7074 H   0  0  0  0  0  0  0  0  0  0  0  0
   -7.2519   20.7749  -32.4628 H   0  0  0  0  0  0  0  0  0  0  0  0
   -6.9294   21.8799  -29.9039 H   0  0  0  0  0  0  0  0  0  0  0  0
   -7.5594   23.5279  -29.4896 H   0  0  0  0  0  0  0  0  0  0  0  0
   -9.7057   21.6784  -30.7316 H   0  0  0  0  0  0  0  0  0  0  0  0
  -10.2336   22.4050  -32.2872 H   0  0  0  0  0  0  0  0  0  0  0  0
   -9.1665   20.9601  -32.2872 H   0  0  0  0  0  0  0  0  0  0  0  0
   -6.8470   23.5150  -33.5150 H   0  0  0  0  0  0  0  0  0  0  0  0
  1  2  1  0
  2  3  1  0
  3  4  2  0
  4  5  1  0
  5  6  1  0
  6  7  2  0
  6  8  1  0
  8  9  1  0
  9 10  1  0
 10 11  1  0
 11 12  2  0
 12 13  1  0
 13 14  1  0
  5 15  2  0
 15 16  1  0
 16 17  1  0
 17 18  1  0
 17 19  1  6
 15  2  1  0
 14 10  2  0
  1 20  1  0
  1 21  1  0
  1 22  1  0
  4 23  1  0
  8 24  1  0
  9 25  1  0
  9 26  1  0
 11 27  1  0
 12 28  1  0
 14 29  1  0
 16 30  1  0
 16 31  1  0
 18 32  1  0
 18 33  1  0
 18 34  1  0
 19 35  1  0
M  CHG  1  17   1
M  END
>  <UniqueID>  (14) 
13

>  <SMILES>  (14) 
Cn1ncc(C(=O)NCc2ccsc2)c1C[S@+](C)O

>  <Energy>  (14) 
83.06521144605114

>  <Genealogy>  (14) 
Cn1ncc(C(=O)NCc2ccsc2)c1C[S+](C)O (protonated)
Cn1ncc(C(=O)NCc2ccsc2)c1C[S@+](C)O (chirality)
Cn1ncc(C(=O)NCc2ccsc2)c1C[S@+](C)O (3D coordinates assigned)
Cn1ncc(C(=O)NCc2ccsc2)c1C[S@+](C)O (optimized conformer: 83.06521144605114 kcal/mol)

>  <smiles>  (14) 
Cn1ncc(C(=O)NCc2ccsc2)c1C[S+](C)[O-]

>  <score_type>  (14) 
oracle

>  <origin>  (14) 
adg

>  <m_score__min__energy>  (14) 
-6.2599999999999998

>  <m_primary>  (14) 
energy

$$$$
14:0
     RDKit          3D

 46 48  0  0  0  0  0  0  0  0999 V2000
   -2.9925   21.5313  -29.4879 H   0  0  0  0  0  0  0  0  0  0  0  0
   -2.6120   22.5410  -29.2740 C   0  0  0  0  0  0  0  0  0  0  0  0
   -1.4110   22.7040  -28.6630 N   0  0  0  0  0  0  0  0  0  0  0  0
   -0.9130   23.9370  -28.3880 C   0  0  0  0  0  0  0  0  0  0  0  0
    0.0663   24.0433  -27.8984 H   0  0  0  0  0  0  0  0  0  0  0  0
   -1.6610   25.0780  -28.7350 C   0  0  0  0  0  0  0  0  0  0  0  0
   -1.2500   26.2910  -28.5000 N   0  0  0  0  0  0  0  0  0  0  0  0
   -0.0960   26.7020  -27.6960 C   0  0  0  0  0  0  0  0  0  0  0  0
    0.0778   27.7785  -27.8409 H   0  0  0  0  0  0  0  0  0  0  0  0
    0.7804   26.1218  -28.0205 H   0  0  0  0  0  0  0  0  0  0  0  0
   -0.3330   26.4330  -26.2250 C   0  0  0  0  0  0  0  0  0  0  0  0
   -1.3630   27.1110  -25.5570 C   0  0  0  0  0  0  0  0  0  0  0  0
   -1.9869   27.8334  -26.1038 H   0  0  0  0  0  0  0  0  0  0  0  0
   -1.5940   26.8810  -24.2410 N   0  0  0  0  0  0  0  0  0  0  0  0
   -0.8370   26.0000  -23.5420 C   0  0  0  0  0  0  0  0  0  0  0  0
   -1.0461   25.8215  -22.4769 H   0  0  0  0  0  0  0  0  0  0  0  0
    0.1790   25.3370  -24.1530 N   0  0  0  0  0  0  0  0  0  0  0  0
    0.7440   24.6650  -23.5870 H   0  0  0  0  0  0  0  0  0  0  0  0
    0.4650   25.5400  -25.4730 C   0  0  0  0  0  0  0  0  0  0  0  0
    1.5990   24.7720  -26.1000 C   0  0  0  0  0  0  0  0  0  0  0  0
    2.2325   24.3430  -25.3097 H   0  0  0  0  0  0  0  0  0  0  0  0
    1.1927   23.9624  -26.7241 H   0  0  0  0  0  0  0  0  0  0  0  0
    2.2000   25.4497  -26.7241 H   0  0  0  0  0  0  0  0  0  0  0  0
   -2.8650   24.9030  -29.3400 N   0  0  0  0  0  0  0  0  0  0  0  0
   -3.3650   23.6710  -29.6310 C   0  0  0  0  0  0  0  0  0  0  0  0
   -4.6870   23.5560  -30.2980 C   0  0  0  0  0  0  0  0  0  0  0  0
   -5.6150   24.6080  -30.1960 C   0  0  0  0  0  0  0  0  0  0  0  0
   -5.3613   25.5055  -29.6127 H   0  0  0  0  0  0  0  0  0  0  0  0
   -6.8560   24.5210  -30.8300 C   0  0  0  0  0  0  0  0  0  0  0  0
   -7.5742   25.3498  -30.7442 H   0  0  0  0  0  0  0  0  0  0  0  0
   -7.1890   23.3870  -31.5720 C   0  0  0  0  0  0  0  0  0  0  0  0
   -8.1682   23.3270  -32.0696 H   0  0  0  0  0  0  0  0  0  0  0  0
   -6.2810   22.3220  -31.6870 C   0  0  0  0  0  0  0  0  0  0  0  0
   -6.6310   21.1310  -32.4960 C   0  0  0  0  0  0  0  0  0  0  0  0
   -5.8570   20.7730  -33.4250 O   0  0  0  0  0  0  0  0  0  0  0  0
   -7.8220   20.3630  -32.2370 N   0  0  0  0  0  0  0  0  0  0  0  0
   -9.0800   21.0090  -31.8550 C   0  0  0  0  0  0  0  0  0  0  0  0
   -9.1543   21.0472  -30.7582 H   0  0  0  0  0  0  0  0  0  0  0  0
   -9.1049   22.0314  -32.2600 H   0  0  0  0  0  0  0  0  0  0  0  0
   -9.9255   20.4335  -32.2600 H   0  0  0  0  0  0  0  0  0  0  0  0
   -7.7860   18.9100  -32.4040 C   0  0  0  0  0  0  0  0  0  0  0  0
   -7.7740   18.4275  -31.4155 H   0  0  0  0  0  0  0  0  0  0  0  0
   -8.6763   18.5828  -32.9610 H   0  0  0  0  0  0  0  0  0  0  0  0
   -6.8806   18.6273  -32.9610 H   0  0  0  0  0  0  0  0  0  0  0  0
   -5.0260   22.4220  -31.0620 C   0  0  0  0  0  0  0  0  0  0  0  0
   -4.2988   21.6039  -31.1709 H   0  0  0  0  0  0  0  0  0  0  0  0
  1  2  1  0
  2  3  1  0
  3  4  2  0
  4  5  1  0
  4  6  1  0
  6  7  2  0
  7  8  1  0
  8  9  1  0
  8 10  1  0
  8 11  1  0
 11 12  2  0
 12 13  1  0
 12 14  1  0
 14 15  2  0
 15 16  1  0
 15 17  1  0
 17 18  1  0
 17 19  2  0
 19 20  1  0
 20 21  1  0
 20 22  1  0
 20 23  1  0
  6 24  1  0
 24 25  1  0
 25 26  1  0
 26 27  2  0
 27 28  1  0
 27 29  1  0
 29 30  1  0
 29 31  2  0
 31 32  1  0
 31 33  1  0
 33 34  1  0
 34 35  2  0
 34 36  1  0
 36 37  1  0
 37 38  1  0
 37 39  1  0
 37 40  1  0
 36 41  1  0
 41 42  1  0
 41 43  1  0
 41 44  1  0
 33 45  2  0
 45 46  1  0
 25  2  2  0
 45 26  1  0
 19 11  1  0
M  CHG  2  17   1  24  -1
M  END
>  <UniqueID>  (15) 
14

>  <SMILES>  (15) 
Cc1[nH+]cncc1C/N=c1\cncc(-c2cccc(C(=O)N(C)C)c2)[n-]1

>  <Energy>  (15) 
59.74084724393543

>  <Genealogy>  (15) 
Cc1[nH+]cncc1CN=c1cncc(-c2cccc(C(=O)N(C)C)c2)[n-]1 (protonated)
Cc1[nH+]cncc1C/N=c1\cncc(-c2cccc(C(=O)N(C)C)c2)[n-]1 (cis-trans isomerization)
Cc1[nH+]cncc1C/N=c1\cncc(-c2cccc(C(=O)N(C)C)c2)[n-]1 (3D coordinates assigned)
Cc1[nH+]cncc1C/N=c1\cncc(-c2cccc(C(=O)N(C)C)c2)[n-]1 (optimized conformer: 59.74084724393543 kcal/mol)

>  <smiles>  (15) 
Cc1ncncc1CN=c1cncc(-c2cccc(C(=O)N(C)C)c2)[nH]1

>  <score_type>  (15) 
oracle

>  <origin>  (15) 
adg

>  <m_score__min__energy>  (15) 
-10.109999999999999

>  <m_primary>  (15) 
energy

$$$$
15:0
     RDKit          3D

 42 44  0  0  0  0  0  0  0  0999 V2000
   -5.6640   26.0350  -30.3620 O   0  0  0  0  0  0  0  0  0  0  0  0
   -5.0470   24.9470  -30.5050 C   0  0  0  0  0  0  0  0  0  0  0  0
   -5.3410   24.1170  -31.6350 N   0  0  0  0  0  0  0  0  0  0  0  0
   -5.6580   22.8510  -31.6080 C   0  0  0  0  0  0  0  0  0  0  0  0
   -4.8260   21.8220  -30.8620 C   0  0  0  0  0  0  0  0  0  0  0  0
   -3.5070   21.5730  -31.5520 C   0  0  0  0  0  0  0  0  0  0  0  0
   -2.3040   21.6860  -30.8380 C   0  0  0  0  0  0  0  0  0  0  0  0
   -1.0800   21.4410  -31.4710 C   0  0  0  0  0  0  0  0  0  0  0  0
   -1.0490   21.0740  -32.8190 C   0  0  0  0  0  0  0  0  0  0  0  0
   -2.2430   20.9390  -33.5320 C   0  0  0  0  0  0  0  0  0  0  0  0
   -3.4660   21.1760  -32.9000 C   0  0  0  0  0  0  0  0  0  0  0  0
   -6.9490   22.4540  -32.2140 C   0  0  0  0  0  0  0  0  0  0  0  0
   -7.7110   23.3380  -32.6950 O   0  0  0  0  0  0  0  0  0  0  0  0
   -7.3670   21.0830  -32.2410 N   0  0  0  0  0  0  0  0  0  0  0  0
   -8.6100   20.7290  -31.5490 C   0  0  0  0  0  0  0  0  0  0  0  0
   -8.7180   19.2090  -31.3910 C   0  0  0  0  0  0  0  0  0  0  0  0
   -8.4970   18.5570  -32.6280 O   0  0  0  0  0  0  0  0  0  0  0  0
   -7.1620   18.7720  -33.0460 C   0  0  0  0  0  0  0  0  0  0  0  0
   -6.9300   20.2510  -33.3640 C   0  0  0  0  0  0  0  0  0  0  0  0
   -3.9830   24.5760  -29.5570 C   0  0  0  0  0  0  0  0  0  0  0  0
   -4.1460   23.8350  -28.4050 C   0  0  0  0  0  0  0  0  0  0  0  0
   -2.8940   23.7490  -27.8360 C   0  0  0  0  0  0  0  0  0  0  0  0
   -2.0460   24.4430  -28.6750 C   0  0  0  0  0  0  0  0  0  0  0  0
   -2.7240   24.9250  -29.6910 O   0  0  0  0  0  0  0  0  0  0  0  0
   -4.6329   22.1889  -29.8431 H   0  0  0  0  0  0  0  0  0  0  0  0
   -5.3870   20.8761  -30.8374 H   0  0  0  0  0  0  0  0  0  0  0  0
   -2.3232   21.9687  -29.7751 H   0  0  0  0  0  0  0  0  0  0  0  0
   -0.1409   21.5375  -30.9065 H   0  0  0  0  0  0  0  0  0  0  0  0
   -0.0859   20.8916  -33.3181 H   0  0  0  0  0  0  0  0  0  0  0  0
   -2.2199   20.6458  -34.5920 H   0  0  0  0  0  0  0  0  0  0  0  0
   -4.4038   21.0511  -33.4612 H   0  0  0  0  0  0  0  0  0  0  0  0
   -8.6175   21.1984  -30.5542 H   0  0  0  0  0  0  0  0  0  0  0  0
   -9.4638   21.0880  -32.1424 H   0  0  0  0  0  0  0  0  0  0  0  0
   -7.9660   18.8678  -30.6643 H   0  0  0  0  0  0  0  0  0  0  0  0
   -9.7307   18.9626  -31.0391 H   0  0  0  0  0  0  0  0  0  0  0  0
   -6.4772   18.4630  -32.2426 H   0  0  0  0  0  0  0  0  0  0  0  0
   -6.9744   18.1798  -33.9538 H   0  0  0  0  0  0  0  0  0  0  0  0
   -5.8585   20.4200  -33.5463 H   0  0  0  0  0  0  0  0  0  0  0  0
   -7.5098   20.5216  -34.2588 H   0  0  0  0  0  0  0  0  0  0  0  0
   -5.0814   23.4025  -28.0204 H   0  0  0  0  0  0  0  0  0  0  0  0
   -2.6251   23.2323  -26.9029 H   0  0  0  0  0  0  0  0  0  0  0  0
   -0.9652   24.5728  -28.5165 H   0  0  0  0  0  0  0  0  0  0  0  0
  1  2  2  0
  2  3  1  0
  3  4  2  3
  4  5  1  0
  5  6  1  0
  6  7  2  0
  7  8  1  0
  8  9  2  0
  9 10  1  0
 10 11  2  0
  4 12  1  0
 12 13  2  0
 12 14  1  0
 14 15  1  0
 15 16  1  0
 16 17  1  0
 17 18  1  0
 18 19  1  0
  2 20  1  0
 20 21  2  0
 21 22  1  0
 22 23  2  0
 23 24  1  0
 11  6  1  0
 19 14  1  0
 24 20  1  0
  5 25  1  0
  5 26  1  0
  7 27  1  0
  8 28  1  0
  9 29  1  0
 10 30  1  0
 11 31  1  0
 15 32  1  0
 15 33  1  0
 16 34  1  0
 16 35  1  0
 18 36  1  0
 18 37  1  0
 19 38  1  0
 19 39  1  0
 21 40  1  0
 22 41  1  0
 23 42  1  0
M  END
>  <UniqueID>  (16) 
15

>  <SMILES>  (16) 
O=C(N=C(Cc1ccccc1)C(=O)N1CCOCC1)c1ccco1

>  <Energy>  (16) 
79.79659721064473

>  <Genealogy>  (16) 
O=C(N=C(Cc1ccccc1)C(=O)N1CCOCC1)c1ccco1 (3D coordinates assigned)
O=C(N=C(Cc1ccccc1)C(=O)N1CCOCC1)c1ccco1 (nonaromatic ring conformer: 79.79659721064473 kcal/mol)

>  <smiles>  (16) 
O=C(N=C(Cc1ccccc1)C(=O)N1CCOCC1)c1ccco1

>  <score_type>  (16) 
oracle

>  <origin>  (16) 
adg

>  <m_score__min__energy>  (16) 
-8.3599999999999994

>  <m_primary>  (16) 
energy

$$$$
16:0
     RDKit          3D

 48 52  0  0  0  0  0  0  0  0999 V2000
   -3.6150   25.7020  -29.5610 H   0  0  0  0  0  0  0  0  0  0  0  0
   -3.8700   25.4180  -30.5340 N   0  0  0  0  0  0  0  0  0  0  0  0
   -4.5880   24.3670  -30.7680 C   0  0  0  0  0  0  0  0  0  0  0  0
   -5.5060   24.4040  -31.7730 N   0  0  0  0  0  0  0  0  0  0  0  0
   -6.2740   23.3330  -32.0960 C   0  0  0  0  0  0  0  0  0  0  0  0
   -7.0100   23.4125  -32.9096 H   0  0  0  0  0  0  0  0  0  0  0  0
   -6.1340   22.1280  -31.3990 C   0  0  0  0  0  0  0  0  0  0  0  0
   -6.9690   20.9530  -31.7470 C   0  0  0  0  0  0  0  0  0  0  0  0
   -6.3460   19.7350  -32.0730 C   0  0  0  0  0  0  0  0  0  0  0  0
   -5.2482   19.6671  -32.0573 H   0  0  0  0  0  0  0  0  0  0  0  0
   -7.1030   18.6050  -32.4180 C   0  0  0  0  0  0  0  0  0  0  0  0
   -6.4350   17.3250  -32.7670 C   0  0  0  0  0  0  0  0  0  0  0  0
   -5.3840   16.8270  -31.9720 C   0  0  0  0  0  0  0  0  0  0  0  0
   -5.0555   17.3896  -31.0857 H   0  0  0  0  0  0  0  0  0  0  0  0
   -4.7560   15.6230  -32.3020 C   0  0  0  0  0  0  0  0  0  0  0  0
   -3.9349   15.2428  -31.6765 H   0  0  0  0  0  0  0  0  0  0  0  0
   -5.1690   14.9010  -33.4250 C   0  0  0  0  0  0  0  0  0  0  0  0
   -4.6748   13.9524  -33.6819 H   0  0  0  0  0  0  0  0  0  0  0  0
   -6.2100   15.3850  -34.2210 C   0  0  0  0  0  0  0  0  0  0  0  0
   -6.5344   14.8171  -35.1054 H   0  0  0  0  0  0  0  0  0  0  0  0
   -6.8400   16.5890  -33.8960 C   0  0  0  0  0  0  0  0  0  0  0  0
   -7.6588   16.9644  -34.5274 H   0  0  0  0  0  0  0  0  0  0  0  0
   -8.5040   18.7030  -32.4310 C   0  0  0  0  0  0  0  0  0  0  0  0
   -9.1095   17.8256  -32.7022 H   0  0  0  0  0  0  0  0  0  0  0  0
   -9.1340   19.9030  -32.1030 C   0  0  0  0  0  0  0  0  0  0  0  0
  -10.2322   19.9639  -32.1188 H   0  0  0  0  0  0  0  0  0  0  0  0
   -8.3780   21.0370  -31.7520 C   0  0  0  0  0  0  0  0  0  0  0  0
   -8.9910   22.2480  -31.3860 O   0  0  0  0  0  0  0  0  0  0  0  0
   -9.3920   23.2620  -32.3020 C   0  0  0  0  0  0  0  0  0  0  0  0
   -9.7406   24.1434  -31.7438 H   0  0  0  0  0  0  0  0  0  0  0  0
   -8.5374   23.5432  -32.9349 H   0  0  0  0  0  0  0  0  0  0  0  0
  -10.2078   22.8826  -32.9349 H   0  0  0  0  0  0  0  0  0  0  0  0
   -5.2040   22.0650  -30.3530 C   0  0  0  0  0  0  0  0  0  0  0  0
   -5.0878   21.1287  -29.7875 H   0  0  0  0  0  0  0  0  0  0  0  0
   -4.4170   23.1800  -30.0150 C   0  0  0  0  0  0  0  0  0  0  0  0
   -3.4470   23.0570  -28.8920 C   0  0  0  0  0  0  0  0  0  0  0  0
   -2.9970   24.1330  -28.1920 N   0  0  0  0  0  0  0  0  0  0  0  0
   -2.0980   23.7720  -27.2420 C   0  0  0  0  0  0  0  0  0  0  0  0
   -1.4700   24.6640  -26.3700 C   0  0  0  0  0  0  0  0  0  0  0  0
   -1.6888   25.7410  -26.4163 H   0  0  0  0  0  0  0  0  0  0  0  0
   -0.5530   24.1590  -25.4320 C   0  0  0  0  0  0  0  0  0  0  0  0
   -0.0497   24.8457  -24.7355 H   0  0  0  0  0  0  0  0  0  0  0  0
   -0.2740   22.7780  -25.3780 C   0  0  0  0  0  0  0  0  0  0  0  0
    0.4453   22.3934  -24.6400 H   0  0  0  0  0  0  0  0  0  0  0  0
   -0.9100   21.8910  -26.2620 C   0  0  0  0  0  0  0  0  0  0  0  0
   -0.6995   20.8118  -26.2302 H   0  0  0  0  0  0  0  0  0  0  0  0
   -1.8150   22.4180  -27.1800 C   0  0  0  0  0  0  0  0  0  0  0  0
   -2.7130   21.6220  -28.3490 S   0  0  0  0  0  0  0  0  0  0  0  0
  1  2  1  0
  2  3  2  0
  3  4  1  0
  4  5  1  0
  5  6  1  0
  5  7  2  0
  7  8  1  0
  8  9  2  0
  9 10  1  0
  9 11  1  0
 11 12  1  0
 12 13  2  0
 13 14  1  0
 13 15  1  0
 15 16  1  0
 15 17  2  0
 17 18  1  0
 17 19  1  0
 19 20  1  0
 19 21  2  0
 21 22  1  0
 11 23  2  0
 23 24  1  0
 23 25  1  0
 25 26  1  0
 25 27  2  0
 27 28  1  0
 28 29  1  0
 29 30  1  0
 29 31  1  0
 29 32  1  0
  7 33  1  0
 33 34  1  0
 33 35  2  0
 35 36  1  0
 36 37  2  0
 37 38  1  0
 38 39  2  0
 39 40  1  0
 39 41  1  0
 41 42  1  0
 41 43  2  0
 43 44  1  0
 43 45  1  0
 45 46  1  0
 45 47  2  0
 47 48  1  0
 35  3  1  0
 48 36  1  0
 27  8  1  0
 47 38  1  0
 21 12  1  0
M  CHG  1   4  -1
M  END
>  <UniqueID>  (17) 
16

>  <SMILES>  (17) 
[H]/N=c1\[n-]cc(-c2cc(-c3ccccc3)ccc2OC)cc1-c1nc2ccccc2s1

>  <Energy>  (17) 
105.51114961241986

>  <Genealogy>  (17) 
COc1ccc(-c2ccccc2)cc1-c1c[n-]c(=N)c(-c2nc3ccccc3s2)c1 (protonated)
[H]/N=c1\[n-]cc(-c2cc(-c3ccccc3)ccc2OC)cc1-c1nc2ccccc2s1 (cis-trans isomerization)
[H]/N=c1\[n-]cc(-c2cc(-c3ccccc3)ccc2OC)cc1-c1nc2ccccc2s1 (3D coordinates assigned)
[H]/N=c1\[n-]cc(-c2cc(-c3ccccc3)ccc2OC)cc1-c1nc2ccccc2s1 (optimized conformer: 105.51114961241986 kcal/mol)

>  <smiles>  (17) 
COc1ccc(-c2ccccc2)cc1-c1c[nH]c(=N)c(-c2nc3ccccc3s2)c1

>  <score_type>  (17) 
oracle

>  <origin>  (17) 
adg

>  <m_score__min__energy>  (17) 
-11.710000000000001

>  <m_primary>  (17) 
energy

$$$$
17:0
     RDKit          3D

 32 34  0  0  0  0  0  0  0  0999 V2000
   -1.9620   25.0960  -28.1620 C   0  0  0  0  0  0  0  0  0  0  0  0
   -2.7310   25.2930  -29.3440 O   0  0  0  0  0  0  0  0  0  0  0  0
   -3.5640   24.3210  -29.9190 C   0  0  0  0  0  0  0  0  0  0  0  0
   -4.9670   24.4930  -30.0000 C   0  0  0  0  0  0  0  0  0  0  0  0
   -5.7360   23.4880  -30.5840 C   0  0  0  0  0  0  0  0  0  0  0  0
   -5.1470   22.3420  -31.0760 C   0  0  0  0  0  0  0  0  0  0  0  0
   -3.7710   22.1380  -31.0120 C   0  0  0  0  0  0  0  0  0  0  0  0
   -2.9660   23.1420  -30.4260 C   0  0  0  0  0  0  0  0  0  0  0  0
   -1.5720   23.0090  -30.3250 O   0  0  0  0  0  0  0  0  0  0  0  0
   -0.8680   21.7820  -30.4820 C   0  0  0  0  0  0  0  0  0  0  0  0
   -6.1890   21.4940  -31.6140 C   0  0  0  0  0  0  0  0  0  0  0  0
   -6.1040   20.2400  -32.2190 C   0  0  0  0  0  0  0  0  0  0  0  0
   -7.2910   19.6320  -32.6570 C   0  0  0  0  0  0  0  0  0  0  0  0
   -8.5340   20.2830  -32.4860 C   0  0  0  0  0  0  0  0  0  0  0  0
   -9.7120   19.6810  -32.9210 O   0  0  0  0  0  0  0  0  0  0  0  0
   -8.5890   21.5470  -31.8720 C   0  0  0  0  0  0  0  0  0  0  0  0
   -7.4000   22.1380  -31.4420 C   0  0  0  0  0  0  0  0  0  0  0  0
   -7.2260   23.4680  -30.7690 C   0  0  0  0  0  0  0  0  0  0  0  0
   -2.5980   25.2589  -27.2794 H   0  0  0  0  0  0  0  0  0  0  0  0
   -1.5698   24.0684  -28.1467 H   0  0  0  0  0  0  0  0  0  0  0  0
   -1.1241   25.8085  -28.1467 H   0  0  0  0  0  0  0  0  0  0  0  0
   -5.4422   25.4046  -29.6086 H   0  0  0  0  0  0  0  0  0  0  0  0
   -3.3203   21.2163  -31.4085 H   0  0  0  0  0  0  0  0  0  0  0  0
   -0.6297   21.3667  -29.4917 H   0  0  0  0  0  0  0  0  0  0  0  0
   -1.4941   21.0685  -31.0378 H   0  0  0  0  0  0  0  0  0  0  0  0
    0.0639   21.9625  -31.0378 H   0  0  0  0  0  0  0  0  0  0  0  0
   -5.1325   19.7408  -32.3494 H   0  0  0  0  0  0  0  0  0  0  0  0
   -7.2536   18.6426  -33.1364 H   0  0  0  0  0  0  0  0  0  0  0  0
   -9.7940   19.2910  -33.8520 H   0  0  0  0  0  0  0  0  0  0  0  0
   -9.5518   22.0606  -31.7331 H   0  0  0  0  0  0  0  0  0  0  0  0
   -7.5669   24.2949  -31.4094 H   0  0  0  0  0  0  0  0  0  0  0  0
   -7.8048   23.5919  -29.8418 H   0  0  0  0  0  0  0  0  0  0  0  0
  1  2  1  0
  2  3  1  0
  3  4  2  0
  4  5  1  0
  5  6  2  0
  6  7  1  0
  7  8  2  0
  8  9  1  0
  9 10  1  0
  6 11  1  0
 11 12  2  0
 12 13  1  0
 13 14  2  0
 14 15  1  0
 14 16  1  0
 16 17  2  0
 17 18  1  0
  8  3  1  0
 17 11  1  0
 18  5  1  0
  1 19  1  0
  1 20  1  0
  1 21  1  0
  4 22  1  0
  7 23  1  0
 10 24  1  0
 10 25  1  0
 10 26  1  0
 12 27  1  0
 13 28  1  0
 15 29  1  0
 16 30  1  0
 18 31  1  0
 18 32  1  0
M  END
>  <UniqueID>  (18) 
17

>  <SMILES>  (18) 
COc1cc2c(cc1OC)-c1ccc(O)cc1C2

>  <Energy>  (18) 
54.69214862727651

>  <Genealogy>  (18) 
COc1cc2c(cc1OC)-c1ccc(O)cc1C2 (3D coordinates assigned)
COc1cc2c(cc1OC)-c1ccc(O)cc1C2 (nonaromatic ring conformer: 54.69214862727651 kcal/mol)

>  <smiles>  (18) 
COc1cc2c(cc1OC)-c1ccc(O)cc1C2

>  <score_type>  (18) 
oracle

>  <origin>  (18) 
adg

>  <m_score__min__energy>  (18) 
-7.0700000000000003

>  <m_primary>  (18) 
energy

$$$$
18:0
     RDKit          3D

 31 32  0  0  0  0  0  0  0  0999 V2000
   -5.8260   17.4500  -34.5600 C   0  0  0  0  0  0  0  0  0  0  0  0
   -6.8580   17.6740  -33.4570 C   0  0  0  0  0  0  0  0  0  0  0  0
   -6.6960   19.0120  -32.8590 N   0  0  0  0  0  0  0  0  0  0  0  0
   -5.4550   19.5880  -32.9210 C   0  0  0  0  0  0  0  0  0  0  0  0
   -5.2160   20.8430  -32.3640 C   0  0  0  0  0  0  0  0  0  0  0  0
   -6.2510   21.5340  -31.7260 C   0  0  0  0  0  0  0  0  0  0  0  0
   -6.0160   22.8750  -31.1340 C   0  0  0  0  0  0  0  0  0  0  0  0
   -4.7100   23.3920  -31.0280 C   0  0  0  0  0  0  0  0  0  0  0  0
   -4.4900   24.6540  -30.4700 C   0  0  0  0  0  0  0  0  0  0  0  0
   -5.5690   25.4160  -30.0140 C   0  0  0  0  0  0  0  0  0  0  0  0
   -6.8690   24.9150  -30.1140 C   0  0  0  0  0  0  0  0  0  0  0  0
   -7.0940   23.6520  -30.6700 C   0  0  0  0  0  0  0  0  0  0  0  0
   -7.5140   20.9320  -31.6550 C   0  0  0  0  0  0  0  0  0  0  0  0
   -7.7290   19.6600  -32.2140 C   0  0  0  0  0  0  0  0  0  0  0  0
   -9.1110   19.0600  -32.1190 C   0  0  0  0  0  0  0  0  0  0  0  0
   -4.8461   17.2373  -34.1076 H   0  0  0  0  0  0  0  0  0  0  0  0
   -6.1347   16.5980  -35.1835 H   0  0  0  0  0  0  0  0  0  0  0  0
   -5.7537   18.3534  -35.1835 H   0  0  0  0  0  0  0  0  0  0  0  0
   -7.8681   17.5888  -33.8842 H   0  0  0  0  0  0  0  0  0  0  0  0
   -6.7108   16.9154  -32.6742 H   0  0  0  0  0  0  0  0  0  0  0  0
   -4.6336   19.0514  -33.4185 H   0  0  0  0  0  0  0  0  0  0  0  0
   -4.2129   21.2902  -32.4262 H   0  0  0  0  0  0  0  0  0  0  0  0
   -3.8569   22.7977  -31.3872 H   0  0  0  0  0  0  0  0  0  0  0  0
   -3.4662   25.0482  -30.3896 H   0  0  0  0  0  0  0  0  0  0  0  0
   -5.3946   26.4100  -29.5764 H   0  0  0  0  0  0  0  0  0  0  0  0
   -7.7177   25.5154  -29.7545 H   0  0  0  0  0  0  0  0  0  0  0  0
   -8.1202   23.2631  -30.7453 H   0  0  0  0  0  0  0  0  0  0  0  0
   -8.3429   21.4579  -31.1587 H   0  0  0  0  0  0  0  0  0  0  0  0
   -9.3868   18.9403  -31.0609 H   0  0  0  0  0  0  0  0  0  0  0  0
   -9.8343   19.7251  -32.6134 H   0  0  0  0  0  0  0  0  0  0  0  0
   -9.1189   18.0774  -32.6134 H   0  0  0  0  0  0  0  0  0  0  0  0
  1  2  1  0
  2  3  1  0
  3  4  2  0
  4  5  1  0
  5  6  2  0
  6  7  1  0
  7  8  2  0
  8  9  1  0
  9 10  2  0
 10 11  1  0
 11 12  2  0
  6 13  1  0
 13 14  2  0
 14 15  1  0
 14  3  1  0
 12  7  1  0
  1 16  1  0
  1 17  1  0
  1 18  1  0
  2 19  1  0
  2 20  1  0
  4 21  1  0
  5 22  1  0
  8 23  1  0
  9 24  1  0
 10 25  1  0
 11 26  1  0
 12 27  1  0
 13 28  1  0
 15 29  1  0
 15 30  1  0
 15 31  1  0
M  CHG  1   3   1
M  END
>  <UniqueID>  (19) 
18

>  <SMILES>  (19) 
CC[n+]1ccc(-c2ccccc2)cc1C

>  <Energy>  (19) 
36.536845440721706

>  <Genealogy>  (19) 
CC[n+]1ccc(-c2ccccc2)cc1C (3D coordinates assigned)
CC[n+]1ccc(-c2ccccc2)cc1C (optimized conformer: 36.536845440721706 kcal/mol)

>  <smiles>  (19) 
CC[n+]1ccc(-c2ccccc2)cc1C

>  <score_type>  (19) 
oracle

>  <origin>  (19) 
adg

>  <m_score__min__energy>  (19) 
-5.9299999999999997

>  <m_primary>  (19) 
energy

$$$$
19:0
     RDKit          3D

 39 42  0  0  0  0  0  0  0  0999 V2000
   -6.4690   17.2160  -30.8290 C   0  0  0  0  0  0  0  0  0  0  0  0
   -6.5280   17.0220  -32.2380 O   0  0  0  0  0  0  0  0  0  0  0  0
   -5.4700   17.2830  -33.1240 C   0  0  0  0  0  0  0  0  0  0  0  0
   -4.7870   16.2480  -33.7930 C   0  0  0  0  0  0  0  0  0  0  0  0
   -3.7340   16.5430  -34.6630 C   0  0  0  0  0  0  0  0  0  0  0  0
   -3.3550   17.8670  -34.8790 C   0  0  0  0  0  0  0  0  0  0  0  0
   -4.0250   18.9030  -34.2240 C   0  0  0  0  0  0  0  0  0  0  0  0
   -5.0770   18.6200  -33.3360 C   0  0  0  0  0  0  0  0  0  0  0  0
   -5.7790   19.6930  -32.6890 N   0  0  0  0  0  0  0  0  0  0  0  0
   -5.1780   20.7550  -32.1640 N   0  0  0  0  0  0  0  0  0  0  0  0
   -6.1240   21.5650  -31.6260 C   0  0  0  0  0  0  0  0  0  0  0  0
   -5.8150   22.8520  -30.9700 C   0  0  0  0  0  0  0  0  0  0  0  0
   -6.8630   23.6790  -30.5320 C   0  0  0  0  0  0  0  0  0  0  0  0
   -6.5870   24.9050  -29.9190 C   0  0  0  0  0  0  0  0  0  0  0  0
   -7.6050   25.6910  -29.4890 F   0  0  0  0  0  0  0  0  0  0  0  0
   -5.2640   25.3230  -29.7520 C   0  0  0  0  0  0  0  0  0  0  0  0
   -4.2150   24.5180  -30.2050 C   0  0  0  0  0  0  0  0  0  0  0  0
   -2.9330   24.9340  -30.0610 F   0  0  0  0  0  0  0  0  0  0  0  0
   -4.4870   23.2900  -30.8170 C   0  0  0  0  0  0  0  0  0  0  0  0
   -7.3680   20.9900  -31.8410 C   0  0  0  0  0  0  0  0  0  0  0  0
   -8.6770   21.4130  -31.6210 C   0  0  0  0  0  0  0  0  0  0  0  0
   -9.7110   20.5770  -32.0760 C   0  0  0  0  0  0  0  0  0  0  0  0
   -9.4000   19.3790  -32.7570 C   0  0  0  0  0  0  0  0  0  0  0  0
   -8.0980   19.0230  -32.9780 N   0  0  0  0  0  0  0  0  0  0  0  0
   -7.1070   19.8240  -32.5010 C   0  0  0  0  0  0  0  0  0  0  0  0
   -6.7525   16.2839  -30.3183 H   0  0  0  0  0  0  0  0  0  0  0  0
   -5.4452   17.4957  -30.5399 H   0  0  0  0  0  0  0  0  0  0  0  0
   -7.1637   18.0184  -30.5399 H   0  0  0  0  0  0  0  0  0  0  0  0
   -5.0844   15.2017  -33.6295 H   0  0  0  0  0  0  0  0  0  0  0  0
   -3.2032   15.7290  -35.1783 H   0  0  0  0  0  0  0  0  0  0  0  0
   -2.5272   18.0962  -35.5662 H   0  0  0  0  0  0  0  0  0  0  0  0
   -3.7275   19.9465  -34.4043 H   0  0  0  0  0  0  0  0  0  0  0  0
   -7.9064   23.3602  -30.6721 H   0  0  0  0  0  0  0  0  0  0  0  0
   -5.0483   26.2851  -29.2643 H   0  0  0  0  0  0  0  0  0  0  0  0
   -3.6587   22.6639  -31.1803 H   0  0  0  0  0  0  0  0  0  0  0  0
   -8.8927   22.3637  -31.1114 H   0  0  0  0  0  0  0  0  0  0  0  0
  -10.7610   20.8551  -31.9021 H   0  0  0  0  0  0  0  0  0  0  0  0
  -10.2116   18.7271  -33.1124 H   0  0  0  0  0  0  0  0  0  0  0  0
   -7.8850   18.1610  -33.5280 H   0  0  0  0  0  0  0  0  0  0  0  0
  1  2  1  0
  2  3  1  0
  3  4  2  0
  4  5  1  0
  5  6  2  0
  6  7  1  0
  7  8  2  0
  8  9  1  0
  9 10  1  0
 10 11  2  0
 11 12  1  0
 12 13  2  0
 13 14  1  0
 14 15  1  0
 14 16  2  0
 16 17  1  0
 17 18  1  0
 17 19  2  0
 11 20  1  0
 20 21  2  0
 21 22  1  0
 22 23  2  0
 23 24  1  0
 24 25  2  0
  8  3  1  0
 25  9  1  0
 19 12  1  0
 25 20  1  0
  1 26  1  0
  1 27  1  0
  1 28  1  0
  4 29  1  0
  5 30  1  0
  6 31  1  0
  7 32  1  0
 13 33  1  0
 16 34  1  0
 19 35  1  0
 21 36  1  0
 22 37  1  0
 23 38  1  0
 24 39  1  0
M  CHG  1  24   1
M  END
>  <UniqueID>  (20) 
19

>  <SMILES>  (20) 
COc1ccccc1-n1nc(-c2cc(F)cc(F)c2)c2ccc[nH+]c21

>  <Energy>  (20) 
93.48880852315924

>  <Genealogy>  (20) 
COc1ccccc1-n1nc(-c2cc(F)cc(F)c2)c2ccc[nH+]c21 (protonated)
COc1ccccc1-n1nc(-c2cc(F)cc(F)c2)c2ccc[nH+]c21 (3D coordinates assigned)
COc1ccccc1-n1nc(-c2cc(F)cc(F)c2)c2ccc[nH+]c21 (optimized conformer: 93.48880852315924 kcal/mol)

>  <smiles>  (20) 
COc1ccccc1-n1nc(-c2cc(F)cc(F)c2)c2cccnc21

>  <score_type>  (20) 
oracle

>  <origin>  (20) 
adg

>  <m_score__min__energy>  (20) 
-7.6200000000000001

>  <m_primary>  (20) 
energy

$$$$
20:0
     RDKit          3D

 43 45  0  0  0  0  0  0  0  0999 V2000
   -0.4840   25.7070  -27.4040 C   0  0  0  0  0  0  0  0  0  0  0  0
   -1.0740   24.5910  -28.2140 C   0  0  0  0  0  0  0  0  0  0  0  0
   -0.2580   23.5510  -28.6830 C   0  0  0  0  0  0  0  0  0  0  0  0
   -0.8000   22.5320  -29.4710 C   0  0  0  0  0  0  0  0  0  0  0  0
   -2.1560   22.5510  -29.8080 C   0  0  0  0  0  0  0  0  0  0  0  0
   -2.9810   23.5960  -29.3640 C   0  0  0  0  0  0  0  0  0  0  0  0
   -4.3790   23.6170  -29.7190 N   0  0  0  0  0  0  0  0  0  0  0  0
   -5.3170   22.7430  -29.0060 C   0  0  0  0  0  0  0  0  0  0  0  0
   -4.8610   24.5730  -30.6900 C   0  0  0  0  0  0  0  0  0  0  0  0
   -4.2370   25.6580  -30.8590 O   0  0  0  0  0  0  0  0  0  0  0  0
   -6.1220   24.3180  -31.4770 C   0  0  0  0  0  0  0  0  0  0  0  0
   -6.2450   22.9030  -31.8500 N   0  0  0  0  0  0  0  0  0  0  0  0
   -5.1600   22.2820  -32.3190 N   0  0  0  0  0  0  0  0  0  0  0  0
   -5.1560   20.9700  -32.6720 C   0  0  0  0  0  0  0  0  0  0  0  0
   -3.8790   20.3770  -33.1930 C   0  0  0  0  0  0  0  0  0  0  0  0
   -6.3400   20.2180  -32.5350 C   0  0  0  0  0  0  0  0  0  0  0  0
   -6.4100   18.8530  -32.8810 C   0  0  0  0  0  0  0  0  0  0  0  0
   -7.6020   18.1440  -32.7260 C   0  0  0  0  0  0  0  0  0  0  0  0
   -8.7380   18.7800  -32.2250 C   0  0  0  0  0  0  0  0  0  0  0  0
   -8.6890   20.1310  -31.8770 C   0  0  0  0  0  0  0  0  0  0  0  0
   -7.4940   20.8630  -32.0280 C   0  0  0  0  0  0  0  0  0  0  0  0
   -7.4210   22.2230  -31.6830 C   0  0  0  0  0  0  0  0  0  0  0  0
   -8.4360   22.8150  -31.2170 O   0  0  0  0  0  0  0  0  0  0  0  0
   -2.4310   24.6170  -28.5700 C   0  0  0  0  0  0  0  0  0  0  0  0
   -0.6015   25.4847  -26.3331 H   0  0  0  0  0  0  0  0  0  0  0  0
    0.5851   25.8076  -27.6424 H   0  0  0  0  0  0  0  0  0  0  0  0
   -1.0029   26.6472  -27.6424 H   0  0  0  0  0  0  0  0  0  0  0  0
    0.8123   23.5374  -28.4297 H   0  0  0  0  0  0  0  0  0  0  0  0
   -0.1576   21.7130  -29.8268 H   0  0  0  0  0  0  0  0  0  0  0  0
   -2.5786   21.7435  -30.4239 H   0  0  0  0  0  0  0  0  0  0  0  0
   -5.1827   22.8682  -27.9214 H   0  0  0  0  0  0  0  0  0  0  0  0
   -6.3481   23.0098  -29.2810 H   0  0  0  0  0  0  0  0  0  0  0  0
   -5.1236   21.6956  -29.2810 H   0  0  0  0  0  0  0  0  0  0  0  0
   -6.9899   24.6032  -30.8643 H   0  0  0  0  0  0  0  0  0  0  0  0
   -6.0811   24.9164  -32.3991 H   0  0  0  0  0  0  0  0  0  0  0  0
   -3.2407   20.0806  -32.3476 H   0  0  0  0  0  0  0  0  0  0  0  0
   -4.1086   19.4934  -33.8066 H   0  0  0  0  0  0  0  0  0  0  0  0
   -3.3520   21.1226  -33.8066 H   0  0  0  0  0  0  0  0  0  0  0  0
   -5.5188   18.3433  -33.2759 H   0  0  0  0  0  0  0  0  0  0  0  0
   -7.6459   17.0796  -32.9999 H   0  0  0  0  0  0  0  0  0  0  0  0
   -9.6744   18.2157  -32.1039 H   0  0  0  0  0  0  0  0  0  0  0  0
   -9.5881   20.6271  -31.4827 H   0  0  0  0  0  0  0  0  0  0  0  0
   -3.0697   25.4434  -28.2248 H   0  0  0  0  0  0  0  0  0  0  0  0
  1  2  1  0
  2  3  2  0
  3  4  1  0
  4  5  2  0
  5  6  1  0
  6  7  1  0
  7  8  1  0
  7  9  1  0
  9 10  2  0
  9 11  1  0
 11 12  1  0
 12 13  1  0
 13 14  2  0
 14 15  1  0
 14 16  1  0
 16 17  2  0
 17 18  1  0
 18 19  2  0
 19 20  1  0
 20 21  2  0
 21 22  1  0
 22 23  2  0
  6 24  2  0
 24  2  1  0
 22 12  1  0
 21 16  1  0
  1 25  1  0
  1 26  1  0
  1 27  1  0
  3 28  1  0
  4 29  1  0
  5 30  1  0
  8 31  1  0
  8 32  1  0
  8 33  1  0
 11 34  1  0
 11 35  1  0
 15 36  1  0
 15 37  1  0
 15 38  1  0
 17 39  1  0
 18 40  1  0
 19 41  1  0
 20 42  1  0
 24 43  1  0
M  END
>  <UniqueID>  (21) 
20

>  <SMILES>  (21) 
Cc1cccc(N(C)C(=O)Cn2nc(C)c3ccccc3c2=O)c1

>  <Energy>  (21) 
56.82910871992225

>  <Genealogy>  (21) 
Cc1cccc(N(C)C(=O)Cn2nc(C)c3ccccc3c2=O)c1 (3D coordinates assigned)
Cc1cccc(N(C)C(=O)Cn2nc(C)c3ccccc3c2=O)c1 (optimized conformer: 56.82910871992225 kcal/mol)

>  <smiles>  (21) 
Cc1cccc(N(C)C(=O)Cn2nc(C)c3ccccc3c2=O)c1

>  <score_type>  (21) 
oracle

>  <origin>  (21) 
adg

>  <m_score__min__energy>  (21) 
-8.9700000000000006

>  <m_primary>  (21) 
energy

$$$$
21:0
     RDKit          3D

 51 53  0  0  0  0  0  0  0  0999 V2000
   -2.9790   18.9400  -26.3940 C   0  0  0  0  0  0  0  0  0  0  0  0
   -2.3160   19.3950  -27.5690 O   0  0  0  0  0  0  0  0  0  0  0  0
   -2.5720   20.6230  -28.1980 C   0  0  0  0  0  0  0  0  0  0  0  0
   -3.4810   21.5020  -27.5970 C   0  0  0  0  0  0  0  0  0  0  0  0
   -3.7690   22.7370  -28.1850 C   0  0  0  0  0  0  0  0  0  0  0  0
   -3.1540   23.1070  -29.3900 C   0  0  0  0  0  0  0  0  0  0  0  0
   -3.4380   24.4500  -30.0160 C   0  0  0  0  0  0  0  0  0  0  0  0
   -4.6660   24.4010  -30.8370 N   0  0  0  0  0  0  0  0  0  0  0  0
   -4.8020   23.1000  -31.5400 C   0  0  0  0  0  0  0  0  0  0  0  0
   -5.7610   22.1420  -30.8130 C   0  0  0  0  0  0  0  0  0  0  0  0
   -7.1340   22.7070  -30.6880 N   0  0  0  0  0  0  0  0  0  0  0  0
   -8.0200   22.1800  -31.7560 C   0  0  0  0  0  0  0  0  0  0  0  0
   -7.7220   20.7320  -32.0770 C   0  0  0  0  0  0  0  0  0  0  0  0
   -8.3710   19.7060  -31.3740 C   0  0  0  0  0  0  0  0  0  0  0  0
   -8.1160   18.3670  -31.6840 C   0  0  0  0  0  0  0  0  0  0  0  0
   -7.2150   18.0310  -32.7020 C   0  0  0  0  0  0  0  0  0  0  0  0
   -6.9950   16.6740  -32.9760 O   0  0  0  0  0  0  0  0  0  0  0  0
   -6.0730   16.1890  -33.9470 C   0  0  0  0  0  0  0  0  0  0  0  0
   -6.5660   19.0600  -33.4110 C   0  0  0  0  0  0  0  0  0  0  0  0
   -6.8210   20.3990  -33.1000 C   0  0  0  0  0  0  0  0  0  0  0  0
   -7.1460   24.1950  -30.6680 C   0  0  0  0  0  0  0  0  0  0  0  0
   -5.8660   24.7590  -30.0390 C   0  0  0  0  0  0  0  0  0  0  0  0
   -2.2390   22.2320  -29.9930 C   0  0  0  0  0  0  0  0  0  0  0  0
   -1.9500   20.9960  -29.4050 C   0  0  0  0  0  0  0  0  0  0  0  0
   -2.4441   19.3071  -25.5057 H   0  0  0  0  0  0  0  0  0  0  0  0
   -4.0108   19.3212  -26.3843 H   0  0  0  0  0  0  0  0  0  0  0  0
   -2.9944   17.8402  -26.3843 H   0  0  0  0  0  0  0  0  0  0  0  0
   -3.9725   21.2185  -26.6546 H   0  0  0  0  0  0  0  0  0  0  0  0
   -4.4809   23.4215  -27.7006 H   0  0  0  0  0  0  0  0  0  0  0  0
   -3.5668   25.1982  -29.2200 H   0  0  0  0  0  0  0  0  0  0  0  0
   -2.5922   24.7207  -30.6652 H   0  0  0  0  0  0  0  0  0  0  0  0
   -5.1869   23.2841  -32.5539 H   0  0  0  0  0  0  0  0  0  0  0  0
   -3.8095   22.6265  -31.5674 H   0  0  0  0  0  0  0  0  0  0  0  0
   -5.8159   21.1997  -31.3778 H   0  0  0  0  0  0  0  0  0  0  0  0
   -5.3696   21.9785  -29.7981 H   0  0  0  0  0  0  0  0  0  0  0  0
   -7.5150   22.3750  -29.7690 H   0  0  0  0  0  0  0  0  0  0  0  0
   -9.0651   22.2620  -31.4229 H   0  0  0  0  0  0  0  0  0  0  0  0
   -7.8445   22.7726  -32.6660 H   0  0  0  0  0  0  0  0  0  0  0  0
   -9.0841   19.9564  -30.5748 H   0  0  0  0  0  0  0  0  0  0  0  0
   -8.6274   17.5705  -31.1236 H   0  0  0  0  0  0  0  0  0  0  0  0
   -5.2098   15.7349  -33.4383 H   0  0  0  0  0  0  0  0  0  0  0  0
   -6.5666   15.4338  -34.5763 H   0  0  0  0  0  0  0  0  0  0  0  0
   -5.7304   17.0236  -34.5763 H   0  0  0  0  0  0  0  0  0  0  0  0
   -5.8557   18.8094  -34.2126 H   0  0  0  0  0  0  0  0  0  0  0  0
   -6.3120   21.1967  -33.6609 H   0  0  0  0  0  0  0  0  0  0  0  0
   -7.2304   24.5657  -31.7002 H   0  0  0  0  0  0  0  0  0  0  0  0
   -8.0027   24.5251  -30.0621 H   0  0  0  0  0  0  0  0  0  0  0  0
   -5.9464   25.8548  -29.9857 H   0  0  0  0  0  0  0  0  0  0  0  0
   -5.7547   24.3260  -29.0339 H   0  0  0  0  0  0  0  0  0  0  0  0
   -1.7458   22.5191  -30.9334 H   0  0  0  0  0  0  0  0  0  0  0  0
   -1.2347   20.3134  -29.8870 H   0  0  0  0  0  0  0  0  0  0  0  0
  1  2  1  0
  2  3  1  0
  3  4  2  0
  4  5  1  0
  5  6  2  0
  6  7  1  0
  7  8  1  0
  8  9  1  0
  9 10  1  0
 10 11  1  0
 11 12  1  0
 12 13  1  0
 13 14  2  0
 14 15  1  0
 15 16  2  0
 16 17  1  0
 17 18  1  0
 16 19  1  0
 19 20  2  0
 11 21  1  0
 21 22  1  0
  6 23  1  0
 23 24  2  0
 24  3  1  0
 22  8  1  0
 20 13  1  0
  1 25  1  0
  1 26  1  0
  1 27  1  0
  4 28  1  0
  5 29  1  0
  7 30  1  0
  7 31  1  0
  9 32  1  0
  9 33  1  0
 10 34  1  0
 10 35  1  0
 11 36  1  0
 12 37  1  0
 12 38  1  0
 14 39  1  0
 15 40  1  0
 18 41  1  0
 18 42  1  0
 18 43  1  0
 19 44  1  0
 20 45  1  0
 21 46  1  0
 21 47  1  0
 22 48  1  0
 22 49  1  0
 23 50  1  0
 24 51  1  0
M  CHG  1  11   1
M  END
>  <UniqueID>  (22) 
21

>  <SMILES>  (22) 
COc1ccc(CN2CC[NH+](Cc3ccc(OC)cc3)CC2)cc1

>  <Energy>  (22) 
64.41003532801302

>  <Genealogy>  (22) 
COc1ccc(CN2CC[NH+](Cc3ccc(OC)cc3)CC2)cc1 (protonated)
COc1ccc(CN2CC[NH+](Cc3ccc(OC)cc3)CC2)cc1 (3D coordinates assigned)
COc1ccc(CN2CC[NH+](Cc3ccc(OC)cc3)CC2)cc1 (nonaromatic ring conformer: 64.41003532801302 kcal/mol)

>  <smiles>  (22) 
COc1ccc(CN2CCN(Cc3ccc(OC)cc3)CC2)cc1

>  <score_type>  (22) 
oracle

>  <origin>  (22) 
adg

>  <m_score__min__energy>  (22) 
-7.2000000000000002

>  <m_primary>  (22) 
energy

$$$$
22:0
     RDKit          3D

 50 51  0  0  0  0  0  0  0  0999 V2000
   -3.3240   20.7830  -29.7750 C   0  0  0  0  0  0  0  0  0  0  0  0
   -4.4690   21.2600  -30.4780 O   0  0  0  0  0  0  0  0  0  0  0  0
   -4.8080   22.6190  -30.6070 C   0  0  0  0  0  0  0  0  0  0  0  0
   -3.9060   23.6470  -30.2710 C   0  0  0  0  0  0  0  0  0  0  0  0
   -4.2730   24.9890  -30.4140 C   0  0  0  0  0  0  0  0  0  0  0  0
   -5.5450   25.3220  -30.8830 C   0  0  0  0  0  0  0  0  0  0  0  0
   -6.4480   24.3150  -31.2210 C   0  0  0  0  0  0  0  0  0  0  0  0
   -6.0840   22.9600  -31.1010 C   0  0  0  0  0  0  0  0  0  0  0  0
   -7.0620   21.9070  -31.4690 C   0  0  0  0  0  0  0  0  0  0  0  0
   -8.3140   21.9210  -30.8260 C   0  0  0  0  0  0  0  0  0  0  0  0
   -9.3140   21.0220  -31.1970 C   0  0  0  0  0  0  0  0  0  0  0  0
   -9.0920   20.1230  -32.2370 C   0  0  0  0  0  0  0  0  0  0  0  0
   -7.8540   20.0910  -32.8850 C   0  0  0  0  0  0  0  0  0  0  0  0
   -6.7990   20.9330  -32.4750 C   0  0  0  0  0  0  0  0  0  0  0  0
   -5.4450   20.8380  -33.1800 C   0  0  0  0  0  0  0  0  0  0  0  0
   -4.5530   19.7440  -32.6530 N   0  0  0  0  0  0  0  0  0  0  0  0
   -3.1020   20.0790  -32.8900 C   0  0  0  0  0  0  0  0  0  0  0  0
   -2.8780   21.5070  -33.4280 C   0  0  0  0  0  0  0  0  0  0  0  0
   -2.4510   19.1050  -33.8970 C   0  0  0  0  0  0  0  0  0  0  0  0
   -5.0170   18.4210  -33.2110 C   0  0  0  0  0  0  0  0  0  0  0  0
   -5.8750   17.6000  -32.2310 C   0  0  0  0  0  0  0  0  0  0  0  0
   -5.6770   18.5130  -34.6050 C   0  0  0  0  0  0  0  0  0  0  0  0
   -3.5016   20.8570  -28.6920 H   0  0  0  0  0  0  0  0  0  0  0  0
   -3.1389   19.7329  -30.0453 H   0  0  0  0  0  0  0  0  0  0  0  0
   -2.4481   21.3911  -30.0453 H   0  0  0  0  0  0  0  0  0  0  0  0
   -2.9048   23.3924  -29.8931 H   0  0  0  0  0  0  0  0  0  0  0  0
   -3.5577   25.7839  -30.1563 H   0  0  0  0  0  0  0  0  0  0  0  0
   -5.8346   26.3782  -30.9858 H   0  0  0  0  0  0  0  0  0  0  0  0
   -7.4518   24.5808  -31.5840 H   0  0  0  0  0  0  0  0  0  0  0  0
   -8.5058   22.6480  -30.0231 H   0  0  0  0  0  0  0  0  0  0  0  0
  -10.2783   21.0232  -30.6678 H   0  0  0  0  0  0  0  0  0  0  0  0
   -9.8927   19.4365  -32.5493 H   0  0  0  0  0  0  0  0  0  0  0  0
   -7.7002   19.3995  -33.7265 H   0  0  0  0  0  0  0  0  0  0  0  0
   -5.6245   20.6525  -34.2493 H   0  0  0  0  0  0  0  0  0  0  0  0
   -4.9237   21.7890  -32.9957 H   0  0  0  0  0  0  0  0  0  0  0  0
   -4.6710   19.6820  -31.6170 H   0  0  0  0  0  0  0  0  0  0  0  0
   -2.6363   19.9928  -31.8972 H   0  0  0  0  0  0  0  0  0  0  0  0
   -2.7687   22.2039  -32.5840 H   0  0  0  0  0  0  0  0  0  0  0  0
   -1.9655   21.5286  -34.0419 H   0  0  0  0  0  0  0  0  0  0  0  0
   -3.7401   21.8070  -34.0419 H   0  0  0  0  0  0  0  0  0  0  0  0
   -1.9208   18.3118  -33.3495 H   0  0  0  0  0  0  0  0  0  0  0  0
   -3.2310   18.6558  -34.5293 H   0  0  0  0  0  0  0  0  0  0  0  0
   -1.7376   19.6539  -34.5293 H   0  0  0  0  0  0  0  0  0  0  0  0
   -4.0800   17.8631  -33.3551 H   0  0  0  0  0  0  0  0  0  0  0  0
   -5.6024   17.8609  -31.1977 H   0  0  0  0  0  0  0  0  0  0  0  0
   -6.9387   17.8252  -32.3976 H   0  0  0  0  0  0  0  0  0  0  0  0
   -5.6969   16.5274  -32.3976 H   0  0  0  0  0  0  0  0  0  0  0  0
   -6.7603   18.6640  -34.4885 H   0  0  0  0  0  0  0  0  0  0  0  0
   -5.2463   19.3598  -35.1595 H   0  0  0  0  0  0  0  0  0  0  0  0
   -5.4943   17.5807  -35.1595 H   0  0  0  0  0  0  0  0  0  0  0  0
  1  2  1  0
  2  3  1  0
  3  4  2  0
  4  5  1  0
  5  6  2  0
  6  7  1  0
  7  8  2  0
  8  9  1  0
  9 10  2  0
 10 11  1  0
 11 12  2  0
 12 13  1  0
 13 14  2  0
 14 15  1  0
 15 16  1  0
 16 17  1  0
 17 18  1  0
 17 19  1  0
 16 20  1  0
 20 21  1  0
 20 22  1  0
  8  3  1  0
 14  9  1  0
  1 23  1  0
  1 24  1  0
  1 25  1  0
  4 26  1  0
  5 27  1  0
  6 28  1  0
  7 29  1  0
 10 30  1  0
 11 31  1  0
 12 32  1  0
 13 33  1  0
 15 34  1  0
 15 35  1  0
 16 36  1  0
 17 37  1  0
 18 38  1  0
 18 39  1  0
 18 40  1  0
 19 41  1  0
 19 42  1  0
 19 43  1  0
 20 44  1  0
 21 45  1  0
 21 46  1  0
 21 47  1  0
 22 48  1  0
 22 49  1  0
 22 50  1  0
M  CHG  1  16   1
M  END
>  <UniqueID>  (23) 
22

>  <SMILES>  (23) 
COc1ccccc1-c1ccccc1C[NH+](C(C)C)C(C)C

>  <Energy>  (23) 
73.74154710975276

>  <Genealogy>  (23) 
COc1ccccc1-c1ccccc1C[NH+](C(C)C)C(C)C (protonated)
COc1ccccc1-c1ccccc1C[NH+](C(C)C)C(C)C (3D coordinates assigned)
COc1ccccc1-c1ccccc1C[NH+](C(C)C)C(C)C (optimized conformer: 73.74154710975276 kcal/mol)

>  <smiles>  (23) 
COc1ccccc1-c1ccccc1CN(C(C)C)C(C)C

>  <score_type>  (23) 
oracle

>  <origin>  (23) 
adg

>  <m_score__min__energy>  (23) 
-7.3799999999999999

>  <m_primary>  (23) 
energy

$$$$
23:0
     RDKit          3D

 30 31  0  0  0  0  0  0  0  0999 V2000
    0.1640   25.3590  -26.0250 C   0  0  0  0  0  0  0  0  0  0  0  0
   -0.5200   25.4330  -27.0160 C   0  0  0  0  0  0  0  0  0  0  0  0
   -1.3350   25.5210  -28.1970 C   0  0  0  0  0  0  0  0  0  0  0  0
   -1.2000   26.5070  -28.9710 O   0  0  0  0  0  0  0  0  0  0  0  0
   -2.3360   24.4530  -28.5160 C   0  0  0  0  0  0  0  0  0  0  0  0
   -3.2300   24.8840  -29.5920 N   0  0  0  0  0  0  0  0  0  0  0  0
   -4.4940   24.2570  -29.8520 C   0  0  0  0  0  0  0  0  0  0  0  0
   -5.0660   23.0450  -28.9070 S   0  0  0  0  0  0  0  0  0  0  0  0
   -5.4830   24.8120  -31.2370 S   0  0  0  0  0  0  0  0  0  0  0  0
   -5.9130   23.1390  -31.7160 C   0  0  0  0  0  0  0  0  0  0  0  0
   -4.9470   22.3080  -32.2950 C   0  0  0  0  0  0  0  0  0  0  0  0
   -5.2710   21.0000  -32.6640 C   0  0  0  0  0  0  0  0  0  0  0  0
   -6.5710   20.5120  -32.4580 C   0  0  0  0  0  0  0  0  0  0  0  0
   -6.9090   19.2000  -32.8240 C   0  0  0  0  0  0  0  0  0  0  0  0
   -8.2070   18.7250  -32.6130 C   0  0  0  0  0  0  0  0  0  0  0  0
   -9.1750   19.5540  -32.0390 C   0  0  0  0  0  0  0  0  0  0  0  0
   -8.8510   20.8630  -31.6710 C   0  0  0  0  0  0  0  0  0  0  0  0
   -7.5520   21.3520  -31.8770 C   0  0  0  0  0  0  0  0  0  0  0  0
   -7.2140   22.6640  -31.5110 C   0  0  0  0  0  0  0  0  0  0  0  0
    0.7877   25.2915  -25.1214 H   0  0  0  0  0  0  0  0  0  0  0  0
   -1.8045   23.5430  -28.8313 H   0  0  0  0  0  0  0  0  0  0  0  0
   -2.9371   24.2528  -27.6168 H   0  0  0  0  0  0  0  0  0  0  0  0
   -2.9440   25.6740  -30.2150 H   0  0  0  0  0  0  0  0  0  0  0  0
   -3.9275   22.6866  -32.4604 H   0  0  0  0  0  0  0  0  0  0  0  0
   -4.5063   20.3516  -33.1166 H   0  0  0  0  0  0  0  0  0  0  0  0
   -6.1514   18.5441  -33.2777 H   0  0  0  0  0  0  0  0  0  0  0  0
   -8.4673   17.6954  -32.8997 H   0  0  0  0  0  0  0  0  0  0  0  0
  -10.1948   19.1752  -31.8764 H   0  0  0  0  0  0  0  0  0  0  0  0
   -9.6161   21.5112  -31.2189 H   0  0  0  0  0  0  0  0  0  0  0  0
   -7.9733   23.3210  -31.0618 H   0  0  0  0  0  0  0  0  0  0  0  0
  1  2  3  0
  2  3  1  0
  3  4  2  0
  3  5  1  0
  5  6  1  0
  6  7  1  0
  7  8  2  0
  7  9  1  0
  9 10  1  0
 10 11  2  0
 11 12  1  0
 12 13  2  0
 13 14  1  0
 14 15  2  0
 15 16  1  0
 16 17  2  0
 17 18  1  0
 18 19  2  0
 19 10  1  0
 18 13  1  0
  1 20  1  0
  5 21  1  0
  5 22  1  0
  6 23  1  0
 11 24  1  0
 12 25  1  0
 14 26  1  0
 15 27  1  0
 16 28  1  0
 17 29  1  0
 19 30  1  0
M  END
>  <UniqueID>  (24) 
23

>  <SMILES>  (24) 
C#CC(=O)CNC(=S)Sc1ccc2ccccc2c1

>  <Energy>  (24) 
23.76787236886955

>  <Genealogy>  (24) 
C#CC(=O)CNC(=S)Sc1ccc2ccccc2c1 (3D coordinates assigned)
C#CC(=O)CNC(=S)Sc1ccc2ccccc2c1 (optimized conformer: 23.76787236886955 kcal/mol)

>  <smiles>  (24) 
C#CC(=O)CNC(=S)Sc1ccc2ccccc2c1

>  <score_type>  (24) 
oracle

>  <origin>  (24) 
adg

>  <m_score__min__energy>  (24) 
-8.6199999999999992

>  <m_primary>  (24) 
energy

$$$$
24:0
     RDKit          3D

 42 45  0  0  0  0  0  0  0  0999 V2000
   -5.3490   24.7590  -30.1960 C   0  0  0  0  0  0  0  0  0  0  0  0
   -4.2290   24.1600  -30.8420 O   0  0  0  0  0  0  0  0  0  0  0  0
   -4.2190   22.8580  -31.3630 C   0  0  0  0  0  0  0  0  0  0  0  0
   -4.5240   22.6810  -32.7180 C   0  0  0  0  0  0  0  0  0  0  0  0
   -4.5250   21.4040  -33.2850 C   0  0  0  0  0  0  0  0  0  0  0  0
   -4.2150   20.2830  -32.5020 C   0  0  0  0  0  0  0  0  0  0  0  0
   -4.1970   18.9660  -33.0920 N   0  0  0  0  0  0  0  0  0  0  0  0
   -5.3400   18.1970  -33.1320 C   0  0  0  0  0  0  0  0  0  0  0  0
   -6.6480   18.7220  -32.6660 C   0  0  0  0  0  0  0  0  0  0  0  0
   -7.2000   19.8800  -33.2390 C   0  0  0  0  0  0  0  0  0  0  0  0
   -8.4320   20.3680  -32.7910 C   0  0  0  0  0  0  0  0  0  0  0  0
   -9.1240   19.6980  -31.7790 C   0  0  0  0  0  0  0  0  0  0  0  0
   -8.5890   18.5370  -31.2160 C   0  0  0  0  0  0  0  0  0  0  0  0
   -7.3570   18.0460  -31.6600 C   0  0  0  0  0  0  0  0  0  0  0  0
   -5.2900   16.9250  -33.6190 N   0  0  0  0  0  0  0  0  0  0  0  0
   -4.1350   16.3940  -34.0990 C   0  0  0  0  0  0  0  0  0  0  0  0
   -4.1120   15.0840  -34.6080 C   0  0  0  0  0  0  0  0  0  0  0  0
   -2.9220   14.5440  -35.1050 C   0  0  0  0  0  0  0  0  0  0  0  0
   -1.7500   15.3040  -35.0960 C   0  0  0  0  0  0  0  0  0  0  0  0
   -1.7620   16.6070  -34.5920 C   0  0  0  0  0  0  0  0  0  0  0  0
   -2.9550   17.1620  -34.0910 C   0  0  0  0  0  0  0  0  0  0  0  0
   -3.0130   18.4630  -33.5680 C   0  0  0  0  0  0  0  0  0  0  0  0
   -1.9630   19.1660  -33.5240 O   0  0  0  0  0  0  0  0  0  0  0  0
   -3.9150   20.4540  -31.1430 C   0  0  0  0  0  0  0  0  0  0  0  0
   -3.9140   21.7310  -30.5750 C   0  0  0  0  0  0  0  0  0  0  0  0
   -5.2226   24.6914  -29.1054 H   0  0  0  0  0  0  0  0  0  0  0  0
   -5.4209   25.8160  -30.4920 H   0  0  0  0  0  0  0  0  0  0  0  0
   -6.2681   24.2320  -30.4920 H   0  0  0  0  0  0  0  0  0  0  0  0
   -4.7649   23.5547  -33.3414 H   0  0  0  0  0  0  0  0  0  0  0  0
   -4.7700   21.2776  -34.3499 H   0  0  0  0  0  0  0  0  0  0  0  0
   -6.6618   20.4044  -34.0423 H   0  0  0  0  0  0  0  0  0  0  0  0
   -8.8564   21.2801  -33.2359 H   0  0  0  0  0  0  0  0  0  0  0  0
  -10.0910   20.0851  -31.4253 H   0  0  0  0  0  0  0  0  0  0  0  0
   -9.1373   18.0082  -30.4224 H   0  0  0  0  0  0  0  0  0  0  0  0
   -6.9421   17.1273  -31.2197 H   0  0  0  0  0  0  0  0  0  0  0  0
   -6.1660   16.3520  -33.6420 H   0  0  0  0  0  0  0  0  0  0  0  0
   -5.0327   14.4821  -34.6153 H   0  0  0  0  0  0  0  0  0  0  0  0
   -2.9086   13.5189  -35.5038 H   0  0  0  0  0  0  0  0  0  0  0  0
   -0.8153   14.8755  -35.4867 H   0  0  0  0  0  0  0  0  0  0  0  0
   -0.8363   17.2012  -34.5866 H   0  0  0  0  0  0  0  0  0  0  0  0
   -3.6791   19.5783  -30.5205 H   0  0  0  0  0  0  0  0  0  0  0  0
   -3.6742   21.8564  -29.5088 H   0  0  0  0  0  0  0  0  0  0  0  0
  1  2  1  0
  2  3  1  0
  3  4  2  0
  4  5  1  0
  5  6  2  0
  6  7  1  0
  7  8  1  0
  8  9  1  0
  9 10  2  0
 10 11  1  0
 11 12  2  0
 12 13  1  0
 13 14  2  0
  8 15  2  0
 15 16  1  0
 16 17  2  0
 17 18  1  0
 18 19  2  0
 19 20  1  0
 20 21  2  0
 21 22  1  0
 22 23  2  0
  6 24  1  0
 24 25  2  0
 25  3  1  0
 22  7  1  0
 14  9  1  0
 21 16  1  0
  1 26  1  0
  1 27  1  0
  1 28  1  0
  4 29  1  0
  5 30  1  0
 10 31  1  0
 11 32  1  0
 12 33  1  0
 13 34  1  0
 14 35  1  0
 15 36  1  0
 17 37  1  0
 18 38  1  0
 19 39  1  0
 20 40  1  0
 24 41  1  0
 25 42  1  0
M  CHG  1  15   1
M  END
>  <UniqueID>  (25) 
24

>  <SMILES>  (25) 
COc1ccc(-n2c(-c3ccccc3)[nH+]c3ccccc3c2=O)cc1

>  <Energy>  (25) 
66.35107988096128

>  <Genealogy>  (25) 
COc1ccc(-n2c(-c3ccccc3)[nH+]c3ccccc3c2=O)cc1 (protonated)
COc1ccc(-n2c(-c3ccccc3)[nH+]c3ccccc3c2=O)cc1 (3D coordinates assigned)
COc1ccc(-n2c(-c3ccccc3)[nH+]c3ccccc3c2=O)cc1 (optimized conformer: 66.35107988096128 kcal/mol)

>  <smiles>  (25) 
COc1ccc(-n2c(-c3ccccc3)nc3ccccc3c2=O)cc1

>  <score_type>  (25) 
oracle

>  <origin>  (25) 
adg

>  <m_score__min__energy>  (25) 
-7.1200000000000001

>  <m_primary>  (25) 
energy

$$$$
25:0
     RDKit          3D

 33 34  0  0  0  0  0  0  0  0999 V2000
   -5.6470   17.8800  -34.6470 C   0  0  0  0  0  0  0  0  0  0  0  0
   -6.3270   16.9440  -33.6500 C   0  0  0  0  0  0  0  0  0  0  0  0
   -6.5890   17.6020  -32.2850 C   0  0  0  0  0  0  0  0  0  0  0  0
   -7.9940   18.2320  -32.1630 C   0  0  0  0  0  0  0  0  0  0  0  0
   -8.1540   19.3740  -33.0780 N   0  0  0  0  0  0  0  0  0  0  0  0
   -7.8410   20.6040  -32.3930 C   0  0  0  0  0  0  0  0  0  0  0  0
   -8.8690   21.4660  -31.9770 C   0  0  0  0  0  0  0  0  0  0  0  0
   -8.5700   22.6730  -31.3400 C   0  0  0  0  0  0  0  0  0  0  0  0
   -7.2360   23.0420  -31.1170 C   0  0  0  0  0  0  0  0  0  0  0  0
   -6.9250   24.2530  -30.4790 C   0  0  0  0  0  0  0  0  0  0  0  0
   -5.5910   24.6120  -30.2680 C   0  0  0  0  0  0  0  0  0  0  0  0
   -4.5600   23.7690  -30.6900 C   0  0  0  0  0  0  0  0  0  0  0  0
   -4.8560   22.5590  -31.3270 C   0  0  0  0  0  0  0  0  0  0  0  0
   -6.1920   22.1870  -31.5450 C   0  0  0  0  0  0  0  0  0  0  0  0
   -6.5010   20.9760  -32.1830 C   0  0  0  0  0  0  0  0  0  0  0  0
   -5.0858   18.6524  -34.1007 H   0  0  0  0  0  0  0  0  0  0  0  0
   -4.9561   17.3030  -35.2792 H   0  0  0  0  0  0  0  0  0  0  0  0
   -6.4093   18.3587  -35.2792 H   0  0  0  0  0  0  0  0  0  0  0  0
   -7.2896   16.6215  -34.0734 H   0  0  0  0  0  0  0  0  0  0  0  0
   -5.6466   16.0966  -33.4798 H   0  0  0  0  0  0  0  0  0  0  0  0
   -6.4822   16.8357  -31.5031 H   0  0  0  0  0  0  0  0  0  0  0  0
   -5.8587   18.4170  -32.1738 H   0  0  0  0  0  0  0  0  0  0  0  0
   -8.7496   17.4705  -32.4061 H   0  0  0  0  0  0  0  0  0  0  0  0
   -8.1215   18.5948  -31.1324 H   0  0  0  0  0  0  0  0  0  0  0  0
   -9.1330   19.4170  -33.4420 H   0  0  0  0  0  0  0  0  0  0  0  0
   -7.5160   19.2560  -33.8990 H   0  0  0  0  0  0  0  0  0  0  0  0
   -9.9185   21.1884  -32.1543 H   0  0  0  0  0  0  0  0  0  0  0  0
   -9.3842   23.3361  -31.0123 H   0  0  0  0  0  0  0  0  0  0  0  0
   -7.7327   24.9206  -30.1445 H   0  0  0  0  0  0  0  0  0  0  0  0
   -5.3518   25.5620  -29.7677 H   0  0  0  0  0  0  0  0  0  0  0  0
   -3.5121   24.0575  -30.5209 H   0  0  0  0  0  0  0  0  0  0  0  0
   -4.0409   21.8984  -31.6574 H   0  0  0  0  0  0  0  0  0  0  0  0
   -5.6904   20.3137  -32.5209 H   0  0  0  0  0  0  0  0  0  0  0  0
  1  2  1  0
  2  3  1  0
  3  4  1  0
  4  5  1  0
  5  6  1  0
  6  7  2  0
  7  8  1  0
  8  9  2  0
  9 10  1  0
 10 11  2  0
 11 12  1  0
 12 13  2  0
 13 14  1  0
 14 15  2  0
 15  6  1  0
 14  9  1  0
  1 16  1  0
  1 17  1  0
  1 18  1  0
  2 19  1  0
  2 20  1  0
  3 21  1  0
  3 22  1  0
  4 23  1  0
  4 24  1  0
  5 25  1  0
  5 26  1  0
  7 27  1  0
  8 28  1  0
 10 29  1  0
 11 30  1  0
 12 31  1  0
 13 32  1  0
 15 33  1  0
M  CHG  1   5   1
M  END
>  <UniqueID>  (26) 
25

>  <SMILES>  (26) 
CCCC[NH2+]c1ccc2ccccc2c1

>  <Energy>  (26) 
32.96264972942981

>  <Genealogy>  (26) 
CCCC[NH2+]c1ccc2ccccc2c1 (protonated)
CCCC[NH2+]c1ccc2ccccc2c1 (3D coordinates assigned)
CCCC[NH2+]c1ccc2ccccc2c1 (optimized conformer: 32.96264972942981 kcal/mol)

>  <smiles>  (26) 
CCCCNc1ccc2ccccc2c1

>  <score_type>  (26) 
oracle

>  <origin>  (26) 
adg

>  <m_score__min__energy>  (26) 
-6.1500000000000004

>  <m_primary>  (26) 
energy

$$$$
26:0
     RDKit          3D

 55 57  0  0  0  0  0  0  0  0999 V2000
   -5.1796   23.0286  -27.1483 H   0  0  0  0  0  0  0  0  0  0  0  0
   -4.2130   23.5290  -27.3070 C   0  0  0  0  0  0  0  0  0  0  0  0
   -4.0950   24.7660  -26.9190 N   0  0  0  0  0  0  0  0  0  0  0  0
   -3.3410   25.1800  -25.8390 O   0  0  0  0  0  0  0  0  0  0  0  0
   -2.0240   25.6960  -25.9980 C   0  0  0  0  0  0  0  0  0  0  0  0
   -2.0486   26.7936  -25.9301 H   0  0  0  0  0  0  0  0  0  0  0  0
   -1.6284   25.4007  -26.9810 H   0  0  0  0  0  0  0  0  0  0  0  0
   -1.1280   25.1370  -24.8970 C   0  0  0  0  0  0  0  0  0  0  0  0
   -1.7111   24.4536  -24.2622 H   0  0  0  0  0  0  0  0  0  0  0  0
   -0.7395   25.9654  -24.2864 H   0  0  0  0  0  0  0  0  0  0  0  0
    0.0080   24.3980  -25.5060 N   0  0  0  0  0  0  0  0  0  0  0  0
    0.0870   24.6280  -26.9670 C   0  0  0  0  0  0  0  0  0  0  0  0
   -0.2414   25.6548  -27.1857 H   0  0  0  0  0  0  0  0  0  0  0  0
   -0.5622   23.8948  -27.4679 H   0  0  0  0  0  0  0  0  0  0  0  0
    1.5120   24.4410  -27.4860 C   0  0  0  0  0  0  0  0  0  0  0  0
    2.2032   24.3503  -26.6351 H   0  0  0  0  0  0  0  0  0  0  0  0
    1.5625   23.5285  -28.0983 H   0  0  0  0  0  0  0  0  0  0  0  0
    1.7962   25.3096  -28.0983 H   0  0  0  0  0  0  0  0  0  0  0  0
   -0.0680   22.9450  -25.2290 C   0  0  0  0  0  0  0  0  0  0  0  0
   -0.8061   22.4913  -25.9068 H   0  0  0  0  0  0  0  0  0  0  0  0
    0.9314   22.5136  -25.3875 H   0  0  0  0  0  0  0  0  0  0  0  0
   -0.4840   22.6640  -23.7840 C   0  0  0  0  0  0  0  0  0  0  0  0
    0.2281   23.1450  -23.0973 H   0  0  0  0  0  0  0  0  0  0  0  0
   -1.4923   23.0667  -23.6078 H   0  0  0  0  0  0  0  0  0  0  0  0
   -0.4869   21.5782  -23.6078 H   0  0  0  0  0  0  0  0  0  0  0  0
   -3.1230   22.7510  -27.9510 C   0  0  0  0  0  0  0  0  0  0  0  0
   -2.8090   21.4590  -27.4830 C   0  0  0  0  0  0  0  0  0  0  0  0
   -3.4132   21.0082  -26.6819 H   0  0  0  0  0  0  0  0  0  0  0  0
   -1.7390   20.7460  -28.0260 C   0  0  0  0  0  0  0  0  0  0  0  0
   -1.5180   19.7301  -27.6668 H   0  0  0  0  0  0  0  0  0  0  0  0
   -0.9500   21.3180  -29.0220 C   0  0  0  0  0  0  0  0  0  0  0  0
   -0.1129   20.7500  -29.4539 H   0  0  0  0  0  0  0  0  0  0  0  0
   -1.2210   22.6110  -29.4720 C   0  0  0  0  0  0  0  0  0  0  0  0
   -0.5802   23.0648  -30.2424 H   0  0  0  0  0  0  0  0  0  0  0  0
   -2.3040   23.3390  -28.9510 C   0  0  0  0  0  0  0  0  0  0  0  0
   -2.5330   24.7140  -29.4530 C   0  0  0  0  0  0  0  0  0  0  0  0
   -1.8650   25.6650  -28.9700 O   0  0  0  0  0  0  0  0  0  0  0  0
   -3.5230   25.0000  -30.4480 N   0  0  0  0  0  0  0  0  0  0  0  0
   -4.7410   24.2700  -30.6450 C   0  0  0  0  0  0  0  0  0  0  0  0
   -5.9450   24.8290  -30.2020 C   0  0  0  0  0  0  0  0  0  0  0  0
   -5.9362   25.7936  -29.6734 H   0  0  0  0  0  0  0  0  0  0  0  0
   -7.1580   24.1730  -30.4250 C   0  0  0  0  0  0  0  0  0  0  0  0
   -8.0960   24.6144  -30.0573 H   0  0  0  0  0  0  0  0  0  0  0  0
   -7.1830   22.9540  -31.1160 C   0  0  0  0  0  0  0  0  0  0  0  0
   -8.3980   22.2970  -31.3640 C   0  0  0  0  0  0  0  0  0  0  0  0
   -9.3425   22.7387  -31.0137 H   0  0  0  0  0  0  0  0  0  0  0  0
   -8.4100   21.0830  -32.0550 C   0  0  0  0  0  0  0  0  0  0  0  0
   -9.3633   20.5650  -32.2362 H   0  0  0  0  0  0  0  0  0  0  0  0
   -7.2150   20.5240  -32.5170 C   0  0  0  0  0  0  0  0  0  0  0  0
   -7.2303   19.5673  -33.0596 H   0  0  0  0  0  0  0  0  0  0  0  0
   -6.0010   21.1780  -32.2910 C   0  0  0  0  0  0  0  0  0  0  0  0
   -5.0649   20.7428  -32.6710 H   0  0  0  0  0  0  0  0  0  0  0  0
   -5.9720   22.3880  -31.5810 C   0  0  0  0  0  0  0  0  0  0  0  0
   -4.7580   23.0470  -31.3410 C   0  0  0  0  0  0  0  0  0  0  0  0
   -3.8154   22.6065  -31.6980 H   0  0  0  0  0  0  0  0  0  0  0  0
  1  2  1  0
  2  3  2  0
  3  4  1  0
  4  5  1  0
  5  6  1  0
  5  7  1  0
  5  8  1  0
  8  9  1  0
  8 10  1  0
  8 11  1  0
 11 12  1  0
 12 13  1  0
 12 14  1  0
 12 15  1  0
 15 16  1  0
 15 17  1  0
 15 18  1  0
 11 19  1  0
 19 20  1  0
 19 21  1  0
 19 22  1  0
 22 23  1  0
 22 24  1  0
 22 25  1  0
  2 26  1  0
 26 27  2  0
 27 28  1  0
 27 29  1  0
 29 30  1  0
 29 31  2  0
 31 32  1  0
 31 33  1  0
 33 34  1  0
 33 35  2  0
 35 36  1  0
 36 37  2  0
 36 38  1  0
 38 39  1  0
 39 40  2  0
 40 41  1  0
 40 42  1  0
 42 43  1  0
 42 44  2  0
 44 45  1  0
 45 46  1  0
 45 47  2  0
 47 48  1  0
 47 49  1  0
 49 50  1  0
 49 51  2  0
 51 52  1  0
 51 53  1  0
 53 54  2  0
 54 55  1  0
 35 26  1  0
 54 39  1  0
 53 44  1  0
M  CHG  1  38  -1
M  END
>  <UniqueID>  (27) 
26

>  <SMILES>  (27) 
CCN(CC)CCO/N=C\c1ccccc1C(=O)[N-]c1ccc2ccccc2c1

>  <Energy>  (27) 
70.93828352495714

>  <Genealogy>  (27) 
CCN(CC)CCON=Cc1ccccc1C(=O)[N-]c1ccc2ccccc2c1 (protonated)
CCN(CC)CCO/N=C\c1ccccc1C(=O)[N-]c1ccc2ccccc2c1 (cis-trans isomerization)
CCN(CC)CCO/N=C\c1ccccc1C(=O)[N-]c1ccc2ccccc2c1 (3D coordinates assigned)
CCN(CC)CCO/N=C\c1ccccc1C(=O)[N-]c1ccc2ccccc2c1 (optimized conformer: 70.93828352495714 kcal/mol)

>  <smiles>  (27) 
CCN(CC)CCON=Cc1ccccc1C(=O)Nc1ccc2ccccc2c1

>  <score_type>  (27) 
oracle

>  <origin>  (27) 
adg

>  <m_score__min__energy>  (27) 
-10.449999999999999

>  <m_primary>  (27) 
energy

$$$$
27:0
     RDKit          3D

 33 34  0  0  0  0  0  0  0  0999 V2000
   -4.2190   25.6710  -31.6100 H   0  0  0  0  0  0  0  0  0  0  0  0
   -4.5780   24.9910  -30.9080 N   0  0  0  0  0  0  0  0  0  0  0  0
   -5.1770   23.8620  -31.1500 C   0  0  0  0  0  0  0  0  0  0  0  0
   -6.5220   23.8960  -31.2840 N   0  0  0  0  0  0  0  0  0  0  0  0
   -7.2500   22.7970  -31.5640 C   0  0  0  0  0  0  0  0  0  0  0  0
   -8.6410   22.9060  -31.6670 C   0  0  0  0  0  0  0  0  0  0  0  0
   -9.1268   23.8817  -31.5185 H   0  0  0  0  0  0  0  0  0  0  0  0
   -9.4130   21.7830  -31.9570 C   0  0  0  0  0  0  0  0  0  0  0  0
  -10.5062   21.8726  -32.0406 H   0  0  0  0  0  0  0  0  0  0  0  0
   -8.7980   20.5460  -32.1410 C   0  0  0  0  0  0  0  0  0  0  0  0
   -9.4085   19.6582  -32.3627 H   0  0  0  0  0  0  0  0  0  0  0  0
   -7.4090   20.4290  -32.0450 C   0  0  0  0  0  0  0  0  0  0  0  0
   -6.9340   19.4478  -32.1922 H   0  0  0  0  0  0  0  0  0  0  0  0
   -6.6060   21.5610  -31.7600 C   0  0  0  0  0  0  0  0  0  0  0  0
   -5.1860   21.5190  -31.6540 C   0  0  0  0  0  0  0  0  0  0  0  0
   -4.4550   20.2060  -31.9370 C   0  0  0  0  0  0  0  0  0  0  0  0
   -3.4289   20.2764  -31.5469 H   0  0  0  0  0  0  0  0  0  0  0  0
   -5.0050   19.3906  -31.4444 H   0  0  0  0  0  0  0  0  0  0  0  0
   -4.3980   19.9110  -33.4350 C   0  0  0  0  0  0  0  0  0  0  0  0
   -4.1914   18.8418  -33.5906 H   0  0  0  0  0  0  0  0  0  0  0  0
   -5.3626   20.1690  -33.8965 H   0  0  0  0  0  0  0  0  0  0  0  0
   -3.5989   20.5098  -33.8965 H   0  0  0  0  0  0  0  0  0  0  0  0
   -4.4920   22.6660  -31.2840 N   0  0  0  0  0  0  0  0  0  0  0  0
   -3.0280   22.6220  -31.0420 C   0  0  0  0  0  0  0  0  0  0  0  0
   -2.6039   21.7468  -31.5560 H   0  0  0  0  0  0  0  0  0  0  0  0
   -2.5792   23.5487  -31.4289 H   0  0  0  0  0  0  0  0  0  0  0  0
   -2.7250   22.5190  -29.5390 C   0  0  0  0  0  0  0  0  0  0  0  0
   -3.6354   22.1997  -29.0106 H   0  0  0  0  0  0  0  0  0  0  0  0
   -1.9165   21.7869  -29.3963 H   0  0  0  0  0  0  0  0  0  0  0  0
   -2.2670   23.8600  -28.9750 C   0  0  0  0  0  0  0  0  0  0  0  0
   -2.2808   23.8195  -27.8758 H   0  0  0  0  0  0  0  0  0  0  0  0
   -1.2450   24.0736  -29.3212 H   0  0  0  0  0  0  0  0  0  0  0  0
   -2.9449   24.6541  -29.3212 H   0  0  0  0  0  0  0  0  0  0  0  0
  1  2  1  0
  2  3  2  0
  3  4  1  0
  4  5  1  0
  5  6  2  0
  6  7  1  0
  6  8  1  0
  8  9  1  0
  8 10  2  0
 10 11  1  0
 10 12  1  0
 12 13  1  0
 12 14  2  0
 14 15  1  0
 15 16  1  0
 16 17  1  0
 16 18  1  0
 16 19  1  0
 19 20  1  0
 19 21  1  0
 19 22  1  0
 15 23  2  0
 23 24  1  0
 24 25  1  0
 24 26  1  0
 24 27  1  0
 27 28  1  0
 27 29  1  0
 27 30  1  0
 30 31  1  0
 30 32  1  0
 30 33  1  0
 23  3  1  0
 14  5  1  0
M  CHG  2   4  -1  23   1
M  END
>  <UniqueID>  (28) 
27

>  <SMILES>  (28) 
[H]/N=c1/[n-]c2ccccc2c(CC)[n+]1CCC

>  <Energy>  (28) 
42.589419134814804

>  <Genealogy>  (28) 
CCC[n+]1c(CC)c2ccccc2[n-]c1=N (protonated)
[H]/N=c1/[n-]c2ccccc2c(CC)[n+]1CCC (cis-trans isomerization)
[H]/N=c1/[n-]c2ccccc2c(CC)[n+]1CCC (3D coordinates assigned)
[H]/N=c1/[n-]c2ccccc2c(CC)[n+]1CCC (optimized conformer: 42.589419134814804 kcal/mol)

>  <smiles>  (28) 
CCC[n+]1c(CC)c2ccccc2[nH]c1=N

>  <score_type>  (28) 
oracle

>  <origin>  (28) 
adg

>  <m_score__min__energy>  (28) 
-6.46

>  <m_primary>  (28) 
energy

$$$$
28:0
     RDKit          3D

 40 42  0  0  0  0  0  0  0  0999 V2000
   -5.4460   25.9800  -30.4580 C   0  0  0  0  0  0  0  0  0  0  0  0
   -4.9800   24.9330  -31.3040 O   0  0  0  0  0  0  0  0  0  0  0  0
   -5.5350   23.6440  -31.3540 C   0  0  0  0  0  0  0  0  0  0  0  0
   -6.8880   23.4250  -31.6700 C   0  0  0  0  0  0  0  0  0  0  0  0
   -7.4110   22.1250  -31.7200 C   0  0  0  0  0  0  0  0  0  0  0  0
   -6.5800   21.0280  -31.4220 C   0  0  0  0  0  0  0  0  0  0  0  0
   -5.2290   21.2480  -31.1120 C   0  0  0  0  0  0  0  0  0  0  0  0
   -4.7010   22.5520  -31.0760 C   0  0  0  0  0  0  0  0  0  0  0  0
   -3.3540   22.8020  -30.7700 O   0  0  0  0  0  0  0  0  0  0  0  0
   -2.2940   21.8740  -30.9750 C   0  0  0  0  0  0  0  0  0  0  0  0
   -7.0960   19.6060  -31.5300 C   0  0  2  0  0  0  0  0  0  0  0  0
   -6.5720   18.9620  -32.8000 C   0  0  0  0  0  0  0  0  0  0  0  0
   -6.2030   19.6030  -33.9810 C   0  0  0  0  0  0  0  0  0  0  0  0
   -5.7540   18.7240  -34.9740 C   0  0  0  0  0  0  0  0  0  0  0  0
   -5.7640   17.3920  -34.5860 C   0  0  0  0  0  0  0  0  0  0  0  0
   -6.3300   17.3080  -33.0060 S   0  0  0  0  0  0  0  0  0  0  0  0
   -8.5800   19.5530  -31.4040 N   0  0  2  0  0  0  0  0  0  0  0  0
   -9.1120   18.1870  -31.5780 C   0  0  0  0  0  0  0  0  0  0  0  0
   -9.2490   20.4920  -32.3280 C   0  0  0  0  0  0  0  0  0  0  0  0
   -8.8830   21.9420  -31.9930 C   0  0  0  0  0  0  0  0  0  0  0  0
   -5.3155   25.6868  -29.4059 H   0  0  0  0  0  0  0  0  0  0  0  0
   -4.8706   26.8961  -30.6574 H   0  0  0  0  0  0  0  0  0  0  0  0
   -6.5117   26.1657  -30.6574 H   0  0  0  0  0  0  0  0  0  0  0  0
   -7.5432   24.2832  -31.8803 H   0  0  0  0  0  0  0  0  0  0  0  0
   -4.5749   20.3908  -30.8945 H   0  0  0  0  0  0  0  0  0  0  0  0
   -1.9086   21.5366  -30.0015 H   0  0  0  0  0  0  0  0  0  0  0  0
   -2.6688   21.0084  -31.5409 H   0  0  0  0  0  0  0  0  0  0  0  0
   -1.4856   22.3599  -31.5409 H   0  0  0  0  0  0  0  0  0  0  0  0
   -6.7117   19.0143  -30.6861 H   0  0  0  0  0  0  0  0  0  0  0  0
   -6.2590   20.6928  -34.1195 H   0  0  0  0  0  0  0  0  0  0  0  0
   -5.4242   19.0582  -35.9687 H   0  0  0  0  0  0  0  0  0  0  0  0
   -5.4546   16.5377  -35.2061 H   0  0  0  0  0  0  0  0  0  0  0  0
   -8.8230   19.8390  -30.4250 H   0  0  0  0  0  0  0  0  0  0  0  0
   -9.2885   17.7338  -30.5914 H   0  0  0  0  0  0  0  0  0  0  0  0
  -10.0589   18.2306  -32.1361 H   0  0  0  0  0  0  0  0  0  0  0  0
   -8.3850   17.5787  -32.1361 H   0  0  0  0  0  0  0  0  0  0  0  0
   -8.9338   20.2697  -33.3582 H   0  0  0  0  0  0  0  0  0  0  0  0
  -10.3375   20.3712  -32.2250 H   0  0  0  0  0  0  0  0  0  0  0  0
   -9.1650   22.5810  -32.8428 H   0  0  0  0  0  0  0  0  0  0  0  0
   -9.4265   22.2177  -31.0773 H   0  0  0  0  0  0  0  0  0  0  0  0
  1  2  1  0
  2  3  1  0
  3  4  2  0
  4  5  1  0
  5  6  2  0
  6  7  1  0
  7  8  2  0
  8  9  1  0
  9 10  1  0
  6 11  1  0
 11 12  1  0
 12 13  2  0
 13 14  1  0
 14 15  2  0
 15 16  1  0
 11 17  1  0
 17 18  1  0
 17 19  1  0
 19 20  1  0
  8  3  1  0
 16 12  1  0
 20  5  1  0
  1 21  1  0
  1 22  1  0
  1 23  1  0
  4 24  1  0
  7 25  1  0
 10 26  1  0
 10 27  1  0
 10 28  1  0
 11 29  1  1
 13 30  1  0
 14 31  1  0
 15 32  1  0
 17 33  1  1
 18 34  1  0
 18 35  1  0
 18 36  1  0
 19 37  1  0
 19 38  1  0
 20 39  1  0
 20 40  1  0
M  CHG  1  17   1
M  END
>  <UniqueID>  (29) 
28

>  <SMILES>  (29) 
COc1cc2c(cc1OC)[C@H](c1cccs1)[N@H+](C)CC2

>  <Energy>  (29) 
72.05118953536771

>  <Genealogy>  (29) 
COc1cc2c(cc1OC)C(c1cccs1)[NH+](C)CC2 (protonated)
COc1cc2c(cc1OC)[C@H](c1cccs1)[N@H+](C)CC2 (chirality)
COc1cc2c(cc1OC)[C@H](c1cccs1)[N@H+](C)CC2 (3D coordinates assigned)
COc1cc2c(cc1OC)[C@H](c1cccs1)[N@H+](C)CC2 (nonaromatic ring conformer: 72.05118953536771 kcal/mol)

>  <smiles>  (29) 
COc1cc2c(cc1OC)C(c1cccs1)N(C)CC2

>  <score_type>  (29) 
oracle

>  <origin>  (29) 
adg

>  <m_score__min__energy>  (29) 
-6.9000000000000004

>  <m_primary>  (29) 
energy

$$$$
29:0
     RDKit          3D

 39 40  0  0  0  0  0  0  0  0999 V2000
   -7.1950   23.4270  -32.3270 C   0  0  0  0  0  0  0  0  0  0  0  0
   -6.8540   23.6870  -30.8620 C   0  0  0  0  0  0  0  0  0  0  0  0
   -5.3980   23.4000  -30.5700 C   0  0  0  0  0  0  0  0  0  0  0  0
   -4.5950   24.4420  -30.0760 C   0  0  0  0  0  0  0  0  0  0  0  0
   -3.2200   24.2510  -29.8430 C   0  0  0  0  0  0  0  0  0  0  0  0
   -2.4000   25.2750  -29.3420 O   0  0  0  0  0  0  0  0  0  0  0  0
   -1.6970   25.2150  -28.1060 C   0  0  0  0  0  0  0  0  0  0  0  0
   -2.6370   23.0090  -30.1210 C   0  0  0  0  0  0  0  0  0  0  0  0
   -1.2620   22.8520  -29.8870 O   0  0  0  0  0  0  0  0  0  0  0  0
   -0.5710   21.6070  -29.9340 C   0  0  0  0  0  0  0  0  0  0  0  0
   -3.4330   21.9640  -30.6220 C   0  0  0  0  0  0  0  0  0  0  0  0
   -4.8070   22.1420  -30.8310 C   0  0  0  0  0  0  0  0  0  0  0  0
   -5.5670   21.0430  -31.3520 N   0  0  0  0  0  0  0  0  0  0  0  0
   -5.3210   20.5040  -32.6570 C   0  0  0  0  0  0  0  0  0  0  0  0
   -4.6080   21.1470  -33.4730 O   0  0  0  0  0  0  0  0  0  0  0  0
   -5.9400   19.2360  -33.0960 C   0  0  0  0  0  0  0  0  0  0  0  0
   -5.2000   18.1580  -34.1560 S   0  0  0  0  0  0  0  0  0  0  0  0
   -6.4640   17.0550  -34.1220 C   0  0  0  0  0  0  0  0  0  0  0  0
   -7.4490   17.4770  -33.3030 N   0  0  0  0  0  0  0  0  0  0  0  0
   -7.1700   18.6760  -32.7180 C   0  0  0  0  0  0  0  0  0  0  0  0
   -8.1370   19.2890  -31.7530 C   0  0  0  0  0  0  0  0  0  0  0  0
   -8.0684   22.7611  -32.3876 H   0  0  0  0  0  0  0  0  0  0  0  0
   -7.4257   24.3805  -32.8246 H   0  0  0  0  0  0  0  0  0  0  0  0
   -6.3366   22.9521  -32.8246 H   0  0  0  0  0  0  0  0  0  0  0  0
   -7.0639   24.7412  -30.6282 H   0  0  0  0  0  0  0  0  0  0  0  0
   -7.4679   23.0174  -30.2417 H   0  0  0  0  0  0  0  0  0  0  0  0
   -5.0481   25.4225  -29.8681 H   0  0  0  0  0  0  0  0  0  0  0  0
   -2.4133   25.2761  -27.2734 H   0  0  0  0  0  0  0  0  0  0  0  0
   -1.1436   24.2664  -28.0446 H   0  0  0  0  0  0  0  0  0  0  0  0
   -0.9908   26.0561  -28.0446 H   0  0  0  0  0  0  0  0  0  0  0  0
   -0.3766   21.2567  -28.9096 H   0  0  0  0  0  0  0  0  0  0  0  0
   -1.1868   20.8657  -30.4644 H   0  0  0  0  0  0  0  0  0  0  0  0
    0.3838   21.7374  -30.4644 H   0  0  0  0  0  0  0  0  0  0  0  0
   -2.9706   20.9930  -30.8531 H   0  0  0  0  0  0  0  0  0  0  0  0
   -6.4850   20.8360  -30.9000 H   0  0  0  0  0  0  0  0  0  0  0  0
   -6.4863   16.1140  -34.6913 H   0  0  0  0  0  0  0  0  0  0  0  0
   -7.8093   19.0813  -30.7237 H   0  0  0  0  0  0  0  0  0  0  0  0
   -8.1752   20.3766  -31.9132 H   0  0  0  0  0  0  0  0  0  0  0  0
   -9.1369   18.8595  -31.9132 H   0  0  0  0  0  0  0  0  0  0  0  0
  1  2  1  0
  2  3  1  0
  3  4  2  0
  4  5  1  0
  5  6  1  0
  6  7  1  0
  5  8  2  0
  8  9  1  0
  9 10  1  0
  8 11  1  0
 11 12  2  0
 12 13  1  0
 13 14  1  0
 14 15  2  0
 14 16  1  0
 16 17  1  0
 17 18  1  0
 18 19  2  0
 19 20  1  0
 20 21  1  0
 12  3  1  0
 20 16  2  0
  1 22  1  0
  1 23  1  0
  1 24  1  0
  2 25  1  0
  2 26  1  0
  4 27  1  0
  7 28  1  0
  7 29  1  0
  7 30  1  0
 10 31  1  0
 10 32  1  0
 10 33  1  0
 11 34  1  0
 13 35  1  0
 18 36  1  0
 21 37  1  0
 21 38  1  0
 21 39  1  0
M  END
>  <UniqueID>  (30) 
29

>  <SMILES>  (30) 
CCc1cc(OC)c(OC)cc1NC(=O)c1scnc1C

>  <Energy>  (30) 
72.80278875966218

>  <Genealogy>  (30) 
CCc1cc(OC)c(OC)cc1NC(=O)c1scnc1C (3D coordinates assigned)
CCc1cc(OC)c(OC)cc1NC(=O)c1scnc1C (optimized conformer: 72.80278875966218 kcal/mol)

>  <smiles>  (30) 
CCc1cc(OC)c(OC)cc1NC(=O)c1scnc1C

>  <score_type>  (30) 
oracle

>  <origin>  (30) 
adg

>  <m_score__min__energy>  (30) 
-7.4000000000000004

>  <m_primary>  (30) 
energy

$$$$
30:0
     RDKit          3D

 37 39  0  0  0  0  0  0  0  0999 V2000
   -8.5020   21.9040  -30.5940 C   0  0  0  0  0  0  0  0  0  0  0  0
   -9.2410   21.7830  -31.9260 C   0  0  0  0  0  0  0  0  0  0  0  0
   -9.4850   20.3190  -32.3420 C   0  0  0  0  0  0  0  0  0  0  0  0
   -8.6900   19.3050  -31.5060 C   0  0  0  0  0  0  0  0  0  0  0  0
   -7.5240   18.8040  -32.2310 N   0  0  0  0  0  0  0  0  0  0  0  0
   -7.3230   17.5470  -32.7090 C   0  0  0  0  0  0  0  0  0  0  0  0
   -6.1220   17.4150  -33.3300 N   0  0  0  0  0  0  0  0  0  0  0  0
   -5.5680   18.6340  -33.2320 C   0  0  0  0  0  0  0  0  0  0  0  0
   -4.3500   19.0990  -33.7010 C   0  0  0  0  0  0  0  0  0  0  0  0
   -4.0500   20.4130  -33.4790 N   0  0  0  0  0  0  0  0  0  0  0  0
   -4.9220   21.2510  -32.8260 C   0  0  0  0  0  0  0  0  0  0  0  0
   -4.5610   22.5880  -32.6240 O   0  0  0  0  0  0  0  0  0  0  0  0
   -4.9790   23.3710  -31.5400 C   0  0  0  0  0  0  0  0  0  0  0  0
   -6.1670   24.1260  -31.5800 C   0  0  0  0  0  0  0  0  0  0  0  0
   -6.5490   24.8990  -30.4790 C   0  0  0  0  0  0  0  0  0  0  0  0
   -5.7440   24.9350  -29.3370 C   0  0  0  0  0  0  0  0  0  0  0  0
   -4.5520   24.2060  -29.2990 C   0  0  0  0  0  0  0  0  0  0  0  0
   -4.1690   23.4320  -30.3990 C   0  0  0  0  0  0  0  0  0  0  0  0
   -6.1160   20.7690  -32.3560 N   0  0  0  0  0  0  0  0  0  0  0  0
   -6.4070   19.4640  -32.5710 C   0  0  0  0  0  0  0  0  0  0  0  0
   -9.2168   21.7870  -29.7661 H   0  0  0  0  0  0  0  0  0  0  0  0
   -7.7335   21.1197  -30.5285 H   0  0  0  0  0  0  0  0  0  0  0  0
   -8.0237   22.8924  -30.5285 H   0  0  0  0  0  0  0  0  0  0  0  0
  -10.2132   22.2896  -31.8360 H   0  0  0  0  0  0  0  0  0  0  0  0
   -8.6098   22.2464  -32.6986 H   0  0  0  0  0  0  0  0  0  0  0  0
  -10.5569   20.0989  -32.2296 H   0  0  0  0  0  0  0  0  0  0  0  0
   -9.1457   20.2172  -33.3834 H   0  0  0  0  0  0  0  0  0  0  0  0
   -8.3516   19.7933  -30.5802 H   0  0  0  0  0  0  0  0  0  0  0  0
   -9.3483   18.4523  -31.2834 H   0  0  0  0  0  0  0  0  0  0  0  0
   -8.0510   16.7290  -32.6046 H   0  0  0  0  0  0  0  0  0  0  0  0
   -5.7280   16.5620  -33.7860 H   0  0  0  0  0  0  0  0  0  0  0  0
   -3.6514   18.4355  -34.2318 H   0  0  0  0  0  0  0  0  0  0  0  0
   -6.7973   24.1077  -32.4813 H   0  0  0  0  0  0  0  0  0  0  0  0
   -7.4832   25.4788  -30.5118 H   0  0  0  0  0  0  0  0  0  0  0  0
   -6.0485   25.5370  -28.4682 H   0  0  0  0  0  0  0  0  0  0  0  0
   -3.9147   24.2411  -28.4031 H   0  0  0  0  0  0  0  0  0  0  0  0
   -3.2254   22.8674  -30.3679 H   0  0  0  0  0  0  0  0  0  0  0  0
  1  2  1  0
  2  3  1  0
  3  4  1  0
  4  5  1  0
  5  6  1  0
  6  7  2  0
  7  8  1  0
  8  9  2  0
  9 10  1  0
 10 11  2  0
 11 12  1  0
 12 13  1  0
 13 14  2  0
 14 15  1  0
 15 16  2  0
 16 17  1  0
 17 18  2  0
 11 19  1  0
 19 20  2  0
 20  5  1  0
 20  8  1  0
 18 13  1  0
  1 21  1  0
  1 22  1  0
  1 23  1  0
  2 24  1  0
  2 25  1  0
  3 26  1  0
  3 27  1  0
  4 28  1  0
  4 29  1  0
  6 30  1  0
  7 31  1  0
  9 32  1  0
 14 33  1  0
 15 34  1  0
 16 35  1  0
 17 36  1  0
 18 37  1  0
M  CHG  1   7   1
M  END
>  <UniqueID>  (31) 
30

>  <SMILES>  (31) 
CCCCn1c[nH+]c2cnc(Oc3ccccc3)nc21

>  <Energy>  (31) 
79.67400890782449

>  <Genealogy>  (31) 
CCCCn1c[nH+]c2cnc(Oc3ccccc3)nc21 (protonated)
CCCCn1c[nH+]c2cnc(Oc3ccccc3)nc21 (3D coordinates assigned)
CCCCn1c[nH+]c2cnc(Oc3ccccc3)nc21 (optimized conformer: 79.67400890782449 kcal/mol)

>  <smiles>  (31) 
CCCCn1cnc2cnc(Oc3ccccc3)nc21

>  <score_type>  (31) 
oracle

>  <origin>  (31) 
adg

>  <m_score__min__energy>  (31) 
-6.0599999999999996

>  <m_primary>  (31) 
energy

$$$$
31:0
     RDKit          3D

 51 55  0  0  0  0  0  0  0  0999 V2000
   -0.4250   17.1530  -35.3120 C   0  0  0  0  0  0  0  0  0  0  0  0
   -0.9390   15.7750  -35.3220 N   0  0  0  0  0  0  0  0  0  0  0  0
    0.1540   14.8000  -35.4630 C   0  0  0  0  0  0  0  0  0  0  0  0
   -2.0270   15.5710  -36.3060 C   0  0  0  0  0  0  0  0  0  0  0  0
   -3.1450   14.6290  -35.8330 C   0  0  0  0  0  0  0  0  0  0  0  0
   -4.2450   15.4080  -35.3720 O   0  0  0  0  0  0  0  0  0  0  0  0
   -4.1260   16.5770  -34.6060 C   0  0  0  0  0  0  0  0  0  0  0  0
   -4.9340   17.6720  -34.9310 C   0  0  0  0  0  0  0  0  0  0  0  0
   -4.8530   18.8590  -34.1980 C   0  0  0  0  0  0  0  0  0  0  0  0
   -3.9570   18.9710  -33.1210 C   0  0  0  0  0  0  0  0  0  0  0  0
   -3.8710   20.2270  -32.3430 C   0  0  0  0  0  0  0  0  0  0  0  0
   -2.9170   20.4480  -31.3980 N   0  0  0  0  0  0  0  0  0  0  0  0
   -3.2120   21.6810  -30.9630 C   0  0  0  0  0  0  0  0  0  0  0  0
   -2.5530   22.4180  -29.9830 C   0  0  0  0  0  0  0  0  0  0  0  0
   -3.0420   23.7120  -29.6820 C   0  0  0  0  0  0  0  0  0  0  0  0
   -2.3800   24.5380  -28.6490 C   0  0  0  0  0  0  0  0  0  0  0  0
   -2.4460   24.2510  -27.3200 N   0  0  0  0  0  0  0  0  0  0  0  0
   -1.7210   25.2360  -26.7710 C   0  0  0  0  0  0  0  0  0  0  0  0
   -1.4490   25.4450  -25.4210 C   0  0  0  0  0  0  0  0  0  0  0  0
   -0.6570   26.5580  -25.0790 C   0  0  0  0  0  0  0  0  0  0  0  0
   -0.1670   27.4230  -26.0840 C   0  0  0  0  0  0  0  0  0  0  0  0
   -0.4640   27.1790  -27.4390 C   0  0  0  0  0  0  0  0  0  0  0  0
   -1.2490   26.0680  -27.7380 C   0  0  0  0  0  0  0  0  0  0  0  0
   -1.6520   25.6490  -28.9460 N   0  0  0  0  0  0  0  0  0  0  0  0
   -4.1760   24.2080  -30.3810 C   0  0  0  0  0  0  0  0  0  0  0  0
   -4.8120   23.4290  -31.3650 C   0  0  0  0  0  0  0  0  0  0  0  0
   -4.2940   22.1650  -31.6260 C   0  0  0  0  0  0  0  0  0  0  0  0
   -4.7370   21.2630  -32.5120 N   0  0  0  0  0  0  0  0  0  0  0  0
   -3.1460   17.8720  -32.7930 C   0  0  0  0  0  0  0  0  0  0  0  0
   -3.2270   16.6840  -33.5280 C   0  0  0  0  0  0  0  0  0  0  0  0
   -0.2993   17.4899  -34.2724 H   0  0  0  0  0  0  0  0  0  0  0  0
    0.5459   17.1860  -35.8280 H   0  0  0  0  0  0  0  0  0  0  0  0
   -1.1371   17.8137  -35.8280 H   0  0  0  0  0  0  0  0  0  0  0  0
    0.5005   14.4909  -34.4658 H   0  0  0  0  0  0  0  0  0  0  0  0
   -0.2086   13.9199  -36.0143 H   0  0  0  0  0  0  0  0  0  0  0  0
    0.9872   15.2604  -36.0143 H   0  0  0  0  0  0  0  0  0  0  0  0
   -2.4749   16.5502  -36.5310 H   0  0  0  0  0  0  0  0  0  0  0  0
   -1.5684   15.0957  -37.1856 H   0  0  0  0  0  0  0  0  0  0  0  0
   -3.4690   13.9923  -36.6694 H   0  0  0  0  0  0  0  0  0  0  0  0
   -2.7733   13.9921  -35.0168 H   0  0  0  0  0  0  0  0  0  0  0  0
   -5.6397   17.5978  -35.7715 H   0  0  0  0  0  0  0  0  0  0  0  0
   -5.4948   19.7113  -34.4657 H   0  0  0  0  0  0  0  0  0  0  0  0
   -1.6781   22.0070  -29.4580 H   0  0  0  0  0  0  0  0  0  0  0  0
   -1.8390   24.7648  -24.6495 H   0  0  0  0  0  0  0  0  0  0  0  0
   -0.4182   26.7555  -24.0236 H   0  0  0  0  0  0  0  0  0  0  0  0
    0.4492   28.2909  -25.8064 H   0  0  0  0  0  0  0  0  0  0  0  0
   -0.0894   27.8421  -28.2327 H   0  0  0  0  0  0  0  0  0  0  0  0
   -4.5607   25.2123  -30.1500 H   0  0  0  0  0  0  0  0  0  0  0  0
   -5.6897   23.8071  -31.9097 H   0  0  0  0  0  0  0  0  0  0  0  0
   -2.4415   17.9459  -31.9515 H   0  0  0  0  0  0  0  0  0  0  0  0
   -2.5858   15.8306  -33.2624 H   0  0  0  0  0  0  0  0  0  0  0  0
  1  2  1  0
  2  3  1  0
  2  4  1  0
  4  5  1  0
  5  6  1  0
  6  7  1  0
  7  8  2  0
  8  9  1  0
  9 10  2  0
 10 11  1  0
 11 12  2  0
 12 13  1  0
 13 14  2  0
 14 15  1  0
 15 16  1  0
 16 17  2  0
 17 18  1  0
 18 19  2  0
 19 20  1  0
 20 21  2  0
 21 22  1  0
 22 23  2  0
 23 24  1  0
 15 25  2  0
 25 26  1  0
 26 27  2  0
 27 28  1  0
 10 29  1  0
 29 30  2  0
 30  7  1  0
 28 11  1  0
 27 13  1  0
 24 16  1  0
 23 18  1  0
  1 31  1  0
  1 32  1  0
  1 33  1  0
  3 34  1  0
  3 35  1  0
  3 36  1  0
  4 37  1  0
  4 38  1  0
  5 39  1  0
  5 40  1  0
  8 41  1  0
  9 42  1  0
 14 43  1  0
 19 44  1  0
 20 45  1  0
 21 46  1  0
 22 47  1  0
 25 48  1  0
 26 49  1  0
 29 50  1  0
 30 51  1  0
M  CHG  2  24  -1  28  -1
M  END
>  <UniqueID>  (32) 
31

>  <SMILES>  (32) 
CN(C)CCOc1ccc(-c2nc3cc(-c4nc5ccccc5[n-]4)ccc3[n-]2)cc1

>  <Energy>  (32) 
128.77729935545673

>  <Genealogy>  (32) 
CN(C)CCOc1ccc(-c2nc3cc(-c4nc5ccccc5[n-]4)ccc3[n-]2)cc1 (protonated)
CN(C)CCOc1ccc(-c2nc3cc(-c4nc5ccccc5[n-]4)ccc3[n-]2)cc1 (3D coordinates assigned)
CN(C)CCOc1ccc(-c2nc3cc(-c4nc5ccccc5[n-]4)ccc3[n-]2)cc1 (optimized conformer: 128.77729935545673 kcal/mol)

>  <smiles>  (32) 
CN(C)CCOc1ccc(-c2nc3cc(-c4nc5ccccc5[nH]4)ccc3[nH]2)cc1

>  <score_type>  (32) 
oracle

>  <origin>  (32) 
adg

>  <m_score__min__energy>  (32) 
-8.9100000000000001

>  <m_primary>  (32) 
energy

$$$$
32:0
     RDKit          3D

 54 58  0  0  0  0  0  0  0  0999 V2000
   -9.5000   20.3360  -32.3560 C   0  0  0  0  0  0  0  0  0  0  0  0
   -8.2510   19.5220  -32.4680 C   0  0  0  0  0  0  0  0  0  0  0  0
   -7.0180   20.1460  -32.6960 C   0  0  0  0  0  0  0  0  0  0  0  0
   -5.8510   19.3700  -32.7920 C   0  0  0  0  0  0  0  0  0  0  0  0
   -4.5710   19.9960  -33.0120 N   0  0  0  0  0  0  0  0  0  0  0  0
   -4.4640   21.4590  -33.0840 C   0  0  0  0  0  0  0  0  0  0  0  0
   -3.0220   21.9110  -32.8010 C   0  0  0  0  0  0  0  0  0  0  0  0
   -2.3850   21.0720  -31.7630 N   0  0  0  0  0  0  0  0  0  0  0  0
   -3.0340   21.2400  -30.4440 C   0  0  0  0  0  0  0  0  0  0  0  0
   -2.9680   22.6770  -29.9910 C   0  0  0  0  0  0  0  0  0  0  0  0
   -3.9880   23.6260  -30.0510 C   0  0  0  0  0  0  0  0  0  0  0  0
   -5.3490   23.4380  -30.5880 C   0  0  0  0  0  0  0  0  0  0  0  0
   -5.7220   23.9880  -31.8250 C   0  0  0  0  0  0  0  0  0  0  0  0
   -7.0170   23.8000  -32.3170 C   0  0  0  0  0  0  0  0  0  0  0  0
   -7.9520   23.0760  -31.5730 C   0  0  0  0  0  0  0  0  0  0  0  0
   -7.5950   22.5460  -30.3290 C   0  0  0  0  0  0  0  0  0  0  0  0
   -6.3000   22.7320  -29.8340 C   0  0  0  0  0  0  0  0  0  0  0  0
   -3.5990   24.7660  -29.4320 N   0  0  0  0  0  0  0  0  0  0  0  0
   -2.3440   24.4920  -29.0220 C   0  0  0  0  0  0  0  0  0  0  0  0
   -1.5170   25.3620  -28.3140 C   0  0  0  0  0  0  0  0  0  0  0  0
   -0.2500   24.8950  -27.9330 C   0  0  0  0  0  0  0  0  0  0  0  0
    0.1510   23.5860  -28.2570 C   0  0  0  0  0  0  0  0  0  0  0  0
   -0.7230   22.7520  -28.9690 C   0  0  0  0  0  0  0  0  0  0  0  0
   -1.9380   23.2460  -29.3340 N   0  0  0  0  0  0  0  0  0  0  0  0
   -2.2680   19.6500  -32.1780 C   0  0  0  0  0  0  0  0  0  0  0  0
   -3.3510   19.2000  -33.1810 C   0  0  0  0  0  0  0  0  0  0  0  0
   -5.9480   17.9780  -32.6340 C   0  0  0  0  0  0  0  0  0  0  0  0
   -7.1940   17.3950  -32.4000 C   0  0  0  0  0  0  0  0  0  0  0  0
   -8.3070   18.1700  -32.3220 N   0  0  0  0  0  0  0  0  0  0  0  0
   -9.7412   20.4932  -31.2944 H   0  0  0  0  0  0  0  0  0  0  0  0
   -9.3485   21.3093  -32.8456 H   0  0  0  0  0  0  0  0  0  0  0  0
  -10.3293   19.8044  -32.8456 H   0  0  0  0  0  0  0  0  0  0  0  0
   -6.9637   21.2398  -32.7995 H   0  0  0  0  0  0  0  0  0  0  0  0
   -4.7569   21.7938  -34.0901 H   0  0  0  0  0  0  0  0  0  0  0  0
   -5.1290   21.9007  -32.3272 H   0  0  0  0  0  0  0  0  0  0  0  0
   -2.4359   21.8380  -33.7290 H   0  0  0  0  0  0  0  0  0  0  0  0
   -3.0507   22.9485  -32.4366 H   0  0  0  0  0  0  0  0  0  0  0  0
   -4.0879   20.9342  -30.5196 H   0  0  0  0  0  0  0  0  0  0  0  0
   -2.5045   20.6153  -29.7096 H   0  0  0  0  0  0  0  0  0  0  0  0
   -4.9928   24.5688  -32.4089 H   0  0  0  0  0  0  0  0  0  0  0  0
   -7.3004   24.2230  -33.2920 H   0  0  0  0  0  0  0  0  0  0  0  0
   -8.9682   22.9230  -31.9654 H   0  0  0  0  0  0  0  0  0  0  0  0
   -8.3331   21.9825  -29.7394 H   0  0  0  0  0  0  0  0  0  0  0  0
   -6.0256   22.3236  -28.8502 H   0  0  0  0  0  0  0  0  0  0  0  0
   -1.8466   26.3808  -28.0623 H   0  0  0  0  0  0  0  0  0  0  0  0
    0.4329   25.5554  -27.3784 H   0  0  0  0  0  0  0  0  0  0  0  0
    1.1429   23.2194  -27.9540 H   0  0  0  0  0  0  0  0  0  0  0  0
   -0.4336   21.7225  -29.2266 H   0  0  0  0  0  0  0  0  0  0  0  0
   -1.2824   19.5054  -32.6445 H   0  0  0  0  0  0  0  0  0  0  0  0
   -2.3997   19.0410  -31.2715 H   0  0  0  0  0  0  0  0  0  0  0  0
   -2.9724   19.3311  -34.2054 H   0  0  0  0  0  0  0  0  0  0  0  0
   -3.5885   18.1419  -32.9967 H   0  0  0  0  0  0  0  0  0  0  0  0
   -5.0465   17.3505  -32.6944 H   0  0  0  0  0  0  0  0  0  0  0  0
   -7.2752   16.3048  -32.2784 H   0  0  0  0  0  0  0  0  0  0  0  0
  1  2  1  0
  2  3  2  0
  3  4  1  0
  4  5  1  0
  5  6  1  0
  6  7  1  0
  7  8  1  0
  8  9  1  0
  9 10  1  0
 10 11  2  0
 11 12  1  0
 12 13  2  0
 13 14  1  0
 14 15  2  0
 15 16  1  0
 16 17  2  0
 11 18  1  0
 18 19  2  0
 19 20  1  0
 20 21  2  0
 21 22  1  0
 22 23  2  0
 23 24  1  0
  8 25  1  0
 25 26  1  0
  4 27  2  0
 27 28  1  0
 28 29  2  0
 29  2  1  0
 26  5  1  0
 24 10  1  0
 17 12  1  0
 24 19  1  0
  1 30  1  0
  1 31  1  0
  1 32  1  0
  3 33  1  0
  6 34  1  0
  6 35  1  0
  7 36  1  0
  7 37  1  0
  9 38  1  0
  9 39  1  0
 13 40  1  0
 14 41  1  0
 15 42  1  0
 16 43  1  0
 17 44  1  0
 20 45  1  0
 21 46  1  0
 22 47  1  0
 23 48  1  0
 25 49  1  0
 25 50  1  0
 26 51  1  0
 26 52  1  0
 27 53  1  0
 28 54  1  0
M  END
>  <UniqueID>  (33) 
32

>  <SMILES>  (33) 
Cc1cc(N2CCN(Cc3c(-c4ccccc4)nc4ccccn34)CC2)ccn1

>  <Energy>  (33) 
110.24695751091566

>  <Genealogy>  (33) 
Cc1cc(N2CCN(Cc3c(-c4ccccc4)nc4ccccn34)CC2)ccn1 (3D coordinates assigned)
Cc1cc(N2CCN(Cc3c(-c4ccccc4)nc4ccccn34)CC2)ccn1 (nonaromatic ring conformer: 110.24695751091566 kcal/mol)

>  <smiles>  (33) 
Cc1cc(N2CCN(Cc3c(-c4ccccc4)nc4ccccn34)CC2)ccn1

>  <score_type>  (33) 
oracle

>  <origin>  (33) 
adg

>  <m_score__min__energy>  (33) 
-9.1199999999999992

>  <m_primary>  (33) 
energy

$$$$
33:0
     RDKit          3D

 45 48  0  0  1  0  0  0  0  0999 V2000
   -7.1810   17.8370  -31.9700 C   0  0  0  0  0  0  0  0  0  0  0  0
   -7.5710   18.8730  -32.8500 O   0  0  0  0  0  0  0  0  0  0  0  0
   -7.7690   20.1650  -32.3840 C   0  0  0  0  0  0  0  0  0  0  0  0
   -9.0790   20.6340  -32.3440 C   0  0  0  0  0  0  0  0  0  0  0  0
   -9.3840   21.9020  -31.8980 C   0  0  0  0  0  0  0  0  0  0  0  0
   -8.3720   22.7280  -31.4820 C   0  0  0  0  0  0  0  0  0  0  0  0
   -7.0600   22.2820  -31.5130 C   0  0  0  0  0  0  0  0  0  0  0  0
   -5.9620   23.1520  -31.0710 C   0  0  0  0  0  0  0  0  0  0  0  0
   -5.0510   22.8280  -30.1480 N   0  0  0  0  0  0  0  0  0  0  0  0
   -4.2200   23.8820  -30.0260 C   0  0  0  0  0  0  0  0  0  0  0  0
   -3.0520   23.9040  -29.0740 C   0  0  1  0  0  0  0  0  0  0  0  0
   -2.1140   22.8060  -29.5260 C   0  0  0  0  0  0  0  0  0  0  0  0
   -0.9110   22.8700  -28.7490 N   0  0  0  0  0  0  0  0  0  0  0  0
   -1.0820   22.4650  -27.3880 C   0  0  0  0  0  0  0  0  0  0  0  0
   -1.2280   20.9590  -27.2840 C   0  0  0  0  0  0  0  0  0  0  0  0
   -2.2880   20.3600  -26.7650 C   0  0  0  0  0  0  0  0  0  0  0  0
   -2.3080   18.9670  -26.7240 C   0  0  0  0  0  0  0  0  0  0  0  0
   -0.7140   18.4520  -27.4700 S   0  0  0  0  0  0  0  0  0  0  0  0
   -0.1790   20.1580  -27.7640 C   0  0  0  0  0  0  0  0  0  0  0  0
   -0.3080   24.1530  -28.9070 C   0  0  0  0  0  0  0  0  0  0  0  0
   -1.2490   25.2970  -28.6120 C   0  0  0  0  0  0  0  0  0  0  0  0
   -2.4830   25.1450  -29.2010 O   0  0  0  0  0  0  0  0  0  0  0  0
   -4.6040   24.8630  -30.8650 N   0  0  0  0  0  0  0  0  0  0  0  0
   -5.6740   24.4000  -31.5000 N   0  0  0  0  0  0  0  0  0  0  0  0
   -6.7690   20.9980  -31.9660 C   0  0  0  0  0  0  0  0  0  0  0  0
   -7.3072   18.1724  -30.9300 H   0  0  0  0  0  0  0  0  0  0  0  0
   -7.8068   16.9500  -32.1477 H   0  0  0  0  0  0  0  0  0  0  0  0
   -6.1256   17.5828  -32.1477 H   0  0  0  0  0  0  0  0  0  0  0  0
   -9.8935   19.9743  -32.6776 H   0  0  0  0  0  0  0  0  0  0  0  0
  -10.4281   22.2475  -31.8761 H   0  0  0  0  0  0  0  0  0  0  0  0
   -8.6008   23.7428  -31.1243 H   0  0  0  0  0  0  0  0  0  0  0  0
   -3.3195   23.7342  -28.0206 H   0  0  0  0  0  0  0  0  0  0  0  0
   -2.5949   21.8274  -29.3811 H   0  0  0  0  0  0  0  0  0  0  0  0
   -1.8752   22.9369  -30.5918 H   0  0  0  0  0  0  0  0  0  0  0  0
   -0.2048   22.7826  -26.8051 H   0  0  0  0  0  0  0  0  0  0  0  0
   -1.9960   22.9340  -26.9947 H   0  0  0  0  0  0  0  0  0  0  0  0
   -3.1326   20.9473  -26.3755 H   0  0  0  0  0  0  0  0  0  0  0  0
   -3.1049   18.3189  -26.3306 H   0  0  0  0  0  0  0  0  0  0  0  0
    0.7640   20.4939  -28.2201 H   0  0  0  0  0  0  0  0  0  0  0  0
    0.5503   24.2218  -28.2225 H   0  0  0  0  0  0  0  0  0  0  0  0
   -0.0066   24.2432  -29.9610 H   0  0  0  0  0  0  0  0  0  0  0  0
   -1.3867   25.3653  -27.5228 H   0  0  0  0  0  0  0  0  0  0  0  0
   -0.7969   26.2097  -29.0274 H   0  0  0  0  0  0  0  0  0  0  0  0
   -6.2440   24.8770  -32.2240 H   0  0  0  0  0  0  0  0  0  0  0  0
   -5.7254   20.6509  -31.9877 H   0  0  0  0  0  0  0  0  0  0  0  0
  1  2  1  0
  2  3  1  0
  3  4  2  0
  4  5  1  0
  5  6  2  0
  6  7  1  0
  7  8  1  0
  8  9  2  0
  9 10  1  0
 10 11  1  0
 11 12  1  0
 12 13  1  0
 13 14  1  0
 14 15  1  0
 15 16  1  0
 16 17  2  0
 17 18  1  0
 18 19  1  0
 13 20  1  0
 20 21  1  0
 21 22  1  0
 10 23  2  0
 23 24  1  0
  7 25  2  0
 25  3  1  0
 24  8  1  0
 22 11  1  0
 19 15  2  0
  1 26  1  0
  1 27  1  0
  1 28  1  0
  4 29  1  0
  5 30  1  0
  6 31  1  0
 11 32  1  1
 12 33  1  0
 12 34  1  0
 14 35  1  0
 14 36  1  0
 16 37  1  0
 17 38  1  0
 19 39  1  0
 20 40  1  0
 20 41  1  0
 21 42  1  0
 21 43  1  0
 24 44  1  0
 25 45  1  0
M  END
>  <smiles>  (34) 
COc1cccc(-c2nc(C3CN(Cc4ccsc4)CCO3)n[nH]2)c1

>  <score_type>  (34) 
oracle

>  <origin>  (34) 
adg

>  <m_score__min__energy>  (34) 
-9.2899999999999991

>  <m_primary>  (34) 
energy

$$$$
34:0
     RDKit          3D

 35 37  0  0  0  0  0  0  0  0999 V2000
   -7.2330   17.6300  -31.0840 F   0  0  0  0  0  0  0  0  0  0  0  0
   -6.4940   17.7120  -32.2190 C   0  0  0  0  0  0  0  0  0  0  0  0
   -5.3530   16.9130  -32.3570 C   0  0  0  0  0  0  0  0  0  0  0  0
   -4.5840   16.9840  -33.5220 C   0  0  0  0  0  0  0  0  0  0  0  0
   -4.9510   17.8600  -34.5480 C   0  0  0  0  0  0  0  0  0  0  0  0
   -6.0900   18.6580  -34.4150 C   0  0  0  0  0  0  0  0  0  0  0  0
   -6.8810   18.5750  -33.2570 C   0  0  0  0  0  0  0  0  0  0  0  0
   -8.0380   19.4090  -33.0960 N   0  0  0  0  0  0  0  0  0  0  0  0
   -8.0630   20.5940  -32.2830 C   0  0  0  0  0  0  0  0  0  0  0  0
   -9.5190   21.1860  -31.8080 S   0  0  0  0  0  0  0  0  0  0  0  0
   -6.8730   21.3940  -32.0950 N   0  0  0  0  0  0  0  0  0  0  0  0
   -7.2010   22.7960  -31.7850 C   0  0  0  0  0  0  0  0  0  0  0  0
   -6.0550   23.5060  -31.1070 C   0  0  0  0  0  0  0  0  0  0  0  0
   -6.1120   24.9070  -30.8920 C   0  0  0  0  0  0  0  0  0  0  0  0
   -5.0330   25.5830  -30.2950 C   0  0  0  0  0  0  0  0  0  0  0  0
   -3.9180   24.8350  -29.9340 C   0  0  0  0  0  0  0  0  0  0  0  0
   -3.8530   23.4950  -30.1400 C   0  0  0  0  0  0  0  0  0  0  0  0
   -4.8980   22.7880  -30.7270 C   0  0  0  0  0  0  0  0  0  0  0  0
   -2.6360   23.0190  -29.6920 O   0  0  0  0  0  0  0  0  0  0  0  0
   -1.8910   24.1270  -29.1700 C   0  0  0  0  0  0  0  0  0  0  0  0
   -2.7460   25.2660  -29.3430 O   0  0  0  0  0  0  0  0  0  0  0  0
   -5.0611   16.2281  -31.5473 H   0  0  0  0  0  0  0  0  0  0  0  0
   -3.6909   16.3513  -33.6315 H   0  0  0  0  0  0  0  0  0  0  0  0
   -4.3417   17.9210  -35.4618 H   0  0  0  0  0  0  0  0  0  0  0  0
   -6.3685   19.3539  -35.2201 H   0  0  0  0  0  0  0  0  0  0  0  0
   -8.8950   19.1680  -33.6440 H   0  0  0  0  0  0  0  0  0  0  0  0
   -6.2960   21.3700  -32.9630 H   0  0  0  0  0  0  0  0  0  0  0  0
   -6.2830   20.9940  -31.3270 H   0  0  0  0  0  0  0  0  0  0  0  0
   -7.4400   23.3207  -32.7218 H   0  0  0  0  0  0  0  0  0  0  0  0
   -8.0595   22.8009  -31.0972 H   0  0  0  0  0  0  0  0  0  0  0  0
   -7.0076   25.4693  -31.1948 H   0  0  0  0  0  0  0  0  0  0  0  0
   -5.0700   26.6683  -30.1194 H   0  0  0  0  0  0  0  0  0  0  0  0
   -4.8259   21.7026  -30.8905 H   0  0  0  0  0  0  0  0  0  0  0  0
   -1.6642   23.9725  -28.1048 H   0  0  0  0  0  0  0  0  0  0  0  0
   -0.9263   24.2537  -29.6831 H   0  0  0  0  0  0  0  0  0  0  0  0
  1  2  1  0
  2  3  2  0
  3  4  1  0
  4  5  2  0
  5  6  1  0
  6  7  2  0
  7  8  1  0
  8  9  1  0
  9 10  2  0
  9 11  1  0
 11 12  1  0
 12 13  1  0
 13 14  2  0
 14 15  1  0
 15 16  2  0
 16 17  1  0
 17 18  2  0
 17 19  1  0
 19 20  1  0
 20 21  1  0
  7  2  1  0
 18 13  1  0
 21 16  1  0
  3 22  1  0
  4 23  1  0
  5 24  1  0
  6 25  1  0
  8 26  1  0
 11 27  1  0
 11 28  1  0
 12 29  1  0
 12 30  1  0
 14 31  1  0
 15 32  1  0
 18 33  1  0
 20 34  1  0
 20 35  1  0
M  CHG  1  11   1
M  END
>  <UniqueID>  (35) 
33

>  <SMILES>  (35) 
Fc1ccccc1NC(=S)[NH2+]Cc1ccc2c(c1)OCO2

>  <Energy>  (35) 
69.33879828469603

>  <Genealogy>  (35) 
Fc1ccccc1NC(=S)[NH2+]Cc1ccc2c(c1)OCO2 (protonated)
Fc1ccccc1NC(=S)[NH2+]Cc1ccc2c(c1)OCO2 (3D coordinates assigned)
Fc1ccccc1NC(=S)[NH2+]Cc1ccc2c(c1)OCO2 (nonaromatic ring conformer: 69.33879828469603 kcal/mol)

>  <smiles>  (35) 
Fc1ccccc1NC(=S)NCc1ccc2c(c1)OCO2

>  <score_type>  (35) 
oracle

>  <origin>  (35) 
adg

>  <m_score__min__energy>  (35) 
-6.9800000000000004

>  <m_primary>  (35) 
energy

$$$$
35:0
     RDKit          3D

 48 51  0  0  0  0  0  0  0  0999 V2000
   -9.3750   19.9460  -32.4390 C   0  0  0  0  0  0  0  0  0  0  0  0
   -9.6590   21.2120  -31.9210 C   0  0  0  0  0  0  0  0  0  0  0  0
   -8.6180   22.0620  -31.5320 C   0  0  0  0  0  0  0  0  0  0  0  0
   -7.2780   21.6520  -31.6600 C   0  0  0  0  0  0  0  0  0  0  0  0
   -6.2050   22.5270  -31.2610 N   0  0  0  0  0  0  0  0  0  0  0  0
   -5.6890   22.6710  -30.0240 C   0  0  0  0  0  0  0  0  0  0  0  0
   -4.6810   23.6160  -30.1220 C   0  0  0  0  0  0  0  0  0  0  0  0
   -3.8030   24.1220  -29.0410 C   0  0  0  0  0  0  0  0  0  0  0  0
   -2.5000   24.5570  -29.3430 C   0  0  0  0  0  0  0  0  0  0  0  0
   -1.6610   25.0370  -28.3340 C   0  0  0  0  0  0  0  0  0  0  0  0
   -2.1010   25.0920  -27.0090 C   0  0  0  0  0  0  0  0  0  0  0  0
   -1.2170   25.5760  -26.0340 O   0  0  0  0  0  0  0  0  0  0  0  0
   -0.0790   24.8680  -25.5500 C   0  0  0  0  0  0  0  0  0  0  0  0
   -0.4950   23.5280  -24.9110 C   0  0  0  0  0  0  0  0  0  0  0  0
   -0.1080   22.3090  -25.6630 N   0  0  0  0  0  0  0  0  0  0  0  0
    0.5360   22.5730  -26.9570 C   0  0  0  0  0  0  0  0  0  0  0  0
   -0.4000   22.1000  -28.0660 C   0  0  0  0  0  0  0  0  0  0  0  0
   -1.6130   21.5130  -27.3680 C   0  0  0  0  0  0  0  0  0  0  0  0
   -1.2080   21.3700  -25.9110 C   0  0  0  0  0  0  0  0  0  0  0  0
   -3.4040   24.6610  -26.7000 C   0  0  0  0  0  0  0  0  0  0  0  0
   -4.2460   24.1810  -27.7070 C   0  0  0  0  0  0  0  0  0  0  0  0
   -4.6140   24.0210  -31.4090 N   0  0  0  0  0  0  0  0  0  0  0  0
   -5.5430   23.3460  -32.0650 N   0  0  0  0  0  0  0  0  0  0  0  0
   -7.0040   20.3750  -32.1860 C   0  0  0  0  0  0  0  0  0  0  0  0
   -8.0490   19.5290  -32.5710 C   0  0  0  0  0  0  0  0  0  0  0  0
  -10.1950   19.2785  -32.7425 H   0  0  0  0  0  0  0  0  0  0  0  0
  -10.7036   21.5413  -31.8187 H   0  0  0  0  0  0  0  0  0  0  0  0
   -8.8485   23.0570  -31.1235 H   0  0  0  0  0  0  0  0  0  0  0  0
   -6.0066   22.1411  -29.1139 H   0  0  0  0  0  0  0  0  0  0  0  0
   -2.1387   24.5190  -30.3813 H   0  0  0  0  0  0  0  0  0  0  0  0
   -0.6447   25.3747  -28.5851 H   0  0  0  0  0  0  0  0  0  0  0  0
    0.6053   24.6701  -26.3882 H   0  0  0  0  0  0  0  0  0  0  0  0
    0.4179   25.4827  -24.7850 H   0  0  0  0  0  0  0  0  0  0  0  0
   -0.0331   23.4711  -23.9143 H   0  0  0  0  0  0  0  0  0  0  0  0
   -1.5948   23.5329  -24.8934 H   0  0  0  0  0  0  0  0  0  0  0  0
    0.7249   23.6513  -27.0649 H   0  0  0  0  0  0  0  0  0  0  0  0
    1.4952   22.0380  -27.0181 H   0  0  0  0  0  0  0  0  0  0  0  0
   -0.6976   22.9468  -28.7019 H   0  0  0  0  0  0  0  0  0  0  0  0
    0.0881   21.3593  -28.7164 H   0  0  0  0  0  0  0  0  0  0  0  0
   -2.4763   22.1880  -27.4633 H   0  0  0  0  0  0  0  0  0  0  0  0
   -1.9118   20.5495  -27.8067 H   0  0  0  0  0  0  0  0  0  0  0  0
   -2.0608   21.6104  -25.2591 H   0  0  0  0  0  0  0  0  0  0  0  0
   -0.8915   20.3385  -25.6971 H   0  0  0  0  0  0  0  0  0  0  0  0
   -3.7619   24.7020  -25.6607 H   0  0  0  0  0  0  0  0  0  0  0  0
   -5.2631   23.8467  -27.4545 H   0  0  0  0  0  0  0  0  0  0  0  0
   -5.7350   23.4730  -33.0840 H   0  0  0  0  0  0  0  0  0  0  0  0
   -5.9617   20.0407  -32.2948 H   0  0  0  0  0  0  0  0  0  0  0  0
   -7.8256   18.5322  -32.9790 H   0  0  0  0  0  0  0  0  0  0  0  0
  1  2  2  0
  2  3  1  0
  3  4  2  0
  4  5  1  0
  5  6  1  0
  6  7  2  0
  7  8  1  0
  8  9  2  0
  9 10  1  0
 10 11  2  0
 11 12  1  0
 12 13  1  0
 13 14  1  0
 14 15  1  0
 15 16  1  0
 16 17  1  0
 17 18  1  0
 18 19  1  0
 11 20  1  0
 20 21  2  0
  7 22  1  0
 22 23  2  0
  4 24  1  0
 24 25  2  0
 25  1  1  0
 23  5  1  0
 21  8  1  0
 19 15  1  0
  1 26  1  0
  2 27  1  0
  3 28  1  0
  6 29  1  0
  9 30  1  0
 10 31  1  0
 13 32  1  0
 13 33  1  0
 14 34  1  0
 14 35  1  0
 16 36  1  0
 16 37  1  0
 17 38  1  0
 17 39  1  0
 18 40  1  0
 18 41  1  0
 19 42  1  0
 19 43  1  0
 20 44  1  0
 21 45  1  0
 23 46  1  0
 24 47  1  0
 25 48  1  0
M  CHG  1  23   1
M  END
>  <UniqueID>  (36) 
34

>  <SMILES>  (36) 
c1ccc(-n2cc(-c3ccc(OCCN4CCCC4)cc3)n[nH+]2)cc1

>  <Energy>  (36) 
95.22543032224803

>  <Genealogy>  (36) 
c1ccc(-n2cc(-c3ccc(OCCN4CCCC4)cc3)n[nH+]2)cc1 (protonated)
c1ccc(-n2cc(-c3ccc(OCCN4CCCC4)cc3)n[nH+]2)cc1 (3D coordinates assigned)
c1ccc(-n2cc(-c3ccc(OCCN4CCCC4)cc3)n[nH+]2)cc1 (nonaromatic ring conformer: 95.22543032224803 kcal/mol)

>  <smiles>  (36) 
c1ccc(-n2cc(-c3ccc(OCCN4CCCC4)cc3)nn2)cc1

>  <score_type>  (36) 
oracle

>  <origin>  (36) 
adg

>  <m_score__min__energy>  (36) 
-8.0999999999999996

>  <m_primary>  (36) 
energy

$$$$
36:0
     RDKit          3D

 58 61  0  0  0  0  0  0  0  0999 V2000
   -0.8420   30.2770  -25.1190 C   0  0  0  0  0  0  0  0  0  0  0  0
   -0.4390   29.0760  -24.4700 O   0  0  0  0  0  0  0  0  0  0  0  0
   -0.5130   27.7990  -25.0460 C   0  0  0  0  0  0  0  0  0  0  0  0
   -0.7630   27.7050  -26.4160 C   0  0  0  0  0  0  0  0  0  0  0  0
   -0.8450   26.4600  -27.0430 C   0  0  0  0  0  0  0  0  0  0  0  0
   -0.6680   25.2710  -26.3070 C   0  0  0  0  0  0  0  0  0  0  0  0
   -0.7460   23.9880  -26.9070 C   0  0  0  0  0  0  0  0  0  0  0  0
   -1.0120   23.8390  -28.3620 C   0  0  0  0  0  0  0  0  0  0  0  0
   -0.0440   23.9120  -29.1660 O   0  0  0  0  0  0  0  0  0  0  0  0
   -2.3750   23.5590  -28.8760 C   0  0  0  0  0  0  0  0  0  0  0  0
   -3.4440   24.4070  -28.5430 C   0  0  0  0  0  0  0  0  0  0  0  0
   -4.7200   24.1810  -29.0680 C   0  0  0  0  0  0  0  0  0  0  0  0
   -4.9490   23.0980  -29.9370 C   0  0  0  0  0  0  0  0  0  0  0  0
   -6.2020   22.8380  -30.5140 O   0  0  0  0  0  0  0  0  0  0  0  0
   -6.4360   22.5590  -31.8950 C   0  0  0  0  0  0  0  0  0  0  0  0
   -6.7770   21.0780  -32.1150 C   0  0  0  0  0  0  0  0  0  0  0  0
   -8.2250   20.8920  -32.3580 N   0  0  0  0  0  0  0  0  0  0  0  0
   -8.6560   19.5330  -31.9840 C   0  0  0  0  0  0  0  0  0  0  0  0
   -8.9980   21.8810  -31.5890 C   0  0  0  0  0  0  0  0  0  0  0  0
   -3.8910   22.2360  -30.2420 C   0  0  0  0  0  0  0  0  0  0  0  0
   -2.6160   22.4610  -29.7200 C   0  0  0  0  0  0  0  0  0  0  0  0
   -0.5930   22.8370  -26.0960 C   0  0  0  0  0  0  0  0  0  0  0  0
   -0.6390   21.4640  -26.6540 C   0  0  0  0  0  0  0  0  0  0  0  0
   -1.6370   20.5680  -26.2410 C   0  0  0  0  0  0  0  0  0  0  0  0
   -1.6840   19.2880  -26.7970 C   0  0  0  0  0  0  0  0  0  0  0  0
   -0.7610   18.9110  -27.7210 N   0  0  0  0  0  0  0  0  0  0  0  0
    0.2220   19.7550  -28.1320 C   0  0  0  0  0  0  0  0  0  0  0  0
    0.3040   21.0450  -27.6040 C   0  0  0  0  0  0  0  0  0  0  0  0
   -0.3800   22.9950  -24.7210 C   0  0  0  0  0  0  0  0  0  0  0  0
   -0.2980   24.2310  -24.1670 N   0  0  0  0  0  0  0  0  0  0  0  0
   -0.4320   25.3630  -24.9130 C   0  0  0  0  0  0  0  0  0  0  0  0
   -0.3500   26.6210  -24.2960 C   0  0  0  0  0  0  0  0  0  0  0  0
   -1.0962   31.0347  -24.3632 H   0  0  0  0  0  0  0  0  0  0  0  0
   -0.0191   30.6480  -25.7477 H   0  0  0  0  0  0  0  0  0  0  0  0
   -1.7221   30.0765  -25.7477 H   0  0  0  0  0  0  0  0  0  0  0  0
   -0.8969   28.6221  -27.0085 H   0  0  0  0  0  0  0  0  0  0  0  0
   -1.0498   26.4066  -28.1224 H   0  0  0  0  0  0  0  0  0  0  0  0
   -3.2760   25.2557  -27.8637 H   0  0  0  0  0  0  0  0  0  0  0  0
   -5.5488   24.8529  -28.8005 H   0  0  0  0  0  0  0  0  0  0  0  0
   -7.2753   23.1762  -32.2481 H   0  0  0  0  0  0  0  0  0  0  0  0
   -5.5190   22.7913  -32.4564 H   0  0  0  0  0  0  0  0  0  0  0  0
   -6.2166   20.7063  -32.9855 H   0  0  0  0  0  0  0  0  0  0  0  0
   -6.5016   20.5190  -31.2085 H   0  0  0  0  0  0  0  0  0  0  0  0
   -8.6837   19.4458  -30.8878 H   0  0  0  0  0  0  0  0  0  0  0  0
   -9.6591   19.3410  -32.3925 H   0  0  0  0  0  0  0  0  0  0  0  0
   -7.9469   18.7980  -32.3925 H   0  0  0  0  0  0  0  0  0  0  0  0
   -8.8569   21.7005  -30.5131 H   0  0  0  0  0  0  0  0  0  0  0  0
   -8.6497   22.8939  -31.8396 H   0  0  0  0  0  0  0  0  0  0  0  0
  -10.0650   21.7877  -31.8396 H   0  0  0  0  0  0  0  0  0  0  0  0
   -4.0652   21.3718  -30.8999 H   0  0  0  0  0  0  0  0  0  0  0  0
   -1.7941   21.7743  -29.9709 H   0  0  0  0  0  0  0  0  0  0  0  0
   -2.3764   20.8716  -25.4853 H   0  0  0  0  0  0  0  0  0  0  0  0
   -2.4695   18.5833  -26.4867 H   0  0  0  0  0  0  0  0  0  0  0  0
    0.9542   19.4212  -28.8819 H   0  0  0  0  0  0  0  0  0  0  0  0
    1.1023   21.7277  -27.9307 H   0  0  0  0  0  0  0  0  0  0  0  0
   -0.2778   22.1057  -24.0817 H   0  0  0  0  0  0  0  0  0  0  0  0
   -0.1290   24.2970  -23.1380 H   0  0  0  0  0  0  0  0  0  0  0  0
   -0.1563   26.6859  -23.2151 H   0  0  0  0  0  0  0  0  0  0  0  0
  1  2  1  0
  2  3  1  0
  3  4  2  0
  4  5  1  0
  5  6  2  0
  6  7  1  0
  7  8  1  0
  8  9  2  0
  8 10  1  0
 10 11  2  0
 11 12  1  0
 12 13  2  0
 13 14  1  0
 14 15  1  0
 15 16  1  0
 16 17  1  0
 17 18  1  0
 17 19  1  0
 13 20  1  0
 20 21  2  0
  7 22  2  0
 22 23  1  0
 23 24  2  0
 24 25  1  0
 25 26  2  0
 26 27  1  0
 27 28  2  0
 22 29  1  0
 29 30  2  0
 30 31  1  0
 31 32  2  0
 32  3  1  0
 31  6  1  0
 21 10  1  0
 28 23  1  0
  1 33  1  0
  1 34  1  0
  1 35  1  0
  4 36  1  0
  5 37  1  0
 11 38  1  0
 12 39  1  0
 15 40  1  0
 15 41  1  0
 16 42  1  0
 16 43  1  0
 18 44  1  0
 18 45  1  0
 18 46  1  0
 19 47  1  0
 19 48  1  0
 19 49  1  0
 20 50  1  0
 21 51  1  0
 24 52  1  0
 25 53  1  0
 27 54  1  0
 28 55  1  0
 29 56  1  0
 30 57  1  0
 32 58  1  0
M  CHG  1  30   1
M  END
>  <UniqueID>  (37) 
35

>  <SMILES>  (37) 
COc1ccc2c(C(=O)c3ccc(OCCN(C)C)cc3)c(-c3ccncc3)c[nH+]c2c1

>  <Energy>  (37) 
79.55940070343055

>  <Genealogy>  (37) 
COc1ccc2c(C(=O)c3ccc(OCCN(C)C)cc3)c(-c3ccncc3)c[nH+]c2c1 (protonated)
COc1ccc2c(C(=O)c3ccc(OCCN(C)C)cc3)c(-c3ccncc3)c[nH+]c2c1 (3D coordinates assigned)
COc1ccc2c(C(=O)c3ccc(OCCN(C)C)cc3)c(-c3ccncc3)c[nH+]c2c1 (optimized conformer: 79.55940070343055 kcal/mol)

>  <smiles>  (37) 
COc1ccc2c(C(=O)c3ccc(OCCN(C)C)cc3)c(-c3ccncc3)cnc2c1

>  <score_type>  (37) 
oracle

>  <origin>  (37) 
adg

>  <m_score__min__energy>  (37) 
-8.5099999999999998

>  <m_primary>  (37) 
energy

$$$$
37:0
     RDKit          3D

 45 46  0  0  0  0  0  0  0  0999 V2000
   -8.2510   22.0430  -30.8770 C   0  0  0  0  0  0  0  0  0  0  0  0
   -7.6480   23.3060  -31.4860 C   0  0  0  0  0  0  0  0  0  0  0  0
   -6.2730   23.5170  -30.9980 N   0  0  0  0  0  0  0  0  0  0  0  0
   -6.0500   24.4570  -29.8870 C   0  0  0  0  0  0  0  0  0  0  0  0
   -5.2070   25.6500  -30.3440 C   0  0  0  0  0  0  0  0  0  0  0  0
   -3.8680   25.2560  -30.4640 O   0  0  0  0  0  0  0  0  0  0  0  0
   -5.1590   22.7660  -31.5330 C   0  0  0  0  0  0  0  0  0  0  0  0
   -4.1710   23.3860  -32.0150 O   0  0  0  0  0  0  0  0  0  0  0  0
   -5.1320   21.2580  -31.4920 C   0  0  0  0  0  0  0  0  0  0  0  0
   -3.4360   20.5960  -31.6850 S   0  0  0  0  0  0  0  0  0  0  0  0
   -2.7300   21.6020  -30.3750 C   0  0  0  0  0  0  0  0  0  0  0  0
   -3.4700   22.2910  -29.4860 N   0  0  0  0  0  0  0  0  0  0  0  0
   -2.6220   22.8890  -28.6610 N   0  0  0  0  0  0  0  0  0  0  0  0
   -1.3780   22.5540  -29.0610 C   0  0  0  0  0  0  0  0  0  0  0  0
   -0.1320   23.0560  -28.3980 C   0  0  0  0  0  0  0  0  0  0  0  0
   -0.0130   24.4980  -28.5810 N   0  0  0  0  0  0  0  0  0  0  0  0
   -1.0270   25.4310  -28.1950 C   0  0  0  0  0  0  0  0  0  0  0  0
   -2.0000   25.6680  -28.9610 O   0  0  0  0  0  0  0  0  0  0  0  0
   -0.9360   26.1100  -26.8940 C   0  0  0  0  0  0  0  0  0  0  0  0
   -1.3990   25.6180  -25.6800 C   0  0  0  0  0  0  0  0  0  0  0  0
   -1.1740   26.4910  -24.6080 C   0  0  0  0  0  0  0  0  0  0  0  0
   -0.5320   27.6680  -24.9720 C   0  0  0  0  0  0  0  0  0  0  0  0
   -0.2480   27.6220  -26.6290 S   0  0  0  0  0  0  0  0  0  0  0  0
   -1.4110   21.7650  -30.1530 N   0  0  0  0  0  0  0  0  0  0  0  0
   -0.2930   21.1160  -30.8320 C   0  0  0  0  0  0  0  0  0  0  0  0
   -8.2176   22.1130  -29.7797 H   0  0  0  0  0  0  0  0  0  0  0  0
   -9.2955   21.9398  -31.2062 H   0  0  0  0  0  0  0  0  0  0  0  0
   -7.6745   21.1659  -31.2062 H   0  0  0  0  0  0  0  0  0  0  0  0
   -7.6306   23.2055  -32.5813 H   0  0  0  0  0  0  0  0  0  0  0  0
   -8.2634   24.1686  -31.1906 H   0  0  0  0  0  0  0  0  0  0  0  0
   -7.0218   24.8210  -29.5222 H   0  0  0  0  0  0  0  0  0  0  0  0
   -5.5114   23.9321  -29.0843 H   0  0  0  0  0  0  0  0  0  0  0  0
   -5.5733   26.0063  -31.3181 H   0  0  0  0  0  0  0  0  0  0  0  0
   -5.2863   26.4603  -29.6043 H   0  0  0  0  0  0  0  0  0  0  0  0
   -3.8020   24.3680  -30.0250 H   0  0  0  0  0  0  0  0  0  0  0  0
   -5.5365   20.9218  -30.5259 H   0  0  0  0  0  0  0  0  0  0  0  0
   -5.7394   20.8847  -32.3297 H   0  0  0  0  0  0  0  0  0  0  0  0
   -0.1749   22.8280  -27.3227 H   0  0  0  0  0  0  0  0  0  0  0  0
    0.7406   22.5624  -28.8507 H   0  0  0  0  0  0  0  0  0  0  0  0
   -1.8927   24.6410  -25.5716 H   0  0  0  0  0  0  0  0  0  0  0  0
   -1.4772   26.2658  -23.5749 H   0  0  0  0  0  0  0  0  0  0  0  0
   -0.2568   28.4887  -24.2933 H   0  0  0  0  0  0  0  0  0  0  0  0
    0.4048   20.7109  -30.0844 H   0  0  0  0  0  0  0  0  0  0  0  0
   -0.6717   20.2973  -31.4616 H   0  0  0  0  0  0  0  0  0  0  0  0
    0.2301   21.8508  -31.4616 H   0  0  0  0  0  0  0  0  0  0  0  0
  1  2  1  0
  2  3  1  0
  3  4  1  0
  4  5  1  0
  5  6  1  0
  3  7  1  0
  7  8  2  0
  7  9  1  0
  9 10  1  0
 10 11  1  0
 11 12  2  0
 12 13  1  0
 13 14  2  0
 14 15  1  0
 15 16  1  0
 16 17  1  0
 17 18  2  0
 17 19  1  0
 19 20  2  0
 20 21  1  0
 21 22  2  0
 22 23  1  0
 14 24  1  0
 24 25  1  0
 24 11  1  0
 23 19  1  0
  1 26  1  0
  1 27  1  0
  1 28  1  0
  2 29  1  0
  2 30  1  0
  4 31  1  0
  4 32  1  0
  5 33  1  0
  5 34  1  0
  6 35  1  0
  9 36  1  0
  9 37  1  0
 15 38  1  0
 15 39  1  0
 20 40  1  0
 21 41  1  0
 22 42  1  0
 25 43  1  0
 25 44  1  0
 25 45  1  0
M  CHG  1  16  -1
M  END
>  <UniqueID>  (38) 
36

>  <SMILES>  (38) 
CCN(CCO)C(=O)CSc1nnc(C[N-]C(=O)c2cccs2)n1C

>  <Energy>  (38) 
92.28384248388306

>  <Genealogy>  (38) 
CCN(CCO)C(=O)CSc1nnc(C[N-]C(=O)c2cccs2)n1C (protonated)
CCN(CCO)C(=O)CSc1nnc(C[N-]C(=O)c2cccs2)n1C (3D coordinates assigned)
CCN(CCO)C(=O)CSc1nnc(C[N-]C(=O)c2cccs2)n1C (optimized conformer: 92.28384248388306 kcal/mol)

>  <smiles>  (38) 
CCN(CCO)C(=O)CSc1nnc(CNC(=O)c2cccs2)n1C

>  <score_type>  (38) 
oracle

>  <origin>  (38) 
adg

>  <m_score__min__energy>  (38) 
-9.3399999999999999

>  <m_primary>  (38) 
energy

$$$$
38:0
     RDKit          3D

 49 51  0  0  0  0  0  0  0  0999 V2000
   -5.4540   25.4950  -30.5750 C   0  0  0  0  0  0  0  0  0  0  0  0
   -4.0540   25.2540  -30.5060 O   0  0  0  0  0  0  0  0  0  0  0  0
   -3.4800   24.0830  -29.9910 C   0  0  0  0  0  0  0  0  0  0  0  0
   -3.6520   23.6820  -28.6560 C   0  0  0  0  0  0  0  0  0  0  0  0
   -3.0840   22.4930  -28.2040 C   0  0  0  0  0  0  0  0  0  0  0  0
   -2.3040   21.7030  -29.0560 C   0  0  0  0  0  0  0  0  0  0  0  0
   -1.6600   20.0370  -28.3460 Br  0  0  0  0  0  0  0  0  0  0  0  0
   -2.0620   22.1270  -30.3860 C   0  0  0  0  0  0  0  0  0  0  0  0
   -1.1440   21.3550  -31.3280 C   0  0  0  0  0  0  0  0  0  0  0  0
   -1.8420   20.6240  -32.4280 N   0  0  2  0  0  0  0  0  0  0  0  0
   -2.6040   21.5070  -33.3570 C   0  0  0  0  0  0  0  0  0  0  0  0
   -4.0960   21.5960  -33.0100 C   0  0  0  0  0  0  0  0  0  0  0  0
   -4.6890   20.2600  -33.0640 N   0  0  0  0  0  0  0  0  0  0  0  0
   -6.0310   20.0590  -33.6290 C   0  0  0  0  0  0  0  0  0  0  0  0
   -7.1100   20.5740  -32.6990 C   0  0  0  0  0  0  0  0  0  0  0  0
   -7.1520   21.9520  -32.4150 C   0  0  0  0  0  0  0  0  0  0  0  0
   -8.1300   22.4750  -31.5690 C   0  0  0  0  0  0  0  0  0  0  0  0
   -9.0810   21.6380  -30.9960 C   0  0  0  0  0  0  0  0  0  0  0  0
   -9.0570   20.2700  -31.2640 C   0  0  0  0  0  0  0  0  0  0  0  0
   -8.0680   19.7180  -32.0960 C   0  0  0  0  0  0  0  0  0  0  0  0
   -8.0970   18.2350  -32.3570 C   0  0  0  0  0  0  0  0  0  0  0  0
   -3.8640   19.1530  -32.6710 C   0  0  0  0  0  0  0  0  0  0  0  0
   -4.2280   17.9650  -32.8900 O   0  0  0  0  0  0  0  0  0  0  0  0
   -2.5770   19.4160  -31.9400 C   0  0  0  0  0  0  0  0  0  0  0  0
   -2.7070   23.2930  -30.8470 C   0  0  0  0  0  0  0  0  0  0  0  0
   -5.8645   25.5657  -29.5569 H   0  0  0  0  0  0  0  0  0  0  0  0
   -5.6378   26.4380  -31.1107 H   0  0  0  0  0  0  0  0  0  0  0  0
   -5.9425   24.6677  -31.1107 H   0  0  0  0  0  0  0  0  0  0  0  0
   -4.2365   24.3082  -27.9658 H   0  0  0  0  0  0  0  0  0  0  0  0
   -3.2505   22.1714  -27.1653 H   0  0  0  0  0  0  0  0  0  0  0  0
   -0.4431   22.0698  -31.7838 H   0  0  0  0  0  0  0  0  0  0  0  0
   -0.6473   20.5885  -30.7150 H   0  0  0  0  0  0  0  0  0  0  0  0
   -1.0600   20.2420  -33.0170 H   0  0  0  0  0  0  0  0  0  0  0  0
   -2.1728   22.5180  -33.3126 H   0  0  0  0  0  0  0  0  0  0  0  0
   -2.5256   21.0713  -34.3640 H   0  0  0  0  0  0  0  0  0  0  0  0
   -4.2130   22.0086  -31.9970 H   0  0  0  0  0  0  0  0  0  0  0  0
   -4.6025   22.2518  -33.7334 H   0  0  0  0  0  0  0  0  0  0  0  0
   -6.0992   20.5956  -34.5868 H   0  0  0  0  0  0  0  0  0  0  0  0
   -6.1862   18.9794  -33.7718 H   0  0  0  0  0  0  0  0  0  0  0  0
   -6.4058   22.6234  -32.8649 H   0  0  0  0  0  0  0  0  0  0  0  0
   -8.1490   23.5537  -31.3544 H   0  0  0  0  0  0  0  0  0  0  0  0
   -9.8520   22.0550  -30.3315 H   0  0  0  0  0  0  0  0  0  0  0  0
   -9.8209   19.6153  -30.8192 H   0  0  0  0  0  0  0  0  0  0  0  0
   -8.1076   17.6943  -31.3991 H   0  0  0  0  0  0  0  0  0  0  0  0
   -9.0003   17.9814  -32.9312 H   0  0  0  0  0  0  0  0  0  0  0  0
   -7.2043   17.9462  -32.9312 H   0  0  0  0  0  0  0  0  0  0  0  0
   -2.8064   19.5569  -30.8734 H   0  0  0  0  0  0  0  0  0  0  0  0
   -1.9238   18.5493  -32.1190 H   0  0  0  0  0  0  0  0  0  0  0  0
   -2.5998   23.5870  -31.9015 H   0  0  0  0  0  0  0  0  0  0  0  0
  1  2  1  0
  2  3  1  0
  3  4  2  0
  4  5  1  0
  5  6  2  0
  6  7  1  0
  6  8  1  0
  8  9  1  0
  9 10  1  0
 10 11  1  0
 11 12  1  0
 12 13  1  0
 13 14  1  0
 14 15  1  0
 15 16  2  0
 16 17  1  0
 17 18  2  0
 18 19  1  0
 19 20  2  0
 20 21  1  0
 13 22  1  0
 22 23  2  0
 22 24  1  0
  8 25  2  0
 25  3  1  0
 24 10  1  0
 20 15  1  0
  1 26  1  0
  1 27  1  0
  1 28  1  0
  4 29  1  0
  5 30  1  0
  9 31  1  0
  9 32  1  0
 10 33  1  6
 11 34  1  0
 11 35  1  0
 12 36  1  0
 12 37  1  0
 14 38  1  0
 14 39  1  0
 16 40  1  0
 17 41  1  0
 18 42  1  0
 19 43  1  0
 21 44  1  0
 21 45  1  0
 21 46  1  0
 24 47  1  0
 24 48  1  0
 25 49  1  0
M  CHG  1  10   1
M  END
>  <UniqueID>  (39) 
37

>  <SMILES>  (39) 
COc1ccc(Br)c(C[N@@H+]2CCN(Cc3ccccc3C)C(=O)C2)c1

>  <Energy>  (39) 
65.42649424086248

>  <Genealogy>  (39) 
COc1ccc(Br)c(C[NH+]2CCN(Cc3ccccc3C)C(=O)C2)c1 (protonated)
COc1ccc(Br)c(C[N@@H+]2CCN(Cc3ccccc3C)C(=O)C2)c1 (chirality)
COc1ccc(Br)c(C[N@@H+]2CCN(Cc3ccccc3C)C(=O)C2)c1 (3D coordinates assigned)
COc1ccc(Br)c(C[N@@H+]2CCN(Cc3ccccc3C)C(=O)C2)c1 (nonaromatic ring conformer: 65.42649424086248 kcal/mol)

>  <smiles>  (39) 
COc1ccc(Br)c(CN2CCN(Cc3ccccc3C)C(=O)C2)c1

>  <score_type>  (39) 
oracle

>  <origin>  (39) 
adg

>  <m_score__min__energy>  (39) 
-7.9100000000000001

>  <m_primary>  (39) 
energy

$$$$
39:0
     RDKit          3D

 55 58  0  0  0  0  0  0  0  0999 V2000
   -9.7070   21.2230  -32.3840 F   0  0  0  0  0  0  0  0  0  0  0  0
   -8.7790   20.2350  -32.3550 C   0  0  0  0  0  0  0  0  0  0  0  0
   -9.1600   18.9320  -32.0310 C   0  0  0  0  0  0  0  0  0  0  0  0
   -8.2040   17.9140  -31.9950 C   0  0  0  0  0  0  0  0  0  0  0  0
   -6.8660   18.1970  -32.2840 C   0  0  0  0  0  0  0  0  0  0  0  0
   -6.4690   19.5080  -32.6120 C   0  0  0  0  0  0  0  0  0  0  0  0
   -5.0870   19.8030  -32.8990 N   0  0  0  0  0  0  0  0  0  0  0  0
   -4.3050   19.1810  -33.8110 C   0  0  0  0  0  0  0  0  0  0  0  0
   -3.0320   19.7140  -33.7890 C   0  0  0  0  0  0  0  0  0  0  0  0
   -3.0480   20.7030  -32.8260 C   0  0  0  0  0  0  0  0  0  0  0  0
   -1.8810   21.5500  -32.3990 C   0  0  0  0  0  0  0  0  0  0  0  0
   -1.1010   20.9170  -31.3040 N   0  0  0  0  0  0  0  0  0  0  0  0
   -0.1980   21.8940  -30.6390 C   0  0  0  0  0  0  0  0  0  0  0  0
   -0.8470   22.6100  -29.4350 C   0  0  0  0  0  0  0  0  0  0  0  0
   -2.3120   22.5770  -29.5470 N   0  0  0  0  0  0  0  0  0  0  0  0
   -2.9700   23.4620  -28.5610 C   0  0  0  0  0  0  0  0  0  0  0  0
   -2.7150   24.9180  -28.9390 C   0  0  0  0  0  0  0  0  0  0  0  0
   -3.4770   25.2610  -30.0940 O   0  0  0  0  0  0  0  0  0  0  0  0
   -4.7740   24.7980  -30.3550 C   0  0  0  0  0  0  0  0  0  0  0  0
   -4.9310   23.7180  -31.2350 C   0  0  0  0  0  0  0  0  0  0  0  0
   -6.2040   23.2160  -31.5200 C   0  0  0  0  0  0  0  0  0  0  0  0
   -7.3330   23.7910  -30.9260 C   0  0  0  0  0  0  0  0  0  0  0  0
   -7.1880   24.8690  -30.0500 C   0  0  0  0  0  0  0  0  0  0  0  0
   -5.9150   25.3740  -29.7630 C   0  0  0  0  0  0  0  0  0  0  0  0
   -2.8100   21.1900  -29.4690 C   0  0  0  0  0  0  0  0  0  0  0  0
   -1.9490   20.2190  -30.3080 C   0  0  0  0  0  0  0  0  0  0  0  0
   -4.3210   20.7340  -32.2920 C   0  0  0  0  0  0  0  0  0  0  0  0
   -7.4430   20.5240  -32.6470 C   0  0  0  0  0  0  0  0  0  0  0  0
  -10.2125   18.7068  -31.8041 H   0  0  0  0  0  0  0  0  0  0  0  0
   -8.5048   16.8875  -31.7387 H   0  0  0  0  0  0  0  0  0  0  0  0
   -6.1183   17.3907  -32.2551 H   0  0  0  0  0  0  0  0  0  0  0  0
   -4.6358   18.3681  -34.4741 H   0  0  0  0  0  0  0  0  0  0  0  0
   -2.1777   19.4119  -34.4126 H   0  0  0  0  0  0  0  0  0  0  0  0
   -1.2185   21.7027  -33.2638 H   0  0  0  0  0  0  0  0  0  0  0  0
   -2.2758   22.5060  -32.0244 H   0  0  0  0  0  0  0  0  0  0  0  0
   -0.4860   20.1920  -31.7460 H   0  0  0  0  0  0  0  0  0  0  0  0
    0.6953   21.3582  -30.2856 H   0  0  0  0  0  0  0  0  0  0  0  0
    0.0468   22.6670  -31.3823 H   0  0  0  0  0  0  0  0  0  0  0  0
   -0.5432   22.1048  -28.5063 H   0  0  0  0  0  0  0  0  0  0  0  0
   -0.5141   23.6583  -29.4219 H   0  0  0  0  0  0  0  0  0  0  0  0
   -4.0527   23.2676  -28.5581 H   0  0  0  0  0  0  0  0  0  0  0  0
   -2.5608   23.2649  -27.5591 H   0  0  0  0  0  0  0  0  0  0  0  0
   -3.0086   25.5687  -28.1021 H   0  0  0  0  0  0  0  0  0  0  0  0
   -1.6455   25.0529  -29.1580 H   0  0  0  0  0  0  0  0  0  0  0  0
   -4.0465   23.2626  -31.7043 H   0  0  0  0  0  0  0  0  0  0  0  0
   -6.3184   22.3684  -32.2117 H   0  0  0  0  0  0  0  0  0  0  0  0
   -8.3344   23.3941  -31.1489 H   0  0  0  0  0  0  0  0  0  0  0  0
   -8.0760   25.3218  -29.5849 H   0  0  0  0  0  0  0  0  0  0  0  0
   -5.8049   26.2235  -29.0729 H   0  0  0  0  0  0  0  0  0  0  0  0
   -2.7914   20.8643  -28.4185 H   0  0  0  0  0  0  0  0  0  0  0  0
   -3.8333   21.1727  -29.8723 H   0  0  0  0  0  0  0  0  0  0  0  0
   -1.2972   19.6504  -29.6284 H   0  0  0  0  0  0  0  0  0  0  0  0
   -2.6355   19.5609  -30.8608 H   0  0  0  0  0  0  0  0  0  0  0  0
   -4.6588   21.4127  -31.4949 H   0  0  0  0  0  0  0  0  0  0  0  0
   -7.1506   21.5523  -32.9059 H   0  0  0  0  0  0  0  0  0  0  0  0
  1  2  1  0
  2  3  2  0
  3  4  1  0
  4  5  2  0
  5  6  1  0
  6  7  1  0
  7  8  1  0
  8  9  2  0
  9 10  1  0
 10 11  1  0
 11 12  1  0
 12 13  1  0
 13 14  1  0
 14 15  1  0
 15 16  1  0
 16 17  1  0
 17 18  1  0
 18 19  1  0
 19 20  2  0
 20 21  1  0
 21 22  2  0
 22 23  1  0
 23 24  2  0
 15 25  1  0
 25 26  1  0
 10 27  2  0
  6 28  2  0
 28  2  1  0
 27  7  1  0
 26 12  1  0
 24 19  1  0
  3 29  1  0
  4 30  1  0
  5 31  1  0
  8 32  1  0
  9 33  1  0
 11 34  1  0
 11 35  1  0
 12 36  1  0
 13 37  1  0
 13 38  1  0
 14 39  1  0
 14 40  1  0
 16 41  1  0
 16 42  1  0
 17 43  1  0
 17 44  1  0
 20 45  1  0
 21 46  1  0
 22 47  1  0
 23 48  1  0
 24 49  1  0
 25 50  1  0
 25 51  1  0
 26 52  1  0
 26 53  1  0
 27 54  1  0
 28 55  1  0
M  CHG  1  12   1
M  END
>  <UniqueID>  (40) 
38

>  <SMILES>  (40) 
Fc1cccc(-n2ccc(C[NH+]3CCN(CCOc4ccccc4)CC3)c2)c1

>  <Energy>  (40) 
98.3292207575261

>  <Genealogy>  (40) 
Fc1cccc(-n2ccc(C[NH+]3CCN(CCOc4ccccc4)CC3)c2)c1 (protonated)
Fc1cccc(-n2ccc(C[NH+]3CCN(CCOc4ccccc4)CC3)c2)c1 (3D coordinates assigned)
Fc1cccc(-n2ccc(C[NH+]3CCN(CCOc4ccccc4)CC3)c2)c1 (nonaromatic ring conformer: 98.3292207575261 kcal/mol)

>  <smiles>  (40) 
Fc1cccc(-n2ccc(CN3CCN(CCOc4ccccc4)CC3)c2)c1

>  <score_type>  (40) 
oracle

>  <origin>  (40) 
adg

>  <m_score__min__energy>  (40) 
-8.3800000000000008

>  <m_primary>  (40) 
energy

$$$$
40:0
     RDKit          3D

 27 28  0  0  0  0  0  0  0  0999 V2000
   -5.3660   17.8730  -35.0880 C   0  0  0  0  0  0  0  0  0  0  0  0
   -5.9630   17.9440  -33.7190 C   0  0  0  0  0  0  0  0  0  0  0  0
   -5.4820   17.1970  -32.6460 C   0  0  0  0  0  0  0  0  0  0  0  0
   -6.4840   17.4890  -31.3260 S   0  0  0  0  0  0  0  0  0  0  0  0
   -7.4850   18.5450  -32.1670 C   0  0  0  0  0  0  0  0  0  0  0  0
   -8.7250   19.1740  -31.6110 C   0  0  0  0  0  0  0  0  0  0  0  0
   -9.2210   20.2190  -32.5230 N   0  0  0  0  0  0  0  0  0  0  0  0
   -9.2640   21.5480  -31.8910 C   0  0  0  0  0  0  0  0  0  0  0  0
   -7.9010   22.1810  -31.8540 C   0  0  0  0  0  0  0  0  0  0  0  0
   -6.8120   21.6870  -32.5680 C   0  0  0  0  0  0  0  0  0  0  0  0
   -5.4960   22.6950  -32.2830 S   0  0  0  0  0  0  0  0  0  0  0  0
   -6.2930   23.7480  -31.2470 C   0  0  0  0  0  0  0  0  0  0  0  0
   -5.5170   25.2910  -30.4400 Br  0  0  0  0  0  0  0  0  0  0  0  0
   -7.6060   23.3290  -31.1030 C   0  0  0  0  0  0  0  0  0  0  0  0
   -7.0760   18.6800  -33.4480 N   0  0  0  0  0  0  0  0  0  0  0  0
   -4.2767   17.7434  -35.0067 H   0  0  0  0  0  0  0  0  0  0  0  0
   -5.7971   17.0198  -35.6322 H   0  0  0  0  0  0  0  0  0  0  0  0
   -5.5850   18.8035  -35.6322 H   0  0  0  0  0  0  0  0  0  0  0  0
   -4.6039   16.5345  -32.6593 H   0  0  0  0  0  0  0  0  0  0  0  0
   -9.4993   18.4025  -31.4877 H   0  0  0  0  0  0  0  0  0  0  0  0
   -8.4895   19.6303  -30.6382 H   0  0  0  0  0  0  0  0  0  0  0  0
  -10.2060   19.9710  -32.7770 H   0  0  0  0  0  0  0  0  0  0  0  0
   -9.9440   22.1953  -32.4643 H   0  0  0  0  0  0  0  0  0  0  0  0
   -9.6190   21.4287  -30.8567 H   0  0  0  0  0  0  0  0  0  0  0  0
   -6.8125   20.7922  -33.2078 H   0  0  0  0  0  0  0  0  0  0  0  0
   -8.3408   23.8431  -30.4660 H   0  0  0  0  0  0  0  0  0  0  0  0
   -7.5720   19.2660  -34.1570 H   0  0  0  0  0  0  0  0  0  0  0  0
  1  2  1  0
  2  3  2  0
  3  4  1  0
  4  5  1  0
  5  6  1  0
  6  7  1  0
  7  8  1  0
  8  9  1  0
  9 10  2  0
 10 11  1  0
 11 12  1  0
 12 13  1  0
 12 14  2  0
  5 15  2  0
 15  2  1  0
 14  9  1  0
  1 16  1  0
  1 17  1  0
  1 18  1  0
  3 19  1  0
  6 20  1  0
  6 21  1  0
  7 22  1  0
  8 23  1  0
  8 24  1  0
 10 25  1  0
 14 26  1  0
 15 27  1  0
M  CHG  1  15   1
M  END
>  <UniqueID>  (41) 
39

>  <SMILES>  (41) 
Cc1csc(CNCc2csc(Br)c2)[nH+]1

>  <Energy>  (41) 
75.59157335832477

>  <Genealogy>  (41) 
Cc1csc(CNCc2csc(Br)c2)[nH+]1 (protonated)
Cc1csc(CNCc2csc(Br)c2)[nH+]1 (3D coordinates assigned)
Cc1csc(CNCc2csc(Br)c2)[nH+]1 (optimized conformer: 75.59157335832477 kcal/mol)

>  <smiles>  (41) 
Cc1csc(CNCc2csc(Br)c2)n1

>  <score_type>  (41) 
oracle

>  <origin>  (41) 
adg

>  <m_score__min__energy>  (41) 
-6.46

>  <m_primary>  (41) 
energy

$$$$
41:0
     RDKit          3D

 29 31  0  0  0  0  0  0  0  0999 V2000
   -2.2270   24.9000  -28.6550 C   0  0  0  0  0  0  0  0  0  0  0  0
   -3.0900   25.2870  -29.7210 O   0  0  0  0  0  0  0  0  0  0  0  0
   -4.1870   24.5330  -30.1630 C   0  0  0  0  0  0  0  0  0  0  0  0
   -5.5180   24.9340  -29.9400 C   0  0  0  0  0  0  0  0  0  0  0  0
   -6.5780   24.1460  -30.4000 C   0  0  0  0  0  0  0  0  0  0  0  0
   -6.3270   22.9460  -31.0830 C   0  0  0  0  0  0  0  0  0  0  0  0
   -7.4150   22.1400  -31.5660 N   0  0  0  0  0  0  0  0  0  0  0  0
   -8.6450   22.5530  -31.9710 C   0  0  0  0  0  0  0  0  0  0  0  0
   -9.0030   23.7610  -31.9730 O   0  0  0  0  0  0  0  0  0  0  0  0
   -9.4730   21.5480  -32.3600 N   0  0  0  0  0  0  0  0  0  0  0  0
   -8.7050   20.4560  -32.1820 C   0  0  0  0  0  0  0  0  0  0  0  0
   -9.0220   19.1300  -32.4500 C   0  0  0  0  0  0  0  0  0  0  0  0
   -8.0220   18.1690  -32.2190 C   0  0  0  0  0  0  0  0  0  0  0  0
   -6.7520   18.5740  -31.7470 C   0  0  0  0  0  0  0  0  0  0  0  0
   -6.4890   19.8940  -31.5040 N   0  0  0  0  0  0  0  0  0  0  0  0
   -7.4780   20.8060  -31.7080 C   0  0  0  0  0  0  0  0  0  0  0  0
   -5.0000   22.5530  -31.3130 C   0  0  0  0  0  0  0  0  0  0  0  0
   -3.9400   23.3410  -30.8520 C   0  0  0  0  0  0  0  0  0  0  0  0
   -2.7128   25.1179  -27.6924 H   0  0  0  0  0  0  0  0  0  0  0  0
   -2.0185   23.8222  -28.7249 H   0  0  0  0  0  0  0  0  0  0  0  0
   -1.2835   25.4612  -28.7249 H   0  0  0  0  0  0  0  0  0  0  0  0
   -5.7251   25.8708  -29.4019 H   0  0  0  0  0  0  0  0  0  0  0  0
   -7.6149   24.4689  -30.2253 H   0  0  0  0  0  0  0  0  0  0  0  0
  -10.0148   18.8438  -32.8275 H   0  0  0  0  0  0  0  0  0  0  0  0
   -8.2271   17.1044  -32.4050 H   0  0  0  0  0  0  0  0  0  0  0  0
   -5.9690   17.8210  -31.5738 H   0  0  0  0  0  0  0  0  0  0  0  0
   -5.5390   20.1830  -31.1840 H   0  0  0  0  0  0  0  0  0  0  0  0
   -4.7920   21.6207  -31.8585 H   0  0  0  0  0  0  0  0  0  0  0  0
   -2.9034   23.0205  -31.0329 H   0  0  0  0  0  0  0  0  0  0  0  0
  1  2  1  0
  2  3  1  0
  3  4  2  0
  4  5  1  0
  5  6  2  0
  6  7  1  0
  7  8  1  0
  8  9  2  0
  8 10  1  0
 10 11  1  0
 11 12  2  0
 12 13  1  0
 13 14  2  0
 14 15  1  0
 15 16  2  0
  6 17  1  0
 17 18  2  0
 18  3  1  0
 16  7  1  0
 16 11  1  0
  1 19  1  0
  1 20  1  0
  1 21  1  0
  4 22  1  0
  5 23  1  0
 12 24  1  0
 13 25  1  0
 14 26  1  0
 15 27  1  0
 17 28  1  0
 18 29  1  0
M  CHG  2  10  -1  15   1
M  END
>  <UniqueID>  (42) 
40

>  <SMILES>  (42) 
COc1ccc(-n2c(=O)[n-]c3ccc[nH+]c32)cc1

>  <Energy>  (42) 
76.93318378515293

>  <Genealogy>  (42) 
COc1ccc(-n2c(=O)[n-]c3ccc[nH+]c32)cc1 (protonated)
COc1ccc(-n2c(=O)[n-]c3ccc[nH+]c32)cc1 (3D coordinates assigned)
COc1ccc(-n2c(=O)[n-]c3ccc[nH+]c32)cc1 (optimized conformer: 76.93318378515293 kcal/mol)

>  <smiles>  (42) 
COc1ccc(-n2c(=O)[nH]c3cccnc32)cc1

>  <score_type>  (42) 
oracle

>  <origin>  (42) 
adg

>  <m_score__min__energy>  (42) 
-7.0199999999999996

>  <m_primary>  (42) 
energy

$$$$
42:0
     RDKit          3D

 47 49  0  0  0  0  0  0  0  0999 V2000
    1.9300   26.8450  -23.5300 F   0  0  0  0  0  0  0  0  0  0  0  0
    0.6270   27.3060  -23.4820 C   0  0  0  0  0  0  0  0  0  0  0  0
    0.5320   28.4760  -24.2120 F   0  0  0  0  0  0  0  0  0  0  0  0
    0.2820   27.5630  -22.1670 F   0  0  0  0  0  0  0  0  0  0  0  0
   -0.3140   26.2610  -24.0680 C   0  0  0  0  0  0  0  0  0  0  0  0
   -0.9740   26.7960  -25.2120 O   0  0  0  0  0  0  0  0  0  0  0  0
   -1.5950   26.0210  -26.2040 C   0  0  0  0  0  0  0  0  0  0  0  0
   -2.7880   25.3120  -25.9720 C   0  0  0  0  0  0  0  0  0  0  0  0
   -3.3670   24.5550  -26.9940 C   0  0  0  0  0  0  0  0  0  0  0  0
   -2.7700   24.4920  -28.2640 C   0  0  0  0  0  0  0  0  0  0  0  0
   -3.3650   23.7070  -29.3180 N   0  0  0  0  0  0  0  0  0  0  0  0
   -4.6090   24.1860  -29.9470 C   0  0  0  0  0  0  0  0  0  0  0  0
   -4.9860   23.3620  -31.1840 C   0  0  0  0  0  0  0  0  0  0  0  0
   -4.9070   21.8580  -30.8620 C   0  0  0  0  0  0  0  0  0  0  0  0
   -5.4470   20.9820  -32.0030 C   0  0  0  0  0  0  0  0  0  0  0  0
   -4.4860   20.1780  -32.6620 C   0  0  0  0  0  0  0  0  0  0  0  0
   -4.8310   19.3420  -33.7190 C   0  0  0  0  0  0  0  0  0  0  0  0
   -6.1460   19.2790  -34.1540 C   0  0  0  0  0  0  0  0  0  0  0  0
   -7.1250   20.0350  -33.5190 C   0  0  0  0  0  0  0  0  0  0  0  0
   -6.8210   20.8670  -32.4180 C   0  0  0  0  0  0  0  0  0  0  0  0
   -7.9970   21.6450  -31.8460 C   0  0  0  0  0  0  0  0  0  0  0  0
   -7.9400   21.6510  -30.4610 F   0  0  0  0  0  0  0  0  0  0  0  0
   -9.1770   21.0330  -32.2260 F   0  0  0  0  0  0  0  0  0  0  0  0
   -8.0230   22.9580  -32.2430 F   0  0  0  0  0  0  0  0  0  0  0  0
   -3.5520   21.4070  -30.2540 C   0  0  0  0  0  0  0  0  0  0  0  0
   -2.6190   22.5800  -29.9000 C   0  0  0  0  0  0  0  0  0  0  0  0
   -1.5780   25.2010  -28.4910 C   0  0  0  0  0  0  0  0  0  0  0  0
   -0.9990   25.9590  -27.4680 C   0  0  0  0  0  0  0  0  0  0  0  0
    0.2639   25.3723  -24.3617 H   0  0  0  0  0  0  0  0  0  0  0  0
   -1.0634   25.9816  -23.3128 H   0  0  0  0  0  0  0  0  0  0  0  0
   -3.2667   25.3538  -24.9825 H   0  0  0  0  0  0  0  0  0  0  0  0
   -4.2991   24.0032  -26.8022 H   0  0  0  0  0  0  0  0  0  0  0  0
   -5.4259   24.1182  -29.2135 H   0  0  0  0  0  0  0  0  0  0  0  0
   -4.4465   25.2250  -30.2695 H   0  0  0  0  0  0  0  0  0  0  0  0
   -6.0115   23.6150  -31.4910 H   0  0  0  0  0  0  0  0  0  0  0  0
   -4.2838   23.5933  -31.9985 H   0  0  0  0  0  0  0  0  0  0  0  0
   -5.6057   21.6859  -30.0300 H   0  0  0  0  0  0  0  0  0  0  0  0
   -3.4382   20.2154  -32.3292 H   0  0  0  0  0  0  0  0  0  0  0  0
   -4.0598   18.7304  -34.2101 H   0  0  0  0  0  0  0  0  0  0  0  0
   -6.4147   18.6310  -35.0013 H   0  0  0  0  0  0  0  0  0  0  0  0
   -8.1619   19.9842  -33.8827 H   0  0  0  0  0  0  0  0  0  0  0  0
   -3.7548   20.8340  -29.3372 H   0  0  0  0  0  0  0  0  0  0  0  0
   -3.0389   20.8033  -31.0171 H   0  0  0  0  0  0  0  0  0  0  0  0
   -1.8700   22.2337  -29.1727 H   0  0  0  0  0  0  0  0  0  0  0  0
   -2.1359   22.9275  -30.8251 H   0  0  0  0  0  0  0  0  0  0  0  0
   -1.0973   25.1595  -29.4795 H   0  0  0  0  0  0  0  0  0  0  0  0
   -0.0670   26.5111  -27.6591 H   0  0  0  0  0  0  0  0  0  0  0  0
  1  2  1  0
  2  3  1  0
  2  4  1  0
  2  5  1  0
  5  6  1  0
  6  7  1  0
  7  8  2  0
  8  9  1  0
  9 10  2  0
 10 11  1  0
 11 12  1  0
 12 13  1  0
 13 14  1  0
 14 15  1  0
 15 16  2  0
 16 17  1  0
 17 18  2  0
 18 19  1  0
 19 20  2  0
 20 21  1  0
 21 22  1  0
 21 23  1  0
 21 24  1  0
 14 25  1  0
 25 26  1  0
 10 27  1  0
 27 28  2  0
 28  7  1  0
 26 11  1  0
 20 15  1  0
  5 29  1  0
  5 30  1  0
  8 31  1  0
  9 32  1  0
 12 33  1  0
 12 34  1  0
 13 35  1  0
 13 36  1  0
 14 37  1  0
 16 38  1  0
 17 39  1  0
 18 40  1  0
 19 41  1  0
 25 42  1  0
 25 43  1  0
 26 44  1  0
 26 45  1  0
 27 46  1  0
 28 47  1  0
M  END
>  <UniqueID>  (43) 
41

>  <SMILES>  (43) 
FC(F)(F)COc1ccc(N2CCC(c3ccccc3C(F)(F)F)CC2)cc1

>  <Energy>  (43) 
65.38174440703291

>  <Genealogy>  (43) 
FC(F)(F)COc1ccc(N2CCC(c3ccccc3C(F)(F)F)CC2)cc1 (3D coordinates assigned)
FC(F)(F)COc1ccc(N2CCC(c3ccccc3C(F)(F)F)CC2)cc1 (nonaromatic ring conformer: 65.38174440703291 kcal/mol)

>  <smiles>  (43) 
FC(F)(F)COc1ccc(N2CCC(c3ccccc3C(F)(F)F)CC2)cc1

>  <score_type>  (43) 
oracle

>  <origin>  (43) 
adg

>  <m_score__min__energy>  (43) 
-6.6500000000000004

>  <m_primary>  (43) 
energy

$$$$
43:0
     RDKit          3D

 41 44  0  0  0  0  0  0  0  0999 V2000
   -2.7340   25.2980  -29.2250 O   0  0  0  0  0  0  0  0  0  0  0  0
   -2.2480   24.3390  -28.5670 C   0  0  0  0  0  0  0  0  0  0  0  0
   -1.5860   24.6390  -27.2700 C   0  0  0  0  0  0  0  0  0  0  0  0
   -2.1460   25.6160  -26.4290 C   0  0  0  0  0  0  0  0  0  0  0  0
   -1.5730   25.8970  -25.1860 C   0  0  0  0  0  0  0  0  0  0  0  0
   -0.4320   25.2100  -24.7690 C   0  0  0  0  0  0  0  0  0  0  0  0
    0.1480   24.2500  -25.6010 C   0  0  0  0  0  0  0  0  0  0  0  0
   -0.4080   23.9730  -26.8560 C   0  0  0  0  0  0  0  0  0  0  0  0
    0.3990   22.7620  -27.9070 S   0  0  0  0  0  0  0  0  0  0  0  0
   -0.9370   21.6120  -27.6220 C   0  0  0  0  0  0  0  0  0  0  0  0
   -0.7620   20.5270  -26.7550 C   0  0  0  0  0  0  0  0  0  0  0  0
   -1.8300   19.6650  -26.4930 C   0  0  0  0  0  0  0  0  0  0  0  0
   -3.0780   19.8980  -27.0780 C   0  0  0  0  0  0  0  0  0  0  0  0
   -3.2590   20.9890  -27.9330 C   0  0  0  0  0  0  0  0  0  0  0  0
   -2.1860   21.8490  -28.2190 C   0  0  0  0  0  0  0  0  0  0  0  0
   -2.3690   22.9890  -29.0820 N   0  0  0  0  0  0  0  0  0  0  0  0
   -2.5730   22.7620  -30.5220 C   0  0  0  0  0  0  0  0  0  0  0  0
   -4.0350   22.6220  -30.8530 C   0  0  0  0  0  0  0  0  0  0  0  0
   -4.4620   21.6780  -31.8010 C   0  0  0  0  0  0  0  0  0  0  0  0
   -5.8200   21.5320  -32.0910 C   0  0  0  0  0  0  0  0  0  0  0  0
   -6.7800   22.3140  -31.4260 C   0  0  0  0  0  0  0  0  0  0  0  0
   -8.2420   22.1880  -31.7730 C   0  0  0  0  0  0  0  0  0  0  0  0
   -8.4080   21.1530  -32.6740 F   0  0  0  0  0  0  0  0  0  0  0  0
   -8.9930   21.9250  -30.6410 F   0  0  0  0  0  0  0  0  0  0  0  0
   -8.7120   23.3590  -32.3410 F   0  0  0  0  0  0  0  0  0  0  0  0
   -6.3480   23.2780  -30.4990 C   0  0  0  0  0  0  0  0  0  0  0  0
   -4.9890   23.4250  -30.2100 C   0  0  0  0  0  0  0  0  0  0  0  0
   -3.0432   26.1642  -26.7522 H   0  0  0  0  0  0  0  0  0  0  0  0
   -2.0222   26.6613  -24.5348 H   0  0  0  0  0  0  0  0  0  0  0  0
    0.0104   25.4247  -23.7850 H   0  0  0  0  0  0  0  0  0  0  0  0
    1.0461   23.7087  -25.2688 H   0  0  0  0  0  0  0  0  0  0  0  0
    0.2151   20.3532  -26.2806 H   0  0  0  0  0  0  0  0  0  0  0  0
   -1.6886   18.8021  -25.8257 H   0  0  0  0  0  0  0  0  0  0  0  0
   -3.9190   19.2217  -26.8652 H   0  0  0  0  0  0  0  0  0  0  0  0
   -4.2452   21.1746  -28.3834 H   0  0  0  0  0  0  0  0  0  0  0  0
   -2.1592   23.6142  -31.0810 H   0  0  0  0  0  0  0  0  0  0  0  0
   -2.0632   21.8282  -30.8015 H   0  0  0  0  0  0  0  0  0  0  0  0
   -3.7220   21.0497  -32.3183 H   0  0  0  0  0  0  0  0  0  0  0  0
   -6.1410   20.7992  -32.8459 H   0  0  0  0  0  0  0  0  0  0  0  0
   -7.0855   23.9217  -29.9972 H   0  0  0  0  0  0  0  0  0  0  0  0
   -4.6649   24.1751  -29.4736 H   0  0  0  0  0  0  0  0  0  0  0  0
  1  2  2  0
  2  3  1  0
  3  4  2  0
  4  5  1  0
  5  6  2  0
  6  7  1  0
  7  8  2  0
  8  9  1  0
  9 10  1  0
 10 11  2  0
 11 12  1  0
 12 13  2  0
 13 14  1  0
 14 15  2  0
 15 16  1  0
 16 17  1  0
 17 18  1  0
 18 19  2  0
 19 20  1  0
 20 21  2  0
 21 22  1  0
 22 23  1  0
 22 24  1  0
 22 25  1  0
 21 26  1  0
 26 27  2  0
 16  2  1  0
 27 18  1  0
  8  3  1  0
 15 10  1  0
  4 28  1  0
  5 29  1  0
  6 30  1  0
  7 31  1  0
 11 32  1  0
 12 33  1  0
 13 34  1  0
 14 35  1  0
 17 36  1  0
 17 37  1  0
 19 38  1  0
 20 39  1  0
 26 40  1  0
 27 41  1  0
M  END
>  <UniqueID>  (44) 
42

>  <SMILES>  (44) 
O=C1c2ccccc2Sc2ccccc2N1Cc1ccc(C(F)(F)F)cc1

>  <Energy>  (44) 
59.70298294879478

>  <Genealogy>  (44) 
O=C1c2ccccc2Sc2ccccc2N1Cc1ccc(C(F)(F)F)cc1 (3D coordinates assigned)
O=C1c2ccccc2Sc2ccccc2N1Cc1ccc(C(F)(F)F)cc1 (nonaromatic ring conformer: 59.70298294879478 kcal/mol)

>  <smiles>  (44) 
O=C1c2ccccc2Sc2ccccc2N1Cc1ccc(C(F)(F)F)cc1

>  <score_type>  (44) 
oracle

>  <origin>  (44) 
adg

>  <m_score__min__energy>  (44) 
-7.8899999999999997

>  <m_primary>  (44) 
energy

$$$$
44:0
     RDKit          3D

 43 44  0  0  0  0  0  0  0  0999 V2000
   -4.5600   23.0690  -28.6170 C   0  0  0  0  0  0  0  0  0  0  0  0
   -3.4050   23.5630  -29.4790 C   0  0  0  0  0  0  0  0  0  0  0  0
   -3.8840   23.8060  -30.8640 N   0  0  0  0  0  0  0  0  0  0  0  0
   -5.3140   24.1840  -30.8990 C   0  0  0  0  0  0  0  0  0  0  0  0
   -5.4980   25.6560  -30.5290 C   0  0  0  0  0  0  0  0  0  0  0  0
   -3.6200   22.6520  -31.7540 C   0  0  0  0  0  0  0  0  0  0  0  0
   -4.8670   22.2970  -32.5750 C   0  0  0  0  0  0  0  0  0  0  0  0
   -5.6770   21.3480  -31.8800 O   0  0  0  0  0  0  0  0  0  0  0  0
   -7.0800   21.2980  -31.9170 C   0  0  0  0  0  0  0  0  0  0  0  0
   -7.8710   22.3610  -31.4370 C   0  0  0  0  0  0  0  0  0  0  0  0
   -9.2630   22.2960  -31.5140 C   0  0  0  0  0  0  0  0  0  0  0  0
   -9.8830   21.1750  -32.0680 C   0  0  0  0  0  0  0  0  0  0  0  0
   -9.1120   20.1130  -32.5450 C   0  0  0  0  0  0  0  0  0  0  0  0
   -7.7090   20.1590  -32.4640 C   0  0  0  0  0  0  0  0  0  0  0  0
   -6.9090   19.0370  -33.0100 C   0  0  0  0  0  0  0  0  0  0  0  0
   -6.1360   19.2180  -34.1700 C   0  0  0  0  0  0  0  0  0  0  0  0
   -5.3600   18.1690  -34.6720 C   0  0  0  0  0  0  0  0  0  0  0  0
   -5.3540   16.9310  -34.0250 C   0  0  0  0  0  0  0  0  0  0  0  0
   -6.1280   16.7380  -32.8770 C   0  0  0  0  0  0  0  0  0  0  0  0
   -6.9040   17.7850  -32.3710 C   0  0  0  0  0  0  0  0  0  0  0  0
   -4.2985   23.1809  -27.5544 H   0  0  0  0  0  0  0  0  0  0  0  0
   -5.4609   23.6605  -28.8371 H   0  0  0  0  0  0  0  0  0  0  0  0
   -4.7545   22.0089  -28.8371 H   0  0  0  0  0  0  0  0  0  0  0  0
   -3.0095   24.4996  -29.0590 H   0  0  0  0  0  0  0  0  0  0  0  0
   -2.6108   22.8021  -29.4958 H   0  0  0  0  0  0  0  0  0  0  0  0
   -5.7064   24.0156  -31.9127 H   0  0  0  0  0  0  0  0  0  0  0  0
   -5.8587   23.5672  -30.1690 H   0  0  0  0  0  0  0  0  0  0  0  0
   -5.5110   25.7600  -29.4340 H   0  0  0  0  0  0  0  0  0  0  0  0
   -4.6665   26.2449  -30.9434 H   0  0  0  0  0  0  0  0  0  0  0  0
   -6.4489   26.0221  -30.9434 H   0  0  0  0  0  0  0  0  0  0  0  0
   -2.7980   22.9064  -32.4393 H   0  0  0  0  0  0  0  0  0  0  0  0
   -3.3489   21.7848  -31.1339 H   0  0  0  0  0  0  0  0  0  0  0  0
   -5.4537   23.2102  -32.7533 H   0  0  0  0  0  0  0  0  0  0  0  0
   -4.5470   21.8556  -33.5304 H   0  0  0  0  0  0  0  0  0  0  0  0
   -7.3884   23.2472  -30.9991 H   0  0  0  0  0  0  0  0  0  0  0  0
   -9.8729   23.1303  -31.1372 H   0  0  0  0  0  0  0  0  0  0  0  0
  -10.9803   21.1280  -32.1289 H   0  0  0  0  0  0  0  0  0  0  0  0
   -9.6054   19.2348  -32.9870 H   0  0  0  0  0  0  0  0  0  0  0  0
   -6.1417   20.1898  -34.6853 H   0  0  0  0  0  0  0  0  0  0  0  0
   -4.7535   18.3187  -35.5774 H   0  0  0  0  0  0  0  0  0  0  0  0
   -4.7400   16.1077  -34.4190 H   0  0  0  0  0  0  0  0  0  0  0  0
   -6.1265   15.7612  -32.3712 H   0  0  0  0  0  0  0  0  0  0  0  0
   -7.5134   17.6283  -31.4687 H   0  0  0  0  0  0  0  0  0  0  0  0
  1  2  1  0
  2  3  1  0
  3  4  1  0
  4  5  1  0
  3  6  1  0
  6  7  1  0
  7  8  1  0
  8  9  1  0
  9 10  2  0
 10 11  1  0
 11 12  2  0
 12 13  1  0
 13 14  2  0
 14 15  1  0
 15 16  2  0
 16 17  1  0
 17 18  2  0
 18 19  1  0
 19 20  2  0
 14  9  1  0
 20 15  1  0
  1 21  1  0
  1 22  1  0
  1 23  1  0
  2 24  1  0
  2 25  1  0
  4 26  1  0
  4 27  1  0
  5 28  1  0
  5 29  1  0
  5 30  1  0
  6 31  1  0
  6 32  1  0
  7 33  1  0
  7 34  1  0
 10 35  1  0
 11 36  1  0
 12 37  1  0
 13 38  1  0
 16 39  1  0
 17 40  1  0
 18 41  1  0
 19 42  1  0
 20 43  1  0
M  END
>  <UniqueID>  (45) 
43

>  <SMILES>  (45) 
CCN(CC)CCOc1ccccc1-c1ccccc1

>  <Energy>  (45) 
45.32702546264556

>  <Genealogy>  (45) 
CCN(CC)CCOc1ccccc1-c1ccccc1 (3D coordinates assigned)
CCN(CC)CCOc1ccccc1-c1ccccc1 (optimized conformer: 45.32702546264556 kcal/mol)

>  <smiles>  (45) 
CCN(CC)CCOc1ccccc1-c1ccccc1

>  <score_type>  (45) 
oracle

>  <origin>  (45) 
adg

>  <m_score__min__energy>  (45) 
-7.8099999999999996

>  <m_primary>  (45) 
energy

$$$$
45:0
     RDKit          3D

 52 54  0  0  0  0  0  0  0  0999 V2000
   -7.0740   23.4280  -31.6510 C   0  0  0  0  0  0  0  0  0  0  0  0
   -7.1360   23.8940  -30.1960 C   0  0  0  0  0  0  0  0  0  0  0  0
   -5.7430   24.0770  -29.5720 C   0  0  0  0  0  0  0  0  0  0  0  0
   -4.9020   25.0860  -30.3150 C   0  0  0  0  0  0  0  0  0  0  0  0
   -5.4440   26.1390  -30.7410 O   0  0  0  0  0  0  0  0  0  0  0  0
   -3.4800   24.9470  -30.4450 N   0  0  0  0  0  0  0  0  0  0  0  0
   -2.5990   24.2540  -29.5500 C   0  0  0  0  0  0  0  0  0  0  0  0
   -2.2050   24.8390  -28.3350 C   0  0  0  0  0  0  0  0  0  0  0  0
   -1.4040   24.1320  -27.4360 C   0  0  0  0  0  0  0  0  0  0  0  0
   -1.0060   22.8280  -27.7310 C   0  0  0  0  0  0  0  0  0  0  0  0
   -1.4110   22.2260  -28.9230 C   0  0  0  0  0  0  0  0  0  0  0  0
   -2.2110   22.9290  -29.8390 C   0  0  0  0  0  0  0  0  0  0  0  0
   -2.6070   22.2950  -31.0690 N   0  0  0  0  0  0  0  0  0  0  0  0
   -1.6110   21.5960  -31.8940 C   0  0  0  0  0  0  0  0  0  0  0  0
   -2.1910   20.2780  -32.4270 C   0  0  0  0  0  0  0  0  0  0  0  0
   -3.5710   20.4450  -32.9070 N   0  0  0  0  0  0  0  0  0  0  0  0
   -4.3310   19.2860  -33.2990 C   0  0  0  0  0  0  0  0  0  0  0  0
   -3.6980   18.0440  -33.4640 C   0  0  0  0  0  0  0  0  0  0  0  0
   -4.4330   16.9220  -33.8570 C   0  0  0  0  0  0  0  0  0  0  0  0
   -5.8090   17.0200  -34.0940 C   0  0  0  0  0  0  0  0  0  0  0  0
   -6.5020   15.8650  -34.4870 O   0  0  0  0  0  0  0  0  0  0  0  0
   -6.1090   14.5390  -34.1510 C   0  0  0  0  0  0  0  0  0  0  0  0
   -6.4450   18.2660  -33.9340 C   0  0  0  0  0  0  0  0  0  0  0  0
   -5.7100   19.3880  -33.5420 C   0  0  0  0  0  0  0  0  0  0  0  0
   -4.1900   21.7780  -32.9030 C   0  0  0  0  0  0  0  0  0  0  0  0
   -3.9980   22.4250  -31.5290 C   0  0  0  0  0  0  0  0  0  0  0  0
   -6.9290   22.3380  -31.6811 H   0  0  0  0  0  0  0  0  0  0  0  0
   -8.0145   23.6869  -32.1593 H   0  0  0  0  0  0  0  0  0  0  0  0
   -6.2339   23.9238  -32.1593 H   0  0  0  0  0  0  0  0  0  0  0  0
   -7.6683   24.8558  -30.1569 H   0  0  0  0  0  0  0  0  0  0  0  0
   -7.6587   23.1162  -29.6199 H   0  0  0  0  0  0  0  0  0  0  0  0
   -5.8644   24.4166  -28.5328 H   0  0  0  0  0  0  0  0  0  0  0  0
   -5.2247   23.1082  -29.6245 H   0  0  0  0  0  0  0  0  0  0  0  0
   -2.5298   25.8611  -28.0902 H   0  0  0  0  0  0  0  0  0  0  0  0
   -1.0866   24.6037  -26.4943 H   0  0  0  0  0  0  0  0  0  0  0  0
   -0.3722   22.2736  -27.0232 H   0  0  0  0  0  0  0  0  0  0  0  0
   -1.1018   21.1943  -29.1468 H   0  0  0  0  0  0  0  0  0  0  0  0
   -1.3278   22.2370  -32.7419 H   0  0  0  0  0  0  0  0  0  0  0  0
   -0.7274   21.3747  -31.2774 H   0  0  0  0  0  0  0  0  0  0  0  0
   -1.5647   19.9237  -33.2590 H   0  0  0  0  0  0  0  0  0  0  0  0
   -2.2007   19.5498  -31.6026 H   0  0  0  0  0  0  0  0  0  0  0  0
   -2.6168   17.9532  -33.2829 H   0  0  0  0  0  0  0  0  0  0  0  0
   -3.9258   15.9538  -33.9811 H   0  0  0  0  0  0  0  0  0  0  0  0
   -6.0773   14.4321  -33.0567 H   0  0  0  0  0  0  0  0  0  0  0  0
   -6.8341   13.8248  -34.5683 H   0  0  0  0  0  0  0  0  0  0  0  0
   -5.1118   14.3352  -34.5683 H   0  0  0  0  0  0  0  0  0  0  0  0
   -7.5256   18.3566  -34.1185 H   0  0  0  0  0  0  0  0  0  0  0  0
   -6.2153   20.3578  -33.4230 H   0  0  0  0  0  0  0  0  0  0  0  0
   -3.7162   22.4047  -33.6729 H   0  0  0  0  0  0  0  0  0  0  0  0
   -5.2648   21.6841  -33.1174 H   0  0  0  0  0  0  0  0  0  0  0  0
   -4.2554   23.4924  -31.5960 H   0  0  0  0  0  0  0  0  0  0  0  0
   -4.6523   21.9125  -30.8084 H   0  0  0  0  0  0  0  0  0  0  0  0
  1  2  1  0
  2  3  1  0
  3  4  1  0
  4  5  2  0
  4  6  1  0
  6  7  1  0
  7  8  2  0
  8  9  1  0
  9 10  2  0
 10 11  1  0
 11 12  2  0
 12 13  1  0
 13 14  1  0
 14 15  1  0
 15 16  1  0
 16 17  1  0
 17 18  2  0
 18 19  1  0
 19 20  2  0
 20 21  1  0
 21 22  1  0
 20 23  1  0
 23 24  2  0
 16 25  1  0
 25 26  1  0
 12  7  1  0
 26 13  1  0
 24 17  1  0
  1 27  1  0
  1 28  1  0
  1 29  1  0
  2 30  1  0
  2 31  1  0
  3 32  1  0
  3 33  1  0
  8 34  1  0
  9 35  1  0
 10 36  1  0
 11 37  1  0
 14 38  1  0
 14 39  1  0
 15 40  1  0
 15 41  1  0
 18 42  1  0
 19 43  1  0
 22 44  1  0
 22 45  1  0
 22 46  1  0
 23 47  1  0
 24 48  1  0
 25 49  1  0
 25 50  1  0
 26 51  1  0
 26 52  1  0
M  CHG  1   6  -1
M  END
>  <UniqueID>  (46) 
44

>  <SMILES>  (46) 
CCCC(=O)[N-]c1ccccc1N1CCN(c2ccc(OC)cc2)CC1

>  <Energy>  (46) 
62.863333254488765

>  <Genealogy>  (46) 
CCCC(=O)[N-]c1ccccc1N1CCN(c2ccc(OC)cc2)CC1 (protonated)
CCCC(=O)[N-]c1ccccc1N1CCN(c2ccc(OC)cc2)CC1 (3D coordinates assigned)
CCCC(=O)[N-]c1ccccc1N1CCN(c2ccc(OC)cc2)CC1 (nonaromatic ring conformer: 62.863333254488765 kcal/mol)

>  <smiles>  (46) 
CCCC(=O)Nc1ccccc1N1CCN(c2ccc(OC)cc2)CC1

>  <score_type>  (46) 
oracle

>  <origin>  (46) 
adg

>  <m_score__min__energy>  (46) 
-9.4900000000000002

>  <m_primary>  (46) 
energy

$$$$
46:0
     RDKit          3D

 46 48  0  0  0  0  0  0  0  0999 V2000
   -3.0140   18.6140  -26.3780 C   0  0  0  0  0  0  0  0  0  0  0  0
   -1.9670   19.7230  -26.3300 C   0  0  0  0  0  0  0  0  0  0  0  0
   -1.0490   19.6740  -27.5540 C   0  0  0  0  0  0  0  0  0  0  0  0
   -0.7960   20.9860  -28.0230 O   0  0  0  0  0  0  0  0  0  0  0  0
   -1.2600   21.1590  -29.3500 C   0  0  0  0  0  0  0  0  0  0  0  0
   -2.5590   21.9360  -29.3730 C   0  0  0  0  0  0  0  0  0  0  0  0
   -3.1610   22.2490  -28.1900 N   0  0  0  0  0  0  0  0  0  0  0  0
   -4.3620   22.8760  -28.1550 C   0  0  0  0  0  0  0  0  0  0  0  0
   -4.9900   23.2090  -29.3080 N   0  0  0  0  0  0  0  0  0  0  0  0
   -4.4380   22.9440  -30.5170 C   0  0  0  0  0  0  0  0  0  0  0  0
   -3.1860   22.2860  -30.5930 C   0  0  0  0  0  0  0  0  0  0  0  0
   -2.5640   21.9370  -31.8540 N   0  0  0  0  0  0  0  0  0  0  0  0
   -3.2490   21.5560  -33.0960 C   0  0  0  0  0  0  0  0  0  0  0  0
   -4.5860   20.9040  -32.8390 C   0  0  0  0  0  0  0  0  0  0  0  0
   -4.7630   19.5270  -33.0290 C   0  0  0  0  0  0  0  0  0  0  0  0
   -6.0030   18.9200  -32.7470 C   0  0  0  0  0  0  0  0  0  0  0  0
   -6.2160   17.5440  -32.9260 O   0  0  0  0  0  0  0  0  0  0  0  0
   -6.3650   16.9070  -34.1910 C   0  0  0  0  0  0  0  0  0  0  0  0
   -7.0660   19.7010  -32.2650 C   0  0  0  0  0  0  0  0  0  0  0  0
   -8.2880   19.0660  -31.9920 O   0  0  0  0  0  0  0  0  0  0  0  0
   -9.4980   19.3030  -32.7050 C   0  0  0  0  0  0  0  0  0  0  0  0
   -6.8800   21.0820  -32.0610 C   0  0  0  0  0  0  0  0  0  0  0  0
   -5.6500   21.6770  -32.3510 C   0  0  0  0  0  0  0  0  0  0  0  0
   -5.3690   23.4050  -31.9760 S   0  0  0  0  0  0  0  0  0  0  0  0
   -3.2880   18.3238  -25.3530 H   0  0  0  0  0  0  0  0  0  0  0  0
   -3.9075   18.9759  -26.9078 H   0  0  0  0  0  0  0  0  0  0  0  0
   -2.6013   17.7428  -26.9078 H   0  0  0  0  0  0  0  0  0  0  0  0
   -2.4775   20.6970  -26.3037 H   0  0  0  0  0  0  0  0  0  0  0  0
   -1.3523   19.5816  -25.4288 H   0  0  0  0  0  0  0  0  0  0  0  0
   -0.0976   19.1965  -27.2768 H   0  0  0  0  0  0  0  0  0  0  0  0
   -1.5395   19.0945  -28.3500 H   0  0  0  0  0  0  0  0  0  0  0  0
   -0.5019   21.7083  -29.9275 H   0  0  0  0  0  0  0  0  0  0  0  0
   -1.4367   20.1672  -29.7918 H   0  0  0  0  0  0  0  0  0  0  0  0
   -2.7110   21.9900  -27.2830 H   0  0  0  0  0  0  0  0  0  0  0  0
   -4.8280   23.1151  -27.1877 H   0  0  0  0  0  0  0  0  0  0  0  0
   -1.5210   21.9350  -31.9010 H   0  0  0  0  0  0  0  0  0  0  0  0
   -3.4074   22.4593  -33.7035 H   0  0  0  0  0  0  0  0  0  0  0  0
   -2.6143   20.8251  -33.6185 H   0  0  0  0  0  0  0  0  0  0  0  0
   -3.9278   18.9154  -33.4010 H   0  0  0  0  0  0  0  0  0  0  0  0
   -6.6132   15.8460  -34.0403 H   0  0  0  0  0  0  0  0  0  0  0  0
   -7.1730   17.3960  -34.7549 H   0  0  0  0  0  0  0  0  0  0  0  0
   -5.4239   16.9869  -34.7549 H   0  0  0  0  0  0  0  0  0  0  0  0
  -10.3190   19.4638  -31.9908 H   0  0  0  0  0  0  0  0  0  0  0  0
   -9.3821   20.1955  -33.3374 H   0  0  0  0  0  0  0  0  0  0  0  0
   -9.7274   18.4327  -33.3374 H   0  0  0  0  0  0  0  0  0  0  0  0
   -7.7066   21.6945  -31.6717 H   0  0  0  0  0  0  0  0  0  0  0  0
  1  2  1  0
  2  3  1  0
  3  4  1  0
  4  5  1  0
  5  6  1  0
  6  7  2  0
  7  8  1  0
  8  9  2  0
  9 10  1  0
 10 11  2  0
 11 12  1  0
 12 13  1  0
 13 14  1  0
 14 15  2  0
 15 16  1  0
 16 17  1  0
 17 18  1  0
 16 19  2  0
 19 20  1  0
 20 21  1  0
 19 22  1  0
 22 23  2  0
 23 24  1  0
 11  6  1  0
 23 14  1  0
 24 10  1  0
  1 25  1  0
  1 26  1  0
  1 27  1  0
  2 28  1  0
  2 29  1  0
  3 30  1  0
  3 31  1  0
  5 32  1  0
  5 33  1  0
  7 34  1  0
  8 35  1  0
 12 36  1  0
 13 37  1  0
 13 38  1  0
 15 39  1  0
 18 40  1  0
 18 41  1  0
 18 42  1  0
 21 43  1  0
 21 44  1  0
 21 45  1  0
 22 46  1  0
M  CHG  1   7   1
M  END
>  <UniqueID>  (47) 
45

>  <SMILES>  (47) 
CCCOCc1[nH+]cnc2c1NCc1cc(OC)c(OC)cc1S2

>  <Energy>  (47) 
53.827410602468056

>  <Genealogy>  (47) 
CCCOCc1[nH+]cnc2c1NCc1cc(OC)c(OC)cc1S2 (protonated)
CCCOCc1[nH+]cnc2c1NCc1cc(OC)c(OC)cc1S2 (3D coordinates assigned)
CCCOCc1[nH+]cnc2c1NCc1cc(OC)c(OC)cc1S2 (nonaromatic ring conformer: 53.827410602468056 kcal/mol)

>  <smiles>  (47) 
CCCOCc1ncnc2c1NCc1cc(OC)c(OC)cc1S2

>  <score_type>  (47) 
oracle

>  <origin>  (47) 
adg

>  <m_score__min__energy>  (47) 
-5.4900000000000002

>  <m_primary>  (47) 
energy

$$$$
47:0
     RDKit          3D

 64 68  0  0  0  0  0  0  0  0999 V2000
   -4.6370   15.2840  -32.1290 C   0  0  0  0  0  0  0  0  0  0  0  0
   -5.3210   14.8800  -33.4300 C   0  0  0  0  0  0  0  0  0  0  0  0
   -4.9740   15.8530  -34.5600 C   0  0  0  0  0  0  0  0  0  0  0  0
   -4.9630   17.2270  -34.0530 N   0  0  0  0  0  0  0  0  0  0  0  0
   -6.0130   17.8670  -33.5090 C   0  0  0  0  0  0  0  0  0  0  0  0
   -5.5970   19.1270  -33.1420 C   0  0  0  0  0  0  0  0  0  0  0  0
   -6.4340   20.1860  -32.5520 C   0  0  0  0  0  0  0  0  0  0  0  0
   -7.8360   20.1040  -32.6020 C   0  0  0  0  0  0  0  0  0  0  0  0
   -8.6020   21.1130  -32.0180 C   0  0  0  0  0  0  0  0  0  0  0  0
   -7.9740   22.1950  -31.4020 C   0  0  0  0  0  0  0  0  0  0  0  0
   -6.5710   22.2610  -31.3830 C   0  0  0  0  0  0  0  0  0  0  0  0
   -5.8930   23.3670  -30.7580 N   0  0  0  0  0  0  0  0  0  0  0  0
   -4.6920   23.1510  -29.9440 C   0  0  0  0  0  0  0  0  0  0  0  0
   -3.6530   24.2590  -30.2050 C   0  0  0  0  0  0  0  0  0  0  0  0
   -4.2420   25.5660  -30.5630 N   0  0  0  0  0  0  0  0  0  0  0  0
   -5.6200   25.7290  -30.0780 C   0  0  0  0  0  0  0  0  0  0  0  0
   -6.5390   24.6860  -30.7280 C   0  0  0  0  0  0  0  0  0  0  0  0
   -5.8460   21.2530  -31.9430 N   0  0  0  0  0  0  0  0  0  0  0  0
   -4.2920   19.2770  -33.4390 N   0  0  0  0  0  0  0  0  0  0  0  0
   -3.9260   18.0950  -33.9790 C   0  0  0  0  0  0  0  0  0  0  0  0
   -2.5520   17.8500  -34.5760 C   0  0  0  0  0  0  0  0  0  0  0  0
   -1.8920   16.5590  -34.0800 C   0  0  0  0  0  0  0  0  0  0  0  0
   -1.4400   16.6080  -32.6110 C   0  0  0  0  0  0  0  0  0  0  0  0
   -0.8580   17.9030  -32.1950 N   0  0  0  0  0  0  0  0  0  0  0  0
   -0.1490   17.9910  -30.9280 C   0  0  0  0  0  0  0  0  0  0  0  0
   -0.0270   19.2050  -30.2190 C   0  0  0  0  0  0  0  0  0  0  0  0
    0.6810   19.2410  -29.0580 N   0  0  0  0  0  0  0  0  0  0  0  0
    1.2810   18.1300  -28.5590 C   0  0  0  0  0  0  0  0  0  0  0  0
    1.1650   16.9230  -29.2490 C   0  0  0  0  0  0  0  0  0  0  0  0
    0.4590   16.8840  -30.4100 N   0  0  0  0  0  0  0  0  0  0  0  0
   -1.2860   19.1720  -32.8230 C   0  0  0  0  0  0  0  0  0  0  0  0
   -1.6090   19.0220  -34.3130 C   0  0  0  0  0  0  0  0  0  0  0  0
   -5.2346   14.9310  -31.2756 H   0  0  0  0  0  0  0  0  0  0  0  0
   -3.6347   14.8329  -32.0863 H   0  0  0  0  0  0  0  0  0  0  0  0
   -4.5482   16.3796  -32.0863 H   0  0  0  0  0  0  0  0  0  0  0  0
   -4.9896   13.8696  -33.7115 H   0  0  0  0  0  0  0  0  0  0  0  0
   -6.4096   14.9001  -33.2734 H   0  0  0  0  0  0  0  0  0  0  0  0
   -3.9804   15.6051  -34.9617 H   0  0  0  0  0  0  0  0  0  0  0  0
   -5.7299   15.7676  -35.3545 H   0  0  0  0  0  0  0  0  0  0  0  0
   -7.0253   17.4564  -33.3800 H   0  0  0  0  0  0  0  0  0  0  0  0
   -8.3249   19.2520  -33.0971 H   0  0  0  0  0  0  0  0  0  0  0  0
   -9.7002   21.0552  -32.0434 H   0  0  0  0  0  0  0  0  0  0  0  0
   -8.5727   22.9907  -30.9346 H   0  0  0  0  0  0  0  0  0  0  0  0
   -4.9702   23.1598  -28.8798 H   0  0  0  0  0  0  0  0  0  0  0  0
   -4.2506   22.1803  -30.2140 H   0  0  0  0  0  0  0  0  0  0  0  0
   -3.0508   24.3894  -29.2938 H   0  0  0  0  0  0  0  0  0  0  0  0
   -3.0530   23.9344  -31.0679 H   0  0  0  0  0  0  0  0  0  0  0  0
   -4.2480   25.6630  -31.6050 H   0  0  0  0  0  0  0  0  0  0  0  0
   -5.6383   25.5988  -28.9859 H   0  0  0  0  0  0  0  0  0  0  0  0
   -5.9764   26.7354  -30.3429 H   0  0  0  0  0  0  0  0  0  0  0  0
   -7.4721   24.6173  -30.1496 H   0  0  0  0  0  0  0  0  0  0  0  0
   -6.7507   24.9982  -31.7613 H   0  0  0  0  0  0  0  0  0  0  0  0
   -2.7259   17.7449  -35.6571 H   0  0  0  0  0  0  0  0  0  0  0  0
   -2.6144   15.7370  -34.1917 H   0  0  0  0  0  0  0  0  0  0  0  0
   -0.9853   16.4138  -34.6857 H   0  0  0  0  0  0  0  0  0  0  0  0
   -2.3137   16.4030  -31.9749 H   0  0  0  0  0  0  0  0  0  0  0  0
   -0.6448   15.8560  -32.5013 H   0  0  0  0  0  0  0  0  0  0  0  0
   -0.5028   20.1191  -30.6038 H   0  0  0  0  0  0  0  0  0  0  0  0
    1.8526   18.1810  -27.6205 H   0  0  0  0  0  0  0  0  0  0  0  0
    1.6403   16.0116  -28.8573 H   0  0  0  0  0  0  0  0  0  0  0  0
   -2.1855   19.5344  -32.3038 H   0  0  0  0  0  0  0  0  0  0  0  0
   -0.4493   19.8809  -32.7369 H   0  0  0  0  0  0  0  0  0  0  0  0
   -2.0846   19.9479  -34.6688 H   0  0  0  0  0  0  0  0  0  0  0  0
   -0.6676   18.8288  -34.8482 H   0  0  0  0  0  0  0  0  0  0  0  0
  1  2  1  0
  2  3  1  0
  3  4  1  0
  4  5  1  0
  5  6  2  0
  6  7  1  0
  7  8  2  0
  8  9  1  0
  9 10  2  0
 10 11  1  0
 11 12  1  0
 12 13  1  0
 13 14  1  0
 14 15  1  0
 15 16  1  0
 16 17  1  0
 11 18  2  0
  6 19  1  0
 19 20  2  0
 20 21  1  0
 21 22  1  0
 22 23  1  0
 23 24  1  0
 24 25  1  0
 25 26  2  0
 26 27  1  0
 27 28  2  0
 28 29  1  0
 29 30  2  0
 24 31  1  0
 31 32  1  0
 20  4  1  0
 32 21  1  0
 18  7  1  0
 30 25  1  0
 17 12  1  0
  1 33  1  0
  1 34  1  0
  1 35  1  0
  2 36  1  0
  2 37  1  0
  3 38  1  0
  3 39  1  0
  5 40  1  0
  8 41  1  0
  9 42  1  0
 10 43  1  0
 13 44  1  0
 13 45  1  0
 14 46  1  0
 14 47  1  0
 15 48  1  0
 16 49  1  0
 16 50  1  0
 17 51  1  0
 17 52  1  0
 21 53  1  0
 22 54  1  0
 22 55  1  0
 23 56  1  0
 23 57  1  0
 26 58  1  0
 28 59  1  0
 29 60  1  0
 31 61  1  0
 31 62  1  0
 32 63  1  0
 32 64  1  0
M  END
>  <UniqueID>  (48) 
46

>  <SMILES>  (48) 
CCCn1cc(-c2cccc(N3CCNCC3)n2)nc1C1CCN(c2cnccn2)CC1

>  <Energy>  (48) 
104.49778222590095

>  <Genealogy>  (48) 
CCCn1cc(-c2cccc(N3CCNCC3)n2)nc1C1CCN(c2cnccn2)CC1 (3D coordinates assigned)
CCCn1cc(-c2cccc(N3CCNCC3)n2)nc1C1CCN(c2cnccn2)CC1 (nonaromatic ring conformer: 104.49778222590095 kcal/mol)

>  <smiles>  (48) 
CCCn1cc(-c2cccc(N3CCNCC3)n2)nc1C1CCN(c2cnccn2)CC1

>  <score_type>  (48) 
oracle

>  <origin>  (48) 
adg

>  <m_score__min__energy>  (48) 
-9.0199999999999996

>  <m_primary>  (48) 
energy

$$$$
