0:0
     RDKit          3D

 48 49  0  0  0  0  0  0  0  0999 V2000
   -4.2870   23.8102  -28.7106 H   0  0  0  0  0  0  0  0  0  0  0  0
   -3.4420   24.1910  -29.3030 C   0  0  0  0  0  0  0  0  0  0  0  0
   -3.6910   25.1010  -30.3300 O   0  0  0  0  0  0  0  0  0  0  0  0
   -5.0020   25.3040  -30.8380 C   0  0  0  0  0  0  0  0  0  0  0  0
   -5.7069   25.4131  -30.0006 H   0  0  0  0  0  0  0  0  0  0  0  0
   -5.0197   26.2156  -31.4534 H   0  0  0  0  0  0  0  0  0  0  0  0
   -5.2946   24.4405  -31.4534 H   0  0  0  0  0  0  0  0  0  0  0  0
   -2.2010   23.7660  -29.0160 C   0  0  0  0  0  0  0  0  0  0  0  0
   -1.0300   24.6740  -28.9700 C   0  0  0  0  0  0  0  0  0  0  0  0
    0.1460   24.2170  -28.9740 O   0  0  0  0  0  0  0  0  0  0  0  0
   -1.2420   26.0570  -28.9260 O   0  0  0  0  0  0  0  0  0  0  0  0
   -0.8380   26.8620  -27.8260 C   0  0  0  0  0  0  0  0  0  0  0  0
   -1.0937   26.3524  -26.8853 H   0  0  0  0  0  0  0  0  0  0  0  0
    0.2489   27.0253  -27.8708 H   0  0  0  0  0  0  0  0  0  0  0  0
   -1.3566   27.8311  -27.8708 H   0  0  0  0  0  0  0  0  0  0  0  0
   -1.9970   22.3270  -28.7320 C   0  0  0  0  0  0  0  0  0  0  0  0
   -2.2900   21.8510  -27.4420 C   0  0  0  0  0  0  0  0  0  0  0  0
   -2.6560   22.5483  -26.6740 H   0  0  0  0  0  0  0  0  0  0  0  0
   -2.1210   20.5030  -27.1270 C   0  0  0  0  0  0  0  0  0  0  0  0
   -2.3524   20.1423  -26.1139 H   0  0  0  0  0  0  0  0  0  0  0  0
   -1.6590   19.6120  -28.0950 C   0  0  0  0  0  0  0  0  0  0  0  0
   -1.5331   18.5478  -27.8467 H   0  0  0  0  0  0  0  0  0  0  0  0
   -1.3560   20.0690  -29.3790 C   0  0  0  0  0  0  0  0  0  0  0  0
   -0.9994   19.3578  -30.1387 H   0  0  0  0  0  0  0  0  0  0  0  0
   -1.5010   21.4270  -29.7130 C   0  0  0  0  0  0  0  0  0  0  0  0
   -1.1480   21.8670  -31.1210 C   0  0  0  0  0  0  0  0  0  0  0  0
   -0.6976   21.0178  -31.6558 H   0  0  0  0  0  0  0  0  0  0  0  0
   -0.4447   22.7095  -31.0469 H   0  0  0  0  0  0  0  0  0  0  0  0
   -2.2950   22.3130  -31.8470 O   0  0  0  0  0  0  0  0  0  0  0  0
   -3.3870   21.5120  -32.2180 C   0  0  0  0  0  0  0  0  0  0  0  0
   -3.2380   20.3020  -32.9190 C   0  0  0  0  0  0  0  0  0  0  0  0
   -2.2320   19.9313  -33.1651 H   0  0  0  0  0  0  0  0  0  0  0  0
   -4.3640   19.5690  -33.3040 C   0  0  0  0  0  0  0  0  0  0  0  0
   -4.2398   18.6285  -33.8608 H   0  0  0  0  0  0  0  0  0  0  0  0
   -5.6510   20.0250  -32.9850 C   0  0  0  0  0  0  0  0  0  0  0  0
   -6.8610   19.2590  -33.4460 C   0  0  0  0  0  0  0  0  0  0  0  0
   -6.8731   18.2742  -32.9561 H   0  0  0  0  0  0  0  0  0  0  0  0
   -6.8099   19.1413  -34.5385 H   0  0  0  0  0  0  0  0  0  0  0  0
   -8.0940   19.9820  -33.1060 N   0  0  0  0  0  0  0  0  0  0  0  0
   -8.6930   20.0070  -33.9630 H   0  0  0  0  0  0  0  0  0  0  0  0
   -8.8530   19.2800  -32.0660 C   0  0  0  0  0  0  0  0  0  0  0  0
   -8.5028   19.6039  -31.0748 H   0  0  0  0  0  0  0  0  0  0  0  0
   -9.9226   19.5141  -32.1715 H   0  0  0  0  0  0  0  0  0  0  0  0
   -8.7029   18.1954  -32.1715 H   0  0  0  0  0  0  0  0  0  0  0  0
   -5.7980   21.2250  -32.2720 C   0  0  0  0  0  0  0  0  0  0  0  0
   -6.8033   21.5904  -32.0154 H   0  0  0  0  0  0  0  0  0  0  0  0
   -4.6720   21.9570  -31.8870 C   0  0  0  0  0  0  0  0  0  0  0  0
   -4.7964   22.8908  -31.3190 H   0  0  0  0  0  0  0  0  0  0  0  0
  1  2  1  0
  2  3  1  0
  3  4  1  0
  4  5  1  0
  4  6  1  0
  4  7  1  0
  2  8  2  0
  8  9  1  0
  9 10  2  0
  9 11  1  0
 11 12  1  0
 12 13  1  0
 12 14  1  0
 12 15  1  0
  8 16  1  0
 16 17  2  0
 17 18  1  0
 17 19  1  0
 19 20  1  0
 19 21  2  0
 21 22  1  0
 21 23  1  0
 23 24  1  0
 23 25  2  0
 25 26  1  0
 26 27  1  0
 26 28  1  0
 26 29  1  0
 29 30  1  0
 30 31  2  0
 31 32  1  0
 31 33  1  0
 33 34  1  0
 33 35  2  0
 35 36  1  0
 36 37  1  0
 36 38  1  0
 36 39  1  0
 39 40  1  0
 39 41  1  0
 41 42  1  0
 41 43  1  0
 41 44  1  0
 35 45  1  0
 45 46  1  0
 45 47  2  0
 47 48  1  0
 25 16  1  0
 47 30  1  0
M  END
>  <UniqueID>  (1) 
1

>  <SMILES>  (1) 
CNCc1ccc(OCc2ccccc2/C(=C/OC)C(=O)OC)cc1

>  <Energy>  (1) 
46.91171329327682

>  <Genealogy>  (1) 
CNCc1ccc(OCc2ccccc2/C(=C/OC)C(=O)OC)cc1 (cis-trans isomerization)
CNCc1ccc(OCc2ccccc2/C(=C/OC)C(=O)OC)cc1 (3D coordinates assigned)
CNCc1ccc(OCc2ccccc2/C(=C/OC)C(=O)OC)cc1 (optimized conformer: 46.91171329327682 kcal/mol)

>  <smiles>  (1) 
CNCc1ccc(OCc2ccccc2C(=COC)C(=O)OC)cc1

>  <score_type>  (1) 
oracle

>  <origin>  (1) 
adg

>  <m_score__min__energy>  (1) 
-8.1899999999999995

>  <m_primary>  (1) 
energy

$$$$
1:0
     RDKit          3D

 48 50  0  0  0  0  0  0  0  0999 V2000
   -6.0660   25.2970  -30.1230 C   0  0  0  0  0  0  0  0  0  0  0  0
   -4.7180   25.1670  -30.4670 C   0  0  0  0  0  0  0  0  0  0  0  0
   -4.1650   23.8980  -30.6690 C   0  0  0  0  0  0  0  0  0  0  0  0
   -4.9600   22.7480  -30.5220 C   0  0  0  0  0  0  0  0  0  0  0  0
   -4.3580   21.3680  -30.6820 C   0  0  0  0  0  0  0  0  0  0  0  0
   -4.4830   20.8700  -32.0770 N   0  0  0  0  0  0  0  0  0  0  0  0
   -3.3400   21.3410  -32.9030 C   0  0  0  0  0  0  0  0  0  0  0  0
   -2.7360   20.2150  -33.7700 C   0  0  0  0  0  0  0  0  0  0  0  0
   -3.0200   18.9340  -33.2050 O   0  0  0  0  0  0  0  0  0  0  0  0
   -4.0990   18.1120  -33.5740 C   0  0  0  0  0  0  0  0  0  0  0  0
   -4.2680   16.8970  -32.8980 C   0  0  0  0  0  0  0  0  0  0  0  0
   -5.3350   16.0500  -33.2160 C   0  0  0  0  0  0  0  0  0  0  0  0
   -6.2420   16.4110  -34.2160 C   0  0  0  0  0  0  0  0  0  0  0  0
   -6.0790   17.6170  -34.9020 C   0  0  0  0  0  0  0  0  0  0  0  0
   -5.0130   18.4650  -34.5900 C   0  0  0  0  0  0  0  0  0  0  0  0
   -5.7650   21.3170  -32.6790 C   0  0  0  0  0  0  0  0  0  0  0  0
   -6.9000   20.3660  -32.3710 C   0  0  0  0  0  0  0  0  0  0  0  0
   -6.6380   19.0860  -31.8520 C   0  0  0  0  0  0  0  0  0  0  0  0
   -7.6920   18.2070  -31.5840 C   0  0  0  0  0  0  0  0  0  0  0  0
   -9.0110   18.5970  -31.8320 C   0  0  0  0  0  0  0  0  0  0  0  0
   -9.2790   19.8680  -32.3470 C   0  0  0  0  0  0  0  0  0  0  0  0
   -8.2280   20.7510  -32.6170 C   0  0  0  0  0  0  0  0  0  0  0  0
   -6.3170   22.8890  -30.1840 C   0  0  0  0  0  0  0  0  0  0  0  0
   -6.8650   24.1590  -29.9830 C   0  0  0  0  0  0  0  0  0  0  0  0
   -6.4985   26.2956  -29.9623 H   0  0  0  0  0  0  0  0  0  0  0  0
   -4.0908   26.0637  -30.5791 H   0  0  0  0  0  0  0  0  0  0  0  0
   -3.1044   23.7997  -30.9438 H   0  0  0  0  0  0  0  0  0  0  0  0
   -3.2922   21.4111  -30.4134 H   0  0  0  0  0  0  0  0  0  0  0  0
   -4.9042   20.6779  -30.0222 H   0  0  0  0  0  0  0  0  0  0  0  0
   -4.4740   19.8230  -32.0510 H   0  0  0  0  0  0  0  0  0  0  0  0
   -3.6908   22.1466  -33.5647 H   0  0  0  0  0  0  0  0  0  0  0  0
   -2.5550   21.6945  -32.2183 H   0  0  0  0  0  0  0  0  0  0  0  0
   -3.1668   20.2672  -34.7808 H   0  0  0  0  0  0  0  0  0  0  0  0
   -1.6449   20.3484  -33.8123 H   0  0  0  0  0  0  0  0  0  0  0  0
   -3.5563   16.6066  -32.1111 H   0  0  0  0  0  0  0  0  0  0  0  0
   -5.4602   15.0986  -32.6782 H   0  0  0  0  0  0  0  0  0  0  0  0
   -7.0831   15.7464  -34.4626 H   0  0  0  0  0  0  0  0  0  0  0  0
   -6.7921   17.9000  -35.6903 H   0  0  0  0  0  0  0  0  0  0  0  0
   -4.8858   19.4104  -35.1378 H   0  0  0  0  0  0  0  0  0  0  0  0
   -6.0167   22.3108  -32.2802 H   0  0  0  0  0  0  0  0  0  0  0  0
   -5.6345   21.3466  -33.7708 H   0  0  0  0  0  0  0  0  0  0  0  0
   -5.6012   18.7751  -31.6562 H   0  0  0  0  0  0  0  0  0  0  0  0
   -7.4826   17.2067  -31.1772 H   0  0  0  0  0  0  0  0  0  0  0  0
   -9.8383   17.9032  -31.6217 H   0  0  0  0  0  0  0  0  0  0  0  0
  -10.3176   20.1746  -32.5403 H   0  0  0  0  0  0  0  0  0  0  0  0
   -8.4425   21.7504  -33.0234 H   0  0  0  0  0  0  0  0  0  0  0  0
   -6.9504   21.9960  -30.0772 H   0  0  0  0  0  0  0  0  0  0  0  0
   -7.9266   24.2629  -29.7143 H   0  0  0  0  0  0  0  0  0  0  0  0
  1  2  2  0
  2  3  1  0
  3  4  2  0
  4  5  1  0
  5  6  1  0
  6  7  1  0
  7  8  1  0
  8  9  1  0
  9 10  1  0
 10 11  2  0
 11 12  1  0
 12 13  2  0
 13 14  1  0
 14 15  2  0
  6 16  1  0
 16 17  1  0
 17 18  2  0
 18 19  1  0
 19 20  2  0
 20 21  1  0
 21 22  2  0
  4 23  1  0
 23 24  2  0
 24  1  1  0
 15 10  1  0
 22 17  1  0
  1 25  1  0
  2 26  1  0
  3 27  1  0
  5 28  1  0
  5 29  1  0
  6 30  1  0
  7 31  1  0
  7 32  1  0
  8 33  1  0
  8 34  1  0
 11 35  1  0
 12 36  1  0
 13 37  1  0
 14 38  1  0
 15 39  1  0
 16 40  1  0
 16 41  1  0
 18 42  1  0
 19 43  1  0
 20 44  1  0
 21 45  1  0
 22 46  1  0
 23 47  1  0
 24 48  1  0
M  CHG  1   6   1
M  END
>  <UniqueID>  (2) 
2

>  <SMILES>  (2) 
c1ccc(C[NH+](CCOc2ccccc2)Cc2ccccc2)cc1

>  <Energy>  (2) 
52.398308459118105

>  <Genealogy>  (2) 
c1ccc(C[NH+](CCOc2ccccc2)Cc2ccccc2)cc1 (protonated)
c1ccc(C[NH+](CCOc2ccccc2)Cc2ccccc2)cc1 (3D coordinates assigned)
c1ccc(C[NH+](CCOc2ccccc2)Cc2ccccc2)cc1 (optimized conformer: 52.398308459118105 kcal/mol)

>  <smiles>  (2) 
c1ccc(CN(CCOc2ccccc2)Cc2ccccc2)cc1

>  <score_type>  (2) 
oracle

>  <origin>  (2) 
adg

>  <m_score__min__energy>  (2) 
-7.1799999999999997

>  <m_primary>  (2) 
energy

$$$$
2:0
     RDKit          3D

 53 53  0  0  0  0  0  0  0  0999 V2000
   -3.1540   21.8070  -28.9730 C   0  0  0  0  0  0  0  0  0  0  0  0
   -3.8150   22.6590  -27.8900 C   0  0  0  0  0  0  0  0  0  0  0  0
   -3.9540   24.1390  -28.2820 C   0  0  0  0  0  0  0  0  0  0  0  0
   -3.0520   24.5490  -29.4520 C   0  0  0  0  0  0  0  0  0  0  0  0
   -3.8300   25.2170  -30.4890 N   0  0  0  0  0  0  0  0  0  0  0  0
   -5.1920   24.8900  -30.7630 C   0  0  0  0  0  0  0  0  0  0  0  0
   -6.1140   25.6990  -30.4630 O   0  0  0  0  0  0  0  0  0  0  0  0
   -5.5270   23.5690  -31.3960 C   0  0  2  0  0  0  0  0  0  0  0  0
   -6.2810   22.6700  -30.3990 C   0  0  0  0  0  0  0  0  0  0  0  0
   -7.3100   21.8190  -31.0970 C   0  0  0  0  0  0  0  0  0  0  0  0
   -8.5430   22.3600  -31.4890 C   0  0  0  0  0  0  0  0  0  0  0  0
   -9.5070   21.5430  -32.0830 C   0  0  0  0  0  0  0  0  0  0  0  0
   -9.2320   20.1880  -32.2770 C   0  0  0  0  0  0  0  0  0  0  0  0
   -8.0360   19.6740  -31.8860 N   0  0  0  0  0  0  0  0  0  0  0  0
   -7.0800   20.4490  -31.3050 C   0  0  0  0  0  0  0  0  0  0  0  0
   -4.2930   22.9150  -31.8440 N   0  0  0  0  0  0  0  0  0  0  0  0
   -4.2870   21.7990  -32.7470 C   0  0  0  0  0  0  0  0  0  0  0  0
   -5.3580   21.4000  -33.2740 O   0  0  0  0  0  0  0  0  0  0  0  0
   -3.0000   21.1160  -33.0970 C   0  0  0  0  0  0  0  0  0  0  0  0
   -2.9160   19.7470  -32.4220 C   0  0  0  0  0  0  0  0  0  0  0  0
   -4.1450   18.9870  -32.6860 N   0  0  0  0  0  0  0  0  0  0  0  0
   -4.2700   18.5880  -34.0990 C   0  0  0  0  0  0  0  0  0  0  0  0
   -5.7400   18.4300  -34.5230 C   0  0  0  0  0  0  0  0  0  0  0  0
   -6.4790   17.4550  -33.6110 C   0  0  0  0  0  0  0  0  0  0  0  0
   -2.5449   21.0219  -28.5011 H   0  0  0  0  0  0  0  0  0  0  0  0
   -3.9303   21.3424  -29.5987 H   0  0  0  0  0  0  0  0  0  0  0  0
   -2.5110   22.4435  -29.5987 H   0  0  0  0  0  0  0  0  0  0  0  0
   -4.8185   22.2546  -27.6914 H   0  0  0  0  0  0  0  0  0  0  0  0
   -3.1680   22.6164  -27.0014 H   0  0  0  0  0  0  0  0  0  0  0  0
   -4.9999   24.3272  -28.5661 H   0  0  0  0  0  0  0  0  0  0  0  0
   -3.6447   24.7349  -27.4107 H   0  0  0  0  0  0  0  0  0  0  0  0
   -2.2736   25.2345  -29.0857 H   0  0  0  0  0  0  0  0  0  0  0  0
   -2.5923   23.6457  -29.8794 H   0  0  0  0  0  0  0  0  0  0  0  0
   -6.1805   23.7403  -32.2641 H   0  0  0  0  0  0  0  0  0  0  0  0
   -5.5586   22.0140  -29.8912 H   0  0  0  0  0  0  0  0  0  0  0  0
   -6.7988   23.3149  -29.6738 H   0  0  0  0  0  0  0  0  0  0  0  0
   -8.7508   23.4282  -31.3285 H   0  0  0  0  0  0  0  0  0  0  0  0
  -10.4744   21.9632  -32.3953 H   0  0  0  0  0  0  0  0  0  0  0  0
   -9.9835   19.5362  -32.7464 H   0  0  0  0  0  0  0  0  0  0  0  0
   -6.1237   20.0009  -30.9972 H   0  0  0  0  0  0  0  0  0  0  0  0
   -3.3960   23.1770  -31.3770 H   0  0  0  0  0  0  0  0  0  0  0  0
   -2.9453   20.9851  -34.1878 H   0  0  0  0  0  0  0  0  0  0  0  0
   -2.1625   21.7365  -32.7455 H   0  0  0  0  0  0  0  0  0  0  0  0
   -2.0523   19.1951  -32.8213 H   0  0  0  0  0  0  0  0  0  0  0  0
   -2.7987   19.8832  -31.3368 H   0  0  0  0  0  0  0  0  0  0  0  0
   -4.9730   19.5610  -32.4030 H   0  0  0  0  0  0  0  0  0  0  0  0
   -3.7991   19.3573  -34.7286 H   0  0  0  0  0  0  0  0  0  0  0  0
   -3.7730   17.6146  -34.2234 H   0  0  0  0  0  0  0  0  0  0  0  0
   -6.2345   19.4114  -34.4738 H   0  0  0  0  0  0  0  0  0  0  0  0
   -5.7645   18.0325  -35.5484 H   0  0  0  0  0  0  0  0  0  0  0  0
   -6.2822   17.7147  -32.5604 H   0  0  0  0  0  0  0  0  0  0  0  0
   -7.5596   17.5163  -33.8076 H   0  0  0  0  0  0  0  0  0  0  0  0
   -6.1280   16.4312  -33.8076 H   0  0  0  0  0  0  0  0  0  0  0  0
  1  2  1  0
  2  3  1  0
  3  4  1  0
  4  5  1  0
  5  6  1  0
  6  7  2  0
  6  8  1  0
  8  9  1  0
  9 10  1  0
 10 11  2  0
 11 12  1  0
 12 13  2  0
 13 14  1  0
 14 15  2  0
  8 16  1  0
 16 17  1  0
 17 18  2  0
 17 19  1  0
 19 20  1  0
 20 21  1  0
 21 22  1  0
 22 23  1  0
 23 24  1  0
 15 10  1  0
  1 25  1  0
  1 26  1  0
  1 27  1  0
  2 28  1  0
  2 29  1  0
  3 30  1  0
  3 31  1  0
  4 32  1  0
  4 33  1  0
  8 34  1  6
  9 35  1  0
  9 36  1  0
 11 37  1  0
 12 38  1  0
 13 39  1  0
 15 40  1  0
 16 41  1  0
 19 42  1  0
 19 43  1  0
 20 44  1  0
 20 45  1  0
 21 46  1  0
 22 47  1  0
 22 48  1  0
 23 49  1  0
 23 50  1  0
 24 51  1  0
 24 52  1  0
 24 53  1  0
M  CHG  1   5  -1
M  END
>  <UniqueID>  (3) 
3

>  <SMILES>  (3) 
CCCC[N-]C(=O)[C@H](Cc1cccnc1)NC(=O)CCNCCC

>  <Energy>  (3) 
32.11047064354025

>  <Genealogy>  (3) 
CCCC[N-]C(=O)C(Cc1cccnc1)NC(=O)CCNCCC (protonated)
CCCC[N-]C(=O)[C@H](Cc1cccnc1)NC(=O)CCNCCC (chirality)
CCCC[N-]C(=O)[C@H](Cc1cccnc1)NC(=O)CCNCCC (3D coordinates assigned)
CCCC[N-]C(=O)[C@H](Cc1cccnc1)NC(=O)CCNCCC (optimized conformer: 32.11047064354025 kcal/mol)

>  <smiles>  (3) 
CCCCNC(=O)C(Cc1cccnc1)NC(=O)CCNCCC

>  <score_type>  (3) 
oracle

>  <origin>  (3) 
adg

>  <m_score__min__energy>  (3) 
-8.7799999999999994

>  <m_primary>  (3) 
energy

$$$$
3:0
     RDKit          3D

 34 36  0  0  0  0  0  0  0  0999 V2000
   -4.7810   25.2780  -30.4600 Cl  0  0  0  0  0  0  0  0  0  0  0  0
   -5.7690   23.8930  -30.8920 C   0  0  0  0  0  0  0  0  0  0  0  0
   -5.4560   23.1350  -32.0240 C   0  0  0  0  0  0  0  0  0  0  0  0
   -6.2430   22.0310  -32.3670 C   0  0  0  0  0  0  0  0  0  0  0  0
   -7.3570   21.6860  -31.5870 C   0  0  0  0  0  0  0  0  0  0  0  0
   -8.1700   20.5540  -31.9300 N   0  0  0  0  0  0  0  0  0  0  0  0
   -9.3980   20.6210  -32.4120 N   0  0  0  0  0  0  0  0  0  0  0  0
   -9.8440   19.4030  -32.6730 N   0  0  0  0  0  0  0  0  0  0  0  0
   -8.9020   18.5170  -32.3780 N   0  0  0  0  0  0  0  0  0  0  0  0
   -7.8600   19.2400  -31.9170 C   0  0  0  0  0  0  0  0  0  0  0  0
   -6.5320   18.6470  -31.5410 C   0  0  0  0  0  0  0  0  0  0  0  0
   -5.8840   18.0370  -32.7190 N   0  0  0  0  0  0  0  0  0  0  0  0
   -6.0850   18.8900  -33.9130 C   0  0  0  0  0  0  0  0  0  0  0  0
   -5.6760   18.1900  -35.2210 C   0  0  0  0  0  0  0  0  0  0  0  0
   -4.3590   16.9650  -34.9280 S   0  0  0  0  0  0  0  0  0  0  0  0
   -5.3710   15.8890  -33.8370 C   0  0  0  0  0  0  0  0  0  0  0  0
   -6.3710   16.6650  -32.9610 C   0  0  0  0  0  0  0  0  0  0  0  0
   -7.6530   22.4390  -30.4410 C   0  0  0  0  0  0  0  0  0  0  0  0
   -6.8660   23.5420  -30.0980 C   0  0  0  0  0  0  0  0  0  0  0  0
   -4.5901   23.4070  -32.6454 H   0  0  0  0  0  0  0  0  0  0  0  0
   -5.9874   21.4304  -33.2524 H   0  0  0  0  0  0  0  0  0  0  0  0
   -9.9430   21.4990  -32.5620 H   0  0  0  0  0  0  0  0  0  0  0  0
   -5.8824   19.4393  -31.1407 H   0  0  0  0  0  0  0  0  0  0  0  0
   -6.6934   17.8679  -30.7814 H   0  0  0  0  0  0  0  0  0  0  0  0
   -7.1494   19.1602  -33.9768 H   0  0  0  0  0  0  0  0  0  0  0  0
   -5.4452   19.7773  -33.7979 H   0  0  0  0  0  0  0  0  0  0  0  0
   -6.5535   17.6793  -35.6444 H   0  0  0  0  0  0  0  0  0  0  0  0
   -5.2959   18.9503  -35.9192 H   0  0  0  0  0  0  0  0  0  0  0  0
   -5.9343   15.1857  -34.4680 H   0  0  0  0  0  0  0  0  0  0  0  0
   -4.6761   15.3761  -33.1558 H   0  0  0  0  0  0  0  0  0  0  0  0
   -7.3432   16.7103  -33.4736 H   0  0  0  0  0  0  0  0  0  0  0  0
   -6.4771   16.1479  -31.9959 H   0  0  0  0  0  0  0  0  0  0  0  0
   -8.5090   22.1599  -29.8090 H   0  0  0  0  0  0  0  0  0  0  0  0
   -7.1093   24.1342  -29.2035 H   0  0  0  0  0  0  0  0  0  0  0  0
  1  2  1  0
  2  3  2  0
  3  4  1  0
  4  5  2  0
  5  6  1  0
  6  7  1  0
  7  8  2  0
  8  9  1  0
  9 10  2  0
 10 11  1  0
 11 12  1  0
 12 13  1  0
 13 14  1  0
 14 15  1  0
 15 16  1  0
 16 17  1  0
  5 18  1  0
 18 19  2  0
 19  2  1  0
 10  6  1  0
 17 12  1  0
  3 20  1  0
  4 21  1  0
  7 22  1  0
 11 23  1  0
 11 24  1  0
 13 25  1  0
 13 26  1  0
 14 27  1  0
 14 28  1  0
 16 29  1  0
 16 30  1  0
 17 31  1  0
 17 32  1  0
 18 33  1  0
 19 34  1  0
M  CHG  1   7   1
M  END
>  <UniqueID>  (4) 
4

>  <SMILES>  (4) 
Clc1ccc(-n2[nH+]nnc2CN2CCSCC2)cc1

>  <Energy>  (4) 
84.91311428844395

>  <Genealogy>  (4) 
Clc1ccc(-n2[nH+]nnc2CN2CCSCC2)cc1 (protonated)
Clc1ccc(-n2[nH+]nnc2CN2CCSCC2)cc1 (3D coordinates assigned)
Clc1ccc(-n2[nH+]nnc2CN2CCSCC2)cc1 (nonaromatic ring conformer: 84.91311428844395 kcal/mol)

>  <smiles>  (4) 
Clc1ccc(-n2nnnc2CN2CCSCC2)cc1

>  <score_type>  (4) 
oracle

>  <origin>  (4) 
adg

>  <m_score__min__energy>  (4) 
-7.4299999999999997

>  <m_primary>  (4) 
energy

$$$$
4:0
     RDKit          3D

 53 55  0  0  0  0  0  0  0  0999 V2000
   -1.5050   19.6160  -27.6200 C   0  0  0  0  0  0  0  0  0  0  0  0
   -0.4070   19.9080  -28.6430 C   0  0  0  0  0  0  0  0  0  0  0  0
   -0.4330   18.9510  -29.8500 C   0  0  0  0  0  0  0  0  0  0  0  0
   -0.1160   19.6240  -31.1960 C   0  0  0  0  0  0  0  0  0  0  0  0
   -1.2610   19.5870  -32.1070 N   0  0  0  0  0  0  0  0  0  0  0  0
   -1.4630   20.6150  -33.0900 C   0  0  0  0  0  0  0  0  0  0  0  0
   -0.5480   21.4520  -33.3170 O   0  0  0  0  0  0  0  0  0  0  0  0
   -2.7740   20.7670  -33.8140 C   0  0  0  0  0  0  0  0  0  0  0  0
   -3.9110   20.3410  -32.9900 N   0  0  0  0  0  0  0  0  0  0  0  0
   -4.3590   20.8900  -31.8250 C   0  0  0  0  0  0  0  0  0  0  0  0
   -3.7370   22.0270  -31.1070 C   0  0  0  0  0  0  0  0  0  0  0  0
   -2.6000   21.8400  -30.3080 C   0  0  0  0  0  0  0  0  0  0  0  0
   -2.0440   22.9100  -29.6070 C   0  0  0  0  0  0  0  0  0  0  0  0
   -2.6220   24.1910  -29.6850 C   0  0  0  0  0  0  0  0  0  0  0  0
   -2.0890   25.2920  -28.9950 O   0  0  0  0  0  0  0  0  0  0  0  0
   -1.6730   25.2650  -27.6340 C   0  0  0  0  0  0  0  0  0  0  0  0
   -3.7680   24.3870  -30.4700 C   0  0  0  0  0  0  0  0  0  0  0  0
   -4.3270   25.6740  -30.5250 O   0  0  0  0  0  0  0  0  0  0  0  0
   -5.7040   25.9650  -30.3160 C   0  0  0  0  0  0  0  0  0  0  0  0
   -4.3240   23.3000  -31.1730 C   0  0  0  0  0  0  0  0  0  0  0  0
   -5.5090   20.2370  -31.3860 C   0  0  0  0  0  0  0  0  0  0  0  0
   -5.7460   19.2490  -32.3170 C   0  0  0  0  0  0  0  0  0  0  0  0
   -6.7550   18.2910  -32.3740 C   0  0  0  0  0  0  0  0  0  0  0  0
   -6.7460   17.3940  -33.4570 C   0  0  0  0  0  0  0  0  0  0  0  0
   -5.7420   17.4760  -34.4450 C   0  0  0  0  0  0  0  0  0  0  0  0
   -4.7370   18.4560  -34.3610 C   0  0  0  0  0  0  0  0  0  0  0  0
   -4.7670   19.3360  -33.2730 C   0  0  0  0  0  0  0  0  0  0  0  0
   -1.0977   19.7243  -26.6039 H   0  0  0  0  0  0  0  0  0  0  0  0
   -2.3345   20.3248  -27.7600 H   0  0  0  0  0  0  0  0  0  0  0  0
   -1.8728   18.5888  -27.7600 H   0  0  0  0  0  0  0  0  0  0  0  0
   -0.5354   20.9371  -29.0098 H   0  0  0  0  0  0  0  0  0  0  0  0
    0.5588   19.7682  -28.1353 H   0  0  0  0  0  0  0  0  0  0  0  0
    0.3097   18.1582  -29.6775 H   0  0  0  0  0  0  0  0  0  0  0  0
   -1.4601   18.5644  -29.9244 H   0  0  0  0  0  0  0  0  0  0  0  0
    0.1593   20.6732  -31.0131 H   0  0  0  0  0  0  0  0  0  0  0  0
    0.7121   19.0733  -31.6662 H   0  0  0  0  0  0  0  0  0  0  0  0
   -1.9570   18.8150  -32.0210 H   0  0  0  0  0  0  0  0  0  0  0  0
   -2.9089   21.8244  -34.0856 H   0  0  0  0  0  0  0  0  0  0  0  0
   -2.7441   20.1266  -34.7079 H   0  0  0  0  0  0  0  0  0  0  0  0
   -2.1432   20.8421  -30.2335 H   0  0  0  0  0  0  0  0  0  0  0  0
   -1.1478   22.7517  -28.9891 H   0  0  0  0  0  0  0  0  0  0  0  0
   -2.5554   25.3223  -26.9797 H   0  0  0  0  0  0  0  0  0  0  0  0
   -1.1292   24.3297  -27.4353 H   0  0  0  0  0  0  0  0  0  0  0  0
   -1.0129   26.1222  -27.4353 H   0  0  0  0  0  0  0  0  0  0  0  0
   -5.9098   26.0085  -29.2363 H   0  0  0  0  0  0  0  0  0  0  0  0
   -5.9477   26.9345  -30.7751 H   0  0  0  0  0  0  0  0  0  0  0  0
   -6.3191   25.1770  -30.7751 H   0  0  0  0  0  0  0  0  0  0  0  0
   -5.2285   23.4508  -31.7805 H   0  0  0  0  0  0  0  0  0  0  0  0
   -6.1018   20.4623  -30.4872 H   0  0  0  0  0  0  0  0  0  0  0  0
   -7.5329   18.2377  -31.5981 H   0  0  0  0  0  0  0  0  0  0  0  0
   -7.5270   16.6232  -33.5344 H   0  0  0  0  0  0  0  0  0  0  0  0
   -5.7455   16.7682  -35.2870 H   0  0  0  0  0  0  0  0  0  0  0  0
   -3.9511   18.5288  -35.1272 H   0  0  0  0  0  0  0  0  0  0  0  0
  1  2  1  0
  2  3  1  0
  3  4  1  0
  4  5  1  0
  5  6  1  0
  6  7  2  0
  6  8  1  0
  8  9  1  0
  9 10  1  0
 10 11  1  0
 11 12  2  0
 12 13  1  0
 13 14  2  0
 14 15  1  0
 15 16  1  0
 14 17  1  0
 17 18  1  0
 18 19  1  0
 17 20  2  0
 10 21  2  0
 21 22  1  0
 22 23  2  0
 23 24  1  0
 24 25  2  0
 25 26  1  0
 26 27  2  0
 27  9  1  0
 20 11  1  0
 27 22  1  0
  1 28  1  0
  1 29  1  0
  1 30  1  0
  2 31  1  0
  2 32  1  0
  3 33  1  0
  3 34  1  0
  4 35  1  0
  4 36  1  0
  5 37  1  0
  8 38  1  0
  8 39  1  0
 12 40  1  0
 13 41  1  0
 16 42  1  0
 16 43  1  0
 16 44  1  0
 19 45  1  0
 19 46  1  0
 19 47  1  0
 20 48  1  0
 21 49  1  0
 23 50  1  0
 24 51  1  0
 25 52  1  0
 26 53  1  0
M  END
>  <UniqueID>  (5) 
5

>  <SMILES>  (5) 
CCCCNC(=O)Cn1c(-c2ccc(OC)c(OC)c2)cc2ccccc21

>  <Energy>  (5) 
82.98375832944872

>  <Genealogy>  (5) 
CCCCNC(=O)Cn1c(-c2ccc(OC)c(OC)c2)cc2ccccc21 (3D coordinates assigned)
CCCCNC(=O)Cn1c(-c2ccc(OC)c(OC)c2)cc2ccccc21 (optimized conformer: 82.98375832944872 kcal/mol)

>  <smiles>  (5) 
CCCCNC(=O)Cn1c(-c2ccc(OC)c(OC)c2)cc2ccccc21

>  <score_type>  (5) 
oracle

>  <origin>  (5) 
adg

>  <m_score__min__energy>  (5) 
-8.4199999999999999

>  <m_primary>  (5) 
energy

$$$$
5:0
     RDKit          3D

 42 45  0  0  0  0  0  0  0  0999 V2000
   -3.9630   23.7780  -31.2980 O   0  0  0  0  0  0  0  0  0  0  0  0
   -3.8170   24.2510  -30.1370 C   0  0  0  0  0  0  0  0  0  0  0  0
   -4.8260   25.1180  -29.5950 N   0  0  0  0  0  0  0  0  0  0  0  0
   -6.0970   25.3270  -30.2880 C   0  0  0  0  0  0  0  0  0  0  0  0
   -6.6990   24.0140  -30.6960 C   0  0  0  0  0  0  0  0  0  0  0  0
   -7.1600   23.1090  -29.7300 C   0  0  0  0  0  0  0  0  0  0  0  0
   -7.6760   21.8780  -30.1370 C   0  0  0  0  0  0  0  0  0  0  0  0
   -7.7270   21.5570  -31.4980 C   0  0  0  0  0  0  0  0  0  0  0  0
   -8.3470   19.9980  -32.0230 S   0  0  0  0  0  0  0  0  0  0  0  0
   -8.8670   19.2280  -30.8410 O   0  0  0  0  0  0  0  0  0  0  0  0
   -9.4840   20.1970  -32.9870 O   0  0  0  0  0  0  0  0  0  0  0  0
   -7.0520   19.0970  -32.8020 C   0  0  0  0  0  0  0  0  0  0  0  0
   -5.8820   19.7540  -33.2100 C   0  0  0  0  0  0  0  0  0  0  0  0
   -4.8440   19.0330  -33.8100 C   0  0  0  0  0  0  0  0  0  0  0  0
   -4.9680   17.6530  -33.9980 C   0  0  0  0  0  0  0  0  0  0  0  0
   -3.9610   16.9550  -34.5780 F   0  0  0  0  0  0  0  0  0  0  0  0
   -6.1290   16.9930  -33.5830 C   0  0  0  0  0  0  0  0  0  0  0  0
   -7.1670   17.7110  -32.9850 C   0  0  0  0  0  0  0  0  0  0  0  0
   -7.2380   22.4780  -32.4310 C   0  0  0  0  0  0  0  0  0  0  0  0
   -6.7370   23.6720  -32.0140 N   0  0  0  0  0  0  0  0  0  0  0  0
   -2.5980   23.9150  -29.3650 C   0  0  0  0  0  0  0  0  0  0  0  0
   -1.6680   24.9230  -28.9740 C   0  0  0  0  0  0  0  0  0  0  0  0
   -0.5480   24.6030  -28.2550 N   0  0  0  0  0  0  0  0  0  0  0  0
   -0.3350   23.3100  -27.9170 C   0  0  0  0  0  0  0  0  0  0  0  0
    0.7030   22.8240  -27.2190 N   0  0  0  0  0  0  0  0  0  0  0  0
    0.5080   21.5110  -27.1120 N   0  0  0  0  0  0  0  0  0  0  0  0
   -0.6460   21.1720  -27.7380 C   0  0  0  0  0  0  0  0  0  0  0  0
   -1.1960   22.3180  -28.2580 C   0  0  0  0  0  0  0  0  0  0  0  0
   -2.3510   22.5750  -28.9840 C   0  0  0  0  0  0  0  0  0  0  0  0
   -4.6260   25.6550  -28.7210 H   0  0  0  0  0  0  0  0  0  0  0  0
   -6.7931   25.8505  -29.6162 H   0  0  0  0  0  0  0  0  0  0  0  0
   -5.9138   25.9286  -31.1905 H   0  0  0  0  0  0  0  0  0  0  0  0
   -7.1155   23.3666  -28.6615 H   0  0  0  0  0  0  0  0  0  0  0  0
   -8.0425   21.1603  -29.3883 H   0  0  0  0  0  0  0  0  0  0  0  0
   -5.7803   20.8387  -33.0579 H   0  0  0  0  0  0  0  0  0  0  0  0
   -3.9299   19.5520  -34.1340 H   0  0  0  0  0  0  0  0  0  0  0  0
   -6.2248   15.9068  -33.7278 H   0  0  0  0  0  0  0  0  0  0  0  0
   -8.0774   17.1881  -32.6566 H   0  0  0  0  0  0  0  0  0  0  0  0
   -7.2587   22.2361  -33.5039 H   0  0  0  0  0  0  0  0  0  0  0  0
   -1.8530   25.9706  -29.2537 H   0  0  0  0  0  0  0  0  0  0  0  0
   -1.0670   20.1587  -27.8156 H   0  0  0  0  0  0  0  0  0  0  0  0
   -3.0478   21.7674  -29.2529 H   0  0  0  0  0  0  0  0  0  0  0  0
  1  2  2  0
  2  3  1  0
  3  4  1  0
  4  5  1  0
  5  6  2  0
  6  7  1  0
  7  8  2  0
  8  9  1  0
  9 10  2  0
  9 11  2  0
  9 12  1  0
 12 13  2  0
 13 14  1  0
 14 15  2  0
 15 16  1  0
 15 17  1  0
 17 18  2  0
  8 19  1  0
 19 20  2  0
  2 21  1  0
 21 22  2  0
 22 23  1  0
 23 24  2  0
 24 25  1  0
 25 26  1  0
 26 27  2  0
 27 28  1  0
 28 29  2  0
 20  5  1  0
 29 21  1  0
 18 12  1  0
 28 24  1  0
  3 30  1  0
  4 31  1  0
  4 32  1  0
  6 33  1  0
  7 34  1  0
 13 35  1  0
 14 36  1  0
 17 37  1  0
 18 38  1  0
 19 39  1  0
 22 40  1  0
 27 41  1  0
 29 42  1  0
M  CHG  1  25  -1
M  END
>  <UniqueID>  (6) 
6

>  <SMILES>  (6) 
O=C(NCc1ccc(S(=O)(=O)c2ccc(F)cc2)cn1)c1cnc2[n-]ncc2c1

>  <Energy>  (6) 
89.73564625202386

>  <Genealogy>  (6) 
O=C(NCc1ccc(S(=O)(=O)c2ccc(F)cc2)cn1)c1cnc2[n-]ncc2c1 (protonated)
O=C(NCc1ccc(S(=O)(=O)c2ccc(F)cc2)cn1)c1cnc2[n-]ncc2c1 (3D coordinates assigned)
O=C(NCc1ccc(S(=O)(=O)c2ccc(F)cc2)cn1)c1cnc2[n-]ncc2c1 (optimized conformer: 89.73564625202386 kcal/mol)

>  <smiles>  (6) 
O=C(NCc1ccc(S(=O)(=O)c2ccc(F)cc2)cn1)c1cnc2[nH]ncc2c1

>  <score_type>  (6) 
oracle

>  <origin>  (6) 
adg

>  <m_score__min__energy>  (6) 
-10.65

>  <m_primary>  (6) 
energy

$$$$
6:0
     RDKit          3D

 46 48  0  0  0  0  0  0  0  0999 V2000
   -8.8820   23.4130  -32.3310 C   0  0  0  0  0  0  0  0  0  0  0  0
   -8.6910   21.9310  -32.0210 C   0  0  0  0  0  0  0  0  0  0  0  0
   -7.3680   21.6880  -31.4320 N   0  0  0  0  0  0  0  0  0  0  0  0
   -6.9870   22.3790  -30.1910 C   0  0  0  0  0  0  0  0  0  0  0  0
   -5.8540   23.3920  -30.4500 C   0  0  0  0  0  0  0  0  0  0  0  0
   -6.3290   24.8280  -30.1790 C   0  0  0  0  0  0  0  0  0  0  0  0
   -5.2230   25.8580  -30.5000 C   0  0  0  0  0  0  0  0  0  0  0  0
   -3.8600   25.2950  -30.4620 N   0  0  0  0  0  0  0  0  0  0  0  0
   -3.7050   24.3160  -29.3790 C   0  0  0  0  0  0  0  0  0  0  0  0
   -4.6070   23.0810  -29.5880 C   0  0  0  0  0  0  0  0  0  0  0  0
   -6.3370   21.1070  -32.2520 C   0  0  0  0  0  0  0  0  0  0  0  0
   -5.3000   21.8880  -32.6700 N   0  0  0  0  0  0  0  0  0  0  0  0
   -4.3130   21.3870  -33.4540 C   0  0  0  0  0  0  0  0  0  0  0  0
   -4.3410   20.0880  -33.8400 N   0  0  0  0  0  0  0  0  0  0  0  0
   -5.3540   19.2640  -33.4670 C   0  0  0  0  0  0  0  0  0  0  0  0
   -6.3830   19.7500  -32.6370 C   0  0  0  0  0  0  0  0  0  0  0  0
   -7.5320   18.8520  -32.2450 C   0  0  0  0  0  0  0  0  0  0  0  0
   -7.1960   17.3710  -32.4510 C   0  0  0  0  0  0  0  0  0  0  0  0
   -6.6000   17.1480  -33.7720 N   0  0  0  0  0  0  0  0  0  0  0  0
   -5.2930   17.8120  -33.8680 C   0  0  0  0  0  0  0  0  0  0  0  0
   -8.9548   23.9780  -31.3900 H   0  0  0  0  0  0  0  0  0  0  0  0
   -8.0236   23.7794  -32.9132 H   0  0  0  0  0  0  0  0  0  0  0  0
   -9.8052   23.5498  -32.9132 H   0  0  0  0  0  0  0  0  0  0  0  0
   -9.4667   21.6081  -31.3110 H   0  0  0  0  0  0  0  0  0  0  0  0
   -8.7695   21.3615  -32.9588 H   0  0  0  0  0  0  0  0  0  0  0  0
   -7.8626   22.9124  -29.7925 H   0  0  0  0  0  0  0  0  0  0  0  0
   -6.6305   21.6308  -29.4678 H   0  0  0  0  0  0  0  0  0  0  0  0
   -5.5739   23.3020  -31.5099 H   0  0  0  0  0  0  0  0  0  0  0  0
   -7.2074   25.0388  -30.8067 H   0  0  0  0  0  0  0  0  0  0  0  0
   -6.5821   24.9132  -29.1119 H   0  0  0  0  0  0  0  0  0  0  0  0
   -5.4047   26.2602  -31.5076 H   0  0  0  0  0  0  0  0  0  0  0  0
   -5.2718   26.6352  -29.7231 H   0  0  0  0  0  0  0  0  0  0  0  0
   -3.6530   24.8250  -31.3760 H   0  0  0  0  0  0  0  0  0  0  0  0
   -2.6556   23.9882  -29.3430 H   0  0  0  0  0  0  0  0  0  0  0  0
   -4.0012   24.7996  -28.4365 H   0  0  0  0  0  0  0  0  0  0  0  0
   -4.0198   22.2969  -30.0884 H   0  0  0  0  0  0  0  0  0  0  0  0
   -4.9597   22.7555  -28.5982 H   0  0  0  0  0  0  0  0  0  0  0  0
   -5.2640   22.8960  -32.4000 H   0  0  0  0  0  0  0  0  0  0  0  0
   -3.4869   22.0372  -33.7777 H   0  0  0  0  0  0  0  0  0  0  0  0
   -7.7676   19.0189  -31.1836 H   0  0  0  0  0  0  0  0  0  0  0  0
   -8.3914   19.0988  -32.8856 H   0  0  0  0  0  0  0  0  0  0  0  0
   -6.4834   17.0523  -31.6760 H   0  0  0  0  0  0  0  0  0  0  0  0
   -8.1256   16.7870  -32.3820 H   0  0  0  0  0  0  0  0  0  0  0  0
   -7.2360   17.5420  -34.5070 H   0  0  0  0  0  0  0  0  0  0  0  0
   -4.5837   17.2926  -33.2068 H   0  0  0  0  0  0  0  0  0  0  0  0
   -4.9714   17.7680  -34.9190 H   0  0  0  0  0  0  0  0  0  0  0  0
  1  2  1  0
  2  3  1  0
  3  4  1  0
  4  5  1  0
  5  6  1  0
  6  7  1  0
  7  8  1  0
  8  9  1  0
  9 10  1  0
  3 11  1  0
 11 12  2  0
 12 13  1  0
 13 14  2  0
 14 15  1  0
 15 16  2  0
 16 17  1  0
 17 18  1  0
 18 19  1  0
 19 20  1  0
 10  5  1  0
 16 11  1  0
 20 15  1  0
  1 21  1  0
  1 22  1  0
  1 23  1  0
  2 24  1  0
  2 25  1  0
  4 26  1  0
  4 27  1  0
  5 28  1  0
  6 29  1  0
  6 30  1  0
  7 31  1  0
  7 32  1  0
  8 33  1  0
  9 34  1  0
  9 35  1  0
 10 36  1  0
 10 37  1  0
 12 38  1  0
 13 39  1  0
 17 40  1  0
 17 41  1  0
 18 42  1  0
 18 43  1  0
 19 44  1  0
 20 45  1  0
 20 46  1  0
M  CHG  1  12   1
M  END
>  <UniqueID>  (7) 
7

>  <SMILES>  (7) 
CCN(CC1CCNCC1)c1[nH+]cnc2c1CCNC2

>  <Energy>  (7) 
52.15162034043221

>  <Genealogy>  (7) 
CCN(CC1CCNCC1)c1[nH+]cnc2c1CCNC2 (protonated)
CCN(CC1CCNCC1)c1[nH+]cnc2c1CCNC2 (3D coordinates assigned)
CCN(CC1CCNCC1)c1[nH+]cnc2c1CCNC2 (nonaromatic ring conformer: 52.15162034043221 kcal/mol)

>  <smiles>  (7) 
CCN(CC1CCNCC1)c1ncnc2c1CCNC2

>  <score_type>  (7) 
oracle

>  <origin>  (7) 
adg

>  <m_score__min__energy>  (7) 
-7.6699999999999999

>  <m_primary>  (7) 
energy

$$$$
7:0
     RDKit          3D

 68 71  0  0  0  0  0  0  0  0999 V2000
   -9.5210   21.9680  -31.4750 C   0  0  0  0  0  0  0  0  0  0  0  0
   -8.0960   22.2700  -31.9700 C   0  0  0  0  0  0  0  0  0  0  0  0
   -7.1980   21.0880  -32.0430 N   0  0  0  0  0  0  0  0  0  0  0  0
   -5.8210   21.3350  -31.5460 C   0  0  0  0  0  0  0  0  0  0  0  0
   -5.2110   22.6600  -32.0060 C   0  0  0  0  0  0  0  0  0  0  0  0
   -7.8270   19.8070  -31.6490 C   0  0  0  0  0  0  0  0  0  0  0  0
   -7.2060   18.6010  -32.3760 C   0  0  0  0  0  0  0  0  0  0  0  0
   -6.4560   18.9920  -33.5890 N   0  0  0  0  0  0  0  0  0  0  0  0
   -5.3180   18.1190  -33.8590 C   0  0  0  0  0  0  0  0  0  0  0  0
   -5.5250   16.7330  -34.1070 C   0  0  0  0  0  0  0  0  0  0  0  0
   -6.8140   16.1450  -34.0390 C   0  0  0  0  0  0  0  0  0  0  0  0
   -6.9970   14.7790  -34.2350 C   0  0  0  0  0  0  0  0  0  0  0  0
   -5.9080   13.9610  -34.4910 C   0  0  0  0  0  0  0  0  0  0  0  0
   -4.6320   14.5080  -34.5840 C   0  0  0  0  0  0  0  0  0  0  0  0
   -4.4150   15.9030  -34.4330 C   0  0  0  0  0  0  0  0  0  0  0  0
   -3.1600   16.4490  -34.5860 N   0  0  0  0  0  0  0  0  0  0  0  0
   -2.0880   15.6650  -35.2430 C   0  0  0  0  0  0  0  0  0  0  0  0
   -2.9060   17.7350  -34.1570 C   0  0  0  0  0  0  0  0  0  0  0  0
   -1.5750   18.2020  -34.0010 C   0  0  0  0  0  0  0  0  0  0  0  0
   -1.3010   19.5120  -33.6070 C   0  0  0  0  0  0  0  0  0  0  0  0
    0.0650   19.9430  -33.4710 N   0  0  0  0  0  0  0  0  0  0  0  0
    0.6910   20.9310  -34.3080 C   0  0  0  0  0  0  0  0  0  0  0  0
   -0.1060   21.8640  -34.9870 C   0  0  0  0  0  0  0  0  0  0  0  0
    0.4780   22.8130  -35.8300 C   0  0  0  0  0  0  0  0  0  0  0  0
    1.8620   22.8260  -36.0330 C   0  0  0  0  0  0  0  0  0  0  0  0
    2.4260   23.8270  -36.8910 N   0  0  0  0  0  0  0  0  0  0  0  0
    1.8700   25.1140  -37.1960 C   0  0  0  0  0  0  0  0  0  0  0  0
    2.0350   26.2900  -36.2840 C   0  0  0  0  0  0  0  0  0  0  0  0
    1.2570   25.2690  -38.2840 O   0  0  0  0  0  0  0  0  0  0  0  0
    2.6670   21.9010  -35.3480 C   0  0  0  0  0  0  0  0  0  0  0  0
    2.0840   20.9480  -34.5050 C   0  0  0  0  0  0  0  0  0  0  0  0
   -2.3580   20.3960  -33.4020 C   0  0  0  0  0  0  0  0  0  0  0  0
   -3.6740   19.9570  -33.5050 C   0  0  0  0  0  0  0  0  0  0  0  0
   -3.9810   18.6130  -33.8400 C   0  0  0  0  0  0  0  0  0  0  0  0
   -9.5342   21.9652  -30.3751 H   0  0  0  0  0  0  0  0  0  0  0  0
  -10.2101   22.7401  -31.8480 H   0  0  0  0  0  0  0  0  0  0  0  0
   -9.8376   20.9828  -31.8480 H   0  0  0  0  0  0  0  0  0  0  0  0
   -8.1689   22.7071  -32.9768 H   0  0  0  0  0  0  0  0  0  0  0  0
   -7.6499   22.9527  -31.2318 H   0  0  0  0  0  0  0  0  0  0  0  0
   -5.8464   21.3315  -30.4463 H   0  0  0  0  0  0  0  0  0  0  0  0
   -5.1891   20.5371  -31.9631 H   0  0  0  0  0  0  0  0  0  0  0  0
   -4.9343   23.2610  -31.1272 H   0  0  0  0  0  0  0  0  0  0  0  0
   -4.3141   22.4604  -32.6108 H   0  0  0  0  0  0  0  0  0  0  0  0
   -5.9458   23.2116  -32.6108 H   0  0  0  0  0  0  0  0  0  0  0  0
   -7.7002   19.6698  -30.5650 H   0  0  0  0  0  0  0  0  0  0  0  0
   -8.8901   19.8556  -31.9272 H   0  0  0  0  0  0  0  0  0  0  0  0
   -6.5183   18.0898  -31.6862 H   0  0  0  0  0  0  0  0  0  0  0  0
   -8.0288   17.9425  -32.6912 H   0  0  0  0  0  0  0  0  0  0  0  0
   -6.1960   19.9990  -33.5440 H   0  0  0  0  0  0  0  0  0  0  0  0
   -7.1020   18.9760  -34.4110 H   0  0  0  0  0  0  0  0  0  0  0  0
   -7.6862   16.7809  -33.8272 H   0  0  0  0  0  0  0  0  0  0  0  0
   -8.0079   14.3481  -34.1866 H   0  0  0  0  0  0  0  0  0  0  0  0
   -6.0525   12.8783  -34.6208 H   0  0  0  0  0  0  0  0  0  0  0  0
   -3.7747   13.8468  -34.7783 H   0  0  0  0  0  0  0  0  0  0  0  0
   -1.4515   15.1995  -34.4760 H   0  0  0  0  0  0  0  0  0  0  0  0
   -2.5385   14.8818  -35.8704 H   0  0  0  0  0  0  0  0  0  0  0  0
   -1.4781   16.3317  -35.8704 H   0  0  0  0  0  0  0  0  0  0  0  0
   -0.7389   17.5142  -34.1955 H   0  0  0  0  0  0  0  0  0  0  0  0
    0.6340   19.5240  -32.7010 H   0  0  0  0  0  0  0  0  0  0  0  0
   -1.1980   21.8486  -34.8551 H   0  0  0  0  0  0  0  0  0  0  0  0
   -0.1552   23.5554  -36.3378 H   0  0  0  0  0  0  0  0  0  0  0  0
    1.9876   25.9524  -35.2382 H   0  0  0  0  0  0  0  0  0  0  0  0
    3.0087   26.7660  -36.4719 H   0  0  0  0  0  0  0  0  0  0  0  0
    1.2299   27.0156  -36.4719 H   0  0  0  0  0  0  0  0  0  0  0  0
    3.7594   21.9257  -35.4745 H   0  0  0  0  0  0  0  0  0  0  0  0
    2.7180   20.2086  -33.9939 H   0  0  0  0  0  0  0  0  0  0  0  0
   -2.1506   21.4481  -33.1571 H   0  0  0  0  0  0  0  0  0  0  0  0
   -4.4941   20.6671  -33.3228 H   0  0  0  0  0  0  0  0  0  0  0  0
  1  2  1  0
  2  3  1  0
  3  4  1  0
  4  5  1  0
  3  6  1  0
  6  7  1  0
  7  8  1  0
  8  9  1  0
  9 10  2  0
 10 11  1  0
 11 12  2  0
 12 13  1  0
 13 14  2  0
 14 15  1  0
 15 16  2  0
 16 17  1  0
 16 18  1  0
 18 19  2  0
 19 20  1  0
 20 21  1  0
 21 22  1  0
 22 23  2  0
 23 24  1  0
 24 25  2  0
 25 26  1  0
 26 27  1  0
 27 28  1  0
 27 29  2  0
 25 30  1  0
 30 31  2  0
 20 32  2  0
 32 33  1  0
 33 34  2  0
 34  9  1  0
 15 10  1  0
 34 18  1  0
 31 22  1  0
  1 35  1  0
  1 36  1  0
  1 37  1  0
  2 38  1  0
  2 39  1  0
  4 40  1  0
  4 41  1  0
  5 42  1  0
  5 43  1  0
  5 44  1  0
  6 45  1  0
  6 46  1  0
  7 47  1  0
  7 48  1  0
  8 49  1  0
  8 50  1  0
 11 51  1  0
 12 52  1  0
 13 53  1  0
 14 54  1  0
 17 55  1  0
 17 56  1  0
 17 57  1  0
 19 58  1  0
 21 59  1  0
 23 60  1  0
 24 61  1  0
 28 62  1  0
 28 63  1  0
 28 64  1  0
 30 65  1  0
 31 66  1  0
 32 67  1  0
 33 68  1  0
M  CHG  3   8   1  16   1  26  -1
M  END
>  <UniqueID>  (8) 
8

>  <SMILES>  (8) 
CCN(CC)CC[NH2+]c1c2ccccc2[n+](C)c2cc(Nc3ccc([N-]C(C)=O)cc3)ccc12

>  <Energy>  (8) 
115.22214342748366

>  <Genealogy>  (8) 
CCN(CC)CC[NH2+]c1c2ccccc2[n+](C)c2cc(Nc3ccc([N-]C(C)=O)cc3)ccc12 (protonated)
CCN(CC)CC[NH2+]c1c2ccccc2[n+](C)c2cc(Nc3ccc([N-]C(C)=O)cc3)ccc12 (3D coordinates assigned)
CCN(CC)CC[NH2+]c1c2ccccc2[n+](C)c2cc(Nc3ccc([N-]C(C)=O)cc3)ccc12 (optimized conformer: 115.22214342748366 kcal/mol)

>  <smiles>  (8) 
CCN(CC)CCNc1c2ccccc2[n+](C)c2cc(Nc3ccc(NC(C)=O)cc3)ccc12

>  <score_type>  (8) 
oracle

>  <origin>  (8) 
adg

>  <m_score__min__energy>  (8) 
-9.8900000000000006

>  <m_primary>  (8) 
energy

$$$$
8:0
     RDKit          3D

 53 55  0  0  0  0  0  0  0  0999 V2000
   -8.9558   19.6166  -33.1069 H   0  0  0  0  0  0  0  0  0  0  0  0
   -7.9830   20.0640  -32.8550 C   0  0  0  0  0  0  0  0  0  0  0  0
   -7.9110   21.0930  -31.9110 C   0  0  0  0  0  0  0  0  0  0  0  0
   -9.1100   21.5460  -31.2520 C   0  0  0  0  0  0  0  0  0  0  0  0
  -10.0720   21.9100  -30.7240 N   0  0  0  0  0  0  0  0  0  0  0  0
   -6.6760   21.6770  -31.5990 C   0  0  0  0  0  0  0  0  0  0  0  0
   -6.6257   22.4783  -30.8471 H   0  0  0  0  0  0  0  0  0  0  0  0
   -5.4960   21.2450  -32.2420 C   0  0  0  0  0  0  0  0  0  0  0  0
   -4.2190   21.8040  -31.9720 C   0  0  0  0  0  0  0  0  0  0  0  0
   -4.0280   22.9740  -31.0820 C   0  0  0  0  0  0  0  0  0  0  0  0
   -4.7110   24.1340  -31.1930 N   0  0  0  0  0  0  0  0  0  0  0  0
   -4.1660   24.9320  -30.2500 C   0  0  0  0  0  0  0  0  0  0  0  0
   -4.4919   25.9654  -30.0606 H   0  0  0  0  0  0  0  0  0  0  0  0
   -3.1800   24.3220  -29.5680 N   0  0  0  0  0  0  0  0  0  0  0  0
   -2.3160   24.9190  -28.5580 C   0  0  0  0  0  0  0  0  0  0  0  0
   -2.6900   24.6606  -27.5563 H   0  0  0  0  0  0  0  0  0  0  0  0
   -1.2923   24.5347  -28.6776 H   0  0  0  0  0  0  0  0  0  0  0  0
   -2.3134   26.0125  -28.6776 H   0  0  0  0  0  0  0  0  0  0  0  0
   -3.0660   23.0930  -30.0980 C   0  0  0  0  0  0  0  0  0  0  0  0
   -2.3392   22.3221  -29.8023 H   0  0  0  0  0  0  0  0  0  0  0  0
   -3.0890   21.2560  -32.6010 C   0  0  0  0  0  0  0  0  0  0  0  0
   -2.0899   21.6602  -32.3808 H   0  0  0  0  0  0  0  0  0  0  0  0
   -3.2280   20.2000  -33.5050 C   0  0  0  0  0  0  0  0  0  0  0  0
   -2.1730   19.7160  -34.0940 N   0  0  0  0  0  0  0  0  0  0  0  0
   -1.1570   18.9000  -33.4320 C   0  0  0  0  0  0  0  0  0  0  0  0
   -1.3669   18.8669  -32.3527 H   0  0  0  0  0  0  0  0  0  0  0  0
   -0.1689   19.3477  -33.6142 H   0  0  0  0  0  0  0  0  0  0  0  0
   -1.1630   17.4680  -33.9920 C   0  0  0  0  0  0  0  0  0  0  0  0
   -0.2208   16.9743  -33.7118 H   0  0  0  0  0  0  0  0  0  0  0  0
   -1.2716   17.5336  -35.0847 H   0  0  0  0  0  0  0  0  0  0  0  0
   -2.3410   16.6340  -33.4490 C   0  0  0  0  0  0  0  0  0  0  0  0
   -2.3393   16.6968  -32.3508 H   0  0  0  0  0  0  0  0  0  0  0  0
   -2.2038   15.6002  -33.7989 H   0  0  0  0  0  0  0  0  0  0  0  0
   -3.6630   17.1060  -33.9510 N   0  0  0  0  0  0  0  0  0  0  0  0
   -3.6760   18.1520  -33.9120 H   0  0  0  0  0  0  0  0  0  0  0  0
   -3.8560   16.7200  -35.3750 C   0  0  0  0  0  0  0  0  0  0  0  0
   -3.4956   17.5406  -36.0128 H   0  0  0  0  0  0  0  0  0  0  0  0
   -4.9291   16.5276  -35.5217 H   0  0  0  0  0  0  0  0  0  0  0  0
   -3.1030   15.4380  -35.7550 C   0  0  0  0  0  0  0  0  0  0  0  0
   -2.7930   14.9102  -34.8410 H   0  0  0  0  0  0  0  0  0  0  0  0
   -3.7625   14.7875  -36.3482 H   0  0  0  0  0  0  0  0  0  0  0  0
   -2.2137   15.6973  -36.3482 H   0  0  0  0  0  0  0  0  0  0  0  0
   -4.7680   16.6550  -33.0630 C   0  0  0  0  0  0  0  0  0  0  0  0
   -4.4401   15.7435  -32.5419 H   0  0  0  0  0  0  0  0  0  0  0  0
   -4.9796   17.4889  -32.3775 H   0  0  0  0  0  0  0  0  0  0  0  0
   -6.0830   16.3440  -33.7930 C   0  0  0  0  0  0  0  0  0  0  0  0
   -6.8766   16.1563  -33.0548 H   0  0  0  0  0  0  0  0  0  0  0  0
   -6.3638   17.2005  -34.4235 H   0  0  0  0  0  0  0  0  0  0  0  0
   -5.9504   15.4524  -34.4235 H   0  0  0  0  0  0  0  0  0  0  0  0
   -4.4630   19.6950  -33.7650 N   0  0  0  0  0  0  0  0  0  0  0  0
   -5.5840   20.1780  -33.1710 C   0  0  0  0  0  0  0  0  0  0  0  0
   -6.8220   19.6040  -33.4780 C   0  0  0  0  0  0  0  0  0  0  0  0
   -6.8807   18.7875  -34.2128 H   0  0  0  0  0  0  0  0  0  0  0  0
  1  2  1  0
  2  3  2  0
  3  4  1  0
  4  5  3  0
  3  6  1  0
  6  7  1  0
  6  8  2  0
  8  9  1  0
  9 10  1  0
 10 11  1  0
 11 12  2  0
 12 13  1  0
 12 14  1  0
 14 15  1  0
 15 16  1  0
 15 17  1  0
 15 18  1  0
 14 19  1  0
 19 20  1  0
  9 21  2  0
 21 22  1  0
 21 23  1  0
 23 24  2  0
 24 25  1  0
 25 26  1  0
 25 27  1  0
 25 28  1  0
 28 29  1  0
 28 30  1  0
 28 31  1  0
 31 32  1  0
 31 33  1  0
 31 34  1  0
 34 35  1  0
 34 36  1  0
 36 37  1  0
 36 38  1  0
 36 39  1  0
 39 40  1  0
 39 41  1  0
 39 42  1  0
 34 43  1  0
 43 44  1  0
 43 45  1  0
 43 46  1  0
 46 47  1  0
 46 48  1  0
 46 49  1  0
 23 50  1  0
 50 51  1  0
 51 52  2  0
 52 53  1  0
 52  2  1  0
 51  8  1  0
 19 10  2  0
M  CHG  2  34   1  50  -1
M  END
>  <UniqueID>  (9) 
9

>  <SMILES>  (9) 
CC[NH+](CC)CCC/N=c1/cc(-c2cn(C)cn2)c2cc(C#N)ccc2[n-]1

>  <Energy>  (9) 
92.11436592279445

>  <Genealogy>  (9) 
CC[NH+](CC)CCCN=c1cc(-c2cn(C)cn2)c2cc(C#N)ccc2[n-]1 (protonated)
CC[NH+](CC)CCC/N=c1/cc(-c2cn(C)cn2)c2cc(C#N)ccc2[n-]1 (cis-trans isomerization)
CC[NH+](CC)CCC/N=c1/cc(-c2cn(C)cn2)c2cc(C#N)ccc2[n-]1 (3D coordinates assigned)
CC[NH+](CC)CCC/N=c1/cc(-c2cn(C)cn2)c2cc(C#N)ccc2[n-]1 (optimized conformer: 92.11436592279445 kcal/mol)

>  <smiles>  (9) 
CCN(CC)CCCN=c1cc(-c2cn(C)cn2)c2cc(C#N)ccc2[nH]1

>  <score_type>  (9) 
oracle

>  <origin>  (9) 
adg

>  <m_score__min__energy>  (9) 
-8.5399999999999991

>  <m_primary>  (9) 
energy

$$$$
9:0
     RDKit          3D

 44 46  0  0  0  0  0  0  0  0999 V2000
   -9.0620   19.4900  -31.6010 C   0  0  0  0  0  0  0  0  0  0  0  0
   -8.4260   20.6870  -32.2950 C   0  0  0  0  0  0  0  0  0  0  0  0
   -7.0110   20.8300  -31.9280 N   0  0  0  0  0  0  0  0  0  0  0  0
   -6.4260   21.8440  -31.2540 C   0  0  0  0  0  0  0  0  0  0  0  0
   -7.2590   23.3590  -30.7580 S   0  0  0  0  0  0  0  0  0  0  0  0
   -5.9240   24.5380  -31.2090 C   0  0  0  0  0  0  0  0  0  0  0  0
   -4.7140   24.4660  -30.3230 C   0  0  0  0  0  0  0  0  0  0  0  0
   -3.7720   25.2840  -30.5040 O   0  0  0  0  0  0  0  0  0  0  0  0
   -4.6150   23.4670  -29.2990 N   0  0  0  0  0  0  0  0  0  0  0  0
   -3.4270   23.3580  -28.4400 C   0  0  0  0  0  0  0  0  0  0  0  0
   -2.1380   23.3880  -29.2620 C   0  0  0  0  0  0  0  0  0  0  0  0
   -1.1200   24.1150  -28.4060 C   0  0  0  0  0  0  0  0  0  0  0  0
   -1.9180   25.1020  -27.5740 C   0  0  0  0  0  0  0  0  0  0  0  0
   -3.3220   24.5180  -27.4350 C   0  0  0  0  0  0  0  0  0  0  0  0
   -5.1190   21.6090  -31.0400 N   0  0  0  0  0  0  0  0  0  0  0  0
   -4.8390   20.4430  -31.6040 N   0  0  0  0  0  0  0  0  0  0  0  0
   -5.9860   19.9730  -32.1310 C   0  0  0  0  0  0  0  0  0  0  0  0
   -6.0540   18.7220  -32.9070 C   0  0  0  0  0  0  0  0  0  0  0  0
   -5.5430   18.6800  -34.2100 C   0  0  0  0  0  0  0  0  0  0  0  0
   -5.6160   17.4990  -34.9510 C   0  0  0  0  0  0  0  0  0  0  0  0
   -6.1860   16.3640  -34.3720 C   0  0  0  0  0  0  0  0  0  0  0  0
   -6.6570   16.4130  -33.0970 N   0  0  0  0  0  0  0  0  0  0  0  0
   -6.6030   17.5540  -32.3590 C   0  0  0  0  0  0  0  0  0  0  0  0
   -8.9934   19.6192  -30.5108 H   0  0  0  0  0  0  0  0  0  0  0  0
  -10.1192   19.4145  -31.8955 H   0  0  0  0  0  0  0  0  0  0  0  0
   -8.5329   18.5717  -31.8955 H   0  0  0  0  0  0  0  0  0  0  0  0
   -8.5013   20.5509  -33.3839 H   0  0  0  0  0  0  0  0  0  0  0  0
   -8.9594   21.5950  -31.9772 H   0  0  0  0  0  0  0  0  0  0  0  0
   -5.6091   24.3242  -32.2410 H   0  0  0  0  0  0  0  0  0  0  0  0
   -6.3420   25.5487  -31.0917 H   0  0  0  0  0  0  0  0  0  0  0  0
   -5.3960   22.7780  -29.2120 H   0  0  0  0  0  0  0  0  0  0  0  0
   -3.5434   22.4007  -27.9108 H   0  0  0  0  0  0  0  0  0  0  0  0
   -1.7968   22.3646  -29.4771 H   0  0  0  0  0  0  0  0  0  0  0  0
   -2.2861   23.8899  -30.2296 H   0  0  0  0  0  0  0  0  0  0  0  0
   -0.5886   23.4052  -27.7550 H   0  0  0  0  0  0  0  0  0  0  0  0
   -0.3591   24.6204  -29.0188 H   0  0  0  0  0  0  0  0  0  0  0  0
   -1.4571   25.2230  -26.5826 H   0  0  0  0  0  0  0  0  0  0  0  0
   -1.9452   26.0929  -28.0508 H   0  0  0  0  0  0  0  0  0  0  0  0
   -3.4771   24.1464  -26.4114 H   0  0  0  0  0  0  0  0  0  0  0  0
   -4.0872   25.2823  -27.6357 H   0  0  0  0  0  0  0  0  0  0  0  0
   -5.0840   19.5777  -34.6499 H   0  0  0  0  0  0  0  0  0  0  0  0
   -5.2286   17.4633  -35.9799 H   0  0  0  0  0  0  0  0  0  0  0  0
   -6.2543   15.4290  -34.9475 H   0  0  0  0  0  0  0  0  0  0  0  0
   -6.9909   17.5606  -31.3297 H   0  0  0  0  0  0  0  0  0  0  0  0
  1  2  1  0
  2  3  1  0
  3  4  1  0
  4  5  1  0
  5  6  1  0
  6  7  1  0
  7  8  2  0
  7  9  1  0
  9 10  1  0
 10 11  1  0
 11 12  1  0
 12 13  1  0
 13 14  1  0
  4 15  2  0
 15 16  1  0
 16 17  2  0
 17 18  1  0
 18 19  2  0
 19 20  1  0
 20 21  2  0
 21 22  1  0
 22 23  2  0
 17  3  1  0
 23 18  1  0
 14 10  1  0
  1 24  1  0
  1 25  1  0
  1 26  1  0
  2 27  1  0
  2 28  1  0
  6 29  1  0
  6 30  1  0
  9 31  1  0
 10 32  1  0
 11 33  1  0
 11 34  1  0
 12 35  1  0
 12 36  1  0
 13 37  1  0
 13 38  1  0
 14 39  1  0
 14 40  1  0
 19 41  1  0
 20 42  1  0
 21 43  1  0
 23 44  1  0
M  END
>  <UniqueID>  (10) 
10

>  <SMILES>  (10) 
CCn1c(SCC(=O)NC2CCCC2)nnc1-c1cccnc1

>  <Energy>  (10) 
78.6947627930159

>  <Genealogy>  (10) 
CCn1c(SCC(=O)NC2CCCC2)nnc1-c1cccnc1 (3D coordinates assigned)
CCn1c(SCC(=O)NC2CCCC2)nnc1-c1cccnc1 (nonaromatic ring conformer: 78.6947627930159 kcal/mol)

>  <smiles>  (10) 
CCn1c(SCC(=O)NC2CCCC2)nnc1-c1cccnc1

>  <score_type>  (10) 
oracle

>  <origin>  (10) 
adg

>  <m_score__min__energy>  (10) 
-8.6799999999999997

>  <m_primary>  (10) 
energy

$$$$
10:0
     RDKit          3D

 41 44  0  0  0  0  0  0  0  0999 V2000
   -2.6800   20.9680  -27.7170 C   0  0  0  0  0  0  0  0  0  0  0  0
   -2.4070   22.4150  -28.0070 C   0  0  0  0  0  0  0  0  0  0  0  0
   -1.3820   23.0890  -27.3260 C   0  0  0  0  0  0  0  0  0  0  0  0
   -1.1050   24.4270  -27.6180 C   0  0  0  0  0  0  0  0  0  0  0  0
   -1.8300   25.0920  -28.6100 C   0  0  0  0  0  0  0  0  0  0  0  0
   -2.8180   24.4150  -29.3340 C   0  0  0  0  0  0  0  0  0  0  0  0
   -3.5130   25.1010  -30.3820 N   0  0  0  0  0  0  0  0  0  0  0  0
   -4.9360   25.2670  -30.4680 C   0  0  0  0  0  0  0  0  0  0  0  0
   -5.3930   26.3950  -30.7870 O   0  0  0  0  0  0  0  0  0  0  0  0
   -5.9020   24.1290  -30.2300 C   0  0  0  0  0  0  0  0  0  0  0  0
   -5.6480   22.9940  -31.1410 N   0  0  0  0  0  0  0  0  0  0  0  0
   -4.5610   23.0460  -31.9680 C   0  0  0  0  0  0  0  0  0  0  0  0
   -4.2460   21.9970  -32.7650 N   0  0  0  0  0  0  0  0  0  0  0  0
   -5.0030   20.8750  -32.7810 C   0  0  0  0  0  0  0  0  0  0  0  0
   -4.6430   19.8370  -33.5700 N   0  0  0  0  0  0  0  0  0  0  0  0
   -5.3700   18.6920  -33.6130 C   0  0  0  0  0  0  0  0  0  0  0  0
   -4.9470   17.6510  -34.4460 C   0  0  0  0  0  0  0  0  0  0  0  0
   -5.6810   16.4700  -34.4950 C   0  0  0  0  0  0  0  0  0  0  0  0
   -6.8270   16.3370  -33.7190 C   0  0  0  0  0  0  0  0  0  0  0  0
   -7.2290   17.3910  -32.8960 C   0  0  0  0  0  0  0  0  0  0  0  0
   -6.5070   18.5590  -32.8440 N   0  0  0  0  0  0  0  0  0  0  0  0
   -6.9070   19.5950  -32.0320 C   0  0  0  0  0  0  0  0  0  0  0  0
   -7.9450   19.4770  -31.3220 O   0  0  0  0  0  0  0  0  0  0  0  0
   -6.1540   20.7890  -31.9850 C   0  0  0  0  0  0  0  0  0  0  0  0
   -6.4810   21.9010  -31.1770 C   0  0  0  0  0  0  0  0  0  0  0  0
   -7.5360   21.8880  -30.4830 O   0  0  0  0  0  0  0  0  0  0  0  0
   -3.1200   23.0820  -29.0160 C   0  0  0  0  0  0  0  0  0  0  0  0
   -2.7095   20.8114  -26.6286 H   0  0  0  0  0  0  0  0  0  0  0  0
   -3.6478   20.6825  -28.1549 H   0  0  0  0  0  0  0  0  0  0  0  0
   -1.8827   20.3495  -28.1549 H   0  0  0  0  0  0  0  0  0  0  0  0
   -0.7945   22.5622  -26.5596 H   0  0  0  0  0  0  0  0  0  0  0  0
   -0.3151   24.9575  -27.0661 H   0  0  0  0  0  0  0  0  0  0  0  0
   -1.6236   26.1513  -28.8227 H   0  0  0  0  0  0  0  0  0  0  0  0
   -5.7953   23.7827  -29.1914 H   0  0  0  0  0  0  0  0  0  0  0  0
   -6.9201   24.4992  -30.4207 H   0  0  0  0  0  0  0  0  0  0  0  0
   -3.9348   23.9502  -31.9866 H   0  0  0  0  0  0  0  0  0  0  0  0
   -4.0402   17.7652  -35.0582 H   0  0  0  0  0  0  0  0  0  0  0  0
   -5.3558   15.6445  -35.1453 H   0  0  0  0  0  0  0  0  0  0  0  0
   -7.4135   15.4070  -33.7532 H   0  0  0  0  0  0  0  0  0  0  0  0
   -8.1352   17.2850  -32.2815 H   0  0  0  0  0  0  0  0  0  0  0  0
   -3.9192   22.5571  -29.5599 H   0  0  0  0  0  0  0  0  0  0  0  0
  1  2  1  0
  2  3  2  0
  3  4  1  0
  4  5  2  0
  5  6  1  0
  6  7  1  0
  7  8  1  0
  8  9  2  0
  8 10  1  0
 10 11  1  0
 11 12  1  0
 12 13  2  0
 13 14  1  0
 14 15  1  0
 15 16  2  0
 16 17  1  0
 17 18  2  0
 18 19  1  0
 19 20  2  0
 20 21  1  0
 21 22  1  0
 22 23  2  0
 22 24  1  0
 24 25  1  0
 25 26  2  0
  6 27  2  0
 27  2  1  0
 25 11  1  0
 24 14  2  0
 21 16  1  0
  1 28  1  0
  1 29  1  0
  1 30  1  0
  3 31  1  0
  4 32  1  0
  5 33  1  0
 10 34  1  0
 10 35  1  0
 12 36  1  0
 17 37  1  0
 18 38  1  0
 19 39  1  0
 20 40  1  0
 27 41  1  0
M  CHG  1   7  -1
M  END
>  <UniqueID>  (11) 
11

>  <SMILES>  (11) 
Cc1cccc([N-]C(=O)Cn2cnc3nc4ccccn4c(=O)c3c2=O)c1

>  <Energy>  (11) 
62.003690884686684

>  <Genealogy>  (11) 
Cc1cccc([N-]C(=O)Cn2cnc3nc4ccccn4c(=O)c3c2=O)c1 (protonated)
Cc1cccc([N-]C(=O)Cn2cnc3nc4ccccn4c(=O)c3c2=O)c1 (3D coordinates assigned)
Cc1cccc([N-]C(=O)Cn2cnc3nc4ccccn4c(=O)c3c2=O)c1 (optimized conformer: 62.003690884686684 kcal/mol)

>  <smiles>  (11) 
Cc1cccc(NC(=O)Cn2cnc3nc4ccccn4c(=O)c3c2=O)c1

>  <score_type>  (11) 
oracle

>  <origin>  (11) 
adg

>  <m_score__min__energy>  (11) 
-10.039999999999999

>  <m_primary>  (11) 
energy

$$$$
11:0
     RDKit          3D

 53 55  0  0  0  0  0  0  0  0999 V2000
   -3.2180   23.9530  -28.2560 C   0  0  0  0  0  0  0  0  0  0  0  0
   -4.2880   24.5550  -29.1610 C   0  0  0  0  0  0  0  0  0  0  0  0
   -3.8500   24.5500  -30.5060 O   0  0  0  0  0  0  0  0  0  0  0  0
   -3.4880   23.2450  -30.9070 C   0  0  0  0  0  0  0  0  0  0  0  0
   -4.6680   22.5650  -31.6120 C   0  0  0  0  0  0  0  0  0  0  0  0
   -5.9360   23.3030  -31.4040 N   0  0  0  0  0  0  0  0  0  0  0  0
   -6.8120   23.2440  -32.6010 C   0  0  0  0  0  0  0  0  0  0  0  0
   -8.2880   23.4690  -32.2400 C   0  0  0  0  0  0  0  0  0  0  0  0
   -8.8000   22.4370  -31.3040 N   0  0  0  0  0  0  0  0  0  0  0  0
   -9.5560   21.3860  -32.0180 C   0  0  0  0  0  0  0  0  0  0  0  0
   -8.6970   20.1690  -32.2510 C   0  0  0  0  0  0  0  0  0  0  0  0
   -9.0360   18.9370  -31.6760 C   0  0  0  0  0  0  0  0  0  0  0  0
   -8.2600   17.8060  -31.9270 C   0  0  0  0  0  0  0  0  0  0  0  0
   -7.1330   17.8790  -32.7620 C   0  0  0  0  0  0  0  0  0  0  0  0
   -6.3800   16.6830  -33.0230 N   0  0  0  0  0  0  0  0  0  0  0  0
   -5.3260   16.2110  -32.3250 C   0  0  0  0  0  0  0  0  0  0  0  0
   -4.8560   15.0850  -32.9650 C   0  0  0  0  0  0  0  0  0  0  0  0
   -5.6070   14.8680  -34.0610 N   0  0  0  0  0  0  0  0  0  0  0  0
   -6.5200   15.8570  -34.0780 C   0  0  0  0  0  0  0  0  0  0  0  0
   -6.7660   19.1280  -33.3220 C   0  0  0  0  0  0  0  0  0  0  0  0
   -5.5410   19.2810  -34.1820 C   0  0  0  0  0  0  0  0  0  0  0  0
   -7.5670   20.2550  -33.0770 C   0  0  0  0  0  0  0  0  0  0  0  0
   -7.7390   21.8510  -30.4450 C   0  0  0  0  0  0  0  0  0  0  0  0
   -6.6210   22.8630  -30.1600 C   0  0  0  0  0  0  0  0  0  0  0  0
   -3.4971   24.1100  -27.2036 H   0  0  0  0  0  0  0  0  0  0  0  0
   -3.1330   22.8746  -28.4558 H   0  0  0  0  0  0  0  0  0  0  0  0
   -2.2522   24.4402  -28.4558 H   0  0  0  0  0  0  0  0  0  0  0  0
   -5.2105   23.9618  -29.0771 H   0  0  0  0  0  0  0  0  0  0  0  0
   -4.4789   25.5926  -28.8497 H   0  0  0  0  0  0  0  0  0  0  0  0
   -2.6339   23.3003  -31.5980 H   0  0  0  0  0  0  0  0  0  0  0  0
   -3.2124   22.6583  -30.0183 H   0  0  0  0  0  0  0  0  0  0  0  0
   -4.4577   22.5164  -32.6906 H   0  0  0  0  0  0  0  0  0  0  0  0
   -4.7857   21.5581  -31.1850 H   0  0  0  0  0  0  0  0  0  0  0  0
   -6.4967   24.0223  -33.3116 H   0  0  0  0  0  0  0  0  0  0  0  0
   -6.7176   22.2418  -33.0444 H   0  0  0  0  0  0  0  0  0  0  0  0
   -8.3906   24.4573  -31.7681 H   0  0  0  0  0  0  0  0  0  0  0  0
   -8.8760   23.4052  -33.1675 H   0  0  0  0  0  0  0  0  0  0  0  0
  -10.4307   21.0994  -31.4156 H   0  0  0  0  0  0  0  0  0  0  0  0
   -9.8743   21.7832  -32.9931 H   0  0  0  0  0  0  0  0  0  0  0  0
   -9.9184   18.8617  -31.0236 H   0  0  0  0  0  0  0  0  0  0  0  0
   -8.5336   16.8456  -31.4658 H   0  0  0  0  0  0  0  0  0  0  0  0
   -4.9134   16.6494  -31.4043 H   0  0  0  0  0  0  0  0  0  0  0  0
   -4.0083   14.4664  -32.6353 H   0  0  0  0  0  0  0  0  0  0  0  0
   -5.4950   14.1010  -34.7590 H   0  0  0  0  0  0  0  0  0  0  0  0
   -7.2866   15.9762  -34.8579 H   0  0  0  0  0  0  0  0  0  0  0  0
   -4.6542   19.3918  -33.5406 H   0  0  0  0  0  0  0  0  0  0  0  0
   -5.4253   18.3903  -34.8171 H   0  0  0  0  0  0  0  0  0  0  0  0
   -5.6479   20.1728  -34.8171 H   0  0  0  0  0  0  0  0  0  0  0  0
   -7.3046   21.2181  -33.5391 H   0  0  0  0  0  0  0  0  0  0  0  0
   -8.1860   21.5346  -29.4910 H   0  0  0  0  0  0  0  0  0  0  0  0
   -7.3002   20.9935  -30.9762 H   0  0  0  0  0  0  0  0  0  0  0  0
   -7.0568   23.7431  -29.6645 H   0  0  0  0  0  0  0  0  0  0  0  0
   -5.8751   22.3724  -29.5174 H   0  0  0  0  0  0  0  0  0  0  0  0
  1  2  1  0
  2  3  1  0
  3  4  1  0
  4  5  1  0
  5  6  1  0
  6  7  1  0
  7  8  1  0
  8  9  1  0
  9 10  1  0
 10 11  1  0
 11 12  2  0
 12 13  1  0
 13 14  2  0
 14 15  1  0
 15 16  1  0
 16 17  2  0
 17 18  1  0
 18 19  2  0
 14 20  1  0
 20 21  1  0
 20 22  2  0
  9 23  1  0
 23 24  1  0
 24  6  1  0
 22 11  1  0
 19 15  1  0
  1 25  1  0
  1 26  1  0
  1 27  1  0
  2 28  1  0
  2 29  1  0
  4 30  1  0
  4 31  1  0
  5 32  1  0
  5 33  1  0
  7 34  1  0
  7 35  1  0
  8 36  1  0
  8 37  1  0
 10 38  1  0
 10 39  1  0
 12 40  1  0
 13 41  1  0
 16 42  1  0
 17 43  1  0
 18 44  1  0
 19 45  1  0
 21 46  1  0
 21 47  1  0
 21 48  1  0
 22 49  1  0
 23 50  1  0
 23 51  1  0
 24 52  1  0
 24 53  1  0
M  CHG  1  18   1
M  END
>  <UniqueID>  (12) 
12

>  <SMILES>  (12) 
CCOCCN1CCN(Cc2ccc(-n3cc[nH+]c3)c(C)c2)CC1

>  <Energy>  (12) 
101.31304306454646

>  <Genealogy>  (12) 
CCOCCN1CCN(Cc2ccc(-n3cc[nH+]c3)c(C)c2)CC1 (protonated)
CCOCCN1CCN(Cc2ccc(-n3cc[nH+]c3)c(C)c2)CC1 (3D coordinates assigned)
CCOCCN1CCN(Cc2ccc(-n3cc[nH+]c3)c(C)c2)CC1 (nonaromatic ring conformer: 101.31304306454646 kcal/mol)

>  <smiles>  (12) 
CCOCCN1CCN(Cc2ccc(-n3ccnc3)c(C)c2)CC1

>  <score_type>  (12) 
oracle

>  <origin>  (12) 
adg

>  <m_score__min__energy>  (12) 
-8.0199999999999996

>  <m_primary>  (12) 
energy

$$$$
12:0
     RDKit          3D

 56 58  0  0  0  0  0  0  0  0999 V2000
   -6.8600   15.6870  -34.2000 C   0  0  0  0  0  0  0  0  0  0  0  0
   -6.6150   17.0410  -34.5640 O   0  0  0  0  0  0  0  0  0  0  0  0
   -5.5290   17.8060  -34.1040 C   0  0  0  0  0  0  0  0  0  0  0  0
   -4.2550   17.7210  -34.7000 C   0  0  0  0  0  0  0  0  0  0  0  0
   -3.1890   18.4790  -34.2080 C   0  0  0  0  0  0  0  0  0  0  0  0
   -3.3750   19.3330  -33.1210 C   0  0  0  0  0  0  0  0  0  0  0  0
   -4.6380   19.4400  -32.5260 C   0  0  0  0  0  0  0  0  0  0  0  0
   -5.7150   18.6810  -33.0150 C   0  0  0  0  0  0  0  0  0  0  0  0
   -7.0360   18.7950  -32.2940 C   0  0  0  0  0  0  0  0  0  0  0  0
   -7.3890   20.2670  -31.9960 C   0  0  0  0  0  0  0  0  0  0  0  0
   -6.1780   21.1730  -31.5820 C   0  0  2  0  0  0  0  0  0  0  0  0
   -5.9410   22.2980  -32.6240 C   0  0  0  0  0  0  0  0  0  0  0  0
   -5.1330   23.4110  -32.0790 N   0  0  0  0  0  0  0  0  0  0  0  0
   -5.8360   24.1430  -31.0160 C   0  0  0  0  0  0  0  0  0  0  0  0
   -4.8800   25.0540  -30.2490 C   0  0  0  0  0  0  0  0  0  0  0  0
   -3.5420   24.6270  -30.4920 O   0  0  0  0  0  0  0  0  0  0  0  0
   -2.8130   23.6520  -29.7850 C   0  0  0  0  0  0  0  0  0  0  0  0
   -2.6670   23.8100  -28.3780 C   0  0  0  0  0  0  0  0  0  0  0  0
   -3.1870   24.8940  -27.6430 O   0  0  0  0  0  0  0  0  0  0  0  0
   -4.1920   24.8330  -26.6340 C   0  0  0  0  0  0  0  0  0  0  0  0
   -1.9670   22.8480  -27.6440 C   0  0  0  0  0  0  0  0  0  0  0  0
   -1.4010   21.7420  -28.2700 C   0  0  0  0  0  0  0  0  0  0  0  0
   -1.5250   21.5790  -29.6460 C   0  0  0  0  0  0  0  0  0  0  0  0
   -2.2310   22.5190  -30.4210 C   0  0  0  0  0  0  0  0  0  0  0  0
   -2.3710   22.3390  -31.8060 O   0  0  0  0  0  0  0  0  0  0  0  0
   -1.4610   21.6250  -32.6360 C   0  0  0  0  0  0  0  0  0  0  0  0
   -4.8790   20.3620  -31.3620 C   0  0  0  0  0  0  0  0  0  0  0  0
   -6.8759   15.5992  -33.1036 H   0  0  0  0  0  0  0  0  0  0  0  0
   -7.8305   15.3676  -34.6075 H   0  0  0  0  0  0  0  0  0  0  0  0
   -6.0629   15.0478  -34.6075 H   0  0  0  0  0  0  0  0  0  0  0  0
   -4.0983   17.0526  -35.5595 H   0  0  0  0  0  0  0  0  0  0  0  0
   -2.1985   18.4018  -34.6802 H   0  0  0  0  0  0  0  0  0  0  0  0
   -2.5310   19.9214  -32.7319 H   0  0  0  0  0  0  0  0  0  0  0  0
   -7.8258   18.3577  -32.9225 H   0  0  0  0  0  0  0  0  0  0  0  0
   -6.9561   18.2575  -31.3376 H   0  0  0  0  0  0  0  0  0  0  0  0
   -7.8429   20.6980  -32.9005 H   0  0  0  0  0  0  0  0  0  0  0  0
   -8.0671   20.2492  -31.1301 H   0  0  0  0  0  0  0  0  0  0  0  0
   -6.4453   21.6309  -30.6182 H   0  0  0  0  0  0  0  0  0  0  0  0
   -5.4152   21.8714  -33.4909 H   0  0  0  0  0  0  0  0  0  0  0  0
   -6.9230   22.7043  -32.9078 H   0  0  0  0  0  0  0  0  0  0  0  0
   -4.2330   23.0610  -31.6740 H   0  0  0  0  0  0  0  0  0  0  0  0
   -6.6310   24.7551  -31.4669 H   0  0  0  0  0  0  0  0  0  0  0  0
   -6.2616   23.4125  -30.3123 H   0  0  0  0  0  0  0  0  0  0  0  0
   -5.0044   26.0920  -30.5912 H   0  0  0  0  0  0  0  0  0  0  0  0
   -5.0985   25.0020  -29.1722 H   0  0  0  0  0  0  0  0  0  0  0  0
   -3.7177   24.8618  -25.6419 H   0  0  0  0  0  0  0  0  0  0  0  0
   -4.8713   25.6916  -26.7407 H   0  0  0  0  0  0  0  0  0  0  0  0
   -4.7625   23.8986  -26.7407 H   0  0  0  0  0  0  0  0  0  0  0  0
   -1.8622   22.9673  -26.5555 H   0  0  0  0  0  0  0  0  0  0  0  0
   -0.8544   20.9949  -27.6758 H   0  0  0  0  0  0  0  0  0  0  0  0
   -1.0665   20.7062  -30.1339 H   0  0  0  0  0  0  0  0  0  0  0  0
   -0.7509   21.0679  -32.0072 H   0  0  0  0  0  0  0  0  0  0  0  0
   -2.0189   20.9211  -33.2711 H   0  0  0  0  0  0  0  0  0  0  0  0
   -0.9101   22.3343  -33.2711 H   0  0  0  0  0  0  0  0  0  0  0  0
   -4.0301   21.0549  -31.2656 H   0  0  0  0  0  0  0  0  0  0  0  0
   -4.9811   19.7629  -30.4451 H   0  0  0  0  0  0  0  0  0  0  0  0
  1  2  1  0
  2  3  1  0
  3  4  2  0
  4  5  1  0
  5  6  2  0
  6  7  1  0
  7  8  2  0
  8  9  1  0
  9 10  1  0
 10 11  1  0
 11 12  1  0
 12 13  1  0
 13 14  1  0
 14 15  1  0
 15 16  1  0
 16 17  1  0
 17 18  2  0
 18 19  1  0
 19 20  1  0
 18 21  1  0
 21 22  2  0
 22 23  1  0
 23 24  2  0
 24 25  1  0
 25 26  1  0
 11 27  1  0
  8  3  1  0
 24 17  1  0
 27  7  1  0
  1 28  1  0
  1 29  1  0
  1 30  1  0
  4 31  1  0
  5 32  1  0
  6 33  1  0
  9 34  1  0
  9 35  1  0
 10 36  1  0
 10 37  1  0
 11 38  1  1
 12 39  1  0
 12 40  1  0
 13 41  1  0
 14 42  1  0
 14 43  1  0
 15 44  1  0
 15 45  1  0
 20 46  1  0
 20 47  1  0
 20 48  1  0
 21 49  1  0
 22 50  1  0
 23 51  1  0
 26 52  1  0
 26 53  1  0
 26 54  1  0
 27 55  1  0
 27 56  1  0
M  END
>  <UniqueID>  (13) 
13

>  <SMILES>  (13) 
COc1cccc2c1CC[C@H](CNCCOc1c(OC)cccc1OC)C2

>  <Energy>  (13) 
67.23234144067973

>  <Genealogy>  (13) 
COc1cccc2c1CC[C@H](CNCCOc1c(OC)cccc1OC)C2 (chirality)
COc1cccc2c1CC[C@H](CNCCOc1c(OC)cccc1OC)C2 (3D coordinates assigned)
COc1cccc2c1CC[C@H](CNCCOc1c(OC)cccc1OC)C2 (nonaromatic ring conformer: 67.23234144067973 kcal/mol)

>  <smiles>  (13) 
COc1cccc2c1CCC(CNCCOc1c(OC)cccc1OC)C2

>  <score_type>  (13) 
oracle

>  <origin>  (13) 
adg

>  <m_score__min__energy>  (13) 
-8.2400000000000002

>  <m_primary>  (13) 
energy

$$$$
13:0
     RDKit          3D

 36 38  0  0  0  0  0  0  0  0999 V2000
   -3.7440   24.1610  -28.2820 C   0  0  0  0  0  0  0  0  0  0  0  0
   -2.9600   24.8910  -29.3620 C   0  0  0  0  0  0  0  0  0  0  0  0
   -3.8590   25.2940  -30.4340 N   0  0  0  0  0  0  0  0  0  0  0  0
   -5.1030   24.6370  -30.6910 C   0  0  0  0  0  0  0  0  0  0  0  0
   -6.1900   25.2130  -30.4110 O   0  0  0  0  0  0  0  0  0  0  0  0
   -5.1250   23.3140  -31.3540 C   0  0  0  0  0  0  0  0  0  0  0  0
   -3.8960   22.7410  -31.7210 C   0  0  0  0  0  0  0  0  0  0  0  0
   -3.8510   21.4580  -32.2860 C   0  0  0  0  0  0  0  0  0  0  0  0
   -2.5650   20.8230  -32.6680 C   0  0  0  0  0  0  0  0  0  0  0  0
   -1.9260   19.9480  -31.7710 C   0  0  0  0  0  0  0  0  0  0  0  0
   -0.7170   19.3530  -32.1310 C   0  0  0  0  0  0  0  0  0  0  0  0
   -0.1470   19.6340  -33.3710 C   0  0  0  0  0  0  0  0  0  0  0  0
   -0.7950   20.5160  -34.2360 C   0  0  0  0  0  0  0  0  0  0  0  0
   -1.9760   21.0900  -33.8740 N   0  0  0  0  0  0  0  0  0  0  0  0
   -5.0130   20.7860  -32.5000 N   0  0  0  0  0  0  0  0  0  0  0  0
   -6.2270   21.3070  -32.1860 C   0  0  0  0  0  0  0  0  0  0  0  0
   -7.3820   20.5620  -32.4490 C   0  0  0  0  0  0  0  0  0  0  0  0
   -8.6400   21.0960  -32.1670 C   0  0  0  0  0  0  0  0  0  0  0  0
   -8.7510   22.3800  -31.6310 C   0  0  0  0  0  0  0  0  0  0  0  0
   -7.6050   23.1330  -31.3610 C   0  0  0  0  0  0  0  0  0  0  0  0
   -6.3220   22.5990  -31.6110 C   0  0  0  0  0  0  0  0  0  0  0  0
   -3.3941   24.4868  -27.2913 H   0  0  0  0  0  0  0  0  0  0  0  0
   -4.8145   24.3915  -28.3868 H   0  0  0  0  0  0  0  0  0  0  0  0
   -3.5904   23.0768  -28.3868 H   0  0  0  0  0  0  0  0  0  0  0  0
   -2.4847   25.7833  -28.9287 H   0  0  0  0  0  0  0  0  0  0  0  0
   -2.1876   24.2207  -29.7672 H   0  0  0  0  0  0  0  0  0  0  0  0
   -2.9630   23.3021  -31.5643 H   0  0  0  0  0  0  0  0  0  0  0  0
   -2.3773   19.7342  -30.7909 H   0  0  0  0  0  0  0  0  0  0  0  0
   -0.2143   18.6631  -31.4372 H   0  0  0  0  0  0  0  0  0  0  0  0
    0.8038   19.1653  -33.6647 H   0  0  0  0  0  0  0  0  0  0  0  0
   -0.3502   20.7490  -35.2147 H   0  0  0  0  0  0  0  0  0  0  0  0
   -2.4070   21.7710  -34.5390 H   0  0  0  0  0  0  0  0  0  0  0  0
   -7.2981   19.5530  -32.8791 H   0  0  0  0  0  0  0  0  0  0  0  0
   -9.5454   20.5043  -32.3674 H   0  0  0  0  0  0  0  0  0  0  0  0
   -9.7451   22.8012  -31.4201 H   0  0  0  0  0  0  0  0  0  0  0  0
   -7.7032   24.1489  -30.9508 H   0  0  0  0  0  0  0  0  0  0  0  0
  1  2  1  0
  2  3  1  0
  3  4  1  0
  4  5  2  0
  4  6  1  0
  6  7  2  0
  7  8  1  0
  8  9  1  0
  9 10  2  0
 10 11  1  0
 11 12  2  0
 12 13  1  0
 13 14  2  0
  8 15  2  0
 15 16  1  0
 16 17  2  0
 17 18  1  0
 18 19  2  0
 19 20  1  0
 20 21  2  0
 21  6  1  0
 14  9  1  0
 21 16  1  0
  1 22  1  0
  1 23  1  0
  1 24  1  0
  2 25  1  0
  2 26  1  0
  7 27  1  0
 10 28  1  0
 11 29  1  0
 12 30  1  0
 13 31  1  0
 14 32  1  0
 17 33  1  0
 18 34  1  0
 19 35  1  0
 20 36  1  0
M  CHG  2   3  -1  14   1
M  END
>  <UniqueID>  (14) 
14

>  <SMILES>  (14) 
CC[N-]C(=O)c1cc(-c2cccc[nH+]2)nc2ccccc12

>  <Energy>  (14) 
47.15537005229501

>  <Genealogy>  (14) 
CC[N-]C(=O)c1cc(-c2cccc[nH+]2)nc2ccccc12 (protonated)
CC[N-]C(=O)c1cc(-c2cccc[nH+]2)nc2ccccc12 (3D coordinates assigned)
CC[N-]C(=O)c1cc(-c2cccc[nH+]2)nc2ccccc12 (optimized conformer: 47.15537005229501 kcal/mol)

>  <smiles>  (14) 
CCNC(=O)c1cc(-c2ccccn2)nc2ccccc12

>  <score_type>  (14) 
oracle

>  <origin>  (14) 
adg

>  <m_score__min__energy>  (14) 
-9.0399999999999991

>  <m_primary>  (14) 
energy

$$$$
14:0
     RDKit          3D

 69 72  0  0  0  0  0  0  0  0999 V2000
   -6.4470   26.0230  -29.3420 C   0  0  0  0  0  0  0  0  0  0  0  0
   -6.1260   24.7600  -30.0850 C   0  0  0  0  0  0  0  0  0  0  0  0
   -4.8070   24.4950  -30.4740 C   0  0  0  0  0  0  0  0  0  0  0  0
   -4.4920   23.3040  -31.1300 C   0  0  0  0  0  0  0  0  0  0  0  0
   -5.4890   22.3550  -31.4000 C   0  0  0  0  0  0  0  0  0  0  0  0
   -5.1320   21.1240  -32.0520 N   0  0  0  0  0  0  0  0  0  0  0  0
   -5.5100   20.8800  -33.4450 C   0  0  0  0  0  0  0  0  0  0  0  0
   -6.4690   19.6910  -33.5090 C   0  0  0  0  0  0  0  0  0  0  0  0
   -5.9280   18.5570  -32.7400 N   0  0  0  0  0  0  0  0  0  0  0  0
   -6.1700   17.2020  -33.1690 C   0  0  0  0  0  0  0  0  0  0  0  0
   -6.4300   16.3120  -32.3130 O   0  0  0  0  0  0  0  0  0  0  0  0
   -6.1450   16.8260  -34.6230 C   0  0  0  0  0  0  0  0  0  0  0  0
   -4.8120   16.8470  -35.1290 O   0  0  0  0  0  0  0  0  0  0  0  0
   -3.6920   16.5310  -34.3500 C   0  0  0  0  0  0  0  0  0  0  0  0
   -3.7520   15.5910  -33.5080 O   0  0  0  0  0  0  0  0  0  0  0  0
   -2.4410   17.3060  -34.5090 C   0  0  0  0  0  0  0  0  0  0  0  0
   -1.3240   16.7400  -35.1390 C   0  0  0  0  0  0  0  0  0  0  0  0
   -0.1460   17.4720  -35.2760 C   0  0  0  0  0  0  0  0  0  0  0  0
   -0.0450   18.7820  -34.7780 C   0  0  0  0  0  0  0  0  0  0  0  0
    1.2470   19.5250  -34.9910 C   0  0  0  0  0  0  0  0  0  0  0  0
   -1.1740   19.3700  -34.1490 C   0  0  0  0  0  0  0  0  0  0  0  0
   -1.1880   21.0310  -33.5070 S   0  0  0  0  0  0  0  0  0  0  0  0
   -2.5920   21.5610  -33.6010 O   0  0  0  0  0  0  0  0  0  0  0  0
   -0.3160   21.9350  -34.3330 O   0  0  0  0  0  0  0  0  0  0  0  0
   -0.6730   21.1040  -31.8390 N   0  0  0  0  0  0  0  0  0  0  0  0
   -0.5510   19.7560  -31.2670 C   0  0  0  0  0  0  0  0  0  0  0  0
   -0.1480   19.8410  -29.7800 C   0  0  0  0  0  0  0  0  0  0  0  0
    0.0180   21.1810  -29.3570 O   0  0  0  0  0  0  0  0  0  0  0  0
   -1.1880   21.8970  -29.5510 C   0  0  0  0  0  0  0  0  0  0  0  0
   -1.6070   21.9080  -31.0360 C   0  0  0  0  0  0  0  0  0  0  0  0
   -2.3580   18.6210  -34.0280 C   0  0  0  0  0  0  0  0  0  0  0  0
   -5.5080   18.8070  -31.3530 C   0  0  0  0  0  0  0  0  0  0  0  0
   -4.5650   20.0100  -31.2910 C   0  0  0  0  0  0  0  0  0  0  0  0
   -6.8250   22.6180  -31.0240 C   0  0  0  0  0  0  0  0  0  0  0  0
   -7.9230   21.6310  -31.3070 C   0  0  0  0  0  0  0  0  0  0  0  0
   -7.1270   23.8120  -30.3470 C   0  0  0  0  0  0  0  0  0  0  0  0
   -6.3989   25.8339  -28.2594 H   0  0  0  0  0  0  0  0  0  0  0  0
   -5.7183   26.8019  -29.6109 H   0  0  0  0  0  0  0  0  0  0  0  0
   -7.4592   26.3594  -29.6109 H   0  0  0  0  0  0  0  0  0  0  0  0
   -4.0156   25.2289  -30.2616 H   0  0  0  0  0  0  0  0  0  0  0  0
   -3.4542   23.1081  -31.4375 H   0  0  0  0  0  0  0  0  0  0  0  0
   -6.0052   21.7735  -33.8530 H   0  0  0  0  0  0  0  0  0  0  0  0
   -4.6098   20.6588  -34.0371 H   0  0  0  0  0  0  0  0  0  0  0  0
   -7.4410   19.9854  -33.0865 H   0  0  0  0  0  0  0  0  0  0  0  0
   -6.5918   19.3859  -34.5587 H   0  0  0  0  0  0  0  0  0  0  0  0
   -6.5595   15.8139  -34.7409 H   0  0  0  0  0  0  0  0  0  0  0  0
   -6.7471   17.5545  -35.1858 H   0  0  0  0  0  0  0  0  0  0  0  0
   -1.3776   15.7123  -35.5274 H   0  0  0  0  0  0  0  0  0  0  0  0
    0.7183   17.0171  -35.7820 H   0  0  0  0  0  0  0  0  0  0  0  0
    1.6888   19.7791  -34.0162 H   0  0  0  0  0  0  0  0  0  0  0  0
    1.9458   18.8908  -35.5562 H   0  0  0  0  0  0  0  0  0  0  0  0
    1.0503   20.4480  -35.5562 H   0  0  0  0  0  0  0  0  0  0  0  0
   -1.5169   19.2366  -31.3523 H   0  0  0  0  0  0  0  0  0  0  0  0
    0.2239   19.2021  -31.8172 H   0  0  0  0  0  0  0  0  0  0  0  0
   -0.9333   19.3698  -29.1706 H   0  0  0  0  0  0  0  0  0  0  0  0
    0.8135   19.3213  -29.6558 H   0  0  0  0  0  0  0  0  0  0  0  0
   -1.9843   21.4229  -28.9585 H   0  0  0  0  0  0  0  0  0  0  0  0
   -1.0272   22.9368  -29.2302 H   0  0  0  0  0  0  0  0  0  0  0  0
   -2.6195   21.4884  -31.1299 H   0  0  0  0  0  0  0  0  0  0  0  0
   -1.5916   22.9448  -31.4031 H   0  0  0  0  0  0  0  0  0  0  0  0
   -3.2365   19.0754  -33.5466 H   0  0  0  0  0  0  0  0  0  0  0  0
   -6.3959   19.0101  -30.7363 H   0  0  0  0  0  0  0  0  0  0  0  0
   -4.9801   17.9194  -30.9741 H   0  0  0  0  0  0  0  0  0  0  0  0
   -4.4304   20.3149  -30.2427 H   0  0  0  0  0  0  0  0  0  0  0  0
   -3.5927   19.7320  -31.7239 H   0  0  0  0  0  0  0  0  0  0  0  0
   -8.3360   21.2597  -30.3575 H   0  0  0  0  0  0  0  0  0  0  0  0
   -8.7186   22.1235  -31.8853 H   0  0  0  0  0  0  0  0  0  0  0  0
   -7.5178   20.7876  -31.8853 H   0  0  0  0  0  0  0  0  0  0  0  0
   -8.1590   24.0055  -30.0190 H   0  0  0  0  0  0  0  0  0  0  0  0
  1  2  1  0
  2  3  2  0
  3  4  1  0
  4  5  2  0
  5  6  1  0
  6  7  1  0
  7  8  1  0
  8  9  1  0
  9 10  1  0
 10 11  2  0
 10 12  1  0
 12 13  1  0
 13 14  1  0
 14 15  2  0
 14 16  1  0
 16 17  2  0
 17 18  1  0
 18 19  2  0
 19 20  1  0
 19 21  1  0
 21 22  1  0
 22 23  2  0
 22 24  2  0
 22 25  1  0
 25 26  1  0
 26 27  1  0
 27 28  1  0
 28 29  1  0
 29 30  1  0
 21 31  2  0
  9 32  1  0
 32 33  1  0
  5 34  1  0
 34 35  1  0
 34 36  2  0
 36  2  1  0
 33  6  1  0
 31 16  1  0
 30 25  1  0
  1 37  1  0
  1 38  1  0
  1 39  1  0
  3 40  1  0
  4 41  1  0
  7 42  1  0
  7 43  1  0
  8 44  1  0
  8 45  1  0
 12 46  1  0
 12 47  1  0
 17 48  1  0
 18 49  1  0
 20 50  1  0
 20 51  1  0
 20 52  1  0
 26 53  1  0
 26 54  1  0
 27 55  1  0
 27 56  1  0
 29 57  1  0
 29 58  1  0
 30 59  1  0
 30 60  1  0
 31 61  1  0
 32 62  1  0
 32 63  1  0
 33 64  1  0
 33 65  1  0
 35 66  1  0
 35 67  1  0
 35 68  1  0
 36 69  1  0
M  END
>  <UniqueID>  (15) 
15

>  <SMILES>  (15) 
Cc1ccc(N2CCN(C(=O)COC(=O)c3ccc(C)c(S(=O)(=O)N4CCOCC4)c3)CC2)c(C)c1

>  <Energy>  (15) 
84.71266487919779

>  <Genealogy>  (15) 
Cc1ccc(N2CCN(C(=O)COC(=O)c3ccc(C)c(S(=O)(=O)N4CCOCC4)c3)CC2)c(C)c1 (3D coordinates assigned)
Cc1ccc(N2CCN(C(=O)COC(=O)c3ccc(C)c(S(=O)(=O)N4CCOCC4)c3)CC2)c(C)c1 (nonaromatic ring conformer: 84.71266487919779 kcal/mol)

>  <smiles>  (15) 
Cc1ccc(N2CCN(C(=O)COC(=O)c3ccc(C)c(S(=O)(=O)N4CCOCC4)c3)CC2)c(C)c1

>  <score_type>  (15) 
oracle

>  <origin>  (15) 
adg

>  <m_score__min__energy>  (15) 
-11.050000000000001

>  <m_primary>  (15) 
energy

$$$$
15:0
     RDKit          3D

 49 51  0  0  0  0  0  0  0  0999 V2000
   -0.2730   22.8960  -24.7380 C   0  0  0  0  0  0  0  0  0  0  0  0
   -0.7530   24.3130  -24.9190 C   0  0  0  0  0  0  0  0  0  0  0  0
   -0.3810   25.2650  -24.0120 N   0  0  0  0  0  0  0  0  0  0  0  0
   -0.7840   26.5600  -24.1230 C   0  0  0  0  0  0  0  0  0  0  0  0
   -1.5960   26.9540  -25.1840 C   0  0  0  0  0  0  0  0  0  0  0  0
   -1.9850   26.0110  -26.1330 C   0  0  0  0  0  0  0  0  0  0  0  0
   -1.5560   24.6800  -26.0270 C   0  0  0  0  0  0  0  0  0  0  0  0
   -2.0170   23.6730  -27.0540 C   0  0  0  0  0  0  0  0  0  0  0  0
   -2.8380   24.3240  -28.0770 N   0  0  0  0  0  0  0  0  0  0  0  0
   -3.2080   23.6750  -29.3110 C   0  0  0  0  0  0  0  0  0  0  0  0
   -2.2990   22.8100  -29.9460 C   0  0  0  0  0  0  0  0  0  0  0  0
   -2.6110   22.2230  -31.1670 C   0  0  0  0  0  0  0  0  0  0  0  0
   -3.8270   22.4940  -31.7860 C   0  0  0  0  0  0  0  0  0  0  0  0
   -4.7650   23.3470  -31.1810 C   0  0  0  0  0  0  0  0  0  0  0  0
   -6.0540   23.6330  -31.9240 C   0  0  0  0  0  0  0  0  0  0  0  0
   -7.0570   22.5830  -31.6540 N   0  0  0  0  0  0  0  0  0  0  0  0
   -6.7570   21.3670  -32.4360 C   0  0  0  0  0  0  0  0  0  0  0  0
   -7.9240   20.3620  -32.3660 C   0  0  0  0  0  0  0  0  0  0  0  0
   -8.8270   20.7080  -31.3350 O   0  0  0  0  0  0  0  0  0  0  0  0
   -9.4480   21.9450  -31.6370 C   0  0  0  0  0  0  0  0  0  0  0  0
   -8.4220   23.0530  -31.9580 C   0  0  0  0  0  0  0  0  0  0  0  0
   -4.4720   23.9230  -29.9120 C   0  0  0  0  0  0  0  0  0  0  0  0
   -5.4670   24.8230  -29.2120 C   0  0  0  0  0  0  0  0  0  0  0  0
   -0.1962   22.6692  -23.6644 H   0  0  0  0  0  0  0  0  0  0  0  0
   -0.9869   22.2041  -25.2088 H   0  0  0  0  0  0  0  0  0  0  0  0
    0.7144   22.7804  -25.2088 H   0  0  0  0  0  0  0  0  0  0  0  0
    0.2250   25.0070  -23.2010 H   0  0  0  0  0  0  0  0  0  0  0  0
   -0.4673   27.2986  -23.3719 H   0  0  0  0  0  0  0  0  0  0  0  0
   -1.9269   27.9994  -25.2718 H   0  0  0  0  0  0  0  0  0  0  0  0
   -2.6322   26.3121  -26.9700 H   0  0  0  0  0  0  0  0  0  0  0  0
   -1.1384   23.2152  -27.5321 H   0  0  0  0  0  0  0  0  0  0  0  0
   -2.6195   22.9021  -26.5513 H   0  0  0  0  0  0  0  0  0  0  0  0
   -3.1410   25.3100  -27.9110 H   0  0  0  0  0  0  0  0  0  0  0  0
   -1.3302   22.5954  -29.4712 H   0  0  0  0  0  0  0  0  0  0  0  0
   -1.8930   21.5410  -31.6459 H   0  0  0  0  0  0  0  0  0  0  0  0
   -4.0564   22.0356  -32.7593 H   0  0  0  0  0  0  0  0  0  0  0  0
   -6.4516   24.6048  -31.5962 H   0  0  0  0  0  0  0  0  0  0  0  0
   -5.8431   23.6510  -33.0034 H   0  0  0  0  0  0  0  0  0  0  0  0
   -6.5867   21.6476  -33.4859 H   0  0  0  0  0  0  0  0  0  0  0  0
   -5.8597   20.8915  -32.0132 H   0  0  0  0  0  0  0  0  0  0  0  0
   -8.4580   20.3628  -33.3277 H   0  0  0  0  0  0  0  0  0  0  0  0
   -7.5151   19.3630  -32.1542 H   0  0  0  0  0  0  0  0  0  0  0  0
  -10.1046   21.8076  -32.5088 H   0  0  0  0  0  0  0  0  0  0  0  0
  -10.0177   22.2607  -30.7506 H   0  0  0  0  0  0  0  0  0  0  0  0
   -8.4884   23.3124  -33.0249 H   0  0  0  0  0  0  0  0  0  0  0  0
   -8.6435   23.9380  -31.3434 H   0  0  0  0  0  0  0  0  0  0  0  0
   -5.3523   24.7193  -28.1229 H   0  0  0  0  0  0  0  0  0  0  0  0
   -5.2835   25.8681  -29.5021 H   0  0  0  0  0  0  0  0  0  0  0  0
   -6.4885   24.5359  -29.5021 H   0  0  0  0  0  0  0  0  0  0  0  0
  1  2  1  0
  2  3  2  0
  3  4  1  0
  4  5  2  0
  5  6  1  0
  6  7  2  0
  7  8  1  0
  8  9  1  0
  9 10  1  0
 10 11  2  0
 11 12  1  0
 12 13  2  0
 13 14  1  0
 14 15  1  0
 15 16  1  0
 16 17  1  0
 17 18  1  0
 18 19  1  0
 19 20  1  0
 20 21  1  0
 14 22  2  0
 22 23  1  0
  7  2  1  0
 22 10  1  0
 21 16  1  0
  1 24  1  0
  1 25  1  0
  1 26  1  0
  3 27  1  0
  4 28  1  0
  5 29  1  0
  6 30  1  0
  8 31  1  0
  8 32  1  0
  9 33  1  0
 11 34  1  0
 12 35  1  0
 13 36  1  0
 15 37  1  0
 15 38  1  0
 17 39  1  0
 17 40  1  0
 18 41  1  0
 18 42  1  0
 20 43  1  0
 20 44  1  0
 21 45  1  0
 21 46  1  0
 23 47  1  0
 23 48  1  0
 23 49  1  0
M  CHG  1   3   1
M  END
>  <UniqueID>  (16) 
16

>  <SMILES>  (16) 
Cc1[nH+]cccc1CNc1cccc(CN2CCOCC2)c1C

>  <Energy>  (16) 
63.25339495300096

>  <Genealogy>  (16) 
Cc1[nH+]cccc1CNc1cccc(CN2CCOCC2)c1C (protonated)
Cc1[nH+]cccc1CNc1cccc(CN2CCOCC2)c1C (3D coordinates assigned)
Cc1[nH+]cccc1CNc1cccc(CN2CCOCC2)c1C (nonaromatic ring conformer: 63.25339495300096 kcal/mol)

>  <smiles>  (16) 
Cc1ncccc1CNc1cccc(CN2CCOCC2)c1C

>  <score_type>  (16) 
oracle

>  <origin>  (16) 
adg

>  <m_score__min__energy>  (16) 
-8.1300000000000008

>  <m_primary>  (16) 
energy

$$$$
16:0
     RDKit          3D

 38 40  0  0  0  0  0  0  0  0999 V2000
   -1.9160   19.8400  -34.5620 F   0  0  0  0  0  0  0  0  0  0  0  0
   -2.9990   19.4440  -33.8490 C   0  0  0  0  0  0  0  0  0  0  0  0
   -3.7380   18.3290  -34.2480 C   0  0  0  0  0  0  0  0  0  0  0  0
   -4.8530   17.9330  -33.5060 C   0  0  0  0  0  0  0  0  0  0  0  0
   -5.2160   18.6640  -32.3690 C   0  0  0  0  0  0  0  0  0  0  0  0
   -6.3370   18.2690  -31.6290 O   0  0  0  0  0  0  0  0  0  0  0  0
   -7.6800   18.5210  -32.0400 C   0  0  0  0  0  0  0  0  0  0  0  0
   -8.0210   19.9770  -31.8520 C   0  0  0  0  0  0  0  0  0  0  0  0
   -9.3120   20.4260  -32.1390 C   0  0  0  0  0  0  0  0  0  0  0  0
   -9.6090   21.7770  -32.0070 C   0  0  0  0  0  0  0  0  0  0  0  0
   -8.6220   22.6720  -31.6020 C   0  0  0  0  0  0  0  0  0  0  0  0
   -7.3170   22.2090  -31.3200 C   0  0  0  0  0  0  0  0  0  0  0  0
   -6.2610   23.1350  -30.9140 N   0  0  0  0  0  0  0  0  0  0  0  0
   -6.6100   24.5330  -30.5830 C   0  0  0  0  0  0  0  0  0  0  0  0
   -5.4170   25.3650  -30.1060 C   0  0  0  0  0  0  0  0  0  0  0  0
   -4.2590   25.0480  -30.8400 O   0  0  0  0  0  0  0  0  0  0  0  0
   -3.8540   23.7480  -30.4870 C   0  0  0  0  0  0  0  0  0  0  0  0
   -4.8500   22.7000  -30.9940 C   0  0  0  0  0  0  0  0  0  0  0  0
   -7.0610   20.8660  -31.4560 N   0  0  0  0  0  0  0  0  0  0  0  0
   -4.4760   19.7470  -31.9990 N   0  0  0  0  0  0  0  0  0  0  0  0
   -3.3880   20.1500  -32.7080 C   0  0  0  0  0  0  0  0  0  0  0  0
   -3.4430   17.7638  -35.1444 H   0  0  0  0  0  0  0  0  0  0  0  0
   -5.4404   17.0548  -33.8123 H   0  0  0  0  0  0  0  0  0  0  0  0
   -7.7899   18.2570  -33.1022 H   0  0  0  0  0  0  0  0  0  0  0  0
   -8.3614   17.9123  -31.4275 H   0  0  0  0  0  0  0  0  0  0  0  0
  -10.0864   19.7168  -32.4665 H   0  0  0  0  0  0  0  0  0  0  0  0
  -10.6248   22.1399  -32.2226 H   0  0  0  0  0  0  0  0  0  0  0  0
   -8.8587   23.7415  -31.5014 H   0  0  0  0  0  0  0  0  0  0  0  0
   -7.0291   25.0091  -31.4817 H   0  0  0  0  0  0  0  0  0  0  0  0
   -7.3316   24.4980  -29.7535 H   0  0  0  0  0  0  0  0  0  0  0  0
   -5.6464   26.4326  -30.2383 H   0  0  0  0  0  0  0  0  0  0  0  0
   -5.2334   25.1405  -29.0449 H   0  0  0  0  0  0  0  0  0  0  0  0
   -2.8666   23.5476  -30.9285 H   0  0  0  0  0  0  0  0  0  0  0  0
   -3.8089   23.6833  -29.3898 H   0  0  0  0  0  0  0  0  0  0  0  0
   -4.6143   22.4764  -32.0449 H   0  0  0  0  0  0  0  0  0  0  0  0
   -4.7477   21.8179  -30.3448 H   0  0  0  0  0  0  0  0  0  0  0  0
   -6.1110   20.4850  -31.2680 H   0  0  0  0  0  0  0  0  0  0  0  0
   -2.8147   21.0310  -32.3835 H   0  0  0  0  0  0  0  0  0  0  0  0
  1  2  1  0
  2  3  2  0
  3  4  1  0
  4  5  2  0
  5  6  1  0
  6  7  1  0
  7  8  1  0
  8  9  2  0
  9 10  1  0
 10 11  2  0
 11 12  1  0
 12 13  1  0
 13 14  1  0
 14 15  1  0
 15 16  1  0
 16 17  1  0
 17 18  1  0
 12 19  2  0
  5 20  1  0
 20 21  2  0
 21  2  1  0
 19  8  1  0
 18 13  1  0
  3 22  1  0
  4 23  1  0
  7 24  1  0
  7 25  1  0
  9 26  1  0
 10 27  1  0
 11 28  1  0
 14 29  1  0
 14 30  1  0
 15 31  1  0
 15 32  1  0
 17 33  1  0
 17 34  1  0
 18 35  1  0
 18 36  1  0
 19 37  1  0
 21 38  1  0
M  CHG  1  19   1
M  END
>  <UniqueID>  (17) 
17

>  <SMILES>  (17) 
Fc1ccc(OCc2cccc(N3CCOCC3)[nH+]2)nc1

>  <Energy>  (17) 
45.42501701174982

>  <Genealogy>  (17) 
Fc1ccc(OCc2cccc(N3CCOCC3)[nH+]2)nc1 (protonated)
Fc1ccc(OCc2cccc(N3CCOCC3)[nH+]2)nc1 (3D coordinates assigned)
Fc1ccc(OCc2cccc(N3CCOCC3)[nH+]2)nc1 (nonaromatic ring conformer: 45.42501701174982 kcal/mol)

>  <smiles>  (17) 
Fc1ccc(OCc2cccc(N3CCOCC3)n2)nc1

>  <score_type>  (17) 
oracle

>  <origin>  (17) 
adg

>  <m_score__min__energy>  (17) 
-6.2199999999999998

>  <m_primary>  (17) 
energy

$$$$
17:0
     RDKit          3D

 52 55  0  0  0  0  0  0  0  0999 V2000
    0.6580   23.3460  -36.0900 C   0  0  0  0  0  0  0  0  0  0  0  0
    0.8470   22.4390  -35.0070 O   0  0  0  0  0  0  0  0  0  0  0  0
    0.1630   21.2240  -34.8610 C   0  0  0  0  0  0  0  0  0  0  0  0
   -0.9730   21.1960  -34.0490 C   0  0  0  0  0  0  0  0  0  0  0  0
   -1.6870   20.0080  -33.8650 C   0  0  0  0  0  0  0  0  0  0  0  0
   -1.2860   18.8280  -34.5130 C   0  0  0  0  0  0  0  0  0  0  0  0
   -2.0250   17.6010  -34.3250 N   0  0  0  0  0  0  0  0  0  0  0  0
   -1.2880   16.3330  -34.3170 C   0  0  0  0  0  0  0  0  0  0  0  0
   -3.4650   17.6340  -34.2050 C   0  0  0  0  0  0  0  0  0  0  0  0
   -4.1700   17.5220  -35.2480 O   0  0  0  0  0  0  0  0  0  0  0  0
   -4.1670   17.8490  -32.8700 C   0  0  0  0  0  0  0  0  0  0  0  0
   -5.6440   17.9410  -32.9490 N   0  0  1  0  0  0  0  0  0  0  0  0
   -6.2850   17.8800  -31.6700 C   0  0  0  0  0  0  0  0  0  0  0  0
   -6.1970   16.8760  -30.9110 O   0  0  0  0  0  0  0  0  0  0  0  0
   -7.0630   19.0170  -31.3260 N   0  0  0  0  0  0  0  0  0  0  0  0
   -7.0520   19.9190  -32.4730 C   0  0  1  0  0  0  0  0  0  0  0  0
   -8.4650   19.9990  -33.0850 C   0  0  0  0  0  0  0  0  0  0  0  0
   -9.5080   20.6090  -32.1190 C   0  0  0  0  0  0  0  0  0  0  0  0
   -8.9250   21.5370  -31.0240 C   0  0  0  0  0  0  0  0  0  0  0  0
   -7.5730   22.1120  -31.3700 C   0  0  0  0  0  0  0  0  0  0  0  0
   -7.2240   23.4010  -30.9380 C   0  0  0  0  0  0  0  0  0  0  0  0
   -5.9530   23.9140  -31.2040 C   0  0  0  0  0  0  0  0  0  0  0  0
   -5.0220   23.1440  -31.8950 C   0  0  0  0  0  0  0  0  0  0  0  0
   -5.3510   21.8520  -32.3160 C   0  0  0  0  0  0  0  0  0  0  0  0
   -6.6250   21.3150  -32.0440 C   0  0  0  0  0  0  0  0  0  0  0  0
   -6.1100   19.2170  -33.4230 C   0  0  0  0  0  0  0  0  0  0  0  0
   -5.8410   19.6430  -34.5410 O   0  0  0  0  0  0  0  0  0  0  0  0
   -0.1380   18.8510  -35.3240 C   0  0  0  0  0  0  0  0  0  0  0  0
    0.5830   20.0380  -35.4960 C   0  0  0  0  0  0  0  0  0  0  0  0
    0.4486   24.3508  -35.6944 H   0  0  0  0  0  0  0  0  0  0  0  0
    1.5690   23.3768  -36.7057 H   0  0  0  0  0  0  0  0  0  0  0  0
   -0.1895   23.0104  -36.7057 H   0  0  0  0  0  0  0  0  0  0  0  0
   -1.3090   22.1168  -33.5498 H   0  0  0  0  0  0  0  0  0  0  0  0
   -2.5692   19.9974  -33.2080 H   0  0  0  0  0  0  0  0  0  0  0  0
   -1.1066   16.0209  -33.2779 H   0  0  0  0  0  0  0  0  0  0  0  0
   -1.8788   15.5622  -34.8335 H   0  0  0  0  0  0  0  0  0  0  0  0
   -0.3258   16.4649  -34.8335 H   0  0  0  0  0  0  0  0  0  0  0  0
   -3.9120   17.0065  -32.2103 H   0  0  0  0  0  0  0  0  0  0  0  0
   -3.8174   18.8206  -32.4907 H   0  0  0  0  0  0  0  0  0  0  0  0
   -6.0260   17.1820  -33.5620 H   0  0  0  0  0  0  0  0  0  0  0  0
   -8.4200   20.6214  -33.9909 H   0  0  0  0  0  0  0  0  0  0  0  0
   -8.7855   18.9708  -33.3089 H   0  0  0  0  0  0  0  0  0  0  0  0
  -10.2241   21.1935  -32.7154 H   0  0  0  0  0  0  0  0  0  0  0  0
   -9.9680   19.7616  -31.5896 H   0  0  0  0  0  0  0  0  0  0  0  0
   -9.6260   22.3698  -30.8658 H   0  0  0  0  0  0  0  0  0  0  0  0
   -8.7907   20.9228  -30.1214 H   0  0  0  0  0  0  0  0  0  0  0  0
   -7.9556   24.0102  -30.3870 H   0  0  0  0  0  0  0  0  0  0  0  0
   -5.6874   24.9270  -30.8674 H   0  0  0  0  0  0  0  0  0  0  0  0
   -4.0240   23.5533  -32.1106 H   0  0  0  0  0  0  0  0  0  0  0  0
   -4.6102   21.2506  -32.8633 H   0  0  0  0  0  0  0  0  0  0  0  0
    0.1954   17.9309  -35.8262 H   0  0  0  0  0  0  0  0  0  0  0  0
    1.4819   20.0454  -36.1299 H   0  0  0  0  0  0  0  0  0  0  0  0
  1  2  1  0
  2  3  1  0
  3  4  2  0
  4  5  1  0
  5  6  2  0
  6  7  1  0
  7  8  1  0
  7  9  1  0
  9 10  2  0
  9 11  1  0
 11 12  1  0
 12 13  1  0
 13 14  2  0
 13 15  1  0
 16 15  1  1
 16 17  1  0
 17 18  1  0
 18 19  1  0
 19 20  1  0
 20 21  2  0
 21 22  1  0
 22 23  2  0
 23 24  1  0
 24 25  2  0
 16 26  1  0
 26 27  2  0
  6 28  1  0
 28 29  2  0
 29  3  1  0
 26 12  1  0
 25 16  1  0
 25 20  1  0
  1 30  1  0
  1 31  1  0
  1 32  1  0
  4 33  1  0
  5 34  1  0
  8 35  1  0
  8 36  1  0
  8 37  1  0
 11 38  1  0
 11 39  1  0
 12 40  1  6
 17 41  1  0
 17 42  1  0
 18 43  1  0
 18 44  1  0
 19 45  1  0
 19 46  1  0
 21 47  1  0
 22 48  1  0
 23 49  1  0
 24 50  1  0
 28 51  1  0
 29 52  1  0
M  CHG  2  12   1  15  -1
M  END
>  <UniqueID>  (18) 
18

>  <SMILES>  (18) 
COc1ccc(N(C)C(=O)C[N@H+]2C(=O)[N-][C@]3(CCCc4ccccc43)C2=O)cc1

>  <Energy>  (18) 
82.82297663559831

>  <Genealogy>  (18) 
COc1ccc(N(C)C(=O)C[NH+]2C(=O)[N-]C3(CCCc4ccccc43)C2=O)cc1 (protonated)
COc1ccc(N(C)C(=O)C[N@H+]2C(=O)[N-][C@]3(CCCc4ccccc43)C2=O)cc1 (chirality)
COc1ccc(N(C)C(=O)C[N@H+]2C(=O)[N-][C@]3(CCCc4ccccc43)C2=O)cc1 (3D coordinates assigned)
COc1ccc(N(C)C(=O)C[N@H+]2C(=O)[N-][C@]3(CCCc4ccccc43)C2=O)cc1 (nonaromatic ring conformer: 82.82297663559831 kcal/mol)

>  <smiles>  (18) 
COc1ccc(N(C)C(=O)CN2C(=O)NC3(CCCc4ccccc43)C2=O)cc1

>  <score_type>  (18) 
oracle

>  <origin>  (18) 
adg

>  <m_score__min__energy>  (18) 
-8.3200000000000003

>  <m_primary>  (18) 
energy

$$$$
18:0
     RDKit          3D

 48 49  0  0  0  0  0  0  0  0999 V2000
   -5.8250   17.9330  -34.4490 C   0  0  0  0  0  0  0  0  0  0  0  0
   -6.1270   19.3360  -33.9430 C   0  0  0  0  0  0  0  0  0  0  0  0
   -7.2190   19.3050  -32.9680 N   0  0  0  0  0  0  0  0  0  0  0  0
   -7.8810   18.2060  -32.5620 C   0  0  0  0  0  0  0  0  0  0  0  0
   -8.8060   18.5860  -31.6190 C   0  0  0  0  0  0  0  0  0  0  0  0
   -8.7310   19.9170  -31.4210 N   0  0  0  0  0  0  0  0  0  0  0  0
   -7.7390   20.3240  -32.2450 C   0  0  0  0  0  0  0  0  0  0  0  0
   -7.3260   21.7680  -32.3640 C   0  0  0  0  0  0  0  0  0  0  0  0
   -6.0190   21.9990  -31.7090 N   0  0  0  0  0  0  0  0  0  0  0  0
   -4.9080   21.8840  -32.6880 C   0  0  0  0  0  0  0  0  0  0  0  0
   -3.5490   22.3590  -32.1400 C   0  0  0  0  0  0  0  0  0  0  0  0
   -3.2840   21.9850  -30.6630 C   0  0  0  0  0  0  0  0  0  0  0  0
   -3.8080   23.0020  -29.7320 N   0  0  0  0  0  0  0  0  0  0  0  0
   -2.8860   23.8580  -29.0110 C   0  0  0  0  0  0  0  0  0  0  0  0
   -2.5950   24.9980  -29.4680 O   0  0  0  0  0  0  0  0  0  0  0  0
   -2.2900   23.4560  -27.6870 C   0  0  0  0  0  0  0  0  0  0  0  0
   -2.7430   24.3670  -26.6170 N   0  0  0  0  0  0  0  0  0  0  0  0
   -1.9410   25.6020  -26.6280 C   0  0  0  0  0  0  0  0  0  0  0  0
   -4.1690   24.7030  -26.7820 C   0  0  0  0  0  0  0  0  0  0  0  0
   -5.2680   23.1640  -29.5760 C   0  0  0  0  0  0  0  0  0  0  0  0
   -6.0260   23.2570  -30.9190 C   0  0  0  0  0  0  0  0  0  0  0  0
   -5.6797   17.2578  -33.5928 H   0  0  0  0  0  0  0  0  0  0  0  0
   -6.6665   17.5745  -35.0600 H   0  0  0  0  0  0  0  0  0  0  0  0
   -4.9105   17.9525  -35.0600 H   0  0  0  0  0  0  0  0  0  0  0  0
   -5.2268   19.7502  -33.4654 H   0  0  0  0  0  0  0  0  0  0  0  0
   -6.4276   19.9644  -34.7943 H   0  0  0  0  0  0  0  0  0  0  0  0
   -7.7112   17.1807  -32.9225 H   0  0  0  0  0  0  0  0  0  0  0  0
   -9.5017   17.9070  -31.1042 H   0  0  0  0  0  0  0  0  0  0  0  0
   -7.2473   22.0336  -33.4286 H   0  0  0  0  0  0  0  0  0  0  0  0
   -8.0833   22.3923  -31.8673 H   0  0  0  0  0  0  0  0  0  0  0  0
   -4.8136   20.8288  -32.9840 H   0  0  0  0  0  0  0  0  0  0  0  0
   -5.1585   22.5369  -33.5371 H   0  0  0  0  0  0  0  0  0  0  0  0
   -2.7552   21.9103  -32.7553 H   0  0  0  0  0  0  0  0  0  0  0  0
   -3.5613   23.4580  -32.1859 H   0  0  0  0  0  0  0  0  0  0  0  0
   -3.7708   21.0223  -30.4478 H   0  0  0  0  0  0  0  0  0  0  0  0
   -2.1953   21.9219  -30.5190 H   0  0  0  0  0  0  0  0  0  0  0  0
   -2.6040   22.4298  -27.4455 H   0  0  0  0  0  0  0  0  0  0  0  0
   -1.1937   23.5105  -27.7596 H   0  0  0  0  0  0  0  0  0  0  0  0
   -1.7371   25.9160  -25.5937 H   0  0  0  0  0  0  0  0  0  0  0  0
   -0.9902   25.4171  -27.1493 H   0  0  0  0  0  0  0  0  0  0  0  0
   -2.4967   26.3954  -27.1493 H   0  0  0  0  0  0  0  0  0  0  0  0
   -4.6366   24.8132  -25.7925 H   0  0  0  0  0  0  0  0  0  0  0  0
   -4.2612   25.6475  -27.3383 H   0  0  0  0  0  0  0  0  0  0  0  0
   -4.6731   23.8990  -27.3383 H   0  0  0  0  0  0  0  0  0  0  0  0
   -5.6561   22.3001  -29.0165 H   0  0  0  0  0  0  0  0  0  0  0  0
   -5.4328   24.1135  -29.0457 H   0  0  0  0  0  0  0  0  0  0  0  0
   -7.0714   23.5260  -30.7075 H   0  0  0  0  0  0  0  0  0  0  0  0
   -5.5060   24.0140  -31.5244 H   0  0  0  0  0  0  0  0  0  0  0  0
  1  2  1  0
  2  3  1  0
  3  4  1  0
  4  5  2  0
  5  6  1  0
  6  7  2  0
  7  8  1  0
  8  9  1  0
  9 10  1  0
 10 11  1  0
 11 12  1  0
 12 13  1  0
 13 14  1  0
 14 15  2  0
 14 16  1  0
 16 17  1  0
 17 18  1  0
 17 19  1  0
 13 20  1  0
 20 21  1  0
  7  3  1  0
 21  9  1  0
  1 22  1  0
  1 23  1  0
  1 24  1  0
  2 25  1  0
  2 26  1  0
  4 27  1  0
  5 28  1  0
  8 29  1  0
  8 30  1  0
 10 31  1  0
 10 32  1  0
 11 33  1  0
 11 34  1  0
 12 35  1  0
 12 36  1  0
 16 37  1  0
 16 38  1  0
 18 39  1  0
 18 40  1  0
 18 41  1  0
 19 42  1  0
 19 43  1  0
 19 44  1  0
 20 45  1  0
 20 46  1  0
 21 47  1  0
 21 48  1  0
M  END
>  <UniqueID>  (19) 
19

>  <SMILES>  (19) 
CCn1ccnc1CN1CCCN(C(=O)CN(C)C)CC1

>  <Energy>  (19) 
82.92251921369225

>  <Genealogy>  (19) 
CCn1ccnc1CN1CCCN(C(=O)CN(C)C)CC1 (3D coordinates assigned)
CCn1ccnc1CN1CCCN(C(=O)CN(C)C)CC1 (nonaromatic ring conformer: 82.92251921369225 kcal/mol)

>  <smiles>  (19) 
CCn1ccnc1CN1CCCN(C(=O)CN(C)C)CC1

>  <score_type>  (19) 
oracle

>  <origin>  (19) 
adg

>  <m_score__min__energy>  (19) 
-4.9800000000000004

>  <m_primary>  (19) 
energy

$$$$
19:0
     RDKit          3D

 36 38  0  0  0  0  0  0  0  0999 V2000
   -9.2225   22.5476  -31.1938 H   0  0  0  0  0  0  0  0  0  0  0  0
   -8.1890   22.3270  -31.4990 C   0  0  0  0  0  0  0  0  0  0  0  0
   -7.1650   23.2310  -31.1980 C   0  0  0  0  0  0  0  0  0  0  0  0
   -7.3938   24.1519  -30.6416 H   0  0  0  0  0  0  0  0  0  0  0  0
   -5.8490   22.9690  -31.6020 C   0  0  0  0  0  0  0  0  0  0  0  0
   -4.8190   23.9080  -31.2440 N   0  0  0  0  0  0  0  0  0  0  0  0
   -3.9470   23.7860  -30.2840 C   0  0  0  0  0  0  0  0  0  0  0  0
   -3.8780   22.6490  -29.5400 N   0  0  0  0  0  0  0  0  0  0  0  0
   -2.9580   22.5030  -28.5530 C   0  0  0  0  0  0  0  0  0  0  0  0
   -2.9220   21.3250  -27.8020 C   0  0  0  0  0  0  0  0  0  0  0  0
   -3.6399   20.5192  -28.0148 H   0  0  0  0  0  0  0  0  0  0  0  0
   -1.9730   21.1630  -26.7750 C   0  0  0  0  0  0  0  0  0  0  0  0
   -1.9080   19.9940  -26.0000 O   0  0  0  0  0  0  0  0  0  0  0  0
   -2.8320   18.9150  -26.0870 C   0  0  0  0  0  0  0  0  0  0  0  0
   -3.1113   18.5889  -25.0743 H   0  0  0  0  0  0  0  0  0  0  0  0
   -3.7316   19.2453  -26.6270 H   0  0  0  0  0  0  0  0  0  0  0  0
   -2.3672   18.0769  -26.6270 H   0  0  0  0  0  0  0  0  0  0  0  0
   -1.0570   22.1930  -26.5050 C   0  0  0  0  0  0  0  0  0  0  0  0
   -0.1250   21.9990  -25.4740 O   0  0  0  0  0  0  0  0  0  0  0  0
   -0.1170   22.7160  -24.2440 C   0  0  0  0  0  0  0  0  0  0  0  0
   -0.1249   22.0047  -23.4049 H   0  0  0  0  0  0  0  0  0  0  0  0
    0.7881   23.3386  -24.1884 H   0  0  0  0  0  0  0  0  0  0  0  0
   -1.0080   23.3586  -24.1884 H   0  0  0  0  0  0  0  0  0  0  0  0
   -1.0950   23.3800  -27.2650 C   0  0  0  0  0  0  0  0  0  0  0  0
   -0.3773   24.1868  -27.0554 H   0  0  0  0  0  0  0  0  0  0  0  0
   -2.0440   23.5380  -28.2880 C   0  0  0  0  0  0  0  0  0  0  0  0
   -2.1200   24.7000  -29.0740 C   0  0  0  0  0  0  0  0  0  0  0  0
   -1.3230   25.6590  -28.8840 O   0  0  0  0  0  0  0  0  0  0  0  0
   -3.0630   24.7960  -30.0530 N   0  0  0  0  0  0  0  0  0  0  0  0
   -3.1080   25.6650  -30.6340 H   0  0  0  0  0  0  0  0  0  0  0  0
   -5.5610   21.7610  -32.2660 C   0  0  0  0  0  0  0  0  0  0  0  0
   -4.5249   21.5253  -32.5504 H   0  0  0  0  0  0  0  0  0  0  0  0
   -6.5880   20.8600  -32.5650 C   0  0  0  0  0  0  0  0  0  0  0  0
   -6.3607   19.9257  -33.0992 H   0  0  0  0  0  0  0  0  0  0  0  0
   -7.9030   21.1450  -32.1860 C   0  0  0  0  0  0  0  0  0  0  0  0
   -8.8960   20.2680  -32.4740 F   0  0  0  0  0  0  0  0  0  0  0  0
  1  2  1  0
  2  3  2  0
  3  4  1  0
  3  5  1  0
  5  6  1  0
  6  7  2  0
  7  8  1  0
  8  9  1  0
  9 10  2  0
 10 11  1  0
 10 12  1  0
 12 13  1  0
 13 14  1  0
 14 15  1  0
 14 16  1  0
 14 17  1  0
 12 18  2  0
 18 19  1  0
 19 20  1  0
 20 21  1  0
 20 22  1  0
 20 23  1  0
 18 24  1  0
 24 25  1  0
 24 26  2  0
 26 27  1  0
 27 28  2  0
 27 29  1  0
 29 30  1  0
  5 31  2  0
 31 32  1  0
 31 33  1  0
 33 34  1  0
 33 35  2  0
 35 36  1  0
 35  2  1  0
 29  7  1  0
 26  9  1  0
M  CHG  1   8  -1
M  END
>  <UniqueID>  (20) 
20

>  <SMILES>  (20) 
COc1cc2[n-]/c(=N\c3ccc(F)cc3)[nH]c(=O)c2cc1OC

>  <Energy>  (20) 
48.51821251600943

>  <Genealogy>  (20) 
COc1cc2[n-]c(=Nc3ccc(F)cc3)[nH]c(=O)c2cc1OC (protonated)
COc1cc2[n-]/c(=N\c3ccc(F)cc3)[nH]c(=O)c2cc1OC (cis-trans isomerization)
COc1cc2[n-]/c(=N\c3ccc(F)cc3)[nH]c(=O)c2cc1OC (3D coordinates assigned)
COc1cc2[n-]/c(=N\c3ccc(F)cc3)[nH]c(=O)c2cc1OC (optimized conformer: 48.51821251600943 kcal/mol)

>  <smiles>  (20) 
COc1cc2[nH]c(=Nc3ccc(F)cc3)[nH]c(=O)c2cc1OC

>  <score_type>  (20) 
oracle

>  <origin>  (20) 
adg

>  <m_score__min__energy>  (20) 
-8.5

>  <m_primary>  (20) 
energy

$$$$
20:0
     RDKit          3D

 38 39  0  0  0  0  0  0  0  0999 V2000
   -6.4230   19.3940  -33.4550 C   0  0  0  0  0  0  0  0  0  0  0  0
   -7.7300   19.0950  -32.8480 N   0  0  0  0  0  0  0  0  0  0  0  0
   -7.5730   18.3250  -31.6030 C   0  0  0  0  0  0  0  0  0  0  0  0
   -8.5800   20.2950  -32.6820 C   0  0  0  0  0  0  0  0  0  0  0  0
   -8.6530   20.8310  -31.2370 C   0  0  0  0  0  0  0  0  0  0  0  0
   -8.2840   22.3180  -31.1900 C   0  0  0  0  0  0  0  0  0  0  0  0
   -7.0610   22.6120  -32.0670 C   0  0  0  0  0  0  0  0  0  0  0  0
   -6.0200   23.3030  -31.2880 N   0  0  0  0  0  0  0  0  0  0  0  0
   -6.3680   24.5790  -30.6390 C   0  0  0  0  0  0  0  0  0  0  0  0
   -5.1840   25.4940  -30.5460 C   0  0  0  0  0  0  0  0  0  0  0  0
   -5.3520   26.7370  -30.4470 O   0  0  0  0  0  0  0  0  0  0  0  0
   -3.8650   24.9540  -30.4900 N   0  0  0  0  0  0  0  0  0  0  0  0
   -3.6410   23.5580  -30.6840 C   0  0  0  0  0  0  0  0  0  0  0  0
   -2.3560   23.0360  -30.5040 C   0  0  0  0  0  0  0  0  0  0  0  0
   -2.1170   21.6750  -30.7030 C   0  0  0  0  0  0  0  0  0  0  0  0
   -3.1620   20.8340  -31.0870 C   0  0  0  0  0  0  0  0  0  0  0  0
   -4.4480   21.3490  -31.2760 C   0  0  0  0  0  0  0  0  0  0  0  0
   -4.7050   22.7230  -31.0790 C   0  0  0  0  0  0  0  0  0  0  0  0
   -5.6804   19.5639  -32.6614 H   0  0  0  0  0  0  0  0  0  0  0  0
   -6.1056   18.5453  -34.0786 H   0  0  0  0  0  0  0  0  0  0  0  0
   -6.5062   20.2963  -34.0786 H   0  0  0  0  0  0  0  0  0  0  0  0
   -7.7091   18.9926  -30.7394 H   0  0  0  0  0  0  0  0  0  0  0  0
   -8.3263   17.5241  -31.5697 H   0  0  0  0  0  0  0  0  0  0  0  0
   -6.5663   17.8830  -31.5697 H   0  0  0  0  0  0  0  0  0  0  0  0
   -8.1784   21.0924  -33.3246 H   0  0  0  0  0  0  0  0  0  0  0  0
   -9.6021   19.9956  -32.9572 H   0  0  0  0  0  0  0  0  0  0  0  0
   -9.6764   20.7009  -30.8551 H   0  0  0  0  0  0  0  0  0  0  0  0
   -7.9390   20.2702  -30.6159 H   0  0  0  0  0  0  0  0  0  0  0  0
   -9.1366   22.9112  -31.5522 H   0  0  0  0  0  0  0  0  0  0  0  0
   -8.0406   22.5846  -30.1509 H   0  0  0  0  0  0  0  0  0  0  0  0
   -6.6557   21.6646  -32.4518 H   0  0  0  0  0  0  0  0  0  0  0  0
   -7.3694   23.2599  -32.9007 H   0  0  0  0  0  0  0  0  0  0  0  0
   -7.1561   25.0741  -31.2254 H   0  0  0  0  0  0  0  0  0  0  0  0
   -6.7147   24.3614  -29.6180 H   0  0  0  0  0  0  0  0  0  0  0  0
   -1.5314   23.6997  -30.2048 H   0  0  0  0  0  0  0  0  0  0  0  0
   -1.1062   21.2662  -30.5573 H   0  0  0  0  0  0  0  0  0  0  0  0
   -2.9733   19.7614  -31.2417 H   0  0  0  0  0  0  0  0  0  0  0  0
   -5.2654   20.6787  -31.5804 H   0  0  0  0  0  0  0  0  0  0  0  0
  1  2  1  0
  2  3  1  0
  2  4  1  0
  4  5  1  0
  5  6  1  0
  6  7  1  0
  7  8  1  0
  8  9  1  0
  9 10  1  0
 10 11  2  0
 10 12  1  0
 12 13  1  0
 13 14  2  0
 14 15  1  0
 15 16  2  0
 16 17  1  0
 17 18  2  0
 18  8  1  0
 18 13  1  0
  1 19  1  0
  1 20  1  0
  1 21  1  0
  3 22  1  0
  3 23  1  0
  3 24  1  0
  4 25  1  0
  4 26  1  0
  5 27  1  0
  5 28  1  0
  6 29  1  0
  6 30  1  0
  7 31  1  0
  7 32  1  0
  9 33  1  0
  9 34  1  0
 14 35  1  0
 15 36  1  0
 16 37  1  0
 17 38  1  0
M  CHG  1  12  -1
M  END
>  <UniqueID>  (21) 
21

>  <SMILES>  (21) 
CN(C)CCCCN1CC(=O)[N-]c2ccccc21

>  <Energy>  (21) 
36.87050855970424

>  <Genealogy>  (21) 
CN(C)CCCCN1CC(=O)[N-]c2ccccc21 (protonated)
CN(C)CCCCN1CC(=O)[N-]c2ccccc21 (3D coordinates assigned)
CN(C)CCCCN1CC(=O)[N-]c2ccccc21 (nonaromatic ring conformer: 36.87050855970424 kcal/mol)

>  <smiles>  (21) 
CN(C)CCCCN1CC(=O)Nc2ccccc21

>  <score_type>  (21) 
oracle

>  <origin>  (21) 
adg

>  <m_score__min__energy>  (21) 
-8.0800000000000001

>  <m_primary>  (21) 
energy

$$$$
21:0
     RDKit          3D

 57 58  0  0  0  0  0  0  0  0999 V2000
   -4.5890   13.2950  -31.0750 C   0  0  0  0  0  0  0  0  0  0  0  0
   -3.4690   13.6780  -32.0510 C   0  0  0  0  0  0  0  0  0  0  0  0
   -3.8760   14.6540  -33.0900 N   0  0  0  0  0  0  0  0  0  0  0  0
   -2.7530   15.4070  -33.6940 C   0  0  0  0  0  0  0  0  0  0  0  0
   -3.0850   16.8920  -33.8420 C   0  0  0  0  0  0  0  0  0  0  0  0
   -4.7540   14.0540  -34.1200 C   0  0  0  0  0  0  0  0  0  0  0  0
   -6.0630   14.8330  -34.2100 C   0  0  0  0  0  0  0  0  0  0  0  0
   -6.0870   15.8220  -33.1860 O   0  0  0  0  0  0  0  0  0  0  0  0
   -6.3540   17.1710  -33.4300 C   0  0  0  0  0  0  0  0  0  0  0  0
   -6.2670   17.6420  -34.5970 O   0  0  0  0  0  0  0  0  0  0  0  0
   -6.7290   18.0670  -32.2820 C   0  0  2  0  0  0  0  0  0  0  0  0
   -8.2620   18.2790  -32.2530 C   0  0  0  0  0  0  0  0  0  0  0  0
   -8.6140   19.6330  -31.6270 C   0  0  0  0  0  0  0  0  0  0  0  0
   -8.0860   20.7580  -32.4380 N   0  0  1  0  0  0  0  0  0  0  0  0
   -8.1260   21.9940  -31.6750 C   0  0  0  0  0  0  0  0  0  0  0  0
   -9.2410   22.4520  -31.3050 O   0  0  0  0  0  0  0  0  0  0  0  0
   -6.9110   22.7560  -31.3110 C   0  0  0  0  0  0  0  0  0  0  0  0
   -5.8270   22.1410  -30.6670 C   0  0  0  0  0  0  0  0  0  0  0  0
   -4.7020   22.8900  -30.3130 C   0  0  0  0  0  0  0  0  0  0  0  0
   -4.6440   24.2620  -30.5860 C   0  0  0  0  0  0  0  0  0  0  0  0
   -3.4910   24.9700  -30.2120 O   0  0  0  0  0  0  0  0  0  0  0  0
   -2.5720   24.5390  -29.2160 C   0  0  0  0  0  0  0  0  0  0  0  0
   -5.7360   24.8810  -31.2210 C   0  0  0  0  0  0  0  0  0  0  0  0
   -6.8640   24.1330  -31.5700 C   0  0  0  0  0  0  0  0  0  0  0  0
   -6.7600   20.4950  -33.0730 C   0  0  0  0  0  0  0  0  0  0  0  0
   -5.9530   19.4040  -32.3490 C   0  0  0  0  0  0  0  0  0  0  0  0
   -4.2324   13.4169  -30.0416 H   0  0  0  0  0  0  0  0  0  0  0  0
   -5.4594   13.9466  -31.2418 H   0  0  0  0  0  0  0  0  0  0  0  0
   -4.8782   12.2469  -31.2418 H   0  0  0  0  0  0  0  0  0  0  0  0
   -2.6417   14.1148  -31.4725 H   0  0  0  0  0  0  0  0  0  0  0  0
   -3.1804   12.7568  -32.5783 H   0  0  0  0  0  0  0  0  0  0  0  0
   -1.8664   15.3019  -33.0514 H   0  0  0  0  0  0  0  0  0  0  0  0
   -2.5632   14.9957  -34.6964 H   0  0  0  0  0  0  0  0  0  0  0  0
   -3.1865   17.3461  -32.8453 H   0  0  0  0  0  0  0  0  0  0  0  0
   -2.2772   17.3951  -34.3936 H   0  0  0  0  0  0  0  0  0  0  0  0
   -4.0302   17.0032  -34.3936 H   0  0  0  0  0  0  0  0  0  0  0  0
   -4.2449   14.0839  -35.0946 H   0  0  0  0  0  0  0  0  0  0  0  0
   -4.9729   13.0118  -33.8445 H   0  0  0  0  0  0  0  0  0  0  0  0
   -6.1354   15.3195  -35.1939 H   0  0  0  0  0  0  0  0  0  0  0  0
   -6.9128   14.1463  -34.0825 H   0  0  0  0  0  0  0  0  0  0  0  0
   -6.4420   17.5814  -31.3377 H   0  0  0  0  0  0  0  0  0  0  0  0
   -8.6499   18.2459  -33.2818 H   0  0  0  0  0  0  0  0  0  0  0  0
   -8.7161   17.4819  -31.6460 H   0  0  0  0  0  0  0  0  0  0  0  0
   -9.7083   19.7227  -31.5601 H   0  0  0  0  0  0  0  0  0  0  0  0
   -8.1566   19.6819  -30.6278 H   0  0  0  0  0  0  0  0  0  0  0  0
   -8.7590   20.8870  -33.2310 H   0  0  0  0  0  0  0  0  0  0  0  0
   -5.8629   21.0653  -30.4400 H   0  0  0  0  0  0  0  0  0  0  0  0
   -3.8539   22.3972  -29.8151 H   0  0  0  0  0  0  0  0  0  0  0  0
   -2.9927   24.7363  -28.2190 H   0  0  0  0  0  0  0  0  0  0  0  0
   -2.3876   23.4605  -29.3293 H   0  0  0  0  0  0  0  0  0  0  0  0
   -1.6249   25.0868  -29.3293 H   0  0  0  0  0  0  0  0  0  0  0  0
   -5.7021   25.9577  -31.4437 H   0  0  0  0  0  0  0  0  0  0  0  0
   -7.7205   24.6280  -32.0510 H   0  0  0  0  0  0  0  0  0  0  0  0
   -6.9262   20.1764  -34.1126 H   0  0  0  0  0  0  0  0  0  0  0  0
   -6.1778   21.4266  -33.0172 H   0  0  0  0  0  0  0  0  0  0  0  0
   -5.0088   19.2414  -32.8894 H   0  0  0  0  0  0  0  0  0  0  0  0
   -5.7650   19.7431  -31.3196 H   0  0  0  0  0  0  0  0  0  0  0  0
  1  2  1  0
  2  3  1  0
  3  4  1  0
  4  5  1  0
  3  6  1  0
  6  7  1  0
  7  8  1  0
  8  9  1  0
  9 10  2  0
  9 11  1  0
 11 12  1  0
 12 13  1  0
 13 14  1  0
 14 15  1  0
 15 16  2  0
 15 17  1  0
 17 18  2  0
 18 19  1  0
 19 20  2  0
 20 21  1  0
 21 22  1  0
 20 23  1  0
 23 24  2  0
 14 25  1  0
 25 26  1  0
 26 11  1  0
 24 17  1  0
  1 27  1  0
  1 28  1  0
  1 29  1  0
  2 30  1  0
  2 31  1  0
  4 32  1  0
  4 33  1  0
  5 34  1  0
  5 35  1  0
  5 36  1  0
  6 37  1  0
  6 38  1  0
  7 39  1  0
  7 40  1  0
 11 41  1  1
 12 42  1  0
 12 43  1  0
 13 44  1  0
 13 45  1  0
 14 46  1  6
 18 47  1  0
 19 48  1  0
 22 49  1  0
 22 50  1  0
 22 51  1  0
 23 52  1  0
 24 53  1  0
 25 54  1  0
 25 55  1  0
 26 56  1  0
 26 57  1  0
M  CHG  1  14   1
M  END
>  <UniqueID>  (22) 
22

>  <SMILES>  (22) 
CCN(CC)CCOC(=O)C1CC[NH+](C(=O)c2ccc(OC)cc2)CC1

>  <Energy>  (22) 
69.38696756539022

>  <Genealogy>  (22) 
CCN(CC)CCOC(=O)C1CC[NH+](C(=O)c2ccc(OC)cc2)CC1 (protonated)
CCN(CC)CCOC(=O)C1CC[NH+](C(=O)c2ccc(OC)cc2)CC1 (3D coordinates assigned)
CCN(CC)CCOC(=O)C1CC[NH+](C(=O)c2ccc(OC)cc2)CC1 (nonaromatic ring conformer: 69.38696756539022 kcal/mol)

>  <smiles>  (22) 
CCN(CC)CCOC(=O)C1CCN(C(=O)c2ccc(OC)cc2)CC1

>  <score_type>  (22) 
oracle

>  <origin>  (22) 
adg

>  <m_score__min__energy>  (22) 
-8.0199999999999996

>  <m_primary>  (22) 
energy

$$$$
22:0
     RDKit          3D

 37 39  0  0  0  0  0  0  0  0999 V2000
   -0.4920   20.7930  -33.0760 C   0  0  0  0  0  0  0  0  0  0  0  0
   -1.5300   19.9320  -34.2960 S   0  0  0  0  0  0  0  0  0  0  0  0
   -3.0620   20.4000  -33.4850 C   0  0  0  0  0  0  0  0  0  0  0  0
   -3.2130   21.5580  -32.8160 N   0  0  0  0  0  0  0  0  0  0  0  0
   -4.4670   21.5320  -32.3230 C   0  0  0  0  0  0  0  0  0  0  0  0
   -5.0340   22.6010  -31.4700 C   0  0  0  0  0  0  0  0  0  0  0  0
   -5.9510   23.5170  -32.0120 C   0  0  0  0  0  0  0  0  0  0  0  0
   -6.4870   24.5350  -31.2180 C   0  0  0  0  0  0  0  0  0  0  0  0
   -6.1050   24.6530  -29.8780 C   0  0  0  0  0  0  0  0  0  0  0  0
   -5.1820   23.7570  -29.3350 C   0  0  0  0  0  0  0  0  0  0  0  0
   -4.6420   22.7390  -30.1260 C   0  0  0  0  0  0  0  0  0  0  0  0
   -5.0700   20.3400  -32.7150 C   0  0  0  0  0  0  0  0  0  0  0  0
   -6.4660   19.9250  -32.4540 C   0  0  0  0  0  0  0  0  0  0  0  0
   -7.5270   20.8070  -32.7190 C   0  0  0  0  0  0  0  0  0  0  0  0
   -8.8450   20.4200  -32.4590 C   0  0  0  0  0  0  0  0  0  0  0  0
   -9.1120   19.1520  -31.9360 C   0  0  0  0  0  0  0  0  0  0  0  0
   -8.0610   18.2710  -31.6700 C   0  0  0  0  0  0  0  0  0  0  0  0
   -6.7420   18.6540  -31.9260 C   0  0  0  0  0  0  0  0  0  0  0  0
   -4.1810   19.6430  -33.4590 N   0  0  0  0  0  0  0  0  0  0  0  0
   -4.3670   18.3330  -34.0820 C   0  0  0  0  0  0  0  0  0  0  0  0
   -0.8182   20.5224  -32.0609 H   0  0  0  0  0  0  0  0  0  0  0  0
    0.5584   20.4974  -33.2146 H   0  0  0  0  0  0  0  0  0  0  0  0
   -0.5884   21.8800  -33.2146 H   0  0  0  0  0  0  0  0  0  0  0  0
   -2.4900   22.2990  -32.6780 H   0  0  0  0  0  0  0  0  0  0  0  0
   -6.2490   23.4326  -33.0675 H   0  0  0  0  0  0  0  0  0  0  0  0
   -7.2100   25.2440  -31.6477 H   0  0  0  0  0  0  0  0  0  0  0  0
   -6.5313   25.4510  -29.2523 H   0  0  0  0  0  0  0  0  0  0  0  0
   -4.8790   23.8525  -28.2819 H   0  0  0  0  0  0  0  0  0  0  0  0
   -3.9072   22.0426  -29.6957 H   0  0  0  0  0  0  0  0  0  0  0  0
   -7.3200   21.8052  -33.1323 H   0  0  0  0  0  0  0  0  0  0  0  0
   -9.6726   21.1143  -32.6663 H   0  0  0  0  0  0  0  0  0  0  0  0
  -10.1495   18.8476  -31.7338 H   0  0  0  0  0  0  0  0  0  0  0  0
   -8.2724   17.2732  -31.2580 H   0  0  0  0  0  0  0  0  0  0  0  0
   -5.9175   17.9576  -31.7132 H   0  0  0  0  0  0  0  0  0  0  0  0
   -4.4757   17.5672  -33.2999 H   0  0  0  0  0  0  0  0  0  0  0  0
   -5.2718   18.3495  -34.7073 H   0  0  0  0  0  0  0  0  0  0  0  0
   -3.4934   18.0970  -34.7073 H   0  0  0  0  0  0  0  0  0  0  0  0
  1  2  1  0
  2  3  1  0
  3  4  2  0
  4  5  1  0
  5  6  1  0
  6  7  2  0
  7  8  1  0
  8  9  2  0
  9 10  1  0
 10 11  2  0
  5 12  2  0
 12 13  1  0
 13 14  2  0
 14 15  1  0
 15 16  2  0
 16 17  1  0
 17 18  2  0
 12 19  1  0
 19 20  1  0
 19  3  1  0
 11  6  1  0
 18 13  1  0
  1 21  1  0
  1 22  1  0
  1 23  1  0
  4 24  1  0
  7 25  1  0
  8 26  1  0
  9 27  1  0
 10 28  1  0
 11 29  1  0
 14 30  1  0
 15 31  1  0
 16 32  1  0
 17 33  1  0
 18 34  1  0
 20 35  1  0
 20 36  1  0
 20 37  1  0
M  CHG  1   4   1
M  END
>  <UniqueID>  (23) 
23

>  <SMILES>  (23) 
CSc1[nH+]c(-c2ccccc2)c(-c2ccccc2)n1C

>  <Energy>  (23) 
74.65069694247116

>  <Genealogy>  (23) 
CSc1[nH+]c(-c2ccccc2)c(-c2ccccc2)n1C (protonated)
CSc1[nH+]c(-c2ccccc2)c(-c2ccccc2)n1C (3D coordinates assigned)
CSc1[nH+]c(-c2ccccc2)c(-c2ccccc2)n1C (optimized conformer: 74.65069694247116 kcal/mol)

>  <smiles>  (23) 
CSc1nc(-c2ccccc2)c(-c2ccccc2)n1C

>  <score_type>  (23) 
oracle

>  <origin>  (23) 
adg

>  <m_score__min__energy>  (23) 
-6.9000000000000004

>  <m_primary>  (23) 
energy

$$$$
23:0
     RDKit          3D

 47 51  0  0  0  0  0  0  0  0999 V2000
    1.0730   18.6300  -37.6460 C   0  0  0  0  0  0  0  0  0  0  0  0
    0.9120   19.8710  -36.9690 O   0  0  0  0  0  0  0  0  0  0  0  0
    0.2890   20.0160  -35.7200 C   0  0  0  0  0  0  0  0  0  0  0  0
   -0.1880   18.9180  -34.9810 C   0  0  0  0  0  0  0  0  0  0  0  0
   -0.7990   19.1160  -33.7390 C   0  0  0  0  0  0  0  0  0  0  0  0
   -0.9520   20.4120  -33.2180 C   0  0  0  0  0  0  0  0  0  0  0  0
   -1.5650   20.6280  -31.9320 N   0  0  0  0  0  0  0  0  0  0  0  0
   -1.1050   20.1100  -30.8010 N   0  0  0  0  0  0  0  0  0  0  0  0
   -1.9300   20.4550  -29.7930 C   0  0  0  0  0  0  0  0  0  0  0  0
   -1.6060   20.0530  -27.9530 Br  0  0  0  0  0  0  0  0  0  0  0  0
   -2.9410   21.2460  -30.3010 C   0  0  0  0  0  0  0  0  0  0  0  0
   -2.7020   21.3090  -31.6610 C   0  0  0  0  0  0  0  0  0  0  0  0
   -3.4730   21.8160  -32.5720 N   0  0  0  0  0  0  0  0  0  0  0  0
   -4.8640   22.2280  -32.4070 C   0  0  1  0  0  0  0  0  0  0  0  0
   -5.7610   21.0010  -32.3140 C   0  0  0  0  0  0  0  0  0  0  0  0
   -5.3830   19.7220  -32.7810 C   0  0  0  0  0  0  0  0  0  0  0  0
   -6.2700   18.6450  -32.6970 C   0  0  0  0  0  0  0  0  0  0  0  0
   -7.5420   18.8230  -32.1540 C   0  0  0  0  0  0  0  0  0  0  0  0
   -7.9320   20.0810  -31.6920 C   0  0  0  0  0  0  0  0  0  0  0  0
   -7.0490   21.1610  -31.7710 C   0  0  0  0  0  0  0  0  0  0  0  0
   -5.0620   23.2480  -31.3010 C   0  0  0  0  0  0  0  0  0  0  0  0
   -5.8920   24.3560  -31.5730 C   0  0  0  0  0  0  0  0  0  0  0  0
   -6.2170   25.2720  -30.5730 C   0  0  0  0  0  0  0  0  0  0  0  0
   -5.7370   25.0900  -29.2790 C   0  0  0  0  0  0  0  0  0  0  0  0
   -4.9260   23.9960  -28.9860 C   0  0  0  0  0  0  0  0  0  0  0  0
   -4.5680   23.0750  -29.9800 C   0  0  0  0  0  0  0  0  0  0  0  0
   -3.7160   21.9920  -29.5750 N   0  0  0  0  0  0  0  0  0  0  0  0
   -0.4640   21.5020  -33.9530 C   0  0  0  0  0  0  0  0  0  0  0  0
    0.1460   21.3040  -35.1950 C   0  0  0  0  0  0  0  0  0  0  0  0
    1.1780   17.8208  -36.9083 H   0  0  0  0  0  0  0  0  0  0  0  0
    0.1921   18.4393  -38.2766 H   0  0  0  0  0  0  0  0  0  0  0  0
    1.9734   18.6704  -38.2766 H   0  0  0  0  0  0  0  0  0  0  0  0
   -0.0798   17.8994  -35.3820 H   0  0  0  0  0  0  0  0  0  0  0  0
   -1.1626   18.2507  -33.1654 H   0  0  0  0  0  0  0  0  0  0  0  0
   -0.2430   19.5250  -30.7120 H   0  0  0  0  0  0  0  0  0  0  0  0
   -5.1738   22.7805  -33.3064 H   0  0  0  0  0  0  0  0  0  0  0  0
   -4.3829   19.5728  -33.2140 H   0  0  0  0  0  0  0  0  0  0  0  0
   -5.9634   17.6531  -33.0607 H   0  0  0  0  0  0  0  0  0  0  0  0
   -8.2372   17.9730  -32.0898 H   0  0  0  0  0  0  0  0  0  0  0  0
   -8.9359   20.2224  -31.2651 H   0  0  0  0  0  0  0  0  0  0  0  0
   -7.3648   22.1487  -31.4040 H   0  0  0  0  0  0  0  0  0  0  0  0
   -6.2886   24.4994  -32.5889 H   0  0  0  0  0  0  0  0  0  0  0  0
   -6.8528   26.1386  -30.8068 H   0  0  0  0  0  0  0  0  0  0  0  0
   -5.9979   25.8093  -28.4887 H   0  0  0  0  0  0  0  0  0  0  0  0
   -4.5608   23.8527  -27.9583 H   0  0  0  0  0  0  0  0  0  0  0  0
   -0.5620   22.5205  -33.5491 H   0  0  0  0  0  0  0  0  0  0  0  0
    0.5168   22.1691  -35.7644 H   0  0  0  0  0  0  0  0  0  0  0  0
  1  2  1  0
  2  3  1  0
  3  4  2  0
  4  5  1  0
  5  6  2  0
  6  7  1  0
  7  8  1  0
  8  9  2  0
  9 10  1  0
  9 11  1  0
 11 12  1  0
 12 13  2  0
 13 14  1  0
 14 15  1  0
 15 16  2  0
 16 17  1  0
 17 18  2  0
 18 19  1  0
 19 20  2  0
 14 21  1  0
 21 22  2  0
 22 23  1  0
 23 24  2  0
 24 25  1  0
 25 26  2  0
 26 27  1  0
  6 28  1  0
 28 29  2  0
 29  3  1  0
 12  7  1  0
 20 15  1  0
 26 21  1  0
 27 11  2  0
  1 30  1  0
  1 31  1  0
  1 32  1  0
  4 33  1  0
  5 34  1  0
  8 35  1  0
 14 36  1  6
 16 37  1  0
 17 38  1  0
 18 39  1  0
 19 40  1  0
 20 41  1  0
 22 42  1  0
 23 43  1  0
 24 44  1  0
 25 45  1  0
 28 46  1  0
 29 47  1  0
M  CHG  1   8   1
M  END
>  <UniqueID>  (24) 
24

>  <SMILES>  (24) 
COc1ccc(-n2[nH+]c(Br)c3c2=N[C@@H](c2ccccc2)c2ccccc2N=3)cc1

>  <Energy>  (24) 
112.27457909312912

>  <Genealogy>  (24) 
COc1ccc(-n2[nH+]c(Br)c3c2=NC(c2ccccc2)c2ccccc2N=3)cc1 (protonated)
COc1ccc(-n2[nH+]c(Br)c3c2=N[C@@H](c2ccccc2)c2ccccc2N=3)cc1 (chirality)
COc1ccc(-n2[nH+]c(Br)c3c2=N[C@@H](c2ccccc2)c2ccccc2N=3)cc1 (3D coordinates assigned)
COc1ccc(-n2[nH+]c(Br)c3c2=N[C@@H](c2ccccc2)c2ccccc2N=3)cc1 (nonaromatic ring conformer: 112.27457909312912 kcal/mol)

>  <smiles>  (24) 
COc1ccc(-n2nc(Br)c3c2=NC(c2ccccc2)c2ccccc2N=3)cc1

>  <score_type>  (24) 
oracle

>  <origin>  (24) 
adg

>  <m_score__min__energy>  (24) 
-8.4199999999999999

>  <m_primary>  (24) 
energy

$$$$
24:0
     RDKit          3D

 31 32  0  0  0  0  0  0  0  0999 V2000
   -8.4390   18.6080  -32.2840 C   0  0  0  0  0  0  0  0  0  0  0  0
   -7.1830   18.7830  -33.0360 N   0  0  0  0  0  0  0  0  0  0  0  0
   -6.6940   17.4660  -33.4890 C   0  0  0  0  0  0  0  0  0  0  0  0
   -6.1830   19.4780  -32.1910 C   0  0  0  0  0  0  0  0  0  0  0  0
   -5.7300   20.8170  -32.7970 C   0  0  0  0  0  0  0  0  0  0  0  0
   -6.4880   21.9550  -32.1810 C   0  0  0  0  0  0  0  0  0  0  0  0
   -7.8710   22.0960  -32.1200 C   0  0  0  0  0  0  0  0  0  0  0  0
   -8.2010   23.2080  -31.4250 N   0  0  0  0  0  0  0  0  0  0  0  0
   -7.0390   23.7620  -31.0350 C   0  0  0  0  0  0  0  0  0  0  0  0
   -6.8680   24.9170  -30.2730 C   0  0  0  0  0  0  0  0  0  0  0  0
   -5.5530   25.3080  -29.9600 C   0  0  0  0  0  0  0  0  0  0  0  0
   -4.4520   24.5430  -30.4070 C   0  0  0  0  0  0  0  0  0  0  0  0
   -3.1910   24.9300  -30.0940 F   0  0  0  0  0  0  0  0  0  0  0  0
   -4.6570   23.3810  -31.1730 C   0  0  0  0  0  0  0  0  0  0  0  0
   -5.9710   23.0220  -31.4720 C   0  0  0  0  0  0  0  0  0  0  0  0
   -8.2274   18.6375  -31.2049 H   0  0  0  0  0  0  0  0  0  0  0  0
   -9.1373   19.4175  -32.5430 H   0  0  0  0  0  0  0  0  0  0  0  0
   -8.8894   17.6384  -32.5430 H   0  0  0  0  0  0  0  0  0  0  0  0
   -7.3970   19.3690  -33.8790 H   0  0  0  0  0  0  0  0  0  0  0  0
   -6.4617   16.8405  -32.6145 H   0  0  0  0  0  0  0  0  0  0  0  0
   -7.4699   16.9754  -34.0950 H   0  0  0  0  0  0  0  0  0  0  0  0
   -5.7859   17.6007  -34.0950 H   0  0  0  0  0  0  0  0  0  0  0  0
   -6.6278   19.6700  -31.2034 H   0  0  0  0  0  0  0  0  0  0  0  0
   -5.2986   18.8282  -32.1162 H   0  0  0  0  0  0  0  0  0  0  0  0
   -4.6549   20.9542  -32.6091 H   0  0  0  0  0  0  0  0  0  0  0  0
   -5.9268   20.8026  -33.8792 H   0  0  0  0  0  0  0  0  0  0  0  0
   -8.5935   21.4012  -32.5730 H   0  0  0  0  0  0  0  0  0  0  0  0
   -9.1650   23.5550  -31.2220 H   0  0  0  0  0  0  0  0  0  0  0  0
   -7.7325   25.5032  -29.9279 H   0  0  0  0  0  0  0  0  0  0  0  0
   -5.3807   26.2157  -29.3630 H   0  0  0  0  0  0  0  0  0  0  0  0
   -3.8087   22.7754  -31.5246 H   0  0  0  0  0  0  0  0  0  0  0  0
  1  2  1  0
  2  3  1  0
  2  4  1  0
  4  5  1  0
  5  6  1  0
  6  7  2  0
  7  8  1  0
  8  9  1  0
  9 10  2  0
 10 11  1  0
 11 12  2  0
 12 13  1  0
 12 14  1  0
 14 15  2  0
 15  6  1  0
 15  9  1  0
  1 16  1  0
  1 17  1  0
  1 18  1  0
  2 19  1  0
  3 20  1  0
  3 21  1  0
  3 22  1  0
  4 23  1  0
  4 24  1  0
  5 25  1  0
  5 26  1  0
  7 27  1  0
  8 28  1  0
 10 29  1  0
 11 30  1  0
 14 31  1  0
M  CHG  1   2   1
M  END
>  <UniqueID>  (25) 
25

>  <SMILES>  (25) 
C[NH+](C)CCc1c[nH]c2ccc(F)cc12

>  <Energy>  (25) 
61.893918674346786

>  <Genealogy>  (25) 
C[NH+](C)CCc1c[nH]c2ccc(F)cc12 (protonated)
C[NH+](C)CCc1c[nH]c2ccc(F)cc12 (3D coordinates assigned)
C[NH+](C)CCc1c[nH]c2ccc(F)cc12 (optimized conformer: 61.893918674346786 kcal/mol)

>  <smiles>  (25) 
CN(C)CCc1c[nH]c2ccc(F)cc12

>  <score_type>  (25) 
oracle

>  <origin>  (25) 
adg

>  <m_score__min__energy>  (25) 
-5.2300000000000004

>  <m_primary>  (25) 
energy

$$$$
25:0
     RDKit          3D

 36 38  0  0  0  0  0  0  0  0999 V2000
   -2.0330   25.2900  -29.3430 O   0  0  0  0  0  0  0  0  0  0  0  0
   -2.0780   24.0610  -29.0680 C   0  0  0  0  0  0  0  0  0  0  0  0
   -1.9170   23.6640  -27.7470 O   0  0  0  0  0  0  0  0  0  0  0  0
   -2.3460   23.0670  -30.1380 C   0  0  0  0  0  0  0  0  0  0  0  0
   -1.4310   22.0120  -30.3230 C   0  0  0  0  0  0  0  0  0  0  0  0
   -1.6090   21.0820  -31.3500 C   0  0  0  0  0  0  0  0  0  0  0  0
   -2.7040   21.1870  -32.2050 C   0  0  0  0  0  0  0  0  0  0  0  0
   -3.6280   22.2160  -32.0330 C   0  0  0  0  0  0  0  0  0  0  0  0
   -3.4640   23.1630  -31.0080 C   0  0  0  0  0  0  0  0  0  0  0  0
   -4.5310   24.1660  -30.8060 C   0  0  0  0  0  0  0  0  0  0  0  0
   -4.3170   25.4550  -30.7250 O   0  0  0  0  0  0  0  0  0  0  0  0
   -5.4750   26.0280  -30.4830 C   0  0  0  0  0  0  0  0  0  0  0  0
   -6.4870   25.1380  -30.4000 N   0  0  0  0  0  0  0  0  0  0  0  0
   -5.8860   23.9520  -30.6130 C   0  0  0  0  0  0  0  0  0  0  0  0
   -6.6170   22.6770  -30.6770 C   0  0  0  0  0  0  0  0  0  0  0  0
   -5.9880   21.5950  -30.5420 O   0  0  0  0  0  0  0  0  0  0  0  0
   -8.0380   22.6680  -30.8490 N   0  0  0  0  0  0  0  0  0  0  0  0
   -8.7110   22.0550  -31.9880 C   0  0  0  0  0  0  0  0  0  0  0  0
   -8.1510   20.6830  -32.2340 C   0  0  0  0  0  0  0  0  0  0  0  0
   -8.7590   19.5610  -31.6460 C   0  0  0  0  0  0  0  0  0  0  0  0
   -8.2770   18.2770  -31.9120 C   0  0  0  0  0  0  0  0  0  0  0  0
   -7.1860   18.1020  -32.7700 C   0  0  0  0  0  0  0  0  0  0  0  0
   -6.5800   19.2130  -33.3650 C   0  0  0  0  0  0  0  0  0  0  0  0
   -7.0620   20.4990  -33.1030 C   0  0  0  0  0  0  0  0  0  0  0  0
   -0.5656   21.9194  -29.6504 H   0  0  0  0  0  0  0  0  0  0  0  0
   -0.8838   20.2658  -31.4838 H   0  0  0  0  0  0  0  0  0  0  0  0
   -2.8394   20.4570  -33.0166 H   0  0  0  0  0  0  0  0  0  0  0  0
   -4.4947   22.2876  -32.7066 H   0  0  0  0  0  0  0  0  0  0  0  0
   -5.6053   27.1135  -30.3614 H   0  0  0  0  0  0  0  0  0  0  0  0
   -9.7878   21.9772  -31.7770 H   0  0  0  0  0  0  0  0  0  0  0  0
   -8.5515   22.6771  -32.8811 H   0  0  0  0  0  0  0  0  0  0  0  0
   -9.6188   19.6943  -30.9729 H   0  0  0  0  0  0  0  0  0  0  0  0
   -8.7557   17.4029  -31.4464 H   0  0  0  0  0  0  0  0  0  0  0  0
   -6.8050   17.0910  -32.9765 H   0  0  0  0  0  0  0  0  0  0  0  0
   -5.7227   19.0749  -34.0403 H   0  0  0  0  0  0  0  0  0  0  0  0
   -6.5872   21.3698  -33.5787 H   0  0  0  0  0  0  0  0  0  0  0  0
  1  2  2  0
  2  3  1  0
  2  4  1  0
  4  5  2  0
  5  6  1  0
  6  7  2  0
  7  8  1  0
  8  9  2  0
  9 10  1  0
 10 11  1  0
 11 12  1  0
 12 13  2  0
 13 14  1  0
 14 15  1  0
 15 16  2  0
 15 17  1  0
 17 18  1  0
 18 19  1  0
 19 20  2  0
 20 21  1  0
 21 22  2  0
 22 23  1  0
 23 24  2  0
  9  4  1  0
 14 10  2  0
 24 19  1  0
  5 25  1  0
  6 26  1  0
  7 27  1  0
  8 28  1  0
 12 29  1  0
 18 30  1  0
 18 31  1  0
 20 32  1  0
 21 33  1  0
 22 34  1  0
 23 35  1  0
 24 36  1  0
M  CHG  2   3  -1  17  -1
M  END
>  <UniqueID>  (26) 
26

>  <SMILES>  (26) 
O=C([O-])c1ccccc1-c1ocnc1C(=O)[N-]Cc1ccccc1

>  <Energy>  (26) 
74.92040509976312

>  <Genealogy>  (26) 
O=C([O-])c1ccccc1-c1ocnc1C(=O)[N-]Cc1ccccc1 (protonated)
O=C([O-])c1ccccc1-c1ocnc1C(=O)[N-]Cc1ccccc1 (3D coordinates assigned)
O=C([O-])c1ccccc1-c1ocnc1C(=O)[N-]Cc1ccccc1 (optimized conformer: 74.92040509976312 kcal/mol)

>  <smiles>  (26) 
O=C(O)c1ccccc1-c1ocnc1C(=O)NCc1ccccc1

>  <score_type>  (26) 
oracle

>  <origin>  (26) 
adg

>  <m_score__min__energy>  (26) 
-10.1

>  <m_primary>  (26) 
energy

$$$$
26:0
     RDKit          3D

 52 54  0  0  0  0  0  0  0  0999 V2000
   -1.2180   19.1640  -34.2350 C   0  0  0  0  0  0  0  0  0  0  0  0
   -1.2880   20.5400  -33.5600 C   0  0  0  0  0  0  0  0  0  0  0  0
   -2.3710   20.6620  -32.5620 N   0  0  0  0  0  0  0  0  0  0  0  0
   -1.9050   21.0590  -31.2100 C   0  0  0  0  0  0  0  0  0  0  0  0
   -2.5530   22.3620  -30.7230 C   0  0  0  0  0  0  0  0  0  0  0  0
   -4.0350   22.2790  -30.7460 N   0  0  0  0  0  0  0  0  0  0  0  0
   -4.6060   23.6140  -30.6580 C   0  0  0  0  0  0  0  0  0  0  0  0
   -3.8860   24.5880  -30.8290 O   0  0  0  0  0  0  0  0  0  0  0  0
   -6.0930   23.8380  -30.4270 C   0  0  0  0  0  0  0  0  0  0  0  0
   -6.7590   22.7020  -29.5980 C   0  0  0  0  0  0  0  0  0  0  0  0
   -8.0300   22.1350  -30.2410 C   0  0  0  0  0  0  0  0  0  0  0  0
   -7.8040   21.8700  -31.6650 N   0  0  0  0  0  0  0  0  0  0  0  0
   -8.3380   20.6840  -32.2630 C   0  0  0  0  0  0  0  0  0  0  0  0
   -9.5850   20.5250  -32.3300 O   0  0  0  0  0  0  0  0  0  0  0  0
   -7.4330   19.6140  -32.7170 C   0  0  0  0  0  0  0  0  0  0  0  0
   -7.4030   18.3860  -32.0390 C   0  0  0  0  0  0  0  0  0  0  0  0
   -6.5600   17.3580  -32.4780 C   0  0  0  0  0  0  0  0  0  0  0  0
   -5.7260   17.5600  -33.5840 C   0  0  0  0  0  0  0  0  0  0  0  0
   -4.5780   16.1540  -34.1830 Br  0  0  0  0  0  0  0  0  0  0  0  0
   -5.7400   18.7860  -34.2570 C   0  0  0  0  0  0  0  0  0  0  0  0
   -6.5820   19.8170  -33.8200 C   0  0  0  0  0  0  0  0  0  0  0  0
   -7.2220   22.8980  -32.5380 C   0  0  0  0  0  0  0  0  0  0  0  0
   -6.8270   24.1560  -31.7520 C   0  0  0  0  0  0  0  0  0  0  0  0
   -4.5790   21.5500  -31.9270 C   0  0  0  0  0  0  0  0  0  0  0  0
   -3.5490   21.4040  -33.0550 C   0  0  0  0  0  0  0  0  0  0  0  0
   -1.1781   18.3795  -33.4650 H   0  0  0  0  0  0  0  0  0  0  0  0
   -2.1098   19.0174  -34.8620 H   0  0  0  0  0  0  0  0  0  0  0  0
   -0.3159   19.1086  -34.8620 H   0  0  0  0  0  0  0  0  0  0  0  0
   -0.3288   20.7275  -33.0552 H   0  0  0  0  0  0  0  0  0  0  0  0
   -1.4986   21.2741  -34.3517 H   0  0  0  0  0  0  0  0  0  0  0  0
   -2.1536   20.2553  -30.5013 H   0  0  0  0  0  0  0  0  0  0  0  0
   -0.8194   21.2271  -31.2672 H   0  0  0  0  0  0  0  0  0  0  0  0
   -2.2229   22.5612  -29.6928 H   0  0  0  0  0  0  0  0  0  0  0  0
   -2.2440   23.1728  -31.3991 H   0  0  0  0  0  0  0  0  0  0  0  0
   -4.3210   21.7380  -29.9020 H   0  0  0  0  0  0  0  0  0  0  0  0
   -6.1930   24.7324  -29.7944 H   0  0  0  0  0  0  0  0  0  0  0  0
   -6.0328   21.8838  -29.4836 H   0  0  0  0  0  0  0  0  0  0  0  0
   -7.0540   23.1387  -28.6325 H   0  0  0  0  0  0  0  0  0  0  0  0
   -8.3048   21.1970  -29.7363 H   0  0  0  0  0  0  0  0  0  0  0  0
   -8.8421   22.8698  -30.1379 H   0  0  0  0  0  0  0  0  0  0  0  0
   -8.0444   18.2303  -31.1590 H   0  0  0  0  0  0  0  0  0  0  0  0
   -6.5530   16.3911  -31.9536 H   0  0  0  0  0  0  0  0  0  0  0  0
   -5.0893   18.9409  -35.1303 H   0  0  0  0  0  0  0  0  0  0  0  0
   -6.5782   20.7866  -34.3395 H   0  0  0  0  0  0  0  0  0  0  0  0
   -6.3256   22.4861  -33.0247 H   0  0  0  0  0  0  0  0  0  0  0  0
   -7.9799   23.1837  -33.2823 H   0  0  0  0  0  0  0  0  0  0  0  0
   -6.1643   24.7683  -32.3812 H   0  0  0  0  0  0  0  0  0  0  0  0
   -7.7553   24.6866  -31.4938 H   0  0  0  0  0  0  0  0  0  0  0  0
   -4.8955   20.5464  -31.6066 H   0  0  0  0  0  0  0  0  0  0  0  0
   -5.4235   22.1350  -32.3201 H   0  0  0  0  0  0  0  0  0  0  0  0
   -4.0015   20.8554  -33.8943 H   0  0  0  0  0  0  0  0  0  0  0  0
   -3.2348   22.4028  -33.3923 H   0  0  0  0  0  0  0  0  0  0  0  0
  1  2  1  0
  2  3  1  0
  3  4  1  0
  4  5  1  0
  5  6  1  0
  6  7  1  0
  7  8  2  0
  7  9  1  0
  9 10  1  0
 10 11  1  0
 11 12  1  0
 12 13  1  0
 13 14  2  0
 13 15  1  0
 15 16  2  0
 16 17  1  0
 17 18  2  0
 18 19  1  0
 18 20  1  0
 20 21  2  0
 12 22  1  0
 22 23  1  0
  6 24  1  0
 24 25  1  0
 25  3  1  0
 23  9  1  0
 21 15  1  0
  1 26  1  0
  1 27  1  0
  1 28  1  0
  2 29  1  0
  2 30  1  0
  4 31  1  0
  4 32  1  0
  5 33  1  0
  5 34  1  0
  6 35  1  0
  9 36  1  0
 10 37  1  0
 10 38  1  0
 11 39  1  0
 11 40  1  0
 16 41  1  0
 17 42  1  0
 20 43  1  0
 21 44  1  0
 22 45  1  0
 22 46  1  0
 23 47  1  0
 23 48  1  0
 24 49  1  0
 24 50  1  0
 25 51  1  0
 25 52  1  0
M  CHG  1   6   1
M  END
>  <UniqueID>  (27) 
27

>  <SMILES>  (27) 
CCN1CC[NH+](C(=O)C2CCN(C(=O)c3ccc(Br)cc3)CC2)CC1

>  <Energy>  (27) 
75.19942989366184

>  <Genealogy>  (27) 
CCN1CC[NH+](C(=O)C2CCN(C(=O)c3ccc(Br)cc3)CC2)CC1 (protonated)
CCN1CC[NH+](C(=O)C2CCN(C(=O)c3ccc(Br)cc3)CC2)CC1 (3D coordinates assigned)
CCN1CC[NH+](C(=O)C2CCN(C(=O)c3ccc(Br)cc3)CC2)CC1 (nonaromatic ring conformer: 75.19942989366184 kcal/mol)

>  <smiles>  (27) 
CCN1CCN(C(=O)C2CCN(C(=O)c3ccc(Br)cc3)CC2)CC1

>  <score_type>  (27) 
oracle

>  <origin>  (27) 
adg

>  <m_score__min__energy>  (27) 
-8.5399999999999991

>  <m_primary>  (27) 
energy

$$$$
27:0
     RDKit          3D

 48 51  0  0  1  0  0  0  0  0999 V2000
   -5.1780   18.1110  -34.7650 C   0  0  0  0  0  0  0  0  0  0  0  0
   -6.3920   17.8300  -33.9820 C   0  0  0  0  0  0  0  0  0  0  0  0
   -6.9780   16.7010  -33.9870 O   0  0  0  0  0  0  0  0  0  0  0  0
   -6.9290   18.8770  -33.1870 N   0  0  0  0  0  0  0  0  0  0  0  0
   -6.3370   20.2050  -33.1090 C   0  0  0  0  0  0  0  0  0  0  0  0
   -6.3290   20.5110  -31.6270 C   0  0  0  0  0  0  0  0  0  0  0  0
   -7.7320   20.9180  -31.2440 C   0  0  0  0  0  0  0  0  0  0  0  0
   -7.8830   22.3830  -31.5710 C   0  0  0  0  0  0  0  0  0  0  0  0
   -7.5370   23.2450  -30.4740 N   0  0  0  0  0  0  0  0  0  0  0  0
   -6.3650   23.7110  -30.3060 C   0  0  0  0  0  0  0  0  0  0  0  0
   -5.9630   24.8920  -30.8840 C   0  0  0  0  0  0  0  0  0  0  0  0
   -4.6760   25.3250  -30.6500 C   0  0  0  0  0  0  0  0  0  0  0  0
   -3.8280   24.6000  -29.8670 N   0  0  0  0  0  0  0  0  0  0  0  0
   -2.5570   24.8230  -29.5100 N   0  0  0  0  0  0  0  0  0  0  0  0
   -2.1580   23.8080  -28.7230 C   0  0  0  0  0  0  0  0  0  0  0  0
   -0.8270   23.7100  -28.1410 C   0  0  0  0  0  0  0  0  0  0  0  0
   -0.3880   22.6920  -27.3190 C   0  0  0  0  0  0  0  0  0  0  0  0
    0.8850   22.9320  -26.9740 N   0  0  0  0  0  0  0  0  0  0  0  0
    1.2150   24.0930  -27.5870 C   0  0  0  0  0  0  0  0  0  0  0  0
    2.5280   24.8120  -27.5320 C   0  0  0  0  0  0  0  0  0  0  0  0
    0.1820   24.5420  -28.2780 O   0  0  0  0  0  0  0  0  0  0  0  0
   -3.1930   22.9090  -28.5670 C   0  0  0  0  0  0  0  0  0  0  0  0
   -4.2390   23.4310  -29.3010 C   0  0  0  0  0  0  0  0  0  0  0  0
   -5.5010   23.0320  -29.5460 N   0  0  0  0  0  0  0  0  0  0  0  0
   -8.7070   20.0610  -32.0000 C   0  0  0  0  0  0  0  0  0  0  0  0
   -8.1410   18.6890  -32.3700 C   0  0  0  0  0  0  0  0  0  0  0  0
   -4.3380   18.3054  -34.0820 H   0  0  0  0  0  0  0  0  0  0  0  0
   -4.9418   17.2438  -35.3991 H   0  0  0  0  0  0  0  0  0  0  0  0
   -5.3469   18.9938  -35.3991 H   0  0  0  0  0  0  0  0  0  0  0  0
   -5.3143   20.2024  -33.5140 H   0  0  0  0  0  0  0  0  0  0  0  0
   -6.8919   20.9528  -33.6945 H   0  0  0  0  0  0  0  0  0  0  0  0
   -6.0283   19.6177  -31.0600 H   0  0  0  0  0  0  0  0  0  0  0  0
   -5.6146   21.3160  -31.3998 H   0  0  0  0  0  0  0  0  0  0  0  0
   -7.9301   20.7736  -30.1717 H   0  0  0  0  0  0  0  0  0  0  0  0
   -7.2287   22.6207  -32.4227 H   0  0  0  0  0  0  0  0  0  0  0  0
   -8.9435   22.5590  -31.8041 H   0  0  0  0  0  0  0  0  0  0  0  0
   -6.6496   25.4749  -31.5156 H   0  0  0  0  0  0  0  0  0  0  0  0
   -4.3289   26.2667  -31.1003 H   0  0  0  0  0  0  0  0  0  0  0  0
   -2.0130   25.6710  -29.8250 H   0  0  0  0  0  0  0  0  0  0  0  0
   -0.9851   21.8253  -26.9992 H   0  0  0  0  0  0  0  0  0  0  0  0
    2.8160   24.9697  -26.4821 H   0  0  0  0  0  0  0  0  0  0  0  0
    3.2975   24.2094  -28.0367 H   0  0  0  0  0  0  0  0  0  0  0  0
    2.4347   25.7849  -28.0367 H   0  0  0  0  0  0  0  0  0  0  0  0
   -3.1861   21.9767  -27.9832 H   0  0  0  0  0  0  0  0  0  0  0  0
   -9.6007   19.9139  -31.3758 H   0  0  0  0  0  0  0  0  0  0  0  0
   -8.9413   20.5827  -32.9397 H   0  0  0  0  0  0  0  0  0  0  0  0
   -7.8867   18.1353  -31.4542 H   0  0  0  0  0  0  0  0  0  0  0  0
   -8.8894   18.1184  -32.9394 H   0  0  0  0  0  0  0  0  0  0  0  0
  1  2  1  0
  2  3  2  0
  2  4  1  0
  4  5  1  0
  5  6  1  0
  6  7  1  0
  7  8  1  0
  8  9  1  0
  9 10  2  0
 10 11  1  0
 11 12  2  0
 12 13  1  0
 13 14  1  0
 14 15  1  0
 15 16  1  0
 16 17  2  0
 17 18  1  0
 18 19  2  0
 19 20  1  0
 19 21  1  0
 15 22  2  0
 22 23  1  0
 23 24  2  0
  7 25  1  0
 25 26  1  0
 26  4  1  0
 24 10  1  0
 23 13  1  0
 21 16  1  0
  1 27  1  0
  1 28  1  0
  1 29  1  0
  5 30  1  0
  5 31  1  0
  6 32  1  0
  6 33  1  0
  7 34  1  0
  8 35  1  0
  8 36  1  0
 11 37  1  0
 12 38  1  0
 14 39  1  0
 17 40  1  0
 20 41  1  0
 20 42  1  0
 20 43  1  0
 22 44  1  0
 25 45  1  0
 25 46  1  0
 26 47  1  0
 26 48  1  0
M  END
>  <smiles>  (28) 
CC(=O)N1CCC(CN=c2ccn3[nH]c(-c4cnc(C)o4)cc3n2)CC1

>  <score_type>  (28) 
oracle

>  <origin>  (28) 
adg

>  <m_score__min__energy>  (28) 
-9.4199999999999999

>  <m_primary>  (28) 
energy

$$$$
28:0
     RDKit          3D

 46 47  0  0  0  0  0  0  0  0999 V2000
   -2.5340   19.8280  -27.0910 C   0  0  0  0  0  0  0  0  0  0  0  0
   -1.8000   20.9870  -27.4720 O   0  0  0  0  0  0  0  0  0  0  0  0
   -2.3380   22.0580  -28.2020 C   0  0  0  0  0  0  0  0  0  0  0  0
   -3.0500   23.1060  -27.5910 C   0  0  0  0  0  0  0  0  0  0  0  0
   -3.5590   24.1550  -28.3630 C   0  0  0  0  0  0  0  0  0  0  0  0
   -3.3590   24.1840  -29.7470 C   0  0  0  0  0  0  0  0  0  0  0  0
   -3.8760   25.2710  -30.4670 O   0  0  0  0  0  0  0  0  0  0  0  0
   -5.2570   25.6260  -30.5550 C   0  0  0  0  0  0  0  0  0  0  0  0
   -6.0690   24.5470  -31.2890 C   0  0  0  0  0  0  0  0  0  0  0  0
   -6.2100   23.2470  -30.4790 C   0  0  0  0  0  0  0  0  0  0  0  0
   -6.9960   22.1820  -31.2210 C   0  0  0  0  0  0  0  0  0  0  0  0
   -8.3500   21.9950  -30.8870 C   0  0  0  0  0  0  0  0  0  0  0  0
   -9.1340   21.0710  -31.5800 C   0  0  0  0  0  0  0  0  0  0  0  0
   -8.5800   20.3200  -32.6140 C   0  0  0  0  0  0  0  0  0  0  0  0
   -7.2370   20.4850  -32.9570 C   0  0  0  0  0  0  0  0  0  0  0  0
   -6.4320   21.4140  -32.2760 C   0  0  0  0  0  0  0  0  0  0  0  0
   -5.0060   21.5290  -32.6670 C   0  0  0  0  0  0  0  0  0  0  0  0
   -4.5600   22.6590  -33.0040 O   0  0  0  0  0  0  0  0  0  0  0  0
   -4.1090   20.3970  -32.6200 N   0  0  0  0  0  0  0  0  0  0  0  0
   -4.5980   19.0250  -32.4570 C   0  0  0  0  0  0  0  0  0  0  0  0
   -2.6650   20.6290  -32.6700 C   0  0  0  0  0  0  0  0  0  0  0  0
   -2.6530   23.1300  -30.3590 C   0  0  0  0  0  0  0  0  0  0  0  0
   -2.1520   22.0760  -29.5880 C   0  0  0  0  0  0  0  0  0  0  0  0
   -2.5745   19.7640  -25.9936 H   0  0  0  0  0  0  0  0  0  0  0  0
   -3.5560   19.8928  -27.4925 H   0  0  0  0  0  0  0  0  0  0  0  0
   -2.0385   18.9318  -27.4925 H   0  0  0  0  0  0  0  0  0  0  0  0
   -3.2069   23.1004  -26.5023 H   0  0  0  0  0  0  0  0  0  0  0  0
   -4.1222   24.9653  -27.8770 H   0  0  0  0  0  0  0  0  0  0  0  0
   -5.6604   25.7479  -29.5389 H   0  0  0  0  0  0  0  0  0  0  0  0
   -5.3371   26.5648  -31.1227 H   0  0  0  0  0  0  0  0  0  0  0  0
   -7.0745   24.9434  -31.4937 H   0  0  0  0  0  0  0  0  0  0  0  0
   -5.5286   24.3011  -32.2150 H   0  0  0  0  0  0  0  0  0  0  0  0
   -5.2050   22.8562  -30.2614 H   0  0  0  0  0  0  0  0  0  0  0  0
   -6.7596   23.4860  -29.5566 H   0  0  0  0  0  0  0  0  0  0  0  0
   -8.7955   22.5832  -30.0711 H   0  0  0  0  0  0  0  0  0  0  0  0
  -10.1915   20.9357  -31.3089 H   0  0  0  0  0  0  0  0  0  0  0  0
   -9.2016   19.5959  -33.1610 H   0  0  0  0  0  0  0  0  0  0  0  0
   -6.8044   19.8817  -33.7687 H   0  0  0  0  0  0  0  0  0  0  0  0
   -4.6816   18.7904  -31.3856 H   0  0  0  0  0  0  0  0  0  0  0  0
   -5.5857   18.9290  -32.9316 H   0  0  0  0  0  0  0  0  0  0  0  0
   -3.8937   18.3259  -32.9316 H   0  0  0  0  0  0  0  0  0  0  0  0
   -2.2682   20.6928  -31.6460 H   0  0  0  0  0  0  0  0  0  0  0  0
   -2.1782   19.7975  -33.2008 H   0  0  0  0  0  0  0  0  0  0  0  0
   -2.4632   21.5711  -33.2008 H   0  0  0  0  0  0  0  0  0  0  0  0
   -2.4950   23.1358  -31.4476 H   0  0  0  0  0  0  0  0  0  0  0  0
   -1.6071   21.2544  -30.0759 H   0  0  0  0  0  0  0  0  0  0  0  0
  1  2  1  0
  2  3  1  0
  3  4  2  0
  4  5  1  0
  5  6  2  0
  6  7  1  0
  7  8  1  0
  8  9  1  0
  9 10  1  0
 10 11  1  0
 11 12  2  0
 12 13  1  0
 13 14  2  0
 14 15  1  0
 15 16  2  0
 16 17  1  0
 17 18  2  0
 17 19  1  0
 19 20  1  0
 19 21  1  0
  6 22  1  0
 22 23  2  0
 23  3  1  0
 16 11  1  0
  1 24  1  0
  1 25  1  0
  1 26  1  0
  4 27  1  0
  5 28  1  0
  8 29  1  0
  8 30  1  0
  9 31  1  0
  9 32  1  0
 10 33  1  0
 10 34  1  0
 12 35  1  0
 13 36  1  0
 14 37  1  0
 15 38  1  0
 20 39  1  0
 20 40  1  0
 20 41  1  0
 21 42  1  0
 21 43  1  0
 21 44  1  0
 22 45  1  0
 23 46  1  0
M  END
>  <UniqueID>  (29) 
28

>  <SMILES>  (29) 
COc1ccc(OCCCc2ccccc2C(=O)N(C)C)cc1

>  <Energy>  (29) 
43.85379726706956

>  <Genealogy>  (29) 
COc1ccc(OCCCc2ccccc2C(=O)N(C)C)cc1 (3D coordinates assigned)
COc1ccc(OCCCc2ccccc2C(=O)N(C)C)cc1 (optimized conformer: 43.85379726706956 kcal/mol)

>  <smiles>  (29) 
COc1ccc(OCCCc2ccccc2C(=O)N(C)C)cc1

>  <score_type>  (29) 
oracle

>  <origin>  (29) 
adg

>  <m_score__min__energy>  (29) 
-8.0999999999999996

>  <m_primary>  (29) 
energy

$$$$
29:0
     RDKit          3D

 41 43  0  0  0  0  0  0  0  0999 V2000
   -4.6680   23.4150  -30.8410 C   0  0  0  0  0  0  0  0  0  0  0  0
   -5.7690   24.1290  -31.1140 C   0  0  0  0  0  0  0  0  0  0  0  0
   -6.1390   25.2850  -30.2230 C   0  0  0  0  0  0  0  0  0  0  0  0
   -6.6190   23.7930  -32.3180 C   0  0  0  0  0  0  0  0  0  0  0  0
   -7.3580   22.5460  -32.0920 N   0  0  0  0  0  0  0  0  0  0  0  0
   -8.7410   22.6130  -31.5890 C   0  0  0  0  0  0  0  0  0  0  0  0
   -9.1450   21.3100  -30.8720 C   0  0  0  0  0  0  0  0  0  0  0  0
   -8.9340   20.0870  -31.7790 C   0  0  0  0  0  0  0  0  0  0  0  0
   -7.6070   20.1440  -32.3820 N   0  0  0  0  0  0  0  0  0  0  0  0
   -6.8840   21.2710  -32.5630 C   0  0  0  0  0  0  0  0  0  0  0  0
   -5.7130   21.0500  -33.2150 N   0  0  0  0  0  0  0  0  0  0  0  0
   -5.7360   19.7270  -33.4670 C   0  0  0  0  0  0  0  0  0  0  0  0
   -4.7870   18.9660  -34.1410 C   0  0  0  0  0  0  0  0  0  0  0  0
   -5.0350   17.5840  -34.3070 C   0  0  0  0  0  0  0  0  0  0  0  0
   -4.0220   16.7420  -35.0360 C   0  0  0  0  0  0  0  0  0  0  0  0
   -6.2430   17.0100  -33.7970 C   0  0  0  0  0  0  0  0  0  0  0  0
   -6.5360   15.5430  -33.9640 C   0  0  0  0  0  0  0  0  0  0  0  0
   -7.1790   17.8240  -33.1180 C   0  0  0  0  0  0  0  0  0  0  0  0
   -6.8840   19.1770  -32.9720 C   0  0  0  0  0  0  0  0  0  0  0  0
   -4.3878   22.5683  -31.4849 H   0  0  0  0  0  0  0  0  0  0  0  0
   -4.0446   23.6757  -29.9730 H   0  0  0  0  0  0  0  0  0  0  0  0
   -6.0420   24.9820  -29.1700 H   0  0  0  0  0  0  0  0  0  0  0  0
   -5.4672   26.1325  -30.4240 H   0  0  0  0  0  0  0  0  0  0  0  0
   -7.1780   25.5850  -30.4240 H   0  0  0  0  0  0  0  0  0  0  0  0
   -7.3334   24.6102  -32.4964 H   0  0  0  0  0  0  0  0  0  0  0  0
   -5.9637   23.6653  -33.1922 H   0  0  0  0  0  0  0  0  0  0  0  0
   -8.8237   23.4509  -30.8811 H   0  0  0  0  0  0  0  0  0  0  0  0
   -9.4137   22.7575  -32.4472 H   0  0  0  0  0  0  0  0  0  0  0  0
   -8.5322   21.1945  -29.9658 H   0  0  0  0  0  0  0  0  0  0  0  0
  -10.2125   21.3716  -30.6137 H   0  0  0  0  0  0  0  0  0  0  0  0
   -9.0244   19.1684  -31.1807 H   0  0  0  0  0  0  0  0  0  0  0  0
   -9.6949   20.0875  -32.5733 H   0  0  0  0  0  0  0  0  0  0  0  0
   -4.9670   21.7270  -33.4850 H   0  0  0  0  0  0  0  0  0  0  0  0
   -3.8687   19.4266  -34.5341 H   0  0  0  0  0  0  0  0  0  0  0  0
   -3.3891   16.2159  -34.3061 H   0  0  0  0  0  0  0  0  0  0  0  0
   -4.5425   16.0067  -35.6672 H   0  0  0  0  0  0  0  0  0  0  0  0
   -3.3943   17.3881  -35.6672 H   0  0  0  0  0  0  0  0  0  0  0  0
   -6.6299   15.0728  -32.9740 H   0  0  0  0  0  0  0  0  0  0  0  0
   -7.4769   15.4180  -34.5200 H   0  0  0  0  0  0  0  0  0  0  0  0
   -5.7154   15.0662  -34.5200 H   0  0  0  0  0  0  0  0  0  0  0  0
   -8.1120   17.4011  -32.7172 H   0  0  0  0  0  0  0  0  0  0  0  0
  1  2  2  0
  2  3  1  0
  2  4  1  0
  4  5  1  0
  5  6  1  0
  6  7  1  0
  7  8  1  0
  8  9  1  0
  9 10  1  0
 10 11  2  0
 11 12  1  0
 12 13  2  0
 13 14  1  0
 14 15  1  0
 14 16  2  0
 16 17  1  0
 16 18  1  0
 18 19  2  0
 10  5  1  0
 19 12  1  0
 19  9  1  0
  1 20  1  0
  1 21  1  0
  3 22  1  0
  3 23  1  0
  3 24  1  0
  4 25  1  0
  4 26  1  0
  6 27  1  0
  6 28  1  0
  7 29  1  0
  7 30  1  0
  8 31  1  0
  8 32  1  0
 11 33  1  0
 13 34  1  0
 15 35  1  0
 15 36  1  0
 15 37  1  0
 17 38  1  0
 17 39  1  0
 17 40  1  0
 18 41  1  0
M  CHG  1  11   1
M  END
>  <UniqueID>  (30) 
29

>  <SMILES>  (30) 
C=C(C)CN1CCCn2c1[nH+]c1cc(C)c(C)cc12

>  <Energy>  (30) 
76.03717800680363

>  <Genealogy>  (30) 
C=C(C)CN1CCCn2c1[nH+]c1cc(C)c(C)cc12 (protonated)
C=C(C)CN1CCCn2c1[nH+]c1cc(C)c(C)cc12 (3D coordinates assigned)
C=C(C)CN1CCCn2c1[nH+]c1cc(C)c(C)cc12 (nonaromatic ring conformer: 76.03717800680363 kcal/mol)

>  <smiles>  (30) 
C=C(C)CN1CCCn2c1nc1cc(C)c(C)cc12

>  <score_type>  (30) 
oracle

>  <origin>  (30) 
adg

>  <m_score__min__energy>  (30) 
-7.3200000000000003

>  <m_primary>  (30) 
energy

$$$$
30:0
     RDKit          3D

 28 28  0  0  0  0  0  0  0  0999 V2000
   -6.9300   24.1850  -30.6520 C   0  0  0  0  0  0  0  0  0  0  0  0
   -5.9990   25.3220  -30.2500 C   0  0  0  0  0  0  0  0  0  0  0  0
   -4.6600   24.7870  -29.8380 C   0  0  0  0  0  0  0  0  0  0  0  0
   -3.6390   25.0970  -30.5090 O   0  0  0  0  0  0  0  0  0  0  0  0
   -4.5410   23.9970  -28.6450 N   0  0  0  0  0  0  0  0  0  0  0  0
   -3.3350   23.3190  -28.2570 C   0  0  0  0  0  0  0  0  0  0  0  0
   -3.1530   21.9560  -28.1260 C   0  0  0  0  0  0  0  0  0  0  0  0
   -1.9190   21.7280  -27.6390 N   0  0  0  0  0  0  0  0  0  0  0  0
   -1.3230   22.8960  -27.4430 N   0  0  0  0  0  0  0  0  0  0  0  0
    0.0660   22.9900  -26.9910 C   0  0  0  0  0  0  0  0  0  0  0  0
    0.1280   23.2480  -25.4880 C   0  0  0  0  0  0  0  0  0  0  0  0
   -2.1600   23.9020  -27.8080 C   0  0  0  0  0  0  0  0  0  0  0  0
   -1.8570   25.3510  -27.7950 C   0  0  0  0  0  0  0  0  0  0  0  0
   -1.3940   26.0160  -28.9670 N   0  0  0  0  0  0  0  0  0  0  0  0
   -2.0030   26.0130  -26.7340 O   0  0  0  0  0  0  0  0  0  0  0  0
   -7.3274   23.6996  -29.7484 H   0  0  0  0  0  0  0  0  0  0  0  0
   -7.7623   24.5862  -31.2489 H   0  0  0  0  0  0  0  0  0  0  0  0
   -6.3725   23.4482  -31.2489 H   0  0  0  0  0  0  0  0  0  0  0  0
   -5.8691   26.0023  -31.1046 H   0  0  0  0  0  0  0  0  0  0  0  0
   -6.4430   25.8601  -29.3995 H   0  0  0  0  0  0  0  0  0  0  0  0
   -5.3790   23.9140  -28.0290 H   0  0  0  0  0  0  0  0  0  0  0  0
   -3.8946   21.1838  -28.3782 H   0  0  0  0  0  0  0  0  0  0  0  0
    0.5839   22.0462  -27.2170 H   0  0  0  0  0  0  0  0  0  0  0  0
    0.5521   23.8269  -27.5138 H   0  0  0  0  0  0  0  0  0  0  0  0
   -0.0957   22.3170  -24.9466 H   0  0  0  0  0  0  0  0  0  0  0  0
    1.1355   23.5966  -25.2171 H   0  0  0  0  0  0  0  0  0  0  0  0
   -0.6111   24.0164  -25.2171 H   0  0  0  0  0  0  0  0  0  0  0  0
   -1.6120   25.6440  -29.9170 H   0  0  0  0  0  0  0  0  0  0  0  0
  1  2  1  0
  2  3  1  0
  3  4  2  0
  3  5  1  0
  5  6  1  0
  6  7  1  0
  7  8  2  0
  8  9  1  0
  9 10  1  0
 10 11  1  0
  9 12  1  0
 12 13  1  0
 13 14  1  0
 13 15  2  0
 12  6  2  0
  1 16  1  0
  1 17  1  0
  1 18  1  0
  2 19  1  0
  2 20  1  0
  5 21  1  0
  7 22  1  0
 10 23  1  0
 10 24  1  0
 11 25  1  0
 11 26  1  0
 11 27  1  0
 14 28  1  0
M  CHG  1  14  -1
M  END
>  <UniqueID>  (31) 
30

>  <SMILES>  (31) 
CCC(=O)Nc1cnn(CC)c1C([NH-])=O

>  <Energy>  (31) 
54.04832948222685

>  <Genealogy>  (31) 
CCC(=O)Nc1cnn(CC)c1C([NH-])=O (protonated)
CCC(=O)Nc1cnn(CC)c1C([NH-])=O (3D coordinates assigned)
CCC(=O)Nc1cnn(CC)c1C([NH-])=O (optimized conformer: 54.04832948222685 kcal/mol)

>  <smiles>  (31) 
CCC(=O)Nc1cnn(CC)c1C(N)=O

>  <score_type>  (31) 
oracle

>  <origin>  (31) 
adg

>  <m_score__min__energy>  (31) 
-8

>  <m_primary>  (31) 
energy

$$$$
31:0
     RDKit          3D

 38 41  0  0  0  0  0  0  0  0999 V2000
   -0.9540   26.0470  -27.7590 C   0  0  0  0  0  0  0  0  0  0  0  0
   -1.6470   25.7640  -28.9710 O   0  0  0  0  0  0  0  0  0  0  0  0
   -2.1110   24.4930  -29.3420 C   0  0  0  0  0  0  0  0  0  0  0  0
   -1.2110   23.4240  -29.3110 C   0  0  0  0  0  0  0  0  0  0  0  0
   -1.6220   22.1410  -29.6730 C   0  0  0  0  0  0  0  0  0  0  0  0
   -2.9420   21.9120  -30.0700 C   0  0  0  0  0  0  0  0  0  0  0  0
   -3.8670   22.9700  -30.1070 C   0  0  0  0  0  0  0  0  0  0  0  0
   -5.2710   22.7290  -30.5270 C   0  0  0  0  0  0  0  0  0  0  0  0
   -6.3000   23.6410  -30.1700 C   0  0  0  0  0  0  0  0  0  0  0  0
   -7.5960   23.4120  -30.5380 N   0  0  0  0  0  0  0  0  0  0  0  0
   -7.8930   22.3120  -31.2690 C   0  0  0  0  0  0  0  0  0  0  0  0
   -9.1180   21.9420  -31.6710 N   0  0  0  0  0  0  0  0  0  0  0  0
   -8.9470   20.7750  -32.3340 C   0  0  0  0  0  0  0  0  0  0  0  0
   -7.5980   20.4150  -32.3570 C   0  0  0  0  0  0  0  0  0  0  0  0
   -7.0280   19.2100  -32.9970 C   0  0  0  0  0  0  0  0  0  0  0  0
   -6.1430   19.3200  -34.0810 C   0  0  0  0  0  0  0  0  0  0  0  0
   -5.6300   18.1620  -34.6720 C   0  0  0  0  0  0  0  0  0  0  0  0
   -5.9960   16.9390  -34.2060 N   0  0  0  0  0  0  0  0  0  0  0  0
   -6.8620   16.8020  -33.1680 C   0  0  0  0  0  0  0  0  0  0  0  0
   -7.3980   17.9330  -32.5490 C   0  0  0  0  0  0  0  0  0  0  0  0
   -6.9390   21.4130  -31.6570 C   0  0  0  0  0  0  0  0  0  0  0  0
   -5.6070   21.5820  -31.2830 C   0  0  0  0  0  0  0  0  0  0  0  0
   -3.4430   24.2610  -29.7410 C   0  0  0  0  0  0  0  0  0  0  0  0
   -1.5925   25.7863  -26.9021 H   0  0  0  0  0  0  0  0  0  0  0  0
   -0.0276   25.4552  -27.7195 H   0  0  0  0  0  0  0  0  0  0  0  0
   -0.7067   27.1181  -27.7195 H   0  0  0  0  0  0  0  0  0  0  0  0
   -0.1704   23.5958  -28.9987 H   0  0  0  0  0  0  0  0  0  0  0  0
   -0.9049   21.3073  -29.6458 H   0  0  0  0  0  0  0  0  0  0  0  0
   -3.2592   20.8981  -30.3552 H   0  0  0  0  0  0  0  0  0  0  0  0
   -6.0507   24.5421  -29.5905 H   0  0  0  0  0  0  0  0  0  0  0  0
  -10.0180   22.4430  -31.5010 H   0  0  0  0  0  0  0  0  0  0  0  0
   -9.7587   20.1905  -32.7917 H   0  0  0  0  0  0  0  0  0  0  0  0
   -5.8552   20.3107  -34.4627 H   0  0  0  0  0  0  0  0  0  0  0  0
   -4.9288   18.2407  -35.5158 H   0  0  0  0  0  0  0  0  0  0  0  0
   -7.1413   15.7984  -32.8147 H   0  0  0  0  0  0  0  0  0  0  0  0
   -8.1065   17.8234  -31.7147 H   0  0  0  0  0  0  0  0  0  0  0  0
   -4.8406   20.8458  -31.5671 H   0  0  0  0  0  0  0  0  0  0  0  0
   -4.1576   25.0969  -29.7665 H   0  0  0  0  0  0  0  0  0  0  0  0
  1  2  1  0
  2  3  1  0
  3  4  2  0
  4  5  1  0
  5  6  2  0
  6  7  1  0
  7  8  1  0
  8  9  2  0
  9 10  1  0
 10 11  2  0
 11 12  1  0
 12 13  1  0
 13 14  2  0
 14 15  1  0
 15 16  2  0
 16 17  1  0
 17 18  2  0
 18 19  1  0
 19 20  2  0
 14 21  1  0
 21 22  2  0
  7 23  2  0
 23  3  1  0
 22  8  1  0
 21 11  1  0
 20 15  1  0
  1 24  1  0
  1 25  1  0
  1 26  1  0
  4 27  1  0
  5 28  1  0
  6 29  1  0
  9 30  1  0
 12 31  1  0
 13 32  1  0
 16 33  1  0
 17 34  1  0
 19 35  1  0
 20 36  1  0
 22 37  1  0
 23 38  1  0
M  END
>  <UniqueID>  (32) 
31

>  <SMILES>  (32) 
COc1cccc(-c2cnc3[nH]cc(-c4ccncc4)c3c2)c1

>  <Energy>  (32) 
87.48161536875901

>  <Genealogy>  (32) 
COc1cccc(-c2cnc3[nH]cc(-c4ccncc4)c3c2)c1 (3D coordinates assigned)
COc1cccc(-c2cnc3[nH]cc(-c4ccncc4)c3c2)c1 (optimized conformer: 87.48161536875901 kcal/mol)

>  <smiles>  (32) 
COc1cccc(-c2cnc3[nH]cc(-c4ccncc4)c3c2)c1

>  <score_type>  (32) 
oracle

>  <origin>  (32) 
adg

>  <m_score__min__energy>  (32) 
-9.0500000000000007

>  <m_primary>  (32) 
energy

$$$$
32:0
     RDKit          3D

 30 30  0  0  0  0  0  0  0  0999 V2000
   -4.2470   23.2940  -28.5880 C   0  0  0  0  0  0  0  0  0  0  0  0
   -3.9600   24.5510  -29.4080 C   0  0  0  0  0  0  0  0  0  0  0  0
   -4.2580   24.3390  -30.8420 N   0  0  0  0  0  0  0  0  0  0  0  0
   -3.7820   23.0180  -31.2860 C   0  0  0  0  0  0  0  0  0  0  0  0
   -5.6800   24.5630  -31.2010 C   0  0  0  0  0  0  0  0  0  0  0  0
   -6.5230   23.3130  -31.1610 C   0  0  0  0  0  0  0  0  0  0  0  0
   -7.1350   23.0130  -30.1000 O   0  0  0  0  0  0  0  0  0  0  0  0
   -6.6520   22.4930  -32.3330 N   0  0  0  0  0  0  0  0  0  0  0  0
   -7.4050   21.2700  -32.3580 C   0  0  0  0  0  0  0  0  0  0  0  0
   -8.7720   21.2490  -32.0160 C   0  0  0  0  0  0  0  0  0  0  0  0
   -9.4050   22.3820  -31.6210 F   0  0  0  0  0  0  0  0  0  0  0  0
   -9.4800   20.0430  -32.0320 C   0  0  0  0  0  0  0  0  0  0  0  0
   -8.8330   18.8530  -32.3770 C   0  0  0  0  0  0  0  0  0  0  0  0
   -7.4730   18.8630  -32.6950 C   0  0  0  0  0  0  0  0  0  0  0  0
   -6.7580   20.0660  -32.6790 C   0  0  0  0  0  0  0  0  0  0  0  0
   -5.4380   20.0600  -32.9940 F   0  0  0  0  0  0  0  0  0  0  0  0
   -4.1920   23.5350  -27.5161 H   0  0  0  0  0  0  0  0  0  0  0  0
   -5.2534   22.9210  -28.8288 H   0  0  0  0  0  0  0  0  0  0  0  0
   -3.5022   22.5212  -28.8288 H   0  0  0  0  0  0  0  0  0  0  0  0
   -4.5837   25.3748  -29.0307 H   0  0  0  0  0  0  0  0  0  0  0  0
   -2.8917   24.7934  -29.3082 H   0  0  0  0  0  0  0  0  0  0  0  0
   -3.5575   22.3949  -30.4077 H   0  0  0  0  0  0  0  0  0  0  0  0
   -4.5614   22.5317  -31.8910 H   0  0  0  0  0  0  0  0  0  0  0  0
   -2.8715   23.1406  -31.8910 H   0  0  0  0  0  0  0  0  0  0  0  0
   -6.1054   25.2908  -30.4943 H   0  0  0  0  0  0  0  0  0  0  0  0
   -5.6946   24.9257  -32.2394 H   0  0  0  0  0  0  0  0  0  0  0  0
   -6.2990   22.8700  -33.2410 H   0  0  0  0  0  0  0  0  0  0  0  0
  -10.5489   20.0309  -31.7724 H   0  0  0  0  0  0  0  0  0  0  0  0
   -9.3954   17.9079  -32.3981 H   0  0  0  0  0  0  0  0  0  0  0  0
   -6.9634   17.9244  -32.9583 H   0  0  0  0  0  0  0  0  0  0  0  0
  1  2  1  0
  2  3  1  0
  3  4  1  0
  3  5  1  0
  5  6  1  0
  6  7  2  0
  6  8  1  0
  8  9  1  0
  9 10  2  0
 10 11  1  0
 10 12  1  0
 12 13  2  0
 13 14  1  0
 14 15  2  0
 15 16  1  0
 15  9  1  0
  1 17  1  0
  1 18  1  0
  1 19  1  0
  2 20  1  0
  2 21  1  0
  4 22  1  0
  4 23  1  0
  4 24  1  0
  5 25  1  0
  5 26  1  0
  8 27  1  0
 12 28  1  0
 13 29  1  0
 14 30  1  0
M  END
>  <UniqueID>  (33) 
32

>  <SMILES>  (33) 
CCN(C)CC(=O)Nc1c(F)cccc1F

>  <Energy>  (33) 
33.4107517779809

>  <Genealogy>  (33) 
CCN(C)CC(=O)Nc1c(F)cccc1F (3D coordinates assigned)
CCN(C)CC(=O)Nc1c(F)cccc1F (optimized conformer: 33.4107517779809 kcal/mol)

>  <smiles>  (33) 
CCN(C)CC(=O)Nc1c(F)cccc1F

>  <score_type>  (33) 
oracle

>  <origin>  (33) 
adg

>  <m_score__min__energy>  (33) 
-5.8700000000000001

>  <m_primary>  (33) 
energy

$$$$
33:0
     RDKit          3D

 58 61  0  0  0  0  0  0  0  0999 V2000
    0.9720   24.0870  -36.0750 C   0  0  0  0  0  0  0  0  0  0  0  0
    2.1060   23.1100  -35.7630 C   0  0  0  0  0  0  0  0  0  0  0  0
    1.8740   21.7900  -36.3910 N   0  0  0  0  0  0  0  0  0  0  0  0
    2.8370   20.7760  -35.8870 C   0  0  0  0  0  0  0  0  0  0  0  0
    2.2350   19.9150  -34.7690 C   0  0  0  0  0  0  0  0  0  0  0  0
    1.0600   19.1600  -35.2600 N   0  0  0  0  0  0  0  0  0  0  0  0
    0.2280   18.5850  -34.1790 C   0  0  0  0  0  0  0  0  0  0  0  0
   -0.7650   19.5620  -33.5810 C   0  0  0  0  0  0  0  0  0  0  0  0
   -0.3230   20.7630  -33.0170 C   0  0  0  0  0  0  0  0  0  0  0  0
   -1.2350   21.6770  -32.4950 C   0  0  0  0  0  0  0  0  0  0  0  0
   -2.6190   21.4170  -32.5050 C   0  0  0  0  0  0  0  0  0  0  0  0
   -3.0710   20.1610  -33.0090 C   0  0  0  0  0  0  0  0  0  0  0  0
   -2.1340   19.2630  -33.5490 C   0  0  0  0  0  0  0  0  0  0  0  0
   -4.4490   19.7440  -32.9850 N   0  0  0  0  0  0  0  0  0  0  0  0
   -5.3120   19.9960  -31.8760 C   0  0  0  0  0  0  0  0  0  0  0  0
   -5.6030   19.0550  -31.0910 O   0  0  0  0  0  0  0  0  0  0  0  0
   -5.9880   21.3150  -31.7140 C   0  0  0  0  0  0  0  0  0  0  0  0
   -5.1870   22.6030  -32.7190 S   0  0  0  0  0  0  0  0  0  0  0  0
   -3.5190   22.5170  -31.9540 C   0  0  1  0  0  0  0  0  0  0  0  0
   -3.5510   22.6470  -30.4310 C   0  0  0  0  0  0  0  0  0  0  0  0
   -3.2600   21.4890  -29.6810 C   0  0  0  0  0  0  0  0  0  0  0  0
   -3.2420   21.5210  -28.2870 C   0  0  0  0  0  0  0  0  0  0  0  0
   -3.5090   22.7080  -27.6130 C   0  0  0  0  0  0  0  0  0  0  0  0
   -3.7910   23.8700  -28.3290 C   0  0  0  0  0  0  0  0  0  0  0  0
   -3.8150   23.8620  -29.7390 C   0  0  0  0  0  0  0  0  0  0  0  0
   -4.0920   25.0330  -30.4600 O   0  0  0  0  0  0  0  0  0  0  0  0
   -5.3800   25.6210  -30.6020 C   0  0  0  0  0  0  0  0  0  0  0  0
    0.2980   19.8410  -36.3320 C   0  0  0  0  0  0  0  0  0  0  0  0
    0.4530   21.3670  -36.2620 C   0  0  0  0  0  0  0  0  0  0  0  0
    0.5397   24.4594  -35.1346 H   0  0  0  0  0  0  0  0  0  0  0  0
    1.3665   24.9327  -36.6575 H   0  0  0  0  0  0  0  0  0  0  0  0
    0.1940   23.5718  -36.6575 H   0  0  0  0  0  0  0  0  0  0  0  0
    3.0506   23.5257  -36.1437 H   0  0  0  0  0  0  0  0  0  0  0  0
    2.1504   22.9701  -34.6728 H   0  0  0  0  0  0  0  0  0  0  0  0
    3.1309   20.1208  -36.7203 H   0  0  0  0  0  0  0  0  0  0  0  0
    3.7057   21.3094  -35.4737 H   0  0  0  0  0  0  0  0  0  0  0  0
    2.9956   19.2054  -34.4114 H   0  0  0  0  0  0  0  0  0  0  0  0
    1.9121   20.5757  -33.9509 H   0  0  0  0  0  0  0  0  0  0  0  0
   -0.3309   17.7310  -34.5894 H   0  0  0  0  0  0  0  0  0  0  0  0
    0.9138   18.2923  -33.3703 H   0  0  0  0  0  0  0  0  0  0  0  0
    0.7534   20.9875  -32.9854 H   0  0  0  0  0  0  0  0  0  0  0  0
   -0.8669   22.6208  -32.0663 H   0  0  0  0  0  0  0  0  0  0  0  0
   -2.4835   18.3027  -33.9562 H   0  0  0  0  0  0  0  0  0  0  0  0
   -4.7170   18.9290  -33.5810 H   0  0  0  0  0  0  0  0  0  0  0  0
   -7.0382   21.2192  -32.0268 H   0  0  0  0  0  0  0  0  0  0  0  0
   -5.9196   21.6102  -30.6566 H   0  0  0  0  0  0  0  0  0  0  0  0
   -2.9977   23.4254  -32.2902 H   0  0  0  0  0  0  0  0  0  0  0  0
   -3.0438   20.5456  -30.2037 H   0  0  0  0  0  0  0  0  0  0  0  0
   -3.0163   20.6061  -27.7196 H   0  0  0  0  0  0  0  0  0  0  0  0
   -3.4976   22.7297  -26.5133 H   0  0  0  0  0  0  0  0  0  0  0  0
   -3.9974   24.8050  -27.7875 H   0  0  0  0  0  0  0  0  0  0  0  0
   -5.8060   25.8155  -29.6067 H   0  0  0  0  0  0  0  0  0  0  0  0
   -5.2918   26.5681  -31.1545 H   0  0  0  0  0  0  0  0  0  0  0  0
   -6.0378   24.9340  -31.1545 H   0  0  0  0  0  0  0  0  0  0  0  0
    0.6656   19.4904  -37.3077 H   0  0  0  0  0  0  0  0  0  0  0  0
   -0.7670   19.5995  -36.2001 H   0  0  0  0  0  0  0  0  0  0  0  0
   -0.1280   21.8207  -37.0784 H   0  0  0  0  0  0  0  0  0  0  0  0
    0.0872   21.7008  -35.2798 H   0  0  0  0  0  0  0  0  0  0  0  0
  1  2  1  0
  2  3  1  0
  3  4  1  0
  4  5  1  0
  5  6  1  0
  6  7  1  0
  7  8  1  0
  8  9  2  0
  9 10  1  0
 10 11  2  0
 11 12  1  0
 12 13  2  0
 12 14  1  0
 14 15  1  0
 15 16  2  0
 15 17  1  0
 17 18  1  0
 18 19  1  0
 19 20  1  0
 20 21  2  0
 21 22  1  0
 22 23  2  0
 23 24  1  0
 24 25  2  0
 25 26  1  0
 26 27  1  0
  6 28  1  0
 28 29  1  0
 29  3  1  0
 13  8  1  0
 25 20  1  0
 19 11  1  0
  1 30  1  0
  1 31  1  0
  1 32  1  0
  2 33  1  0
  2 34  1  0
  4 35  1  0
  4 36  1  0
  5 37  1  0
  5 38  1  0
  7 39  1  0
  7 40  1  0
  9 41  1  0
 10 42  1  0
 13 43  1  0
 14 44  1  0
 17 45  1  0
 17 46  1  0
 19 47  1  6
 21 48  1  0
 22 49  1  0
 23 50  1  0
 24 51  1  0
 27 52  1  0
 27 53  1  0
 27 54  1  0
 28 55  1  0
 28 56  1  0
 29 57  1  0
 29 58  1  0
M  END
>  <UniqueID>  (34) 
33

>  <SMILES>  (34) 
CCN1CCN(Cc2ccc3c(c2)NC(=O)CS[C@H]3c2ccccc2OC)CC1

>  <Energy>  (34) 
93.35708740908484

>  <Genealogy>  (34) 
CCN1CCN(Cc2ccc3c(c2)NC(=O)CS[C@H]3c2ccccc2OC)CC1 (chirality)
CCN1CCN(Cc2ccc3c(c2)NC(=O)CS[C@H]3c2ccccc2OC)CC1 (3D coordinates assigned)
CCN1CCN(Cc2ccc3c(c2)NC(=O)CS[C@H]3c2ccccc2OC)CC1 (nonaromatic ring conformer: 93.35708740908484 kcal/mol)

>  <smiles>  (34) 
CCN1CCN(Cc2ccc3c(c2)NC(=O)CSC3c2ccccc2OC)CC1

>  <score_type>  (34) 
oracle

>  <origin>  (34) 
adg

>  <m_score__min__energy>  (34) 
-7.3399999999999999

>  <m_primary>  (34) 
energy

$$$$
34:0
     RDKit          3D

 49 52  0  0  0  0  0  0  0  0999 V2000
    0.8703   26.2319  -26.6640 H   0  0  0  0  0  0  0  0  0  0  0  0
   -0.1900   25.9720  -26.5290 C   0  0  0  0  0  0  0  0  0  0  0  0
   -0.8670   25.2740  -27.5330 C   0  0  0  0  0  0  0  0  0  0  0  0
   -0.3351   24.9920  -28.4537 H   0  0  0  0  0  0  0  0  0  0  0  0
   -2.2200   24.9290  -27.3780 C   0  0  0  0  0  0  0  0  0  0  0  0
   -2.9140   24.1890  -28.4570 C   0  0  0  0  0  0  0  0  0  0  0  0
   -4.2130   23.9390  -28.4440 O   0  0  0  0  0  0  0  0  0  0  0  0
   -4.5030   23.2720  -29.5340 C   0  0  0  0  0  0  0  0  0  0  0  0
   -5.7500   22.8000  -29.9370 C   0  0  0  0  0  0  0  0  0  0  0  0
   -6.6441   22.9712  -29.3195 H   0  0  0  0  0  0  0  0  0  0  0  0
   -5.8380   22.0940  -31.1620 C   0  0  0  0  0  0  0  0  0  0  0  0
   -7.1500   21.5780  -31.6230 C   0  0  0  0  0  0  0  0  0  0  0  0
   -7.2620   20.4930  -32.3110 N   0  0  0  0  0  0  0  0  0  0  0  0
   -8.6630   20.2410  -32.6230 C   0  0  0  0  0  0  0  0  0  0  0  0
   -8.8179   20.2158  -33.7118 H   0  0  0  0  0  0  0  0  0  0  0  0
   -9.0044   19.2707  -32.2331 H   0  0  0  0  0  0  0  0  0  0  0  0
   -9.4280   21.4140  -31.9970 C   0  0  0  0  0  0  0  0  0  0  0  0
   -9.9571   21.9926  -32.7685 H   0  0  0  0  0  0  0  0  0  0  0  0
  -10.1980   21.0860  -31.2832 H   0  0  0  0  0  0  0  0  0  0  0  0
   -8.3920   22.2120  -31.3740 N   0  0  0  0  0  0  0  0  0  0  0  0
   -8.5520   23.1250  -30.8950 H   0  0  0  0  0  0  0  0  0  0  0  0
   -4.6600   21.8990  -31.9360 C   0  0  0  0  0  0  0  0  0  0  0  0
   -4.7215   21.3564  -32.8909 H   0  0  0  0  0  0  0  0  0  0  0  0
   -3.4180   22.3910  -31.4960 C   0  0  0  0  0  0  0  0  0  0  0  0
   -2.5051   22.2410  -32.0910 H   0  0  0  0  0  0  0  0  0  0  0  0
   -3.3810   23.0730  -30.2850 C   0  0  0  0  0  0  0  0  0  0  0  0
   -2.3330   23.6570  -29.6120 C   0  0  0  0  0  0  0  0  0  0  0  0
   -1.2761   23.6965  -29.9144 H   0  0  0  0  0  0  0  0  0  0  0  0
   -2.8830   25.2970  -26.1940 C   0  0  0  0  0  0  0  0  0  0  0  0
   -3.9420   25.0331  -26.0566 H   0  0  0  0  0  0  0  0  0  0  0  0
   -2.2060   25.9960  -25.1900 C   0  0  0  0  0  0  0  0  0  0  0  0
   -2.7367   26.2758  -24.2680 H   0  0  0  0  0  0  0  0  0  0  0  0
   -0.8550   26.3440  -25.3480 C   0  0  0  0  0  0  0  0  0  0  0  0
   -0.1290   27.0790  -24.2820 C   0  0  0  0  0  0  0  0  0  0  0  0
    0.6450   26.3290  -23.3310 N   0  0  0  0  0  0  0  0  0  0  0  0
    1.2730   26.7780  -22.6300 H   0  0  0  0  0  0  0  0  0  0  0  0
    0.5920   25.2870  -23.3150 H   0  0  0  0  0  0  0  0  0  0  0  0
   -0.2000   28.3870  -24.2300 N   0  0  0  0  0  0  0  0  0  0  0  0
    0.2010   28.8870  -23.4040 H   0  0  0  0  0  0  0  0  0  0  0  0
   -0.8350   29.2400  -25.2410 C   0  0  0  0  0  0  0  0  0  0  0  0
   -1.0450   30.2244  -24.7974 H   0  0  0  0  0  0  0  0  0  0  0  0
   -1.7647   28.7525  -25.5696 H   0  0  0  0  0  0  0  0  0  0  0  0
    0.0710   29.4280  -26.4680 C   0  0  0  0  0  0  0  0  0  0  0  0
    0.1974   28.4570  -26.9691 H   0  0  0  0  0  0  0  0  0  0  0  0
    1.0372   29.8236  -26.1215 H   0  0  0  0  0  0  0  0  0  0  0  0
   -0.5200   30.4250  -27.4640 C   0  0  0  0  0  0  0  0  0  0  0  0
   -1.0065   31.2457  -26.9164 H   0  0  0  0  0  0  0  0  0  0  0  0
    0.2831   30.8315  -28.0963 H   0  0  0  0  0  0  0  0  0  0  0  0
   -1.2621   29.9155  -28.0963 H   0  0  0  0  0  0  0  0  0  0  0  0
  1  2  1  0
  2  3  2  0
  3  4  1  0
  3  5  1  0
  5  6  1  0
  6  7  1  0
  7  8  1  0
  8  9  2  0
  9 10  1  0
  9 11  1  0
 11 12  1  0
 12 13  2  0
 13 14  1  0
 14 15  1  0
 14 16  1  0
 14 17  1  0
 17 18  1  0
 17 19  1  0
 17 20  1  0
 20 21  1  0
 11 22  2  0
 22 23  1  0
 22 24  1  0
 24 25  1  0
 24 26  2  0
 26 27  1  0
 27 28  1  0
  5 29  2  0
 29 30  1  0
 29 31  1  0
 31 32  1  0
 31 33  2  0
 33 34  1  0
 34 35  1  0
 35 36  1  0
 35 37  1  0
 34 38  2  0
 38 39  1  0
 38 40  1  0
 40 41  1  0
 40 42  1  0
 40 43  1  0
 43 44  1  0
 43 45  1  0
 43 46  1  0
 46 47  1  0
 46 48  1  0
 46 49  1  0
 33  2  1  0
 27  6  2  0
 26  8  1  0
 20 12  1  0
M  CHG  1  38   1
M  END
>  <UniqueID>  (35) 
34

>  <SMILES>  (35) 
CCC/[NH+]=C(\N)c1ccc(-c2cc3ccc(C4=NCCN4)cc3o2)cc1

>  <Energy>  (35) 
100.02253367880124

>  <Genealogy>  (35) 
CCC[NH+]=C(N)c1ccc(-c2cc3ccc(C4=NCCN4)cc3o2)cc1 (protonated)
CCC/[NH+]=C(\N)c1ccc(-c2cc3ccc(C4=NCCN4)cc3o2)cc1 (cis-trans isomerization)
CCC/[NH+]=C(\N)c1ccc(-c2cc3ccc(C4=NCCN4)cc3o2)cc1 (3D coordinates assigned)
CCC/[NH+]=C(\N)c1ccc(-c2cc3ccc(C4=NCCN4)cc3o2)cc1 (nonaromatic ring conformer: 100.02253367880124 kcal/mol)

>  <smiles>  (35) 
CCCN=C(N)c1ccc(-c2cc3ccc(C4=NCCN4)cc3o2)cc1

>  <score_type>  (35) 
oracle

>  <origin>  (35) 
adg

>  <m_score__min__energy>  (35) 
-8.3900000000000006

>  <m_primary>  (35) 
energy

$$$$
35:0
     RDKit          3D

 45 47  0  0  0  0  0  0  0  0999 V2000
   -9.0520   18.9870  -32.0590 C   0  0  0  0  0  0  0  0  0  0  0  0
   -7.7030   19.4350  -31.9800 O   0  0  0  0  0  0  0  0  0  0  0  0
   -7.3170   20.7700  -31.7740 C   0  0  0  0  0  0  0  0  0  0  0  0
   -7.9910   21.6030  -30.8580 C   0  0  0  0  0  0  0  0  0  0  0  0
   -7.5890   22.9280  -30.6770 C   0  0  0  0  0  0  0  0  0  0  0  0
   -6.5170   23.4400  -31.4070 C   0  0  0  0  0  0  0  0  0  0  0  0
   -5.8410   22.6280  -32.3170 C   0  0  0  0  0  0  0  0  0  0  0  0
   -6.2260   21.2910  -32.5060 C   0  0  0  0  0  0  0  0  0  0  0  0
   -5.4420   20.4350  -33.4710 C   0  0  0  0  0  0  0  0  0  0  0  0
   -4.0540   20.2480  -32.9920 N   0  0  0  0  0  0  0  0  0  0  0  0
   -3.5110   18.9530  -33.4330 C   0  0  0  0  0  0  0  0  0  0  0  0
   -2.1810   18.6740  -32.7200 C   0  0  0  0  0  0  0  0  0  0  0  0
   -1.3720   19.8940  -32.5030 N   0  0  0  0  0  0  0  0  0  0  0  0
   -1.1350   20.2500  -31.0890 C   0  0  0  0  0  0  0  0  0  0  0  0
   -2.1020   21.2690  -30.5610 C   0  0  0  0  0  0  0  0  0  0  0  0
   -3.2720   20.9970  -29.8740 C   0  0  0  0  0  0  0  0  0  0  0  0
   -3.8250   22.2220  -29.5690 C   0  0  0  0  0  0  0  0  0  0  0  0
   -2.9570   23.1560  -30.1010 C   0  0  0  0  0  0  0  0  0  0  0  0
   -3.1220   24.5750  -30.0460 N   0  0  0  0  0  0  0  0  0  0  0  0
   -2.4240   25.2660  -29.2770 O   0  0  0  0  0  0  0  0  0  0  0  0
   -4.0700   25.1850  -30.8340 O   0  0  0  0  0  0  0  0  0  0  0  0
   -1.9390   22.5670  -30.6810 O   0  0  0  0  0  0  0  0  0  0  0  0
   -1.6860   21.0300  -33.3930 C   0  0  0  0  0  0  0  0  0  0  0  0
   -3.1960   21.3500  -33.4770 C   0  0  0  0  0  0  0  0  0  0  0  0
   -9.4541   18.8535  -31.0439 H   0  0  0  0  0  0  0  0  0  0  0  0
   -9.6552   19.7331  -32.5971 H   0  0  0  0  0  0  0  0  0  0  0  0
   -9.0891   18.0283  -32.5971 H   0  0  0  0  0  0  0  0  0  0  0  0
   -8.8398   21.2064  -30.2816 H   0  0  0  0  0  0  0  0  0  0  0  0
   -8.1190   23.5690  -29.9572 H   0  0  0  0  0  0  0  0  0  0  0  0
   -6.2044   24.4850  -31.2650 H   0  0  0  0  0  0  0  0  0  0  0  0
   -4.9982   23.0388  -32.8922 H   0  0  0  0  0  0  0  0  0  0  0  0
   -5.9289   19.4527  -33.5608 H   0  0  0  0  0  0  0  0  0  0  0  0
   -5.4150   20.9371  -34.4494 H   0  0  0  0  0  0  0  0  0  0  0  0
   -4.2287   18.1552  -33.1913 H   0  0  0  0  0  0  0  0  0  0  0  0
   -3.3402   18.9830  -34.5192 H   0  0  0  0  0  0  0  0  0  0  0  0
   -2.3967   18.2184  -31.7423 H   0  0  0  0  0  0  0  0  0  0  0  0
   -1.5963   18.0033  -33.3668 H   0  0  0  0  0  0  0  0  0  0  0  0
   -1.2226   19.3379  -30.4804 H   0  0  0  0  0  0  0  0  0  0  0  0
   -0.1305   20.6943  -31.0299 H   0  0  0  0  0  0  0  0  0  0  0  0
   -3.6777   20.0059  -29.6227 H   0  0  0  0  0  0  0  0  0  0  0  0
   -4.7581   22.4149  -29.0194 H   0  0  0  0  0  0  0  0  0  0  0  0
   -1.1618   21.9213  -33.0177 H   0  0  0  0  0  0  0  0  0  0  0  0
   -1.3588   20.7479  -34.4046 H   0  0  0  0  0  0  0  0  0  0  0  0
   -3.3981   22.2438  -32.8685 H   0  0  0  0  0  0  0  0  0  0  0  0
   -3.4374   21.5086  -34.5384 H   0  0  0  0  0  0  0  0  0  0  0  0
  1  2  1  0
  2  3  1  0
  3  4  2  0
  4  5  1  0
  5  6  2  0
  6  7  1  0
  7  8  2  0
  8  9  1  0
  9 10  1  0
 10 11  1  0
 11 12  1  0
 12 13  1  0
 13 14  1  0
 14 15  1  0
 15 16  2  0
 16 17  1  0
 17 18  2  0
 18 19  1  0
 19 20  2  0
 19 21  1  0
 18 22  1  0
 13 23  1  0
 23 24  1  0
  8  3  1  0
 24 10  1  0
 22 15  1  0
  1 25  1  0
  1 26  1  0
  1 27  1  0
  4 28  1  0
  5 29  1  0
  6 30  1  0
  7 31  1  0
  9 32  1  0
  9 33  1  0
 11 34  1  0
 11 35  1  0
 12 36  1  0
 12 37  1  0
 14 38  1  0
 14 39  1  0
 16 40  1  0
 17 41  1  0
 23 42  1  0
 23 43  1  0
 24 44  1  0
 24 45  1  0
M  CHG  2  19   1  21  -1
M  END
>  <UniqueID>  (36) 
35

>  <SMILES>  (36) 
COc1ccccc1CN1CCN(Cc2ccc([N+](=O)[O-])o2)CC1

>  <Energy>  (36) 
82.90460821183686

>  <Genealogy>  (36) 
COc1ccccc1CN1CCN(Cc2ccc([N+](=O)[O-])o2)CC1 (3D coordinates assigned)
COc1ccccc1CN1CCN(Cc2ccc([N+](=O)[O-])o2)CC1 (nonaromatic ring conformer: 82.90460821183686 kcal/mol)

>  <smiles>  (36) 
COc1ccccc1CN1CCN(Cc2ccc([N+](=O)[O-])o2)CC1

>  <score_type>  (36) 
oracle

>  <origin>  (36) 
adg

>  <m_score__min__energy>  (36) 
-8.2699999999999996

>  <m_primary>  (36) 
energy

$$$$
36:0
     RDKit          3D

 50 52  0  0  1  0  0  0  0  0999 V2000
   -6.5170   17.8310  -31.6110 C   0  0  0  0  0  0  0  0  0  0  0  0
   -7.8300   18.0690  -32.3330 C   0  0  0  0  0  0  0  0  0  0  0  0
   -8.4610   19.3090  -31.7090 C   0  0  0  0  0  0  0  0  0  0  0  0
   -8.6250   20.4290  -32.7170 C   0  0  0  0  0  0  0  0  0  0  0  0
   -7.9140   21.5680  -32.1780 N   0  0  0  0  0  0  0  0  0  0  0  0
   -8.4550   22.6580  -31.5640 C   0  0  0  0  0  0  0  0  0  0  0  0
   -7.4030   23.4290  -31.2440 N   0  0  0  0  0  0  0  0  0  0  0  0
   -6.2420   22.8740  -31.6280 C   0  0  0  0  0  0  0  0  0  0  0  0
   -4.9200   23.2500  -31.5380 C   0  0  0  0  0  0  0  0  0  0  0  0
   -4.6280   24.3600  -30.9800 N   0  0  0  0  0  0  0  0  0  0  0  0
   -3.8450   24.4870  -29.7650 C   0  0  0  0  0  0  0  0  0  0  0  0
   -2.6050   23.6310  -29.8030 C   0  0  0  0  0  0  0  0  0  0  0  0
   -1.4960   24.1650  -28.9250 C   0  0  0  0  0  0  0  0  0  0  0  0
   -1.7390   23.8790  -27.4770 C   0  0  0  0  0  0  0  0  0  0  0  0
   -3.0010   24.6400  -27.0980 C   0  0  0  0  0  0  0  0  0  0  0  0
   -4.2390   23.8470  -27.3390 C   0  0  0  0  0  0  0  0  0  0  0  0
   -4.7920   23.8800  -28.7120 C   0  0  0  0  0  0  0  0  0  0  0  0
   -3.9640   22.4470  -32.0350 N   0  0  0  0  0  0  0  0  0  0  0  0
   -4.2820   21.2610  -32.6310 C   0  0  0  0  0  0  0  0  0  0  0  0
   -3.0350   20.1810  -33.2960 S   0  0  0  0  0  0  0  0  0  0  0  0
   -1.4300   21.0100  -33.4030 C   0  0  0  0  0  0  0  0  0  0  0  0
   -5.5810   20.9200  -32.7050 N   0  0  0  0  0  0  0  0  0  0  0  0
   -6.5750   21.6860  -32.2230 C   0  0  0  0  0  0  0  0  0  0  0  0
   -6.6853   17.8615  -30.5244 H   0  0  0  0  0  0  0  0  0  0  0  0
   -6.1171   16.8457  -31.8926 H   0  0  0  0  0  0  0  0  0  0  0  0
   -5.7967   18.6132  -31.8926 H   0  0  0  0  0  0  0  0  0  0  0  0
   -7.6473   18.2363  -33.4047 H   0  0  0  0  0  0  0  0  0  0  0  0
   -8.4953   17.1983  -32.2369 H   0  0  0  0  0  0  0  0  0  0  0  0
   -9.4508   19.0418  -31.3104 H   0  0  0  0  0  0  0  0  0  0  0  0
   -7.7940   19.6650  -30.9100 H   0  0  0  0  0  0  0  0  0  0  0  0
   -8.1950   20.1353  -33.6859 H   0  0  0  0  0  0  0  0  0  0  0  0
   -9.6865   20.6634  -32.8849 H   0  0  0  0  0  0  0  0  0  0  0  0
   -9.5190   22.8614  -31.3727 H   0  0  0  0  0  0  0  0  0  0  0  0
   -3.5179   25.5223  -29.5883 H   0  0  0  0  0  0  0  0  0  0  0  0
   -2.8665   22.6185  -29.4617 H   0  0  0  0  0  0  0  0  0  0  0  0
   -2.2353   23.6302  -30.8390 H   0  0  0  0  0  0  0  0  0  0  0  0
   -0.5480   23.6949  -29.2254 H   0  0  0  0  0  0  0  0  0  0  0  0
   -1.4577   25.2568  -29.0533 H   0  0  0  0  0  0  0  0  0  0  0  0
   -1.8835   22.7998  -27.3208 H   0  0  0  0  0  0  0  0  0  0  0  0
   -0.8837   24.1895  -26.8588 H   0  0  0  0  0  0  0  0  0  0  0  0
   -2.9498   24.8984  -26.0300 H   0  0  0  0  0  0  0  0  0  0  0  0
   -3.0516   25.5392  -27.7295 H   0  0  0  0  0  0  0  0  0  0  0  0
   -4.0160   22.7980  -27.0944 H   0  0  0  0  0  0  0  0  0  0  0  0
   -5.0087   24.3123  -26.7057 H   0  0  0  0  0  0  0  0  0  0  0  0
   -5.0259   22.8483  -29.0136 H   0  0  0  0  0  0  0  0  0  0  0  0
   -5.6800   24.5283  -28.6774 H   0  0  0  0  0  0  0  0  0  0  0  0
   -1.0503   21.2061  -32.3894 H   0  0  0  0  0  0  0  0  0  0  0  0
   -0.7199   20.3659  -33.9423 H   0  0  0  0  0  0  0  0  0  0  0  0
   -1.5442   21.9619  -33.9423 H   0  0  0  0  0  0  0  0  0  0  0  0
   -5.8290   20.0190  -33.1570 H   0  0  0  0  0  0  0  0  0  0  0  0
  1  2  1  0
  2  3  1  0
  3  4  1  0
  4  5  1  0
  5  6  1  0
  6  7  2  0
  7  8  1  0
  8  9  1  0
  9 10  2  0
 10 11  1  0
 11 12  1  0
 12 13  1  0
 13 14  1  0
 14 15  1  0
 15 16  1  0
 16 17  1  0
  9 18  1  0
 18 19  2  0
 19 20  1  0
 20 21  1  0
 19 22  1  0
 22 23  1  0
 23  5  1  0
 23  8  2  0
 17 11  1  0
  1 24  1  0
  1 25  1  0
  1 26  1  0
  2 27  1  0
  2 28  1  0
  3 29  1  0
  3 30  1  0
  4 31  1  0
  4 32  1  0
  6 33  1  0
 11 34  1  0
 12 35  1  0
 12 36  1  0
 13 37  1  0
 13 38  1  0
 14 39  1  0
 14 40  1  0
 15 41  1  0
 15 42  1  0
 16 43  1  0
 16 44  1  0
 17 45  1  0
 17 46  1  0
 21 47  1  0
 21 48  1  0
 21 49  1  0
 22 50  1  0
M  END
>  <smiles>  (37) 
CCCCn1cnc2c(=NC3CCCCCC3)nc(SC)[nH]c21

>  <score_type>  (37) 
oracle

>  <origin>  (37) 
adg

>  <m_score__min__energy>  (37) 
-5.9000000000000004

>  <m_primary>  (37) 
energy

$$$$
37:0
     RDKit          3D

 42 44  0  0  0  0  0  0  0  0999 V2000
   -4.2330   25.6710  -30.8230 O   0  0  0  0  0  0  0  0  0  0  0  0
   -4.5800   24.4610  -30.7330 C   0  0  0  0  0  0  0  0  0  0  0  0
   -3.8560   23.5750  -29.7820 C   0  0  0  0  0  0  0  0  0  0  0  0
   -4.4290   23.1750  -28.5590 C   0  0  0  0  0  0  0  0  0  0  0  0
   -3.7290   22.3360  -27.6870 C   0  0  0  0  0  0  0  0  0  0  0  0
   -2.4520   21.8810  -28.0240 C   0  0  0  0  0  0  0  0  0  0  0  0
   -1.5760   20.8280  -26.9280 Cl  0  0  0  0  0  0  0  0  0  0  0  0
   -1.8750   22.2620  -29.2380 C   0  0  0  0  0  0  0  0  0  0  0  0
   -2.5730   23.1000  -30.1140 C   0  0  0  0  0  0  0  0  0  0  0  0
   -5.6960   23.9550  -31.6260 C   0  0  1  0  0  0  0  0  0  0  0  0
   -5.4410   22.4980  -32.0950 C   0  0  0  0  0  0  0  0  0  0  0  0
   -6.1670   21.4780  -31.2020 C   0  0  0  0  0  0  0  0  0  0  0  0
   -7.6410   21.6920  -31.1600 N   0  0  2  0  0  0  0  0  0  0  0  0
   -8.3150   20.7550  -32.0420 C   0  0  0  0  0  0  0  0  0  0  0  0
   -9.5000   20.9840  -32.4130 O   0  0  0  0  0  0  0  0  0  0  0  0
   -7.6240   19.5520  -32.5730 C   0  0  0  0  0  0  0  0  0  0  0  0
   -6.7780   19.6690  -33.6910 C   0  0  0  0  0  0  0  0  0  0  0  0
   -6.1130   18.5480  -34.1990 C   0  0  0  0  0  0  0  0  0  0  0  0
   -6.2760   17.3010  -33.5900 C   0  0  0  0  0  0  0  0  0  0  0  0
   -5.4370   15.8970  -34.2270 Cl  0  0  0  0  0  0  0  0  0  0  0  0
   -7.1010   17.1750  -32.4700 C   0  0  0  0  0  0  0  0  0  0  0  0
   -7.7700   18.2920  -31.9600 C   0  0  0  0  0  0  0  0  0  0  0  0
   -8.0670   23.0870  -31.4550 C   0  0  0  0  0  0  0  0  0  0  0  0
   -7.0580   24.1050  -30.9110 C   0  0  0  0  0  0  0  0  0  0  0  0
   -5.4357   23.5257  -28.2878 H   0  0  0  0  0  0  0  0  0  0  0  0
   -4.1850   22.0333  -26.7329 H   0  0  0  0  0  0  0  0  0  0  0  0
   -0.8704   21.9025  -29.5054 H   0  0  0  0  0  0  0  0  0  0  0  0
   -2.1152   23.3905  -31.0711 H   0  0  0  0  0  0  0  0  0  0  0  0
   -5.7192   24.5723  -32.5362 H   0  0  0  0  0  0  0  0  0  0  0  0
   -4.3602   22.2964  -32.0606 H   0  0  0  0  0  0  0  0  0  0  0  0
   -5.8288   22.3945  -33.1192 H   0  0  0  0  0  0  0  0  0  0  0  0
   -5.7706   21.5616  -30.1793 H   0  0  0  0  0  0  0  0  0  0  0  0
   -5.9897   20.4797  -31.6285 H   0  0  0  0  0  0  0  0  0  0  0  0
   -7.9560   21.5060  -30.1790 H   0  0  0  0  0  0  0  0  0  0  0  0
   -6.6384   20.6496  -34.1694 H   0  0  0  0  0  0  0  0  0  0  0  0
   -5.4608   18.6483  -35.0791 H   0  0  0  0  0  0  0  0  0  0  0  0
   -7.2248   16.1942  -31.9877 H   0  0  0  0  0  0  0  0  0  0  0  0
   -8.4142   18.1862  -31.0747 H   0  0  0  0  0  0  0  0  0  0  0  0
   -9.0463   23.2688  -30.9882 H   0  0  0  0  0  0  0  0  0  0  0  0
   -8.1274   23.2078  -32.5467 H   0  0  0  0  0  0  0  0  0  0  0  0
   -6.9207   23.9373  -29.8326 H   0  0  0  0  0  0  0  0  0  0  0  0
   -7.4441   25.1190  -31.0919 H   0  0  0  0  0  0  0  0  0  0  0  0
  1  2  2  0
  2  3  1  0
  3  4  2  0
  4  5  1  0
  5  6  2  0
  6  7  1  0
  6  8  1  0
  8  9  2  0
  2 10  1  0
 10 11  1  0
 11 12  1  0
 12 13  1  0
 13 14  1  0
 14 15  2  0
 14 16  1  0
 16 17  2  0
 17 18  1  0
 18 19  2  0
 19 20  1  0
 19 21  1  0
 21 22  2  0
 13 23  1  0
 23 24  1  0
  9  3  1  0
 24 10  1  0
 22 16  1  0
  4 25  1  0
  5 26  1  0
  8 27  1  0
  9 28  1  0
 10 29  1  6
 11 30  1  0
 11 31  1  0
 12 32  1  0
 12 33  1  0
 13 34  1  1
 17 35  1  0
 18 36  1  0
 21 37  1  0
 22 38  1  0
 23 39  1  0
 23 40  1  0
 24 41  1  0
 24 42  1  0
M  CHG  1  13   1
M  END
>  <UniqueID>  (38) 
36

>  <SMILES>  (38) 
O=C(c1ccc(Cl)cc1)C1CC[NH+](C(=O)c2ccc(Cl)cc2)CC1

>  <Energy>  (38) 
59.67162476227038

>  <Genealogy>  (38) 
O=C(c1ccc(Cl)cc1)C1CC[NH+](C(=O)c2ccc(Cl)cc2)CC1 (protonated)
O=C(c1ccc(Cl)cc1)C1CC[NH+](C(=O)c2ccc(Cl)cc2)CC1 (3D coordinates assigned)
O=C(c1ccc(Cl)cc1)C1CC[NH+](C(=O)c2ccc(Cl)cc2)CC1 (nonaromatic ring conformer: 59.67162476227038 kcal/mol)

>  <smiles>  (38) 
O=C(c1ccc(Cl)cc1)C1CCN(C(=O)c2ccc(Cl)cc2)CC1

>  <score_type>  (38) 
oracle

>  <origin>  (38) 
adg

>  <m_score__min__energy>  (38) 
-9.3699999999999992

>  <m_primary>  (38) 
energy

$$$$
38:0
     RDKit          3D

 52 54  0  0  0  0  0  0  0  0999 V2000
   -2.1040   24.8830  -28.1470 C   0  0  0  0  0  0  0  0  0  0  0  0
   -2.7800   25.3000  -29.3290 O   0  0  0  0  0  0  0  0  0  0  0  0
   -3.6010   24.4710  -30.1090 C   0  0  0  0  0  0  0  0  0  0  0  0
   -4.9660   24.7660  -30.1790 C   0  0  0  0  0  0  0  0  0  0  0  0
   -5.8220   23.9790  -30.9500 C   0  0  0  0  0  0  0  0  0  0  0  0
   -5.3220   22.8840  -31.6550 C   0  0  0  0  0  0  0  0  0  0  0  0
   -3.9570   22.5560  -31.5910 C   0  0  0  0  0  0  0  0  0  0  0  0
   -3.4420   21.3900  -32.3540 C   0  0  0  0  0  0  0  0  0  0  0  0
   -4.3030   20.5360  -33.0650 C   0  0  0  0  0  0  0  0  0  0  0  0
   -3.7760   19.4370  -33.7580 C   0  0  0  0  0  0  0  0  0  0  0  0
   -4.6810   18.4760  -34.4830 C   0  0  0  0  0  0  0  0  0  0  0  0
   -5.4160   17.6390  -33.5080 N   0  0  0  0  0  0  0  0  0  0  0  0
   -4.8560   16.2690  -33.4790 C   0  0  0  0  0  0  0  0  0  0  0  0
   -5.0340   15.6400  -32.1290 C   0  0  0  0  0  0  0  0  0  0  0  0
   -5.7320   16.3360  -31.0970 N   0  0  0  0  0  0  0  0  0  0  0  0
   -4.5570   14.4970  -31.9010 O   0  0  0  0  0  0  0  0  0  0  0  0
   -6.8730   17.6340  -33.7980 C   0  0  0  0  0  0  0  0  0  0  0  0
   -7.5770   18.6390  -32.9270 C   0  0  0  0  0  0  0  0  0  0  0  0
   -7.3850   20.0130  -33.1340 C   0  0  0  0  0  0  0  0  0  0  0  0
   -8.0300   20.9390  -32.3140 C   0  0  0  0  0  0  0  0  0  0  0  0
   -8.8690   20.4840  -31.2960 C   0  0  0  0  0  0  0  0  0  0  0  0
   -9.0520   19.1500  -31.1090 N   0  0  0  0  0  0  0  0  0  0  0  0
   -8.4340   18.2270  -31.8950 C   0  0  0  0  0  0  0  0  0  0  0  0
   -2.3940   19.2160  -33.7450 C   0  0  0  0  0  0  0  0  0  0  0  0
   -1.5600   20.0980  -33.0480 C   0  0  0  0  0  0  0  0  0  0  0  0
   -0.0840   19.8670  -33.0030 C   0  0  0  0  0  0  0  0  0  0  0  0
   -2.1020   21.1480  -32.3740 N   0  0  0  0  0  0  0  0  0  0  0  0
   -3.0970   23.3630  -30.8200 C   0  0  0  0  0  0  0  0  0  0  0  0
   -2.6626   25.2276  -27.2642 H   0  0  0  0  0  0  0  0  0  0  0  0
   -2.0352   23.7853  -28.1319 H   0  0  0  0  0  0  0  0  0  0  0  0
   -1.0921   25.3141  -28.1319 H   0  0  0  0  0  0  0  0  0  0  0  0
   -5.3680   25.6251  -29.6219 H   0  0  0  0  0  0  0  0  0  0  0  0
   -6.8935   24.2225  -31.0021 H   0  0  0  0  0  0  0  0  0  0  0  0
   -6.0019   22.2722  -32.2661 H   0  0  0  0  0  0  0  0  0  0  0  0
   -5.3858   20.7292  -33.0776 H   0  0  0  0  0  0  0  0  0  0  0  0
   -5.4007   19.0425  -35.0922 H   0  0  0  0  0  0  0  0  0  0  0  0
   -4.0735   17.8267  -35.1306 H   0  0  0  0  0  0  0  0  0  0  0  0
   -5.3711   15.6546  -34.2321 H   0  0  0  0  0  0  0  0  0  0  0  0
   -3.7795   16.3275  -33.6974 H   0  0  0  0  0  0  0  0  0  0  0  0
   -6.1320   17.2850  -31.2720 H   0  0  0  0  0  0  0  0  0  0  0  0
   -5.8650   15.8940  -30.1600 H   0  0  0  0  0  0  0  0  0  0  0  0
   -7.0345   17.8922  -34.8550 H   0  0  0  0  0  0  0  0  0  0  0  0
   -7.2778   16.6323  -33.5914 H   0  0  0  0  0  0  0  0  0  0  0  0
   -6.7257   20.3604  -33.9431 H   0  0  0  0  0  0  0  0  0  0  0  0
   -7.8787   22.0176  -32.4684 H   0  0  0  0  0  0  0  0  0  0  0  0
   -9.3829   21.2057  -30.6440 H   0  0  0  0  0  0  0  0  0  0  0  0
   -8.6067   17.1547  -31.7209 H   0  0  0  0  0  0  0  0  0  0  0  0
   -1.9660   18.3548  -34.2790 H   0  0  0  0  0  0  0  0  0  0  0  0
    0.2472   19.8152  -31.9553 H   0  0  0  0  0  0  0  0  0  0  0  0
    0.1546   18.9206  -33.5103 H   0  0  0  0  0  0  0  0  0  0  0  0
    0.4324   20.6953  -33.5103 H   0  0  0  0  0  0  0  0  0  0  0  0
   -2.0238   23.1265  -30.7725 H   0  0  0  0  0  0  0  0  0  0  0  0
  1  2  1  0
  2  3  1  0
  3  4  2  0
  4  5  1  0
  5  6  2  0
  6  7  1  0
  7  8  1  0
  8  9  2  0
  9 10  1  0
 10 11  1  0
 11 12  1  0
 12 13  1  0
 13 14  1  0
 14 15  1  0
 14 16  2  0
 12 17  1  0
 17 18  1  0
 18 19  2  0
 19 20  1  0
 20 21  2  0
 21 22  1  0
 22 23  2  0
 10 24  2  0
 24 25  1  0
 25 26  1  0
 25 27  2  0
  7 28  2  0
 28  3  1  0
 27  8  1  0
 23 18  1  0
  1 29  1  0
  1 30  1  0
  1 31  1  0
  4 32  1  0
  5 33  1  0
  6 34  1  0
  9 35  1  0
 11 36  1  0
 11 37  1  0
 13 38  1  0
 13 39  1  0
 15 40  1  0
 15 41  1  0
 17 42  1  0
 17 43  1  0
 19 44  1  0
 20 45  1  0
 21 46  1  0
 23 47  1  0
 24 48  1  0
 26 49  1  0
 26 50  1  0
 26 51  1  0
 28 52  1  0
M  END
>  <UniqueID>  (39) 
37

>  <SMILES>  (39) 
COc1cccc(-c2cc(CN(CC(N)=O)Cc3cccnc3)cc(C)n2)c1

>  <Energy>  (39) 
55.93335589094406

>  <Genealogy>  (39) 
COc1cccc(-c2cc(CN(CC(N)=O)Cc3cccnc3)cc(C)n2)c1 (3D coordinates assigned)
COc1cccc(-c2cc(CN(CC(N)=O)Cc3cccnc3)cc(C)n2)c1 (optimized conformer: 55.93335589094406 kcal/mol)

>  <smiles>  (39) 
COc1cccc(-c2cc(CN(CC(N)=O)Cc3cccnc3)cc(C)n2)c1

>  <score_type>  (39) 
oracle

>  <origin>  (39) 
adg

>  <m_score__min__energy>  (39) 
-9.5199999999999996

>  <m_primary>  (39) 
energy

$$$$
39:0
     RDKit          3D

 36 39  0  0  0  0  0  0  0  0999 V2000
   -3.3200   22.0500  -28.1840 C   0  0  0  0  0  0  0  0  0  0  0  0
   -2.0730   22.0460  -29.0620 C   0  0  0  0  0  0  0  0  0  0  0  0
   -2.1530   23.0680  -30.0540 O   0  0  0  0  0  0  0  0  0  0  0  0
   -3.2900   23.2910  -30.8390 C   0  0  0  0  0  0  0  0  0  0  0  0
   -3.8550   24.4180  -30.8440 O   0  0  0  0  0  0  0  0  0  0  0  0
   -3.8360   22.1930  -31.6610 C   0  0  0  0  0  0  0  0  0  0  0  0
   -5.2190   21.9640  -31.7020 C   0  0  0  0  0  0  0  0  0  0  0  0
   -5.7420   20.9210  -32.4390 C   0  0  0  0  0  0  0  0  0  0  0  0
   -4.9600   20.0720  -33.1460 N   0  0  0  0  0  0  0  0  0  0  0  0
   -3.6070   20.2490  -33.1560 C   0  0  0  0  0  0  0  0  0  0  0  0
   -2.8110   19.3740  -33.9010 C   0  0  0  0  0  0  0  0  0  0  0  0
   -1.4260   19.5470  -33.9430 C   0  0  0  0  0  0  0  0  0  0  0  0
   -0.8270   20.5980  -33.2470 C   0  0  0  0  0  0  0  0  0  0  0  0
    0.9130   20.8170  -33.3260 Cl  0  0  0  0  0  0  0  0  0  0  0  0
   -1.6070   21.4820  -32.4940 C   0  0  0  0  0  0  0  0  0  0  0  0
   -3.0060   21.3170  -32.4190 C   0  0  0  0  0  0  0  0  0  0  0  0
   -7.1880   20.8720  -32.2700 C   0  0  0  0  0  0  0  0  0  0  0  0
   -8.1330   20.0010  -32.8070 C   0  0  0  0  0  0  0  0  0  0  0  0
   -9.4820   20.1890  -32.4530 C   0  0  0  0  0  0  0  0  0  0  0  0
   -9.8530   21.2320  -31.5770 C   0  0  0  0  0  0  0  0  0  0  0  0
   -8.8810   22.0960  -31.0450 C   0  0  0  0  0  0  0  0  0  0  0  0
   -7.5500   21.8930  -31.4100 C   0  0  0  0  0  0  0  0  0  0  0  0
   -6.3420   22.6130  -31.0130 C   0  0  0  0  0  0  0  0  0  0  0  0
   -6.2840   23.5760  -30.2040 O   0  0  0  0  0  0  0  0  0  0  0  0
   -3.0228   22.0490  -27.1249 H   0  0  0  0  0  0  0  0  0  0  0  0
   -3.9155   22.9501  -28.3969 H   0  0  0  0  0  0  0  0  0  0  0  0
   -3.9212   21.1538  -28.3969 H   0  0  0  0  0  0  0  0  0  0  0  0
   -1.1877   22.2214  -28.4331 H   0  0  0  0  0  0  0  0  0  0  0  0
   -1.9964   21.0703  -29.5641 H   0  0  0  0  0  0  0  0  0  0  0  0
   -3.2772   18.5465  -34.4559 H   0  0  0  0  0  0  0  0  0  0  0  0
   -0.8046   18.8521  -34.5270 H   0  0  0  0  0  0  0  0  0  0  0  0
   -1.1258   22.3122  -31.9562 H   0  0  0  0  0  0  0  0  0  0  0  0
   -7.8338   19.1903  -33.4876 H   0  0  0  0  0  0  0  0  0  0  0  0
  -10.2525   19.5187  -32.8616 H   0  0  0  0  0  0  0  0  0  0  0  0
  -10.9109   21.3693  -31.3089 H   0  0  0  0  0  0  0  0  0  0  0  0
   -9.1617   22.9096  -30.3600 H   0  0  0  0  0  0  0  0  0  0  0  0
  1  2  1  0
  2  3  1  0
  3  4  1  0
  4  5  2  0
  4  6  1  0
  6  7  2  0
  7  8  1  0
  8  9  2  0
  9 10  1  0
 10 11  2  0
 11 12  1  0
 12 13  2  0
 13 14  1  0
 13 15  1  0
 15 16  2  0
  8 17  1  0
 17 18  2  0
 18 19  1  0
 19 20  2  0
 20 21  1  0
 21 22  2  0
 22 23  1  0
 23 24  2  0
 16  6  1  0
 22 17  1  0
 23  7  1  0
 16 10  1  0
  1 25  1  0
  1 26  1  0
  1 27  1  0
  2 28  1  0
  2 29  1  0
 11 30  1  0
 12 31  1  0
 15 32  1  0
 18 33  1  0
 19 34  1  0
 20 35  1  0
 21 36  1  0
M  END
>  <UniqueID>  (40) 
38

>  <SMILES>  (40) 
CCOC(=O)c1c2c(nc3ccc(Cl)cc13)-c1ccccc1C2=O

>  <Energy>  (40) 
82.05590393070119

>  <Genealogy>  (40) 
CCOC(=O)c1c2c(nc3ccc(Cl)cc13)-c1ccccc1C2=O (3D coordinates assigned)
CCOC(=O)c1c2c(nc3ccc(Cl)cc13)-c1ccccc1C2=O (nonaromatic ring conformer: 82.05590393070119 kcal/mol)

>  <smiles>  (40) 
CCOC(=O)c1c2c(nc3ccc(Cl)cc13)-c1ccccc1C2=O

>  <score_type>  (40) 
oracle

>  <origin>  (40) 
adg

>  <m_score__min__energy>  (40) 
-8.2599999999999998

>  <m_primary>  (40) 
energy

$$$$
40:0
     RDKit          3D

 37 40  0  0  0  0  0  0  0  0999 V2000
   -1.7540   25.0050  -28.1360 C   0  0  0  0  0  0  0  0  0  0  0  0
   -2.4880   25.2840  -29.3230 O   0  0  0  0  0  0  0  0  0  0  0  0
   -3.3870   24.3910  -29.9260 C   0  0  0  0  0  0  0  0  0  0  0  0
   -4.7980   24.5460  -29.8190 C   0  0  0  0  0  0  0  0  0  0  0  0
   -5.6680   23.6290  -30.4380 C   0  0  0  0  0  0  0  0  0  0  0  0
   -5.1000   22.5800  -31.1610 C   0  0  0  0  0  0  0  0  0  0  0  0
   -3.7500   22.4210  -31.2550 C   0  0  0  0  0  0  0  0  0  0  0  0
   -2.8600   23.3060  -30.6550 C   0  0  0  0  0  0  0  0  0  0  0  0
   -3.4530   21.3200  -31.9680 N   0  0  0  0  0  0  0  0  0  0  0  0
   -4.6750   20.8210  -32.2980 C   0  0  0  0  0  0  0  0  0  0  0  0
   -4.8260   19.6320  -33.1680 C   0  0  0  0  0  0  0  0  0  0  0  0
   -3.9600   18.5360  -33.0320 C   0  0  0  0  0  0  0  0  0  0  0  0
   -4.1070   17.4340  -33.8790 C   0  0  0  0  0  0  0  0  0  0  0  0
   -5.1040   17.4360  -34.8540 C   0  0  0  0  0  0  0  0  0  0  0  0
   -5.9420   18.5470  -34.9710 C   0  0  0  0  0  0  0  0  0  0  0  0
   -5.7820   19.6100  -34.1380 N   0  0  0  0  0  0  0  0  0  0  0  0
   -5.7060   21.5710  -31.8120 N   0  0  0  0  0  0  0  0  0  0  0  0
   -7.1190   21.3240  -31.8830 C   0  0  0  0  0  0  0  0  0  0  0  0
   -7.6150   20.0110  -31.8690 C   0  0  0  0  0  0  0  0  0  0  0  0
   -8.9930   19.7990  -31.9210 C   0  0  0  0  0  0  0  0  0  0  0  0
   -9.8620   20.8910  -31.9760 C   0  0  0  0  0  0  0  0  0  0  0  0
   -9.3350   22.1840  -31.9740 C   0  0  0  0  0  0  0  0  0  0  0  0
   -7.9890   22.3710  -31.9240 N   0  0  0  0  0  0  0  0  0  0  0  0
   -2.3734   25.2404  -27.2580 H   0  0  0  0  0  0  0  0  0  0  0  0
   -1.4798   23.9399  -28.1163 H   0  0  0  0  0  0  0  0  0  0  0  0
   -0.8415   25.6190  -28.1163 H   0  0  0  0  0  0  0  0  0  0  0  0
   -5.2120   25.3898  -29.2475 H   0  0  0  0  0  0  0  0  0  0  0  0
   -6.7596   23.7360  -30.3544 H   0  0  0  0  0  0  0  0  0  0  0  0
   -1.7733   23.1627  -30.7471 H   0  0  0  0  0  0  0  0  0  0  0  0
   -3.1717   18.5442  -32.2648 H   0  0  0  0  0  0  0  0  0  0  0  0
   -3.4377   16.5670  -33.7768 H   0  0  0  0  0  0  0  0  0  0  0  0
   -5.2290   16.5721  -35.5234 H   0  0  0  0  0  0  0  0  0  0  0  0
   -6.7314   18.5623  -35.7369 H   0  0  0  0  0  0  0  0  0  0  0  0
   -6.9236   19.1570  -31.8175 H   0  0  0  0  0  0  0  0  0  0  0  0
   -9.3939   18.7747  -31.9187 H   0  0  0  0  0  0  0  0  0  0  0  0
  -10.9498   20.7341  -32.0204 H   0  0  0  0  0  0  0  0  0  0  0  0
  -10.0093   23.0522  -32.0129 H   0  0  0  0  0  0  0  0  0  0  0  0
  1  2  1  0
  2  3  1  0
  3  4  2  0
  4  5  1  0
  5  6  2  0
  6  7  1  0
  7  8  2  0
  7  9  1  0
  9 10  2  0
 10 11  1  0
 11 12  2  0
 12 13  1  0
 13 14  2  0
 14 15  1  0
 15 16  2  0
 10 17  1  0
 17 18  1  0
 18 19  2  0
 19 20  1  0
 20 21  2  0
 21 22  1  0
 22 23  2  0
  8  3  1  0
 16 11  1  0
 23 18  1  0
 17  6  1  0
  1 24  1  0
  1 25  1  0
  1 26  1  0
  4 27  1  0
  5 28  1  0
  8 29  1  0
 12 30  1  0
 13 31  1  0
 14 32  1  0
 15 33  1  0
 19 34  1  0
 20 35  1  0
 21 36  1  0
 22 37  1  0
M  END
>  <UniqueID>  (41) 
39

>  <SMILES>  (41) 
COc1ccc2c(c1)nc(-c1ccccn1)n2-c1ccccn1

>  <Energy>  (41) 
87.95176380985944

>  <Genealogy>  (41) 
COc1ccc2c(c1)nc(-c1ccccn1)n2-c1ccccn1 (3D coordinates assigned)
COc1ccc2c(c1)nc(-c1ccccn1)n2-c1ccccn1 (optimized conformer: 87.95176380985944 kcal/mol)

>  <smiles>  (41) 
COc1ccc2c(c1)nc(-c1ccccn1)n2-c1ccccn1

>  <score_type>  (41) 
oracle

>  <origin>  (41) 
adg

>  <m_score__min__energy>  (41) 
-8.1199999999999992

>  <m_primary>  (41) 
energy

$$$$
41:0
     RDKit          3D

 33 33  0  0  0  0  0  0  0  0999 V2000
   -6.9065   24.1350  -29.7743 H   0  0  0  0  0  0  0  0  0  0  0  0
   -6.2360   24.3970  -30.6060 C   0  0  0  0  0  0  0  0  0  0  0  0
   -5.2730   25.4960  -30.4280 C   0  0  0  0  0  0  0  0  0  0  0  0
   -5.7170   26.6610  -30.2570 O   0  0  0  0  0  0  0  0  0  0  0  0
   -3.8510   25.2990  -30.4690 N   0  0  0  0  0  0  0  0  0  0  0  0
   -3.1070   24.1960  -29.8600 C   0  0  0  0  0  0  0  0  0  0  0  0
   -2.2974   23.8911  -30.5394 H   0  0  0  0  0  0  0  0  0  0  0  0
   -3.8022   23.3616  -29.6856 H   0  0  0  0  0  0  0  0  0  0  0  0
   -2.5000   24.6120  -28.5130 C   0  0  0  0  0  0  0  0  0  0  0  0
   -2.4543   23.7329  -27.8534 H   0  0  0  0  0  0  0  0  0  0  0  0
   -3.1343   25.3953  -28.0724 H   0  0  0  0  0  0  0  0  0  0  0  0
   -1.1350   25.1570  -28.6860 N   0  0  0  0  0  0  0  0  0  0  0  0
   -0.1190   24.0980  -28.5510 C   0  0  0  0  0  0  0  0  0  0  0  0
    0.0680   23.9031  -27.4847 H   0  0  0  0  0  0  0  0  0  0  0  0
   -0.4814   23.1785  -29.0338 H   0  0  0  0  0  0  0  0  0  0  0  0
    0.8148   24.4220  -29.0338 H   0  0  0  0  0  0  0  0  0  0  0  0
   -0.8740   26.2180  -27.7010 C   0  0  0  0  0  0  0  0  0  0  0  0
   -0.9748   25.8081  -26.6852 H   0  0  0  0  0  0  0  0  0  0  0  0
    0.1461   26.6051  -27.8406 H   0  0  0  0  0  0  0  0  0  0  0  0
   -1.5982   27.0342  -27.8406 H   0  0  0  0  0  0  0  0  0  0  0  0
   -6.3200   23.7070  -31.7500 C   0  0  0  0  0  0  0  0  0  0  0  0
   -5.7107   24.0429  -32.6020 H   0  0  0  0  0  0  0  0  0  0  0  0
   -7.1850   22.5170  -31.9380 C   0  0  0  0  0  0  0  0  0  0  0  0
   -8.5540   22.5040  -31.5950 C   0  0  0  0  0  0  0  0  0  0  0  0
   -9.0192   23.4034  -31.1652 H   0  0  0  0  0  0  0  0  0  0  0  0
   -9.3220   21.3530  -31.7990 C   0  0  0  0  0  0  0  0  0  0  0  0
  -10.3894   21.3522  -31.5330 H   0  0  0  0  0  0  0  0  0  0  0  0
   -8.7390   20.2050  -32.3390 C   0  0  0  0  0  0  0  0  0  0  0  0
   -9.4880   19.0920  -32.5350 F   0  0  0  0  0  0  0  0  0  0  0  0
   -7.3830   20.2020  -32.6710 C   0  0  0  0  0  0  0  0  0  0  0  0
   -6.9225   19.2960  -33.0919 H   0  0  0  0  0  0  0  0  0  0  0  0
   -6.6090   21.3500  -32.4690 C   0  0  0  0  0  0  0  0  0  0  0  0
   -5.5400   21.3391  -32.7281 H   0  0  0  0  0  0  0  0  0  0  0  0
  1  2  1  0
  2  3  1  0
  3  4  2  0
  3  5  1  0
  5  6  1  0
  6  7  1  0
  6  8  1  0
  6  9  1  0
  9 10  1  0
  9 11  1  0
  9 12  1  0
 12 13  1  0
 13 14  1  0
 13 15  1  0
 13 16  1  0
 12 17  1  0
 17 18  1  0
 17 19  1  0
 17 20  1  0
  2 21  2  0
 21 22  1  0
 21 23  1  0
 23 24  2  0
 24 25  1  0
 24 26  1  0
 26 27  1  0
 26 28  2  0
 28 29  1  0
 28 30  1  0
 30 31  1  0
 30 32  2  0
 32 33  1  0
 32 23  1  0
M  CHG  1   5  -1
M  END
>  <UniqueID>  (42) 
40

>  <SMILES>  (42) 
CN(C)CC[N-]C(=O)/C=C/c1ccc(F)cc1

>  <Energy>  (42) 
34.47794271664992

>  <Genealogy>  (42) 
CN(C)CC[N-]C(=O)C=Cc1ccc(F)cc1 (protonated)
CN(C)CC[N-]C(=O)/C=C/c1ccc(F)cc1 (cis-trans isomerization)
CN(C)CC[N-]C(=O)/C=C/c1ccc(F)cc1 (3D coordinates assigned)
CN(C)CC[N-]C(=O)/C=C/c1ccc(F)cc1 (optimized conformer: 34.47794271664992 kcal/mol)

>  <smiles>  (42) 
CN(C)CCNC(=O)C=Cc1ccc(F)cc1

>  <score_type>  (42) 
oracle

>  <origin>  (42) 
adg

>  <m_score__min__energy>  (42) 
-8.3200000000000003

>  <m_primary>  (42) 
energy

$$$$
42:0
     RDKit          3D

 33 36  0  0  0  0  0  0  0  0999 V2000
   -7.8600   23.4330  -32.2310 C   0  0  0  0  0  0  0  0  0  0  0  0
   -6.5400   23.6000  -31.5380 C   0  0  0  0  0  0  0  0  0  0  0  0
   -5.4340   22.8310  -31.9280 C   0  0  0  0  0  0  0  0  0  0  0  0
   -4.1940   23.0100  -31.3080 C   0  0  0  0  0  0  0  0  0  0  0  0
   -4.0340   23.9800  -30.3020 C   0  0  0  0  0  0  0  0  0  0  0  0
   -2.7670   24.1730  -29.6440 N   0  0  0  0  0  0  0  0  0  0  0  0
   -2.4390   25.2990  -29.0120 N   0  0  0  0  0  0  0  0  0  0  0  0
   -1.1870   25.1330  -28.5360 C   0  0  0  0  0  0  0  0  0  0  0  0
   -0.7090   23.8980  -28.8700 C   0  0  0  0  0  0  0  0  0  0  0  0
    0.5700   23.4890  -28.5090 C   0  0  0  0  0  0  0  0  0  0  0  0
    1.3440   24.3620  -27.7960 N   0  0  0  0  0  0  0  0  0  0  0  0
    0.8960   25.6080  -27.4390 C   0  0  0  0  0  0  0  0  0  0  0  0
    1.7220   26.4710  -26.7110 C   0  0  0  0  0  0  0  0  0  0  0  0
    1.2620   27.7430  -26.3510 C   0  0  0  0  0  0  0  0  0  0  0  0
   -0.0230   28.1630  -26.7190 C   0  0  0  0  0  0  0  0  0  0  0  0
   -0.4570   29.3970  -26.3650 F   0  0  0  0  0  0  0  0  0  0  0  0
   -0.8610   27.3120  -27.4470 C   0  0  0  0  0  0  0  0  0  0  0  0
   -0.4090   26.0360  -27.8100 C   0  0  0  0  0  0  0  0  0  0  0  0
   -1.7240   23.3080  -29.5770 C   0  0  0  0  0  0  0  0  0  0  0  0
   -1.6840   22.1700  -30.1170 O   0  0  0  0  0  0  0  0  0  0  0  0
   -5.1440   24.7490  -29.9160 C   0  0  0  0  0  0  0  0  0  0  0  0
   -6.3840   24.5690  -30.5370 C   0  0  0  0  0  0  0  0  0  0  0  0
   -8.6579   23.3321  -31.4806 H   0  0  0  0  0  0  0  0  0  0  0  0
   -8.0577   24.3133  -32.8603 H   0  0  0  0  0  0  0  0  0  0  0  0
   -7.8323   22.5312  -32.8603 H   0  0  0  0  0  0  0  0  0  0  0  0
   -5.5429   22.0824  -32.7266 H   0  0  0  0  0  0  0  0  0  0  0  0
   -3.3378   22.3883  -31.6088 H   0  0  0  0  0  0  0  0  0  0  0  0
    0.9473   22.4942  -28.7883 H   0  0  0  0  0  0  0  0  0  0  0  0
    2.7334   26.1498  -26.4214 H   0  0  0  0  0  0  0  0  0  0  0  0
    1.9135   28.4171  -25.7755 H   0  0  0  0  0  0  0  0  0  0  0  0
   -1.8703   27.6428  -27.7333 H   0  0  0  0  0  0  0  0  0  0  0  0
   -5.0371   25.4991  -29.1186 H   0  0  0  0  0  0  0  0  0  0  0  0
   -7.2410   25.1907  -30.2386 H   0  0  0  0  0  0  0  0  0  0  0  0
  1  2  1  0
  2  3  2  0
  3  4  1  0
  4  5  2  0
  5  6  1  0
  6  7  1  0
  7  8  1  0
  8  9  2  0
  9 10  1  0
 10 11  2  0
 11 12  1  0
 12 13  2  0
 13 14  1  0
 14 15  2  0
 15 16  1  0
 15 17  1  0
 17 18  2  0
  9 19  1  0
 19 20  2  0
  5 21  1  0
 21 22  2  0
 22  2  1  0
 19  6  1  0
 18  8  1  0
 18 12  1  0
  1 23  1  0
  1 24  1  0
  1 25  1  0
  3 26  1  0
  4 27  1  0
 10 28  1  0
 13 29  1  0
 14 30  1  0
 17 31  1  0
 21 32  1  0
 22 33  1  0
M  CHG  1   7  -1
M  END
>  <UniqueID>  (43) 
41

>  <SMILES>  (43) 
Cc1ccc(-n2[n-]c3c(cnc4ccc(F)cc43)c2=O)cc1

>  <Energy>  (43) 
86.40509301636892

>  <Genealogy>  (43) 
Cc1ccc(-n2[n-]c3c(cnc4ccc(F)cc43)c2=O)cc1 (protonated)
Cc1ccc(-n2[n-]c3c(cnc4ccc(F)cc43)c2=O)cc1 (3D coordinates assigned)
Cc1ccc(-n2[n-]c3c(cnc4ccc(F)cc43)c2=O)cc1 (optimized conformer: 86.40509301636892 kcal/mol)

>  <smiles>  (43) 
Cc1ccc(-n2[nH]c3c(cnc4ccc(F)cc43)c2=O)cc1

>  <score_type>  (43) 
oracle

>  <origin>  (43) 
adg

>  <m_score__min__energy>  (43) 
-8.1899999999999995

>  <m_primary>  (43) 
energy

$$$$
43:0
     RDKit          3D

 57 60  0  0  0  0  0  0  0  0999 V2000
   -2.4550   25.5190  -25.9500 C   0  0  0  0  0  0  0  0  0  0  0  0
   -3.3290   24.5820  -26.7810 C   0  0  0  0  0  0  0  0  0  0  0  0
   -2.5890   23.2790  -27.1100 C   0  0  0  0  0  0  0  0  0  0  0  0
   -2.3510   23.1750  -28.5660 N   0  0  0  0  0  0  0  0  0  0  0  0
   -2.7180   24.4200  -29.2900 C   0  0  0  0  0  0  0  0  0  0  0  0
   -4.1010   24.3530  -29.9590 C   0  0  0  0  0  0  0  0  0  0  0  0
   -4.2260   23.1560  -30.8010 N   0  0  0  0  0  0  0  0  0  0  0  0
   -5.2510   23.0990  -31.8150 C   0  0  0  0  0  0  0  0  0  0  0  0
   -5.7020   24.1670  -32.3100 O   0  0  0  0  0  0  0  0  0  0  0  0
   -5.7860   21.8110  -32.3090 C   0  0  0  0  0  0  0  0  0  0  0  0
   -4.8910   20.8960  -32.8750 C   0  0  0  0  0  0  0  0  0  0  0  0
   -5.3440   19.6470  -33.3260 C   0  0  0  0  0  0  0  0  0  0  0  0
   -4.3900   18.6750  -33.9190 C   0  0  0  0  0  0  0  0  0  0  0  0
   -4.8470   17.6340  -34.7460 C   0  0  0  0  0  0  0  0  0  0  0  0
   -3.9440   16.7230  -35.3020 C   0  0  0  0  0  0  0  0  0  0  0  0
   -2.5740   16.8320  -35.0450 C   0  0  0  0  0  0  0  0  0  0  0  0
   -1.7090   15.8930  -35.6260 O   0  0  0  0  0  0  0  0  0  0  0  0
   -2.1260   14.8460  -36.4950 C   0  0  0  0  0  0  0  0  0  0  0  0
   -2.1120   17.8730  -34.2170 C   0  0  0  0  0  0  0  0  0  0  0  0
   -3.0140   18.7850  -33.6610 C   0  0  0  0  0  0  0  0  0  0  0  0
   -6.6680   19.3330  -33.2180 N   0  0  0  0  0  0  0  0  0  0  0  0
   -7.5760   20.2050  -32.6950 C   0  0  0  0  0  0  0  0  0  0  0  0
   -8.9320   19.8460  -32.6160 C   0  0  0  0  0  0  0  0  0  0  0  0
   -9.8710   20.7400  -32.0990 C   0  0  0  0  0  0  0  0  0  0  0  0
   -9.4690   22.0040  -31.6660 C   0  0  0  0  0  0  0  0  0  0  0  0
   -8.1260   22.3770  -31.7360 C   0  0  0  0  0  0  0  0  0  0  0  0
   -7.1580   21.4800  -32.2350 C   0  0  0  0  0  0  0  0  0  0  0  0
   -3.2670   22.0600  -30.6120 C   0  0  0  0  0  0  0  0  0  0  0  0
   -2.9440   21.9340  -29.1220 C   0  0  0  0  0  0  0  0  0  0  0  0
   -2.6301   25.3313  -24.8804 H   0  0  0  0  0  0  0  0  0  0  0  0
   -1.3959   25.3377  -26.1855 H   0  0  0  0  0  0  0  0  0  0  0  0
   -2.7095   26.5629  -26.1855 H   0  0  0  0  0  0  0  0  0  0  0  0
   -4.2403   24.3435  -26.2130 H   0  0  0  0  0  0  0  0  0  0  0  0
   -3.5814   25.0871  -27.7250 H   0  0  0  0  0  0  0  0  0  0  0  0
   -1.6234   23.2675  -26.5831 H   0  0  0  0  0  0  0  0  0  0  0  0
   -3.2056   22.4271  -26.7874 H   0  0  0  0  0  0  0  0  0  0  0  0
   -2.7180   25.2535  -28.5722 H   0  0  0  0  0  0  0  0  0  0  0  0
   -1.9768   24.5603  -30.0905 H   0  0  0  0  0  0  0  0  0  0  0  0
   -4.8760   24.3255  -29.1789 H   0  0  0  0  0  0  0  0  0  0  0  0
   -4.2233   25.2414  -30.5960 H   0  0  0  0  0  0  0  0  0  0  0  0
   -3.8265   21.1575  -32.9668 H   0  0  0  0  0  0  0  0  0  0  0  0
   -5.9221   17.5356  -34.9570 H   0  0  0  0  0  0  0  0  0  0  0  0
   -4.3147   15.9131  -35.9475 H   0  0  0  0  0  0  0  0  0  0  0  0
   -2.4678   13.9879  -35.8976 H   0  0  0  0  0  0  0  0  0  0  0  0
   -2.9507   15.2027  -37.1295 H   0  0  0  0  0  0  0  0  0  0  0  0
   -1.2819   14.5381  -37.1295 H   0  0  0  0  0  0  0  0  0  0  0  0
   -1.0366   17.9691  -34.0067 H   0  0  0  0  0  0  0  0  0  0  0  0
   -2.6429   19.5953  -33.0162 H   0  0  0  0  0  0  0  0  0  0  0  0
   -6.9940   18.3910  -33.5340 H   0  0  0  0  0  0  0  0  0  0  0  0
   -9.2558   18.8539  -32.9638 H   0  0  0  0  0  0  0  0  0  0  0  0
  -10.9294   20.4476  -32.0328 H   0  0  0  0  0  0  0  0  0  0  0  0
  -10.2135   22.7092  -31.2679 H   0  0  0  0  0  0  0  0  0  0  0  0
   -7.8197   23.3784  -31.3994 H   0  0  0  0  0  0  0  0  0  0  0  0
   -3.7057   21.1190  -30.9754 H   0  0  0  0  0  0  0  0  0  0  0  0
   -2.3462   22.2698  -31.1760 H   0  0  0  0  0  0  0  0  0  0  0  0
   -3.8729   21.7110  -28.5766 H   0  0  0  0  0  0  0  0  0  0  0  0
   -2.2053   21.1273  -29.0055 H   0  0  0  0  0  0  0  0  0  0  0  0
  1  2  1  0
  2  3  1  0
  3  4  1  0
  4  5  1  0
  5  6  1  0
  6  7  1  0
  7  8  1  0
  8  9  2  0
  8 10  1  0
 10 11  2  0
 11 12  1  0
 12 13  1  0
 13 14  2  0
 14 15  1  0
 15 16  2  0
 16 17  1  0
 17 18  1  0
 16 19  1  0
 19 20  2  0
 12 21  2  0
 21 22  1  0
 22 23  2  0
 23 24  1  0
 24 25  2  0
 25 26  1  0
 26 27  2  0
  7 28  1  0
 28 29  1  0
 29  4  1  0
 27 10  1  0
 20 13  1  0
 27 22  1  0
  1 30  1  0
  1 31  1  0
  1 32  1  0
  2 33  1  0
  2 34  1  0
  3 35  1  0
  3 36  1  0
  5 37  1  0
  5 38  1  0
  6 39  1  0
  6 40  1  0
 11 41  1  0
 14 42  1  0
 15 43  1  0
 18 44  1  0
 18 45  1  0
 18 46  1  0
 19 47  1  0
 20 48  1  0
 21 49  1  0
 23 50  1  0
 24 51  1  0
 25 52  1  0
 26 53  1  0
 28 54  1  0
 28 55  1  0
 29 56  1  0
 29 57  1  0
M  CHG  1  21   1
M  END
>  <UniqueID>  (44) 
42

>  <SMILES>  (44) 
CCCN1CCN(C(=O)c2cc(-c3ccc(OC)cc3)[nH+]c3ccccc23)CC1

>  <Energy>  (44) 
79.56304370042056

>  <Genealogy>  (44) 
CCCN1CCN(C(=O)c2cc(-c3ccc(OC)cc3)[nH+]c3ccccc23)CC1 (protonated)
CCCN1CCN(C(=O)c2cc(-c3ccc(OC)cc3)[nH+]c3ccccc23)CC1 (3D coordinates assigned)
CCCN1CCN(C(=O)c2cc(-c3ccc(OC)cc3)[nH+]c3ccccc23)CC1 (nonaromatic ring conformer: 79.56304370042056 kcal/mol)

>  <smiles>  (44) 
CCCN1CCN(C(=O)c2cc(-c3ccc(OC)cc3)nc3ccccc23)CC1

>  <score_type>  (44) 
oracle

>  <origin>  (44) 
adg

>  <m_score__min__energy>  (44) 
-8.1199999999999992

>  <m_primary>  (44) 
energy

$$$$
44:0
     RDKit          3D

 51 52  0  0  0  0  0  0  0  0999 V2000
   -0.8320   26.4050  -24.0820 C   0  0  0  0  0  0  0  0  0  0  0  0
   -1.2370   27.1050  -25.3790 C   0  0  0  0  0  0  0  0  0  0  0  0
   -1.5740   26.1250  -26.5150 C   0  0  0  0  0  0  0  0  0  0  0  0
   -0.8900   26.4760  -27.8450 C   0  0  0  0  0  0  0  0  0  0  0  0
   -1.5820   25.9090  -28.9590 O   0  0  0  0  0  0  0  0  0  0  0  0
   -1.9610   24.5630  -29.0880 C   0  0  0  0  0  0  0  0  0  0  0  0
   -1.2390   23.5130  -28.4840 C   0  0  0  0  0  0  0  0  0  0  0  0
   -1.6330   22.1860  -28.6720 C   0  0  0  0  0  0  0  0  0  0  0  0
   -2.7440   21.8900  -29.4650 C   0  0  0  0  0  0  0  0  0  0  0  0
   -3.4720   22.9220  -30.0600 C   0  0  0  0  0  0  0  0  0  0  0  0
   -3.1000   24.2560  -29.8570 C   0  0  0  0  0  0  0  0  0  0  0  0
   -3.8580   25.2950  -30.4840 N   0  0  0  0  0  0  0  0  0  0  0  0
   -5.2840   25.2770  -30.6270 C   0  0  0  0  0  0  0  0  0  0  0  0
   -5.9550   26.1850  -30.0700 O   0  0  0  0  0  0  0  0  0  0  0  0
   -5.9610   24.2700  -31.5280 C   0  0  0  0  0  0  0  0  0  0  0  0
   -7.0300   23.4060  -30.8310 C   0  0  0  0  0  0  0  0  0  0  0  0
   -8.2530   23.0590  -31.7050 C   0  0  0  0  0  0  0  0  0  0  0  0
   -9.1260   21.9360  -31.1390 C   0  0  0  0  0  0  0  0  0  0  0  0
   -9.3310   20.9200  -32.1170 O   0  0  0  0  0  0  0  0  0  0  0  0
   -8.3910   19.9280  -32.4340 C   0  0  0  0  0  0  0  0  0  0  0  0
   -8.5410   18.5890  -32.0270 C   0  0  0  0  0  0  0  0  0  0  0  0
   -7.5670   17.6400  -32.3520 C   0  0  0  0  0  0  0  0  0  0  0  0
   -6.4390   18.0160  -33.0890 C   0  0  0  0  0  0  0  0  0  0  0  0
   -5.1090   16.7190  -33.5300 Br  0  0  0  0  0  0  0  0  0  0  0  0
   -6.2900   19.3420  -33.5050 C   0  0  0  0  0  0  0  0  0  0  0  0
   -7.2640   20.2930  -33.1800 C   0  0  0  0  0  0  0  0  0  0  0  0
   -1.1756   26.9988  -23.2221 H   0  0  0  0  0  0  0  0  0  0  0  0
   -1.2919   25.4064  -24.0452 H   0  0  0  0  0  0  0  0  0  0  0  0
    0.2629   26.3060  -24.0452 H   0  0  0  0  0  0  0  0  0  0  0  0
   -2.1221   27.7268  -25.1793 H   0  0  0  0  0  0  0  0  0  0  0  0
   -0.3768   27.7058  -25.7092 H   0  0  0  0  0  0  0  0  0  0  0  0
   -1.2531   25.1171  -26.2130 H   0  0  0  0  0  0  0  0  0  0  0  0
   -2.6597   26.1823  -26.6826 H   0  0  0  0  0  0  0  0  0  0  0  0
   -0.8687   27.5700  -27.9574 H   0  0  0  0  0  0  0  0  0  0  0  0
    0.1292   26.0626  -27.8269 H   0  0  0  0  0  0  0  0  0  0  0  0
   -0.3609   23.7401  -27.8615 H   0  0  0  0  0  0  0  0  0  0  0  0
   -1.0671   21.3725  -28.1945 H   0  0  0  0  0  0  0  0  0  0  0  0
   -3.0454   20.8436  -29.6207 H   0  0  0  0  0  0  0  0  0  0  0  0
   -4.3415   22.6858  -30.6909 H   0  0  0  0  0  0  0  0  0  0  0  0
   -6.4441   24.8161  -32.3517 H   0  0  0  0  0  0  0  0  0  0  0  0
   -5.1761   23.5800  -31.8714 H   0  0  0  0  0  0  0  0  0  0  0  0
   -6.5566   22.4644  -30.5158 H   0  0  0  0  0  0  0  0  0  0  0  0
   -7.4106   24.0038  -29.9897 H   0  0  0  0  0  0  0  0  0  0  0  0
   -8.8734   23.9618  -31.8055 H   0  0  0  0  0  0  0  0  0  0  0  0
   -7.8631   22.7026  -32.6698 H   0  0  0  0  0  0  0  0  0  0  0  0
   -8.6279   21.4981  -30.2614 H   0  0  0  0  0  0  0  0  0  0  0  0
  -10.1018   22.3550  -30.8524 H   0  0  0  0  0  0  0  0  0  0  0  0
   -9.4283   18.2879  -31.4508 H   0  0  0  0  0  0  0  0  0  0  0  0
   -7.6879   16.5959  -32.0276 H   0  0  0  0  0  0  0  0  0  0  0  0
   -5.4060   19.6385  -34.0886 H   0  0  0  0  0  0  0  0  0  0  0  0
   -7.1432   21.3344  -33.5130 H   0  0  0  0  0  0  0  0  0  0  0  0
  1  2  1  0
  2  3  1  0
  3  4  1  0
  4  5  1  0
  5  6  1  0
  6  7  2  0
  7  8  1  0
  8  9  2  0
  9 10  1  0
 10 11  2  0
 11 12  1  0
 12 13  1  0
 13 14  2  0
 13 15  1  0
 15 16  1  0
 16 17  1  0
 17 18  1  0
 18 19  1  0
 19 20  1  0
 20 21  2  0
 21 22  1  0
 22 23  2  0
 23 24  1  0
 23 25  1  0
 25 26  2  0
 11  6  1  0
 26 20  1  0
  1 27  1  0
  1 28  1  0
  1 29  1  0
  2 30  1  0
  2 31  1  0
  3 32  1  0
  3 33  1  0
  4 34  1  0
  4 35  1  0
  7 36  1  0
  8 37  1  0
  9 38  1  0
 10 39  1  0
 15 40  1  0
 15 41  1  0
 16 42  1  0
 16 43  1  0
 17 44  1  0
 17 45  1  0
 18 46  1  0
 18 47  1  0
 21 48  1  0
 22 49  1  0
 25 50  1  0
 26 51  1  0
M  CHG  1  12  -1
M  END
>  <UniqueID>  (45) 
43

>  <SMILES>  (45) 
CCCCOc1ccccc1[N-]C(=O)CCCCOc1ccc(Br)cc1

>  <Energy>  (45) 
45.95799038024

>  <Genealogy>  (45) 
CCCCOc1ccccc1[N-]C(=O)CCCCOc1ccc(Br)cc1 (protonated)
CCCCOc1ccccc1[N-]C(=O)CCCCOc1ccc(Br)cc1 (3D coordinates assigned)
CCCCOc1ccccc1[N-]C(=O)CCCCOc1ccc(Br)cc1 (optimized conformer: 45.95799038024 kcal/mol)

>  <smiles>  (45) 
CCCCOc1ccccc1NC(=O)CCCCOc1ccc(Br)cc1

>  <score_type>  (45) 
oracle

>  <origin>  (45) 
adg

>  <m_score__min__energy>  (45) 
-11.369999999999999

>  <m_primary>  (45) 
energy

$$$$
45:0
     RDKit          3D

 46 47  0  0  0  0  0  0  0  0999 V2000
   -9.1030   18.6290  -31.7190 C   0  0  0  0  0  0  0  0  0  0  0  0
   -7.6930   19.1680  -31.4360 C   0  0  0  0  0  0  0  0  0  0  0  0
   -7.3030   20.3090  -32.2940 N   0  0  0  0  0  0  0  0  0  0  0  0
   -8.3240   21.3810  -32.3430 C   0  0  0  0  0  0  0  0  0  0  0  0
   -8.2870   22.1800  -31.0310 C   0  0  0  0  0  0  0  0  0  0  0  0
   -7.1530   23.2110  -31.0190 C   0  0  0  0  0  0  0  0  0  0  0  0
   -5.8480   22.5500  -31.0570 N   0  0  0  0  0  0  0  0  0  0  0  0
   -4.6210   23.2780  -30.9360 C   0  0  0  0  0  0  0  0  0  0  0  0
   -4.6330   24.5380  -30.8930 O   0  0  0  0  0  0  0  0  0  0  0  0
   -3.3310   22.5590  -30.9130 C   0  0  0  0  0  0  0  0  0  0  0  0
   -2.5180   22.6320  -29.7670 C   0  0  0  0  0  0  0  0  0  0  0  0
   -2.9160   23.3450  -28.6820 F   0  0  0  0  0  0  0  0  0  0  0  0
   -1.2740   21.9960  -29.7430 C   0  0  0  0  0  0  0  0  0  0  0  0
   -0.8310   21.2780  -30.8540 C   0  0  0  0  0  0  0  0  0  0  0  0
   -1.6350   21.1830  -31.9900 C   0  0  0  0  0  0  0  0  0  0  0  0
   -2.8840   21.8130  -32.0280 C   0  0  0  0  0  0  0  0  0  0  0  0
   -3.8830   21.5890  -33.4620 Cl  0  0  0  0  0  0  0  0  0  0  0  0
   -6.8170   19.9000  -33.6280 C   0  0  0  0  0  0  0  0  0  0  0  0
   -6.1110   18.5690  -33.5490 C   0  0  0  0  0  0  0  0  0  0  0  0
   -6.8090   17.3850  -33.8400 C   0  0  0  0  0  0  0  0  0  0  0  0
   -6.1670   16.1470  -33.7400 C   0  0  0  0  0  0  0  0  0  0  0  0
   -4.8270   16.0820  -33.3490 C   0  0  0  0  0  0  0  0  0  0  0  0
   -4.1270   17.2540  -33.0530 C   0  0  0  0  0  0  0  0  0  0  0  0
   -4.7640   18.4950  -33.1540 C   0  0  0  0  0  0  0  0  0  0  0  0
   -9.6181   18.4321  -30.7672 H   0  0  0  0  0  0  0  0  0  0  0  0
   -9.6711   19.3734  -32.2962 H   0  0  0  0  0  0  0  0  0  0  0  0
   -9.0297   17.6955  -32.2962 H   0  0  0  0  0  0  0  0  0  0  0  0
   -7.6512   19.4941  -30.3863 H   0  0  0  0  0  0  0  0  0  0  0  0
   -6.9896   18.3506  -31.6531 H   0  0  0  0  0  0  0  0  0  0  0  0
   -8.1112   22.0524  -33.1879 H   0  0  0  0  0  0  0  0  0  0  0  0
   -9.3206   20.9341  -32.4736 H   0  0  0  0  0  0  0  0  0  0  0  0
   -9.2457   22.7050  -30.9076 H   0  0  0  0  0  0  0  0  0  0  0  0
   -8.1121   21.4726  -30.2070 H   0  0  0  0  0  0  0  0  0  0  0  0
   -7.2514   23.8653  -31.8978 H   0  0  0  0  0  0  0  0  0  0  0  0
   -7.2225   23.8002  -30.0927 H   0  0  0  0  0  0  0  0  0  0  0  0
   -5.7960   21.5170  -31.2100 H   0  0  0  0  0  0  0  0  0  0  0  0
   -0.6420   22.0617  -28.8451 H   0  0  0  0  0  0  0  0  0  0  0  0
    0.1529   20.7865  -30.8342 H   0  0  0  0  0  0  0  0  0  0  0  0
   -1.2852   20.6095  -32.8610 H   0  0  0  0  0  0  0  0  0  0  0  0
   -7.6723   19.8157  -34.3145 H   0  0  0  0  0  0  0  0  0  0  0  0
   -6.1084   20.6569  -33.9955 H   0  0  0  0  0  0  0  0  0  0  0  0
   -7.8641   17.4321  -34.1475 H   0  0  0  0  0  0  0  0  0  0  0  0
   -6.7176   15.2228  -33.9695 H   0  0  0  0  0  0  0  0  0  0  0  0
   -4.3230   15.1071  -33.2742 H   0  0  0  0  0  0  0  0  0  0  0  0
   -3.0738   17.2008  -32.7402 H   0  0  0  0  0  0  0  0  0  0  0  0
   -4.2090   19.4163  -32.9235 H   0  0  0  0  0  0  0  0  0  0  0  0
  1  2  1  0
  2  3  1  0
  3  4  1  0
  4  5  1  0
  5  6  1  0
  6  7  1  0
  7  8  1  0
  8  9  2  0
  8 10  1  0
 10 11  2  0
 11 12  1  0
 11 13  1  0
 13 14  2  0
 14 15  1  0
 15 16  2  0
 16 17  1  0
  3 18  1  0
 18 19  1  0
 19 20  2  0
 20 21  1  0
 21 22  2  0
 22 23  1  0
 23 24  2  0
 16 10  1  0
 24 19  1  0
  1 25  1  0
  1 26  1  0
  1 27  1  0
  2 28  1  0
  2 29  1  0
  4 30  1  0
  4 31  1  0
  5 32  1  0
  5 33  1  0
  6 34  1  0
  6 35  1  0
  7 36  1  0
 13 37  1  0
 14 38  1  0
 15 39  1  0
 18 40  1  0
 18 41  1  0
 20 42  1  0
 21 43  1  0
 22 44  1  0
 23 45  1  0
 24 46  1  0
M  END
>  <UniqueID>  (46) 
44

>  <SMILES>  (46) 
CCN(CCCNC(=O)c1c(F)cccc1Cl)Cc1ccccc1

>  <Energy>  (46) 
47.12680286965238

>  <Genealogy>  (46) 
CCN(CCCNC(=O)c1c(F)cccc1Cl)Cc1ccccc1 (3D coordinates assigned)
CCN(CCCNC(=O)c1c(F)cccc1Cl)Cc1ccccc1 (optimized conformer: 47.12680286965238 kcal/mol)

>  <smiles>  (46) 
CCN(CCCNC(=O)c1c(F)cccc1Cl)Cc1ccccc1

>  <score_type>  (46) 
oracle

>  <origin>  (46) 
adg

>  <m_score__min__energy>  (46) 
-7.8700000000000001

>  <m_primary>  (46) 
energy

$$$$
46:0
     RDKit          3D

 58 60  0  0  0  0  0  0  0  0999 V2000
   -2.7220   20.7080  -27.4500 C   0  0  0  0  0  0  0  0  0  0  0  0
   -2.7040   21.6840  -28.4680 O   0  0  0  0  0  0  0  0  0  0  0  0
   -3.9210   22.4100  -28.4880 C   0  0  2  0  0  0  0  0  0  0  0  0
   -4.6480   22.0210  -29.6360 O   0  0  0  0  0  0  0  0  0  0  0  0
   -4.6600   23.1040  -30.5370 C   0  0  2  0  0  0  0  0  0  0  0  0
   -3.5640   22.8790  -31.6150 C   0  0  0  0  0  0  0  0  0  0  0  0
   -2.7510   21.6730  -31.3560 N   0  0  0  0  0  0  0  0  0  0  0  0
   -1.9910   21.2590  -32.5490 C   0  0  0  0  0  0  0  0  0  0  0  0
   -2.8630   20.4130  -33.4840 C   0  0  0  0  0  0  0  0  0  0  0  0
   -3.8660   19.7160  -32.7450 O   0  0  0  0  0  0  0  0  0  0  0  0
   -4.5790   18.5870  -33.1840 C   0  0  0  0  0  0  0  0  0  0  0  0
   -4.2120   17.8730  -34.3430 C   0  0  0  0  0  0  0  0  0  0  0  0
   -4.9480   16.7610  -34.7540 C   0  0  0  0  0  0  0  0  0  0  0  0
   -6.0590   16.3350  -34.0170 C   0  0  0  0  0  0  0  0  0  0  0  0
   -6.8750   15.1670  -34.4890 C   0  0  0  0  0  0  0  0  0  0  0  0
   -6.4450   17.0510  -32.8770 C   0  0  0  0  0  0  0  0  0  0  0  0
   -5.7060   18.1650  -32.4460 C   0  0  0  0  0  0  0  0  0  0  0  0
   -6.1650   18.9310  -31.2290 C   0  0  0  0  0  0  0  0  0  0  0  0
   -7.2570   19.8970  -31.5990 C   0  0  0  0  0  0  0  0  0  0  0  0
   -7.0400   21.2820  -31.5040 C   0  0  0  0  0  0  0  0  0  0  0  0
   -8.0640   22.1800  -31.8180 C   0  0  0  0  0  0  0  0  0  0  0  0
   -9.3150   21.7030  -32.2210 C   0  0  0  0  0  0  0  0  0  0  0  0
   -9.5420   20.3270  -32.3090 C   0  0  0  0  0  0  0  0  0  0  0  0
   -8.5200   19.4260  -31.9980 C   0  0  0  0  0  0  0  0  0  0  0  0
   -4.4860   24.3800  -29.7170 C   0  0  2  0  0  0  0  0  0  0  0  0
   -3.8560   25.4080  -30.4370 O   0  0  0  0  0  0  0  0  0  0  0  0
   -3.6460   23.9180  -28.5540 C   0  0  1  0  0  0  0  0  0  0  0  0
   -4.0520   24.5680  -27.3770 O   0  0  0  0  0  0  0  0  0  0  0  0
   -2.7129   21.2027  -26.4676 H   0  0  0  0  0  0  0  0  0  0  0  0
   -3.6316   20.0966  -27.5442 H   0  0  0  0  0  0  0  0  0  0  0  0
   -1.8356   20.0635  -27.5442 H   0  0  0  0  0  0  0  0  0  0  0  0
   -4.4913   22.1972  -27.5718 H   0  0  0  0  0  0  0  0  0  0  0  0
   -5.6071   23.1929  -31.0893 H   0  0  0  0  0  0  0  0  0  0  0  0
   -4.0511   22.7716  -32.5954 H   0  0  0  0  0  0  0  0  0  0  0  0
   -2.8891   23.7473  -31.5900 H   0  0  0  0  0  0  0  0  0  0  0  0
   -3.3970   20.8940  -31.0890 H   0  0  0  0  0  0  0  0  0  0  0  0
   -2.0930   21.8370  -30.5590 H   0  0  0  0  0  0  0  0  0  0  0  0
   -1.6490   22.1551  -33.0876 H   0  0  0  0  0  0  0  0  0  0  0  0
   -1.1306   20.6543  -32.2264 H   0  0  0  0  0  0  0  0  0  0  0  0
   -3.3484   21.0716  -34.2193 H   0  0  0  0  0  0  0  0  0  0  0  0
   -2.2240   19.6771  -33.9941 H   0  0  0  0  0  0  0  0  0  0  0  0
   -3.3381   18.1952  -34.9282 H   0  0  0  0  0  0  0  0  0  0  0  0
   -4.6532   16.2159  -35.6628 H   0  0  0  0  0  0  0  0  0  0  0  0
   -7.2611   14.6143  -33.6198 H   0  0  0  0  0  0  0  0  0  0  0  0
   -7.7172   15.5297  -35.0965 H   0  0  0  0  0  0  0  0  0  0  0  0
   -6.2447   14.5010  -35.0965 H   0  0  0  0  0  0  0  0  0  0  0  0
   -7.3361   16.7377  -32.3133 H   0  0  0  0  0  0  0  0  0  0  0  0
   -6.5460   18.2235  -30.4778 H   0  0  0  0  0  0  0  0  0  0  0  0
   -5.3135   19.4944  -30.8197 H   0  0  0  0  0  0  0  0  0  0  0  0
   -6.0594   21.6614  -31.1809 H   0  0  0  0  0  0  0  0  0  0  0  0
   -7.8855   23.2632  -31.7480 H   0  0  0  0  0  0  0  0  0  0  0  0
  -10.1201   22.4105  -32.4686 H   0  0  0  0  0  0  0  0  0  0  0  0
  -10.5271   19.9523  -32.6237 H   0  0  0  0  0  0  0  0  0  0  0  0
   -8.7046   18.3437  -32.0657 H   0  0  0  0  0  0  0  0  0  0  0  0
   -5.4475   24.8223  -29.4171 H   0  0  0  0  0  0  0  0  0  0  0  0
   -3.4930   26.0410  -29.7640 H   0  0  0  0  0  0  0  0  0  0  0  0
   -2.5749   24.1410  -28.6682 H   0  0  0  0  0  0  0  0  0  0  0  0
   -4.4780   25.4190  -27.6550 H   0  0  0  0  0  0  0  0  0  0  0  0
  1  2  1  0
  2  3  1  0
  3  4  1  0
  4  5  1  0
  5  6  1  0
  6  7  1  0
  7  8  1  0
  8  9  1  0
  9 10  1  0
 10 11  1  0
 11 12  2  0
 12 13  1  0
 13 14  2  0
 14 15  1  0
 14 16  1  0
 16 17  2  0
 17 18  1  0
 18 19  1  0
 19 20  2  0
 20 21  1  0
 21 22  2  0
 22 23  1  0
 23 24  2  0
  5 25  1  0
 25 26  1  0
 25 27  1  0
 27 28  1  0
 27  3  1  0
 17 11  1  0
 24 19  1  0
  1 29  1  0
  1 30  1  0
  1 31  1  0
  3 32  1  1
  5 33  1  6
  6 34  1  0
  6 35  1  0
  7 36  1  0
  7 37  1  0
  8 38  1  0
  8 39  1  0
  9 40  1  0
  9 41  1  0
 12 42  1  0
 13 43  1  0
 15 44  1  0
 15 45  1  0
 15 46  1  0
 16 47  1  0
 18 48  1  0
 18 49  1  0
 20 50  1  0
 21 51  1  0
 22 52  1  0
 23 53  1  0
 24 54  1  0
 25 55  1  1
 26 56  1  0
 27 57  1  6
 28 58  1  0
M  CHG  1   7   1
M  END
>  <UniqueID>  (47) 
45

>  <SMILES>  (47) 
CO[C@@H]1O[C@H](C[NH2+]CCOc2ccc(C)cc2Cc2ccccc2)C(O)C1O

>  <Energy>  (47) 
62.38825613676545

>  <Genealogy>  (47) 
COC1OC(C[NH2+]CCOc2ccc(C)cc2Cc2ccccc2)C(O)C1O (protonated)
CO[C@@H]1O[C@H](C[NH2+]CCOc2ccc(C)cc2Cc2ccccc2)C(O)C1O (chirality)
CO[C@@H]1O[C@H](C[NH2+]CCOc2ccc(C)cc2Cc2ccccc2)C(O)C1O (3D coordinates assigned)
CO[C@@H]1O[C@H](C[NH2+]CCOc2ccc(C)cc2Cc2ccccc2)C(O)C1O (nonaromatic ring conformer: 62.38825613676545 kcal/mol)

>  <smiles>  (47) 
COC1OC(CNCCOc2ccc(C)cc2Cc2ccccc2)C(O)C1O

>  <score_type>  (47) 
oracle

>  <origin>  (47) 
adg

>  <m_score__min__energy>  (47) 
-7.0800000000000001

>  <m_primary>  (47) 
energy

$$$$
47:0
     RDKit          3D

 50 51  0  0  0  0  0  0  0  0999 V2000
   -6.9290   23.5010  -30.4950 C   0  0  0  0  0  0  0  0  0  0  0  0
   -5.8270   24.5230  -30.7970 C   0  0  0  0  0  0  0  0  0  0  0  0
   -6.0880   25.8530  -30.0850 C   0  0  0  0  0  0  0  0  0  0  0  0
   -4.4300   24.0110  -30.5160 C   0  0  0  0  0  0  0  0  0  0  0  0
   -3.5270   24.7710  -29.8550 N   0  0  0  0  0  0  0  0  0  0  0  0
   -2.4140   24.0680  -29.7190 N   0  0  0  0  0  0  0  0  0  0  0  0
   -1.2290   24.5570  -29.0250 C   0  0  0  0  0  0  0  0  0  0  0  0
   -2.5850   22.8520  -30.2650 C   0  0  0  0  0  0  0  0  0  0  0  0
   -1.5810   21.8280  -30.2980 N   0  0  0  0  0  0  0  0  0  0  0  0
   -0.9100   21.5370  -31.5630 C   0  0  0  0  0  0  0  0  0  0  0  0
   -1.0570   21.2780  -29.0500 C   0  0  0  0  0  0  0  0  0  0  0  0
   -3.8630   22.7590  -30.7870 C   0  0  0  0  0  0  0  0  0  0  0  0
   -4.4790   21.5380  -31.4120 C   0  0  0  0  0  0  0  0  0  0  0  0
   -5.1050   21.8690  -32.6970 N   0  0  0  0  0  0  0  0  0  0  0  0
   -5.4840   20.6720  -33.4700 C   0  0  0  0  0  0  0  0  0  0  0  0
   -6.7210   20.0480  -32.8620 C   0  0  0  0  0  0  0  0  0  0  0  0
   -7.6590   20.9070  -32.2600 C   0  0  0  0  0  0  0  0  0  0  0  0
   -8.8420   20.4080  -31.7180 C   0  0  0  0  0  0  0  0  0  0  0  0
   -9.1110   19.0450  -31.7700 C   0  0  0  0  0  0  0  0  0  0  0  0
   -8.2000   18.1720  -32.3660 C   0  0  0  0  0  0  0  0  0  0  0  0
   -6.9990   18.6530  -32.9310 C   0  0  0  0  0  0  0  0  0  0  0  0
   -6.0250   17.6690  -33.5540 C   0  0  0  0  0  0  0  0  0  0  0  0
   -4.8180   17.6400  -32.8760 F   0  0  0  0  0  0  0  0  0  0  0  0
   -6.5530   16.3920  -33.5240 F   0  0  0  0  0  0  0  0  0  0  0  0
   -5.7720   18.0330  -34.8640 F   0  0  0  0  0  0  0  0  0  0  0  0
   -7.0428   23.3955  -29.4060 H   0  0  0  0  0  0  0  0  0  0  0  0
   -7.8782   23.8456  -30.9312 H   0  0  0  0  0  0  0  0  0  0  0  0
   -6.6567   22.5286  -30.9312 H   0  0  0  0  0  0  0  0  0  0  0  0
   -5.8696   24.6972  -31.8823 H   0  0  0  0  0  0  0  0  0  0  0  0
   -6.0576   25.6982  -28.9964 H   0  0  0  0  0  0  0  0  0  0  0  0
   -5.3156   26.5811  -30.3735 H   0  0  0  0  0  0  0  0  0  0  0  0
   -7.0783   26.2352  -30.3735 H   0  0  0  0  0  0  0  0  0  0  0  0
   -1.3873   24.4917  -27.9384 H   0  0  0  0  0  0  0  0  0  0  0  0
   -0.3601   23.9439  -29.3064 H   0  0  0  0  0  0  0  0  0  0  0  0
   -1.0453   25.6044  -29.3064 H   0  0  0  0  0  0  0  0  0  0  0  0
    0.0821   21.1068  -31.3613 H   0  0  0  0  0  0  0  0  0  0  0  0
   -1.5108   20.8186  -32.1400 H   0  0  0  0  0  0  0  0  0  0  0  0
   -0.7961   22.4666  -32.1400 H   0  0  0  0  0  0  0  0  0  0  0  0
   -1.5366   21.7814  -28.1976 H   0  0  0  0  0  0  0  0  0  0  0  0
   -1.2702   20.1997  -29.0064 H   0  0  0  0  0  0  0  0  0  0  0  0
    0.0303   21.4388  -29.0064 H   0  0  0  0  0  0  0  0  0  0  0  0
   -3.6959   20.7831  -31.5763 H   0  0  0  0  0  0  0  0  0  0  0  0
   -5.2520   21.1471  -30.7340 H   0  0  0  0  0  0  0  0  0  0  0  0
   -4.4020   22.4120  -33.2520 H   0  0  0  0  0  0  0  0  0  0  0  0
   -5.6924   20.9591  -34.5112 H   0  0  0  0  0  0  0  0  0  0  0  0
   -4.6586   19.9452  -33.4475 H   0  0  0  0  0  0  0  0  0  0  0  0
   -7.4557   21.9872  -32.2166 H   0  0  0  0  0  0  0  0  0  0  0  0
   -9.5634   21.0931  -31.2487 H   0  0  0  0  0  0  0  0  0  0  0  0
  -10.0448   18.6536  -31.3400 H   0  0  0  0  0  0  0  0  0  0  0  0
   -8.4206   17.0948  -32.3960 H   0  0  0  0  0  0  0  0  0  0  0  0
  1  2  1  0
  2  3  1  0
  2  4  1  0
  4  5  2  0
  5  6  1  0
  6  7  1  0
  6  8  1  0
  8  9  1  0
  9 10  1  0
  9 11  1  0
  8 12  2  0
 12 13  1  0
 13 14  1  0
 14 15  1  0
 15 16  1  0
 16 17  2  0
 17 18  1  0
 18 19  2  0
 19 20  1  0
 20 21  2  0
 21 22  1  0
 22 23  1  0
 22 24  1  0
 22 25  1  0
 12  4  1  0
 21 16  1  0
  1 26  1  0
  1 27  1  0
  1 28  1  0
  2 29  1  0
  3 30  1  0
  3 31  1  0
  3 32  1  0
  7 33  1  0
  7 34  1  0
  7 35  1  0
 10 36  1  0
 10 37  1  0
 10 38  1  0
 11 39  1  0
 11 40  1  0
 11 41  1  0
 13 42  1  0
 13 43  1  0
 14 44  1  0
 15 45  1  0
 15 46  1  0
 17 47  1  0
 18 48  1  0
 19 49  1  0
 20 50  1  0
M  END
>  <UniqueID>  (48) 
46

>  <SMILES>  (48) 
CC(C)c1nn(C)c(N(C)C)c1CNCc1ccccc1C(F)(F)F

>  <Energy>  (48) 
80.36940617665513

>  <Genealogy>  (48) 
CC(C)c1nn(C)c(N(C)C)c1CNCc1ccccc1C(F)(F)F (3D coordinates assigned)
CC(C)c1nn(C)c(N(C)C)c1CNCc1ccccc1C(F)(F)F (optimized conformer: 80.36940617665513 kcal/mol)

>  <smiles>  (48) 
CC(C)c1nn(C)c(N(C)C)c1CNCc1ccccc1C(F)(F)F

>  <score_type>  (48) 
oracle

>  <origin>  (48) 
adg

>  <m_score__min__energy>  (48) 
-7.6500000000000004

>  <m_primary>  (48) 
energy

$$$$
48:0
     RDKit          3D

 72 77  0  0  0  0  0  0  0  0999 V2000
   -4.5753   24.7721  -29.9854 H   0  0  0  0  0  0  0  0  0  0  0  0
   -4.9600   23.9080  -30.5470 C   0  0  0  0  0  0  0  0  0  0  0  0
   -6.2930   23.6520  -30.5630 N   0  0  0  0  0  0  0  0  0  0  0  0
   -6.8120   22.5990  -31.2450 C   0  0  0  0  0  0  0  0  0  0  0  0
   -8.1940   22.3790  -31.2330 C   0  0  0  0  0  0  0  0  0  0  0  0
   -8.8523   23.0569  -30.6699 H   0  0  0  0  0  0  0  0  0  0  0  0
   -8.7400   21.3010  -31.9340 C   0  0  0  0  0  0  0  0  0  0  0  0
   -9.8271   21.1332  -31.9236 H   0  0  0  0  0  0  0  0  0  0  0  0
   -7.9080   20.4360  -32.6480 C   0  0  0  0  0  0  0  0  0  0  0  0
   -8.3427   19.5893  -33.1996 H   0  0  0  0  0  0  0  0  0  0  0  0
   -6.5260   20.6410  -32.6650 C   0  0  0  0  0  0  0  0  0  0  0  0
   -5.8779   19.9531  -33.2278 H   0  0  0  0  0  0  0  0  0  0  0  0
   -5.9570   21.7260  -31.9640 C   0  0  0  0  0  0  0  0  0  0  0  0
   -4.5650   21.9710  -31.9570 C   0  0  0  0  0  0  0  0  0  0  0  0
   -3.7660   21.1720  -32.6130 N   0  0  0  0  0  0  0  0  0  0  0  0
   -3.6580   19.7230  -32.4480 C   0  0  0  0  0  0  0  0  0  0  0  0
   -4.4577   19.2291  -33.0195 H   0  0  0  0  0  0  0  0  0  0  0  0
   -3.7555   19.4689  -31.3822 H   0  0  0  0  0  0  0  0  0  0  0  0
   -2.2890   19.2440  -32.9640 C   0  0  1  0  0  0  0  0  0  0  0  0
   -2.3510   18.1467  -32.9189 H   0  0  0  0  0  0  0  0  0  0  0  0
   -2.0720   19.7790  -34.2330 O   0  0  0  0  0  0  0  0  0  0  0  0
   -1.1970   20.8750  -34.0470 C   0  0  2  0  0  0  0  0  0  0  0  0
   -1.7673   21.7945  -34.2451 H   0  0  0  0  0  0  0  0  0  0  0  0
   -0.0360   20.8150  -35.0170 C   0  0  0  0  0  0  0  0  0  0  0  0
    0.8040   21.9290  -35.2210 C   0  0  0  0  0  0  0  0  0  0  0  0
    0.5974   22.8724  -34.6945 H   0  0  0  0  0  0  0  0  0  0  0  0
    1.8980   21.8430  -36.0880 C   0  0  0  0  0  0  0  0  0  0  0  0
    2.5381   22.7222  -36.2533 H   0  0  0  0  0  0  0  0  0  0  0  0
    2.1790   20.6430  -36.7440 C   0  0  0  0  0  0  0  0  0  0  0  0
    3.0369   20.5788  -37.4295 H   0  0  0  0  0  0  0  0  0  0  0  0
    1.3710   19.5240  -36.5300 C   0  0  0  0  0  0  0  0  0  0  0  0
    1.5964   18.5776  -37.0433 H   0  0  0  0  0  0  0  0  0  0  0  0
    0.2770   19.6050  -35.6650 C   0  0  0  0  0  0  0  0  0  0  0  0
   -0.3454   18.7154  -35.4886 H   0  0  0  0  0  0  0  0  0  0  0  0
   -0.7200   20.9190  -32.7170 O   0  0  0  0  0  0  0  0  0  0  0  0
   -1.0880   19.7020  -32.1520 C   0  0  1  0  0  0  0  0  0  0  0  0
   -0.3230   18.9134  -32.2056 H   0  0  0  0  0  0  0  0  0  0  0  0
   -1.2900   19.8610  -30.6250 C   0  0  0  0  0  0  0  0  0  0  0  0
   -0.3321   19.6639  -30.1214 H   0  0  0  0  0  0  0  0  0  0  0  0
   -2.0674   19.1461  -30.3176 H   0  0  0  0  0  0  0  0  0  0  0  0
   -1.7560   21.2200  -30.2440 N   0  0  0  0  0  0  0  0  0  0  0  0
   -2.2980   21.6220  -31.0460 H   0  0  0  0  0  0  0  0  0  0  0  0
   -2.6800   21.1760  -29.0680 C   0  0  0  0  0  0  0  0  0  0  0  0
   -2.9976   20.1340  -28.9152 H   0  0  0  0  0  0  0  0  0  0  0  0
   -3.5235   21.8436  -29.2979 H   0  0  0  0  0  0  0  0  0  0  0  0
   -2.0480   21.6860  -27.7640 C   0  0  0  0  0  0  0  0  0  0  0  0
   -1.2386   21.0053  -27.4615 H   0  0  0  0  0  0  0  0  0  0  0  0
   -2.8192   21.7222  -26.9804 H   0  0  0  0  0  0  0  0  0  0  0  0
   -1.5000   23.0350  -27.9620 N   0  0  0  0  0  0  0  0  0  0  0  0
   -1.4280   23.9730  -26.8660 C   0  0  0  0  0  0  0  0  0  0  0  0
   -2.2510   25.1130  -26.8450 C   0  0  0  0  0  0  0  0  0  0  0  0
   -2.9584   25.2900  -27.6686 H   0  0  0  0  0  0  0  0  0  0  0  0
   -2.1780   26.0230  -25.7870 C   0  0  0  0  0  0  0  0  0  0  0  0
   -2.8295   26.9093  -25.7850 H   0  0  0  0  0  0  0  0  0  0  0  0
   -1.2850   25.8180  -24.7310 C   0  0  0  0  0  0  0  0  0  0  0  0
   -1.2500   26.7610  -23.6930 O   0  0  0  0  0  0  0  0  0  0  0  0
   -0.0690   27.1520  -23.0020 C   0  0  0  0  0  0  0  0  0  0  0  0
   -0.2428   27.0945  -21.9173 H   0  0  0  0  0  0  0  0  0  0  0  0
    0.7566   26.4793  -23.2773 H   0  0  0  0  0  0  0  0  0  0  0  0
    0.1920   28.1845  -23.2773 H   0  0  0  0  0  0  0  0  0  0  0  0
   -0.4560   24.6820  -24.7470 C   0  0  0  0  0  0  0  0  0  0  0  0
    0.2532   24.5110  -23.9237 H   0  0  0  0  0  0  0  0  0  0  0  0
   -0.5280   23.7690  -25.8030 C   0  0  0  0  0  0  0  0  0  0  0  0
    0.1244   22.8833  -25.8034 H   0  0  0  0  0  0  0  0  0  0  0  0
   -0.9530   23.3850  -29.2790 C   0  0  0  0  0  0  0  0  0  0  0  0
   -0.0527   24.0030  -29.1465 H   0  0  0  0  0  0  0  0  0  0  0  0
   -1.7110   23.9448  -29.8465 H   0  0  0  0  0  0  0  0  0  0  0  0
   -0.5860   22.1140  -30.0510 C   0  0  0  0  0  0  0  0  0  0  0  0
    0.1878   21.5694  -29.4901 H   0  0  0  0  0  0  0  0  0  0  0  0
   -0.2218   22.4145  -31.0445 H   0  0  0  0  0  0  0  0  0  0  0  0
   -4.0760   23.0810  -31.2390 C   0  0  0  0  0  0  0  0  0  0  0  0
   -2.9971   23.2948  -31.2246 H   0  0  0  0  0  0  0  0  0  0  0  0
  1  2  1  0
  2  3  1  0
  3  4  1  0
  4  5  2  0
  5  6  1  0
  5  7  1  0
  7  8  1  0
  7  9  2  0
  9 10  1  0
  9 11  1  0
 11 12  1  0
 11 13  2  0
 13 14  1  0
 14 15  2  0
 15 16  1  0
 16 17  1  0
 16 18  1  0
 16 19  1  0
 19 20  1  6
 19 21  1  0
 21 22  1  0
 22 23  1  6
 22 24  1  0
 24 25  2  0
 25 26  1  0
 25 27  1  0
 27 28  1  0
 27 29  2  0
 29 30  1  0
 29 31  1  0
 31 32  1  0
 31 33  2  0
 33 34  1  0
 22 35  1  0
 35 36  1  0
 36 37  1  1
 36 38  1  0
 38 39  1  0
 38 40  1  0
 38 41  1  0
 41 42  1  0
 41 43  1  0
 43 44  1  0
 43 45  1  0
 43 46  1  0
 46 47  1  0
 46 48  1  0
 46 49  1  0
 49 50  1  0
 50 51  2  0
 51 52  1  0
 51 53  1  0
 53 54  1  0
 53 55  2  0
 55 56  1  0
 56 57  1  0
 57 58  1  0
 57 59  1  0
 57 60  1  0
 55 61  1  0
 61 62  1  0
 61 63  2  0
 63 64  1  0
 49 65  1  0
 65 66  1  0
 65 67  1  0
 65 68  1  0
 68 69  1  0
 68 70  1  0
 14 71  1  0
 71 72  1  0
 71  2  2  0
 13  4  1  0
 36 19  1  0
 68 41  1  0
 33 24  1  0
 63 50  1  0
M  CHG  2   3  -1  41   1
M  END
>  <UniqueID>  (49) 
47

>  <SMILES>  (49) 
COc1ccc(N2CC[NH+](C[C@@H]3O[C@@H](c4ccccc4)OC3C/N=c3\cc[n-]c4ccccc34)CC2)cc1

>  <Energy>  (49) 
95.86314093619731

>  <Genealogy>  (49) 
COc1ccc(N2CC[NH+](CC3OC(c4ccccc4)OC3CN=c3cc[n-]c4ccccc34)CC2)cc1 (protonated)
COc1ccc(N2CC[NH+](C[C@@H]3O[C@@H](c4ccccc4)OC3CN=c3cc[n-]c4ccccc34)CC2)cc1 (chirality)
COc1ccc(N2CC[NH+](C[C@@H]3O[C@@H](c4ccccc4)OC3C/N=c3\cc[n-]c4ccccc34)CC2)cc1 (cis-trans isomerization)
COc1ccc(N2CC[NH+](C[C@@H]3O[C@@H](c4ccccc4)OC3C/N=c3\cc[n-]c4ccccc34)CC2)cc1 (3D coordinates assigned)
COc1ccc(N2CC[NH+](C[C@@H]3O[C@@H](c4ccccc4)OC3C/N=c3\cc[n-]c4ccccc34)CC2)cc1 (nonaromatic ring conformer: 95.86314093619731 kcal/mol)

>  <smiles>  (49) 
COc1ccc(N2CCN(CC3OC(c4ccccc4)OC3CN=c3cc[nH]c4ccccc34)CC2)cc1

>  <score_type>  (49) 
oracle

>  <origin>  (49) 
adg

>  <m_score__min__energy>  (49) 
-9.6199999999999992

>  <m_primary>  (49) 
energy

$$$$
