0:0
     RDKit          3D

 43 45  0  0  0  0  0  0  0  0999 V2000
   -1.4140   25.2830  -27.8190 C   0  0  0  0  0  0  0  0  0  0  0  0
   -2.1950   25.4370  -29.0000 O   0  0  0  0  0  0  0  0  0  0  0  0
   -3.1810   24.5330  -29.4230 C   0  0  0  0  0  0  0  0  0  0  0  0
   -2.8810   23.4330  -30.2430 C   0  0  0  0  0  0  0  0  0  0  0  0
   -3.9160   22.5590  -30.6110 C   0  0  0  0  0  0  0  0  0  0  0  0
   -3.6560   21.3800  -31.3990 N   0  0  0  0  0  0  0  0  0  0  0  0
   -3.8520   20.0280  -30.8730 C   0  0  0  0  0  0  0  0  0  0  0  0
   -4.9580   19.3280  -31.6650 C   0  0  0  0  0  0  0  0  0  0  0  0
   -4.8700   19.5770  -33.2000 C   0  0  0  0  0  0  0  0  0  0  0  0
   -6.1640   20.1930  -33.8000 C   0  0  0  0  0  0  0  0  0  0  0  0
   -7.1820   20.6720  -32.7900 C   0  0  0  0  0  0  0  0  0  0  0  0
   -7.1630   22.0070  -32.3490 C   0  0  0  0  0  0  0  0  0  0  0  0
   -8.0960   22.4550  -31.4080 C   0  0  0  0  0  0  0  0  0  0  0  0
   -9.0690   21.5810  -30.9170 C   0  0  0  0  0  0  0  0  0  0  0  0
   -9.1210   20.2650  -31.3780 C   0  0  0  0  0  0  0  0  0  0  0  0
   -8.1870   19.8110  -32.3150 C   0  0  0  0  0  0  0  0  0  0  0  0
   -3.5660   20.2970  -33.6440 C   0  0  0  0  0  0  0  0  0  0  0  0
   -3.1980   21.5250  -32.7850 C   0  0  0  0  0  0  0  0  0  0  0  0
   -5.1750   22.7970  -30.1560 N   0  0  0  0  0  0  0  0  0  0  0  0
   -5.4530   23.8690  -29.3740 C   0  0  0  0  0  0  0  0  0  0  0  0
   -4.4640   24.7280  -29.0150 N   0  0  0  0  0  0  0  0  0  0  0  0
   -2.0567   25.4097  -26.9353 H   0  0  0  0  0  0  0  0  0  0  0  0
   -0.9648   24.2790  -27.8048 H   0  0  0  0  0  0  0  0  0  0  0  0
   -0.6173   26.0413  -27.8048 H   0  0  0  0  0  0  0  0  0  0  0  0
   -1.8521   23.2592  -30.5911 H   0  0  0  0  0  0  0  0  0  0  0  0
   -2.9159   19.4582  -30.9683 H   0  0  0  0  0  0  0  0  0  0  0  0
   -4.1401   20.0852  -29.8129 H   0  0  0  0  0  0  0  0  0  0  0  0
   -4.8864   18.2456  -31.4824 H   0  0  0  0  0  0  0  0  0  0  0  0
   -5.9168   19.7442  -31.3223 H   0  0  0  0  0  0  0  0  0  0  0  0
   -4.7978   18.5754  -33.6490 H   0  0  0  0  0  0  0  0  0  0  0  0
   -5.8739   21.0518  -34.4231 H   0  0  0  0  0  0  0  0  0  0  0  0
   -6.6525   19.3839  -34.3629 H   0  0  0  0  0  0  0  0  0  0  0  0
   -6.4099   22.7033  -32.7464 H   0  0  0  0  0  0  0  0  0  0  0  0
   -8.0635   23.4961  -31.0544 H   0  0  0  0  0  0  0  0  0  0  0  0
   -9.7940   21.9302  -30.1671 H   0  0  0  0  0  0  0  0  0  0  0  0
   -9.8985   19.5829  -31.0036 H   0  0  0  0  0  0  0  0  0  0  0  0
   -8.2390   18.7754  -32.6821 H   0  0  0  0  0  0  0  0  0  0  0  0
   -2.7374   19.5758  -33.5878 H   0  0  0  0  0  0  0  0  0  0  0  0
   -3.7407   20.6664  -34.6653 H   0  0  0  0  0  0  0  0  0  0  0  0
   -2.1047   21.6460  -32.7875 H   0  0  0  0  0  0  0  0  0  0  0  0
   -3.6953   22.4054  -33.2181 H   0  0  0  0  0  0  0  0  0  0  0  0
   -6.4828   24.0437  -29.0291 H   0  0  0  0  0  0  0  0  0  0  0  0
   -4.6940   25.5460  -28.4080 H   0  0  0  0  0  0  0  0  0  0  0  0
  1  2  1  0
  2  3  1  0
  3  4  2  0
  4  5  1  0
  5  6  1  0
  6  7  1  0
  7  8  1  0
  8  9  1  0
  9 10  1  0
 10 11  1  0
 11 12  2  0
 12 13  1  0
 13 14  2  0
 14 15  1  0
 15 16  2  0
  9 17  1  0
 17 18  1  0
  5 19  2  0
 19 20  1  0
 20 21  2  0
 21  3  1  0
 18  6  1  0
 16 11  1  0
  1 22  1  0
  1 23  1  0
  1 24  1  0
  4 25  1  0
  7 26  1  0
  7 27  1  0
  8 28  1  0
  8 29  1  0
  9 30  1  0
 10 31  1  0
 10 32  1  0
 12 33  1  0
 13 34  1  0
 14 35  1  0
 15 36  1  0
 16 37  1  0
 17 38  1  0
 17 39  1  0
 18 40  1  0
 18 41  1  0
 20 42  1  0
 21 43  1  0
M  CHG  1  21   1
M  END
>  <UniqueID>  (1) 
1

>  <SMILES>  (1) 
COc1cc(N2CCC(Cc3ccccc3)CC2)nc[nH+]1

>  <Energy>  (1) 
49.045149979719774

>  <Genealogy>  (1) 
COc1cc(N2CCC(Cc3ccccc3)CC2)nc[nH+]1 (protonated)
COc1cc(N2CCC(Cc3ccccc3)CC2)nc[nH+]1 (3D coordinates assigned)
COc1cc(N2CCC(Cc3ccccc3)CC2)nc[nH+]1 (nonaromatic ring conformer: 49.045149979719774 kcal/mol)

>  <smiles>  (1) 
COc1cc(N2CCC(Cc3ccccc3)CC2)ncn1

>  <score_type>  (1) 
oracle

>  <origin>  (1) 
adg

>  <m_score__min__energy>  (1) 
-6.7199999999999998

>  <m_primary>  (1) 
energy

$$$$
1:0
     RDKit          3D

 48 51  0  0  0  0  0  0  0  0999 V2000
   -6.9230   23.6130  -30.1070 C   0  0  0  0  0  0  0  0  0  0  0  0
   -7.5390   23.0780  -31.2740 O   0  0  0  0  0  0  0  0  0  0  0  0
   -7.7050   21.7070  -31.5310 C   0  0  0  0  0  0  0  0  0  0  0  0
   -8.9820   21.1150  -31.6010 C   0  0  0  0  0  0  0  0  0  0  0  0
   -9.1150   19.7570  -31.9100 C   0  0  0  0  0  0  0  0  0  0  0  0
   -7.9830   18.9810  -32.1570 C   0  0  0  0  0  0  0  0  0  0  0  0
   -6.7130   19.5550  -32.0830 C   0  0  0  0  0  0  0  0  0  0  0  0
   -6.5630   20.9080  -31.7470 C   0  0  0  0  0  0  0  0  0  0  0  0
   -5.2410   21.4640  -31.6790 N   0  0  0  0  0  0  0  0  0  0  0  0
   -4.2360   21.2110  -32.6720 C   0  0  0  0  0  0  0  0  0  0  0  0
   -4.4810   20.4650  -33.6580 O   0  0  0  0  0  0  0  0  0  0  0  0
   -2.9160   21.9200  -32.6000 C   0  0  0  0  0  0  0  0  0  0  0  0
   -2.7000   22.4330  -31.2500 N   0  0  0  0  0  0  0  0  0  0  0  0
   -3.4970   23.4070  -30.5990 C   0  0  0  0  0  0  0  0  0  0  0  0
   -4.2320   24.2240  -31.2120 O   0  0  0  0  0  0  0  0  0  0  0  0
   -3.4070   23.3630  -29.1800 N   0  0  0  0  0  0  0  0  0  0  0  0
   -2.5370   22.2370  -28.8270 C   0  0  2  0  0  0  0  0  0  0  0  0
   -3.3770   21.1850  -28.0710 C   0  0  0  0  0  0  0  0  0  0  0  0
   -2.4950   20.1570  -27.3640 C   0  0  0  0  0  0  0  0  0  0  0  0
   -1.6130   20.8450  -26.3230 C   0  0  0  0  0  0  0  0  0  0  0  0
   -0.8660   22.0280  -26.8910 C   0  0  0  0  0  0  0  0  0  0  0  0
    0.2680   22.4960  -26.2050 C   0  0  0  0  0  0  0  0  0  0  0  0
    0.9610   23.6170  -26.6640 C   0  0  0  0  0  0  0  0  0  0  0  0
    0.5280   24.2890  -27.8050 C   0  0  0  0  0  0  0  0  0  0  0  0
   -0.6070   23.8480  -28.4890 C   0  0  0  0  0  0  0  0  0  0  0  0
   -1.3310   22.7270  -28.0350 C   0  0  0  0  0  0  0  0  0  0  0  0
   -2.1060   21.7140  -30.1760 C   0  0  0  0  0  0  0  0  0  0  0  0
   -1.3080   20.7550  -30.3500 O   0  0  0  0  0  0  0  0  0  0  0  0
   -7.4061   23.1934  -29.2123 H   0  0  0  0  0  0  0  0  0  0  0  0
   -5.8546   23.3513  -30.1036 H   0  0  0  0  0  0  0  0  0  0  0  0
   -7.0325   24.7075  -30.1036 H   0  0  0  0  0  0  0  0  0  0  0  0
   -9.8785   21.7236  -31.4118 H   0  0  0  0  0  0  0  0  0  0  0  0
  -10.1146   19.3004  -31.9582 H   0  0  0  0  0  0  0  0  0  0  0  0
   -8.0911   17.9160  -32.4103 H   0  0  0  0  0  0  0  0  0  0  0  0
   -5.8235   18.9417  -32.2897 H   0  0  0  0  0  0  0  0  0  0  0  0
   -5.0710   22.2300  -30.9910 H   0  0  0  0  0  0  0  0  0  0  0  0
   -2.1099   21.2168  -32.8562 H   0  0  0  0  0  0  0  0  0  0  0  0
   -2.9169   22.7597  -33.3105 H   0  0  0  0  0  0  0  0  0  0  0  0
   -3.9982   21.6970  -27.3213 H   0  0  0  0  0  0  0  0  0  0  0  0
   -4.0009   20.6537  -28.8048 H   0  0  0  0  0  0  0  0  0  0  0  0
   -3.1331   19.4128  -26.8649 H   0  0  0  0  0  0  0  0  0  0  0  0
   -1.8530   19.6628  -28.1080 H   0  0  0  0  0  0  0  0  0  0  0  0
   -2.2492   21.1932  -25.4959 H   0  0  0  0  0  0  0  0  0  0  0  0
   -0.8681   20.1126  -25.9786 H   0  0  0  0  0  0  0  0  0  0  0  0
    0.6119   21.9747  -25.2995 H   0  0  0  0  0  0  0  0  0  0  0  0
    1.8513   23.9709  -26.1236 H   0  0  0  0  0  0  0  0  0  0  0  0
    1.0808   25.1681  -28.1677 H   0  0  0  0  0  0  0  0  0  0  0  0
   -0.9396   24.3812  -29.3918 H   0  0  0  0  0  0  0  0  0  0  0  0
  1  2  1  0
  2  3  1  0
  3  4  2  0
  4  5  1  0
  5  6  2  0
  6  7  1  0
  7  8  2  0
  8  9  1  0
  9 10  1  0
 10 11  2  0
 10 12  1  0
 12 13  1  0
 13 14  1  0
 14 15  2  0
 14 16  1  0
 17 16  1  6
 17 18  1  0
 18 19  1  0
 19 20  1  0
 20 21  1  0
 21 22  2  0
 22 23  1  0
 23 24  2  0
 24 25  1  0
 25 26  2  0
 17 27  1  0
 27 28  2  0
  8  3  1  0
 27 13  1  0
 26 17  1  0
 26 21  1  0
  1 29  1  0
  1 30  1  0
  1 31  1  0
  4 32  1  0
  5 33  1  0
  6 34  1  0
  7 35  1  0
  9 36  1  0
 12 37  1  0
 12 38  1  0
 18 39  1  0
 18 40  1  0
 19 41  1  0
 19 42  1  0
 20 43  1  0
 20 44  1  0
 22 45  1  0
 23 46  1  0
 24 47  1  0
 25 48  1  0
M  CHG  1  16  -1
M  END
>  <UniqueID>  (2) 
2

>  <SMILES>  (2) 
COc1ccccc1NC(=O)CN1C(=O)[N-][C@@]2(CCCc3ccccc32)C1=O

>  <Energy>  (2) 
73.54707104788491

>  <Genealogy>  (2) 
COc1ccccc1NC(=O)CN1C(=O)[N-]C2(CCCc3ccccc32)C1=O (protonated)
COc1ccccc1NC(=O)CN1C(=O)[N-][C@@]2(CCCc3ccccc32)C1=O (chirality)
COc1ccccc1NC(=O)CN1C(=O)[N-][C@@]2(CCCc3ccccc32)C1=O (3D coordinates assigned)
COc1ccccc1NC(=O)CN1C(=O)[N-][C@@]2(CCCc3ccccc32)C1=O (nonaromatic ring conformer: 73.54707104788491 kcal/mol)

>  <smiles>  (2) 
COc1ccccc1NC(=O)CN1C(=O)NC2(CCCc3ccccc32)C1=O

>  <score_type>  (2) 
oracle

>  <origin>  (2) 
adg

>  <m_score__min__energy>  (2) 
-9.9399999999999995

>  <m_primary>  (2) 
energy

$$$$
2:0
     RDKit          3D

 31 33  0  0  0  0  0  0  0  0999 V2000
   -5.2640   25.3190  -30.3460 C   0  0  0  0  0  0  0  0  0  0  0  0
   -3.8510   25.1920  -30.4740 O   0  0  0  0  0  0  0  0  0  0  0  0
   -3.0440   24.3750  -29.6650 C   0  0  0  0  0  0  0  0  0  0  0  0
   -2.2520   24.9170  -28.6320 C   0  0  0  0  0  0  0  0  0  0  0  0
   -1.4730   24.0860  -27.8250 C   0  0  0  0  0  0  0  0  0  0  0  0
   -1.4680   22.7100  -28.0380 C   0  0  0  0  0  0  0  0  0  0  0  0
   -2.2420   22.1550  -29.0600 C   0  0  0  0  0  0  0  0  0  0  0  0
   -3.0370   22.9760  -29.8830 C   0  0  0  0  0  0  0  0  0  0  0  0
   -3.8410   22.3640  -30.9720 C   0  0  0  0  0  0  0  0  0  0  0  0
   -5.1880   22.1520  -30.8370 N   0  0  0  0  0  0  0  0  0  0  0  0
   -5.7360   21.5900  -31.9400 C   0  0  0  0  0  0  0  0  0  0  0  0
   -7.1670   21.2410  -32.0760 C   0  0  0  0  0  0  0  0  0  0  0  0
   -7.5610   20.0000  -32.6040 C   0  0  0  0  0  0  0  0  0  0  0  0
   -8.9200   19.6990  -32.7190 C   0  0  0  0  0  0  0  0  0  0  0  0
   -9.8560   20.6030  -32.3230 N   0  0  0  0  0  0  0  0  0  0  0  0
   -9.5060   21.8110  -31.8090 C   0  0  0  0  0  0  0  0  0  0  0  0
   -8.1580   22.1520  -31.6760 C   0  0  0  0  0  0  0  0  0  0  0  0
   -4.5300   21.3650  -33.0690 S   0  0  0  0  0  0  0  0  0  0  0  0
   -3.2910   21.9880  -32.1610 N   0  0  0  0  0  0  0  0  0  0  0  0
   -5.5349   25.3433  -29.2802 H   0  0  0  0  0  0  0  0  0  0  0  0
   -5.5937   26.2504  -30.8295 H   0  0  0  0  0  0  0  0  0  0  0  0
   -5.7545   24.4613  -30.8295 H   0  0  0  0  0  0  0  0  0  0  0  0
   -2.2479   26.0036  -28.4606 H   0  0  0  0  0  0  0  0  0  0  0  0
   -0.8620   24.5190  -27.0193 H   0  0  0  0  0  0  0  0  0  0  0  0
   -0.8530   22.0583  -27.3999 H   0  0  0  0  0  0  0  0  0  0  0  0
   -2.2304   21.0673  -29.2233 H   0  0  0  0  0  0  0  0  0  0  0  0
   -6.8036   19.2697  -32.9249 H   0  0  0  0  0  0  0  0  0  0  0  0
   -9.2341   18.7286  -33.1308 H   0  0  0  0  0  0  0  0  0  0  0  0
  -10.2855   22.5217  -31.4971 H   0  0  0  0  0  0  0  0  0  0  0  0
   -7.8740   23.1298  -31.2598 H   0  0  0  0  0  0  0  0  0  0  0  0
   -2.2890   22.0430  -32.4460 H   0  0  0  0  0  0  0  0  0  0  0  0
  1  2  1  0
  2  3  1  0
  3  4  2  0
  4  5  1  0
  5  6  2  0
  6  7  1  0
  7  8  2  0
  8  9  1  0
  9 10  1  0
 10 11  2  0
 11 12  1  0
 12 13  2  0
 13 14  1  0
 14 15  2  0
 15 16  1  0
 16 17  2  0
 11 18  1  0
 18 19  1  0
  8  3  1  0
 19  9  2  0
 17 12  1  0
  1 20  1  0
  1 21  1  0
  1 22  1  0
  4 23  1  0
  5 24  1  0
  6 25  1  0
  7 26  1  0
 13 27  1  0
 14 28  1  0
 16 29  1  0
 17 30  1  0
 19 31  1  0
M  CHG  1  19   1
M  END
>  <UniqueID>  (3) 
3

>  <SMILES>  (3) 
COc1ccccc1-c1nc(-c2ccncc2)s[nH+]1

>  <Energy>  (3) 
75.95407898633476

>  <Genealogy>  (3) 
COc1ccccc1-c1nc(-c2ccncc2)s[nH+]1 (protonated)
COc1ccccc1-c1nc(-c2ccncc2)s[nH+]1 (3D coordinates assigned)
COc1ccccc1-c1nc(-c2ccncc2)s[nH+]1 (optimized conformer: 75.95407898633476 kcal/mol)

>  <smiles>  (3) 
COc1ccccc1-c1nsc(-c2ccncc2)n1

>  <score_type>  (3) 
oracle

>  <origin>  (3) 
adg

>  <m_score__min__energy>  (3) 
-6.7699999999999996

>  <m_primary>  (3) 
energy

$$$$
3:0
     RDKit          3D

 51 54  0  0  0  0  0  0  0  0999 V2000
   -0.7620   21.2040  -28.5370 C   0  0  0  0  0  0  0  0  0  0  0  0
   -1.0320   22.4040  -29.2560 O   0  0  0  0  0  0  0  0  0  0  0  0
   -2.2530   22.7130  -29.8770 C   0  0  0  0  0  0  0  0  0  0  0  0
   -3.0090   21.7140  -30.5210 C   0  0  0  0  0  0  0  0  0  0  0  0
   -4.2320   22.0170  -31.1290 C   0  0  0  0  0  0  0  0  0  0  0  0
   -4.9960   20.9510  -31.8050 C   0  0  0  0  0  0  0  0  0  0  0  0
   -4.4000   19.8550  -32.3240 N   0  0  0  0  0  0  0  0  0  0  0  0
   -5.4180   19.0960  -32.7840 C   0  0  0  0  0  0  0  0  0  0  0  0
   -5.2140   17.7710  -33.4100 C   0  0  0  0  0  0  0  0  0  0  0  0
   -4.2240   17.5670  -34.3890 C   0  0  0  0  0  0  0  0  0  0  0  0
   -4.0420   16.3030  -34.9570 C   0  0  0  0  0  0  0  0  0  0  0  0
   -4.8360   15.2290  -34.5480 C   0  0  0  0  0  0  0  0  0  0  0  0
   -5.8080   15.4160  -33.5620 C   0  0  0  0  0  0  0  0  0  0  0  0
   -5.9930   16.6780  -32.9910 C   0  0  0  0  0  0  0  0  0  0  0  0
   -6.6160   19.7310  -32.5000 C   0  0  0  0  0  0  0  0  0  0  0  0
   -6.3460   20.9110  -31.9090 N   0  0  0  0  0  0  0  0  0  0  0  0
   -7.3340   21.7580  -31.2300 C   0  0  0  0  0  0  0  0  0  0  0  0
   -8.7570   21.4280  -31.7030 C   0  0  0  0  0  0  0  0  0  0  0  0
   -8.9840   19.9100  -31.7300 C   0  0  0  0  0  0  0  0  0  0  0  0
   -8.0160   19.2260  -32.7070 C   0  0  0  0  0  0  0  0  0  0  0  0
   -4.6890   23.3370  -31.1350 C   0  0  0  0  0  0  0  0  0  0  0  0
   -3.9540   24.3520  -30.4980 C   0  0  0  0  0  0  0  0  0  0  0  0
   -4.3990   25.6850  -30.4760 O   0  0  0  0  0  0  0  0  0  0  0  0
   -5.7330   26.0880  -30.1820 C   0  0  0  0  0  0  0  0  0  0  0  0
   -2.7390   24.0470  -29.8640 C   0  0  0  0  0  0  0  0  0  0  0  0
   -2.0650   25.1170  -29.2420 O   0  0  0  0  0  0  0  0  0  0  0  0
   -1.6380   25.1790  -27.8860 C   0  0  0  0  0  0  0  0  0  0  0  0
   -0.8074   21.4058  -27.4566 H   0  0  0  0  0  0  0  0  0  0  0  0
   -1.5113   20.4427  -28.7996 H   0  0  0  0  0  0  0  0  0  0  0  0
    0.2412   20.8370  -28.7996 H   0  0  0  0  0  0  0  0  0  0  0  0
   -2.6323   20.6808  -30.5462 H   0  0  0  0  0  0  0  0  0  0  0  0
   -3.5899   18.4069  -34.7090 H   0  0  0  0  0  0  0  0  0  0  0  0
   -3.2717   16.1536  -35.7279 H   0  0  0  0  0  0  0  0  0  0  0  0
   -4.6961   14.2368  -35.0019 H   0  0  0  0  0  0  0  0  0  0  0  0
   -6.4285   14.5687  -33.2347 H   0  0  0  0  0  0  0  0  0  0  0  0
   -6.7533   16.8173  -32.2083 H   0  0  0  0  0  0  0  0  0  0  0  0
   -7.2672   21.5900  -30.1450 H   0  0  0  0  0  0  0  0  0  0  0  0
   -7.1192   22.8097  -31.4702 H   0  0  0  0  0  0  0  0  0  0  0  0
   -9.4816   21.8889  -31.0155 H   0  0  0  0  0  0  0  0  0  0  0  0
   -8.8907   21.8227  -32.7210 H   0  0  0  0  0  0  0  0  0  0  0  0
   -8.8226   19.5041  -30.7204 H   0  0  0  0  0  0  0  0  0  0  0  0
  -10.0141   19.7155  -32.0634 H   0  0  0  0  0  0  0  0  0  0  0  0
   -8.0378   18.1394  -32.5372 H   0  0  0  0  0  0  0  0  0  0  0  0
   -8.3284   19.4550  -33.7365 H   0  0  0  0  0  0  0  0  0  0  0  0
   -5.6328   23.5845  -31.6429 H   0  0  0  0  0  0  0  0  0  0  0  0
   -5.8715   26.1298  -29.0916 H   0  0  0  0  0  0  0  0  0  0  0  0
   -5.9192   27.0825  -30.6137 H   0  0  0  0  0  0  0  0  0  0  0  0
   -6.4386   25.3629  -30.6137 H   0  0  0  0  0  0  0  0  0  0  0  0
   -2.5060   25.0530  -27.2221 H   0  0  0  0  0  0  0  0  0  0  0  0
   -0.9099   24.3772  -27.6938 H   0  0  0  0  0  0  0  0  0  0  0  0
   -1.1680   26.1548  -27.6938 H   0  0  0  0  0  0  0  0  0  0  0  0
  1  2  1  0
  2  3  1  0
  3  4  2  0
  4  5  1  0
  5  6  1  0
  6  7  2  0
  7  8  1  0
  8  9  1  0
  9 10  2  0
 10 11  1  0
 11 12  2  0
 12 13  1  0
 13 14  2  0
  8 15  2  0
 15 16  1  0
 16 17  1  0
 17 18  1  0
 18 19  1  0
 19 20  1  0
  5 21  2  0
 21 22  1  0
 22 23  1  0
 23 24  1  0
 22 25  2  0
 25 26  1  0
 26 27  1  0
 25  3  1  0
 16  6  1  0
 14  9  1  0
 20 15  1  0
  1 28  1  0
  1 29  1  0
  1 30  1  0
  4 31  1  0
 10 32  1  0
 11 33  1  0
 12 34  1  0
 13 35  1  0
 14 36  1  0
 17 37  1  0
 17 38  1  0
 18 39  1  0
 18 40  1  0
 19 41  1  0
 19 42  1  0
 20 43  1  0
 20 44  1  0
 21 45  1  0
 24 46  1  0
 24 47  1  0
 24 48  1  0
 27 49  1  0
 27 50  1  0
 27 51  1  0
M  END
>  <UniqueID>  (4) 
4

>  <SMILES>  (4) 
COc1cc(-c2nc(-c3ccccc3)c3n2CCCC3)cc(OC)c1OC

>  <Energy>  (4) 
93.30085545701033

>  <Genealogy>  (4) 
COc1cc(-c2nc(-c3ccccc3)c3n2CCCC3)cc(OC)c1OC (3D coordinates assigned)
COc1cc(-c2nc(-c3ccccc3)c3n2CCCC3)cc(OC)c1OC (nonaromatic ring conformer: 93.30085545701033 kcal/mol)

>  <smiles>  (4) 
COc1cc(-c2nc(-c3ccccc3)c3n2CCCC3)cc(OC)c1OC

>  <score_type>  (4) 
oracle

>  <origin>  (4) 
adg

>  <m_score__min__energy>  (4) 
-9.2699999999999996

>  <m_primary>  (4) 
energy

$$$$
4:0
     RDKit          3D

 56 58  0  0  0  0  0  0  0  0999 V2000
   -1.8010   24.7390  -28.9270 C   0  0  0  0  0  0  0  0  0  0  0  0
   -3.3180   24.5290  -29.0220 C   0  0  0  0  0  0  0  0  0  0  0  0
   -3.8640   24.6740  -30.3940 N   0  0  0  0  0  0  0  0  0  0  0  0
   -5.0110   25.6080  -30.4940 C   0  0  0  0  0  0  0  0  0  0  0  0
   -6.1940   25.1420  -29.6490 C   0  0  0  0  0  0  0  0  0  0  0  0
   -4.1550   23.3650  -31.0280 C   0  0  0  0  0  0  0  0  0  0  0  0
   -3.8200   22.2290  -30.0620 C   0  0  0  0  0  0  0  0  0  0  0  0
   -2.8010   21.4190  -30.6080 O   0  0  0  0  0  0  0  0  0  0  0  0
   -3.3450   20.4500  -31.4820 C   0  0  0  0  0  0  0  0  0  0  0  0
   -3.2060   20.9230  -32.9290 C   0  0  0  0  0  0  0  0  0  0  0  0
   -4.5220   21.1850  -33.5110 N   0  0  0  0  0  0  0  0  0  0  0  0
   -5.6820   20.4410  -33.0960 C   0  0  0  0  0  0  0  0  0  0  0  0
   -6.7930   21.1090  -32.5490 C   0  0  0  0  0  0  0  0  0  0  0  0
   -6.7720   22.5070  -32.3480 C   0  0  0  0  0  0  0  0  0  0  0  0
   -7.8940   23.1750  -31.8660 C   0  0  0  0  0  0  0  0  0  0  0  0
   -9.0540   22.4660  -31.5760 C   0  0  0  0  0  0  0  0  0  0  0  0
   -9.0880   21.0810  -31.7320 C   0  0  0  0  0  0  0  0  0  0  0  0
   -7.9470   20.3650  -32.1780 C   0  0  0  0  0  0  0  0  0  0  0  0
   -7.9430   18.9860  -32.2700 N   0  0  0  0  0  0  0  0  0  0  0  0
   -9.0290   18.2020  -31.6390 C   0  0  0  0  0  0  0  0  0  0  0  0
   -6.9090   18.3370  -32.9200 C   0  0  0  0  0  0  0  0  0  0  0  0
   -6.9850   16.9590  -33.2550 C   0  0  0  0  0  0  0  0  0  0  0  0
   -5.9120   16.3020  -33.8520 C   0  0  0  0  0  0  0  0  0  0  0  0
   -4.7440   16.9940  -34.1440 C   0  0  0  0  0  0  0  0  0  0  0  0
   -4.6570   18.3570  -33.8780 C   0  0  0  0  0  0  0  0  0  0  0  0
   -5.7370   19.0500  -33.2910 C   0  0  0  0  0  0  0  0  0  0  0  0
   -1.5021   24.7804  -27.8692 H   0  0  0  0  0  0  0  0  0  0  0  0
   -1.2835   23.9039  -29.4218 H   0  0  0  0  0  0  0  0  0  0  0  0
   -1.5298   25.6832  -29.4218 H   0  0  0  0  0  0  0  0  0  0  0  0
   -3.5497   23.5153  -28.6631 H   0  0  0  0  0  0  0  0  0  0  0  0
   -3.7862   25.3135  -28.4093 H   0  0  0  0  0  0  0  0  0  0  0  0
   -4.6931   26.6016  -30.1451 H   0  0  0  0  0  0  0  0  0  0  0  0
   -5.3334   25.6438  -31.5451 H   0  0  0  0  0  0  0  0  0  0  0  0
   -5.9440   25.2405  -28.5823 H   0  0  0  0  0  0  0  0  0  0  0  0
   -7.0743   25.7605  -29.8779 H   0  0  0  0  0  0  0  0  0  0  0  0
   -6.4160   24.0892  -29.8779 H   0  0  0  0  0  0  0  0  0  0  0  0
   -5.2221   23.3169  -31.2905 H   0  0  0  0  0  0  0  0  0  0  0  0
   -3.5419   23.2595  -31.9352 H   0  0  0  0  0  0  0  0  0  0  0  0
   -3.4769   22.6521  -29.1063 H   0  0  0  0  0  0  0  0  0  0  0  0
   -4.7192   21.6174  -29.8964 H   0  0  0  0  0  0  0  0  0  0  0  0
   -2.8059   19.4996  -31.3549 H   0  0  0  0  0  0  0  0  0  0  0  0
   -4.4100   20.3057  -31.2473 H   0  0  0  0  0  0  0  0  0  0  0  0
   -2.6095   21.8470  -32.9521 H   0  0  0  0  0  0  0  0  0  0  0  0
   -2.7085   20.1357  -33.5144 H   0  0  0  0  0  0  0  0  0  0  0  0
   -4.6610   22.0780  -34.0340 H   0  0  0  0  0  0  0  0  0  0  0  0
   -5.8577   23.0748  -32.5752 H   0  0  0  0  0  0  0  0  0  0  0  0
   -7.8628   24.2641  -31.7145 H   0  0  0  0  0  0  0  0  0  0  0  0
   -9.9484   22.9997  -31.2221 H   0  0  0  0  0  0  0  0  0  0  0  0
  -10.0151   20.5340  -31.5055 H   0  0  0  0  0  0  0  0  0  0  0  0
   -8.9396   18.2666  -30.5445 H   0  0  0  0  0  0  0  0  0  0  0  0
  -10.0028   18.6067  -31.9518 H   0  0  0  0  0  0  0  0  0  0  0  0
   -8.9514   17.1503  -31.9518 H   0  0  0  0  0  0  0  0  0  0  0  0
   -7.9078   16.4007  -33.0391 H   0  0  0  0  0  0  0  0  0  0  0  0
   -5.9899   15.2316  -34.0930 H   0  0  0  0  0  0  0  0  0  0  0  0
   -3.8871   16.4644  -34.5858 H   0  0  0  0  0  0  0  0  0  0  0  0
   -3.7345   18.9013  -34.1285 H   0  0  0  0  0  0  0  0  0  0  0  0
  1  2  1  0
  2  3  1  0
  3  4  1  0
  4  5  1  0
  3  6  1  0
  6  7  1  0
  7  8  1  0
  8  9  1  0
  9 10  1  0
 10 11  1  0
 11 12  1  0
 12 13  2  0
 13 14  1  0
 14 15  2  0
 15 16  1  0
 16 17  2  0
 17 18  1  0
 18 19  2  0
 19 20  1  0
 19 21  1  0
 21 22  2  0
 22 23  1  0
 23 24  2  0
 24 25  1  0
 25 26  2  0
 26 12  1  0
 18 13  1  0
 26 21  1  0
  1 27  1  0
  1 28  1  0
  1 29  1  0
  2 30  1  0
  2 31  1  0
  4 32  1  0
  4 33  1  0
  5 34  1  0
  5 35  1  0
  5 36  1  0
  6 37  1  0
  6 38  1  0
  7 39  1  0
  7 40  1  0
  9 41  1  0
  9 42  1  0
 10 43  1  0
 10 44  1  0
 11 45  1  0
 14 46  1  0
 15 47  1  0
 16 48  1  0
 17 49  1  0
 20 50  1  0
 20 51  1  0
 20 52  1  0
 22 53  1  0
 23 54  1  0
 24 55  1  0
 25 56  1  0
M  CHG  1  19   1
M  END
>  <UniqueID>  (5) 
5

>  <SMILES>  (5) 
CCN(CC)CCOCCNc1c2ccccc2[n+](C)c2ccccc12

>  <Energy>  (5) 
83.7152539923462

>  <Genealogy>  (5) 
CCN(CC)CCOCCNc1c2ccccc2[n+](C)c2ccccc12 (3D coordinates assigned)
CCN(CC)CCOCCNc1c2ccccc2[n+](C)c2ccccc12 (optimized conformer: 83.7152539923462 kcal/mol)

>  <smiles>  (5) 
CCN(CC)CCOCCNc1c2ccccc2[n+](C)c2ccccc12

>  <score_type>  (5) 
oracle

>  <origin>  (5) 
adg

>  <m_score__min__energy>  (5) 
-8.8599999999999994

>  <m_primary>  (5) 
energy

$$$$
5:0
     RDKit          3D

 69 73  0  0  0  0  0  0  0  0999 V2000
   -4.3410   24.9420  -30.1170 C   0  0  0  0  0  0  0  0  0  0  0  0
   -5.8430   25.1160  -29.9090 C   0  0  0  0  0  0  0  0  0  0  0  0
   -6.6000   23.9720  -30.5290 C   0  0  0  0  0  0  0  0  0  0  0  0
   -7.2880   23.0580  -29.7190 C   0  0  0  0  0  0  0  0  0  0  0  0
   -7.9500   21.9660  -30.2890 C   0  0  0  0  0  0  0  0  0  0  0  0
   -7.9040   21.7520  -31.6770 C   0  0  0  0  0  0  0  0  0  0  0  0
   -8.5940   20.5510  -32.2990 C   0  0  0  0  0  0  0  0  0  0  0  0
   -7.6700   19.5210  -32.8470 N   0  0  2  0  0  0  0  0  0  0  0  0
   -6.8700   18.8250  -31.7970 C   0  0  0  0  0  0  0  0  0  0  0  0
   -5.4120   19.3110  -31.7290 C   0  0  0  0  0  0  0  0  0  0  0  0
   -4.6870   19.1320  -33.0910 C   0  0  1  0  0  0  0  0  0  0  0  0
   -5.6670   19.1310  -34.2920 C   0  0  0  0  0  0  0  0  0  0  0  0
   -6.8720   20.0300  -33.9950 C   0  0  0  0  0  0  0  0  0  0  0  0
   -3.6210   20.1920  -33.2610 C   0  0  0  0  0  0  0  0  0  0  0  0
   -3.8600   21.4260  -33.3660 O   0  0  0  0  0  0  0  0  0  0  0  0
   -2.3010   19.6560  -33.3140 N   0  0  0  0  0  0  0  0  0  0  0  0
   -1.1140   20.3630  -33.7890 C   0  0  0  0  0  0  0  0  0  0  0  0
   -0.1700   20.6570  -32.6200 C   0  0  0  0  0  0  0  0  0  0  0  0
   -0.9500   20.8510  -31.3440 C   0  0  0  0  0  0  0  0  0  0  0  0
   -1.8240   21.9440  -31.2260 C   0  0  0  0  0  0  0  0  0  0  0  0
   -2.5750   22.1250  -30.0630 C   0  0  0  0  0  0  0  0  0  0  0  0
   -2.4690   21.2130  -29.0130 C   0  0  0  0  0  0  0  0  0  0  0  0
   -1.6140   20.1130  -29.1230 C   0  0  0  0  0  0  0  0  0  0  0  0
   -0.8500   19.9170  -30.2910 C   0  0  0  0  0  0  0  0  0  0  0  0
    0.0060   18.8140  -30.4380 O   0  0  0  0  0  0  0  0  0  0  0  0
    0.2670   17.8500  -29.4230 C   0  0  0  0  0  0  0  0  0  0  0  0
   -2.4750   18.2480  -33.2410 C   0  0  0  0  0  0  0  0  0  0  0  0
   -1.4720   17.2770  -33.3080 C   0  0  0  0  0  0  0  0  0  0  0  0
   -1.8420   15.9260  -33.2210 C   0  0  0  0  0  0  0  0  0  0  0  0
   -3.1950   15.5690  -33.0750 C   0  0  0  0  0  0  0  0  0  0  0  0
   -4.1890   16.5580  -33.0180 C   0  0  0  0  0  0  0  0  0  0  0  0
   -3.8070   17.9020  -33.1040 C   0  0  0  0  0  0  0  0  0  0  0  0
   -7.2400   22.6890  -32.4890 C   0  0  0  0  0  0  0  0  0  0  0  0
   -6.5800   23.7810  -31.9180 C   0  0  0  0  0  0  0  0  0  0  0  0
   -3.8398   24.8839  -29.1396 H   0  0  0  0  0  0  0  0  0  0  0  0
   -4.1537   24.0162  -30.6807 H   0  0  0  0  0  0  0  0  0  0  0  0
   -3.9470   25.8005  -30.6807 H   0  0  0  0  0  0  0  0  0  0  0  0
   -6.0572   25.1489  -28.8306 H   0  0  0  0  0  0  0  0  0  0  0  0
   -6.1612   26.0532  -30.3890 H   0  0  0  0  0  0  0  0  0  0  0  0
   -7.3073   23.2006  -28.6284 H   0  0  0  0  0  0  0  0  0  0  0  0
   -8.5101   21.2703  -29.6469 H   0  0  0  0  0  0  0  0  0  0  0  0
   -9.2183   20.0764  -31.5277 H   0  0  0  0  0  0  0  0  0  0  0  0
   -9.1763   20.9324  -33.1507 H   0  0  0  0  0  0  0  0  0  0  0  0
   -8.3010   18.7860  -33.2500 H   0  0  0  0  0  0  0  0  0  0  0  0
   -7.3442   19.0024  -30.8204 H   0  0  0  0  0  0  0  0  0  0  0  0
   -6.8480   17.7561  -32.0557 H   0  0  0  0  0  0  0  0  0  0  0  0
   -5.4030   20.3768  -31.4569 H   0  0  0  0  0  0  0  0  0  0  0  0
   -4.8830   18.7094  -30.9753 H   0  0  0  0  0  0  0  0  0  0  0  0
   -5.1463   19.5054  -35.1857 H   0  0  0  0  0  0  0  0  0  0  0  0
   -6.0205   18.1038  -34.4649 H   0  0  0  0  0  0  0  0  0  0  0  0
   -6.5117   21.0419  -33.7577 H   0  0  0  0  0  0  0  0  0  0  0  0
   -7.5193   20.0399  -34.8843 H   0  0  0  0  0  0  0  0  0  0  0  0
   -0.5918   19.7394  -34.5296 H   0  0  0  0  0  0  0  0  0  0  0  0
   -1.4226   21.3135  -34.2487 H   0  0  0  0  0  0  0  0  0  0  0  0
    0.5241   19.8129  -32.4947 H   0  0  0  0  0  0  0  0  0  0  0  0
    0.3882   21.5794  -32.8382 H   0  0  0  0  0  0  0  0  0  0  0  0
   -1.9174   22.6615  -32.0545 H   0  0  0  0  0  0  0  0  0  0  0  0
   -3.2512   22.9881  -29.9747 H   0  0  0  0  0  0  0  0  0  0  0  0
   -3.0595   21.3598  -28.0966 H   0  0  0  0  0  0  0  0  0  0  0  0
   -1.5368   19.3956  -28.2927 H   0  0  0  0  0  0  0  0  0  0  0  0
    0.1410   18.3153  -28.4343 H   0  0  0  0  0  0  0  0  0  0  0  0
   -0.4361   17.0103  -29.5253 H   0  0  0  0  0  0  0  0  0  0  0  0
    1.2977   17.4797  -29.5253 H   0  0  0  0  0  0  0  0  0  0  0  0
   -0.4170   17.5650  -33.4262 H   0  0  0  0  0  0  0  0  0  0  0  0
   -1.0709   15.1429  -33.2672 H   0  0  0  0  0  0  0  0  0  0  0  0
   -3.4756   14.5077  -33.0051 H   0  0  0  0  0  0  0  0  0  0  0  0
   -5.2482   16.2824  -32.9078 H   0  0  0  0  0  0  0  0  0  0  0  0
   -7.2400   22.5616  -33.5816 H   0  0  0  0  0  0  0  0  0  0  0  0
   -6.0426   24.4935  -32.5611 H   0  0  0  0  0  0  0  0  0  0  0  0
  1  2  1  0
  2  3  1  0
  3  4  2  0
  4  5  1  0
  5  6  2  0
  6  7  1  0
  7  8  1  0
  8  9  1  0
  9 10  1  0
 11 10  1  1
 11 12  1  0
 12 13  1  0
 11 14  1  0
 14 15  2  0
 14 16  1  0
 16 17  1  0
 17 18  1  0
 18 19  1  0
 19 20  2  0
 20 21  1  0
 21 22  2  0
 22 23  1  0
 23 24  2  0
 24 25  1  0
 25 26  1  0
 16 27  1  0
 27 28  2  0
 28 29  1  0
 29 30  2  0
 30 31  1  0
 31 32  2  0
  6 33  1  0
 33 34  2  0
 34  3  1  0
 13  8  1  0
 24 19  1  0
 32 27  1  0
 32 11  1  0
  1 35  1  0
  1 36  1  0
  1 37  1  0
  2 38  1  0
  2 39  1  0
  4 40  1  0
  5 41  1  0
  7 42  1  0
  7 43  1  0
  8 44  1  6
  9 45  1  0
  9 46  1  0
 10 47  1  0
 10 48  1  0
 12 49  1  0
 12 50  1  0
 13 51  1  0
 13 52  1  0
 17 53  1  0
 17 54  1  0
 18 55  1  0
 18 56  1  0
 20 57  1  0
 21 58  1  0
 22 59  1  0
 23 60  1  0
 26 61  1  0
 26 62  1  0
 26 63  1  0
 28 64  1  0
 29 65  1  0
 30 66  1  0
 31 67  1  0
 33 68  1  0
 34 69  1  0
M  CHG  1   8   1
M  END
>  <UniqueID>  (6) 
6

>  <SMILES>  (6) 
CCc1ccc(C[NH+]2CCC3(CC2)C(=O)N(CCc2ccccc2OC)c2ccccc23)cc1

>  <Energy>  (6) 
97.94291653419904

>  <Genealogy>  (6) 
CCc1ccc(C[NH+]2CCC3(CC2)C(=O)N(CCc2ccccc2OC)c2ccccc23)cc1 (protonated)
CCc1ccc(C[NH+]2CCC3(CC2)C(=O)N(CCc2ccccc2OC)c2ccccc23)cc1 (3D coordinates assigned)
CCc1ccc(C[NH+]2CCC3(CC2)C(=O)N(CCc2ccccc2OC)c2ccccc23)cc1 (nonaromatic ring conformer: 97.94291653419904 kcal/mol)

>  <smiles>  (6) 
CCc1ccc(CN2CCC3(CC2)C(=O)N(CCc2ccccc2OC)c2ccccc23)cc1

>  <score_type>  (6) 
oracle

>  <origin>  (6) 
adg

>  <m_score__min__energy>  (6) 
-9.9000000000000004

>  <m_primary>  (6) 
energy

$$$$
6:0
     RDKit          3D

 44 47  0  0  0  0  0  0  0  0999 V2000
   -1.2460   27.4020  -25.5310 C   0  0  0  0  0  0  0  0  0  0  0  0
   -1.9000   26.2990  -26.1490 O   0  0  0  0  0  0  0  0  0  0  0  0
   -1.4470   24.9800  -26.0250 C   0  0  0  0  0  0  0  0  0  0  0  0
   -0.4390   24.6820  -25.1600 N   0  0  0  0  0  0  0  0  0  0  0  0
    0.0310   23.4190  -25.0070 C   0  0  0  0  0  0  0  0  0  0  0  0
   -0.5160   22.3720  -25.7460 C   0  0  0  0  0  0  0  0  0  0  0  0
   -1.5600   22.6290  -26.6540 C   0  0  0  0  0  0  0  0  0  0  0  0
   -2.1520   21.6060  -27.4320 C   0  0  0  0  0  0  0  0  0  0  0  0
   -1.7030   20.1700  -27.3330 C   0  0  0  0  0  0  0  0  0  0  0  0
   -3.1880   21.9350  -28.3160 C   0  0  0  0  0  0  0  0  0  0  0  0
   -3.6300   23.2600  -28.4290 C   0  0  0  0  0  0  0  0  0  0  0  0
   -4.7340   23.6020  -29.3620 C   0  0  0  0  0  0  0  0  0  0  0  0
   -5.0430   24.9460  -29.6320 C   0  0  0  0  0  0  0  0  0  0  0  0
   -6.0840   25.2710  -30.5050 C   0  0  0  0  0  0  0  0  0  0  0  0
   -6.8230   24.2610  -31.1230 C   0  0  0  0  0  0  0  0  0  0  0  0
   -6.5210   22.9130  -30.8780 C   0  0  0  0  0  0  0  0  0  0  0  0
   -7.3120   21.8370  -31.5190 C   0  0  0  0  0  0  0  0  0  0  0  0
   -8.6870   21.7410  -31.2410 C   0  0  0  0  0  0  0  0  0  0  0  0
   -9.4630   20.7460  -31.8400 C   0  0  0  0  0  0  0  0  0  0  0  0
   -8.8760   19.8330  -32.7160 C   0  0  0  0  0  0  0  0  0  0  0  0
   -7.5090   19.9080  -32.9910 C   0  0  0  0  0  0  0  0  0  0  0  0
   -6.7210   20.9010  -32.3970 C   0  0  0  0  0  0  0  0  0  0  0  0
   -4.9910   20.8990  -32.7280 Cl  0  0  0  0  0  0  0  0  0  0  0  0
   -5.4830   22.5900  -29.9890 C   0  0  0  0  0  0  0  0  0  0  0  0
   -3.0470   24.2320  -27.6700 N   0  0  0  0  0  0  0  0  0  0  0  0
   -2.0350   23.9560  -26.7950 C   0  0  0  0  0  0  0  0  0  0  0  0
   -1.3072   27.2988  -24.4376 H   0  0  0  0  0  0  0  0  0  0  0  0
   -0.1902   27.4217  -25.8389 H   0  0  0  0  0  0  0  0  0  0  0  0
   -1.7353   28.3378  -25.8389 H   0  0  0  0  0  0  0  0  0  0  0  0
    0.8472   23.2204  -24.2968 H   0  0  0  0  0  0  0  0  0  0  0  0
   -0.1332   21.3485  -25.6201 H   0  0  0  0  0  0  0  0  0  0  0  0
   -1.6141   19.8858  -26.2741 H   0  0  0  0  0  0  0  0  0  0  0  0
   -2.4409   19.5203  -27.8264 H   0  0  0  0  0  0  0  0  0  0  0  0
   -0.7264   20.0563  -27.8264 H   0  0  0  0  0  0  0  0  0  0  0  0
   -3.6573   21.1484  -28.9251 H   0  0  0  0  0  0  0  0  0  0  0  0
   -4.4614   25.7473  -29.1528 H   0  0  0  0  0  0  0  0  0  0  0  0
   -6.3220   26.3260  -30.7060 H   0  0  0  0  0  0  0  0  0  0  0  0
   -7.6455   24.5230  -31.8049 H   0  0  0  0  0  0  0  0  0  0  0  0
   -9.1549   22.4546  -30.5468 H   0  0  0  0  0  0  0  0  0  0  0  0
  -10.5390   20.6823  -31.6205 H   0  0  0  0  0  0  0  0  0  0  0  0
   -9.4902   19.0535  -33.1905 H   0  0  0  0  0  0  0  0  0  0  0  0
   -7.0488   19.1828  -33.6782 H   0  0  0  0  0  0  0  0  0  0  0  0
   -5.2533   21.5346  -29.7808 H   0  0  0  0  0  0  0  0  0  0  0  0
   -3.3730   25.2190  -27.7830 H   0  0  0  0  0  0  0  0  0  0  0  0
  1  2  1  0
  2  3  1  0
  3  4  2  0
  4  5  1  0
  5  6  2  0
  6  7  1  0
  7  8  2  0
  8  9  1  0
  8 10  1  0
 10 11  2  0
 11 12  1  0
 12 13  2  0
 13 14  1  0
 14 15  2  0
 15 16  1  0
 16 17  1  0
 17 18  2  0
 18 19  1  0
 19 20  2  0
 20 21  1  0
 21 22  2  0
 22 23  1  0
 16 24  2  0
 11 25  1  0
 25 26  2  0
 26  3  1  0
 26  7  1  0
 24 12  1  0
 22 17  1  0
  1 27  1  0
  1 28  1  0
  1 29  1  0
  5 30  1  0
  6 31  1  0
  9 32  1  0
  9 33  1  0
  9 34  1  0
 10 35  1  0
 13 36  1  0
 14 37  1  0
 15 38  1  0
 18 39  1  0
 19 40  1  0
 20 41  1  0
 21 42  1  0
 24 43  1  0
 25 44  1  0
M  CHG  1  25   1
M  END
>  <UniqueID>  (7) 
7

>  <SMILES>  (7) 
COc1nccc2c(C)cc(-c3cccc(-c4ccccc4Cl)c3)[nH+]c12

>  <Energy>  (7) 
65.11191670207215

>  <Genealogy>  (7) 
COc1nccc2c(C)cc(-c3cccc(-c4ccccc4Cl)c3)[nH+]c12 (protonated)
COc1nccc2c(C)cc(-c3cccc(-c4ccccc4Cl)c3)[nH+]c12 (3D coordinates assigned)
COc1nccc2c(C)cc(-c3cccc(-c4ccccc4Cl)c3)[nH+]c12 (optimized conformer: 65.11191670207215 kcal/mol)

>  <smiles>  (7) 
COc1nccc2c(C)cc(-c3cccc(-c4ccccc4Cl)c3)nc12

>  <score_type>  (7) 
oracle

>  <origin>  (7) 
adg

>  <m_score__min__energy>  (7) 
-8.2699999999999996

>  <m_primary>  (7) 
energy

$$$$
7:0
     RDKit          3D

 55 58  0  0  0  0  0  0  0  0999 V2000
   -8.9420   20.3140  -32.3940 C   0  0  0  0  0  0  0  0  0  0  0  0
   -8.2300   19.1500  -31.7010 C   0  0  0  0  0  0  0  0  0  0  0  0
   -7.1810   18.5480  -32.5600 N   0  0  0  0  0  0  0  0  0  0  0  0
   -5.9560   18.1590  -31.8240 C   0  0  0  0  0  0  0  0  0  0  0  0
   -5.2330   19.3790  -31.2320 C   0  0  0  0  0  0  0  0  0  0  0  0
   -5.3440   20.5320  -32.1320 N   0  0  0  0  0  0  0  0  0  0  0  0
   -5.0170   21.8450  -31.6420 C   0  0  0  0  0  0  0  0  0  0  0  0
   -3.8570   22.0660  -30.8870 C   0  0  0  0  0  0  0  0  0  0  0  0
   -3.5670   23.3680  -30.4470 C   0  0  0  0  0  0  0  0  0  0  0  0
   -2.3540   23.6690  -29.6450 C   0  0  0  0  0  0  0  0  0  0  0  0
   -1.3100   22.7320  -29.5140 C   0  0  0  0  0  0  0  0  0  0  0  0
   -0.1780   23.0330  -28.7520 C   0  0  0  0  0  0  0  0  0  0  0  0
   -0.0720   24.2700  -28.1090 C   0  0  0  0  0  0  0  0  0  0  0  0
    1.3880   24.6600  -27.1430 S   0  0  0  0  0  0  0  0  0  0  0  0
    0.4960   25.7980  -26.0780 C   0  0  0  0  0  0  0  0  0  0  0  0
    0.7410   27.1730  -26.1870 C   0  0  0  0  0  0  0  0  0  0  0  0
    0.0660   28.0750  -25.3630 C   0  0  0  0  0  0  0  0  0  0  0  0
   -0.8600   27.6080  -24.4280 C   0  0  0  0  0  0  0  0  0  0  0  0
   -1.1150   26.2390  -24.3160 C   0  0  0  0  0  0  0  0  0  0  0  0
   -0.4390   25.3190  -25.1440 C   0  0  0  0  0  0  0  0  0  0  0  0
   -0.6700   23.9360  -25.0640 O   0  0  0  0  0  0  0  0  0  0  0  0
   -0.0580   23.0700  -24.1130 C   0  0  0  0  0  0  0  0  0  0  0  0
   -1.1100   25.2000  -28.2150 C   0  0  0  0  0  0  0  0  0  0  0  0
   -2.2450   24.9030  -28.9760 C   0  0  0  0  0  0  0  0  0  0  0  0
   -4.4080   24.3810  -30.7930 N   0  0  0  0  0  0  0  0  0  0  0  0
   -5.5200   24.1570  -31.5390 C   0  0  0  0  0  0  0  0  0  0  0  0
   -5.8140   22.9010  -31.9590 N   0  0  0  0  0  0  0  0  0  0  0  0
   -5.6120   20.2860  -33.5550 C   0  0  0  0  0  0  0  0  0  0  0  0
   -6.8710   19.4090  -33.7320 C   0  0  0  0  0  0  0  0  0  0  0  0
   -9.3576   20.9935  -31.6354 H   0  0  0  0  0  0  0  0  0  0  0  0
   -8.2239   20.8612  -33.0224 H   0  0  0  0  0  0  0  0  0  0  0  0
   -9.7562   19.9239  -33.0224 H   0  0  0  0  0  0  0  0  0  0  0  0
   -7.7626   19.5197  -30.7764 H   0  0  0  0  0  0  0  0  0  0  0  0
   -8.9791   18.3738  -31.4860 H   0  0  0  0  0  0  0  0  0  0  0  0
   -6.2335   17.4782  -31.0058 H   0  0  0  0  0  0  0  0  0  0  0  0
   -5.2730   17.6682  -32.5330 H   0  0  0  0  0  0  0  0  0  0  0  0
   -5.6863   19.6324  -30.2623 H   0  0  0  0  0  0  0  0  0  0  0  0
   -4.1690   19.1319  -31.1018 H   0  0  0  0  0  0  0  0  0  0  0  0
   -3.1832   21.2316  -30.6425 H   0  0  0  0  0  0  0  0  0  0  0  0
   -1.3866   21.7559  -30.0154 H   0  0  0  0  0  0  0  0  0  0  0  0
    0.6319   22.2947  -28.6578 H   0  0  0  0  0  0  0  0  0  0  0  0
    1.4681   27.5432  -26.9248 H   0  0  0  0  0  0  0  0  0  0  0  0
    0.2635   29.1536  -25.4502 H   0  0  0  0  0  0  0  0  0  0  0  0
   -1.3900   28.3198  -23.7780 H   0  0  0  0  0  0  0  0  0  0  0  0
   -1.8465   25.8770  -23.5785 H   0  0  0  0  0  0  0  0  0  0  0  0
   -0.3001   23.4125  -23.0961 H   0  0  0  0  0  0  0  0  0  0  0  0
   -0.4341   22.0460  -24.2542 H   0  0  0  0  0  0  0  0  0  0  0  0
    1.0328   23.0827  -24.2542 H   0  0  0  0  0  0  0  0  0  0  0  0
   -1.0339   26.1682  -27.6984 H   0  0  0  0  0  0  0  0  0  0  0  0
   -3.0588   25.6391  -29.0525 H   0  0  0  0  0  0  0  0  0  0  0  0
   -6.1828   24.9943  -31.8030 H   0  0  0  0  0  0  0  0  0  0  0  0
   -5.7683   21.2484  -34.0642 H   0  0  0  0  0  0  0  0  0  0  0  0
   -4.7505   19.7583  -33.9901 H   0  0  0  0  0  0  0  0  0  0  0  0
   -7.7309   20.0712  -33.9112 H   0  0  0  0  0  0  0  0  0  0  0  0
   -6.6711   18.7341  -34.5773 H   0  0  0  0  0  0  0  0  0  0  0  0
  1  2  1  0
  2  3  1  0
  3  4  1  0
  4  5  1  0
  5  6  1  0
  6  7  1  0
  7  8  2  0
  8  9  1  0
  9 10  1  0
 10 11  2  0
 11 12  1  0
 12 13  2  0
 13 14  1  0
 14 15  1  0
 15 16  2  0
 16 17  1  0
 17 18  2  0
 18 19  1  0
 19 20  2  0
 20 21  1  0
 21 22  1  0
 13 23  1  0
 23 24  2  0
  9 25  2  0
 25 26  1  0
 26 27  2  0
  6 28  1  0
 28 29  1  0
 29  3  1  0
 27  7  1  0
 24 10  1  0
 20 15  1  0
  1 30  1  0
  1 31  1  0
  1 32  1  0
  2 33  1  0
  2 34  1  0
  4 35  1  0
  4 36  1  0
  5 37  1  0
  5 38  1  0
  8 39  1  0
 11 40  1  0
 12 41  1  0
 16 42  1  0
 17 43  1  0
 18 44  1  0
 19 45  1  0
 22 46  1  0
 22 47  1  0
 22 48  1  0
 23 49  1  0
 24 50  1  0
 26 51  1  0
 28 52  1  0
 28 53  1  0
 29 54  1  0
 29 55  1  0
M  END
>  <UniqueID>  (8) 
8

>  <SMILES>  (8) 
CCN1CCN(c2cc(-c3ccc(Sc4ccccc4OC)cc3)ncn2)CC1

>  <Energy>  (8) 
68.59563046523155

>  <Genealogy>  (8) 
CCN1CCN(c2cc(-c3ccc(Sc4ccccc4OC)cc3)ncn2)CC1 (3D coordinates assigned)
CCN1CCN(c2cc(-c3ccc(Sc4ccccc4OC)cc3)ncn2)CC1 (nonaromatic ring conformer: 68.59563046523155 kcal/mol)

>  <smiles>  (8) 
CCN1CCN(c2cc(-c3ccc(Sc4ccccc4OC)cc3)ncn2)CC1

>  <score_type>  (8) 
oracle

>  <origin>  (8) 
adg

>  <m_score__min__energy>  (8) 
-8.5299999999999994

>  <m_primary>  (8) 
energy

$$$$
8:0
     RDKit          3D

 35 36  0  0  0  0  0  0  0  0999 V2000
   -1.8900   25.3420  -26.1770 C   0  0  0  0  0  0  0  0  0  0  0  0
   -3.3940   25.1980  -26.3700 C   0  0  0  0  0  0  0  0  0  0  0  0
   -3.6760   24.5280  -27.6470 N   0  0  0  0  0  0  0  0  0  0  0  0
   -2.4380   24.0900  -28.3060 C   0  0  0  0  0  0  0  0  0  0  0  0
   -2.6870   23.8350  -29.7950 C   0  0  0  0  0  0  0  0  0  0  0  0
   -3.4930   24.9160  -30.3650 N   0  0  0  0  0  0  0  0  0  0  0  0
   -5.1500   24.4210  -30.5690 S   0  0  0  0  0  0  0  0  0  0  0  0
   -5.9220   25.5230  -31.2400 O   0  0  0  0  0  0  0  0  0  0  0  0
   -5.7470   24.1520  -29.2170 O   0  0  0  0  0  0  0  0  0  0  0  0
   -5.2430   22.9430  -31.5380 C   0  0  0  0  0  0  0  0  0  0  0  0
   -4.0870   22.4560  -32.1690 C   0  0  0  0  0  0  0  0  0  0  0  0
   -4.1360   21.2910  -32.9400 C   0  0  0  0  0  0  0  0  0  0  0  0
   -5.3350   20.5910  -33.0840 C   0  0  0  0  0  0  0  0  0  0  0  0
   -6.4960   21.0530  -32.4490 C   0  0  0  0  0  0  0  0  0  0  0  0
   -7.7080   20.3590  -32.5700 C   0  0  0  0  0  0  0  0  0  0  0  0
   -8.8470   20.8360  -31.9200 C   0  0  0  0  0  0  0  0  0  0  0  0
   -8.7660   22.0000  -31.1550 C   0  0  0  0  0  0  0  0  0  0  0  0
   -7.5850   22.6640  -31.0470 N   0  0  0  0  0  0  0  0  0  0  0  0
   -6.4520   22.2330  -31.6690 C   0  0  0  0  0  0  0  0  0  0  0  0
   -1.6588   25.3641  -25.1018 H   0  0  0  0  0  0  0  0  0  0  0  0
   -1.3769   24.4889  -26.6449 H   0  0  0  0  0  0  0  0  0  0  0  0
   -1.5481   26.2770  -26.6449 H   0  0  0  0  0  0  0  0  0  0  0  0
   -3.8113   24.6010  -25.5457 H   0  0  0  0  0  0  0  0  0  0  0  0
   -3.8539   26.1972  -26.3778 H   0  0  0  0  0  0  0  0  0  0  0  0
   -4.1390   25.2290  -28.2730 H   0  0  0  0  0  0  0  0  0  0  0  0
   -1.6723   24.8720  -28.1953 H   0  0  0  0  0  0  0  0  0  0  0  0
   -2.0953   23.1561  -27.8366 H   0  0  0  0  0  0  0  0  0  0  0  0
   -1.7224   23.7846  -30.3213 H   0  0  0  0  0  0  0  0  0  0  0  0
   -3.2281   22.8843  -29.9109 H   0  0  0  0  0  0  0  0  0  0  0  0
   -3.1352   22.9956  -32.0557 H   0  0  0  0  0  0  0  0  0  0  0  0
   -3.2251   20.9241  -33.4357 H   0  0  0  0  0  0  0  0  0  0  0  0
   -5.3687   19.6773  -33.6955 H   0  0  0  0  0  0  0  0  0  0  0  0
   -7.7610   19.4419  -33.1750 H   0  0  0  0  0  0  0  0  0  0  0  0
   -9.8022   20.2980  -32.0101 H   0  0  0  0  0  0  0  0  0  0  0  0
   -9.6594   22.3809  -30.6385 H   0  0  0  0  0  0  0  0  0  0  0  0
  1  2  1  0
  2  3  1  0
  3  4  1  0
  4  5  1  0
  5  6  1  0
  6  7  1  0
  7  8  2  0
  7  9  2  0
  7 10  1  0
 10 11  2  0
 11 12  1  0
 12 13  2  0
 13 14  1  0
 14 15  2  0
 15 16  1  0
 16 17  2  0
 17 18  1  0
 18 19  2  0
 19 10  1  0
 19 14  1  0
  1 20  1  0
  1 21  1  0
  1 22  1  0
  2 23  1  0
  2 24  1  0
  3 25  1  0
  4 26  1  0
  4 27  1  0
  5 28  1  0
  5 29  1  0
 11 30  1  0
 12 31  1  0
 13 32  1  0
 15 33  1  0
 16 34  1  0
 17 35  1  0
M  CHG  1   6  -1
M  END
>  <UniqueID>  (9) 
9

>  <SMILES>  (9) 
CCNCC[N-]S(=O)(=O)c1cccc2cccnc12

>  <Energy>  (9) 
33.90734531903858

>  <Genealogy>  (9) 
CCNCC[N-]S(=O)(=O)c1cccc2cccnc12 (protonated)
CCNCC[N-]S(=O)(=O)c1cccc2cccnc12 (3D coordinates assigned)
CCNCC[N-]S(=O)(=O)c1cccc2cccnc12 (optimized conformer: 33.90734531903858 kcal/mol)

>  <smiles>  (9) 
CCNCCNS(=O)(=O)c1cccc2cccnc12

>  <score_type>  (9) 
oracle

>  <origin>  (9) 
adg

>  <m_score__min__energy>  (9) 
-8.3200000000000003

>  <m_primary>  (9) 
energy

$$$$
9:0
     RDKit          3D

 49 50  0  0  0  0  0  0  0  0999 V2000
   -9.1760   22.7420  -31.9450 C   0  0  0  0  0  0  0  0  0  0  0  0
   -9.4330   21.2710  -31.6550 C   0  0  0  0  0  0  0  0  0  0  0  0
   -8.3230   20.4550  -32.1620 N   0  0  0  0  0  0  0  0  0  0  0  0
   -8.7360   19.0610  -32.3920 C   0  0  0  0  0  0  0  0  0  0  0  0
   -7.5090   18.1590  -32.5460 C   0  0  0  0  0  0  0  0  0  0  0  0
   -6.4140   18.6270  -31.7590 O   0  0  0  0  0  0  0  0  0  0  0  0
   -5.3780   19.4620  -32.2130 C   0  0  0  0  0  0  0  0  0  0  0  0
   -4.3500   19.0070  -33.0590 C   0  0  0  0  0  0  0  0  0  0  0  0
   -3.3530   19.8870  -33.4850 C   0  0  0  0  0  0  0  0  0  0  0  0
   -3.3690   21.2220  -33.0780 C   0  0  0  0  0  0  0  0  0  0  0  0
   -4.3910   21.6950  -32.2320 C   0  0  0  0  0  0  0  0  0  0  0  0
   -4.4500   23.0700  -31.8020 N   0  0  0  0  0  0  0  0  0  0  0  0
   -5.6480   23.7120  -31.2580 C   0  0  0  0  0  0  0  0  0  0  0  0
   -5.2670   24.8550  -30.3170 C   0  0  0  0  0  0  0  0  0  0  0  0
   -3.8520   25.1810  -30.4910 N   0  0  0  0  0  0  0  0  0  0  0  0
   -2.9240   24.5510  -29.1630 S   0  0  0  0  0  0  0  0  0  0  0  0
   -3.7580   24.5780  -27.9150 O   0  0  0  0  0  0  0  0  0  0  0  0
   -1.7050   25.4060  -28.9510 O   0  0  0  0  0  0  0  0  0  0  0  0
   -2.4580   22.8870  -29.5140 C   0  0  0  0  0  0  0  0  0  0  0  0
   -1.3640   22.6390  -30.3530 C   0  0  0  0  0  0  0  0  0  0  0  0
   -0.9450   21.3270  -30.5910 C   0  0  0  0  0  0  0  0  0  0  0  0
   -1.6130   20.2580  -29.9880 C   0  0  0  0  0  0  0  0  0  0  0  0
   -2.7020   20.5010  -29.1470 C   0  0  0  0  0  0  0  0  0  0  0  0
   -3.1250   21.8120  -28.9090 C   0  0  0  0  0  0  0  0  0  0  0  0
   -5.3820   20.8000  -31.8000 C   0  0  0  0  0  0  0  0  0  0  0  0
   -9.0800   23.2913  -30.9968 H   0  0  0  0  0  0  0  0  0  0  0  0
   -8.2463   22.8446  -32.5239 H   0  0  0  0  0  0  0  0  0  0  0  0
  -10.0158   23.1538  -32.5239 H   0  0  0  0  0  0  0  0  0  0  0  0
   -9.5251   21.1251  -30.5686 H   0  0  0  0  0  0  0  0  0  0  0  0
  -10.3634   20.9630  -32.1544 H   0  0  0  0  0  0  0  0  0  0  0  0
   -7.5720   20.4560  -31.4310 H   0  0  0  0  0  0  0  0  0  0  0  0
   -9.3352   18.7148  -31.5370 H   0  0  0  0  0  0  0  0  0  0  0  0
   -9.3318   19.0133  -33.3154 H   0  0  0  0  0  0  0  0  0  0  0  0
   -7.7713   17.1405  -32.2237 H   0  0  0  0  0  0  0  0  0  0  0  0
   -7.2037   18.1688  -33.6028 H   0  0  0  0  0  0  0  0  0  0  0  0
   -4.3316   17.9567  -33.3853 H   0  0  0  0  0  0  0  0  0  0  0  0
   -2.5505   19.5261  -34.1451 H   0  0  0  0  0  0  0  0  0  0  0  0
   -2.5798   21.9079  -33.4195 H   0  0  0  0  0  0  0  0  0  0  0  0
   -3.5840   23.6510  -31.8660 H   0  0  0  0  0  0  0  0  0  0  0  0
   -6.2514   24.1118  -32.0863 H   0  0  0  0  0  0  0  0  0  0  0  0
   -6.2244   22.9650  -30.6926 H   0  0  0  0  0  0  0  0  0  0  0  0
   -5.8780   25.7398  -30.5492 H   0  0  0  0  0  0  0  0  0  0  0  0
   -5.4463   24.5473  -29.2762 H   0  0  0  0  0  0  0  0  0  0  0  0
   -0.8335   23.4787  -30.8256 H   0  0  0  0  0  0  0  0  0  0  0  0
   -0.0883   21.1357  -31.2539 H   0  0  0  0  0  0  0  0  0  0  0  0
   -1.2818   19.2259  -30.1753 H   0  0  0  0  0  0  0  0  0  0  0  0
   -3.2272   19.6596  -28.6715 H   0  0  0  0  0  0  0  0  0  0  0  0
   -3.9824   22.0006  -28.2462 H   0  0  0  0  0  0  0  0  0  0  0  0
   -6.1751   21.1555  -31.1257 H   0  0  0  0  0  0  0  0  0  0  0  0
  1  2  1  0
  2  3  1  0
  3  4  1  0
  4  5  1  0
  5  6  1  0
  6  7  1  0
  7  8  2  0
  8  9  1  0
  9 10  2  0
 10 11  1  0
 11 12  1  0
 12 13  1  0
 13 14  1  0
 14 15  1  0
 15 16  1  0
 16 17  2  0
 16 18  2  0
 16 19  1  0
 19 20  2  0
 20 21  1  0
 21 22  2  0
 22 23  1  0
 23 24  2  0
 11 25  2  0
 25  7  1  0
 24 19  1  0
  1 26  1  0
  1 27  1  0
  1 28  1  0
  2 29  1  0
  2 30  1  0
  3 31  1  0
  4 32  1  0
  4 33  1  0
  5 34  1  0
  5 35  1  0
  8 36  1  0
  9 37  1  0
 10 38  1  0
 12 39  1  0
 13 40  1  0
 13 41  1  0
 14 42  1  0
 14 43  1  0
 20 44  1  0
 21 45  1  0
 22 46  1  0
 23 47  1  0
 24 48  1  0
 25 49  1  0
M  CHG  1  15  -1
M  END
>  <UniqueID>  (10) 
10

>  <SMILES>  (10) 
CCNCCOc1cccc(NCC[N-]S(=O)(=O)c2ccccc2)c1

>  <Energy>  (10) 
39.07993300050557

>  <Genealogy>  (10) 
CCNCCOc1cccc(NCC[N-]S(=O)(=O)c2ccccc2)c1 (protonated)
CCNCCOc1cccc(NCC[N-]S(=O)(=O)c2ccccc2)c1 (3D coordinates assigned)
CCNCCOc1cccc(NCC[N-]S(=O)(=O)c2ccccc2)c1 (optimized conformer: 39.07993300050557 kcal/mol)

>  <smiles>  (10) 
CCNCCOc1cccc(NCCNS(=O)(=O)c2ccccc2)c1

>  <score_type>  (10) 
oracle

>  <origin>  (10) 
adg

>  <m_score__min__energy>  (10) 
-8.7599999999999998

>  <m_primary>  (10) 
energy

$$$$
10:0
     RDKit          3D

 44 45  0  0  0  0  0  0  0  0999 V2000
   -8.7990   18.2040  -31.6160 C   0  0  0  0  0  0  0  0  0  0  0  0
   -9.1480   19.6340  -32.0160 C   0  0  0  0  0  0  0  0  0  0  0  0
   -8.3660   20.0500  -33.1350 O   0  0  0  0  0  0  0  0  0  0  0  0
   -7.0050   20.3980  -33.0980 C   0  0  0  0  0  0  0  0  0  0  0  0
   -5.9890   19.5450  -33.5620 C   0  0  0  0  0  0  0  0  0  0  0  0
   -4.6540   19.9410  -33.5000 C   0  0  0  0  0  0  0  0  0  0  0  0
   -4.3010   21.1990  -32.9740 C   0  0  0  0  0  0  0  0  0  0  0  0
   -2.9620   21.6150  -32.8980 O   0  0  0  0  0  0  0  0  0  0  0  0
   -1.9070   20.8570  -32.3140 C   0  0  0  0  0  0  0  0  0  0  0  0
   -1.7710   21.2250  -30.8460 C   0  0  0  0  0  0  0  0  0  0  0  0
   -5.3140   22.0660  -32.5110 C   0  0  0  0  0  0  0  0  0  0  0  0
   -4.9600   23.3570  -31.9710 N   0  0  0  0  0  0  0  0  0  0  0  0
   -5.9430   24.2970  -31.4270 C   0  0  0  0  0  0  0  0  0  0  0  0
   -5.2730   25.3350  -30.5820 C   0  0  0  0  0  0  0  0  0  0  0  0
   -5.9550   26.2770  -30.0960 O   0  0  0  0  0  0  0  0  0  0  0  0
   -3.8490   25.3010  -30.4240 N   0  0  0  0  0  0  0  0  0  0  0  0
   -3.1140   24.5350  -29.4580 C   0  0  0  0  0  0  0  0  0  0  0  0
   -1.8530   24.9430  -28.9820 C   0  0  0  0  0  0  0  0  0  0  0  0
   -1.1830   24.1800  -28.0210 C   0  0  0  0  0  0  0  0  0  0  0  0
   -1.7680   23.0130  -27.5190 C   0  0  0  0  0  0  0  0  0  0  0  0
   -0.8510   21.9710  -26.2060 Br  0  0  0  0  0  0  0  0  0  0  0  0
   -3.0290   22.6150  -27.9710 C   0  0  0  0  0  0  0  0  0  0  0  0
   -3.7010   23.3770  -28.9320 C   0  0  0  0  0  0  0  0  0  0  0  0
   -6.6590   21.6500  -32.5820 C   0  0  0  0  0  0  0  0  0  0  0  0
   -8.7796   18.1245  -30.5191 H   0  0  0  0  0  0  0  0  0  0  0  0
   -9.5554   17.5152  -32.0202 H   0  0  0  0  0  0  0  0  0  0  0  0
   -7.8103   17.9411  -32.0202 H   0  0  0  0  0  0  0  0  0  0  0  0
  -10.2142   19.6846  -32.2818 H   0  0  0  0  0  0  0  0  0  0  0  0
   -8.9341   20.3007  -31.1676 H   0  0  0  0  0  0  0  0  0  0  0  0
   -6.2487   18.5596  -33.9763 H   0  0  0  0  0  0  0  0  0  0  0  0
   -3.8679   19.2640  -33.8657 H   0  0  0  0  0  0  0  0  0  0  0  0
   -2.1332   19.7842  -32.4036 H   0  0  0  0  0  0  0  0  0  0  0  0
   -0.9644   21.0780  -32.8361 H   0  0  0  0  0  0  0  0  0  0  0  0
   -2.0855   20.3740  -30.2240 H   0  0  0  0  0  0  0  0  0  0  0  0
   -0.7221   21.4724  -30.6256 H   0  0  0  0  0  0  0  0  0  0  0  0
   -2.4070   22.0950  -30.6256 H   0  0  0  0  0  0  0  0  0  0  0  0
   -3.9540   23.6410  -31.9680 H   0  0  0  0  0  0  0  0  0  0  0  0
   -6.4676   24.7916  -32.2578 H   0  0  0  0  0  0  0  0  0  0  0  0
   -6.6564   23.7396  -30.8022 H   0  0  0  0  0  0  0  0  0  0  0  0
   -1.3936   25.8651  -29.3676 H   0  0  0  0  0  0  0  0  0  0  0  0
   -0.1941   24.4980  -27.6591 H   0  0  0  0  0  0  0  0  0  0  0  0
   -3.4933   21.7017  -27.5706 H   0  0  0  0  0  0  0  0  0  0  0  0
   -4.6976   23.0648  -29.2773 H   0  0  0  0  0  0  0  0  0  0  0  0
   -7.4516   22.3238  -32.2244 H   0  0  0  0  0  0  0  0  0  0  0  0
  1  2  1  0
  2  3  1  0
  3  4  1  0
  4  5  2  0
  5  6  1  0
  6  7  2  0
  7  8  1  0
  8  9  1  0
  9 10  1  0
  7 11  1  0
 11 12  1  0
 12 13  1  0
 13 14  1  0
 14 15  2  0
 14 16  1  0
 16 17  1  0
 17 18  2  0
 18 19  1  0
 19 20  2  0
 20 21  1  0
 20 22  1  0
 22 23  2  0
 11 24  2  0
 24  4  1  0
 23 17  1  0
  1 25  1  0
  1 26  1  0
  1 27  1  0
  2 28  1  0
  2 29  1  0
  5 30  1  0
  6 31  1  0
  9 32  1  0
  9 33  1  0
 10 34  1  0
 10 35  1  0
 10 36  1  0
 12 37  1  0
 13 38  1  0
 13 39  1  0
 18 40  1  0
 19 41  1  0
 22 42  1  0
 23 43  1  0
 24 44  1  0
M  CHG  1  16  -1
M  END
>  <UniqueID>  (11) 
11

>  <SMILES>  (11) 
CCOc1ccc(OCC)c(NCC(=O)[N-]c2ccc(Br)cc2)c1

>  <Energy>  (11) 
41.20951006888011

>  <Genealogy>  (11) 
CCOc1ccc(OCC)c(NCC(=O)[N-]c2ccc(Br)cc2)c1 (protonated)
CCOc1ccc(OCC)c(NCC(=O)[N-]c2ccc(Br)cc2)c1 (3D coordinates assigned)
CCOc1ccc(OCC)c(NCC(=O)[N-]c2ccc(Br)cc2)c1 (optimized conformer: 41.20951006888011 kcal/mol)

>  <smiles>  (11) 
CCOc1ccc(OCC)c(NCC(=O)Nc2ccc(Br)cc2)c1

>  <score_type>  (11) 
oracle

>  <origin>  (11) 
adg

>  <m_score__min__energy>  (11) 
-8.5500000000000007

>  <m_primary>  (11) 
energy

$$$$
11:0
     RDKit          3D

 40 41  0  0  0  0  0  0  0  0999 V2000
   -6.5590   24.8330  -30.0950 C   0  0  0  0  0  0  0  0  0  0  0  0
   -5.2970   25.2980  -30.8170 C   0  0  0  0  0  0  0  0  0  0  0  0
   -4.2470   24.2570  -30.7410 N   0  0  0  0  0  0  0  0  0  0  0  0
   -3.2860   24.5410  -29.6520 C   0  0  0  0  0  0  0  0  0  0  0  0
   -3.7740   23.9290  -28.3420 C   0  0  0  0  0  0  0  0  0  0  0  0
   -4.8410   22.9060  -30.5940 C   0  0  0  0  0  0  0  0  0  0  0  0
   -3.9590   21.8690  -31.2930 C   0  0  0  0  0  0  0  0  0  0  0  0
   -4.2330   21.8910  -33.1000 S   0  0  0  0  0  0  0  0  0  0  0  0
   -5.4920   20.6030  -33.0800 C   0  0  0  0  0  0  0  0  0  0  0  0
   -5.1320   19.3460  -33.4500 N   0  0  0  0  0  0  0  0  0  0  0  0
   -6.0190   18.3180  -33.4430 C   0  0  0  0  0  0  0  0  0  0  0  0
   -5.5870   16.9580  -33.8790 C   0  0  0  0  0  0  0  0  0  0  0  0
   -7.3120   18.5400  -33.0890 N   0  0  0  0  0  0  0  0  0  0  0  0
   -7.7340   19.7760  -32.7180 C   0  0  0  0  0  0  0  0  0  0  0  0
   -9.0710   19.9740  -32.3510 C   0  0  0  0  0  0  0  0  0  0  0  0
   -9.5090   21.2430  -31.9660 C   0  0  0  0  0  0  0  0  0  0  0  0
   -8.6180   22.3190  -31.9460 C   0  0  0  0  0  0  0  0  0  0  0  0
   -7.2810   22.1320  -32.3120 C   0  0  0  0  0  0  0  0  0  0  0  0
   -6.8260   20.8580  -32.7020 C   0  0  0  0  0  0  0  0  0  0  0  0
   -6.4019   24.8909  -29.0078 H   0  0  0  0  0  0  0  0  0  0  0  0
   -7.4028   25.4793  -30.3784 H   0  0  0  0  0  0  0  0  0  0  0  0
   -6.7818   23.7938  -30.3784 H   0  0  0  0  0  0  0  0  0  0  0  0
   -5.5353   25.4964  -31.8724 H   0  0  0  0  0  0  0  0  0  0  0  0
   -4.9268   26.2148  -30.3348 H   0  0  0  0  0  0  0  0  0  0  0  0
   -2.3070   24.1113  -29.9107 H   0  0  0  0  0  0  0  0  0  0  0  0
   -3.1983   25.6304  -29.5272 H   0  0  0  0  0  0  0  0  0  0  0  0
   -3.3362   24.4780  -27.4953 H   0  0  0  0  0  0  0  0  0  0  0  0
   -4.8710   23.9939  -28.2932 H   0  0  0  0  0  0  0  0  0  0  0  0
   -3.4665   22.8740  -28.2932 H   0  0  0  0  0  0  0  0  0  0  0  0
   -4.9197   22.6567  -29.5255 H   0  0  0  0  0  0  0  0  0  0  0  0
   -5.8407   22.8986  -31.0528 H   0  0  0  0  0  0  0  0  0  0  0  0
   -2.9028   22.0965  -31.0861 H   0  0  0  0  0  0  0  0  0  0  0  0
   -4.2194   20.8711  -30.9103 H   0  0  0  0  0  0  0  0  0  0  0  0
   -5.3891   16.3350  -32.9943 H   0  0  0  0  0  0  0  0  0  0  0  0
   -6.3827   16.4963  -34.4821 H   0  0  0  0  0  0  0  0  0  0  0  0
   -4.6707   17.0401  -34.4821 H   0  0  0  0  0  0  0  0  0  0  0  0
   -9.7762   19.1299  -32.3660 H   0  0  0  0  0  0  0  0  0  0  0  0
  -10.5594   21.3959  -31.6774 H   0  0  0  0  0  0  0  0  0  0  0  0
   -8.9690   23.3161  -31.6415 H   0  0  0  0  0  0  0  0  0  0  0  0
   -6.5834   22.9823  -32.2951 H   0  0  0  0  0  0  0  0  0  0  0  0
  1  2  1  0
  2  3  1  0
  3  4  1  0
  4  5  1  0
  3  6  1  0
  6  7  1  0
  7  8  1  0
  8  9  1  0
  9 10  2  0
 10 11  1  0
 11 12  1  0
 11 13  2  0
 13 14  1  0
 14 15  2  0
 15 16  1  0
 16 17  2  0
 17 18  1  0
 18 19  2  0
 19  9  1  0
 19 14  1  0
  1 20  1  0
  1 21  1  0
  1 22  1  0
  2 23  1  0
  2 24  1  0
  4 25  1  0
  4 26  1  0
  5 27  1  0
  5 28  1  0
  5 29  1  0
  6 30  1  0
  6 31  1  0
  7 32  1  0
  7 33  1  0
 12 34  1  0
 12 35  1  0
 12 36  1  0
 15 37  1  0
 16 38  1  0
 17 39  1  0
 18 40  1  0
M  END
>  <UniqueID>  (12) 
12

>  <SMILES>  (12) 
CCN(CC)CCSc1nc(C)nc2ccccc12

>  <Energy>  (12) 
36.07182385586377

>  <Genealogy>  (12) 
CCN(CC)CCSc1nc(C)nc2ccccc12 (3D coordinates assigned)
CCN(CC)CCSc1nc(C)nc2ccccc12 (optimized conformer: 36.07182385586377 kcal/mol)

>  <smiles>  (12) 
CCN(CC)CCSc1nc(C)nc2ccccc12

>  <score_type>  (12) 
oracle

>  <origin>  (12) 
adg

>  <m_score__min__energy>  (12) 
-7.4000000000000004

>  <m_primary>  (12) 
energy

$$$$
12:0
     RDKit          3D

 44 46  0  0  0  0  0  0  0  0999 V2000
   -3.5910   22.2690  -32.0180 C   0  0  0  0  0  0  0  0  0  0  0  0
   -3.2450   23.0980  -30.7900 C   0  0  0  0  0  0  0  0  0  0  0  0
   -3.9510   24.3200  -30.8420 O   0  0  0  0  0  0  0  0  0  0  0  0
   -5.0390   24.3010  -29.9360 C   0  0  0  0  0  0  0  0  0  0  0  0
   -6.2590   23.7450  -30.6020 C   0  0  0  0  0  0  0  0  0  0  0  0
   -6.5710   23.8610  -31.9510 C   0  0  0  0  0  0  0  0  0  0  0  0
   -7.7020   23.1240  -32.3200 C   0  0  0  0  0  0  0  0  0  0  0  0
   -8.2650   22.4210  -31.2610 C   0  0  0  0  0  0  0  0  0  0  0  0
   -9.4220   21.4800  -31.3530 C   0  0  0  0  0  0  0  0  0  0  0  0
   -9.1730   20.4010  -32.3280 N   0  0  0  0  0  0  0  0  0  0  0  0
   -7.8770   19.6830  -32.2310 C   0  0  1  0  0  0  0  0  0  0  0  0
   -7.9880   18.1370  -32.1940 C   0  0  0  0  0  0  0  0  0  0  0  0
   -6.6280   17.4930  -31.8700 C   0  0  0  0  0  0  0  0  0  0  0  0
   -5.5370   18.1410  -32.6700 C   0  0  0  0  0  0  0  0  0  0  0  0
   -4.2990   17.6480  -32.8450 N   0  0  0  0  0  0  0  0  0  0  0  0
   -3.6920   18.6100  -33.5750 C   0  0  0  0  0  0  0  0  0  0  0  0
   -2.2860   18.5190  -34.0650 C   0  0  0  0  0  0  0  0  0  0  0  0
   -4.5140   19.6530  -33.8340 N   0  0  0  0  0  0  0  0  0  0  0  0
   -5.6560   19.3520  -33.2370 N   0  0  0  0  0  0  0  0  0  0  0  0
   -6.8860   20.1350  -33.3270 C   0  0  0  0  0  0  0  0  0  0  0  0
   -7.3750   22.7250  -29.8640 S   0  0  0  0  0  0  0  0  0  0  0  0
   -3.9968   21.2968  -31.7016 H   0  0  0  0  0  0  0  0  0  0  0  0
   -4.3420   22.8014  -32.6201 H   0  0  0  0  0  0  0  0  0  0  0  0
   -2.6843   22.1095  -32.6201 H   0  0  0  0  0  0  0  0  0  0  0  0
   -3.5296   22.5468  -29.8816 H   0  0  0  0  0  0  0  0  0  0  0  0
   -2.1632   23.2962  -30.7701 H   0  0  0  0  0  0  0  0  0  0  0  0
   -4.7799   23.6733  -29.0706 H   0  0  0  0  0  0  0  0  0  0  0  0
   -5.2483   25.3293  -29.6060 H   0  0  0  0  0  0  0  0  0  0  0  0
   -5.9881   24.4704  -32.6573 H   0  0  0  0  0  0  0  0  0  0  0  0
   -8.1044   23.1031  -33.3435 H   0  0  0  0  0  0  0  0  0  0  0  0
   -9.5969   21.0326  -30.3634 H   0  0  0  0  0  0  0  0  0  0  0  0
  -10.3008   22.0496  -31.6896 H   0  0  0  0  0  0  0  0  0  0  0  0
   -9.2220   20.8350  -33.2790 H   0  0  0  0  0  0  0  0  0  0  0  0
   -7.4797   19.9727  -31.2470 H   0  0  0  0  0  0  0  0  0  0  0  0
   -8.7161   17.8472  -31.4221 H   0  0  0  0  0  0  0  0  0  0  0  0
   -8.3147   17.7857  -33.1839 H   0  0  0  0  0  0  0  0  0  0  0  0
   -6.4143   17.6180  -30.7982 H   0  0  0  0  0  0  0  0  0  0  0  0
   -6.6702   16.4240  -32.1257 H   0  0  0  0  0  0  0  0  0  0  0  0
   -3.9060   16.7430  -32.5070 H   0  0  0  0  0  0  0  0  0  0  0  0
   -1.6005   18.4746  -33.2059 H   0  0  0  0  0  0  0  0  0  0  0  0
   -2.1684   17.6114  -34.6752 H   0  0  0  0  0  0  0  0  0  0  0  0
   -2.0524   19.4039  -34.6752 H   0  0  0  0  0  0  0  0  0  0  0  0
   -6.6511   21.2008  -33.1896 H   0  0  0  0  0  0  0  0  0  0  0  0
   -7.3430   19.9801  -34.3155 H   0  0  0  0  0  0  0  0  0  0  0  0
  1  2  1  0
  2  3  1  0
  3  4  1  0
  4  5  1  0
  5  6  2  0
  6  7  1  0
  7  8  2  0
  8  9  1  0
  9 10  1  0
 10 11  1  0
 11 12  1  0
 12 13  1  0
 13 14  1  0
 14 15  2  0
 15 16  1  0
 16 17  1  0
 16 18  2  0
 18 19  1  0
 19 20  1  0
  8 21  1  0
 21  5  1  0
 20 11  1  0
 19 14  1  0
  1 22  1  0
  1 23  1  0
  1 24  1  0
  2 25  1  0
  2 26  1  0
  4 27  1  0
  4 28  1  0
  6 29  1  0
  7 30  1  0
  9 31  1  0
  9 32  1  0
 10 33  1  0
 11 34  1  1
 12 35  1  0
 12 36  1  0
 13 37  1  0
 13 38  1  0
 15 39  1  0
 17 40  1  0
 17 41  1  0
 17 42  1  0
 20 43  1  0
 20 44  1  0
M  CHG  1  15   1
M  END
>  <UniqueID>  (13) 
13

>  <SMILES>  (13) 
CCOCc1ccc(CN[C@H]2CCc3[nH+]c(C)nn3C2)s1

>  <Energy>  (13) 
104.90399431374189

>  <Genealogy>  (13) 
CCOCc1ccc(CNC2CCc3[nH+]c(C)nn3C2)s1 (protonated)
CCOCc1ccc(CN[C@H]2CCc3[nH+]c(C)nn3C2)s1 (chirality)
CCOCc1ccc(CN[C@H]2CCc3[nH+]c(C)nn3C2)s1 (3D coordinates assigned)
CCOCc1ccc(CN[C@H]2CCc3[nH+]c(C)nn3C2)s1 (nonaromatic ring conformer: 104.90399431374189 kcal/mol)

>  <smiles>  (13) 
CCOCc1ccc(CNC2CCc3nc(C)nn3C2)s1

>  <score_type>  (13) 
oracle

>  <origin>  (13) 
adg

>  <m_score__min__energy>  (13) 
-7.7699999999999996

>  <m_primary>  (13) 
energy

$$$$
13:0
     RDKit          3D

 77 80  0  0  0  0  0  0  0  0999 V2000
   -4.1040   22.3220  -33.6180 N   0  0  0  0  0  0  0  0  0  0  0  0
   -3.1810   21.3900  -33.0550 C   0  0  0  0  0  0  0  0  0  0  0  0
   -1.9150   21.1820  -33.6950 N   0  0  0  0  0  0  0  0  0  0  0  0
   -3.5070   20.7610  -31.9630 N   0  0  0  0  0  0  0  0  0  0  0  0
   -2.8190   20.8840  -30.6800 C   0  0  0  0  0  0  0  0  0  0  0  0
   -1.3430   21.2120  -30.9240 C   0  0  0  0  0  0  0  0  0  0  0  0
   -0.4120   20.0200  -30.6270 C   0  0  0  0  0  0  0  0  0  0  0  0
   -0.1980   18.9820  -31.7630 C   0  0  2  0  0  0  0  0  0  0  0  0
   -1.4190   18.6400  -32.5290 N   0  0  0  0  0  0  0  0  0  0  0  0
   -1.3550   17.5000  -33.4700 C   0  0  1  0  0  0  0  0  0  0  0  0
   -2.5190   17.5970  -34.4830 C   0  0  0  0  0  0  0  0  0  0  0  0
   -3.6630   18.3100  -33.9090 N   0  0  0  0  0  0  0  0  0  0  0  0
   -5.0250   17.9000  -34.1290 C   0  0  0  0  0  0  0  0  0  0  0  0
   -5.2660   16.9070  -34.8710 O   0  0  0  0  0  0  0  0  0  0  0  0
   -6.1550   18.6050  -33.4780 C   0  0  0  0  0  0  0  0  0  0  0  0
   -7.2800   17.8740  -33.0510 C   0  0  0  0  0  0  0  0  0  0  0  0
   -8.3530   18.5130  -32.4290 C   0  0  0  0  0  0  0  0  0  0  0  0
   -8.3270   19.8990  -32.2250 C   0  0  0  0  0  0  0  0  0  0  0  0
   -9.4010   20.5510  -31.5970 C   0  0  0  0  0  0  0  0  0  0  0  0
   -9.3630   21.9350  -31.4020 C   0  0  0  0  0  0  0  0  0  0  0  0
   -8.2600   22.6750  -31.8330 C   0  0  0  0  0  0  0  0  0  0  0  0
   -7.1870   22.0380  -32.4630 C   0  0  0  0  0  0  0  0  0  0  0  0
   -7.2100   20.6490  -32.6620 C   0  0  0  0  0  0  0  0  0  0  0  0
   -6.1360   19.9990  -33.2900 C   0  0  0  0  0  0  0  0  0  0  0  0
    0.0010   17.4710  -34.2110 C   0  0  0  0  0  0  0  0  0  0  0  0
    1.0240   16.5710  -33.5050 C   0  0  0  0  0  0  0  0  0  0  0  0
    1.5400   17.1600  -32.2640 N   0  0  0  0  0  0  0  0  0  0  0  0
    2.9810   17.4010  -32.1310 C   0  0  0  0  0  0  0  0  0  0  0  0
    3.4970   18.2370  -33.2710 C   0  0  0  0  0  0  0  0  0  0  0  0
    4.5860   17.7940  -34.0370 C   0  0  0  0  0  0  0  0  0  0  0  0
    5.0500   18.5600  -35.1090 C   0  0  0  0  0  0  0  0  0  0  0  0
    4.4360   19.7760  -35.4230 C   0  0  0  0  0  0  0  0  0  0  0  0
    3.3460   20.2380  -34.6590 C   0  0  0  0  0  0  0  0  0  0  0  0
    2.6870   21.4500  -34.9250 O   0  0  0  0  0  0  0  0  0  0  0  0
    1.8360   21.7180  -36.0410 C   0  0  0  0  0  0  0  0  0  0  0  0
    0.6310   20.7770  -36.0520 C   0  0  0  0  0  0  0  0  0  0  0  0
   -0.4550   21.4290  -36.6050 F   0  0  0  0  0  0  0  0  0  0  0  0
    0.9190   19.6580  -36.8130 F   0  0  0  0  0  0  0  0  0  0  0  0
    0.3100   20.3810  -34.7680 F   0  0  0  0  0  0  0  0  0  0  0  0
    2.8810   19.4590  -33.5920 C   0  0  0  0  0  0  0  0  0  0  0  0
    0.6420   17.7940  -31.3450 C   0  0  0  0  0  0  0  0  0  0  0  0
    0.5380   17.3410  -30.1730 O   0  0  0  0  0  0  0  0  0  0  0  0
   -3.8570   22.8580  -34.4800 H   0  0  0  0  0  0  0  0  0  0  0  0
   -5.0320   22.4860  -33.1690 H   0  0  0  0  0  0  0  0  0  0  0  0
   -1.1930   20.5390  -33.3060 H   0  0  0  0  0  0  0  0  0  0  0  0
   -1.6860   21.6950  -34.5750 H   0  0  0  0  0  0  0  0  0  0  0  0
   -3.2816   21.6898  -30.0912 H   0  0  0  0  0  0  0  0  0  0  0  0
   -2.8984   19.9359  -30.1280 H   0  0  0  0  0  0  0  0  0  0  0  0
   -1.2167   21.5034  -31.9772 H   0  0  0  0  0  0  0  0  0  0  0  0
   -1.0665   22.0281  -30.2403 H   0  0  0  0  0  0  0  0  0  0  0  0
    0.5744   20.4291  -30.3632 H   0  0  0  0  0  0  0  0  0  0  0  0
   -0.9166   19.4608  -29.8253 H   0  0  0  0  0  0  0  0  0  0  0  0
    0.4189   19.5087  -32.5060 H   0  0  0  0  0  0  0  0  0  0  0  0
   -2.2040   18.5060  -31.8510 H   0  0  0  0  0  0  0  0  0  0  0  0
   -1.4483   16.5652  -32.8977 H   0  0  0  0  0  0  0  0  0  0  0  0
   -2.1724   18.1357  -35.3772 H   0  0  0  0  0  0  0  0  0  0  0  0
   -2.8393   16.5776  -34.7441 H   0  0  0  0  0  0  0  0  0  0  0  0
   -3.4560   19.0380  -33.1910 H   0  0  0  0  0  0  0  0  0  0  0  0
   -7.3134   16.7860  -33.2097 H   0  0  0  0  0  0  0  0  0  0  0  0
   -9.2226   17.9266  -32.0975 H   0  0  0  0  0  0  0  0  0  0  0  0
  -10.2729   19.9722  -31.2583 H   0  0  0  0  0  0  0  0  0  0  0  0
  -10.2045   22.4424  -30.9076 H   0  0  0  0  0  0  0  0  0  0  0  0
   -8.2354   23.7635  -31.6761 H   0  0  0  0  0  0  0  0  0  0  0  0
   -6.3226   22.6269  -32.8036 H   0  0  0  0  0  0  0  0  0  0  0  0
   -5.2723   20.5846  -33.6380 H   0  0  0  0  0  0  0  0  0  0  0  0
   -0.1601   17.0927  -35.2313 H   0  0  0  0  0  0  0  0  0  0  0  0
    0.4023   18.4951  -34.2244 H   0  0  0  0  0  0  0  0  0  0  0  0
    0.5415   15.6121  -33.2647 H   0  0  0  0  0  0  0  0  0  0  0  0
    1.8761   16.4397  -34.1881 H   0  0  0  0  0  0  0  0  0  0  0  0
    3.1715   17.9275  -31.1842 H   0  0  0  0  0  0  0  0  0  0  0  0
    3.5006   16.4315  -32.1450 H   0  0  0  0  0  0  0  0  0  0  0  0
    5.0761   16.8401  -33.7924 H   0  0  0  0  0  0  0  0  0  0  0  0
    5.9015   18.2051  -35.7082 H   0  0  0  0  0  0  0  0  0  0  0  0
    4.8050   20.3741  -36.2693 H   0  0  0  0  0  0  0  0  0  0  0  0
    1.4800   22.7570  -35.9801 H   0  0  0  0  0  0  0  0  0  0  0  0
    2.4113   21.5602  -36.9652 H   0  0  0  0  0  0  0  0  0  0  0  0
    2.0233   19.8077  -32.9980 H   0  0  0  0  0  0  0  0  0  0  0  0
  1  2  1  0
  2  3  1  0
  2  4  2  3
  4  5  1  0
  5  6  1  0
  6  7  1  0
  7  8  1  0
  8  9  1  0
  9 10  1  0
 10 11  1  0
 11 12  1  0
 12 13  1  0
 13 14  2  0
 13 15  1  0
 15 16  2  0
 16 17  1  0
 17 18  2  0
 18 19  1  0
 19 20  2  0
 20 21  1  0
 21 22  2  0
 22 23  1  0
 23 24  2  0
 10 25  1  0
 25 26  1  0
 26 27  1  0
 27 28  1  0
 28 29  1  0
 29 30  2  0
 30 31  1  0
 31 32  2  0
 32 33  1  0
 33 34  1  0
 34 35  1  0
 35 36  1  0
 36 37  1  0
 36 38  1  0
 36 39  1  0
 33 40  2  0
 27 41  1  0
 41 42  2  0
 41  8  1  0
 24 15  1  0
 40 29  1  0
 23 18  1  0
  1 43  1  0
  1 44  1  0
  3 45  1  0
  3 46  1  0
  5 47  1  0
  5 48  1  0
  6 49  1  0
  6 50  1  0
  7 51  1  0
  7 52  1  0
  8 53  1  6
  9 54  1  0
 10 55  1  1
 11 56  1  0
 11 57  1  0
 12 58  1  0
 16 59  1  0
 17 60  1  0
 19 61  1  0
 20 62  1  0
 21 63  1  0
 22 64  1  0
 24 65  1  0
 25 66  1  0
 25 67  1  0
 26 68  1  0
 26 69  1  0
 28 70  1  0
 28 71  1  0
 30 72  1  0
 31 73  1  0
 32 74  1  0
 35 75  1  0
 35 76  1  0
 40 77  1  0
M  END
>  <UniqueID>  (14) 
14

>  <SMILES>  (14) 
NC(N)=NCCC[C@@H]1N[C@@H](CNC(=O)c2ccc3ccccc3c2)CCN(Cc2cccc(OCC(F)(F)F)c2)C1=O

>  <Energy>  (14) 
93.78490499487023

>  <Genealogy>  (14) 
NC(N)=NCCC[C@@H]1N[C@@H](CNC(=O)c2ccc3ccccc3c2)CCN(Cc2cccc(OCC(F)(F)F)c2)C1=O (chirality)
NC(N)=NCCC[C@@H]1N[C@@H](CNC(=O)c2ccc3ccccc3c2)CCN(Cc2cccc(OCC(F)(F)F)c2)C1=O (3D coordinates assigned)
NC(N)=NCCC[C@@H]1N[C@@H](CNC(=O)c2ccc3ccccc3c2)CCN(Cc2cccc(OCC(F)(F)F)c2)C1=O (nonaromatic ring conformer: 93.78490499487023 kcal/mol)

>  <smiles>  (14) 
NC(N)=NCCCC1NC(CNC(=O)c2ccc3ccccc3c2)CCN(Cc2cccc(OCC(F)(F)F)c2)C1=O

>  <score_type>  (14) 
oracle

>  <origin>  (14) 
adg

>  <m_score__min__energy>  (14) 
-7.9000000000000004

>  <m_primary>  (14) 
energy

$$$$
14:0
     RDKit          3D

 39 42  0  0  0  0  0  0  0  0999 V2000
   -5.7380   17.8820  -34.8770 C   0  0  0  0  0  0  0  0  0  0  0  0
   -6.1740   19.2450  -34.5940 N   0  0  0  0  0  0  0  0  0  0  0  0
   -5.6900   20.0210  -33.4820 C   0  0  0  0  0  0  0  0  0  0  0  0
   -6.5490   20.8190  -32.7050 C   0  0  0  0  0  0  0  0  0  0  0  0
   -6.0500   21.5620  -31.6320 C   0  0  0  0  0  0  0  0  0  0  0  0
   -4.6830   21.5240  -31.3110 C   0  0  0  0  0  0  0  0  0  0  0  0
   -4.1510   22.3140  -30.1700 C   0  0  0  0  0  0  0  0  0  0  0  0
   -4.6660   23.5910  -29.8850 C   0  0  0  0  0  0  0  0  0  0  0  0
   -4.1750   24.3330  -28.8090 C   0  0  0  0  0  0  0  0  0  0  0  0
   -3.1580   23.8100  -27.9980 C   0  0  0  0  0  0  0  0  0  0  0  0
   -2.6200   22.5380  -28.2830 C   0  0  0  0  0  0  0  0  0  0  0  0
   -3.1310   21.7920  -29.3540 C   0  0  0  0  0  0  0  0  0  0  0  0
   -1.5850   21.9290  -27.3520 C   0  0  0  0  0  0  0  0  0  0  0  0
   -0.6820   22.9850  -26.6790 C   0  0  0  0  0  0  0  0  0  0  0  0
   -1.4960   24.1660  -26.2470 C   0  0  0  0  0  0  0  0  0  0  0  0
   -1.1990   25.0960  -25.2700 C   0  0  0  0  0  0  0  0  0  0  0  0
   -2.2170   26.0320  -25.3700 C   0  0  0  0  0  0  0  0  0  0  0  0
   -3.0530   25.6740  -26.3660 N   0  0  0  0  0  0  0  0  0  0  0  0
   -2.6040   24.5470  -26.8960 N   0  0  0  0  0  0  0  0  0  0  0  0
   -3.8250   20.7260  -32.0880 C   0  0  0  0  0  0  0  0  0  0  0  0
   -4.3240   19.9850  -33.1610 C   0  0  0  0  0  0  0  0  0  0  0  0
   -5.5671   17.3478  -33.9307 H   0  0  0  0  0  0  0  0  0  0  0  0
   -6.5145   17.3616  -35.4568 H   0  0  0  0  0  0  0  0  0  0  0  0
   -4.8036   17.9089  -35.4568 H   0  0  0  0  0  0  0  0  0  0  0  0
   -6.8760   19.6720  -35.2400 H   0  0  0  0  0  0  0  0  0  0  0  0
   -7.6220   20.8585  -32.9439 H   0  0  0  0  0  0  0  0  0  0  0  0
   -6.7336   22.1821  -31.0335 H   0  0  0  0  0  0  0  0  0  0  0  0
   -5.4638   24.0096  -30.5161 H   0  0  0  0  0  0  0  0  0  0  0  0
   -4.5872   25.3306  -28.5970 H   0  0  0  0  0  0  0  0  0  0  0  0
   -2.7303   20.7882  -29.5585 H   0  0  0  0  0  0  0  0  0  0  0  0
   -2.1091   21.3645  -26.5667 H   0  0  0  0  0  0  0  0  0  0  0  0
   -0.9363   21.2816  -27.9603 H   0  0  0  0  0  0  0  0  0  0  0  0
   -0.1951   22.5386  -25.7994 H   0  0  0  0  0  0  0  0  0  0  0  0
    0.0775   23.3189  -27.4013 H   0  0  0  0  0  0  0  0  0  0  0  0
   -0.3489   25.0944  -24.5719 H   0  0  0  0  0  0  0  0  0  0  0  0
   -2.3256   26.9252  -24.7372 H   0  0  0  0  0  0  0  0  0  0  0  0
   -3.9070   26.1950  -26.6640 H   0  0  0  0  0  0  0  0  0  0  0  0
   -2.7521   20.6851  -31.8487 H   0  0  0  0  0  0  0  0  0  0  0  0
   -3.6398   19.3668  -33.7608 H   0  0  0  0  0  0  0  0  0  0  0  0
  1  2  1  0
  2  3  1  0
  3  4  2  0
  4  5  1  0
  5  6  2  0
  6  7  1  0
  7  8  2  0
  8  9  1  0
  9 10  2  0
 10 11  1  0
 11 12  2  0
 11 13  1  0
 13 14  1  0
 14 15  1  0
 15 16  2  0
 16 17  1  0
 17 18  2  0
 18 19  1  0
  6 20  1  0
 20 21  2  0
 21  3  1  0
 12  7  1  0
 19 15  1  0
 19 10  1  0
  1 22  1  0
  1 23  1  0
  1 24  1  0
  2 25  1  0
  4 26  1  0
  5 27  1  0
  8 28  1  0
  9 29  1  0
 12 30  1  0
 13 31  1  0
 13 32  1  0
 14 33  1  0
 14 34  1  0
 16 35  1  0
 17 36  1  0
 18 37  1  0
 20 38  1  0
 21 39  1  0
M  CHG  1  18   1
M  END
>  <UniqueID>  (15) 
15

>  <SMILES>  (15) 
CNc1ccc(-c2ccc3c(c2)CCc2cc[nH+]n2-3)cc1

>  <Energy>  (15) 
81.96268222909664

>  <Genealogy>  (15) 
CNc1ccc(-c2ccc3c(c2)CCc2cc[nH+]n2-3)cc1 (protonated)
CNc1ccc(-c2ccc3c(c2)CCc2cc[nH+]n2-3)cc1 (3D coordinates assigned)
CNc1ccc(-c2ccc3c(c2)CCc2cc[nH+]n2-3)cc1 (nonaromatic ring conformer: 81.96268222909664 kcal/mol)

>  <smiles>  (15) 
CNc1ccc(-c2ccc3c(c2)CCc2ccnn2-3)cc1

>  <score_type>  (15) 
oracle

>  <origin>  (15) 
adg

>  <m_score__min__energy>  (15) 
-7.0300000000000002

>  <m_primary>  (15) 
energy

$$$$
15:0
     RDKit          3D

 47 48  0  0  0  0  0  0  0  0999 V2000
   -0.1705   19.5697  -29.3769 H   0  0  0  0  0  0  0  0  0  0  0  0
   -0.8390   20.3500  -28.9840 C   0  0  0  0  0  0  0  0  0  0  0  0
   -1.2200   20.3280  -27.6380 C   0  0  0  0  0  0  0  0  0  0  0  0
   -0.8488   19.5309  -26.9771 H   0  0  0  0  0  0  0  0  0  0  0  0
   -2.0700   21.3140  -27.1290 C   0  0  0  0  0  0  0  0  0  0  0  0
   -2.3667   21.2922  -26.0700 H   0  0  0  0  0  0  0  0  0  0  0  0
   -2.5440   22.3310  -27.9700 C   0  0  0  0  0  0  0  0  0  0  0  0
   -3.3980   23.3310  -27.4900 C   0  0  0  0  0  0  0  0  0  0  0  0
   -3.7117   23.3280  -26.4357 H   0  0  0  0  0  0  0  0  0  0  0  0
   -3.8510   24.3320  -28.3510 C   0  0  0  0  0  0  0  0  0  0  0  0
   -4.5242   25.1181  -27.9785 H   0  0  0  0  0  0  0  0  0  0  0  0
   -3.4450   24.3310  -29.6900 C   0  0  0  0  0  0  0  0  0  0  0  0
   -3.8620   25.2700  -30.4860 N   0  0  0  0  0  0  0  0  0  0  0  0
   -5.2620   25.6620  -30.6670 C   0  0  0  0  0  0  0  0  0  0  0  0
   -5.3005   26.5770  -31.2764 H   0  0  0  0  0  0  0  0  0  0  0  0
   -5.7025   25.8325  -29.6736 H   0  0  0  0  0  0  0  0  0  0  0  0
   -6.0720   24.5610  -31.3690 C   0  0  0  0  0  0  0  0  0  0  0  0
   -6.5063   24.9704  -32.2930 H   0  0  0  0  0  0  0  0  0  0  0  0
   -6.8620   24.2220  -30.6828 H   0  0  0  0  0  0  0  0  0  0  0  0
   -5.2280   23.4070  -31.7080 N   0  0  0  0  0  0  0  0  0  0  0  0
   -4.2280   23.6980  -31.5970 H   0  0  0  0  0  0  0  0  0  0  0  0
   -5.4700   22.2410  -30.8410 C   0  0  0  0  0  0  0  0  0  0  0  0
   -6.5425   22.1892  -30.6023 H   0  0  0  0  0  0  0  0  0  0  0  0
   -4.8712   22.3603  -29.9260 H   0  0  0  0  0  0  0  0  0  0  0  0
   -5.0440   20.9230  -31.5330 C   0  0  0  0  0  0  0  0  0  0  0  0
   -5.7895   20.1558  -31.2769 H   0  0  0  0  0  0  0  0  0  0  0  0
   -4.0284   20.7173  -31.1639 H   0  0  0  0  0  0  0  0  0  0  0  0
   -4.9220   20.9570  -33.0220 N   0  0  0  0  0  0  0  0  0  0  0  0
   -5.1950   21.9310  -33.2970 H   0  0  0  0  0  0  0  0  0  0  0  0
   -5.8860   20.0450  -33.6910 C   0  0  0  0  0  0  0  0  0  0  0  0
   -5.4641   19.0291  -33.6961 H   0  0  0  0  0  0  0  0  0  0  0  0
   -6.0481   20.4228  -34.7113 H   0  0  0  0  0  0  0  0  0  0  0  0
   -7.2500   20.0070  -32.9880 C   0  0  0  0  0  0  0  0  0  0  0  0
   -7.1010   20.0112  -31.8981 H   0  0  0  0  0  0  0  0  0  0  0  0
   -7.8382   20.8891  -33.2810 H   0  0  0  0  0  0  0  0  0  0  0  0
   -7.7882   19.0935  -33.2810 H   0  0  0  0  0  0  0  0  0  0  0  0
   -3.5220   20.7330  -33.4830 C   0  0  0  0  0  0  0  0  0  0  0  0
   -3.3891   21.2202  -34.4602 H   0  0  0  0  0  0  0  0  0  0  0  0
   -2.8463   21.1590  -32.7267 H   0  0  0  0  0  0  0  0  0  0  0  0
   -3.1880   19.2440  -33.6250 C   0  0  0  0  0  0  0  0  0  0  0  0
   -3.0871   18.7940  -32.6263 H   0  0  0  0  0  0  0  0  0  0  0  0
   -3.9950   18.7381  -34.1753 H   0  0  0  0  0  0  0  0  0  0  0  0
   -2.2422   19.1312  -34.1753 H   0  0  0  0  0  0  0  0  0  0  0  0
   -2.6200   23.3440  -30.1430 N   0  0  0  0  0  0  0  0  0  0  0  0
   -2.1590   22.3550  -29.3300 C   0  0  0  0  0  0  0  0  0  0  0  0
   -1.3050   21.3610  -29.8330 C   0  0  0  0  0  0  0  0  0  0  0  0
   -0.7620   21.3630  -31.6700 Br  0  0  0  0  0  0  0  0  0  0  0  0
  1  2  1  0
  2  3  2  0
  3  4  1  0
  3  5  1  0
  5  6  1  0
  5  7  2  0
  7  8  1  0
  8  9  1  0
  8 10  2  0
 10 11  1  0
 10 12  1  0
 12 13  2  0
 13 14  1  0
 14 15  1  0
 14 16  1  0
 14 17  1  0
 17 18  1  0
 17 19  1  0
 17 20  1  0
 20 21  1  0
 20 22  1  0
 22 23  1  0
 22 24  1  0
 22 25  1  0
 25 26  1  0
 25 27  1  0
 25 28  1  0
 28 29  1  0
 28 30  1  0
 30 31  1  0
 30 32  1  0
 30 33  1  0
 33 34  1  0
 33 35  1  0
 33 36  1  0
 28 37  1  0
 37 38  1  0
 37 39  1  0
 37 40  1  0
 40 41  1  0
 40 42  1  0
 40 43  1  0
 12 44  1  0
 44 45  1  0
 45 46  2  0
 46 47  1  0
 46  2  1  0
 45  7  1  0
M  CHG  2  28   1  44  -1
M  END
>  <UniqueID>  (16) 
16

>  <SMILES>  (16) 
CC[NH+](CC)CCNCC/N=c1/ccc2cccc(Br)c2[n-]1

>  <Energy>  (16) 
52.855382131431305

>  <Genealogy>  (16) 
CC[NH+](CC)CCNCCN=c1ccc2cccc(Br)c2[n-]1 (protonated)
CC[NH+](CC)CCNCC/N=c1/ccc2cccc(Br)c2[n-]1 (cis-trans isomerization)
CC[NH+](CC)CCNCC/N=c1/ccc2cccc(Br)c2[n-]1 (3D coordinates assigned)
CC[NH+](CC)CCNCC/N=c1/ccc2cccc(Br)c2[n-]1 (optimized conformer: 52.855382131431305 kcal/mol)

>  <smiles>  (16) 
CCN(CC)CCNCCN=c1ccc2cccc(Br)c2[nH]1

>  <score_type>  (16) 
oracle

>  <origin>  (16) 
adg

>  <m_score__min__energy>  (16) 
-8.0199999999999996

>  <m_primary>  (16) 
energy

$$$$
16:0
     RDKit          3D

 41 42  0  0  0  0  0  0  0  0999 V2000
   -5.7870   19.6980  -32.8520 C   0  0  0  0  0  0  0  0  0  0  0  0
   -7.0540   20.3890  -33.3550 C   0  0  0  0  0  0  0  0  0  0  0  0
   -8.0450   20.5670  -32.2700 N   0  0  0  0  0  0  0  0  0  0  0  0
   -9.2280   19.6770  -32.3230 C   0  0  0  0  0  0  0  0  0  0  0  0
   -9.0260   18.3150  -31.6540 C   0  0  0  0  0  0  0  0  0  0  0  0
   -8.3430   21.9760  -31.9140 C   0  0  0  0  0  0  0  0  0  0  0  0
   -7.2810   22.6530  -31.0300 C   0  0  0  0  0  0  0  0  0  0  0  0
   -6.0960   22.8510  -31.7930 O   0  0  0  0  0  0  0  0  0  0  0  0
   -4.8260   22.9270  -31.2140 C   0  0  0  0  0  0  0  0  0  0  0  0
   -3.7950   23.0330  -31.9330 O   0  0  0  0  0  0  0  0  0  0  0  0
   -4.6940   22.8310  -29.7290 C   0  0  0  0  0  0  0  0  0  0  0  0
   -3.5150   23.6340  -29.2720 C   0  0  0  0  0  0  0  0  0  0  0  0
   -3.1210   24.8870  -29.7270 C   0  0  0  0  0  0  0  0  0  0  0  0
   -3.8190   25.6440  -30.6580 O   0  0  0  0  0  0  0  0  0  0  0  0
   -1.9580   25.2970  -29.1670 N   0  0  0  0  0  0  0  0  0  0  0  0
   -1.6110   24.2790  -28.3550 C   0  0  0  0  0  0  0  0  0  0  0  0
   -0.4680   24.2040  -27.5590 C   0  0  0  0  0  0  0  0  0  0  0  0
   -0.2690   23.0390  -26.7970 C   0  0  0  0  0  0  0  0  0  0  0  0
   -1.2050   21.9830  -26.8450 C   0  0  0  0  0  0  0  0  0  0  0  0
   -2.3500   22.0830  -27.6550 C   0  0  0  0  0  0  0  0  0  0  0  0
   -2.5230   23.2530  -28.3970 C   0  0  0  0  0  0  0  0  0  0  0  0
   -5.7827   19.6956  -31.7520 H   0  0  0  0  0  0  0  0  0  0  0  0
   -5.7632   18.6620  -33.2210 H   0  0  0  0  0  0  0  0  0  0  0  0
   -4.9032   20.2390  -33.2210 H   0  0  0  0  0  0  0  0  0  0  0  0
   -6.7857   21.3764  -33.7589 H   0  0  0  0  0  0  0  0  0  0  0  0
   -7.5055   19.7557  -34.1329 H   0  0  0  0  0  0  0  0  0  0  0  0
  -10.0641   20.1860  -31.8212 H   0  0  0  0  0  0  0  0  0  0  0  0
   -9.4233   19.4779  -33.3871 H   0  0  0  0  0  0  0  0  0  0  0  0
   -9.0441   18.4371  -30.5609 H   0  0  0  0  0  0  0  0  0  0  0  0
   -9.8328   17.6328  -31.9602 H   0  0  0  0  0  0  0  0  0  0  0  0
   -8.0559   17.8964  -31.9602 H   0  0  0  0  0  0  0  0  0  0  0  0
   -8.4322   22.5536  -32.8459 H   0  0  0  0  0  0  0  0  0  0  0  0
   -9.2723   21.9585  -31.3258 H   0  0  0  0  0  0  0  0  0  0  0  0
   -7.6592   23.6243  -30.6786 H   0  0  0  0  0  0  0  0  0  0  0  0
   -7.0600   22.0144  -30.1621 H   0  0  0  0  0  0  0  0  0  0  0  0
   -5.6071   23.2206  -29.2552 H   0  0  0  0  0  0  0  0  0  0  0  0
   -4.5492   21.7784  -29.4443 H   0  0  0  0  0  0  0  0  0  0  0  0
    0.2561   25.0315  -27.5283 H   0  0  0  0  0  0  0  0  0  0  0  0
    0.6225   22.9497  -26.1588 H   0  0  0  0  0  0  0  0  0  0  0  0
   -1.0374   21.0764  -26.2450 H   0  0  0  0  0  0  0  0  0  0  0  0
   -3.0853   21.2663  -27.7025 H   0  0  0  0  0  0  0  0  0  0  0  0
  1  2  1  0
  2  3  1  0
  3  4  1  0
  4  5  1  0
  3  6  1  0
  6  7  1  0
  7  8  1  0
  8  9  1  0
  9 10  2  0
  9 11  1  0
 11 12  1  0
 12 13  2  0
 13 14  1  0
 13 15  1  0
 15 16  1  0
 16 17  2  0
 17 18  1  0
 18 19  2  0
 19 20  1  0
 20 21  2  0
 21 12  1  0
 21 16  1  0
  1 22  1  0
  1 23  1  0
  1 24  1  0
  2 25  1  0
  2 26  1  0
  4 27  1  0
  4 28  1  0
  5 29  1  0
  5 30  1  0
  5 31  1  0
  6 32  1  0
  6 33  1  0
  7 34  1  0
  7 35  1  0
 11 36  1  0
 11 37  1  0
 17 38  1  0
 18 39  1  0
 19 40  1  0
 20 41  1  0
M  CHG  2  14  -1  15  -1
M  END
>  <UniqueID>  (17) 
17

>  <SMILES>  (17) 
CCN(CC)CCOC(=O)Cc1c([O-])[n-]c2ccccc12

>  <Energy>  (17) 
73.51204341443146

>  <Genealogy>  (17) 
CCN(CC)CCOC(=O)Cc1c([O-])[n-]c2ccccc12 (protonated)
CCN(CC)CCOC(=O)Cc1c([O-])[n-]c2ccccc12 (3D coordinates assigned)
CCN(CC)CCOC(=O)Cc1c([O-])[n-]c2ccccc12 (optimized conformer: 73.51204341443146 kcal/mol)

>  <smiles>  (17) 
CCN(CC)CCOC(=O)Cc1c(O)[nH]c2ccccc12

>  <score_type>  (17) 
oracle

>  <origin>  (17) 
adg

>  <m_score__min__energy>  (17) 
-11.43

>  <m_primary>  (17) 
energy

$$$$
17:0
     RDKit          3D

 41 44  0  0  0  0  0  0  0  0999 V2000
    0.9890   23.6280  -27.4100 C   0  0  0  0  0  0  0  0  0  0  0  0
   -0.2520   23.8740  -28.2120 C   0  0  0  0  0  0  0  0  0  0  0  0
   -0.6020   25.0870  -28.6790 N   0  0  0  0  0  0  0  0  0  0  0  0
   -1.7660   24.9430  -29.2940 N   0  0  0  0  0  0  0  0  0  0  0  0
   -2.1070   23.6400  -29.2050 C   0  0  0  0  0  0  0  0  0  0  0  0
   -3.3710   23.0970  -29.7530 C   0  0  0  0  0  0  0  0  0  0  0  0
   -4.5980   23.5470  -29.2480 C   0  0  0  0  0  0  0  0  0  0  0  0
   -5.8010   23.0460  -29.7530 C   0  0  0  0  0  0  0  0  0  0  0  0
   -5.7990   22.0900  -30.7840 C   0  0  0  0  0  0  0  0  0  0  0  0
   -7.0760   21.5530  -31.3200 C   0  0  0  0  0  0  0  0  0  0  0  0
   -8.2880   22.2360  -31.1040 C   0  0  0  0  0  0  0  0  0  0  0  0
   -9.4880   21.7280  -31.6100 C   0  0  0  0  0  0  0  0  0  0  0  0
   -9.4940   20.5340  -32.3340 C   0  0  0  0  0  0  0  0  0  0  0  0
   -8.2980   19.8460  -32.5550 C   0  0  0  0  0  0  0  0  0  0  0  0
   -7.0950   20.3510  -32.0520 C   0  0  0  0  0  0  0  0  0  0  0  0
   -4.5680   21.6560  -31.3040 C   0  0  0  0  0  0  0  0  0  0  0  0
   -3.3650   22.1590  -30.7980 C   0  0  0  0  0  0  0  0  0  0  0  0
   -1.1630   22.9350  -28.5420 N   0  0  0  0  0  0  0  0  0  0  0  0
   -1.2260   21.5800  -28.0720 C   0  0  0  0  0  0  0  0  0  0  0  0
   -1.7510   21.3120  -26.8000 C   0  0  0  0  0  0  0  0  0  0  0  0
   -1.8210   19.9980  -26.3280 C   0  0  0  0  0  0  0  0  0  0  0  0
   -1.3670   18.9440  -27.1260 C   0  0  0  0  0  0  0  0  0  0  0  0
   -0.8500   19.2020  -28.3980 C   0  0  0  0  0  0  0  0  0  0  0  0
   -0.7790   20.5150  -28.8780 C   0  0  0  0  0  0  0  0  0  0  0  0
   -0.1880   20.7950  -30.5100 Cl  0  0  0  0  0  0  0  0  0  0  0  0
    0.7481   23.6758  -26.3378 H   0  0  0  0  0  0  0  0  0  0  0  0
    1.3905   22.6328  -27.6516 H   0  0  0  0  0  0  0  0  0  0  0  0
    1.7397   24.3948  -27.6516 H   0  0  0  0  0  0  0  0  0  0  0  0
   -4.6146   24.3010  -28.4473 H   0  0  0  0  0  0  0  0  0  0  0  0
   -6.7566   23.4023  -29.3408 H   0  0  0  0  0  0  0  0  0  0  0  0
   -8.2907   23.1762  -30.5330 H   0  0  0  0  0  0  0  0  0  0  0  0
  -10.4295   22.2700  -31.4375 H   0  0  0  0  0  0  0  0  0  0  0  0
  -10.4396   20.1353  -32.7301 H   0  0  0  0  0  0  0  0  0  0  0  0
   -8.3029   18.9056  -33.1256 H   0  0  0  0  0  0  0  0  0  0  0  0
   -6.1568   19.8049  -32.2297 H   0  0  0  0  0  0  0  0  0  0  0  0
   -4.5502   20.9142  -32.1161 H   0  0  0  0  0  0  0  0  0  0  0  0
   -2.4086   21.8178  -31.2211 H   0  0  0  0  0  0  0  0  0  0  0  0
   -2.1096   22.1396  -26.1703 H   0  0  0  0  0  0  0  0  0  0  0  0
   -2.2332   19.7936  -25.3289 H   0  0  0  0  0  0  0  0  0  0  0  0
   -1.4168   17.9107  -26.7522 H   0  0  0  0  0  0  0  0  0  0  0  0
   -0.4972   18.3698  -29.0250 H   0  0  0  0  0  0  0  0  0  0  0  0
  1  2  1  0
  2  3  2  0
  3  4  1  0
  4  5  2  0
  5  6  1  0
  6  7  2  0
  7  8  1  0
  8  9  2  0
  9 10  1  0
 10 11  2  0
 11 12  1  0
 12 13  2  0
 13 14  1  0
 14 15  2  0
  9 16  1  0
 16 17  2  0
  5 18  1  0
 18 19  1  0
 19 20  2  0
 20 21  1  0
 21 22  2  0
 22 23  1  0
 23 24  2  0
 24 25  1  0
 18  2  1  0
 24 19  1  0
 17  6  1  0
 15 10  1  0
  1 26  1  0
  1 27  1  0
  1 28  1  0
  7 29  1  0
  8 30  1  0
 11 31  1  0
 12 32  1  0
 13 33  1  0
 14 34  1  0
 15 35  1  0
 16 36  1  0
 17 37  1  0
 20 38  1  0
 21 39  1  0
 22 40  1  0
 23 41  1  0
M  END
>  <UniqueID>  (18) 
18

>  <SMILES>  (18) 
Cc1nnc(-c2ccc(-c3ccccc3)cc2)n1-c1ccccc1Cl

>  <Energy>  (18) 
95.0961579330257

>  <Genealogy>  (18) 
Cc1nnc(-c2ccc(-c3ccccc3)cc2)n1-c1ccccc1Cl (3D coordinates assigned)
Cc1nnc(-c2ccc(-c3ccccc3)cc2)n1-c1ccccc1Cl (optimized conformer: 95.0961579330257 kcal/mol)

>  <smiles>  (18) 
Cc1nnc(-c2ccc(-c3ccccc3)cc2)n1-c1ccccc1Cl

>  <score_type>  (18) 
oracle

>  <origin>  (18) 
adg

>  <m_score__min__energy>  (18) 
-8.7200000000000006

>  <m_primary>  (18) 
energy

$$$$
18:0
     RDKit          3D

 62 65  0  0  0  0  0  0  0  0999 V2000
   -6.4950   17.6430  -31.3100 C   0  0  0  0  0  0  0  0  0  0  0  0
   -7.2760   17.7630  -32.6280 C   0  0  0  0  0  0  0  0  0  0  0  0
   -8.4070   18.7180  -32.5720 N   0  0  0  0  0  0  0  0  0  0  0  0
   -9.1160   18.6890  -31.2810 C   0  0  0  0  0  0  0  0  0  0  0  0
   -8.0380   20.0920  -32.9860 C   0  0  0  0  0  0  0  0  0  0  0  0
   -8.5740   21.1130  -31.9770 C   0  0  0  0  0  0  0  0  0  0  0  0
   -7.6460   22.3250  -31.8280 C   0  0  0  0  0  0  0  0  0  0  0  0
   -6.3220   22.0360  -32.3810 N   0  0  0  0  0  0  0  0  0  0  0  0
   -5.0830   22.3070  -31.6940 C   0  0  0  0  0  0  0  0  0  0  0  0
   -5.0310   23.3490  -30.7600 C   0  0  0  0  0  0  0  0  0  0  0  0
   -3.8280   23.7040  -30.1410 C   0  0  0  0  0  0  0  0  0  0  0  0
   -3.7760   24.6910  -29.1400 O   0  0  0  0  0  0  0  0  0  0  0  0
   -4.2480   24.5200  -27.8060 C   0  0  0  0  0  0  0  0  0  0  0  0
   -2.6350   23.0650  -30.5180 C   0  0  0  0  0  0  0  0  0  0  0  0
   -1.4130   23.4350  -29.8590 N   0  0  0  0  0  0  0  0  0  0  0  0
   -1.1940   23.2790  -28.4450 C   0  0  0  0  0  0  0  0  0  0  0  0
   -0.8670   24.4040  -27.6690 C   0  0  0  0  0  0  0  0  0  0  0  0
   -0.6500   24.2770  -26.2930 C   0  0  0  0  0  0  0  0  0  0  0  0
   -0.7630   23.0260  -25.6780 C   0  0  0  0  0  0  0  0  0  0  0  0
   -1.1010   21.9030  -26.4390 C   0  0  0  0  0  0  0  0  0  0  0  0
   -1.3200   22.0260  -27.8160 C   0  0  0  0  0  0  0  0  0  0  0  0
   -2.6600   22.0140  -31.4730 C   0  0  0  0  0  0  0  0  0  0  0  0
   -3.9030   21.5840  -32.0050 C   0  0  0  0  0  0  0  0  0  0  0  0
   -3.9470   20.3390  -32.8270 C   0  0  0  0  0  0  0  0  0  0  0  0
   -5.0430   19.7590  -33.0490 O   0  0  0  0  0  0  0  0  0  0  0  0
   -2.6980   19.7240  -33.3210 C   0  0  0  0  0  0  0  0  0  0  0  0
   -2.7410   18.6240  -34.1970 C   0  0  0  0  0  0  0  0  0  0  0  0
   -1.5600   18.0400  -34.6590 C   0  0  0  0  0  0  0  0  0  0  0  0
   -0.3240   18.5420  -34.2490 C   0  0  0  0  0  0  0  0  0  0  0  0
   -0.2680   19.6290  -33.3750 C   0  0  0  0  0  0  0  0  0  0  0  0
   -1.4540   20.2300  -32.9020 C   0  0  0  0  0  0  0  0  0  0  0  0
   -1.4010   21.3770  -31.9640 C   0  0  0  0  0  0  0  0  0  0  0  0
   -0.2750   21.8350  -31.6210 O   0  0  0  0  0  0  0  0  0  0  0  0
   -7.1878   17.7495  -30.4623 H   0  0  0  0  0  0  0  0  0  0  0  0
   -6.0055   16.6591  -31.2621 H   0  0  0  0  0  0  0  0  0  0  0  0
   -5.7327   18.4346  -31.2621 H   0  0  0  0  0  0  0  0  0  0  0  0
   -6.5810   18.0953  -33.4132 H   0  0  0  0  0  0  0  0  0  0  0  0
   -7.7057   16.7718  -32.8353 H   0  0  0  0  0  0  0  0  0  0  0  0
   -8.3844   18.7189  -30.4601 H   0  0  0  0  0  0  0  0  0  0  0  0
   -9.7832   19.5606  -31.2094 H   0  0  0  0  0  0  0  0  0  0  0  0
   -9.7098   17.7658  -31.2094 H   0  0  0  0  0  0  0  0  0  0  0  0
   -6.9422   20.1736  -33.0376 H   0  0  0  0  0  0  0  0  0  0  0  0
   -8.4780   20.2989  -33.9727 H   0  0  0  0  0  0  0  0  0  0  0  0
   -9.5603   21.4621  -32.3167 H   0  0  0  0  0  0  0  0  0  0  0  0
   -8.6396   20.6164  -30.9977 H   0  0  0  0  0  0  0  0  0  0  0  0
   -8.0818   23.1811  -32.3639 H   0  0  0  0  0  0  0  0  0  0  0  0
   -7.5385   22.5578  -30.7583 H   0  0  0  0  0  0  0  0  0  0  0  0
   -6.2830   21.6320  -33.3440 H   0  0  0  0  0  0  0  0  0  0  0  0
   -5.9511   23.8972  -30.5091 H   0  0  0  0  0  0  0  0  0  0  0  0
   -3.4568   24.8066  -27.0976 H   0  0  0  0  0  0  0  0  0  0  0  0
   -5.1316   25.1551  -27.6455 H   0  0  0  0  0  0  0  0  0  0  0  0
   -4.5198   23.4663  -27.6455 H   0  0  0  0  0  0  0  0  0  0  0  0
   -0.6370   23.8100  -30.4500 H   0  0  0  0  0  0  0  0  0  0  0  0
   -0.7811   25.3911  -28.1468 H   0  0  0  0  0  0  0  0  0  0  0  0
   -0.3902   25.1622  -25.6939 H   0  0  0  0  0  0  0  0  0  0  0  0
   -0.5862   22.9258  -24.5969 H   0  0  0  0  0  0  0  0  0  0  0  0
   -1.1951   20.9200  -25.9543 H   0  0  0  0  0  0  0  0  0  0  0  0
   -1.5916   21.1402  -28.4089 H   0  0  0  0  0  0  0  0  0  0  0  0
   -3.7122   18.2211  -34.5203 H   0  0  0  0  0  0  0  0  0  0  0  0
   -1.6038   17.1830  -35.3472 H   0  0  0  0  0  0  0  0  0  0  0  0
    0.6056   18.0813  -34.6144 H   0  0  0  0  0  0  0  0  0  0  0  0
    0.7082   20.0202  -33.0524 H   0  0  0  0  0  0  0  0  0  0  0  0
  1  2  1  0
  2  3  1  0
  3  4  1  0
  3  5  1  0
  5  6  1  0
  6  7  1  0
  7  8  1  0
  8  9  1  0
  9 10  2  0
 10 11  1  0
 11 12  1  0
 12 13  1  0
 11 14  2  0
 14 15  1  0
 15 16  1  0
 16 17  2  0
 17 18  1  0
 18 19  2  0
 19 20  1  0
 20 21  2  0
 14 22  1  0
 22 23  2  0
 23 24  1  0
 24 25  2  0
 24 26  1  0
 26 27  2  0
 27 28  1  0
 28 29  2  0
 29 30  1  0
 30 31  2  0
 31 32  1  0
 32 33  2  0
 23  9  1  0
 31 26  1  0
 21 16  1  0
 32 22  1  0
  1 34  1  0
  1 35  1  0
  1 36  1  0
  2 37  1  0
  2 38  1  0
  4 39  1  0
  4 40  1  0
  4 41  1  0
  5 42  1  0
  5 43  1  0
  6 44  1  0
  6 45  1  0
  7 46  1  0
  7 47  1  0
  8 48  1  0
 10 49  1  0
 13 50  1  0
 13 51  1  0
 13 52  1  0
 15 53  1  0
 17 54  1  0
 18 55  1  0
 19 56  1  0
 20 57  1  0
 21 58  1  0
 27 59  1  0
 28 60  1  0
 29 61  1  0
 30 62  1  0
M  END
>  <UniqueID>  (19) 
19

>  <SMILES>  (19) 
CCN(C)CCCNc1cc(OC)c(Nc2ccccc2)c2c1C(=O)c1ccccc1C2=O

>  <Energy>  (19) 
85.45368730465385

>  <Genealogy>  (19) 
CCN(C)CCCNc1cc(OC)c(Nc2ccccc2)c2c1C(=O)c1ccccc1C2=O (3D coordinates assigned)
CCN(C)CCCNc1cc(OC)c(Nc2ccccc2)c2c1C(=O)c1ccccc1C2=O (nonaromatic ring conformer: 85.45368730465385 kcal/mol)

>  <smiles>  (19) 
CCN(C)CCCNc1cc(OC)c(Nc2ccccc2)c2c1C(=O)c1ccccc1C2=O

>  <score_type>  (19) 
oracle

>  <origin>  (19) 
adg

>  <m_score__min__energy>  (19) 
-9.5999999999999996

>  <m_primary>  (19) 
energy

$$$$
19:0
     RDKit          3D

 35 37  0  0  0  0  0  0  0  0999 V2000
   -2.5100   19.3900  -26.7010 C   0  0  0  0  0  0  0  0  0  0  0  0
   -2.9940   20.4820  -27.4780 O   0  0  0  0  0  0  0  0  0  0  0  0
   -2.3880   21.7490  -27.5380 C   0  0  0  0  0  0  0  0  0  0  0  0
   -1.2680   22.0730  -26.7460 C   0  0  0  0  0  0  0  0  0  0  0  0
   -0.6850   23.3400  -26.8250 C   0  0  0  0  0  0  0  0  0  0  0  0
   -1.2070   24.3020  -27.6920 C   0  0  0  0  0  0  0  0  0  0  0  0
   -2.3150   24.0010  -28.4870 C   0  0  0  0  0  0  0  0  0  0  0  0
   -2.8030   24.9240  -29.3090 O   0  0  0  0  0  0  0  0  0  0  0  0
   -3.8530   24.7110  -30.0950 C   0  0  0  0  0  0  0  0  0  0  0  0
   -4.2510   25.6430  -30.8440 O   0  0  0  0  0  0  0  0  0  0  0  0
   -4.5110   23.4640  -30.0860 C   0  0  0  0  0  0  0  0  0  0  0  0
   -5.6850   23.1920  -30.9480 C   0  0  0  0  0  0  0  0  0  0  0  0
   -6.5840   22.2130  -30.7160 N   0  0  0  0  0  0  0  0  0  0  0  0
   -7.4310   22.3740  -31.7530 C   0  0  0  0  0  0  0  0  0  0  0  0
   -8.6430   21.5140  -31.9740 C   0  0  0  0  0  0  0  0  0  0  0  0
   -8.2280   20.0780  -32.3030 C   0  0  0  0  0  0  0  0  0  0  0  0
   -9.5560   21.5530  -30.7460 C   0  0  0  0  0  0  0  0  0  0  0  0
   -7.0700   23.3880  -32.5630 N   0  0  0  0  0  0  0  0  0  0  0  0
   -5.9860   23.8670  -32.0310 O   0  0  0  0  0  0  0  0  0  0  0  0
   -4.0220   22.4670  -29.2300 C   0  0  0  0  0  0  0  0  0  0  0  0
   -2.9120   22.7240  -28.4140 C   0  0  0  0  0  0  0  0  0  0  0  0
   -2.6146   19.6260  -25.6317 H   0  0  0  0  0  0  0  0  0  0  0  0
   -3.0920   18.4866  -26.9357 H   0  0  0  0  0  0  0  0  0  0  0  0
   -1.4498   19.2144  -26.9357 H   0  0  0  0  0  0  0  0  0  0  0  0
   -0.8495   21.3219  -26.0599 H   0  0  0  0  0  0  0  0  0  0  0  0
    0.1888   23.5808  -26.2017 H   0  0  0  0  0  0  0  0  0  0  0  0
   -0.7448   25.2985  -27.7489 H   0  0  0  0  0  0  0  0  0  0  0  0
   -9.2053   21.9116  -32.8318 H   0  0  0  0  0  0  0  0  0  0  0  0
   -8.0667   19.5198  -31.3690 H   0  0  0  0  0  0  0  0  0  0  0  0
   -9.0224   19.5917  -32.8882 H   0  0  0  0  0  0  0  0  0  0  0  0
   -7.2967   20.0904  -32.8882 H   0  0  0  0  0  0  0  0  0  0  0  0
   -8.9435   21.5268  -29.8327 H   0  0  0  0  0  0  0  0  0  0  0  0
  -10.1520   22.4774  -30.7614 H   0  0  0  0  0  0  0  0  0  0  0  0
  -10.2287   20.6828  -30.7614 H   0  0  0  0  0  0  0  0  0  0  0  0
   -4.5103   21.4818  -29.1989 H   0  0  0  0  0  0  0  0  0  0  0  0
  1  2  1  0
  2  3  1  0
  3  4  2  0
  4  5  1  0
  5  6  2  0
  6  7  1  0
  7  8  1  0
  8  9  1  0
  9 10  2  0
  9 11  1  0
 11 12  1  0
 12 13  2  0
 13 14  1  0
 14 15  1  0
 15 16  1  0
 15 17  1  0
 14 18  2  0
 18 19  1  0
 11 20  2  0
 20 21  1  0
 21  3  1  0
 21  7  2  0
 19 12  1  0
  1 22  1  0
  1 23  1  0
  1 24  1  0
  4 25  1  0
  5 26  1  0
  6 27  1  0
 15 28  1  0
 16 29  1  0
 16 30  1  0
 16 31  1  0
 17 32  1  0
 17 33  1  0
 17 34  1  0
 20 35  1  0
M  END
>  <UniqueID>  (20) 
20

>  <SMILES>  (20) 
COc1cccc2oc(=O)c(-c3nc(C(C)C)no3)cc12

>  <Energy>  (20) 
70.63857974231422

>  <Genealogy>  (20) 
COc1cccc2oc(=O)c(-c3nc(C(C)C)no3)cc12 (3D coordinates assigned)
COc1cccc2oc(=O)c(-c3nc(C(C)C)no3)cc12 (optimized conformer: 70.63857974231422 kcal/mol)

>  <smiles>  (20) 
COc1cccc2oc(=O)c(-c3nc(C(C)C)no3)cc12

>  <score_type>  (20) 
oracle

>  <origin>  (20) 
adg

>  <m_score__min__energy>  (20) 
-7.7000000000000002

>  <m_primary>  (20) 
energy

$$$$
20:0
     RDKit          3D

 62 65  0  0  0  0  0  0  0  0999 V2000
   -1.5730   20.7440  -26.2600 C   0  0  0  0  0  0  0  0  0  0  0  0
   -2.4100   20.1220  -27.3660 C   0  0  0  0  0  0  0  0  0  0  0  0
   -1.6780   20.1770  -28.5870 O   0  0  0  0  0  0  0  0  0  0  0  0
   -0.6750   19.2820  -28.9840 C   0  0  0  0  0  0  0  0  0  0  0  0
   -0.0180   18.4940  -28.0140 C   0  0  0  0  0  0  0  0  0  0  0  0
    0.9920   17.6100  -28.3730 C   0  0  0  0  0  0  0  0  0  0  0  0
    1.3720   17.4950  -29.7010 C   0  0  0  0  0  0  0  0  0  0  0  0
    0.7340   18.2520  -30.6820 C   0  0  0  0  0  0  0  0  0  0  0  0
   -0.3120   19.1580  -30.3650 C   0  0  0  0  0  0  0  0  0  0  0  0
   -0.9840   19.9100  -31.4380 N   0  0  0  0  0  0  0  0  0  0  0  0
   -0.6380   19.5960  -32.8470 C   0  0  0  0  0  0  0  0  0  0  0  0
   -1.3180   20.4780  -33.9150 C   0  0  0  0  0  0  0  0  0  0  0  0
   -2.6710   20.9210  -33.5390 N   0  0  0  0  0  0  0  0  0  0  0  0
   -3.6350   19.8250  -33.4680 C   0  0  0  0  0  0  0  0  0  0  0  0
   -3.3150   18.6700  -33.8700 O   0  0  0  0  0  0  0  0  0  0  0  0
   -5.0160   20.0060  -32.9500 C   0  0  0  0  0  0  0  0  0  0  0  0
   -5.4400   21.3120  -32.6510 C   0  0  0  0  0  0  0  0  0  0  0  0
   -6.7150   21.5520  -32.1200 C   0  0  0  0  0  0  0  0  0  0  0  0
   -7.2120   23.1960  -31.7240 S   0  0  0  0  0  0  0  0  0  0  0  0
   -8.7020   23.3070  -31.9060 O   0  0  0  0  0  0  0  0  0  0  0  0
   -6.5480   24.1570  -32.6720 O   0  0  0  0  0  0  0  0  0  0  0  0
   -6.7630   23.5420  -30.0650 N   0  0  0  0  0  0  0  0  0  0  0  0
   -5.5050   22.8670  -29.6810 C   0  0  0  0  0  0  0  0  0  0  0  0
   -4.2730   23.7810  -29.8350 C   0  0  0  0  0  0  0  0  0  0  0  0
   -4.4840   24.7260  -30.8610 O   0  0  0  0  0  0  0  0  0  0  0  0
   -5.4840   25.6530  -30.4750 C   0  0  0  0  0  0  0  0  0  0  0  0
   -6.7070   24.9890  -29.7990 C   0  0  0  0  0  0  0  0  0  0  0  0
   -7.5830   20.4780  -31.9000 C   0  0  0  0  0  0  0  0  0  0  0  0
   -7.1730   19.1740  -32.1850 C   0  0  0  0  0  0  0  0  0  0  0  0
   -5.8920   18.9250  -32.6940 C   0  0  0  0  0  0  0  0  0  0  0  0
   -5.4110   17.2460  -32.8980 Cl  0  0  0  0  0  0  0  0  0  0  0  0
   -2.5630   21.6930  -32.2880 C   0  0  0  0  0  0  0  0  0  0  0  0
   -2.0990   20.8250  -31.1170 C   0  0  0  0  0  0  0  0  0  0  0  0
   -1.9768   20.4440  -25.2818 H   0  0  0  0  0  0  0  0  0  0  0  0
   -0.5326   20.3982  -26.3489 H   0  0  0  0  0  0  0  0  0  0  0  0
   -1.6040   21.8400  -26.3489 H   0  0  0  0  0  0  0  0  0  0  0  0
   -2.6320   19.0741  -27.1158 H   0  0  0  0  0  0  0  0  0  0  0  0
   -3.3548   20.6750  -27.4734 H   0  0  0  0  0  0  0  0  0  0  0  0
   -0.3104   18.5813  -26.9572 H   0  0  0  0  0  0  0  0  0  0  0  0
    1.4899   17.0016  -27.6036 H   0  0  0  0  0  0  0  0  0  0  0  0
    2.1802   16.8036  -29.9817 H   0  0  0  0  0  0  0  0  0  0  0  0
    1.0495   18.1446  -31.7303 H   0  0  0  0  0  0  0  0  0  0  0  0
    0.4505   19.7064  -32.9605 H   0  0  0  0  0  0  0  0  0  0  0  0
   -1.0034   18.5738  -33.0250 H   0  0  0  0  0  0  0  0  0  0  0  0
   -0.6936   21.3685  -34.0796 H   0  0  0  0  0  0  0  0  0  0  0  0
   -1.4198   19.8650  -34.8227 H   0  0  0  0  0  0  0  0  0  0  0  0
   -2.9850   21.5720  -34.2930 H   0  0  0  0  0  0  0  0  0  0  0  0
   -4.7618   22.1580  -32.8363 H   0  0  0  0  0  0  0  0  0  0  0  0
   -5.5808   22.5514  -28.6300 H   0  0  0  0  0  0  0  0  0  0  0  0
   -5.3689   22.0069  -30.3531 H   0  0  0  0  0  0  0  0  0  0  0  0
   -4.0938   24.3097  -28.8872 H   0  0  0  0  0  0  0  0  0  0  0  0
   -3.4014   23.1624  -30.0949 H   0  0  0  0  0  0  0  0  0  0  0  0
   -5.0411   26.3700  -29.7681 H   0  0  0  0  0  0  0  0  0  0  0  0
   -5.8448   26.1429  -31.3914 H   0  0  0  0  0  0  0  0  0  0  0  0
   -6.6430   25.1486  -28.7125 H   0  0  0  0  0  0  0  0  0  0  0  0
   -7.6166   25.4474  -30.2143 H   0  0  0  0  0  0  0  0  0  0  0  0
   -8.5917   20.6609  -31.5013 H   0  0  0  0  0  0  0  0  0  0  0  0
   -7.8620   18.3349  -32.0083 H   0  0  0  0  0  0  0  0  0  0  0  0
   -1.8387   22.5078  -32.4349 H   0  0  0  0  0  0  0  0  0  0  0  0
   -3.5609   22.0866  -32.0445 H   0  0  0  0  0  0  0  0  0  0  0  0
   -1.7744   21.4903  -30.3034 H   0  0  0  0  0  0  0  0  0  0  0  0
   -2.9540   20.1914  -30.8385 H   0  0  0  0  0  0  0  0  0  0  0  0
  1  2  1  0
  2  3  1  0
  3  4  1  0
  4  5  2  0
  5  6  1  0
  6  7  2  0
  7  8  1  0
  8  9  2  0
  9 10  1  0
 10 11  1  0
 11 12  1  0
 12 13  1  0
 13 14  1  0
 14 15  2  0
 14 16  1  0
 16 17  2  0
 17 18  1  0
 18 19  1  0
 19 20  2  0
 19 21  2  0
 19 22  1  0
 22 23  1  0
 23 24  1  0
 24 25  1  0
 25 26  1  0
 26 27  1  0
 18 28  2  0
 28 29  1  0
 29 30  2  0
 30 31  1  0
 13 32  1  0
 32 33  1  0
  9  4  1  0
 33 10  1  0
 30 16  1  0
 27 22  1  0
  1 34  1  0
  1 35  1  0
  1 36  1  0
  2 37  1  0
  2 38  1  0
  5 39  1  0
  6 40  1  0
  7 41  1  0
  8 42  1  0
 11 43  1  0
 11 44  1  0
 12 45  1  0
 12 46  1  0
 13 47  1  0
 17 48  1  0
 23 49  1  0
 23 50  1  0
 24 51  1  0
 24 52  1  0
 26 53  1  0
 26 54  1  0
 27 55  1  0
 27 56  1  0
 28 57  1  0
 29 58  1  0
 32 59  1  0
 32 60  1  0
 33 61  1  0
 33 62  1  0
M  CHG  1  13   1
M  END
>  <UniqueID>  (21) 
21

>  <SMILES>  (21) 
CCOc1ccccc1N1CC[NH+](C(=O)c2cc(S(=O)(=O)N3CCOCC3)ccc2Cl)CC1

>  <Energy>  (21) 
96.43117399715194

>  <Genealogy>  (21) 
CCOc1ccccc1N1CC[NH+](C(=O)c2cc(S(=O)(=O)N3CCOCC3)ccc2Cl)CC1 (protonated)
CCOc1ccccc1N1CC[NH+](C(=O)c2cc(S(=O)(=O)N3CCOCC3)ccc2Cl)CC1 (3D coordinates assigned)
CCOc1ccccc1N1CC[NH+](C(=O)c2cc(S(=O)(=O)N3CCOCC3)ccc2Cl)CC1 (nonaromatic ring conformer: 96.43117399715194 kcal/mol)

>  <smiles>  (21) 
CCOc1ccccc1N1CCN(C(=O)c2cc(S(=O)(=O)N3CCOCC3)ccc2Cl)CC1

>  <score_type>  (21) 
oracle

>  <origin>  (21) 
adg

>  <m_score__min__energy>  (21) 
-9.8200000000000003

>  <m_primary>  (21) 
energy

$$$$
21:0
     RDKit          3D

 31 31  0  0  0  0  0  0  0  0999 V2000
   -1.9130   21.1570  -32.9890 C   0  0  0  0  0  0  0  0  0  0  0  0
   -3.3630   21.6230  -33.0500 C   0  0  0  0  0  0  0  0  0  0  0  0
   -4.0230   21.3730  -31.8110 O   0  0  0  0  0  0  0  0  0  0  0  0
   -4.3740   22.3820  -30.9070 C   0  0  0  0  0  0  0  0  0  0  0  0
   -3.9270   22.3620  -29.7270 O   0  0  0  0  0  0  0  0  0  0  0  0
   -5.2950   23.4610  -31.3370 C   0  0  0  0  0  0  0  0  0  0  0  0
   -6.3220   23.2310  -32.1850 C   0  0  0  0  0  0  0  0  0  0  0  0
   -7.2880   22.1180  -32.0560 C   0  0  0  0  0  0  0  0  0  0  0  0
   -8.3920   22.2710  -31.2040 C   0  0  0  0  0  0  0  0  0  0  0  0
   -9.3090   21.2270  -31.0450 C   0  0  0  0  0  0  0  0  0  0  0  0
   -9.1200   20.0180  -31.7200 C   0  0  0  0  0  0  0  0  0  0  0  0
   -8.0070   19.8470  -32.5460 C   0  0  0  0  0  0  0  0  0  0  0  0
   -7.0850   20.8870  -32.7100 C   0  0  0  0  0  0  0  0  0  0  0  0
   -5.9860   20.6800  -33.4780 F   0  0  0  0  0  0  0  0  0  0  0  0
   -5.0400   24.8390  -30.8490 C   0  0  0  0  0  0  0  0  0  0  0  0
   -3.8570   25.2570  -30.7010 O   0  0  0  0  0  0  0  0  0  0  0  0
   -6.1170   25.6800  -30.5460 O   0  0  0  0  0  0  0  0  0  0  0  0
   -6.8750   25.5560  -29.3490 C   0  0  0  0  0  0  0  0  0  0  0  0
   -1.6037   21.0576  -31.9381 H   0  0  0  0  0  0  0  0  0  0  0  0
   -1.8192   20.1835  -33.4925 H   0  0  0  0  0  0  0  0  0  0  0  0
   -1.2696   21.8936  -33.4925 H   0  0  0  0  0  0  0  0  0  0  0  0
   -3.3873   22.7023  -33.2612 H   0  0  0  0  0  0  0  0  0  0  0  0
   -3.8808   21.0677  -33.8460 H   0  0  0  0  0  0  0  0  0  0  0  0
   -6.4487   23.9211  -33.0321 H   0  0  0  0  0  0  0  0  0  0  0  0
   -8.5369   23.2155  -30.6590 H   0  0  0  0  0  0  0  0  0  0  0  0
  -10.1809   21.3578  -30.3872 H   0  0  0  0  0  0  0  0  0  0  0  0
   -9.8475   19.2016  -31.6008 H   0  0  0  0  0  0  0  0  0  0  0  0
   -7.8545   18.8916  -33.0695 H   0  0  0  0  0  0  0  0  0  0  0  0
   -6.2090   25.6649  -28.4803 H   0  0  0  0  0  0  0  0  0  0  0  0
   -7.6461   26.3399  -29.3204 H   0  0  0  0  0  0  0  0  0  0  0  0
   -7.3561   24.5672  -29.3204 H   0  0  0  0  0  0  0  0  0  0  0  0
  1  2  1  0
  2  3  1  0
  3  4  1  0
  4  5  2  0
  4  6  1  0
  6  7  2  3
  7  8  1  0
  8  9  2  0
  9 10  1  0
 10 11  2  0
 11 12  1  0
 12 13  2  0
 13 14  1  0
  6 15  1  0
 15 16  2  0
 15 17  1  0
 17 18  1  0
 13  8  1  0
  1 19  1  0
  1 20  1  0
  1 21  1  0
  2 22  1  0
  2 23  1  0
  7 24  1  0
  9 25  1  0
 10 26  1  0
 11 27  1  0
 12 28  1  0
 18 29  1  0
 18 30  1  0
 18 31  1  0
M  END
>  <UniqueID>  (22) 
22

>  <SMILES>  (22) 
CCOC(=O)C(=Cc1ccccc1F)C(=O)OC

>  <Energy>  (22) 
33.20826605613803

>  <Genealogy>  (22) 
CCOC(=O)C(=Cc1ccccc1F)C(=O)OC (3D coordinates assigned)
CCOC(=O)C(=Cc1ccccc1F)C(=O)OC (optimized conformer: 33.20826605613803 kcal/mol)

>  <smiles>  (22) 
CCOC(=O)C(=Cc1ccccc1F)C(=O)OC

>  <score_type>  (22) 
oracle

>  <origin>  (22) 
adg

>  <m_score__min__energy>  (22) 
-6.0599999999999996

>  <m_primary>  (22) 
energy

$$$$
22:0
     RDKit          3D

 55 56  0  0  0  0  0  0  0  0999 V2000
   -9.4320   19.5430  -32.7040 C   0  0  0  0  0  0  0  0  0  0  0  0
   -8.6140   18.8340  -31.6280 C   0  0  0  0  0  0  0  0  0  0  0  0
   -7.4440   18.1550  -32.2240 N   0  0  0  0  0  0  0  0  0  0  0  0
   -6.4640   17.7340  -31.2060 C   0  0  0  0  0  0  0  0  0  0  0  0
   -6.8160   18.9430  -33.3110 C   0  0  0  0  0  0  0  0  0  0  0  0
   -5.3370   18.5890  -33.5730 C   0  0  0  0  0  0  0  0  0  0  0  0
   -4.4970   19.5890  -33.0260 O   0  0  0  0  0  0  0  0  0  0  0  0
   -3.2900   19.7110  -33.7570 C   0  0  0  0  0  0  0  0  0  0  0  0
   -2.8400   21.1740  -33.7950 C   0  0  0  0  0  0  0  0  0  0  0  0
   -1.6710   21.3490  -33.0160 O   0  0  0  0  0  0  0  0  0  0  0  0
   -1.3780   20.1920  -32.2540 C   0  0  0  0  0  0  0  0  0  0  0  0
   -1.8780   20.3650  -30.8180 C   0  0  0  0  0  0  0  0  0  0  0  0
   -3.2940   20.7370  -30.8020 N   0  0  0  0  0  0  0  0  0  0  0  0
   -3.7560   22.0940  -30.6540 C   0  0  0  0  0  0  0  0  0  0  0  0
   -2.9030   23.0640  -30.1000 C   0  0  0  0  0  0  0  0  0  0  0  0
   -3.3320   24.3780  -29.9000 C   0  0  0  0  0  0  0  0  0  0  0  0
   -2.4290   25.2930  -29.3390 O   0  0  0  0  0  0  0  0  0  0  0  0
   -1.6530   25.0480  -28.1700 C   0  0  0  0  0  0  0  0  0  0  0  0
   -4.6420   24.7380  -30.2560 C   0  0  0  0  0  0  0  0  0  0  0  0
   -5.5080   23.7910  -30.8170 C   0  0  0  0  0  0  0  0  0  0  0  0
   -6.8100   24.1510  -31.1860 C   0  0  0  0  0  0  0  0  0  0  0  0
   -7.6550   23.2090  -31.7660 C   0  0  0  0  0  0  0  0  0  0  0  0
   -7.1900   21.9130  -31.9820 C   0  0  0  0  0  0  0  0  0  0  0  0
   -5.9240   21.5640  -31.6220 N   0  0  0  0  0  0  0  0  0  0  0  0
   -5.0710   22.4600  -31.0300 C   0  0  0  0  0  0  0  0  0  0  0  0
  -10.1810   20.1922  -32.2269 H   0  0  0  0  0  0  0  0  0  0  0  0
   -8.7640   20.1526  -33.3303 H   0  0  0  0  0  0  0  0  0  0  0  0
   -9.9405   18.7952  -33.3303 H   0  0  0  0  0  0  0  0  0  0  0  0
   -8.2660   19.5743  -30.8925 H   0  0  0  0  0  0  0  0  0  0  0  0
   -9.2494   18.0805  -31.1396 H   0  0  0  0  0  0  0  0  0  0  0  0
   -6.8782   17.9119  -30.2026 H   0  0  0  0  0  0  0  0  0  0  0  0
   -6.2458   16.6628  -31.3280 H   0  0  0  0  0  0  0  0  0  0  0  0
   -5.5368   18.3132  -31.3280 H   0  0  0  0  0  0  0  0  0  0  0  0
   -7.3826   18.7665  -34.2372 H   0  0  0  0  0  0  0  0  0  0  0  0
   -6.8384   19.9958  -32.9929 H   0  0  0  0  0  0  0  0  0  0  0  0
   -5.1051   17.6214  -33.1039 H   0  0  0  0  0  0  0  0  0  0  0  0
   -5.1666   18.5271  -34.6580 H   0  0  0  0  0  0  0  0  0  0  0  0
   -2.5101   19.1035  -33.2746 H   0  0  0  0  0  0  0  0  0  0  0  0
   -3.4568   19.3601  -34.7861 H   0  0  0  0  0  0  0  0  0  0  0  0
   -2.6291   21.4618  -34.8355 H   0  0  0  0  0  0  0  0  0  0  0  0
   -3.6415   21.8056  -33.3843 H   0  0  0  0  0  0  0  0  0  0  0  0
   -1.8737   19.3219  -32.7091 H   0  0  0  0  0  0  0  0  0  0  0  0
   -0.2889   20.0381  -32.2390 H   0  0  0  0  0  0  0  0  0  0  0  0
   -1.7478   19.4177  -30.2742 H   0  0  0  0  0  0  0  0  0  0  0  0
   -1.2975   21.1658  -30.3365 H   0  0  0  0  0  0  0  0  0  0  0  0
   -3.9940   19.9700  -30.9170 H   0  0  0  0  0  0  0  0  0  0  0  0
   -1.8775   22.7828  -29.8184 H   0  0  0  0  0  0  0  0  0  0  0  0
   -2.2649   25.2412  -27.2766 H   0  0  0  0  0  0  0  0  0  0  0  0
   -1.3178   24.0003  -28.1653 H   0  0  0  0  0  0  0  0  0  0  0  0
   -0.7770   25.7133  -28.1653 H   0  0  0  0  0  0  0  0  0  0  0  0
   -4.9896   25.7689  -30.0934 H   0  0  0  0  0  0  0  0  0  0  0  0
   -7.1651   25.1784  -31.0175 H   0  0  0  0  0  0  0  0  0  0  0  0
   -8.6808   23.4851  -32.0514 H   0  0  0  0  0  0  0  0  0  0  0  0
   -7.8507   21.1664  -32.4468 H   0  0  0  0  0  0  0  0  0  0  0  0
   -5.6240   20.5890  -31.8360 H   0  0  0  0  0  0  0  0  0  0  0  0
  1  2  1  0
  2  3  1  0
  3  4  1  0
  3  5  1  0
  5  6  1  0
  6  7  1  0
  7  8  1  0
  8  9  1  0
  9 10  1  0
 10 11  1  0
 11 12  1  0
 12 13  1  0
 13 14  1  0
 14 15  2  0
 15 16  1  0
 16 17  1  0
 17 18  1  0
 16 19  2  0
 19 20  1  0
 20 21  2  0
 21 22  1  0
 22 23  2  0
 23 24  1  0
 24 25  2  0
 25 14  1  0
 25 20  1  0
  1 26  1  0
  1 27  1  0
  1 28  1  0
  2 29  1  0
  2 30  1  0
  4 31  1  0
  4 32  1  0
  4 33  1  0
  5 34  1  0
  5 35  1  0
  6 36  1  0
  6 37  1  0
  8 38  1  0
  8 39  1  0
  9 40  1  0
  9 41  1  0
 11 42  1  0
 11 43  1  0
 12 44  1  0
 12 45  1  0
 13 46  1  0
 15 47  1  0
 18 48  1  0
 18 49  1  0
 18 50  1  0
 19 51  1  0
 21 52  1  0
 22 53  1  0
 23 54  1  0
 24 55  1  0
M  CHG  1  24   1
M  END
>  <UniqueID>  (23) 
23

>  <SMILES>  (23) 
CCN(C)CCOCCOCCNc1cc(OC)cc2ccc[nH+]c12

>  <Energy>  (23) 
63.29507037856867

>  <Genealogy>  (23) 
CCN(C)CCOCCOCCNc1cc(OC)cc2ccc[nH+]c12 (protonated)
CCN(C)CCOCCOCCNc1cc(OC)cc2ccc[nH+]c12 (3D coordinates assigned)
CCN(C)CCOCCOCCNc1cc(OC)cc2ccc[nH+]c12 (optimized conformer: 63.29507037856867 kcal/mol)

>  <smiles>  (23) 
CCN(C)CCOCCOCCNc1cc(OC)cc2cccnc12

>  <score_type>  (23) 
oracle

>  <origin>  (23) 
adg

>  <m_score__min__energy>  (23) 
-7.0199999999999996

>  <m_primary>  (23) 
energy

$$$$
23:0
     RDKit          3D

 39 43  0  0  0  0  0  0  0  0999 V2000
   -6.6970   12.1420  -34.1780 F   0  0  0  0  0  0  0  0  0  0  0  0
   -6.3630   13.4420  -33.9870 C   0  0  0  0  0  0  0  0  0  0  0  0
   -5.1770   13.7690  -33.3230 C   0  0  0  0  0  0  0  0  0  0  0  0
   -4.8310   15.1080  -33.1240 C   0  0  0  0  0  0  0  0  0  0  0  0
   -5.6680   16.1340  -33.5970 C   0  0  0  0  0  0  0  0  0  0  0  0
   -5.3000   17.5500  -33.3810 C   0  0  0  0  0  0  0  0  0  0  0  0
   -3.9920   18.0000  -33.6590 C   0  0  0  0  0  0  0  0  0  0  0  0
   -3.6470   19.3640  -33.4780 C   0  0  0  0  0  0  0  0  0  0  0  0
   -2.2810   19.8710  -33.7600 C   0  0  0  0  0  0  0  0  0  0  0  0
   -1.2410   19.1120  -34.3330 C   0  0  0  0  0  0  0  0  0  0  0  0
   -0.0540   19.8150  -34.4850 C   0  0  0  0  0  0  0  0  0  0  0  0
   -0.2860   21.3720  -33.9050 S   0  0  0  0  0  0  0  0  0  0  0  0
   -1.8920   21.1760  -33.4550 C   0  0  0  0  0  0  0  0  0  0  0  0
   -4.6020   20.2440  -33.0540 N   0  0  0  0  0  0  0  0  0  0  0  0
   -5.8560   19.8120  -32.7830 C   0  0  0  0  0  0  0  0  0  0  0  0
   -6.2320   18.4950  -32.9290 C   0  0  0  0  0  0  0  0  0  0  0  0
   -7.7040   18.3290  -32.6440 C   0  0  0  0  0  0  0  0  0  0  0  0
   -8.0870   19.7460  -32.3180 C   0  0  0  0  0  0  0  0  0  0  0  0
   -9.3490   20.2340  -31.9720 C   0  0  0  0  0  0  0  0  0  0  0  0
   -9.4890   21.6070  -31.7090 C   0  0  0  0  0  0  0  0  0  0  0  0
   -8.3760   22.4690  -31.7970 C   0  0  0  0  0  0  0  0  0  0  0  0
   -7.1130   21.9630  -32.1470 C   0  0  0  0  0  0  0  0  0  0  0  0
   -7.0010   20.5960  -32.3980 C   0  0  0  0  0  0  0  0  0  0  0  0
   -6.8640   15.7980  -34.2530 C   0  0  0  0  0  0  0  0  0  0  0  0
   -7.2060   14.4560  -34.4500 C   0  0  0  0  0  0  0  0  0  0  0  0
   -4.5150   12.9706  -32.9565 H   0  0  0  0  0  0  0  0  0  0  0  0
   -3.9001   15.3605  -32.5952 H   0  0  0  0  0  0  0  0  0  0  0  0
   -3.2344   17.2881  -34.0186 H   0  0  0  0  0  0  0  0  0  0  0  0
   -1.3590   18.0600  -34.6320 H   0  0  0  0  0  0  0  0  0  0  0  0
    0.8790   19.4191  -34.9125 H   0  0  0  0  0  0  0  0  0  0  0  0
   -2.5298   21.9464  -32.9970 H   0  0  0  0  0  0  0  0  0  0  0  0
   -8.2474   17.9546  -33.5241 H   0  0  0  0  0  0  0  0  0  0  0  0
   -7.9364   17.6001  -31.8536 H   0  0  0  0  0  0  0  0  0  0  0  0
  -10.2144   19.5582  -31.9068 H   0  0  0  0  0  0  0  0  0  0  0  0
  -10.4734   22.0126  -31.4325 H   0  0  0  0  0  0  0  0  0  0  0  0
   -8.4975   23.5426  -31.5906 H   0  0  0  0  0  0  0  0  0  0  0  0
   -6.2382   22.6257  -32.2209 H   0  0  0  0  0  0  0  0  0  0  0  0
   -7.5338   16.5929  -34.6129 H   0  0  0  0  0  0  0  0  0  0  0  0
   -8.1403   14.1983  -34.9703 H   0  0  0  0  0  0  0  0  0  0  0  0
  1  2  1  0
  2  3  2  0
  3  4  1  0
  4  5  2  0
  5  6  1  0
  6  7  2  0
  7  8  1  0
  8  9  1  0
  9 10  1  0
 10 11  2  0
 11 12  1  0
 12 13  1  0
  8 14  2  0
 14 15  1  0
 15 16  2  0
 16 17  1  0
 17 18  1  0
 18 19  2  0
 19 20  1  0
 20 21  2  0
 21 22  1  0
 22 23  2  0
  5 24  1  0
 24 25  2  0
 25  2  1  0
 16  6  1  0
 23 18  1  0
 13  9  2  0
 23 15  1  0
  3 26  1  0
  4 27  1  0
  7 28  1  0
 10 29  1  0
 11 30  1  0
 13 31  1  0
 17 32  1  0
 17 33  1  0
 19 34  1  0
 20 35  1  0
 21 36  1  0
 22 37  1  0
 24 38  1  0
 25 39  1  0
M  END
>  <UniqueID>  (24) 
24

>  <SMILES>  (24) 
Fc1ccc(-c2cc(-c3ccsc3)nc3c2Cc2ccccc2-3)cc1

>  <Energy>  (24) 
103.25536870498584

>  <Genealogy>  (24) 
Fc1ccc(-c2cc(-c3ccsc3)nc3c2Cc2ccccc2-3)cc1 (3D coordinates assigned)
Fc1ccc(-c2cc(-c3ccsc3)nc3c2Cc2ccccc2-3)cc1 (nonaromatic ring conformer: 103.25536870498584 kcal/mol)

>  <smiles>  (24) 
Fc1ccc(-c2cc(-c3ccsc3)nc3c2Cc2ccccc2-3)cc1

>  <score_type>  (24) 
oracle

>  <origin>  (24) 
adg

>  <m_score__min__energy>  (24) 
-8.5700000000000003

>  <m_primary>  (24) 
energy

$$$$
24:0
     RDKit          3D

 59 62  0  0  0  0  0  0  0  0999 V2000
   -5.7190   12.5260  -33.6350 C   0  0  0  0  0  0  0  0  0  0  0  0
   -6.2260   13.6770  -34.3220 O   0  0  0  0  0  0  0  0  0  0  0  0
   -6.0160   14.9970  -33.8990 C   0  0  0  0  0  0  0  0  0  0  0  0
   -4.9270   15.2590  -33.0550 C   0  0  0  0  0  0  0  0  0  0  0  0
   -4.6760   16.5580  -32.6020 C   0  0  0  0  0  0  0  0  0  0  0  0
   -5.5110   17.6160  -32.9980 C   0  0  0  0  0  0  0  0  0  0  0  0
   -5.2610   18.9490  -32.5270 N   0  0  0  0  0  0  0  0  0  0  0  0
   -4.0960   19.6490  -32.6180 C   0  0  0  0  0  0  0  0  0  0  0  0
   -2.8840   19.1500  -33.3640 C   0  0  0  0  0  0  0  0  0  0  0  0
   -4.2750   20.9520  -32.1260 C   0  0  0  0  0  0  0  0  0  0  0  0
   -3.3180   22.1090  -32.2750 C   0  0  0  0  0  0  0  0  0  0  0  0
   -1.9790   21.8170  -31.5740 C   0  0  0  0  0  0  0  0  0  0  0  0
   -2.0620   22.0980  -30.1260 N   0  0  0  0  0  0  0  0  0  0  0  0
   -0.9050   22.8880  -29.6710 C   0  0  0  0  0  0  0  0  0  0  0  0
   -2.1280   20.8400  -29.3620 C   0  0  0  0  0  0  0  0  0  0  0  0
   -5.6060   21.0140  -31.7190 C   0  0  0  0  0  0  0  0  0  0  0  0
   -6.4040   22.0210  -31.1670 C   0  0  0  0  0  0  0  0  0  0  0  0
   -5.8580   23.2410  -30.6520 N   0  0  0  0  0  0  0  0  0  0  0  0
   -4.9080   23.1780  -29.5280 C   0  0  0  0  0  0  0  0  0  0  0  0
   -4.0900   24.4860  -29.3360 C   0  0  0  0  0  0  0  0  0  0  0  0
   -4.0720   25.2900  -30.4950 O   0  0  0  0  0  0  0  0  0  0  0  0
   -5.3950   25.6530  -30.8250 C   0  0  0  0  0  0  0  0  0  0  0  0
   -6.0980   24.4540  -31.4410 C   0  0  0  0  0  0  0  0  0  0  0  0
   -7.7270   21.7450  -30.9690 N   0  0  0  0  0  0  0  0  0  0  0  0
   -8.2680   20.5300  -31.2810 C   0  0  0  0  0  0  0  0  0  0  0  0
   -7.4790   19.5320  -31.7710 N   0  0  0  0  0  0  0  0  0  0  0  0
   -6.1630   19.7940  -31.9920 C   0  0  0  0  0  0  0  0  0  0  0  0
   -6.6000   17.3600  -33.8430 C   0  0  0  0  0  0  0  0  0  0  0  0
   -6.8560   16.0620  -34.2920 C   0  0  0  0  0  0  0  0  0  0  0  0
   -5.7897   12.6865  -32.5491 H   0  0  0  0  0  0  0  0  0  0  0  0
   -6.3110   11.6420  -33.9143 H   0  0  0  0  0  0  0  0  0  0  0  0
   -4.6671   12.3661  -33.9143 H   0  0  0  0  0  0  0  0  0  0  0  0
   -4.2651   14.4362  -32.7469 H   0  0  0  0  0  0  0  0  0  0  0  0
   -3.8234   16.7516  -31.9345 H   0  0  0  0  0  0  0  0  0  0  0  0
   -2.1150   18.8334  -32.6440 H   0  0  0  0  0  0  0  0  0  0  0  0
   -3.1684   18.2958  -33.9960 H   0  0  0  0  0  0  0  0  0  0  0  0
   -2.4846   19.9568  -33.9960 H   0  0  0  0  0  0  0  0  0  0  0  0
   -3.1321   22.2855  -33.3447 H   0  0  0  0  0  0  0  0  0  0  0  0
   -3.7694   22.9970  -31.8083 H   0  0  0  0  0  0  0  0  0  0  0  0
   -1.7211   20.7576  -31.7198 H   0  0  0  0  0  0  0  0  0  0  0  0
   -1.2074   22.4676  -32.0116 H   0  0  0  0  0  0  0  0  0  0  0  0
   -0.8816   22.9040  -28.5714 H   0  0  0  0  0  0  0  0  0  0  0  0
    0.0217   22.4332  -30.0509 H   0  0  0  0  0  0  0  0  0  0  0  0
   -0.9912   23.9167  -30.0509 H   0  0  0  0  0  0  0  0  0  0  0  0
   -2.1162   21.0640  -28.2851 H   0  0  0  0  0  0  0  0  0  0  0  0
   -3.0554   20.3054  -29.6152 H   0  0  0  0  0  0  0  0  0  0  0  0
   -1.2616   20.2113  -29.6152 H   0  0  0  0  0  0  0  0  0  0  0  0
   -5.4729   22.9815  -28.6048 H   0  0  0  0  0  0  0  0  0  0  0  0
   -4.1896   22.3765  -29.7549 H   0  0  0  0  0  0  0  0  0  0  0  0
   -4.5372   25.0636  -28.5135 H   0  0  0  0  0  0  0  0  0  0  0  0
   -3.0516   24.1997  -29.1132 H   0  0  0  0  0  0  0  0  0  0  0  0
   -5.9290   25.9667  -29.9160 H   0  0  0  0  0  0  0  0  0  0  0  0
   -5.3837   26.4865  -31.5428 H   0  0  0  0  0  0  0  0  0  0  0  0
   -7.1796   24.6510  -31.4777 H   0  0  0  0  0  0  0  0  0  0  0  0
   -5.7000   24.2972  -32.4544 H   0  0  0  0  0  0  0  0  0  0  0  0
   -9.3445   20.3562  -31.1363 H   0  0  0  0  0  0  0  0  0  0  0  0
   -7.8960   18.5970  -31.9810 H   0  0  0  0  0  0  0  0  0  0  0  0
   -7.2566   18.1858  -34.1543 H   0  0  0  0  0  0  0  0  0  0  0  0
   -7.7138   15.8692  -34.9531 H   0  0  0  0  0  0  0  0  0  0  0  0
  1  2  1  0
  2  3  1  0
  3  4  2  0
  4  5  1  0
  5  6  2  0
  6  7  1  0
  7  8  1  0
  8  9  1  0
  8 10  2  0
 10 11  1  0
 11 12  1  0
 12 13  1  0
 13 14  1  0
 13 15  1  0
 10 16  1  0
 16 17  2  0
 17 18  1  0
 18 19  1  0
 19 20  1  0
 20 21  1  0
 21 22  1  0
 22 23  1  0
 17 24  1  0
 24 25  2  0
 25 26  1  0
 26 27  2  0
  6 28  1  0
 28 29  2  0
 29  3  1  0
 27  7  1  0
 27 16  1  0
 23 18  1  0
  1 30  1  0
  1 31  1  0
  1 32  1  0
  4 33  1  0
  5 34  1  0
  9 35  1  0
  9 36  1  0
  9 37  1  0
 11 38  1  0
 11 39  1  0
 12 40  1  0
 12 41  1  0
 14 42  1  0
 14 43  1  0
 14 44  1  0
 15 45  1  0
 15 46  1  0
 15 47  1  0
 19 48  1  0
 19 49  1  0
 20 50  1  0
 20 51  1  0
 22 52  1  0
 22 53  1  0
 23 54  1  0
 23 55  1  0
 25 56  1  0
 26 57  1  0
 28 58  1  0
 29 59  1  0
M  CHG  1  26   1
M  END
>  <UniqueID>  (25) 
25

>  <SMILES>  (25) 
COc1ccc(-n2c(C)c(CCN(C)C)c3c(N4CCOCC4)nc[nH+]c32)cc1

>  <Energy>  (25) 
112.88666963137628

>  <Genealogy>  (25) 
COc1ccc(-n2c(C)c(CCN(C)C)c3c(N4CCOCC4)nc[nH+]c32)cc1 (protonated)
COc1ccc(-n2c(C)c(CCN(C)C)c3c(N4CCOCC4)nc[nH+]c32)cc1 (3D coordinates assigned)
COc1ccc(-n2c(C)c(CCN(C)C)c3c(N4CCOCC4)nc[nH+]c32)cc1 (nonaromatic ring conformer: 112.88666963137628 kcal/mol)

>  <smiles>  (25) 
COc1ccc(-n2c(C)c(CCN(C)C)c3c(N4CCOCC4)ncnc32)cc1

>  <score_type>  (25) 
oracle

>  <origin>  (25) 
adg

>  <m_score__min__energy>  (25) 
-7.4199999999999999

>  <m_primary>  (25) 
energy

$$$$
25:0
     RDKit          3D

 39 40  0  0  0  0  0  0  0  0999 V2000
   -5.4316   26.5498  -31.1551 H   0  0  0  0  0  0  0  0  0  0  0  0
   -5.1250   25.5320  -30.8720 C   0  0  0  0  0  0  0  0  0  0  0  0
   -3.8540   25.2950  -30.4800 N   0  0  0  0  0  0  0  0  0  0  0  0
   -3.4320   24.0610  -30.1080 C   0  0  0  0  0  0  0  0  0  0  0  0
   -2.1030   23.9110  -29.7020 C   0  0  0  0  0  0  0  0  0  0  0  0
   -1.4271   24.7788  -29.7139 H   0  0  0  0  0  0  0  0  0  0  0  0
   -1.6290   22.6720  -29.2830 C   0  0  0  0  0  0  0  0  0  0  0  0
   -0.5802   22.5593  -28.9709 H   0  0  0  0  0  0  0  0  0  0  0  0
   -2.4840   21.5780  -29.2600 C   0  0  0  0  0  0  0  0  0  0  0  0
   -2.1097   20.6005  -28.9217 H   0  0  0  0  0  0  0  0  0  0  0  0
   -3.8160   21.7080  -29.6630 C   0  0  0  0  0  0  0  0  0  0  0  0
   -4.4791   20.8311  -29.6248 H   0  0  0  0  0  0  0  0  0  0  0  0
   -4.3290   22.9480  -30.1200 C   0  0  0  0  0  0  0  0  0  0  0  0
   -5.6790   23.1840  -30.5700 C   0  0  0  0  0  0  0  0  0  0  0  0
   -6.6330   22.2980  -30.7150 N   0  0  0  0  0  0  0  0  0  0  0  0
   -7.8920   22.2370  -31.4530 C   0  0  0  0  0  0  0  0  0  0  0  0
   -7.9558   23.1064  -32.1238 H   0  0  0  0  0  0  0  0  0  0  0  0
   -8.7186   22.2415  -30.7272 H   0  0  0  0  0  0  0  0  0  0  0  0
   -7.9920   20.9440  -32.2950 C   0  0  0  0  0  0  0  0  0  0  0  0
   -8.0538   21.2187  -33.3584 H   0  0  0  0  0  0  0  0  0  0  0  0
   -8.8892   20.3985  -31.9671 H   0  0  0  0  0  0  0  0  0  0  0  0
   -6.8200   20.0490  -32.1000 N   0  0  0  0  0  0  0  0  0  0  0  0
   -6.3010   20.3930  -31.2570 H   0  0  0  0  0  0  0  0  0  0  0  0
   -7.2920   18.6760  -31.7840 C   0  0  0  0  0  0  0  0  0  0  0  0
   -6.8602   18.3679  -30.8204 H   0  0  0  0  0  0  0  0  0  0  0  0
   -6.9692   18.0157  -32.6024 H   0  0  0  0  0  0  0  0  0  0  0  0
   -8.8200   18.5860  -31.6890 C   0  0  0  0  0  0  0  0  0  0  0  0
   -9.1212   18.5683  -30.6312 H   0  0  0  0  0  0  0  0  0  0  0  0
   -9.2702   19.4592  -32.1838 H   0  0  0  0  0  0  0  0  0  0  0  0
   -9.1646   17.6660  -32.1838 H   0  0  0  0  0  0  0  0  0  0  0  0
   -5.9310   20.0550  -33.3040 C   0  0  0  0  0  0  0  0  0  0  0  0
   -5.6224   19.0222  -33.5232 H   0  0  0  0  0  0  0  0  0  0  0  0
   -6.4965   20.4868  -34.1429 H   0  0  0  0  0  0  0  0  0  0  0  0
   -4.6790   20.9100  -33.0860 C   0  0  0  0  0  0  0  0  0  0  0  0
   -4.5012   21.0314  -32.0073 H   0  0  0  0  0  0  0  0  0  0  0  0
   -3.8118   20.4146  -33.5471 H   0  0  0  0  0  0  0  0  0  0  0  0
   -4.8248   21.8980  -33.5471 H   0  0  0  0  0  0  0  0  0  0  0  0
   -6.0440   24.4940  -30.9180 C   0  0  0  0  0  0  0  0  0  0  0  0
   -7.0774   24.7011  -31.2329 H   0  0  0  0  0  0  0  0  0  0  0  0
  1  2  1  0
  2  3  1  0
  3  4  1  0
  4  5  2  0
  5  6  1  0
  5  7  1  0
  7  8  1  0
  7  9  2  0
  9 10  1  0
  9 11  1  0
 11 12  1  0
 11 13  2  0
 13 14  1  0
 14 15  2  0
 15 16  1  0
 16 17  1  0
 16 18  1  0
 16 19  1  0
 19 20  1  0
 19 21  1  0
 19 22  1  0
 22 23  1  0
 22 24  1  0
 24 25  1  0
 24 26  1  0
 24 27  1  0
 27 28  1  0
 27 29  1  0
 27 30  1  0
 22 31  1  0
 31 32  1  0
 31 33  1  0
 31 34  1  0
 34 35  1  0
 34 36  1  0
 34 37  1  0
 14 38  1  0
 38 39  1  0
 38  2  2  0
 13  4  1  0
M  CHG  2   3  -1  22   1
M  END
>  <UniqueID>  (26) 
26

>  <SMILES>  (26) 
CC[NH+](CC)CC/N=c1/cc[n-]c2ccccc12

>  <Energy>  (26) 
62.02377882558661

>  <Genealogy>  (26) 
CC[NH+](CC)CCN=c1cc[n-]c2ccccc12 (protonated)
CC[NH+](CC)CC/N=c1/cc[n-]c2ccccc12 (cis-trans isomerization)
CC[NH+](CC)CC/N=c1/cc[n-]c2ccccc12 (3D coordinates assigned)
CC[NH+](CC)CC/N=c1/cc[n-]c2ccccc12 (optimized conformer: 62.02377882558661 kcal/mol)

>  <smiles>  (26) 
CCN(CC)CCN=c1cc[nH]c2ccccc12

>  <score_type>  (26) 
oracle

>  <origin>  (26) 
adg

>  <m_score__min__energy>  (26) 
-7.0899999999999999

>  <m_primary>  (26) 
energy

$$$$
26:0
     RDKit          3D

 37 38  0  0  0  0  0  0  0  0999 V2000
   -9.4690   21.9260  -31.4300 C   0  0  0  0  0  0  0  0  0  0  0  0
   -8.6080   20.8440  -31.9970 C   0  0  0  0  0  0  0  0  0  0  0  0
   -9.1110   19.5470  -32.1500 C   0  0  0  0  0  0  0  0  0  0  0  0
   -8.2920   18.5500  -32.6800 C   0  0  0  0  0  0  0  0  0  0  0  0
   -6.9770   18.8530  -33.0600 C   0  0  0  0  0  0  0  0  0  0  0  0
   -6.1360   17.8700  -33.5940 C   0  0  0  0  0  0  0  0  0  0  0  0
   -4.8310   18.1920  -33.9650 C   0  0  0  0  0  0  0  0  0  0  0  0
   -4.3550   19.4970  -33.8110 C   0  0  0  0  0  0  0  0  0  0  0  0
   -5.1820   20.5070  -33.2850 C   0  0  0  0  0  0  0  0  0  0  0  0
   -4.6660   21.8530  -33.1390 N   0  0  0  0  0  0  0  0  0  0  0  0
   -3.5830   21.9270  -32.1400 C   0  0  0  0  0  0  0  0  0  0  0  0
   -3.7430   23.1030  -31.1480 C   0  0  0  0  0  0  0  0  0  0  0  0
   -5.0670   23.7530  -31.2780 N   0  0  0  0  0  0  0  0  0  0  0  0
   -5.0150   25.1570  -30.8370 C   0  0  0  0  0  0  0  0  0  0  0  0
   -6.0650   23.0240  -30.4770 C   0  0  0  0  0  0  0  0  0  0  0  0
   -6.5020   20.1760  -32.8970 C   0  0  0  0  0  0  0  0  0  0  0  0
   -7.3290   21.1200  -32.3690 N   0  0  0  0  0  0  0  0  0  0  0  0
   -9.4352   21.8836  -30.3313 H   0  0  0  0  0  0  0  0  0  0  0  0
   -9.1000   22.9046  -31.7707 H   0  0  0  0  0  0  0  0  0  0  0  0
  -10.5055   21.7862  -31.7707 H   0  0  0  0  0  0  0  0  0  0  0  0
  -10.1449   19.3154  -31.8544 H   0  0  0  0  0  0  0  0  0  0  0  0
   -8.6776   17.5268  -32.7997 H   0  0  0  0  0  0  0  0  0  0  0  0
   -6.5051   16.8416  -33.7213 H   0  0  0  0  0  0  0  0  0  0  0  0
   -4.1728   17.4150  -34.3810 H   0  0  0  0  0  0  0  0  0  0  0  0
   -3.3224   19.7374  -34.1042 H   0  0  0  0  0  0  0  0  0  0  0  0
   -5.4490   22.4700  -32.8180 H   0  0  0  0  0  0  0  0  0  0  0  0
   -4.3420   22.2430  -34.0510 H   0  0  0  0  0  0  0  0  0  0  0  0
   -3.5711   20.9874  -31.5682 H   0  0  0  0  0  0  0  0  0  0  0  0
   -2.6443   22.0906  -32.6896 H   0  0  0  0  0  0  0  0  0  0  0  0
   -3.6323   22.7216  -30.1222 H   0  0  0  0  0  0  0  0  0  0  0  0
   -2.9698   23.8514  -31.3759 H   0  0  0  0  0  0  0  0  0  0  0  0
   -5.0135   25.1962  -29.7377 H   0  0  0  0  0  0  0  0  0  0  0  0
   -4.0988   25.6285  -31.2219 H   0  0  0  0  0  0  0  0  0  0  0  0
   -5.8938   25.6950  -31.2219 H   0  0  0  0  0  0  0  0  0  0  0  0
   -5.8580   23.1752  -29.4073 H   0  0  0  0  0  0  0  0  0  0  0  0
   -7.0710   23.4014  -30.7127 H   0  0  0  0  0  0  0  0  0  0  0  0
   -6.0114   21.9509  -30.7127 H   0  0  0  0  0  0  0  0  0  0  0  0
  1  2  1  0
  2  3  2  0
  3  4  1  0
  4  5  2  0
  5  6  1  0
  6  7  2  0
  7  8  1  0
  8  9  2  0
  9 10  1  0
 10 11  1  0
 11 12  1  0
 12 13  1  0
 13 14  1  0
 13 15  1  0
  9 16  1  0
 16 17  2  0
 17  2  1  0
 16  5  1  0
  1 18  1  0
  1 19  1  0
  1 20  1  0
  3 21  1  0
  4 22  1  0
  6 23  1  0
  7 24  1  0
  8 25  1  0
 10 26  1  0
 10 27  1  0
 11 28  1  0
 11 29  1  0
 12 30  1  0
 12 31  1  0
 14 32  1  0
 14 33  1  0
 14 34  1  0
 15 35  1  0
 15 36  1  0
 15 37  1  0
M  CHG  1  10   1
M  END
>  <UniqueID>  (27) 
27

>  <SMILES>  (27) 
Cc1ccc2cccc([NH2+]CCN(C)C)c2n1

>  <Energy>  (27) 
42.49312401591214

>  <Genealogy>  (27) 
Cc1ccc2cccc([NH2+]CCN(C)C)c2n1 (protonated)
Cc1ccc2cccc([NH2+]CCN(C)C)c2n1 (3D coordinates assigned)
Cc1ccc2cccc([NH2+]CCN(C)C)c2n1 (optimized conformer: 42.49312401591214 kcal/mol)

>  <smiles>  (27) 
Cc1ccc2cccc(NCCN(C)C)c2n1

>  <score_type>  (27) 
oracle

>  <origin>  (27) 
adg

>  <m_score__min__energy>  (27) 
-6.5499999999999998

>  <m_primary>  (27) 
energy

$$$$
27:0
     RDKit          3D

 57 59  0  0  0  0  0  0  0  0999 V2000
   -3.5720   18.8730  -26.3470 C   0  0  0  0  0  0  0  0  0  0  0  0
   -2.7960   19.7170  -27.3540 C   0  0  0  0  0  0  0  0  0  0  0  0
   -1.5950   20.4030  -26.6900 C   0  0  0  0  0  0  0  0  0  0  0  0
   -1.2430   21.6460  -27.3880 N   0  0  0  0  0  0  0  0  0  0  0  0
   -0.2310   22.5550  -26.8310 C   0  0  0  0  0  0  0  0  0  0  0  0
   -0.4020   22.6860  -25.3140 C   0  0  0  0  0  0  0  0  0  0  0  0
    0.4130   23.8530  -24.7670 C   0  0  0  0  0  0  0  0  0  0  0  0
   -1.6700   21.8330  -28.7480 C   0  0  0  0  0  0  0  0  0  0  0  0
   -1.0980   21.0850  -29.7310 N   0  0  0  0  0  0  0  0  0  0  0  0
   -1.4260   21.2670  -31.0350 C   0  0  0  0  0  0  0  0  0  0  0  0
   -2.3330   22.2110  -31.3820 N   0  0  0  0  0  0  0  0  0  0  0  0
   -2.9490   22.9790  -30.4430 C   0  0  0  0  0  0  0  0  0  0  0  0
   -3.8820   23.9510  -30.8270 O   0  0  0  0  0  0  0  0  0  0  0  0
   -5.2080   23.6470  -31.1460 C   0  0  0  0  0  0  0  0  0  0  0  0
   -5.4770   22.6010  -32.0350 C   0  0  0  0  0  0  0  0  0  0  0  0
   -6.7970   22.2740  -32.3480 C   0  0  0  0  0  0  0  0  0  0  0  0
   -7.8370   23.0120  -31.7820 C   0  0  0  0  0  0  0  0  0  0  0  0
   -7.5590   24.0440  -30.9400 N   0  0  0  0  0  0  0  0  0  0  0  0
   -6.2830   24.3870  -30.6120 C   0  0  0  0  0  0  0  0  0  0  0  0
   -6.0520   25.5600  -29.7090 C   0  0  0  0  0  0  0  0  0  0  0  0
   -2.6440   22.7990  -29.0830 C   0  0  0  0  0  0  0  0  0  0  0  0
   -3.4090   23.5700  -28.0280 C   0  0  0  0  0  0  0  0  0  0  0  0
   -2.5800   24.7030  -27.4730 C   0  0  0  0  0  0  0  0  0  0  0  0
   -2.7770   25.1510  -26.1540 C   0  0  0  0  0  0  0  0  0  0  0  0
   -2.0030   26.1960  -25.6420 C   0  0  0  0  0  0  0  0  0  0  0  0
   -1.0270   26.8010  -26.4380 C   0  0  0  0  0  0  0  0  0  0  0  0
   -0.8240   26.3620  -27.7480 C   0  0  0  0  0  0  0  0  0  0  0  0
   -1.5930   25.3150  -28.2650 C   0  0  0  0  0  0  0  0  0  0  0  0
   -3.2952   19.1740  -25.3258 H   0  0  0  0  0  0  0  0  0  0  0  0
   -4.6512   19.0262  -26.4946 H   0  0  0  0  0  0  0  0  0  0  0  0
   -3.3289   17.8104  -26.4946 H   0  0  0  0  0  0  0  0  0  0  0  0
   -2.4355   19.0674  -28.1652 H   0  0  0  0  0  0  0  0  0  0  0  0
   -3.4671   20.4934  -27.7500 H   0  0  0  0  0  0  0  0  0  0  0  0
   -1.8474   20.6369  -25.6452 H   0  0  0  0  0  0  0  0  0  0  0  0
   -0.7335   19.7206  -26.7364 H   0  0  0  0  0  0  0  0  0  0  0  0
    0.7713   22.1577  -27.0491 H   0  0  0  0  0  0  0  0  0  0  0  0
   -0.3543   23.5474  -27.2893 H   0  0  0  0  0  0  0  0  0  0  0  0
   -1.4651   22.8523  -25.0856 H   0  0  0  0  0  0  0  0  0  0  0  0
   -0.0447   21.7592  -24.8414 H   0  0  0  0  0  0  0  0  0  0  0  0
    0.3960   23.8286  -23.6674 H   0  0  0  0  0  0  0  0  0  0  0  0
    1.4518   23.7719  -25.1195 H   0  0  0  0  0  0  0  0  0  0  0  0
   -0.0209   24.8004  -25.1195 H   0  0  0  0  0  0  0  0  0  0  0  0
   -0.3790   20.3660  -29.4850 H   0  0  0  0  0  0  0  0  0  0  0  0
   -0.9545   20.6468  -31.8115 H   0  0  0  0  0  0  0  0  0  0  0  0
   -4.6483   22.0364  -32.4872 H   0  0  0  0  0  0  0  0  0  0  0  0
   -7.0154   21.4425  -33.0343 H   0  0  0  0  0  0  0  0  0  0  0  0
   -8.8816   22.7595  -32.0165 H   0  0  0  0  0  0  0  0  0  0  0  0
   -6.1162   25.2338  -28.6605 H   0  0  0  0  0  0  0  0  0  0  0  0
   -5.0539   25.9802  -29.9018 H   0  0  0  0  0  0  0  0  0  0  0  0
   -6.8163   26.3273  -29.9018 H   0  0  0  0  0  0  0  0  0  0  0  0
   -4.3246   23.9818  -28.4776 H   0  0  0  0  0  0  0  0  0  0  0  0
   -3.6566   22.8833  -27.2051 H   0  0  0  0  0  0  0  0  0  0  0  0
   -3.5433   24.6769  -25.5231 H   0  0  0  0  0  0  0  0  0  0  0  0
   -2.1625   26.5428  -24.6104 H   0  0  0  0  0  0  0  0  0  0  0  0
   -0.4186   27.6230  -26.0328 H   0  0  0  0  0  0  0  0  0  0  0  0
   -0.0573   26.8410  -28.3746 H   0  0  0  0  0  0  0  0  0  0  0  0
   -1.4250   24.9688  -29.2955 H   0  0  0  0  0  0  0  0  0  0  0  0
  1  2  1  0
  2  3  1  0
  3  4  1  0
  4  5  1  0
  5  6  1  0
  6  7  1  0
  4  8  1  0
  8  9  2  0
  9 10  1  0
 10 11  2  0
 11 12  1  0
 12 13  1  0
 13 14  1  0
 14 15  2  0
 15 16  1  0
 16 17  2  0
 17 18  1  0
 18 19  2  0
 19 20  1  0
 12 21  2  0
 21 22  1  0
 22 23  1  0
 23 24  2  0
 24 25  1  0
 25 26  2  0
 26 27  1  0
 27 28  2  0
 21  8  1  0
 28 23  1  0
 19 14  1  0
  1 29  1  0
  1 30  1  0
  1 31  1  0
  2 32  1  0
  2 33  1  0
  3 34  1  0
  3 35  1  0
  5 36  1  0
  5 37  1  0
  6 38  1  0
  6 39  1  0
  7 40  1  0
  7 41  1  0
  7 42  1  0
  9 43  1  0
 10 44  1  0
 15 45  1  0
 16 46  1  0
 17 47  1  0
 20 48  1  0
 20 49  1  0
 20 50  1  0
 22 51  1  0
 22 52  1  0
 24 53  1  0
 25 54  1  0
 26 55  1  0
 27 56  1  0
 28 57  1  0
M  CHG  1   9   1
M  END
>  <UniqueID>  (28) 
28

>  <SMILES>  (28) 
CCCN(CCC)c1[nH+]cnc(Oc2cccnc2C)c1Cc1ccccc1

>  <Energy>  (28) 
59.14816359202915

>  <Genealogy>  (28) 
CCCN(CCC)c1[nH+]cnc(Oc2cccnc2C)c1Cc1ccccc1 (protonated)
CCCN(CCC)c1[nH+]cnc(Oc2cccnc2C)c1Cc1ccccc1 (3D coordinates assigned)
CCCN(CCC)c1[nH+]cnc(Oc2cccnc2C)c1Cc1ccccc1 (optimized conformer: 59.14816359202915 kcal/mol)

>  <smiles>  (28) 
CCCN(CCC)c1ncnc(Oc2cccnc2C)c1Cc1ccccc1

>  <score_type>  (28) 
oracle

>  <origin>  (28) 
adg

>  <m_score__min__energy>  (28) 
-7.2000000000000002

>  <m_primary>  (28) 
energy

$$$$
28:0
     RDKit          3D

 54 57  0  0  0  0  0  0  0  0999 V2000
   -4.9970   14.5290  -33.1860 C   0  0  0  0  0  0  0  0  0  0  0  0
   -6.1170   15.3230  -33.5620 O   0  0  0  0  0  0  0  0  0  0  0  0
   -6.1940   16.7140  -33.3920 C   0  0  0  0  0  0  0  0  0  0  0  0
   -5.9810   17.5330  -34.5060 C   0  0  0  0  0  0  0  0  0  0  0  0
   -6.0440   18.9240  -34.3880 C   0  0  0  0  0  0  0  0  0  0  0  0
   -6.3270   19.5180  -33.1480 C   0  0  0  0  0  0  0  0  0  0  0  0
   -6.3500   21.0170  -33.0140 C   0  0  0  0  0  0  0  0  0  0  0  0
   -5.1080   21.4970  -32.3140 C   0  0  0  0  0  0  0  0  0  0  0  0
   -5.0330   22.2070  -31.1120 C   0  0  0  0  0  0  0  0  0  0  0  0
   -6.2090   22.6980  -30.3180 C   0  0  0  0  0  0  0  0  0  0  0  0
   -3.7380   22.3370  -30.7230 N   0  0  0  0  0  0  0  0  0  0  0  0
   -3.2510   22.9470  -29.5170 C   0  0  0  0  0  0  0  0  0  0  0  0
   -2.8250   22.1380  -28.4540 C   0  0  0  0  0  0  0  0  0  0  0  0
   -2.3440   22.7160  -27.2780 C   0  0  0  0  0  0  0  0  0  0  0  0
   -2.2870   24.1060  -27.1550 C   0  0  0  0  0  0  0  0  0  0  0  0
   -2.7170   24.9220  -28.2060 C   0  0  0  0  0  0  0  0  0  0  0  0
   -3.2100   24.3490  -29.3950 C   0  0  0  0  0  0  0  0  0  0  0  0
   -3.6730   25.1330  -30.4640 O   0  0  0  0  0  0  0  0  0  0  0  0
   -5.0130   25.5880  -30.6100 C   0  0  0  0  0  0  0  0  0  0  0  0
   -2.9950   21.7320  -31.6720 C   0  0  0  0  0  0  0  0  0  0  0  0
   -1.6070   21.5680  -31.6990 C   0  0  0  0  0  0  0  0  0  0  0  0
   -1.0470   20.8550  -32.7720 C   0  0  0  0  0  0  0  0  0  0  0  0
   -1.8630   20.3100  -33.7880 C   0  0  0  0  0  0  0  0  0  0  0  0
   -1.2430   19.6040  -34.8290 O   0  0  0  0  0  0  0  0  0  0  0  0
   -0.8470   18.2380  -34.7470 C   0  0  0  0  0  0  0  0  0  0  0  0
   -3.2670   20.4840  -33.7260 C   0  0  0  0  0  0  0  0  0  0  0  0
   -3.7960   21.2020  -32.6520 C   0  0  0  0  0  0  0  0  0  0  0  0
   -6.5410   18.6990  -32.0290 C   0  0  0  0  0  0  0  0  0  0  0  0
   -6.4760   17.3080  -32.1480 C   0  0  0  0  0  0  0  0  0  0  0  0
   -4.9320   14.4829  -32.0889 H   0  0  0  0  0  0  0  0  0  0  0  0
   -5.1162   13.5126  -33.5893 H   0  0  0  0  0  0  0  0  0  0  0  0
   -4.0773   14.9780  -33.5893 H   0  0  0  0  0  0  0  0  0  0  0  0
   -5.7620   17.0781  -35.4833 H   0  0  0  0  0  0  0  0  0  0  0  0
   -5.8710   19.5566  -35.2711 H   0  0  0  0  0  0  0  0  0  0  0  0
   -6.4006   21.4702  -34.0150 H   0  0  0  0  0  0  0  0  0  0  0  0
   -7.2302   21.3103  -32.4230 H   0  0  0  0  0  0  0  0  0  0  0  0
   -5.9901   22.6066  -29.2439 H   0  0  0  0  0  0  0  0  0  0  0  0
   -6.4032   23.7524  -30.5642 H   0  0  0  0  0  0  0  0  0  0  0  0
   -7.0953   22.0947  -30.5642 H   0  0  0  0  0  0  0  0  0  0  0  0
   -2.8700   21.0429  -28.5472 H   0  0  0  0  0  0  0  0  0  0  0  0
   -2.0097   22.0764  -26.4478 H   0  0  0  0  0  0  0  0  0  0  0  0
   -1.9031   24.5598  -26.2295 H   0  0  0  0  0  0  0  0  0  0  0  0
   -2.6701   26.0163  -28.1040 H   0  0  0  0  0  0  0  0  0  0  0  0
   -5.4591   25.7395  -29.6160 H   0  0  0  0  0  0  0  0  0  0  0  0
   -5.0192   26.5386  -31.1634 H   0  0  0  0  0  0  0  0  0  0  0  0
   -5.5967   24.8377  -31.1634 H   0  0  0  0  0  0  0  0  0  0  0  0
   -0.9720   21.9850  -30.9034 H   0  0  0  0  0  0  0  0  0  0  0  0
    0.0434   20.7191  -32.8218 H   0  0  0  0  0  0  0  0  0  0  0  0
   -0.7617   17.9438  -33.6905 H   0  0  0  0  0  0  0  0  0  0  0  0
   -1.5994   17.6077  -35.2436 H   0  0  0  0  0  0  0  0  0  0  0  0
    0.1259   18.1078  -35.2436 H   0  0  0  0  0  0  0  0  0  0  0  0
   -3.9230   20.0647  -34.5031 H   0  0  0  0  0  0  0  0  0  0  0  0
   -6.7612   19.1545  -31.0522 H   0  0  0  0  0  0  0  0  0  0  0  0
   -6.6461   16.6745  -31.2649 H   0  0  0  0  0  0  0  0  0  0  0  0
  1  2  1  0
  2  3  1  0
  3  4  2  0
  4  5  1  0
  5  6  2  0
  6  7  1  0
  7  8  1  0
  8  9  2  0
  9 10  1  0
  9 11  1  0
 11 12  1  0
 12 13  2  0
 13 14  1  0
 14 15  2  0
 15 16  1  0
 16 17  2  0
 17 18  1  0
 18 19  1  0
 11 20  1  0
 20 21  2  0
 21 22  1  0
 22 23  2  0
 23 24  1  0
 24 25  1  0
 23 26  1  0
 26 27  2  0
  6 28  1  0
 28 29  2  0
 29  3  1  0
 27  8  1  0
 17 12  1  0
 27 20  1  0
  1 30  1  0
  1 31  1  0
  1 32  1  0
  4 33  1  0
  5 34  1  0
  7 35  1  0
  7 36  1  0
 10 37  1  0
 10 38  1  0
 10 39  1  0
 13 40  1  0
 14 41  1  0
 15 42  1  0
 16 43  1  0
 19 44  1  0
 19 45  1  0
 19 46  1  0
 21 47  1  0
 22 48  1  0
 25 49  1  0
 25 50  1  0
 25 51  1  0
 26 52  1  0
 28 53  1  0
 29 54  1  0
M  END
>  <UniqueID>  (29) 
29

>  <SMILES>  (29) 
COc1ccc(Cc2c(C)n(-c3ccccc3OC)c3ccc(OC)cc23)cc1

>  <Energy>  (29) 
93.01286720906933

>  <Genealogy>  (29) 
COc1ccc(Cc2c(C)n(-c3ccccc3OC)c3ccc(OC)cc23)cc1 (3D coordinates assigned)
COc1ccc(Cc2c(C)n(-c3ccccc3OC)c3ccc(OC)cc23)cc1 (optimized conformer: 93.01286720906933 kcal/mol)

>  <smiles>  (29) 
COc1ccc(Cc2c(C)n(-c3ccccc3OC)c3ccc(OC)cc23)cc1

>  <score_type>  (29) 
oracle

>  <origin>  (29) 
adg

>  <m_score__min__energy>  (29) 
-8.6099999999999994

>  <m_primary>  (29) 
energy

$$$$
29:0
     RDKit          3D

 42 43  0  0  0  0  0  0  0  0999 V2000
   -9.4810   19.5080  -32.7080 C   0  0  0  0  0  0  0  0  0  0  0  0
   -9.0710   18.3750  -31.7740 C   0  0  0  0  0  0  0  0  0  0  0  0
   -7.8770   17.7700  -32.2330 O   0  0  0  0  0  0  0  0  0  0  0  0
   -6.8780   17.8240  -31.2360 C   0  0  0  0  0  0  0  0  0  0  0  0
   -5.7360   16.8670  -31.6000 C   0  0  0  0  0  0  0  0  0  0  0  0
   -5.6460   16.6190  -33.0550 N   0  0  0  0  0  0  0  0  0  0  0  0
   -4.9300   17.6470  -33.8420 C   0  0  0  0  0  0  0  0  0  0  0  0
   -5.8570   18.4390  -34.8070 C   0  0  0  0  0  0  0  0  0  0  0  0
   -6.4450   19.7300  -34.2100 C   0  0  0  0  0  0  0  0  0  0  0  0
   -5.4800   20.4390  -33.3560 N   0  0  0  0  0  0  0  0  0  0  0  0
   -5.9470   21.4760  -32.4710 C   0  0  0  0  0  0  0  0  0  0  0  0
   -7.3250   21.6640  -32.2550 C   0  0  0  0  0  0  0  0  0  0  0  0
   -7.7750   22.6820  -31.4100 C   0  0  0  0  0  0  0  0  0  0  0  0
   -6.8590   23.5260  -30.7770 C   0  0  0  0  0  0  0  0  0  0  0  0
   -5.4870   23.3540  -30.9910 C   0  0  0  0  0  0  0  0  0  0  0  0
   -4.2350   24.5080  -30.1280 Br  0  0  0  0  0  0  0  0  0  0  0  0
   -5.0330   22.3350  -31.8370 C   0  0  0  0  0  0  0  0  0  0  0  0
   -4.0790   20.0060  -33.3340 C   0  0  0  0  0  0  0  0  0  0  0  0
   -4.0100   18.5290  -32.9520 C   0  0  0  0  0  0  0  0  0  0  0  0
   -9.7958   20.3780  -32.1130 H   0  0  0  0  0  0  0  0  0  0  0  0
   -8.6270   19.7874  -33.3425 H   0  0  0  0  0  0  0  0  0  0  0  0
  -10.3161   19.1762  -33.3425 H   0  0  0  0  0  0  0  0  0  0  0  0
   -8.9087   18.7781  -30.7635 H   0  0  0  0  0  0  0  0  0  0  0  0
   -9.8707   17.6199  -31.7537 H   0  0  0  0  0  0  0  0  0  0  0  0
   -6.4873   18.8498  -31.1643 H   0  0  0  0  0  0  0  0  0  0  0  0
   -7.3101   17.5263  -30.2692 H   0  0  0  0  0  0  0  0  0  0  0  0
   -4.7866   17.3045  -31.2575 H   0  0  0  0  0  0  0  0  0  0  0  0
   -5.9383   15.9037  -31.1090 H   0  0  0  0  0  0  0  0  0  0  0  0
   -6.5890   16.4540  -33.4780 H   0  0  0  0  0  0  0  0  0  0  0  0
   -4.2470   17.1128  -34.5189 H   0  0  0  0  0  0  0  0  0  0  0  0
   -5.2740   18.7078  -35.7002 H   0  0  0  0  0  0  0  0  0  0  0  0
   -6.7096   17.7815  -35.0321 H   0  0  0  0  0  0  0  0  0  0  0  0
   -6.7454   20.3956  -35.0327 H   0  0  0  0  0  0  0  0  0  0  0  0
   -7.3061   19.4505  -33.5852 H   0  0  0  0  0  0  0  0  0  0  0  0
   -8.0517   21.0061  -32.7540 H   0  0  0  0  0  0  0  0  0  0  0  0
   -8.8535   22.8192  -31.2427 H   0  0  0  0  0  0  0  0  0  0  0  0
   -7.2162   24.3252  -30.1109 H   0  0  0  0  0  0  0  0  0  0  0  0
   -3.9538   22.2059  -32.0066 H   0  0  0  0  0  0  0  0  0  0  0  0
   -3.6353   20.1484  -34.3304 H   0  0  0  0  0  0  0  0  0  0  0  0
   -3.5218   20.6024  -32.5966 H   0  0  0  0  0  0  0  0  0  0  0  0
   -2.9719   18.1827  -33.0636 H   0  0  0  0  0  0  0  0  0  0  0  0
   -4.3551   18.4334  -31.9119 H   0  0  0  0  0  0  0  0  0  0  0  0
  1  2  1  0
  2  3  1  0
  3  4  1  0
  4  5  1  0
  5  6  1  0
  6  7  1  0
  7  8  1  0
  8  9  1  0
  9 10  1  0
 10 11  1  0
 11 12  2  0
 12 13  1  0
 13 14  2  0
 14 15  1  0
 15 16  1  0
 15 17  2  0
 10 18  1  0
 18 19  1  0
 19  7  1  0
 17 11  1  0
  1 20  1  0
  1 21  1  0
  1 22  1  0
  2 23  1  0
  2 24  1  0
  4 25  1  0
  4 26  1  0
  5 27  1  0
  5 28  1  0
  6 29  1  0
  7 30  1  0
  8 31  1  0
  8 32  1  0
  9 33  1  0
  9 34  1  0
 12 35  1  0
 13 36  1  0
 14 37  1  0
 17 38  1  0
 18 39  1  0
 18 40  1  0
 19 41  1  0
 19 42  1  0
M  END
>  <UniqueID>  (30) 
30

>  <SMILES>  (30) 
CCOCCNC1CCN(c2cccc(Br)c2)CC1

>  <Energy>  (30) 
51.97945697012794

>  <Genealogy>  (30) 
CCOCCNC1CCN(c2cccc(Br)c2)CC1 (3D coordinates assigned)
CCOCCNC1CCN(c2cccc(Br)c2)CC1 (nonaromatic ring conformer: 51.97945697012794 kcal/mol)

>  <smiles>  (30) 
CCOCCNC1CCN(c2cccc(Br)c2)CC1

>  <score_type>  (30) 
oracle

>  <origin>  (30) 
adg

>  <m_score__min__energy>  (30) 
-8.2699999999999996

>  <m_primary>  (30) 
energy

$$$$
30:0
     RDKit          3D

 28 29  0  0  0  0  0  0  0  0999 V2000
   -2.2480   21.1820  -32.7400 C   0  0  0  0  0  0  0  0  0  0  0  0
   -2.6510   21.9160  -31.1250 S   0  0  0  0  0  0  0  0  0  0  0  0
   -4.4210   21.7750  -31.3760 C   0  0  0  0  0  0  0  0  0  0  0  0
   -5.2210   20.3260  -31.7060 S   0  0  0  0  0  0  0  0  0  0  0  0
   -6.7550   21.0130  -31.8030 C   0  0  0  0  0  0  0  0  0  0  0  0
   -7.9850   20.3820  -32.0380 C   0  0  0  0  0  0  0  0  0  0  0  0
   -8.0760   18.9660  -32.2770 N   0  0  0  0  0  0  0  0  0  0  0  0
   -7.1030   18.2870  -33.1340 C   0  0  0  0  0  0  0  0  0  0  0  0
   -9.1100   18.1850  -31.5960 C   0  0  0  0  0  0  0  0  0  0  0  0
   -9.1450   21.1800  -32.0230 C   0  0  0  0  0  0  0  0  0  0  0  0
   -9.0580   22.5650  -31.7910 C   0  0  0  0  0  0  0  0  0  0  0  0
   -7.8150   23.1730  -31.5630 C   0  0  0  0  0  0  0  0  0  0  0  0
   -6.6610   22.3810  -31.5670 C   0  0  0  0  0  0  0  0  0  0  0  0
   -5.3460   22.8170  -31.3330 C   0  0  0  0  0  0  0  0  0  0  0  0
   -4.9840   24.1870  -31.0620 C   0  0  0  0  0  0  0  0  0  0  0  0
   -4.6930   25.2850  -30.8440 N   0  0  0  0  0  0  0  0  0  0  0  0
   -1.7237   20.2270  -32.5881 H   0  0  0  0  0  0  0  0  0  0  0  0
   -3.1756   21.0053  -33.3042 H   0  0  0  0  0  0  0  0  0  0  0  0
   -1.6010   21.8698  -33.3042 H   0  0  0  0  0  0  0  0  0  0  0  0
   -6.3613   17.7694  -32.5080 H   0  0  0  0  0  0  0  0  0  0  0  0
   -7.6222   17.5541  -33.7691 H   0  0  0  0  0  0  0  0  0  0  0  0
   -6.5943   19.0272  -33.7691 H   0  0  0  0  0  0  0  0  0  0  0  0
   -8.9840   18.2802  -30.5074 H   0  0  0  0  0  0  0  0  0  0  0  0
  -10.1028   18.5607  -31.8844 H   0  0  0  0  0  0  0  0  0  0  0  0
   -9.0202   17.1273  -31.8844 H   0  0  0  0  0  0  0  0  0  0  0  0
  -10.1278   20.7166  -32.1942 H   0  0  0  0  0  0  0  0  0  0  0  0
   -9.9727   23.1761  -31.7884 H   0  0  0  0  0  0  0  0  0  0  0  0
   -7.7480   24.2562  -31.3837 H   0  0  0  0  0  0  0  0  0  0  0  0
  1  2  1  0
  2  3  1  0
  3  4  1  0
  4  5  1  0
  5  6  2  0
  6  7  1  0
  7  8  1  0
  7  9  1  0
  6 10  1  0
 10 11  2  0
 11 12  1  0
 12 13  2  0
 13 14  1  0
 14 15  1  0
 15 16  3  0
 14  3  2  0
 13  5  1  0
  1 17  1  0
  1 18  1  0
  1 19  1  0
  8 20  1  0
  8 21  1  0
  8 22  1  0
  9 23  1  0
  9 24  1  0
  9 25  1  0
 10 26  1  0
 11 27  1  0
 12 28  1  0
M  END
>  <UniqueID>  (31) 
31

>  <SMILES>  (31) 
CSc1sc2c(N(C)C)cccc2c1C#N

>  <Energy>  (31) 
57.96047553602718

>  <Genealogy>  (31) 
CSc1sc2c(N(C)C)cccc2c1C#N (3D coordinates assigned)
CSc1sc2c(N(C)C)cccc2c1C#N (optimized conformer: 57.96047553602718 kcal/mol)

>  <smiles>  (31) 
CSc1sc2c(N(C)C)cccc2c1C#N

>  <score_type>  (31) 
oracle

>  <origin>  (31) 
adg

>  <m_score__min__energy>  (31) 
-6.6600000000000001

>  <m_primary>  (31) 
energy

$$$$
31:0
     RDKit          3D

 43 45  0  0  0  0  0  0  0  0999 V2000
   -5.1280   25.3670  -30.4590 C   0  0  0  0  0  0  0  0  0  0  0  0
   -3.9710   24.4620  -30.5750 N   0  0  0  0  0  0  0  0  0  0  0  0
   -3.1750   24.5160  -29.3400 C   0  0  0  0  0  0  0  0  0  0  0  0
   -4.4070   23.0780  -30.8610 C   0  0  0  0  0  0  0  0  0  0  0  0
   -3.2030   22.1720  -31.1730 C   0  0  0  0  0  0  0  0  0  0  0  0
   -3.2600   21.5450  -32.5800 C   0  0  0  0  0  0  0  0  0  0  0  0
   -4.5520   21.7760  -33.2310 N   0  0  0  0  0  0  0  0  0  0  0  0
   -5.7080   20.9630  -32.9770 C   0  0  0  0  0  0  0  0  0  0  0  0
   -5.6920   19.5720  -33.2340 C   0  0  0  0  0  0  0  0  0  0  0  0
   -4.5550   18.9570  -33.7960 C   0  0  0  0  0  0  0  0  0  0  0  0
   -4.5300   17.5840  -34.0250 C   0  0  0  0  0  0  0  0  0  0  0  0
   -5.6330   16.8000  -33.7020 C   0  0  0  0  0  0  0  0  0  0  0  0
   -6.7710   17.3810  -33.1440 C   0  0  0  0  0  0  0  0  0  0  0  0
   -6.8300   18.7730  -32.8920 C   0  0  0  0  0  0  0  0  0  0  0  0
   -7.9470   19.3570  -32.3190 N   0  0  0  0  0  0  0  0  0  0  0  0
   -9.1140   18.5470  -31.9240 C   0  0  0  0  0  0  0  0  0  0  0  0
   -7.9530   20.7140  -32.1360 C   0  0  0  0  0  0  0  0  0  0  0  0
   -9.2020   21.6790  -31.5380 S   0  0  0  0  0  0  0  0  0  0  0  0
   -8.3850   23.1420  -31.7070 C   0  0  0  0  0  0  0  0  0  0  0  0
   -7.1230   22.8910  -32.2360 C   0  0  0  0  0  0  0  0  0  0  0  0
   -6.8780   21.5260  -32.4600 C   0  0  0  0  0  0  0  0  0  0  0  0
   -5.3516   25.5419  -29.3963 H   0  0  0  0  0  0  0  0  0  0  0  0
   -4.8947   26.3248  -30.9471 H   0  0  0  0  0  0  0  0  0  0  0  0
   -6.0014   24.9099  -30.9471 H   0  0  0  0  0  0  0  0  0  0  0  0
   -3.8456   24.4705  -28.4693 H   0  0  0  0  0  0  0  0  0  0  0  0
   -2.4811   23.6629  -29.3134 H   0  0  0  0  0  0  0  0  0  0  0  0
   -2.6027   25.4550  -29.3134 H   0  0  0  0  0  0  0  0  0  0  0  0
   -4.9384   22.6801  -29.9839 H   0  0  0  0  0  0  0  0  0  0  0  0
   -5.0692   23.0944  -31.7392 H   0  0  0  0  0  0  0  0  0  0  0  0
   -2.2847   22.7726  -31.0954 H   0  0  0  0  0  0  0  0  0  0  0  0
   -3.2204   21.3456  -30.4472 H   0  0  0  0  0  0  0  0  0  0  0  0
   -2.4660   21.9883  -33.1989 H   0  0  0  0  0  0  0  0  0  0  0  0
   -3.1218   20.4589  -32.4742 H   0  0  0  0  0  0  0  0  0  0  0  0
   -4.6110   22.5060  -33.9770 H   0  0  0  0  0  0  0  0  0  0  0  0
   -3.6783   19.5683  -34.0564 H   0  0  0  0  0  0  0  0  0  0  0  0
   -3.6352   17.1175  -34.4628 H   0  0  0  0  0  0  0  0  0  0  0  0
   -5.6071   15.7161  -33.8878 H   0  0  0  0  0  0  0  0  0  0  0  0
   -7.6360   16.7484  -32.8958 H   0  0  0  0  0  0  0  0  0  0  0  0
   -9.1760   18.5040  -30.8266 H   0  0  0  0  0  0  0  0  0  0  0  0
  -10.0305   19.0042  -32.3254 H   0  0  0  0  0  0  0  0  0  0  0  0
   -9.0062   17.5285  -32.3254 H   0  0  0  0  0  0  0  0  0  0  0  0
   -8.7835   24.1326  -31.4427 H   0  0  0  0  0  0  0  0  0  0  0  0
   -6.3908   23.6817  -32.4566 H   0  0  0  0  0  0  0  0  0  0  0  0
  1  2  1  0
  2  3  1  0
  2  4  1  0
  4  5  1  0
  5  6  1  0
  6  7  1  0
  7  8  1  0
  8  9  2  0
  9 10  1  0
 10 11  2  0
 11 12  1  0
 12 13  2  0
 13 14  1  0
 14 15  2  0
 15 16  1  0
 15 17  1  0
 17 18  1  0
 18 19  1  0
 19 20  2  0
 20 21  1  0
 21  8  1  0
 14  9  1  0
 21 17  2  0
  1 22  1  0
  1 23  1  0
  1 24  1  0
  3 25  1  0
  3 26  1  0
  3 27  1  0
  4 28  1  0
  4 29  1  0
  5 30  1  0
  5 31  1  0
  6 32  1  0
  6 33  1  0
  7 34  1  0
 10 35  1  0
 11 36  1  0
 12 37  1  0
 13 38  1  0
 16 39  1  0
 16 40  1  0
 16 41  1  0
 19 42  1  0
 20 43  1  0
M  CHG  1  15   1
M  END
>  <UniqueID>  (32) 
32

>  <SMILES>  (32) 
CN(C)CCCNc1c2ccccc2[n+](C)c2sccc12

>  <Energy>  (32) 
86.10165647123296

>  <Genealogy>  (32) 
CN(C)CCCNc1c2ccccc2[n+](C)c2sccc12 (3D coordinates assigned)
CN(C)CCCNc1c2ccccc2[n+](C)c2sccc12 (optimized conformer: 86.10165647123296 kcal/mol)

>  <smiles>  (32) 
CN(C)CCCNc1c2ccccc2[n+](C)c2sccc12

>  <score_type>  (32) 
oracle

>  <origin>  (32) 
adg

>  <m_score__min__energy>  (32) 
-8.1300000000000008

>  <m_primary>  (32) 
energy

$$$$
32:0
     RDKit          3D

 39 42  0  0  0  0  0  0  0  0999 V2000
   -4.4020   20.5710  -33.3270 C   0  0  0  0  0  0  0  0  0  0  0  0
   -5.4950   19.6860  -32.8040 C   0  0  0  0  0  0  0  0  0  0  0  0
   -5.2360   18.3610  -32.6450 N   0  0  0  0  0  0  0  0  0  0  0  0
   -6.1780   17.5060  -32.1810 C   0  0  0  0  0  0  0  0  0  0  0  0
   -7.4170   17.9610  -31.8650 N   0  0  0  0  0  0  0  0  0  0  0  0
   -7.7410   19.2770  -32.0080 C   0  0  0  0  0  0  0  0  0  0  0  0
   -6.7680   20.1910  -32.4600 C   0  0  0  0  0  0  0  0  0  0  0  0
   -7.1240   21.6520  -32.6720 C   0  0  0  0  0  0  0  0  0  0  0  0
   -8.3020   22.0810  -31.8900 N   0  0  0  0  0  0  0  0  0  0  0  0
   -7.9910   22.2900  -30.4590 C   0  0  0  0  0  0  0  0  0  0  0  0
   -6.8000   23.1820  -30.3140 C   0  0  0  0  0  0  0  0  0  0  0  0
   -5.5280   22.7310  -30.3020 N   0  0  0  0  0  0  0  0  0  0  0  0
   -4.6260   23.7360  -30.1290 C   0  0  0  0  0  0  0  0  0  0  0  0
   -3.1490   23.4230  -30.0880 C   0  0  0  0  0  0  0  0  0  0  0  0
   -2.6800   22.2400  -30.9240 C   0  0  0  0  0  0  0  0  0  0  0  0
   -2.7450   22.1230  -29.4070 C   0  0  0  0  0  0  0  0  0  0  0  0
   -5.1950   25.0080  -29.9980 C   0  0  0  0  0  0  0  0  0  0  0  0
   -6.8650   24.8470  -30.1020 S   0  0  0  0  0  0  0  0  0  0  0  0
   -9.4310   21.1530  -32.0930 C   0  0  0  0  0  0  0  0  0  0  0  0
   -9.1140   19.7380  -31.5920 C   0  0  0  0  0  0  0  0  0  0  0  0
   -3.8540   21.0147  -32.4828 H   0  0  0  0  0  0  0  0  0  0  0  0
   -3.7102   19.9755  -33.9408 H   0  0  0  0  0  0  0  0  0  0  0  0
   -4.8406   21.3715  -33.9408 H   0  0  0  0  0  0  0  0  0  0  0  0
   -5.9383   16.4393  -32.0598 H   0  0  0  0  0  0  0  0  0  0  0  0
   -8.1260   17.2820  -31.5050 H   0  0  0  0  0  0  0  0  0  0  0  0
   -6.2630   22.2688  -32.3748 H   0  0  0  0  0  0  0  0  0  0  0  0
   -7.3732   21.7778  -33.7360 H   0  0  0  0  0  0  0  0  0  0  0  0
   -8.8558   22.7553  -29.9635 H   0  0  0  0  0  0  0  0  0  0  0  0
   -7.7698   21.3179  -29.9942 H   0  0  0  0  0  0  0  0  0  0  0  0
   -2.8495   24.4771  -29.9926 H   0  0  0  0  0  0  0  0  0  0  0  0
   -3.3980   21.6893  -31.5494 H   0  0  0  0  0  0  0  0  0  0  0  0
   -1.8996   22.0848  -31.6835 H   0  0  0  0  0  0  0  0  0  0  0  0
   -3.5099   21.4877  -28.9366 H   0  0  0  0  0  0  0  0  0  0  0  0
   -2.0308   21.8482  -28.6168 H   0  0  0  0  0  0  0  0  0  0  0  0
   -4.6450   25.9494  -29.8523 H   0  0  0  0  0  0  0  0  0  0  0  0
  -10.3062   21.5347  -31.5467 H   0  0  0  0  0  0  0  0  0  0  0  0
   -9.6291   21.0927  -33.1733 H   0  0  0  0  0  0  0  0  0  0  0  0
   -9.1716   19.7307  -30.4935 H   0  0  0  0  0  0  0  0  0  0  0  0
   -9.8485   19.0512  -32.0380 H   0  0  0  0  0  0  0  0  0  0  0  0
  1  2  1  0
  2  3  2  0
  3  4  1  0
  4  5  2  0
  5  6  1  0
  6  7  2  0
  7  8  1  0
  8  9  1  0
  9 10  1  0
 10 11  1  0
 11 12  2  0
 12 13  1  0
 13 14  1  0
 14 15  1  0
 15 16  1  0
 13 17  2  0
 17 18  1  0
  9 19  1  0
 19 20  1  0
  7  2  1  0
 18 11  1  0
 20  6  1  0
 16 14  1  0
  1 21  1  0
  1 22  1  0
  1 23  1  0
  4 24  1  0
  5 25  1  0
  8 26  1  0
  8 27  1  0
 10 28  1  0
 10 29  1  0
 14 30  1  0
 15 31  1  0
 15 32  1  0
 16 33  1  0
 16 34  1  0
 17 35  1  0
 19 36  1  0
 19 37  1  0
 20 38  1  0
 20 39  1  0
M  CHG  1   5   1
M  END
>  <UniqueID>  (33) 
33

>  <SMILES>  (33) 
Cc1nc[nH+]c2c1CN(Cc1nc(C3CC3)cs1)CC2

>  <Energy>  (33) 
341.45646611747105

>  <Genealogy>  (33) 
Cc1nc[nH+]c2c1CN(Cc1nc(C3CC3)cs1)CC2 (protonated)
Cc1nc[nH+]c2c1CN(Cc1nc(C3CC3)cs1)CC2 (3D coordinates assigned)
Cc1nc[nH+]c2c1CN(Cc1nc(C3CC3)cs1)CC2 (nonaromatic ring conformer: 341.45646611747105 kcal/mol)

>  <smiles>  (33) 
Cc1ncnc2c1CN(Cc1nc(C3CC3)cs1)CC2

>  <score_type>  (33) 
oracle

>  <origin>  (33) 
adg

>  <m_score__min__energy>  (33) 
-6.7000000000000002

>  <m_primary>  (33) 
energy

$$$$
33:0
     RDKit          3D

 58 60  0  0  0  0  0  0  0  0999 V2000
   -4.6560   17.8420  -34.6980 C   0  0  0  0  0  0  0  0  0  0  0  0
   -4.3440   19.0770  -33.8550 C   0  0  0  0  0  0  0  0  0  0  0  0
   -2.8380   19.4160  -33.8110 C   0  0  0  0  0  0  0  0  0  0  0  0
   -2.5570   20.8530  -33.5630 N   0  0  2  0  0  0  0  0  0  0  0  0
   -1.1220   21.1220  -33.7520 C   0  0  0  0  0  0  0  0  0  0  0  0
   -2.9390   21.2700  -32.2250 C   0  0  0  0  0  0  0  0  0  0  0  0
   -2.7030   20.5520  -31.2600 O   0  0  0  0  0  0  0  0  0  0  0  0
   -3.5720   22.6220  -31.9900 C   0  0  0  0  0  0  0  0  0  0  0  0
   -5.0800   22.5180  -31.8750 C   0  0  0  0  0  0  0  0  0  0  0  0
   -5.6680   21.2660  -32.1300 C   0  0  0  0  0  0  0  0  0  0  0  0
   -7.0590   21.1080  -32.1160 C   0  0  0  0  0  0  0  0  0  0  0  0
   -7.6390   19.8650  -32.4110 C   0  0  0  0  0  0  0  0  0  0  0  0
   -9.0290   19.7200  -32.4080 C   0  0  0  0  0  0  0  0  0  0  0  0
   -9.8480   20.8120  -32.1110 C   0  0  0  0  0  0  0  0  0  0  0  0
   -9.2800   22.0560  -31.8140 C   0  0  0  0  0  0  0  0  0  0  0  0
   -7.8860   22.2130  -31.8160 C   0  0  0  0  0  0  0  0  0  0  0  0
   -7.3070   23.4530  -31.5170 C   0  0  0  0  0  0  0  0  0  0  0  0
   -5.9100   23.6180  -31.5240 C   0  0  0  0  0  0  0  0  0  0  0  0
   -5.3440   24.9730  -31.1690 C   0  0  0  0  0  0  0  0  0  0  0  0
   -4.2720   24.8030  -30.2640 O   0  0  0  0  0  0  0  0  0  0  0  0
   -4.7040   24.1890  -29.0650 C   0  0  0  0  0  0  0  0  0  0  0  0
   -3.6460   24.3100  -27.9590 C   0  0  0  0  0  0  0  0  0  0  0  0
   -2.3130   24.0560  -28.5070 N   0  0  0  0  0  0  0  0  0  0  0  0
   -1.9380   22.9710  -29.2050 C   0  0  0  0  0  0  0  0  0  0  0  0
   -0.5870   23.0700  -29.4520 C   0  0  0  0  0  0  0  0  0  0  0  0
   -0.1050   24.2070  -28.9040 N   0  0  0  0  0  0  0  0  0  0  0  0
   -1.1850   24.7800  -28.3310 C   0  0  0  0  0  0  0  0  0  0  0  0
   -1.1170   26.0840  -27.5960 C   0  0  0  0  0  0  0  0  0  0  0  0
   -4.8711   16.9906  -34.0355 H   0  0  0  0  0  0  0  0  0  0  0  0
   -5.5316   18.0430  -35.3328 H   0  0  0  0  0  0  0  0  0  0  0  0
   -3.7900   17.6030  -35.3328 H   0  0  0  0  0  0  0  0  0  0  0  0
   -4.8839   19.9362  -34.2796 H   0  0  0  0  0  0  0  0  0  0  0  0
   -4.6614   18.8594  -32.8245 H   0  0  0  0  0  0  0  0  0  0  0  0
   -2.3728   18.8272  -33.0067 H   0  0  0  0  0  0  0  0  0  0  0  0
   -2.4247   19.1736  -34.8012 H   0  0  0  0  0  0  0  0  0  0  0  0
   -3.0700   21.4240  -34.2710 H   0  0  0  0  0  0  0  0  0  0  0  0
   -0.6337   21.2135  -32.7706 H   0  0  0  0  0  0  0  0  0  0  0  0
   -0.6645   20.2940  -34.3133 H   0  0  0  0  0  0  0  0  0  0  0  0
   -0.9955   22.0595  -34.3133 H   0  0  0  0  0  0  0  0  0  0  0  0
   -3.1711   23.0470  -31.0580 H   0  0  0  0  0  0  0  0  0  0  0  0
   -3.3355   23.2674  -32.8488 H   0  0  0  0  0  0  0  0  0  0  0  0
   -5.0259   20.3987  -32.3434 H   0  0  0  0  0  0  0  0  0  0  0  0
   -6.9980   19.0023  -32.6453 H   0  0  0  0  0  0  0  0  0  0  0  0
   -9.4793   18.7436  -32.6401 H   0  0  0  0  0  0  0  0  0  0  0  0
  -10.9416   20.6938  -32.1106 H   0  0  0  0  0  0  0  0  0  0  0  0
   -9.9283   22.9129  -31.5784 H   0  0  0  0  0  0  0  0  0  0  0  0
   -7.9533   24.3091  -31.2735 H   0  0  0  0  0  0  0  0  0  0  0  0
   -4.9814   25.4711  -32.0803 H   0  0  0  0  0  0  0  0  0  0  0  0
   -6.1263   25.5918  -30.7052 H   0  0  0  0  0  0  0  0  0  0  0  0
   -5.6310   24.6757  -28.7278 H   0  0  0  0  0  0  0  0  0  0  0  0
   -4.8736   23.1208  -29.2655 H   0  0  0  0  0  0  0  0  0  0  0  0
   -3.6776   25.3245  -27.5349 H   0  0  0  0  0  0  0  0  0  0  0  0
   -3.8595   23.5691  -27.1745 H   0  0  0  0  0  0  0  0  0  0  0  0
   -2.5949   22.1481  -29.5233 H   0  0  0  0  0  0  0  0  0  0  0  0
    0.0098   22.3343  -30.0111 H   0  0  0  0  0  0  0  0  0  0  0  0
   -1.1269   25.8951  -26.5124 H   0  0  0  0  0  0  0  0  0  0  0  0
   -0.1902   26.6103  -27.8680 H   0  0  0  0  0  0  0  0  0  0  0  0
   -1.9840   26.7039  -27.8680 H   0  0  0  0  0  0  0  0  0  0  0  0
  1  2  1  0
  2  3  1  0
  3  4  1  0
  4  5  1  0
  4  6  1  0
  6  7  2  0
  6  8  1  0
  8  9  1  0
  9 10  2  0
 10 11  1  0
 11 12  2  0
 12 13  1  0
 13 14  2  0
 14 15  1  0
 15 16  2  0
 16 17  1  0
 17 18  2  0
 18 19  1  0
 19 20  1  0
 20 21  1  0
 21 22  1  0
 22 23  1  0
 23 24  1  0
 24 25  2  0
 25 26  1  0
 26 27  2  0
 27 28  1  0
 18  9  1  0
 27 23  1  0
 16 11  1  0
  1 29  1  0
  1 30  1  0
  1 31  1  0
  2 32  1  0
  2 33  1  0
  3 34  1  0
  3 35  1  0
  4 36  1  6
  5 37  1  0
  5 38  1  0
  5 39  1  0
  8 40  1  0
  8 41  1  0
 10 42  1  0
 12 43  1  0
 13 44  1  0
 14 45  1  0
 15 46  1  0
 17 47  1  0
 19 48  1  0
 19 49  1  0
 21 50  1  0
 21 51  1  0
 22 52  1  0
 22 53  1  0
 24 54  1  0
 25 55  1  0
 28 56  1  0
 28 57  1  0
 28 58  1  0
M  CHG  1   4   1
M  END
>  <UniqueID>  (34) 
34

>  <SMILES>  (34) 
CCC[N@H+](C)C(=O)Cc1cc2ccccc2cc1COCCn1ccnc1C

>  <Energy>  (34) 
86.08058513931994

>  <Genealogy>  (34) 
CCC[NH+](C)C(=O)Cc1cc2ccccc2cc1COCCn1ccnc1C (protonated)
CCC[N@H+](C)C(=O)Cc1cc2ccccc2cc1COCCn1ccnc1C (chirality)
CCC[N@H+](C)C(=O)Cc1cc2ccccc2cc1COCCn1ccnc1C (3D coordinates assigned)
CCC[N@H+](C)C(=O)Cc1cc2ccccc2cc1COCCn1ccnc1C (optimized conformer: 86.08058513931994 kcal/mol)

>  <smiles>  (34) 
CCCN(C)C(=O)Cc1cc2ccccc2cc1COCCn1ccnc1C

>  <score_type>  (34) 
oracle

>  <origin>  (34) 
adg

>  <m_score__min__energy>  (34) 
-8.3599999999999994

>  <m_primary>  (34) 
energy

$$$$
34:0
     RDKit          3D

 55 57  0  0  0  0  0  0  0  0999 V2000
   -5.3380   17.8240  -35.0520 C   0  0  0  0  0  0  0  0  0  0  0  0
   -5.4770   16.5890  -34.1610 C   0  0  0  0  0  0  0  0  0  0  0  0
   -6.6250   16.6660  -33.2420 N   0  0  0  0  0  0  0  0  0  0  0  0
   -6.2970   17.1200  -31.8780 C   0  0  0  0  0  0  0  0  0  0  0  0
   -6.9490   18.4680  -31.5070 C   0  0  0  0  0  0  0  0  0  0  0  0
   -7.8700   18.9270  -32.5700 N   0  0  0  0  0  0  0  0  0  0  0  0
   -9.1520   19.4570  -32.0410 C   0  0  0  0  0  0  0  0  0  0  0  0
   -9.1400   20.9850  -31.8350 C   0  0  0  0  0  0  0  0  0  0  0  0
   -7.7630   21.4400  -31.5840 N   0  0  0  0  0  0  0  0  0  0  0  0
   -7.7160   22.8440  -31.1230 C   0  0  0  0  0  0  0  0  0  0  0  0
   -6.6090   23.6220  -31.8450 C   0  0  0  0  0  0  0  0  0  0  0  0
   -5.3260   23.4780  -31.1620 N   0  0  0  0  0  0  0  0  0  0  0  0
   -4.3740   24.4080  -30.5050 C   0  0  0  0  0  0  0  0  0  0  0  0
   -4.2380   25.6570  -30.4540 O   0  0  0  0  0  0  0  0  0  0  0  0
   -3.6540   23.2440  -29.9080 C   0  0  1  0  0  0  0  0  0  0  0  0
   -3.7760   23.2640  -28.1300 Cl  0  0  0  0  0  0  0  0  0  0  0  0
   -4.6150   22.3700  -30.5410 C   0  0  2  0  0  0  0  0  0  0  0  0
   -3.9760   21.4100  -31.5310 C   0  0  0  0  0  0  0  0  0  0  0  0
   -4.2260   20.0240  -31.5050 C   0  0  0  0  0  0  0  0  0  0  0  0
   -3.6690   19.1850  -32.4750 C   0  0  0  0  0  0  0  0  0  0  0  0
   -2.8590   19.7170  -33.4790 C   0  0  0  0  0  0  0  0  0  0  0  0
   -2.6070   21.0880  -33.5140 C   0  0  0  0  0  0  0  0  0  0  0  0
   -3.1610   21.9340  -32.5500 C   0  0  0  0  0  0  0  0  0  0  0  0
   -6.9410   21.2520  -32.7960 C   0  0  0  0  0  0  0  0  0  0  0  0
   -7.2250   19.8940  -33.4810 C   0  0  0  0  0  0  0  0  0  0  0  0
   -5.2371   18.7206  -34.4228 H   0  0  0  0  0  0  0  0  0  0  0  0
   -4.4460   17.7194  -35.6871 H   0  0  0  0  0  0  0  0  0  0  0  0
   -6.2310   17.9203  -35.6871 H   0  0  0  0  0  0  0  0  0  0  0  0
   -5.6021   15.7055  -34.8043 H   0  0  0  0  0  0  0  0  0  0  0  0
   -4.5677   16.5247  -33.5453 H   0  0  0  0  0  0  0  0  0  0  0  0
   -7.0760   15.7220  -33.1890 H   0  0  0  0  0  0  0  0  0  0  0  0
   -7.3360   17.3200  -33.6450 H   0  0  0  0  0  0  0  0  0  0  0  0
   -6.6425   16.3576  -31.1643 H   0  0  0  0  0  0  0  0  0  0  0  0
   -5.2073   17.2645  -31.8374 H   0  0  0  0  0  0  0  0  0  0  0  0
   -7.5133   18.3480  -30.5704 H   0  0  0  0  0  0  0  0  0  0  0  0
   -6.1537   19.2184  -31.3870 H   0  0  0  0  0  0  0  0  0  0  0  0
   -9.9534   19.2065  -32.7516 H   0  0  0  0  0  0  0  0  0  0  0  0
   -9.3139   18.9960  -31.0555 H   0  0  0  0  0  0  0  0  0  0  0  0
   -9.5297   21.4788  -32.7374 H   0  0  0  0  0  0  0  0  0  0  0  0
   -9.7719   21.2416  -30.9719 H   0  0  0  0  0  0  0  0  0  0  0  0
   -8.6849   23.3228  -31.3282 H   0  0  0  0  0  0  0  0  0  0  0  0
   -7.5036   22.8519  -30.0437 H   0  0  0  0  0  0  0  0  0  0  0  0
   -6.5132   23.2389  -32.8717 H   0  0  0  0  0  0  0  0  0  0  0  0
   -6.8812   24.6878  -31.8506 H   0  0  0  0  0  0  0  0  0  0  0  0
   -2.5757   23.0791  -30.0497 H   0  0  0  0  0  0  0  0  0  0  0  0
   -5.1898   21.6629  -29.9249 H   0  0  0  0  0  0  0  0  0  0  0  0
   -4.8638   19.5988  -30.7161 H   0  0  0  0  0  0  0  0  0  0  0  0
   -3.8697   18.1038  -32.4466 H   0  0  0  0  0  0  0  0  0  0  0  0
   -2.4202   19.0563  -34.2412 H   0  0  0  0  0  0  0  0  0  0  0  0
   -1.9679   21.5061  -34.3057 H   0  0  0  0  0  0  0  0  0  0  0  0
   -2.9588   23.0146  -32.5883 H   0  0  0  0  0  0  0  0  0  0  0  0
   -7.1640   22.0620  -33.5061 H   0  0  0  0  0  0  0  0  0  0  0  0
   -5.8828   21.2677  -32.4960 H   0  0  0  0  0  0  0  0  0  0  0  0
   -7.8882   20.0646  -34.3419 H   0  0  0  0  0  0  0  0  0  0  0  0
   -6.2601   19.4680  -33.7932 H   0  0  0  0  0  0  0  0  0  0  0  0
  1  2  1  0
  2  3  1  0
  3  4  1  0
  4  5  1  0
  5  6  1  0
  6  7  1  0
  7  8  1  0
  8  9  1  0
  9 10  1  0
 10 11  1  0
 11 12  1  0
 12 13  1  0
 13 14  2  0
 13 15  1  0
 15 16  1  0
 15 17  1  0
 17 18  1  0
 18 19  2  0
 19 20  1  0
 20 21  2  0
 21 22  1  0
 22 23  2  0
  9 24  1  0
 24 25  1  0
 25  6  1  0
 17 12  1  0
 23 18  1  0
  1 26  1  0
  1 27  1  0
  1 28  1  0
  2 29  1  0
  2 30  1  0
  3 31  1  0
  3 32  1  0
  4 33  1  0
  4 34  1  0
  5 35  1  0
  5 36  1  0
  7 37  1  0
  7 38  1  0
  8 39  1  0
  8 40  1  0
 10 41  1  0
 10 42  1  0
 11 43  1  0
 11 44  1  0
 15 45  1  1
 17 46  1  1
 19 47  1  0
 20 48  1  0
 21 49  1  0
 22 50  1  0
 23 51  1  0
 24 52  1  0
 24 53  1  0
 25 54  1  0
 25 55  1  0
M  CHG  1   3   1
M  END
>  <UniqueID>  (35) 
35

>  <SMILES>  (35) 
CC[NH2+]CCN1CCN(CCN2C(=O)[C@@H](Cl)[C@@H]2c2ccccc2)CC1

>  <Energy>  (35) 
94.07909384490942

>  <Genealogy>  (35) 
CC[NH2+]CCN1CCN(CCN2C(=O)C(Cl)C2c2ccccc2)CC1 (protonated)
CC[NH2+]CCN1CCN(CCN2C(=O)[C@@H](Cl)[C@@H]2c2ccccc2)CC1 (chirality)
CC[NH2+]CCN1CCN(CCN2C(=O)[C@@H](Cl)[C@@H]2c2ccccc2)CC1 (3D coordinates assigned)
CC[NH2+]CCN1CCN(CCN2C(=O)[C@@H](Cl)[C@@H]2c2ccccc2)CC1 (nonaromatic ring conformer: 94.07909384490942 kcal/mol)

>  <smiles>  (35) 
CCNCCN1CCN(CCN2C(=O)C(Cl)C2c2ccccc2)CC1

>  <score_type>  (35) 
oracle

>  <origin>  (35) 
adg

>  <m_score__min__energy>  (35) 
-7.2000000000000002

>  <m_primary>  (35) 
energy

$$$$
35:0
     RDKit          3D

 49 52  0  0  0  0  0  0  0  0999 V2000
   -0.7070   25.5160  -24.4300 C   0  0  0  0  0  0  0  0  0  0  0  0
   -1.9120   25.9230  -25.0710 O   0  0  0  0  0  0  0  0  0  0  0  0
   -2.3750   25.4030  -26.2890 C   0  0  0  0  0  0  0  0  0  0  0  0
   -3.6850   24.9130  -26.3470 C   0  0  0  0  0  0  0  0  0  0  0  0
   -4.1910   24.3830  -27.5360 C   0  0  0  0  0  0  0  0  0  0  0  0
   -3.3890   24.3200  -28.6840 C   0  0  0  0  0  0  0  0  0  0  0  0
   -3.9300   23.7940  -29.9070 N   0  0  0  0  0  0  0  0  0  0  0  0
   -5.0590   24.2380  -30.4510 N   0  0  0  0  0  0  0  0  0  0  0  0
   -5.2770   23.5310  -31.5850 C   0  0  0  0  0  0  0  0  0  0  0  0
   -6.3720   23.7010  -32.4380 O   0  0  0  0  0  0  0  0  0  0  0  0
   -7.6790   23.2270  -32.1260 C   0  0  0  0  0  0  0  0  0  0  0  0
   -7.6090   21.8280  -31.5000 C   0  0  0  0  0  0  0  0  0  0  0  0
   -7.7700   20.7700  -32.5220 N   0  0  0  0  0  0  0  0  0  0  0  0
   -6.6050   19.8510  -32.5480 C   0  0  0  0  0  0  0  0  0  0  0  0
   -6.9960   18.4690  -33.0980 C   0  0  0  0  0  0  0  0  0  0  0  0
   -7.9870   17.8080  -32.3210 O   0  0  0  0  0  0  0  0  0  0  0  0
   -8.8660   18.6960  -31.6440 C   0  0  0  0  0  0  0  0  0  0  0  0
   -9.0550   20.0460  -32.3580 C   0  0  0  0  0  0  0  0  0  0  0  0
   -4.2640   22.6180  -31.7550 C   0  0  0  0  0  0  0  0  0  0  0  0
   -4.0360   21.6400  -32.7190 C   0  0  0  0  0  0  0  0  0  0  0  0
   -2.9050   20.8170  -32.5540 C   0  0  0  0  0  0  0  0  0  0  0  0
   -2.5310   19.4530  -33.8360 Br  0  0  0  0  0  0  0  0  0  0  0  0
   -2.0560   20.9840  -31.4350 C   0  0  0  0  0  0  0  0  0  0  0  0
   -2.3230   21.9800  -30.4750 C   0  0  0  0  0  0  0  0  0  0  0  0
   -3.4360   22.8020  -30.6820 C   0  0  0  0  0  0  0  0  0  0  0  0
   -2.0820   24.8310  -28.6360 C   0  0  0  0  0  0  0  0  0  0  0  0
   -1.5740   25.3630  -27.4460 C   0  0  0  0  0  0  0  0  0  0  0  0
   -0.8390   25.5606  -23.3389 H   0  0  0  0  0  0  0  0  0  0  0  0
   -0.4631   24.4856  -24.7280 H   0  0  0  0  0  0  0  0  0  0  0  0
    0.1117   26.1875  -24.7280 H   0  0  0  0  0  0  0  0  0  0  0  0
   -4.3204   24.9456  -25.4497 H   0  0  0  0  0  0  0  0  0  0  0  0
   -5.2261   24.0124  -27.5719 H   0  0  0  0  0  0  0  0  0  0  0  0
   -8.1544   23.9183  -31.4146 H   0  0  0  0  0  0  0  0  0  0  0  0
   -8.2680   23.1723  -33.0534 H   0  0  0  0  0  0  0  0  0  0  0  0
   -6.6330   21.7046  -31.0080 H   0  0  0  0  0  0  0  0  0  0  0  0
   -8.4282   21.7333  -30.7720 H   0  0  0  0  0  0  0  0  0  0  0  0
   -5.8219   20.2831  -33.1883 H   0  0  0  0  0  0  0  0  0  0  0  0
   -6.2395   19.7243  -31.5183 H   0  0  0  0  0  0  0  0  0  0  0  0
   -7.3833   18.5978  -34.1195 H   0  0  0  0  0  0  0  0  0  0  0  0
   -6.0923   17.8425  -33.0700 H   0  0  0  0  0  0  0  0  0  0  0  0
   -9.8489   18.2102  -31.5546 H   0  0  0  0  0  0  0  0  0  0  0  0
   -8.4128   18.9116  -30.6652 H   0  0  0  0  0  0  0  0  0  0  0  0
   -9.4904   19.8648  -33.3518 H   0  0  0  0  0  0  0  0  0  0  0  0
   -9.7203   20.6678  -31.7409 H   0  0  0  0  0  0  0  0  0  0  0  0
   -4.7132   21.5147  -33.5767 H   0  0  0  0  0  0  0  0  0  0  0  0
   -1.1796   20.3305  -31.3133 H   0  0  0  0  0  0  0  0  0  0  0  0
   -1.6783   22.1070  -29.5928 H   0  0  0  0  0  0  0  0  0  0  0  0
   -1.4541   24.8129  -29.5390 H   0  0  0  0  0  0  0  0  0  0  0  0
   -0.5453   25.7513  -27.4143 H   0  0  0  0  0  0  0  0  0  0  0  0
  1  2  1  0
  2  3  1  0
  3  4  2  0
  4  5  1  0
  5  6  2  0
  6  7  1  0
  7  8  1  0
  8  9  2  0
  9 10  1  0
 10 11  1  0
 11 12  1  0
 12 13  1  0
 13 14  1  0
 14 15  1  0
 15 16  1  0
 16 17  1  0
 17 18  1  0
  9 19  1  0
 19 20  2  0
 20 21  1  0
 21 22  1  0
 21 23  2  0
 23 24  1  0
 24 25  2  0
  6 26  1  0
 26 27  2  0
 27  3  1  0
 25  7  1  0
 18 13  1  0
 25 19  1  0
  1 28  1  0
  1 29  1  0
  1 30  1  0
  4 31  1  0
  5 32  1  0
 11 33  1  0
 11 34  1  0
 12 35  1  0
 12 36  1  0
 14 37  1  0
 14 38  1  0
 15 39  1  0
 15 40  1  0
 17 41  1  0
 17 42  1  0
 18 43  1  0
 18 44  1  0
 20 45  1  0
 23 46  1  0
 24 47  1  0
 26 48  1  0
 27 49  1  0
M  END
>  <UniqueID>  (36) 
36

>  <SMILES>  (36) 
COc1ccc(-n2nc(OCCN3CCOCC3)c3cc(Br)ccc32)cc1

>  <Energy>  (36) 
108.12476191336154

>  <Genealogy>  (36) 
COc1ccc(-n2nc(OCCN3CCOCC3)c3cc(Br)ccc32)cc1 (3D coordinates assigned)
COc1ccc(-n2nc(OCCN3CCOCC3)c3cc(Br)ccc32)cc1 (nonaromatic ring conformer: 108.12476191336154 kcal/mol)

>  <smiles>  (36) 
COc1ccc(-n2nc(OCCN3CCOCC3)c3cc(Br)ccc32)cc1

>  <score_type>  (36) 
oracle

>  <origin>  (36) 
adg

>  <m_score__min__energy>  (36) 
-8.6099999999999994

>  <m_primary>  (36) 
energy

$$$$
36:0
     RDKit          3D

 34 34  0  0  0  0  0  0  0  0999 V2000
   -5.8740   17.4570  -34.5250 C   0  0  0  0  0  0  0  0  0  0  0  0
   -6.8550   17.5160  -33.3410 C   0  0  0  0  0  0  0  0  0  0  0  0
   -7.5140   18.8370  -33.1090 N   0  0  0  0  0  0  0  0  0  0  0  0
   -6.5610   19.8930  -32.6810 C   0  0  0  0  0  0  0  0  0  0  0  0
   -5.4040   19.3940  -31.8080 C   0  0  0  0  0  0  0  0  0  0  0  0
   -8.7370   18.8080  -32.2600 C   0  0  0  0  0  0  0  0  0  0  0  0
   -8.7520   19.9280  -31.1950 C   0  0  0  0  0  0  0  0  0  0  0  0
   -9.3870   21.5150  -31.8540 S   0  0  0  0  0  0  0  0  0  0  0  0
   -7.9490   22.4810  -31.3860 C   0  0  0  0  0  0  0  0  0  0  0  0
   -7.5100   22.4850  -30.0540 C   0  0  0  0  0  0  0  0  0  0  0  0
   -6.3790   23.2230  -29.6920 C   0  0  0  0  0  0  0  0  0  0  0  0
   -5.6900   23.9670  -30.6570 C   0  0  0  0  0  0  0  0  0  0  0  0
   -4.2690   24.8900  -30.2030 Cl  0  0  0  0  0  0  0  0  0  0  0  0
   -6.1370   23.9770  -31.9830 C   0  0  0  0  0  0  0  0  0  0  0  0
   -7.2670   23.2380  -32.3470 C   0  0  0  0  0  0  0  0  0  0  0  0
   -4.8437   17.3950  -34.1448 H   0  0  0  0  0  0  0  0  0  0  0  0
   -6.0924   16.5704  -35.1383 H   0  0  0  0  0  0  0  0  0  0  0  0
   -5.9846   18.3634  -35.1383 H   0  0  0  0  0  0  0  0  0  0  0  0
   -7.6447   16.7713  -33.5193 H   0  0  0  0  0  0  0  0  0  0  0  0
   -6.2515   17.3208  -32.4423 H   0  0  0  0  0  0  0  0  0  0  0  0
   -7.8260   19.1560  -34.0560 H   0  0  0  0  0  0  0  0  0  0  0  0
   -6.1349   20.3564  -33.5830 H   0  0  0  0  0  0  0  0  0  0  0  0
   -7.1354   20.5988  -32.0630 H   0  0  0  0  0  0  0  0  0  0  0  0
   -5.6696   19.5085  -30.7467 H   0  0  0  0  0  0  0  0  0  0  0  0
   -5.2118   18.3330  -32.0254 H   0  0  0  0  0  0  0  0  0  0  0  0
   -4.5004   19.9824  -32.0254 H   0  0  0  0  0  0  0  0  0  0  0  0
   -9.6179   18.9271  -32.9080 H   0  0  0  0  0  0  0  0  0  0  0  0
   -8.7492   17.8449  -31.7287 H   0  0  0  0  0  0  0  0  0  0  0  0
   -9.3933   19.6114  -30.3592 H   0  0  0  0  0  0  0  0  0  0  0  0
   -7.7144   20.0929  -30.8690 H   0  0  0  0  0  0  0  0  0  0  0  0
   -8.0558   21.9072  -29.2936 H   0  0  0  0  0  0  0  0  0  0  0  0
   -6.0305   23.2190  -28.6487 H   0  0  0  0  0  0  0  0  0  0  0  0
   -5.5990   24.5668  -32.7398 H   0  0  0  0  0  0  0  0  0  0  0  0
   -7.6204   23.2512  -33.3886 H   0  0  0  0  0  0  0  0  0  0  0  0
  1  2  1  0
  2  3  1  0
  3  4  1  0
  4  5  1  0
  3  6  1  0
  6  7  1  0
  7  8  1  0
  8  9  1  0
  9 10  2  0
 10 11  1  0
 11 12  2  0
 12 13  1  0
 12 14  1  0
 14 15  2  0
 15  9  1  0
  1 16  1  0
  1 17  1  0
  1 18  1  0
  2 19  1  0
  2 20  1  0
  3 21  1  0
  4 22  1  0
  4 23  1  0
  5 24  1  0
  5 25  1  0
  5 26  1  0
  6 27  1  0
  6 28  1  0
  7 29  1  0
  7 30  1  0
 10 31  1  0
 11 32  1  0
 14 33  1  0
 15 34  1  0
M  CHG  1   3   1
M  END
>  <UniqueID>  (37) 
37

>  <SMILES>  (37) 
CC[NH+](CC)CCSc1ccc(Cl)cc1

>  <Energy>  (37) 
35.948615489475124

>  <Genealogy>  (37) 
CC[NH+](CC)CCSc1ccc(Cl)cc1 (protonated)
CC[NH+](CC)CCSc1ccc(Cl)cc1 (3D coordinates assigned)
CC[NH+](CC)CCSc1ccc(Cl)cc1 (optimized conformer: 35.948615489475124 kcal/mol)

>  <smiles>  (37) 
CCN(CC)CCSc1ccc(Cl)cc1

>  <score_type>  (37) 
oracle

>  <origin>  (37) 
adg

>  <m_score__min__energy>  (37) 
-5.7999999999999998

>  <m_primary>  (37) 
energy

$$$$
37:0
     RDKit          3D

 40 41  0  0  0  0  0  0  0  0999 V2000
   -4.6380   15.4010  -32.3460 C   0  0  0  0  0  0  0  0  0  0  0  0
   -5.2490   16.4360  -33.1970 N   0  0  0  0  0  0  0  0  0  0  0  0
   -6.6470   16.0750  -33.4880 C   0  0  0  0  0  0  0  0  0  0  0  0
   -4.4910   16.6080  -34.4560 C   0  0  0  0  0  0  0  0  0  0  0  0
   -5.0930   17.7110  -35.3510 C   0  0  0  0  0  0  0  0  0  0  0  0
   -5.7130   18.9030  -34.5860 C   0  0  0  0  0  0  0  0  0  0  0  0
   -5.3240   18.9770  -33.1620 N   0  0  0  0  0  0  0  0  0  0  0  0
   -5.3280   20.3340  -32.6390 C   0  0  0  0  0  0  0  0  0  0  0  0
   -4.1010   21.0350  -32.5430 C   0  0  0  0  0  0  0  0  0  0  0  0
   -2.5730   20.3380  -33.0840 Cl  0  0  0  0  0  0  0  0  0  0  0  0
   -4.0570   22.3350  -32.0500 C   0  0  0  0  0  0  0  0  0  0  0  0
   -5.2150   23.0000  -31.6540 C   0  0  0  0  0  0  0  0  0  0  0  0
   -5.1040   24.3620  -31.2120 N   0  0  0  0  0  0  0  0  0  0  0  0
   -6.0180   25.1750  -31.4580 O   0  0  0  0  0  0  0  0  0  0  0  0
   -3.8880   24.8400  -30.7780 O   0  0  0  0  0  0  0  0  0  0  0  0
   -6.4610   22.3320  -31.7190 C   0  0  0  0  0  0  0  0  0  0  0  0
   -7.6350   22.9540  -31.2440 C   0  0  0  0  0  0  0  0  0  0  0  0
   -8.8640   22.3060  -31.3090 C   0  0  0  0  0  0  0  0  0  0  0  0
   -8.9470   21.0240  -31.8340 C   0  0  0  0  0  0  0  0  0  0  0  0
   -7.8010   20.3710  -32.2850 C   0  0  0  0  0  0  0  0  0  0  0  0
   -6.5310   20.9990  -32.2330 C   0  0  0  0  0  0  0  0  0  0  0  0
   -4.7905   15.6594  -31.2877 H   0  0  0  0  0  0  0  0  0  0  0  0
   -5.1070   14.4287  -32.5573 H   0  0  0  0  0  0  0  0  0  0  0  0
   -3.5601   15.3418  -32.5573 H   0  0  0  0  0  0  0  0  0  0  0  0
   -7.1934   15.9339  -32.5438 H   0  0  0  0  0  0  0  0  0  0  0  0
   -7.1204   16.8804  -34.0688 H   0  0  0  0  0  0  0  0  0  0  0  0
   -6.6713   15.1411  -34.0688 H   0  0  0  0  0  0  0  0  0  0  0  0
   -3.4531   16.8775  -34.2109 H   0  0  0  0  0  0  0  0  0  0  0  0
   -4.5372   15.6594  -35.0109 H   0  0  0  0  0  0  0  0  0  0  0  0
   -4.2936   18.0994  -35.9992 H   0  0  0  0  0  0  0  0  0  0  0  0
   -5.9159   17.2407  -35.9093 H   0  0  0  0  0  0  0  0  0  0  0  0
   -5.3943   19.8330  -35.0795 H   0  0  0  0  0  0  0  0  0  0  0  0
   -6.8035   18.7606  -34.6089 H   0  0  0  0  0  0  0  0  0  0  0  0
   -6.0190   18.4180  -32.6150 H   0  0  0  0  0  0  0  0  0  0  0  0
   -4.4320   18.4660  -33.0040 H   0  0  0  0  0  0  0  0  0  0  0  0
   -3.0874   22.8485  -31.9712 H   0  0  0  0  0  0  0  0  0  0  0  0
   -7.5775   23.9658  -30.8162 H   0  0  0  0  0  0  0  0  0  0  0  0
   -9.7710   22.8101  -30.9440 H   0  0  0  0  0  0  0  0  0  0  0  0
   -9.9229   20.5202  -31.8946 H   0  0  0  0  0  0  0  0  0  0  0  0
   -7.8835   19.3509  -32.6882 H   0  0  0  0  0  0  0  0  0  0  0  0
  1  2  1  0
  2  3  1  0
  2  4  1  0
  4  5  1  0
  5  6  1  0
  6  7  1  0
  7  8  1  0
  8  9  2  0
  9 10  1  0
  9 11  1  0
 11 12  2  0
 12 13  1  0
 13 14  2  0
 13 15  1  0
 12 16  1  0
 16 17  2  0
 17 18  1  0
 18 19  2  0
 19 20  1  0
 20 21  2  0
 21  8  1  0
 21 16  1  0
  1 22  1  0
  1 23  1  0
  1 24  1  0
  3 25  1  0
  3 26  1  0
  3 27  1  0
  4 28  1  0
  4 29  1  0
  5 30  1  0
  5 31  1  0
  6 32  1  0
  6 33  1  0
  7 34  1  0
  7 35  1  0
 11 36  1  0
 17 37  1  0
 18 38  1  0
 19 39  1  0
 20 40  1  0
M  CHG  3   7   1  13   1  15  -1
M  END
>  <UniqueID>  (38) 
38

>  <SMILES>  (38) 
CN(C)CCC[NH2+]c1c(Cl)cc([N+](=O)[O-])c2ccccc12

>  <Energy>  (38) 
57.30571099745219

>  <Genealogy>  (38) 
CN(C)CCC[NH2+]c1c(Cl)cc([N+](=O)[O-])c2ccccc12 (protonated)
CN(C)CCC[NH2+]c1c(Cl)cc([N+](=O)[O-])c2ccccc12 (3D coordinates assigned)
CN(C)CCC[NH2+]c1c(Cl)cc([N+](=O)[O-])c2ccccc12 (optimized conformer: 57.30571099745219 kcal/mol)

>  <smiles>  (38) 
CN(C)CCCNc1c(Cl)cc([N+](=O)[O-])c2ccccc12

>  <score_type>  (38) 
oracle

>  <origin>  (38) 
adg

>  <m_score__min__energy>  (38) 
-8.0600000000000005

>  <m_primary>  (38) 
energy

$$$$
38:0
     RDKit          3D

 35 37  0  0  0  0  0  0  0  0999 V2000
   -6.8590   17.1800  -33.7330 C   0  0  0  0  0  0  0  0  0  0  0  0
   -5.6280   17.9680  -33.7240 N   0  0  0  0  0  0  0  0  0  0  0  0
   -4.4670   17.5090  -34.1670 N   0  0  0  0  0  0  0  0  0  0  0  0
   -3.5320   18.4630  -34.0180 C   0  0  0  0  0  0  0  0  0  0  0  0
   -4.1230   19.5760  -33.4550 C   0  0  0  0  0  0  0  0  0  0  0  0
   -3.2970   21.0830  -33.0990 Cl  0  0  0  0  0  0  0  0  0  0  0  0
   -5.4620   19.2380  -33.2770 C   0  0  0  0  0  0  0  0  0  0  0  0
   -6.5320   20.0920  -32.7080 C   0  0  0  0  0  0  0  0  0  0  0  0
   -6.3610   21.3970  -32.3990 N   0  0  0  0  0  0  0  0  0  0  0  0
   -7.4930   21.9700  -31.9060 C   0  0  0  0  0  0  0  0  0  0  0  0
   -7.5400   23.4210  -31.5160 C   0  0  0  0  0  0  0  0  0  0  0  0
   -6.8750   23.7020  -30.2240 N   0  0  0  0  0  0  0  0  0  0  0  0
   -6.7300   25.1370  -29.9070 C   0  0  0  0  0  0  0  0  0  0  0  0
   -5.4040   25.7410  -30.4310 C   0  0  0  0  0  0  0  0  0  0  0  0
   -4.4810   24.7700  -30.8870 O   0  0  0  0  0  0  0  0  0  0  0  0
   -4.3830   23.7290  -29.9440 C   0  0  0  0  0  0  0  0  0  0  0  0
   -5.6660   22.8870  -29.9580 C   0  0  0  0  0  0  0  0  0  0  0  0
   -8.5910   21.1200  -31.8110 C   0  0  0  0  0  0  0  0  0  0  0  0
   -8.1110   19.6130  -32.3740 S   0  0  0  0  0  0  0  0  0  0  0  0
   -7.1732   16.9789  -32.6982 H   0  0  0  0  0  0  0  0  0  0  0  0
   -7.6493   17.7405  -34.2538 H   0  0  0  0  0  0  0  0  0  0  0  0
   -6.6809   16.2276  -34.2538 H   0  0  0  0  0  0  0  0  0  0  0  0
   -4.3110   16.5570  -34.5670 H   0  0  0  0  0  0  0  0  0  0  0  0
   -2.4722   18.3719  -34.2981 H   0  0  0  0  0  0  0  0  0  0  0  0
   -7.0417   24.0096  -32.3004 H   0  0  0  0  0  0  0  0  0  0  0  0
   -8.5996   23.6937  -31.4030 H   0  0  0  0  0  0  0  0  0  0  0  0
   -7.5686   25.6833  -30.3633 H   0  0  0  0  0  0  0  0  0  0  0  0
   -6.7252   25.2332  -28.8112 H   0  0  0  0  0  0  0  0  0  0  0  0
   -5.6364   26.4190  -31.2655 H   0  0  0  0  0  0  0  0  0  0  0  0
   -4.9315   26.2641  -29.5865 H   0  0  0  0  0  0  0  0  0  0  0  0
   -3.5243   23.0891  -30.1955 H   0  0  0  0  0  0  0  0  0  0  0  0
   -4.2449   24.1609  -28.9418 H   0  0  0  0  0  0  0  0  0  0  0  0
   -5.5770   22.1209  -30.7424 H   0  0  0  0  0  0  0  0  0  0  0  0
   -5.7800   22.4337  -28.9622 H   0  0  0  0  0  0  0  0  0  0  0  0
   -9.5901   21.3867  -31.4358 H   0  0  0  0  0  0  0  0  0  0  0  0
  1  2  1  0
  2  3  1  0
  3  4  2  0
  4  5  1  0
  5  6  1  0
  5  7  2  0
  7  8  1  0
  8  9  2  0
  9 10  1  0
 10 11  1  0
 11 12  1  0
 12 13  1  0
 13 14  1  0
 14 15  1  0
 15 16  1  0
 16 17  1  0
 10 18  2  0
 18 19  1  0
  7  2  1  0
 19  8  1  0
 17 12  1  0
  1 20  1  0
  1 21  1  0
  1 22  1  0
  3 23  1  0
  4 24  1  0
 11 25  1  0
 11 26  1  0
 13 27  1  0
 13 28  1  0
 14 29  1  0
 14 30  1  0
 16 31  1  0
 16 32  1  0
 17 33  1  0
 17 34  1  0
 18 35  1  0
M  CHG  1   3   1
M  END
>  <UniqueID>  (39) 
39

>  <SMILES>  (39) 
Cn1[nH+]cc(Cl)c1-c1nc(CN2CCOCC2)cs1

>  <Energy>  (39) 
110.81203496704428

>  <Genealogy>  (39) 
Cn1[nH+]cc(Cl)c1-c1nc(CN2CCOCC2)cs1 (protonated)
Cn1[nH+]cc(Cl)c1-c1nc(CN2CCOCC2)cs1 (3D coordinates assigned)
Cn1[nH+]cc(Cl)c1-c1nc(CN2CCOCC2)cs1 (nonaromatic ring conformer: 110.81203496704428 kcal/mol)

>  <smiles>  (39) 
Cn1ncc(Cl)c1-c1nc(CN2CCOCC2)cs1

>  <score_type>  (39) 
oracle

>  <origin>  (39) 
adg

>  <m_score__min__energy>  (39) 
-7.1900000000000004

>  <m_primary>  (39) 
energy

$$$$
39:0
     RDKit          3D

 43 45  0  0  0  0  0  0  0  0999 V2000
   -5.7710   24.9810  -31.1800 C   0  0  0  0  0  0  0  0  0  0  0  0
   -5.2470   23.5780  -31.1800 C   0  0  0  0  0  0  0  0  0  0  0  0
   -3.9310   23.3810  -30.8670 N   0  0  0  0  0  0  0  0  0  0  0  0
   -3.3440   22.1460  -30.8370 C   0  0  0  0  0  0  0  0  0  0  0  0
   -1.8790   22.0280  -30.5130 C   0  0  0  0  0  0  0  0  0  0  0  0
   -1.3090   23.3120  -30.0690 N   0  0  0  0  0  0  0  0  0  0  0  0
   -1.3610   23.4620  -28.6040 C   0  0  0  0  0  0  0  0  0  0  0  0
   -2.3130   24.5970  -28.1930 C   0  0  2  0  0  0  0  0  0  0  0  0
   -3.5270   24.0380  -27.4480 C   0  0  0  0  0  0  0  0  0  0  0  0
   -2.7400   25.2880  -29.3390 O   0  0  0  0  0  0  0  0  0  0  0  0
   -4.0990   21.0030  -31.1470 C   0  0  0  0  0  0  0  0  0  0  0  0
   -5.4370   21.1930  -31.4710 C   0  0  0  0  0  0  0  0  0  0  0  0
   -6.4110   20.2860  -31.8040 C   0  0  0  0  0  0  0  0  0  0  0  0
   -6.3710   18.8970  -31.9200 C   0  0  0  0  0  0  0  0  0  0  0  0
   -7.5570   18.2340  -32.2730 C   0  0  0  0  0  0  0  0  0  0  0  0
   -8.7430   18.9630  -32.4970 C   0  0  0  0  0  0  0  0  0  0  0  0
   -8.7570   20.3640  -32.3720 C   0  0  0  0  0  0  0  0  0  0  0  0
   -7.5630   21.0130  -32.0230 C   0  0  0  0  0  0  0  0  0  0  0  0
   -7.3440   22.3440  -31.8470 N   0  0  0  0  0  0  0  0  0  0  0  0
   -8.3290   23.4210  -31.9750 C   0  0  0  0  0  0  0  0  0  0  0  0
   -6.0260   22.4430  -31.4980 C   0  0  0  0  0  0  0  0  0  0  0  0
   -5.8993   25.3245  -30.1429 H   0  0  0  0  0  0  0  0  0  0  0  0
   -5.0579   25.6387  -31.6985 H   0  0  0  0  0  0  0  0  0  0  0  0
   -6.7407   25.0103  -31.6985 H   0  0  0  0  0  0  0  0  0  0  0  0
   -1.7508   21.2859  -29.7112 H   0  0  0  0  0  0  0  0  0  0  0  0
   -1.3516   21.7191  -31.4276 H   0  0  0  0  0  0  0  0  0  0  0  0
   -0.3100   23.3450  -30.3790 H   0  0  0  0  0  0  0  0  0  0  0  0
   -1.8210   24.1020  -30.5300 H   0  0  0  0  0  0  0  0  0  0  0  0
   -1.7137   22.5197  -28.1595 H   0  0  0  0  0  0  0  0  0  0  0  0
   -0.3512   23.7078  -28.2437 H   0  0  0  0  0  0  0  0  0  0  0  0
   -1.7757   25.2843  -27.5230 H   0  0  0  0  0  0  0  0  0  0  0  0
   -3.3593   24.1152  -26.3636 H   0  0  0  0  0  0  0  0  0  0  0  0
   -4.4229   24.6143  -27.7224 H   0  0  0  0  0  0  0  0  0  0  0  0
   -3.6716   22.9826  -27.7224 H   0  0  0  0  0  0  0  0  0  0  0  0
   -3.7070   25.0860  -29.4510 H   0  0  0  0  0  0  0  0  0  0  0  0
   -3.6498   19.9990  -31.1339 H   0  0  0  0  0  0  0  0  0  0  0  0
   -5.4402   18.3388  -31.7407 H   0  0  0  0  0  0  0  0  0  0  0  0
   -7.5611   17.1388  -32.3755 H   0  0  0  0  0  0  0  0  0  0  0  0
   -9.6658   18.4312  -32.7720 H   0  0  0  0  0  0  0  0  0  0  0  0
   -9.6806   20.9363  -32.5435 H   0  0  0  0  0  0  0  0  0  0  0  0
   -8.6367   23.7574  -30.9739 H   0  0  0  0  0  0  0  0  0  0  0  0
   -7.8822   24.2633  -32.5236 H   0  0  0  0  0  0  0  0  0  0  0  0
   -9.2077   23.0510  -32.5236 H   0  0  0  0  0  0  0  0  0  0  0  0
  1  2  1  0
  2  3  2  0
  3  4  1  0
  4  5  1  0
  5  6  1  0
  6  7  1  0
  7  8  1  0
  8  9  1  0
  8 10  1  0
  4 11  2  0
 11 12  1  0
 12 13  1  0
 13 14  2  0
 14 15  1  0
 15 16  2  0
 16 17  1  0
 17 18  2  0
 18 19  1  0
 19 20  1  0
 19 21  1  0
 21  2  1  0
 21 12  2  0
 18 13  1  0
  1 22  1  0
  1 23  1  0
  1 24  1  0
  5 25  1  0
  5 26  1  0
  6 27  1  0
  6 28  1  0
  7 29  1  0
  7 30  1  0
  8 31  1  1
  9 32  1  0
  9 33  1  0
  9 34  1  0
 10 35  1  0
 11 36  1  0
 14 37  1  0
 15 38  1  0
 16 39  1  0
 17 40  1  0
 20 41  1  0
 20 42  1  0
 20 43  1  0
M  CHG  1   6   1
M  END
>  <UniqueID>  (40) 
40

>  <SMILES>  (40) 
Cc1nc(C[NH2+]C[C@H](C)O)cc2c3ccccc3n(C)c12

>  <Energy>  (40) 
85.11321960150629

>  <Genealogy>  (40) 
Cc1nc(C[NH2+]CC(C)O)cc2c3ccccc3n(C)c12 (protonated)
Cc1nc(C[NH2+]C[C@H](C)O)cc2c3ccccc3n(C)c12 (chirality)
Cc1nc(C[NH2+]C[C@H](C)O)cc2c3ccccc3n(C)c12 (3D coordinates assigned)
Cc1nc(C[NH2+]C[C@H](C)O)cc2c3ccccc3n(C)c12 (optimized conformer: 85.11321960150629 kcal/mol)

>  <smiles>  (40) 
Cc1nc(CNCC(C)O)cc2c3ccccc3n(C)c12

>  <score_type>  (40) 
oracle

>  <origin>  (40) 
adg

>  <m_score__min__energy>  (40) 
-8.75

>  <m_primary>  (40) 
energy

$$$$
40:0
     RDKit          3D

 41 43  0  0  0  0  0  0  0  0999 V2000
   -6.4380   17.7500  -33.5790 C   0  0  0  0  0  0  0  0  0  0  0  0
   -6.0770   17.6330  -32.1030 C   0  0  0  0  0  0  0  0  0  0  0  0
   -5.4640   18.8310  -31.6290 O   0  0  0  0  0  0  0  0  0  0  0  0
   -4.5550   19.5940  -32.3770 C   0  0  0  0  0  0  0  0  0  0  0  0
   -3.3810   19.0550  -32.8030 N   0  0  0  0  0  0  0  0  0  0  0  0
   -2.4840   19.7850  -33.5180 C   0  0  0  0  0  0  0  0  0  0  0  0
   -1.2010   19.1590  -33.9620 C   0  0  0  0  0  0  0  0  0  0  0  0
   -2.7400   21.0950  -33.7930 N   0  0  0  0  0  0  0  0  0  0  0  0
   -3.8970   21.6780  -33.3830 C   0  0  0  0  0  0  0  0  0  0  0  0
   -4.8480   20.9320  -32.6770 C   0  0  0  0  0  0  0  0  0  0  0  0
   -6.1120   21.5530  -32.2370 C   0  0  0  0  0  0  0  0  0  0  0  0
   -7.3010   20.8090  -32.2930 C   0  0  0  0  0  0  0  0  0  0  0  0
   -8.5230   21.4070  -31.9740 C   0  0  0  0  0  0  0  0  0  0  0  0
   -8.5690   22.7540  -31.6060 C   0  0  0  0  0  0  0  0  0  0  0  0
   -7.3900   23.5010  -31.5350 C   0  0  0  0  0  0  0  0  0  0  0  0
   -6.1560   22.9030  -31.8210 C   0  0  0  0  0  0  0  0  0  0  0  0
   -4.9910   23.6660  -31.6860 O   0  0  0  0  0  0  0  0  0  0  0  0
   -4.6130   24.2650  -30.4790 C   0  0  0  0  0  0  0  0  0  0  0  0
   -3.8730   25.2870  -30.4710 O   0  0  0  0  0  0  0  0  0  0  0  0
   -5.0250   23.6420  -29.1840 C   0  0  0  0  0  0  0  0  0  0  0  0
   -4.0220   22.6580  -28.5990 C   0  0  0  0  0  0  0  0  0  0  0  0
   -4.1650   24.0450  -27.9970 C   0  0  0  0  0  0  0  0  0  0  0  0
   -7.4803   18.0878  -33.6759 H   0  0  0  0  0  0  0  0  0  0  0  0
   -5.7702   18.4777  -34.0632 H   0  0  0  0  0  0  0  0  0  0  0  0
   -6.3240   16.7689  -34.0632 H   0  0  0  0  0  0  0  0  0  0  0  0
   -6.9922   17.4436  -31.5229 H   0  0  0  0  0  0  0  0  0  0  0  0
   -5.3647   16.8036  -31.9816 H   0  0  0  0  0  0  0  0  0  0  0  0
   -0.6095   18.8704  -33.0806 H   0  0  0  0  0  0  0  0  0  0  0  0
   -1.4186   18.2658  -34.5660 H   0  0  0  0  0  0  0  0  0  0  0  0
   -0.6309   19.8802  -34.5660 H   0  0  0  0  0  0  0  0  0  0  0  0
   -2.0440   21.6650  -34.3280 H   0  0  0  0  0  0  0  0  0  0  0  0
   -4.0866   22.7383  -33.6064 H   0  0  0  0  0  0  0  0  0  0  0  0
   -7.2707   19.7501  -32.5894 H   0  0  0  0  0  0  0  0  0  0  0  0
   -9.4501   20.8163  -32.0127 H   0  0  0  0  0  0  0  0  0  0  0  0
   -9.5341   23.2270  -31.3719 H   0  0  0  0  0  0  0  0  0  0  0  0
   -7.4312   24.5635  -31.2532 H   0  0  0  0  0  0  0  0  0  0  0  0
   -6.1035   23.6166  -29.3989 H   0  0  0  0  0  0  0  0  0  0  0  0
   -4.3757   21.7777  -28.0423 H   0  0  0  0  0  0  0  0  0  0  0  0
   -3.1861   22.0673  -29.0019 H   0  0  0  0  0  0  0  0  0  0  0  0
   -4.6219   24.1688  -27.0041 H   0  0  0  0  0  0  0  0  0  0  0  0
   -3.4748   24.8744  -27.7834 H   0  0  0  0  0  0  0  0  0  0  0  0
  1  2  1  0
  2  3  1  0
  3  4  1  0
  4  5  2  0
  5  6  1  0
  6  7  1  0
  6  8  2  0
  8  9  1  0
  9 10  2  0
 10 11  1  0
 11 12  2  0
 12 13  1  0
 13 14  2  0
 14 15  1  0
 15 16  2  0
 16 17  1  0
 17 18  1  0
 18 19  2  0
 18 20  1  0
 20 21  1  0
 21 22  1  0
 10  4  1  0
 16 11  1  0
 22 20  1  0
  1 23  1  0
  1 24  1  0
  1 25  1  0
  2 26  1  0
  2 27  1  0
  7 28  1  0
  7 29  1  0
  7 30  1  0
  8 31  1  0
  9 32  1  0
 12 33  1  0
 13 34  1  0
 14 35  1  0
 15 36  1  0
 20 37  1  0
 21 38  1  0
 21 39  1  0
 22 40  1  0
 22 41  1  0
M  CHG  1   8   1
M  END
>  <UniqueID>  (41) 
41

>  <SMILES>  (41) 
CCOc1nc(C)[nH+]cc1-c1ccccc1OC(=O)C1CC1

>  <Energy>  (41) 
311.12117551528604

>  <Genealogy>  (41) 
CCOc1nc(C)[nH+]cc1-c1ccccc1OC(=O)C1CC1 (protonated)
CCOc1nc(C)[nH+]cc1-c1ccccc1OC(=O)C1CC1 (3D coordinates assigned)
CCOc1nc(C)[nH+]cc1-c1ccccc1OC(=O)C1CC1 (nonaromatic ring conformer: 311.12117551528604 kcal/mol)

>  <smiles>  (41) 
CCOc1nc(C)ncc1-c1ccccc1OC(=O)C1CC1

>  <score_type>  (41) 
oracle

>  <origin>  (41) 
adg

>  <m_score__min__energy>  (41) 
-7.7000000000000002

>  <m_primary>  (41) 
energy

$$$$
41:0
     RDKit          3D

 64 67  0  0  0  0  0  0  0  0999 V2000
    1.1680   21.5360  -34.9390 C   0  0  0  0  0  0  0  0  0  0  0  0
    0.2580   21.6040  -33.8460 O   0  0  0  0  0  0  0  0  0  0  0  0
   -0.9480   20.8890  -33.7760 C   0  0  0  0  0  0  0  0  0  0  0  0
   -0.9170   19.5080  -34.0000 C   0  0  0  0  0  0  0  0  0  0  0  0
   -2.0910   18.7510  -33.9510 C   0  0  0  0  0  0  0  0  0  0  0  0
   -3.3240   19.3670  -33.6710 C   0  0  0  0  0  0  0  0  0  0  0  0
   -4.5730   18.5660  -33.6220 C   0  0  0  0  0  0  0  0  0  0  0  0
   -4.8460   17.6140  -34.6210 C   0  0  0  0  0  0  0  0  0  0  0  0
   -6.0230   16.8660  -34.5800 C   0  0  0  0  0  0  0  0  0  0  0  0
   -6.9380   17.0540  -33.5420 C   0  0  0  0  0  0  0  0  0  0  0  0
   -6.6840   17.9870  -32.5310 C   0  0  0  0  0  0  0  0  0  0  0  0
   -7.6390   18.1220  -31.5110 O   0  0  0  0  0  0  0  0  0  0  0  0
   -8.7300   19.0450  -31.4830 C   0  0  0  0  0  0  0  0  0  0  0  0
   -8.3390   20.4200  -32.0600 C   0  0  2  0  0  0  0  0  0  0  0  0
   -7.9720   20.3000  -33.4110 O   0  0  0  0  0  0  0  0  0  0  0  0
   -7.2360   21.1410  -31.2500 C   0  0  0  0  0  0  0  0  0  0  0  0
   -7.3540   22.6150  -31.3800 N   0  0  0  0  0  0  0  0  0  0  0  0
   -7.2480   23.3320  -30.0790 C   0  0  0  0  0  0  0  0  0  0  0  0
   -5.9140   24.0760  -29.8660 C   0  0  0  0  0  0  0  0  0  0  0  0
   -4.8220   23.4010  -30.5670 N   0  0  0  0  0  0  0  0  0  0  0  0
   -3.5150   23.3690  -29.9750 C   0  0  0  0  0  0  0  0  0  0  0  0
   -2.9220   24.5660  -29.5510 C   0  0  0  0  0  0  0  0  0  0  0  0
   -1.6540   24.5560  -28.9640 C   0  0  0  0  0  0  0  0  0  0  0  0
   -0.9700   23.3510  -28.8000 C   0  0  0  0  0  0  0  0  0  0  0  0
   -1.5520   22.1510  -29.2170 C   0  0  0  0  0  0  0  0  0  0  0  0
   -2.8310   22.1480  -29.8020 C   0  0  0  0  0  0  0  0  0  0  0  0
   -3.4340   20.8530  -30.2720 C   0  0  0  0  0  0  0  0  0  0  0  0
   -4.9760   23.0410  -31.9780 C   0  0  0  0  0  0  0  0  0  0  0  0
   -6.4460   23.1620  -32.4090 C   0  0  0  0  0  0  0  0  0  0  0  0
   -5.5000   18.7490  -32.5790 C   0  0  0  0  0  0  0  0  0  0  0  0
   -3.3540   20.7540  -33.4400 C   0  0  0  0  0  0  0  0  0  0  0  0
   -2.1780   21.5090  -33.4930 C   0  0  0  0  0  0  0  0  0  0  0  0
    2.1962   21.4592  -34.5558 H   0  0  0  0  0  0  0  0  0  0  0  0
    0.9385   20.6525  -35.5528 H   0  0  0  0  0  0  0  0  0  0  0  0
    1.0723   22.4438  -35.5528 H   0  0  0  0  0  0  0  0  0  0  0  0
    0.0411   19.0131  -34.2169 H   0  0  0  0  0  0  0  0  0  0  0  0
   -2.0503   17.6668  -34.1325 H   0  0  0  0  0  0  0  0  0  0  0  0
   -4.1274   17.4584  -35.4392 H   0  0  0  0  0  0  0  0  0  0  0  0
   -6.2307   16.1264  -35.3673 H   0  0  0  0  0  0  0  0  0  0  0  0
   -7.8659   16.4637  -33.5191 H   0  0  0  0  0  0  0  0  0  0  0  0
   -9.5588   18.6332  -32.0776 H   0  0  0  0  0  0  0  0  0  0  0  0
   -9.0260   19.1890  -30.4334 H   0  0  0  0  0  0  0  0  0  0  0  0
   -9.2339   21.0548  -31.9811 H   0  0  0  0  0  0  0  0  0  0  0  0
   -8.1810   19.3760  -33.7040 H   0  0  0  0  0  0  0  0  0  0  0  0
   -7.3309   20.8652  -30.1894 H   0  0  0  0  0  0  0  0  0  0  0  0
   -6.2560   20.8331  -31.6436 H   0  0  0  0  0  0  0  0  0  0  0  0
   -8.0642   24.0675  -30.0245 H   0  0  0  0  0  0  0  0  0  0  0  0
   -7.3074   22.5647  -29.2930 H   0  0  0  0  0  0  0  0  0  0  0  0
   -6.0087   25.1023  -30.2503 H   0  0  0  0  0  0  0  0  0  0  0  0
   -5.6864   24.0881  -28.7899 H   0  0  0  0  0  0  0  0  0  0  0  0
   -3.4574   25.5181  -29.6810 H   0  0  0  0  0  0  0  0  0  0  0  0
   -1.1949   25.4985  -28.6311 H   0  0  0  0  0  0  0  0  0  0  0  0
    0.0298   23.3456  -28.3413 H   0  0  0  0  0  0  0  0  0  0  0  0
   -1.0072   21.2042  -29.0871 H   0  0  0  0  0  0  0  0  0  0  0  0
   -3.7178   20.2434  -29.4015 H   0  0  0  0  0  0  0  0  0  0  0  0
   -4.3268   21.0633  -30.8792 H   0  0  0  0  0  0  0  0  0  0  0  0
   -2.6984   20.3050  -30.8792 H   0  0  0  0  0  0  0  0  0  0  0  0
   -4.3622   23.7160  -32.5925 H   0  0  0  0  0  0  0  0  0  0  0  0
   -4.6502   21.9995  -32.1162 H   0  0  0  0  0  0  0  0  0  0  0  0
   -6.6857   24.2233  -32.5708 H   0  0  0  0  0  0  0  0  0  0  0  0
   -6.5845   22.5860  -33.3358 H   0  0  0  0  0  0  0  0  0  0  0  0
   -5.2984   19.4933  -31.7946 H   0  0  0  0  0  0  0  0  0  0  0  0
   -4.3104   21.2491  -33.2158 H   0  0  0  0  0  0  0  0  0  0  0  0
   -2.2154   22.5934  -33.3124 H   0  0  0  0  0  0  0  0  0  0  0  0
  1  2  1  0
  2  3  1  0
  3  4  2  0
  4  5  1  0
  5  6  2  0
  6  7  1  0
  7  8  2  0
  8  9  1  0
  9 10  2  0
 10 11  1  0
 11 12  1  0
 12 13  1  0
 13 14  1  0
 14 15  1  0
 14 16  1  0
 16 17  1  0
 17 18  1  0
 18 19  1  0
 19 20  1  0
 20 21  1  0
 21 22  2  0
 22 23  1  0
 23 24  2  0
 24 25  1  0
 25 26  2  0
 26 27  1  0
 20 28  1  0
 28 29  1  0
 11 30  2  0
  6 31  1  0
 31 32  2  0
 32  3  1  0
 30  7  1  0
 29 17  1  0
 26 21  1  0
  1 33  1  0
  1 34  1  0
  1 35  1  0
  4 36  1  0
  5 37  1  0
  8 38  1  0
  9 39  1  0
 10 40  1  0
 13 41  1  0
 13 42  1  0
 14 43  1  6
 15 44  1  0
 16 45  1  0
 16 46  1  0
 18 47  1  0
 18 48  1  0
 19 49  1  0
 19 50  1  0
 22 51  1  0
 23 52  1  0
 24 53  1  0
 25 54  1  0
 27 55  1  0
 27 56  1  0
 27 57  1  0
 28 58  1  0
 28 59  1  0
 29 60  1  0
 29 61  1  0
 30 62  1  0
 31 63  1  0
 32 64  1  0
M  END
>  <UniqueID>  (42) 
42

>  <SMILES>  (42) 
COc1ccc(-c2cccc(OC[C@H](O)CN3CCN(c4ccccc4C)CC3)c2)cc1

>  <Energy>  (42) 
85.55670522932557

>  <Genealogy>  (42) 
COc1ccc(-c2cccc(OC[C@H](O)CN3CCN(c4ccccc4C)CC3)c2)cc1 (chirality)
COc1ccc(-c2cccc(OC[C@H](O)CN3CCN(c4ccccc4C)CC3)c2)cc1 (3D coordinates assigned)
COc1ccc(-c2cccc(OC[C@H](O)CN3CCN(c4ccccc4C)CC3)c2)cc1 (nonaromatic ring conformer: 85.55670522932557 kcal/mol)

>  <smiles>  (42) 
COc1ccc(-c2cccc(OCC(O)CN3CCN(c4ccccc4C)CC3)c2)cc1

>  <score_type>  (42) 
oracle

>  <origin>  (42) 
adg

>  <m_score__min__energy>  (42) 
-9.8800000000000008

>  <m_primary>  (42) 
energy

$$$$
42:0
     RDKit          3D

 51 52  0  0  0  0  0  0  0  0999 V2000
   -3.5090   19.2530  -32.4150 C   0  0  0  0  0  0  0  0  0  0  0  0
   -2.8300   20.3610  -33.2130 C   0  0  0  0  0  0  0  0  0  0  0  0
   -3.1320   21.7760  -32.6610 C   0  0  0  0  0  0  0  0  0  0  0  0
   -3.6480   21.8100  -31.2680 N   0  0  0  0  0  0  0  0  0  0  0  0
   -2.6530   21.3550  -30.2530 C   0  0  0  0  0  0  0  0  0  0  0  0
   -2.2600   22.4250  -29.2010 C   0  0  0  0  0  0  0  0  0  0  0  0
   -2.3990   23.7790  -29.7260 N   0  0  0  0  0  0  0  0  0  0  0  0
   -3.5780   24.1080  -30.4520 C   0  0  0  0  0  0  0  0  0  0  0  0
   -3.8590   25.3120  -30.7060 O   0  0  0  0  0  0  0  0  0  0  0  0
   -4.4740   22.9760  -30.8540 C   0  0  1  0  0  0  0  0  0  0  0  0
   -5.5640   23.3790  -31.8800 C   0  0  0  0  0  0  0  0  0  0  0  0
   -6.8930   23.7130  -31.2390 C   0  0  0  0  0  0  0  0  0  0  0  0
   -7.0180   24.8040  -30.6150 O   0  0  0  0  0  0  0  0  0  0  0  0
   -8.0410   22.8450  -31.3790 N   0  0  0  0  0  0  0  0  0  0  0  0
   -9.1020   23.2270  -32.3170 C   0  0  0  0  0  0  0  0  0  0  0  0
   -8.1330   21.5600  -30.6660 C   0  0  0  0  0  0  0  0  0  0  0  0
   -7.6530   20.4090  -31.5180 C   0  0  0  0  0  0  0  0  0  0  0  0
   -8.0900   19.0950  -31.2720 C   0  0  0  0  0  0  0  0  0  0  0  0
   -7.7140   18.0520  -32.1240 C   0  0  0  0  0  0  0  0  0  0  0  0
   -6.9140   18.3110  -33.2420 C   0  0  0  0  0  0  0  0  0  0  0  0
   -6.4860   16.9810  -34.3670 S   0  0  0  0  0  0  0  0  0  0  0  0
   -4.9660   17.7880  -34.9550 C   0  0  0  0  0  0  0  0  0  0  0  0
   -6.4850   19.6180  -33.5010 C   0  0  0  0  0  0  0  0  0  0  0  0
   -6.8520   20.6610  -32.6450 C   0  0  0  0  0  0  0  0  0  0  0  0
   -3.3887   19.4493  -31.3394 H   0  0  0  0  0  0  0  0  0  0  0  0
   -4.5798   19.2245  -32.6650 H   0  0  0  0  0  0  0  0  0  0  0  0
   -3.0483   18.2859  -32.6650 H   0  0  0  0  0  0  0  0  0  0  0  0
   -1.7425   20.1981  -33.1839 H   0  0  0  0  0  0  0  0  0  0  0  0
   -3.2244   20.3168  -34.2389 H   0  0  0  0  0  0  0  0  0  0  0  0
   -2.2011   22.3611  -32.6944 H   0  0  0  0  0  0  0  0  0  0  0  0
   -3.9306   22.1891  -33.2947 H   0  0  0  0  0  0  0  0  0  0  0  0
   -3.0782   20.4916  -29.7203 H   0  0  0  0  0  0  0  0  0  0  0  0
   -1.7339   21.1140  -30.8072 H   0  0  0  0  0  0  0  0  0  0  0  0
   -2.9117   22.3156  -28.3216 H   0  0  0  0  0  0  0  0  0  0  0  0
   -1.2045   22.2692  -28.9334 H   0  0  0  0  0  0  0  0  0  0  0  0
   -1.6620   24.4980  -29.5470 H   0  0  0  0  0  0  0  0  0  0  0  0
   -5.0625   22.6732  -29.9754 H   0  0  0  0  0  0  0  0  0  0  0  0
   -5.2123   24.2612  -32.4351 H   0  0  0  0  0  0  0  0  0  0  0  0
   -5.7278   22.5137  -32.5391 H   0  0  0  0  0  0  0  0  0  0  0  0
   -9.9912   23.5472  -31.7542 H   0  0  0  0  0  0  0  0  0  0  0  0
   -8.7510   24.0552  -32.9501 H   0  0  0  0  0  0  0  0  0  0  0  0
   -9.3595   22.3651  -32.9501 H   0  0  0  0  0  0  0  0  0  0  0  0
   -7.5151   21.6121  -29.7575 H   0  0  0  0  0  0  0  0  0  0  0  0
   -9.1896   21.3828  -30.4166 H   0  0  0  0  0  0  0  0  0  0  0  0
   -8.7319   18.8864  -30.4034 H   0  0  0  0  0  0  0  0  0  0  0  0
   -8.0481   17.0251  -31.9146 H   0  0  0  0  0  0  0  0  0  0  0  0
   -4.3634   18.1079  -34.0922 H   0  0  0  0  0  0  0  0  0  0  0  0
   -4.3865   17.0788  -35.5642 H   0  0  0  0  0  0  0  0  0  0  0  0
   -5.2288   18.6654  -35.5642 H   0  0  0  0  0  0  0  0  0  0  0  0
   -5.8574   19.8252  -34.3803 H   0  0  0  0  0  0  0  0  0  0  0  0
   -6.5115   21.6856  -32.8551 H   0  0  0  0  0  0  0  0  0  0  0  0
  1  2  1  0
  2  3  1  0
  3  4  1  0
  4  5  1  0
  5  6  1  0
  6  7  1  0
  7  8  1  0
  8  9  2  0
  8 10  1  0
 10 11  1  0
 11 12  1  0
 12 13  2  0
 12 14  1  0
 14 15  1  0
 14 16  1  0
 16 17  1  0
 17 18  2  0
 18 19  1  0
 19 20  2  0
 20 21  1  0
 21 22  1  0
 20 23  1  0
 23 24  2  0
 10  4  1  0
 24 17  1  0
  1 25  1  0
  1 26  1  0
  1 27  1  0
  2 28  1  0
  2 29  1  0
  3 30  1  0
  3 31  1  0
  5 32  1  0
  5 33  1  0
  6 34  1  0
  6 35  1  0
  7 36  1  0
 10 37  1  1
 11 38  1  0
 11 39  1  0
 15 40  1  0
 15 41  1  0
 15 42  1  0
 16 43  1  0
 16 44  1  0
 18 45  1  0
 19 46  1  0
 22 47  1  0
 22 48  1  0
 22 49  1  0
 23 50  1  0
 24 51  1  0
M  END
>  <UniqueID>  (43) 
43

>  <SMILES>  (43) 
CCCN1CCNC(=O)[C@H]1CC(=O)N(C)Cc1ccc(SC)cc1

>  <Energy>  (43) 
55.75952297106344

>  <Genealogy>  (43) 
CCCN1CCNC(=O)[C@H]1CC(=O)N(C)Cc1ccc(SC)cc1 (chirality)
CCCN1CCNC(=O)[C@H]1CC(=O)N(C)Cc1ccc(SC)cc1 (3D coordinates assigned)
CCCN1CCNC(=O)[C@H]1CC(=O)N(C)Cc1ccc(SC)cc1 (nonaromatic ring conformer: 55.75952297106344 kcal/mol)

>  <smiles>  (43) 
CCCN1CCNC(=O)C1CC(=O)N(C)Cc1ccc(SC)cc1

>  <score_type>  (43) 
oracle

>  <origin>  (43) 
adg

>  <m_score__min__energy>  (43) 
-8.7599999999999998

>  <m_primary>  (43) 
energy

$$$$
43:0
     RDKit          3D

 46 47  0  0  0  0  0  0  0  0999 V2000
   -1.7450   21.5370  -30.8500 C   0  0  0  0  0  0  0  0  0  0  0  0
   -1.1970   20.1250  -31.0470 C   0  0  0  0  0  0  0  0  0  0  0  0
   -1.5540   19.5920  -32.3090 O   0  0  0  0  0  0  0  0  0  0  0  0
   -1.9080   20.6210  -33.2140 C   0  0  0  0  0  0  0  0  0  0  0  0
   -3.3400   20.3980  -33.7310 C   0  0  0  0  0  0  0  0  0  0  0  0
   -3.9970   19.1300  -33.3110 N   0  0  1  0  0  0  0  0  0  0  0  0
   -4.6480   19.1920  -31.9820 C   0  0  0  0  0  0  0  0  0  0  0  0
   -6.0000   19.7440  -32.0490 N   0  0  0  0  0  0  0  0  0  0  0  0
   -6.7580   19.6210  -33.0930 C   0  0  0  0  0  0  0  0  0  0  0  0
   -8.0840   20.1610  -33.0900 N   0  0  0  0  0  0  0  0  0  0  0  0
   -8.6520   21.2100  -31.8320 S   0  0  0  0  0  0  0  0  0  0  0  0
   -9.0610   20.3970  -30.6350 O   0  0  0  0  0  0  0  0  0  0  0  0
   -9.8520   21.9690  -32.3200 O   0  0  0  0  0  0  0  0  0  0  0  0
   -7.3740   22.3400  -31.4010 C   0  0  0  0  0  0  0  0  0  0  0  0
   -6.4290   22.7280  -32.3600 C   0  0  0  0  0  0  0  0  0  0  0  0
   -5.3650   23.5600  -32.0030 C   0  0  0  0  0  0  0  0  0  0  0  0
   -5.2270   24.0120  -30.6850 C   0  0  0  0  0  0  0  0  0  0  0  0
   -4.1300   24.8280  -30.3710 O   0  0  0  0  0  0  0  0  0  0  0  0
   -3.1660   24.5260  -29.3690 C   0  0  0  0  0  0  0  0  0  0  0  0
   -6.1830   23.6300  -29.7240 C   0  0  0  0  0  0  0  0  0  0  0  0
   -7.2500   22.8010  -30.0840 C   0  0  0  0  0  0  0  0  0  0  0  0
   -6.2350   19.0260  -34.2810 N   0  0  0  0  0  0  0  0  0  0  0  0
   -4.8670   18.5140  -34.3400 C   0  0  0  0  0  0  0  0  0  0  0  0
   -1.8282   21.7513  -29.7743 H   0  0  0  0  0  0  0  0  0  0  0  0
   -1.0635   22.2633  -31.3169 H   0  0  0  0  0  0  0  0  0  0  0  0
   -2.7381   21.6134  -31.3169 H   0  0  0  0  0  0  0  0  0  0  0  0
   -0.1000   20.1554  -30.9711 H   0  0  0  0  0  0  0  0  0  0  0  0
   -1.6304   19.4793  -30.2690 H   0  0  0  0  0  0  0  0  0  0  0  0
   -1.8533   21.5923  -32.7006 H   0  0  0  0  0  0  0  0  0  0  0  0
   -1.2111   20.6088  -34.0650 H   0  0  0  0  0  0  0  0  0  0  0  0
   -3.9605   21.2328  -33.3731 H   0  0  0  0  0  0  0  0  0  0  0  0
   -3.2532   20.3377  -34.8259 H   0  0  0  0  0  0  0  0  0  0  0  0
   -3.1990   18.4600  -33.1900 H   0  0  0  0  0  0  0  0  0  0  0  0
   -4.7020   18.1746  -31.5672 H   0  0  0  0  0  0  0  0  0  0  0  0
   -4.0459   19.8558  -31.3442 H   0  0  0  0  0  0  0  0  0  0  0  0
   -8.6970   20.0170  -33.9240 H   0  0  0  0  0  0  0  0  0  0  0  0
   -6.5252   22.3762  -33.3978 H   0  0  0  0  0  0  0  0  0  0  0  0
   -4.6299   23.8624  -32.7633 H   0  0  0  0  0  0  0  0  0  0  0  0
   -3.6145   24.6665  -28.3745 H   0  0  0  0  0  0  0  0  0  0  0  0
   -2.8376   23.4819  -29.4789 H   0  0  0  0  0  0  0  0  0  0  0  0
   -2.3006   25.1961  -29.4789 H   0  0  0  0  0  0  0  0  0  0  0  0
   -6.0901   23.9849  -28.6870 H   0  0  0  0  0  0  0  0  0  0  0  0
   -7.9955   22.5095  -29.3295 H   0  0  0  0  0  0  0  0  0  0  0  0
   -6.8620   18.8820  -35.1040 H   0  0  0  0  0  0  0  0  0  0  0  0
   -4.8883   17.4257  -34.1813 H   0  0  0  0  0  0  0  0  0  0  0  0
   -4.4535   18.7650  -35.3279 H   0  0  0  0  0  0  0  0  0  0  0  0
  1  2  1  0
  2  3  1  0
  3  4  1  0
  4  5  1  0
  5  6  1  0
  6  7  1  0
  7  8  1  0
  8  9  2  0
  9 10  1  0
 10 11  1  0
 11 12  2  0
 11 13  2  0
 11 14  1  0
 14 15  2  0
 15 16  1  0
 16 17  2  0
 17 18  1  0
 18 19  1  0
 17 20  1  0
 20 21  2  0
  9 22  1  0
 22 23  1  0
 23  6  1  0
 21 14  1  0
  1 24  1  0
  1 25  1  0
  1 26  1  0
  2 27  1  0
  2 28  1  0
  4 29  1  0
  4 30  1  0
  5 31  1  0
  5 32  1  0
  6 33  1  1
  7 34  1  0
  7 35  1  0
 10 36  1  0
 15 37  1  0
 16 38  1  0
 19 39  1  0
 19 40  1  0
 19 41  1  0
 20 42  1  0
 21 43  1  0
 22 44  1  0
 23 45  1  0
 23 46  1  0
M  CHG  1   6   1
M  END
>  <UniqueID>  (44) 
44

>  <SMILES>  (44) 
CCOCC[N@H+]1CN=C(NS(=O)(=O)c2ccc(OC)cc2)NC1

>  <Energy>  (44) 
49.01793597334575

>  <Genealogy>  (44) 
CCOCC[NH+]1CN=C(NS(=O)(=O)c2ccc(OC)cc2)NC1 (protonated)
CCOCC[N@H+]1CN=C(NS(=O)(=O)c2ccc(OC)cc2)NC1 (chirality)
CCOCC[N@H+]1CN=C(NS(=O)(=O)c2ccc(OC)cc2)NC1 (3D coordinates assigned)
CCOCC[N@H+]1CN=C(NS(=O)(=O)c2ccc(OC)cc2)NC1 (nonaromatic ring conformer: 49.01793597334575 kcal/mol)

>  <smiles>  (44) 
CCOCCN1CN=C(NS(=O)(=O)c2ccc(OC)cc2)NC1

>  <score_type>  (44) 
oracle

>  <origin>  (44) 
adg

>  <m_score__min__energy>  (44) 
-6.8899999999999997

>  <m_primary>  (44) 
energy

$$$$
44:0
     RDKit          3D

 65 68  0  0  0  0  0  0  0  0999 V2000
   -3.2990   21.5420  -33.4600 C   0  0  0  0  0  0  0  0  0  0  0  0
   -1.8600   21.5510  -32.9460 C   0  0  0  0  0  0  0  0  0  0  0  0
   -1.2400   20.2070  -33.0140 N   0  0  0  0  0  0  0  0  0  0  0  0
   -0.9080   19.8260  -34.4040 C   0  0  0  0  0  0  0  0  0  0  0  0
   -0.1400   20.9550  -35.0850 C   0  0  0  0  0  0  0  0  0  0  0  0
   -2.0130   19.1520  -32.3110 C   0  0  0  0  0  0  0  0  0  0  0  0
   -2.8150   18.2230  -33.2510 C   0  0  0  0  0  0  0  0  0  0  0  0
   -4.1860   18.5750  -33.2580 O   0  0  0  0  0  0  0  0  0  0  0  0
   -4.7020   18.5620  -34.5730 C   0  0  0  0  0  0  0  0  0  0  0  0
   -6.1110   19.1730  -34.5520 C   0  0  0  0  0  0  0  0  0  0  0  0
   -6.8890   18.7730  -33.3650 N   0  0  0  0  0  0  0  0  0  0  0  0
   -7.3160   19.9150  -32.5870 C   0  0  0  0  0  0  0  0  0  0  0  0
   -8.6840   20.1640  -32.3730 C   0  0  0  0  0  0  0  0  0  0  0  0
   -9.0960   21.3080  -31.6860 C   0  0  0  0  0  0  0  0  0  0  0  0
   -8.1530   22.2310  -31.2290 C   0  0  0  0  0  0  0  0  0  0  0  0
   -6.7860   22.0020  -31.4400 C   0  0  0  0  0  0  0  0  0  0  0  0
   -5.7900   23.0120  -31.0330 C   0  0  0  0  0  0  0  0  0  0  0  0
   -6.0880   24.3660  -31.2300 C   0  0  0  0  0  0  0  0  0  0  0  0
   -5.1680   25.3380  -30.8450 C   0  0  0  0  0  0  0  0  0  0  0  0
   -3.9880   24.9750  -30.2830 N   0  0  0  0  0  0  0  0  0  0  0  0
   -3.6530   23.6720  -30.0780 C   0  0  0  0  0  0  0  0  0  0  0  0
   -4.5520   22.6480  -30.4480 C   0  0  0  0  0  0  0  0  0  0  0  0
   -4.0890   21.2040  -30.3610 C   0  0  0  0  0  0  0  0  0  0  0  0
   -3.1990   20.9710  -29.1350 C   0  0  0  0  0  0  0  0  0  0  0  0
   -2.1020   22.0000  -29.0490 C   0  0  0  0  0  0  0  0  0  0  0  0
   -0.8700   21.6670  -28.4620 C   0  0  0  0  0  0  0  0  0  0  0  0
    0.1210   22.6380  -28.3070 C   0  0  0  0  0  0  0  0  0  0  0  0
   -0.1160   23.9510  -28.7200 C   0  0  0  0  0  0  0  0  0  0  0  0
   -1.3420   24.2980  -29.2930 C   0  0  0  0  0  0  0  0  0  0  0  0
   -2.3450   23.3270  -29.4630 C   0  0  0  0  0  0  0  0  0  0  0  0
   -6.3700   20.8220  -32.0730 C   0  0  0  0  0  0  0  0  0  0  0  0
   -3.9931   21.5377  -32.6067 H   0  0  0  0  0  0  0  0  0  0  0  0
   -3.4755   22.4391  -34.0717 H   0  0  0  0  0  0  0  0  0  0  0  0
   -3.4643   20.6428  -34.0717 H   0  0  0  0  0  0  0  0  0  0  0  0
   -1.2680   22.2470  -33.5585 H   0  0  0  0  0  0  0  0  0  0  0  0
   -1.8767   21.8655  -31.8921 H   0  0  0  0  0  0  0  0  0  0  0  0
   -0.2879   18.9175  -34.3945 H   0  0  0  0  0  0  0  0  0  0  0  0
   -1.8388   19.6364  -34.9587 H   0  0  0  0  0  0  0  0  0  0  0  0
    0.3049   21.6090  -34.3206 H   0  0  0  0  0  0  0  0  0  0  0  0
    0.6570   20.5298  -35.7127 H   0  0  0  0  0  0  0  0  0  0  0  0
   -0.8282   21.5401  -35.7127 H   0  0  0  0  0  0  0  0  0  0  0  0
   -1.3087   18.5346  -31.7340 H   0  0  0  0  0  0  0  0  0  0  0  0
   -2.7467   19.6682  -31.6745 H   0  0  0  0  0  0  0  0  0  0  0  0
   -2.4151   18.3111  -34.2719 H   0  0  0  0  0  0  0  0  0  0  0  0
   -2.7190   17.1886  -32.8894 H   0  0  0  0  0  0  0  0  0  0  0  0
   -4.0509   19.1544  -35.2326 H   0  0  0  0  0  0  0  0  0  0  0  0
   -4.7455   17.5294  -34.9497 H   0  0  0  0  0  0  0  0  0  0  0  0
   -6.0190   20.2691  -34.5591 H   0  0  0  0  0  0  0  0  0  0  0  0
   -6.6460   18.8030  -35.4391 H   0  0  0  0  0  0  0  0  0  0  0  0
   -6.2880   18.1660  -32.7590 H   0  0  0  0  0  0  0  0  0  0  0  0
   -7.7100   18.1980  -33.6700 H   0  0  0  0  0  0  0  0  0  0  0  0
   -9.4341   19.4529  -32.7493 H   0  0  0  0  0  0  0  0  0  0  0  0
  -10.1668   21.4825  -31.5043 H   0  0  0  0  0  0  0  0  0  0  0  0
   -8.4831   23.1388  -30.7028 H   0  0  0  0  0  0  0  0  0  0  0  0
   -7.0444   24.6605  -31.6867 H   0  0  0  0  0  0  0  0  0  0  0  0
   -5.3988   26.4027  -30.9970 H   0  0  0  0  0  0  0  0  0  0  0  0
   -4.9706   20.5498  -30.2919 H   0  0  0  0  0  0  0  0  0  0  0  0
   -3.5009   20.9758  -31.2621 H   0  0  0  0  0  0  0  0  0  0  0  0
   -3.8174   21.0304  -28.2272 H   0  0  0  0  0  0  0  0  0  0  0  0
   -2.7356   19.9776  -29.2272 H   0  0  0  0  0  0  0  0  0  0  0  0
   -0.6854   20.6369  -28.1231 H   0  0  0  0  0  0  0  0  0  0  0  0
    1.0891   22.3688  -27.8593 H   0  0  0  0  0  0  0  0  0  0  0  0
    0.6655   24.7147  -28.5936 H   0  0  0  0  0  0  0  0  0  0  0  0
   -1.5235   25.3348  -29.6125 H   0  0  0  0  0  0  0  0  0  0  0  0
   -5.2962   20.6033  -32.1687 H   0  0  0  0  0  0  0  0  0  0  0  0
  1  2  1  0
  2  3  1  0
  3  4  1  0
  4  5  1  0
  3  6  1  0
  6  7  1  0
  7  8  1  0
  8  9  1  0
  9 10  1  0
 10 11  1  0
 11 12  1  0
 12 13  2  0
 13 14  1  0
 14 15  2  0
 15 16  1  0
 16 17  1  0
 17 18  2  0
 18 19  1  0
 19 20  2  0
 20 21  1  0
 21 22  2  0
 22 23  1  0
 23 24  1  0
 24 25  1  0
 25 26  2  0
 26 27  1  0
 27 28  2  0
 28 29  1  0
 29 30  2  0
 16 31  2  0
 31 12  1  0
 22 17  1  0
 30 25  1  0
 30 21  1  0
  1 32  1  0
  1 33  1  0
  1 34  1  0
  2 35  1  0
  2 36  1  0
  4 37  1  0
  4 38  1  0
  5 39  1  0
  5 40  1  0
  5 41  1  0
  6 42  1  0
  6 43  1  0
  7 44  1  0
  7 45  1  0
  9 46  1  0
  9 47  1  0
 10 48  1  0
 10 49  1  0
 11 50  1  0
 11 51  1  0
 13 52  1  0
 14 53  1  0
 15 54  1  0
 18 55  1  0
 19 56  1  0
 23 57  1  0
 23 58  1  0
 24 59  1  0
 24 60  1  0
 26 61  1  0
 27 62  1  0
 28 63  1  0
 29 64  1  0
 31 65  1  0
M  CHG  1  11   1
M  END
>  <UniqueID>  (45) 
45

>  <SMILES>  (45) 
CCN(CC)CCOCC[NH2+]c1cccc(-c2ccnc3c2CCc2ccccc2-3)c1

>  <Energy>  (45) 
81.82168538820648

>  <Genealogy>  (45) 
CCN(CC)CCOCC[NH2+]c1cccc(-c2ccnc3c2CCc2ccccc2-3)c1 (protonated)
CCN(CC)CCOCC[NH2+]c1cccc(-c2ccnc3c2CCc2ccccc2-3)c1 (3D coordinates assigned)
CCN(CC)CCOCC[NH2+]c1cccc(-c2ccnc3c2CCc2ccccc2-3)c1 (nonaromatic ring conformer: 81.82168538820648 kcal/mol)

>  <smiles>  (45) 
CCN(CC)CCOCCNc1cccc(-c2ccnc3c2CCc2ccccc2-3)c1

>  <score_type>  (45) 
oracle

>  <origin>  (45) 
adg

>  <m_score__min__energy>  (45) 
-8.8800000000000008

>  <m_primary>  (45) 
energy

$$$$
