0:0
     RDKit          3D

 50 50  0  0  0  0  0  0  0  0999 V2000
   -3.3740   21.1770  -33.3710 C   0  0  0  0  0  0  0  0  0  0  0  0
   -2.4790   21.8760  -32.3370 C   0  0  0  0  0  0  0  0  0  0  0  0
   -3.1120   22.0840  -31.0070 N   0  0  1  0  0  0  0  0  0  0  0  0
   -3.5050   20.8030  -30.3890 C   0  0  0  0  0  0  0  0  0  0  0  0
   -2.2960   22.8780  -30.0550 C   0  0  0  0  0  0  0  0  0  0  0  0
   -3.0610   24.0780  -29.4690 C   0  0  0  0  0  0  0  0  0  0  0  0
   -3.8300   24.7050  -30.4800 O   0  0  0  0  0  0  0  0  0  0  0  0
   -5.2190   24.6250  -30.2050 C   0  0  0  0  0  0  0  0  0  0  0  0
   -5.9880   24.6540  -31.5420 C   0  0  0  0  0  0  0  0  0  0  0  0
   -6.1780   23.2380  -32.0990 C   0  0  0  0  0  0  0  0  0  0  0  0
   -6.9900   22.3770  -31.1970 N   0  0  0  0  0  0  0  0  0  0  0  0
   -6.6980   20.9400  -31.3990 C   0  0  0  0  0  0  0  0  0  0  0  0
   -7.2290   20.4290  -32.7510 C   0  0  0  0  0  0  0  0  0  0  0  0
   -8.5970   19.8780  -32.6240 N   0  0  0  0  0  0  0  0  0  0  0  0
   -8.5970   18.6320  -31.8370 C   0  0  0  0  0  0  0  0  0  0  0  0
   -9.4890   20.8600  -31.9860 C   0  0  0  0  0  0  0  0  0  0  0  0
   -6.8920   22.7560  -29.7620 C   0  0  0  0  0  0  0  0  0  0  0  0
   -5.5180   23.3380  -29.4030 C   0  0  0  0  0  0  0  0  0  0  0  0
   -4.1380   20.5803  -32.8510 H   0  0  0  0  0  0  0  0  0  0  0  0
   -3.8654   21.9328  -34.0013 H   0  0  0  0  0  0  0  0  0  0  0  0
   -2.7597   20.5172  -34.0013 H   0  0  0  0  0  0  0  0  0  0  0  0
   -1.5765   21.2634  -32.1950 H   0  0  0  0  0  0  0  0  0  0  0  0
   -2.2634   22.8771  -32.7386 H   0  0  0  0  0  0  0  0  0  0  0  0
   -4.0020   22.6120  -31.1760 H   0  0  0  0  0  0  0  0  0  0  0  0
   -3.4753   20.8999  -29.2937 H   0  0  0  0  0  0  0  0  0  0  0  0
   -4.5250   20.5405  -30.7063 H   0  0  0  0  0  0  0  0  0  0  0  0
   -2.8077   20.0136  -30.7063 H   0  0  0  0  0  0  0  0  0  0  0  0
   -1.9839   22.2228  -29.2284 H   0  0  0  0  0  0  0  0  0  0  0  0
   -1.4331   23.2748  -30.6099 H   0  0  0  0  0  0  0  0  0  0  0  0
   -3.7289   23.7279  -28.6682 H   0  0  0  0  0  0  0  0  0  0  0  0
   -2.3392   24.8025  -29.0639 H   0  0  0  0  0  0  0  0  0  0  0  0
   -5.5434   25.4799  -29.5936 H   0  0  0  0  0  0  0  0  0  0  0  0
   -6.9749   25.1117  -31.3792 H   0  0  0  0  0  0  0  0  0  0  0  0
   -5.4056   25.2403  -32.2680 H   0  0  0  0  0  0  0  0  0  0  0  0
   -6.6853   23.3067  -33.0726 H   0  0  0  0  0  0  0  0  0  0  0  0
   -5.1829   22.7790  -32.1940 H   0  0  0  0  0  0  0  0  0  0  0  0
   -5.6087   20.7907  -31.3657 H   0  0  0  0  0  0  0  0  0  0  0  0
   -7.2011   20.3751  -30.6004 H   0  0  0  0  0  0  0  0  0  0  0  0
   -7.2451   21.2638  -33.4672 H   0  0  0  0  0  0  0  0  0  0  0  0
   -6.5646   19.6252  -33.1009 H   0  0  0  0  0  0  0  0  0  0  0  0
   -7.5599   18.3220  -31.6412 H   0  0  0  0  0  0  0  0  0  0  0  0
   -9.1155   18.8016  -30.8818 H   0  0  0  0  0  0  0  0  0  0  0  0
   -9.1155   17.8424  -32.4005 H   0  0  0  0  0  0  0  0  0  0  0  0
   -9.4090   20.7719  -30.8925 H   0  0  0  0  0  0  0  0  0  0  0  0
   -9.1975   21.8748  -32.2944 H   0  0  0  0  0  0  0  0  0  0  0  0
  -10.5271   20.6671  -32.2944 H   0  0  0  0  0  0  0  0  0  0  0  0
   -7.6630   23.5091  -29.5421 H   0  0  0  0  0  0  0  0  0  0  0  0
   -7.0367   21.8443  -29.1637 H   0  0  0  0  0  0  0  0  0  0  0  0
   -5.4998   23.5743  -28.3288 H   0  0  0  0  0  0  0  0  0  0  0  0
   -4.7511   22.5902  -29.6534 H   0  0  0  0  0  0  0  0  0  0  0  0
  1  2  1  0
  2  3  1  0
  3  4  1  0
  3  5  1  0
  5  6  1  0
  6  7  1  0
  7  8  1  0
  8  9  1  0
  9 10  1  0
 10 11  1  0
 11 12  1  0
 12 13  1  0
 13 14  1  0
 14 15  1  0
 14 16  1  0
 11 17  1  0
 17 18  1  0
 18  8  1  0
  1 19  1  0
  1 20  1  0
  1 21  1  0
  2 22  1  0
  2 23  1  0
  3 24  1  6
  4 25  1  0
  4 26  1  0
  4 27  1  0
  5 28  1  0
  5 29  1  0
  6 30  1  0
  6 31  1  0
  8 32  1  0
  9 33  1  0
  9 34  1  0
 10 35  1  0
 10 36  1  0
 12 37  1  0
 12 38  1  0
 13 39  1  0
 13 40  1  0
 15 41  1  0
 15 42  1  0
 15 43  1  0
 16 44  1  0
 16 45  1  0
 16 46  1  0
 17 47  1  0
 17 48  1  0
 18 49  1  0
 18 50  1  0
M  CHG  1   3   1
M  END
>  <UniqueID>  (1) 
1

>  <SMILES>  (1) 
CC[N@@H+](C)CCOC1CCN(CCN(C)C)CC1

>  <Energy>  (1) 
59.39594106144677

>  <Genealogy>  (1) 
CC[NH+](C)CCOC1CCN(CCN(C)C)CC1 (protonated)
CC[N@@H+](C)CCOC1CCN(CCN(C)C)CC1 (chirality)
CC[N@@H+](C)CCOC1CCN(CCN(C)C)CC1 (3D coordinates assigned)
CC[N@@H+](C)CCOC1CCN(CCN(C)C)CC1 (nonaromatic ring conformer: 59.39594106144677 kcal/mol)

>  <smiles>  (1) 
CCN(C)CCOC1CCN(CCN(C)C)CC1

>  <score_type>  (1) 
oracle

>  <origin>  (1) 
adg

>  <m_score__min__energy>  (1) 
-5.2599999999999998

>  <m_primary>  (1) 
energy

$$$$
1:0
     RDKit          3D

 47 48  0  0  0  0  0  0  0  0999 V2000
    1.1980   24.1570  -27.8580 C   0  0  0  0  0  0  0  0  0  0  0  0
    0.2430   25.1870  -28.0920 O   0  0  0  0  0  0  0  0  0  0  0  0
   -0.2230   26.0790  -27.1120 C   0  0  0  0  0  0  0  0  0  0  0  0
    0.1810   27.4300  -27.0830 C   0  0  0  0  0  0  0  0  0  0  0  0
   -0.3050   28.2920  -26.0980 C   0  0  0  0  0  0  0  0  0  0  0  0
   -1.1990   27.8230  -25.1340 C   0  0  0  0  0  0  0  0  0  0  0  0
   -1.6070   26.4890  -25.1510 C   0  0  0  0  0  0  0  0  0  0  0  0
   -1.1230   25.6070  -26.1330 C   0  0  0  0  0  0  0  0  0  0  0  0
   -1.5670   24.1640  -26.1300 C   0  0  0  0  0  0  0  0  0  0  0  0
   -2.1320   23.7840  -27.4340 N   0  0  0  0  0  0  0  0  0  0  0  0
   -3.5820   24.0280  -27.5220 C   0  0  0  0  0  0  0  0  0  0  0  0
   -3.9880   24.5310  -28.8800 C   0  0  0  0  0  0  0  0  0  0  0  0
   -3.0990   24.8860  -29.7010 O   0  0  0  0  0  0  0  0  0  0  0  0
   -5.3770   24.6300  -29.2270 N   0  0  0  0  0  0  0  0  0  0  0  0
   -5.8330   25.0970  -30.5350 C   0  0  0  0  0  0  0  0  0  0  0  0
   -6.9010   24.1620  -31.1230 C   0  0  0  0  0  0  0  0  0  0  0  0
   -6.3190   23.0370  -31.9950 C   0  0  0  0  0  0  0  0  0  0  0  0
   -7.2600   21.8670  -32.1200 C   0  0  0  0  0  0  0  0  0  0  0  0
   -8.6290   22.0190  -31.8420 C   0  0  0  0  0  0  0  0  0  0  0  0
   -9.5020   20.9340  -31.9780 C   0  0  0  0  0  0  0  0  0  0  0  0
   -9.0140   19.6930  -32.3960 C   0  0  0  0  0  0  0  0  0  0  0  0
   -7.6540   19.5330  -32.6770 C   0  0  0  0  0  0  0  0  0  0  0  0
   -7.1840   18.3270  -33.0830 F   0  0  0  0  0  0  0  0  0  0  0  0
   -6.7790   20.6150  -32.5410 C   0  0  0  0  0  0  0  0  0  0  0  0
    1.3280   24.0168  -26.7748 H   0  0  0  0  0  0  0  0  0  0  0  0
    0.8432   23.2186  -28.3092 H   0  0  0  0  0  0  0  0  0  0  0  0
    2.1605   24.4399  -28.3092 H   0  0  0  0  0  0  0  0  0  0  0  0
    0.8833   27.8069  -27.8411 H   0  0  0  0  0  0  0  0  0  0  0  0
    0.0175   29.3435  -26.0816 H   0  0  0  0  0  0  0  0  0  0  0  0
   -1.5819   28.5053  -24.3608 H   0  0  0  0  0  0  0  0  0  0  0  0
   -2.3129   26.1245  -24.3902 H   0  0  0  0  0  0  0  0  0  0  0  0
   -0.7011   23.5216  -25.9121 H   0  0  0  0  0  0  0  0  0  0  0  0
   -2.3435   24.0377  -25.3612 H   0  0  0  0  0  0  0  0  0  0  0  0
   -1.6460   24.3340  -28.1810 H   0  0  0  0  0  0  0  0  0  0  0  0
   -4.1134   23.0866  -27.3187 H   0  0  0  0  0  0  0  0  0  0  0  0
   -3.8419   24.7998  -26.7825 H   0  0  0  0  0  0  0  0  0  0  0  0
   -6.0970   24.3970  -28.5070 H   0  0  0  0  0  0  0  0  0  0  0  0
   -6.2603   26.1048  -30.4262 H   0  0  0  0  0  0  0  0  0  0  0  0
   -4.9707   25.1103  -31.2178 H   0  0  0  0  0  0  0  0  0  0  0  0
   -7.4592   23.7053  -30.2924 H   0  0  0  0  0  0  0  0  0  0  0  0
   -7.5447   24.7740  -31.7719 H   0  0  0  0  0  0  0  0  0  0  0  0
   -6.1159   23.4368  -32.9995 H   0  0  0  0  0  0  0  0  0  0  0  0
   -5.3979   22.6786  -31.5121 H   0  0  0  0  0  0  0  0  0  0  0  0
   -9.0162   22.9956  -31.5159 H   0  0  0  0  0  0  0  0  0  0  0  0
  -10.5722   21.0578  -31.7559 H   0  0  0  0  0  0  0  0  0  0  0  0
   -9.7011   18.8408  -32.5041 H   0  0  0  0  0  0  0  0  0  0  0  0
   -5.7097   20.4860  -32.7644 H   0  0  0  0  0  0  0  0  0  0  0  0
  1  2  1  0
  2  3  1  0
  3  4  2  0
  4  5  1  0
  5  6  2  0
  6  7  1  0
  7  8  2  0
  8  9  1  0
  9 10  1  0
 10 11  1  0
 11 12  1  0
 12 13  2  0
 12 14  1  0
 14 15  1  0
 15 16  1  0
 16 17  1  0
 17 18  1  0
 18 19  2  0
 19 20  1  0
 20 21  2  0
 21 22  1  0
 22 23  1  0
 22 24  2  0
  8  3  1  0
 24 18  1  0
  1 25  1  0
  1 26  1  0
  1 27  1  0
  4 28  1  0
  5 29  1  0
  6 30  1  0
  7 31  1  0
  9 32  1  0
  9 33  1  0
 10 34  1  0
 11 35  1  0
 11 36  1  0
 14 37  1  0
 15 38  1  0
 15 39  1  0
 16 40  1  0
 16 41  1  0
 17 42  1  0
 17 43  1  0
 19 44  1  0
 20 45  1  0
 21 46  1  0
 24 47  1  0
M  END
>  <UniqueID>  (2) 
2

>  <SMILES>  (2) 
COc1ccccc1CNCC(=O)NCCCc1cccc(F)c1

>  <Energy>  (2) 
38.81495804177814

>  <Genealogy>  (2) 
COc1ccccc1CNCC(=O)NCCCc1cccc(F)c1 (3D coordinates assigned)
COc1ccccc1CNCC(=O)NCCCc1cccc(F)c1 (optimized conformer: 38.81495804177814 kcal/mol)

>  <smiles>  (2) 
COc1ccccc1CNCC(=O)NCCCc1cccc(F)c1

>  <score_type>  (2) 
oracle

>  <origin>  (2) 
adg

>  <m_score__min__energy>  (2) 
-8.6199999999999992

>  <m_primary>  (2) 
energy

$$$$
2:0
     RDKit          3D

 53 52  0  0  0  0  0  0  0  0999 V2000
   -2.6880   21.4050  -30.9770 C   0  0  0  0  0  0  0  0  0  0  0  0
   -4.1730   21.3120  -30.6080 C   0  0  0  0  0  0  0  0  0  0  0  0
   -5.0560   21.4140  -31.8000 N   0  0  1  0  0  0  0  0  0  0  0  0
   -4.2940   21.7340  -33.0260 C   0  0  0  0  0  0  0  0  0  0  0  0
   -5.8940   20.2000  -31.9740 C   0  0  0  0  0  0  0  0  0  0  0  0
   -7.2290   20.4420  -32.7060 C   0  0  0  0  0  0  0  0  0  0  0  0
   -7.6820   21.7560  -32.4380 O   0  0  0  0  0  0  0  0  0  0  0  0
   -8.8630   21.7280  -31.6610 C   0  0  0  0  0  0  0  0  0  0  0  0
   -8.4990   21.9270  -30.1950 C   0  0  0  0  0  0  0  0  0  0  0  0
   -7.1960   22.4490  -30.1070 O   0  0  0  0  0  0  0  0  0  0  0  0
   -7.2630   23.7270  -30.5720 N   0  0  0  0  0  0  0  0  0  0  0  0
   -6.2190   24.5200  -29.9190 C   0  0  0  0  0  0  0  0  0  0  0  0
   -4.9770   24.6180  -30.7690 C   0  0  0  0  0  0  0  0  0  0  0  0
   -5.0070   24.1730  -31.9470 O   0  0  0  0  0  0  0  0  0  0  0  0
   -3.7730   25.2360  -30.2940 N   0  0  0  0  0  0  0  0  0  0  0  0
   -2.7520   24.5690  -29.4930 C   0  0  0  0  0  0  0  0  0  0  0  0
   -3.4120   23.7390  -28.3880 C   0  0  0  0  0  0  0  0  0  0  0  0
   -3.6140   24.5540  -27.1020 C   0  0  0  0  0  0  0  0  0  0  0  0
   -2.3580   24.6040  -26.3180 N   0  0  0  0  0  0  0  0  0  0  0  0
   -1.6560   25.8830  -26.5290 C   0  0  0  0  0  0  0  0  0  0  0  0
   -1.4730   23.4930  -26.7040 C   0  0  0  0  0  0  0  0  0  0  0  0
   -2.0837   21.4428  -30.0587 H   0  0  0  0  0  0  0  0  0  0  0  0
   -2.4012   20.5231  -31.5686 H   0  0  0  0  0  0  0  0  0  0  0  0
   -2.5135   22.3158  -31.5686 H   0  0  0  0  0  0  0  0  0  0  0  0
   -4.3553   20.3463  -30.1138 H   0  0  0  0  0  0  0  0  0  0  0  0
   -4.4083   22.1542  -29.9407 H   0  0  0  0  0  0  0  0  0  0  0  0
   -5.7290   22.2020  -31.6420 H   0  0  0  0  0  0  0  0  0  0  0  0
   -3.3122   22.1463  -32.7503 H   0  0  0  0  0  0  0  0  0  0  0  0
   -4.1537   20.8188  -33.6199 H   0  0  0  0  0  0  0  0  0  0  0  0
   -4.8492   22.4750  -33.6199 H   0  0  0  0  0  0  0  0  0  0  0  0
   -5.3152   19.4632  -32.5503 H   0  0  0  0  0  0  0  0  0  0  0  0
   -6.1513   19.8509  -30.9631 H   0  0  0  0  0  0  0  0  0  0  0  0
   -7.0810   20.3188  -33.7890 H   0  0  0  0  0  0  0  0  0  0  0  0
   -7.9774   19.7169  -32.3536 H   0  0  0  0  0  0  0  0  0  0  0  0
   -9.5371   22.5342  -31.9860 H   0  0  0  0  0  0  0  0  0  0  0  0
   -9.3687   20.7596  -31.7895 H   0  0  0  0  0  0  0  0  0  0  0  0
   -9.2082   22.6290  -29.7322 H   0  0  0  0  0  0  0  0  0  0  0  0
   -8.5460   20.9620  -29.6691 H   0  0  0  0  0  0  0  0  0  0  0  0
   -7.0750   23.6920  -31.6000 H   0  0  0  0  0  0  0  0  0  0  0  0
   -6.6048   25.5334  -29.7339 H   0  0  0  0  0  0  0  0  0  0  0  0
   -5.9499   24.0214  -28.9761 H   0  0  0  0  0  0  0  0  0  0  0  0
   -2.1568   23.9072  -30.1393 H   0  0  0  0  0  0  0  0  0  0  0  0
   -2.1005   25.3275  -29.0344 H   0  0  0  0  0  0  0  0  0  0  0  0
   -4.3918   23.3880  -28.7441 H   0  0  0  0  0  0  0  0  0  0  0  0
   -2.7484   22.8933  -28.1547 H   0  0  0  0  0  0  0  0  0  0  0  0
   -3.9172   25.5779  -27.3660 H   0  0  0  0  0  0  0  0  0  0  0  0
   -4.3944   24.0728  -26.4942 H   0  0  0  0  0  0  0  0  0  0  0  0
   -1.4100   26.3312  -25.5551 H   0  0  0  0  0  0  0  0  0  0  0  0
   -0.7298   25.7039  -27.0947 H   0  0  0  0  0  0  0  0  0  0  0  0
   -2.3044   26.5682  -27.0947 H   0  0  0  0  0  0  0  0  0  0  0  0
   -1.0831   23.0035  -25.7994 H   0  0  0  0  0  0  0  0  0  0  0  0
   -2.0398   22.7630  -27.3006 H   0  0  0  0  0  0  0  0  0  0  0  0
   -0.6348   23.8822  -27.3006 H   0  0  0  0  0  0  0  0  0  0  0  0
  1  2  1  0
  2  3  1  0
  3  4  1  0
  3  5  1  0
  5  6  1  0
  6  7  1  0
  7  8  1  0
  8  9  1  0
  9 10  1  0
 10 11  1  0
 11 12  1  0
 12 13  1  0
 13 14  2  0
 13 15  1  0
 15 16  1  0
 16 17  1  0
 17 18  1  0
 18 19  1  0
 19 20  1  0
 19 21  1  0
  1 22  1  0
  1 23  1  0
  1 24  1  0
  2 25  1  0
  2 26  1  0
  3 27  1  1
  4 28  1  0
  4 29  1  0
  4 30  1  0
  5 31  1  0
  5 32  1  0
  6 33  1  0
  6 34  1  0
  8 35  1  0
  8 36  1  0
  9 37  1  0
  9 38  1  0
 11 39  1  0
 12 40  1  0
 12 41  1  0
 16 42  1  0
 16 43  1  0
 17 44  1  0
 17 45  1  0
 18 46  1  0
 18 47  1  0
 20 48  1  0
 20 49  1  0
 20 50  1  0
 21 51  1  0
 21 52  1  0
 21 53  1  0
M  CHG  2   3   1  15  -1
M  END
>  <UniqueID>  (3) 
3

>  <SMILES>  (3) 
CC[N@@H+](C)CCOCCONCC(=O)[N-]CCCN(C)C

>  <Energy>  (3) 
40.92121449030138

>  <Genealogy>  (3) 
CC[NH+](C)CCOCCONCC(=O)[N-]CCCN(C)C (protonated)
CC[N@@H+](C)CCOCCONCC(=O)[N-]CCCN(C)C (chirality)
CC[N@@H+](C)CCOCCONCC(=O)[N-]CCCN(C)C (3D coordinates assigned)
CC[N@@H+](C)CCOCCONCC(=O)[N-]CCCN(C)C (optimized conformer: 40.92121449030138 kcal/mol)

>  <smiles>  (3) 
CCN(C)CCOCCONCC(=O)NCCCN(C)C

>  <score_type>  (3) 
oracle

>  <origin>  (3) 
adg

>  <m_score__min__energy>  (3) 
-5.2199999999999998

>  <m_primary>  (3) 
energy

$$$$
3:0
     RDKit          3D

 34 36  0  0  0  0  0  0  0  0999 V2000
   -6.4860   18.9090  -33.7880 C   0  0  0  0  0  0  0  0  0  0  0  0
   -7.1250   20.0010  -33.0530 N   0  0  0  0  0  0  0  0  0  0  0  0
   -8.4250   20.0730  -32.6690 C   0  0  0  0  0  0  0  0  0  0  0  0
   -9.3930   19.1140  -32.9630 O   0  0  0  0  0  0  0  0  0  0  0  0
   -8.6750   21.2190  -31.9260 C   0  0  0  0  0  0  0  0  0  0  0  0
   -7.4550   21.8530  -31.8390 C   0  0  0  0  0  0  0  0  0  0  0  0
   -7.1040   23.0310  -31.1850 C   0  0  0  0  0  0  0  0  0  0  0  0
   -5.7540   23.4350  -31.2310 C   0  0  0  0  0  0  0  0  0  0  0  0
   -5.2440   24.9070  -30.4110 S   0  0  0  0  0  0  0  0  0  0  0  0
   -5.8090   24.9630  -29.0180 O   0  0  0  0  0  0  0  0  0  0  0  0
   -5.7400   26.0940  -31.1880 O   0  0  0  0  0  0  0  0  0  0  0  0
   -3.5140   24.9690  -30.3230 N   0  0  0  0  0  0  0  0  0  0  0  0
   -2.7160   24.3470  -29.3050 C   0  0  0  0  0  0  0  0  0  0  0  0
   -3.1190   23.1660  -28.6540 C   0  0  0  0  0  0  0  0  0  0  0  0
   -2.3050   22.5920  -27.6720 C   0  0  0  0  0  0  0  0  0  0  0  0
   -1.0880   23.1900  -27.3320 C   0  0  0  0  0  0  0  0  0  0  0  0
   -0.6850   24.3640  -27.9720 C   0  0  0  0  0  0  0  0  0  0  0  0
   -1.4960   24.9410  -28.9550 C   0  0  0  0  0  0  0  0  0  0  0  0
   -4.8050   22.6540  -31.9290 C   0  0  0  0  0  0  0  0  0  0  0  0
   -5.1880   21.4670  -32.5780 C   0  0  0  0  0  0  0  0  0  0  0  0
   -6.5350   21.0920  -32.5180 C   0  0  0  0  0  0  0  0  0  0  0  0
   -6.0628   18.1857  -33.0754 H   0  0  0  0  0  0  0  0  0  0  0  0
   -7.2326   18.4066  -34.4206 H   0  0  0  0  0  0  0  0  0  0  0  0
   -5.6822   19.3138  -34.4206 H   0  0  0  0  0  0  0  0  0  0  0  0
   -9.8430   19.0670  -33.8690 H   0  0  0  0  0  0  0  0  0  0  0  0
   -9.6348   21.5479  -31.5009 H   0  0  0  0  0  0  0  0  0  0  0  0
   -7.8566   23.6279  -30.6491 H   0  0  0  0  0  0  0  0  0  0  0  0
   -4.0765   22.6933  -28.9181 H   0  0  0  0  0  0  0  0  0  0  0  0
   -2.6230   21.6683  -27.1663 H   0  0  0  0  0  0  0  0  0  0  0  0
   -0.4482   22.7361  -26.5608 H   0  0  0  0  0  0  0  0  0  0  0  0
    0.2716   24.8357  -27.7027 H   0  0  0  0  0  0  0  0  0  0  0  0
   -1.1743   25.8660  -29.4559 H   0  0  0  0  0  0  0  0  0  0  0  0
   -3.7546   22.9786  -31.9649 H   0  0  0  0  0  0  0  0  0  0  0  0
   -4.4517   20.8521  -33.1163 H   0  0  0  0  0  0  0  0  0  0  0  0
  1  2  1  0
  2  3  1  0
  3  4  1  0
  3  5  2  0
  5  6  1  0
  6  7  2  0
  7  8  1  0
  8  9  1  0
  9 10  2  0
  9 11  2  0
  9 12  1  0
 12 13  1  0
 13 14  2  0
 14 15  1  0
 15 16  2  0
 16 17  1  0
 17 18  2  0
  8 19  2  0
 19 20  1  0
 20 21  2  0
 21  2  1  0
 21  6  1  0
 18 13  1  0
  1 22  1  0
  1 23  1  0
  1 24  1  0
  4 25  1  0
  5 26  1  0
  7 27  1  0
 14 28  1  0
 15 29  1  0
 16 30  1  0
 17 31  1  0
 18 32  1  0
 19 33  1  0
 20 34  1  0
M  CHG  1  12  -1
M  END
>  <UniqueID>  (4) 
4

>  <SMILES>  (4) 
Cn1c(O)cc2cc(S(=O)(=O)[N-]c3ccccc3)ccc21

>  <Energy>  (4) 
73.50272258392673

>  <Genealogy>  (4) 
Cn1c(O)cc2cc(S(=O)(=O)[N-]c3ccccc3)ccc21 (protonated)
Cn1c(O)cc2cc(S(=O)(=O)[N-]c3ccccc3)ccc21 (3D coordinates assigned)
Cn1c(O)cc2cc(S(=O)(=O)[N-]c3ccccc3)ccc21 (optimized conformer: 73.50272258392673 kcal/mol)

>  <smiles>  (4) 
Cn1c(O)cc2cc(S(=O)(=O)Nc3ccccc3)ccc21

>  <score_type>  (4) 
oracle

>  <origin>  (4) 
adg

>  <m_score__min__energy>  (4) 
-9.4800000000000004

>  <m_primary>  (4) 
energy

$$$$
4:0
     RDKit          3D

 48 51  0  0  1  0  0  0  0  0999 V2000
   -6.0010   17.8560  -34.2180 C   0  0  0  0  0  0  0  0  0  0  0  0
   -6.8820   17.2980  -33.1110 C   0  0  0  0  0  0  0  0  0  0  0  0
   -7.0730   18.2090  -32.0220 N   0  0  0  0  0  0  0  0  0  0  0  0
   -8.4240   18.7070  -31.8860 C   0  0  0  0  0  0  0  0  0  0  0  0
   -8.6380   19.9620  -32.7050 C   0  0  0  0  0  0  0  0  0  0  0  0
   -7.4330   20.4200  -33.2910 O   0  0  0  0  0  0  0  0  0  0  0  0
   -6.7070   21.3810  -32.6060 C   0  0  0  0  0  0  0  0  0  0  0  0
   -5.3620   21.3290  -32.6540 C   0  0  0  0  0  0  0  0  0  0  0  0
   -4.6560   22.3210  -31.9420 C   0  0  0  0  0  0  0  0  0  0  0  0
   -5.3700   23.2570  -31.2580 C   0  0  0  0  0  0  0  0  0  0  0  0
   -4.7220   24.2360  -30.5580 C   0  0  0  0  0  0  0  0  0  0  0  0
   -3.4890   24.2480  -30.4570 N   0  0  0  0  0  0  0  0  0  0  0  0
   -2.5490   23.8010  -29.5630 C   0  0  0  0  0  0  0  0  0  0  0  0
   -2.8710   22.6640  -28.7830 C   0  0  0  0  0  0  0  0  0  0  0  0
   -1.9930   22.2320  -27.7890 C   0  0  0  0  0  0  0  0  0  0  0  0
   -0.8490   22.9610  -27.6350 C   0  0  0  0  0  0  0  0  0  0  0  0
    0.5500   22.7130  -26.4290 S   0  0  0  0  0  0  0  0  0  0  0  0
    1.4350   24.2560  -27.1740 C   0  0  0  0  0  0  0  0  0  0  0  0
    2.7630   24.6220  -26.5540 C   0  0  0  0  0  0  0  0  0  0  0  0
    0.7010   24.5630  -27.9630 N   0  0  0  0  0  0  0  0  0  0  0  0
   -0.4730   24.0680  -28.3500 C   0  0  0  0  0  0  0  0  0  0  0  0
   -1.3430   24.4910  -29.3320 C   0  0  0  0  0  0  0  0  0  0  0  0
   -5.4300   25.1870  -29.8760 N   0  0  0  0  0  0  0  0  0  0  0  0
   -6.7780   25.1930  -29.8670 C   0  0  0  0  0  0  0  0  0  0  0  0
   -7.4230   24.2340  -30.5480 N   0  0  0  0  0  0  0  0  0  0  0  0
   -6.7310   23.2790  -31.2330 C   0  0  0  0  0  0  0  0  0  0  0  0
   -7.4290   22.3280  -31.9150 C   0  0  0  0  0  0  0  0  0  0  0  0
   -5.1509   18.3944  -33.7738 H   0  0  0  0  0  0  0  0  0  0  0  0
   -5.6269   17.0298  -34.8405 H   0  0  0  0  0  0  0  0  0  0  0  0
   -6.5880   18.5473  -34.8405 H   0  0  0  0  0  0  0  0  0  0  0  0
   -7.8659   17.0539  -33.5381 H   0  0  0  0  0  0  0  0  0  0  0  0
   -6.3725   16.4109  -32.7067 H   0  0  0  0  0  0  0  0  0  0  0  0
   -6.4250   19.0360  -32.1120 H   0  0  0  0  0  0  0  0  0  0  0  0
   -9.1264   17.9328  -32.2283 H   0  0  0  0  0  0  0  0  0  0  0  0
   -8.5965   18.9521  -30.8276 H   0  0  0  0  0  0  0  0  0  0  0  0
   -9.3628   19.7464  -33.5038 H   0  0  0  0  0  0  0  0  0  0  0  0
   -9.0119   20.7488  -32.0333 H   0  0  0  0  0  0  0  0  0  0  0  0
   -4.8374   20.5475  -33.2233 H   0  0  0  0  0  0  0  0  0  0  0  0
   -3.5561   22.3380  -31.9394 H   0  0  0  0  0  0  0  0  0  0  0  0
   -3.8118   22.1224  -28.9606 H   0  0  0  0  0  0  0  0  0  0  0  0
   -2.2102   21.3531  -27.1642 H   0  0  0  0  0  0  0  0  0  0  0  0
    2.6750   24.5977  -25.4578 H   0  0  0  0  0  0  0  0  0  0  0  0
    3.5292   23.9015  -26.8764 H   0  0  0  0  0  0  0  0  0  0  0  0
    3.0519   25.6332  -26.8764 H   0  0  0  0  0  0  0  0  0  0  0  0
   -1.0937   25.3735  -29.9394 H   0  0  0  0  0  0  0  0  0  0  0  0
   -4.9610   25.9370  -29.3430 H   0  0  0  0  0  0  0  0  0  0  0  0
   -7.3349   25.9647  -29.3153 H   0  0  0  0  0  0  0  0  0  0  0  0
   -8.5289   22.3173  -31.9135 H   0  0  0  0  0  0  0  0  0  0  0  0
  1  2  1  0
  2  3  1  0
  3  4  1  0
  4  5  1  0
  5  6  1  0
  6  7  1  0
  7  8  2  0
  8  9  1  0
  9 10  2  0
 10 11  1  0
 11 12  2  0
 12 13  1  0
 13 14  2  0
 14 15  1  0
 15 16  2  0
 16 17  1  0
 17 18  1  0
 18 19  1  0
 18 20  2  0
 20 21  1  0
 21 22  2  0
 11 23  1  0
 23 24  1  0
 24 25  2  0
 25 26  1  0
 26 27  2  0
 27  7  1  0
 26 10  1  0
 22 13  1  0
 21 16  1  0
  1 28  1  0
  1 29  1  0
  1 30  1  0
  2 31  1  0
  2 32  1  0
  3 33  1  0
  4 34  1  0
  4 35  1  0
  5 36  1  0
  5 37  1  0
  8 38  1  0
  9 39  1  0
 14 40  1  0
 15 41  1  0
 19 42  1  0
 19 43  1  0
 19 44  1  0
 22 45  1  0
 23 46  1  0
 24 47  1  0
 27 48  1  0
M  END
>  <smiles>  (5) 
CCNCCOc1ccc2c(=Nc3ccc4sc(C)nc4c3)[nH]cnc2c1

>  <score_type>  (5) 
oracle

>  <origin>  (5) 
adg

>  <m_score__min__energy>  (5) 
-8.9600000000000009

>  <m_primary>  (5) 
energy

$$$$
5:0
     RDKit          3D

 54 56  0  0  0  0  0  0  0  0999 V2000
   -3.0440   25.2510  -26.3020 C   0  0  0  0  0  0  0  0  0  0  0  0
   -3.6260   24.1170  -27.1500 C   0  0  0  0  0  0  0  0  0  0  0  0
   -4.6550   24.5870  -28.0930 N   0  0  0  0  0  0  0  0  0  0  0  0
   -4.3870   24.1490  -29.4720 C   0  0  0  0  0  0  0  0  0  0  0  0
   -5.1200   25.0410  -30.4820 C   0  0  0  0  0  0  0  0  0  0  0  0
   -6.4750   24.4280  -30.8770 C   0  0  0  0  0  0  0  0  0  0  0  0
   -6.4010   22.9000  -31.0180 C   0  0  0  0  0  0  0  0  0  0  0  0
   -5.9460   22.5150  -32.3570 N   0  0  0  0  0  0  0  0  0  0  0  0
   -5.7030   21.1430  -32.7160 C   0  0  0  0  0  0  0  0  0  0  0  0
   -6.7640   20.2200  -32.7110 C   0  0  0  0  0  0  0  0  0  0  0  0
   -6.4920   18.8540  -32.9560 C   0  0  0  0  0  0  0  0  0  0  0  0
   -5.2410   18.4550  -33.3870 N   0  0  0  0  0  0  0  0  0  0  0  0
   -5.0390   17.0750  -33.8810 C   0  0  0  0  0  0  0  0  0  0  0  0
   -4.1830   19.3450  -33.3700 C   0  0  0  0  0  0  0  0  0  0  0  0
   -2.8550   18.9330  -33.6650 C   0  0  0  0  0  0  0  0  0  0  0  0
   -1.8090   19.8550  -33.7190 C   0  0  0  0  0  0  0  0  0  0  0  0
   -2.0520   21.2010  -33.4700 C   0  0  0  0  0  0  0  0  0  0  0  0
   -3.3370   21.6300  -33.1350 C   0  0  0  0  0  0  0  0  0  0  0  0
   -4.4070   20.7130  -33.0550 C   0  0  0  0  0  0  0  0  0  0  0  0
   -7.6000   17.8460  -32.7170 C   0  0  0  0  0  0  0  0  0  0  0  0
   -8.5540   18.3320  -31.6260 C   0  0  0  0  0  0  0  0  0  0  0  0
   -9.2130   19.6380  -32.0550 C   0  0  0  0  0  0  0  0  0  0  0  0
   -8.1930   20.7080  -32.5000 C   0  0  0  0  0  0  0  0  0  0  0  0
   -3.1669   25.0115  -25.2354 H   0  0  0  0  0  0  0  0  0  0  0  0
   -1.9744   25.3680  -26.5306 H   0  0  0  0  0  0  0  0  0  0  0  0
   -3.5725   26.1882  -26.5306 H   0  0  0  0  0  0  0  0  0  0  0  0
   -2.8105   23.6503  -27.7220 H   0  0  0  0  0  0  0  0  0  0  0  0
   -4.1031   23.3999  -26.4658 H   0  0  0  0  0  0  0  0  0  0  0  0
   -4.6530   25.6360  -28.0670 H   0  0  0  0  0  0  0  0  0  0  0  0
   -5.5990   24.2510  -27.7880 H   0  0  0  0  0  0  0  0  0  0  0  0
   -3.3050   24.2025  -29.6630 H   0  0  0  0  0  0  0  0  0  0  0  0
   -4.7472   23.1163  -29.5890 H   0  0  0  0  0  0  0  0  0  0  0  0
   -5.2902   26.0300  -30.0315 H   0  0  0  0  0  0  0  0  0  0  0  0
   -4.4992   25.1310  -31.3856 H   0  0  0  0  0  0  0  0  0  0  0  0
   -7.2157   24.6770  -30.1028 H   0  0  0  0  0  0  0  0  0  0  0  0
   -6.7622   24.8440  -31.8540 H   0  0  0  0  0  0  0  0  0  0  0  0
   -5.6967   22.5040  -30.2716 H   0  0  0  0  0  0  0  0  0  0  0  0
   -7.4072   22.4853  -30.8583 H   0  0  0  0  0  0  0  0  0  0  0  0
   -6.0260   23.2220  -33.1240 H   0  0  0  0  0  0  0  0  0  0  0  0
   -4.9388   16.3904  -33.0258 H   0  0  0  0  0  0  0  0  0  0  0  0
   -5.9027   16.7742  -34.4922 H   0  0  0  0  0  0  0  0  0  0  0  0
   -4.1253   17.0344  -34.4922 H   0  0  0  0  0  0  0  0  0  0  0  0
   -2.6483   17.8692  -33.8539 H   0  0  0  0  0  0  0  0  0  0  0  0
   -0.7904   19.5162  -33.9590 H   0  0  0  0  0  0  0  0  0  0  0  0
   -1.2301   21.9290  -33.5372 H   0  0  0  0  0  0  0  0  0  0  0  0
   -3.5182   22.6956  -32.9308 H   0  0  0  0  0  0  0  0  0  0  0  0
   -8.1638   17.7025  -33.6506 H   0  0  0  0  0  0  0  0  0  0  0  0
   -7.1479   16.8976  -32.3914 H   0  0  0  0  0  0  0  0  0  0  0  0
   -9.3299   17.5713  -31.4549 H   0  0  0  0  0  0  0  0  0  0  0  0
   -7.9868   18.5008  -30.6987 H   0  0  0  0  0  0  0  0  0  0  0  0
   -9.8917   19.4292  -32.8951 H   0  0  0  0  0  0  0  0  0  0  0  0
   -9.7516   20.0378  -31.1832 H   0  0  0  0  0  0  0  0  0  0  0  0
   -8.5465   21.1360  -33.4497 H   0  0  0  0  0  0  0  0  0  0  0  0
   -8.1411   21.4314  -31.6729 H   0  0  0  0  0  0  0  0  0  0  0  0
  1  2  1  0
  2  3  1  0
  3  4  1  0
  4  5  1  0
  5  6  1  0
  6  7  1  0
  7  8  1  0
  8  9  1  0
  9 10  2  0
 10 11  1  0
 11 12  2  0
 12 13  1  0
 12 14  1  0
 14 15  2  0
 15 16  1  0
 16 17  2  0
 17 18  1  0
 18 19  2  0
 11 20  1  0
 20 21  1  0
 21 22  1  0
 22 23  1  0
 19  9  1  0
 23 10  1  0
 19 14  1  0
  1 24  1  0
  1 25  1  0
  1 26  1  0
  2 27  1  0
  2 28  1  0
  3 29  1  0
  3 30  1  0
  4 31  1  0
  4 32  1  0
  5 33  1  0
  5 34  1  0
  6 35  1  0
  6 36  1  0
  7 37  1  0
  7 38  1  0
  8 39  1  0
 13 40  1  0
 13 41  1  0
 13 42  1  0
 15 43  1  0
 16 44  1  0
 17 45  1  0
 18 46  1  0
 20 47  1  0
 20 48  1  0
 21 49  1  0
 21 50  1  0
 22 51  1  0
 22 52  1  0
 23 53  1  0
 23 54  1  0
M  CHG  2   3   1  12   1
M  END
>  <UniqueID>  (6) 
5

>  <SMILES>  (6) 
CC[NH2+]CCCCNc1c2c([n+](C)c3ccccc13)CCCC2

>  <Energy>  (6) 
69.61118649545537

>  <Genealogy>  (6) 
CC[NH2+]CCCCNc1c2c([n+](C)c3ccccc13)CCCC2 (protonated)
CC[NH2+]CCCCNc1c2c([n+](C)c3ccccc13)CCCC2 (3D coordinates assigned)
CC[NH2+]CCCCNc1c2c([n+](C)c3ccccc13)CCCC2 (nonaromatic ring conformer: 69.61118649545537 kcal/mol)

>  <smiles>  (6) 
CCNCCCCNc1c2c([n+](C)c3ccccc13)CCCC2

>  <score_type>  (6) 
oracle

>  <origin>  (6) 
adg

>  <m_score__min__energy>  (6) 
-8

>  <m_primary>  (6) 
energy

$$$$
6:0
     RDKit          3D

 43 44  0  0  0  0  0  0  0  0999 V2000
   -9.4860   21.8660  -31.6500 C   0  0  0  0  0  0  0  0  0  0  0  0
   -8.6810   20.7220  -32.2680 C   0  0  0  0  0  0  0  0  0  0  0  0
   -9.0870   19.3430  -31.7210 C   0  0  0  0  0  0  0  0  0  0  0  0
   -8.2640   18.1830  -32.3020 C   0  0  0  0  0  0  0  0  0  0  0  0
   -6.9350   18.1980  -31.8090 O   0  0  0  0  0  0  0  0  0  0  0  0
   -6.1530   17.1740  -32.3940 C   0  0  0  0  0  0  0  0  0  0  0  0
   -6.4130   17.1060  -33.9030 C   0  0  0  0  0  0  0  0  0  0  0  0
   -5.7950   18.3080  -34.6240 C   0  0  0  0  0  0  0  0  0  0  0  0
   -5.7160   19.4580  -33.7260 N   0  0  0  0  0  0  0  0  0  0  0  0
   -4.4710   20.0990  -33.4020 C   0  0  0  0  0  0  0  0  0  0  0  0
   -3.3940   19.6500  -33.8800 O   0  0  0  0  0  0  0  0  0  0  0  0
   -4.4420   21.2750  -32.5050 C   0  0  0  0  0  0  0  0  0  0  0  0
   -3.2420   21.6990  -31.9070 C   0  0  0  0  0  0  0  0  0  0  0  0
   -3.2440   22.8120  -31.0630 C   0  0  0  0  0  0  0  0  0  0  0  0
   -4.4410   23.4960  -30.8130 C   0  0  0  0  0  0  0  0  0  0  0  0
   -4.4790   24.6140  -29.9670 C   0  0  0  0  0  0  0  0  0  0  0  0
   -5.6910   25.2700  -29.7330 C   0  0  0  0  0  0  0  0  0  0  0  0
   -6.8670   24.8180  -30.3440 C   0  0  0  0  0  0  0  0  0  0  0  0
   -6.8370   23.7050  -31.1900 C   0  0  0  0  0  0  0  0  0  0  0  0
   -5.6280   23.0410  -31.4290 C   0  0  0  0  0  0  0  0  0  0  0  0
   -5.5940   21.9570  -32.2480 N   0  0  0  0  0  0  0  0  0  0  0  0
   -9.4378   21.7975  -30.5532 H   0  0  0  0  0  0  0  0  0  0  0  0
   -9.0651   22.8285  -31.9761 H   0  0  0  0  0  0  0  0  0  0  0  0
  -10.5341   21.7948  -31.9761 H   0  0  0  0  0  0  0  0  0  0  0  0
   -8.8396   20.7288  -33.3565 H   0  0  0  0  0  0  0  0  0  0  0  0
   -7.6243   20.8830  -32.0082 H   0  0  0  0  0  0  0  0  0  0  0  0
   -8.9553   19.3498  -30.6289 H   0  0  0  0  0  0  0  0  0  0  0  0
  -10.1333   19.1749  -32.0158 H   0  0  0  0  0  0  0  0  0  0  0  0
   -8.7393   17.2311  -32.0227 H   0  0  0  0  0  0  0  0  0  0  0  0
   -8.2303   18.2944  -33.3958 H   0  0  0  0  0  0  0  0  0  0  0  0
   -5.0878   17.3848  -32.2180 H   0  0  0  0  0  0  0  0  0  0  0  0
   -6.4253   16.2102  -31.9391 H   0  0  0  0  0  0  0  0  0  0  0  0
   -5.9709   16.1813  -34.3024 H   0  0  0  0  0  0  0  0  0  0  0  0
   -7.5000   17.1189  -34.0711 H   0  0  0  0  0  0  0  0  0  0  0  0
   -4.7828   18.0446  -34.9648 H   0  0  0  0  0  0  0  0  0  0  0  0
   -6.4282   18.5711  -35.4842 H   0  0  0  0  0  0  0  0  0  0  0  0
   -6.5980   19.7800  -33.2680 H   0  0  0  0  0  0  0  0  0  0  0  0
   -2.3055   21.1564  -32.1031 H   0  0  0  0  0  0  0  0  0  0  0  0
   -2.3077   23.1508  -30.5955 H   0  0  0  0  0  0  0  0  0  0  0  0
   -3.5564   24.9741  -29.4883 H   0  0  0  0  0  0  0  0  0  0  0  0
   -5.7210   26.1445  -29.0664 H   0  0  0  0  0  0  0  0  0  0  0  0
   -7.8172   25.3400  -30.1580 H   0  0  0  0  0  0  0  0  0  0  0  0
   -7.7628   23.3515  -31.6674 H   0  0  0  0  0  0  0  0  0  0  0  0
  1  2  1  0
  2  3  1  0
  3  4  1  0
  4  5  1  0
  5  6  1  0
  6  7  1  0
  7  8  1  0
  8  9  1  0
  9 10  1  0
 10 11  2  0
 10 12  1  0
 12 13  2  0
 13 14  1  0
 14 15  2  0
 15 16  1  0
 16 17  2  0
 17 18  1  0
 18 19  2  0
 19 20  1  0
 20 21  2  0
 21 12  1  0
 20 15  1  0
  1 22  1  0
  1 23  1  0
  1 24  1  0
  2 25  1  0
  2 26  1  0
  3 27  1  0
  3 28  1  0
  4 29  1  0
  4 30  1  0
  6 31  1  0
  6 32  1  0
  7 33  1  0
  7 34  1  0
  8 35  1  0
  8 36  1  0
  9 37  1  0
 13 38  1  0
 14 39  1  0
 16 40  1  0
 17 41  1  0
 18 42  1  0
 19 43  1  0
M  END
>  <UniqueID>  (7) 
6

>  <SMILES>  (7) 
CCCCOCCCNC(=O)c1ccc2ccccc2n1

>  <Energy>  (7) 
37.63464551947805

>  <Genealogy>  (7) 
CCCCOCCCNC(=O)c1ccc2ccccc2n1 (3D coordinates assigned)
CCCCOCCCNC(=O)c1ccc2ccccc2n1 (optimized conformer: 37.63464551947805 kcal/mol)

>  <smiles>  (7) 
CCCCOCCCNC(=O)c1ccc2ccccc2n1

>  <score_type>  (7) 
oracle

>  <origin>  (7) 
adg

>  <m_score__min__energy>  (7) 
-7.7199999999999998

>  <m_primary>  (7) 
energy

$$$$
7:0
     RDKit          3D

102107  0  0  0  0  0  0  0  0999 V2000
    1.9990   20.6990  -34.2470 C   0  0  0  0  0  0  0  0  0  0  0  0
    0.8980   21.5140  -34.9350 C   0  0  0  0  0  0  0  0  0  0  0  0
   -0.1040   20.6120  -35.6900 C   0  0  0  0  0  0  0  0  0  0  0  0
    0.2320   19.1220  -35.5530 C   0  0  0  0  0  0  0  0  0  0  0  0
   -0.8190   18.3370  -34.7140 C   0  0  0  0  0  0  0  0  0  0  0  0
   -0.5440   16.8370  -34.4860 N   0  0  1  0  0  0  0  0  0  0  0  0
    0.3060   16.2430  -35.5760 C   0  0  0  0  0  0  0  0  0  0  0  0
    0.2260   16.7280  -33.2470 C   0  0  0  0  0  0  0  0  0  0  0  0
    1.4190   17.4090  -32.9620 C   0  0  0  0  0  0  0  0  0  0  0  0
    2.0120   17.2350  -31.7110 C   0  0  0  0  0  0  0  0  0  0  0  0
    1.4740   16.3120  -30.7990 C   0  0  0  0  0  0  0  0  0  0  0  0
    0.3490   15.5410  -31.1420 C   0  0  0  0  0  0  0  0  0  0  0  0
   -0.2620   15.7980  -32.3580 C   0  0  0  0  0  0  0  0  0  0  0  0
   -1.4330   15.2420  -32.9070 C   0  0  0  0  0  0  0  0  0  0  0  0
   -2.2400   14.4450  -32.3160 N   0  0  0  0  0  0  0  0  0  0  0  0
   -3.4340   13.9680  -33.0160 C   0  0  0  0  0  0  0  0  0  0  0  0
   -3.9560   14.9410  -34.1340 C   0  0  0  0  0  0  0  0  0  0  0  0
   -3.1660   16.2390  -34.3070 N   0  0  1  0  0  0  0  0  0  0  0  0
   -3.5160   16.6680  -35.7170 C   0  0  0  0  0  0  0  0  0  0  0  0
   -3.6040   17.2990  -33.3090 C   0  0  0  0  0  0  0  0  0  0  0  0
   -4.8580   18.1410  -33.6830 C   0  0  0  0  0  0  0  0  0  0  0  0
   -5.3870   18.6980  -32.4900 O   0  0  0  0  0  0  0  0  0  0  0  0
   -6.6500   19.2960  -32.3800 C   0  0  0  0  0  0  0  0  0  0  0  0
   -7.8120   18.5410  -32.1500 C   0  0  0  0  0  0  0  0  0  0  0  0
   -9.0410   19.1510  -31.9140 C   0  0  0  0  0  0  0  0  0  0  0  0
   -9.1610   20.5160  -32.0280 C   0  0  0  0  0  0  0  0  0  0  0  0
   -8.0250   21.3350  -32.2140 C   0  0  0  0  0  0  0  0  0  0  0  0
   -6.7480   20.7080  -32.3510 C   0  0  0  0  0  0  0  0  0  0  0  0
   -5.5940   21.5270  -32.2040 C   0  0  0  0  0  0  0  0  0  0  0  0
   -4.2690   20.9610  -32.2780 N   0  0  0  0  0  0  0  0  0  0  0  0
   -3.2060   21.5470  -33.1020 C   0  0  0  0  0  0  0  0  0  0  0  0
   -1.8710   20.8470  -32.8870 C   0  0  0  0  0  0  0  0  0  0  0  0
   -1.0630   21.3390  -31.7190 N   0  0  0  0  0  0  0  0  0  0  0  0
    0.0240   20.3760  -31.3650 C   0  0  0  0  0  0  0  0  0  0  0  0
   -0.4710   19.2700  -30.4340 C   0  0  0  0  0  0  0  0  0  0  0  0
   -1.8290   21.6310  -30.4580 C   0  0  0  0  0  0  0  0  0  0  0  0
   -1.3540   22.9060  -29.7020 C   0  0  0  0  0  0  0  0  0  0  0  0
   -5.7310   22.7480  -31.5210 C   0  0  0  0  0  0  0  0  0  0  0  0
   -4.6450   23.3790  -30.8750 C   0  0  0  0  0  0  0  0  0  0  0  0
   -4.9040   24.4000  -29.9610 C   0  0  0  0  0  0  0  0  0  0  0  0
   -6.2000   24.8970  -29.7880 C   0  0  0  0  0  0  0  0  0  0  0  0
   -7.2180   24.4320  -30.5620 C   0  0  0  0  0  0  0  0  0  0  0  0
   -7.0310   23.3250  -31.4090 C   0  0  0  0  0  0  0  0  0  0  0  0
   -8.0940   22.6950  -31.9990 N   0  0  0  0  0  0  0  0  0  0  0  0
   -9.3310   23.4360  -32.3420 C   0  0  0  0  0  0  0  0  0  0  0  0
   -1.7010   15.8560  -34.2440 C   0  0  1  0  0  0  0  0  0  0  0  0
    1.8882   20.7810  -33.1557 H   0  0  0  0  0  0  0  0  0  0  0  0
    1.9151   19.6437  -34.5458 H   0  0  0  0  0  0  0  0  0  0  0  0
    2.9838   21.0875  -34.5458 H   0  0  0  0  0  0  0  0  0  0  0  0
    0.3529   22.0894  -34.1723 H   0  0  0  0  0  0  0  0  0  0  0  0
    1.3762   22.1792  -35.6691 H   0  0  0  0  0  0  0  0  0  0  0  0
   -1.1113   20.7857  -35.2836 H   0  0  0  0  0  0  0  0  0  0  0  0
   -0.0497   20.8711  -36.7577 H   0  0  0  0  0  0  0  0  0  0  0  0
    0.2794   18.6792  -36.5588 H   0  0  0  0  0  0  0  0  0  0  0  0
    1.1952   19.0485  -35.0268 H   0  0  0  0  0  0  0  0  0  0  0  0
   -0.8835   18.8177  -33.7267 H   0  0  0  0  0  0  0  0  0  0  0  0
   -1.7460   18.3739  -35.3050 H   0  0  0  0  0  0  0  0  0  0  0  0
    1.1291   15.6678  -35.1268 H   0  0  0  0  0  0  0  0  0  0  0  0
   -0.3093   15.5772  -36.1991 H   0  0  0  0  0  0  0  0  0  0  0  0
    0.7197   17.0496  -36.1991 H   0  0  0  0  0  0  0  0  0  0  0  0
    1.8791   18.0690  -33.7121 H   0  0  0  0  0  0  0  0  0  0  0  0
    2.9019   17.8214  -31.4386 H   0  0  0  0  0  0  0  0  0  0  0  0
    1.9365   16.1913  -29.8083 H   0  0  0  0  0  0  0  0  0  0  0  0
   -0.0327   14.7604  -30.4675 H   0  0  0  0  0  0  0  0  0  0  0  0
   -3.1968   13.0009  -33.4834 H   0  0  0  0  0  0  0  0  0  0  0  0
   -4.2330   13.8927  -32.2637 H   0  0  0  0  0  0  0  0  0  0  0  0
   -3.9305   14.4000  -35.0914 H   0  0  0  0  0  0  0  0  0  0  0  0
   -4.9653   15.2446  -33.8191 H   0  0  0  0  0  0  0  0  0  0  0  0
   -4.2110   17.5198  -35.6792 H   0  0  0  0  0  0  0  0  0  0  0  0
   -2.5997   16.9656  -36.2478 H   0  0  0  0  0  0  0  0  0  0  0  0
   -3.9915   15.8301  -36.2478 H   0  0  0  0  0  0  0  0  0  0  0  0
   -3.8163   16.7914  -32.3565 H   0  0  0  0  0  0  0  0  0  0  0  0
   -2.7741   18.0201  -33.2730 H   0  0  0  0  0  0  0  0  0  0  0  0
   -4.5732   18.9463  -34.3761 H   0  0  0  0  0  0  0  0  0  0  0  0
   -5.6107   17.5063  -34.1736 H   0  0  0  0  0  0  0  0  0  0  0  0
   -7.7495   17.4428  -32.1565 H   0  0  0  0  0  0  0  0  0  0  0  0
   -9.9143   18.5422  -31.6369 H   0  0  0  0  0  0  0  0  0  0  0  0
  -10.1578   20.9779  -31.9735 H   0  0  0  0  0  0  0  0  0  0  0  0
   -4.2160   19.9410  -32.0170 H   0  0  0  0  0  0  0  0  0  0  0  0
   -3.4876   21.4584  -34.1617 H   0  0  0  0  0  0  0  0  0  0  0  0
   -3.0896   22.6011  -32.8098 H   0  0  0  0  0  0  0  0  0  0  0  0
   -2.0706   19.7762  -32.7339 H   0  0  0  0  0  0  0  0  0  0  0  0
   -1.2695   21.0624  -33.7824 H   0  0  0  0  0  0  0  0  0  0  0  0
   -0.5850   22.2520  -32.0350 H   0  0  0  0  0  0  0  0  0  0  0  0
    0.4069   19.9176  -32.2887 H   0  0  0  0  0  0  0  0  0  0  0  0
    0.8138   20.9335  -30.8401 H   0  0  0  0  0  0  0  0  0  0  0  0
   -0.3317   19.5813  -29.3882 H   0  0  0  0  0  0  0  0  0  0  0  0
   -1.5386   19.0831  -30.6218 H   0  0  0  0  0  0  0  0  0  0  0  0
    0.1009   18.3493  -30.6218 H   0  0  0  0  0  0  0  0  0  0  0  0
   -2.8892   21.7611  -30.7210 H   0  0  0  0  0  0  0  0  0  0  0  0
   -1.6582   20.7809  -29.7811 H   0  0  0  0  0  0  0  0  0  0  0  0
   -1.4180   22.7343  -28.6174 H   0  0  0  0  0  0  0  0  0  0  0  0
   -0.3125   23.1288  -29.9772 H   0  0  0  0  0  0  0  0  0  0  0  0
   -1.9958   23.7559  -29.9772 H   0  0  0  0  0  0  0  0  0  0  0  0
   -3.6113   23.0700  -31.0894 H   0  0  0  0  0  0  0  0  0  0  0  0
   -4.0781   24.8201  -29.3682 H   0  0  0  0  0  0  0  0  0  0  0  0
   -6.3965   25.6648  -29.0252 H   0  0  0  0  0  0  0  0  0  0  0  0
   -8.1991   24.9280  -30.5247 H   0  0  0  0  0  0  0  0  0  0  0  0
   -9.8429   23.7426  -31.4179 H   0  0  0  0  0  0  0  0  0  0  0  0
   -9.0725   24.3281  -32.9313 H   0  0  0  0  0  0  0  0  0  0  0  0
   -9.9956   22.7872  -32.9313 H   0  0  0  0  0  0  0  0  0  0  0  0
   -1.6565   15.2307  -35.1479 H   0  0  0  0  0  0  0  0  0  0  0  0
  1  2  1  0
  2  3  1  0
  3  4  1  0
  4  5  1  0
  6  5  1  6
  6  7  1  0
  6  8  1  0
  8  9  2  0
  9 10  1  0
 10 11  2  0
 11 12  1  0
 12 13  2  0
 13 14  1  0
 14 15  2  0
 15 16  1  0
 16 17  1  0
 17 18  1  0
 18 19  1  6
 18 20  1  0
 20 21  1  0
 21 22  1  0
 22 23  1  0
 23 24  2  0
 24 25  1  0
 25 26  2  0
 26 27  1  0
 27 28  2  0
 28 29  1  0
 29 30  1  0
 30 31  1  0
 31 32  1  0
 32 33  1  0
 33 34  1  0
 34 35  1  0
 33 36  1  0
 36 37  1  0
 29 38  2  0
 38 39  1  0
 39 40  2  0
 40 41  1  0
 41 42  2  0
 42 43  1  0
 43 44  2  0
 44 45  1  0
 18 46  1  0
 46  6  1  0
 13  8  1  0
 46 14  1  0
 28 23  1  0
 43 38  1  0
 44 27  1  0
  1 47  1  0
  1 48  1  0
  1 49  1  0
  2 50  1  0
  2 51  1  0
  3 52  1  0
  3 53  1  0
  4 54  1  0
  4 55  1  0
  5 56  1  0
  5 57  1  0
  7 58  1  0
  7 59  1  0
  7 60  1  0
  9 61  1  0
 10 62  1  0
 11 63  1  0
 12 64  1  0
 16 65  1  0
 16 66  1  0
 17 67  1  0
 17 68  1  0
 19 69  1  0
 19 70  1  0
 19 71  1  0
 20 72  1  0
 20 73  1  0
 21 74  1  0
 21 75  1  0
 24 76  1  0
 25 77  1  0
 26 78  1  0
 30 79  1  0
 31 80  1  0
 31 81  1  0
 32 82  1  0
 32 83  1  0
 33 84  1  0
 34 85  1  0
 34 86  1  0
 35 87  1  0
 35 88  1  0
 35 89  1  0
 36 90  1  0
 36 91  1  0
 37 92  1  0
 37 93  1  0
 37 94  1  0
 39 95  1  0
 40 96  1  0
 41 97  1  0
 42 98  1  0
 45 99  1  0
 45100  1  0
 45101  1  0
 46102  1  6
M  CHG  4   6   1  18   1  33   1  44   1
M  END
>  <UniqueID>  (8) 
7

>  <SMILES>  (8) 
CCCCC[N@@+]1(C)c2ccccc2C2=NCC[N@@+](C)(CCOc3cccc4c3c(NCC[NH+](CC)CC)c3ccccc3[n+]4C)C21

>  <Energy>  (8) 
282.5867273225704

>  <Genealogy>  (8) 
CCCCC[N+]1(C)c2ccccc2C2=NCC[N+](C)(CCOc3cccc4c3c(NCC[NH+](CC)CC)c3ccccc3[n+]4C)C21 (protonated)
CCCCC[N@@+]1(C)c2ccccc2C2=NCC[N@@+](C)(CCOc3cccc4c3c(NCC[NH+](CC)CC)c3ccccc3[n+]4C)C21 (chirality)
CCCCC[N@@+]1(C)c2ccccc2C2=NCC[N@@+](C)(CCOc3cccc4c3c(NCC[NH+](CC)CC)c3ccccc3[n+]4C)C21 (3D coordinates assigned)
CCCCC[N@@+]1(C)c2ccccc2C2=NCC[N@@+](C)(CCOc3cccc4c3c(NCC[NH+](CC)CC)c3ccccc3[n+]4C)C21 (nonaromatic ring conformer: 282.5867273225704 kcal/mol)

>  <smiles>  (8) 
CCCCC[N+]1(C)c2ccccc2C2=NCC[N+](C)(CCOc3cccc4c3c(NCCN(CC)CC)c3ccccc3[n+]4C)C21

>  <score_type>  (8) 
oracle

>  <origin>  (8) 
adg

>  <m_score__min__energy>  (8) 
-7.0999999999999996

>  <m_primary>  (8) 
energy

$$$$
8:0
     RDKit          3D

 68 70  0  0  0  0  0  0  0  0999 V2000
   -1.6330   20.0580  -28.6800 C   0  0  0  0  0  0  0  0  0  0  0  0
   -2.8970   20.8460  -29.0590 C   0  0  0  0  0  0  0  0  0  0  0  0
   -2.9640   22.2180  -28.5010 N   0  0  0  0  0  0  0  0  0  0  0  0
   -4.2320   22.5840  -27.8490 C   0  0  0  0  0  0  0  0  0  0  0  0
   -2.3820   23.2840  -29.3450 C   0  0  0  0  0  0  0  0  0  0  0  0
   -3.2140   24.5770  -29.3850 C   0  0  0  0  0  0  0  0  0  0  0  0
   -3.7400   24.7770  -30.6850 O   0  0  0  0  0  0  0  0  0  0  0  0
   -5.0700   25.2630  -30.6410 C   0  0  0  0  0  0  0  0  0  0  0  0
   -6.0620   24.1020  -30.6790 C   0  0  0  0  0  0  0  0  0  0  0  0
   -5.3510   22.8260  -30.6440 N   0  0  0  0  0  0  0  0  0  0  0  0
   -5.7500   21.7290  -31.4850 C   0  0  0  0  0  0  0  0  0  0  0  0
   -7.1110   21.4150  -31.6420 C   0  0  0  0  0  0  0  0  0  0  0  0
   -8.1150   22.1970  -31.0300 C   0  0  0  0  0  0  0  0  0  0  0  0
   -9.4620   21.8950  -31.2160 C   0  0  0  0  0  0  0  0  0  0  0  0
   -9.8310   20.8200  -32.0150 C   0  0  0  0  0  0  0  0  0  0  0  0
   -8.8570   20.0210  -32.6110 C   0  0  0  0  0  0  0  0  0  0  0  0
   -7.4770   20.2820  -32.4130 C   0  0  0  0  0  0  0  0  0  0  0  0
   -6.5010   19.4630  -32.9490 N   0  0  0  0  0  0  0  0  0  0  0  0
   -6.8610   18.0870  -33.3540 C   0  0  0  0  0  0  0  0  0  0  0  0
   -5.1870   19.8990  -33.0100 C   0  0  0  0  0  0  0  0  0  0  0  0
   -4.2160   19.2950  -33.8730 C   0  0  0  0  0  0  0  0  0  0  0  0
   -4.6170   18.3390  -34.8230 O   0  0  0  0  0  0  0  0  0  0  0  0
   -3.8460   17.2320  -35.2950 C   0  0  0  0  0  0  0  0  0  0  0  0
   -4.1940   15.9480  -34.5310 C   0  0  0  0  0  0  0  0  0  0  0  0
   -3.8990   16.0830  -33.0870 N   0  0  0  0  0  0  0  0  0  0  0  0
   -2.4570   15.9200  -32.8210 C   0  0  0  0  0  0  0  0  0  0  0  0
   -4.6540   15.0760  -32.3230 C   0  0  0  0  0  0  0  0  0  0  0  0
   -2.8710   19.7010  -33.7960 C   0  0  0  0  0  0  0  0  0  0  0  0
   -2.4880   20.7380  -32.9580 C   0  0  0  0  0  0  0  0  0  0  0  0
   -3.4350   21.4060  -32.1960 C   0  0  0  0  0  0  0  0  0  0  0  0
   -4.7860   21.0100  -32.2160 C   0  0  0  0  0  0  0  0  0  0  0  0
   -1.5485   20.0053  -27.5845 H   0  0  0  0  0  0  0  0  0  0  0  0
   -1.6981   19.0402  -29.0921 H   0  0  0  0  0  0  0  0  0  0  0  0
   -0.7478   20.5645  -29.0921 H   0  0  0  0  0  0  0  0  0  0  0  0
   -2.9383   20.9201  -30.1557 H   0  0  0  0  0  0  0  0  0  0  0  0
   -3.7465   20.2948  -28.6294 H   0  0  0  0  0  0  0  0  0  0  0  0
   -4.1065   22.5478  -26.7568 H   0  0  0  0  0  0  0  0  0  0  0  0
   -4.5194   23.6018  -28.1515 H   0  0  0  0  0  0  0  0  0  0  0  0
   -5.0176   21.8759  -28.1515 H   0  0  0  0  0  0  0  0  0  0  0  0
   -1.3832   23.5278  -28.9539 H   0  0  0  0  0  0  0  0  0  0  0  0
   -2.3518   22.8940  -30.3731 H   0  0  0  0  0  0  0  0  0  0  0  0
   -4.0423   24.4992  -28.6653 H   0  0  0  0  0  0  0  0  0  0  0  0
   -2.5691   25.4286  -29.1225 H   0  0  0  0  0  0  0  0  0  0  0  0
   -5.2165   25.8349  -29.7128 H   0  0  0  0  0  0  0  0  0  0  0  0
   -5.2431   25.9093  -31.5141 H   0  0  0  0  0  0  0  0  0  0  0  0
   -6.7316   24.1682  -29.8088 H   0  0  0  0  0  0  0  0  0  0  0  0
   -6.6460   24.1607  -31.6093 H   0  0  0  0  0  0  0  0  0  0  0  0
   -4.4150   22.7950  -30.1800 H   0  0  0  0  0  0  0  0  0  0  0  0
   -7.8306   23.0529  -30.4003 H   0  0  0  0  0  0  0  0  0  0  0  0
  -10.2347   22.5085  -30.7296 H   0  0  0  0  0  0  0  0  0  0  0  0
  -10.8961   20.5986  -32.1778 H   0  0  0  0  0  0  0  0  0  0  0  0
   -9.1630   19.1753  -33.2444 H   0  0  0  0  0  0  0  0  0  0  0  0
   -7.0221   17.4711  -32.4570 H   0  0  0  0  0  0  0  0  0  0  0  0
   -7.7832   18.1105  -33.9531 H   0  0  0  0  0  0  0  0  0  0  0  0
   -6.0454   17.6559  -33.9531 H   0  0  0  0  0  0  0  0  0  0  0  0
   -4.0532   17.0805  -36.3646 H   0  0  0  0  0  0  0  0  0  0  0  0
   -2.7810   17.4553  -35.1342 H   0  0  0  0  0  0  0  0  0  0  0  0
   -5.2654   15.7344  -34.6591 H   0  0  0  0  0  0  0  0  0  0  0  0
   -3.5819   15.1279  -34.9346 H   0  0  0  0  0  0  0  0  0  0  0  0
   -2.2844   15.9005  -31.7348 H   0  0  0  0  0  0  0  0  0  0  0  0
   -2.1066   14.9765  -33.2649 H   0  0  0  0  0  0  0  0  0  0  0  0
   -1.9048   16.7615  -33.2649 H   0  0  0  0  0  0  0  0  0  0  0  0
   -4.5192   15.2558  -31.2462 H   0  0  0  0  0  0  0  0  0  0  0  0
   -5.7220   15.1487  -32.5760 H   0  0  0  0  0  0  0  0  0  0  0  0
   -4.2848   14.0712  -32.5760 H   0  0  0  0  0  0  0  0  0  0  0  0
   -2.1135   19.1896  -34.4081 H   0  0  0  0  0  0  0  0  0  0  0  0
   -1.4296   21.0315  -32.8976 H   0  0  0  0  0  0  0  0  0  0  0  0
   -3.1269   22.2553  -31.5685 H   0  0  0  0  0  0  0  0  0  0  0  0
  1  2  1  0
  2  3  1  0
  3  4  1  0
  3  5  1  0
  5  6  1  0
  6  7  1  0
  7  8  1  0
  8  9  1  0
  9 10  1  0
 10 11  1  0
 11 12  2  0
 12 13  1  0
 13 14  2  0
 14 15  1  0
 15 16  2  0
 16 17  1  0
 17 18  2  0
 18 19  1  0
 18 20  1  0
 20 21  2  0
 21 22  1  0
 22 23  1  0
 23 24  1  0
 24 25  1  0
 25 26  1  0
 25 27  1  0
 21 28  1  0
 28 29  2  0
 29 30  1  0
 30 31  2  0
 31 11  1  0
 17 12  1  0
 31 20  1  0
  1 32  1  0
  1 33  1  0
  1 34  1  0
  2 35  1  0
  2 36  1  0
  4 37  1  0
  4 38  1  0
  4 39  1  0
  5 40  1  0
  5 41  1  0
  6 42  1  0
  6 43  1  0
  8 44  1  0
  8 45  1  0
  9 46  1  0
  9 47  1  0
 10 48  1  0
 13 49  1  0
 14 50  1  0
 15 51  1  0
 16 52  1  0
 19 53  1  0
 19 54  1  0
 19 55  1  0
 23 56  1  0
 23 57  1  0
 24 58  1  0
 24 59  1  0
 26 60  1  0
 26 61  1  0
 26 62  1  0
 27 63  1  0
 27 64  1  0
 27 65  1  0
 28 66  1  0
 29 67  1  0
 30 68  1  0
M  CHG  1  18   1
M  END
>  <UniqueID>  (9) 
8

>  <SMILES>  (9) 
CCN(C)CCOCCNc1c2ccccc2[n+](C)c2c(OCCN(C)C)cccc12

>  <Energy>  (9) 
105.50390766481375

>  <Genealogy>  (9) 
CCN(C)CCOCCNc1c2ccccc2[n+](C)c2c(OCCN(C)C)cccc12 (3D coordinates assigned)
CCN(C)CCOCCNc1c2ccccc2[n+](C)c2c(OCCN(C)C)cccc12 (optimized conformer: 105.50390766481375 kcal/mol)

>  <smiles>  (9) 
CCN(C)CCOCCNc1c2ccccc2[n+](C)c2c(OCCN(C)C)cccc12

>  <score_type>  (9) 
oracle

>  <origin>  (9) 
adg

>  <m_score__min__energy>  (9) 
-8.3399999999999999

>  <m_primary>  (9) 
energy

$$$$
9:0
     RDKit          3D

 61 65  0  0  0  0  0  0  0  0999 V2000
    0.6250   21.6900  -36.0610 C   0  0  0  0  0  0  0  0  0  0  0  0
   -0.0850   20.6780  -35.1540 C   0  0  0  0  0  0  0  0  0  0  0  0
   -1.2000   21.2820  -34.3990 N   0  0  0  0  0  0  0  0  0  0  0  0
   -1.0440   21.1200  -32.9360 C   0  0  0  0  0  0  0  0  0  0  0  0
   -2.3880   21.2650  -32.2000 C   0  0  0  0  0  0  0  0  0  0  0  0
   -3.5000   21.4330  -33.1390 N   0  0  0  0  0  0  0  0  0  0  0  0
   -4.8640   21.1780  -32.7730 C   0  0  0  0  0  0  0  0  0  0  0  0
   -5.6610   22.1670  -32.1470 C   0  0  0  0  0  0  0  0  0  0  0  0
   -5.0930   23.3830  -31.7190 C   0  0  0  0  0  0  0  0  0  0  0  0
   -5.8840   24.3740  -31.1410 C   0  0  0  0  0  0  0  0  0  0  0  0
   -7.2520   24.1720  -30.9800 C   0  0  0  0  0  0  0  0  0  0  0  0
   -7.8360   22.9660  -31.3630 C   0  0  0  0  0  0  0  0  0  0  0  0
   -7.0590   21.9230  -31.9240 C   0  0  0  0  0  0  0  0  0  0  0  0
   -7.6210   20.6990  -32.2580 N   0  0  0  0  0  0  0  0  0  0  0  0
   -9.0400   20.4080  -31.9700 C   0  0  0  0  0  0  0  0  0  0  0  0
   -6.8240   19.7590  -32.8620 C   0  0  0  0  0  0  0  0  0  0  0  0
   -7.2200   18.5540  -33.3420 N   0  0  0  0  0  0  0  0  0  0  0  0
   -6.1060   17.9950  -33.8520 C   0  0  0  0  0  0  0  0  0  0  0  0
   -6.0110   16.7530  -34.4670 C   0  0  0  0  0  0  0  0  0  0  0  0
   -4.7560   16.3400  -34.9430 C   0  0  0  0  0  0  0  0  0  0  0  0
   -3.5980   17.1630  -34.8010 C   0  0  0  0  0  0  0  0  0  0  0  0
   -2.2970   16.7230  -35.2990 N   0  0  0  0  0  0  0  0  0  0  0  0
   -2.2020   15.4580  -36.0590 C   0  0  0  0  0  0  0  0  0  0  0  0
   -0.7870   15.1340  -36.5550 C   0  0  0  0  0  0  0  0  0  0  0  0
    0.1930   15.5550  -35.6330 O   0  0  0  0  0  0  0  0  0  0  0  0
    0.1880   16.9630  -35.5920 C   0  0  0  0  0  0  0  0  0  0  0  0
   -1.0810   17.4750  -34.9140 C   0  0  0  0  0  0  0  0  0  0  0  0
   -3.7480   18.4220  -34.1560 C   0  0  0  0  0  0  0  0  0  0  0  0
   -5.0140   18.8140  -33.7100 C   0  0  0  0  0  0  0  0  0  0  0  0
   -5.4760   19.9640  -33.0850 C   0  0  0  0  0  0  0  0  0  0  0  0
    1.1471   22.4342  -35.4417 H   0  0  0  0  0  0  0  0  0  0  0  0
    1.3539   21.1651  -36.6960 H   0  0  0  0  0  0  0  0  0  0  0  0
   -0.1166   22.1967  -36.6960 H   0  0  0  0  0  0  0  0  0  0  0  0
   -0.4814   19.8629  -35.7772 H   0  0  0  0  0  0  0  0  0  0  0  0
    0.6510   20.3079  -34.4251 H   0  0  0  0  0  0  0  0  0  0  0  0
   -1.2790   22.3010  -34.6310 H   0  0  0  0  0  0  0  0  0  0  0  0
   -2.0790   20.8160  -34.7210 H   0  0  0  0  0  0  0  0  0  0  0  0
   -0.6308   20.1216  -32.7301 H   0  0  0  0  0  0  0  0  0  0  0  0
   -0.3683   21.9089  -32.5740 H   0  0  0  0  0  0  0  0  0  0  0  0
   -2.5637   20.3626  -31.5959 H   0  0  0  0  0  0  0  0  0  0  0  0
   -2.3371   22.1599  -31.5623 H   0  0  0  0  0  0  0  0  0  0  0  0
   -3.2980   21.7900  -34.1030 H   0  0  0  0  0  0  0  0  0  0  0  0
   -4.0131   23.5521  -31.8424 H   0  0  0  0  0  0  0  0  0  0  0  0
   -5.4263   25.3183  -30.8111 H   0  0  0  0  0  0  0  0  0  0  0  0
   -7.8754   24.9687  -30.5481 H   0  0  0  0  0  0  0  0  0  0  0  0
   -8.9180   22.8217  -31.2274 H   0  0  0  0  0  0  0  0  0  0  0  0
   -9.1942   20.3764  -30.8813 H   0  0  0  0  0  0  0  0  0  0  0  0
   -9.6718   21.1953  -32.4071 H   0  0  0  0  0  0  0  0  0  0  0  0
   -9.3109   19.4356  -32.4071 H   0  0  0  0  0  0  0  0  0  0  0  0
   -8.1740   18.1300  -33.3690 H   0  0  0  0  0  0  0  0  0  0  0  0
   -6.8962   16.1095  -34.5783 H   0  0  0  0  0  0  0  0  0  0  0  0
   -4.6631   15.3611  -35.4360 H   0  0  0  0  0  0  0  0  0  0  0  0
   -2.5369   14.6371  -35.4079 H   0  0  0  0  0  0  0  0  0  0  0  0
   -2.8338   15.5745  -36.9519 H   0  0  0  0  0  0  0  0  0  0  0  0
   -0.6989   14.0470  -36.6988 H   0  0  0  0  0  0  0  0  0  0  0  0
   -0.6224   15.6691  -37.5019 H   0  0  0  0  0  0  0  0  0  0  0  0
    1.0655   17.3116  -35.0277 H   0  0  0  0  0  0  0  0  0  0  0  0
    0.2209   17.3485  -36.6217 H   0  0  0  0  0  0  0  0  0  0  0  0
   -0.9513   17.3943  -33.8247 H   0  0  0  0  0  0  0  0  0  0  0  0
   -1.2259   18.5158  -35.2392 H   0  0  0  0  0  0  0  0  0  0  0  0
   -2.8783   19.0795  -34.0098 H   0  0  0  0  0  0  0  0  0  0  0  0
  1  2  1  0
  2  3  1  0
  3  4  1  0
  4  5  1  0
  5  6  1  0
  6  7  1  0
  7  8  2  0
  8  9  1  0
  9 10  2  0
 10 11  1  0
 11 12  2  0
 12 13  1  0
 13 14  2  0
 14 15  1  0
 14 16  1  0
 16 17  1  0
 17 18  1  0
 18 19  2  0
 19 20  1  0
 20 21  2  0
 21 22  1  0
 22 23  1  0
 23 24  1  0
 24 25  1  0
 25 26  1  0
 26 27  1  0
 21 28  1  0
 28 29  2  0
 29 30  1  0
 30  7  1  0
 13  8  1  0
 30 16  2  0
 29 18  1  0
 27 22  1  0
  1 31  1  0
  1 32  1  0
  1 33  1  0
  2 34  1  0
  2 35  1  0
  3 36  1  0
  3 37  1  0
  4 38  1  0
  4 39  1  0
  5 40  1  0
  5 41  1  0
  6 42  1  0
  9 43  1  0
 10 44  1  0
 11 45  1  0
 12 46  1  0
 15 47  1  0
 15 48  1  0
 15 49  1  0
 17 50  1  0
 19 51  1  0
 20 52  1  0
 23 53  1  0
 23 54  1  0
 24 55  1  0
 24 56  1  0
 26 57  1  0
 26 58  1  0
 27 59  1  0
 27 60  1  0
 28 61  1  0
M  CHG  2   3   1  14   1
M  END
>  <UniqueID>  (10) 
9

>  <SMILES>  (10) 
CC[NH2+]CCNc1c2ccccc2[n+](C)c2[nH]c3ccc(N4CCOCC4)cc3c12

>  <Energy>  (10) 
126.07018122515237

>  <Genealogy>  (10) 
CC[NH2+]CCNc1c2ccccc2[n+](C)c2[nH]c3ccc(N4CCOCC4)cc3c12 (protonated)
CC[NH2+]CCNc1c2ccccc2[n+](C)c2[nH]c3ccc(N4CCOCC4)cc3c12 (3D coordinates assigned)
CC[NH2+]CCNc1c2ccccc2[n+](C)c2[nH]c3ccc(N4CCOCC4)cc3c12 (nonaromatic ring conformer: 126.07018122515237 kcal/mol)

>  <smiles>  (10) 
CCNCCNc1c2ccccc2[n+](C)c2[nH]c3ccc(N4CCOCC4)cc3c12

>  <score_type>  (10) 
oracle

>  <origin>  (10) 
adg

>  <m_score__min__energy>  (10) 
-7.9199999999999999

>  <m_primary>  (10) 
energy

$$$$
10:0
     RDKit          3D

 38 40  0  0  0  0  0  0  0  0999 V2000
   -6.8711   24.4007  -32.8002 H   0  0  0  0  0  0  0  0  0  0  0  0
   -6.9580   23.7270  -31.9350 C   0  0  0  0  0  0  0  0  0  0  0  0
   -6.8790   24.2610  -30.7100 C   0  0  0  0  0  0  0  0  0  0  0  0
   -7.6417   24.0073  -29.9591 H   0  0  0  0  0  0  0  0  0  0  0  0
   -5.7660   25.2010  -30.3440 C   0  0  0  0  0  0  0  0  0  0  0  0
   -5.6035   25.1617  -29.2568 H   0  0  0  0  0  0  0  0  0  0  0  0
   -6.0478   26.2187  -30.6521 H   0  0  0  0  0  0  0  0  0  0  0  0
   -4.5220   24.8280  -31.0310 N   0  0  0  0  0  0  0  0  0  0  0  0
   -4.1930   25.6690  -31.5610 H   0  0  0  0  0  0  0  0  0  0  0  0
   -3.4720   24.4680  -30.0700 C   0  0  0  0  0  0  0  0  0  0  0  0
   -2.7981   25.3258  -29.9285 H   0  0  0  0  0  0  0  0  0  0  0  0
   -2.9057   23.6089  -30.4589 H   0  0  0  0  0  0  0  0  0  0  0  0
   -4.0970   24.0910  -28.7320 C   0  0  0  0  0  0  0  0  0  0  0  0
   -3.4678   24.4706  -27.9135 H   0  0  0  0  0  0  0  0  0  0  0  0
   -5.1011   24.5342  -28.6584 H   0  0  0  0  0  0  0  0  0  0  0  0
   -4.1733   22.9961  -28.6584 H   0  0  0  0  0  0  0  0  0  0  0  0
   -7.1560   22.2790  -32.1940 C   0  0  0  0  0  0  0  0  0  0  0  0
   -8.3680   21.6190  -31.9040 C   0  0  0  0  0  0  0  0  0  0  0  0
   -9.2099   22.1850  -31.4786 H   0  0  0  0  0  0  0  0  0  0  0  0
   -8.5070   20.2520  -32.1530 C   0  0  0  0  0  0  0  0  0  0  0  0
   -9.4600   19.7498  -31.9301 H   0  0  0  0  0  0  0  0  0  0  0  0
   -7.4440   19.5190  -32.6830 C   0  0  0  0  0  0  0  0  0  0  0  0
   -7.5960   18.2180  -32.9140 O   0  0  0  0  0  0  0  0  0  0  0  0
   -6.6260   17.4590  -33.4130 C   0  0  0  0  0  0  0  0  0  0  0  0
   -6.8600   16.0960  -33.6300 C   0  0  0  0  0  0  0  0  0  0  0  0
   -7.8414   15.6622  -33.3877 H   0  0  0  0  0  0  0  0  0  0  0  0
   -5.8490   15.2850  -34.1540 C   0  0  0  0  0  0  0  0  0  0  0  0
   -6.0365   14.2142  -34.3219 H   0  0  0  0  0  0  0  0  0  0  0  0
   -4.6010   15.8310  -34.4650 C   0  0  0  0  0  0  0  0  0  0  0  0
   -3.8093   15.1887  -34.8781 H   0  0  0  0  0  0  0  0  0  0  0  0
   -4.3550   17.1910  -34.2530 C   0  0  0  0  0  0  0  0  0  0  0  0
   -3.3704   17.6155  -34.4985 H   0  0  0  0  0  0  0  0  0  0  0  0
   -5.3650   18.0180  -33.7260 C   0  0  0  0  0  0  0  0  0  0  0  0
   -5.1650   19.3900  -33.4960 C   0  0  0  0  0  0  0  0  0  0  0  0
   -4.0520   19.9260  -33.7610 O   0  0  0  0  0  0  0  0  0  0  0  0
   -6.2170   20.1590  -32.9660 C   0  0  0  0  0  0  0  0  0  0  0  0
   -6.0820   21.5370  -32.7130 C   0  0  0  0  0  0  0  0  0  0  0  0
   -5.1257   22.0380  -32.9238 H   0  0  0  0  0  0  0  0  0  0  0  0
  1  2  1  0
  2  3  2  0
  3  4  1  0
  3  5  1  0
  5  6  1  0
  5  7  1  0
  5  8  1  0
  8  9  1  0
  8 10  1  0
 10 11  1  0
 10 12  1  0
 10 13  1  0
 13 14  1  0
 13 15  1  0
 13 16  1  0
  2 17  1  0
 17 18  2  0
 18 19  1  0
 18 20  1  0
 20 21  1  0
 20 22  2  0
 22 23  1  0
 23 24  1  0
 24 25  2  0
 25 26  1  0
 25 27  1  0
 27 28  1  0
 27 29  2  0
 29 30  1  0
 29 31  1  0
 31 32  1  0
 31 33  2  0
 33 34  1  0
 34 35  2  0
 34 36  1  0
 36 37  2  0
 37 38  1  0
 37 17  1  0
 36 22  1  0
 33 24  1  0
M  END
>  <UniqueID>  (11) 
10

>  <SMILES>  (11) 
CCNC/C=C/c1ccc2oc3ccccc3c(=O)c2c1

>  <Energy>  (11) 
45.18859829909644

>  <Genealogy>  (11) 
CCNC/C=C/c1ccc2oc3ccccc3c(=O)c2c1 (cis-trans isomerization)
CCNC/C=C/c1ccc2oc3ccccc3c(=O)c2c1 (3D coordinates assigned)
CCNC/C=C/c1ccc2oc3ccccc3c(=O)c2c1 (optimized conformer: 45.18859829909644 kcal/mol)

>  <smiles>  (11) 
CCNCC=Cc1ccc2oc3ccccc3c(=O)c2c1

>  <score_type>  (11) 
oracle

>  <origin>  (11) 
adg

>  <m_score__min__energy>  (11) 
-8.7200000000000006

>  <m_primary>  (11) 
energy

$$$$
11:0
     RDKit          3D

 31 33  0  0  0  0  0  0  0  0999 V2000
   -8.6842   23.4311  -31.0229 H   0  0  0  0  0  0  0  0  0  0  0  0
   -7.8750   22.9490  -31.5910 C   0  0  0  0  0  0  0  0  0  0  0  0
   -6.8300   23.7030  -31.9630 C   0  0  0  0  0  0  0  0  0  0  0  0
   -6.8778   24.2292  -32.9278 H   0  0  0  0  0  0  0  0  0  0  0  0
   -5.6130   23.8580  -31.1300 C   0  0  0  0  0  0  0  0  0  0  0  0
   -4.9870   25.1120  -31.0890 C   0  0  0  0  0  0  0  0  0  0  0  0
   -5.4092   25.9479  -31.6661 H   0  0  0  0  0  0  0  0  0  0  0  0
   -3.8910   25.3050  -30.3630 O   0  0  0  0  0  0  0  0  0  0  0  0
   -3.3220   24.3390  -29.6530 C   0  0  0  0  0  0  0  0  0  0  0  0
   -2.1720   24.6150  -28.9050 C   0  0  0  0  0  0  0  0  0  0  0  0
   -1.7492   25.6305  -28.9043 H   0  0  0  0  0  0  0  0  0  0  0  0
   -1.5590   23.6050  -28.1590 C   0  0  0  0  0  0  0  0  0  0  0  0
   -0.6553   23.8275  -27.5727 H   0  0  0  0  0  0  0  0  0  0  0  0
   -2.0920   22.3110  -28.1560 C   0  0  0  0  0  0  0  0  0  0  0  0
   -1.2470   20.9360  -27.1360 Br  0  0  0  0  0  0  0  0  0  0  0  0
   -3.2420   22.0240  -28.8990 C   0  0  0  0  0  0  0  0  0  0  0  0
   -3.6574   21.0055  -28.8958 H   0  0  0  0  0  0  0  0  0  0  0  0
   -3.8690   23.0360  -29.6510 C   0  0  0  0  0  0  0  0  0  0  0  0
   -5.0240   22.7950  -30.4160 C   0  0  0  0  0  0  0  0  0  0  0  0
   -5.5080   21.6310  -30.4830 O   0  0  0  0  0  0  0  0  0  0  0  0
   -8.0050   21.5030  -31.9000 C   0  0  0  0  0  0  0  0  0  0  0  0
   -7.0680   20.9160  -32.7690 C   0  0  0  0  0  0  0  0  0  0  0  0
   -6.2677   21.5325  -33.2041 H   0  0  0  0  0  0  0  0  0  0  0  0
   -7.1440   19.5570  -33.0850 C   0  0  0  0  0  0  0  0  0  0  0  0
   -6.4099   19.1112  -33.7723 H   0  0  0  0  0  0  0  0  0  0  0  0
   -8.1500   18.7640  -32.5300 C   0  0  0  0  0  0  0  0  0  0  0  0
   -8.2113   17.6954  -32.7836 H   0  0  0  0  0  0  0  0  0  0  0  0
   -9.0780   19.3280  -31.6530 C   0  0  0  0  0  0  0  0  0  0  0  0
   -9.8669   18.7010  -31.2119 H   0  0  0  0  0  0  0  0  0  0  0  0
   -9.0080   20.6890  -31.3330 C   0  0  0  0  0  0  0  0  0  0  0  0
   -9.7385   21.1258  -30.6362 H   0  0  0  0  0  0  0  0  0  0  0  0
  1  2  1  0
  2  3  2  0
  3  4  1  0
  3  5  1  0
  5  6  2  0
  6  7  1  0
  6  8  1  0
  8  9  1  0
  9 10  2  0
 10 11  1  0
 10 12  1  0
 12 13  1  0
 12 14  2  0
 14 15  1  0
 14 16  1  0
 16 17  1  0
 16 18  2  0
 18 19  1  0
 19 20  2  0
  2 21  1  0
 21 22  2  0
 22 23  1  0
 22 24  1  0
 24 25  1  0
 24 26  2  0
 26 27  1  0
 26 28  1  0
 28 29  1  0
 28 30  2  0
 30 31  1  0
 19  5  1  0
 30 21  1  0
 18  9  1  0
M  END
>  <UniqueID>  (12) 
11

>  <SMILES>  (12) 
O=c1c(/C=C/c2ccccc2)coc2ccc(Br)cc12

>  <Energy>  (12) 
46.53062920746539

>  <Genealogy>  (12) 
O=c1c(/C=C/c2ccccc2)coc2ccc(Br)cc12 (cis-trans isomerization)
O=c1c(/C=C/c2ccccc2)coc2ccc(Br)cc12 (3D coordinates assigned)
O=c1c(/C=C/c2ccccc2)coc2ccc(Br)cc12 (optimized conformer: 46.53062920746539 kcal/mol)

>  <smiles>  (12) 
O=c1c(C=Cc2ccccc2)coc2ccc(Br)cc12

>  <score_type>  (12) 
oracle

>  <origin>  (12) 
adg

>  <m_score__min__energy>  (12) 
-8.4000000000000004

>  <m_primary>  (12) 
energy

$$$$
12:0
     RDKit          3D

 33 34  0  0  0  0  0  0  0  0999 V2000
   -8.6710   18.5550  -31.6010 C   0  0  0  0  0  0  0  0  0  0  0  0
   -7.2780   18.1140  -32.0700 C   0  0  0  0  0  0  0  0  0  0  0  0
   -6.5510   19.2050  -32.7750 N   0  0  0  0  0  0  0  0  0  0  0  0
   -6.1150   18.7490  -34.1240 C   0  0  0  0  0  0  0  0  0  0  0  0
   -6.1100   17.2220  -34.2490 C   0  0  0  0  0  0  0  0  0  0  0  0
   -7.4170   20.4050  -32.8970 C   0  0  0  0  0  0  0  0  0  0  0  0
   -6.8790   21.5640  -32.1050 C   0  0  0  0  0  0  0  0  0  0  0  0
   -7.6020   22.7000  -31.7520 C   0  0  0  0  0  0  0  0  0  0  0  0
   -6.6960   23.4740  -31.0630 C   0  0  0  0  0  0  0  0  0  0  0  0
   -6.8330   24.7250  -30.4650 C   0  0  0  0  0  0  0  0  0  0  0  0
   -5.7050   25.2700  -29.8240 C   0  0  0  0  0  0  0  0  0  0  0  0
   -4.4830   24.5580  -29.7990 C   0  0  0  0  0  0  0  0  0  0  0  0
   -4.3790   23.2970  -30.4140 C   0  0  0  0  0  0  0  0  0  0  0  0
   -5.5130   22.7840  -31.0390 C   0  0  0  0  0  0  0  0  0  0  0  0
   -5.6350   21.6410  -31.6670 O   0  0  0  0  0  0  0  0  0  0  0  0
   -8.7017   18.5647  -30.5015 H   0  0  0  0  0  0  0  0  0  0  0  0
   -8.8839   19.5645  -31.9827 H   0  0  0  0  0  0  0  0  0  0  0  0
   -9.4260   17.8519  -31.9827 H   0  0  0  0  0  0  0  0  0  0  0  0
   -6.6901   17.8055  -31.1930 H   0  0  0  0  0  0  0  0  0  0  0  0
   -7.4075   17.2819  -32.7777 H   0  0  0  0  0  0  0  0  0  0  0  0
   -5.7030   19.4620  -32.2140 H   0  0  0  0  0  0  0  0  0  0  0  0
   -6.8022   19.1631  -34.8765 H   0  0  0  0  0  0  0  0  0  0  0  0
   -5.0854   19.1026  -34.2819 H   0  0  0  0  0  0  0  0  0  0  0  0
   -6.1085   16.7719  -33.2453 H   0  0  0  0  0  0  0  0  0  0  0  0
   -7.0071   16.8959  -34.7957 H   0  0  0  0  0  0  0  0  0  0  0  0
   -5.2108   16.9018  -34.7957 H   0  0  0  0  0  0  0  0  0  0  0  0
   -7.4768   20.6948  -33.9565 H   0  0  0  0  0  0  0  0  0  0  0  0
   -8.4110   20.1514  -32.5000 H   0  0  0  0  0  0  0  0  0  0  0  0
   -8.6554   22.9270  -31.9729 H   0  0  0  0  0  0  0  0  0  0  0  0
   -7.7894   25.2676  -30.4930 H   0  0  0  0  0  0  0  0  0  0  0  0
   -5.7739   26.2552  -29.3397 H   0  0  0  0  0  0  0  0  0  0  0  0
   -3.6076   24.9935  -29.2950 H   0  0  0  0  0  0  0  0  0  0  0  0
   -3.4335   22.7349  -30.4017 H   0  0  0  0  0  0  0  0  0  0  0  0
  1  2  1  0
  2  3  1  0
  3  4  1  0
  4  5  1  0
  3  6  1  0
  6  7  1  0
  7  8  2  0
  8  9  1  0
  9 10  2  0
 10 11  1  0
 11 12  2  0
 12 13  1  0
 13 14  2  0
 14 15  1  0
 15  7  1  0
 14  9  1  0
  1 16  1  0
  1 17  1  0
  1 18  1  0
  2 19  1  0
  2 20  1  0
  3 21  1  0
  4 22  1  0
  4 23  1  0
  5 24  1  0
  5 25  1  0
  5 26  1  0
  6 27  1  0
  6 28  1  0
  8 29  1  0
 10 30  1  0
 11 31  1  0
 12 32  1  0
 13 33  1  0
M  CHG  1   3   1
M  END
>  <UniqueID>  (13) 
12

>  <SMILES>  (13) 
CC[NH+](CC)Cc1cc2ccccc2o1

>  <Energy>  (13) 
66.84501097062034

>  <Genealogy>  (13) 
CC[NH+](CC)Cc1cc2ccccc2o1 (protonated)
CC[NH+](CC)Cc1cc2ccccc2o1 (3D coordinates assigned)
CC[NH+](CC)Cc1cc2ccccc2o1 (optimized conformer: 66.84501097062034 kcal/mol)

>  <smiles>  (13) 
CCN(CC)Cc1cc2ccccc2o1

>  <score_type>  (13) 
oracle

>  <origin>  (13) 
adg

>  <m_score__min__energy>  (13) 
-4.7800000000000002

>  <m_primary>  (13) 
energy

$$$$
13:0
     RDKit          3D

 69 71  0  0  0  0  0  0  0  0999 V2000
   -4.3950   24.1760  -28.4650 C   0  0  0  0  0  0  0  0  0  0  0  0
   -3.6460   24.4820  -29.7580 C   0  0  0  0  0  0  0  0  0  0  0  0
   -4.6070   24.7770  -30.8440 N   0  0  0  0  0  0  0  0  0  0  0  0
   -5.6650   25.6770  -30.3540 C   0  0  0  0  0  0  0  0  0  0  0  0
   -5.1910   23.5360  -31.4020 C   0  0  0  0  0  0  0  0  0  0  0  0
   -6.5880   23.8010  -31.9700 C   0  0  0  0  0  0  0  0  0  0  0  0
   -7.5860   23.2560  -31.1240 O   0  0  0  0  0  0  0  0  0  0  0  0
   -8.7260   22.8660  -31.8630 C   0  0  0  0  0  0  0  0  0  0  0  0
   -9.2190   21.5190  -31.3440 C   0  0  0  0  0  0  0  0  0  0  0  0
   -9.2090   20.5380  -32.3810 O   0  0  0  0  0  0  0  0  0  0  0  0
   -8.4340   19.3740  -32.3410 C   0  0  0  0  0  0  0  0  0  0  0  0
   -8.9490   18.2820  -31.9800 O   0  0  0  0  0  0  0  0  0  0  0  0
   -7.0160   19.4110  -32.7750 C   0  0  0  0  0  0  0  0  0  0  0  0
   -6.3490   20.6400  -32.7170 C   0  0  0  0  0  0  0  0  0  0  0  0
   -4.9910   20.7330  -32.9910 C   0  0  0  0  0  0  0  0  0  0  0  0
   -4.2420   19.5990  -33.3390 C   0  0  0  0  0  0  0  0  0  0  0  0
   -2.8250   19.7570  -33.5950 N   0  0  0  0  0  0  0  0  0  0  0  0
   -2.4540   21.1800  -33.5400 C   0  0  0  0  0  0  0  0  0  0  0  0
   -1.8430   21.5520  -32.1850 C   0  0  0  0  0  0  0  0  0  0  0  0
   -2.1200   20.4830  -31.1950 N   0  0  0  0  0  0  0  0  0  0  0  0
   -3.1780   20.8320  -30.2120 C   0  0  0  0  0  0  0  0  0  0  0  0
   -2.6320   21.3330  -28.8570 C   0  0  0  0  0  0  0  0  0  0  0  0
   -1.2520   21.9720  -29.0060 C   0  0  0  0  0  0  0  0  0  0  0  0
   -0.2420   20.9810  -29.6050 C   0  0  0  0  0  0  0  0  0  0  0  0
   -0.9010   19.9550  -30.5520 C   0  0  0  0  0  0  0  0  0  0  0  0
   -4.9090   18.3490  -33.4850 C   0  0  0  0  0  0  0  0  0  0  0  0
   -4.2220   17.1900  -33.9200 C   0  0  0  0  0  0  0  0  0  0  0  0
   -4.8950   15.9830  -34.0920 C   0  0  0  0  0  0  0  0  0  0  0  0
   -6.2620   15.9030  -33.8560 C   0  0  0  0  0  0  0  0  0  0  0  0
   -6.9670   17.0270  -33.4310 C   0  0  0  0  0  0  0  0  0  0  0  0
   -6.3090   18.2580  -33.2100 C   0  0  0  0  0  0  0  0  0  0  0  0
   -3.7612   24.4349  -27.6040 H   0  0  0  0  0  0  0  0  0  0  0  0
   -5.3217   24.7676  -28.4292 H   0  0  0  0  0  0  0  0  0  0  0  0
   -4.6423   23.1048  -28.4292 H   0  0  0  0  0  0  0  0  0  0  0  0
   -2.9932   25.3537  -29.6029 H   0  0  0  0  0  0  0  0  0  0  0  0
   -3.0413   23.6074  -30.0397 H   0  0  0  0  0  0  0  0  0  0  0  0
   -5.6656   25.6775  -29.2540 H   0  0  0  0  0  0  0  0  0  0  0  0
   -5.4778   26.6969  -30.7210 H   0  0  0  0  0  0  0  0  0  0  0  0
   -6.6417   25.3287  -30.7210 H   0  0  0  0  0  0  0  0  0  0  0  0
   -4.5402   23.1605  -32.2054 H   0  0  0  0  0  0  0  0  0  0  0  0
   -5.2729   22.7913  -30.5966 H   0  0  0  0  0  0  0  0  0  0  0  0
   -6.7422   24.8867  -32.0569 H   0  0  0  0  0  0  0  0  0  0  0  0
   -6.6637   23.3237  -32.9581 H   0  0  0  0  0  0  0  0  0  0  0  0
   -9.5184   23.6195  -31.7432 H   0  0  0  0  0  0  0  0  0  0  0  0
   -8.4662   22.7806  -32.9285 H   0  0  0  0  0  0  0  0  0  0  0  0
   -8.5622   21.1858  -30.5269 H   0  0  0  0  0  0  0  0  0  0  0  0
  -10.2514   21.6382  -30.9834 H   0  0  0  0  0  0  0  0  0  0  0  0
   -6.9101   21.5476  -32.4498 H   0  0  0  0  0  0  0  0  0  0  0  0
   -4.4939   21.7126  -32.9342 H   0  0  0  0  0  0  0  0  0  0  0  0
   -2.2750   19.2380  -32.8700 H   0  0  0  0  0  0  0  0  0  0  0  0
   -2.5710   19.3260  -34.5110 H   0  0  0  0  0  0  0  0  0  0  0  0
   -1.7195   21.3882  -34.3319 H   0  0  0  0  0  0  0  0  0  0  0  0
   -3.3657   21.7788  -33.6822 H   0  0  0  0  0  0  0  0  0  0  0  0
   -0.7553   21.6729  -32.2963 H   0  0  0  0  0  0  0  0  0  0  0  0
   -2.2882   22.4946  -31.8338 H   0  0  0  0  0  0  0  0  0  0  0  0
   -3.8067   21.6234  -30.6461 H   0  0  0  0  0  0  0  0  0  0  0  0
   -3.7414   19.9095  -30.0080 H   0  0  0  0  0  0  0  0  0  0  0  0
   -3.3280   22.0791  -28.4460 H   0  0  0  0  0  0  0  0  0  0  0  0
   -2.5389   20.4682  -28.1836 H   0  0  0  0  0  0  0  0  0  0  0  0
   -1.3315   22.8471  -29.6677 H   0  0  0  0  0  0  0  0  0  0  0  0
   -0.8971   22.2706  -28.0086 H   0  0  0  0  0  0  0  0  0  0  0  0
    0.5129   21.5471  -30.1704 H   0  0  0  0  0  0  0  0  0  0  0  0
    0.2077   20.4216  -28.7714 H   0  0  0  0  0  0  0  0  0  0  0  0
   -0.1784   19.6826  -31.3353 H   0  0  0  0  0  0  0  0  0  0  0  0
   -1.1916   19.0817  -29.9496 H   0  0  0  0  0  0  0  0  0  0  0  0
   -3.1426   17.2436  -34.1248 H   0  0  0  0  0  0  0  0  0  0  0  0
   -4.3420   15.0890  -34.4161 H   0  0  0  0  0  0  0  0  0  0  0  0
   -6.7892   14.9492  -34.0052 H   0  0  0  0  0  0  0  0  0  0  0  0
   -8.0520   16.9552  -33.2650 H   0  0  0  0  0  0  0  0  0  0  0  0
  1  2  1  0
  2  3  1  0
  3  4  1  0
  3  5  1  0
  5  6  1  0
  6  7  1  0
  7  8  1  0
  8  9  1  0
  9 10  1  0
 10 11  1  0
 11 12  2  0
 11 13  1  0
 13 14  2  0
 14 15  1  0
 15 16  2  0
 16 17  1  0
 17 18  1  0
 18 19  1  0
 19 20  1  0
 20 21  1  0
 21 22  1  0
 22 23  1  0
 23 24  1  0
 24 25  1  0
 16 26  1  0
 26 27  2  0
 27 28  1  0
 28 29  2  0
 29 30  1  0
 30 31  2  0
 31 13  1  0
 25 20  1  0
 31 26  1  0
  1 32  1  0
  1 33  1  0
  1 34  1  0
  2 35  1  0
  2 36  1  0
  4 37  1  0
  4 38  1  0
  4 39  1  0
  5 40  1  0
  5 41  1  0
  6 42  1  0
  6 43  1  0
  8 44  1  0
  8 45  1  0
  9 46  1  0
  9 47  1  0
 14 48  1  0
 15 49  1  0
 17 50  1  0
 17 51  1  0
 18 52  1  0
 18 53  1  0
 19 54  1  0
 19 55  1  0
 21 56  1  0
 21 57  1  0
 22 58  1  0
 22 59  1  0
 23 60  1  0
 23 61  1  0
 24 62  1  0
 24 63  1  0
 25 64  1  0
 25 65  1  0
 27 66  1  0
 28 67  1  0
 29 68  1  0
 30 69  1  0
M  CHG  1  17   1
M  END
>  <UniqueID>  (14) 
13

>  <SMILES>  (14) 
CCN(C)CCOCCOC(=O)c1ccc([NH2+]CCN2CCCCC2)c2ccccc12

>  <Energy>  (14) 
86.24085245795791

>  <Genealogy>  (14) 
CCN(C)CCOCCOC(=O)c1ccc([NH2+]CCN2CCCCC2)c2ccccc12 (protonated)
CCN(C)CCOCCOC(=O)c1ccc([NH2+]CCN2CCCCC2)c2ccccc12 (3D coordinates assigned)
CCN(C)CCOCCOC(=O)c1ccc([NH2+]CCN2CCCCC2)c2ccccc12 (nonaromatic ring conformer: 86.24085245795791 kcal/mol)

>  <smiles>  (14) 
CCN(C)CCOCCOC(=O)c1ccc(NCCN2CCCCC2)c2ccccc12

>  <score_type>  (14) 
oracle

>  <origin>  (14) 
adg

>  <m_score__min__energy>  (14) 
-8.9800000000000004

>  <m_primary>  (14) 
energy

$$$$
14:0
     RDKit          3D

 50 52  0  0  0  0  0  0  0  0999 V2000
   -4.4470   21.0390  -31.3560 C   0  0  0  0  0  0  0  0  0  0  0  0
   -4.5080   22.4520  -31.9220 C   0  0  0  0  0  0  0  0  0  0  0  0
   -5.0230   23.3820  -30.9140 N   0  0  0  0  0  0  0  0  0  0  0  0
   -6.2710   23.8880  -30.8050 C   0  0  0  0  0  0  0  0  0  0  0  0
   -7.6390   23.4800  -31.8900 S   0  0  0  0  0  0  0  0  0  0  0  0
   -8.1220   22.0100  -30.9200 C   0  0  0  0  0  0  0  0  0  0  0  0
   -8.6840   20.9030  -31.8250 C   0  0  0  0  0  0  0  0  0  0  0  0
   -7.6610   19.8780  -32.1330 N   0  0  0  0  0  0  0  0  0  0  0  0
   -8.2570   18.5300  -32.0530 C   0  0  0  0  0  0  0  0  0  0  0  0
   -7.2120   17.4720  -32.4270 C   0  0  0  0  0  0  0  0  0  0  0  0
   -6.7200   17.6950  -33.7330 O   0  0  0  0  0  0  0  0  0  0  0  0
   -6.0840   18.9560  -33.7910 C   0  0  0  0  0  0  0  0  0  0  0  0
   -7.0760   20.0820  -33.4740 C   0  0  0  0  0  0  0  0  0  0  0  0
   -6.3710   24.7570  -29.7800 N   0  0  0  0  0  0  0  0  0  0  0  0
   -5.1690   24.8150  -29.2290 N   0  0  0  0  0  0  0  0  0  0  0  0
   -4.3510   24.0000  -29.9200 C   0  0  0  0  0  0  0  0  0  0  0  0
   -2.9080   23.7710  -29.5750 C   0  0  0  0  0  0  0  0  0  0  0  0
   -2.2330   25.0430  -29.3070 N   0  0  0  0  0  0  0  0  0  0  0  0
   -1.8740   25.4820  -27.9830 C   0  0  0  0  0  0  0  0  0  0  0  0
   -2.5770   24.9740  -26.8770 C   0  0  0  0  0  0  0  0  0  0  0  0
   -2.2500   25.3820  -25.5800 C   0  0  0  0  0  0  0  0  0  0  0  0
   -1.2180   26.3010  -25.3730 C   0  0  0  0  0  0  0  0  0  0  0  0
   -0.8090   26.8120  -23.7460 Cl  0  0  0  0  0  0  0  0  0  0  0  0
   -0.5120   26.8140  -26.4660 C   0  0  0  0  0  0  0  0  0  0  0  0
   -0.8370   26.4090  -27.7650 C   0  0  0  0  0  0  0  0  0  0  0  0
   -4.4489   21.0839  -30.2569 H   0  0  0  0  0  0  0  0  0  0  0  0
   -5.3213   20.4677  -31.7012 H   0  0  0  0  0  0  0  0  0  0  0  0
   -3.5267   20.5451  -31.7012 H   0  0  0  0  0  0  0  0  0  0  0  0
   -3.4977   22.7662  -32.2230 H   0  0  0  0  0  0  0  0  0  0  0  0
   -5.1803   22.4599  -32.7926 H   0  0  0  0  0  0  0  0  0  0  0  0
   -7.2387   21.6249  -30.3894 H   0  0  0  0  0  0  0  0  0  0  0  0
   -8.9057   22.3068  -30.2075 H   0  0  0  0  0  0  0  0  0  0  0  0
   -9.5304   20.4203  -31.3146 H   0  0  0  0  0  0  0  0  0  0  0  0
   -9.0056   21.3628  -32.7711 H   0  0  0  0  0  0  0  0  0  0  0  0
   -8.6091   18.3476  -31.0270 H   0  0  0  0  0  0  0  0  0  0  0  0
   -9.1023   18.4665  -32.7541 H   0  0  0  0  0  0  0  0  0  0  0  0
   -6.3766   17.5216  -31.7131 H   0  0  0  0  0  0  0  0  0  0  0  0
   -7.6855   16.4797  -32.3923 H   0  0  0  0  0  0  0  0  0  0  0  0
   -5.2644   18.9805  -33.0577 H   0  0  0  0  0  0  0  0  0  0  0  0
   -5.6929   19.1069  -34.8080 H   0  0  0  0  0  0  0  0  0  0  0  0
   -6.5505   21.0480  -33.4990 H   0  0  0  0  0  0  0  0  0  0  0  0
   -7.8810   20.0754  -34.2237 H   0  0  0  0  0  0  0  0  0  0  0  0
   -4.9240   25.4010  -28.4020 H   0  0  0  0  0  0  0  0  0  0  0  0
   -2.8471   23.1341  -28.6802 H   0  0  0  0  0  0  0  0  0  0  0  0
   -2.4138   23.2802  -30.4264 H   0  0  0  0  0  0  0  0  0  0  0  0
   -2.0070   25.6720  -30.1120 H   0  0  0  0  0  0  0  0  0  0  0  0
   -3.3905   24.2501  -27.0328 H   0  0  0  0  0  0  0  0  0  0  0  0
   -2.8063   24.9787  -24.7210 H   0  0  0  0  0  0  0  0  0  0  0  0
    0.3006   27.5375  -26.3038 H   0  0  0  0  0  0  0  0  0  0  0  0
   -0.2793   26.8171  -28.6208 H   0  0  0  0  0  0  0  0  0  0  0  0
  1  2  1  0
  2  3  1  0
  3  4  1  0
  4  5  1  0
  5  6  1  0
  6  7  1  0
  7  8  1  0
  8  9  1  0
  9 10  1  0
 10 11  1  0
 11 12  1  0
 12 13  1  0
  4 14  2  0
 14 15  1  0
 15 16  2  0
 16 17  1  0
 17 18  1  0
 18 19  1  0
 19 20  2  0
 20 21  1  0
 21 22  2  0
 22 23  1  0
 22 24  1  0
 24 25  2  0
 16  3  1  0
 25 19  1  0
 13  8  1  0
  1 26  1  0
  1 27  1  0
  1 28  1  0
  2 29  1  0
  2 30  1  0
  6 31  1  0
  6 32  1  0
  7 33  1  0
  7 34  1  0
  9 35  1  0
  9 36  1  0
 10 37  1  0
 10 38  1  0
 12 39  1  0
 12 40  1  0
 13 41  1  0
 13 42  1  0
 15 43  1  0
 17 44  1  0
 17 45  1  0
 18 46  1  0
 20 47  1  0
 21 48  1  0
 24 49  1  0
 25 50  1  0
M  CHG  1  15   1
M  END
>  <UniqueID>  (15) 
14

>  <SMILES>  (15) 
CCn1c(SCCN2CCOCC2)n[nH+]c1CNc1ccc(Cl)cc1

>  <Energy>  (15) 
79.40376864867605

>  <Genealogy>  (15) 
CCn1c(SCCN2CCOCC2)n[nH+]c1CNc1ccc(Cl)cc1 (protonated)
CCn1c(SCCN2CCOCC2)n[nH+]c1CNc1ccc(Cl)cc1 (3D coordinates assigned)
CCn1c(SCCN2CCOCC2)n[nH+]c1CNc1ccc(Cl)cc1 (nonaromatic ring conformer: 79.40376864867605 kcal/mol)

>  <smiles>  (15) 
CCn1c(CNc2ccc(Cl)cc2)nnc1SCCN1CCOCC1

>  <score_type>  (15) 
oracle

>  <origin>  (15) 
adg

>  <m_score__min__energy>  (15) 
-8.5099999999999998

>  <m_primary>  (15) 
energy

$$$$
15:0
     RDKit          3D

 47 49  0  0  0  0  0  0  0  0999 V2000
   -0.0660   20.8370  -35.1860 C   0  0  0  0  0  0  0  0  0  0  0  0
   -0.4990   21.5120  -34.1180 C   0  0  0  0  0  0  0  0  0  0  0  0
   -0.5610   20.8750  -32.7600 C   0  0  0  0  0  0  0  0  0  0  0  0
   -1.9510   20.7410  -32.3240 N   0  0  0  0  0  0  0  0  0  0  0  0
   -2.8100   19.8770  -32.8300 N   0  0  0  0  0  0  0  0  0  0  0  0
   -3.9980   20.1110  -32.2320 C   0  0  0  0  0  0  0  0  0  0  0  0
   -5.2520   19.3630  -32.5010 C   0  0  0  0  0  0  0  0  0  0  0  0
   -5.3070   18.4530  -33.5760 C   0  0  0  0  0  0  0  0  0  0  0  0
   -6.4820   17.7470  -33.8510 C   0  0  0  0  0  0  0  0  0  0  0  0
   -7.6140   17.9370  -33.0570 C   0  0  0  0  0  0  0  0  0  0  0  0
   -7.5750   18.8320  -31.9860 C   0  0  0  0  0  0  0  0  0  0  0  0
   -6.4020   19.5430  -31.7070 C   0  0  0  0  0  0  0  0  0  0  0  0
   -3.9180   21.1280  -31.3430 N   0  0  0  0  0  0  0  0  0  0  0  0
   -2.6230   21.4920  -31.4290 C   0  0  0  0  0  0  0  0  0  0  0  0
   -1.9140   22.8350  -30.4680 S   0  0  0  0  0  0  0  0  0  0  0  0
   -3.4380   23.1750  -29.5220 C   0  0  0  0  0  0  0  0  0  0  0  0
   -4.3100   24.1490  -30.2590 C   0  0  0  0  0  0  0  0  0  0  0  0
   -3.8590   25.2910  -30.5380 O   0  0  0  0  0  0  0  0  0  0  0  0
   -5.6230   23.7750  -30.7040 N   0  0  0  0  0  0  0  0  0  0  0  0
   -6.6520   23.4080  -29.7210 C   0  0  0  0  0  0  0  0  0  0  0  0
   -7.5830   22.3430  -30.3050 C   0  0  0  0  0  0  0  0  0  0  0  0
   -8.1440   22.7950  -31.6600 C   0  0  0  0  0  0  0  0  0  0  0  0
   -7.0090   23.1350  -32.6340 C   0  0  0  0  0  0  0  0  0  0  0  0
   -6.0730   24.1930  -32.0380 C   0  0  0  0  0  0  0  0  0  0  0  0
   -0.0307   21.3279  -36.1698 H   0  0  0  0  0  0  0  0  0  0  0  0
    0.2553   19.7901  -35.0819 H   0  0  0  0  0  0  0  0  0  0  0  0
   -0.8174   22.5583  -34.2361 H   0  0  0  0  0  0  0  0  0  0  0  0
   -0.0974   19.8785  -32.8053 H   0  0  0  0  0  0  0  0  0  0  0  0
   -0.0210   21.5101  -32.0423 H   0  0  0  0  0  0  0  0  0  0  0  0
   -2.5790   19.1750  -33.5660 H   0  0  0  0  0  0  0  0  0  0  0  0
   -4.4176   18.2969  -34.2041 H   0  0  0  0  0  0  0  0  0  0  0  0
   -6.5143   17.0411  -34.6940 H   0  0  0  0  0  0  0  0  0  0  0  0
   -8.5378   17.3811  -33.2752 H   0  0  0  0  0  0  0  0  0  0  0  0
   -8.4678   18.9786  -31.3603 H   0  0  0  0  0  0  0  0  0  0  0  0
   -6.3778   20.2470  -30.8622 H   0  0  0  0  0  0  0  0  0  0  0  0
   -3.9898   22.2348  -29.3751 H   0  0  0  0  0  0  0  0  0  0  0  0
   -3.1628   23.6100  -28.5499 H   0  0  0  0  0  0  0  0  0  0  0  0
   -6.1664   23.0106  -28.8175 H   0  0  0  0  0  0  0  0  0  0  0  0
   -7.2419   24.3012  -29.4675 H   0  0  0  0  0  0  0  0  0  0  0  0
   -7.0206   21.4075  -30.4412 H   0  0  0  0  0  0  0  0  0  0  0  0
   -8.4213   22.1874  -29.6100 H   0  0  0  0  0  0  0  0  0  0  0  0
   -8.7541   21.9848  -32.0860 H   0  0  0  0  0  0  0  0  0  0  0  0
   -8.7568   23.6952  -31.5050 H   0  0  0  0  0  0  0  0  0  0  0  0
   -6.4320   22.2229  -32.8467 H   0  0  0  0  0  0  0  0  0  0  0  0
   -7.4489   23.5368  -33.5587 H   0  0  0  0  0  0  0  0  0  0  0  0
   -5.1991   24.3169  -32.6945 H   0  0  0  0  0  0  0  0  0  0  0  0
   -6.6152   25.1463  -31.9527 H   0  0  0  0  0  0  0  0  0  0  0  0
  1  2  2  0
  2  3  1  0
  3  4  1  0
  4  5  1  0
  5  6  2  0
  6  7  1  0
  7  8  2  0
  8  9  1  0
  9 10  2  0
 10 11  1  0
 11 12  2  0
  6 13  1  0
 13 14  2  0
 14 15  1  0
 15 16  1  0
 16 17  1  0
 17 18  2  0
 17 19  1  0
 19 20  1  0
 20 21  1  0
 21 22  1  0
 22 23  1  0
 23 24  1  0
 14  4  1  0
 24 19  1  0
 12  7  1  0
  1 25  1  0
  1 26  1  0
  2 27  1  0
  3 28  1  0
  3 29  1  0
  5 30  1  0
  8 31  1  0
  9 32  1  0
 10 33  1  0
 11 34  1  0
 12 35  1  0
 16 36  1  0
 16 37  1  0
 20 38  1  0
 20 39  1  0
 21 40  1  0
 21 41  1  0
 22 42  1  0
 22 43  1  0
 23 44  1  0
 23 45  1  0
 24 46  1  0
 24 47  1  0
M  CHG  1   5   1
M  END
>  <UniqueID>  (16) 
15

>  <SMILES>  (16) 
C=CCn1[nH+]c(-c2ccccc2)nc1SCC(=O)N1CCCCC1

>  <Energy>  (16) 
73.50651173696038

>  <Genealogy>  (16) 
C=CCn1[nH+]c(-c2ccccc2)nc1SCC(=O)N1CCCCC1 (protonated)
C=CCn1[nH+]c(-c2ccccc2)nc1SCC(=O)N1CCCCC1 (3D coordinates assigned)
C=CCn1[nH+]c(-c2ccccc2)nc1SCC(=O)N1CCCCC1 (nonaromatic ring conformer: 73.50651173696038 kcal/mol)

>  <smiles>  (16) 
C=CCn1nc(-c2ccccc2)nc1SCC(=O)N1CCCCC1

>  <score_type>  (16) 
oracle

>  <origin>  (16) 
adg

>  <m_score__min__energy>  (16) 
-7.9699999999999998

>  <m_primary>  (16) 
energy

$$$$
16:0
     RDKit          3D

 53 55  0  0  0  0  0  0  0  0999 V2000
   -3.0900   21.1840  -29.3990 C   0  0  0  0  0  0  0  0  0  0  0  0
   -3.2880   22.6030  -29.7480 N   0  0  0  0  0  0  0  0  0  0  0  0
   -1.9910   23.2980  -29.7240 C   0  0  0  0  0  0  0  0  0  0  0  0
   -4.2320   23.2550  -28.8130 C   0  0  0  0  0  0  0  0  0  0  0  0
   -4.7560   24.5810  -29.3820 C   0  0  0  0  0  0  0  0  0  0  0  0
   -4.5730   24.6310  -30.8420 N   0  0  0  0  0  0  0  0  0  0  0  0
   -5.8460   24.5240  -31.5800 C   0  0  0  0  0  0  0  0  0  0  0  0
   -6.0970   23.1080  -32.1400 C   0  0  0  0  0  0  0  0  0  0  0  0
   -5.1680   22.1210  -31.5650 N   0  0  0  0  0  0  0  0  0  0  0  0
   -5.3600   20.8250  -32.1880 C   0  0  0  0  0  0  0  0  0  0  0  0
   -4.3150   20.2310  -32.9100 C   0  0  0  0  0  0  0  0  0  0  0  0
   -4.4680   19.0070  -33.5100 C   0  0  0  0  0  0  0  0  0  0  0  0
   -5.6400   18.3000  -33.4360 N   0  0  0  0  0  0  0  0  0  0  0  0
   -5.7430   16.9720  -34.0720 C   0  0  0  0  0  0  0  0  0  0  0  0
   -6.7210   18.8550  -32.7730 C   0  0  0  0  0  0  0  0  0  0  0  0
   -7.9690   18.1860  -32.7110 C   0  0  0  0  0  0  0  0  0  0  0  0
   -9.0570   18.7520  -32.0510 C   0  0  0  0  0  0  0  0  0  0  0  0
   -8.9390   19.9940  -31.4420 C   0  0  0  0  0  0  0  0  0  0  0  0
   -7.7290   20.6830  -31.4830 C   0  0  0  0  0  0  0  0  0  0  0  0
   -6.6020   20.1340  -32.1380 C   0  0  0  0  0  0  0  0  0  0  0  0
   -3.2200   18.5860  -34.2090 C   0  0  0  0  0  0  0  0  0  0  0  0
   -2.2660   19.7780  -34.0560 C   0  0  0  0  0  0  0  0  0  0  0  0
   -2.9470   20.7800  -33.1150 C   0  0  0  0  0  0  0  0  0  0  0  0
   -3.0747   21.0743  -28.3046 H   0  0  0  0  0  0  0  0  0  0  0  0
   -3.9133   20.5855  -29.8160 H   0  0  0  0  0  0  0  0  0  0  0  0
   -2.1343   20.8337  -29.8160 H   0  0  0  0  0  0  0  0  0  0  0  0
   -1.6828   23.4632  -28.6811 H   0  0  0  0  0  0  0  0  0  0  0  0
   -1.2362   22.6835  -30.2365 H   0  0  0  0  0  0  0  0  0  0  0  0
   -2.0846   24.2668  -30.2365 H   0  0  0  0  0  0  0  0  0  0  0  0
   -5.0826   22.5807  -28.6348 H   0  0  0  0  0  0  0  0  0  0  0  0
   -3.6993   23.4670  -27.8742 H   0  0  0  0  0  0  0  0  0  0  0  0
   -5.8269   24.6754  -29.1492 H   0  0  0  0  0  0  0  0  0  0  0  0
   -4.1913   25.4081  -28.9269 H   0  0  0  0  0  0  0  0  0  0  0  0
   -3.9220   23.8650  -31.1310 H   0  0  0  0  0  0  0  0  0  0  0  0
   -6.6698   24.7834  -30.8987 H   0  0  0  0  0  0  0  0  0  0  0  0
   -5.7910   25.2130  -32.4357 H   0  0  0  0  0  0  0  0  0  0  0  0
   -7.1280   22.8081  -31.9012 H   0  0  0  0  0  0  0  0  0  0  0  0
   -5.9359   23.1366  -33.2278 H   0  0  0  0  0  0  0  0  0  0  0  0
   -4.1880   22.4530  -31.7130 H   0  0  0  0  0  0  0  0  0  0  0  0
   -5.2780   22.0430  -30.5300 H   0  0  0  0  0  0  0  0  0  0  0  0
   -5.8031   16.1966  -33.2941 H   0  0  0  0  0  0  0  0  0  0  0  0
   -6.6468   16.9343  -34.6979 H   0  0  0  0  0  0  0  0  0  0  0  0
   -4.8559   16.7954  -34.6979 H   0  0  0  0  0  0  0  0  0  0  0  0
   -8.0801   17.2031  -33.1923 H   0  0  0  0  0  0  0  0  0  0  0  0
  -10.0147   18.2122  -32.0121 H   0  0  0  0  0  0  0  0  0  0  0  0
   -9.8039   20.4355  -30.9253 H   0  0  0  0  0  0  0  0  0  0  0  0
   -7.6489   21.6677  -30.9993 H   0  0  0  0  0  0  0  0  0  0  0  0
   -2.7960   17.6870  -33.7378 H   0  0  0  0  0  0  0  0  0  0  0  0
   -3.4001   18.3301  -35.2636 H   0  0  0  0  0  0  0  0  0  0  0  0
   -1.3106   19.4442  -33.6249 H   0  0  0  0  0  0  0  0  0  0  0  0
   -2.0535   20.2384  -35.0322 H   0  0  0  0  0  0  0  0  0  0  0  0
   -2.4068   20.8441  -32.1589 H   0  0  0  0  0  0  0  0  0  0  0  0
   -2.9637   21.7983  -33.5307 H   0  0  0  0  0  0  0  0  0  0  0  0
  1  2  1  0
  2  3  1  0
  2  4  1  0
  4  5  1  0
  5  6  1  0
  6  7  1  0
  7  8  1  0
  8  9  1  0
  9 10  1  0
 10 11  2  0
 11 12  1  0
 12 13  2  0
 13 14  1  0
 13 15  1  0
 15 16  2  0
 16 17  1  0
 17 18  2  0
 18 19  1  0
 19 20  2  0
 12 21  1  0
 21 22  1  0
 22 23  1  0
 20 10  1  0
 23 11  1  0
 20 15  1  0
  1 24  1  0
  1 25  1  0
  1 26  1  0
  3 27  1  0
  3 28  1  0
  3 29  1  0
  4 30  1  0
  4 31  1  0
  5 32  1  0
  5 33  1  0
  6 34  1  0
  7 35  1  0
  7 36  1  0
  8 37  1  0
  8 38  1  0
  9 39  1  0
  9 40  1  0
 14 41  1  0
 14 42  1  0
 14 43  1  0
 16 44  1  0
 17 45  1  0
 18 46  1  0
 19 47  1  0
 21 48  1  0
 21 49  1  0
 22 50  1  0
 22 51  1  0
 23 52  1  0
 23 53  1  0
M  CHG  2   9   1  13   1
M  END
>  <UniqueID>  (17) 
16

>  <SMILES>  (17) 
CN(C)CCNCC[NH2+]c1c2c([n+](C)c3ccccc13)CCC2

>  <Energy>  (17) 
73.42427188054343

>  <Genealogy>  (17) 
CN(C)CCNCC[NH2+]c1c2c([n+](C)c3ccccc13)CCC2 (protonated)
CN(C)CCNCC[NH2+]c1c2c([n+](C)c3ccccc13)CCC2 (3D coordinates assigned)
CN(C)CCNCC[NH2+]c1c2c([n+](C)c3ccccc13)CCC2 (nonaromatic ring conformer: 73.42427188054343 kcal/mol)

>  <smiles>  (17) 
CN(C)CCNCCNc1c2c([n+](C)c3ccccc13)CCC2

>  <score_type>  (17) 
oracle

>  <origin>  (17) 
adg

>  <m_score__min__energy>  (17) 
-7.6299999999999999

>  <m_primary>  (17) 
energy

$$$$
17:0
     RDKit          3D

 48 47  0  0  0  0  0  0  0  0999 V2000
   -9.2330   23.4010  -32.3220 C   0  0  0  0  0  0  0  0  0  0  0  0
   -8.8390   22.1630  -31.5150 C   0  0  0  0  0  0  0  0  0  0  0  0
   -8.0150   21.2230  -32.2920 N   0  0  0  0  0  0  0  0  0  0  0  0
   -8.7450   20.0130  -32.7160 C   0  0  0  0  0  0  0  0  0  0  0  0
   -8.1210   18.7320  -32.1380 C   0  0  0  0  0  0  0  0  0  0  0  0
   -6.6880   18.5290  -32.6610 C   0  0  0  0  0  0  0  0  0  0  0  0
   -5.9240   19.7920  -32.6890 N   0  0  0  0  0  0  0  0  0  0  0  0
   -4.4870   19.5920  -32.9700 C   0  0  0  0  0  0  0  0  0  0  0  0
   -3.6400   20.7970  -32.5200 C   0  0  0  0  0  0  0  0  0  0  0  0
   -4.2140   22.1440  -32.9980 C   0  0  0  0  0  0  0  0  0  0  0  0
   -5.5960   22.3800  -32.5380 N   0  0  0  0  0  0  0  0  0  0  0  0
   -5.8650   23.7820  -32.1640 C   0  0  0  0  0  0  0  0  0  0  0  0
   -5.6480   24.0070  -30.6450 C   0  0  0  0  0  0  0  0  0  0  0  0
   -5.6070   22.6530  -29.9060 C   0  0  0  0  0  0  0  0  0  0  0  0
   -6.8190   24.8430  -30.0910 C   0  0  0  0  0  0  0  0  0  0  0  0
   -4.3300   24.7670  -30.3980 C   0  0  0  0  0  0  0  0  0  0  0  0
   -9.4934   24.2192  -31.6345 H   0  0  0  0  0  0  0  0  0  0  0  0
   -8.3886   23.7095  -32.9560 H   0  0  0  0  0  0  0  0  0  0  0  0
  -10.1003   23.1647  -32.9560 H   0  0  0  0  0  0  0  0  0  0  0  0
   -8.2687   22.4848  -30.6311 H   0  0  0  0  0  0  0  0  0  0  0  0
   -9.7644   21.6406  -31.2308 H   0  0  0  0  0  0  0  0  0  0  0  0
   -7.5740   21.7210  -33.1020 H   0  0  0  0  0  0  0  0  0  0  0  0
   -9.7868   20.0875  -32.3710 H   0  0  0  0  0  0  0  0  0  0  0  0
   -8.6928   19.9515  -33.8130 H   0  0  0  0  0  0  0  0  0  0  0  0
   -8.0956   18.8081  -31.0409 H   0  0  0  0  0  0  0  0  0  0  0  0
   -8.7324   17.8732  -32.4519 H   0  0  0  0  0  0  0  0  0  0  0  0
   -6.1688   17.8146  -32.0052 H   0  0  0  0  0  0  0  0  0  0  0  0
   -6.7536   18.1493  -33.6913 H   0  0  0  0  0  0  0  0  0  0  0  0
   -6.3270   20.4310  -33.4150 H   0  0  0  0  0  0  0  0  0  0  0  0
   -6.0380   20.2790  -31.7690 H   0  0  0  0  0  0  0  0  0  0  0  0
   -4.1416   18.6951  -32.4350 H   0  0  0  0  0  0  0  0  0  0  0  0
   -4.3653   19.4771  -34.0572 H   0  0  0  0  0  0  0  0  0  0  0  0
   -3.5959   20.8043  -31.4209 H   0  0  0  0  0  0  0  0  0  0  0  0
   -2.6419   20.6853  -32.9686 H   0  0  0  0  0  0  0  0  0  0  0  0
   -3.5745   22.9528  -32.6148 H   0  0  0  0  0  0  0  0  0  0  0  0
   -4.2337   22.1205  -34.0976 H   0  0  0  0  0  0  0  0  0  0  0  0
   -6.2850   22.0620  -33.2600 H   0  0  0  0  0  0  0  0  0  0  0  0
   -5.1853   24.4401  -32.7252 H   0  0  0  0  0  0  0  0  0  0  0  0
   -6.9133   24.0125  -32.4047 H   0  0  0  0  0  0  0  0  0  0  0  0
   -5.6123   22.8277  -28.8200 H   0  0  0  0  0  0  0  0  0  0  0  0
   -6.4875   22.0559  -30.1856 H   0  0  0  0  0  0  0  0  0  0  0  0
   -4.6920   22.1102  -30.1856 H   0  0  0  0  0  0  0  0  0  0  0  0
   -6.7942   24.8253  -28.9914 H   0  0  0  0  0  0  0  0  0  0  0  0
   -6.7273   25.8811  -30.4432 H   0  0  0  0  0  0  0  0  0  0  0  0
   -7.7710   24.4191  -30.4432 H   0  0  0  0  0  0  0  0  0  0  0  0
   -4.1604   24.8648  -29.3156 H   0  0  0  0  0  0  0  0  0  0  0  0
   -3.4958   24.2112  -30.8511 H   0  0  0  0  0  0  0  0  0  0  0  0
   -4.3931   25.7674  -30.8511 H   0  0  0  0  0  0  0  0  0  0  0  0
  1  2  1  0
  2  3  1  0
  3  4  1  0
  4  5  1  0
  5  6  1  0
  6  7  1  0
  7  8  1  0
  8  9  1  0
  9 10  1  0
 10 11  1  0
 11 12  1  0
 12 13  1  0
 13 14  1  0
 13 15  1  0
 13 16  1  0
  1 17  1  0
  1 18  1  0
  1 19  1  0
  2 20  1  0
  2 21  1  0
  3 22  1  0
  4 23  1  0
  4 24  1  0
  5 25  1  0
  5 26  1  0
  6 27  1  0
  6 28  1  0
  7 29  1  0
  7 30  1  0
  8 31  1  0
  8 32  1  0
  9 33  1  0
  9 34  1  0
 10 35  1  0
 10 36  1  0
 11 37  1  0
 12 38  1  0
 12 39  1  0
 14 40  1  0
 14 41  1  0
 14 42  1  0
 15 43  1  0
 15 44  1  0
 15 45  1  0
 16 46  1  0
 16 47  1  0
 16 48  1  0
M  CHG  1   7   1
M  END
>  <UniqueID>  (18) 
17

>  <SMILES>  (18) 
CCNCCC[NH2+]CCCNCC(C)(C)C

>  <Energy>  (18) 
35.82010876481304

>  <Genealogy>  (18) 
CCNCCC[NH2+]CCCNCC(C)(C)C (protonated)
CCNCCC[NH2+]CCCNCC(C)(C)C (3D coordinates assigned)
CCNCCC[NH2+]CCCNCC(C)(C)C (optimized conformer: 35.82010876481304 kcal/mol)

>  <smiles>  (18) 
CCNCCCNCCCNCC(C)(C)C

>  <score_type>  (18) 
oracle

>  <origin>  (18) 
adg

>  <m_score__min__energy>  (18) 
-5.7599999999999998

>  <m_primary>  (18) 
energy

$$$$
18:0
     RDKit          3D

 67 69  0  0  0  0  0  0  0  0999 V2000
   -6.1430   25.3020  -29.5380 C   0  0  0  0  0  0  0  0  0  0  0  0
   -5.3560   25.4640  -30.8330 C   0  0  0  0  0  0  0  0  0  0  0  0
   -3.9420   25.1390  -30.6040 N   0  0  0  0  0  0  0  0  0  0  0  0
   -3.7930   23.8780  -29.8640 C   0  0  0  0  0  0  0  0  0  0  0  0
   -3.4990   22.7240  -30.8290 C   0  0  0  0  0  0  0  0  0  0  0  0
   -4.3450   22.8080  -32.0220 N   0  0  0  0  0  0  0  0  0  0  0  0
   -5.1410   21.6810  -32.4160 C   0  0  0  0  0  0  0  0  0  0  0  0
   -6.5320   21.7420  -32.2090 C   0  0  0  0  0  0  0  0  0  0  0  0
   -7.1530   22.9610  -31.8490 C   0  0  0  0  0  0  0  0  0  0  0  0
   -8.5190   23.0170  -31.5890 C   0  0  0  0  0  0  0  0  0  0  0  0
   -9.2880   21.8640  -31.6660 C   0  0  0  0  0  0  0  0  0  0  0  0
   -8.7020   20.6530  -32.0300 C   0  0  0  0  0  0  0  0  0  0  0  0
   -7.3190   20.5710  -32.3420 C   0  0  0  0  0  0  0  0  0  0  0  0
   -6.7300   19.3840  -32.7250 N   0  0  0  0  0  0  0  0  0  0  0  0
   -7.5800   18.2270  -33.0930 C   0  0  0  0  0  0  0  0  0  0  0  0
   -5.3540   19.2840  -32.8120 C   0  0  0  0  0  0  0  0  0  0  0  0
   -4.7210   18.0210  -32.8880 C   0  0  0  0  0  0  0  0  0  0  0  0
   -3.3530   17.9110  -33.0850 C   0  0  0  0  0  0  0  0  0  0  0  0
   -2.5850   19.0500  -33.2630 C   0  0  0  0  0  0  0  0  0  0  0  0
   -3.1530   20.3300  -33.1670 C   0  0  0  0  0  0  0  0  0  0  0  0
   -2.3260   21.4520  -33.5660 N   0  0  0  0  0  0  0  0  0  0  0  0
   -0.8840   21.1690  -33.3770 C   0  0  0  0  0  0  0  0  0  0  0  0
   -0.4820   21.1410  -31.8900 C   0  0  0  0  0  0  0  0  0  0  0  0
    0.5540   20.0490  -31.5110 C   0  0  0  0  0  0  0  0  0  0  0  0
    0.3150   19.2590  -30.2570 N   0  0  0  0  0  0  0  0  0  0  0  0
    1.4980   19.2440  -29.3650 C   0  0  0  0  0  0  0  0  0  0  0  0
   -0.8640   19.7690  -29.5140 C   0  0  0  0  0  0  0  0  0  0  0  0
    0.0180   17.8570  -30.6480 C   0  0  0  0  0  0  0  0  0  0  0  0
   -4.5380   20.4560  -32.8020 C   0  0  0  0  0  0  0  0  0  0  0  0
   -5.4692   25.4407  -28.6797 H   0  0  0  0  0  0  0  0  0  0  0  0
   -6.9450   26.0539  -29.4998 H   0  0  0  0  0  0  0  0  0  0  0  0
   -6.5828   24.2945  -29.4998 H   0  0  0  0  0  0  0  0  0  0  0  0
   -5.7667   24.7867  -31.5963 H   0  0  0  0  0  0  0  0  0  0  0  0
   -5.4365   26.5056  -31.1772 H   0  0  0  0  0  0  0  0  0  0  0  0
   -3.4900   25.0120  -31.5410 H   0  0  0  0  0  0  0  0  0  0  0  0
   -2.9625   23.9732  -29.1491 H   0  0  0  0  0  0  0  0  0  0  0  0
   -4.7301   23.6655  -29.3285 H   0  0  0  0  0  0  0  0  0  0  0  0
   -2.4429   22.7698  -31.1331 H   0  0  0  0  0  0  0  0  0  0  0  0
   -3.7116   21.7750  -30.3151 H   0  0  0  0  0  0  0  0  0  0  0  0
   -4.6150   23.7470  -32.3950 H   0  0  0  0  0  0  0  0  0  0  0  0
   -6.5482   23.8767  -31.7736 H   0  0  0  0  0  0  0  0  0  0  0  0
   -8.9893   23.9750  -31.3225 H   0  0  0  0  0  0  0  0  0  0  0  0
  -10.3635   21.9062  -31.4390 H   0  0  0  0  0  0  0  0  0  0  0  0
   -9.3214   19.7451  -32.0764 H   0  0  0  0  0  0  0  0  0  0  0  0
   -7.9427   17.7332  -32.1794 H   0  0  0  0  0  0  0  0  0  0  0  0
   -8.4379   18.5763  -33.6863 H   0  0  0  0  0  0  0  0  0  0  0  0
   -6.9902   17.5128  -33.6863 H   0  0  0  0  0  0  0  0  0  0  0  0
   -5.3264   17.1079  -32.7888 H   0  0  0  0  0  0  0  0  0  0  0  0
   -2.8775   16.9192  -33.0999 H   0  0  0  0  0  0  0  0  0  0  0  0
   -1.5120   18.9497  -33.4833 H   0  0  0  0  0  0  0  0  0  0  0  0
   -2.6070   22.3230  -33.0670 H   0  0  0  0  0  0  0  0  0  0  0  0
   -2.5370   21.6750  -34.5660 H   0  0  0  0  0  0  0  0  0  0  0  0
   -0.6544   20.1904  -33.8237 H   0  0  0  0  0  0  0  0  0  0  0  0
   -0.3168   21.9765  -33.8631 H   0  0  0  0  0  0  0  0  0  0  0  0
   -0.0537   22.1213  -31.6338 H   0  0  0  0  0  0  0  0  0  0  0  0
   -1.3977   20.9042  -31.3284 H   0  0  0  0  0  0  0  0  0  0  0  0
    0.5963   19.3338  -32.3457 H   0  0  0  0  0  0  0  0  0  0  0  0
    1.4819   20.6058  -31.3136 H   0  0  0  0  0  0  0  0  0  0  0  0
    1.1665   19.2482  -28.3162 H   0  0  0  0  0  0  0  0  0  0  0  0
    2.0915   18.3383  -29.5583 H   0  0  0  0  0  0  0  0  0  0  0  0
    2.1143   20.1344  -29.5583 H   0  0  0  0  0  0  0  0  0  0  0  0
   -0.6787   19.6889  -28.4327 H   0  0  0  0  0  0  0  0  0  0  0  0
   -1.0370   20.8224  -29.7793 H   0  0  0  0  0  0  0  0  0  0  0  0
   -1.7502   19.1738  -29.7793 H   0  0  0  0  0  0  0  0  0  0  0  0
   -0.1119   17.2439  -29.7440 H   0  0  0  0  0  0  0  0  0  0  0  0
   -0.9057   17.8306  -31.2448 H   0  0  0  0  0  0  0  0  0  0  0  0
    0.8516   17.4583  -31.2448 H   0  0  0  0  0  0  0  0  0  0  0  0
  1  2  1  0
  2  3  1  0
  3  4  1  0
  4  5  1  0
  5  6  1  0
  6  7  1  0
  7  8  2  0
  8  9  1  0
  9 10  2  0
 10 11  1  0
 11 12  2  0
 12 13  1  0
 13 14  2  0
 14 15  1  0
 14 16  1  0
 16 17  2  0
 17 18  1  0
 18 19  2  0
 19 20  1  0
 20 21  1  0
 21 22  1  0
 22 23  1  0
 23 24  1  0
 24 25  1  0
 25 26  1  0
 25 27  1  0
 25 28  1  0
 20 29  2  0
 29  7  1  0
 13  8  1  0
 29 16  1  0
  1 30  1  0
  1 31  1  0
  1 32  1  0
  2 33  1  0
  2 34  1  0
  3 35  1  0
  4 36  1  0
  4 37  1  0
  5 38  1  0
  5 39  1  0
  6 40  1  0
  9 41  1  0
 10 42  1  0
 11 43  1  0
 12 44  1  0
 15 45  1  0
 15 46  1  0
 15 47  1  0
 17 48  1  0
 18 49  1  0
 19 50  1  0
 21 51  1  0
 21 52  1  0
 22 53  1  0
 22 54  1  0
 23 55  1  0
 23 56  1  0
 24 57  1  0
 24 58  1  0
 26 59  1  0
 26 60  1  0
 26 61  1  0
 27 62  1  0
 27 63  1  0
 27 64  1  0
 28 65  1  0
 28 66  1  0
 28 67  1  0
M  CHG  3  14   1  21   1  25   1
M  END
>  <UniqueID>  (19) 
18

>  <SMILES>  (19) 
CCNCCNc1c2ccccc2[n+](C)c2cccc([NH2+]CCC[N+](C)(C)C)c12

>  <Energy>  (19) 
111.409645007573

>  <Genealogy>  (19) 
CCNCCNc1c2ccccc2[n+](C)c2cccc([NH2+]CCC[N+](C)(C)C)c12 (protonated)
CCNCCNc1c2ccccc2[n+](C)c2cccc([NH2+]CCC[N+](C)(C)C)c12 (3D coordinates assigned)
CCNCCNc1c2ccccc2[n+](C)c2cccc([NH2+]CCC[N+](C)(C)C)c12 (optimized conformer: 111.409645007573 kcal/mol)

>  <smiles>  (19) 
CCNCCNc1c2ccccc2[n+](C)c2cccc(NCCC[N+](C)(C)C)c12

>  <score_type>  (19) 
oracle

>  <origin>  (19) 
adg

>  <m_score__min__energy>  (19) 
-7.8300000000000001

>  <m_primary>  (19) 
energy

$$$$
19:0
     RDKit          3D

 55 57  0  0  0  0  0  0  0  0999 V2000
   -6.0320   25.4060  -29.8280 C   0  0  0  0  0  0  0  0  0  0  0  0
   -5.0790   24.7730  -30.8480 C   0  0  0  0  0  0  0  0  0  0  0  0
   -3.6630   24.9220  -30.4660 N   0  0  0  0  0  0  0  0  0  0  0  0
   -3.4250   24.5180  -29.0700 C   0  0  0  0  0  0  0  0  0  0  0  0
   -3.5000   22.9900  -28.9110 C   0  0  0  0  0  0  0  0  0  0  0  0
   -2.2460   22.2180  -29.3810 C   0  0  0  0  0  0  0  0  0  0  0  0
   -1.7050   22.6650  -30.6750 N   0  0  0  0  0  0  0  0  0  0  0  0
   -1.2980   21.5490  -31.5390 C   0  0  0  0  0  0  0  0  0  0  0  0
   -2.2880   21.4110  -32.6980 C   0  0  0  0  0  0  0  0  0  0  0  0
   -3.6970   21.8630  -32.2860 C   0  0  0  0  0  0  0  0  0  0  0  0
   -4.6290   21.7550  -33.4190 N   0  0  0  0  0  0  0  0  0  0  0  0
   -5.7320   20.8760  -33.0810 C   0  0  0  0  0  0  0  0  0  0  0  0
   -5.6850   19.4690  -33.2880 C   0  0  0  0  0  0  0  0  0  0  0  0
   -4.5440   18.8400  -33.8390 C   0  0  0  0  0  0  0  0  0  0  0  0
   -4.5400   17.4740  -34.1070 C   0  0  0  0  0  0  0  0  0  0  0  0
   -5.6690   16.7050  -33.8500 C   0  0  0  0  0  0  0  0  0  0  0  0
   -6.8020   17.2890  -33.2870 C   0  0  0  0  0  0  0  0  0  0  0  0
   -6.8280   18.6660  -32.9510 C   0  0  0  0  0  0  0  0  0  0  0  0
   -7.9330   19.2370  -32.3320 N   0  0  0  0  0  0  0  0  0  0  0  0
   -9.0490   18.3970  -31.8490 C   0  0  0  0  0  0  0  0  0  0  0  0
   -7.9810   20.6010  -32.1810 C   0  0  0  0  0  0  0  0  0  0  0  0
   -9.0840   21.3510  -31.7120 C   0  0  0  0  0  0  0  0  0  0  0  0
   -8.8470   22.7190  -31.6750 C   0  0  0  0  0  0  0  0  0  0  0  0
   -7.2880   23.0100  -32.2340 S   0  0  0  0  0  0  0  0  0  0  0  0
   -6.9040   21.3990  -32.5300 C   0  0  0  0  0  0  0  0  0  0  0  0
   -5.6851   25.1756  -28.8099 H   0  0  0  0  0  0  0  0  0  0  0  0
   -6.0505   26.4965  -29.9710 H   0  0  0  0  0  0  0  0  0  0  0  0
   -7.0444   25.0002  -29.9710 H   0  0  0  0  0  0  0  0  0  0  0  0
   -5.3113   23.7009  -30.9298 H   0  0  0  0  0  0  0  0  0  0  0  0
   -5.2229   25.2924  -31.8069 H   0  0  0  0  0  0  0  0  0  0  0  0
   -3.0770   24.3310  -31.1010 H   0  0  0  0  0  0  0  0  0  0  0  0
   -2.4264   24.8619  -28.7625 H   0  0  0  0  0  0  0  0  0  0  0  0
   -4.2036   24.9718  -28.4392 H   0  0  0  0  0  0  0  0  0  0  0  0
   -3.6584   22.7659  -27.8458 H   0  0  0  0  0  0  0  0  0  0  0  0
   -4.3249   22.6556  -29.5573 H   0  0  0  0  0  0  0  0  0  0  0  0
   -1.4615   22.3403  -28.6196 H   0  0  0  0  0  0  0  0  0  0  0  0
   -2.5546   21.1707  -29.5152 H   0  0  0  0  0  0  0  0  0  0  0  0
   -2.4060   23.2610  -31.1730 H   0  0  0  0  0  0  0  0  0  0  0  0
   -0.2915   21.7430  -31.9381 H   0  0  0  0  0  0  0  0  0  0  0  0
   -1.2882   20.6178  -30.9535 H   0  0  0  0  0  0  0  0  0  0  0  0
   -1.9442   22.0316  -33.5386 H   0  0  0  0  0  0  0  0  0  0  0  0
   -2.3350   20.3515  -32.9899 H   0  0  0  0  0  0  0  0  0  0  0  0
   -4.0541   21.2269  -31.4626 H   0  0  0  0  0  0  0  0  0  0  0  0
   -3.6516   22.9138  -31.9639 H   0  0  0  0  0  0  0  0  0  0  0  0
   -4.1350   21.4260  -34.2780 H   0  0  0  0  0  0  0  0  0  0  0  0
   -4.9890   22.7080  -33.6550 H   0  0  0  0  0  0  0  0  0  0  0  0
   -3.6476   19.4385  -34.0587 H   0  0  0  0  0  0  0  0  0  0  0  0
   -3.6389   17.0008  -34.5242 H   0  0  0  0  0  0  0  0  0  0  0  0
   -5.6681   15.6319  -34.0918 H   0  0  0  0  0  0  0  0  0  0  0  0
   -7.6922   16.6705  -33.0999 H   0  0  0  0  0  0  0  0  0  0  0  0
   -9.0551   18.3924  -30.7490 H   0  0  0  0  0  0  0  0  0  0  0  0
  -10.0014   18.8043  -32.2192 H   0  0  0  0  0  0  0  0  0  0  0  0
   -8.9211   17.3691  -32.2192 H   0  0  0  0  0  0  0  0  0  0  0  0
  -10.0373   20.8953  -31.4061 H   0  0  0  0  0  0  0  0  0  0  0  0
   -9.5604   23.4847  -31.3364 H   0  0  0  0  0  0  0  0  0  0  0  0
  1  2  1  0
  2  3  1  0
  3  4  1  0
  4  5  1  0
  5  6  1  0
  6  7  1  0
  7  8  1  0
  8  9  1  0
  9 10  1  0
 10 11  1  0
 11 12  1  0
 12 13  2  0
 13 14  1  0
 14 15  2  0
 15 16  1  0
 16 17  2  0
 17 18  1  0
 18 19  2  0
 19 20  1  0
 19 21  1  0
 21 22  1  0
 22 23  2  0
 23 24  1  0
 24 25  1  0
 25 12  1  0
 18 13  1  0
 25 21  2  0
  1 26  1  0
  1 27  1  0
  1 28  1  0
  2 29  1  0
  2 30  1  0
  3 31  1  0
  4 32  1  0
  4 33  1  0
  5 34  1  0
  5 35  1  0
  6 36  1  0
  6 37  1  0
  7 38  1  0
  8 39  1  0
  8 40  1  0
  9 41  1  0
  9 42  1  0
 10 43  1  0
 10 44  1  0
 11 45  1  0
 11 46  1  0
 14 47  1  0
 15 48  1  0
 16 49  1  0
 17 50  1  0
 20 51  1  0
 20 52  1  0
 20 53  1  0
 22 54  1  0
 23 55  1  0
M  CHG  2  11   1  19   1
M  END
>  <UniqueID>  (20) 
19

>  <SMILES>  (20) 
CCNCCCNCCC[NH2+]c1c2ccccc2[n+](C)c2ccsc12

>  <Energy>  (20) 
95.15736883890784

>  <Genealogy>  (20) 
CCNCCCNCCC[NH2+]c1c2ccccc2[n+](C)c2ccsc12 (protonated)
CCNCCCNCCC[NH2+]c1c2ccccc2[n+](C)c2ccsc12 (3D coordinates assigned)
CCNCCCNCCC[NH2+]c1c2ccccc2[n+](C)c2ccsc12 (optimized conformer: 95.15736883890784 kcal/mol)

>  <smiles>  (20) 
CCNCCCNCCCNc1c2ccccc2[n+](C)c2ccsc12

>  <score_type>  (20) 
oracle

>  <origin>  (20) 
adg

>  <m_score__min__energy>  (20) 
-8.2400000000000002

>  <m_primary>  (20) 
energy

$$$$
20:0
     RDKit          3D

 40 42  0  0  0  0  0  0  0  0999 V2000
   -8.7330   18.1770  -31.6180 C   0  0  0  0  0  0  0  0  0  0  0  0
   -7.7770   19.1220  -32.2320 N   0  0  0  0  0  0  0  0  0  0  0  0
   -6.6510   18.6400  -32.8560 C   0  0  0  0  0  0  0  0  0  0  0  0
   -5.5750   19.4970  -33.1590 C   0  0  0  0  0  0  0  0  0  0  0  0
   -5.7080   20.8990  -32.9690 C   0  0  0  0  0  0  0  0  0  0  0  0
   -4.5950   21.7830  -33.2850 N   0  0  0  0  0  0  0  0  0  0  0  0
   -3.6080   21.8730  -32.1880 C   0  0  0  0  0  0  0  0  0  0  0  0
   -4.2480   22.1050  -30.8100 C   0  0  0  0  0  0  0  0  0  0  0  0
   -4.4830   23.9930  -30.4260 Br  0  0  0  0  0  0  0  0  0  0  0  0
   -6.9620   21.4020  -32.5050 C   0  0  0  0  0  0  0  0  0  0  0  0
   -7.2150   22.7900  -32.3450 C   0  0  0  0  0  0  0  0  0  0  0  0
   -8.4580   23.2540  -31.9240 C   0  0  0  0  0  0  0  0  0  0  0  0
   -9.4830   22.3620  -31.6560 C   0  0  0  0  0  0  0  0  0  0  0  0
   -9.2650   20.9950  -31.7780 C   0  0  0  0  0  0  0  0  0  0  0  0
   -8.0010   20.4820  -32.1680 C   0  0  0  0  0  0  0  0  0  0  0  0
   -4.2820   18.8240  -33.6000 C   0  0  0  0  0  0  0  0  0  0  0  0
   -4.5270   17.8260  -34.7410 C   0  0  0  0  0  0  0  0  0  0  0  0
   -5.8320   17.0170  -34.5940 C   0  0  0  0  0  0  0  0  0  0  0  0
   -6.4980   17.1690  -33.2200 C   0  0  0  0  0  0  0  0  0  0  0  0
   -8.6638   18.2455  -30.5223 H   0  0  0  0  0  0  0  0  0  0  0  0
   -9.7548   18.4298  -31.9373 H   0  0  0  0  0  0  0  0  0  0  0  0
   -8.4920   17.1523  -31.9373 H   0  0  0  0  0  0  0  0  0  0  0  0
   -4.1180   21.4370  -34.1460 H   0  0  0  0  0  0  0  0  0  0  0  0
   -4.8850   22.7370  -33.5810 H   0  0  0  0  0  0  0  0  0  0  0  0
   -3.0376   20.9331  -32.1539 H   0  0  0  0  0  0  0  0  0  0  0  0
   -2.9659   22.7410  -32.3986 H   0  0  0  0  0  0  0  0  0  0  0  0
   -5.2316   21.6130  -30.7879 H   0  0  0  0  0  0  0  0  0  0  0  0
   -3.5755   21.6844  -30.0479 H   0  0  0  0  0  0  0  0  0  0  0  0
   -6.4133   23.5125  -32.5578 H   0  0  0  0  0  0  0  0  0  0  0  0
   -8.6270   24.3343  -31.8036 H   0  0  0  0  0  0  0  0  0  0  0  0
  -10.4701   22.7358  -31.3464 H   0  0  0  0  0  0  0  0  0  0  0  0
  -10.0887   20.2969  -31.5681 H   0  0  0  0  0  0  0  0  0  0  0  0
   -3.5774   19.5951  -33.9449 H   0  0  0  0  0  0  0  0  0  0  0  0
   -3.8703   18.2725  -32.7419 H   0  0  0  0  0  0  0  0  0  0  0  0
   -4.5710   18.3855  -35.6871 H   0  0  0  0  0  0  0  0  0  0  0  0
   -3.6984   17.1029  -34.7163 H   0  0  0  0  0  0  0  0  0  0  0  0
   -6.5406   17.3574  -35.3634 H   0  0  0  0  0  0  0  0  0  0  0  0
   -5.5678   15.9554  -34.7085 H   0  0  0  0  0  0  0  0  0  0  0  0
   -7.4918   16.6982  -33.2463 H   0  0  0  0  0  0  0  0  0  0  0  0
   -5.8648   16.6815  -32.4641 H   0  0  0  0  0  0  0  0  0  0  0  0
  1  2  1  0
  2  3  2  0
  3  4  1  0
  4  5  2  0
  5  6  1  0
  6  7  1  0
  7  8  1  0
  8  9  1  0
  5 10  1  0
 10 11  2  0
 11 12  1  0
 12 13  2  0
 13 14  1  0
 14 15  2  0
  4 16  1  0
 16 17  1  0
 17 18  1  0
 18 19  1  0
 15  2  1  0
 19  3  1  0
 15 10  1  0
  1 20  1  0
  1 21  1  0
  1 22  1  0
  6 23  1  0
  6 24  1  0
  7 25  1  0
  7 26  1  0
  8 27  1  0
  8 28  1  0
 11 29  1  0
 12 30  1  0
 13 31  1  0
 14 32  1  0
 16 33  1  0
 16 34  1  0
 17 35  1  0
 17 36  1  0
 18 37  1  0
 18 38  1  0
 19 39  1  0
 19 40  1  0
M  CHG  2   2   1   6   1
M  END
>  <UniqueID>  (21) 
20

>  <SMILES>  (21) 
C[n+]1c2c(c([NH2+]CCBr)c3ccccc31)CCCC2

>  <Energy>  (21) 
69.7152619902803

>  <Genealogy>  (21) 
C[n+]1c2c(c([NH2+]CCBr)c3ccccc31)CCCC2 (protonated)
C[n+]1c2c(c([NH2+]CCBr)c3ccccc31)CCCC2 (3D coordinates assigned)
C[n+]1c2c(c([NH2+]CCBr)c3ccccc31)CCCC2 (nonaromatic ring conformer: 69.7152619902803 kcal/mol)

>  <smiles>  (21) 
C[n+]1c2c(c(NCCBr)c3ccccc31)CCCC2

>  <score_type>  (21) 
oracle

>  <origin>  (21) 
adg

>  <m_score__min__energy>  (21) 
-7.29

>  <m_primary>  (21) 
energy

$$$$
