0:0
     RDKit          3D

 58 59  0  0  0  0  0  0  0  0999 V2000
   -5.7670   15.1550  -33.8090 C   0  0  0  0  0  0  0  0  0  0  0  0
   -6.7970   16.2150  -34.1880 C   0  0  0  0  0  0  0  0  0  0  0  0
   -7.2250   17.0350  -32.9650 C   0  0  0  0  0  0  0  0  0  0  0  0
   -6.5050   18.3250  -32.9260 N   0  0  0  0  0  0  0  0  0  0  0  0
   -5.1900   18.3110  -33.2970 C   0  0  0  0  0  0  0  0  0  0  0  0
   -4.4220   19.4660  -33.2880 C   0  0  0  0  0  0  0  0  0  0  0  0
   -4.9850   20.6910  -32.9160 C   0  0  0  0  0  0  0  0  0  0  0  0
   -4.1440   21.8690  -32.9110 N   0  0  0  0  0  0  0  0  0  0  0  0
   -2.8270   21.5590  -33.4910 C   0  0  0  0  0  0  0  0  0  0  0  0
   -1.7070   21.8210  -32.4750 C   0  0  0  0  0  0  0  0  0  0  0  0
   -2.2520   22.2820  -31.2530 O   0  0  0  0  0  0  0  0  0  0  0  0
   -1.9840   21.3810  -30.1940 C   0  0  0  0  0  0  0  0  0  0  0  0
   -3.2760   21.0060  -29.4620 C   0  0  0  0  0  0  0  0  0  0  0  0
   -4.3470   21.8320  -29.8840 O   0  0  0  0  0  0  0  0  0  0  0  0
   -4.6090   22.8600  -28.9440 C   0  0  0  0  0  0  0  0  0  0  0  0
   -4.0770   24.2040  -29.4480 C   0  0  0  0  0  0  0  0  0  0  0  0
   -4.2890   24.3200  -30.8970 N   0  0  0  0  0  0  0  0  0  0  0  0
   -5.6640   24.7230  -31.2290 C   0  0  0  0  0  0  0  0  0  0  0  0
   -6.4210   25.2830  -30.0220 C   0  0  0  0  0  0  0  0  0  0  0  0
   -6.3510   20.7240  -32.5320 C   0  0  0  0  0  0  0  0  0  0  0  0
   -6.9780   21.9220  -32.1200 C   0  0  0  0  0  0  0  0  0  0  0  0
   -8.3250   21.9380  -31.7690 C   0  0  0  0  0  0  0  0  0  0  0  0
   -9.0760   20.7720  -31.8210 C   0  0  0  0  0  0  0  0  0  0  0  0
   -8.4840   19.5720  -32.2100 C   0  0  0  0  0  0  0  0  0  0  0  0
   -7.1120   19.5130  -32.5610 C   0  0  0  0  0  0  0  0  0  0  0  0
   -5.6990   15.0850  -32.7133 H   0  0  0  0  0  0  0  0  0  0  0  0
   -6.0739   14.1820  -34.2202 H   0  0  0  0  0  0  0  0  0  0  0  0
   -4.7856   15.4338  -34.2202 H   0  0  0  0  0  0  0  0  0  0  0  0
   -6.3578   16.8904  -34.9369 H   0  0  0  0  0  0  0  0  0  0  0  0
   -7.6843   15.7083  -34.5954 H   0  0  0  0  0  0  0  0  0  0  0  0
   -8.3069   17.2263  -33.0186 H   0  0  0  0  0  0  0  0  0  0  0  0
   -6.9838   16.4665  -32.0547 H   0  0  0  0  0  0  0  0  0  0  0  0
   -4.7299   17.3621  -33.6100 H   0  0  0  0  0  0  0  0  0  0  0  0
   -3.3614   19.4181  -33.5758 H   0  0  0  0  0  0  0  0  0  0  0  0
   -4.0500   22.2550  -31.9450 H   0  0  0  0  0  0  0  0  0  0  0  0
   -4.5910   22.6260  -33.4800 H   0  0  0  0  0  0  0  0  0  0  0  0
   -2.8041   20.5000  -33.7875 H   0  0  0  0  0  0  0  0  0  0  0  0
   -2.6667   22.2060  -34.3661 H   0  0  0  0  0  0  0  0  0  0  0  0
   -1.1531   20.8876  -32.2964 H   0  0  0  0  0  0  0  0  0  0  0  0
   -1.0301   22.5888  -32.8778 H   0  0  0  0  0  0  0  0  0  0  0  0
   -1.5233   20.4698  -30.6031 H   0  0  0  0  0  0  0  0  0  0  0  0
   -1.3017   21.8666  -29.4808 H   0  0  0  0  0  0  0  0  0  0  0  0
   -3.5224   19.9561  -29.6787 H   0  0  0  0  0  0  0  0  0  0  0  0
   -3.1246   21.1467  -28.3816 H   0  0  0  0  0  0  0  0  0  0  0  0
   -5.6950   22.9376  -28.7874 H   0  0  0  0  0  0  0  0  0  0  0  0
   -4.1033   22.6119  -27.9992 H   0  0  0  0  0  0  0  0  0  0  0  0
   -4.6078   25.0203  -28.9362 H   0  0  0  0  0  0  0  0  0  0  0  0
   -2.9995   24.2669  -29.2358 H   0  0  0  0  0  0  0  0  0  0  0  0
   -4.0810   23.3960  -31.3490 H   0  0  0  0  0  0  0  0  0  0  0  0
   -5.6255   25.4962  -32.0105 H   0  0  0  0  0  0  0  0  0  0  0  0
   -6.2005   23.8260  -31.5719 H   0  0  0  0  0  0  0  0  0  0  0  0
   -5.9449   24.9308  -29.0950 H   0  0  0  0  0  0  0  0  0  0  0  0
   -6.3969   26.3823  -30.0519 H   0  0  0  0  0  0  0  0  0  0  0  0
   -7.4651   24.9382  -30.0519 H   0  0  0  0  0  0  0  0  0  0  0  0
   -6.3942   22.8533  -32.0762 H   0  0  0  0  0  0  0  0  0  0  0  0
   -8.7963   22.8790  -31.4490 H   0  0  0  0  0  0  0  0  0  0  0  0
  -10.1429   20.7952  -31.5541 H   0  0  0  0  0  0  0  0  0  0  0  0
   -9.0914   18.6556  -32.2452 H   0  0  0  0  0  0  0  0  0  0  0  0
  1  2  1  0
  2  3  1  0
  3  4  1  0
  4  5  2  0
  5  6  1  0
  6  7  2  0
  7  8  1  0
  8  9  1  0
  9 10  1  0
 10 11  1  0
 11 12  1  0
 12 13  1  0
 13 14  1  0
 14 15  1  0
 15 16  1  0
 16 17  1  0
 17 18  1  0
 18 19  1  0
  7 20  1  0
 20 21  2  0
 21 22  1  0
 22 23  2  0
 23 24  1  0
 24 25  2  0
 25  4  1  0
 25 20  1  0
  1 26  1  0
  1 27  1  0
  1 28  1  0
  2 29  1  0
  2 30  1  0
  3 31  1  0
  3 32  1  0
  5 33  1  0
  6 34  1  0
  8 35  1  0
  8 36  1  0
  9 37  1  0
  9 38  1  0
 10 39  1  0
 10 40  1  0
 12 41  1  0
 12 42  1  0
 13 43  1  0
 13 44  1  0
 15 45  1  0
 15 46  1  0
 16 47  1  0
 16 48  1  0
 17 49  1  0
 18 50  1  0
 18 51  1  0
 19 52  1  0
 19 53  1  0
 19 54  1  0
 21 55  1  0
 22 56  1  0
 23 57  1  0
 24 58  1  0
M  CHG  2   4   1   8   1
M  END
>  <UniqueID>  (1) 
1

>  <SMILES>  (1) 
CCC[n+]1ccc([NH2+]CCOCCOCCNCC)c2ccccc21

>  <Energy>  (1) 
62.773869524025585

>  <Genealogy>  (1) 
CCC[n+]1ccc([NH2+]CCOCCOCCNCC)c2ccccc21 (protonated)
CCC[n+]1ccc([NH2+]CCOCCOCCNCC)c2ccccc21 (3D coordinates assigned)
CCC[n+]1ccc([NH2+]CCOCCOCCNCC)c2ccccc21 (optimized conformer: 62.773869524025585 kcal/mol)

>  <smiles>  (1) 
CCC[n+]1ccc(NCCOCCOCCNCC)c2ccccc21

>  <score_type>  (1) 
oracle

>  <origin>  (1) 
adg

>  <m_score__min__energy>  (1) 
-6.2000000000000002

>  <m_primary>  (1) 
energy

$$$$
1:0
     RDKit          3D

 38 39  0  0  0  0  0  0  0  0999 V2000
   -2.7210   22.0400  -30.5690 C   0  0  0  0  0  0  0  0  0  0  0  0
   -3.1950   23.3400  -29.9380 C   0  0  0  0  0  0  0  0  0  0  0  0
   -3.7470   24.1710  -30.9410 O   0  0  0  0  0  0  0  0  0  0  0  0
   -4.2710   25.3060  -30.3730 N   0  0  0  0  0  0  0  0  0  0  0  0
   -5.6480   25.4890  -30.8400 C   0  0  0  0  0  0  0  0  0  0  0  0
   -6.5950   24.5450  -30.0950 C   0  0  0  0  0  0  0  0  0  0  0  0
   -7.4210   23.8320  -31.0150 O   0  0  0  0  0  0  0  0  0  0  0  0
   -7.1030   22.6050  -31.6260 C   0  0  0  0  0  0  0  0  0  0  0  0
   -5.8220   22.3190  -32.1230 C   0  0  0  0  0  0  0  0  0  0  0  0
   -5.5590   21.0900  -32.7210 C   0  0  0  0  0  0  0  0  0  0  0  0
   -6.5790   20.1320  -32.8280 C   0  0  0  0  0  0  0  0  0  0  0  0
   -6.3200   18.8130  -33.4620 C   0  0  0  0  0  0  0  0  0  0  0  0
   -5.4130   18.5350  -34.4870 C   0  0  0  0  0  0  0  0  0  0  0  0
   -5.4000   17.1900  -34.8740 C   0  0  0  0  0  0  0  0  0  0  0  0
   -6.2880   16.3930  -34.1670 C   0  0  0  0  0  0  0  0  0  0  0  0
   -7.0910   17.3680  -33.0600 S   0  0  0  0  0  0  0  0  0  0  0  0
   -7.8190   20.4240  -32.3330 N   0  0  0  0  0  0  0  0  0  0  0  0
   -8.1020   21.6220  -31.7390 C   0  0  0  0  0  0  0  0  0  0  0  0
   -9.4850   21.8970  -31.2190 C   0  0  0  0  0  0  0  0  0  0  0  0
   -2.4593   21.3223  -29.7775 H   0  0  0  0  0  0  0  0  0  0  0  0
   -3.5242   21.6210  -31.1929 H   0  0  0  0  0  0  0  0  0  0  0  0
   -1.8366   22.2364  -31.1929 H   0  0  0  0  0  0  0  0  0  0  0  0
   -3.9603   23.1224  -29.1784 H   0  0  0  0  0  0  0  0  0  0  0  0
   -2.3449   23.8508  -29.4621 H   0  0  0  0  0  0  0  0  0  0  0  0
   -4.2450   25.3110  -29.3230 H   0  0  0  0  0  0  0  0  0  0  0  0
   -5.9568   26.5291  -30.6589 H   0  0  0  0  0  0  0  0  0  0  0  0
   -5.6926   25.2628  -31.9156 H   0  0  0  0  0  0  0  0  0  0  0  0
   -6.0024   23.8266  -29.5096 H   0  0  0  0  0  0  0  0  0  0  0  0
   -7.2376   25.1402  -29.4296 H   0  0  0  0  0  0  0  0  0  0  0  0
   -5.0222   23.0696  -32.0395 H   0  0  0  0  0  0  0  0  0  0  0  0
   -4.5535   20.8700  -33.1090 H   0  0  0  0  0  0  0  0  0  0  0  0
   -4.7701   19.3002  -34.9464 H   0  0  0  0  0  0  0  0  0  0  0  0
   -4.7448   16.8003  -35.6671 H   0  0  0  0  0  0  0  0  0  0  0  0
   -6.4397   15.3125  -34.3067 H   0  0  0  0  0  0  0  0  0  0  0  0
   -8.5830   19.7160  -32.4140 H   0  0  0  0  0  0  0  0  0  0  0  0
   -9.4705   21.8941  -30.1191 H   0  0  0  0  0  0  0  0  0  0  0  0
   -9.8232   22.8800  -31.5787 H   0  0  0  0  0  0  0  0  0  0  0  0
  -10.1735   21.1182  -31.5787 H   0  0  0  0  0  0  0  0  0  0  0  0
  1  2  1  0
  2  3  1  0
  3  4  1  0
  4  5  1  0
  5  6  1  0
  6  7  1  0
  7  8  1  0
  8  9  2  0
  9 10  1  0
 10 11  2  0
 11 12  1  0
 12 13  2  0
 13 14  1  0
 14 15  2  0
 15 16  1  0
 11 17  1  0
 17 18  2  0
 18 19  1  0
 18  8  1  0
 16 12  1  0
  1 20  1  0
  1 21  1  0
  1 22  1  0
  2 23  1  0
  2 24  1  0
  4 25  1  0
  5 26  1  0
  5 27  1  0
  6 28  1  0
  6 29  1  0
  9 30  1  0
 10 31  1  0
 13 32  1  0
 14 33  1  0
 15 34  1  0
 17 35  1  0
 19 36  1  0
 19 37  1  0
 19 38  1  0
M  CHG  1  17   1
M  END
>  <UniqueID>  (2) 
2

>  <SMILES>  (2) 
CCONCCOc1ccc(-c2cccs2)[nH+]c1C

>  <Energy>  (2) 
66.08929617374969

>  <Genealogy>  (2) 
CCONCCOc1ccc(-c2cccs2)[nH+]c1C (protonated)
CCONCCOc1ccc(-c2cccs2)[nH+]c1C (3D coordinates assigned)
CCONCCOc1ccc(-c2cccs2)[nH+]c1C (optimized conformer: 66.08929617374969 kcal/mol)

>  <smiles>  (2) 
CCONCCOc1ccc(-c2cccs2)nc1C

>  <score_type>  (2) 
oracle

>  <origin>  (2) 
adg

>  <m_score__min__energy>  (2) 
-7.0499999999999998

>  <m_primary>  (2) 
energy

$$$$
2:0
     RDKit          3D

 60 62  0  0  0  0  0  0  0  0999 V2000
   -6.3530   16.7670  -34.2160 C   0  0  0  0  0  0  0  0  0  0  0  0
   -5.7320   17.1200  -32.8650 C   0  0  0  0  0  0  0  0  0  0  0  0
   -5.7120   18.5880  -32.6530 N   0  0  0  0  0  0  0  0  0  0  0  0
   -6.8420   19.2250  -32.1740 C   0  0  0  0  0  0  0  0  0  0  0  0
   -6.9270   20.6300  -32.1680 C   0  0  0  0  0  0  0  0  0  0  0  0
   -5.8130   21.4000  -32.5290 C   0  0  0  0  0  0  0  0  0  0  0  0
   -5.8710   22.8350  -32.4490 N   0  0  0  0  0  0  0  0  0  0  0  0
   -5.1430   23.5680  -31.4120 C   0  0  0  0  0  0  0  0  0  0  0  0
   -6.0710   23.9630  -30.2570 C   0  0  0  0  0  0  0  0  0  0  0  0
   -5.3180   24.7360  -29.1510 C   0  0  0  0  0  0  0  0  0  0  0  0
   -4.6040   23.8940  -28.1480 N   0  0  0  0  0  0  0  0  0  0  0  0
   -4.2150   24.5790  -26.8840 C   0  0  0  0  0  0  0  0  0  0  0  0
   -2.7250   24.9210  -26.7420 C   0  0  0  0  0  0  0  0  0  0  0  0
   -3.6040   22.9360  -28.7020 C   0  0  0  0  0  0  0  0  0  0  0  0
   -3.3480   21.6790  -27.8610 C   0  0  0  0  0  0  0  0  0  0  0  0
   -4.6320   20.7540  -32.9380 C   0  0  0  0  0  0  0  0  0  0  0  0
   -3.4900   21.4990  -33.2970 C   0  0  0  0  0  0  0  0  0  0  0  0
   -2.3040   20.8650  -33.6490 C   0  0  0  0  0  0  0  0  0  0  0  0
   -2.2310   19.4780  -33.6440 C   0  0  0  0  0  0  0  0  0  0  0  0
   -3.3480   18.7160  -33.3060 C   0  0  0  0  0  0  0  0  0  0  0  0
   -4.5840   19.3300  -32.9690 C   0  0  0  0  0  0  0  0  0  0  0  0
   -8.2410   21.2700  -31.7630 C   0  0  0  0  0  0  0  0  0  0  0  0
   -9.4220   20.5080  -32.3850 C   0  0  0  0  0  0  0  0  0  0  0  0
   -9.3550   18.9790  -32.1670 C   0  0  0  0  0  0  0  0  0  0  0  0
   -8.0290   18.4940  -31.5560 C   0  0  0  0  0  0  0  0  0  0  0  0
   -7.2990   16.2292  -34.0554 H   0  0  0  0  0  0  0  0  0  0  0  0
   -6.5473   17.6897  -34.7825 H   0  0  0  0  0  0  0  0  0  0  0  0
   -5.6596   16.1280  -34.7825 H   0  0  0  0  0  0  0  0  0  0  0  0
   -6.3220   16.6496  -32.0646 H   0  0  0  0  0  0  0  0  0  0  0  0
   -4.6959   16.7509  -32.8499 H   0  0  0  0  0  0  0  0  0  0  0  0
   -6.2610   23.3670  -33.2590 H   0  0  0  0  0  0  0  0  0  0  0  0
   -4.3357   22.9308  -31.0218 H   0  0  0  0  0  0  0  0  0  0  0  0
   -4.7317   24.4857  -31.8578 H   0  0  0  0  0  0  0  0  0  0  0  0
   -6.8769   24.6000  -30.6503 H   0  0  0  0  0  0  0  0  0  0  0  0
   -6.4748   23.0408  -29.8137 H   0  0  0  0  0  0  0  0  0  0  0  0
   -4.5754   25.3854  -29.6377 H   0  0  0  0  0  0  0  0  0  0  0  0
   -6.0886   25.2845  -28.5894 H   0  0  0  0  0  0  0  0  0  0  0  0
   -5.3650   23.2480  -27.8230 H   0  0  0  0  0  0  0  0  0  0  0  0
   -4.7846   25.5178  -26.8195 H   0  0  0  0  0  0  0  0  0  0  0  0
   -4.4366   23.8656  -26.0765 H   0  0  0  0  0  0  0  0  0  0  0  0
   -2.4627   24.9812  -25.6754 H   0  0  0  0  0  0  0  0  0  0  0  0
   -2.1215   24.1380  -27.2244 H   0  0  0  0  0  0  0  0  0  0  0  0
   -2.5233   25.8888  -27.2244 H   0  0  0  0  0  0  0  0  0  0  0  0
   -3.9580   22.6134  -29.6923 H   0  0  0  0  0  0  0  0  0  0  0  0
   -2.6485   23.4806  -28.7245 H   0  0  0  0  0  0  0  0  0  0  0  0
   -3.4003   21.9357  -26.7927 H   0  0  0  0  0  0  0  0  0  0  0  0
   -4.1101   20.9207  -28.0936 H   0  0  0  0  0  0  0  0  0  0  0  0
   -2.3500   21.2792  -28.0936 H   0  0  0  0  0  0  0  0  0  0  0  0
   -3.5383   22.5979  -33.2986 H   0  0  0  0  0  0  0  0  0  0  0  0
   -1.4239   21.4614  -33.9313 H   0  0  0  0  0  0  0  0  0  0  0  0
   -1.2872   18.9786  -33.9081 H   0  0  0  0  0  0  0  0  0  0  0  0
   -3.2711   17.6187  -33.3001 H   0  0  0  0  0  0  0  0  0  0  0  0
   -8.3323   21.2480  -30.6670 H   0  0  0  0  0  0  0  0  0  0  0  0
   -8.2576   22.3094  -32.1228 H   0  0  0  0  0  0  0  0  0  0  0  0
  -10.3533   20.8830  -31.9356 H   0  0  0  0  0  0  0  0  0  0  0  0
   -9.3822   20.6814  -33.4705 H   0  0  0  0  0  0  0  0  0  0  0  0
  -10.1738   18.6892  -31.4921 H   0  0  0  0  0  0  0  0  0  0  0  0
   -9.4396   18.5110  -33.1589 H   0  0  0  0  0  0  0  0  0  0  0  0
   -8.0424   18.6819  -30.4723 H   0  0  0  0  0  0  0  0  0  0  0  0
   -7.9224   17.4183  -31.7597 H   0  0  0  0  0  0  0  0  0  0  0  0
  1  2  1  0
  2  3  1  0
  3  4  2  0
  4  5  1  0
  5  6  2  0
  6  7  1  0
  7  8  1  0
  8  9  1  0
  9 10  1  0
 10 11  1  0
 11 12  1  0
 12 13  1  0
 11 14  1  0
 14 15  1  0
  6 16  1  0
 16 17  2  0
 17 18  1  0
 18 19  2  0
 19 20  1  0
 20 21  2  0
  5 22  1  0
 22 23  1  0
 23 24  1  0
 24 25  1  0
 21  3  1  0
 25  4  1  0
 21 16  1  0
  1 26  1  0
  1 27  1  0
  1 28  1  0
  2 29  1  0
  2 30  1  0
  7 31  1  0
  8 32  1  0
  8 33  1  0
  9 34  1  0
  9 35  1  0
 10 36  1  0
 10 37  1  0
 11 38  1  0
 12 39  1  0
 12 40  1  0
 13 41  1  0
 13 42  1  0
 13 43  1  0
 14 44  1  0
 14 45  1  0
 15 46  1  0
 15 47  1  0
 15 48  1  0
 17 49  1  0
 18 50  1  0
 19 51  1  0
 20 52  1  0
 22 53  1  0
 22 54  1  0
 23 55  1  0
 23 56  1  0
 24 57  1  0
 24 58  1  0
 25 59  1  0
 25 60  1  0
M  CHG  2   3   1  11   1
M  END
>  <UniqueID>  (3) 
3

>  <SMILES>  (3) 
CC[n+]1c2c(c(NCCC[NH+](CC)CC)c3ccccc31)CCCC2

>  <Energy>  (3) 
95.20783642025984

>  <Genealogy>  (3) 
CC[n+]1c2c(c(NCCC[NH+](CC)CC)c3ccccc31)CCCC2 (protonated)
CC[n+]1c2c(c(NCCC[NH+](CC)CC)c3ccccc31)CCCC2 (3D coordinates assigned)
CC[n+]1c2c(c(NCCC[NH+](CC)CC)c3ccccc31)CCCC2 (nonaromatic ring conformer: 95.20783642025984 kcal/mol)

>  <smiles>  (3) 
CCN(CC)CCCNc1c2c([n+](CC)c3ccccc13)CCCC2

>  <score_type>  (3) 
oracle

>  <origin>  (3) 
adg

>  <m_score__min__energy>  (3) 
-7.4699999999999998

>  <m_primary>  (3) 
energy

$$$$
3:0
     RDKit          3D

 67 71  0  0  0  0  0  0  0  0999 V2000
    0.1300   27.3960  -23.8260 C   0  0  0  0  0  0  0  0  0  0  0  0
   -0.8140   26.1970  -23.9550 C   0  0  0  0  0  0  0  0  0  0  0  0
   -0.0790   24.9290  -24.1320 N   0  0  0  0  0  0  0  0  0  0  0  0
    0.0420   24.5280  -25.5540 C   0  0  0  0  0  0  0  0  0  0  0  0
   -1.1030   25.0700  -26.4290 C   0  0  0  0  0  0  0  0  0  0  0  0
   -0.6310   25.4920  -27.8240 C   0  0  0  0  0  0  0  0  0  0  0  0
   -1.7150   25.2840  -28.7930 N   0  0  0  0  0  0  0  0  0  0  0  0
   -2.6960   24.2840  -28.3390 C   0  0  0  0  0  0  0  0  0  0  0  0
   -3.9720   24.2320  -29.1960 C   0  0  0  0  0  0  0  0  0  0  0  0
   -3.6640   23.9830  -30.6050 N   0  0  0  0  0  0  0  0  0  0  0  0
   -3.9900   22.7310  -31.2300 C   0  0  0  0  0  0  0  0  0  0  0  0
   -5.3240   22.3970  -31.4530 C   0  0  0  0  0  0  0  0  0  0  0  0
   -5.6700   21.1800  -32.0090 C   0  0  0  0  0  0  0  0  0  0  0  0
   -4.7260   20.2510  -32.3630 N   0  0  0  0  0  0  0  0  0  0  0  0
   -5.1310   18.9780  -32.8920 C   0  0  0  0  0  0  0  0  0  0  0  0
   -5.5130   17.9430  -32.0260 C   0  0  0  0  0  0  0  0  0  0  0  0
   -5.9230   16.7120  -32.5450 C   0  0  0  0  0  0  0  0  0  0  0  0
   -5.9600   16.5120  -33.9290 C   0  0  0  0  0  0  0  0  0  0  0  0
   -5.5900   17.5450  -34.7960 C   0  0  0  0  0  0  0  0  0  0  0  0
   -5.1790   18.7790  -34.2800 C   0  0  0  0  0  0  0  0  0  0  0  0
   -3.3870   20.5550  -32.1970 C   0  0  0  0  0  0  0  0  0  0  0  0
   -2.3710   19.6430  -32.5750 C   0  0  0  0  0  0  0  0  0  0  0  0
   -1.0230   19.9750  -32.4410 C   0  0  0  0  0  0  0  0  0  0  0  0
   -0.6530   21.2200  -31.9400 C   0  0  0  0  0  0  0  0  0  0  0  0
   -1.6270   22.1370  -31.5480 C   0  0  0  0  0  0  0  0  0  0  0  0
   -2.9960   21.8160  -31.6440 C   0  0  0  0  0  0  0  0  0  0  0  0
   -7.1350   21.1300  -32.1040 C   0  0  0  0  0  0  0  0  0  0  0  0
   -8.0110   20.1570  -32.6070 C   0  0  0  0  0  0  0  0  0  0  0  0
   -9.3920   20.4060  -32.5650 C   0  0  0  0  0  0  0  0  0  0  0  0
   -9.8830   21.6100  -32.0340 C   0  0  0  0  0  0  0  0  0  0  0  0
   -8.9980   22.5780  -31.5420 C   0  0  0  0  0  0  0  0  0  0  0  0
   -7.6270   22.3200  -31.5880 C   0  0  0  0  0  0  0  0  0  0  0  0
   -6.5330   23.2220  -31.1200 C   0  0  0  0  0  0  0  0  0  0  0  0
    0.3020   27.6144  -22.7617 H   0  0  0  0  0  0  0  0  0  0  0  0
    1.0887   27.1618  -24.3118 H   0  0  0  0  0  0  0  0  0  0  0  0
   -0.3226   28.2730  -24.3118 H   0  0  0  0  0  0  0  0  0  0  0  0
   -1.4264   26.1279  -23.0439 H   0  0  0  0  0  0  0  0  0  0  0  0
   -1.4405   26.3530  -24.8456 H   0  0  0  0  0  0  0  0  0  0  0  0
    0.8780   25.0250  -23.7180 H   0  0  0  0  0  0  0  0  0  0  0  0
   -0.5620   24.1850  -23.5770 H   0  0  0  0  0  0  0  0  0  0  0  0
    0.9954   24.9111  -25.9468 H   0  0  0  0  0  0  0  0  0  0  0  0
   -0.0049   23.4297  -25.5923 H   0  0  0  0  0  0  0  0  0  0  0  0
   -1.8651   24.2843  -26.5379 H   0  0  0  0  0  0  0  0  0  0  0  0
   -1.5083   25.9630  -25.9307 H   0  0  0  0  0  0  0  0  0  0  0  0
   -0.3513   26.5557  -27.8099 H   0  0  0  0  0  0  0  0  0  0  0  0
    0.2405   24.8867  -28.1142 H   0  0  0  0  0  0  0  0  0  0  0  0
   -1.3040   24.9960  -29.7110 H   0  0  0  0  0  0  0  0  0  0  0  0
   -2.2192   23.2931  -28.3666 H   0  0  0  0  0  0  0  0  0  0  0  0
   -3.0037   24.5753  -27.3239 H   0  0  0  0  0  0  0  0  0  0  0  0
   -4.6195   23.4244  -28.8238 H   0  0  0  0  0  0  0  0  0  0  0  0
   -4.4773   25.2062  -29.1209 H   0  0  0  0  0  0  0  0  0  0  0  0
   -3.4900   24.8070  -31.2210 H   0  0  0  0  0  0  0  0  0  0  0  0
   -5.4899   18.1003  -30.9376 H   0  0  0  0  0  0  0  0  0  0  0  0
   -6.2170   15.8993  -31.8644 H   0  0  0  0  0  0  0  0  0  0  0  0
   -6.2804   15.5414  -34.3357 H   0  0  0  0  0  0  0  0  0  0  0  0
   -5.6221   17.3874  -35.8842 H   0  0  0  0  0  0  0  0  0  0  0  0
   -4.8935   19.5930  -34.9626 H   0  0  0  0  0  0  0  0  0  0  0  0
   -2.6492   18.6589  -32.9800 H   0  0  0  0  0  0  0  0  0  0  0  0
   -0.2489   19.2499  -32.7325 H   0  0  0  0  0  0  0  0  0  0  0  0
    0.4120   21.4812  -31.8531 H   0  0  0  0  0  0  0  0  0  0  0  0
   -1.3242   23.1207  -31.1600 H   0  0  0  0  0  0  0  0  0  0  0  0
   -7.6234   19.2168  -33.0264 H   0  0  0  0  0  0  0  0  0  0  0  0
  -10.0946   19.6527  -32.9508 H   0  0  0  0  0  0  0  0  0  0  0  0
  -10.9672   21.7936  -32.0043 H   0  0  0  0  0  0  0  0  0  0  0  0
   -9.3765   23.5239  -31.1271 H   0  0  0  0  0  0  0  0  0  0  0  0
   -6.5343   24.1767  -31.6664 H   0  0  0  0  0  0  0  0  0  0  0  0
   -6.6064   23.5149  -30.0623 H   0  0  0  0  0  0  0  0  0  0  0  0
  1  2  1  0
  2  3  1  0
  3  4  1  0
  4  5  1  0
  5  6  1  0
  6  7  1  0
  7  8  1  0
  8  9  1  0
  9 10  1  0
 10 11  1  0
 11 12  2  0
 12 13  1  0
 13 14  2  0
 14 15  1  0
 15 16  2  0
 16 17  1  0
 17 18  2  0
 18 19  1  0
 19 20  2  0
 14 21  1  0
 21 22  2  0
 22 23  1  0
 23 24  2  0
 24 25  1  0
 25 26  2  0
 13 27  1  0
 27 28  2  0
 28 29  1  0
 29 30  2  0
 30 31  1  0
 31 32  2  0
 32 33  1  0
 26 11  1  0
 32 27  1  0
 33 12  1  0
 20 15  1  0
 26 21  1  0
  1 34  1  0
  1 35  1  0
  1 36  1  0
  2 37  1  0
  2 38  1  0
  3 39  1  0
  3 40  1  0
  4 41  1  0
  4 42  1  0
  5 43  1  0
  5 44  1  0
  6 45  1  0
  6 46  1  0
  7 47  1  0
  8 48  1  0
  8 49  1  0
  9 50  1  0
  9 51  1  0
 10 52  1  0
 16 53  1  0
 17 54  1  0
 18 55  1  0
 19 56  1  0
 20 57  1  0
 22 58  1  0
 23 59  1  0
 24 60  1  0
 25 61  1  0
 28 62  1  0
 29 63  1  0
 30 64  1  0
 31 65  1  0
 33 66  1  0
 33 67  1  0
M  CHG  2   3   1  14   1
M  END
>  <UniqueID>  (4) 
4

>  <SMILES>  (4) 
CC[NH2+]CCCNCCNc1c2c([n+](-c3ccccc3)c3ccccc13)-c1ccccc1C2

>  <Energy>  (4) 
112.3049248174632

>  <Genealogy>  (4) 
CC[NH2+]CCCNCCNc1c2c([n+](-c3ccccc3)c3ccccc13)-c1ccccc1C2 (protonated)
CC[NH2+]CCCNCCNc1c2c([n+](-c3ccccc3)c3ccccc13)-c1ccccc1C2 (3D coordinates assigned)
CC[NH2+]CCCNCCNc1c2c([n+](-c3ccccc3)c3ccccc13)-c1ccccc1C2 (nonaromatic ring conformer: 112.3049248174632 kcal/mol)

>  <smiles>  (4) 
CCNCCCNCCNc1c2c([n+](-c3ccccc3)c3ccccc13)-c1ccccc1C2

>  <score_type>  (4) 
oracle

>  <origin>  (4) 
adg

>  <m_score__min__energy>  (4) 
-10.59

>  <m_primary>  (4) 
energy

$$$$
4:0
     RDKit          3D

 31 33  0  0  0  0  0  0  0  0999 V2000
   -7.5870   18.3930  -32.6560 C   0  0  0  0  0  0  0  0  0  0  0  0
   -8.3260   19.6200  -32.3900 N   0  0  0  0  0  0  0  0  0  0  0  0
   -9.6050   19.8000  -32.6660 N   0  0  0  0  0  0  0  0  0  0  0  0
   -9.9240   21.0410  -32.3320 N   0  0  0  0  0  0  0  0  0  0  0  0
   -8.8740   21.6910  -31.8500 N   0  0  0  0  0  0  0  0  0  0  0  0
   -7.8740   20.7910  -31.9010 C   0  0  0  0  0  0  0  0  0  0  0  0
   -6.1930   21.1290  -31.3650 S   0  0  0  0  0  0  0  0  0  0  0  0
   -6.4330   22.9440  -31.2160 C   0  0  2  0  0  0  0  0  0  0  0  0
   -5.3660   23.7370  -32.0240 C   0  0  0  0  0  0  0  0  0  0  0  0
   -4.7060   24.7630  -31.1790 N   0  0  0  0  0  0  0  0  0  0  0  0
   -5.7310   25.6700  -30.6020 C   0  0  0  0  0  0  0  0  0  0  0  0
   -6.7210   24.8920  -29.6950 C   0  0  0  0  0  0  0  0  0  0  0  0
   -6.3720   23.3920  -29.7370 C   0  0  0  0  0  0  0  0  0  0  0  0
   -4.9290   23.2380  -29.2090 C   0  0  0  0  0  0  0  0  0  0  0  0
   -3.9720   24.0880  -30.0820 C   0  0  0  0  0  0  0  0  0  0  0  0
   -7.3033   17.9220  -31.7033 H   0  0  0  0  0  0  0  0  0  0  0  0
   -8.2192   17.7019  -33.2328 H   0  0  0  0  0  0  0  0  0  0  0  0
   -6.6805   18.6287  -33.2328 H   0  0  0  0  0  0  0  0  0  0  0  0
  -10.8770   21.4540  -32.4390 H   0  0  0  0  0  0  0  0  0  0  0  0
   -7.4283   23.1634  -31.6297 H   0  0  0  0  0  0  0  0  0  0  0  0
   -4.6049   23.0361  -32.3976 H   0  0  0  0  0  0  0  0  0  0  0  0
   -5.8690   24.2452  -32.8599 H   0  0  0  0  0  0  0  0  0  0  0  0
   -5.2289   26.4446  -30.0037 H   0  0  0  0  0  0  0  0  0  0  0  0
   -6.2983   26.1249  -31.4274 H   0  0  0  0  0  0  0  0  0  0  0  0
   -6.6405   25.2600  -28.6615 H   0  0  0  0  0  0  0  0  0  0  0  0
   -7.7495   25.0431  -30.0546 H   0  0  0  0  0  0  0  0  0  0  0  0
   -7.0628   22.7882  -29.1302 H   0  0  0  0  0  0  0  0  0  0  0  0
   -4.8802   23.5842  -28.1660 H   0  0  0  0  0  0  0  0  0  0  0  0
   -4.6299   22.1805  -29.2560 H   0  0  0  0  0  0  0  0  0  0  0  0
   -3.4908   24.8493  -29.4504 H   0  0  0  0  0  0  0  0  0  0  0  0
   -3.2188   23.4202  -30.5255 H   0  0  0  0  0  0  0  0  0  0  0  0
  1  2  1  0
  2  3  1  0
  3  4  2  0
  4  5  1  0
  5  6  2  0
  6  7  1  0
  7  8  1  0
  8  9  1  0
  9 10  1  0
 10 11  1  0
 11 12  1  0
 12 13  1  0
 13 14  1  0
 14 15  1  0
  6  2  1  0
 13  8  1  0
 15 10  1  0
  1 16  1  0
  1 17  1  0
  1 18  1  0
  4 19  1  0
  8 20  1  6
  9 21  1  0
  9 22  1  0
 11 23  1  0
 11 24  1  0
 12 25  1  0
 12 26  1  0
 13 27  1  0
 14 28  1  0
 14 29  1  0
 15 30  1  0
 15 31  1  0
M  CHG  1   4   1
M  END
>  <UniqueID>  (5) 
5

>  <SMILES>  (5) 
Cn1n[nH+]nc1S[C@@H]1CN2CCC1CC2

>  <Energy>  (5) 
81.80560892578505

>  <Genealogy>  (5) 
Cn1n[nH+]nc1SC1CN2CCC1CC2 (protonated)
Cn1n[nH+]nc1S[C@@H]1CN2CCC1CC2 (chirality)
Cn1n[nH+]nc1S[C@@H]1CN2CCC1CC2 (3D coordinates assigned)
Cn1n[nH+]nc1S[C@@H]1CN2CCC1CC2 (nonaromatic ring conformer: 81.80560892578505 kcal/mol)

>  <smiles>  (5) 
Cn1nnnc1SC1CN2CCC1CC2

>  <score_type>  (5) 
oracle

>  <origin>  (5) 
adg

>  <m_score__min__energy>  (5) 
-6.7599999999999998

>  <m_primary>  (5) 
energy

$$$$
5:0
     RDKit          3D

 43 44  0  0  0  0  0  0  0  0999 V2000
   -8.7110   22.7710  -31.9550 C   0  0  0  0  0  0  0  0  0  0  0  0
   -9.4160   21.5630  -31.3440 C   0  0  0  0  0  0  0  0  0  0  0  0
   -9.5070   20.4090  -32.3470 C   0  0  0  0  0  0  0  0  0  0  0  0
   -9.0120   19.1640  -31.7310 N   0  0  0  0  0  0  0  0  0  0  0  0
   -7.9150   18.5520  -32.4950 C   0  0  0  0  0  0  0  0  0  0  0  0
   -6.7030   19.4360  -32.4900 C   0  0  0  0  0  0  0  0  0  0  0  0
   -6.4820   20.4080  -31.5870 N   0  0  0  0  0  0  0  0  0  0  0  0
   -5.3200   20.9800  -31.9750 C   0  0  0  0  0  0  0  0  0  0  0  0
   -4.6580   22.1160  -31.2920 C   0  0  0  0  0  0  0  0  0  0  0  0
   -3.3140   21.9980  -30.8960 C   0  0  0  0  0  0  0  0  0  0  0  0
   -2.6680   23.0560  -30.2510 C   0  0  0  0  0  0  0  0  0  0  0  0
   -3.3460   24.2500  -29.9900 C   0  0  0  0  0  0  0  0  0  0  0  0
   -2.6530   25.2820  -29.3400 O   0  0  0  0  0  0  0  0  0  0  0  0
   -1.9820   25.1400  -28.0910 C   0  0  0  0  0  0  0  0  0  0  0  0
   -2.9330   24.5420  -27.0680 C   0  0  0  0  0  0  0  0  0  0  0  0
   -4.6910   24.3750  -30.3830 C   0  0  0  0  0  0  0  0  0  0  0  0
   -5.3390   23.3180  -31.0280 C   0  0  0  0  0  0  0  0  0  0  0  0
   -4.8340   20.4070  -33.0580 O   0  0  0  0  0  0  0  0  0  0  0  0
   -5.6640   19.4490  -33.4010 C   0  0  0  0  0  0  0  0  0  0  0  0
   -5.4870   18.5670  -34.5920 C   0  0  0  0  0  0  0  0  0  0  0  0
   -8.3324   23.4198  -31.1514 H   0  0  0  0  0  0  0  0  0  0  0  0
   -7.8706   22.4292  -32.5770 H   0  0  0  0  0  0  0  0  0  0  0  0
   -9.4220   23.3346  -32.5770 H   0  0  0  0  0  0  0  0  0  0  0  0
   -8.8524   21.2273  -30.4610 H   0  0  0  0  0  0  0  0  0  0  0  0
  -10.4367   21.8610  -31.0624 H   0  0  0  0  0  0  0  0  0  0  0  0
  -10.5553   20.2729  -32.6513 H   0  0  0  0  0  0  0  0  0  0  0  0
   -8.8905   20.6461  -33.2266 H   0  0  0  0  0  0  0  0  0  0  0  0
   -9.8000   18.4750  -31.7200 H   0  0  0  0  0  0  0  0  0  0  0  0
   -7.6566   17.5835  -32.0419 H   0  0  0  0  0  0  0  0  0  0  0  0
   -8.2450   18.4128  -33.5350 H   0  0  0  0  0  0  0  0  0  0  0  0
   -7.0970   20.6550  -30.7820 H   0  0  0  0  0  0  0  0  0  0  0  0
   -2.7665   21.0650  -31.0956 H   0  0  0  0  0  0  0  0  0  0  0  0
   -1.6166   22.9482  -29.9460 H   0  0  0  0  0  0  0  0  0  0  0  0
   -1.1133   24.4767  -28.2152 H   0  0  0  0  0  0  0  0  0  0  0  0
   -1.6440   26.1272  -27.7430 H   0  0  0  0  0  0  0  0  0  0  0  0
   -2.5714   24.7694  -26.0543 H   0  0  0  0  0  0  0  0  0  0  0  0
   -3.9362   24.9722  -27.2045 H   0  0  0  0  0  0  0  0  0  0  0  0
   -2.9800   23.4515  -27.2045 H   0  0  0  0  0  0  0  0  0  0  0  0
   -5.2354   25.3094  -30.1816 H   0  0  0  0  0  0  0  0  0  0  0  0
   -6.3906   23.4270  -31.3318 H   0  0  0  0  0  0  0  0  0  0  0  0
   -5.2807   17.5389  -34.2595 H   0  0  0  0  0  0  0  0  0  0  0  0
   -6.4055   18.5793  -35.1971 H   0  0  0  0  0  0  0  0  0  0  0  0
   -4.6443   18.9327  -35.1971 H   0  0  0  0  0  0  0  0  0  0  0  0
  1  2  1  0
  2  3  1  0
  3  4  1  0
  4  5  1  0
  5  6  1  0
  6  7  1  0
  7  8  2  0
  8  9  1  0
  9 10  2  0
 10 11  1  0
 11 12  2  0
 12 13  1  0
 13 14  1  0
 14 15  1  0
 12 16  1  0
 16 17  2  0
  8 18  1  0
 18 19  1  0
 19 20  1  0
 19  6  2  0
 17  9  1  0
  1 21  1  0
  1 22  1  0
  1 23  1  0
  2 24  1  0
  2 25  1  0
  3 26  1  0
  3 27  1  0
  4 28  1  0
  5 29  1  0
  5 30  1  0
  7 31  1  0
 10 32  1  0
 11 33  1  0
 14 34  1  0
 14 35  1  0
 15 36  1  0
 15 37  1  0
 15 38  1  0
 16 39  1  0
 17 40  1  0
 20 41  1  0
 20 42  1  0
 20 43  1  0
M  CHG  1   7   1
M  END
>  <UniqueID>  (6) 
6

>  <SMILES>  (6) 
CCCNCc1[nH+]c(-c2ccc(OCC)cc2)oc1C

>  <Energy>  (6) 
64.21101390537984

>  <Genealogy>  (6) 
CCCNCc1[nH+]c(-c2ccc(OCC)cc2)oc1C (protonated)
CCCNCc1[nH+]c(-c2ccc(OCC)cc2)oc1C (3D coordinates assigned)
CCCNCc1[nH+]c(-c2ccc(OCC)cc2)oc1C (optimized conformer: 64.21101390537984 kcal/mol)

>  <smiles>  (6) 
CCCNCc1nc(-c2ccc(OCC)cc2)oc1C

>  <score_type>  (6) 
oracle

>  <origin>  (6) 
adg

>  <m_score__min__energy>  (6) 
-6.4699999999999998

>  <m_primary>  (6) 
energy

$$$$
6:0
     RDKit          3D

 71 74  0  0  0  0  0  0  0  0999 V2000
   -4.2060   16.4970  -34.9220 C   0  0  0  0  0  0  0  0  0  0  0  0
   -3.1760   17.0930  -33.9680 C   0  0  0  0  0  0  0  0  0  0  0  0
   -2.9850   18.5940  -34.2270 C   0  0  0  0  0  0  0  0  0  0  0  0
   -3.4390   19.3910  -33.0720 N   0  0  0  0  0  0  0  0  0  0  0  0
   -4.6620   18.9780  -32.3450 C   0  0  0  0  0  0  0  0  0  0  0  0
   -5.9800   18.8690  -33.1780 C   0  0  1  0  0  0  0  0  0  0  0  0
   -6.8590   17.6020  -32.9510 C   0  0  0  0  0  0  0  0  0  0  0  0
   -8.1690   18.0740  -32.2630 C   0  0  0  0  0  0  0  0  0  0  0  0
   -7.8400   19.4960  -31.8590 C   0  0  2  0  0  0  0  0  0  0  0  0
   -8.8550   20.6120  -31.7350 C   0  0  0  0  0  0  0  0  0  0  0  0
   -8.1140   21.8580  -32.0820 N   0  0  0  0  0  0  0  0  0  0  0  0
   -7.9140   22.7440  -30.9180 C   0  0  0  0  0  0  0  0  0  0  0  0
   -6.5860   23.5220  -31.0290 C   0  0  0  0  0  0  0  0  0  0  0  0
   -5.4360   22.7950  -30.3110 C   0  0  0  0  0  0  0  0  0  0  0  0
   -4.1330   23.6250  -30.3750 C   0  0  0  0  0  0  0  0  0  0  0  0
   -4.3350   24.9460  -30.8490 O   0  0  0  0  0  0  0  0  0  0  0  0
   -5.3710   25.5710  -30.1190 C   0  0  0  0  0  0  0  0  0  0  0  0
   -6.7390   24.9470  -30.4570 C   0  0  0  0  0  0  0  0  0  0  0  0
   -6.8150   21.4340  -32.6700 C   0  0  0  0  0  0  0  0  0  0  0  0
   -7.0130   19.9730  -32.9910 C   0  0  1  0  0  0  0  0  0  0  0  0
   -3.0250   20.7750  -32.9950 C   0  0  0  0  0  0  0  0  0  0  0  0
   -3.8380   21.6920  -33.2860 O   0  0  0  0  0  0  0  0  0  0  0  0
   -1.6330   21.1520  -32.5630 C   0  0  0  0  0  0  0  0  0  0  0  0
   -1.6290   21.5010  -31.1940 O   0  0  0  0  0  0  0  0  0  0  0  0
   -0.6980   20.6930  -30.5060 C   0  0  0  0  0  0  0  0  0  0  0  0
   -1.2830   20.2990  -29.1800 C   0  0  0  0  0  0  0  0  0  0  0  0
   -0.6480   19.3280  -28.3890 C   0  0  0  0  0  0  0  0  0  0  0  0
   -1.2080   18.9360  -27.1700 C   0  0  0  0  0  0  0  0  0  0  0  0
   -2.4100   19.5020  -26.7370 C   0  0  0  0  0  0  0  0  0  0  0  0
   -3.0580   20.4570  -27.5260 C   0  0  0  0  0  0  0  0  0  0  0  0
   -2.5020   20.8500  -28.7480 C   0  0  0  0  0  0  0  0  0  0  0  0
   -5.0151   16.0288  -34.3422 H   0  0  0  0  0  0  0  0  0  0  0  0
   -4.6227   17.2935  -35.5559 H   0  0  0  0  0  0  0  0  0  0  0  0
   -3.7231   15.7388  -35.5559 H   0  0  0  0  0  0  0  0  0  0  0  0
   -3.5190   16.9480  -32.9330 H   0  0  0  0  0  0  0  0  0  0  0  0
   -2.2139   16.5854  -34.1316 H   0  0  0  0  0  0  0  0  0  0  0  0
   -1.9186   18.7954  -34.4063 H   0  0  0  0  0  0  0  0  0  0  0  0
   -3.5833   18.8772  -35.1055 H   0  0  0  0  0  0  0  0  0  0  0  0
   -4.4669   17.9903  -31.9018 H   0  0  0  0  0  0  0  0  0  0  0  0
   -4.8486   19.7833  -31.6193 H   0  0  0  0  0  0  0  0  0  0  0  0
   -5.4901   18.8917  -34.1626 H   0  0  0  0  0  0  0  0  0  0  0  0
   -7.0895   17.1248  -33.9149 H   0  0  0  0  0  0  0  0  0  0  0  0
   -6.3316   16.8656  -32.3268 H   0  0  0  0  0  0  0  0  0  0  0  0
   -9.0168   18.0468  -32.9634 H   0  0  0  0  0  0  0  0  0  0  0  0
   -8.4708   17.4389  -31.4171 H   0  0  0  0  0  0  0  0  0  0  0  0
   -7.4820   19.3651  -30.8272 H   0  0  0  0  0  0  0  0  0  0  0  0
   -9.6898   20.4530  -32.4335 H   0  0  0  0  0  0  0  0  0  0  0  0
   -9.2895   20.6609  -30.7256 H   0  0  0  0  0  0  0  0  0  0  0  0
   -8.7465   23.4612  -30.8660 H   0  0  0  0  0  0  0  0  0  0  0  0
   -7.8787   22.1234  -30.0105 H   0  0  0  0  0  0  0  0  0  0  0  0
   -6.3364   23.5847  -32.0985 H   0  0  0  0  0  0  0  0  0  0  0  0
   -5.7114   22.6377  -29.2577 H   0  0  0  0  0  0  0  0  0  0  0  0
   -5.2633   21.8307  -30.8112 H   0  0  0  0  0  0  0  0  0  0  0  0
   -3.7024   23.6783  -29.3642 H   0  0  0  0  0  0  0  0  0  0  0  0
   -3.4597   23.1223  -31.0849 H   0  0  0  0  0  0  0  0  0  0  0  0
   -5.1765   25.4501  -29.0431 H   0  0  0  0  0  0  0  0  0  0  0  0
   -5.3959   26.6371  -30.3887 H   0  0  0  0  0  0  0  0  0  0  0  0
   -7.3467   24.9010  -29.5413 H   0  0  0  0  0  0  0  0  0  0  0  0
   -7.2250   25.5740  -31.2191 H   0  0  0  0  0  0  0  0  0  0  0  0
   -6.5941   22.0074  -33.5824 H   0  0  0  0  0  0  0  0  0  0  0  0
   -5.9685   21.6046  -31.9886 H   0  0  0  0  0  0  0  0  0  0  0  0
   -7.3216   20.0696  -34.0424 H   0  0  0  0  0  0  0  0  0  0  0  0
   -0.9583   20.2981  -32.7231 H   0  0  0  0  0  0  0  0  0  0  0  0
   -1.2922   22.0136  -33.1559 H   0  0  0  0  0  0  0  0  0  0  0  0
   -0.4835   19.7909  -31.0978 H   0  0  0  0  0  0  0  0  0  0  0  0
    0.2368   21.2514  -30.3501 H   0  0  0  0  0  0  0  0  0  0  0  0
    0.2941   18.8740  -28.7302 H   0  0  0  0  0  0  0  0  0  0  0  0
   -0.7019   18.1809  -26.5506 H   0  0  0  0  0  0  0  0  0  0  0  0
   -2.8466   19.1960  -25.7748 H   0  0  0  0  0  0  0  0  0  0  0  0
   -4.0057   20.8997  -27.1857 H   0  0  0  0  0  0  0  0  0  0  0  0
   -3.0202   21.5924  -29.3727 H   0  0  0  0  0  0  0  0  0  0  0  0
  1  2  1  0
  2  3  1  0
  3  4  1  0
  4  5  1  0
  5  6  1  0
  6  7  1  0
  7  8  1  0
  8  9  1  0
  9 10  1  0
 10 11  1  0
 11 12  1  0
 12 13  1  0
 13 14  1  0
 14 15  1  0
 15 16  1  0
 16 17  1  0
 17 18  1  0
 11 19  1  0
 19 20  1  0
  4 21  1  0
 21 22  2  0
 21 23  1  0
 23 24  1  0
 24 25  1  0
 25 26  1  0
 26 27  2  0
 27 28  1  0
 28 29  2  0
 29 30  1  0
 30 31  2  0
 20  6  1  0
 31 26  1  0
 20  9  1  0
 18 13  1  0
  1 32  1  0
  1 33  1  0
  1 34  1  0
  2 35  1  0
  2 36  1  0
  3 37  1  0
  3 38  1  0
  5 39  1  0
  5 40  1  0
  6 41  1  6
  7 42  1  0
  7 43  1  0
  8 44  1  0
  8 45  1  0
  9 46  1  1
 10 47  1  0
 10 48  1  0
 12 49  1  0
 12 50  1  0
 13 51  1  0
 14 52  1  0
 14 53  1  0
 15 54  1  0
 15 55  1  0
 17 56  1  0
 17 57  1  0
 18 58  1  0
 18 59  1  0
 19 60  1  0
 19 61  1  0
 20 62  1  6
 23 63  1  0
 23 64  1  0
 25 65  1  0
 25 66  1  0
 27 67  1  0
 28 68  1  0
 29 69  1  0
 30 70  1  0
 31 71  1  0
M  END
>  <UniqueID>  (7) 
7

>  <SMILES>  (7) 
CCCN(C[C@H]1CC[C@@H]2CN(CC3CCOCC3)CC21)C(=O)COCc1ccccc1

>  <Energy>  (7) 
113.82393808461181

>  <Genealogy>  (7) 
CCCN(C[C@H]1CC[C@@H]2CN(CC3CCOCC3)CC21)C(=O)COCc1ccccc1 (chirality)
CCCN(C[C@H]1CC[C@@H]2CN(CC3CCOCC3)CC21)C(=O)COCc1ccccc1 (3D coordinates assigned)
CCCN(C[C@H]1CC[C@@H]2CN(CC3CCOCC3)CC21)C(=O)COCc1ccccc1 (nonaromatic ring conformer: 113.82393808461181 kcal/mol)

>  <smiles>  (7) 
CCCN(CC1CCC2CN(CC3CCOCC3)CC21)C(=O)COCc1ccccc1

>  <score_type>  (7) 
oracle

>  <origin>  (7) 
adg

>  <m_score__min__energy>  (7) 
-10

>  <m_primary>  (7) 
energy

$$$$
7:0
     RDKit          3D

 54 55  0  0  0  0  0  0  0  0999 V2000
   -2.3720   21.4230  -28.4400 C   0  0  0  0  0  0  0  0  0  0  0  0
   -1.9600   21.9360  -29.7590 N   0  0  0  0  0  0  0  0  0  0  0  0
   -2.2390   20.9180  -30.7870 C   0  0  0  0  0  0  0  0  0  0  0  0
   -0.5230   22.2870  -29.7670 C   0  0  0  0  0  0  0  0  0  0  0  0
   -0.1070   22.9120  -28.4290 C   0  0  0  0  0  0  0  0  0  0  0  0
    0.4160   24.2100  -28.6420 O   0  0  0  0  0  0  0  0  0  0  0  0
    0.0860   25.0650  -27.5660 C   0  0  0  0  0  0  0  0  0  0  0  0
   -0.9370   26.0890  -28.0370 C   0  0  0  0  0  0  0  0  0  0  0  0
   -1.5880   25.6000  -29.1860 O   0  0  0  0  0  0  0  0  0  0  0  0
   -2.4640   24.6530  -28.7630 N   0  0  0  0  0  0  0  0  0  0  0  0
   -3.7930   24.5580  -29.2830 C   0  0  0  0  0  0  0  0  0  0  0  0
   -4.6070   23.7640  -28.7400 O   0  0  0  0  0  0  0  0  0  0  0  0
   -4.2050   25.3690  -30.3910 N   0  0  0  0  0  0  0  0  0  0  0  0
   -5.5750   25.3240  -30.9030 C   0  0  0  0  0  0  0  0  0  0  0  0
   -5.8650   24.0010  -31.6320 C   0  0  0  0  0  0  0  0  0  0  0  0
   -5.9620   22.8450  -30.7190 N   0  0  0  0  0  0  0  0  0  0  0  0
   -6.8250   21.8050  -31.2520 C   0  0  0  0  0  0  0  0  0  0  0  0
   -8.1970   21.8570  -30.9390 C   0  0  0  0  0  0  0  0  0  0  0  0
   -9.0900   20.9140  -31.4440 C   0  0  0  0  0  0  0  0  0  0  0  0
   -8.6410   19.8970  -32.2780 C   0  0  0  0  0  0  0  0  0  0  0  0
   -7.2840   19.8080  -32.6150 C   0  0  0  0  0  0  0  0  0  0  0  0
   -6.8520   18.7810  -33.4690 C   0  0  0  0  0  0  0  0  0  0  0  0
   -5.5060   18.6740  -33.8170 C   0  0  0  0  0  0  0  0  0  0  0  0
   -4.5810   19.5870  -33.3130 C   0  0  0  0  0  0  0  0  0  0  0  0
   -4.9930   20.6150  -32.4620 C   0  0  0  0  0  0  0  0  0  0  0  0
   -6.3510   20.7550  -32.1000 C   0  0  0  0  0  0  0  0  0  0  0  0
   -1.8934   22.0190  -27.6490 H   0  0  0  0  0  0  0  0  0  0  0  0
   -3.4653   21.4960  -28.3434 H   0  0  0  0  0  0  0  0  0  0  0  0
   -2.0648   20.3712  -28.3434 H   0  0  0  0  0  0  0  0  0  0  0  0
   -2.4997   19.9668  -30.2999 H   0  0  0  0  0  0  0  0  0  0  0  0
   -3.0790   21.2510  -31.4143 H   0  0  0  0  0  0  0  0  0  0  0  0
   -1.3466   20.7762  -31.4143 H   0  0  0  0  0  0  0  0  0  0  0  0
    0.0696   21.3765  -29.9394 H   0  0  0  0  0  0  0  0  0  0  0  0
   -0.3433   23.0185  -30.5687 H   0  0  0  0  0  0  0  0  0  0  0  0
   -0.9845   22.9768  -27.7689 H   0  0  0  0  0  0  0  0  0  0  0  0
    0.6659   22.2838  -27.9622 H   0  0  0  0  0  0  0  0  0  0  0  0
   -0.3386   24.4727  -26.7421 H   0  0  0  0  0  0  0  0  0  0  0  0
    0.9908   25.5815  -27.2130 H   0  0  0  0  0  0  0  0  0  0  0  0
   -1.6764   26.2628  -27.2414 H   0  0  0  0  0  0  0  0  0  0  0  0
   -0.4293   27.0354  -28.2750 H   0  0  0  0  0  0  0  0  0  0  0  0
   -3.5160   26.0240  -30.8220 H   0  0  0  0  0  0  0  0  0  0  0  0
   -6.2744   25.4278  -30.0603 H   0  0  0  0  0  0  0  0  0  0  0  0
   -5.7003   26.1471  -31.6219 H   0  0  0  0  0  0  0  0  0  0  0  0
   -6.8178   24.1009  -32.1726 H   0  0  0  0  0  0  0  0  0  0  0  0
   -5.0225   23.8107  -32.3132 H   0  0  0  0  0  0  0  0  0  0  0  0
   -6.3820   23.1880  -29.8230 H   0  0  0  0  0  0  0  0  0  0  0  0
   -5.0190   22.4980  -30.4480 H   0  0  0  0  0  0  0  0  0  0  0  0
   -8.5709   22.6572  -30.2834 H   0  0  0  0  0  0  0  0  0  0  0  0
  -10.1564   20.9749  -31.1810 H   0  0  0  0  0  0  0  0  0  0  0  0
   -9.3537   19.1591  -32.6750 H   0  0  0  0  0  0  0  0  0  0  0  0
   -7.5790   18.0570  -33.8656 H   0  0  0  0  0  0  0  0  0  0  0  0
   -5.1741   17.8691  -34.4893 H   0  0  0  0  0  0  0  0  0  0  0  0
   -3.5195   19.4972  -33.5873 H   0  0  0  0  0  0  0  0  0  0  0  0
   -4.2503   21.3247  -32.0687 H   0  0  0  0  0  0  0  0  0  0  0  0
  1  2  1  0
  2  3  1  0
  2  4  1  0
  4  5  1  0
  5  6  1  0
  6  7  1  0
  7  8  1  0
  8  9  1  0
  9 10  1  0
 10 11  1  0
 11 12  2  0
 11 13  1  0
 13 14  1  0
 14 15  1  0
 15 16  1  0
 16 17  1  0
 17 18  2  0
 18 19  1  0
 19 20  2  0
 20 21  1  0
 21 22  2  0
 22 23  1  0
 23 24  2  0
 24 25  1  0
 25 26  2  0
 26 17  1  0
 26 21  1  0
  1 27  1  0
  1 28  1  0
  1 29  1  0
  3 30  1  0
  3 31  1  0
  3 32  1  0
  4 33  1  0
  4 34  1  0
  5 35  1  0
  5 36  1  0
  7 37  1  0
  7 38  1  0
  8 39  1  0
  8 40  1  0
 13 41  1  0
 14 42  1  0
 14 43  1  0
 15 44  1  0
 15 45  1  0
 16 46  1  0
 16 47  1  0
 18 48  1  0
 19 49  1  0
 20 50  1  0
 22 51  1  0
 23 52  1  0
 24 53  1  0
 25 54  1  0
M  CHG  2  10  -1  16   1
M  END
>  <UniqueID>  (8) 
8

>  <SMILES>  (8) 
CN(C)CCOCCO[N-]C(=O)NCC[NH2+]c1cccc2ccccc12

>  <Energy>  (8) 
54.186667197551856

>  <Genealogy>  (8) 
CN(C)CCOCCO[N-]C(=O)NCC[NH2+]c1cccc2ccccc12 (protonated)
CN(C)CCOCCO[N-]C(=O)NCC[NH2+]c1cccc2ccccc12 (3D coordinates assigned)
CN(C)CCOCCO[N-]C(=O)NCC[NH2+]c1cccc2ccccc12 (optimized conformer: 54.186667197551856 kcal/mol)

>  <smiles>  (8) 
CN(C)CCOCCONC(=O)NCCNc1cccc2ccccc12

>  <score_type>  (8) 
oracle

>  <origin>  (8) 
adg

>  <m_score__min__energy>  (8) 
-9.1899999999999995

>  <m_primary>  (8) 
energy

$$$$
8:0
     RDKit          3D

 32 33  0  0  0  0  0  0  0  0999 V2000
   -3.3900   22.3350  -29.7220 C   0  0  0  0  0  0  0  0  0  0  0  0
   -3.3350   23.4460  -30.7690 C   0  0  0  0  0  0  0  0  0  0  0  0
   -4.1510   24.6140  -30.3680 N   0  0  0  0  0  0  0  0  0  0  0  0
   -4.5230   24.5230  -28.9460 C   0  0  0  0  0  0  0  0  0  0  0  0
   -5.3350   24.8470  -31.2300 C   0  0  0  0  0  0  0  0  0  0  0  0
   -6.2730   23.6720  -31.3040 C   0  0  0  0  0  0  0  0  0  0  0  0
   -7.5900   23.6550  -30.9050 C   0  0  0  0  0  0  0  0  0  0  0  0
   -8.0570   22.4560  -31.1460 O   0  0  0  0  0  0  0  0  0  0  0  0
   -7.0770   21.7520  -31.6710 C   0  0  0  0  0  0  0  0  0  0  0  0
   -7.2110   20.3410  -32.0840 C   0  0  0  0  0  0  0  0  0  0  0  0
   -8.2590   19.5540  -31.5770 C   0  0  0  0  0  0  0  0  0  0  0  0
   -8.3900   18.2170  -31.9670 C   0  0  0  0  0  0  0  0  0  0  0  0
   -7.4780   17.6550  -32.8630 C   0  0  0  0  0  0  0  0  0  0  0  0
   -6.4320   18.4290  -33.3740 C   0  0  0  0  0  0  0  0  0  0  0  0
   -5.1860   17.6600  -34.6000 Br  0  0  0  0  0  0  0  0  0  0  0  0
   -6.2970   19.7670  -32.9860 C   0  0  0  0  0  0  0  0  0  0  0  0
   -5.9350   22.4640  -31.7930 N   0  0  0  0  0  0  0  0  0  0  0  0
   -3.3681   22.7783  -28.7155 H   0  0  0  0  0  0  0  0  0  0  0  0
   -4.3178   21.7578  -29.8483 H   0  0  0  0  0  0  0  0  0  0  0  0
   -2.5237   21.6689  -29.8483 H   0  0  0  0  0  0  0  0  0  0  0  0
   -2.2903   23.7667  -30.8946 H   0  0  0  0  0  0  0  0  0  0  0  0
   -3.7408   23.0504  -31.7118 H   0  0  0  0  0  0  0  0  0  0  0  0
   -3.6429   24.7383  -28.3223 H   0  0  0  0  0  0  0  0  0  0  0  0
   -5.3154   25.2538  -28.7268 H   0  0  0  0  0  0  0  0  0  0  0  0
   -4.8886   23.5089  -28.7268 H   0  0  0  0  0  0  0  0  0  0  0  0
   -5.8898   25.7092  -30.8316 H   0  0  0  0  0  0  0  0  0  0  0  0
   -4.9599   25.0223  -32.2491 H   0  0  0  0  0  0  0  0  0  0  0  0
   -8.1478   24.4946  -30.4645 H   0  0  0  0  0  0  0  0  0  0  0  0
   -8.9796   19.9913  -30.8702 H   0  0  0  0  0  0  0  0  0  0  0  0
   -9.2133   17.6069  -31.5670 H   0  0  0  0  0  0  0  0  0  0  0  0
   -7.5828   16.6030  -33.1667 H   0  0  0  0  0  0  0  0  0  0  0  0
   -5.4718   20.3728  -33.3886 H   0  0  0  0  0  0  0  0  0  0  0  0
  1  2  1  0
  2  3  1  0
  3  4  1  0
  3  5  1  0
  5  6  1  0
  6  7  2  0
  7  8  1  0
  8  9  1  0
  9 10  1  0
 10 11  2  0
 11 12  1  0
 12 13  2  0
 13 14  1  0
 14 15  1  0
 14 16  2  0
  9 17  2  0
 17  6  1  0
 16 10  1  0
  1 18  1  0
  1 19  1  0
  1 20  1  0
  2 21  1  0
  2 22  1  0
  4 23  1  0
  4 24  1  0
  4 25  1  0
  5 26  1  0
  5 27  1  0
  7 28  1  0
 11 29  1  0
 12 30  1  0
 13 31  1  0
 16 32  1  0
M  END
>  <UniqueID>  (9) 
9

>  <SMILES>  (9) 
CCN(C)Cc1coc(-c2cccc(Br)c2)n1

>  <Energy>  (9) 
62.04627626534325

>  <Genealogy>  (9) 
CCN(C)Cc1coc(-c2cccc(Br)c2)n1 (3D coordinates assigned)
CCN(C)Cc1coc(-c2cccc(Br)c2)n1 (optimized conformer: 62.04627626534325 kcal/mol)

>  <smiles>  (9) 
CCN(C)Cc1coc(-c2cccc(Br)c2)n1

>  <score_type>  (9) 
oracle

>  <origin>  (9) 
adg

>  <m_score__min__energy>  (9) 
-6.6200000000000001

>  <m_primary>  (9) 
energy

$$$$
9:0
     RDKit          3D

 53 56  0  0  0  0  0  0  0  0999 V2000
   -9.5010   21.0190  -31.9370 C   0  0  0  0  0  0  0  0  0  0  0  0
   -8.4500   20.0940  -32.4530 C   0  0  0  0  0  0  0  0  0  0  0  0
   -7.2840   20.4660  -33.0930 C   0  0  0  0  0  0  0  0  0  0  0  0
   -6.6940   19.2680  -33.4670 C   0  0  0  0  0  0  0  0  0  0  0  0
   -5.3900   19.1270  -34.2200 C   0  0  0  0  0  0  0  0  0  0  0  0
   -4.1930   19.2240  -33.3550 N   0  0  0  0  0  0  0  0  0  0  0  0
   -4.4870   19.2250  -31.9000 C   0  0  0  0  0  0  0  0  0  0  0  0
   -4.2750   20.6050  -31.2610 C   0  0  0  0  0  0  0  0  0  0  0  0
   -2.8110   21.1170  -31.4330 C   0  0  0  0  0  0  0  0  0  0  0  0
   -2.1720   20.5230  -32.7210 C   0  0  0  0  0  0  0  0  0  0  0  0
   -3.2270   20.2540  -33.7990 C   0  0  0  0  0  0  0  0  0  0  0  0
   -2.8420   22.6740  -31.5490 C   0  0  0  0  0  0  0  0  0  0  0  0
   -3.2410   23.2340  -30.2590 N   0  0  0  0  0  0  0  0  0  0  0  0
   -4.1560   24.3430  -30.1860 C   0  0  0  0  0  0  0  0  0  0  0  0
   -3.8780   25.4290  -30.7630 O   0  0  0  0  0  0  0  0  0  0  0  0
   -5.4340   24.2360  -29.4050 C   0  0  0  0  0  0  0  0  0  0  0  0
   -6.6490   23.8910  -30.2540 C   0  0  0  0  0  0  0  0  0  0  0  0
   -6.4770   25.3000  -29.7190 C   0  0  0  0  0  0  0  0  0  0  0  0
   -2.6530   22.6560  -29.0490 C   0  0  0  0  0  0  0  0  0  0  0  0
   -1.5770   21.6270  -29.4250 C   0  0  0  0  0  0  0  0  0  0  0  0
   -2.0610   20.6300  -30.3120 O   0  0  0  0  0  0  0  0  0  0  0  0
   -7.4870   18.2490  -33.0580 N   0  0  0  0  0  0  0  0  0  0  0  0
   -7.1980   16.8180  -33.1280 C   0  0  0  0  0  0  0  0  0  0  0  0
   -8.5470   18.7520  -32.4470 N   0  0  0  0  0  0  0  0  0  0  0  0
   -9.4900   21.0094  -30.8371 H   0  0  0  0  0  0  0  0  0  0  0  0
   -9.3005   22.0390  -32.2968 H   0  0  0  0  0  0  0  0  0  0  0  0
  -10.4873   20.6906  -32.2968 H   0  0  0  0  0  0  0  0  0  0  0  0
   -6.9075   21.4848  -33.2671 H   0  0  0  0  0  0  0  0  0  0  0  0
   -5.3804   18.1464  -34.7183 H   0  0  0  0  0  0  0  0  0  0  0  0
   -5.3391   19.9606  -34.9360 H   0  0  0  0  0  0  0  0  0  0  0  0
   -5.5344   18.9239  -31.7510 H   0  0  0  0  0  0  0  0  0  0  0  0
   -3.7928   18.5215  -31.4171 H   0  0  0  0  0  0  0  0  0  0  0  0
   -4.9594   21.3237  -31.7354 H   0  0  0  0  0  0  0  0  0  0  0  0
   -4.4752   20.5119  -30.1834 H   0  0  0  0  0  0  0  0  0  0  0  0
   -1.4326   21.2360  -33.1146 H   0  0  0  0  0  0  0  0  0  0  0  0
   -1.6942   19.5672  -32.4598 H   0  0  0  0  0  0  0  0  0  0  0  0
   -3.7693   21.1871  -34.0115 H   0  0  0  0  0  0  0  0  0  0  0  0
   -2.7174   19.8882  -34.7026 H   0  0  0  0  0  0  0  0  0  0  0  0
   -1.8424   23.0446  -31.8198 H   0  0  0  0  0  0  0  0  0  0  0  0
   -3.5591   22.9770  -32.3262 H   0  0  0  0  0  0  0  0  0  0  0  0
   -4.9798   23.8456  -28.4823 H   0  0  0  0  0  0  0  0  0  0  0  0
   -6.5297   23.6931  -31.3295 H   0  0  0  0  0  0  0  0  0  0  0  0
   -7.4431   23.1316  -30.2017 H   0  0  0  0  0  0  0  0  0  0  0  0
   -6.2329   26.1232  -30.4066 H   0  0  0  0  0  0  0  0  0  0  0  0
   -7.0945   25.9842  -29.1186 H   0  0  0  0  0  0  0  0  0  0  0  0
   -2.1968   23.4565  -28.4481 H   0  0  0  0  0  0  0  0  0  0  0  0
   -3.4423   22.1559  -28.4686 H   0  0  0  0  0  0  0  0  0  0  0  0
   -0.7405   22.1527  -29.9086 H   0  0  0  0  0  0  0  0  0  0  0  0
   -1.2595   21.1239  -28.4997 H   0  0  0  0  0  0  0  0  0  0  0  0
   -7.1157   16.4103  -32.1097 H   0  0  0  0  0  0  0  0  0  0  0  0
   -8.0108   16.3055  -33.6635 H   0  0  0  0  0  0  0  0  0  0  0  0
   -6.2500   16.6611  -33.6635 H   0  0  0  0  0  0  0  0  0  0  0  0
   -9.3210   18.1880  -32.0270 H   0  0  0  0  0  0  0  0  0  0  0  0
  1  2  1  0
  2  3  1  0
  3  4  2  0
  4  5  1  0
  5  6  1  0
  6  7  1  0
  7  8  1  0
  8  9  1  0
  9 10  1  0
 10 11  1  0
  9 12  1  0
 12 13  1  0
 13 14  1  0
 14 15  2  0
 14 16  1  0
 16 17  1  0
 17 18  1  0
 13 19  1  0
 19 20  1  0
 20 21  1  0
  4 22  1  0
 22 23  1  0
 22 24  1  0
 24  2  2  0
 11  6  1  0
 18 16  1  0
 21  9  1  0
  1 25  1  0
  1 26  1  0
  1 27  1  0
  3 28  1  0
  5 29  1  0
  5 30  1  0
  7 31  1  0
  7 32  1  0
  8 33  1  0
  8 34  1  0
 10 35  1  0
 10 36  1  0
 11 37  1  0
 11 38  1  0
 12 39  1  0
 12 40  1  0
 16 41  1  0
 17 42  1  0
 17 43  1  0
 18 44  1  0
 18 45  1  0
 19 46  1  0
 19 47  1  0
 20 48  1  0
 20 49  1  0
 23 50  1  0
 23 51  1  0
 23 52  1  0
 24 53  1  0
M  CHG  1  24   1
M  END
>  <UniqueID>  (10) 
10

>  <SMILES>  (10) 
Cc1cc(CN2CCC3(CC2)CN(C(=O)C2CC2)CCO3)n(C)[nH+]1

>  <Energy>  (10) 
364.8782362117476

>  <Genealogy>  (10) 
Cc1cc(CN2CCC3(CC2)CN(C(=O)C2CC2)CCO3)n(C)[nH+]1 (protonated)
Cc1cc(CN2CCC3(CC2)CN(C(=O)C2CC2)CCO3)n(C)[nH+]1 (3D coordinates assigned)
Cc1cc(CN2CCC3(CC2)CN(C(=O)C2CC2)CCO3)n(C)[nH+]1 (nonaromatic ring conformer: 364.8782362117476 kcal/mol)

>  <smiles>  (10) 
Cc1cc(CN2CCC3(CC2)CN(C(=O)C2CC2)CCO3)n(C)n1

>  <score_type>  (10) 
oracle

>  <origin>  (10) 
adg

>  <m_score__min__energy>  (10) 
-8.2400000000000002

>  <m_primary>  (10) 
energy

$$$$
10:0
     RDKit          3D

 45 47  0  0  0  0  0  0  0  0999 V2000
   -8.5010   22.6460  -31.8100 C   0  0  0  0  0  0  0  0  0  0  0  0
   -7.1890   22.0280  -31.9710 N   0  0  0  0  0  0  0  0  0  0  0  0
   -7.0130   20.7230  -32.1130 N   0  0  0  0  0  0  0  0  0  0  0  0
   -5.6950   20.4970  -32.2760 C   0  0  0  0  0  0  0  0  0  0  0  0
   -5.0150   21.7000  -32.2350 C   0  0  0  0  0  0  0  0  0  0  0  0
   -3.5440   21.9020  -32.4470 C   0  0  0  0  0  0  0  0  0  0  0  0
   -2.8580   22.0750  -31.1590 N   0  0  0  0  0  0  0  0  0  0  0  0
   -2.7390   20.8150  -30.4030 C   0  0  0  0  0  0  0  0  0  0  0  0
   -1.5130   20.8020  -29.4780 C   0  0  0  0  0  0  0  0  0  0  0  0
   -1.8040   20.0280  -28.2760 N   0  0  0  0  0  0  0  0  0  0  0  0
   -2.9400   20.0840  -27.5560 C   0  0  0  0  0  0  0  0  0  0  0  0
   -2.8540   19.1570  -26.5410 C   0  0  0  0  0  0  0  0  0  0  0  0
   -1.6200   18.5570  -26.7160 C   0  0  0  0  0  0  0  0  0  0  0  0
   -1.0010   19.0990  -27.7830 N   0  0  0  0  0  0  0  0  0  0  0  0
   -5.9970   22.6600  -32.0500 C   0  0  0  0  0  0  0  0  0  0  0  0
   -5.7870   24.1460  -31.9160 C   0  0  0  0  0  0  0  0  0  0  0  0
   -5.3590   24.5300  -30.4980 C   0  0  0  0  0  0  0  0  0  0  0  0
   -3.9360   24.8580  -30.4680 N   0  0  0  0  0  0  0  0  0  0  0  0
   -3.1480   24.5930  -29.4710 C   0  0  0  0  0  0  0  0  0  0  0  0
   -3.4960   23.6200  -28.5870 N   0  0  0  0  0  0  0  0  0  0  0  0
   -2.6990   23.3140  -27.5310 C   0  0  0  0  0  0  0  0  0  0  0  0
   -1.5010   24.0030  -27.3420 C   0  0  0  0  0  0  0  0  0  0  0  0
   -1.1560   24.9980  -28.2550 C   0  0  0  0  0  0  0  0  0  0  0  0
   -1.9810   25.2740  -29.2980 N   0  0  0  0  0  0  0  0  0  0  0  0
   -8.7272   22.7525  -30.7388 H   0  0  0  0  0  0  0  0  0  0  0  0
   -8.4997   23.6382  -32.2849 H   0  0  0  0  0  0  0  0  0  0  0  0
   -9.2652   22.0132  -32.2849 H   0  0  0  0  0  0  0  0  0  0  0  0
   -5.2321   19.5095  -32.4193 H   0  0  0  0  0  0  0  0  0  0  0  0
   -3.1287   21.0241  -32.9634 H   0  0  0  0  0  0  0  0  0  0  0  0
   -3.3928   22.8060  -33.0552 H   0  0  0  0  0  0  0  0  0  0  0  0
   -3.3800   22.7810  -30.5880 H   0  0  0  0  0  0  0  0  0  0  0  0
   -3.6441   20.6825  -29.7921 H   0  0  0  0  0  0  0  0  0  0  0  0
   -2.6204   19.9975  -31.1293 H   0  0  0  0  0  0  0  0  0  0  0  0
   -0.6622   20.3477  -30.0069 H   0  0  0  0  0  0  0  0  0  0  0  0
   -1.2653   21.8348  -29.1917 H   0  0  0  0  0  0  0  0  0  0  0  0
   -3.7908   20.7549  -27.7457 H   0  0  0  0  0  0  0  0  0  0  0  0
   -3.6014   18.9414  -25.7632 H   0  0  0  0  0  0  0  0  0  0  0  0
   -1.2071   17.7593  -26.0811 H   0  0  0  0  0  0  0  0  0  0  0  0
   -5.0047   24.4609  -32.6223 H   0  0  0  0  0  0  0  0  0  0  0  0
   -6.7405   24.6488  -32.1351 H   0  0  0  0  0  0  0  0  0  0  0  0
   -5.9397   25.4041  -30.1681 H   0  0  0  0  0  0  0  0  0  0  0  0
   -5.5437   23.6788  -29.8262 H   0  0  0  0  0  0  0  0  0  0  0  0
   -2.9976   22.5242  -26.8259 H   0  0  0  0  0  0  0  0  0  0  0  0
   -0.8438   23.7666  -26.4922 H   0  0  0  0  0  0  0  0  0  0  0  0
   -0.2176   25.5585  -28.1311 H   0  0  0  0  0  0  0  0  0  0  0  0
  1  2  1  0
  2  3  1  0
  3  4  2  0
  4  5  1  0
  5  6  1  0
  6  7  1  0
  7  8  1  0
  8  9  1  0
  9 10  1  0
 10 11  1  0
 11 12  2  0
 12 13  1  0
 13 14  2  0
  5 15  2  0
 15 16  1  0
 16 17  1  0
 17 18  1  0
 18 19  2  3
 19 20  1  0
 20 21  2  0
 21 22  1  0
 22 23  2  0
 23 24  1  0
 15  2  1  0
 24 19  1  0
 14 10  1  0
  1 25  1  0
  1 26  1  0
  1 27  1  0
  4 28  1  0
  6 29  1  0
  6 30  1  0
  7 31  1  0
  8 32  1  0
  8 33  1  0
  9 34  1  0
  9 35  1  0
 11 36  1  0
 12 37  1  0
 13 38  1  0
 16 39  1  0
 16 40  1  0
 17 41  1  0
 17 42  1  0
 21 43  1  0
 22 44  1  0
 23 45  1  0
M  CHG  1  24  -1
M  END
>  <UniqueID>  (11) 
11

>  <SMILES>  (11) 
Cn1ncc(CNCCn2cccn2)c1CCN=c1nccc[n-]1

>  <Energy>  (11) 
99.89778341529659

>  <Genealogy>  (11) 
Cn1ncc(CNCCn2cccn2)c1CCN=c1nccc[n-]1 (protonated)
Cn1ncc(CNCCn2cccn2)c1CCN=c1nccc[n-]1 (3D coordinates assigned)
Cn1ncc(CNCCn2cccn2)c1CCN=c1nccc[n-]1 (optimized conformer: 99.89778341529659 kcal/mol)

>  <smiles>  (11) 
Cn1ncc(CNCCn2cccn2)c1CCN=c1nccc[nH]1

>  <score_type>  (11) 
oracle

>  <origin>  (11) 
adg

>  <m_score__min__energy>  (11) 
-8.4800000000000004

>  <m_primary>  (11) 
energy

$$$$
11:0
     RDKit          3D

 35 38  0  0  0  0  0  0  0  0999 V2000
   -2.6020   19.5640  -34.0800 C   0  0  0  0  0  0  0  0  0  0  0  0
   -4.0390   19.2610  -33.7480 C   0  0  0  0  0  0  0  0  0  0  0  0
   -4.8520   20.2830  -33.3350 N   0  0  0  0  0  0  0  0  0  0  0  0
   -6.1510   20.0390  -33.0280 C   0  0  0  0  0  0  0  0  0  0  0  0
   -6.7070   18.7850  -33.1140 C   0  0  0  0  0  0  0  0  0  0  0  0
   -5.9270   17.7020  -33.5300 C   0  0  0  0  0  0  0  0  0  0  0  0
   -6.4570   16.4130  -33.6360 C   0  0  0  0  0  0  0  0  0  0  0  0
   -5.6380   15.3660  -34.0570 C   0  0  0  0  0  0  0  0  0  0  0  0
   -4.3230   15.5850  -34.3500 N   0  0  0  0  0  0  0  0  0  0  0  0
   -3.4940   14.4740  -34.8240 C   0  0  0  0  0  0  0  0  0  0  0  0
   -3.7850   16.8400  -34.2730 C   0  0  0  0  0  0  0  0  0  0  0  0
   -4.5660   17.9360  -33.8540 C   0  0  0  0  0  0  0  0  0  0  0  0
   -8.1610   18.8130  -32.7160 C   0  0  0  0  0  0  0  0  0  0  0  0
   -8.3330   20.2710  -32.3950 C   0  0  0  0  0  0  0  0  0  0  0  0
   -9.4900   20.9180  -31.9600 C   0  0  0  0  0  0  0  0  0  0  0  0
   -9.4350   22.3010  -31.7130 C   0  0  0  0  0  0  0  0  0  0  0  0
   -8.2330   23.0120  -31.9040 C   0  0  0  0  0  0  0  0  0  0  0  0
   -7.0770   22.3460  -32.3420 C   0  0  0  0  0  0  0  0  0  0  0  0
   -7.1580   20.9740  -32.5790 C   0  0  0  0  0  0  0  0  0  0  0  0
   -2.0283   19.6850  -33.1493 H   0  0  0  0  0  0  0  0  0  0  0  0
   -2.1786   18.7354  -34.6666 H   0  0  0  0  0  0  0  0  0  0  0  0
   -2.5492   20.4930  -34.6666 H   0  0  0  0  0  0  0  0  0  0  0  0
   -4.4810   21.2570  -33.2510 H   0  0  0  0  0  0  0  0  0  0  0  0
   -7.5125   16.2259  -33.3891 H   0  0  0  0  0  0  0  0  0  0  0  0
   -6.0559   14.3531  -34.1540 H   0  0  0  0  0  0  0  0  0  0  0  0
   -3.0858   13.9270  -33.9613 H   0  0  0  0  0  0  0  0  0  0  0  0
   -4.1067   13.7933  -35.4333 H   0  0  0  0  0  0  0  0  0  0  0  0
   -2.6670   14.8675  -35.4333 H   0  0  0  0  0  0  0  0  0  0  0  0
   -2.7297   16.9960  -34.5414 H   0  0  0  0  0  0  0  0  0  0  0  0
   -8.8141   18.5003  -33.5440 H   0  0  0  0  0  0  0  0  0  0  0  0
   -8.4231   18.1302  -31.8943 H   0  0  0  0  0  0  0  0  0  0  0  0
  -10.4254   20.3580  -31.8134 H   0  0  0  0  0  0  0  0  0  0  0  0
  -10.3352   22.8312  -31.3687 H   0  0  0  0  0  0  0  0  0  0  0  0
   -8.2004   24.0941  -31.7089 H   0  0  0  0  0  0  0  0  0  0  0  0
   -6.1338   22.8912  -32.4940 H   0  0  0  0  0  0  0  0  0  0  0  0
  1  2  1  0
  2  3  2  0
  3  4  1  0
  4  5  2  0
  5  6  1  0
  6  7  2  0
  7  8  1  0
  8  9  2  0
  9 10  1  0
  9 11  1  0
 11 12  2  0
  5 13  1  0
 13 14  1  0
 14 15  2  0
 15 16  1  0
 16 17  2  0
 17 18  1  0
 18 19  2  0
 12  2  1  0
 19 14  1  0
 19  4  1  0
 12  6  1  0
  1 20  1  0
  1 21  1  0
  1 22  1  0
  3 23  1  0
  7 24  1  0
  8 25  1  0
 10 26  1  0
 10 27  1  0
 10 28  1  0
 11 29  1  0
 13 30  1  0
 13 31  1  0
 15 32  1  0
 16 33  1  0
 17 34  1  0
 18 35  1  0
M  CHG  2   3   1   9   1
M  END
>  <UniqueID>  (12) 
12

>  <SMILES>  (12) 
Cc1[nH+]c2c(c3cc[n+](C)cc13)Cc1ccccc1-2

>  <Energy>  (12) 
67.28158088271829

>  <Genealogy>  (12) 
Cc1[nH+]c2c(c3cc[n+](C)cc13)Cc1ccccc1-2 (protonated)
Cc1[nH+]c2c(c3cc[n+](C)cc13)Cc1ccccc1-2 (3D coordinates assigned)
Cc1[nH+]c2c(c3cc[n+](C)cc13)Cc1ccccc1-2 (nonaromatic ring conformer: 67.28158088271829 kcal/mol)

>  <smiles>  (12) 
Cc1nc2c(c3cc[n+](C)cc13)Cc1ccccc1-2

>  <score_type>  (12) 
oracle

>  <origin>  (12) 
adg

>  <m_score__min__energy>  (12) 
-6.7699999999999996

>  <m_primary>  (12) 
energy

$$$$
12:0
     RDKit          3D

 41 42  0  0  0  0  0  0  0  0999 V2000
   -9.4940   21.5580  -31.1830 C   0  0  0  0  0  0  0  0  0  0  0  0
   -7.9710   21.5820  -31.0710 C   0  0  0  0  0  0  0  0  0  0  0  0
   -7.3500   21.9350  -32.3710 N   0  0  0  0  0  0  0  0  0  0  0  0
   -6.0640   21.2370  -32.6200 C   0  0  0  0  0  0  0  0  0  0  0  0
   -4.8310   22.1670  -32.5930 C   0  0  0  0  0  0  0  0  0  0  0  0
   -4.9450   23.2180  -31.5630 N   0  0  0  0  0  0  0  0  0  0  0  0
   -4.7120   22.7130  -30.1890 C   0  0  0  0  0  0  0  0  0  0  0  0
   -3.3170   23.1110  -29.6910 C   0  0  0  0  0  0  0  0  0  0  0  0
   -3.0870   24.5970  -29.8190 C   0  0  0  0  0  0  0  0  0  0  0  0
   -3.9210   25.2860  -30.4620 O   0  0  0  0  0  0  0  0  0  0  0  0
   -1.8900   25.2310  -29.3470 N   0  0  0  0  0  0  0  0  0  0  0  0
   -1.5940   25.5720  -27.9880 C   0  0  0  0  0  0  0  0  0  0  0  0
   -0.6120   26.5350  -27.7250 C   0  0  0  0  0  0  0  0  0  0  0  0
   -0.3010   26.8830  -26.4080 C   0  0  0  0  0  0  0  0  0  0  0  0
   -0.9870   26.2880  -25.3450 C   0  0  0  0  0  0  0  0  0  0  0  0
   -0.5570   26.7600  -23.5450 Br  0  0  0  0  0  0  0  0  0  0  0  0
   -1.9950   25.3530  -25.6030 C   0  0  0  0  0  0  0  0  0  0  0  0
   -2.3070   25.0030  -26.9200 C   0  0  0  0  0  0  0  0  0  0  0  0
   -6.1670   24.0460  -31.7130 C   0  0  0  0  0  0  0  0  0  0  0  0
   -7.2540   23.3920  -32.5900 C   0  0  0  0  0  0  0  0  0  0  0  0
   -9.9357   21.5510  -30.1756 H   0  0  0  0  0  0  0  0  0  0  0  0
   -9.8358   22.4509  -31.7270 H   0  0  0  0  0  0  0  0  0  0  0  0
   -9.8075   20.6548  -31.7270 H   0  0  0  0  0  0  0  0  0  0  0  0
   -7.6770   22.3273  -30.3173 H   0  0  0  0  0  0  0  0  0  0  0  0
   -7.6245   20.5804  -30.7765 H   0  0  0  0  0  0  0  0  0  0  0  0
   -5.9331   20.4659  -31.8465 H   0  0  0  0  0  0  0  0  0  0  0  0
   -6.1219   20.8133  -33.6335 H   0  0  0  0  0  0  0  0  0  0  0  0
   -3.9362   21.5623  -32.3839 H   0  0  0  0  0  0  0  0  0  0  0  0
   -4.7611   22.6620  -33.5728 H   0  0  0  0  0  0  0  0  0  0  0  0
   -5.4703   23.1384  -29.5151 H   0  0  0  0  0  0  0  0  0  0  0  0
   -4.7821   21.6153  -30.2005 H   0  0  0  0  0  0  0  0  0  0  0  0
   -3.2197   22.8241  -28.6336 H   0  0  0  0  0  0  0  0  0  0  0  0
   -2.5691   22.5917  -30.3082 H   0  0  0  0  0  0  0  0  0  0  0  0
   -0.0831   27.0196  -28.5589 H   0  0  0  0  0  0  0  0  0  0  0  0
    0.4847   27.6262  -26.2073 H   0  0  0  0  0  0  0  0  0  0  0  0
   -2.5432   24.8923  -24.7680 H   0  0  0  0  0  0  0  0  0  0  0  0
   -3.1122   24.2808  -27.1202 H   0  0  0  0  0  0  0  0  0  0  0  0
   -6.5892   24.2266  -30.7134 H   0  0  0  0  0  0  0  0  0  0  0  0
   -5.8653   24.9770  -32.2151 H   0  0  0  0  0  0  0  0  0  0  0  0
   -8.2248   23.8503  -32.3503 H   0  0  0  0  0  0  0  0  0  0  0  0
   -6.9806   23.5565  -33.6427 H   0  0  0  0  0  0  0  0  0  0  0  0
  1  2  1  0
  2  3  1  0
  3  4  1  0
  4  5  1  0
  5  6  1  0
  6  7  1  0
  7  8  1  0
  8  9  1  0
  9 10  2  0
  9 11  1  0
 11 12  1  0
 12 13  2  0
 13 14  1  0
 14 15  2  0
 15 16  1  0
 15 17  1  0
 17 18  2  0
  6 19  1  0
 19 20  1  0
 20  3  1  0
 18 12  1  0
  1 21  1  0
  1 22  1  0
  1 23  1  0
  2 24  1  0
  2 25  1  0
  4 26  1  0
  4 27  1  0
  5 28  1  0
  5 29  1  0
  7 30  1  0
  7 31  1  0
  8 32  1  0
  8 33  1  0
 13 34  1  0
 14 35  1  0
 17 36  1  0
 18 37  1  0
 19 38  1  0
 19 39  1  0
 20 40  1  0
 20 41  1  0
M  CHG  1  11  -1
M  END
>  <UniqueID>  (13) 
13

>  <SMILES>  (13) 
CCN1CCN(CCC(=O)[N-]c2ccc(Br)cc2)CC1

>  <Energy>  (13) 
56.91085237533639

>  <Genealogy>  (13) 
CCN1CCN(CCC(=O)[N-]c2ccc(Br)cc2)CC1 (protonated)
CCN1CCN(CCC(=O)[N-]c2ccc(Br)cc2)CC1 (3D coordinates assigned)
CCN1CCN(CCC(=O)[N-]c2ccc(Br)cc2)CC1 (nonaromatic ring conformer: 56.91085237533639 kcal/mol)

>  <smiles>  (13) 
CCN1CCN(CCC(=O)Nc2ccc(Br)cc2)CC1

>  <score_type>  (13) 
oracle

>  <origin>  (13) 
adg

>  <m_score__min__energy>  (13) 
-9.6099999999999994

>  <m_primary>  (13) 
energy

$$$$
13:0
     RDKit          3D

 36 37  0  0  0  0  0  0  0  0999 V2000
   -3.5585   22.8524  -30.2953 H   0  0  0  0  0  0  0  0  0  0  0  0
   -4.4000   23.0520  -30.9750 C   0  0  0  0  0  0  0  0  0  0  0  0
   -4.6100   22.1930  -31.9880 C   0  0  0  0  0  0  0  0  0  0  0  0
   -4.4469   22.5584  -33.0126 H   0  0  0  0  0  0  0  0  0  0  0  0
   -5.0560   20.7560  -31.8130 C   0  0  0  0  0  0  0  0  0  0  0  0
   -4.6959   20.1675  -32.6697 H   0  0  0  0  0  0  0  0  0  0  0  0
   -4.6357   20.3873  -30.8657 H   0  0  0  0  0  0  0  0  0  0  0  0
   -6.5420   20.6270  -31.7330 N   0  0  1  0  0  0  0  0  0  0  0  0
   -6.7710   20.5770  -30.7180 H   0  0  0  0  0  0  0  0  0  0  0  0
   -7.1800   21.8450  -32.3150 C   0  0  0  0  0  0  0  0  0  0  0  0
   -6.4521   22.6678  -32.2584 H   0  0  0  0  0  0  0  0  0  0  0  0
   -7.4658   21.5727  -33.3417 H   0  0  0  0  0  0  0  0  0  0  0  0
   -8.4910   22.3170  -31.6200 C   0  0  0  0  0  0  0  0  0  0  0  0
   -8.2469   22.5540  -30.5739 H   0  0  0  0  0  0  0  0  0  0  0  0
   -8.8416   23.1729  -32.2154 H   0  0  0  0  0  0  0  0  0  0  0  0
   -9.6650   21.3230  -31.6110 C   0  0  0  0  0  0  0  0  0  0  0  0
   -9.7705   20.9283  -30.5897 H   0  0  0  0  0  0  0  0  0  0  0  0
  -10.5464   21.8842  -31.9547 H   0  0  0  0  0  0  0  0  0  0  0  0
   -9.5120   20.1260  -32.5740 C   0  0  0  0  0  0  0  0  0  0  0  0
  -10.5002   19.6566  -32.6885 H   0  0  0  0  0  0  0  0  0  0  0  0
   -9.1039   20.5432  -33.5064 H   0  0  0  0  0  0  0  0  0  0  0  0
   -8.5200   19.0360  -32.1350 C   0  0  0  0  0  0  0  0  0  0  0  0
   -8.6562   18.8681  -31.0565 H   0  0  0  0  0  0  0  0  0  0  0  0
   -8.7466   18.1544  -32.7527 H   0  0  0  0  0  0  0  0  0  0  0  0
   -7.0200   19.3580  -32.3840 C   0  0  2  0  0  0  0  0  0  0  0  0
   -6.1720   18.1700  -31.9700 C   0  0  0  0  0  0  0  0  0  0  0  0
   -6.0250   17.7810  -30.7820 O   0  0  0  0  0  0  0  0  0  0  0  0
   -5.5330   17.5220  -33.0640 N   0  0  0  0  0  0  0  0  0  0  0  0
   -5.9470   18.2990  -34.1720 C   0  0  0  0  0  0  0  0  0  0  0  0
   -5.5950   18.0490  -35.3540 O   0  0  0  0  0  0  0  0  0  0  0  0
   -6.7950   19.3870  -33.8310 N   0  0  0  0  0  0  0  0  0  0  0  0
   -7.2290   20.0500  -34.5120 H   0  0  0  0  0  0  0  0  0  0  0  0
   -5.2440   24.2680  -30.7140 C   0  0  0  0  0  0  0  0  0  0  0  0
   -5.3472   24.4167  -29.6290 H   0  0  0  0  0  0  0  0  0  0  0  0
   -4.7634   25.1507  -31.1610 H   0  0  0  0  0  0  0  0  0  0  0  0
   -6.2391   24.1265  -31.1610 H   0  0  0  0  0  0  0  0  0  0  0  0
  1  2  1  0
  2  3  2  0
  3  4  1  0
  3  5  1  0
  5  6  1  0
  5  7  1  0
  5  8  1  0
  8  9  1  1
  8 10  1  0
 10 11  1  0
 10 12  1  0
 10 13  1  0
 13 14  1  0
 13 15  1  0
 13 16  1  0
 16 17  1  0
 16 18  1  0
 16 19  1  0
 19 20  1  0
 19 21  1  0
 19 22  1  0
 22 23  1  0
 22 24  1  0
 22 25  1  0
 25 26  1  0
 26 27  2  0
 26 28  1  0
 28 29  1  0
 29 30  2  0
 29 31  1  0
 31 32  1  0
  2 33  1  0
 33 34  1  0
 33 35  1  0
 33 36  1  0
 25  8  1  0
 25 31  1  6
M  CHG  2   8   1  28  -1
M  END
>  <UniqueID>  (14) 
14

>  <SMILES>  (14) 
C/C=C\C[N@H+]1CCCCC[C@@]12NC(=O)[N-]C2=O

>  <Energy>  (14) 
68.39599963417552

>  <Genealogy>  (14) 
CC=CC[NH+]1CCCCCC12NC(=O)[N-]C2=O (protonated)
CC=CC[N@H+]1CCCCC[C@@]12NC(=O)[N-]C2=O (chirality)
C/C=C\C[N@H+]1CCCCC[C@@]12NC(=O)[N-]C2=O (cis-trans isomerization)
C/C=C\C[N@H+]1CCCCC[C@@]12NC(=O)[N-]C2=O (3D coordinates assigned)
C/C=C\C[N@H+]1CCCCC[C@@]12NC(=O)[N-]C2=O (nonaromatic ring conformer: 68.39599963417552 kcal/mol)

>  <smiles>  (14) 
CC=CCN1CCCCCC12NC(=O)NC2=O

>  <score_type>  (14) 
oracle

>  <origin>  (14) 
adg

>  <m_score__min__energy>  (14) 
-4.5

>  <m_primary>  (14) 
energy

$$$$
14:0
     RDKit          3D

 58 61  0  0  1  0  0  0  0  0999 V2000
   -3.6480   17.5150  -33.9780 C   0  0  0  0  0  0  0  0  0  0  0  0
   -5.0100   17.7940  -33.5720 N   0  0  0  0  0  0  0  0  0  0  0  0
   -5.9880   16.8890  -33.8290 C   0  0  0  0  0  0  0  0  0  0  0  0
   -7.2390   17.1320  -33.4720 N   0  0  0  0  0  0  0  0  0  0  0  0
   -7.5270   18.3370  -32.8280 C   0  0  0  0  0  0  0  0  0  0  0  0
   -9.0840   18.9280  -32.2500 S   0  0  0  0  0  0  0  0  0  0  0  0
   -8.4160   20.3910  -31.6640 C   0  0  0  0  0  0  0  0  0  0  0  0
   -7.0640   20.3850  -31.9180 C   0  0  0  0  0  0  0  0  0  0  0  0
   -6.6090   19.2710  -32.5450 C   0  0  0  0  0  0  0  0  0  0  0  0
   -5.2760   18.9700  -32.9460 C   0  0  0  0  0  0  0  0  0  0  0  0
   -4.3740   19.7690  -32.7310 N   0  0  0  0  0  0  0  0  0  0  0  0
   -3.9260   20.8590  -33.4440 C   0  0  0  0  0  0  0  0  0  0  0  0
   -2.4530   21.2110  -33.3020 C   0  0  0  0  0  0  0  0  0  0  0  0
   -1.9650   20.4950  -32.1420 N   0  0  0  0  0  0  0  0  0  0  0  0
   -1.1760   21.3380  -31.2660 C   0  0  0  0  0  0  0  0  0  0  0  0
   -1.8060   21.3030  -29.8990 C   0  0  0  0  0  0  0  0  0  0  0  0
   -2.4870   22.5340  -29.5430 N   0  0  0  0  0  0  0  0  0  0  0  0
   -3.3720   22.9800  -30.6030 C   0  0  0  0  0  0  0  0  0  0  0  0
   -4.0940   24.2110  -30.0590 C   0  0  0  0  0  0  0  0  0  0  0  0
   -3.1860   25.2130  -29.7310 O   0  0  0  0  0  0  0  0  0  0  0  0
   -2.4220   24.7560  -28.6720 C   0  0  0  0  0  0  0  0  0  0  0  0
   -1.6020   23.5760  -29.0940 C   0  0  0  0  0  0  0  0  0  0  0  0
   -6.2000   21.5720  -31.4910 C   0  0  0  0  0  0  0  0  0  0  0  0
   -6.6520   22.7000  -32.3550 C   0  0  0  0  0  0  0  0  0  0  0  0
   -7.8220   23.4080  -31.7100 C   0  0  0  0  0  0  0  0  0  0  0  0
   -9.1380   22.7140  -31.9040 C   0  0  0  0  0  0  0  0  0  0  0  0
   -9.2420   21.5060  -30.9780 C   0  0  0  0  0  0  0  0  0  0  0  0
   -3.0184   17.3860  -33.0853 H   0  0  0  0  0  0  0  0  0  0  0  0
   -3.6258   16.5937  -34.5785 H   0  0  0  0  0  0  0  0  0  0  0  0
   -3.2654   18.3534  -34.5785 H   0  0  0  0  0  0  0  0  0  0  0  0
   -5.7390   15.9462  -34.3380 H   0  0  0  0  0  0  0  0  0  0  0  0
   -4.1206   20.6634  -34.5088 H   0  0  0  0  0  0  0  0  0  0  0  0
   -4.4699   21.7197  -33.0275 H   0  0  0  0  0  0  0  0  0  0  0  0
   -1.9002   20.8992  -34.2004 H   0  0  0  0  0  0  0  0  0  0  0  0
   -2.3146   22.2960  -33.1849 H   0  0  0  0  0  0  0  0  0  0  0  0
   -2.7000   19.9720  -31.6330 H   0  0  0  0  0  0  0  0  0  0  0  0
   -0.1447   20.9592  -31.2120 H   0  0  0  0  0  0  0  0  0  0  0  0
   -1.1485   22.3688  -31.6489 H   0  0  0  0  0  0  0  0  0  0  0  0
   -2.5367   20.4811  -29.8735 H   0  0  0  0  0  0  0  0  0  0  0  0
   -0.9928   21.1616  -29.1719 H   0  0  0  0  0  0  0  0  0  0  0  0
   -2.7919   23.2425  -31.5000 H   0  0  0  0  0  0  0  0  0  0  0  0
   -4.0824   22.1918  -30.8929 H   0  0  0  0  0  0  0  0  0  0  0  0
   -4.7876   24.5895  -30.8243 H   0  0  0  0  0  0  0  0  0  0  0  0
   -4.6444   23.9237  -29.1510 H   0  0  0  0  0  0  0  0  0  0  0  0
   -1.7527   25.5607  -28.3335 H   0  0  0  0  0  0  0  0  0  0  0  0
   -3.0907   24.4526  -27.8530 H   0  0  0  0  0  0  0  0  0  0  0  0
   -0.9284   23.8677  -29.9133 H   0  0  0  0  0  0  0  0  0  0  0  0
   -1.0003   23.2163  -28.2464 H   0  0  0  0  0  0  0  0  0  0  0  0
   -6.3625   21.8078  -30.4289 H   0  0  0  0  0  0  0  0  0  0  0  0
   -5.1253   21.3662  -31.6040 H   0  0  0  0  0  0  0  0  0  0  0  0
   -5.8238   23.4116  -32.4880 H   0  0  0  0  0  0  0  0  0  0  0  0
   -6.9638   22.3038  -33.3327 H   0  0  0  0  0  0  0  0  0  0  0  0
   -7.6273   23.4845  -30.6301 H   0  0  0  0  0  0  0  0  0  0  0  0
   -7.9061   24.3912  -32.1961 H   0  0  0  0  0  0  0  0  0  0  0  0
   -9.9547   23.4154  -31.6783 H   0  0  0  0  0  0  0  0  0  0  0  0
   -9.2116   22.3723  -32.9470 H   0  0  0  0  0  0  0  0  0  0  0  0
   -8.8231   21.7421  -29.9886 H   0  0  0  0  0  0  0  0  0  0  0  0
  -10.2869   21.2017  -30.8177 H   0  0  0  0  0  0  0  0  0  0  0  0
  1  2  1  0
  2  3  1  0
  3  4  2  0
  4  5  1  0
  5  6  1  0
  6  7  1  0
  7  8  2  0
  8  9  1  0
  9 10  1  0
 10 11  2  0
 11 12  1  0
 12 13  1  0
 13 14  1  0
 14 15  1  0
 15 16  1  0
 16 17  1  0
 17 18  1  0
 18 19  1  0
 19 20  1  0
 20 21  1  0
 21 22  1  0
  8 23  1  0
 23 24  1  0
 24 25  1  0
 25 26  1  0
 26 27  1  0
 10  2  1  0
 22 17  1  0
  9  5  2  0
 27  7  1  0
  1 28  1  0
  1 29  1  0
  1 30  1  0
  3 31  1  0
 12 32  1  0
 12 33  1  0
 13 34  1  0
 13 35  1  0
 14 36  1  0
 15 37  1  0
 15 38  1  0
 16 39  1  0
 16 40  1  0
 18 41  1  0
 18 42  1  0
 19 43  1  0
 19 44  1  0
 21 45  1  0
 21 46  1  0
 22 47  1  0
 22 48  1  0
 23 49  1  0
 23 50  1  0
 24 51  1  0
 24 52  1  0
 25 53  1  0
 25 54  1  0
 26 55  1  0
 26 56  1  0
 27 57  1  0
 27 58  1  0
M  END
>  <smiles>  (15) 
Cn1cnc2sc3c(c2c1=NCCNCCN1CCOCC1)CCCCC3

>  <score_type>  (15) 
oracle

>  <origin>  (15) 
adg

>  <m_score__min__energy>  (15) 
-7.8399999999999999

>  <m_primary>  (15) 
energy

$$$$
15:0
     RDKit          3D

 57 61  0  0  0  0  0  0  0  0999 V2000
   -9.1630   18.8890  -32.4590 C   0  0  0  0  0  0  0  0  0  0  0  0
   -8.6010   20.2800  -32.2980 C   0  0  0  0  0  0  0  0  0  0  0  0
   -9.4790   21.3600  -32.0730 C   0  0  0  0  0  0  0  0  0  0  0  0
  -10.8200   21.1640  -32.0060 F   0  0  0  0  0  0  0  0  0  0  0  0
   -8.9810   22.6540  -31.9060 C   0  0  0  0  0  0  0  0  0  0  0  0
   -7.6090   22.8900  -31.9640 C   0  0  0  0  0  0  0  0  0  0  0  0
   -6.7270   21.8370  -32.2070 C   0  0  0  0  0  0  0  0  0  0  0  0
   -7.2090   20.5310  -32.4100 C   0  0  0  0  0  0  0  0  0  0  0  0
   -6.2240   19.4080  -32.6470 C   0  0  1  0  0  0  0  0  0  0  0  0
   -5.1100   19.2140  -31.6240 C   0  0  0  0  0  0  0  0  0  0  0  0
   -6.2760   18.2410  -31.6830 C   0  0  2  0  0  0  0  0  0  0  0  0
   -6.0720   16.9810  -32.5120 C   0  0  0  0  0  0  0  0  0  0  0  0
   -5.9110   17.3770  -33.9180 N   0  0  0  0  0  0  0  0  0  0  0  0
   -4.8000   16.7500  -34.6720 C   0  0  0  0  0  0  0  0  0  0  0  0
   -3.4740   17.5520  -34.7440 C   0  0  0  0  0  0  0  0  0  0  0  0
   -2.8320   17.8380  -33.3800 C   0  0  0  0  0  0  0  0  0  0  0  0
   -1.4580   19.0370  -33.5330 S   0  0  0  0  0  0  0  0  0  0  0  0
   -2.4410   20.4510  -33.0200 C   0  0  0  0  0  0  0  0  0  0  0  0
   -3.2990   21.0850  -33.8430 N   0  0  0  0  0  0  0  0  0  0  0  0
   -3.8980   22.0070  -33.1070 N   0  0  0  0  0  0  0  0  0  0  0  0
   -3.4030   21.9420  -31.8560 C   0  0  0  0  0  0  0  0  0  0  0  0
   -3.8960   22.7750  -30.7370 C   0  0  0  0  0  0  0  0  0  0  0  0
   -4.6430   23.9320  -31.0100 C   0  0  0  0  0  0  0  0  0  0  0  0
   -5.1130   24.7160  -29.9560 C   0  0  0  0  0  0  0  0  0  0  0  0
   -4.8390   24.3660  -28.6720 N   0  0  0  0  0  0  0  0  0  0  0  0
   -4.1040   23.2620  -28.3770 C   0  0  0  0  0  0  0  0  0  0  0  0
   -3.6150   22.4500  -29.4020 C   0  0  0  0  0  0  0  0  0  0  0  0
   -2.4790   20.9590  -31.7670 N   0  0  0  0  0  0  0  0  0  0  0  0
   -1.6950   20.5380  -30.6060 C   0  0  0  0  0  0  0  0  0  0  0  0
   -6.0500   18.8310  -34.0440 C   0  0  0  0  0  0  0  0  0  0  0  0
   -9.3410   18.4484  -31.4670 H   0  0  0  0  0  0  0  0  0  0  0  0
  -10.1116   18.9387  -33.0137 H   0  0  0  0  0  0  0  0  0  0  0  0
   -8.4461   18.2658  -33.0137 H   0  0  0  0  0  0  0  0  0  0  0  0
   -9.6740   23.4895  -31.7281 H   0  0  0  0  0  0  0  0  0  0  0  0
   -7.2206   23.9087  -31.8179 H   0  0  0  0  0  0  0  0  0  0  0  0
   -5.6445   22.0296  -32.2402 H   0  0  0  0  0  0  0  0  0  0  0  0
   -4.1096   18.8957  -31.9525 H   0  0  0  0  0  0  0  0  0  0  0  0
   -4.6531   19.8371  -30.8410 H   0  0  0  0  0  0  0  0  0  0  0  0
   -6.9243   17.8371  -30.8914 H   0  0  0  0  0  0  0  0  0  0  0  0
   -5.1710   16.4514  -32.1689 H   0  0  0  0  0  0  0  0  0  0  0  0
   -6.9371   16.3104  -32.4030 H   0  0  0  0  0  0  0  0  0  0  0  0
   -4.5797   15.7815  -34.1992 H   0  0  0  0  0  0  0  0  0  0  0  0
   -5.1554   16.6806  -35.7107 H   0  0  0  0  0  0  0  0  0  0  0  0
   -2.7566   16.9774  -35.3483 H   0  0  0  0  0  0  0  0  0  0  0  0
   -3.7211   18.5286  -35.1859 H   0  0  0  0  0  0  0  0  0  0  0  0
   -3.5950   18.2512  -32.7040 H   0  0  0  0  0  0  0  0  0  0  0  0
   -2.4289   16.8957  -32.9806 H   0  0  0  0  0  0  0  0  0  0  0  0
   -4.6320   22.6590  -33.4620 H   0  0  0  0  0  0  0  0  0  0  0  0
   -4.8567   24.2190  -32.0502 H   0  0  0  0  0  0  0  0  0  0  0  0
   -5.7061   25.6186  -30.1647 H   0  0  0  0  0  0  0  0  0  0  0  0
   -3.8937   23.0073  -27.3278 H   0  0  0  0  0  0  0  0  0  0  0  0
   -3.0130   21.5607  -29.1639 H   0  0  0  0  0  0  0  0  0  0  0  0
   -2.2237   20.8219  -29.6841 H   0  0  0  0  0  0  0  0  0  0  0  0
   -1.5608   19.4465  -30.6304 H   0  0  0  0  0  0  0  0  0  0  0  0
   -0.7110   21.0290  -30.6304 H   0  0  0  0  0  0  0  0  0  0  0  0
   -5.1490   19.2531  -34.5130 H   0  0  0  0  0  0  0  0  0  0  0  0
   -6.9185   19.0795  -34.6716 H   0  0  0  0  0  0  0  0  0  0  0  0
  1  2  1  0
  2  3  2  0
  3  4  1  0
  3  5  1  0
  5  6  2  0
  6  7  1  0
  7  8  2  0
  9  8  1  6
  9 10  1  0
 10 11  1  0
 11 12  1  0
 12 13  1  0
 13 14  1  0
 14 15  1  0
 15 16  1  0
 16 17  1  0
 17 18  1  0
 18 19  2  0
 19 20  1  0
 20 21  2  0
 21 22  1  0
 22 23  2  0
 23 24  1  0
 24 25  2  0
 25 26  1  0
 26 27  2  0
 21 28  1  0
 28 29  1  0
 13 30  1  0
  8  2  1  0
 11  9  1  0
 28 18  1  0
 30  9  1  0
 27 22  1  0
  1 31  1  0
  1 32  1  0
  1 33  1  0
  5 34  1  0
  6 35  1  0
  7 36  1  0
 10 37  1  0
 10 38  1  0
 11 39  1  1
 12 40  1  0
 12 41  1  0
 14 42  1  0
 14 43  1  0
 15 44  1  0
 15 45  1  0
 16 46  1  0
 16 47  1  0
 20 48  1  0
 23 49  1  0
 24 50  1  0
 26 51  1  0
 27 52  1  0
 29 53  1  0
 29 54  1  0
 29 55  1  0
 30 56  1  0
 30 57  1  0
M  CHG  1  20   1
M  END
>  <UniqueID>  (16) 
15

>  <SMILES>  (16) 
Cc1c(F)cccc1[C@@]12C[C@@H]1CN(CCCSc1n[nH+]c(-c3ccncc3)n1C)C2

>  <Energy>  (16) 
374.39016785302846

>  <Genealogy>  (16) 
Cc1c(F)cccc1C12CC1CN(CCCSc1n[nH+]c(-c3ccncc3)n1C)C2 (protonated)
Cc1c(F)cccc1[C@@]12C[C@@H]1CN(CCCSc1n[nH+]c(-c3ccncc3)n1C)C2 (chirality)
Cc1c(F)cccc1[C@@]12C[C@@H]1CN(CCCSc1n[nH+]c(-c3ccncc3)n1C)C2 (3D coordinates assigned)
Cc1c(F)cccc1[C@@]12C[C@@H]1CN(CCCSc1n[nH+]c(-c3ccncc3)n1C)C2 (nonaromatic ring conformer: 374.39016785302846 kcal/mol)

>  <smiles>  (16) 
Cc1c(F)cccc1C12CC1CN(CCCSc1nnc(-c3ccncc3)n1C)C2

>  <score_type>  (16) 
oracle

>  <origin>  (16) 
adg

>  <m_score__min__energy>  (16) 
-9.2400000000000002

>  <m_primary>  (16) 
energy

$$$$
16:0
     RDKit          3D

 68 70  0  0  0  0  0  0  0  0999 V2000
   -1.9820   25.2630  -26.8950 C   0  0  0  0  0  0  0  0  0  0  0  0
   -0.8510   25.8910  -27.7010 C   0  0  0  0  0  0  0  0  0  0  0  0
    0.0020   24.8830  -28.2110 O   0  0  0  0  0  0  0  0  0  0  0  0
    1.0500   24.6130  -27.3000 C   0  0  0  0  0  0  0  0  0  0  0  0
    0.7230   23.3500  -26.5000 C   0  0  0  0  0  0  0  0  0  0  0  0
    0.5830   22.1220  -27.4200 C   0  0  0  0  0  0  0  0  0  0  0  0
   -0.1230   22.4370  -28.6760 N   0  0  0  0  0  0  0  0  0  0  0  0
   -0.4680   21.2260  -29.4410 C   0  0  0  0  0  0  0  0  0  0  0  0
   -1.8900   21.3100  -30.0070 C   0  0  0  0  0  0  0  0  0  0  0  0
   -2.3450   22.6530  -29.9560 O   0  0  0  0  0  0  0  0  0  0  0  0
   -3.6870   22.7370  -29.5130 C   0  0  0  0  0  0  0  0  0  0  0  0
   -4.1090   24.1990  -29.3130 C   0  0  0  0  0  0  0  0  0  0  0  0
   -4.1130   24.8900  -30.5490 O   0  0  0  0  0  0  0  0  0  0  0  0
   -5.4320   25.1760  -30.9780 C   0  0  0  0  0  0  0  0  0  0  0  0
   -6.2550   23.8890  -31.0660 C   0  0  0  0  0  0  0  0  0  0  0  0
   -6.0310   23.2300  -32.3520 N   0  0  0  0  0  0  0  0  0  0  0  0
   -5.9680   21.7960  -32.4630 C   0  0  0  0  0  0  0  0  0  0  0  0
   -4.7550   21.1610  -32.7860 C   0  0  0  0  0  0  0  0  0  0  0  0
   -3.5730   21.9100  -32.9750 C   0  0  0  0  0  0  0  0  0  0  0  0
   -2.3880   21.2860  -33.3560 C   0  0  0  0  0  0  0  0  0  0  0  0
   -2.3590   19.9130  -33.5590 C   0  0  0  0  0  0  0  0  0  0  0  0
   -3.5040   19.1480  -33.3430 C   0  0  0  0  0  0  0  0  0  0  0  0
   -4.7150   19.7460  -32.9090 C   0  0  0  0  0  0  0  0  0  0  0  0
   -5.8340   18.9900  -32.6130 N   0  0  0  0  0  0  0  0  0  0  0  0
   -5.7150   17.5220  -32.4610 C   0  0  0  0  0  0  0  0  0  0  0  0
   -7.0570   19.6080  -32.4210 C   0  0  0  0  0  0  0  0  0  0  0  0
   -8.2670   18.8670  -32.3650 C   0  0  0  0  0  0  0  0  0  0  0  0
   -9.4860   19.4980  -32.1160 C   0  0  0  0  0  0  0  0  0  0  0  0
   -9.5370   20.8730  -31.9330 C   0  0  0  0  0  0  0  0  0  0  0  0
   -8.3750   21.6330  -32.0270 C   0  0  0  0  0  0  0  0  0  0  0  0
   -7.1300   21.0220  -32.2950 C   0  0  0  0  0  0  0  0  0  0  0  0
   -1.7746   25.3782  -25.8209 H   0  0  0  0  0  0  0  0  0  0  0  0
   -2.9298   25.7640  -27.1412 H   0  0  0  0  0  0  0  0  0  0  0  0
   -2.0578   24.1936  -27.1412 H   0  0  0  0  0  0  0  0  0  0  0  0
   -1.2759   26.4653  -28.5374 H   0  0  0  0  0  0  0  0  0  0  0  0
   -0.2695   26.5568  -27.0464 H   0  0  0  0  0  0  0  0  0  0  0  0
    1.9876   24.4621  -27.8551 H   0  0  0  0  0  0  0  0  0  0  0  0
    1.1625   25.4628  -26.6107 H   0  0  0  0  0  0  0  0  0  0  0  0
    1.5311   23.1652  -25.7770 H   0  0  0  0  0  0  0  0  0  0  0  0
   -0.2353   23.5062  -25.9831 H   0  0  0  0  0  0  0  0  0  0  0  0
    1.5880   21.7474  -27.6642 H   0  0  0  0  0  0  0  0  0  0  0  0
   -0.0096   21.3668  -26.8829 H   0  0  0  0  0  0  0  0  0  0  0  0
    0.5110   23.0380  -29.2510 H   0  0  0  0  0  0  0  0  0  0  0  0
   -0.9910   22.9840  -28.4690 H   0  0  0  0  0  0  0  0  0  0  0  0
    0.2426   21.1134  -30.2731 H   0  0  0  0  0  0  0  0  0  0  0  0
   -0.4149   20.3610  -28.7636 H   0  0  0  0  0  0  0  0  0  0  0  0
   -1.8894   20.9633  -31.0509 H   0  0  0  0  0  0  0  0  0  0  0  0
   -2.5593   20.6750  -29.4080 H   0  0  0  0  0  0  0  0  0  0  0  0
   -4.3434   22.2724  -30.2635 H   0  0  0  0  0  0  0  0  0  0  0  0
   -3.7719   22.2125  -28.5498 H   0  0  0  0  0  0  0  0  0  0  0  0
   -5.1196   24.2275  -28.8796 H   0  0  0  0  0  0  0  0  0  0  0  0
   -3.3911   24.6860  -28.6367 H   0  0  0  0  0  0  0  0  0  0  0  0
   -5.9062   25.8611  -30.2598 H   0  0  0  0  0  0  0  0  0  0  0  0
   -5.3904   25.6418  -31.9737 H   0  0  0  0  0  0  0  0  0  0  0  0
   -5.9555   23.2105  -30.2536 H   0  0  0  0  0  0  0  0  0  0  0  0
   -7.3220   24.1397  -30.9736 H   0  0  0  0  0  0  0  0  0  0  0  0
   -5.7000   23.8090  -33.1570 H   0  0  0  0  0  0  0  0  0  0  0  0
   -3.5885   22.9988  -32.8195 H   0  0  0  0  0  0  0  0  0  0  0  0
   -1.4739   21.8816  -33.4963 H   0  0  0  0  0  0  0  0  0  0  0  0
   -1.4296   19.4273  -33.8913 H   0  0  0  0  0  0  0  0  0  0  0  0
   -3.4680   18.0617  -33.5120 H   0  0  0  0  0  0  0  0  0  0  0  0
   -5.6941   17.2646  -31.3917 H   0  0  0  0  0  0  0  0  0  0  0  0
   -6.5764   17.0328  -32.9392 H   0  0  0  0  0  0  0  0  0  0  0  0
   -4.7860   17.1780  -32.9392 H   0  0  0  0  0  0  0  0  0  0  0  0
   -8.2428   17.7783  -32.5204 H   0  0  0  0  0  0  0  0  0  0  0  0
  -10.4102   18.9037  -32.0645 H   0  0  0  0  0  0  0  0  0  0  0  0
  -10.4972   21.3626  -31.7134 H   0  0  0  0  0  0  0  0  0  0  0  0
   -8.4267   22.7233  -31.8909 H   0  0  0  0  0  0  0  0  0  0  0  0
  1  2  1  0
  2  3  1  0
  3  4  1  0
  4  5  1  0
  5  6  1  0
  6  7  1  0
  7  8  1  0
  8  9  1  0
  9 10  1  0
 10 11  1  0
 11 12  1  0
 12 13  1  0
 13 14  1  0
 14 15  1  0
 15 16  1  0
 16 17  1  0
 17 18  2  0
 18 19  1  0
 19 20  2  0
 20 21  1  0
 21 22  2  0
 22 23  1  0
 23 24  2  0
 24 25  1  0
 24 26  1  0
 26 27  2  0
 27 28  1  0
 28 29  2  0
 29 30  1  0
 30 31  2  0
 31 17  1  0
 23 18  1  0
 31 26  1  0
  1 32  1  0
  1 33  1  0
  1 34  1  0
  2 35  1  0
  2 36  1  0
  4 37  1  0
  4 38  1  0
  5 39  1  0
  5 40  1  0
  6 41  1  0
  6 42  1  0
  7 43  1  0
  7 44  1  0
  8 45  1  0
  8 46  1  0
  9 47  1  0
  9 48  1  0
 11 49  1  0
 11 50  1  0
 12 51  1  0
 12 52  1  0
 14 53  1  0
 14 54  1  0
 15 55  1  0
 15 56  1  0
 16 57  1  0
 19 58  1  0
 20 59  1  0
 21 60  1  0
 22 61  1  0
 25 62  1  0
 25 63  1  0
 25 64  1  0
 27 65  1  0
 28 66  1  0
 29 67  1  0
 30 68  1  0
M  CHG  2   7   1  24   1
M  END
>  <UniqueID>  (17) 
16

>  <SMILES>  (17) 
CCOCCC[NH2+]CCOCCOCCNc1c2ccccc2[n+](C)c2ccccc12

>  <Energy>  (17) 
92.75471610451872

>  <Genealogy>  (17) 
CCOCCC[NH2+]CCOCCOCCNc1c2ccccc2[n+](C)c2ccccc12 (protonated)
CCOCCC[NH2+]CCOCCOCCNc1c2ccccc2[n+](C)c2ccccc12 (3D coordinates assigned)
CCOCCC[NH2+]CCOCCOCCNc1c2ccccc2[n+](C)c2ccccc12 (optimized conformer: 92.75471610451872 kcal/mol)

>  <smiles>  (17) 
CCOCCCNCCOCCOCCNc1c2ccccc2[n+](C)c2ccccc12

>  <score_type>  (17) 
oracle

>  <origin>  (17) 
adg

>  <m_score__min__energy>  (17) 
-7.2000000000000002

>  <m_primary>  (17) 
energy

$$$$
17:0
     RDKit          3D

 57 58  0  0  0  0  0  0  0  0999 V2000
    0.4280   22.9490  -35.7340 C   0  0  0  0  0  0  0  0  0  0  0  0
    0.4110   21.4240  -35.6410 C   0  0  0  0  0  0  0  0  0  0  0  0
   -0.4620   20.9750  -34.5430 N   0  0  0  0  0  0  0  0  0  0  0  0
   -0.7430   19.5270  -34.6060 C   0  0  0  0  0  0  0  0  0  0  0  0
   -1.7990   19.0520  -33.5870 C   0  0  0  0  0  0  0  0  0  0  0  0
   -3.1460   19.8030  -33.7010 C   0  0  0  0  0  0  0  0  0  0  0  0
   -3.1770   21.0810  -32.8610 C   0  0  0  0  0  0  0  0  0  0  0  0
   -1.8600   21.4370  -32.4980 O   0  0  0  0  0  0  0  0  0  0  0  0
   -1.8400   22.0780  -31.2370 C   0  0  0  0  0  0  0  0  0  0  0  0
   -3.2670   22.3330  -30.7380 C   0  0  0  0  0  0  0  0  0  0  0  0
   -3.2810   23.2470  -29.5020 C   0  0  0  0  0  0  0  0  0  0  0  0
   -3.8960   24.6270  -29.8060 C   0  0  0  0  0  0  0  0  0  0  0  0
   -4.3380   24.7070  -31.2070 N   0  0  0  0  0  0  0  0  0  0  0  0
   -5.7620   24.3710  -31.3390 C   0  0  0  0  0  0  0  0  0  0  0  0
   -5.9470   23.2420  -32.3560 C   0  0  0  0  0  0  0  0  0  0  0  0
   -7.1760   22.4270  -32.0490 C   0  0  0  0  0  0  0  0  0  0  0  0
   -8.3590   23.0030  -31.5780 C   0  0  0  0  0  0  0  0  0  0  0  0
   -9.5130   21.7910  -31.3470 S   0  0  0  0  0  0  0  0  0  0  0  0
   -8.5240   20.5330  -31.8500 C   0  0  0  0  0  0  0  0  0  0  0  0
   -8.8280   19.1760  -31.9130 C   0  0  0  0  0  0  0  0  0  0  0  0
   -7.8450   18.2950  -32.3880 C   0  0  0  0  0  0  0  0  0  0  0  0
   -6.5860   18.7860  -32.7840 C   0  0  0  0  0  0  0  0  0  0  0  0
   -6.2980   20.1590  -32.7010 C   0  0  0  0  0  0  0  0  0  0  0  0
   -7.2830   21.0330  -32.2200 C   0  0  0  0  0  0  0  0  0  0  0  0
    0.4328   23.3781  -34.7212 H   0  0  0  0  0  0  0  0  0  0  0  0
    1.3298   23.2734  -36.2739 H   0  0  0  0  0  0  0  0  0  0  0  0
   -0.4664   23.2934  -36.2739 H   0  0  0  0  0  0  0  0  0  0  0  0
    0.0392   21.0093  -36.5896 H   0  0  0  0  0  0  0  0  0  0  0  0
    1.4343   21.0721  -35.4433 H   0  0  0  0  0  0  0  0  0  0  0  0
   -0.0370   21.2330  -33.6230 H   0  0  0  0  0  0  0  0  0  0  0  0
   -1.3770   21.4770  -34.6210 H   0  0  0  0  0  0  0  0  0  0  0  0
   -1.1046   19.2877  -35.6169 H   0  0  0  0  0  0  0  0  0  0  0  0
    0.1952   19.0080  -34.3601 H   0  0  0  0  0  0  0  0  0  0  0  0
   -1.9830   17.9798  -33.7501 H   0  0  0  0  0  0  0  0  0  0  0  0
   -1.3971   19.2578  -32.5840 H   0  0  0  0  0  0  0  0  0  0  0  0
   -3.3132   20.0695  -34.7550 H   0  0  0  0  0  0  0  0  0  0  0  0
   -3.9341   19.1352  -33.3228 H   0  0  0  0  0  0  0  0  0  0  0  0
   -3.6284   21.8947  -33.4477 H   0  0  0  0  0  0  0  0  0  0  0  0
   -3.7740   20.9090  -31.9532 H   0  0  0  0  0  0  0  0  0  0  0  0
   -1.3135   21.4374  -30.5142 H   0  0  0  0  0  0  0  0  0  0  0  0
   -1.3222   23.0432  -31.3383 H   0  0  0  0  0  0  0  0  0  0  0  0
   -3.8459   22.8112  -31.5419 H   0  0  0  0  0  0  0  0  0  0  0  0
   -3.7099   21.3665  -30.4555 H   0  0  0  0  0  0  0  0  0  0  0  0
   -3.8711   22.7628  -28.7099 H   0  0  0  0  0  0  0  0  0  0  0  0
   -2.2391   23.4036  -29.1858 H   0  0  0  0  0  0  0  0  0  0  0  0
   -4.7606   24.7895  -29.1456 H   0  0  0  0  0  0  0  0  0  0  0  0
   -3.1311   25.3986  -29.6339 H   0  0  0  0  0  0  0  0  0  0  0  0
   -4.2160   25.6990  -31.5220 H   0  0  0  0  0  0  0  0  0  0  0  0
   -6.1510   24.0475  -30.3623 H   0  0  0  0  0  0  0  0  0  0  0  0
   -6.3097   25.2597  -31.6859 H   0  0  0  0  0  0  0  0  0  0  0  0
   -6.0474   23.6776  -33.3611 H   0  0  0  0  0  0  0  0  0  0  0  0
   -5.0694   22.5807  -32.3052 H   0  0  0  0  0  0  0  0  0  0  0  0
   -8.5141   24.0753  -31.3879 H   0  0  0  0  0  0  0  0  0  0  0  0
   -9.8141   18.8039  -31.5983 H   0  0  0  0  0  0  0  0  0  0  0  0
   -8.0583   17.2177  -32.4513 H   0  0  0  0  0  0  0  0  0  0  0  0
   -5.8224   18.0898  -33.1611 H   0  0  0  0  0  0  0  0  0  0  0  0
   -5.3140   20.5424  -33.0090 H   0  0  0  0  0  0  0  0  0  0  0  0
  1  2  1  0
  2  3  1  0
  3  4  1  0
  4  5  1  0
  5  6  1  0
  6  7  1  0
  7  8  1  0
  8  9  1  0
  9 10  1  0
 10 11  1  0
 11 12  1  0
 12 13  1  0
 13 14  1  0
 14 15  1  0
 15 16  1  0
 16 17  2  0
 17 18  1  0
 18 19  1  0
 19 20  2  0
 20 21  1  0
 21 22  2  0
 22 23  1  0
 23 24  2  0
 24 16  1  0
 24 19  1  0
  1 25  1  0
  1 26  1  0
  1 27  1  0
  2 28  1  0
  2 29  1  0
  3 30  1  0
  3 31  1  0
  4 32  1  0
  4 33  1  0
  5 34  1  0
  5 35  1  0
  6 36  1  0
  6 37  1  0
  7 38  1  0
  7 39  1  0
  9 40  1  0
  9 41  1  0
 10 42  1  0
 10 43  1  0
 11 44  1  0
 11 45  1  0
 12 46  1  0
 12 47  1  0
 13 48  1  0
 14 49  1  0
 14 50  1  0
 15 51  1  0
 15 52  1  0
 17 53  1  0
 20 54  1  0
 21 55  1  0
 22 56  1  0
 23 57  1  0
M  CHG  1   3   1
M  END
>  <UniqueID>  (18) 
17

>  <SMILES>  (18) 
CC[NH2+]CCCCOCCCCNCCc1csc2ccccc12

>  <Energy>  (18) 
71.57292504555691

>  <Genealogy>  (18) 
CC[NH2+]CCCCOCCCCNCCc1csc2ccccc12 (protonated)
CC[NH2+]CCCCOCCCCNCCc1csc2ccccc12 (3D coordinates assigned)
CC[NH2+]CCCCOCCCCNCCc1csc2ccccc12 (optimized conformer: 71.57292504555691 kcal/mol)

>  <smiles>  (18) 
CCNCCCCOCCCCNCCc1csc2ccccc12

>  <score_type>  (18) 
oracle

>  <origin>  (18) 
adg

>  <m_score__min__energy>  (18) 
-9.4600000000000009

>  <m_primary>  (18) 
energy

$$$$
18:0
     RDKit          3D

 50 52  0  0  0  0  0  0  0  0999 V2000
   -5.4660   25.6800  -30.4690 C   0  0  0  0  0  0  0  0  0  0  0  0
   -4.9290   24.2760  -30.2190 C   0  0  0  0  0  0  0  0  0  0  0  0
   -3.5150   24.2380  -30.4080 O   0  0  0  0  0  0  0  0  0  0  0  0
   -2.5910   24.1890  -29.3560 C   0  0  0  0  0  0  0  0  0  0  0  0
   -1.9280   25.3140  -28.9640 N   0  0  0  0  0  0  0  0  0  0  0  0
   -1.0180   25.3000  -27.9540 C   0  0  0  0  0  0  0  0  0  0  0  0
   -0.7350   24.1080  -27.2870 C   0  0  0  0  0  0  0  0  0  0  0  0
   -1.3990   22.9400  -27.6630 C   0  0  0  0  0  0  0  0  0  0  0  0
   -2.3460   22.9700  -28.6960 C   0  0  0  0  0  0  0  0  0  0  0  0
   -3.0430   21.7070  -29.1290 C   0  0  0  0  0  0  0  0  0  0  0  0
   -3.1460   21.6780  -30.5920 N   0  0  0  0  0  0  0  0  0  0  0  0
   -1.9310   21.1000  -31.1790 C   0  0  0  0  0  0  0  0  0  0  0  0
   -1.8400   21.4790  -32.6630 C   0  0  0  0  0  0  0  0  0  0  0  0
   -3.1830   21.3310  -33.3980 C   0  0  0  0  0  0  0  0  0  0  0  0
   -4.1380   22.3850  -33.0190 N   0  0  0  0  0  0  0  0  0  0  0  0
   -5.4060   21.7960  -32.6800 C   0  0  0  0  0  0  0  0  0  0  0  0
   -6.4890   22.6010  -32.2930 C   0  0  0  0  0  0  0  0  0  0  0  0
   -7.7040   22.0090  -31.9350 C   0  0  0  0  0  0  0  0  0  0  0  0
   -8.6720   22.7410  -31.5950 O   0  0  0  0  0  0  0  0  0  0  0  0
   -7.8280   20.6070  -31.9560 C   0  0  0  0  0  0  0  0  0  0  0  0
   -9.0270   19.9600  -31.6020 C   0  0  0  0  0  0  0  0  0  0  0  0
   -9.1060   18.5640  -31.6330 C   0  0  0  0  0  0  0  0  0  0  0  0
   -7.9970   17.8040  -32.0140 C   0  0  0  0  0  0  0  0  0  0  0  0
   -6.8010   18.4350  -32.3670 C   0  0  0  0  0  0  0  0  0  0  0  0
   -6.7100   19.8310  -32.3410 C   0  0  0  0  0  0  0  0  0  0  0  0
   -5.5440   20.4410  -32.6840 N   0  0  0  0  0  0  0  0  0  0  0  0
   -5.6560   26.1767  -29.5061 H   0  0  0  0  0  0  0  0  0  0  0  0
   -4.7259   26.2592  -31.0407 H   0  0  0  0  0  0  0  0  0  0  0  0
   -6.4037   25.6175  -31.0407 H   0  0  0  0  0  0  0  0  0  0  0  0
   -5.1639   23.9776  -29.1866 H   0  0  0  0  0  0  0  0  0  0  0  0
   -5.4008   23.5837  -30.9319 H   0  0  0  0  0  0  0  0  0  0  0  0
   -0.5050   26.2285  -27.6629 H   0  0  0  0  0  0  0  0  0  0  0  0
    0.0043   24.0891  -26.4727 H   0  0  0  0  0  0  0  0  0  0  0  0
   -1.1789   21.9935  -27.1476 H   0  0  0  0  0  0  0  0  0  0  0  0
   -2.4673   20.8350  -28.7853 H   0  0  0  0  0  0  0  0  0  0  0  0
   -4.0518   21.6783  -28.6913 H   0  0  0  0  0  0  0  0  0  0  0  0
   -3.2260   22.6680  -30.9260 H   0  0  0  0  0  0  0  0  0  0  0  0
   -1.0489   21.4877  -30.6483 H   0  0  0  0  0  0  0  0  0  0  0  0
   -1.9680   20.0046  -31.0854 H   0  0  0  0  0  0  0  0  0  0  0  0
   -1.5109   22.5259  -32.7391 H   0  0  0  0  0  0  0  0  0  0  0  0
   -1.1245   20.7915  -33.1377 H   0  0  0  0  0  0  0  0  0  0  0  0
   -3.0029   21.3878  -34.4817 H   0  0  0  0  0  0  0  0  0  0  0  0
   -3.6188   20.3607  -33.1175 H   0  0  0  0  0  0  0  0  0  0  0  0
   -3.7780   22.9240  -32.1990 H   0  0  0  0  0  0  0  0  0  0  0  0
   -4.2750   23.0470  -33.8190 H   0  0  0  0  0  0  0  0  0  0  0  0
   -6.3819   23.6956  -32.2714 H   0  0  0  0  0  0  0  0  0  0  0  0
   -9.9030   20.5532  -31.3006 H   0  0  0  0  0  0  0  0  0  0  0  0
  -10.0450   18.0622  -31.3563 H   0  0  0  0  0  0  0  0  0  0  0  0
   -8.0655   16.7064  -32.0361 H   0  0  0  0  0  0  0  0  0  0  0  0
   -5.9299   17.8333  -32.6657 H   0  0  0  0  0  0  0  0  0  0  0  0
  1  2  1  0
  2  3  1  0
  3  4  1  0
  4  5  2  0
  5  6  1  0
  6  7  2  0
  7  8  1  0
  8  9  2  0
  9 10  1  0
 10 11  1  0
 11 12  1  0
 12 13  1  0
 13 14  1  0
 14 15  1  0
 15 16  1  0
 16 17  2  0
 17 18  1  0
 18 19  2  0
 18 20  1  0
 20 21  2  0
 21 22  1  0
 22 23  2  0
 23 24  1  0
 24 25  2  0
 25 26  1  0
  9  4  1  0
 26 16  1  0
 25 20  1  0
  1 27  1  0
  1 28  1  0
  1 29  1  0
  2 30  1  0
  2 31  1  0
  6 32  1  0
  7 33  1  0
  8 34  1  0
 10 35  1  0
 10 36  1  0
 11 37  1  0
 12 38  1  0
 12 39  1  0
 13 40  1  0
 13 41  1  0
 14 42  1  0
 14 43  1  0
 15 44  1  0
 15 45  1  0
 17 46  1  0
 21 47  1  0
 22 48  1  0
 23 49  1  0
 24 50  1  0
M  CHG  2  15   1  26  -1
M  END
>  <UniqueID>  (19) 
18

>  <SMILES>  (19) 
CCOc1ncccc1CNCCC[NH2+]c1cc(=O)c2ccccc2[n-]1

>  <Energy>  (19) 
48.360326519229204

>  <Genealogy>  (19) 
CCOc1ncccc1CNCCC[NH2+]c1cc(=O)c2ccccc2[n-]1 (protonated)
CCOc1ncccc1CNCCC[NH2+]c1cc(=O)c2ccccc2[n-]1 (3D coordinates assigned)
CCOc1ncccc1CNCCC[NH2+]c1cc(=O)c2ccccc2[n-]1 (optimized conformer: 48.360326519229204 kcal/mol)

>  <smiles>  (19) 
CCOc1ncccc1CNCCCNc1cc(=O)c2ccccc2[nH]1

>  <score_type>  (19) 
oracle

>  <origin>  (19) 
adg

>  <m_score__min__energy>  (19) 
-7.6299999999999999

>  <m_primary>  (19) 
energy

$$$$
19:0
     RDKit          3D

 69 71  0  0  0  0  0  0  0  0999 V2000
   -3.1266   16.2755  -33.8325 H   0  0  0  0  0  0  0  0  0  0  0  0
   -2.8080   17.1290  -33.2160 C   0  0  0  0  0  0  0  0  0  0  0  0
   -3.7020   18.0310  -32.9270 N   0  0  0  0  0  0  0  0  0  0  0  0
   -4.4530   18.7260  -33.8620 O   0  0  0  0  0  0  0  0  0  0  0  0
   -5.4110   18.0410  -34.6690 C   0  0  0  0  0  0  0  0  0  0  0  0
   -4.9465   17.1398  -35.0957 H   0  0  0  0  0  0  0  0  0  0  0  0
   -5.7441   18.7134  -35.4733 H   0  0  0  0  0  0  0  0  0  0  0  0
   -6.6160   17.6360  -33.8370 C   0  0  0  0  0  0  0  0  0  0  0  0
   -7.1693   16.8480  -34.3690 H   0  0  0  0  0  0  0  0  0  0  0  0
   -7.2470   18.5246  -33.6877 H   0  0  0  0  0  0  0  0  0  0  0  0
   -6.2130   17.1290  -32.5170 N   0  0  0  0  0  0  0  0  0  0  0  0
   -5.2090   17.4240  -32.3600 H   0  0  0  0  0  0  0  0  0  0  0  0
   -7.0060   17.7180  -31.4240 C   0  0  0  0  0  0  0  0  0  0  0  0
   -6.4646   18.5782  -31.0034 H   0  0  0  0  0  0  0  0  0  0  0  0
   -7.1646   16.9598  -30.6430 H   0  0  0  0  0  0  0  0  0  0  0  0
   -8.3580   18.1820  -31.9540 C   0  0  0  0  0  0  0  0  0  0  0  0
   -9.0242   18.4106  -31.1091 H   0  0  0  0  0  0  0  0  0  0  0  0
   -8.2211   19.0846  -32.5677 H   0  0  0  0  0  0  0  0  0  0  0  0
   -8.8042   17.3856  -32.5677 H   0  0  0  0  0  0  0  0  0  0  0  0
   -1.3680   17.1680  -32.7680 C   0  0  0  0  0  0  0  0  0  0  0  0
   -1.3278   16.8595  -31.7129 H   0  0  0  0  0  0  0  0  0  0  0  0
   -0.8140   16.4911  -33.4350 H   0  0  0  0  0  0  0  0  0  0  0  0
   -0.7060   18.5350  -32.8900 C   0  0  0  0  0  0  0  0  0  0  0  0
   -0.8383   19.0854  -31.9468 H   0  0  0  0  0  0  0  0  0  0  0  0
    0.3637   18.3914  -33.1023 H   0  0  0  0  0  0  0  0  0  0  0  0
   -1.3080   19.3120  -33.9930 N   0  0  0  0  0  0  0  0  0  0  0  0
   -2.3420   19.1910  -33.9060 H   0  0  0  0  0  0  0  0  0  0  0  0
   -1.0730   20.7620  -33.8930 C   0  0  0  0  0  0  0  0  0  0  0  0
   -0.3014   20.9523  -33.1324 H   0  0  0  0  0  0  0  0  0  0  0  0
   -0.7403   21.1373  -34.8720 H   0  0  0  0  0  0  0  0  0  0  0  0
   -2.3780   21.4960  -33.4910 C   0  0  0  0  0  0  0  0  0  0  0  0
   -2.1208   22.3907  -32.9050 H   0  0  0  0  0  0  0  0  0  0  0  0
   -2.9176   21.7755  -34.4079 H   0  0  0  0  0  0  0  0  0  0  0  0
   -3.2550   20.6210  -32.6780 N   0  0  0  0  0  0  0  0  0  0  0  0
   -3.9930   20.1620  -33.2650 H   0  0  0  0  0  0  0  0  0  0  0  0
   -2.6500   19.8270  -32.3760 H   0  0  0  0  0  0  0  0  0  0  0  0
   -3.8430   21.3370  -31.5430 C   0  0  0  0  0  0  0  0  0  0  0  0
   -5.2510   21.5110  -31.4690 C   0  0  0  0  0  0  0  0  0  0  0  0
   -5.7890   22.5570  -30.6730 C   0  0  0  0  0  0  0  0  0  0  0  0
   -4.9520   23.4050  -29.9650 N   0  0  0  0  0  0  0  0  0  0  0  0
   -5.4780   24.6630  -29.3550 C   0  0  0  0  0  0  0  0  0  0  0  0
   -6.4200   24.4458  -28.8301 H   0  0  0  0  0  0  0  0  0  0  0  0
   -4.7342   25.0558  -28.6461 H   0  0  0  0  0  0  0  0  0  0  0  0
   -5.7340   25.7090  -30.4380 C   0  0  0  0  0  0  0  0  0  0  0  0
   -5.9703   26.6745  -29.9668 H   0  0  0  0  0  0  0  0  0  0  0  0
   -4.8357   25.8165  -31.0636 H   0  0  0  0  0  0  0  0  0  0  0  0
   -6.5804   25.3894  -31.0636 H   0  0  0  0  0  0  0  0  0  0  0  0
   -3.5950   23.0910  -29.8450 C   0  0  0  0  0  0  0  0  0  0  0  0
   -2.7080   23.8420  -29.0220 C   0  0  0  0  0  0  0  0  0  0  0  0
   -3.0918   24.7229  -28.4866 H   0  0  0  0  0  0  0  0  0  0  0  0
   -1.3650   23.4910  -28.8760 C   0  0  0  0  0  0  0  0  0  0  0  0
   -0.7052   24.0855  -28.2270 H   0  0  0  0  0  0  0  0  0  0  0  0
   -0.8660   22.3850  -29.5560 C   0  0  0  0  0  0  0  0  0  0  0  0
    0.1928   22.1072  -29.4477 H   0  0  0  0  0  0  0  0  0  0  0  0
   -1.6960   21.6330  -30.3680 C   0  0  0  0  0  0  0  0  0  0  0  0
   -1.3127   20.7094  -30.8263 H   0  0  0  0  0  0  0  0  0  0  0  0
   -3.0380   22.0350  -30.6200 C   0  0  0  0  0  0  0  0  0  0  0  0
   -7.2720   22.9360  -30.8560 C   0  0  0  0  0  0  0  0  0  0  0  0
   -7.6972   23.1305  -29.8603 H   0  0  0  0  0  0  0  0  0  0  0  0
   -7.2793   23.8122  -31.5209 H   0  0  0  0  0  0  0  0  0  0  0  0
   -8.1450   21.8790  -31.5440 C   0  0  0  0  0  0  0  0  0  0  0  0
   -8.3993   21.0915  -30.8193 H   0  0  0  0  0  0  0  0  0  0  0  0
   -9.0613   22.3605  -31.9163 H   0  0  0  0  0  0  0  0  0  0  0  0
   -7.4040   21.2610  -32.7140 C   0  0  0  0  0  0  0  0  0  0  0  0
   -8.0598   20.5500  -33.2379 H   0  0  0  0  0  0  0  0  0  0  0  0
   -7.0953   22.0405  -33.4261 H   0  0  0  0  0  0  0  0  0  0  0  0
   -6.1880   20.5340  -32.1670 C   0  0  0  0  0  0  0  0  0  0  0  0
   -6.5166   19.7704  -31.4467 H   0  0  0  0  0  0  0  0  0  0  0  0
   -5.6507   20.0614  -33.0024 H   0  0  0  0  0  0  0  0  0  0  0  0
  1  2  1  0
  2  3  2  0
  3  4  1  0
  4  5  1  0
  5  6  1  0
  5  7  1  0
  5  8  1  0
  8  9  1  0
  8 10  1  0
  8 11  1  0
 11 12  1  0
 11 13  1  0
 13 14  1  0
 13 15  1  0
 13 16  1  0
 16 17  1  0
 16 18  1  0
 16 19  1  0
  2 20  1  0
 20 21  1  0
 20 22  1  0
 20 23  1  0
 23 24  1  0
 23 25  1  0
 23 26  1  0
 26 27  1  0
 26 28  1  0
 28 29  1  0
 28 30  1  0
 28 31  1  0
 31 32  1  0
 31 33  1  0
 31 34  1  0
 34 35  1  0
 34 36  1  0
 34 37  1  0
 37 38  2  0
 38 39  1  0
 39 40  2  0
 40 41  1  0
 41 42  1  0
 41 43  1  0
 41 44  1  0
 44 45  1  0
 44 46  1  0
 44 47  1  0
 40 48  1  0
 48 49  2  0
 49 50  1  0
 49 51  1  0
 51 52  1  0
 51 53  2  0
 53 54  1  0
 53 55  1  0
 55 56  1  0
 55 57  2  0
 39 58  1  0
 58 59  1  0
 58 60  1  0
 58 61  1  0
 61 62  1  0
 61 63  1  0
 61 64  1  0
 64 65  1  0
 64 66  1  0
 64 67  1  0
 67 68  1  0
 67 69  1  0
 57 37  1  0
 67 38  1  0
 57 48  1  0
M  CHG  2  34   1  40   1
M  END
>  <UniqueID>  (20) 
19

>  <SMILES>  (20) 
CCNCCO/N=C\CCNCC[NH2+]c1c2c([n+](CC)c3ccccc13)CCCC2

>  <Energy>  (20) 
95.40965822107337

>  <Genealogy>  (20) 
CCNCCON=CCCNCC[NH2+]c1c2c([n+](CC)c3ccccc13)CCCC2 (protonated)
CCNCCO/N=C\CCNCC[NH2+]c1c2c([n+](CC)c3ccccc13)CCCC2 (cis-trans isomerization)
CCNCCO/N=C\CCNCC[NH2+]c1c2c([n+](CC)c3ccccc13)CCCC2 (3D coordinates assigned)
CCNCCO/N=C\CCNCC[NH2+]c1c2c([n+](CC)c3ccccc13)CCCC2 (nonaromatic ring conformer: 95.40965822107337 kcal/mol)

>  <smiles>  (20) 
CCNCCON=CCCNCCNc1c2c([n+](CC)c3ccccc13)CCCC2

>  <score_type>  (20) 
oracle

>  <origin>  (20) 
adg

>  <m_score__min__energy>  (20) 
-8.25

>  <m_primary>  (20) 
energy

$$$$
