0:0
     RDKit          3D

 55 58  0  0  0  0  0  0  0  0999 V2000
   -2.6200   24.8770  -27.8010 C   0  0  0  0  0  0  0  0  0  0  0  0
   -2.4680   23.7440  -28.7230 N   0  0  0  0  0  0  0  0  0  0  0  0
   -1.8010   22.6320  -28.2960 C   0  0  0  0  0  0  0  0  0  0  0  0
   -1.6080   21.5430  -29.1490 C   0  0  0  0  0  0  0  0  0  0  0  0
   -2.0830   21.5880  -30.4680 C   0  0  0  0  0  0  0  0  0  0  0  0
   -1.9510   20.4010  -31.4220 C   0  0  2  0  0  0  0  0  0  0  0  0
   -0.5070   20.3020  -31.9820 C   0  0  0  0  0  0  0  0  0  0  0  0
   -0.4290   20.3760  -33.5080 C   0  0  0  0  0  0  0  0  0  0  0  0
   -1.3060   21.4290  -34.0200 N   0  0  0  0  0  0  0  0  0  0  0  0
   -2.7340   21.1030  -33.8410 C   0  0  0  0  0  0  0  0  0  0  0  0
   -3.0740   20.3630  -32.5100 C   0  0  1  0  0  0  0  0  0  0  0  0
   -3.5070   18.9410  -32.8020 C   0  0  0  0  0  0  0  0  0  0  0  0
   -2.6480   18.0270  -32.9220 O   0  0  0  0  0  0  0  0  0  0  0  0
   -4.8960   18.6260  -32.9690 N   0  0  0  0  0  0  0  0  0  0  0  0
   -5.7590   18.5590  -31.7780 C   0  0  0  0  0  0  0  0  0  0  0  0
   -7.0850   19.2600  -31.9920 C   0  0  0  0  0  0  0  0  0  0  0  0
   -8.2270   18.4870  -32.2620 C   0  0  0  0  0  0  0  0  0  0  0  0
   -9.4740   19.0920  -32.4260 C   0  0  0  0  0  0  0  0  0  0  0  0
   -9.5960   20.4760  -32.3310 C   0  0  0  0  0  0  0  0  0  0  0  0
   -8.4730   21.2660  -32.0750 C   0  0  0  0  0  0  0  0  0  0  0  0
   -8.6790   23.0100  -31.9750 Cl  0  0  0  0  0  0  0  0  0  0  0  0
   -7.2100   20.6660  -31.9030 C   0  0  0  0  0  0  0  0  0  0  0  0
   -5.8050   21.6860  -31.6100 Cl  0  0  0  0  0  0  0  0  0  0  0  0
   -5.3960   18.3480  -34.3220 C   0  0  0  0  0  0  0  0  0  0  0  0
   -4.6890   17.1930  -35.0220 C   0  0  0  0  0  0  0  0  0  0  0  0
   -6.0910   17.0010  -34.4800 C   0  0  0  0  0  0  0  0  0  0  0  0
   -2.7610   22.7440  -30.8870 C   0  0  0  0  0  0  0  0  0  0  0  0
   -2.9340   23.8210  -30.0100 C   0  0  0  0  0  0  0  0  0  0  0  0
   -3.5210   24.8580  -30.4260 O   0  0  0  0  0  0  0  0  0  0  0  0
   -2.5714   24.5146  -26.7636 H   0  0  0  0  0  0  0  0  0  0  0  0
   -1.8111   25.6019  -27.9744 H   0  0  0  0  0  0  0  0  0  0  0  0
   -3.5914   25.3631  -27.9744 H   0  0  0  0  0  0  0  0  0  0  0  0
   -1.4110   22.5932  -27.2682 H   0  0  0  0  0  0  0  0  0  0  0  0
   -1.0822   20.6478  -28.7855 H   0  0  0  0  0  0  0  0  0  0  0  0
   -2.1196   19.4805  -30.8439 H   0  0  0  0  0  0  0  0  0  0  0  0
    0.0843   21.1301  -31.5642 H   0  0  0  0  0  0  0  0  0  0  0  0
   -0.1172   19.3159  -31.6892 H   0  0  0  0  0  0  0  0  0  0  0  0
    0.6074   20.5923  -33.8065 H   0  0  0  0  0  0  0  0  0  0  0  0
   -0.7531   19.4115  -33.9259 H   0  0  0  0  0  0  0  0  0  0  0  0
   -1.1170   21.5490  -35.0420 H   0  0  0  0  0  0  0  0  0  0  0  0
   -1.0740   22.3340  -33.5520 H   0  0  0  0  0  0  0  0  0  0  0  0
   -3.3053   22.0427  -33.8658 H   0  0  0  0  0  0  0  0  0  0  0  0
   -2.9987   20.4128  -34.6556 H   0  0  0  0  0  0  0  0  0  0  0  0
   -3.9059   20.9262  -32.0619 H   0  0  0  0  0  0  0  0  0  0  0  0
   -5.9513   17.5027  -31.5388 H   0  0  0  0  0  0  0  0  0  0  0  0
   -5.2373   19.0675  -30.9539 H   0  0  0  0  0  0  0  0  0  0  0  0
   -8.1372   17.3938  -32.3450 H   0  0  0  0  0  0  0  0  0  0  0  0
  -10.3614   18.4750  -32.6305 H   0  0  0  0  0  0  0  0  0  0  0  0
  -10.5809   20.9490  -32.4581 H   0  0  0  0  0  0  0  0  0  0  0  0
   -5.6453   19.3882  -34.5785 H   0  0  0  0  0  0  0  0  0  0  0  0
   -4.5200   17.2295  -36.1083 H   0  0  0  0  0  0  0  0  0  0  0  0
   -3.7272   16.6759  -34.8891 H   0  0  0  0  0  0  0  0  0  0  0  0
   -6.9388   16.8982  -35.1733 H   0  0  0  0  0  0  0  0  0  0  0  0
   -6.5664   16.2869  -33.7915 H   0  0  0  0  0  0  0  0  0  0  0  0
   -3.1587   22.8036  -31.9109 H   0  0  0  0  0  0  0  0  0  0  0  0
  1  2  1  0
  2  3  1  0
  3  4  2  0
  4  5  1  0
  5  6  1  0
  6  7  1  0
  7  8  1  0
  8  9  1  0
  9 10  1  0
 10 11  1  0
 11 12  1  0
 12 13  2  0
 12 14  1  0
 14 15  1  0
 15 16  1  0
 16 17  2  0
 17 18  1  0
 18 19  2  0
 19 20  1  0
 20 21  1  0
 20 22  2  0
 22 23  1  0
 14 24  1  0
 24 25  1  0
 25 26  1  0
  5 27  2  0
 27 28  1  0
 28 29  2  0
 28  2  1  0
 11  6  1  0
 22 16  1  0
 26 24  1  0
  1 30  1  0
  1 31  1  0
  1 32  1  0
  3 33  1  0
  4 34  1  0
  6 35  1  1
  7 36  1  0
  7 37  1  0
  8 38  1  0
  8 39  1  0
  9 40  1  0
  9 41  1  0
 10 42  1  0
 10 43  1  0
 11 44  1  1
 15 45  1  0
 15 46  1  0
 17 47  1  0
 18 48  1  0
 19 49  1  0
 24 50  1  0
 25 51  1  0
 25 52  1  0
 26 53  1  0
 26 54  1  0
 27 55  1  0
M  CHG  1   9   1
M  END
>  <UniqueID>  (1) 
1

>  <SMILES>  (1) 
Cn1ccc([C@@H]2CC[NH2+]C[C@H]2C(=O)N(Cc2cccc(Cl)c2Cl)C2CC2)cc1=O

>  <Energy>  (1) 
343.9742006827461

>  <Genealogy>  (1) 
Cn1ccc(C2CC[NH2+]CC2C(=O)N(Cc2cccc(Cl)c2Cl)C2CC2)cc1=O (protonated)
Cn1ccc([C@@H]2CC[NH2+]C[C@H]2C(=O)N(Cc2cccc(Cl)c2Cl)C2CC2)cc1=O (chirality)
Cn1ccc([C@@H]2CC[NH2+]C[C@H]2C(=O)N(Cc2cccc(Cl)c2Cl)C2CC2)cc1=O (3D coordinates assigned)
Cn1ccc([C@@H]2CC[NH2+]C[C@H]2C(=O)N(Cc2cccc(Cl)c2Cl)C2CC2)cc1=O (nonaromatic ring conformer: 343.9742006827461 kcal/mol)

>  <smiles>  (1) 
Cn1ccc(C2CCNCC2C(=O)N(Cc2cccc(Cl)c2Cl)C2CC2)cc1=O

>  <score_type>  (1) 
oracle

>  <origin>  (1) 
adg

>  <m_score__min__energy>  (1) 
-8.8100000000000005

>  <m_primary>  (1) 
energy

$$$$
1:0
     RDKit          3D

 63 65  0  0  0  0  0  0  0  0999 V2000
    1.0230   16.9340  -27.8320 C   0  0  0  0  0  0  0  0  0  0  0  0
   -0.0910   17.9380  -27.5440 C   0  0  0  0  0  0  0  0  0  0  0  0
    0.1220   19.1900  -28.2860 N   0  0  0  0  0  0  0  0  0  0  0  0
    1.3240   19.3310  -29.1220 C   0  0  0  0  0  0  0  0  0  0  0  0
    0.9410   19.4120  -30.6050 C   0  0  0  0  0  0  0  0  0  0  0  0
   -0.3190   18.5830  -30.8920 C   0  0  0  0  0  0  0  0  0  0  0  0
   -1.4930   19.4410  -31.4110 C   0  0  0  0  0  0  0  0  0  0  0  0
   -1.1180   20.9130  -31.6610 C   0  0  0  0  0  0  0  0  0  0  0  0
   -1.4450   21.4280  -33.0780 C   0  0  0  0  0  0  0  0  0  0  0  0
   -2.7230   20.9000  -33.6060 N   0  0  0  0  0  0  0  0  0  0  0  0
   -3.8820   21.4540  -32.9350 C   0  0  0  0  0  0  0  0  0  0  0  0
   -3.7720   22.6640  -32.2300 C   0  0  0  0  0  0  0  0  0  0  0  0
   -4.8440   23.1810  -31.5030 C   0  0  0  0  0  0  0  0  0  0  0  0
   -4.6560   24.3980  -30.8310 O   0  0  0  0  0  0  0  0  0  0  0  0
   -5.7050   25.1940  -30.2870 C   0  0  0  0  0  0  0  0  0  0  0  0
   -6.0540   22.4700  -31.4520 C   0  0  0  0  0  0  0  0  0  0  0  0
   -6.1960   21.2460  -32.1330 C   0  0  0  0  0  0  0  0  0  0  0  0
   -7.3880   20.4780  -32.0680 C   0  0  0  0  0  0  0  0  0  0  0  0
   -8.5600   20.8930  -31.2120 C   0  0  0  0  0  0  0  0  0  0  0  0
   -7.4650   19.2740  -32.7870 C   0  0  0  0  0  0  0  0  0  0  0  0
   -6.3750   18.8410  -33.5370 C   0  0  0  0  0  0  0  0  0  0  0  0
   -5.2320   19.5690  -33.5640 N   0  0  0  0  0  0  0  0  0  0  0  0
   -5.1050   20.7470  -32.8930 C   0  0  0  0  0  0  0  0  0  0  0  0
   -0.8330   20.2690  -28.1790 C   0  0  0  0  0  0  0  0  0  0  0  0
   -2.1340   20.0200  -27.7140 C   0  0  0  0  0  0  0  0  0  0  0  0
   -3.0670   21.0550  -27.6250 C   0  0  0  0  0  0  0  0  0  0  0  0
   -2.7150   22.3570  -27.9950 C   0  0  0  0  0  0  0  0  0  0  0  0
   -3.9170   23.6340  -27.8630 Cl  0  0  0  0  0  0  0  0  0  0  0  0
   -1.4160   22.6210  -28.4570 C   0  0  0  0  0  0  0  0  0  0  0  0
   -0.9310   24.2430  -28.9340 Cl  0  0  0  0  0  0  0  0  0  0  0  0
   -0.4820   21.5810  -28.5460 C   0  0  0  0  0  0  0  0  0  0  0  0
    1.4358   16.5620  -26.8827 H   0  0  0  0  0  0  0  0  0  0  0  0
    0.6165   16.0912  -28.4104 H   0  0  0  0  0  0  0  0  0  0  0  0
    1.8191   17.4256  -28.4104 H   0  0  0  0  0  0  0  0  0  0  0  0
   -1.0550   17.5015  -27.8444 H   0  0  0  0  0  0  0  0  0  0  0  0
   -0.0887   18.1643  -26.4675 H   0  0  0  0  0  0  0  0  0  0  0  0
    1.8584   20.2488  -28.8356 H   0  0  0  0  0  0  0  0  0  0  0  0
    1.9687   18.4530  -28.9687 H   0  0  0  0  0  0  0  0  0  0  0  0
    0.7493   20.4621  -30.8705 H   0  0  0  0  0  0  0  0  0  0  0  0
    1.7706   19.0091  -31.2045 H   0  0  0  0  0  0  0  0  0  0  0  0
   -0.0756   17.8244  -31.6505 H   0  0  0  0  0  0  0  0  0  0  0  0
   -0.6371   18.1242  -29.9442 H   0  0  0  0  0  0  0  0  0  0  0  0
   -1.8488   19.0074  -32.3572 H   0  0  0  0  0  0  0  0  0  0  0  0
   -2.2674   19.4339  -30.6298 H   0  0  0  0  0  0  0  0  0  0  0  0
   -1.6643   21.5340  -30.9358 H   0  0  0  0  0  0  0  0  0  0  0  0
   -0.0256   20.9793  -31.5499 H   0  0  0  0  0  0  0  0  0  0  0  0
   -1.5060   22.5258  -33.0463 H   0  0  0  0  0  0  0  0  0  0  0  0
   -0.6443   21.0797  -33.7470 H   0  0  0  0  0  0  0  0  0  0  0  0
   -2.7950   21.1400  -34.6220 H   0  0  0  0  0  0  0  0  0  0  0  0
   -2.7460   19.8550  -33.5660 H   0  0  0  0  0  0  0  0  0  0  0  0
   -2.8204   23.2153  -32.2518 H   0  0  0  0  0  0  0  0  0  0  0  0
   -5.6595   25.1595  -29.1885 H   0  0  0  0  0  0  0  0  0  0  0  0
   -5.5898   26.2340  -30.6263 H   0  0  0  0  0  0  0  0  0  0  0  0
   -6.6756   24.8031  -30.6263 H   0  0  0  0  0  0  0  0  0  0  0  0
   -6.8989   22.8733  -30.8745 H   0  0  0  0  0  0  0  0  0  0  0  0
   -8.2903   20.7975  -30.1499 H   0  0  0  0  0  0  0  0  0  0  0  0
   -8.8221   21.9386  -31.4312 H   0  0  0  0  0  0  0  0  0  0  0  0
   -9.4217   20.2453  -31.4312 H   0  0  0  0  0  0  0  0  0  0  0  0
   -8.3861   18.6734  -32.7575 H   0  0  0  0  0  0  0  0  0  0  0  0
   -6.4416   17.9044  -34.1100 H   0  0  0  0  0  0  0  0  0  0  0  0
   -2.4209   19.0004  -27.4171 H   0  0  0  0  0  0  0  0  0  0  0  0
   -4.0840   20.8453  -27.2620 H   0  0  0  0  0  0  0  0  0  0  0  0
    0.5357   21.7921  -28.9063 H   0  0  0  0  0  0  0  0  0  0  0  0
  1  2  1  0
  2  3  1  0
  3  4  1  0
  4  5  1  0
  5  6  1  0
  6  7  1  0
  7  8  1  0
  8  9  1  0
  9 10  1  0
 10 11  1  0
 11 12  2  0
 12 13  1  0
 13 14  1  0
 14 15  1  0
 13 16  2  0
 16 17  1  0
 17 18  2  0
 18 19  1  0
 18 20  1  0
 20 21  2  0
 21 22  1  0
 22 23  2  0
  3 24  1  0
 24 25  2  0
 25 26  1  0
 26 27  2  0
 27 28  1  0
 27 29  1  0
 29 30  1  0
 29 31  2  0
 23 11  1  0
 31 24  1  0
 23 17  1  0
  1 32  1  0
  1 33  1  0
  1 34  1  0
  2 35  1  0
  2 36  1  0
  4 37  1  0
  4 38  1  0
  5 39  1  0
  5 40  1  0
  6 41  1  0
  6 42  1  0
  7 43  1  0
  7 44  1  0
  8 45  1  0
  8 46  1  0
  9 47  1  0
  9 48  1  0
 10 49  1  0
 10 50  1  0
 12 51  1  0
 15 52  1  0
 15 53  1  0
 15 54  1  0
 16 55  1  0
 19 56  1  0
 19 57  1  0
 19 58  1  0
 20 59  1  0
 21 60  1  0
 25 61  1  0
 26 62  1  0
 31 63  1  0
M  CHG  1  10   1
M  END
>  <UniqueID>  (2) 
2

>  <SMILES>  (2) 
CCN(CCCCCC[NH2+]c1cc(OC)cc2c(C)ccnc12)c1ccc(Cl)c(Cl)c1

>  <Energy>  (2) 
60.86554621863135

>  <Genealogy>  (2) 
CCN(CCCCCC[NH2+]c1cc(OC)cc2c(C)ccnc12)c1ccc(Cl)c(Cl)c1 (protonated)
CCN(CCCCCC[NH2+]c1cc(OC)cc2c(C)ccnc12)c1ccc(Cl)c(Cl)c1 (3D coordinates assigned)
CCN(CCCCCC[NH2+]c1cc(OC)cc2c(C)ccnc12)c1ccc(Cl)c(Cl)c1 (optimized conformer: 60.86554621863135 kcal/mol)

>  <smiles>  (2) 
CCN(CCCCCCNc1cc(OC)cc2c(C)ccnc12)c1ccc(Cl)c(Cl)c1

>  <score_type>  (2) 
oracle

>  <origin>  (2) 
adg

>  <m_score__min__energy>  (2) 
-8.6899999999999995

>  <m_primary>  (2) 
energy

$$$$
2:0
     RDKit          3D

 38 39  0  0  0  0  0  0  0  0999 V2000
   -3.4890   17.2720  -35.8030 H   0  0  0  0  0  0  0  0  0  0  0  0
   -4.4740   17.3470  -35.7360 O   0  0  0  0  0  0  0  0  0  0  0  0
   -4.8260   16.9780  -34.1340 S   0  0  0  0  0  0  0  0  0  0  0  0
   -6.1260   17.9820  -33.5200 C   0  0  0  0  0  0  0  0  0  0  0  0
   -7.1040   17.4330  -32.6840 C   0  0  0  0  0  0  0  0  0  0  0  0
   -7.0827   16.3596  -32.4444 H   0  0  0  0  0  0  0  0  0  0  0  0
   -8.1080   18.2470  -32.1530 C   0  0  0  0  0  0  0  0  0  0  0  0
   -8.8889   17.8079  -31.5148 H   0  0  0  0  0  0  0  0  0  0  0  0
   -8.1240   19.6240  -32.4310 C   0  0  0  0  0  0  0  0  0  0  0  0
   -9.1180   20.5230  -31.8090 C   0  0  0  0  0  0  0  0  0  0  0  0
  -10.1819   20.2922  -31.9664 H   0  0  0  0  0  0  0  0  0  0  0  0
   -8.8190   21.6020  -31.0650 C   0  0  0  0  0  0  0  0  0  0  0  0
   -9.0294   21.5445  -29.9868 H   0  0  0  0  0  0  0  0  0  0  0  0
   -8.2300   22.8620  -31.5750 C   0  0  0  0  0  0  0  0  0  0  0  0
   -8.8670   23.5010  -32.4550 O   0  0  0  0  0  0  0  0  0  0  0  0
   -6.9170   23.3820  -31.1210 C   0  0  0  0  0  0  0  0  0  0  0  0
   -6.8350   24.5190  -30.3000 C   0  0  0  0  0  0  0  0  0  0  0  0
   -7.7562   24.9968  -29.9352 H   0  0  0  0  0  0  0  0  0  0  0  0
   -5.5900   25.0480  -29.9430 C   0  0  0  0  0  0  0  0  0  0  0  0
   -5.5372   25.9477  -29.3123 H   0  0  0  0  0  0  0  0  0  0  0  0
   -4.4050   24.4330  -30.3880 C   0  0  0  0  0  0  0  0  0  0  0  0
   -3.1340   24.9350  -30.0740 O   0  0  0  0  0  0  0  0  0  0  0  0
   -2.3040   24.4270  -29.0340 C   0  0  0  0  0  0  0  0  0  0  0  0
   -2.7362   24.6915  -28.0577 H   0  0  0  0  0  0  0  0  0  0  0  0
   -2.2362   23.3325  -29.1206 H   0  0  0  0  0  0  0  0  0  0  0  0
   -1.2985   24.8646  -29.1206 H   0  0  0  0  0  0  0  0  0  0  0  0
   -4.4890   23.2780  -31.1730 C   0  0  0  0  0  0  0  0  0  0  0  0
   -3.5679   22.7800  -31.5101 H   0  0  0  0  0  0  0  0  0  0  0  0
   -5.7330   22.7510  -31.5330 C   0  0  0  0  0  0  0  0  0  0  0  0
   -5.7840   21.8367  -32.1425 H   0  0  0  0  0  0  0  0  0  0  0  0
   -7.1740   20.1590  -33.3140 C   0  0  0  0  0  0  0  0  0  0  0  0
   -7.2172   21.2237  -33.5871 H   0  0  0  0  0  0  0  0  0  0  0  0
   -6.1720   19.3420  -33.8480 C   0  0  0  0  0  0  0  0  0  0  0  0
   -5.4190   19.7690  -34.5268 H   0  0  0  0  0  0  0  0  0  0  0  0
   -5.1800   15.2490  -33.9150 C   0  0  0  0  0  0  0  0  0  0  0  0
   -5.2274   15.0176  -32.8407 H   0  0  0  0  0  0  0  0  0  0  0  0
   -6.1457   15.0101  -34.3844 H   0  0  0  0  0  0  0  0  0  0  0  0
   -4.3859   14.6498  -34.3844 H   0  0  0  0  0  0  0  0  0  0  0  0
  1  2  1  0
  3  2  1  6
  3  4  1  0
  4  5  2  0
  5  6  1  0
  5  7  1  0
  7  8  1  0
  7  9  2  0
  9 10  1  0
 10 11  1  0
 10 12  2  0
 12 13  1  0
 12 14  1  0
 14 15  2  0
 14 16  1  0
 16 17  2  0
 17 18  1  0
 17 19  1  0
 19 20  1  0
 19 21  2  0
 21 22  1  0
 22 23  1  0
 23 24  1  0
 23 25  1  0
 23 26  1  0
 21 27  1  0
 27 28  1  0
 27 29  2  0
 29 30  1  0
  9 31  1  0
 31 32  1  0
 31 33  2  0
 33 34  1  0
  3 35  1  0
 35 36  1  0
 35 37  1  0
 35 38  1  0
 33  4  1  0
 29 16  1  0
M  CHG  1   3   1
M  END
>  <UniqueID>  (3) 
3

>  <SMILES>  (3) 
COc1ccc(C(=O)/C=C\c2ccc([S@@+](C)O)cc2)cc1

>  <Energy>  (3) 
41.785187991215956

>  <Genealogy>  (3) 
COc1ccc(C(=O)C=Cc2ccc([S+](C)O)cc2)cc1 (protonated)
COc1ccc(C(=O)C=Cc2ccc([S@@+](C)O)cc2)cc1 (chirality)
COc1ccc(C(=O)/C=C\c2ccc([S@@+](C)O)cc2)cc1 (cis-trans isomerization)
COc1ccc(C(=O)/C=C\c2ccc([S@@+](C)O)cc2)cc1 (3D coordinates assigned)
COc1ccc(C(=O)/C=C\c2ccc([S@@+](C)O)cc2)cc1 (optimized conformer: 41.785187991215956 kcal/mol)

>  <smiles>  (3) 
COc1ccc(C(=O)C=Cc2ccc([S+](C)[O-])cc2)cc1

>  <score_type>  (3) 
oracle

>  <origin>  (3) 
adg

>  <m_score__min__energy>  (3) 
-8.3000000000000007

>  <m_primary>  (3) 
energy

$$$$
3:0
     RDKit          3D

 57 59  0  0  0  0  0  0  0  0999 V2000
   -2.4350   20.3960  -27.3590 C   0  0  0  0  0  0  0  0  0  0  0  0
   -2.0050   21.7330  -27.5950 O   0  0  0  0  0  0  0  0  0  0  0  0
   -2.5860   22.6010  -28.5340 C   0  0  0  0  0  0  0  0  0  0  0  0
   -3.3240   22.1400  -29.6340 C   0  0  0  0  0  0  0  0  0  0  0  0
   -3.8900   23.0180  -30.5160 N   0  0  0  0  0  0  0  0  0  0  0  0
   -4.6930   22.5020  -31.6380 C   0  0  0  0  0  0  0  0  0  0  0  0
   -6.0060   23.2400  -31.7210 C   0  0  0  0  0  0  0  0  0  0  0  0
   -6.2620   23.8710  -32.7820 O   0  0  0  0  0  0  0  0  0  0  0  0
   -6.9380   23.3070  -30.6160 N   0  0  0  0  0  0  0  0  0  0  0  0
   -6.8720   24.4660  -29.7190 C   0  0  0  0  0  0  0  0  0  0  0  0
   -7.9720   22.2830  -30.4000 C   0  0  0  0  0  0  0  0  0  0  0  0
   -8.5610   21.8270  -31.7380 C   0  0  0  0  0  0  0  0  0  0  0  0
   -8.0020   20.4850  -32.1300 C   0  0  0  0  0  0  0  0  0  0  0  0
   -6.9750   20.3940  -33.0850 C   0  0  0  0  0  0  0  0  0  0  0  0
   -6.4840   19.1440  -33.4730 C   0  0  0  0  0  0  0  0  0  0  0  0
   -7.0200   17.9780  -32.9190 C   0  0  0  0  0  0  0  0  0  0  0  0
   -8.0520   18.0600  -31.9800 C   0  0  0  0  0  0  0  0  0  0  0  0
   -8.5460   19.3090  -31.5890 C   0  0  0  0  0  0  0  0  0  0  0  0
   -3.7310   24.3670  -30.3240 C   0  0  0  0  0  0  0  0  0  0  0  0
   -4.2460   25.1970  -31.1220 O   0  0  0  0  0  0  0  0  0  0  0  0
   -3.0150   24.8270  -29.2690 N   0  0  0  0  0  0  0  0  0  0  0  0
   -2.4390   23.9830  -28.3770 C   0  0  0  0  0  0  0  0  0  0  0  0
   -1.6760   24.5450  -27.2410 C   0  0  0  0  0  0  0  0  0  0  0  0
   -0.2610   24.4610  -27.2180 C   0  0  0  0  0  0  0  0  0  0  0  0
    0.5060   23.8020  -28.3340 C   0  0  0  0  0  0  0  0  0  0  0  0
    0.4420   24.9800  -26.1200 C   0  0  0  0  0  0  0  0  0  0  0  0
   -0.2360   25.5990  -25.0720 C   0  0  0  0  0  0  0  0  0  0  0  0
   -1.6260   25.7020  -25.0980 C   0  0  0  0  0  0  0  0  0  0  0  0
   -2.3590   25.1730  -26.1720 C   0  0  0  0  0  0  0  0  0  0  0  0
   -3.8620   25.2890  -26.1660 C   0  0  0  0  0  0  0  0  0  0  0  0
   -2.4931   20.2154  -26.2755 H   0  0  0  0  0  0  0  0  0  0  0  0
   -3.4270   20.2449  -27.8096 H   0  0  0  0  0  0  0  0  0  0  0  0
   -1.7170   19.6950  -27.8096 H   0  0  0  0  0  0  0  0  0  0  0  0
   -3.4490   21.0582  -29.7891 H   0  0  0  0  0  0  0  0  0  0  0  0
   -4.1375   22.6419  -32.5771 H   0  0  0  0  0  0  0  0  0  0  0  0
   -4.8919   21.4324  -31.4753 H   0  0  0  0  0  0  0  0  0  0  0  0
   -6.8916   24.1226  -28.6742 H   0  0  0  0  0  0  0  0  0  0  0  0
   -5.9408   25.0212  -29.9051 H   0  0  0  0  0  0  0  0  0  0  0  0
   -7.7342   25.1233  -29.9051 H   0  0  0  0  0  0  0  0  0  0  0  0
   -7.5243   21.4185  -29.8879 H   0  0  0  0  0  0  0  0  0  0  0  0
   -8.7761   22.7128  -29.7846 H   0  0  0  0  0  0  0  0  0  0  0  0
   -9.6544   21.7506  -31.6450 H   0  0  0  0  0  0  0  0  0  0  0  0
   -8.2969   22.5624  -32.5122 H   0  0  0  0  0  0  0  0  0  0  0  0
   -6.5562   21.3093  -33.5286 H   0  0  0  0  0  0  0  0  0  0  0  0
   -5.6748   19.0779  -34.2152 H   0  0  0  0  0  0  0  0  0  0  0  0
   -6.6294   16.9954  -33.2222 H   0  0  0  0  0  0  0  0  0  0  0  0
   -8.4761   17.1416  -31.5480 H   0  0  0  0  0  0  0  0  0  0  0  0
   -9.3633   19.3701  -30.8553 H   0  0  0  0  0  0  0  0  0  0  0  0
    1.2757   23.1407  -27.9093 H   0  0  0  0  0  0  0  0  0  0  0  0
   -0.1840   23.2107  -28.9539 H   0  0  0  0  0  0  0  0  0  0  0  0
    0.9866   24.5732  -28.9539 H   0  0  0  0  0  0  0  0  0  0  0  0
    1.5384   24.8974  -26.0864 H   0  0  0  0  0  0  0  0  0  0  0  0
    0.3278   26.0081  -24.2206 H   0  0  0  0  0  0  0  0  0  0  0  0
   -2.1522   26.2013  -24.2711 H   0  0  0  0  0  0  0  0  0  0  0  0
   -4.2235   25.3169  -25.1275 H   0  0  0  0  0  0  0  0  0  0  0  0
   -4.1605   26.2129  -26.6831 H   0  0  0  0  0  0  0  0  0  0  0  0
   -4.2987   24.4219  -26.6831 H   0  0  0  0  0  0  0  0  0  0  0  0
  1  2  1  0
  2  3  1  0
  3  4  2  0
  4  5  1  0
  5  6  1  0
  6  7  1  0
  7  8  2  0
  7  9  1  0
  9 10  1  0
  9 11  1  0
 11 12  1  0
 12 13  1  0
 13 14  2  0
 14 15  1  0
 15 16  2  0
 16 17  1  0
 17 18  2  0
  5 19  1  0
 19 20  2  0
 19 21  1  0
 21 22  2  0
 22 23  1  0
 23 24  2  0
 24 25  1  0
 24 26  1  0
 26 27  2  0
 27 28  1  0
 28 29  2  0
 29 30  1  0
 22  3  1  0
 29 23  1  0
 18 13  1  0
  1 31  1  0
  1 32  1  0
  1 33  1  0
  4 34  1  0
  6 35  1  0
  6 36  1  0
 10 37  1  0
 10 38  1  0
 10 39  1  0
 11 40  1  0
 11 41  1  0
 12 42  1  0
 12 43  1  0
 14 44  1  0
 15 45  1  0
 16 46  1  0
 17 47  1  0
 18 48  1  0
 25 49  1  0
 25 50  1  0
 25 51  1  0
 26 52  1  0
 27 53  1  0
 28 54  1  0
 30 55  1  0
 30 56  1  0
 30 57  1  0
M  END
>  <UniqueID>  (4) 
4

>  <SMILES>  (4) 
COc1cn(CC(=O)N(C)CCc2ccccc2)c(=O)nc1-c1c(C)cccc1C

>  <Energy>  (4) 
64.05910378540854

>  <Genealogy>  (4) 
COc1cn(CC(=O)N(C)CCc2ccccc2)c(=O)nc1-c1c(C)cccc1C (3D coordinates assigned)
COc1cn(CC(=O)N(C)CCc2ccccc2)c(=O)nc1-c1c(C)cccc1C (optimized conformer: 64.05910378540854 kcal/mol)

>  <smiles>  (4) 
COc1cn(CC(=O)N(C)CCc2ccccc2)c(=O)nc1-c1c(C)cccc1C

>  <score_type>  (4) 
oracle

>  <origin>  (4) 
adg

>  <m_score__min__energy>  (4) 
-9.2599999999999998

>  <m_primary>  (4) 
energy

$$$$
4:0
     RDKit          3D

 72 76  0  0  0  0  0  0  0  0999 V2000
   -6.4370   16.0990  -33.8740 C   0  0  0  0  0  0  0  0  0  0  0  0
   -5.4050   17.1860  -34.1590 C   0  0  0  0  0  0  0  0  0  0  0  0
   -6.0460   18.5060  -34.6140 C   0  0  0  0  0  0  0  0  0  0  0  0
   -6.1200   19.5040  -33.5280 N   0  0  0  0  0  0  0  0  0  0  0  0
   -7.4300   19.9360  -33.0030 C   0  0  0  0  0  0  0  0  0  0  0  0
   -8.0230   18.9370  -31.9980 C   0  0  0  0  0  0  0  0  0  0  0  0
   -6.9510   18.1500  -31.2460 C   0  0  0  0  0  0  0  0  0  0  0  0
   -4.9220   20.1690  -33.0660 C   0  0  0  0  0  0  0  0  0  0  0  0
   -3.7520   19.9990  -33.7360 N   0  0  0  0  0  0  0  0  0  0  0  0
   -2.6100   20.6030  -33.3170 C   0  0  0  0  0  0  0  0  0  0  0  0
   -1.3720   20.4060  -34.0340 N   0  0  0  0  0  0  0  0  0  0  0  0
   -0.8520   19.0440  -34.2170 C   0  0  0  0  0  0  0  0  0  0  0  0
    0.1620   18.9950  -35.3660 C   0  0  0  0  0  0  0  0  0  0  0  0
    1.1340   20.0110  -35.2220 O   0  0  0  0  0  0  0  0  0  0  0  0
    0.5150   21.2720  -35.3740 C   0  0  0  0  0  0  0  0  0  0  0  0
   -0.4590   21.5430  -34.2240 C   0  0  0  0  0  0  0  0  0  0  0  0
   -2.6420   21.3750  -32.2000 N   0  0  0  0  0  0  0  0  0  0  0  0
   -3.7990   21.5520  -31.5140 C   0  0  0  0  0  0  0  0  0  0  0  0
   -3.8000   22.3710  -30.2820 C   0  0  0  0  0  0  0  0  0  0  0  0
   -2.6410   22.4100  -29.4940 C   0  0  0  0  0  0  0  0  0  0  0  0
   -2.5850   23.1980  -28.3890 N   0  0  0  0  0  0  0  0  0  0  0  0
   -3.6380   23.9580  -27.9870 C   0  0  0  0  0  0  0  0  0  0  0  0
   -3.4940   24.8070  -26.7840 C   0  0  0  0  0  0  0  0  0  0  0  0
   -4.4770   24.9200  -26.0030 O   0  0  0  0  0  0  0  0  0  0  0  0
   -2.2420   25.5350  -26.4690 C   0  0  0  0  0  0  0  0  0  0  0  0
   -2.0260   26.0340  -25.1720 C   0  0  0  0  0  0  0  0  0  0  0  0
   -0.8530   26.7340  -24.8710 C   0  0  0  0  0  0  0  0  0  0  0  0
    0.1060   26.9550  -25.8610 C   0  0  0  0  0  0  0  0  0  0  0  0
   -0.1070   26.4800  -27.1580 C   0  0  0  0  0  0  0  0  0  0  0  0
   -1.2760   25.7770  -27.4640 C   0  0  0  0  0  0  0  0  0  0  0  0
   -4.8190   23.9530  -28.7430 C   0  0  0  0  0  0  0  0  0  0  0  0
   -4.9190   23.1450  -29.8850 C   0  0  0  0  0  0  0  0  0  0  0  0
   -6.2120   23.0990  -30.6120 C   0  0  0  0  0  0  0  0  0  0  0  0
   -6.3810   23.7870  -31.8210 C   0  0  0  0  0  0  0  0  0  0  0  0
   -7.5680   23.7240  -32.4780 N   0  0  0  0  0  0  0  0  0  0  0  0
   -8.6060   23.0060  -31.9790 C   0  0  0  0  0  0  0  0  0  0  0  0
   -8.4710   22.3400  -30.8040 N   0  0  0  0  0  0  0  0  0  0  0  0
   -7.3030   22.3740  -30.1120 C   0  0  0  0  0  0  0  0  0  0  0  0
   -4.9450   20.9740  -31.9660 N   0  0  0  0  0  0  0  0  0  0  0  0
   -6.5516   15.9783  -32.7867 H   0  0  0  0  0  0  0  0  0  0  0  0
   -7.4031   16.3859  -34.3149 H   0  0  0  0  0  0  0  0  0  0  0  0
   -6.1004   15.1491  -34.3149 H   0  0  0  0  0  0  0  0  0  0  0  0
   -4.8278   17.3728  -33.2414 H   0  0  0  0  0  0  0  0  0  0  0  0
   -4.7627   16.8286  -34.9773 H   0  0  0  0  0  0  0  0  0  0  0  0
   -5.4468   18.9238  -35.4365 H   0  0  0  0  0  0  0  0  0  0  0  0
   -7.0748   18.2844  -34.9342 H   0  0  0  0  0  0  0  0  0  0  0  0
   -7.3057   20.9075  -32.5023 H   0  0  0  0  0  0  0  0  0  0  0  0
   -8.1238   20.0036  -33.8540 H   0  0  0  0  0  0  0  0  0  0  0  0
   -8.6300   19.4915  -31.2672 H   0  0  0  0  0  0  0  0  0  0  0  0
   -8.6284   18.2148  -32.5655 H   0  0  0  0  0  0  0  0  0  0  0  0
   -7.1052   18.2632  -30.1628 H   0  0  0  0  0  0  0  0  0  0  0  0
   -7.0195   17.0861  -31.5169 H   0  0  0  0  0  0  0  0  0  0  0  0
   -5.9565   18.5341  -31.5169 H   0  0  0  0  0  0  0  0  0  0  0  0
   -0.3601   18.7186  -33.2885 H   0  0  0  0  0  0  0  0  0  0  0  0
   -1.6920   18.3771  -34.4610 H   0  0  0  0  0  0  0  0  0  0  0  0
    0.6618   18.0151  -35.3643 H   0  0  0  0  0  0  0  0  0  0  0  0
   -0.3726   19.1508  -36.3146 H   0  0  0  0  0  0  0  0  0  0  0  0
    1.2883   22.0543  -35.3834 H   0  0  0  0  0  0  0  0  0  0  0  0
   -0.0467   21.2768  -36.3197 H   0  0  0  0  0  0  0  0  0  0  0  0
    0.1124   21.7053  -33.2982 H   0  0  0  0  0  0  0  0  0  0  0  0
   -1.0536   22.4356  -34.4685 H   0  0  0  0  0  0  0  0  0  0  0  0
   -1.7706   21.7979  -29.7727 H   0  0  0  0  0  0  0  0  0  0  0  0
   -2.7832   25.8730  -24.3905 H   0  0  0  0  0  0  0  0  0  0  0  0
   -0.6858   27.1114  -23.8514 H   0  0  0  0  0  0  0  0  0  0  0  0
    1.0290   27.5028  -25.6204 H   0  0  0  0  0  0  0  0  0  0  0  0
    0.6463   26.6595  -27.9392 H   0  0  0  0  0  0  0  0  0  0  0  0
   -1.4419   25.4109  -28.4879 H   0  0  0  0  0  0  0  0  0  0  0  0
   -5.6679   24.5835  -28.4400 H   0  0  0  0  0  0  0  0  0  0  0  0
   -5.5523   24.3781  -32.2379 H   0  0  0  0  0  0  0  0  0  0  0  0
   -9.5584   22.9637  -32.5278 H   0  0  0  0  0  0  0  0  0  0  0  0
   -7.2128   21.8325  -29.1588 H   0  0  0  0  0  0  0  0  0  0  0  0
   -5.8430   21.1760  -31.4810 H   0  0  0  0  0  0  0  0  0  0  0  0
  1  2  1  0
  2  3  1  0
  3  4  1  0
  4  5  1  0
  5  6  1  0
  6  7  1  0
  4  8  1  0
  8  9  2  0
  9 10  1  0
 10 11  1  0
 11 12  1  0
 12 13  1  0
 13 14  1  0
 14 15  1  0
 15 16  1  0
 10 17  2  0
 17 18  1  0
 18 19  1  0
 19 20  2  0
 20 21  1  0
 21 22  2  0
 22 23  1  0
 23 24  2  0
 23 25  1  0
 25 26  2  0
 26 27  1  0
 27 28  2  0
 28 29  1  0
 29 30  2  0
 22 31  1  0
 31 32  2  0
 32 33  1  0
 33 34  2  0
 34 35  1  0
 35 36  2  0
 36 37  1  0
 37 38  2  0
 18 39  2  0
 39  8  1  0
 16 11  1  0
 32 19  1  0
 38 33  1  0
 30 25  1  0
  1 40  1  0
  1 41  1  0
  1 42  1  0
  2 43  1  0
  2 44  1  0
  3 45  1  0
  3 46  1  0
  5 47  1  0
  5 48  1  0
  6 49  1  0
  6 50  1  0
  7 51  1  0
  7 52  1  0
  7 53  1  0
 12 54  1  0
 12 55  1  0
 13 56  1  0
 13 57  1  0
 15 58  1  0
 15 59  1  0
 16 60  1  0
 16 61  1  0
 20 62  1  0
 26 63  1  0
 27 64  1  0
 28 65  1  0
 29 66  1  0
 30 67  1  0
 31 68  1  0
 34 69  1  0
 36 70  1  0
 38 71  1  0
 39 72  1  0
M  CHG  1  39   1
M  END
>  <UniqueID>  (5) 
5

>  <SMILES>  (5) 
CCCN(CCC)c1nc(N2CCOCC2)nc(-c2cnc(C(=O)c3ccccc3)cc2-c2cncnc2)[nH+]1

>  <Energy>  (5) 
89.52773243155299

>  <Genealogy>  (5) 
CCCN(CCC)c1nc(N2CCOCC2)nc(-c2cnc(C(=O)c3ccccc3)cc2-c2cncnc2)[nH+]1 (protonated)
CCCN(CCC)c1nc(N2CCOCC2)nc(-c2cnc(C(=O)c3ccccc3)cc2-c2cncnc2)[nH+]1 (3D coordinates assigned)
CCCN(CCC)c1nc(N2CCOCC2)nc(-c2cnc(C(=O)c3ccccc3)cc2-c2cncnc2)[nH+]1 (nonaromatic ring conformer: 89.52773243155299 kcal/mol)

>  <smiles>  (5) 
CCCN(CCC)c1nc(-c2cnc(C(=O)c3ccccc3)cc2-c2cncnc2)nc(N2CCOCC2)n1

>  <score_type>  (5) 
oracle

>  <origin>  (5) 
adg

>  <m_score__min__energy>  (5) 
-9.3200000000000003

>  <m_primary>  (5) 
energy

$$$$
5:0
     RDKit          3D

 34 36  0  0  0  0  0  0  0  0999 V2000
    2.3850   19.1140  -32.9610 C   0  0  0  0  0  0  0  0  0  0  0  0
    1.7220   20.3700  -33.0800 O   0  0  0  0  0  0  0  0  0  0  0  0
    0.3460   20.5640  -32.8810 C   0  0  0  0  0  0  0  0  0  0  0  0
   -0.2570   20.4060  -31.6200 C   0  0  0  0  0  0  0  0  0  0  0  0
   -1.6310   20.6060  -31.4610 C   0  0  0  0  0  0  0  0  0  0  0  0
   -2.4310   20.9590  -32.5610 C   0  0  0  0  0  0  0  0  0  0  0  0
   -3.8460   21.1800  -32.4150 N   0  0  0  0  0  0  0  0  0  0  0  0
   -4.7680   20.2810  -32.7420 N   0  0  0  0  0  0  0  0  0  0  0  0
   -5.9840   20.8090  -32.4670 C   0  0  0  0  0  0  0  0  0  0  0  0
   -7.2800   20.1290  -32.7550 C   0  0  0  0  0  0  0  0  0  0  0  0
   -5.8210   22.0750  -31.9350 C   0  0  0  0  0  0  0  0  0  0  0  0
   -4.4740   22.2710  -31.9310 C   0  0  0  0  0  0  0  0  0  0  0  0
   -3.8720   23.4610  -31.4290 N   0  0  0  0  0  0  0  0  0  0  0  0
   -4.7260   24.4560  -30.8480 C   0  0  0  0  0  0  0  0  0  0  0  0
   -4.2430   25.5660  -30.5060 O   0  0  0  0  0  0  0  0  0  0  0  0
   -6.1840   24.1450  -30.5570 C   0  0  0  0  0  0  0  0  0  0  0  0
   -6.8130   23.1390  -31.5610 C   0  0  1  0  0  0  0  0  0  0  0  0
   -7.2690   23.8030  -32.7130 O   0  0  0  0  0  0  0  0  0  0  0  0
   -1.8250   21.1330  -33.8150 C   0  0  0  0  0  0  0  0  0  0  0  0
   -0.4500   20.9320  -33.9760 C   0  0  0  0  0  0  0  0  0  0  0  0
    0.2680   21.1460  -35.5670 Cl  0  0  0  0  0  0  0  0  0  0  0  0
    2.5151   18.8675  -31.8969 H   0  0  0  0  0  0  0  0  0  0  0  0
    1.7815   18.3333  -33.4471 H   0  0  0  0  0  0  0  0  0  0  0  0
    3.3701   19.1718  -33.4471 H   0  0  0  0  0  0  0  0  0  0  0  0
    0.3575   20.1229  -30.7526 H   0  0  0  0  0  0  0  0  0  0  0  0
   -2.0893   20.4863  -30.4682 H   0  0  0  0  0  0  0  0  0  0  0  0
   -7.7759   19.8688  -31.8082 H   0  0  0  0  0  0  0  0  0  0  0  0
   -7.9272   20.8037  -33.3346 H   0  0  0  0  0  0  0  0  0  0  0  0
   -7.0926   19.2130  -33.3346 H   0  0  0  0  0  0  0  0  0  0  0  0
   -6.2543   23.7182  -29.5456 H   0  0  0  0  0  0  0  0  0  0  0  0
   -6.7420   25.0884  -30.6500 H   0  0  0  0  0  0  0  0  0  0  0  0
   -7.6736   22.6612  -31.0701 H   0  0  0  0  0  0  0  0  0  0  0  0
   -6.6400   23.5910  -33.4520 H   0  0  0  0  0  0  0  0  0  0  0  0
   -2.4370   21.4302  -34.6793 H   0  0  0  0  0  0  0  0  0  0  0  0
  1  2  1  0
  2  3  1  0
  3  4  2  0
  4  5  1  0
  5  6  2  0
  6  7  1  0
  7  8  1  0
  8  9  2  0
  9 10  1  0
  9 11  1  0
 11 12  2  0
 12 13  1  0
 13 14  1  0
 14 15  2  0
 14 16  1  0
 16 17  1  0
 17 18  1  0
  6 19  1  0
 19 20  2  0
 20 21  1  0
 20  3  1  0
 12  7  1  0
 17 11  1  0
  1 22  1  0
  1 23  1  0
  1 24  1  0
  4 25  1  0
  5 26  1  0
 10 27  1  0
 10 28  1  0
 10 29  1  0
 16 30  1  0
 16 31  1  0
 17 32  1  1
 18 33  1  0
 19 34  1  0
M  CHG  1  13  -1
M  END
>  <UniqueID>  (6) 
6

>  <SMILES>  (6) 
COc1ccc(-n2nc(C)c3c2[N-]C(=O)C[C@H]3O)cc1Cl

>  <Energy>  (6) 
74.66738444240836

>  <Genealogy>  (6) 
COc1ccc(-n2nc(C)c3c2[N-]C(=O)CC3O)cc1Cl (protonated)
COc1ccc(-n2nc(C)c3c2[N-]C(=O)C[C@H]3O)cc1Cl (chirality)
COc1ccc(-n2nc(C)c3c2[N-]C(=O)C[C@H]3O)cc1Cl (3D coordinates assigned)
COc1ccc(-n2nc(C)c3c2[N-]C(=O)C[C@H]3O)cc1Cl (nonaromatic ring conformer: 74.66738444240836 kcal/mol)

>  <smiles>  (6) 
COc1ccc(-n2nc(C)c3c2NC(=O)CC3O)cc1Cl

>  <score_type>  (6) 
oracle

>  <origin>  (6) 
adg

>  <m_score__min__energy>  (6) 
-7.9299999999999997

>  <m_primary>  (6) 
energy

$$$$
6:0
     RDKit          3D

 40 41  0  0  0  0  0  0  0  0999 V2000
   -9.3790   18.9470  -32.3360 C   0  0  0  0  0  0  0  0  0  0  0  0
   -8.2870   19.6900  -33.0930 C   0  0  0  0  0  0  0  0  0  0  0  0
   -7.3000   20.2310  -32.1300 N   0  0  0  0  0  0  0  0  0  0  0  0
   -6.4490   19.1790  -31.5270 C   0  0  0  0  0  0  0  0  0  0  0  0
   -6.1100   18.0300  -32.4900 C   0  0  0  0  0  0  0  0  0  0  0  0
   -7.8820   21.1510  -31.1260 C   0  0  0  0  0  0  0  0  0  0  0  0
   -8.3090   22.4790  -31.7710 C   0  0  0  0  0  0  0  0  0  0  0  0
   -7.1880   23.1660  -32.4180 N   0  0  0  0  0  0  0  0  0  0  0  0
   -6.0450   23.7000  -31.7120 C   0  0  0  0  0  0  0  0  0  0  0  0
   -6.1420   24.9360  -31.0540 C   0  0  0  0  0  0  0  0  0  0  0  0
   -5.0590   25.4370  -30.3380 C   0  0  0  0  0  0  0  0  0  0  0  0
   -3.8950   24.7430  -30.2620 N   0  0  0  0  0  0  0  0  0  0  0  0
   -2.8600   25.2870  -29.5340 O   0  0  0  0  0  0  0  0  0  0  0  0
   -3.7450   23.5380  -30.8930 C   0  0  0  0  0  0  0  0  0  0  0  0
   -2.5250   22.8380  -30.8160 C   0  0  0  0  0  0  0  0  0  0  0  0
   -2.3600   21.6210  -31.4790 C   0  0  0  0  0  0  0  0  0  0  0  0
   -0.8320   20.7650  -31.3760 Cl  0  0  0  0  0  0  0  0  0  0  0  0
   -3.4060   21.0880  -32.2310 C   0  0  0  0  0  0  0  0  0  0  0  0
   -4.6250   21.7620  -32.3180 C   0  0  0  0  0  0  0  0  0  0  0  0
   -4.8220   22.9860  -31.6430 C   0  0  0  0  0  0  0  0  0  0  0  0
   -9.2156   19.0581  -31.2539 H   0  0  0  0  0  0  0  0  0  0  0  0
  -10.3604   19.3656  -32.6036 H   0  0  0  0  0  0  0  0  0  0  0  0
   -9.3500   17.8804  -32.6036 H   0  0  0  0  0  0  0  0  0  0  0  0
   -7.7838   18.9978  -33.7841 H   0  0  0  0  0  0  0  0  0  0  0  0
   -8.7340   20.5172  -33.6639 H   0  0  0  0  0  0  0  0  0  0  0  0
   -5.5083   19.6419  -31.1942 H   0  0  0  0  0  0  0  0  0  0  0  0
   -7.0199   18.7422  -30.6944 H   0  0  0  0  0  0  0  0  0  0  0  0
   -5.8453   17.1327  -31.9114 H   0  0  0  0  0  0  0  0  0  0  0  0
   -6.9825   17.8133  -33.1239 H   0  0  0  0  0  0  0  0  0  0  0  0
   -5.2596   18.3217  -33.1239 H   0  0  0  0  0  0  0  0  0  0  0  0
   -8.7622   20.6742  -30.6700 H   0  0  0  0  0  0  0  0  0  0  0  0
   -7.1178   21.3636  -30.3639 H   0  0  0  0  0  0  0  0  0  0  0  0
   -9.0820   22.2736  -32.5262 H   0  0  0  0  0  0  0  0  0  0  0  0
   -8.6916   23.1337  -30.9741 H   0  0  0  0  0  0  0  0  0  0  0  0
   -7.2030   23.1960  -33.4600 H   0  0  0  0  0  0  0  0  0  0  0  0
   -7.0783   25.5112  -31.1045 H   0  0  0  0  0  0  0  0  0  0  0  0
   -5.1473   26.4073  -29.8274 H   0  0  0  0  0  0  0  0  0  0  0  0
   -1.6942   23.2546  -30.2276 H   0  0  0  0  0  0  0  0  0  0  0  0
   -3.2699   20.1321  -32.7580 H   0  0  0  0  0  0  0  0  0  0  0  0
   -5.4412   21.3348  -32.9191 H   0  0  0  0  0  0  0  0  0  0  0  0
  1  2  1  0
  2  3  1  0
  3  4  1  0
  4  5  1  0
  3  6  1  0
  6  7  1  0
  7  8  1  0
  8  9  1  0
  9 10  2  0
 10 11  1  0
 11 12  2  0
 12 13  1  0
 12 14  1  0
 14 15  2  0
 15 16  1  0
 16 17  1  0
 16 18  2  0
 18 19  1  0
 19 20  2  0
 20  9  1  0
 20 14  1  0
  1 21  1  0
  1 22  1  0
  1 23  1  0
  2 24  1  0
  2 25  1  0
  4 26  1  0
  4 27  1  0
  5 28  1  0
  5 29  1  0
  5 30  1  0
  6 31  1  0
  6 32  1  0
  7 33  1  0
  7 34  1  0
  8 35  1  0
 10 36  1  0
 11 37  1  0
 15 38  1  0
 18 39  1  0
 19 40  1  0
M  CHG  2  12   1  13  -1
M  END
>  <UniqueID>  (7) 
7

>  <SMILES>  (7) 
CCN(CC)CCNc1cc[n+]([O-])c2cc(Cl)ccc12

>  <Energy>  (7) 
47.38816933006339

>  <Genealogy>  (7) 
CCN(CC)CCNc1cc[n+]([O-])c2cc(Cl)ccc12 (3D coordinates assigned)
CCN(CC)CCNc1cc[n+]([O-])c2cc(Cl)ccc12 (optimized conformer: 47.38816933006339 kcal/mol)

>  <smiles>  (7) 
CCN(CC)CCNc1cc[n+]([O-])c2cc(Cl)ccc12

>  <score_type>  (7) 
oracle

>  <origin>  (7) 
adg

>  <m_score__min__energy>  (7) 
-7.9900000000000002

>  <m_primary>  (7) 
energy

$$$$
7:0
     RDKit          3D

 46 48  0  0  0  0  0  0  0  0999 V2000
   -5.6640   26.0060  -30.1420 O   0  0  0  0  0  0  0  0  0  0  0  0
   -4.8940   25.2230  -30.7550 C   0  0  0  0  0  0  0  0  0  0  0  0
   -5.4690   24.2960  -31.6880 N   0  0  0  0  0  0  0  0  0  0  0  0
   -5.0880   22.9030  -31.9130 C   0  0  0  0  0  0  0  0  0  0  0  0
   -6.0800   21.9320  -31.2580 C   0  0  0  0  0  0  0  0  0  0  0  0
   -7.4780   22.0360  -31.8920 C   0  0  0  0  0  0  0  0  0  0  0  0
   -7.8440   20.8670  -32.7170 N   0  0  0  0  0  0  0  0  0  0  0  0
   -6.7230   20.0220  -33.1800 C   0  0  0  0  0  0  0  0  0  0  0  0
   -6.6060   18.7090  -32.3910 C   0  0  0  0  0  0  0  0  0  0  0  0
   -7.8500   18.0460  -32.3270 O   0  0  0  0  0  0  0  0  0  0  0  0
   -8.7530   18.8310  -31.5810 C   0  0  0  0  0  0  0  0  0  0  0  0
   -9.0670   20.1430  -32.3150 C   0  0  0  0  0  0  0  0  0  0  0  0
   -3.4870   25.2920  -30.4710 N   0  0  0  0  0  0  0  0  0  0  0  0
   -2.6920   24.3760  -29.6590 C   0  0  0  0  0  0  0  0  0  0  0  0
   -2.1010   25.0830  -28.4780 C   0  0  0  0  0  0  0  0  0  0  0  0
   -1.2420   26.1290  -28.6010 N   0  0  0  0  0  0  0  0  0  0  0  0
   -0.9600   26.4250  -27.3240 C   0  0  0  0  0  0  0  0  0  0  0  0
   -0.1260   27.4330  -26.8480 C   0  0  0  0  0  0  0  0  0  0  0  0
    0.0140   27.5720  -25.4460 C   0  0  0  0  0  0  0  0  0  0  0  0
    0.9290   28.6170  -24.8600 C   0  0  0  0  0  0  0  0  0  0  0  0
    0.3050   29.8500  -24.7930 F   0  0  0  0  0  0  0  0  0  0  0  0
    1.3060   28.2520  -23.5800 F   0  0  0  0  0  0  0  0  0  0  0  0
    2.0590   28.7280  -25.6480 F   0  0  0  0  0  0  0  0  0  0  0  0
   -0.6640   26.6690  -24.5830 C   0  0  0  0  0  0  0  0  0  0  0  0
   -1.4960   25.6620  -25.1070 C   0  0  0  0  0  0  0  0  0  0  0  0
   -1.6180   25.5770  -26.4890 C   0  0  0  0  0  0  0  0  0  0  0  0
   -2.3490   24.7030  -27.1970 N   0  0  0  0  0  0  0  0  0  0  0  0
   -5.0624   22.7105  -32.9957 H   0  0  0  0  0  0  0  0  0  0  0  0
   -4.0984   22.7401  -31.4611 H   0  0  0  0  0  0  0  0  0  0  0  0
   -5.7077   20.9043  -31.3815 H   0  0  0  0  0  0  0  0  0  0  0  0
   -6.1652   22.1941  -30.1931 H   0  0  0  0  0  0  0  0  0  0  0  0
   -8.2187   22.1372  -31.0850 H   0  0  0  0  0  0  0  0  0  0  0  0
   -7.4638   22.9095  -32.5604 H   0  0  0  0  0  0  0  0  0  0  0  0
   -6.8785   19.7818  -34.2421 H   0  0  0  0  0  0  0  0  0  0  0  0
   -5.7930   20.5882  -33.0233 H   0  0  0  0  0  0  0  0  0  0  0  0
   -5.8745   18.0546  -32.8877 H   0  0  0  0  0  0  0  0  0  0  0  0
   -6.2800   18.9430  -31.3668 H   0  0  0  0  0  0  0  0  0  0  0  0
   -9.6860   18.2670  -31.4345 H   0  0  0  0  0  0  0  0  0  0  0  0
   -8.2949   19.0701  -30.6099 H   0  0  0  0  0  0  0  0  0  0  0  0
   -9.6539   19.9124  -33.2163 H   0  0  0  0  0  0  0  0  0  0  0  0
   -9.6287   20.7889  -31.6242 H   0  0  0  0  0  0  0  0  0  0  0  0
   -3.3362   23.5582  -29.3037 H   0  0  0  0  0  0  0  0  0  0  0  0
   -1.8729   23.9796  -30.2770 H   0  0  0  0  0  0  0  0  0  0  0  0
    0.4078   28.1010  -27.5400 H   0  0  0  0  0  0  0  0  0  0  0  0
   -0.5372   26.7581  -23.4940 H   0  0  0  0  0  0  0  0  0  0  0  0
   -2.0317   24.9656  -24.4451 H   0  0  0  0  0  0  0  0  0  0  0  0
  1  2  2  0
  2  3  1  0
  3  4  1  0
  4  5  1  0
  5  6  1  0
  6  7  1  0
  7  8  1  0
  8  9  1  0
  9 10  1  0
 10 11  1  0
 11 12  1  0
  2 13  1  0
 13 14  1  0
 14 15  1  0
 15 16  2  0
 16 17  1  0
 17 18  2  0
 18 19  1  0
 19 20  1  0
 20 21  1  0
 20 22  1  0
 20 23  1  0
 19 24  2  0
 24 25  1  0
 25 26  2  0
 26 27  1  0
 12  7  1  0
 27 15  1  0
 26 17  1  0
  4 28  1  0
  4 29  1  0
  5 30  1  0
  5 31  1  0
  6 32  1  0
  6 33  1  0
  8 34  1  0
  8 35  1  0
  9 36  1  0
  9 37  1  0
 11 38  1  0
 11 39  1  0
 12 40  1  0
 12 41  1  0
 14 42  1  0
 14 43  1  0
 18 44  1  0
 24 45  1  0
 25 46  1  0
M  CHG  3   3  -1  13  -1  27  -1
M  END
>  <UniqueID>  (8) 
8

>  <SMILES>  (8) 
O=C([N-]CCCN1CCOCC1)[N-]Cc1nc2cc(C(F)(F)F)ccc2[n-]1

>  <Energy>  (8) 
91.28367809243711

>  <Genealogy>  (8) 
O=C([N-]CCCN1CCOCC1)[N-]Cc1nc2cc(C(F)(F)F)ccc2[n-]1 (protonated)
O=C([N-]CCCN1CCOCC1)[N-]Cc1nc2cc(C(F)(F)F)ccc2[n-]1 (3D coordinates assigned)
O=C([N-]CCCN1CCOCC1)[N-]Cc1nc2cc(C(F)(F)F)ccc2[n-]1 (nonaromatic ring conformer: 91.28367809243711 kcal/mol)

>  <smiles>  (8) 
O=C(NCCCN1CCOCC1)NCc1nc2cc(C(F)(F)F)ccc2[nH]1

>  <score_type>  (8) 
oracle

>  <origin>  (8) 
adg

>  <m_score__min__energy>  (8) 
-11.09

>  <m_primary>  (8) 
energy

$$$$
8:0
     RDKit          3D

 48 50  0  0  0  0  0  0  0  0999 V2000
   -3.9470   22.9890  -30.2400 C   0  0  0  0  0  0  0  0  0  0  0  0
   -5.2910   22.5860  -29.6300 C   0  0  0  0  0  0  0  0  0  0  0  0
   -6.4560   23.2780  -30.2180 N   0  0  0  0  0  0  0  0  0  0  0  0
   -6.6720   24.6830  -29.8100 C   0  0  0  0  0  0  0  0  0  0  0  0
   -5.7080   25.6910  -30.4520 C   0  0  0  0  0  0  0  0  0  0  0  0
   -6.7630   22.9050  -31.9000 S   0  0  0  0  0  0  0  0  0  0  0  0
   -7.8580   23.7930  -32.4230 O   0  0  0  0  0  0  0  0  0  0  0  0
   -5.5200   23.1330  -32.7150 O   0  0  0  0  0  0  0  0  0  0  0  0
   -7.2930   21.2260  -32.0600 C   0  0  0  0  0  0  0  0  0  0  0  0
   -8.6280   20.8830  -31.7960 C   0  0  0  0  0  0  0  0  0  0  0  0
   -9.0550   19.5580  -31.9150 C   0  0  0  0  0  0  0  0  0  0  0  0
   -8.1560   18.5590  -32.2980 C   0  0  0  0  0  0  0  0  0  0  0  0
   -6.8200   18.8840  -32.5640 C   0  0  0  0  0  0  0  0  0  0  0  0
   -5.8970   17.9060  -32.9500 C   0  0  0  0  0  0  0  0  0  0  0  0
   -4.5730   18.2580  -33.2140 C   0  0  0  0  0  0  0  0  0  0  0  0
   -4.1670   19.6010  -33.0900 C   0  0  0  0  0  0  0  0  0  0  0  0
   -2.8080   20.0150  -33.3700 N   0  0  0  0  0  0  0  0  0  0  0  0
   -1.8190   19.0210  -33.8150 C   0  0  0  0  0  0  0  0  0  0  0  0
   -0.7980   19.6390  -34.7920 C   0  0  0  0  0  0  0  0  0  0  0  0
   -0.4290   21.0410  -34.4980 N   0  0  0  0  0  0  0  0  0  0  0  0
   -0.8270   21.4840  -33.1580 C   0  0  0  0  0  0  0  0  0  0  0  0
   -2.3410   21.3530  -32.9800 C   0  0  0  0  0  0  0  0  0  0  0  0
   -5.0860   20.5290  -32.7060 N   0  0  0  0  0  0  0  0  0  0  0  0
   -6.3850   20.2220  -32.4420 C   0  0  0  0  0  0  0  0  0  0  0  0
   -3.2288   23.2043  -29.4351 H   0  0  0  0  0  0  0  0  0  0  0  0
   -3.5650   22.1659  -30.8617 H   0  0  0  0  0  0  0  0  0  0  0  0
   -4.0809   23.8865  -30.8617 H   0  0  0  0  0  0  0  0  0  0  0  0
   -5.4242   21.5036  -29.7739 H   0  0  0  0  0  0  0  0  0  0  0  0
   -5.2551   22.8743  -28.5691 H   0  0  0  0  0  0  0  0  0  0  0  0
   -7.6984   24.9664  -30.0860 H   0  0  0  0  0  0  0  0  0  0  0  0
   -6.4894   24.7242  -28.7261 H   0  0  0  0  0  0  0  0  0  0  0  0
   -5.1781   26.2451  -29.6632 H   0  0  0  0  0  0  0  0  0  0  0  0
   -4.9786   25.1543  -31.0764 H   0  0  0  0  0  0  0  0  0  0  0  0
   -6.2767   26.3958  -31.0764 H   0  0  0  0  0  0  0  0  0  0  0  0
   -9.3428   21.6624  -31.4934 H   0  0  0  0  0  0  0  0  0  0  0  0
  -10.1037   19.3000  -31.7062 H   0  0  0  0  0  0  0  0  0  0  0  0
   -8.4977   17.5175  -32.3905 H   0  0  0  0  0  0  0  0  0  0  0  0
   -6.2158   16.8575  -33.0455 H   0  0  0  0  0  0  0  0  0  0  0  0
   -3.8481   17.4886  -33.5182 H   0  0  0  0  0  0  0  0  0  0  0  0
   -1.2832   18.6317  -32.9367 H   0  0  0  0  0  0  0  0  0  0  0  0
   -2.3521   18.2132  -34.3377 H   0  0  0  0  0  0  0  0  0  0  0  0
    0.1177   19.0302  -34.7606 H   0  0  0  0  0  0  0  0  0  0  0  0
   -1.2803   19.6463  -35.7806 H   0  0  0  0  0  0  0  0  0  0  0  0
   -0.8900   21.6670  -35.2000 H   0  0  0  0  0  0  0  0  0  0  0  0
   -0.3186   20.8634  -32.4054 H   0  0  0  0  0  0  0  0  0  0  0  0
   -0.5432   22.5393  -33.0324 H   0  0  0  0  0  0  0  0  0  0  0  0
   -2.5946   21.5279  -31.9240 H   0  0  0  0  0  0  0  0  0  0  0  0
   -2.8332   22.0956  -33.6252 H   0  0  0  0  0  0  0  0  0  0  0  0
  1  2  1  0
  2  3  1  0
  3  4  1  0
  4  5  1  0
  3  6  1  0
  6  7  2  0
  6  8  2  0
  6  9  1  0
  9 10  2  0
 10 11  1  0
 11 12  2  0
 12 13  1  0
 13 14  2  0
 14 15  1  0
 15 16  2  0
 16 17  1  0
 17 18  1  0
 18 19  1  0
 19 20  1  0
 20 21  1  0
 21 22  1  0
 16 23  1  0
 23 24  2  0
 24  9  1  0
 24 13  1  0
 22 17  1  0
  1 25  1  0
  1 26  1  0
  1 27  1  0
  2 28  1  0
  2 29  1  0
  4 30  1  0
  4 31  1  0
  5 32  1  0
  5 33  1  0
  5 34  1  0
 10 35  1  0
 11 36  1  0
 12 37  1  0
 14 38  1  0
 15 39  1  0
 18 40  1  0
 18 41  1  0
 19 42  1  0
 19 43  1  0
 20 44  1  0
 21 45  1  0
 21 46  1  0
 22 47  1  0
 22 48  1  0
M  END
>  <UniqueID>  (9) 
9

>  <SMILES>  (9) 
CCN(CC)S(=O)(=O)c1cccc2ccc(N3CCNCC3)nc12

>  <Energy>  (9) 
62.63257290672466

>  <Genealogy>  (9) 
CCN(CC)S(=O)(=O)c1cccc2ccc(N3CCNCC3)nc12 (3D coordinates assigned)
CCN(CC)S(=O)(=O)c1cccc2ccc(N3CCNCC3)nc12 (nonaromatic ring conformer: 62.63257290672466 kcal/mol)

>  <smiles>  (9) 
CCN(CC)S(=O)(=O)c1cccc2ccc(N3CCNCC3)nc12

>  <score_type>  (9) 
oracle

>  <origin>  (9) 
adg

>  <m_score__min__energy>  (9) 
-8.3699999999999992

>  <m_primary>  (9) 
energy

$$$$
9:0
     RDKit          3D

 56 58  0  0  0  0  0  0  0  0999 V2000
   -1.6880   20.0950  -28.2610 C   0  0  0  0  0  0  0  0  0  0  0  0
   -2.6720   21.2650  -28.3930 C   0  0  0  0  0  0  0  0  0  0  0  0
   -2.0410   22.5780  -28.6850 N   0  0  0  0  0  0  0  0  0  0  0  0
   -2.7690   23.7730  -28.2130 C   0  0  0  0  0  0  0  0  0  0  0  0
   -2.5510   24.9230  -29.1470 C   0  0  0  0  0  0  0  0  0  0  0  0
   -1.4920   25.6010  -29.0700 O   0  0  0  0  0  0  0  0  0  0  0  0
   -3.5330   25.2090  -30.1500 N   0  0  0  0  0  0  0  0  0  0  0  0
   -4.4970   24.2820  -30.6690 C   0  0  0  0  0  0  0  0  0  0  0  0
   -5.8760   24.5530  -30.6400 C   0  0  0  0  0  0  0  0  0  0  0  0
   -6.7890   23.6110  -31.1240 C   0  0  0  0  0  0  0  0  0  0  0  0
   -6.3380   22.3840  -31.6410 C   0  0  0  0  0  0  0  0  0  0  0  0
   -7.2730   21.4080  -32.1370 N   0  0  0  0  0  0  0  0  0  0  0  0
   -6.8230   20.3760  -33.0760 C   0  0  0  0  0  0  0  0  0  0  0  0
   -7.6940   19.1260  -32.9230 C   0  0  0  0  0  0  0  0  0  0  0  0
   -9.0660   19.4560  -33.0300 O   0  0  0  0  0  0  0  0  0  0  0  0
   -9.4450   20.2890  -31.9500 C   0  0  0  0  0  0  0  0  0  0  0  0
   -8.7160   21.6340  -32.0150 C   0  0  0  0  0  0  0  0  0  0  0  0
   -4.9620   22.1100  -31.6480 C   0  0  0  0  0  0  0  0  0  0  0  0
   -4.0510   23.0490  -31.1570 C   0  0  0  0  0  0  0  0  0  0  0  0
   -0.5760   22.6320  -28.4760 C   0  0  0  0  0  0  0  0  0  0  0  0
   -0.1720   22.9950  -27.0620 C   0  0  0  0  0  0  0  0  0  0  0  0
   -0.8000   22.3560  -25.9790 C   0  0  0  0  0  0  0  0  0  0  0  0
   -0.4440   22.6690  -24.6660 C   0  0  0  0  0  0  0  0  0  0  0  0
    0.5380   23.6280  -24.4180 C   0  0  0  0  0  0  0  0  0  0  0  0
    1.1610   24.2830  -25.4810 C   0  0  0  0  0  0  0  0  0  0  0  0
    0.8120   23.9790  -26.8130 C   0  0  0  0  0  0  0  0  0  0  0  0
    1.4190   24.6300  -27.8990 O   0  0  0  0  0  0  0  0  0  0  0  0
    2.7420   25.1580  -27.8900 C   0  0  0  0  0  0  0  0  0  0  0  0
   -1.5103   19.8837  -27.1962 H   0  0  0  0  0  0  0  0  0  0  0  0
   -2.1115   19.2032  -28.7461 H   0  0  0  0  0  0  0  0  0  0  0  0
   -0.7368   20.3594  -28.7461 H   0  0  0  0  0  0  0  0  0  0  0  0
   -3.3727   21.0328  -29.2085 H   0  0  0  0  0  0  0  0  0  0  0  0
   -3.1645   21.3681  -27.4148 H   0  0  0  0  0  0  0  0  0  0  0  0
   -3.8441   23.5458  -28.1634 H   0  0  0  0  0  0  0  0  0  0  0  0
   -2.3931   24.0479  -27.2165 H   0  0  0  0  0  0  0  0  0  0  0  0
   -6.2382   25.5095  -30.2351 H   0  0  0  0  0  0  0  0  0  0  0  0
   -7.8664   23.8313  -31.1001 H   0  0  0  0  0  0  0  0  0  0  0  0
   -6.9060   20.7561  -34.1049 H   0  0  0  0  0  0  0  0  0  0  0  0
   -5.7752   20.1192  -32.8613 H   0  0  0  0  0  0  0  0  0  0  0  0
   -7.4333   18.4055  -33.7122 H   0  0  0  0  0  0  0  0  0  0  0  0
   -7.5121   18.6876  -31.9307 H   0  0  0  0  0  0  0  0  0  0  0  0
  -10.5299   20.4649  -31.9944 H   0  0  0  0  0  0  0  0  0  0  0  0
   -9.1751   19.7882  -31.0085 H   0  0  0  0  0  0  0  0  0  0  0  0
   -9.0724   22.2013  -32.8874 H   0  0  0  0  0  0  0  0  0  0  0  0
   -8.9193   22.2035  -31.0961 H   0  0  0  0  0  0  0  0  0  0  0  0
   -4.5980   21.1499  -32.0425 H   0  0  0  0  0  0  0  0  0  0  0  0
   -2.9757   22.8171  -31.1542 H   0  0  0  0  0  0  0  0  0  0  0  0
   -0.1553   21.6438  -28.7138 H   0  0  0  0  0  0  0  0  0  0  0  0
   -0.1882   23.4245  -29.1329 H   0  0  0  0  0  0  0  0  0  0  0  0
   -1.5789   21.6026  -26.1678 H   0  0  0  0  0  0  0  0  0  0  0  0
   -0.9384   22.1589  -23.8262 H   0  0  0  0  0  0  0  0  0  0  0  0
    0.8218   23.8683  -23.3828 H   0  0  0  0  0  0  0  0  0  0  0  0
    1.9305   25.0425  -25.2783 H   0  0  0  0  0  0  0  0  0  0  0  0
    3.0765   25.2915  -26.8506 H   0  0  0  0  0  0  0  0  0  0  0  0
    3.4185   24.4610  -28.4062 H   0  0  0  0  0  0  0  0  0  0  0  0
    2.7527   26.1293  -28.4062 H   0  0  0  0  0  0  0  0  0  0  0  0
  1  2  1  0
  2  3  1  0
  3  4  1  0
  4  5  1  0
  5  6  2  0
  5  7  1  0
  7  8  1  0
  8  9  2  0
  9 10  1  0
 10 11  2  0
 11 12  1  0
 12 13  1  0
 13 14  1  0
 14 15  1  0
 15 16  1  0
 16 17  1  0
 11 18  1  0
 18 19  2  0
  3 20  1  0
 20 21  1  0
 21 22  2  0
 22 23  1  0
 23 24  2  0
 24 25  1  0
 25 26  2  0
 26 27  1  0
 27 28  1  0
 19  8  1  0
 26 21  1  0
 17 12  1  0
  1 29  1  0
  1 30  1  0
  1 31  1  0
  2 32  1  0
  2 33  1  0
  4 34  1  0
  4 35  1  0
  9 36  1  0
 10 37  1  0
 13 38  1  0
 13 39  1  0
 14 40  1  0
 14 41  1  0
 16 42  1  0
 16 43  1  0
 17 44  1  0
 17 45  1  0
 18 46  1  0
 19 47  1  0
 20 48  1  0
 20 49  1  0
 22 50  1  0
 23 51  1  0
 24 52  1  0
 25 53  1  0
 28 54  1  0
 28 55  1  0
 28 56  1  0
M  CHG  1   7  -1
M  END
>  <UniqueID>  (10) 
10

>  <SMILES>  (10) 
CCN(CC(=O)[N-]c1ccc(N2CCOCC2)cc1)Cc1ccccc1OC

>  <Energy>  (10) 
70.9710655252091

>  <Genealogy>  (10) 
CCN(CC(=O)[N-]c1ccc(N2CCOCC2)cc1)Cc1ccccc1OC (protonated)
CCN(CC(=O)[N-]c1ccc(N2CCOCC2)cc1)Cc1ccccc1OC (3D coordinates assigned)
CCN(CC(=O)[N-]c1ccc(N2CCOCC2)cc1)Cc1ccccc1OC (nonaromatic ring conformer: 70.9710655252091 kcal/mol)

>  <smiles>  (10) 
CCN(CC(=O)Nc1ccc(N2CCOCC2)cc1)Cc1ccccc1OC

>  <score_type>  (10) 
oracle

>  <origin>  (10) 
adg

>  <m_score__min__energy>  (10) 
-10.07

>  <m_primary>  (10) 
energy

$$$$
10:0
     RDKit          3D

 62 66  0  0  0  0  0  0  0  0999 V2000
   -0.4250   30.1920  -27.3790 C   0  0  0  0  0  0  0  0  0  0  0  0
    0.2000   28.9340  -27.1500 O   0  0  0  0  0  0  0  0  0  0  0  0
   -0.4890   27.7540  -26.8280 C   0  0  0  0  0  0  0  0  0  0  0  0
   -0.9350   27.5850  -25.5140 C   0  0  0  0  0  0  0  0  0  0  0  0
   -1.6190   26.4280  -25.1420 C   0  0  0  0  0  0  0  0  0  0  0  0
   -1.8700   25.4260  -26.0810 C   0  0  0  0  0  0  0  0  0  0  0  0
   -1.4400   25.5750  -27.4140 C   0  0  0  0  0  0  0  0  0  0  0  0
   -1.6890   24.5170  -28.4270 C   0  0  0  0  0  0  0  0  0  0  0  0
   -0.6640   23.6640  -28.8720 C   0  0  0  0  0  0  0  0  0  0  0  0
   -0.9430   22.6810  -29.8230 C   0  0  0  0  0  0  0  0  0  0  0  0
   -2.2430   22.5480  -30.3320 C   0  0  0  0  0  0  0  0  0  0  0  0
   -2.6000   21.5860  -31.2950 C   0  0  0  0  0  0  0  0  0  0  0  0
   -1.6200   20.7080  -31.8750 N   0  0  0  0  0  0  0  0  0  0  0  0
   -0.9410   19.7190  -31.0280 C   0  0  0  0  0  0  0  0  0  0  0  0
    0.5760   19.6560  -31.3300 C   0  0  0  0  0  0  0  0  0  0  0  0
    0.9750   20.4300  -32.4500 O   0  0  0  0  0  0  0  0  0  0  0  0
    0.1120   20.1870  -33.5400 C   0  0  0  0  0  0  0  0  0  0  0  0
   -1.2270   20.8880  -33.2780 C   0  0  1  0  0  0  0  0  0  0  0  0
   -2.3180   20.3600  -34.2130 C   0  0  0  0  0  0  0  0  0  0  0  0
   -3.8970   21.4980  -31.7070 N   0  0  0  0  0  0  0  0  0  0  0  0
   -4.8600   22.3220  -31.2020 C   0  0  0  0  0  0  0  0  0  0  0  0
   -6.2240   22.2230  -31.6570 N   0  0  0  0  0  0  0  0  0  0  0  0
   -6.8890   23.3640  -32.2970 C   0  0  0  0  0  0  0  0  0  0  0  0
   -8.3800   23.3480  -31.9480 C   0  0  0  0  0  0  0  0  0  0  0  0
   -8.9560   22.0920  -32.2530 O   0  0  0  0  0  0  0  0  0  0  0  0
   -8.3850   21.0890  -31.4310 C   0  0  0  0  0  0  0  0  0  0  0  0
   -6.8850   20.9120  -31.7300 C   0  0  1  0  0  0  0  0  0  0  0  0
   -6.6680   20.2710  -33.1080 C   0  0  0  0  0  0  0  0  0  0  0  0
   -4.5200   23.2720  -30.2910 N   0  0  0  0  0  0  0  0  0  0  0  0
   -3.2480   23.4020  -29.8460 C   0  0  0  0  0  0  0  0  0  0  0  0
   -2.9490   24.3510  -28.9210 N   0  0  0  0  0  0  0  0  0  0  0  0
   -0.7410   26.7420  -27.7760 C   0  0  0  0  0  0  0  0  0  0  0  0
   -0.6603   30.6655  -26.4144 H   0  0  0  0  0  0  0  0  0  0  0  0
    0.2555   30.8410  -27.9498 H   0  0  0  0  0  0  0  0  0  0  0  0
   -1.3532   30.0418  -27.9498 H   0  0  0  0  0  0  0  0  0  0  0  0
   -0.7450   28.3705  -24.7678 H   0  0  0  0  0  0  0  0  0  0  0  0
   -1.9622   26.3044  -24.1042 H   0  0  0  0  0  0  0  0  0  0  0  0
   -2.4067   24.5148  -25.7782 H   0  0  0  0  0  0  0  0  0  0  0  0
    0.3551   23.7709  -28.4719 H   0  0  0  0  0  0  0  0  0  0  0  0
   -0.1437   22.0111  -30.1729 H   0  0  0  0  0  0  0  0  0  0  0  0
   -1.0838   19.9946  -29.9727 H   0  0  0  0  0  0  0  0  0  0  0  0
   -1.3750   18.7303  -31.2379 H   0  0  0  0  0  0  0  0  0  0  0  0
    1.1199   20.0209  -30.4462 H   0  0  0  0  0  0  0  0  0  0  0  0
    0.8092   18.6079  -31.5687 H   0  0  0  0  0  0  0  0  0  0  0  0
    0.5618   20.5825  -34.4626 H   0  0  0  0  0  0  0  0  0  0  0  0
   -0.0494   19.1049  -33.6542 H   0  0  0  0  0  0  0  0  0  0  0  0
   -1.1021   21.9620  -33.4802 H   0  0  0  0  0  0  0  0  0  0  0  0
   -3.1495   19.9576  -33.6158 H   0  0  0  0  0  0  0  0  0  0  0  0
   -2.6855   21.1799  -34.8475 H   0  0  0  0  0  0  0  0  0  0  0  0
   -1.9030   19.5631  -34.8475 H   0  0  0  0  0  0  0  0  0  0  0  0
   -4.1350   20.8140  -32.4580 H   0  0  0  0  0  0  0  0  0  0  0  0
   -6.4382   24.3004  -31.9366 H   0  0  0  0  0  0  0  0  0  0  0  0
   -6.7673   23.2943  -33.3880 H   0  0  0  0  0  0  0  0  0  0  0  0
   -8.5005   23.5481  -30.8731 H   0  0  0  0  0  0  0  0  0  0  0  0
   -8.8885   24.1217  -32.5420 H   0  0  0  0  0  0  0  0  0  0  0  0
   -8.5093   21.3756  -30.3763 H   0  0  0  0  0  0  0  0  0  0  0  0
   -8.8961   20.1370  -31.6368 H   0  0  0  0  0  0  0  0  0  0  0  0
   -6.4459   20.2368  -30.9808 H   0  0  0  0  0  0  0  0  0  0  0  0
   -6.3177   19.2362  -32.9800 H   0  0  0  0  0  0  0  0  0  0  0  0
   -7.6161   20.2708  -33.6657 H   0  0  0  0  0  0  0  0  0  0  0  0
   -5.9147   20.8468  -33.6657 H   0  0  0  0  0  0  0  0  0  0  0  0
   -0.3875   26.8655  -28.8103 H   0  0  0  0  0  0  0  0  0  0  0  0
  1  2  1  0
  2  3  1  0
  3  4  2  0
  4  5  1  0
  5  6  2  0
  6  7  1  0
  7  8  1  0
  8  9  2  0
  9 10  1  0
 10 11  2  0
 11 12  1  0
 12 13  1  0
 13 14  1  0
 14 15  1  0
 15 16  1  0
 16 17  1  0
 17 18  1  0
 18 19  1  0
 12 20  2  0
 20 21  1  0
 21 22  1  0
 22 23  1  0
 23 24  1  0
 24 25  1  0
 25 26  1  0
 26 27  1  0
 27 28  1  0
 21 29  2  0
 29 30  1  0
 30 31  2  0
  7 32  2  0
 32  3  1  0
 31  8  1  0
 30 11  1  0
 18 13  1  0
 27 22  1  0
  1 33  1  0
  1 34  1  0
  1 35  1  0
  4 36  1  0
  5 37  1  0
  6 38  1  0
  9 39  1  0
 10 40  1  0
 14 41  1  0
 14 42  1  0
 15 43  1  0
 15 44  1  0
 17 45  1  0
 17 46  1  0
 18 47  1  6
 19 48  1  0
 19 49  1  0
 19 50  1  0
 20 51  1  0
 23 52  1  0
 23 53  1  0
 24 54  1  0
 24 55  1  0
 26 56  1  0
 26 57  1  0
 27 58  1  1
 28 59  1  0
 28 60  1  0
 28 61  1  0
 32 62  1  0
M  CHG  1  20   1
M  END
>  <UniqueID>  (11) 
11

>  <SMILES>  (11) 
COc1cccc(-c2ccc3c(N4CCOC[C@H]4C)[nH+]c(N4CCOC[C@H]4C)nc3n2)c1

>  <Energy>  (11) 
85.56149623831209

>  <Genealogy>  (11) 
COc1cccc(-c2ccc3c(N4CCOCC4C)[nH+]c(N4CCOCC4C)nc3n2)c1 (protonated)
COc1cccc(-c2ccc3c(N4CCOC[C@H]4C)[nH+]c(N4CCOC[C@H]4C)nc3n2)c1 (chirality)
COc1cccc(-c2ccc3c(N4CCOC[C@H]4C)[nH+]c(N4CCOC[C@H]4C)nc3n2)c1 (3D coordinates assigned)
COc1cccc(-c2ccc3c(N4CCOC[C@H]4C)[nH+]c(N4CCOC[C@H]4C)nc3n2)c1 (nonaromatic ring conformer: 85.56149623831209 kcal/mol)

>  <smiles>  (11) 
COc1cccc(-c2ccc3c(N4CCOCC4C)nc(N4CCOCC4C)nc3n2)c1

>  <score_type>  (11) 
oracle

>  <origin>  (11) 
adg

>  <m_score__min__energy>  (11) 
-8.2100000000000009

>  <m_primary>  (11) 
energy

$$$$
11:0
     RDKit          3D

 44 47  0  0  0  0  0  0  0  0999 V2000
   -5.5260   24.9240  -29.9500 C   0  0  0  0  0  0  0  0  0  0  0  0
   -4.3130   24.3950  -30.4750 O   0  0  0  0  0  0  0  0  0  0  0  0
   -4.2070   23.1580  -31.1290 C   0  0  0  0  0  0  0  0  0  0  0  0
   -4.8710   22.9910  -32.3490 C   0  0  0  0  0  0  0  0  0  0  0  0
   -4.7990   21.7780  -33.0380 C   0  0  0  0  0  0  0  0  0  0  0  0
   -4.0680   20.7040  -32.5060 C   0  0  0  0  0  0  0  0  0  0  0  0
   -3.9810   19.4120  -33.2230 C   0  0  0  0  0  0  0  0  0  0  0  0
   -2.7610   19.0220  -33.6770 N   0  0  0  0  0  0  0  0  0  0  0  0
   -2.5870   17.8560  -34.3420 C   0  0  0  0  0  0  0  0  0  0  0  0
   -1.3150   17.4960  -34.8040 C   0  0  0  0  0  0  0  0  0  0  0  0
   -1.1340   16.2920  -35.4890 C   0  0  0  0  0  0  0  0  0  0  0  0
   -2.2220   15.4430  -35.7140 C   0  0  0  0  0  0  0  0  0  0  0  0
   -3.4950   15.7950  -35.2550 C   0  0  0  0  0  0  0  0  0  0  0  0
   -3.6860   17.0070  -34.5660 C   0  0  0  0  0  0  0  0  0  0  0  0
   -4.9410   17.4050  -34.0740 C   0  0  0  0  0  0  0  0  0  0  0  0
   -5.9400   16.6460  -34.2260 O   0  0  0  0  0  0  0  0  0  0  0  0
   -5.0790   18.6030  -33.4200 N   0  0  0  0  0  0  0  0  0  0  0  0
   -6.3650   18.9610  -32.8700 C   0  0  0  0  0  0  0  0  0  0  0  0
   -7.1140   19.9780  -33.4840 C   0  0  0  0  0  0  0  0  0  0  0  0
   -8.3570   20.3500  -32.9700 C   0  0  0  0  0  0  0  0  0  0  0  0
   -8.8630   19.7140  -31.8360 C   0  0  0  0  0  0  0  0  0  0  0  0
   -8.1300   18.7010  -31.2150 C   0  0  0  0  0  0  0  0  0  0  0  0
   -6.8850   18.3020  -31.7310 C   0  0  0  0  0  0  0  0  0  0  0  0
   -6.1180   17.2110  -31.0360 C   0  0  0  0  0  0  0  0  0  0  0  0
   -3.3830   20.8740  -31.2930 C   0  0  0  0  0  0  0  0  0  0  0  0
   -3.4560   22.0880  -30.6040 C   0  0  0  0  0  0  0  0  0  0  0  0
   -5.4878   24.9074  -28.8508 H   0  0  0  0  0  0  0  0  0  0  0  0
   -5.6547   25.9599  -30.2968 H   0  0  0  0  0  0  0  0  0  0  0  0
   -6.3727   24.3134  -30.2968 H   0  0  0  0  0  0  0  0  0  0  0  0
   -5.4553   23.8227  -32.7696 H   0  0  0  0  0  0  0  0  0  0  0  0
   -5.3173   21.6638  -34.0015 H   0  0  0  0  0  0  0  0  0  0  0  0
   -0.4575   18.1619  -34.6274 H   0  0  0  0  0  0  0  0  0  0  0  0
   -0.1342   16.0115  -35.8519 H   0  0  0  0  0  0  0  0  0  0  0  0
   -2.0761   14.4956  -36.2536 H   0  0  0  0  0  0  0  0  0  0  0  0
   -4.3481   15.1237  -35.4327 H   0  0  0  0  0  0  0  0  0  0  0  0
   -6.7181   20.4849  -34.3764 H   0  0  0  0  0  0  0  0  0  0  0  0
   -8.9383   21.1454  -33.4594 H   0  0  0  0  0  0  0  0  0  0  0  0
   -9.8413   20.0113  -31.4304 H   0  0  0  0  0  0  0  0  0  0  0  0
   -8.5299   18.2113  -30.3149 H   0  0  0  0  0  0  0  0  0  0  0  0
   -6.2066   17.3371  -29.9469 H   0  0  0  0  0  0  0  0  0  0  0  0
   -6.5279   16.2324  -31.3264 H   0  0  0  0  0  0  0  0  0  0  0  0
   -5.0584   17.2655  -31.3264 H   0  0  0  0  0  0  0  0  0  0  0  0
   -2.7852   20.0471  -30.8821 H   0  0  0  0  0  0  0  0  0  0  0  0
   -2.9250   22.2083  -29.6482 H   0  0  0  0  0  0  0  0  0  0  0  0
  1  2  1  0
  2  3  1  0
  3  4  2  0
  4  5  1  0
  5  6  2  0
  6  7  1  0
  7  8  2  0
  8  9  1  0
  9 10  2  0
 10 11  1  0
 11 12  2  0
 12 13  1  0
 13 14  2  0
 14 15  1  0
 15 16  2  0
 15 17  1  0
 17 18  1  0
 18 19  2  0
 19 20  1  0
 20 21  2  0
 21 22  1  0
 22 23  2  0
 23 24  1  0
  6 25  1  0
 25 26  2  0
 26  3  1  0
 17  7  1  0
 23 18  1  0
 14  9  1  0
  1 27  1  0
  1 28  1  0
  1 29  1  0
  4 30  1  0
  5 31  1  0
 10 32  1  0
 11 33  1  0
 12 34  1  0
 13 35  1  0
 19 36  1  0
 20 37  1  0
 21 38  1  0
 22 39  1  0
 24 40  1  0
 24 41  1  0
 24 42  1  0
 25 43  1  0
 26 44  1  0
M  END
>  <UniqueID>  (12) 
12

>  <SMILES>  (12) 
COc1ccc(-c2nc3ccccc3c(=O)n2-c2ccccc2C)cc1

>  <Energy>  (12) 
67.4951907572383

>  <Genealogy>  (12) 
COc1ccc(-c2nc3ccccc3c(=O)n2-c2ccccc2C)cc1 (3D coordinates assigned)
COc1ccc(-c2nc3ccccc3c(=O)n2-c2ccccc2C)cc1 (optimized conformer: 67.4951907572383 kcal/mol)

>  <smiles>  (12) 
COc1ccc(-c2nc3ccccc3c(=O)n2-c2ccccc2C)cc1

>  <score_type>  (12) 
oracle

>  <origin>  (12) 
adg

>  <m_score__min__energy>  (12) 
-8.0600000000000005

>  <m_primary>  (12) 
energy

$$$$
12:0
     RDKit          3D

 41 43  0  0  0  0  0  0  0  0999 V2000
   -4.6560   22.0480  -32.1950 C   0  0  0  0  0  0  0  0  0  0  0  0
   -4.7910   23.0200  -31.0530 C   0  0  0  0  0  0  0  0  0  0  0  0
   -3.6630   23.3050  -30.2680 C   0  0  0  0  0  0  0  0  0  0  0  0
   -3.7420   24.2400  -29.2260 C   0  0  0  0  0  0  0  0  0  0  0  0
   -2.5480   24.5450  -28.3970 C   0  0  0  0  0  0  0  0  0  0  0  0
   -2.6760   24.7950  -27.0210 C   0  0  0  0  0  0  0  0  0  0  0  0
   -1.5460   25.0800  -26.2510 C   0  0  0  0  0  0  0  0  0  0  0  0
   -0.2930   25.1110  -26.8620 C   0  0  0  0  0  0  0  0  0  0  0  0
   -0.1790   24.8650  -28.1940 N   0  0  0  0  0  0  0  0  0  0  0  0
   -1.2620   24.5880  -28.9660 C   0  0  0  0  0  0  0  0  0  0  0  0
   -4.9230   24.8790  -28.9920 N   0  0  0  0  0  0  0  0  0  0  0  0
   -6.0340   24.6280  -29.7340 C   0  0  0  0  0  0  0  0  0  0  0  0
   -6.0090   23.6860  -30.7740 C   0  0  0  0  0  0  0  0  0  0  0  0
   -7.2850   23.4400  -31.5640 C   0  0  0  0  0  0  0  0  0  0  0  0
   -8.1680   22.4530  -30.9150 N   0  0  0  0  0  0  0  0  0  0  0  0
   -8.9350   21.6500  -31.8790 C   0  0  0  0  0  0  0  0  0  0  0  0
   -8.2220   20.3630  -32.2120 C   0  0  0  0  0  0  0  0  0  0  0  0
   -8.6560   19.1510  -31.6520 C   0  0  0  0  0  0  0  0  0  0  0  0
   -8.0090   17.9620  -31.9960 C   0  0  0  0  0  0  0  0  0  0  0  0
   -6.9800   17.9770  -32.8840 N   0  0  0  0  0  0  0  0  0  0  0  0
   -6.5550   19.1310  -33.4620 C   0  0  0  0  0  0  0  0  0  0  0  0
   -7.1730   20.3430  -33.1450 C   0  0  0  0  0  0  0  0  0  0  0  0
   -4.5149   21.0322  -31.7972 H   0  0  0  0  0  0  0  0  0  0  0  0
   -5.5668   22.0773  -32.8111 H   0  0  0  0  0  0  0  0  0  0  0  0
   -3.7876   22.3244  -32.8111 H   0  0  0  0  0  0  0  0  0  0  0  0
   -2.7115   22.7919  -30.4713 H   0  0  0  0  0  0  0  0  0  0  0  0
   -3.6689   24.7663  -26.5483 H   0  0  0  0  0  0  0  0  0  0  0  0
   -1.6436   25.2780  -25.1734 H   0  0  0  0  0  0  0  0  0  0  0  0
    0.6039   25.3347  -26.2657 H   0  0  0  0  0  0  0  0  0  0  0  0
   -1.1328   24.3964  -30.0414 H   0  0  0  0  0  0  0  0  0  0  0  0
   -5.0010   25.5700  -28.2120 H   0  0  0  0  0  0  0  0  0  0  0  0
   -6.9656   25.1708  -29.5162 H   0  0  0  0  0  0  0  0  0  0  0  0
   -7.8293   24.3910  -31.6605 H   0  0  0  0  0  0  0  0  0  0  0  0
   -6.9981   23.0375  -32.5467 H   0  0  0  0  0  0  0  0  0  0  0  0
   -7.6000   21.8090  -30.3170 H   0  0  0  0  0  0  0  0  0  0  0  0
   -9.9180   21.4131  -31.4458 H   0  0  0  0  0  0  0  0  0  0  0  0
   -9.0474   22.2336  -32.8046 H   0  0  0  0  0  0  0  0  0  0  0  0
   -9.5002   19.1379  -30.9469 H   0  0  0  0  0  0  0  0  0  0  0  0
   -8.3329   17.0113  -31.5473 H   0  0  0  0  0  0  0  0  0  0  0  0
   -5.7227   19.1108  -34.1809 H   0  0  0  0  0  0  0  0  0  0  0  0
   -6.8399   21.2759  -33.6233 H   0  0  0  0  0  0  0  0  0  0  0  0
  1  2  1  0
  2  3  2  0
  3  4  1  0
  4  5  1  0
  5  6  2  0
  6  7  1  0
  7  8  2  0
  8  9  1  0
  9 10  2  0
  4 11  2  0
 11 12  1  0
 12 13  2  0
 13 14  1  0
 14 15  1  0
 15 16  1  0
 16 17  1  0
 17 18  2  0
 18 19  1  0
 19 20  2  0
 20 21  1  0
 21 22  2  0
 13  2  1  0
 22 17  1  0
 10  5  1  0
  1 23  1  0
  1 24  1  0
  1 25  1  0
  3 26  1  0
  6 27  1  0
  7 28  1  0
  8 29  1  0
 10 30  1  0
 11 31  1  0
 12 32  1  0
 14 33  1  0
 14 34  1  0
 15 35  1  0
 16 36  1  0
 16 37  1  0
 18 38  1  0
 19 39  1  0
 21 40  1  0
 22 41  1  0
M  CHG  1  11   1
M  END
>  <UniqueID>  (13) 
13

>  <SMILES>  (13) 
Cc1cc(-c2cccnc2)[nH+]cc1CNCc1ccncc1

>  <Energy>  (13) 
52.19385556497033

>  <Genealogy>  (13) 
Cc1cc(-c2cccnc2)[nH+]cc1CNCc1ccncc1 (protonated)
Cc1cc(-c2cccnc2)[nH+]cc1CNCc1ccncc1 (3D coordinates assigned)
Cc1cc(-c2cccnc2)[nH+]cc1CNCc1ccncc1 (optimized conformer: 52.19385556497033 kcal/mol)

>  <smiles>  (13) 
Cc1cc(-c2cccnc2)ncc1CNCc1ccncc1

>  <score_type>  (13) 
oracle

>  <origin>  (13) 
adg

>  <m_score__min__energy>  (13) 
-7.6299999999999999

>  <m_primary>  (13) 
energy

$$$$
13:0
     RDKit          3D

 44 47  0  0  0  0  0  0  0  0999 V2000
   -6.0060   15.5970  -34.1340 C   0  0  0  0  0  0  0  0  0  0  0  0
   -5.7050   16.9060  -33.5370 N   0  0  0  0  0  0  0  0  0  0  0  0
   -6.4210   17.0500  -32.2510 C   0  0  0  0  0  0  0  0  0  0  0  0
   -6.0650   18.3840  -31.5930 C   0  0  0  0  0  0  0  0  0  0  0  0
   -6.3060   19.4720  -32.5430 N   0  0  0  0  0  0  0  0  0  0  0  0
   -7.2210   20.5340  -32.2290 C   0  0  0  0  0  0  0  0  0  0  0  0
   -8.6030   20.3750  -32.4520 C   0  0  0  0  0  0  0  0  0  0  0  0
   -9.4950   21.4120  -32.1210 C   0  0  0  0  0  0  0  0  0  0  0  0
   -9.0310   22.5780  -31.5850 N   0  0  0  0  0  0  0  0  0  0  0  0
   -7.7000   22.7340  -31.3770 C   0  0  0  0  0  0  0  0  0  0  0  0
   -6.9280   24.0830  -30.7490 S   0  0  0  0  0  0  0  0  0  0  0  0
   -5.3720   23.4260  -30.8850 C   0  0  0  0  0  0  0  0  0  0  0  0
   -4.1390   24.1120  -30.4500 C   0  0  0  0  0  0  0  0  0  0  0  0
   -3.9340   25.2920  -30.8420 O   0  0  0  0  0  0  0  0  0  0  0  0
   -3.1440   23.4670  -29.5640 C   0  0  0  0  0  0  0  0  0  0  0  0
   -2.0950   22.7140  -30.1190 C   0  0  0  0  0  0  0  0  0  0  0  0
   -1.1580   22.0870  -29.2910 C   0  0  0  0  0  0  0  0  0  0  0  0
   -1.2660   22.1970  -27.9030 C   0  0  0  0  0  0  0  0  0  0  0  0
   -2.3150   22.9280  -27.3390 C   0  0  0  0  0  0  0  0  0  0  0  0
   -3.2540   23.5550  -28.1640 C   0  0  0  0  0  0  0  0  0  0  0  0
   -5.4580   22.1310  -31.4100 C   0  0  0  0  0  0  0  0  0  0  0  0
   -6.7780   21.7490  -31.6840 C   0  0  0  0  0  0  0  0  0  0  0  0
   -5.7220   19.3490  -33.8790 C   0  0  0  0  0  0  0  0  0  0  0  0
   -6.0890   17.9860  -34.4700 C   0  0  0  0  0  0  0  0  0  0  0  0
   -6.1755   14.8600  -33.3352 H   0  0  0  0  0  0  0  0  0  0  0  0
   -6.9092   15.6770  -34.7568 H   0  0  0  0  0  0  0  0  0  0  0  0
   -5.1586   15.2744  -34.7568 H   0  0  0  0  0  0  0  0  0  0  0  0
   -7.5052   17.0128  -32.4329 H   0  0  0  0  0  0  0  0  0  0  0  0
   -6.1234   16.2295  -31.5814 H   0  0  0  0  0  0  0  0  0  0  0  0
   -6.6896   18.5312  -30.6996 H   0  0  0  0  0  0  0  0  0  0  0  0
   -5.0048   18.3789  -31.3000 H   0  0  0  0  0  0  0  0  0  0  0  0
   -8.9853   19.4391  -32.8854 H   0  0  0  0  0  0  0  0  0  0  0  0
  -10.5732   21.2818  -32.2955 H   0  0  0  0  0  0  0  0  0  0  0  0
   -9.6980   23.3440  -31.3420 H   0  0  0  0  0  0  0  0  0  0  0  0
   -2.0103   22.6171  -31.2114 H   0  0  0  0  0  0  0  0  0  0  0  0
   -0.3351   21.5066  -29.7337 H   0  0  0  0  0  0  0  0  0  0  0  0
   -0.5251   21.7081  -27.2534 H   0  0  0  0  0  0  0  0  0  0  0  0
   -2.4021   23.0102  -26.2455 H   0  0  0  0  0  0  0  0  0  0  0  0
   -4.0840   24.1207  -27.7156 H   0  0  0  0  0  0  0  0  0  0  0  0
   -4.5857   21.4848  -31.5877 H   0  0  0  0  0  0  0  0  0  0  0  0
   -6.1143   20.1474  -34.5261 H   0  0  0  0  0  0  0  0  0  0  0  0
   -4.6277   19.4379  -33.8115 H   0  0  0  0  0  0  0  0  0  0  0  0
   -7.1742   17.9461  -34.6454 H   0  0  0  0  0  0  0  0  0  0  0  0
   -5.5503   17.8492  -35.4193 H   0  0  0  0  0  0  0  0  0  0  0  0
  1  2  1  0
  2  3  1  0
  3  4  1  0
  4  5  1  0
  5  6  1  0
  6  7  2  0
  7  8  1  0
  8  9  2  0
  9 10  1  0
 10 11  1  0
 11 12  1  0
 12 13  1  0
 13 14  2  0
 13 15  1  0
 15 16  2  0
 16 17  1  0
 17 18  2  0
 18 19  1  0
 19 20  2  0
 12 21  2  0
 21 22  1  0
  5 23  1  0
 23 24  1  0
 24  2  1  0
 22  6  1  0
 22 10  2  0
 20 15  1  0
  1 25  1  0
  1 26  1  0
  1 27  1  0
  3 28  1  0
  3 29  1  0
  4 30  1  0
  4 31  1  0
  7 32  1  0
  8 33  1  0
  9 34  1  0
 16 35  1  0
 17 36  1  0
 18 37  1  0
 19 38  1  0
 20 39  1  0
 21 40  1  0
 23 41  1  0
 23 42  1  0
 24 43  1  0
 24 44  1  0
M  CHG  1   9   1
M  END
>  <UniqueID>  (14) 
14

>  <SMILES>  (14) 
CN1CCN(c2cc[nH+]c3sc(C(=O)c4ccccc4)cc23)CC1

>  <Energy>  (14) 
87.26401507003487

>  <Genealogy>  (14) 
CN1CCN(c2cc[nH+]c3sc(C(=O)c4ccccc4)cc23)CC1 (protonated)
CN1CCN(c2cc[nH+]c3sc(C(=O)c4ccccc4)cc23)CC1 (3D coordinates assigned)
CN1CCN(c2cc[nH+]c3sc(C(=O)c4ccccc4)cc23)CC1 (nonaromatic ring conformer: 87.26401507003487 kcal/mol)

>  <smiles>  (14) 
CN1CCN(c2ccnc3sc(C(=O)c4ccccc4)cc23)CC1

>  <score_type>  (14) 
oracle

>  <origin>  (14) 
adg

>  <m_score__min__energy>  (14) 
-8.6699999999999999

>  <m_primary>  (14) 
energy

$$$$
14:0
     RDKit          3D

 40 43  0  0  0  0  0  0  0  0999 V2000
   -4.2880   25.1140  -31.2080 O   0  0  0  0  0  0  0  0  0  0  0  0
   -4.8700   24.3370  -30.0610 S   0  0  0  0  0  0  0  0  0  0  0  0
   -5.5700   25.2980  -29.1410 O   0  0  0  0  0  0  0  0  0  0  0  0
   -3.5960   23.5400  -29.1420 C   0  0  0  0  0  0  0  0  0  0  0  0
   -2.2460   23.8260  -29.3910 C   0  0  0  0  0  0  0  0  0  0  0  0
   -1.2440   23.1580  -28.6810 C   0  0  0  0  0  0  0  0  0  0  0  0
   -1.5860   22.2050  -27.7170 C   0  0  0  0  0  0  0  0  0  0  0  0
   -0.6140   21.5550  -27.0320 F   0  0  0  0  0  0  0  0  0  0  0  0
   -2.9310   21.9230  -27.4590 C   0  0  0  0  0  0  0  0  0  0  0  0
   -3.9350   22.5900  -28.1680 C   0  0  0  0  0  0  0  0  0  0  0  0
   -6.0190   23.1440  -30.7000 C   0  0  0  0  0  0  0  0  0  0  0  0
   -7.3900   23.4120  -30.5960 C   0  0  0  0  0  0  0  0  0  0  0  0
   -8.3060   22.5270  -31.0590 N   0  0  0  0  0  0  0  0  0  0  0  0
   -7.9470   21.3570  -31.6430 C   0  0  0  0  0  0  0  0  0  0  0  0
   -8.9380   20.4810  -32.1080 C   0  0  0  0  0  0  0  0  0  0  0  0
  -10.2510   20.7970  -31.9670 F   0  0  0  0  0  0  0  0  0  0  0  0
   -8.5810   19.2790  -32.7200 C   0  0  0  0  0  0  0  0  0  0  0  0
   -7.2360   18.9450  -32.8770 C   0  0  0  0  0  0  0  0  0  0  0  0
   -6.2370   19.8090  -32.4180 C   0  0  0  0  0  0  0  0  0  0  0  0
   -6.5780   21.0260  -31.7880 C   0  0  0  0  0  0  0  0  0  0  0  0
   -5.6010   21.9330  -31.3050 C   0  0  0  0  0  0  0  0  0  0  0  0
   -4.1590   21.6100  -31.4160 C   0  0  0  0  0  0  0  0  0  0  0  0
   -3.3740   22.2030  -32.4160 C   0  0  0  0  0  0  0  0  0  0  0  0
   -2.0120   21.9010  -32.5080 C   0  0  0  0  0  0  0  0  0  0  0  0
   -1.4310   21.0000  -31.6110 C   0  0  0  0  0  0  0  0  0  0  0  0
   -2.2130   20.3940  -30.6240 C   0  0  0  0  0  0  0  0  0  0  0  0
   -3.5750   20.6930  -30.5280 C   0  0  0  0  0  0  0  0  0  0  0  0
   -1.9748   24.5778  -30.1468 H   0  0  0  0  0  0  0  0  0  0  0  0
   -0.1858   23.3824  -28.8810 H   0  0  0  0  0  0  0  0  0  0  0  0
   -3.1996   21.1758  -26.6977 H   0  0  0  0  0  0  0  0  0  0  0  0
   -4.9925   22.3690  -27.9612 H   0  0  0  0  0  0  0  0  0  0  0  0
   -7.7269   24.3514  -30.1333 H   0  0  0  0  0  0  0  0  0  0  0  0
   -9.3622   18.5931  -33.0795 H   0  0  0  0  0  0  0  0  0  0  0  0
   -6.9600   17.9980  -33.3639 H   0  0  0  0  0  0  0  0  0  0  0  0
   -5.1787   19.5390  -32.5485 H   0  0  0  0  0  0  0  0  0  0  0  0
   -3.8304   22.9061  -33.1283 H   0  0  0  0  0  0  0  0  0  0  0  0
   -1.3964   22.3733  -33.2877 H   0  0  0  0  0  0  0  0  0  0  0  0
   -0.3581   20.7680  -31.6820 H   0  0  0  0  0  0  0  0  0  0  0  0
   -1.7562   19.6810  -29.9219 H   0  0  0  0  0  0  0  0  0  0  0  0
   -4.1903   20.2089  -29.7553 H   0  0  0  0  0  0  0  0  0  0  0  0
  1  2  2  0
  2  3  2  0
  2  4  1  0
  4  5  2  0
  5  6  1  0
  6  7  2  0
  7  8  1  0
  7  9  1  0
  9 10  2  0
  2 11  1  0
 11 12  2  0
 12 13  1  0
 13 14  2  0
 14 15  1  0
 15 16  1  0
 15 17  2  0
 17 18  1  0
 18 19  2  0
 19 20  1  0
 20 21  2  0
 21 22  1  0
 22 23  2  0
 23 24  1  0
 24 25  2  0
 25 26  1  0
 26 27  2  0
 10  4  1  0
 21 11  1  0
 27 22  1  0
 20 14  1  0
  5 28  1  0
  6 29  1  0
  9 30  1  0
 10 31  1  0
 12 32  1  0
 17 33  1  0
 18 34  1  0
 19 35  1  0
 23 36  1  0
 24 37  1  0
 25 38  1  0
 26 39  1  0
 27 40  1  0
M  END
>  <UniqueID>  (15) 
15

>  <SMILES>  (15) 
O=S(=O)(c1ccc(F)cc1)c1cnc2c(F)cccc2c1-c1ccccc1

>  <Energy>  (15) 
58.27705680061731

>  <Genealogy>  (15) 
O=S(=O)(c1ccc(F)cc1)c1cnc2c(F)cccc2c1-c1ccccc1 (3D coordinates assigned)
O=S(=O)(c1ccc(F)cc1)c1cnc2c(F)cccc2c1-c1ccccc1 (optimized conformer: 58.27705680061731 kcal/mol)

>  <smiles>  (15) 
O=S(=O)(c1ccc(F)cc1)c1cnc2c(F)cccc2c1-c1ccccc1

>  <score_type>  (15) 
oracle

>  <origin>  (15) 
adg

>  <m_score__min__energy>  (15) 
-9.2100000000000009

>  <m_primary>  (15) 
energy

$$$$
15:0
     RDKit          3D

 44 48  0  0  0  0  0  0  0  0999 V2000
   -1.6270   25.7650  -28.9760 N   0  0  0  0  0  0  0  0  0  0  0  0
   -1.4690   24.3520  -29.1060 C   0  0  0  0  0  0  0  0  0  0  0  0
   -0.4590   23.7990  -28.5940 O   0  0  0  0  0  0  0  0  0  0  0  0
   -2.4780   23.5460  -29.8290 C   0  0  0  0  0  0  0  0  0  0  0  0
   -3.5720   24.1560  -30.4640 C   0  0  0  0  0  0  0  0  0  0  0  0
   -4.5130   23.3810  -31.1430 C   0  0  0  0  0  0  0  0  0  0  0  0
   -4.3640   21.9900  -31.1810 C   0  0  0  0  0  0  0  0  0  0  0  0
   -5.3150   21.1700  -31.8790 N   0  0  0  0  0  0  0  0  0  0  0  0
   -6.6690   21.2860  -31.8440 C   0  0  0  0  0  0  0  0  0  0  0  0
   -7.2620   20.2720  -32.5770 C   0  0  0  0  0  0  0  0  0  0  0  0
   -6.2300   19.5460  -33.1290 C   0  0  0  0  0  0  0  0  0  0  0  0
   -6.2440   18.4530  -33.9900 C   0  0  0  0  0  0  0  0  0  0  0  0
   -5.0090   17.9290  -34.4060 C   0  0  0  0  0  0  0  0  0  0  0  0
   -3.7850   18.5010  -33.9660 C   0  0  0  0  0  0  0  0  0  0  0  0
   -2.5320   17.9480  -34.4200 N   0  0  0  0  0  0  0  0  0  0  0  0
   -2.2640   16.6730  -34.7660 C   0  0  0  0  0  0  0  0  0  0  0  0
   -0.9400   16.6360  -35.1380 C   0  0  0  0  0  0  0  0  0  0  0  0
   -0.4370   17.8790  -35.0140 N   0  0  0  0  0  0  0  0  0  0  0  0
   -1.4220   18.6520  -34.5790 N   0  0  0  0  0  0  0  0  0  0  0  0
   -3.8170   19.6190  -33.0960 C   0  0  0  0  0  0  0  0  0  0  0  0
   -5.0600   20.1100  -32.6820 C   0  0  0  0  0  0  0  0  0  0  0  0
   -8.7420   20.1150  -32.7660 C   0  0  0  0  0  0  0  0  0  0  0  0
   -9.5010   20.8590  -31.6540 C   0  0  0  0  0  0  0  0  0  0  0  0
   -8.9360   22.2760  -31.4300 C   0  0  0  0  0  0  0  0  0  0  0  0
   -7.4600   22.2410  -30.9910 C   0  0  0  0  0  0  0  0  0  0  0  0
   -3.2950   21.4140  -30.5670 N   0  0  0  0  0  0  0  0  0  0  0  0
   -2.3640   22.1470  -29.9010 C   0  0  0  0  0  0  0  0  0  0  0  0
   -1.2310   26.4170  -29.6890 H   0  0  0  0  0  0  0  0  0  0  0  0
   -3.6876   25.2492  -30.4260 H   0  0  0  0  0  0  0  0  0  0  0  0
   -5.3663   23.8603  -31.6451 H   0  0  0  0  0  0  0  0  0  0  0  0
   -7.1919   18.0134  -34.3339 H   0  0  0  0  0  0  0  0  0  0  0  0
   -4.9891   17.0622  -35.0830 H   0  0  0  0  0  0  0  0  0  0  0  0
   -2.9670   15.8270  -34.7534 H   0  0  0  0  0  0  0  0  0  0  0  0
   -0.3887   15.7467  -35.4774 H   0  0  0  0  0  0  0  0  0  0  0  0
   -2.8843   20.0909  -32.7534 H   0  0  0  0  0  0  0  0  0  0  0  0
   -9.0297   20.5304  -33.7431 H   0  0  0  0  0  0  0  0  0  0  0  0
   -8.9982   19.0461  -32.7225 H   0  0  0  0  0  0  0  0  0  0  0  0
  -10.5610   20.9382  -31.9369 H   0  0  0  0  0  0  0  0  0  0  0  0
   -9.3848   20.2909  -30.7192 H   0  0  0  0  0  0  0  0  0  0  0  0
   -9.0147   22.8432  -32.3692 H   0  0  0  0  0  0  0  0  0  0  0  0
   -9.5194   22.7539  -30.6292 H   0  0  0  0  0  0  0  0  0  0  0  0
   -7.0315   23.2495  -31.0872 H   0  0  0  0  0  0  0  0  0  0  0  0
   -7.4119   21.9015  -29.9458 H   0  0  0  0  0  0  0  0  0  0  0  0
   -1.5160   21.6421  -29.4153 H   0  0  0  0  0  0  0  0  0  0  0  0
  1  2  1  0
  2  3  2  0
  2  4  1  0
  4  5  2  0
  5  6  1  0
  6  7  2  0
  7  8  1  0
  8  9  1  0
  9 10  2  0
 10 11  1  0
 11 12  2  0
 12 13  1  0
 13 14  2  0
 14 15  1  0
 15 16  1  0
 16 17  2  0
 17 18  1  0
 18 19  2  0
 14 20  1  0
 20 21  2  0
 10 22  1  0
 22 23  1  0
 23 24  1  0
 24 25  1  0
  7 26  1  0
 26 27  2  0
 27  4  1  0
 21  8  1  0
 25  9  1  0
 21 11  1  0
 19 15  1  0
  1 28  1  0
  5 29  1  0
  6 30  1  0
 12 31  1  0
 13 32  1  0
 16 33  1  0
 17 34  1  0
 20 35  1  0
 22 36  1  0
 22 37  1  0
 23 38  1  0
 23 39  1  0
 24 40  1  0
 24 41  1  0
 25 42  1  0
 25 43  1  0
 27 44  1  0
M  CHG  1   1  -1
M  END
>  <UniqueID>  (16) 
16

>  <SMILES>  (16) 
[NH-]C(=O)c1ccc(-n2c3c(c4ccc(-n5ccnn5)cc42)CCCC3)nc1

>  <Energy>  (16) 
126.50424943557817

>  <Genealogy>  (16) 
[NH-]C(=O)c1ccc(-n2c3c(c4ccc(-n5ccnn5)cc42)CCCC3)nc1 (protonated)
[NH-]C(=O)c1ccc(-n2c3c(c4ccc(-n5ccnn5)cc42)CCCC3)nc1 (3D coordinates assigned)
[NH-]C(=O)c1ccc(-n2c3c(c4ccc(-n5ccnn5)cc42)CCCC3)nc1 (nonaromatic ring conformer: 126.50424943557817 kcal/mol)

>  <smiles>  (16) 
NC(=O)c1ccc(-n2c3c(c4ccc(-n5ccnn5)cc42)CCCC3)nc1

>  <score_type>  (16) 
oracle

>  <origin>  (16) 
adg

>  <m_score__min__energy>  (16) 
-11.539999999999999

>  <m_primary>  (16) 
energy

$$$$
16:0
     RDKit          3D

 54 55  0  0  0  0  0  0  0  0999 V2000
   -6.1330   25.3970  -29.7210 C   0  0  0  0  0  0  0  0  0  0  0  0
   -5.7760   24.9900  -31.1560 C   0  0  0  0  0  0  0  0  0  0  0  0
   -5.9610   23.5380  -31.4230 N   0  0  0  0  0  0  0  0  0  0  0  0
   -7.2970   23.1150  -30.9300 C   0  0  0  0  0  0  0  0  0  0  0  0
   -8.4250   23.3720  -31.9360 C   0  0  0  0  0  0  0  0  0  0  0  0
   -4.8410   22.6810  -30.9340 C   0  0  0  0  0  0  0  0  0  0  0  0
   -4.0250   21.9410  -32.0200 C   0  0  0  0  0  0  0  0  0  0  0  0
   -4.8960   21.3290  -33.0340 N   0  0  0  0  0  0  0  0  0  0  0  0
   -4.7420   19.8640  -33.0250 C   0  0  0  0  0  0  0  0  0  0  0  0
   -6.0870   19.1140  -33.3160 C   0  0  1  0  0  0  0  0  0  0  0  0
   -5.9260   18.3400  -34.6870 C   0  0  0  0  0  0  0  0  0  0  0  0
   -5.7530   16.8180  -34.5760 C   0  0  0  0  0  0  0  0  0  0  0  0
   -4.8650   16.4420  -33.4030 C   0  0  0  0  0  0  0  0  0  0  0  0
   -5.4830   16.8670  -32.0650 C   0  0  0  0  0  0  0  0  0  0  0  0
   -6.3950   18.1260  -32.1240 C   0  0  2  0  0  0  0  0  0  0  0  0
   -7.8980   17.7690  -32.0830 C   0  0  0  0  0  0  0  0  0  0  0  0
   -8.7730   19.0100  -31.8060 C   0  0  0  0  0  0  0  0  0  0  0  0
   -8.1000   20.3350  -32.2050 C   0  0  0  0  0  0  0  0  0  0  0  0
   -7.2480   20.1710  -33.4710 C   0  0  0  0  0  0  0  0  0  0  0  0
   -5.5785   24.7648  -29.0119 H   0  0  0  0  0  0  0  0  0  0  0  0
   -5.8631   26.4513  -29.5610 H   0  0  0  0  0  0  0  0  0  0  0  0
   -7.2135   25.2668  -29.5610 H   0  0  0  0  0  0  0  0  0  0  0  0
   -6.4166   25.5560  -31.8483 H   0  0  0  0  0  0  0  0  0  0  0  0
   -4.7085   25.2127  -31.3001 H   0  0  0  0  0  0  0  0  0  0  0  0
   -5.9810   23.4340  -32.4670 H   0  0  0  0  0  0  0  0  0  0  0  0
   -7.2632   22.0375  -30.7114 H   0  0  0  0  0  0  0  0  0  0  0  0
   -7.5176   23.7136  -30.0339 H   0  0  0  0  0  0  0  0  0  0  0  0
   -9.3583   23.5846  -31.3940 H   0  0  0  0  0  0  0  0  0  0  0  0
   -8.1635   24.2336  -32.5679 H   0  0  0  0  0  0  0  0  0  0  0  0
   -8.5625   22.4822  -32.5679 H   0  0  0  0  0  0  0  0  0  0  0  0
   -4.1472   23.3234  -30.3719 H   0  0  0  0  0  0  0  0  0  0  0  0
   -5.3146   21.8917  -30.3317 H   0  0  0  0  0  0  0  0  0  0  0  0
   -3.3545   22.6600  -32.5134 H   0  0  0  0  0  0  0  0  0  0  0  0
   -3.4529   21.1388  -31.5310 H   0  0  0  0  0  0  0  0  0  0  0  0
   -4.5740   21.6760  -33.9680 H   0  0  0  0  0  0  0  0  0  0  0  0
   -4.0081   19.5823  -33.7945 H   0  0  0  0  0  0  0  0  0  0  0  0
   -4.4083   19.5706  -32.0187 H   0  0  0  0  0  0  0  0  0  0  0  0
   -5.0416   18.7441  -35.2014 H   0  0  0  0  0  0  0  0  0  0  0  0
   -6.8688   18.4957  -35.2318 H   0  0  0  0  0  0  0  0  0  0  0  0
   -5.2976   16.4416  -35.5039 H   0  0  0  0  0  0  0  0  0  0  0  0
   -6.7444   16.3691  -34.4156 H   0  0  0  0  0  0  0  0  0  0  0  0
   -3.8907   16.9391  -33.5196 H   0  0  0  0  0  0  0  0  0  0  0  0
   -4.7508   15.3480  -33.3960 H   0  0  0  0  0  0  0  0  0  0  0  0
   -4.6625   17.0744  -31.3623 H   0  0  0  0  0  0  0  0  0  0  0  0
   -6.1319   16.0358  -31.7520 H   0  0  0  0  0  0  0  0  0  0  0  0
   -6.1409   18.6766  -31.2063 H   0  0  0  0  0  0  0  0  0  0  0  0
   -8.0669   17.0290  -31.2868 H   0  0  0  0  0  0  0  0  0  0  0  0
   -8.1806   17.3630  -33.0655 H   0  0  0  0  0  0  0  0  0  0  0  0
   -8.9988   19.0440  -30.7300 H   0  0  0  0  0  0  0  0  0  0  0  0
   -9.6809   18.9100  -32.4190 H   0  0  0  0  0  0  0  0  0  0  0  0
   -7.4545   20.6712  -31.3802 H   0  0  0  0  0  0  0  0  0  0  0  0
   -8.8873   21.0751  -32.4109 H   0  0  0  0  0  0  0  0  0  0  0  0
   -6.8011   21.1452  -33.7185 H   0  0  0  0  0  0  0  0  0  0  0  0
   -7.9154   19.8043  -34.2648 H   0  0  0  0  0  0  0  0  0  0  0  0
  1  2  1  0
  2  3  1  0
  3  4  1  0
  4  5  1  0
  3  6  1  0
  6  7  1  0
  7  8  1  0
  8  9  1  0
 10  9  1  1
 10 11  1  0
 11 12  1  0
 12 13  1  0
 13 14  1  0
 14 15  1  0
 15 16  1  0
 16 17  1  0
 17 18  1  0
 18 19  1  0
 15 10  1  0
 19 10  1  0
  1 20  1  0
  1 21  1  0
  1 22  1  0
  2 23  1  0
  2 24  1  0
  3 25  1  0
  4 26  1  0
  4 27  1  0
  5 28  1  0
  5 29  1  0
  5 30  1  0
  6 31  1  0
  6 32  1  0
  7 33  1  0
  7 34  1  0
  8 35  1  0
  9 36  1  0
  9 37  1  0
 11 38  1  0
 11 39  1  0
 12 40  1  0
 12 41  1  0
 13 42  1  0
 13 43  1  0
 14 44  1  0
 14 45  1  0
 15 46  1  1
 16 47  1  0
 16 48  1  0
 17 49  1  0
 17 50  1  0
 18 51  1  0
 18 52  1  0
 19 53  1  0
 19 54  1  0
M  CHG  1   3   1
M  END
>  <UniqueID>  (17) 
17

>  <SMILES>  (17) 
CC[NH+](CC)CCNCC12CCCCC1CCCC2

>  <Energy>  (17) 
68.89284197312743

>  <Genealogy>  (17) 
CC[NH+](CC)CCNCC12CCCCC1CCCC2 (protonated)
CC[NH+](CC)CCNCC12CCCCC1CCCC2 (3D coordinates assigned)
CC[NH+](CC)CCNCC12CCCCC1CCCC2 (nonaromatic ring conformer: 68.89284197312743 kcal/mol)

>  <smiles>  (17) 
CCN(CC)CCNCC12CCCCC1CCCC2

>  <score_type>  (17) 
oracle

>  <origin>  (17) 
adg

>  <m_score__min__energy>  (17) 
-6.5300000000000002

>  <m_primary>  (17) 
energy

$$$$
17:0
     RDKit          3D

 45 46  0  0  0  0  0  0  0  0999 V2000
   -1.7730   18.1830  -33.5790 C   0  0  0  0  0  0  0  0  0  0  0  0
   -2.7170   19.1240  -34.0400 O   0  0  0  0  0  0  0  0  0  0  0  0
   -2.2130   20.4290  -33.8440 C   0  0  0  0  0  0  0  0  0  0  0  0
   -3.3080   21.3240  -33.2340 C   0  0  0  0  0  0  0  0  0  0  0  0
   -4.4430   20.5570  -32.6550 N   0  0  1  0  0  0  0  0  0  0  0  0
   -4.6320   20.8580  -31.2060 C   0  0  0  0  0  0  0  0  0  0  0  0
   -5.1420   22.2610  -30.9070 C   0  0  0  0  0  0  0  0  0  0  0  0
   -6.5220   22.5000  -30.7570 C   0  0  0  0  0  0  0  0  0  0  0  0
   -6.9930   23.7880  -30.4900 C   0  0  0  0  0  0  0  0  0  0  0  0
   -6.0980   24.8550  -30.3860 C   0  0  0  0  0  0  0  0  0  0  0  0
   -4.7300   24.6360  -30.5630 C   0  0  0  0  0  0  0  0  0  0  0  0
   -3.8630   25.6750  -30.4840 F   0  0  0  0  0  0  0  0  0  0  0  0
   -4.2550   23.3480  -30.8320 C   0  0  0  0  0  0  0  0  0  0  0  0
   -5.6970   20.7500  -33.4350 C   0  0  0  0  0  0  0  0  0  0  0  0
   -6.8470   19.9340  -32.8750 C   0  0  0  0  0  0  0  0  0  0  0  0
   -8.1060   20.5300  -32.6860 C   0  0  0  0  0  0  0  0  0  0  0  0
   -9.1660   19.7940  -32.1550 C   0  0  0  0  0  0  0  0  0  0  0  0
   -8.9850   18.4560  -31.8110 C   0  0  0  0  0  0  0  0  0  0  0  0
   -7.7460   17.8450  -32.0020 C   0  0  0  0  0  0  0  0  0  0  0  0
   -6.6660   18.5730  -32.5400 C   0  0  0  0  0  0  0  0  0  0  0  0
   -5.4110   17.9790  -32.7570 O   0  0  0  0  0  0  0  0  0  0  0  0
   -5.1440   17.0010  -33.7580 C   0  0  0  0  0  0  0  0  0  0  0  0
   -1.7677   18.1777  -32.4790 H   0  0  0  0  0  0  0  0  0  0  0  0
   -2.0416   17.1826  -33.9492 H   0  0  0  0  0  0  0  0  0  0  0  0
   -0.7735   18.4548  -33.9492 H   0  0  0  0  0  0  0  0  0  0  0  0
   -1.3514   20.3892  -33.1613 H   0  0  0  0  0  0  0  0  0  0  0  0
   -1.8994   20.8468  -34.8120 H   0  0  0  0  0  0  0  0  0  0  0  0
   -2.8565   21.9334  -32.4373 H   0  0  0  0  0  0  0  0  0  0  0  0
   -3.7149   21.9406  -34.0490 H   0  0  0  0  0  0  0  0  0  0  0  0
   -4.1830   19.5440  -32.6950 H   0  0  0  0  0  0  0  0  0  0  0  0
   -5.3554   20.1367  -30.7981 H   0  0  0  0  0  0  0  0  0  0  0  0
   -3.6374   20.7844  -30.7420 H   0  0  0  0  0  0  0  0  0  0  0  0
   -7.2339   21.6667  -30.8507 H   0  0  0  0  0  0  0  0  0  0  0  0
   -8.0715   23.9621  -30.3614 H   0  0  0  0  0  0  0  0  0  0  0  0
   -6.4699   25.8664  -30.1650 H   0  0  0  0  0  0  0  0  0  0  0  0
   -3.1781   23.1849  -30.9861 H   0  0  0  0  0  0  0  0  0  0  0  0
   -5.9713   21.8149  -33.4083 H   0  0  0  0  0  0  0  0  0  0  0  0
   -5.5112   20.4122  -34.4652 H   0  0  0  0  0  0  0  0  0  0  0  0
   -8.2568   21.5849  -32.9588 H   0  0  0  0  0  0  0  0  0  0  0  0
  -10.1462   20.2710  -32.0077 H   0  0  0  0  0  0  0  0  0  0  0  0
   -9.8213   17.8803  -31.3878 H   0  0  0  0  0  0  0  0  0  0  0  0
   -7.6108   16.7875  -31.7308 H   0  0  0  0  0  0  0  0  0  0  0  0
   -4.8834   16.0464  -33.2776 H   0  0  0  0  0  0  0  0  0  0  0  0
   -6.0377   16.8642  -34.3846 H   0  0  0  0  0  0  0  0  0  0  0  0
   -4.3048   17.3373  -34.3846 H   0  0  0  0  0  0  0  0  0  0  0  0
  1  2  1  0
  2  3  1  0
  3  4  1  0
  4  5  1  0
  5  6  1  0
  6  7  1  0
  7  8  2  0
  8  9  1  0
  9 10  2  0
 10 11  1  0
 11 12  1  0
 11 13  2  0
  5 14  1  0
 14 15  1  0
 15 16  2  0
 16 17  1  0
 17 18  2  0
 18 19  1  0
 19 20  2  0
 20 21  1  0
 21 22  1  0
 13  7  1  0
 20 15  1  0
  1 23  1  0
  1 24  1  0
  1 25  1  0
  3 26  1  0
  3 27  1  0
  4 28  1  0
  4 29  1  0
  5 30  1  1
  6 31  1  0
  6 32  1  0
  8 33  1  0
  9 34  1  0
 10 35  1  0
 13 36  1  0
 14 37  1  0
 14 38  1  0
 16 39  1  0
 17 40  1  0
 18 41  1  0
 19 42  1  0
 22 43  1  0
 22 44  1  0
 22 45  1  0
M  CHG  1   5   1
M  END
>  <UniqueID>  (18) 
18

>  <SMILES>  (18) 
COCC[N@@H+](Cc1cccc(F)c1)Cc1ccccc1OC

>  <Energy>  (18) 
50.9171762944598

>  <Genealogy>  (18) 
COCC[NH+](Cc1cccc(F)c1)Cc1ccccc1OC (protonated)
COCC[N@@H+](Cc1cccc(F)c1)Cc1ccccc1OC (chirality)
COCC[N@@H+](Cc1cccc(F)c1)Cc1ccccc1OC (3D coordinates assigned)
COCC[N@@H+](Cc1cccc(F)c1)Cc1ccccc1OC (optimized conformer: 50.9171762944598 kcal/mol)

>  <smiles>  (18) 
COCCN(Cc1cccc(F)c1)Cc1ccccc1OC

>  <score_type>  (18) 
oracle

>  <origin>  (18) 
adg

>  <m_score__min__energy>  (18) 
-5.7400000000000002

>  <m_primary>  (18) 
energy

$$$$
18:0
     RDKit          3D

 42 44  0  0  0  0  0  0  0  0999 V2000
   -1.5380   21.2130  -33.4410 O   0  0  0  0  0  0  0  0  0  0  0  0
   -2.3510   21.6990  -32.6110 C   0  0  0  0  0  0  0  0  0  0  0  0
   -3.8230   21.6760  -32.9290 C   0  0  0  0  0  0  0  0  0  0  0  0
   -4.4270   20.2990  -32.6370 C   0  0  0  0  0  0  0  0  0  0  0  0
   -5.7730   20.2290  -33.1090 O   0  0  0  0  0  0  0  0  0  0  0  0
   -6.8900   20.8270  -32.5020 C   0  0  0  0  0  0  0  0  0  0  0  0
   -6.9860   22.2180  -32.2980 C   0  0  0  0  0  0  0  0  0  0  0  0
   -8.1200   22.7640  -31.6890 C   0  0  0  0  0  0  0  0  0  0  0  0
   -9.1660   21.9350  -31.2830 C   0  0  0  0  0  0  0  0  0  0  0  0
   -9.0830   20.5550  -31.4860 C   0  0  0  0  0  0  0  0  0  0  0  0
   -7.9500   20.0010  -32.0940 C   0  0  0  0  0  0  0  0  0  0  0  0
   -7.8680   18.2630  -32.3360 Cl  0  0  0  0  0  0  0  0  0  0  0  0
   -1.8310   22.3150  -31.4240 N   0  0  0  0  0  0  0  0  0  0  0  0
   -2.2980   22.0690  -30.0910 C   0  0  0  0  0  0  0  0  0  0  0  0
   -2.4240   20.7390  -29.6710 C   0  0  0  0  0  0  0  0  0  0  0  0
   -2.8260   20.4400  -28.3690 C   0  0  0  0  0  0  0  0  0  0  0  0
   -3.1120   21.4700  -27.4750 C   0  0  0  0  0  0  0  0  0  0  0  0
   -3.0170   22.8020  -27.8850 C   0  0  0  0  0  0  0  0  0  0  0  0
   -2.6260   23.1230  -29.1990 C   0  0  0  0  0  0  0  0  0  0  0  0
   -2.6010   24.5480  -29.6120 C   0  0  0  0  0  0  0  0  0  0  0  0
   -1.6700   25.3080  -29.2300 O   0  0  0  0  0  0  0  0  0  0  0  0
   -3.6250   25.0600  -30.4700 N   0  0  0  0  0  0  0  0  0  0  0  0
   -4.9040   24.3870  -30.6520 C   0  0  0  0  0  0  0  0  0  0  0  0
   -6.1000   25.3020  -30.4710 C   0  0  0  0  0  0  0  0  0  0  0  0
   -5.7160   24.3210  -29.3730 C   0  0  0  0  0  0  0  0  0  0  0  0
   -4.3354   22.4310  -32.3147 H   0  0  0  0  0  0  0  0  0  0  0  0
   -3.9536   21.8959  -33.9989 H   0  0  0  0  0  0  0  0  0  0  0  0
   -3.8268   19.5270  -33.1408 H   0  0  0  0  0  0  0  0  0  0  0  0
   -4.4241   20.1344  -31.5494 H   0  0  0  0  0  0  0  0  0  0  0  0
   -6.1657   22.8768  -32.6191 H   0  0  0  0  0  0  0  0  0  0  0  0
   -8.1876   23.8503  -31.5296 H   0  0  0  0  0  0  0  0  0  0  0  0
  -10.0562   22.3677  -30.8030 H   0  0  0  0  0  0  0  0  0  0  0  0
   -9.9094   19.9026  -31.1675 H   0  0  0  0  0  0  0  0  0  0  0  0
   -2.2039   19.9224  -30.3743 H   0  0  0  0  0  0  0  0  0  0  0  0
   -2.9172   19.3918  -28.0482 H   0  0  0  0  0  0  0  0  0  0  0  0
   -3.4133   21.2336  -26.4438 H   0  0  0  0  0  0  0  0  0  0  0  0
   -3.2500   23.6084  -27.1740 H   0  0  0  0  0  0  0  0  0  0  0  0
   -4.5890   23.6654  -31.4202 H   0  0  0  0  0  0  0  0  0  0  0  0
   -5.9495   26.3814  -30.3219 H   0  0  0  0  0  0  0  0  0  0  0  0
   -7.0155   25.5093  -31.0445 H   0  0  0  0  0  0  0  0  0  0  0  0
   -5.2879   24.6909  -28.4297 H   0  0  0  0  0  0  0  0  0  0  0  0
   -6.2387   23.5246  -28.8230 H   0  0  0  0  0  0  0  0  0  0  0  0
  1  2  2  0
  2  3  1  0
  3  4  1  0
  4  5  1  0
  5  6  1  0
  6  7  2  0
  7  8  1  0
  8  9  2  0
  9 10  1  0
 10 11  2  0
 11 12  1  0
  2 13  1  0
 13 14  1  0
 14 15  2  0
 15 16  1  0
 16 17  2  0
 17 18  1  0
 18 19  2  0
 19 20  1  0
 20 21  2  0
 20 22  1  0
 22 23  1  0
 23 24  1  0
 24 25  1  0
 11  6  1  0
 19 14  1  0
 25 23  1  0
  3 26  1  0
  3 27  1  0
  4 28  1  0
  4 29  1  0
  7 30  1  0
  8 31  1  0
  9 32  1  0
 10 33  1  0
 15 34  1  0
 16 35  1  0
 17 36  1  0
 18 37  1  0
 23 38  1  0
 24 39  1  0
 24 40  1  0
 25 41  1  0
 25 42  1  0
M  CHG  2  13  -1  22  -1
M  END
>  <UniqueID>  (19) 
19

>  <SMILES>  (19) 
O=C(CCOc1ccccc1Cl)[N-]c1ccccc1C(=O)[N-]C1CC1

>  <Energy>  (19) 
313.61805888107364

>  <Genealogy>  (19) 
O=C(CCOc1ccccc1Cl)[N-]c1ccccc1C(=O)[N-]C1CC1 (protonated)
O=C(CCOc1ccccc1Cl)[N-]c1ccccc1C(=O)[N-]C1CC1 (3D coordinates assigned)
O=C(CCOc1ccccc1Cl)[N-]c1ccccc1C(=O)[N-]C1CC1 (nonaromatic ring conformer: 313.61805888107364 kcal/mol)

>  <smiles>  (19) 
O=C(CCOc1ccccc1Cl)Nc1ccccc1C(=O)NC1CC1

>  <score_type>  (19) 
oracle

>  <origin>  (19) 
adg

>  <m_score__min__energy>  (19) 
-11.27

>  <m_primary>  (19) 
energy

$$$$
19:0
     RDKit          3D

 38 38  0  0  0  0  0  0  0  0999 V2000
   -4.1750   18.9770  -33.8530 C   0  0  0  0  0  0  0  0  0  0  0  0
   -5.2410   18.6120  -32.8140 C   0  0  0  0  0  0  0  0  0  0  0  0
   -6.5290   18.1870  -33.4250 N   0  0  0  0  0  0  0  0  0  0  0  0
   -6.3720   17.1070  -34.4380 C   0  0  0  0  0  0  0  0  0  0  0  0
   -6.4620   15.6830  -33.8700 C   0  0  0  0  0  0  0  0  0  0  0  0
   -7.5130   17.7940  -32.3750 C   0  0  0  0  0  0  0  0  0  0  0  0
   -8.7490   18.7120  -32.3330 C   0  0  0  0  0  0  0  0  0  0  0  0
   -8.4710   19.9840  -33.0110 N   0  0  0  0  0  0  0  0  0  0  0  0
   -8.7530   21.1140  -32.1210 C   0  0  0  0  0  0  0  0  0  0  0  0
   -7.4920   21.8960  -31.8760 C   0  0  0  0  0  0  0  0  0  0  0  0
   -6.3010   21.5310  -32.5250 C   0  0  0  0  0  0  0  0  0  0  0  0
   -5.1350   22.2770  -32.3260 C   0  0  0  0  0  0  0  0  0  0  0  0
   -5.1520   23.3940  -31.4860 C   0  0  0  0  0  0  0  0  0  0  0  0
   -6.3380   23.7730  -30.8490 C   0  0  0  0  0  0  0  0  0  0  0  0
   -6.3590   25.3000  -29.6990 Br  0  0  0  0  0  0  0  0  0  0  0  0
   -7.5070   23.0300  -31.0480 C   0  0  0  0  0  0  0  0  0  0  0  0
   -3.2548   19.2921  -33.3391 H   0  0  0  0  0  0  0  0  0  0  0  0
   -3.9616   18.1007  -34.4828 H   0  0  0  0  0  0  0  0  0  0  0  0
   -4.5435   19.8002  -34.4828 H   0  0  0  0  0  0  0  0  0  0  0  0
   -4.8584   17.7875  -32.1944 H   0  0  0  0  0  0  0  0  0  0  0  0
   -5.4421   19.5149  -32.2188 H   0  0  0  0  0  0  0  0  0  0  0  0
   -6.9160   19.0100  -33.9450 H   0  0  0  0  0  0  0  0  0  0  0  0
   -7.1631   17.2264  -35.1929 H   0  0  0  0  0  0  0  0  0  0  0  0
   -5.3598   17.2140  -34.8550 H   0  0  0  0  0  0  0  0  0  0  0  0
   -6.4593   15.7258  -32.7708 H   0  0  0  0  0  0  0  0  0  0  0  0
   -7.3919   15.2083  -34.2162 H   0  0  0  0  0  0  0  0  0  0  0  0
   -5.5992   15.0950  -34.2162 H   0  0  0  0  0  0  0  0  0  0  0  0
   -7.8473   16.7654  -32.5756 H   0  0  0  0  0  0  0  0  0  0  0  0
   -7.0070   17.8796  -31.4021 H   0  0  0  0  0  0  0  0  0  0  0  0
   -9.5891   18.2104  -32.8357 H   0  0  0  0  0  0  0  0  0  0  0  0
   -9.0023   18.9179  -31.2826 H   0  0  0  0  0  0  0  0  0  0  0  0
   -9.1100   20.0560  -33.8370 H   0  0  0  0  0  0  0  0  0  0  0  0
   -9.5037   21.7684  -32.5882 H   0  0  0  0  0  0  0  0  0  0  0  0
   -9.1373   20.7346  -31.1627 H   0  0  0  0  0  0  0  0  0  0  0  0
   -6.2854   20.6561  -33.1915 H   0  0  0  0  0  0  0  0  0  0  0  0
   -4.2029   21.9842  -32.8314 H   0  0  0  0  0  0  0  0  0  0  0  0
   -4.2320   23.9753  -31.3258 H   0  0  0  0  0  0  0  0  0  0  0  0
   -8.4412   23.3354  -30.5540 H   0  0  0  0  0  0  0  0  0  0  0  0
  1  2  1  0
  2  3  1  0
  3  4  1  0
  4  5  1  0
  3  6  1  0
  6  7  1  0
  7  8  1  0
  8  9  1  0
  9 10  1  0
 10 11  2  0
 11 12  1  0
 12 13  2  0
 13 14  1  0
 14 15  1  0
 14 16  2  0
 16 10  1  0
  1 17  1  0
  1 18  1  0
  1 19  1  0
  2 20  1  0
  2 21  1  0
  3 22  1  0
  4 23  1  0
  4 24  1  0
  5 25  1  0
  5 26  1  0
  5 27  1  0
  6 28  1  0
  6 29  1  0
  7 30  1  0
  7 31  1  0
  8 32  1  0
  9 33  1  0
  9 34  1  0
 11 35  1  0
 12 36  1  0
 13 37  1  0
 16 38  1  0
M  CHG  1   3   1
M  END
>  <UniqueID>  (20) 
20

>  <SMILES>  (20) 
CC[NH+](CC)CCNCc1cccc(Br)c1

>  <Energy>  (20) 
35.2695332248079

>  <Genealogy>  (20) 
CC[NH+](CC)CCNCc1cccc(Br)c1 (protonated)
CC[NH+](CC)CCNCc1cccc(Br)c1 (3D coordinates assigned)
CC[NH+](CC)CCNCc1cccc(Br)c1 (optimized conformer: 35.2695332248079 kcal/mol)

>  <smiles>  (20) 
CCN(CC)CCNCc1cccc(Br)c1

>  <score_type>  (20) 
oracle

>  <origin>  (20) 
adg

>  <m_score__min__energy>  (20) 
-5.7000000000000002

>  <m_primary>  (20) 
energy

$$$$
20:0
     RDKit          3D

 48 50  0  0  0  0  0  0  0  0999 V2000
   -2.2620   21.5110  -32.3400 C   0  0  0  0  0  0  0  0  0  0  0  0
   -2.1900   19.9890  -32.3260 C   0  0  0  0  0  0  0  0  0  0  0  0
   -3.4760   19.4180  -32.7110 N   0  0  0  0  0  0  0  0  0  0  0  0
   -4.6100   19.4630  -31.9830 C   0  0  0  0  0  0  0  0  0  0  0  0
   -5.6140   18.8710  -32.7190 C   0  0  0  0  0  0  0  0  0  0  0  0
   -7.0490   18.7090  -32.3130 C   0  0  0  0  0  0  0  0  0  0  0  0
   -7.7810   19.9770  -32.4920 N   0  0  0  0  0  0  0  0  0  0  0  0
   -8.4380   20.3770  -31.2260 C   0  0  0  0  0  0  0  0  0  0  0  0
   -8.8180   21.8640  -31.2380 C   0  0  0  0  0  0  0  0  0  0  0  0
   -7.6340   22.7500  -31.4060 N   0  0  0  0  0  0  0  0  0  0  0  0
   -7.2390   23.3980  -30.1400 C   0  0  0  0  0  0  0  0  0  0  0  0
   -5.8270   23.8930  -30.2250 C   0  0  0  0  0  0  0  0  0  0  0  0
   -5.3610   24.9840  -30.9340 C   0  0  0  0  0  0  0  0  0  0  0  0
   -4.0240   25.0680  -30.7850 N   0  0  0  0  0  0  0  0  0  0  0  0
   -3.6470   24.0720  -29.9970 N   0  0  0  0  0  0  0  0  0  0  0  0
   -2.2600   23.7860  -29.6590 C   0  0  0  0  0  0  0  0  0  0  0  0
   -4.7120   23.3270  -29.6480 C   0  0  0  0  0  0  0  0  0  0  0  0
   -6.4730   22.0680  -32.0220 C   0  0  0  0  0  0  0  0  0  0  0  0
   -6.9230   21.0430  -33.0720 C   0  0  0  0  0  0  0  0  0  0  0  0
   -5.0090   18.4960  -33.9090 C   0  0  0  0  0  0  0  0  0  0  0  0
   -5.6670   17.8320  -35.0740 C   0  0  0  0  0  0  0  0  0  0  0  0
   -3.7080   18.8480  -33.8840 N   0  0  0  0  0  0  0  0  0  0  0  0
   -2.2798   21.8868  -31.3063 H   0  0  0  0  0  0  0  0  0  0  0  0
   -1.3820   21.9149  -32.8619 H   0  0  0  0  0  0  0  0  0  0  0  0
   -3.1762   21.8300  -32.8619 H   0  0  0  0  0  0  0  0  0  0  0  0
   -1.4180   19.6557  -33.0352 H   0  0  0  0  0  0  0  0  0  0  0  0
   -1.9386   19.6519  -31.3096 H   0  0  0  0  0  0  0  0  0  0  0  0
   -4.7155   19.8964  -30.9775 H   0  0  0  0  0  0  0  0  0  0  0  0
   -7.5157   17.9304  -32.9343 H   0  0  0  0  0  0  0  0  0  0  0  0
   -7.0890   18.4209  -31.2521 H   0  0  0  0  0  0  0  0  0  0  0  0
   -9.3491   19.7758  -31.0901 H   0  0  0  0  0  0  0  0  0  0  0  0
   -7.7314   20.2068  -30.4003 H   0  0  0  0  0  0  0  0  0  0  0  0
   -9.5149   22.0440  -32.0698 H   0  0  0  0  0  0  0  0  0  0  0  0
   -9.2793   22.1005  -30.2678 H   0  0  0  0  0  0  0  0  0  0  0  0
   -7.9096   24.2474  -29.9429 H   0  0  0  0  0  0  0  0  0  0  0  0
   -7.3109   22.6627  -29.3251 H   0  0  0  0  0  0  0  0  0  0  0  0
   -5.9818   25.6733  -31.5252 H   0  0  0  0  0  0  0  0  0  0  0  0
   -2.1465   23.7626  -28.5651 H   0  0  0  0  0  0  0  0  0  0  0  0
   -1.9742   22.8100  -30.0783 H   0  0  0  0  0  0  0  0  0  0  0  0
   -1.6114   24.5693  -30.0783 H   0  0  0  0  0  0  0  0  0  0  0  0
   -4.6950   22.4273  -29.0153 H   0  0  0  0  0  0  0  0  0  0  0  0
   -5.8313   22.8190  -32.5059 H   0  0  0  0  0  0  0  0  0  0  0  0
   -5.9218   21.5373  -31.2317 H   0  0  0  0  0  0  0  0  0  0  0  0
   -7.4907   21.5661  -33.8556 H   0  0  0  0  0  0  0  0  0  0  0  0
   -6.0213   20.5628  -33.4799 H   0  0  0  0  0  0  0  0  0  0  0  0
   -6.3979   17.0944  -34.7109 H   0  0  0  0  0  0  0  0  0  0  0  0
   -6.1818   18.5885  -35.6845 H   0  0  0  0  0  0  0  0  0  0  0  0
   -4.9059   17.3241  -35.6845 H   0  0  0  0  0  0  0  0  0  0  0  0
  1  2  1  0
  2  3  1  0
  3  4  1  0
  4  5  2  0
  5  6  1  0
  6  7  1  0
  7  8  1  0
  8  9  1  0
  9 10  1  0
 10 11  1  0
 11 12  1  0
 12 13  1  0
 13 14  2  0
 14 15  1  0
 15 16  1  0
 15 17  1  0
 10 18  1  0
 18 19  1  0
  5 20  1  0
 20 21  1  0
 20 22  2  0
 22  3  1  0
 19  7  1  0
 17 12  2  0
  1 23  1  0
  1 24  1  0
  1 25  1  0
  2 26  1  0
  2 27  1  0
  4 28  1  0
  6 29  1  0
  6 30  1  0
  8 31  1  0
  8 32  1  0
  9 33  1  0
  9 34  1  0
 11 35  1  0
 11 36  1  0
 13 37  1  0
 16 38  1  0
 16 39  1  0
 16 40  1  0
 17 41  1  0
 18 42  1  0
 18 43  1  0
 19 44  1  0
 19 45  1  0
 21 46  1  0
 21 47  1  0
 21 48  1  0
M  END
>  <UniqueID>  (21) 
21

>  <SMILES>  (21) 
CCn1cc(CN2CCN(Cc3cnn(C)c3)CC2)c(C)n1

>  <Energy>  (21) 
113.36463693270078

>  <Genealogy>  (21) 
CCn1cc(CN2CCN(Cc3cnn(C)c3)CC2)c(C)n1 (3D coordinates assigned)
CCn1cc(CN2CCN(Cc3cnn(C)c3)CC2)c(C)n1 (nonaromatic ring conformer: 113.36463693270078 kcal/mol)

>  <smiles>  (21) 
CCn1cc(CN2CCN(Cc3cnn(C)c3)CC2)c(C)n1

>  <score_type>  (21) 
oracle

>  <origin>  (21) 
adg

>  <m_score__min__energy>  (21) 
-7.8700000000000001

>  <m_primary>  (21) 
energy

$$$$
21:0
     RDKit          3D

 36 38  0  0  0  0  0  0  0  0999 V2000
   -7.2450   17.6720  -33.6260 F   0  0  0  0  0  0  0  0  0  0  0  0
   -6.3250   18.6550  -33.4590 C   0  0  0  0  0  0  0  0  0  0  0  0
   -6.7080   19.8700  -32.8820 C   0  0  0  0  0  0  0  0  0  0  0  0
   -5.7720   20.9040  -32.7060 C   0  0  0  0  0  0  0  0  0  0  0  0
   -6.2090   22.1890  -32.1140 C   0  0  0  0  0  0  0  0  0  0  0  0
   -7.4990   22.5530  -31.7590 C   0  0  0  0  0  0  0  0  0  0  0  0
   -7.4010   23.8170  -31.2170 C   0  0  0  0  0  0  0  0  0  0  0  0
   -6.0620   24.1430  -31.2660 C   0  0  0  0  0  0  0  0  0  0  0  0
   -5.4520   25.4220  -30.7680 C   0  0  0  0  0  0  0  0  0  0  0  0
   -4.0230   25.2730  -30.4460 N   0  0  0  0  0  0  0  0  0  0  0  0
   -3.7710   24.4590  -29.2440 C   0  0  0  0  0  0  0  0  0  0  0  0
   -2.3080   24.4330  -28.8630 C   0  0  0  0  0  0  0  0  0  0  0  0
   -1.7630   25.4550  -28.0720 C   0  0  0  0  0  0  0  0  0  0  0  0
   -0.3990   25.4400  -27.7710 C   0  0  0  0  0  0  0  0  0  0  0  0
    0.3910   24.4380  -28.2380 N   0  0  0  0  0  0  0  0  0  0  0  0
   -0.1110   23.4300  -28.9980 C   0  0  0  0  0  0  0  0  0  0  0  0
   -1.4700   23.4060  -29.3220 C   0  0  0  0  0  0  0  0  0  0  0  0
   -5.3810   23.1650  -31.8180 O   0  0  0  0  0  0  0  0  0  0  0  0
   -4.4420   20.6970  -33.1150 C   0  0  0  0  0  0  0  0  0  0  0  0
   -4.0600   19.4800  -33.6890 C   0  0  0  0  0  0  0  0  0  0  0  0
   -4.9990   18.4580  -33.8630 C   0  0  0  0  0  0  0  0  0  0  0  0
   -4.5080   16.9370  -34.5880 Cl  0  0  0  0  0  0  0  0  0  0  0  0
   -7.7504   20.0178  -32.5632 H   0  0  0  0  0  0  0  0  0  0  0  0
   -8.4139   21.9553  -31.8842 H   0  0  0  0  0  0  0  0  0  0  0  0
   -8.2213   24.4371  -30.8263 H   0  0  0  0  0  0  0  0  0  0  0  0
   -5.5606   26.1919  -31.5462 H   0  0  0  0  0  0  0  0  0  0  0  0
   -5.9766   25.7068  -29.8440 H   0  0  0  0  0  0  0  0  0  0  0  0
   -3.4930   24.9050  -31.2690 H   0  0  0  0  0  0  0  0  0  0  0  0
   -4.3471   24.8784  -28.4060 H   0  0  0  0  0  0  0  0  0  0  0  0
   -4.0783   23.4266  -29.4670 H   0  0  0  0  0  0  0  0  0  0  0  0
   -2.4053   26.2628  -27.6913 H   0  0  0  0  0  0  0  0  0  0  0  0
    0.0362   26.2406  -27.1549 H   0  0  0  0  0  0  0  0  0  0  0  0
    0.5536   22.6313  -29.3590 H   0  0  0  0  0  0  0  0  0  0  0  0
   -1.8797   22.5878  -29.9325 H   0  0  0  0  0  0  0  0  0  0  0  0
   -3.6983   21.4966  -32.9827 H   0  0  0  0  0  0  0  0  0  0  0  0
   -3.0176   19.3261  -34.0046 H   0  0  0  0  0  0  0  0  0  0  0  0
  1  2  1  0
  2  3  2  0
  3  4  1  0
  4  5  1  0
  5  6  2  0
  6  7  1  0
  7  8  2  0
  8  9  1  0
  9 10  1  0
 10 11  1  0
 11 12  1  0
 12 13  2  0
 13 14  1  0
 14 15  2  0
 15 16  1  0
 16 17  2  0
  8 18  1  0
  4 19  2  0
 19 20  1  0
 20 21  2  0
 21 22  1  0
 21  2  1  0
 18  5  1  0
 17 12  1  0
  3 23  1  0
  6 24  1  0
  7 25  1  0
  9 26  1  0
  9 27  1  0
 10 28  1  0
 11 29  1  0
 11 30  1  0
 13 31  1  0
 14 32  1  0
 16 33  1  0
 17 34  1  0
 19 35  1  0
 20 36  1  0
M  END
>  <UniqueID>  (22) 
22

>  <SMILES>  (22) 
Fc1cc(-c2ccc(CNCc3ccncc3)o2)ccc1Cl

>  <Energy>  (22) 
64.08681248272802

>  <Genealogy>  (22) 
Fc1cc(-c2ccc(CNCc3ccncc3)o2)ccc1Cl (3D coordinates assigned)
Fc1cc(-c2ccc(CNCc3ccncc3)o2)ccc1Cl (optimized conformer: 64.08681248272802 kcal/mol)

>  <smiles>  (22) 
Fc1cc(-c2ccc(CNCc3ccncc3)o2)ccc1Cl

>  <score_type>  (22) 
oracle

>  <origin>  (22) 
adg

>  <m_score__min__energy>  (22) 
-8.4000000000000004

>  <m_primary>  (22) 
energy

$$$$
22:0
     RDKit          3D

 35 37  0  0  0  0  0  0  0  0999 V2000
   -0.4960   22.7040  -28.5720 C   0  0  0  0  0  0  0  0  0  0  0  0
   -1.1180   22.6830  -27.3300 C   0  0  0  0  0  0  0  0  0  0  0  0
   -2.7060   23.2000  -27.5260 S   0  0  0  0  0  0  0  0  0  0  0  0
   -2.6130   23.4530  -29.1860 C   0  0  0  0  0  0  0  0  0  0  0  0
   -3.7170   23.9340  -30.0260 C   0  0  0  0  0  0  0  0  0  0  0  0
   -4.8020   23.2050  -30.4650 C   0  0  0  0  0  0  0  0  0  0  0  0
   -5.5220   24.1190  -31.2050 C   0  0  0  0  0  0  0  0  0  0  0  0
   -6.7890   23.8410  -31.9670 C   0  0  0  0  0  0  0  0  0  0  0  0
   -7.2440   22.4380  -31.7920 N   0  0  1  0  0  0  0  0  0  0  0  0
   -8.7230   22.3440  -31.9730 C   0  0  0  0  0  0  0  0  0  0  0  0
   -9.3630   21.0010  -31.5590 C   0  0  0  0  0  0  0  0  0  0  0  0
   -8.5050   19.7600  -31.8790 C   0  0  0  0  0  0  0  0  0  0  0  0
   -7.2390   19.7390  -31.2460 O   0  0  0  0  0  0  0  0  0  0  0  0
   -6.2090   20.1490  -32.1260 C   0  0  0  0  0  0  0  0  0  0  0  0
   -6.4850   21.5550  -32.7190 C   0  0  0  0  0  0  0  0  0  0  0  0
   -4.8890   25.3080  -31.2060 N   0  0  0  0  0  0  0  0  0  0  0  0
   -3.8150   25.1610  -30.4860 O   0  0  0  0  0  0  0  0  0  0  0  0
   -1.3290   23.1350  -29.6120 C   0  0  0  0  0  0  0  0  0  0  0  0
    0.5529   22.4096  -28.7243 H   0  0  0  0  0  0  0  0  0  0  0  0
   -0.6516   22.3801  -26.3810 H   0  0  0  0  0  0  0  0  0  0  0  0
   -5.0368   22.1480  -30.2713 H   0  0  0  0  0  0  0  0  0  0  0  0
   -7.5771   24.5181  -31.6058 H   0  0  0  0  0  0  0  0  0  0  0  0
   -6.5864   24.0029  -33.0360 H   0  0  0  0  0  0  0  0  0  0  0  0
   -7.0040   22.1720  -30.8080 H   0  0  0  0  0  0  0  0  0  0  0  0
   -9.1884   23.1397  -31.3728 H   0  0  0  0  0  0  0  0  0  0  0  0
   -8.9000   22.4404  -33.0544 H   0  0  0  0  0  0  0  0  0  0  0  0
   -9.5415   21.0252  -30.4738 H   0  0  0  0  0  0  0  0  0  0  0  0
  -10.2891   20.9013  -32.1442 H   0  0  0  0  0  0  0  0  0  0  0  0
   -9.0623   18.8665  -31.5611 H   0  0  0  0  0  0  0  0  0  0  0  0
   -8.3116   19.7858  -32.9616 H   0  0  0  0  0  0  0  0  0  0  0  0
   -5.2582   20.1758  -31.5735 H   0  0  0  0  0  0  0  0  0  0  0  0
   -6.1627   19.4300  -32.9572 H   0  0  0  0  0  0  0  0  0  0  0  0
   -5.5217   22.0337  -32.9492 H   0  0  0  0  0  0  0  0  0  0  0  0
   -7.1005   21.4171  -33.6202 H   0  0  0  0  0  0  0  0  0  0  0  0
   -1.0006   23.2138  -30.6589 H   0  0  0  0  0  0  0  0  0  0  0  0
  1  2  2  0
  2  3  1  0
  3  4  1  0
  4  5  1  0
  5  6  2  0
  6  7  1  0
  7  8  1  0
  8  9  1  0
  9 10  1  0
 10 11  1  0
 11 12  1  0
 12 13  1  0
 13 14  1  0
 14 15  1  0
  7 16  2  0
 16 17  1  0
  4 18  2  0
 18  1  1  0
 17  5  1  0
 15  9  1  0
  1 19  1  0
  2 20  1  0
  6 21  1  0
  8 22  1  0
  8 23  1  0
  9 24  1  1
 10 25  1  0
 10 26  1  0
 11 27  1  0
 11 28  1  0
 12 29  1  0
 12 30  1  0
 14 31  1  0
 14 32  1  0
 15 33  1  0
 15 34  1  0
 18 35  1  0
M  CHG  1   9   1
M  END
>  <UniqueID>  (23) 
23

>  <SMILES>  (23) 
c1csc(-c2cc(C[N@H+]3CCCOCC3)no2)c1

>  <Energy>  (23) 
108.09136135580913

>  <Genealogy>  (23) 
c1csc(-c2cc(C[NH+]3CCCOCC3)no2)c1 (protonated)
c1csc(-c2cc(C[N@H+]3CCCOCC3)no2)c1 (chirality)
c1csc(-c2cc(C[N@H+]3CCCOCC3)no2)c1 (3D coordinates assigned)
c1csc(-c2cc(C[N@H+]3CCCOCC3)no2)c1 (nonaromatic ring conformer: 108.09136135580913 kcal/mol)

>  <smiles>  (23) 
c1csc(-c2cc(CN3CCCOCC3)no2)c1

>  <score_type>  (23) 
oracle

>  <origin>  (23) 
adg

>  <m_score__min__energy>  (23) 
-5.21

>  <m_primary>  (23) 
energy

$$$$
23:0
     RDKit          3D

 32 34  0  0  0  0  0  0  0  0999 V2000
   -2.3240   19.0000  -33.8230 C   0  0  0  0  0  0  0  0  0  0  0  0
   -3.3480   18.0030  -34.1580 N   0  0  0  0  0  0  0  0  0  0  0  0
   -2.9680   16.8390  -34.9680 C   0  0  0  0  0  0  0  0  0  0  0  0
   -4.7100   18.1640  -33.6900 C   0  0  0  0  0  0  0  0  0  0  0  0
   -5.5720   17.0590  -33.6270 C   0  0  0  0  0  0  0  0  0  0  0  0
   -6.8750   17.2210  -33.1740 C   0  0  0  0  0  0  0  0  0  0  0  0
   -7.3290   18.4820  -32.7780 C   0  0  0  0  0  0  0  0  0  0  0  0
   -8.6430   18.6340  -32.3290 C   0  0  0  0  0  0  0  0  0  0  0  0
   -9.1130   19.8800  -31.9360 C   0  0  0  0  0  0  0  0  0  0  0  0
   -8.2760   21.0010  -31.9770 C   0  0  0  0  0  0  0  0  0  0  0  0
   -8.7780   22.2470  -31.5690 C   0  0  0  0  0  0  0  0  0  0  0  0
   -7.9650   23.3770  -31.5920 C   0  0  0  0  0  0  0  0  0  0  0  0
   -6.6450   23.2760  -32.0200 C   0  0  0  0  0  0  0  0  0  0  0  0
   -6.1250   22.0460  -32.4330 C   0  0  0  0  0  0  0  0  0  0  0  0
   -6.9290   20.8790  -32.4270 C   0  0  0  0  0  0  0  0  0  0  0  0
   -6.4500   19.5940  -32.8410 C   0  0  0  0  0  0  0  0  0  0  0  0
   -5.1700   19.3950  -33.3030 N   0  0  0  0  0  0  0  0  0  0  0  0
   -2.2378   19.0839  -32.7296 H   0  0  0  0  0  0  0  0  0  0  0  0
   -1.3569   18.6881  -34.2442 H   0  0  0  0  0  0  0  0  0  0  0  0
   -2.6100   19.9751  -34.2442 H   0  0  0  0  0  0  0  0  0  0  0  0
   -2.6955   16.0044  -34.3053 H   0  0  0  0  0  0  0  0  0  0  0  0
   -3.8157   16.5415  -35.6028 H   0  0  0  0  0  0  0  0  0  0  0  0
   -2.1081   17.0990  -35.6028 H   0  0  0  0  0  0  0  0  0  0  0  0
   -5.2163   16.0651  -33.9361 H   0  0  0  0  0  0  0  0  0  0  0  0
   -7.5512   16.3547  -33.1268 H   0  0  0  0  0  0  0  0  0  0  0  0
   -9.3101   17.7604  -32.2865 H   0  0  0  0  0  0  0  0  0  0  0  0
  -10.1516   19.9870  -31.5896 H   0  0  0  0  0  0  0  0  0  0  0  0
   -9.8207   22.3310  -31.2289 H   0  0  0  0  0  0  0  0  0  0  0  0
   -8.3663   24.3498  -31.2717 H   0  0  0  0  0  0  0  0  0  0  0  0
   -6.0057   24.1710  -32.0335 H   0  0  0  0  0  0  0  0  0  0  0  0
   -5.0788   21.9831  -32.7668 H   0  0  0  0  0  0  0  0  0  0  0  0
   -4.5130   20.1910  -33.3990 H   0  0  0  0  0  0  0  0  0  0  0  0
  1  2  1  0
  2  3  1  0
  2  4  1  0
  4  5  2  0
  5  6  1  0
  6  7  2  0
  7  8  1  0
  8  9  2  0
  9 10  1  0
 10 11  2  0
 11 12  1  0
 12 13  2  0
 13 14  1  0
 14 15  2  0
 15 16  1  0
 16 17  2  0
 17  4  1  0
 16  7  1  0
 15 10  1  0
  1 18  1  0
  1 19  1  0
  1 20  1  0
  3 21  1  0
  3 22  1  0
  3 23  1  0
  5 24  1  0
  6 25  1  0
  8 26  1  0
  9 27  1  0
 11 28  1  0
 12 29  1  0
 13 30  1  0
 14 31  1  0
 17 32  1  0
M  CHG  1  17   1
M  END
>  <UniqueID>  (24) 
24

>  <SMILES>  (24) 
CN(C)c1ccc2ccc3ccccc3c2[nH+]1

>  <Energy>  (24) 
46.96284945910001

>  <Genealogy>  (24) 
CN(C)c1ccc2ccc3ccccc3c2[nH+]1 (protonated)
CN(C)c1ccc2ccc3ccccc3c2[nH+]1 (3D coordinates assigned)
CN(C)c1ccc2ccc3ccccc3c2[nH+]1 (optimized conformer: 46.96284945910001 kcal/mol)

>  <smiles>  (24) 
CN(C)c1ccc2ccc3ccccc3c2n1

>  <score_type>  (24) 
oracle

>  <origin>  (24) 
adg

>  <m_score__min__energy>  (24) 
-6.5499999999999998

>  <m_primary>  (24) 
energy

$$$$
24:0
     RDKit          3D

 47 50  0  0  0  0  0  0  0  0999 V2000
   -6.3390   16.1710  -34.2140 C   0  0  0  0  0  0  0  0  0  0  0  0
   -5.5440   17.1130  -33.4070 N   0  0  0  0  0  0  0  0  0  0  0  0
   -5.7300   16.9030  -31.9510 C   0  0  0  0  0  0  0  0  0  0  0  0
   -6.7770   17.8450  -31.3260 C   0  0  0  0  0  0  0  0  0  0  0  0
   -7.7920   18.2050  -32.3280 N   0  0  0  0  0  0  0  0  0  0  0  0
   -8.9240   18.9140  -31.6950 C   0  0  0  0  0  0  0  0  0  0  0  0
   -8.7150   20.4040  -31.7550 C   0  0  0  0  0  0  0  0  0  0  0  0
   -9.6890   21.2460  -32.3070 C   0  0  0  0  0  0  0  0  0  0  0  0
   -9.4980   22.5910  -32.3250 N   0  0  0  0  0  0  0  0  0  0  0  0
   -8.3780   23.1640  -31.8120 C   0  0  0  0  0  0  0  0  0  0  0  0
   -7.3710   22.3690  -31.2410 C   0  0  0  0  0  0  0  0  0  0  0  0
   -6.1460   22.9840  -30.6690 C   0  0  0  0  0  0  0  0  0  0  0  0
   -6.1960   24.2610  -30.0830 C   0  0  0  0  0  0  0  0  0  0  0  0
   -5.0490   24.8440  -29.5410 C   0  0  0  0  0  0  0  0  0  0  0  0
   -3.8260   24.1590  -29.5750 C   0  0  0  0  0  0  0  0  0  0  0  0
   -2.6670   24.7360  -29.0320 C   0  0  0  0  0  0  0  0  0  0  0  0
   -1.4530   24.0430  -29.0740 C   0  0  0  0  0  0  0  0  0  0  0  0
   -1.3880   22.7740  -29.6550 C   0  0  0  0  0  0  0  0  0  0  0  0
   -2.5350   22.1890  -30.1980 C   0  0  0  0  0  0  0  0  0  0  0  0
   -3.7600   22.8740  -30.1630 C   0  0  0  0  0  0  0  0  0  0  0  0
   -4.9180   22.2960  -30.7050 C   0  0  0  0  0  0  0  0  0  0  0  0
   -7.5540   20.9760  -31.2180 C   0  0  0  0  0  0  0  0  0  0  0  0
   -7.1880   19.0140  -33.4130 C   0  0  0  0  0  0  0  0  0  0  0  0
   -5.7780   18.5150  -33.8020 C   0  0  0  0  0  0  0  0  0  0  0  0
   -6.9032   15.5024  -33.5472 H   0  0  0  0  0  0  0  0  0  0  0  0
   -7.0400   16.7329  -34.8487 H   0  0  0  0  0  0  0  0  0  0  0  0
   -5.6673   15.5744  -34.8487 H   0  0  0  0  0  0  0  0  0  0  0  0
   -6.0532   15.8644  -31.7869 H   0  0  0  0  0  0  0  0  0  0  0  0
   -4.7669   17.1201  -31.4658 H   0  0  0  0  0  0  0  0  0  0  0  0
   -7.2641   17.3381  -30.4800 H   0  0  0  0  0  0  0  0  0  0  0  0
   -6.2761   18.7593  -30.9750 H   0  0  0  0  0  0  0  0  0  0  0  0
   -9.8532   18.6575  -32.2248 H   0  0  0  0  0  0  0  0  0  0  0  0
   -8.9905   18.6069  -30.6408 H   0  0  0  0  0  0  0  0  0  0  0  0
  -10.6108   20.8171  -32.7269 H   0  0  0  0  0  0  0  0  0  0  0  0
   -8.2593   24.2571  -31.8441 H   0  0  0  0  0  0  0  0  0  0  0  0
   -7.1502   24.8073  -30.0512 H   0  0  0  0  0  0  0  0  0  0  0  0
   -5.1049   25.8439  -29.0859 H   0  0  0  0  0  0  0  0  0  0  0  0
   -2.7139   25.7345  -28.5729 H   0  0  0  0  0  0  0  0  0  0  0  0
   -0.5466   24.4983  -28.6484 H   0  0  0  0  0  0  0  0  0  0  0  0
   -0.4304   22.2335  -29.6851 H   0  0  0  0  0  0  0  0  0  0  0  0
   -2.4780   21.1895  -30.6539 H   0  0  0  0  0  0  0  0  0  0  0  0
   -4.8660   21.2968  -31.1620 H   0  0  0  0  0  0  0  0  0  0  0  0
   -6.7810   20.3305  -30.7756 H   0  0  0  0  0  0  0  0  0  0  0  0
   -7.8388   18.9605  -34.2982 H   0  0  0  0  0  0  0  0  0  0  0  0
   -7.0903   20.0470  -33.0477 H   0  0  0  0  0  0  0  0  0  0  0  0
   -5.6635   18.5976  -34.8929 H   0  0  0  0  0  0  0  0  0  0  0  0
   -5.0449   19.1383  -33.2690 H   0  0  0  0  0  0  0  0  0  0  0  0
  1  2  1  0
  2  3  1  0
  3  4  1  0
  4  5  1  0
  5  6  1  0
  6  7  1  0
  7  8  2  0
  8  9  1  0
  9 10  2  0
 10 11  1  0
 11 12  1  0
 12 13  2  0
 13 14  1  0
 14 15  2  0
 15 16  1  0
 16 17  2  0
 17 18  1  0
 18 19  2  0
 19 20  1  0
 20 21  2  0
 11 22  2  0
  5 23  1  0
 23 24  1  0
 24  2  1  0
 22  7  1  0
 21 12  1  0
 20 15  1  0
  1 25  1  0
  1 26  1  0
  1 27  1  0
  3 28  1  0
  3 29  1  0
  4 30  1  0
  4 31  1  0
  6 32  1  0
  6 33  1  0
  8 34  1  0
 10 35  1  0
 13 36  1  0
 14 37  1  0
 16 38  1  0
 17 39  1  0
 18 40  1  0
 19 41  1  0
 21 42  1  0
 22 43  1  0
 23 44  1  0
 23 45  1  0
 24 46  1  0
 24 47  1  0
M  END
>  <UniqueID>  (25) 
25

>  <SMILES>  (25) 
CN1CCN(Cc2cncc(-c3ccc4ccccc4c3)c2)CC1

>  <Energy>  (25) 
69.48742078397429

>  <Genealogy>  (25) 
CN1CCN(Cc2cncc(-c3ccc4ccccc4c3)c2)CC1 (3D coordinates assigned)
CN1CCN(Cc2cncc(-c3ccc4ccccc4c3)c2)CC1 (nonaromatic ring conformer: 69.48742078397429 kcal/mol)

>  <smiles>  (25) 
CN1CCN(Cc2cncc(-c3ccc4ccccc4c3)c2)CC1

>  <score_type>  (25) 
oracle

>  <origin>  (25) 
adg

>  <m_score__min__energy>  (25) 
-8.7300000000000004

>  <m_primary>  (25) 
energy

$$$$
25:0
     RDKit          3D

 57 60  0  0  0  0  0  0  0  0999 V2000
   -7.9140   18.9380  -32.3310 C   0  0  0  0  0  0  0  0  0  0  0  0
   -6.5500   18.7550  -32.9860 C   0  0  0  0  0  0  0  0  0  0  0  0
   -5.7490   19.9800  -32.8540 N   0  0  0  0  0  0  0  0  0  0  0  0
   -4.4070   19.8090  -33.4300 C   0  0  0  0  0  0  0  0  0  0  0  0
   -3.4780   20.9130  -32.9320 C   0  0  0  0  0  0  0  0  0  0  0  0
   -3.7200   21.1580  -31.5110 N   0  0  0  0  0  0  0  0  0  0  0  0
   -4.2470   22.2380  -31.0060 C   0  0  0  0  0  0  0  0  0  0  0  0
   -5.6820   22.5380  -31.2690 C   0  0  0  0  0  0  0  0  0  0  0  0
   -6.6980   21.9940  -30.4570 C   0  0  0  0  0  0  0  0  0  0  0  0
   -8.0430   22.2820  -30.7130 C   0  0  0  0  0  0  0  0  0  0  0  0
   -8.3920   23.1100  -31.7800 C   0  0  0  0  0  0  0  0  0  0  0  0
   -7.3980   23.6520  -32.5970 C   0  0  0  0  0  0  0  0  0  0  0  0
   -6.0520   23.3690  -32.3460 C   0  0  0  0  0  0  0  0  0  0  0  0
   -3.4260   23.1730  -30.2070 C   0  0  0  0  0  0  0  0  0  0  0  0
   -3.5070   24.5610  -30.1820 C   0  0  0  0  0  0  0  0  0  0  0  0
   -4.3830   25.3270  -30.9450 O   0  0  0  0  0  0  0  0  0  0  0  0
   -2.6200   25.1080  -29.3170 N   0  0  0  0  0  0  0  0  0  0  0  0
   -1.9790   24.0460  -28.7880 C   0  0  0  0  0  0  0  0  0  0  0  0
   -0.9760   24.0780  -27.8220 C   0  0  0  0  0  0  0  0  0  0  0  0
   -0.4430   22.8540  -27.3810 C   0  0  0  0  0  0  0  0  0  0  0  0
   -0.9110   21.6300  -27.9170 C   0  0  0  0  0  0  0  0  0  0  0  0
   -0.3760   20.3830  -27.4700 N   0  0  0  0  0  0  0  0  0  0  0  0
    0.7080   19.4280  -28.4270 S   0  0  0  0  0  0  0  0  0  0  0  0
    0.6900   18.0100  -27.9290 O   0  0  0  0  0  0  0  0  0  0  0  0
    2.1030   19.9690  -28.2710 O   0  0  0  0  0  0  0  0  0  0  0  0
    0.2690   19.4610  -30.1330 C   0  0  0  0  0  0  0  0  0  0  0  0
    0.2580   20.6740  -30.8390 C   0  0  0  0  0  0  0  0  0  0  0  0
   -0.1190   20.6980  -32.1850 C   0  0  0  0  0  0  0  0  0  0  0  0
   -0.4890   19.5150  -32.8310 C   0  0  0  0  0  0  0  0  0  0  0  0
   -0.4830   18.3050  -32.1310 C   0  0  0  0  0  0  0  0  0  0  0  0
   -0.1050   18.2770  -30.7840 C   0  0  0  0  0  0  0  0  0  0  0  0
   -1.9460   21.6280  -28.8700 C   0  0  0  0  0  0  0  0  0  0  0  0
   -2.4420   22.8600  -29.2980 C   0  0  0  0  0  0  0  0  0  0  0  0
   -7.8004   18.9228  -31.2370 H   0  0  0  0  0  0  0  0  0  0  0  0
   -8.3436   19.9018  -32.6416 H   0  0  0  0  0  0  0  0  0  0  0  0
   -8.5824   18.1215  -32.6416 H   0  0  0  0  0  0  0  0  0  0  0  0
   -6.0222   17.9226  -32.4975 H   0  0  0  0  0  0  0  0  0  0  0  0
   -6.6940   18.5366  -34.0544 H   0  0  0  0  0  0  0  0  0  0  0  0
   -5.6310   20.1770  -31.8310 H   0  0  0  0  0  0  0  0  0  0  0  0
   -4.0038   18.8308  -33.1290 H   0  0  0  0  0  0  0  0  0  0  0  0
   -4.4761   19.8639  -34.5265 H   0  0  0  0  0  0  0  0  0  0  0  0
   -2.4323   20.6037  -33.0767 H   0  0  0  0  0  0  0  0  0  0  0  0
   -3.6725   21.8355  -33.4987 H   0  0  0  0  0  0  0  0  0  0  0  0
   -6.4311   21.3379  -29.6154 H   0  0  0  0  0  0  0  0  0  0  0  0
   -8.8273   21.8544  -30.0712 H   0  0  0  0  0  0  0  0  0  0  0  0
   -9.4503   23.3359  -31.9777 H   0  0  0  0  0  0  0  0  0  0  0  0
   -7.6743   24.3028  -33.4397 H   0  0  0  0  0  0  0  0  0  0  0  0
   -5.2746   23.7987  -32.9948 H   0  0  0  0  0  0  0  0  0  0  0  0
   -4.1090   25.6970  -31.8470 H   0  0  0  0  0  0  0  0  0  0  0  0
   -0.6115   25.0331  -27.4160 H   0  0  0  0  0  0  0  0  0  0  0  0
    0.3444   22.8473  -26.6129 H   0  0  0  0  0  0  0  0  0  0  0  0
    0.5464   21.6070  -30.3326 H   0  0  0  0  0  0  0  0  0  0  0  0
   -0.1245   21.6496  -32.7367 H   0  0  0  0  0  0  0  0  0  0  0  0
   -0.7849   19.5361  -33.8902 H   0  0  0  0  0  0  0  0  0  0  0  0
   -0.7756   17.3744  -32.6393 H   0  0  0  0  0  0  0  0  0  0  0  0
   -0.1013   17.3240  -30.2347 H   0  0  0  0  0  0  0  0  0  0  0  0
   -2.3514   20.6849  -29.2652 H   0  0  0  0  0  0  0  0  0  0  0  0
  1  2  1  0
  2  3  1  0
  3  4  1  0
  4  5  1  0
  5  6  1  0
  6  7  2  3
  7  8  1  0
  8  9  2  0
  9 10  1  0
 10 11  2  0
 11 12  1  0
 12 13  2  0
  7 14  1  0
 14 15  2  0
 15 16  1  0
 15 17  1  0
 17 18  1  0
 18 19  2  0
 19 20  1  0
 20 21  2  0
 21 22  1  0
 22 23  1  0
 23 24  2  0
 23 25  2  0
 23 26  1  0
 26 27  2  0
 27 28  1  0
 28 29  2  0
 29 30  1  0
 30 31  2  0
 21 32  1  0
 32 33  2  0
 13  8  1  0
 33 14  1  0
 33 18  1  0
 31 26  1  0
  1 34  1  0
  1 35  1  0
  1 36  1  0
  2 37  1  0
  2 38  1  0
  3 39  1  0
  4 40  1  0
  4 41  1  0
  5 42  1  0
  5 43  1  0
  9 44  1  0
 10 45  1  0
 11 46  1  0
 12 47  1  0
 13 48  1  0
 16 49  1  0
 19 50  1  0
 20 51  1  0
 27 52  1  0
 28 53  1  0
 29 54  1  0
 30 55  1  0
 31 56  1  0
 32 57  1  0
M  CHG  2  17  -1  22  -1
M  END
>  <UniqueID>  (26) 
26

>  <SMILES>  (26) 
CCNCCN=C(c1ccccc1)c1c(O)[n-]c2ccc([N-]S(=O)(=O)c3ccccc3)cc12

>  <Energy>  (26) 
103.71376313640286

>  <Genealogy>  (26) 
CCNCCN=C(c1ccccc1)c1c(O)[n-]c2ccc([N-]S(=O)(=O)c3ccccc3)cc12 (protonated)
CCNCCN=C(c1ccccc1)c1c(O)[n-]c2ccc([N-]S(=O)(=O)c3ccccc3)cc12 (3D coordinates assigned)
CCNCCN=C(c1ccccc1)c1c(O)[n-]c2ccc([N-]S(=O)(=O)c3ccccc3)cc12 (optimized conformer: 103.71376313640286 kcal/mol)

>  <smiles>  (26) 
CCNCCN=C(c1ccccc1)c1c(O)[nH]c2ccc(NS(=O)(=O)c3ccccc3)cc12

>  <score_type>  (26) 
oracle

>  <origin>  (26) 
adg

>  <m_score__min__energy>  (26) 
-11.49

>  <m_primary>  (26) 
energy

$$$$
26:0
     RDKit          3D

 45 47  0  0  0  0  0  0  0  0999 V2000
    1.9392   22.8929  -26.4568 H   0  0  0  0  0  0  0  0  0  0  0  0
    1.1830   23.5290  -26.9400 C   0  0  0  0  0  0  0  0  0  0  0  0
    0.2070   22.9580  -27.7080 N   0  0  0  0  0  0  0  0  0  0  0  0
   -0.7100   23.7620  -28.3070 C   0  0  0  0  0  0  0  0  0  0  0  0
   -0.7060   25.1080  -28.1500 C   0  0  0  0  0  0  0  0  0  0  0  0
   -1.7500   25.6520  -28.7890 N   0  0  0  0  0  0  0  0  0  0  0  0
   -2.3760   24.5770  -29.3420 C   0  0  0  0  0  0  0  0  0  0  0  0
   -3.4540   24.7540  -30.0580 N   0  0  0  0  0  0  0  0  0  0  0  0
   -4.8740   24.7190  -29.7050 C   0  0  0  0  0  0  0  0  0  0  0  0
   -5.0530   25.3454  -28.8187 H   0  0  0  0  0  0  0  0  0  0  0  0
   -5.2970   23.2750  -29.3640 C   0  0  0  0  0  0  0  0  0  0  0  0
   -4.6753   22.9129  -28.5319 H   0  0  0  0  0  0  0  0  0  0  0  0
   -6.3634   23.2948  -29.0948 H   0  0  0  0  0  0  0  0  0  0  0  0
   -5.1340   22.3110  -30.5590 C   0  0  0  0  0  0  0  0  0  0  0  0
   -4.1269   21.8707  -30.5156 H   0  0  0  0  0  0  0  0  0  0  0  0
   -5.9265   21.5531  -30.4721 H   0  0  0  0  0  0  0  0  0  0  0  0
   -5.3090   22.9920  -31.9300 C   0  0  0  0  0  0  0  0  0  0  0  0
   -4.3260   23.3322  -32.2877 H   0  0  0  0  0  0  0  0  0  0  0  0
   -5.7478   22.2602  -32.6242 H   0  0  0  0  0  0  0  0  0  0  0  0
   -6.2500   24.1950  -31.8450 C   0  0  0  0  0  0  0  0  0  0  0  0
   -6.3624   24.6315  -32.8484 H   0  0  0  0  0  0  0  0  0  0  0  0
   -7.2183   23.8467  -31.4565 H   0  0  0  0  0  0  0  0  0  0  0  0
   -5.7080   25.2750  -30.8880 C   0  0  0  0  0  0  0  0  0  0  0  0
   -5.0708   25.9598  -31.4668 H   0  0  0  0  0  0  0  0  0  0  0  0
   -6.5839   25.7746  -30.4485 H   0  0  0  0  0  0  0  0  0  0  0  0
   -1.7530   23.3800  -29.0660 N   0  0  0  0  0  0  0  0  0  0  0  0
   -2.1610   21.9790  -29.2450 C   0  0  0  0  0  0  0  0  0  0  0  0
   -1.3137   21.4014  -29.6430 H   0  0  0  0  0  0  0  0  0  0  0  0
   -3.0058   21.9372  -29.9482 H   0  0  0  0  0  0  0  0  0  0  0  0
   -2.5990   21.3770  -27.8930 C   0  0  0  0  0  0  0  0  0  0  0  0
   -3.6941   21.4526  -27.8223 H   0  0  0  0  0  0  0  0  0  0  0  0
   -2.0762   21.9492  -27.1125 H   0  0  0  0  0  0  0  0  0  0  0  0
   -2.2200   19.9580  -27.6990 N   0  0  0  0  0  0  0  0  0  0  0  0
   -0.7760   19.7770  -27.4840 C   0  0  0  0  0  0  0  0  0  0  0  0
   -0.5665   19.7507  -26.4045 H   0  0  0  0  0  0  0  0  0  0  0  0
   -0.4526   18.8313  -27.9434 H   0  0  0  0  0  0  0  0  0  0  0  0
   -0.2292   20.6136  -27.9434 H   0  0  0  0  0  0  0  0  0  0  0  0
   -3.0030   19.2900  -26.6490 C   0  0  0  0  0  0  0  0  0  0  0  0
   -2.6348   19.6041  -25.6612 H   0  0  0  0  0  0  0  0  0  0  0  0
   -4.0629   19.5663  -26.7501 H   0  0  0  0  0  0  0  0  0  0  0  0
   -2.8971   18.1998  -26.7501 H   0  0  0  0  0  0  0  0  0  0  0  0
    0.2590   25.7430  -27.3770 C   0  0  0  0  0  0  0  0  0  0  0  0
    0.2646   26.8358  -27.2515 H   0  0  0  0  0  0  0  0  0  0  0  0
    1.2280   24.9300  -26.7620 C   0  0  0  0  0  0  0  0  0  0  0  0
    2.0178   25.3831  -26.1448 H   0  0  0  0  0  0  0  0  0  0  0  0
  1  2  1  0
  2  3  2  0
  3  4  1  0
  4  5  2  0
  5  6  1  0
  6  7  1  0
  7  8  2  0
  8  9  1  0
  9 10  1  0
  9 11  1  0
 11 12  1  0
 11 13  1  0
 11 14  1  0
 14 15  1  0
 14 16  1  0
 14 17  1  0
 17 18  1  0
 17 19  1  0
 17 20  1  0
 20 21  1  0
 20 22  1  0
 20 23  1  0
 23 24  1  0
 23 25  1  0
  7 26  1  0
 26 27  1  0
 27 28  1  0
 27 29  1  0
 27 30  1  0
 30 31  1  0
 30 32  1  0
 30 33  1  0
 33 34  1  0
 34 35  1  0
 34 36  1  0
 34 37  1  0
 33 38  1  0
 38 39  1  0
 38 40  1  0
 38 41  1  0
  5 42  1  0
 42 43  1  0
 42 44  2  0
 44 45  1  0
 44  2  1  0
 26  4  1  0
 23  9  1  0
M  CHG  1   6  -1
M  END
>  <UniqueID>  (27) 
27

>  <SMILES>  (27) 
CN(C)CCn1/c(=N\C2CCCCC2)[n-]c2cccnc21

>  <Energy>  (27) 
97.15238912930853

>  <Genealogy>  (27) 
CN(C)CCn1c(=NC2CCCCC2)[n-]c2cccnc21 (protonated)
CN(C)CCn1/c(=N\C2CCCCC2)[n-]c2cccnc21 (cis-trans isomerization)
CN(C)CCn1/c(=N\C2CCCCC2)[n-]c2cccnc21 (3D coordinates assigned)
CN(C)CCn1/c(=N\C2CCCCC2)[n-]c2cccnc21 (nonaromatic ring conformer: 97.15238912930853 kcal/mol)

>  <smiles>  (27) 
CN(C)CCn1c(=NC2CCCCC2)[nH]c2cccnc21

>  <score_type>  (27) 
oracle

>  <origin>  (27) 
adg

>  <m_score__min__energy>  (27) 
-7.8200000000000003

>  <m_primary>  (27) 
energy

$$$$
27:0
     RDKit          3D

 28 29  0  0  0  0  0  0  0  0999 V2000
   -8.9940   22.8730  -32.0330 O   0  0  0  0  0  0  0  0  0  0  0  0
   -8.3960   21.8230  -31.6740 C   0  0  0  0  0  0  0  0  0  0  0  0
   -9.0300   20.4910  -31.9350 C   0  0  0  0  0  0  0  0  0  0  0  0
   -8.0310   19.5570  -32.5600 C   0  0  0  0  0  0  0  0  0  0  0  0
   -8.0050   18.1990  -32.2000 C   0  0  0  0  0  0  0  0  0  0  0  0
   -7.0520   17.3410  -32.7570 C   0  0  0  0  0  0  0  0  0  0  0  0
   -6.1130   17.8330  -33.6700 C   0  0  0  0  0  0  0  0  0  0  0  0
   -5.1890   16.9990  -34.2070 F   0  0  0  0  0  0  0  0  0  0  0  0
   -6.1260   19.1850  -34.0230 C   0  0  0  0  0  0  0  0  0  0  0  0
   -7.0770   20.0460  -33.4680 C   0  0  0  0  0  0  0  0  0  0  0  0
   -7.0880   21.8950  -31.0890 N   0  0  0  0  0  0  0  0  0  0  0  0
   -6.4290   23.1390  -30.8220 C   0  0  0  0  0  0  0  0  0  0  0  0
   -7.0960   24.1250  -30.0850 C   0  0  0  0  0  0  0  0  0  0  0  0
   -6.4690   25.3420  -29.8150 C   0  0  0  0  0  0  0  0  0  0  0  0
   -5.1820   25.5690  -30.3000 C   0  0  0  0  0  0  0  0  0  0  0  0
   -4.5560   24.6170  -31.0410 N   0  0  0  0  0  0  0  0  0  0  0  0
   -5.1390   23.4190  -31.3160 C   0  0  0  0  0  0  0  0  0  0  0  0
   -4.2830   22.2910  -32.3560 Cl  0  0  0  0  0  0  0  0  0  0  0  0
   -9.3829   20.0635  -30.9849 H   0  0  0  0  0  0  0  0  0  0  0  0
   -9.8778   20.6244  -32.6231 H   0  0  0  0  0  0  0  0  0  0  0  0
   -8.7371   17.8096  -31.4773 H   0  0  0  0  0  0  0  0  0  0  0  0
   -7.0405   16.2773  -32.4769 H   0  0  0  0  0  0  0  0  0  0  0  0
   -5.3863   19.5725  -34.7391 H   0  0  0  0  0  0  0  0  0  0  0  0
   -7.0784   21.1110  -33.7433 H   0  0  0  0  0  0  0  0  0  0  0  0
   -6.5210   21.0180  -31.0380 H   0  0  0  0  0  0  0  0  0  0  0  0
   -8.1163   23.9399  -29.7181 H   0  0  0  0  0  0  0  0  0  0  0  0
   -6.9850   26.1142  -29.2256 H   0  0  0  0  0  0  0  0  0  0  0  0
   -4.6726   26.5194  -30.0828 H   0  0  0  0  0  0  0  0  0  0  0  0
  1  2  2  0
  2  3  1  0
  3  4  1  0
  4  5  2  0
  5  6  1  0
  6  7  2  0
  7  8  1  0
  7  9  1  0
  9 10  2  0
  2 11  1  0
 11 12  1  0
 12 13  2  0
 13 14  1  0
 14 15  2  0
 15 16  1  0
 16 17  2  0
 17 18  1  0
 10  4  1  0
 17 12  1  0
  3 19  1  0
  3 20  1  0
  5 21  1  0
  6 22  1  0
  9 23  1  0
 10 24  1  0
 11 25  1  0
 13 26  1  0
 14 27  1  0
 15 28  1  0
M  END
>  <UniqueID>  (28) 
28

>  <SMILES>  (28) 
O=C(Cc1ccc(F)cc1)Nc1cccnc1Cl

>  <Energy>  (28) 
33.150312859337575

>  <Genealogy>  (28) 
O=C(Cc1ccc(F)cc1)Nc1cccnc1Cl (3D coordinates assigned)
O=C(Cc1ccc(F)cc1)Nc1cccnc1Cl (optimized conformer: 33.150312859337575 kcal/mol)

>  <smiles>  (28) 
O=C(Cc1ccc(F)cc1)Nc1cccnc1Cl

>  <score_type>  (28) 
oracle

>  <origin>  (28) 
adg

>  <m_score__min__energy>  (28) 
-7.54

>  <m_primary>  (28) 
energy

$$$$
28:0
     RDKit          3D

 44 46  0  0  0  0  0  0  0  0999 V2000
   -1.9870   24.9290  -28.2170 C   0  0  0  0  0  0  0  0  0  0  0  0
   -2.7590   25.2970  -29.3500 O   0  0  0  0  0  0  0  0  0  0  0  0
   -3.9380   24.6550  -29.7500 C   0  0  0  0  0  0  0  0  0  0  0  0
   -5.1070   25.3600  -30.0970 C   0  0  0  0  0  0  0  0  0  0  0  0
   -6.2550   24.6670  -30.4870 C   0  0  0  0  0  0  0  0  0  0  0  0
   -6.2490   23.2660  -30.5640 C   0  0  0  0  0  0  0  0  0  0  0  0
   -7.7230   22.3770  -30.9840 S   0  0  0  0  0  0  0  0  0  0  0  0
   -8.6150   23.3060  -31.7600 O   0  0  0  0  0  0  0  0  0  0  0  0
   -8.4550   22.0260  -29.7160 O   0  0  0  0  0  0  0  0  0  0  0  0
   -7.4610   20.9060  -31.9170 N   0  0  0  0  0  0  0  0  0  0  0  0
   -6.6030   21.1090  -33.1100 C   0  0  0  0  0  0  0  0  0  0  0  0
   -5.5480   20.0400  -33.3180 C   0  0  0  0  0  0  0  0  0  0  0  0
   -4.3330   20.0900  -32.6080 C   0  0  0  0  0  0  0  0  0  0  0  0
   -3.3710   19.0880  -32.7770 C   0  0  0  0  0  0  0  0  0  0  0  0
   -3.6060   18.0360  -33.6630 C   0  0  0  0  0  0  0  0  0  0  0  0
   -4.7910   18.0010  -34.4050 C   0  0  0  0  0  0  0  0  0  0  0  0
   -5.0090   16.9950  -35.2920 F   0  0  0  0  0  0  0  0  0  0  0  0
   -5.7480   19.0100  -34.2480 C   0  0  0  0  0  0  0  0  0  0  0  0
   -8.6910   20.1320  -32.1860 C   0  0  0  0  0  0  0  0  0  0  0  0
   -8.6230   18.7300  -31.5620 C   0  0  0  0  0  0  0  0  0  0  0  0
   -7.9730   17.6660  -32.4380 C   0  0  0  0  0  0  0  0  0  0  0  0
   -7.2310   18.2180  -31.2290 C   0  0  0  0  0  0  0  0  0  0  0  0
   -5.0960   22.5630  -30.1800 C   0  0  0  0  0  0  0  0  0  0  0  0
   -3.9470   23.2540  -29.7930 C   0  0  0  0  0  0  0  0  0  0  0  0
   -2.5348   25.1901  -27.2995 H   0  0  0  0  0  0  0  0  0  0  0  0
   -1.8005   23.8451  -28.2367 H   0  0  0  0  0  0  0  0  0  0  0  0
   -1.0275   25.4666  -28.2367 H   0  0  0  0  0  0  0  0  0  0  0  0
   -5.1157   26.4594  -30.0607 H   0  0  0  0  0  0  0  0  0  0  0  0
   -7.1707   25.2235  -30.7356 H   0  0  0  0  0  0  0  0  0  0  0  0
   -7.2506   21.1295  -33.9989 H   0  0  0  0  0  0  0  0  0  0  0  0
   -6.0624   22.0532  -32.9482 H   0  0  0  0  0  0  0  0  0  0  0  0
   -4.1388   20.9225  -31.9157 H   0  0  0  0  0  0  0  0  0  0  0  0
   -2.4288   19.1297  -32.2109 H   0  0  0  0  0  0  0  0  0  0  0  0
   -2.8604   17.2354  -33.7777 H   0  0  0  0  0  0  0  0  0  0  0  0
   -6.6631   18.9949  -34.8582 H   0  0  0  0  0  0  0  0  0  0  0  0
   -9.5516   20.6703  -31.7622 H   0  0  0  0  0  0  0  0  0  0  0  0
   -8.7963   20.0197  -33.2752 H   0  0  0  0  0  0  0  0  0  0  0  0
   -9.5685   18.8191  -31.0069 H   0  0  0  0  0  0  0  0  0  0  0  0
   -8.3547   16.6344  -32.4256 H   0  0  0  0  0  0  0  0  0  0  0  0
   -7.7506   17.5703  -33.5110 H   0  0  0  0  0  0  0  0  0  0  0  0
   -7.0756   17.5847  -30.3431 H   0  0  0  0  0  0  0  0  0  0  0  0
   -6.2489   18.6862  -31.0671 H   0  0  0  0  0  0  0  0  0  0  0  0
   -5.0983   21.4630  -30.1842 H   0  0  0  0  0  0  0  0  0  0  0  0
   -3.0404   22.6943  -29.5193 H   0  0  0  0  0  0  0  0  0  0  0  0
  1  2  1  0
  2  3  1  0
  3  4  2  0
  4  5  1  0
  5  6  2  0
  6  7  1  0
  7  8  2  0
  7  9  2  0
  7 10  1  0
 10 11  1  0
 11 12  1  0
 12 13  2  0
 13 14  1  0
 14 15  2  0
 15 16  1  0
 16 17  1  0
 16 18  2  0
 10 19  1  0
 19 20  1  0
 20 21  1  0
 21 22  1  0
  6 23  1  0
 23 24  2  0
 24  3  1  0
 18 12  1  0
 22 20  1  0
  1 25  1  0
  1 26  1  0
  1 27  1  0
  4 28  1  0
  5 29  1  0
 11 30  1  0
 11 31  1  0
 13 32  1  0
 14 33  1  0
 15 34  1  0
 18 35  1  0
 19 36  1  0
 19 37  1  0
 20 38  1  0
 21 39  1  0
 21 40  1  0
 22 41  1  0
 22 42  1  0
 23 43  1  0
 24 44  1  0
M  END
>  <UniqueID>  (29) 
29

>  <SMILES>  (29) 
COc1ccc(S(=O)(=O)N(Cc2cccc(F)c2)CC2CC2)cc1

>  <Energy>  (29) 
314.59284021890784

>  <Genealogy>  (29) 
COc1ccc(S(=O)(=O)N(Cc2cccc(F)c2)CC2CC2)cc1 (3D coordinates assigned)
COc1ccc(S(=O)(=O)N(Cc2cccc(F)c2)CC2CC2)cc1 (nonaromatic ring conformer: 314.59284021890784 kcal/mol)

>  <smiles>  (29) 
COc1ccc(S(=O)(=O)N(Cc2cccc(F)c2)CC2CC2)cc1

>  <score_type>  (29) 
oracle

>  <origin>  (29) 
adg

>  <m_score__min__energy>  (29) 
-8.6500000000000004

>  <m_primary>  (29) 
energy

$$$$
29:0
     RDKit          3D

 35 37  0  0  0  0  0  0  0  0999 V2000
   -5.7240   14.8160  -32.8990 F   0  0  0  0  0  0  0  0  0  0  0  0
   -6.0270   15.5990  -33.9990 C   0  0  0  0  0  0  0  0  0  0  0  0
   -5.0570   15.3870  -34.9620 F   0  0  0  0  0  0  0  0  0  0  0  0
   -7.2540   15.2140  -34.5030 F   0  0  0  0  0  0  0  0  0  0  0  0
   -6.0850   17.0570  -33.6130 C   0  0  0  0  0  0  0  0  0  0  0  0
   -5.1710   17.9750  -34.1650 C   0  0  0  0  0  0  0  0  0  0  0  0
   -5.2500   19.3350  -33.8470 C   0  0  0  0  0  0  0  0  0  0  0  0
   -6.2520   19.7940  -32.9890 C   0  0  0  0  0  0  0  0  0  0  0  0
   -6.3420   21.1120  -32.6710 N   0  0  0  0  0  0  0  0  0  0  0  0
   -7.3180   21.5750  -31.8430 C   0  0  0  0  0  0  0  0  0  0  0  0
   -7.3760   23.0400  -31.5110 C   0  0  0  0  0  0  0  0  0  0  0  0
   -6.2990   23.3930  -30.5660 N   0  0  0  0  0  0  0  0  0  0  0  0
   -4.9750   23.0970  -31.1540 C   0  0  0  0  0  0  0  0  0  0  0  0
   -3.8680   23.8720  -30.4200 C   0  0  0  0  0  0  0  0  0  0  0  0
   -4.0180   25.2860  -30.4630 O   0  0  0  0  0  0  0  0  0  0  0  0
   -5.3490   25.7120  -30.7160 C   0  0  0  0  0  0  0  0  0  0  0  0
   -6.4100   24.7930  -30.0840 C   0  0  0  0  0  0  0  0  0  0  0  0
   -8.2500   20.6710  -31.3110 C   0  0  0  0  0  0  0  0  0  0  0  0
   -8.1630   19.3520  -31.6270 N   0  0  0  0  0  0  0  0  0  0  0  0
   -7.1870   18.8890  -32.4520 C   0  0  0  0  0  0  0  0  0  0  0  0
   -7.1090   17.5290  -32.7700 C   0  0  0  0  0  0  0  0  0  0  0  0
   -4.3886   17.6199  -34.8518 H   0  0  0  0  0  0  0  0  0  0  0  0
   -4.5233   20.0427  -34.2725 H   0  0  0  0  0  0  0  0  0  0  0  0
   -7.2559   23.6264  -32.4339 H   0  0  0  0  0  0  0  0  0  0  0  0
   -8.3477   23.2639  -31.0466 H   0  0  0  0  0  0  0  0  0  0  0  0
   -4.7762   22.0183  -31.0711 H   0  0  0  0  0  0  0  0  0  0  0  0
   -4.9807   23.4043  -32.2102 H   0  0  0  0  0  0  0  0  0  0  0  0
   -3.8676   23.5572  -29.3660 H   0  0  0  0  0  0  0  0  0  0  0  0
   -2.9246   23.6389  -30.9354 H   0  0  0  0  0  0  0  0  0  0  0  0
   -5.4756   26.7252  -30.3069 H   0  0  0  0  0  0  0  0  0  0  0  0
   -5.4997   25.6846  -31.8053 H   0  0  0  0  0  0  0  0  0  0  0  0
   -6.2815   24.8027  -28.9916 H   0  0  0  0  0  0  0  0  0  0  0  0
   -7.4009   25.1722  -30.3742 H   0  0  0  0  0  0  0  0  0  0  0  0
   -9.0467   21.0279  -30.6418 H   0  0  0  0  0  0  0  0  0  0  0  0
   -7.8497   16.8265  -32.3603 H   0  0  0  0  0  0  0  0  0  0  0  0
  1  2  1  0
  2  3  1  0
  2  4  1  0
  2  5  1  0
  5  6  2  0
  6  7  1  0
  7  8  2  0
  8  9  1  0
  9 10  2  0
 10 11  1  0
 11 12  1  0
 12 13  1  0
 13 14  1  0
 14 15  1  0
 15 16  1  0
 16 17  1  0
 10 18  1  0
 18 19  2  0
 19 20  1  0
 20 21  2  0
 21  5  1  0
 20  8  1  0
 17 12  1  0
  6 22  1  0
  7 23  1  0
 11 24  1  0
 11 25  1  0
 13 26  1  0
 13 27  1  0
 14 28  1  0
 14 29  1  0
 16 30  1  0
 16 31  1  0
 17 32  1  0
 17 33  1  0
 18 34  1  0
 21 35  1  0
M  END
>  <UniqueID>  (30) 
30

>  <SMILES>  (30) 
FC(F)(F)c1ccc2nc(CN3CCOCC3)cnc2c1

>  <Energy>  (30) 
54.42115673652069

>  <Genealogy>  (30) 
FC(F)(F)c1ccc2nc(CN3CCOCC3)cnc2c1 (3D coordinates assigned)
FC(F)(F)c1ccc2nc(CN3CCOCC3)cnc2c1 (nonaromatic ring conformer: 54.42115673652069 kcal/mol)

>  <smiles>  (30) 
FC(F)(F)c1ccc2nc(CN3CCOCC3)cnc2c1

>  <score_type>  (30) 
oracle

>  <origin>  (30) 
adg

>  <m_score__min__energy>  (30) 
-7.6600000000000001

>  <m_primary>  (30) 
energy

$$$$
30:0
     RDKit          3D

 48 51  0  0  0  0  0  0  0  0999 V2000
   -6.2640   25.2060  -29.3520 C   0  0  0  0  0  0  0  0  0  0  0  0
   -5.6280   25.4630  -30.7160 C   0  0  0  0  0  0  0  0  0  0  0  0
   -5.0330   24.2120  -31.2450 N   0  0  0  0  0  0  0  0  0  0  0  0
   -4.9550   23.1730  -30.1840 C   0  0  0  0  0  0  0  0  0  0  0  0
   -3.4970   22.8550  -29.8160 C   0  0  0  0  0  0  0  0  0  0  0  0
   -2.9300   23.8130  -28.8120 C   0  0  0  0  0  0  0  0  0  0  0  0
   -3.2520   23.8510  -27.4570 C   0  0  0  0  0  0  0  0  0  0  0  0
   -2.4780   24.8730  -26.9560 C   0  0  0  0  0  0  0  0  0  0  0  0
   -2.3580   25.3770  -25.6620 C   0  0  0  0  0  0  0  0  0  0  0  0
   -1.4630   26.4440  -25.4580 C   0  0  0  0  0  0  0  0  0  0  0  0
   -0.7210   26.9730  -26.5380 C   0  0  0  0  0  0  0  0  0  0  0  0
   -0.8660   26.4400  -27.8330 C   0  0  0  0  0  0  0  0  0  0  0  0
   -1.7600   25.3850  -28.0030 C   0  0  0  0  0  0  0  0  0  0  0  0
   -2.0420   24.7450  -29.1100 O   0  0  0  0  0  0  0  0  0  0  0  0
   -5.7940   23.7090  -32.4130 C   0  0  0  0  0  0  0  0  0  0  0  0
   -6.7640   22.6020  -32.0300 C   0  0  0  0  0  0  0  0  0  0  0  0
   -7.9170   22.9520  -31.3060 C   0  0  0  0  0  0  0  0  0  0  0  0
   -8.8420   21.9840  -30.9160 C   0  0  0  0  0  0  0  0  0  0  0  0
   -8.6360   20.6450  -31.2370 C   0  0  0  0  0  0  0  0  0  0  0  0
   -7.4960   20.2590  -31.9540 C   0  0  0  0  0  0  0  0  0  0  0  0
   -7.2950   18.9050  -32.2680 C   0  0  0  0  0  0  0  0  0  0  0  0
   -6.1630   18.5100  -32.9800 C   0  0  0  0  0  0  0  0  0  0  0  0
   -5.2240   19.4580  -33.3850 C   0  0  0  0  0  0  0  0  0  0  0  0
   -5.4120   20.8080  -33.0820 C   0  0  0  0  0  0  0  0  0  0  0  0
   -6.5450   21.2350  -32.3600 C   0  0  0  0  0  0  0  0  0  0  0  0
   -5.5577   25.4914  -28.5585 H   0  0  0  0  0  0  0  0  0  0  0  0
   -7.1828   25.8034  -29.2574 H   0  0  0  0  0  0  0  0  0  0  0  0
   -6.5098   24.1380  -29.2574 H   0  0  0  0  0  0  0  0  0  0  0  0
   -6.3978   25.8233  -31.4142 H   0  0  0  0  0  0  0  0  0  0  0  0
   -4.8372   26.2198  -30.6075 H   0  0  0  0  0  0  0  0  0  0  0  0
   -5.4791   23.5367  -29.2878 H   0  0  0  0  0  0  0  0  0  0  0  0
   -5.4241   22.2538  -30.5647 H   0  0  0  0  0  0  0  0  0  0  0  0
   -3.4539   21.8392  -29.3961 H   0  0  0  0  0  0  0  0  0  0  0  0
   -2.8968   22.9426  -30.7336 H   0  0  0  0  0  0  0  0  0  0  0  0
   -3.9619   23.2111  -26.9125 H   0  0  0  0  0  0  0  0  0  0  0  0
   -2.9418   24.9560  -24.8301 H   0  0  0  0  0  0  0  0  0  0  0  0
   -1.3403   26.8690  -24.4509 H   0  0  0  0  0  0  0  0  0  0  0  0
   -0.0251   27.8073  -26.3657 H   0  0  0  0  0  0  0  0  0  0  0  0
   -0.2932   26.8426  -28.6814 H   0  0  0  0  0  0  0  0  0  0  0  0
   -6.3622   24.5424  -32.8518 H   0  0  0  0  0  0  0  0  0  0  0  0
   -5.0737   23.2941  -33.1335 H   0  0  0  0  0  0  0  0  0  0  0  0
   -8.0923   24.0056  -31.0430 H   0  0  0  0  0  0  0  0  0  0  0  0
   -9.7388   22.2798  -30.3520 H   0  0  0  0  0  0  0  0  0  0  0  0
   -9.3708   19.8876  -30.9266 H   0  0  0  0  0  0  0  0  0  0  0  0
   -8.0331   18.1535  -31.9512 H   0  0  0  0  0  0  0  0  0  0  0  0
   -6.0104   17.4480  -33.2228 H   0  0  0  0  0  0  0  0  0  0  0  0
   -4.3319   19.1412  -33.9452 H   0  0  0  0  0  0  0  0  0  0  0  0
   -4.6669   21.5474  -33.4107 H   0  0  0  0  0  0  0  0  0  0  0  0
  1  2  1  0
  2  3  1  0
  3  4  1  0
  4  5  1  0
  5  6  1  0
  6  7  2  0
  7  8  1  0
  8  9  2  0
  9 10  1  0
 10 11  2  0
 11 12  1  0
 12 13  2  0
 13 14  1  0
  3 15  1  0
 15 16  1  0
 16 17  2  0
 17 18  1  0
 18 19  2  0
 19 20  1  0
 20 21  2  0
 21 22  1  0
 22 23  2  0
 23 24  1  0
 24 25  2  0
 14  6  1  0
 25 16  1  0
 13  8  1  0
 25 20  1  0
  1 26  1  0
  1 27  1  0
  1 28  1  0
  2 29  1  0
  2 30  1  0
  4 31  1  0
  4 32  1  0
  5 33  1  0
  5 34  1  0
  7 35  1  0
  9 36  1  0
 10 37  1  0
 11 38  1  0
 12 39  1  0
 15 40  1  0
 15 41  1  0
 17 42  1  0
 18 43  1  0
 19 44  1  0
 21 45  1  0
 22 46  1  0
 23 47  1  0
 24 48  1  0
M  END
>  <UniqueID>  (31) 
31

>  <SMILES>  (31) 
CCN(CCc1cc2ccccc2o1)Cc1cccc2ccccc12

>  <Energy>  (31) 
89.32819079713026

>  <Genealogy>  (31) 
CCN(CCc1cc2ccccc2o1)Cc1cccc2ccccc12 (3D coordinates assigned)
CCN(CCc1cc2ccccc2o1)Cc1cccc2ccccc12 (optimized conformer: 89.32819079713026 kcal/mol)

>  <smiles>  (31) 
CCN(CCc1cc2ccccc2o1)Cc1cccc2ccccc12

>  <score_type>  (31) 
oracle

>  <origin>  (31) 
adg

>  <m_score__min__energy>  (31) 
-10.470000000000001

>  <m_primary>  (31) 
energy

$$$$
31:0
     RDKit          3D

 42 44  0  0  0  0  0  0  0  0999 V2000
   -3.3360   25.2830  -26.2870 C   0  0  0  0  0  0  0  0  0  0  0  0
   -3.1530   24.6310  -27.5840 N   0  0  0  0  0  0  0  0  0  0  0  0
   -1.7250   24.4510  -27.8650 C   0  0  0  0  0  0  0  0  0  0  0  0
   -1.5200   24.1280  -29.3450 C   0  0  0  0  0  0  0  0  0  0  0  0
   -2.6650   23.3800  -29.8620 N   0  0  0  0  0  0  0  0  0  0  0  0
   -2.7810   22.0340  -29.9440 C   0  0  0  0  0  0  0  0  0  0  0  0
   -4.0330   21.6820  -30.4430 C   0  0  0  0  0  0  0  0  0  0  0  0
   -4.6980   22.8790  -30.6440 C   0  0  0  0  0  0  0  0  0  0  0  0
   -5.9660   23.1970  -31.1430 C   0  0  0  0  0  0  0  0  0  0  0  0
   -6.9540   22.1740  -31.5480 C   0  0  0  0  0  0  0  0  0  0  0  0
   -8.3290   22.4580  -31.5460 C   0  0  0  0  0  0  0  0  0  0  0  0
   -9.2490   21.4840  -31.9370 C   0  0  0  0  0  0  0  0  0  0  0  0
   -8.8090   20.2260  -32.3510 C   0  0  0  0  0  0  0  0  0  0  0  0
   -7.4350   19.9300  -32.3920 C   0  0  0  0  0  0  0  0  0  0  0  0
   -6.9800   18.5910  -32.8390 C   0  0  0  0  0  0  0  0  0  0  0  0
   -7.0500   17.6160  -32.0400 O   0  0  0  0  0  0  0  0  0  0  0  0
   -6.4800   18.3790  -34.1680 N   0  0  0  0  0  0  0  0  0  0  0  0
   -5.8980   17.1040  -34.5700 C   0  0  0  0  0  0  0  0  0  0  0  0
   -6.5140   20.9140  -31.9840 C   0  0  0  0  0  0  0  0  0  0  0  0
   -6.2760   24.5240  -31.2630 N   0  0  0  0  0  0  0  0  0  0  0  0
   -5.3970   25.5070  -30.8950 C   0  0  0  0  0  0  0  0  0  0  0  0
   -4.1650   25.1870  -30.4010 N   0  0  0  0  0  0  0  0  0  0  0  0
   -3.8390   23.8760  -30.2870 C   0  0  0  0  0  0  0  0  0  0  0  0
   -3.1334   24.5613  -25.4820 H   0  0  0  0  0  0  0  0  0  0  0  0
   -2.6413   26.1317  -26.2020 H   0  0  0  0  0  0  0  0  0  0  0  0
   -4.3708   25.6462  -26.2020 H   0  0  0  0  0  0  0  0  0  0  0  0
   -3.5510   25.2700  -28.3130 H   0  0  0  0  0  0  0  0  0  0  0  0
   -1.1853   25.3766  -27.6160 H   0  0  0  0  0  0  0  0  0  0  0  0
   -1.3394   23.6192  -27.2571 H   0  0  0  0  0  0  0  0  0  0  0  0
   -1.4134   25.0657  -29.9102 H   0  0  0  0  0  0  0  0  0  0  0  0
   -0.6122   23.5169  -29.4566 H   0  0  0  0  0  0  0  0  0  0  0  0
   -1.9965   21.3183  -29.6568 H   0  0  0  0  0  0  0  0  0  0  0  0
   -4.4126   20.6678  -30.6363 H   0  0  0  0  0  0  0  0  0  0  0  0
   -8.6826   23.4521  -31.2350 H   0  0  0  0  0  0  0  0  0  0  0  0
  -10.3256   21.7089  -31.9188 H   0  0  0  0  0  0  0  0  0  0  0  0
   -9.5418   19.4610  -32.6472 H   0  0  0  0  0  0  0  0  0  0  0  0
   -6.5700   19.1270  -34.8910 H   0  0  0  0  0  0  0  0  0  0  0  0
   -5.6329   16.5233  -33.6742 H   0  0  0  0  0  0  0  0  0  0  0  0
   -6.6281   16.5405  -35.1695 H   0  0  0  0  0  0  0  0  0  0  0  0
   -4.9940   17.2864  -35.1695 H   0  0  0  0  0  0  0  0  0  0  0  0
   -5.4367   20.6928  -32.0072 H   0  0  0  0  0  0  0  0  0  0  0  0
   -5.6857   26.5634  -30.9982 H   0  0  0  0  0  0  0  0  0  0  0  0
  1  2  1  0
  2  3  1  0
  3  4  1  0
  4  5  1  0
  5  6  1  0
  6  7  2  0
  7  8  1  0
  8  9  2  0
  9 10  1  0
 10 11  2  0
 11 12  1  0
 12 13  2  0
 13 14  1  0
 14 15  1  0
 15 16  2  0
 15 17  1  0
 17 18  1  0
 14 19  2  0
  9 20  1  0
 20 21  2  0
 21 22  1  0
 22 23  2  0
 23  5  1  0
 23  8  1  0
 19 10  1  0
  1 24  1  0
  1 25  1  0
  1 26  1  0
  2 27  1  0
  3 28  1  0
  3 29  1  0
  4 30  1  0
  4 31  1  0
  6 32  1  0
  7 33  1  0
 11 34  1  0
 12 35  1  0
 13 36  1  0
 17 37  1  0
 18 38  1  0
 18 39  1  0
 18 40  1  0
 19 41  1  0
 21 42  1  0
M  END
>  <UniqueID>  (32) 
32

>  <SMILES>  (32) 
CNCCn1ccc2c(-c3cccc(C(=O)NC)c3)ncnc21

>  <Energy>  (32) 
80.05007857017854

>  <Genealogy>  (32) 
CNCCn1ccc2c(-c3cccc(C(=O)NC)c3)ncnc21 (3D coordinates assigned)
CNCCn1ccc2c(-c3cccc(C(=O)NC)c3)ncnc21 (optimized conformer: 80.05007857017854 kcal/mol)

>  <smiles>  (32) 
CNCCn1ccc2c(-c3cccc(C(=O)NC)c3)ncnc21

>  <score_type>  (32) 
oracle

>  <origin>  (32) 
adg

>  <m_score__min__energy>  (32) 
-8.6400000000000006

>  <m_primary>  (32) 
energy

$$$$
32:0
     RDKit          3D

 27 28  0  0  0  0  0  0  0  0999 V2000
   -9.4880   22.3160  -31.9670 C   0  0  0  0  0  0  0  0  0  0  0  0
   -8.4120   23.0990  -31.8540 C   0  0  0  0  0  0  0  0  0  0  0  0
   -7.2730   22.7540  -30.9320 C   0  0  0  0  0  0  0  0  0  0  0  0
   -6.1060   22.2550  -31.6960 N   0  0  0  0  0  0  0  0  0  0  0  0
   -4.9730   23.0320  -31.7830 C   0  0  0  0  0  0  0  0  0  0  0  0
   -4.9170   24.1580  -31.2180 O   0  0  0  0  0  0  0  0  0  0  0  0
   -3.9140   22.6180  -32.4610 O   0  0  0  0  0  0  0  0  0  0  0  0
   -3.8700   21.4520  -33.0820 C   0  0  0  0  0  0  0  0  0  0  0  0
   -2.8250   21.1320  -33.7090 O   0  0  0  0  0  0  0  0  0  0  0  0
   -4.9740   20.5930  -33.0340 C   0  0  0  0  0  0  0  0  0  0  0  0
   -4.9600   19.3410  -33.6750 C   0  0  0  0  0  0  0  0  0  0  0  0
   -6.0770   18.5000  -33.6140 C   0  0  0  0  0  0  0  0  0  0  0  0
   -6.0430   17.1490  -34.2650 C   0  0  0  0  0  0  0  0  0  0  0  0
   -7.1980   18.9000  -32.8800 C   0  0  0  0  0  0  0  0  0  0  0  0
   -7.2230   20.1410  -32.2420 C   0  0  0  0  0  0  0  0  0  0  0  0
   -6.1140   21.0180  -32.3120 C   0  0  0  0  0  0  0  0  0  0  0  0
  -10.3032   22.5968  -32.6500 H   0  0  0  0  0  0  0  0  0  0  0  0
   -9.5590   21.3903  -31.3770 H   0  0  0  0  0  0  0  0  0  0  0  0
   -8.3565   24.0213  -32.4510 H   0  0  0  0  0  0  0  0  0  0  0  0
   -6.9784   23.6535  -30.3715 H   0  0  0  0  0  0  0  0  0  0  0  0
   -7.6059   21.9635  -30.2433 H   0  0  0  0  0  0  0  0  0  0  0  0
   -4.0648   19.0207  -34.2281 H   0  0  0  0  0  0  0  0  0  0  0  0
   -6.0234   16.3688  -33.4898 H   0  0  0  0  0  0  0  0  0  0  0  0
   -6.9382   17.0211  -34.8913 H   0  0  0  0  0  0  0  0  0  0  0  0
   -5.1425   17.0663  -34.8913 H   0  0  0  0  0  0  0  0  0  0  0  0
   -8.0677   18.2307  -32.8048 H   0  0  0  0  0  0  0  0  0  0  0  0
   -8.1173   20.4420  -31.6766 H   0  0  0  0  0  0  0  0  0  0  0  0
  1  2  2  0
  2  3  1  0
  3  4  1  0
  4  5  1  0
  5  6  2  0
  5  7  1  0
  7  8  1  0
  8  9  2  0
  8 10  1  0
 10 11  2  0
 11 12  1  0
 12 13  1  0
 12 14  2  0
 14 15  1  0
 15 16  2  0
 16  4  1  0
 16 10  1  0
  1 17  1  0
  1 18  1  0
  2 19  1  0
  3 20  1  0
  3 21  1  0
 11 22  1  0
 13 23  1  0
 13 24  1  0
 13 25  1  0
 14 26  1  0
 15 27  1  0
M  END
>  <UniqueID>  (33) 
33

>  <SMILES>  (33) 
C=CCn1c(=O)oc(=O)c2cc(C)ccc21

>  <Energy>  (33) 
35.58270115941613

>  <Genealogy>  (33) 
C=CCn1c(=O)oc(=O)c2cc(C)ccc21 (3D coordinates assigned)
C=CCn1c(=O)oc(=O)c2cc(C)ccc21 (optimized conformer: 35.58270115941613 kcal/mol)

>  <smiles>  (33) 
C=CCn1c(=O)oc(=O)c2cc(C)ccc21

>  <score_type>  (33) 
oracle

>  <origin>  (33) 
adg

>  <m_score__min__energy>  (33) 
-6.4100000000000001

>  <m_primary>  (33) 
energy

$$$$
33:0
     RDKit          3D

 58 61  0  0  0  0  0  0  0  0999 V2000
    0.9849   21.2296  -32.5524 H   0  0  0  0  0  0  0  0  0  0  0  0
    0.3500   20.8510  -33.3670 C   0  0  0  0  0  0  0  0  0  0  0  0
    0.8860   20.6930  -34.5840 C   0  0  0  0  0  0  0  0  0  0  0  0
    0.8986   19.6817  -35.0166 H   0  0  0  0  0  0  0  0  0  0  0  0
    1.4730   21.8190  -35.3960 C   0  0  0  0  0  0  0  0  0  0  0  0
    1.6070   21.4836  -36.4350 H   0  0  0  0  0  0  0  0  0  0  0  0
    2.4419   22.1029  -34.9594 H   0  0  0  0  0  0  0  0  0  0  0  0
    0.6180   22.9450  -35.3780 O   0  0  0  0  0  0  0  0  0  0  0  0
    1.2040   24.0130  -36.0890 C   0  0  0  0  0  0  0  0  0  0  0  0
    1.6078   24.7489  -35.3781 H   0  0  0  0  0  0  0  0  0  0  0  0
    2.0180   23.6294  -36.7217 H   0  0  0  0  0  0  0  0  0  0  0  0
    0.4432   24.4935  -36.7217 H   0  0  0  0  0  0  0  0  0  0  0  0
   -1.0220   20.5440  -33.0890 N   0  0  0  0  0  0  0  0  0  0  0  0
   -1.5030   19.1770  -33.3170 C   0  0  0  0  0  0  0  0  0  0  0  0
   -1.4250   18.9423  -34.3888 H   0  0  0  0  0  0  0  0  0  0  0  0
   -0.8859   18.4850  -32.7251 H   0  0  0  0  0  0  0  0  0  0  0  0
   -2.9640   19.0280  -32.8760 C   0  0  0  0  0  0  0  0  0  0  0  0
   -3.3364   18.0414  -33.1889 H   0  0  0  0  0  0  0  0  0  0  0  0
   -3.0139   19.1265  -31.7816 H   0  0  0  0  0  0  0  0  0  0  0  0
   -3.8440   20.1270  -33.5130 C   0  0  0  0  0  0  0  0  0  0  0  0
   -3.8684   19.9165  -34.5924 H   0  0  0  0  0  0  0  0  0  0  0  0
   -5.2520   20.0700  -32.9650 C   0  0  0  0  0  0  0  0  0  0  0  0
   -5.9250   18.8800  -32.9440 N   0  0  0  0  0  0  0  0  0  0  0  0
   -7.1710   18.8360  -32.4160 C   0  0  0  0  0  0  0  0  0  0  0  0
   -7.9980   17.7480  -32.2860 C   0  0  0  0  0  0  0  0  0  0  0  0
   -7.8211   16.7113  -32.6084 H   0  0  0  0  0  0  0  0  0  0  0  0
   -9.1160   18.2780  -31.6460 C   0  0  0  0  0  0  0  0  0  0  0  0
  -10.0119   17.7034  -31.3682 H   0  0  0  0  0  0  0  0  0  0  0  0
   -8.9430   19.6030  -31.4140 N   0  0  0  0  0  0  0  0  0  0  0  0
   -7.7550   19.9200  -31.8990 N   0  0  0  0  0  0  0  0  0  0  0  0
   -7.1420   21.1320  -31.8640 C   0  0  0  0  0  0  0  0  0  0  0  0
   -7.7920   22.2750  -31.2830 N   0  0  0  0  0  0  0  0  0  0  0  0
   -8.9010   22.9160  -31.9940 C   0  0  0  0  0  0  0  0  0  0  0  0
   -9.6143   23.3283  -31.2652 H   0  0  0  0  0  0  0  0  0  0  0  0
   -8.5112   23.7281  -32.6253 H   0  0  0  0  0  0  0  0  0  0  0  0
   -9.4101   22.1729  -32.6253 H   0  0  0  0  0  0  0  0  0  0  0  0
   -7.4320   22.7130  -29.9300 C   0  0  0  0  0  0  0  0  0  0  0  0
   -8.1691   23.4494  -29.5772 H   0  0  0  0  0  0  0  0  0  0  0  0
   -7.4243   21.8420  -29.2582 H   0  0  0  0  0  0  0  0  0  0  0  0
   -6.0640   23.3420  -29.9400 C   0  0  0  0  0  0  0  0  0  0  0  0
   -4.9870   22.6940  -29.3130 C   0  0  0  0  0  0  0  0  0  0  0  0
   -5.1380   21.7118  -28.8414 H   0  0  0  0  0  0  0  0  0  0  0  0
   -3.7230   23.2930  -29.2860 C   0  0  0  0  0  0  0  0  0  0  0  0
   -2.8812   22.7784  -28.7997 H   0  0  0  0  0  0  0  0  0  0  0  0
   -3.5290   24.5460  -29.8770 C   0  0  0  0  0  0  0  0  0  0  0  0
   -2.5341   25.0149  -29.8572 H   0  0  0  0  0  0  0  0  0  0  0  0
   -4.5990   25.2030  -30.4930 C   0  0  0  0  0  0  0  0  0  0  0  0
   -4.4456   26.1894  -30.9551 H   0  0  0  0  0  0  0  0  0  0  0  0
   -5.8640   24.6070  -30.5220 C   0  0  0  0  0  0  0  0  0  0  0  0
   -6.7052   25.1291  -31.0014 H   0  0  0  0  0  0  0  0  0  0  0  0
   -5.8490   21.2250  -32.4060 C   0  0  0  0  0  0  0  0  0  0  0  0
   -5.3080   22.1827  -32.3960 H   0  0  0  0  0  0  0  0  0  0  0  0
   -3.2500   21.5580  -33.3600 C   0  0  0  0  0  0  0  0  0  0  0  0
   -3.0824   21.9745  -34.3642 H   0  0  0  0  0  0  0  0  0  0  0  0
   -3.9738   22.1481  -32.7788 H   0  0  0  0  0  0  0  0  0  0  0  0
   -1.9220   21.5910  -32.5930 C   0  0  0  0  0  0  0  0  0  0  0  0
   -1.4471   22.5735  -32.7316 H   0  0  0  0  0  0  0  0  0  0  0  0
   -2.1207   21.4161  -31.5253 H   0  0  0  0  0  0  0  0  0  0  0  0
  1  2  1  0
  2  3  2  0
  3  4  1  0
  3  5  1  0
  5  6  1  0
  5  7  1  0
  5  8  1  0
  8  9  1  0
  9 10  1  0
  9 11  1  0
  9 12  1  0
  2 13  1  0
 13 14  1  0
 14 15  1  0
 14 16  1  0
 14 17  1  0
 17 18  1  0
 17 19  1  0
 17 20  1  0
 20 21  1  0
 20 22  1  0
 22 23  2  0
 23 24  1  0
 24 25  2  0
 25 26  1  0
 25 27  1  0
 27 28  1  0
 27 29  2  0
 29 30  1  0
 30 31  1  0
 31 32  1  0
 32 33  1  0
 33 34  1  0
 33 35  1  0
 33 36  1  0
 32 37  1  0
 37 38  1  0
 37 39  1  0
 37 40  1  0
 40 41  2  0
 41 42  1  0
 41 43  1  0
 43 44  1  0
 43 45  2  0
 45 46  1  0
 45 47  1  0
 47 48  1  0
 47 49  2  0
 49 50  1  0
 31 51  2  0
 51 52  1  0
 20 53  1  0
 53 54  1  0
 53 55  1  0
 53 56  1  0
 56 57  1  0
 56 58  1  0
 56 13  1  0
 51 22  1  0
 30 24  1  0
 49 40  1  0
M  END
>  <UniqueID>  (34) 
34

>  <SMILES>  (34) 
COC/C=C\N1CCC(c2cc(N(C)Cc3ccccc3)n3nccc3n2)CC1

>  <Energy>  (34) 
107.62316777122311

>  <Genealogy>  (34) 
COC/C=C\N1CCC(c2cc(N(C)Cc3ccccc3)n3nccc3n2)CC1 (cis-trans isomerization)
COC/C=C\N1CCC(c2cc(N(C)Cc3ccccc3)n3nccc3n2)CC1 (3D coordinates assigned)
COC/C=C\N1CCC(c2cc(N(C)Cc3ccccc3)n3nccc3n2)CC1 (nonaromatic ring conformer: 107.62316777122311 kcal/mol)

>  <smiles>  (34) 
COCC=CN1CCC(c2cc(N(C)Cc3ccccc3)n3nccc3n2)CC1

>  <score_type>  (34) 
oracle

>  <origin>  (34) 
adg

>  <m_score__min__energy>  (34) 
-8.5899999999999999

>  <m_primary>  (34) 
energy

$$$$
34:0
     RDKit          3D

 52 54  0  0  0  0  0  0  0  0999 V2000
   -0.5350   27.2390  -26.6200 C   0  0  0  0  0  0  0  0  0  0  0  0
   -1.2470   26.7680  -25.3790 C   0  0  0  0  0  0  0  0  0  0  0  0
   -1.8560   25.3750  -25.5730 C   0  0  0  0  0  0  0  0  0  0  0  0
   -1.0380   24.6930  -26.6320 C   0  0  0  0  0  0  0  0  0  0  0  0
   -1.7910   23.9180  -27.5630 N   0  0  0  0  0  0  0  0  0  0  0  0
   -2.2380   24.4780  -28.7050 C   0  0  0  0  0  0  0  0  0  0  0  0
   -1.9850   25.6900  -28.9390 O   0  0  0  0  0  0  0  0  0  0  0  0
   -2.9640   23.6980  -29.5850 C   0  0  0  0  0  0  0  0  0  0  0  0
   -3.5380   23.9660  -30.7890 N   0  0  0  0  0  0  0  0  0  0  0  0
   -4.1330   22.8230  -31.2180 C   0  0  0  0  0  0  0  0  0  0  0  0
   -4.8840   22.6950  -32.5170 C   0  0  0  0  0  0  0  0  0  0  0  0
   -6.3090   22.3730  -32.2650 C   0  0  0  0  0  0  0  0  0  0  0  0
   -7.2190   23.3420  -31.8560 C   0  0  0  0  0  0  0  0  0  0  0  0
   -8.5350   22.9590  -31.6410 C   0  0  0  0  0  0  0  0  0  0  0  0
   -8.9460   21.6590  -31.8220 C   0  0  0  0  0  0  0  0  0  0  0  0
  -10.2200   21.2460  -31.6220 F   0  0  0  0  0  0  0  0  0  0  0  0
   -8.0370   20.6800  -32.2320 C   0  0  0  0  0  0  0  0  0  0  0  0
   -6.7090   21.0580  -32.4510 C   0  0  0  0  0  0  0  0  0  0  0  0
   -3.9400   21.8450  -30.3040 N   0  0  0  0  0  0  0  0  0  0  0  0
   -3.2210   22.3570  -29.2830 C   0  0  0  0  0  0  0  0  0  0  0  0
   -2.7550   21.8350  -28.1280 N   0  0  0  0  0  0  0  0  0  0  0  0
   -3.0100   20.4450  -27.7950 C   0  0  0  0  0  0  0  0  0  0  0  0
   -1.7570   19.6050  -27.8540 C   0  0  0  0  0  0  0  0  0  0  0  0
   -1.7500   18.5800  -26.7100 C   0  0  0  0  0  0  0  0  0  0  0  0
   -3.0640   18.6300  -25.9580 C   0  0  0  0  0  0  0  0  0  0  0  0
   -2.0550   22.6100  -27.2940 C   0  0  0  0  0  0  0  0  0  0  0  0
   -1.6120   22.1170  -26.2010 O   0  0  0  0  0  0  0  0  0  0  0  0
    0.3509   27.8251  -26.3343 H   0  0  0  0  0  0  0  0  0  0  0  0
   -0.2225   26.3689  -27.2160 H   0  0  0  0  0  0  0  0  0  0  0  0
   -1.2135   27.8670  -27.2160 H   0  0  0  0  0  0  0  0  0  0  0  0
   -0.5281   26.7307  -24.5473 H   0  0  0  0  0  0  0  0  0  0  0  0
   -2.0627   27.4732  -25.1615 H   0  0  0  0  0  0  0  0  0  0  0  0
   -1.8097   24.8062  -24.6326 H   0  0  0  0  0  0  0  0  0  0  0  0
   -2.9131   25.4419  -25.8699 H   0  0  0  0  0  0  0  0  0  0  0  0
   -0.4917   25.4656  -27.1928 H   0  0  0  0  0  0  0  0  0  0  0  0
   -0.3764   23.9886  -26.1065 H   0  0  0  0  0  0  0  0  0  0  0  0
   -3.5060   24.8980  -31.2660 H   0  0  0  0  0  0  0  0  0  0  0  0
   -4.8197   23.6454  -33.0671 H   0  0  0  0  0  0  0  0  0  0  0  0
   -4.4355   21.8828  -33.1079 H   0  0  0  0  0  0  0  0  0  0  0  0
   -6.9034   24.3852  -31.7068 H   0  0  0  0  0  0  0  0  0  0  0  0
   -9.2675   23.7134  -31.3179 H   0  0  0  0  0  0  0  0  0  0  0  0
   -8.3583   19.6382  -32.3787 H   0  0  0  0  0  0  0  0  0  0  0  0
   -5.9745   20.3055  -32.7738 H   0  0  0  0  0  0  0  0  0  0  0  0
   -3.4225   20.3947  -26.7765 H   0  0  0  0  0  0  0  0  0  0  0  0
   -3.7194   20.0454  -28.5346 H   0  0  0  0  0  0  0  0  0  0  0  0
   -1.7203   19.0747  -28.8170 H   0  0  0  0  0  0  0  0  0  0  0  0
   -0.8802   20.2614  -27.7526 H   0  0  0  0  0  0  0  0  0  0  0  0
   -1.6070   17.5717  -27.1258 H   0  0  0  0  0  0  0  0  0  0  0  0
   -0.9296   18.8192  -26.0174 H   0  0  0  0  0  0  0  0  0  0  0  0
   -2.8676   18.6225  -24.8757 H   0  0  0  0  0  0  0  0  0  0  0  0
   -3.6052   19.5494  -26.2261 H   0  0  0  0  0  0  0  0  0  0  0  0
   -3.6735   17.7544  -26.2261 H   0  0  0  0  0  0  0  0  0  0  0  0
  1  2  1  0
  2  3  1  0
  3  4  1  0
  4  5  1  0
  5  6  1  0
  6  7  2  0
  6  8  1  0
  8  9  1  0
  9 10  1  0
 10 11  1  0
 11 12  1  0
 12 13  2  0
 13 14  1  0
 14 15  2  0
 15 16  1  0
 15 17  1  0
 17 18  2  0
 10 19  2  0
 19 20  1  0
 20 21  1  0
 21 22  1  0
 22 23  1  0
 23 24  1  0
 24 25  1  0
 21 26  1  0
 26 27  2  0
 26  5  1  0
 20  8  2  0
 18 12  1  0
  1 28  1  0
  1 29  1  0
  1 30  1  0
  2 31  1  0
  2 32  1  0
  3 33  1  0
  3 34  1  0
  4 35  1  0
  4 36  1  0
  9 37  1  0
 11 38  1  0
 11 39  1  0
 13 40  1  0
 14 41  1  0
 17 42  1  0
 18 43  1  0
 22 44  1  0
 22 45  1  0
 23 46  1  0
 23 47  1  0
 24 48  1  0
 24 49  1  0
 25 50  1  0
 25 51  1  0
 25 52  1  0
M  END
>  <smiles>  (35) 
CCCCn1c(=O)c2[nH]c(Cc3ccc(F)cc3)nc2n(CCCC)c1=O

>  <score_type>  (35) 
oracle

>  <origin>  (35) 
adg

>  <m_score__min__energy>  (35) 
-7.6699999999999999

>  <m_primary>  (35) 
energy

$$$$
35:0
     RDKit          3D

 39 41  0  0  0  0  0  0  0  0999 V2000
   -3.4790   25.1140  -30.4070 N   0  0  0  0  0  0  0  0  0  0  0  0
   -3.8510   23.8060  -30.8330 C   0  0  0  0  0  0  0  0  0  0  0  0
   -4.9750   23.6330  -31.3730 O   0  0  0  0  0  0  0  0  0  0  0  0
   -2.9400   22.6580  -30.6430 C   0  0  0  0  0  0  0  0  0  0  0  0
   -2.3010   22.3620  -29.4270 C   0  0  0  0  0  0  0  0  0  0  0  0
   -2.2730   23.1650  -28.2380 N   0  0  0  0  0  0  0  0  0  0  0  0
   -1.4030   24.2960  -28.0710 C   0  0  0  0  0  0  0  0  0  0  0  0
   -0.6700   24.6750  -29.0250 O   0  0  0  0  0  0  0  0  0  0  0  0
   -1.2540   24.9470  -26.7490 C   0  0  0  0  0  0  0  0  0  0  0  0
   -1.6290   26.2990  -26.6490 C   0  0  0  0  0  0  0  0  0  0  0  0
   -1.4530   27.0060  -25.4610 C   0  0  0  0  0  0  0  0  0  0  0  0
   -0.8950   26.3760  -24.3520 C   0  0  0  0  0  0  0  0  0  0  0  0
   -0.5340   25.0310  -24.4190 C   0  0  0  0  0  0  0  0  0  0  0  0
   -0.7360   24.2820  -25.5970 C   0  0  0  0  0  0  0  0  0  0  0  0
   -0.3750   22.8080  -25.5830 C   0  0  0  0  0  0  0  0  0  0  0  0
    0.7390   22.5620  -26.3590 F   0  0  0  0  0  0  0  0  0  0  0  0
   -1.4090   22.0440  -26.0940 F   0  0  0  0  0  0  0  0  0  0  0  0
   -0.1330   22.4010  -24.2840 F   0  0  0  0  0  0  0  0  0  0  0  0
   -1.5330   20.8700  -29.5360 S   0  0  0  0  0  0  0  0  0  0  0  0
   -1.9760   20.5760  -31.1260 C   0  0  0  0  0  0  0  0  0  0  0  0
   -2.7140   21.6530  -31.6170 C   0  0  0  0  0  0  0  0  0  0  0  0
   -3.3400   21.6050  -32.9920 C   0  0  0  0  0  0  0  0  0  0  0  0
   -2.7170   20.5110  -33.8800 C   0  0  0  0  0  0  0  0  0  0  0  0
   -2.5460   19.1910  -33.1160 C   0  0  0  0  0  0  0  0  0  0  0  0
   -1.5960   19.3680  -31.9240 C   0  0  0  0  0  0  0  0  0  0  0  0
   -2.5070   25.3170  -30.0850 H   0  0  0  0  0  0  0  0  0  0  0  0
   -2.6480   22.7200  -27.3710 H   0  0  0  0  0  0  0  0  0  0  0  0
   -2.0676   26.8057  -27.5213 H   0  0  0  0  0  0  0  0  0  0  0  0
   -1.7550   28.0619  -25.3995 H   0  0  0  0  0  0  0  0  0  0  0  0
   -0.7386   26.9405  -23.4210 H   0  0  0  0  0  0  0  0  0  0  0  0
   -0.0847   24.5465  -23.5396 H   0  0  0  0  0  0  0  0  0  0  0  0
   -4.4159   21.4029  -32.8840 H   0  0  0  0  0  0  0  0  0  0  0  0
   -3.1604   22.5755  -33.4777 H   0  0  0  0  0  0  0  0  0  0  0  0
   -3.3720   20.3392  -34.7469 H   0  0  0  0  0  0  0  0  0  0  0  0
   -1.7221   20.8538  -34.2004 H   0  0  0  0  0  0  0  0  0  0  0  0
   -3.5277   18.8580  -32.7480 H   0  0  0  0  0  0  0  0  0  0  0  0
   -2.1178   18.4424  -33.7988 H   0  0  0  0  0  0  0  0  0  0  0  0
   -1.6519   18.4772  -31.2811 H   0  0  0  0  0  0  0  0  0  0  0  0
   -0.5713   19.4991  -32.3020 H   0  0  0  0  0  0  0  0  0  0  0  0
  1  2  1  0
  2  3  2  0
  2  4  1  0
  4  5  2  0
  5  6  1  0
  6  7  1  0
  7  8  2  0
  7  9  1  0
  9 10  2  0
 10 11  1  0
 11 12  2  0
 12 13  1  0
 13 14  2  0
 14 15  1  0
 15 16  1  0
 15 17  1  0
 15 18  1  0
  5 19  1  0
 19 20  1  0
 20 21  2  0
 21 22  1  0
 22 23  1  0
 23 24  1  0
 24 25  1  0
 21  4  1  0
 14  9  1  0
 25 20  1  0
  1 26  1  0
  6 27  1  0
 10 28  1  0
 11 29  1  0
 12 30  1  0
 13 31  1  0
 22 32  1  0
 22 33  1  0
 23 34  1  0
 23 35  1  0
 24 36  1  0
 24 37  1  0
 25 38  1  0
 25 39  1  0
M  CHG  1   1  -1
M  END
>  <UniqueID>  (36) 
35

>  <SMILES>  (36) 
[NH-]C(=O)c1c(NC(=O)c2ccccc2C(F)(F)F)sc2c1CCCC2

>  <Energy>  (36) 
83.0566992015154

>  <Genealogy>  (36) 
[NH-]C(=O)c1c(NC(=O)c2ccccc2C(F)(F)F)sc2c1CCCC2 (protonated)
[NH-]C(=O)c1c(NC(=O)c2ccccc2C(F)(F)F)sc2c1CCCC2 (3D coordinates assigned)
[NH-]C(=O)c1c(NC(=O)c2ccccc2C(F)(F)F)sc2c1CCCC2 (nonaromatic ring conformer: 83.0566992015154 kcal/mol)

>  <smiles>  (36) 
NC(=O)c1c(NC(=O)c2ccccc2C(F)(F)F)sc2c1CCCC2

>  <score_type>  (36) 
oracle

>  <origin>  (36) 
adg

>  <m_score__min__energy>  (36) 
-9.8399999999999999

>  <m_primary>  (36) 
energy

$$$$
36:0
     RDKit          3D

 37 38  0  0  0  0  0  0  0  0999 V2000
   -2.1330   25.2520  -26.3970 C   0  0  0  0  0  0  0  0  0  0  0  0
   -0.9580   24.6910  -27.1940 C   0  0  0  0  0  0  0  0  0  0  0  0
   -1.1990   24.7670  -28.6760 C   0  0  0  0  0  0  0  0  0  0  0  0
   -0.8880   25.8120  -29.3090 O   0  0  0  0  0  0  0  0  0  0  0  0
   -1.9220   23.6860  -29.3810 C   0  0  0  0  0  0  0  0  0  0  0  0
   -1.4530   22.3520  -29.3580 C   0  0  0  0  0  0  0  0  0  0  0  0
   -0.1600   21.9990  -28.6600 C   0  0  0  0  0  0  0  0  0  0  0  0
   -2.1950   21.3720  -29.9610 N   0  0  0  0  0  0  0  0  0  0  0  0
   -1.7720   20.0610  -29.8880 O   0  0  0  0  0  0  0  0  0  0  0  0
   -3.3470   21.6730  -30.6330 C   0  0  0  0  0  0  0  0  0  0  0  0
   -4.1000   20.6670  -31.2680 C   0  0  0  0  0  0  0  0  0  0  0  0
   -5.2820   20.9820  -31.9630 C   0  0  0  0  0  0  0  0  0  0  0  0
   -6.0520   20.0010  -32.6080 O   0  0  0  0  0  0  0  0  0  0  0  0
   -7.3560   19.5980  -32.2000 C   0  0  0  0  0  0  0  0  0  0  0  0
   -5.7180   22.3120  -32.0240 C   0  0  0  0  0  0  0  0  0  0  0  0
   -6.9020   22.5910  -32.7270 O   0  0  0  0  0  0  0  0  0  0  0  0
   -8.0900   23.1090  -32.1360 C   0  0  0  0  0  0  0  0  0  0  0  0
   -4.9710   23.3210  -31.3890 C   0  0  0  0  0  0  0  0  0  0  0  0
   -3.7890   23.0110  -30.6920 C   0  0  0  0  0  0  0  0  0  0  0  0
   -3.0660   23.9860  -30.0630 N   0  0  0  0  0  0  0  0  0  0  0  0
   -3.5080   25.2940  -30.0900 O   0  0  0  0  0  0  0  0  0  0  0  0
   -1.9266   25.1535  -25.3210 H   0  0  0  0  0  0  0  0  0  0  0  0
   -2.2725   26.3139  -26.6478 H   0  0  0  0  0  0  0  0  0  0  0  0
   -3.0465   24.6929  -26.6478 H   0  0  0  0  0  0  0  0  0  0  0  0
   -0.0546   25.2693  -26.9504 H   0  0  0  0  0  0  0  0  0  0  0  0
   -0.8361   23.6321  -26.9222 H   0  0  0  0  0  0  0  0  0  0  0  0
   -0.3084   22.0395  -27.5708 H   0  0  0  0  0  0  0  0  0  0  0  0
    0.1482   20.9838  -28.9506 H   0  0  0  0  0  0  0  0  0  0  0  0
    0.6213   22.7167  -28.9506 H   0  0  0  0  0  0  0  0  0  0  0  0
   -3.7600   19.6220  -31.2201 H   0  0  0  0  0  0  0  0  0  0  0  0
   -7.4078   19.5820  -31.1013 H   0  0  0  0  0  0  0  0  0  0  0  0
   -8.0987   20.3085  -32.5918 H   0  0  0  0  0  0  0  0  0  0  0  0
   -7.5683   18.5923  -32.5918 H   0  0  0  0  0  0  0  0  0  0  0  0
   -8.0014   23.0704  -31.0403 H   0  0  0  0  0  0  0  0  0  0  0  0
   -8.2341   24.1516  -32.4557 H   0  0  0  0  0  0  0  0  0  0  0  0
   -8.9520   22.5050  -32.4557 H   0  0  0  0  0  0  0  0  0  0  0  0
   -5.3152   24.3646  -31.4381 H   0  0  0  0  0  0  0  0  0  0  0  0
  1  2  1  0
  2  3  1  0
  3  4  2  0
  3  5  1  0
  5  6  2  0
  6  7  1  0
  6  8  1  0
  8  9  1  0
  8 10  2  0
 10 11  1  0
 11 12  2  0
 12 13  1  0
 13 14  1  0
 12 15  1  0
 15 16  1  0
 16 17  1  0
 15 18  2  0
 18 19  1  0
 19 20  2  0
 20 21  1  0
 20  5  1  0
 19 10  1  0
  1 22  1  0
  1 23  1  0
  1 24  1  0
  2 25  1  0
  2 26  1  0
  7 27  1  0
  7 28  1  0
  7 29  1  0
 11 30  1  0
 14 31  1  0
 14 32  1  0
 14 33  1  0
 17 34  1  0
 17 35  1  0
 17 36  1  0
 18 37  1  0
M  CHG  4   8   1   9  -1  20   1  21  -1
M  END
>  <UniqueID>  (37) 
36

>  <SMILES>  (37) 
CCC(=O)c1c(C)[n+]([O-])c2cc(OC)c(OC)cc2[n+]1[O-]

>  <Energy>  (37) 
48.74174356304291

>  <Genealogy>  (37) 
CCC(=O)c1c(C)[n+]([O-])c2cc(OC)c(OC)cc2[n+]1[O-] (3D coordinates assigned)
CCC(=O)c1c(C)[n+]([O-])c2cc(OC)c(OC)cc2[n+]1[O-] (optimized conformer: 48.74174356304291 kcal/mol)

>  <smiles>  (37) 
CCC(=O)c1c(C)[n+]([O-])c2cc(OC)c(OC)cc2[n+]1[O-]

>  <score_type>  (37) 
oracle

>  <origin>  (37) 
adg

>  <m_score__min__energy>  (37) 
-6.1100000000000003

>  <m_primary>  (37) 
energy

$$$$
37:0
     RDKit          3D

 45 46  0  0  0  0  0  0  0  0999 V2000
   -7.0300   17.8790  -33.4550 C   0  0  0  0  0  0  0  0  0  0  0  0
   -7.1990   17.9630  -31.9410 C   0  0  0  0  0  0  0  0  0  0  0  0
   -6.0280   18.6340  -31.3010 C   0  0  0  0  0  0  0  0  0  0  0  0
   -5.0080   19.1570  -32.2320 C   0  0  0  0  0  0  0  0  0  0  0  0
   -4.1300   18.2980  -32.8210 N   0  0  0  0  0  0  0  0  0  0  0  0
   -3.1850   18.6970  -33.6770 C   0  0  0  0  0  0  0  0  0  0  0  0
   -2.3780   17.8100  -34.2020 N   0  0  0  0  0  0  0  0  0  0  0  0
   -3.0590   19.9960  -34.0010 N   0  0  0  0  0  0  0  0  0  0  0  0
   -3.8830   20.9160  -33.4670 C   0  0  0  0  0  0  0  0  0  0  0  0
   -3.7680   22.1600  -33.7720 N   0  0  0  0  0  0  0  0  0  0  0  0
   -4.8700   20.4840  -32.5690 C   0  0  0  0  0  0  0  0  0  0  0  0
   -5.7230   21.5200  -32.0210 C   0  0  0  0  0  0  0  0  0  0  0  0
   -7.1120   21.3870  -32.1390 C   0  0  0  0  0  0  0  0  0  0  0  0
   -7.9650   22.3480  -31.6110 C   0  0  0  0  0  0  0  0  0  0  0  0
   -7.4850   23.4640  -30.9540 C   0  0  0  0  0  0  0  0  0  0  0  0
   -6.1150   23.6010  -30.8330 C   0  0  0  0  0  0  0  0  0  0  0  0
   -5.3660   24.9600  -30.0270 S   0  0  0  0  0  0  0  0  0  0  0  0
   -6.3580   26.0390  -29.6960 O   0  0  0  0  0  0  0  0  0  0  0  0
   -4.3220   25.6000  -30.9290 O   0  0  0  0  0  0  0  0  0  0  0  0
   -4.5430   24.4330  -28.5790 N   0  0  0  0  0  0  0  0  0  0  0  0
   -3.6180   23.3880  -28.9670 C   0  0  0  0  0  0  0  0  0  0  0  0
   -2.2540   23.8970  -29.3080 C   0  0  0  0  0  0  0  0  0  0  0  0
   -2.3100   25.2970  -29.2780 O   0  0  0  0  0  0  0  0  0  0  0  0
   -5.2760   22.6400  -31.3610 C   0  0  0  0  0  0  0  0  0  0  0  0
   -6.0678   17.4008  -33.6906 H   0  0  0  0  0  0  0  0  0  0  0  0
   -7.8499   17.2836  -33.8830 H   0  0  0  0  0  0  0  0  0  0  0  0
   -7.0504   18.8921  -33.8830 H   0  0  0  0  0  0  0  0  0  0  0  0
   -8.1094   18.5368  -31.7133 H   0  0  0  0  0  0  0  0  0  0  0  0
   -7.2739   16.9404  -31.5426 H   0  0  0  0  0  0  0  0  0  0  0  0
   -6.4053   19.4769  -30.7034 H   0  0  0  0  0  0  0  0  0  0  0  0
   -5.5240   17.8586  -30.7054 H   0  0  0  0  0  0  0  0  0  0  0  0
   -4.2280   17.2890  -32.5700 H   0  0  0  0  0  0  0  0  0  0  0  0
   -2.3230   17.6460  -35.2190 H   0  0  0  0  0  0  0  0  0  0  0  0
   -2.3020   20.2930  -34.6840 H   0  0  0  0  0  0  0  0  0  0  0  0
   -4.5510   22.6550  -34.2280 H   0  0  0  0  0  0  0  0  0  0  0  0
   -7.5325   20.5116  -32.6557 H   0  0  0  0  0  0  0  0  0  0  0  0
   -9.0518   22.2166  -31.7191 H   0  0  0  0  0  0  0  0  0  0  0  0
   -8.1703   24.2187  -30.5408 H   0  0  0  0  0  0  0  0  0  0  0  0
   -4.0370   25.2760  -28.2260 H   0  0  0  0  0  0  0  0  0  0  0  0
   -3.5260   22.6768  -28.1329 H   0  0  0  0  0  0  0  0  0  0  0  0
   -4.0240   22.9161  -29.8739 H   0  0  0  0  0  0  0  0  0  0  0  0
   -1.5221   23.5340  -28.5714 H   0  0  0  0  0  0  0  0  0  0  0  0
   -1.9439   23.5417  -30.3018 H   0  0  0  0  0  0  0  0  0  0  0  0
   -3.0960   25.6470  -29.7440 H   0  0  0  0  0  0  0  0  0  0  0  0
   -4.1906   22.7781  -31.2474 H   0  0  0  0  0  0  0  0  0  0  0  0
  1  2  1  0
  2  3  1  0
  3  4  1  0
  4  5  1  0
  5  6  1  0
  6  7  2  3
  6  8  1  0
  8  9  1  0
  9 10  2  3
  9 11  1  0
 11 12  1  0
 12 13  2  0
 13 14  1  0
 14 15  2  0
 15 16  1  0
 16 17  1  0
 17 18  2  0
 17 19  2  0
 17 20  1  0
 20 21  1  0
 21 22  1  0
 22 23  1  0
 16 24  2  0
 11  4  2  0
 24 12  1  0
  1 25  1  0
  1 26  1  0
  1 27  1  0
  2 28  1  0
  2 29  1  0
  3 30  1  0
  3 31  1  0
  5 32  1  0
  7 33  1  0
  8 34  1  0
 10 35  1  0
 13 36  1  0
 14 37  1  0
 15 38  1  0
 20 39  1  0
 21 40  1  0
 21 41  1  0
 22 42  1  0
 22 43  1  0
 23 44  1  0
 24 45  1  0
M  END
>  <smiles>  (38) 
CCCc1[nH]c(=N)[nH]c(=N)c1-c1cccc(S(=O)(=O)NCCO)c1

>  <score_type>  (38) 
oracle

>  <origin>  (38) 
adg

>  <m_score__min__energy>  (38) 
-9.2699999999999996

>  <m_primary>  (38) 
energy

$$$$
38:0
     RDKit          3D

 44 45  0  0  0  0  0  0  0  0999 V2000
   -2.7220   21.3870  -28.7710 C   0  0  0  0  0  0  0  0  0  0  0  0
   -3.8120   22.2980  -28.1950 C   0  0  0  0  0  0  0  0  0  0  0  0
   -3.6610   23.7130  -28.6390 N   0  0  0  0  0  0  0  0  0  0  0  0
   -2.6950   24.4230  -27.7560 C   0  0  0  0  0  0  0  0  0  0  0  0
   -3.3510   24.9260  -26.4630 C   0  0  0  0  0  0  0  0  0  0  0  0
   -4.9830   24.4070  -28.6350 C   0  0  0  0  0  0  0  0  0  0  0  0
   -5.2370   25.2060  -29.9270 C   0  0  0  0  0  0  0  0  0  0  0  0
   -4.6400   24.5830  -31.0650 O   0  0  0  0  0  0  0  0  0  0  0  0
   -4.9320   23.2900  -31.5320 C   0  0  0  0  0  0  0  0  0  0  0  0
   -3.9330   22.3600  -31.8780 C   0  0  0  0  0  0  0  0  0  0  0  0
   -4.2830   21.0890  -32.3420 C   0  0  0  0  0  0  0  0  0  0  0  0
   -5.6350   20.7200  -32.4680 C   0  0  0  0  0  0  0  0  0  0  0  0
   -6.0060   19.3670  -32.9580 C   0  0  0  0  0  0  0  0  0  0  0  0
   -5.4640   18.8660  -34.1570 C   0  0  0  0  0  0  0  0  0  0  0  0
   -5.8110   17.5910  -34.6130 C   0  0  0  0  0  0  0  0  0  0  0  0
   -6.6990   16.8030  -33.8800 C   0  0  0  0  0  0  0  0  0  0  0  0
   -7.2450   17.2870  -32.6880 C   0  0  0  0  0  0  0  0  0  0  0  0
   -6.9010   18.5630  -32.2280 C   0  0  0  0  0  0  0  0  0  0  0  0
   -6.6280   21.6520  -32.1190 C   0  0  0  0  0  0  0  0  0  0  0  0
   -6.2770   22.9210  -31.6540 C   0  0  0  0  0  0  0  0  0  0  0  0
   -2.1623   20.9192  -27.9477 H   0  0  0  0  0  0  0  0  0  0  0  0
   -3.1868   20.6049  -29.3893 H   0  0  0  0  0  0  0  0  0  0  0  0
   -2.0348   21.9832  -29.3893 H   0  0  0  0  0  0  0  0  0  0  0  0
   -4.7936   21.9268  -28.5247 H   0  0  0  0  0  0  0  0  0  0  0  0
   -3.7219   22.2783  -27.0989 H   0  0  0  0  0  0  0  0  0  0  0  0
   -3.2740   23.7150  -29.6140 H   0  0  0  0  0  0  0  0  0  0  0  0
   -1.8806   23.7315  -27.4940 H   0  0  0  0  0  0  0  0  0  0  0  0
   -2.3170   25.2982  -28.3048 H   0  0  0  0  0  0  0  0  0  0  0  0
   -2.8143   24.5145  -25.5954 H   0  0  0  0  0  0  0  0  0  0  0  0
   -3.3079   26.0248  -26.4334 H   0  0  0  0  0  0  0  0  0  0  0  0
   -4.4009   24.5993  -26.4334 H   0  0  0  0  0  0  0  0  0  0  0  0
   -5.7763   23.6529  -28.5255 H   0  0  0  0  0  0  0  0  0  0  0  0
   -4.9822   25.1200  -27.7973 H   0  0  0  0  0  0  0  0  0  0  0  0
   -6.3221   25.2810  -30.0911 H   0  0  0  0  0  0  0  0  0  0  0  0
   -4.7842   26.2012  -29.8067 H   0  0  0  0  0  0  0  0  0  0  0  0
   -2.8722   22.6351  -31.7827 H   0  0  0  0  0  0  0  0  0  0  0  0
   -3.4945   20.3707  -32.6111 H   0  0  0  0  0  0  0  0  0  0  0  0
   -4.7627   19.4821  -34.7389 H   0  0  0  0  0  0  0  0  0  0  0  0
   -5.3832   17.2082  -35.5514 H   0  0  0  0  0  0  0  0  0  0  0  0
   -6.9696   15.7997  -34.2407 H   0  0  0  0  0  0  0  0  0  0  0  0
   -7.9452   16.6648  -32.1113 H   0  0  0  0  0  0  0  0  0  0  0  0
   -7.3331   18.9402  -31.2894 H   0  0  0  0  0  0  0  0  0  0  0  0
   -7.6896   21.3795  -32.2130 H   0  0  0  0  0  0  0  0  0  0  0  0
   -7.0652   23.6380  -31.3808 H   0  0  0  0  0  0  0  0  0  0  0  0
  1  2  1  0
  2  3  1  0
  3  4  1  0
  4  5  1  0
  3  6  1  0
  6  7  1  0
  7  8  1  0
  8  9  1  0
  9 10  2  0
 10 11  1  0
 11 12  2  0
 12 13  1  0
 13 14  2  0
 14 15  1  0
 15 16  2  0
 16 17  1  0
 17 18  2  0
 12 19  1  0
 19 20  2  0
 20  9  1  0
 18 13  1  0
  1 21  1  0
  1 22  1  0
  1 23  1  0
  2 24  1  0
  2 25  1  0
  3 26  1  0
  4 27  1  0
  4 28  1  0
  5 29  1  0
  5 30  1  0
  5 31  1  0
  6 32  1  0
  6 33  1  0
  7 34  1  0
  7 35  1  0
 10 36  1  0
 11 37  1  0
 14 38  1  0
 15 39  1  0
 16 40  1  0
 17 41  1  0
 18 42  1  0
 19 43  1  0
 20 44  1  0
M  CHG  1   3   1
M  END
>  <UniqueID>  (39) 
37

>  <SMILES>  (39) 
CC[NH+](CC)CCOc1ccc(-c2ccccc2)cc1

>  <Energy>  (39) 
51.20815102858288

>  <Genealogy>  (39) 
CC[NH+](CC)CCOc1ccc(-c2ccccc2)cc1 (protonated)
CC[NH+](CC)CCOc1ccc(-c2ccccc2)cc1 (3D coordinates assigned)
CC[NH+](CC)CCOc1ccc(-c2ccccc2)cc1 (optimized conformer: 51.20815102858288 kcal/mol)

>  <smiles>  (39) 
CCN(CC)CCOc1ccc(-c2ccccc2)cc1

>  <score_type>  (39) 
oracle

>  <origin>  (39) 
adg

>  <m_score__min__energy>  (39) 
-6.75

>  <m_primary>  (39) 
energy

$$$$
39:0
     RDKit          3D

 39 41  0  0  0  0  0  0  0  0999 V2000
   -5.3730   25.9490  -30.4660 C   0  0  0  0  0  0  0  0  0  0  0  0
   -4.8490   24.8550  -31.2100 O   0  0  0  0  0  0  0  0  0  0  0  0
   -5.5650   23.6880  -31.5190 C   0  0  0  0  0  0  0  0  0  0  0  0
   -4.8460   22.5720  -31.9610 C   0  0  0  0  0  0  0  0  0  0  0  0
   -5.5030   21.3870  -32.2980 C   0  0  0  0  0  0  0  0  0  0  0  0
   -6.9020   21.2940  -32.1970 C   0  0  0  0  0  0  0  0  0  0  0  0
   -7.5880   20.1060  -32.5380 C   0  0  0  0  0  0  0  0  0  0  0  0
   -6.8800   18.9480  -33.0020 N   0  0  0  0  0  0  0  0  0  0  0  0
   -7.0610   17.6610  -32.3260 C   0  0  0  0  0  0  0  0  0  0  0  0
   -5.7450   16.8690  -32.3510 C   0  0  0  0  0  0  0  0  0  0  0  0
   -5.0750   16.8400  -33.6820 N   0  0  0  0  0  0  0  0  0  0  0  0
   -4.8710   15.4520  -34.1410 C   0  0  0  0  0  0  0  0  0  0  0  0
   -5.7590   17.6160  -34.7370 C   0  0  0  0  0  0  0  0  0  0  0  0
   -6.1120   19.0210  -34.2450 C   0  0  0  0  0  0  0  0  0  0  0  0
   -8.9840   20.0500  -32.4250 C   0  0  0  0  0  0  0  0  0  0  0  0
   -9.7030   21.1620  -31.9820 C   0  0  0  0  0  0  0  0  0  0  0  0
   -9.0370   22.3410  -31.6420 C   0  0  0  0  0  0  0  0  0  0  0  0
   -7.6380   22.4190  -31.7440 C   0  0  0  0  0  0  0  0  0  0  0  0
   -6.9650   23.6070  -31.4050 C   0  0  0  0  0  0  0  0  0  0  0  0
   -5.2738   25.7419  -29.3902 H   0  0  0  0  0  0  0  0  0  0  0  0
   -4.8151   26.8634  -30.7163 H   0  0  0  0  0  0  0  0  0  0  0  0
   -6.4352   26.0874  -30.7163 H   0  0  0  0  0  0  0  0  0  0  0  0
   -3.7506   22.6289  -32.0439 H   0  0  0  0  0  0  0  0  0  0  0  0
   -4.9217   20.5200  -32.6450 H   0  0  0  0  0  0  0  0  0  0  0  0
   -7.3619   17.8360  -31.2825 H   0  0  0  0  0  0  0  0  0  0  0  0
   -7.8409   17.0850  -32.8456 H   0  0  0  0  0  0  0  0  0  0  0  0
   -5.0540   17.3251  -31.6268 H   0  0  0  0  0  0  0  0  0  0  0  0
   -5.9977   15.8279  -32.1014 H   0  0  0  0  0  0  0  0  0  0  0  0
   -4.7734   14.7882  -33.2693 H   0  0  0  0  0  0  0  0  0  0  0  0
   -5.7324   15.1361  -34.7479 H   0  0  0  0  0  0  0  0  0  0  0  0
   -3.9552   15.3973  -34.7479 H   0  0  0  0  0  0  0  0  0  0  0  0
   -5.0956   17.6973  -35.6107 H   0  0  0  0  0  0  0  0  0  0  0  0
   -6.6900   17.0955  -35.0060 H   0  0  0  0  0  0  0  0  0  0  0  0
   -5.1852   19.5858  -34.0658 H   0  0  0  0  0  0  0  0  0  0  0  0
   -6.7197   19.5251  -35.0109 H   0  0  0  0  0  0  0  0  0  0  0  0
   -9.5166   19.1239  -32.6870 H   0  0  0  0  0  0  0  0  0  0  0  0
  -10.7987   21.1089  -31.9006 H   0  0  0  0  0  0  0  0  0  0  0  0
   -9.6101   23.2125  -31.2928 H   0  0  0  0  0  0  0  0  0  0  0  0
   -7.5363   24.4770  -31.0490 H   0  0  0  0  0  0  0  0  0  0  0  0
  1  2  1  0
  2  3  1  0
  3  4  2  0
  4  5  1  0
  5  6  2  0
  6  7  1  0
  7  8  1  0
  8  9  1  0
  9 10  1  0
 10 11  1  0
 11 12  1  0
 11 13  1  0
 13 14  1  0
  7 15  2  0
 15 16  1  0
 16 17  2  0
 17 18  1  0
 18 19  2  0
 19  3  1  0
 18  6  1  0
 14  8  1  0
  1 20  1  0
  1 21  1  0
  1 22  1  0
  4 23  1  0
  5 24  1  0
  9 25  1  0
  9 26  1  0
 10 27  1  0
 10 28  1  0
 12 29  1  0
 12 30  1  0
 12 31  1  0
 13 32  1  0
 13 33  1  0
 14 34  1  0
 14 35  1  0
 15 36  1  0
 16 37  1  0
 17 38  1  0
 19 39  1  0
M  END
>  <UniqueID>  (40) 
38

>  <SMILES>  (40) 
COc1ccc2c(N3CCN(C)CC3)cccc2c1

>  <Energy>  (40) 
54.853900525023406

>  <Genealogy>  (40) 
COc1ccc2c(N3CCN(C)CC3)cccc2c1 (3D coordinates assigned)
COc1ccc2c(N3CCN(C)CC3)cccc2c1 (nonaromatic ring conformer: 54.853900525023406 kcal/mol)

>  <smiles>  (40) 
COc1ccc2c(N3CCN(C)CC3)cccc2c1

>  <score_type>  (40) 
oracle

>  <origin>  (40) 
adg

>  <m_score__min__energy>  (40) 
-8.2200000000000006

>  <m_primary>  (40) 
energy

$$$$
40:0
     RDKit          3D

 23 24  0  0  0  0  0  0  0  0999 V2000
   -9.1170   18.9190  -32.5250 C   0  0  0  0  0  0  0  0  0  0  0  0
   -8.4030   20.1720  -32.1100 C   0  0  0  0  0  0  0  0  0  0  0  0
   -7.0650   20.3760  -32.4710 C   0  0  0  0  0  0  0  0  0  0  0  0
   -6.3880   21.5260  -32.0540 C   0  0  0  0  0  0  0  0  0  0  0  0
   -7.0350   22.4880  -31.2570 C   0  0  0  0  0  0  0  0  0  0  0  0
   -6.3380   23.6760  -30.8270 N   0  0  0  0  0  0  0  0  0  0  0  0
   -6.8620   24.7140  -30.1410 C   0  0  0  0  0  0  0  0  0  0  0  0
   -5.8910   25.6650  -29.9090 C   0  0  0  0  0  0  0  0  0  0  0  0
   -4.7270   25.1870  -30.4740 C   0  0  0  0  0  0  0  0  0  0  0  0
   -5.0340   23.9630  -31.0310 C   0  0  0  0  0  0  0  0  0  0  0  0
   -8.3740   22.2700  -30.8840 C   0  0  0  0  0  0  0  0  0  0  0  0
   -9.0490   21.1180  -31.3020 C   0  0  0  0  0  0  0  0  0  0  0  0
   -9.4334   18.3637  -31.6298 H   0  0  0  0  0  0  0  0  0  0  0  0
  -10.0008   19.1821  -33.1247 H   0  0  0  0  0  0  0  0  0  0  0  0
   -8.4401   18.2928  -33.1247 H   0  0  0  0  0  0  0  0  0  0  0  0
   -6.5441   19.6273  -33.0859 H   0  0  0  0  0  0  0  0  0  0  0  0
   -5.3403   21.6800  -32.3517 H   0  0  0  0  0  0  0  0  0  0  0  0
   -7.9098   24.7899  -29.8150 H   0  0  0  0  0  0  0  0  0  0  0  0
   -6.0196   26.6191  -29.3769 H   0  0  0  0  0  0  0  0  0  0  0  0
   -3.7460   25.6845  -30.4793 H   0  0  0  0  0  0  0  0  0  0  0  0
   -4.3215   23.3157  -31.5632 H   0  0  0  0  0  0  0  0  0  0  0  0
   -8.8941   23.0109  -30.2590 H   0  0  0  0  0  0  0  0  0  0  0  0
  -10.0924   20.9537  -30.9949 H   0  0  0  0  0  0  0  0  0  0  0  0
  1  2  1  0
  2  3  2  0
  3  4  1  0
  4  5  2  0
  5  6  1  0
  6  7  1  0
  7  8  2  0
  8  9  1  0
  9 10  2  0
  5 11  1  0
 11 12  2  0
 12  2  1  0
 10  6  1  0
  1 13  1  0
  1 14  1  0
  1 15  1  0
  3 16  1  0
  4 17  1  0
  7 18  1  0
  8 19  1  0
  9 20  1  0
 10 21  1  0
 11 22  1  0
 12 23  1  0
M  END
>  <UniqueID>  (41) 
39

>  <SMILES>  (41) 
Cc1ccc(-n2cccc2)cc1

>  <Energy>  (41) 
51.66270843838189

>  <Genealogy>  (41) 
Cc1ccc(-n2cccc2)cc1 (3D coordinates assigned)
Cc1ccc(-n2cccc2)cc1 (optimized conformer: 51.66270843838189 kcal/mol)

>  <smiles>  (41) 
Cc1ccc(-n2cccc2)cc1

>  <score_type>  (41) 
oracle

>  <origin>  (41) 
adg

>  <m_score__min__energy>  (41) 
-5.4400000000000004

>  <m_primary>  (41) 
energy

$$$$
41:0
     RDKit          3D

 60 63  0  0  0  0  0  0  0  0999 V2000
   -9.3350   21.5190  -32.0500 C   0  0  0  0  0  0  0  0  0  0  0  0
   -8.3460   20.3990  -32.1930 C   0  0  0  0  0  0  0  0  0  0  0  0
   -7.2260   20.5450  -33.0280 C   0  0  0  0  0  0  0  0  0  0  0  0
   -6.3290   19.4860  -33.2010 C   0  0  0  0  0  0  0  0  0  0  0  0
   -6.5410   18.2580  -32.5480 C   0  0  0  0  0  0  0  0  0  0  0  0
   -5.5900   17.1430  -32.7690 C   0  0  0  0  0  0  0  0  0  0  0  0
   -4.5900   17.1400  -33.6800 N   0  0  0  0  0  0  0  0  0  0  0  0
   -3.9810   15.9510  -33.5140 C   0  0  0  0  0  0  0  0  0  0  0  0
   -2.7350   15.5320  -34.2310 C   0  0  0  0  0  0  0  0  0  0  0  0
   -1.2990   16.0530  -33.3100 S   0  0  0  0  0  0  0  0  0  0  0  0
    0.0210   16.2830  -34.3240 O   0  0  0  0  0  0  0  0  0  0  0  0
   -1.6190   17.5400  -32.3840 C   0  0  0  0  0  0  0  0  0  0  0  0
   -2.0830   18.6190  -33.3210 C   0  0  0  0  0  0  0  0  0  0  0  0
   -2.1970   18.3260  -34.5420 O   0  0  0  0  0  0  0  0  0  0  0  0
   -2.3270   19.9750  -32.8770 N   0  0  0  0  0  0  0  0  0  0  0  0
   -2.6770   21.0210  -33.8540 C   0  0  0  0  0  0  0  0  0  0  0  0
   -3.7970   21.9140  -33.3030 C   0  0  0  0  0  0  0  0  0  0  0  0
   -3.5430   22.3010  -31.9060 N   0  0  0  0  0  0  0  0  0  0  0  0
   -4.5300   23.0660  -31.1910 C   0  0  0  0  0  0  0  0  0  0  0  0
   -4.1670   23.8180  -30.0590 C   0  0  0  0  0  0  0  0  0  0  0  0
   -5.1270   24.5600  -29.3640 C   0  0  0  0  0  0  0  0  0  0  0  0
   -6.4570   24.5640  -29.7940 C   0  0  0  0  0  0  0  0  0  0  0  0
   -6.8280   23.8160  -30.9170 C   0  0  0  0  0  0  0  0  0  0  0  0
   -5.8700   23.0650  -31.6130 C   0  0  0  0  0  0  0  0  0  0  0  0
   -2.3240   21.8450  -31.2290 C   0  0  0  0  0  0  0  0  0  0  0  0
   -2.1380   20.3430  -31.4600 C   0  0  0  0  0  0  0  0  0  0  0  0
   -4.6290   15.2740  -32.5000 C   0  0  0  0  0  0  0  0  0  0  0  0
   -4.2960   13.9240  -31.9530 C   0  0  0  0  0  0  0  0  0  0  0  0
   -5.6140   16.0260  -32.0700 O   0  0  0  0  0  0  0  0  0  0  0  0
   -7.6730   18.1110  -31.7260 C   0  0  0  0  0  0  0  0  0  0  0  0
   -8.5700   19.1710  -31.5560 C   0  0  0  0  0  0  0  0  0  0  0  0
   -9.5112   21.7185  -30.9827 H   0  0  0  0  0  0  0  0  0  0  0  0
   -8.9361   22.4241  -32.5313 H   0  0  0  0  0  0  0  0  0  0  0  0
  -10.2825   21.2351  -32.5313 H   0  0  0  0  0  0  0  0  0  0  0  0
   -7.0533   21.4982  -33.5491 H   0  0  0  0  0  0  0  0  0  0  0  0
   -5.4517   19.6141  -33.8521 H   0  0  0  0  0  0  0  0  0  0  0  0
   -4.3180   17.8880  -34.3550 H   0  0  0  0  0  0  0  0  0  0  0  0
   -2.7244   14.4369  -34.3341 H   0  0  0  0  0  0  0  0  0  0  0  0
   -2.7157   15.9998  -35.2264 H   0  0  0  0  0  0  0  0  0  0  0  0
    0.7080   15.6530  -33.9940 H   0  0  0  0  0  0  0  0  0  0  0  0
   -2.3992   17.3447  -31.6335 H   0  0  0  0  0  0  0  0  0  0  0  0
   -0.6979   17.8635  -31.8771 H   0  0  0  0  0  0  0  0  0  0  0  0
   -1.7893   21.6376  -34.0586 H   0  0  0  0  0  0  0  0  0  0  0  0
   -3.0258   20.5417  -34.7806 H   0  0  0  0  0  0  0  0  0  0  0  0
   -3.8644   22.8230  -33.9187 H   0  0  0  0  0  0  0  0  0  0  0  0
   -4.7384   21.3460  -33.3371 H   0  0  0  0  0  0  0  0  0  0  0  0
   -3.1211   23.8224  -29.7183 H   0  0  0  0  0  0  0  0  0  0  0  0
   -4.8350   25.1417  -28.4772 H   0  0  0  0  0  0  0  0  0  0  0  0
   -7.2102   25.1537  -29.2509 H   0  0  0  0  0  0  0  0  0  0  0  0
   -7.8748   23.8172  -31.2549 H   0  0  0  0  0  0  0  0  0  0  0  0
   -6.1683   22.4738  -32.4913 H   0  0  0  0  0  0  0  0  0  0  0  0
   -1.4565   22.3875  -31.6329 H   0  0  0  0  0  0  0  0  0  0  0  0
   -2.4113   22.0401  -30.1500 H   0  0  0  0  0  0  0  0  0  0  0  0
   -1.1209   20.0593  -31.1518 H   0  0  0  0  0  0  0  0  0  0  0  0
   -2.8959   19.8110  -30.8663 H   0  0  0  0  0  0  0  0  0  0  0  0
   -4.3052   13.9613  -30.8537 H   0  0  0  0  0  0  0  0  0  0  0  0
   -5.0408   13.1933  -32.3013 H   0  0  0  0  0  0  0  0  0  0  0  0
   -3.2968   13.6235  -32.3013 H   0  0  0  0  0  0  0  0  0  0  0  0
   -7.8543   17.1551  -31.2128 H   0  0  0  0  0  0  0  0  0  0  0  0
   -9.4567   19.0398  -30.9183 H   0  0  0  0  0  0  0  0  0  0  0  0
  1  2  1  0
  2  3  2  0
  3  4  1  0
  4  5  2  0
  5  6  1  0
  6  7  2  0
  7  8  1  0
  8  9  1  0
  9 10  1  0
 10 11  1  6
 10 12  1  0
 12 13  1  0
 13 14  2  0
 13 15  1  0
 15 16  1  0
 16 17  1  0
 17 18  1  0
 18 19  1  0
 19 20  2  0
 20 21  1  0
 21 22  2  0
 22 23  1  0
 23 24  2  0
 18 25  1  0
 25 26  1  0
  8 27  2  0
 27 28  1  0
 27 29  1  0
  5 30  1  0
 30 31  2  0
 31  2  1  0
 29  6  1  0
 26 15  1  0
 24 19  1  0
  1 32  1  0
  1 33  1  0
  1 34  1  0
  3 35  1  0
  4 36  1  0
  7 37  1  0
  9 38  1  0
  9 39  1  0
 11 40  1  0
 12 41  1  0
 12 42  1  0
 16 43  1  0
 16 44  1  0
 17 45  1  0
 17 46  1  0
 20 47  1  0
 21 48  1  0
 22 49  1  0
 23 50  1  0
 24 51  1  0
 25 52  1  0
 25 53  1  0
 26 54  1  0
 26 55  1  0
 28 56  1  0
 28 57  1  0
 28 58  1  0
 30 59  1  0
 31 60  1  0
M  CHG  2   7   1  10   1
M  END
>  <UniqueID>  (42) 
40

>  <SMILES>  (42) 
Cc1ccc(-c2[nH+]c(C[S@@+](O)CC(=O)N3CCN(c4ccccc4)CC3)c(C)o2)cc1

>  <Energy>  (42) 
90.75878333736468

>  <Genealogy>  (42) 
Cc1ccc(-c2[nH+]c(C[S+](O)CC(=O)N3CCN(c4ccccc4)CC3)c(C)o2)cc1 (protonated)
Cc1ccc(-c2[nH+]c(C[S@@+](O)CC(=O)N3CCN(c4ccccc4)CC3)c(C)o2)cc1 (chirality)
Cc1ccc(-c2[nH+]c(C[S@@+](O)CC(=O)N3CCN(c4ccccc4)CC3)c(C)o2)cc1 (3D coordinates assigned)
Cc1ccc(-c2[nH+]c(C[S@@+](O)CC(=O)N3CCN(c4ccccc4)CC3)c(C)o2)cc1 (nonaromatic ring conformer: 90.75878333736468 kcal/mol)

>  <smiles>  (42) 
Cc1ccc(-c2nc(C[S+]([O-])CC(=O)N3CCN(c4ccccc4)CC3)c(C)o2)cc1

>  <score_type>  (42) 
oracle

>  <origin>  (42) 
adg

>  <m_score__min__energy>  (42) 
-8.4800000000000004

>  <m_primary>  (42) 
energy

$$$$
42:0
     RDKit          3D

 39 39  0  0  0  0  0  0  0  0999 V2000
   -4.2190   24.9320  -26.3600 C   0  0  0  0  0  0  0  0  0  0  0  0
   -3.1470   24.3870  -27.3120 C   0  0  0  0  0  0  0  0  0  0  0  0
   -3.7170   23.4690  -28.3360 N   0  0  0  0  0  0  0  0  0  0  0  0
   -4.1310   22.1860  -27.7040 C   0  0  0  0  0  0  0  0  0  0  0  0
   -3.0700   21.0910  -27.8730 C   0  0  0  0  0  0  0  0  0  0  0  0
   -2.7240   23.2200  -29.4220 C   0  0  0  0  0  0  0  0  0  0  0  0
   -3.3160   23.4380  -30.8220 C   0  0  0  0  0  0  0  0  0  0  0  0
   -4.2210   24.5360  -30.8190 O   0  0  0  0  0  0  0  0  0  0  0  0
   -5.6060   24.3710  -30.7250 C   0  0  0  0  0  0  0  0  0  0  0  0
   -6.1780   24.3710  -29.6010 O   0  0  0  0  0  0  0  0  0  0  0  0
   -6.4120   24.1480  -31.9670 C   0  0  0  0  0  0  0  0  0  0  0  0
   -7.0030   22.7640  -31.9770 C   0  0  0  0  0  0  0  0  0  0  0  0
   -8.3440   22.5600  -31.6130 C   0  0  0  0  0  0  0  0  0  0  0  0
   -8.8840   21.2700  -31.6090 C   0  0  0  0  0  0  0  0  0  0  0  0
   -8.0870   20.1740  -31.9560 C   0  0  0  0  0  0  0  0  0  0  0  0
   -8.7620   18.5560  -31.9330 Cl  0  0  0  0  0  0  0  0  0  0  0  0
   -6.7470   20.3700  -32.3070 C   0  0  0  0  0  0  0  0  0  0  0  0
   -6.2050   21.6590  -32.3150 C   0  0  0  0  0  0  0  0  0  0  0  0
   -3.9015   24.7706  -25.3193 H   0  0  0  0  0  0  0  0  0  0  0  0
   -4.3551   26.0088  -26.5390 H   0  0  0  0  0  0  0  0  0  0  0  0
   -5.1692   24.4075  -26.5390 H   0  0  0  0  0  0  0  0  0  0  0  0
   -2.6650   25.2329  -27.8239 H   0  0  0  0  0  0  0  0  0  0  0  0
   -2.4228   23.8157  -26.7127 H   0  0  0  0  0  0  0  0  0  0  0  0
   -4.5690   23.9230  -28.7470 H   0  0  0  0  0  0  0  0  0  0  0  0
   -4.2966   22.3568  -26.6300 H   0  0  0  0  0  0  0  0  0  0  0  0
   -5.0516   21.8453  -28.2004 H   0  0  0  0  0  0  0  0  0  0  0  0
   -2.7369   20.7472  -26.8826 H   0  0  0  0  0  0  0  0  0  0  0  0
   -3.5012   20.2453  -28.4288 H   0  0  0  0  0  0  0  0  0  0  0  0
   -2.2111   21.4953  -28.4288 H   0  0  0  0  0  0  0  0  0  0  0  0
   -1.8747   23.9060  -29.2875 H   0  0  0  0  0  0  0  0  0  0  0  0
   -2.4095   22.1682  -29.3524 H   0  0  0  0  0  0  0  0  0  0  0  0
   -2.5006   23.6439  -31.5310 H   0  0  0  0  0  0  0  0  0  0  0  0
   -3.8612   22.5306  -31.1211 H   0  0  0  0  0  0  0  0  0  0  0  0
   -7.2249   24.8879  -32.0075 H   0  0  0  0  0  0  0  0  0  0  0  0
   -5.7525   24.2569  -32.8406 H   0  0  0  0  0  0  0  0  0  0  0  0
   -8.9717   23.4178  -31.3301 H   0  0  0  0  0  0  0  0  0  0  0  0
   -9.9376   21.1169  -31.3324 H   0  0  0  0  0  0  0  0  0  0  0  0
   -6.1186   19.5085  -32.5772 H   0  0  0  0  0  0  0  0  0  0  0  0
   -5.1496   21.8080  -32.5871 H   0  0  0  0  0  0  0  0  0  0  0  0
  1  2  1  0
  2  3  1  0
  3  4  1  0
  4  5  1  0
  3  6  1  0
  6  7  1  0
  7  8  1  0
  8  9  1  0
  9 10  2  0
  9 11  1  0
 11 12  1  0
 12 13  2  0
 13 14  1  0
 14 15  2  0
 15 16  1  0
 15 17  1  0
 17 18  2  0
 18 12  1  0
  1 19  1  0
  1 20  1  0
  1 21  1  0
  2 22  1  0
  2 23  1  0
  3 24  1  0
  4 25  1  0
  4 26  1  0
  5 27  1  0
  5 28  1  0
  5 29  1  0
  6 30  1  0
  6 31  1  0
  7 32  1  0
  7 33  1  0
 11 34  1  0
 11 35  1  0
 13 36  1  0
 14 37  1  0
 17 38  1  0
 18 39  1  0
M  CHG  1   3   1
M  END
>  <UniqueID>  (43) 
41

>  <SMILES>  (43) 
CC[NH+](CC)CCOC(=O)Cc1ccc(Cl)cc1

>  <Energy>  (43) 
31.40458813678849

>  <Genealogy>  (43) 
CC[NH+](CC)CCOC(=O)Cc1ccc(Cl)cc1 (protonated)
CC[NH+](CC)CCOC(=O)Cc1ccc(Cl)cc1 (3D coordinates assigned)
CC[NH+](CC)CCOC(=O)Cc1ccc(Cl)cc1 (optimized conformer: 31.40458813678849 kcal/mol)

>  <smiles>  (43) 
CCN(CC)CCOC(=O)Cc1ccc(Cl)cc1

>  <score_type>  (43) 
oracle

>  <origin>  (43) 
adg

>  <m_score__min__energy>  (43) 
-5.3700000000000001

>  <m_primary>  (43) 
energy

$$$$
43:0
     RDKit          3D

 55 58  0  0  0  0  0  0  0  0999 V2000
   -6.2280   17.2810  -32.0330 C   0  0  0  0  0  0  0  0  0  0  0  0
   -6.6890   17.9590  -33.3200 C   0  0  0  0  0  0  0  0  0  0  0  0
   -6.5170   19.4190  -33.2290 N   0  0  0  0  0  0  0  0  0  0  0  0
   -5.2250   20.0080  -33.6090 C   0  0  0  0  0  0  0  0  0  0  0  0
   -4.7700   20.9820  -32.5280 C   0  0  0  0  0  0  0  0  0  0  0  0
   -5.8000   22.0070  -32.3340 N   0  0  0  0  0  0  0  0  0  0  0  0
   -5.4100   23.4250  -32.3040 C   0  0  0  0  0  0  0  0  0  0  0  0
   -5.2890   23.9280  -30.8870 C   0  0  0  0  0  0  0  0  0  0  0  0
   -6.0960   24.8110  -30.4810 O   0  0  0  0  0  0  0  0  0  0  0  0
   -4.2450   23.4520  -30.0080 N   0  0  0  0  0  0  0  0  0  0  0  0
   -3.1260   22.6620  -30.5510 C   0  0  0  0  0  0  0  0  0  0  0  0
   -2.0440   22.4210  -29.4970 C   0  0  0  0  0  0  0  0  0  0  0  0
   -2.6740   21.9630  -28.2520 N   0  0  0  0  0  0  0  0  0  0  0  0
   -2.3040   20.7070  -27.6510 C   0  0  0  0  0  0  0  0  0  0  0  0
   -1.0420   20.1410  -27.9010 C   0  0  0  0  0  0  0  0  0  0  0  0
   -0.7190   18.9050  -27.3400 C   0  0  0  0  0  0  0  0  0  0  0  0
   -1.6540   18.2340  -26.5520 C   0  0  0  0  0  0  0  0  0  0  0  0
   -2.8980   18.8210  -26.3210 C   0  0  0  0  0  0  0  0  0  0  0  0
   -3.1990   20.0310  -26.8700 N   0  0  0  0  0  0  0  0  0  0  0  0
   -3.7860   22.7350  -27.6820 C   0  0  0  0  0  0  0  0  0  0  0  0
   -4.2120   23.8890  -28.6010 C   0  0  0  0  0  0  0  0  0  0  0  0
   -7.1800   21.5810  -32.2240 C   0  0  0  0  0  0  0  0  0  0  0  0
   -8.1630   22.4160  -31.6540 C   0  0  0  0  0  0  0  0  0  0  0  0
   -9.4880   21.9860  -31.5610 C   0  0  0  0  0  0  0  0  0  0  0  0
   -9.8510   20.7290  -32.0350 C   0  0  0  0  0  0  0  0  0  0  0  0
   -8.8900   19.8840  -32.5940 C   0  0  0  0  0  0  0  0  0  0  0  0
   -7.5440   20.2910  -32.6850 C   0  0  0  0  0  0  0  0  0  0  0  0
   -6.6090   17.8414  -31.1665 H   0  0  0  0  0  0  0  0  0  0  0  0
   -6.6140   16.2514  -32.0024 H   0  0  0  0  0  0  0  0  0  0  0  0
   -5.1286   17.2614  -32.0024 H   0  0  0  0  0  0  0  0  0  0  0  0
   -6.0940   17.5770  -34.1626 H   0  0  0  0  0  0  0  0  0  0  0  0
   -7.7553   17.7372  -33.4746 H   0  0  0  0  0  0  0  0  0  0  0  0
   -4.4770   19.2092  -33.7206 H   0  0  0  0  0  0  0  0  0  0  0  0
   -5.3345   20.5453  -34.5626 H   0  0  0  0  0  0  0  0  0  0  0  0
   -4.6118   20.4372  -31.5856 H   0  0  0  0  0  0  0  0  0  0  0  0
   -3.8282   21.4599  -32.8356 H   0  0  0  0  0  0  0  0  0  0  0  0
   -4.4402   23.5411  -32.8099 H   0  0  0  0  0  0  0  0  0  0  0  0
   -6.1875   24.0108  -32.8162 H   0  0  0  0  0  0  0  0  0  0  0  0
   -3.5095   21.6910  -30.8976 H   0  0  0  0  0  0  0  0  0  0  0  0
   -2.6776   23.2262  -31.3820 H   0  0  0  0  0  0  0  0  0  0  0  0
   -1.3433   21.6539  -29.8582 H   0  0  0  0  0  0  0  0  0  0  0  0
   -1.4957   23.3562  -29.3107 H   0  0  0  0  0  0  0  0  0  0  0  0
   -0.3140   20.6688  -28.5346 H   0  0  0  0  0  0  0  0  0  0  0  0
    0.2712   18.4606  -27.5188 H   0  0  0  0  0  0  0  0  0  0  0  0
   -1.4130   17.2526  -26.1175 H   0  0  0  0  0  0  0  0  0  0  0  0
   -3.6391   18.3049  -25.6930 H   0  0  0  0  0  0  0  0  0  0  0  0
   -4.1350   20.4440  -26.6690 H   0  0  0  0  0  0  0  0  0  0  0  0
   -4.6447   22.0641  -27.5322 H   0  0  0  0  0  0  0  0  0  0  0  0
   -3.4482   23.1658  -26.7279 H   0  0  0  0  0  0  0  0  0  0  0  0
   -5.2144   24.2334  -28.3066 H   0  0  0  0  0  0  0  0  0  0  0  0
   -3.4824   24.7063  -28.5024 H   0  0  0  0  0  0  0  0  0  0  0  0
   -7.8841   23.4123  -31.2803 H   0  0  0  0  0  0  0  0  0  0  0  0
  -10.2474   22.6429  -31.1117 H   0  0  0  0  0  0  0  0  0  0  0  0
  -10.8985   20.3999  -31.9691 H   0  0  0  0  0  0  0  0  0  0  0  0
   -9.1862   18.8923  -32.9665 H   0  0  0  0  0  0  0  0  0  0  0  0
  1  2  1  0
  2  3  1  0
  3  4  1  0
  4  5  1  0
  5  6  1  0
  6  7  1  0
  7  8  1  0
  8  9  2  0
  8 10  1  0
 10 11  1  0
 11 12  1  0
 12 13  1  0
 13 14  1  0
 14 15  2  0
 15 16  1  0
 16 17  2  0
 17 18  1  0
 18 19  2  0
 13 20  1  0
 20 21  1  0
  6 22  1  0
 22 23  2  0
 23 24  1  0
 24 25  2  0
 25 26  1  0
 26 27  2  0
 27  3  1  0
 21 10  1  0
 27 22  1  0
 19 14  1  0
  1 28  1  0
  1 29  1  0
  1 30  1  0
  2 31  1  0
  2 32  1  0
  4 33  1  0
  4 34  1  0
  5 35  1  0
  5 36  1  0
  7 37  1  0
  7 38  1  0
 11 39  1  0
 11 40  1  0
 12 41  1  0
 12 42  1  0
 15 43  1  0
 16 44  1  0
 17 45  1  0
 18 46  1  0
 19 47  1  0
 20 48  1  0
 20 49  1  0
 21 50  1  0
 21 51  1  0
 23 52  1  0
 24 53  1  0
 25 54  1  0
 26 55  1  0
M  CHG  1  19   1
M  END
>  <UniqueID>  (44) 
42

>  <SMILES>  (44) 
CCN1CCN(CC(=O)N2CCN(c3cccc[nH+]3)CC2)c2ccccc21

>  <Energy>  (44) 
62.50413268189415

>  <Genealogy>  (44) 
CCN1CCN(CC(=O)N2CCN(c3cccc[nH+]3)CC2)c2ccccc21 (protonated)
CCN1CCN(CC(=O)N2CCN(c3cccc[nH+]3)CC2)c2ccccc21 (3D coordinates assigned)
CCN1CCN(CC(=O)N2CCN(c3cccc[nH+]3)CC2)c2ccccc21 (nonaromatic ring conformer: 62.50413268189415 kcal/mol)

>  <smiles>  (44) 
CCN1CCN(CC(=O)N2CCN(c3ccccn3)CC2)c2ccccc21

>  <score_type>  (44) 
oracle

>  <origin>  (44) 
adg

>  <m_score__min__energy>  (44) 
-8.3399999999999999

>  <m_primary>  (44) 
energy

$$$$
44:0
     RDKit          3D

 55 58  0  0  0  0  0  0  0  0999 V2000
   -6.6320   16.1310  -34.2350 C   0  0  0  0  0  0  0  0  0  0  0  0
   -6.2350   17.4600  -33.7840 N   0  0  0  0  0  0  0  0  0  0  0  0
   -5.0090   18.0200  -33.9200 C   0  0  0  0  0  0  0  0  0  0  0  0
   -4.9870   19.2770  -33.3250 C   0  0  0  0  0  0  0  0  0  0  0  0
   -3.7960   20.1810  -33.1890 C   0  0  0  0  0  0  0  0  0  0  0  0
   -4.1560   21.5620  -33.5530 N   0  0  0  0  0  0  0  0  0  0  0  0
   -4.2260   22.4560  -32.3750 C   0  0  0  0  0  0  0  0  0  0  0  0
   -5.5620   23.2290  -32.3150 C   0  0  0  0  0  0  0  0  0  0  0  0
   -5.6290   24.1600  -31.0810 C   0  0  0  0  0  0  0  0  0  0  0  0
   -4.6130   23.8230  -30.0570 N   0  0  0  0  0  0  0  0  0  0  0  0
   -4.8740   24.5620  -28.8020 C   0  0  0  0  0  0  0  0  0  0  0  0
   -4.0520   23.9650  -27.6540 C   0  0  0  0  0  0  0  0  0  0  0  0
   -2.5910   24.2830  -27.8250 C   0  0  0  0  0  0  0  0  0  0  0  0
   -1.8190   23.5880  -28.7670 C   0  0  0  0  0  0  0  0  0  0  0  0
   -0.4720   23.9220  -28.9330 C   0  0  0  0  0  0  0  0  0  0  0  0
    0.0800   24.9200  -28.1920 N   0  0  0  0  0  0  0  0  0  0  0  0
   -0.6500   25.6190  -27.2810 C   0  0  0  0  0  0  0  0  0  0  0  0
   -1.9990   25.3170  -27.0840 C   0  0  0  0  0  0  0  0  0  0  0  0
   -4.5850   22.3650  -29.8280 C   0  0  0  0  0  0  0  0  0  0  0  0
   -4.0430   21.6380  -31.0720 C   0  0  0  0  0  0  0  0  0  0  0  0
   -6.2460   19.4620  -32.7860 C   0  0  0  0  0  0  0  0  0  0  0  0
   -6.7800   20.5150  -32.0430 C   0  0  0  0  0  0  0  0  0  0  0  0
   -8.1130   20.4020  -31.6060 C   0  0  0  0  0  0  0  0  0  0  0  0
   -8.8700   19.2500  -31.9130 C   0  0  0  0  0  0  0  0  0  0  0  0
   -8.3040   18.2010  -32.6580 C   0  0  0  0  0  0  0  0  0  0  0  0
   -6.9800   18.3400  -33.0840 C   0  0  0  0  0  0  0  0  0  0  0  0
   -6.8236   15.4896  -33.3621 H   0  0  0  0  0  0  0  0  0  0  0  0
   -7.5465   16.2076  -34.8415 H   0  0  0  0  0  0  0  0  0  0  0  0
   -5.8253   15.6935  -34.8415 H   0  0  0  0  0  0  0  0  0  0  0  0
   -4.1544   17.5487  -34.4276 H   0  0  0  0  0  0  0  0  0  0  0  0
   -3.4427   20.1610  -32.1475 H   0  0  0  0  0  0  0  0  0  0  0  0
   -3.0019   19.8293  -33.8641 H   0  0  0  0  0  0  0  0  0  0  0  0
   -3.4640   21.9360  -34.2450 H   0  0  0  0  0  0  0  0  0  0  0  0
   -5.0970   21.5350  -34.0160 H   0  0  0  0  0  0  0  0  0  0  0  0
   -3.4127   23.1901  -32.4729 H   0  0  0  0  0  0  0  0  0  0  0  0
   -5.6635   23.8368  -33.2262 H   0  0  0  0  0  0  0  0  0  0  0  0
   -6.3790   22.4966  -32.2370 H   0  0  0  0  0  0  0  0  0  0  0  0
   -5.4652   25.1961  -31.4121 H   0  0  0  0  0  0  0  0  0  0  0  0
   -6.6202   24.0328  -30.6212 H   0  0  0  0  0  0  0  0  0  0  0  0
   -4.5955   25.6175  -28.9375 H   0  0  0  0  0  0  0  0  0  0  0  0
   -5.9432   24.4838  -28.5557 H   0  0  0  0  0  0  0  0  0  0  0  0
   -4.4041   24.3860  -26.7007 H   0  0  0  0  0  0  0  0  0  0  0  0
   -4.1792   22.8724  -27.6586 H   0  0  0  0  0  0  0  0  0  0  0  0
   -2.2699   22.7864  -29.3704 H   0  0  0  0  0  0  0  0  0  0  0  0
    0.1428   23.3767  -29.6643 H   0  0  0  0  0  0  0  0  0  0  0  0
   -0.1767   26.4233  -26.6987 H   0  0  0  0  0  0  0  0  0  0  0  0
   -2.5931   25.8855  -26.3534 H   0  0  0  0  0  0  0  0  0  0  0  0
   -3.9355   22.1454  -28.9678 H   0  0  0  0  0  0  0  0  0  0  0  0
   -5.6083   22.0151  -29.6272 H   0  0  0  0  0  0  0  0  0  0  0  0
   -2.9699   21.4452  -30.9263 H   0  0  0  0  0  0  0  0  0  0  0  0
   -4.6146   20.7049  -31.1846 H   0  0  0  0  0  0  0  0  0  0  0  0
   -6.1785   21.4050  -31.8063 H   0  0  0  0  0  0  0  0  0  0  0  0
   -8.5679   21.2156  -31.0220 H   0  0  0  0  0  0  0  0  0  0  0  0
   -9.9111   19.1730  -31.5663 H   0  0  0  0  0  0  0  0  0  0  0  0
   -8.8851   17.2985  -32.8984 H   0  0  0  0  0  0  0  0  0  0  0  0
  1  2  1  0
  2  3  1  0
  3  4  2  0
  4  5  1  0
  5  6  1  0
  6  7  1  0
  7  8  1  0
  8  9  1  0
  9 10  1  0
 10 11  1  0
 11 12  1  0
 12 13  1  0
 13 14  2  0
 14 15  1  0
 15 16  2  0
 16 17  1  0
 17 18  2  0
 10 19  1  0
 19 20  1  0
  4 21  1  0
 21 22  2  0
 22 23  1  0
 23 24  2  0
 24 25  1  0
 25 26  2  0
 26  2  1  0
 20  7  1  0
 26 21  1  0
 18 13  1  0
  1 27  1  0
  1 28  1  0
  1 29  1  0
  3 30  1  0
  5 31  1  0
  5 32  1  0
  6 33  1  0
  6 34  1  0
  7 35  1  0
  8 36  1  0
  8 37  1  0
  9 38  1  0
  9 39  1  0
 11 40  1  0
 11 41  1  0
 12 42  1  0
 12 43  1  0
 14 44  1  0
 15 45  1  0
 17 46  1  0
 18 47  1  0
 19 48  1  0
 19 49  1  0
 20 50  1  0
 20 51  1  0
 22 52  1  0
 23 53  1  0
 24 54  1  0
 25 55  1  0
M  CHG  1   6   1
M  END
>  <UniqueID>  (45) 
43

>  <SMILES>  (45) 
Cn1cc(C[NH2+]C2CCN(CCc3ccncc3)CC2)c2ccccc21

>  <Energy>  (45) 
96.16191648749324

>  <Genealogy>  (45) 
Cn1cc(C[NH2+]C2CCN(CCc3ccncc3)CC2)c2ccccc21 (protonated)
Cn1cc(C[NH2+]C2CCN(CCc3ccncc3)CC2)c2ccccc21 (3D coordinates assigned)
Cn1cc(C[NH2+]C2CCN(CCc3ccncc3)CC2)c2ccccc21 (nonaromatic ring conformer: 96.16191648749324 kcal/mol)

>  <smiles>  (45) 
Cn1cc(CNC2CCN(CCc3ccncc3)CC2)c2ccccc21

>  <score_type>  (45) 
oracle

>  <origin>  (45) 
adg

>  <m_score__min__energy>  (45) 
-8.5999999999999996

>  <m_primary>  (45) 
energy

$$$$
45:0
     RDKit          3D

 38 40  0  0  0  0  0  0  0  0999 V2000
   -0.0954   27.4852  -27.5563 H   0  0  0  0  0  0  0  0  0  0  0  0
   -0.8120   26.6560  -27.4620 C   0  0  0  0  0  0  0  0  0  0  0  0
   -1.1460   25.9190  -28.5560 N   0  0  0  0  0  0  0  0  0  0  0  0
   -2.0320   24.8870  -28.4830 C   0  0  0  0  0  0  0  0  0  0  0  0
   -2.3640   24.1020  -29.7190 C   0  0  0  0  0  0  0  0  0  0  0  0
   -2.6957   23.0944  -29.4279 H   0  0  0  0  0  0  0  0  0  0  0  0
   -1.4652   24.0420  -30.3504 H   0  0  0  0  0  0  0  0  0  0  0  0
   -3.4300   24.7570  -30.4810 N   0  0  0  0  0  0  0  0  0  0  0  0
   -4.7040   24.4800  -30.4540 C   0  0  0  0  0  0  0  0  0  0  0  0
   -5.1360   23.3500  -31.0710 N   0  0  0  0  0  0  0  0  0  0  0  0
   -6.4470   22.9820  -31.0860 C   0  0  0  0  0  0  0  0  0  0  0  0
   -6.8490   21.7340  -31.7840 C   0  0  0  0  0  0  0  0  0  0  0  0
   -8.1170   21.1770  -31.5440 C   0  0  0  0  0  0  0  0  0  0  0  0
   -8.8030   21.6672  -30.8375 H   0  0  0  0  0  0  0  0  0  0  0  0
   -8.5130   20.0080  -32.1940 C   0  0  0  0  0  0  0  0  0  0  0  0
   -9.5051   19.5776  -31.9927 H   0  0  0  0  0  0  0  0  0  0  0  0
   -7.6540   19.3830  -33.0990 C   0  0  0  0  0  0  0  0  0  0  0  0
   -7.9721   18.4593  -33.6046 H   0  0  0  0  0  0  0  0  0  0  0  0
   -6.3920   19.9220  -33.3680 C   0  0  0  0  0  0  0  0  0  0  0  0
   -5.5710   19.2610  -34.2940 O   0  0  0  0  0  0  0  0  0  0  0  0
   -5.6570   17.8740  -34.6010 C   0  0  0  0  0  0  0  0  0  0  0  0
   -5.6930   17.2934  -33.6674 H   0  0  0  0  0  0  0  0  0  0  0  0
   -6.5687   17.6839  -35.1864 H   0  0  0  0  0  0  0  0  0  0  0  0
   -4.7758   17.5727  -35.1864 H   0  0  0  0  0  0  0  0  0  0  0  0
   -5.9930   21.1030  -32.7100 C   0  0  0  0  0  0  0  0  0  0  0  0
   -5.0043   21.5366  -32.9209 H   0  0  0  0  0  0  0  0  0  0  0  0
   -7.3830   23.8150  -30.4510 C   0  0  0  0  0  0  0  0  0  0  0  0
   -8.4509   23.5510  -30.4555 H   0  0  0  0  0  0  0  0  0  0  0  0
   -6.9620   24.9490  -29.8310 N   0  0  0  0  0  0  0  0  0  0  0  0
   -7.6640   25.5670  -29.3650 H   0  0  0  0  0  0  0  0  0  0  0  0
   -5.6500   25.3010  -29.8150 C   0  0  0  0  0  0  0  0  0  0  0  0
   -5.3299   26.2219  -29.3057 H   0  0  0  0  0  0  0  0  0  0  0  0
   -2.6130   24.5590  -27.2500 C   0  0  0  0  0  0  0  0  0  0  0  0
   -3.3227   23.7217  -27.1769 H   0  0  0  0  0  0  0  0  0  0  0  0
   -2.2840   25.3030  -26.1160 C   0  0  0  0  0  0  0  0  0  0  0  0
   -2.7368   25.0569  -25.1442 H   0  0  0  0  0  0  0  0  0  0  0  0
   -1.3780   26.3610  -26.2190 C   0  0  0  0  0  0  0  0  0  0  0  0
   -1.1131   26.9551  -25.3319 H   0  0  0  0  0  0  0  0  0  0  0  0
  1  2  1  0
  2  3  2  0
  3  4  1  0
  4  5  1  0
  5  6  1  0
  5  7  1  0
  5  8  1  0
  8  9  2  0
  9 10  1  0
 10 11  1  0
 11 12  1  0
 12 13  2  0
 13 14  1  0
 13 15  1  0
 15 16  1  0
 15 17  2  0
 17 18  1  0
 17 19  1  0
 19 20  1  0
 20 21  1  0
 21 22  1  0
 21 23  1  0
 21 24  1  0
 19 25  2  0
 25 26  1  0
 11 27  2  0
 27 28  1  0
 27 29  1  0
 29 30  1  0
 29 31  2  0
 31 32  1  0
  4 33  2  0
 33 34  1  0
 33 35  1  0
 35 36  1  0
 35 37  2  0
 37 38  1  0
 37  2  1  0
 31  9  1  0
 25 12  1  0
M  CHG  2  10  -1  29   1
M  END
>  <UniqueID>  (46) 
44

>  <SMILES>  (46) 
COc1cccc(-c2c[nH+]c/c(=N\Cc3ccccn3)[n-]2)c1

>  <Energy>  (46) 
46.81106217716081

>  <Genealogy>  (46) 
COc1cccc(-c2c[nH+]cc(=NCc3ccccn3)[n-]2)c1 (protonated)
COc1cccc(-c2c[nH+]c/c(=N\Cc3ccccn3)[n-]2)c1 (cis-trans isomerization)
COc1cccc(-c2c[nH+]c/c(=N\Cc3ccccn3)[n-]2)c1 (3D coordinates assigned)
COc1cccc(-c2c[nH+]c/c(=N\Cc3ccccn3)[n-]2)c1 (optimized conformer: 46.81106217716081 kcal/mol)

>  <smiles>  (46) 
COc1cccc(-c2cncc(=NCc3ccccn3)[nH]2)c1

>  <score_type>  (46) 
oracle

>  <origin>  (46) 
adg

>  <m_score__min__energy>  (46) 
-8.0999999999999996

>  <m_primary>  (46) 
energy

$$$$
46:0
     RDKit          3D

 52 55  0  0  0  0  0  0  0  0999 V2000
   -2.0110   24.8840  -26.8610 C   0  0  0  0  0  0  0  0  0  0  0  0
   -1.6110   24.8790  -28.3040 C   0  0  0  0  0  0  0  0  0  0  0  0
   -0.4400   24.5370  -28.6160 O   0  0  0  0  0  0  0  0  0  0  0  0
   -2.5130   25.2870  -29.3420 N   0  0  0  0  0  0  0  0  0  0  0  0
   -3.6540   24.5140  -29.8200 C   0  0  0  0  0  0  0  0  0  0  0  0
   -3.2070   23.2190  -30.4380 C   0  0  0  0  0  0  0  0  0  0  0  0
   -2.1600   22.5090  -29.9510 N   0  0  0  0  0  0  0  0  0  0  0  0
   -2.1090   21.4150  -30.7240 C   0  0  0  0  0  0  0  0  0  0  0  0
   -1.2230   20.3450  -30.6340 C   0  0  0  0  0  0  0  0  0  0  0  0
   -1.3750   19.2910  -31.5500 C   0  0  0  0  0  0  0  0  0  0  0  0
   -2.4070   19.3210  -32.5250 C   0  0  0  0  0  0  0  0  0  0  0  0
   -2.5430   18.2380  -33.4660 N   0  0  0  0  0  0  0  0  0  0  0  0
   -3.6690   17.4600  -33.4160 C   0  0  0  0  0  0  0  0  0  0  0  0
   -3.8370   16.3820  -34.2950 C   0  0  0  0  0  0  0  0  0  0  0  0
   -5.0880   15.5560  -34.2560 C   0  0  0  0  0  0  0  0  0  0  0  0
   -2.8490   16.1310  -35.2520 C   0  0  0  0  0  0  0  0  0  0  0  0
   -1.7100   16.9290  -35.3000 C   0  0  0  0  0  0  0  0  0  0  0  0
   -1.5680   17.9870  -34.3980 C   0  0  0  0  0  0  0  0  0  0  0  0
   -0.5400   18.7160  -34.4680 O   0  0  0  0  0  0  0  0  0  0  0  0
   -3.2870   20.4260  -32.5810 C   0  0  0  0  0  0  0  0  0  0  0  0
   -3.1030   21.4630  -31.6600 C   0  0  0  0  0  0  0  0  0  0  0  0
   -3.8020   22.6100  -31.5060 N   0  0  0  0  0  0  0  0  0  0  0  0
   -4.9880   23.0490  -32.2580 C   0  0  0  0  0  0  0  0  0  0  0  0
   -6.2150   22.2480  -31.8760 C   0  0  0  0  0  0  0  0  0  0  0  0
   -6.4550   21.0170  -32.5130 C   0  0  0  0  0  0  0  0  0  0  0  0
   -7.5740   20.2500  -32.1810 C   0  0  0  0  0  0  0  0  0  0  0  0
   -8.4740   20.7060  -31.2180 C   0  0  0  0  0  0  0  0  0  0  0  0
   -8.2620   21.9340  -30.5890 C   0  0  0  0  0  0  0  0  0  0  0  0
   -7.1420   22.7140  -30.9120 C   0  0  0  0  0  0  0  0  0  0  0  0
   -6.9790   23.9870  -30.2530 C   0  0  0  0  0  0  0  0  0  0  0  0
   -6.8570   25.0090  -29.7240 N   0  0  0  0  0  0  0  0  0  0  0  0
   -1.1096   24.8727  -26.2306 H   0  0  0  0  0  0  0  0  0  0  0  0
   -2.5974   25.7895  -26.6462 H   0  0  0  0  0  0  0  0  0  0  0  0
   -2.6198   23.9934  -26.6462 H   0  0  0  0  0  0  0  0  0  0  0  0
   -4.3214   24.2968  -28.9730 H   0  0  0  0  0  0  0  0  0  0  0  0
   -4.1808   25.1036  -30.5848 H   0  0  0  0  0  0  0  0  0  0  0  0
   -1.5450   22.7460  -29.1410 H   0  0  0  0  0  0  0  0  0  0  0  0
   -0.4306   20.3256  -29.8713 H   0  0  0  0  0  0  0  0  0  0  0  0
   -0.6873   18.4333  -31.5117 H   0  0  0  0  0  0  0  0  0  0  0  0
   -4.4515   17.6844  -32.6762 H   0  0  0  0  0  0  0  0  0  0  0  0
   -5.3714   15.3689  -33.2097 H   0  0  0  0  0  0  0  0  0  0  0  0
   -5.9000   16.0961  -34.7648 H   0  0  0  0  0  0  0  0  0  0  0  0
   -4.9103   14.5971  -34.7648 H   0  0  0  0  0  0  0  0  0  0  0  0
   -2.9720   15.3035  -35.9663 H   0  0  0  0  0  0  0  0  0  0  0  0
   -0.9253   16.7281  -36.0442 H   0  0  0  0  0  0  0  0  0  0  0  0
   -4.0936   20.4693  -33.3276 H   0  0  0  0  0  0  0  0  0  0  0  0
   -5.1739   24.1118  -32.0437 H   0  0  0  0  0  0  0  0  0  0  0  0
   -4.7942   22.8937  -33.3296 H   0  0  0  0  0  0  0  0  0  0  0  0
   -5.7546   20.6550  -33.2800 H   0  0  0  0  0  0  0  0  0  0  0  0
   -7.7458   19.2848  -32.6798 H   0  0  0  0  0  0  0  0  0  0  0  0
   -9.3515   20.0975  -30.9540 H   0  0  0  0  0  0  0  0  0  0  0  0
   -8.9782   22.2924  -29.8349 H   0  0  0  0  0  0  0  0  0  0  0  0
  1  2  1  0
  2  3  2  0
  2  4  1  0
  4  5  1  0
  5  6  1  0
  6  7  2  0
  7  8  1  0
  8  9  2  0
  9 10  1  0
 10 11  2  0
 11 12  1  0
 12 13  1  0
 13 14  2  0
 14 15  1  0
 14 16  1  0
 16 17  2  0
 17 18  1  0
 18 19  2  0
 11 20  1  0
 20 21  2  0
 21 22  1  0
 22 23  1  0
 23 24  1  0
 24 25  2  0
 25 26  1  0
 26 27  2  0
 27 28  1  0
 28 29  2  0
 29 30  1  0
 30 31  3  0
 22  6  1  0
 29 24  1  0
 21  8  1  0
 18 12  1  0
  1 32  1  0
  1 33  1  0
  1 34  1  0
  5 35  1  0
  5 36  1  0
  7 37  1  0
  9 38  1  0
 10 39  1  0
 13 40  1  0
 15 41  1  0
 15 42  1  0
 15 43  1  0
 16 44  1  0
 17 45  1  0
 20 46  1  0
 23 47  1  0
 23 48  1  0
 25 49  1  0
 26 50  1  0
 27 51  1  0
 28 52  1  0
M  CHG  2   4  -1   7   1
M  END
>  <UniqueID>  (47) 
45

>  <SMILES>  (47) 
CC(=O)[N-]Cc1[nH+]c2ccc(-n3cc(C)ccc3=O)cc2n1Cc1ccccc1C#N

>  <Energy>  (47) 
98.35092598743502

>  <Genealogy>  (47) 
CC(=O)[N-]Cc1[nH+]c2ccc(-n3cc(C)ccc3=O)cc2n1Cc1ccccc1C#N (protonated)
CC(=O)[N-]Cc1[nH+]c2ccc(-n3cc(C)ccc3=O)cc2n1Cc1ccccc1C#N (3D coordinates assigned)
CC(=O)[N-]Cc1[nH+]c2ccc(-n3cc(C)ccc3=O)cc2n1Cc1ccccc1C#N (optimized conformer: 98.35092598743502 kcal/mol)

>  <smiles>  (47) 
CC(=O)NCc1nc2ccc(-n3cc(C)ccc3=O)cc2n1Cc1ccccc1C#N

>  <score_type>  (47) 
oracle

>  <origin>  (47) 
adg

>  <m_score__min__energy>  (47) 
-9.3900000000000006

>  <m_primary>  (47) 
energy

$$$$
47:0
     RDKit          3D

 48 48  0  0  0  0  0  0  0  0999 V2000
   -9.1000   18.5870  -31.8050 C   0  0  0  0  0  0  0  0  0  0  0  0
   -7.7450   19.2640  -31.6750 C   0  0  0  0  0  0  0  0  0  0  0  0
   -7.4800   20.3990  -33.0790 S   0  0  0  0  0  0  0  0  0  0  0  0
   -5.8670   19.7020  -33.5030 C   0  0  0  0  0  0  0  0  0  0  0  0
   -4.6880   20.4790  -33.4820 C   0  0  0  0  0  0  0  0  0  0  0  0
   -4.7600   21.8800  -33.0990 N   0  0  0  0  0  0  0  0  0  0  0  0
   -4.1460   22.0860  -31.7760 C   0  0  0  0  0  0  0  0  0  0  0  0
   -5.0900   22.8090  -30.8010 C   0  0  0  0  0  0  0  0  0  0  0  0
   -5.9710   23.7700  -31.5180 N   0  0  0  0  0  0  0  0  0  0  0  0
   -7.4060   23.3990  -31.3960 C   0  0  0  0  0  0  0  0  0  0  0  0
   -7.5990   22.3620  -30.2910 C   0  0  0  0  0  0  0  0  0  0  0  0
   -5.7130   25.1520  -31.0440 C   0  0  0  0  0  0  0  0  0  0  0  0
   -6.2170   25.3850  -29.6210 C   0  0  0  0  0  0  0  0  0  0  0  0
   -3.4800   19.8790  -33.7760 N   0  0  0  0  0  0  0  0  0  0  0  0
   -2.2270   20.6630  -33.7620 C   0  0  0  0  0  0  0  0  0  0  0  0
   -3.4390   18.5540  -34.1480 C   0  0  0  0  0  0  0  0  0  0  0  0
   -2.3330   18.0170  -34.4450 O   0  0  0  0  0  0  0  0  0  0  0  0
   -4.5830   17.8010  -34.2000 N   0  0  0  0  0  0  0  0  0  0  0  0
   -4.5090   16.3730  -34.5610 C   0  0  0  0  0  0  0  0  0  0  0  0
   -5.7830   18.3520  -33.8460 C   0  0  0  0  0  0  0  0  0  0  0  0
   -6.8290   17.6450  -33.8290 O   0  0  0  0  0  0  0  0  0  0  0  0
   -9.5061   18.3841  -30.8031 H   0  0  0  0  0  0  0  0  0  0  0  0
   -9.7886   19.2470  -32.3530 H   0  0  0  0  0  0  0  0  0  0  0  0
   -8.9857   17.6401  -32.3530 H   0  0  0  0  0  0  0  0  0  0  0  0
   -7.7105   19.8332  -30.7344 H   0  0  0  0  0  0  0  0  0  0  0  0
   -6.9559   18.4976  -31.6752 H   0  0  0  0  0  0  0  0  0  0  0  0
   -5.7560   22.1960  -33.0800 H   0  0  0  0  0  0  0  0  0  0  0  0
   -4.2990   22.4810  -33.8110 H   0  0  0  0  0  0  0  0  0  0  0  0
   -3.8823   21.1059  -31.3519 H   0  0  0  0  0  0  0  0  0  0  0  0
   -3.2555   22.7172  -31.9128 H   0  0  0  0  0  0  0  0  0  0  0  0
   -5.7150   22.0636  -30.2875 H   0  0  0  0  0  0  0  0  0  0  0  0
   -4.4803   23.3691  -30.0767 H   0  0  0  0  0  0  0  0  0  0  0  0
   -7.9929   24.2977  -31.1554 H   0  0  0  0  0  0  0  0  0  0  0  0
   -7.7444   22.9689  -32.3502 H   0  0  0  0  0  0  0  0  0  0  0  0
   -7.5081   22.8506  -29.3097 H   0  0  0  0  0  0  0  0  0  0  0  0
   -8.5969   21.9087  -30.3838 H   0  0  0  0  0  0  0  0  0  0  0  0
   -6.8310   21.5800  -30.3838 H   0  0  0  0  0  0  0  0  0  0  0  0
   -4.6290   25.3372  -31.0692 H   0  0  0  0  0  0  0  0  0  0  0  0
   -6.2560   25.8404  -31.7082 H   0  0  0  0  0  0  0  0  0  0  0  0
   -5.4610   25.0355  -28.9024 H   0  0  0  0  0  0  0  0  0  0  0  0
   -6.3996   26.4589  -29.4679 H   0  0  0  0  0  0  0  0  0  0  0  0
   -7.1534   24.8284  -29.4679 H   0  0  0  0  0  0  0  0  0  0  0  0
   -1.9245   20.8523  -32.7215 H   0  0  0  0  0  0  0  0  0  0  0  0
   -1.4356   20.0987  -34.2771 H   0  0  0  0  0  0  0  0  0  0  0  0
   -2.3884   21.6215  -34.2771 H   0  0  0  0  0  0  0  0  0  0  0  0
   -4.4775   15.7644  -33.6452 H   0  0  0  0  0  0  0  0  0  0  0  0
   -5.3941   16.0982  -35.1535 H   0  0  0  0  0  0  0  0  0  0  0  0
   -3.6002   16.1912  -35.1535 H   0  0  0  0  0  0  0  0  0  0  0  0
  1  2  1  0
  2  3  1  0
  3  4  1  0
  4  5  2  0
  5  6  1  0
  6  7  1  0
  7  8  1  0
  8  9  1  0
  9 10  1  0
 10 11  1  0
  9 12  1  0
 12 13  1  0
  5 14  1  0
 14 15  1  0
 14 16  1  0
 16 17  2  0
 16 18  1  0
 18 19  1  0
 18 20  1  0
 20 21  2  0
 20  4  1  0
  1 22  1  0
  1 23  1  0
  1 24  1  0
  2 25  1  0
  2 26  1  0
  6 27  1  0
  6 28  1  0
  7 29  1  0
  7 30  1  0
  8 31  1  0
  8 32  1  0
 10 33  1  0
 10 34  1  0
 11 35  1  0
 11 36  1  0
 11 37  1  0
 12 38  1  0
 12 39  1  0
 13 40  1  0
 13 41  1  0
 13 42  1  0
 15 43  1  0
 15 44  1  0
 15 45  1  0
 19 46  1  0
 19 47  1  0
 19 48  1  0
M  CHG  1   6   1
M  END
>  <UniqueID>  (48) 
46

>  <SMILES>  (48) 
CCSc1c([NH2+]CCN(CC)CC)n(C)c(=O)n(C)c1=O

>  <Energy>  (48) 
51.46954612320731

>  <Genealogy>  (48) 
CCSc1c([NH2+]CCN(CC)CC)n(C)c(=O)n(C)c1=O (protonated)
CCSc1c([NH2+]CCN(CC)CC)n(C)c(=O)n(C)c1=O (3D coordinates assigned)
CCSc1c([NH2+]CCN(CC)CC)n(C)c(=O)n(C)c1=O (optimized conformer: 51.46954612320731 kcal/mol)

>  <smiles>  (48) 
CCSc1c(NCCN(CC)CC)n(C)c(=O)n(C)c1=O

>  <score_type>  (48) 
oracle

>  <origin>  (48) 
adg

>  <m_score__min__energy>  (48) 
-6.5300000000000002

>  <m_primary>  (48) 
energy

$$$$
48:0
     RDKit          3D

 60 63  0  0  0  0  0  0  0  0999 V2000
   -9.4910   20.3290  -32.1100 C   0  0  0  0  0  0  0  0  0  0  0  0
   -8.9920   18.8940  -31.9390 C   0  0  0  0  0  0  0  0  0  0  0  0
   -7.6110   18.7230  -32.4970 C   0  0  0  0  0  0  0  0  0  0  0  0
   -7.2290   17.7980  -33.4590 C   0  0  0  0  0  0  0  0  0  0  0  0
   -5.9290   18.0100  -33.7040 N   0  0  0  0  0  0  0  0  0  0  0  0
   -5.0870   17.3740  -34.5560 C   0  0  0  0  0  0  0  0  0  0  0  0
   -3.7570   17.8140  -34.6250 C   0  0  0  0  0  0  0  0  0  0  0  0
   -3.3390   18.8920  -33.8190 C   0  0  0  0  0  0  0  0  0  0  0  0
   -4.2480   19.5210  -32.9490 C   0  0  0  0  0  0  0  0  0  0  0  0
   -3.8490   20.6320  -32.1420 N   0  0  0  0  0  0  0  0  0  0  0  0
   -3.1500   20.3740  -30.8790 C   0  0  0  0  0  0  0  0  0  0  0  0
   -2.4290   21.6260  -30.3710 C   0  0  0  0  0  0  0  0  0  0  0  0
   -3.3220   22.7970  -30.4150 N   0  0  0  0  0  0  0  0  0  0  0  0
   -3.2640   23.8320  -29.4060 C   0  0  0  0  0  0  0  0  0  0  0  0
   -4.2140   24.6570  -29.3200 O   0  0  0  0  0  0  0  0  0  0  0  0
   -2.0780   23.9610  -28.4660 C   0  0  2  0  0  0  0  0  0  0  0  0
   -2.1980   23.0630  -27.2130 C   0  0  0  0  0  0  0  0  0  0  0  0
   -1.4750   21.7530  -27.4100 C   0  0  0  0  0  0  0  0  0  0  0  0
   -0.1820   21.7300  -27.9600 C   0  0  0  0  0  0  0  0  0  0  0  0
    0.4600   20.5100  -28.1970 C   0  0  0  0  0  0  0  0  0  0  0  0
   -0.1850   19.3090  -27.8910 C   0  0  0  0  0  0  0  0  0  0  0  0
   -1.4740   19.3250  -27.3490 C   0  0  0  0  0  0  0  0  0  0  0  0
   -2.1180   20.5420  -27.1100 C   0  0  0  0  0  0  0  0  0  0  0  0
   -1.8800   25.3630  -28.0780 N   0  0  0  0  0  0  0  0  0  0  0  0
   -0.5980   25.9370  -27.7670 C   0  0  0  0  0  0  0  0  0  0  0  0
   -0.4950   27.3950  -27.4570 C   0  0  0  0  0  0  0  0  0  0  0  0
    0.4430   25.2260  -27.7720 O   0  0  0  0  0  0  0  0  0  0  0  0
   -4.2230   22.9900  -31.5630 C   0  0  0  0  0  0  0  0  0  0  0  0
   -3.9460   21.9870  -32.6860 C   0  0  0  0  0  0  0  0  0  0  0  0
   -5.5580   19.0360  -32.9190 C   0  0  0  0  0  0  0  0  0  0  0  0
   -6.5630   19.5140  -32.1560 N   0  0  0  0  0  0  0  0  0  0  0  0
   -9.6488   20.7827  -31.1204 H   0  0  0  0  0  0  0  0  0  0  0  0
   -8.7433   20.9134  -32.6663 H   0  0  0  0  0  0  0  0  0  0  0  0
  -10.4399   20.3234  -32.6663 H   0  0  0  0  0  0  0  0  0  0  0  0
   -8.9780   18.6456  -30.8675 H   0  0  0  0  0  0  0  0  0  0  0  0
   -9.6713   18.2245  -32.4870 H   0  0  0  0  0  0  0  0  0  0  0  0
   -7.8699   17.0377  -33.9293 H   0  0  0  0  0  0  0  0  0  0  0  0
   -5.4376   16.5358  -35.1761 H   0  0  0  0  0  0  0  0  0  0  0  0
   -3.0451   17.3212  -35.3035 H   0  0  0  0  0  0  0  0  0  0  0  0
   -2.2977   19.2429  -33.8705 H   0  0  0  0  0  0  0  0  0  0  0  0
   -3.8826   20.0523  -30.1242 H   0  0  0  0  0  0  0  0  0  0  0  0
   -2.3986   19.5900  -31.0542 H   0  0  0  0  0  0  0  0  0  0  0  0
   -2.1038   21.4591  -29.3335 H   0  0  0  0  0  0  0  0  0  0  0  0
   -1.5605   21.8199  -31.0176 H   0  0  0  0  0  0  0  0  0  0  0  0
   -1.1963   23.6085  -29.0213 H   0  0  0  0  0  0  0  0  0  0  0  0
   -1.7603   23.5885  -26.3515 H   0  0  0  0  0  0  0  0  0  0  0  0
   -3.2628   22.8505  -27.0371 H   0  0  0  0  0  0  0  0  0  0  0  0
    0.3267   22.6741  -28.2048 H   0  0  0  0  0  0  0  0  0  0  0  0
    1.4734   20.4962  -28.6246 H   0  0  0  0  0  0  0  0  0  0  0  0
    0.3214   18.3503  -28.0765 H   0  0  0  0  0  0  0  0  0  0  0  0
   -1.9815   18.3787  -27.1105 H   0  0  0  0  0  0  0  0  0  0  0  0
   -3.1326   20.5509  -26.6852 H   0  0  0  0  0  0  0  0  0  0  0  0
   -2.7220   25.9800  -28.0340 H   0  0  0  0  0  0  0  0  0  0  0  0
   -0.4849   27.5382  -26.3664 H   0  0  0  0  0  0  0  0  0  0  0  0
    0.4338   27.7968  -27.8882 H   0  0  0  0  0  0  0  0  0  0  0  0
   -1.3581   27.9234  -27.8882 H   0  0  0  0  0  0  0  0  0  0  0  0
   -5.2619   22.8650  -31.2237 H   0  0  0  0  0  0  0  0  0  0  0  0
   -4.0529   24.0010  -31.9616 H   0  0  0  0  0  0  0  0  0  0  0  0
   -4.7657   22.0265  -33.4185 H   0  0  0  0  0  0  0  0  0  0  0  0
   -2.9942   22.2471  -33.1723 H   0  0  0  0  0  0  0  0  0  0  0  0
  1  2  1  0
  2  3  1  0
  3  4  2  0
  4  5  1  0
  5  6  1  0
  6  7  2  0
  7  8  1  0
  8  9  2  0
  9 10  1  0
 10 11  1  0
 11 12  1  0
 12 13  1  0
 13 14  1  0
 14 15  2  0
 14 16  1  0
 16 17  1  0
 17 18  1  0
 18 19  2  0
 19 20  1  0
 20 21  2  0
 21 22  1  0
 22 23  2  0
 16 24  1  0
 24 25  1  0
 25 26  1  0
 25 27  2  0
 13 28  1  0
 28 29  1  0
  9 30  1  0
 30 31  2  0
 31  3  1  0
 30  5  1  0
 29 10  1  0
 23 18  1  0
  1 32  1  0
  1 33  1  0
  1 34  1  0
  2 35  1  0
  2 36  1  0
  4 37  1  0
  6 38  1  0
  7 39  1  0
  8 40  1  0
 11 41  1  0
 11 42  1  0
 12 43  1  0
 12 44  1  0
 16 45  1  6
 17 46  1  0
 17 47  1  0
 19 48  1  0
 20 49  1  0
 21 50  1  0
 22 51  1  0
 23 52  1  0
 24 53  1  0
 26 54  1  0
 26 55  1  0
 26 56  1  0
 28 57  1  0
 28 58  1  0
 29 59  1  0
 29 60  1  0
M  END
>  <UniqueID>  (49) 
47

>  <SMILES>  (49) 
CCc1cn2cccc(N3CCN(C(=O)[C@H](Cc4ccccc4)NC(C)=O)CC3)c2n1

>  <Energy>  (49) 
95.36589935693313

>  <Genealogy>  (49) 
CCc1cn2cccc(N3CCN(C(=O)[C@H](Cc4ccccc4)NC(C)=O)CC3)c2n1 (chirality)
CCc1cn2cccc(N3CCN(C(=O)[C@H](Cc4ccccc4)NC(C)=O)CC3)c2n1 (3D coordinates assigned)
CCc1cn2cccc(N3CCN(C(=O)[C@H](Cc4ccccc4)NC(C)=O)CC3)c2n1 (nonaromatic ring conformer: 95.36589935693313 kcal/mol)

>  <smiles>  (49) 
CCc1cn2cccc(N3CCN(C(=O)C(Cc4ccccc4)NC(C)=O)CC3)c2n1

>  <score_type>  (49) 
oracle

>  <origin>  (49) 
adg

>  <m_score__min__energy>  (49) 
-10

>  <m_primary>  (49) 
energy

$$$$
