0:0
     RDKit          3D

 47 49  0  0  0  0  0  0  0  0999 V2000
   -6.8480   24.9240  -29.7360 C   0  0  0  0  0  0  0  0  0  0  0  0
   -5.7050   25.7980  -30.1820 C   0  0  0  0  0  0  0  0  0  0  0  0
   -4.7640   25.0860  -31.0180 N   0  0  0  0  0  0  0  0  0  0  0  0
   -3.9940   24.1150  -30.2390 C   0  0  0  0  0  0  0  0  0  0  0  0
   -3.7080   23.0010  -31.2110 C   0  0  0  0  0  0  0  0  0  0  0  0
   -4.7060   22.7360  -32.1890 N   0  0  0  0  0  0  0  0  0  0  0  0
   -5.3480   21.4970  -32.3580 C   0  0  0  0  0  0  0  0  0  0  0  0
   -6.7340   21.4560  -32.1790 C   0  0  0  0  0  0  0  0  0  0  0  0
   -7.3900   22.6460  -31.8490 C   0  0  0  0  0  0  0  0  0  0  0  0
   -8.7460   22.7010  -31.6520 C   0  0  0  0  0  0  0  0  0  0  0  0
   -9.4610   21.5330  -31.7890 C   0  0  0  0  0  0  0  0  0  0  0  0
   -8.8050   20.3490  -32.1180 C   0  0  0  0  0  0  0  0  0  0  0  0
   -7.4490   20.2770  -32.3190 C   0  0  0  0  0  0  0  0  0  0  0  0
   -6.8290   19.1030  -32.6410 N   0  0  0  0  0  0  0  0  0  0  0  0
   -7.6390   17.9400  -32.7790 C   0  0  0  0  0  0  0  0  0  0  0  0
   -5.4920   19.1460  -32.8140 C   0  0  0  0  0  0  0  0  0  0  0  0
   -4.8240   17.9960  -33.1450 C   0  0  0  0  0  0  0  0  0  0  0  0
   -3.4360   17.9900  -33.3460 C   0  0  0  0  0  0  0  0  0  0  0  0
   -2.8050   16.7750  -33.6850 O   0  0  0  0  0  0  0  0  0  0  0  0
   -2.5990   16.4190  -35.0420 C   0  0  0  0  0  0  0  0  0  0  0  0
   -2.5560   15.0490  -35.2070 F   0  0  0  0  0  0  0  0  0  0  0  0
   -3.7040   16.8590  -35.7490 F   0  0  0  0  0  0  0  0  0  0  0  0
   -1.4880   17.0090  -35.5970 F   0  0  0  0  0  0  0  0  0  0  0  0
   -2.6960   19.1460  -33.2160 C   0  0  0  0  0  0  0  0  0  0  0  0
   -3.3900   20.2910  -32.8820 C   0  0  0  0  0  0  0  0  0  0  0  0
   -4.7510   20.3080  -32.6810 C   0  0  0  0  0  0  0  0  0  0  0  0
   -6.8823   24.8978  -28.6368 H   0  0  0  0  0  0  0  0  0  0  0  0
   -7.7937   25.3315  -30.1227 H   0  0  0  0  0  0  0  0  0  0  0  0
   -6.7026   23.9045  -30.1227 H   0  0  0  0  0  0  0  0  0  0  0  0
   -6.1105   26.6481  -30.7503 H   0  0  0  0  0  0  0  0  0  0  0  0
   -5.1684   26.1354  -29.2830 H   0  0  0  0  0  0  0  0  0  0  0  0
   -4.1940   25.6830  -31.6220 H   0  0  0  0  0  0  0  0  0  0  0  0
   -3.0582   24.5630  -29.8734 H   0  0  0  0  0  0  0  0  0  0  0  0
   -4.5365   23.7663  -29.3479 H   0  0  0  0  0  0  0  0  0  0  0  0
   -2.7785   23.2527  -31.7427 H   0  0  0  0  0  0  0  0  0  0  0  0
   -3.6536   22.0890  -30.5983 H   0  0  0  0  0  0  0  0  0  0  0  0
   -5.0150   23.5090  -32.8570 H   0  0  0  0  0  0  0  0  0  0  0  0
   -6.7992   23.5679  -31.7440 H   0  0  0  0  0  0  0  0  0  0  0  0
   -9.2452   23.6464  -31.3933 H   0  0  0  0  0  0  0  0  0  0  0  0
  -10.5507   21.5345  -31.6387 H   0  0  0  0  0  0  0  0  0  0  0  0
   -9.4006   19.4300  -32.2214 H   0  0  0  0  0  0  0  0  0  0  0  0
   -7.9050   17.5581  -31.7823 H   0  0  0  0  0  0  0  0  0  0  0  0
   -8.5559   18.1951  -33.3306 H   0  0  0  0  0  0  0  0  0  0  0  0
   -7.0818   17.1685  -33.3306 H   0  0  0  0  0  0  0  0  0  0  0  0
   -5.3882   17.0582  -33.2553 H   0  0  0  0  0  0  0  0  0  0  0  0
   -1.6070   19.1551  -33.3708 H   0  0  0  0  0  0  0  0  0  0  0  0
   -2.8304   21.2316  -32.7716 H   0  0  0  0  0  0  0  0  0  0  0  0
  1  2  1  0
  2  3  1  0
  3  4  1  0
  4  5  1  0
  5  6  1  0
  6  7  1  0
  7  8  2  0
  8  9  1  0
  9 10  2  0
 10 11  1  0
 11 12  2  0
 12 13  1  0
 13 14  2  0
 14 15  1  0
 14 16  1  0
 16 17  2  0
 17 18  1  0
 18 19  1  0
 19 20  1  0
 20 21  1  0
 20 22  1  0
 20 23  1  0
 18 24  2  0
 24 25  1  0
 25 26  2  0
 26  7  1  0
 13  8  1  0
 26 16  1  0
  1 27  1  0
  1 28  1  0
  1 29  1  0
  2 30  1  0
  2 31  1  0
  3 32  1  0
  4 33  1  0
  4 34  1  0
  5 35  1  0
  5 36  1  0
  6 37  1  0
  9 38  1  0
 10 39  1  0
 11 40  1  0
 12 41  1  0
 15 42  1  0
 15 43  1  0
 15 44  1  0
 17 45  1  0
 24 46  1  0
 25 47  1  0
M  CHG  1  14   1
M  END
>  <smiles>  (1) 
CCNCCNc1c2ccccc2[n+](C)c2cc(OC(F)(F)F)ccc12

>  <score_type>  (1) 
oracle

>  <origin>  (1) 
adg

>  <m_score__min__energy>  (1) 
-8.4100000000000001

>  <m_primary>  (1) 
energy

$$$$
1:0
     RDKit          3D

 43 45  0  0  0  0  0  0  0  0999 V2000
   -2.5220   24.4740  -28.6710 C   0  0  0  0  0  0  0  0  0  0  0  0
   -3.6080   24.2320  -29.6920 C   0  0  0  0  0  0  0  0  0  0  0  0
   -3.8630   25.3060  -30.5070 O   0  0  0  0  0  0  0  0  0  0  0  0
   -5.2110   25.6330  -30.6370 C   0  0  0  0  0  0  0  0  0  0  0  0
   -6.0270   25.2280  -29.4610 C   0  0  0  0  0  0  0  0  0  0  0  0
   -6.8960   24.1350  -29.7530 N   0  0  0  0  0  0  0  0  0  0  0  0
   -6.5760   23.4980  -30.9880 C   0  0  0  0  0  0  0  0  0  0  0  0
   -7.7420   23.4100  -31.9340 C   0  0  0  0  0  0  0  0  0  0  0  0
   -8.6580   22.3920  -31.6500 O   0  0  0  0  0  0  0  0  0  0  0  0
   -8.3110   21.0590  -31.9550 C   0  0  0  0  0  0  0  0  0  0  0  0
   -9.0620   19.9940  -31.5120 C   0  0  0  0  0  0  0  0  0  0  0  0
   -8.6690   18.6920  -31.8460 C   0  0  0  0  0  0  0  0  0  0  0  0
   -7.5420   18.4600  -32.6080 C   0  0  0  0  0  0  0  0  0  0  0  0
   -7.1330   17.2120  -32.9450 N   0  0  0  0  0  0  0  0  0  0  0  0
   -6.0200   16.9940  -33.6950 C   0  0  0  0  0  0  0  0  0  0  0  0
   -5.3930   15.8970  -34.1650 N   0  0  0  0  0  0  0  0  0  0  0  0
   -4.2920   16.2650  -34.8760 C   0  0  0  0  0  0  0  0  0  0  0  0
   -3.5050   15.4610  -35.4380 O   0  0  0  0  0  0  0  0  0  0  0  0
   -4.2080   17.6270  -34.8620 N   0  0  0  0  0  0  0  0  0  0  0  0
   -5.2600   18.0570  -34.1430 C   0  0  0  0  0  0  0  0  0  0  0  0
   -5.6420   19.3500  -33.8230 C   0  0  0  0  0  0  0  0  0  0  0  0
   -6.7800   19.5320  -33.0580 C   0  0  0  0  0  0  0  0  0  0  0  0
   -7.1960   20.7960  -32.7130 C   0  0  0  0  0  0  0  0  0  0  0  0
   -2.9427   24.3802  -27.6590 H   0  0  0  0  0  0  0  0  0  0  0  0
   -1.7208   23.7324  -28.8052 H   0  0  0  0  0  0  0  0  0  0  0  0
   -2.1115   25.4857  -28.8052 H   0  0  0  0  0  0  0  0  0  0  0  0
   -3.3050   23.3839  -30.3236 H   0  0  0  0  0  0  0  0  0  0  0  0
   -4.5326   24.0354  -29.1295 H   0  0  0  0  0  0  0  0  0  0  0  0
   -5.2961   26.7224  -30.7634 H   0  0  0  0  0  0  0  0  0  0  0  0
   -5.5983   25.0850  -31.5086 H   0  0  0  0  0  0  0  0  0  0  0  0
   -5.3499   24.9331  -28.6458 H   0  0  0  0  0  0  0  0  0  0  0  0
   -6.6522   26.0866  -29.1747 H   0  0  0  0  0  0  0  0  0  0  0  0
   -7.1310   23.5160  -28.9670 H   0  0  0  0  0  0  0  0  0  0  0  0
   -5.7726   24.0686  -31.4768 H   0  0  0  0  0  0  0  0  0  0  0  0
   -6.2702   22.4679  -30.7526 H   0  0  0  0  0  0  0  0  0  0  0  0
   -8.2785   24.3698  -31.9045 H   0  0  0  0  0  0  0  0  0  0  0  0
   -7.3192   23.1762  -32.9222 H   0  0  0  0  0  0  0  0  0  0  0  0
   -9.9615   20.1638  -30.9020 H   0  0  0  0  0  0  0  0  0  0  0  0
   -9.2690   17.8395  -31.4949 H   0  0  0  0  0  0  0  0  0  0  0  0
   -5.6870   14.9170  -34.0230 H   0  0  0  0  0  0  0  0  0  0  0  0
   -3.4550   18.1650  -35.3320 H   0  0  0  0  0  0  0  0  0  0  0  0
   -5.0535   20.2123  -34.1695 H   0  0  0  0  0  0  0  0  0  0  0  0
   -6.5989   21.6498  -33.0658 H   0  0  0  0  0  0  0  0  0  0  0  0
  1  2  1  0
  2  3  1  0
  3  4  1  0
  4  5  1  0
  5  6  1  0
  6  7  1  0
  7  8  1  0
  8  9  1  0
  9 10  1  0
 10 11  2  0
 11 12  1  0
 12 13  2  0
 13 14  1  0
 14 15  2  0
 15 16  1  0
 16 17  1  0
 17 18  2  0
 17 19  1  0
 19 20  1  0
 20 21  2  0
 21 22  1  0
 22 23  2  0
 23 10  1  0
 22 13  1  0
 20 15  1  0
  1 24  1  0
  1 25  1  0
  1 26  1  0
  2 27  1  0
  2 28  1  0
  4 29  1  0
  4 30  1  0
  5 31  1  0
  5 32  1  0
  6 33  1  0
  7 34  1  0
  7 35  1  0
  8 36  1  0
  8 37  1  0
 11 38  1  0
 12 39  1  0
 16 40  1  0
 19 41  1  0
 21 42  1  0
 23 43  1  0
M  END
>  <smiles>  (2) 
CCOCCNCCOc1ccc2nc3[nH]c(=O)[nH]c3cc2c1

>  <score_type>  (2) 
oracle

>  <origin>  (2) 
adg

>  <m_score__min__energy>  (2) 
-7.7000000000000002

>  <m_primary>  (2) 
energy

$$$$
2:0
     RDKit          3D

 58 60  0  0  0  0  0  0  0  0999 V2000
   -1.2480   26.7840  -37.2870 C   0  0  0  0  0  0  0  0  0  0  0  0
   -0.5180   26.1520  -36.2180 N   0  0  0  0  0  0  0  0  0  0  0  0
   -0.0120   27.1670  -35.3260 C   0  0  0  0  0  0  0  0  0  0  0  0
    0.5330   25.3600  -36.8260 C   0  0  0  0  0  0  0  0  0  0  0  0
    1.0330   24.3770  -35.7860 C   0  0  0  0  0  0  0  0  0  0  0  0
    0.0990   23.3550  -35.6960 O   0  0  0  0  0  0  0  0  0  0  0  0
    0.6590   22.1000  -35.8910 C   0  0  0  0  0  0  0  0  0  0  0  0
    0.4050   21.1290  -34.7750 C   0  0  0  0  0  0  0  0  0  0  0  0
   -0.9400   21.2070  -34.2540 N   0  0  0  0  0  0  0  0  0  0  0  0
   -0.9890   21.1590  -32.8160 C   0  0  0  0  0  0  0  0  0  0  0  0
   -2.4230   21.1830  -32.3680 C   0  0  0  0  0  0  0  0  0  0  0  0
   -3.3840   21.2270  -33.4350 N   0  0  0  0  0  0  0  0  0  0  0  0
   -4.7120   20.7850  -33.1260 C   0  0  0  0  0  0  0  0  0  0  0  0
   -5.5540   21.6690  -32.4850 C   0  0  0  0  0  0  0  0  0  0  0  0
   -5.0750   22.9250  -32.1800 C   0  0  0  0  0  0  0  0  0  0  0  0
   -5.8870   23.8400  -31.5430 C   0  0  0  0  0  0  0  0  0  0  0  0
   -7.1740   23.4260  -31.2420 C   0  0  0  0  0  0  0  0  0  0  0  0
   -7.6490   22.1670  -31.5500 C   0  0  0  0  0  0  0  0  0  0  0  0
   -6.8340   21.2530  -32.1860 C   0  0  0  0  0  0  0  0  0  0  0  0
   -7.3180   20.0390  -32.4780 N   0  0  0  0  0  0  0  0  0  0  0  0
   -8.6320   19.5720  -32.1780 C   0  0  0  0  0  0  0  0  0  0  0  0
   -6.4760   19.1810  -33.1090 C   0  0  0  0  0  0  0  0  0  0  0  0
   -6.8660   17.8990  -33.4660 C   0  0  0  0  0  0  0  0  0  0  0  0
   -5.9840   17.0310  -34.1180 C   0  0  0  0  0  0  0  0  0  0  0  0
   -4.7170   17.4060  -34.4270 C   0  0  0  0  0  0  0  0  0  0  0  0
   -4.3070   18.6760  -34.0820 C   0  0  0  0  0  0  0  0  0  0  0  0
   -5.1780   19.5300  -33.4400 C   0  0  0  0  0  0  0  0  0  0  0  0
   -2.0157   27.4486  -36.8639 H   0  0  0  0  0  0  0  0  0  0  0  0
   -0.5550   27.3720  -37.9067 H   0  0  0  0  0  0  0  0  0  0  0  0
   -1.7308   26.0140  -37.9067 H   0  0  0  0  0  0  0  0  0  0  0  0
   -0.1695   26.8511  -34.2842 H   0  0  0  0  0  0  0  0  0  0  0  0
    1.0634   27.3111  -35.5069 H   0  0  0  0  0  0  0  0  0  0  0  0
   -0.5442   28.1125  -35.5069 H   0  0  0  0  0  0  0  0  0  0  0  0
    0.1358   24.8154  -37.6953 H   0  0  0  0  0  0  0  0  0  0  0  0
    1.3534   26.0080  -37.1680 H   0  0  0  0  0  0  0  0  0  0  0  0
    2.0077   23.9693  -36.0923 H   0  0  0  0  0  0  0  0  0  0  0  0
    1.1596   24.8734  -34.8126 H   0  0  0  0  0  0  0  0  0  0  0  0
    0.2421   21.6771  -36.8169 H   0  0  0  0  0  0  0  0  0  0  0  0
    1.7482   22.2457  -35.9394 H   0  0  0  0  0  0  0  0  0  0  0  0
    0.5765   20.1097  -35.1514 H   0  0  0  0  0  0  0  0  0  0  0  0
    1.0911   21.3845  -33.9541 H   0  0  0  0  0  0  0  0  0  0  0  0
   -1.3110   22.1300  -34.5950 H   0  0  0  0  0  0  0  0  0  0  0  0
   -0.5088   20.2347  -32.4624 H   0  0  0  0  0  0  0  0  0  0  0  0
   -0.4578   22.0275  -32.3995 H   0  0  0  0  0  0  0  0  0  0  0  0
   -2.6117   20.2767  -31.7739 H   0  0  0  0  0  0  0  0  0  0  0  0
   -2.5537   22.1118  -31.7933 H   0  0  0  0  0  0  0  0  0  0  0  0
   -3.1470   21.5680  -34.4140 H   0  0  0  0  0  0  0  0  0  0  0  0
   -4.0430   23.1981  -32.4452 H   0  0  0  0  0  0  0  0  0  0  0  0
   -5.5302   24.8485  -31.2867 H   0  0  0  0  0  0  0  0  0  0  0  0
   -7.8479   24.1321  -30.7348 H   0  0  0  0  0  0  0  0  0  0  0  0
   -8.6810   21.8913  -31.2875 H   0  0  0  0  0  0  0  0  0  0  0  0
   -8.7642   19.5250  -31.0870 H   0  0  0  0  0  0  0  0  0  0  0  0
   -9.3733   20.2617  -32.6078 H   0  0  0  0  0  0  0  0  0  0  0  0
   -8.7718   18.5691  -32.6078 H   0  0  0  0  0  0  0  0  0  0  0  0
   -7.8858   17.5591  -33.2326 H   0  0  0  0  0  0  0  0  0  0  0  0
   -6.3255   16.0205  -34.3866 H   0  0  0  0  0  0  0  0  0  0  0  0
   -4.0338   16.7134  -34.9403 H   0  0  0  0  0  0  0  0  0  0  0  0
   -3.2853   19.0078  -34.3189 H   0  0  0  0  0  0  0  0  0  0  0  0
  1  2  1  0
  2  3  1  0
  2  4  1  0
  4  5  1  0
  5  6  1  0
  6  7  1  0
  7  8  1  0
  8  9  1  0
  9 10  1  0
 10 11  1  0
 11 12  1  0
 12 13  1  0
 13 14  2  0
 14 15  1  0
 15 16  2  0
 16 17  1  0
 17 18  2  0
 18 19  1  0
 19 20  2  0
 20 21  1  0
 20 22  1  0
 22 23  2  0
 23 24  1  0
 24 25  2  0
 25 26  1  0
 26 27  2  0
 27 13  1  0
 19 14  1  0
 27 22  1  0
  1 28  1  0
  1 29  1  0
  1 30  1  0
  3 31  1  0
  3 32  1  0
  3 33  1  0
  4 34  1  0
  4 35  1  0
  5 36  1  0
  5 37  1  0
  7 38  1  0
  7 39  1  0
  8 40  1  0
  8 41  1  0
  9 42  1  0
 10 43  1  0
 10 44  1  0
 11 45  1  0
 11 46  1  0
 12 47  1  0
 15 48  1  0
 16 49  1  0
 17 50  1  0
 18 51  1  0
 21 52  1  0
 21 53  1  0
 21 54  1  0
 23 55  1  0
 24 56  1  0
 25 57  1  0
 26 58  1  0
M  CHG  1  20   1
M  END
>  <smiles>  (3) 
CN(C)CCOCCNCCNc1c2ccccc2[n+](C)c2ccccc12

>  <score_type>  (3) 
oracle

>  <origin>  (3) 
adg

>  <m_score__min__energy>  (3) 
-9.4600000000000009

>  <m_primary>  (3) 
energy

$$$$
4:0
     RDKit          3D

 54 57  0  0  0  0  0  0  0  0999 V2000
   -6.0540   25.3210  -29.4690 C   0  0  0  0  0  0  0  0  0  0  0  0
   -5.4190   25.4940  -30.8410 C   0  0  0  0  0  0  0  0  0  0  0  0
   -4.0150   25.2990  -30.6980 N   0  0  0  0  0  0  0  0  0  0  0  0
   -3.6090   24.2730  -29.7840 C   0  0  0  0  0  0  0  0  0  0  0  0
   -3.7410   22.8890  -30.3230 C   0  0  0  0  0  0  0  0  0  0  0  0
   -4.3660   22.9220  -31.6310 N   0  0  0  0  0  0  0  0  0  0  0  0
   -5.0420   21.7500  -32.0870 C   0  0  0  0  0  0  0  0  0  0  0  0
   -4.3180   20.7200  -32.7000 C   0  0  0  0  0  0  0  0  0  0  0  0
   -4.9210   19.5760  -33.1630 C   0  0  0  0  0  0  0  0  0  0  0  0
   -4.1580   18.5770  -33.7720 C   0  0  0  0  0  0  0  0  0  0  0  0
   -2.7940   18.6890  -33.9280 C   0  0  0  0  0  0  0  0  0  0  0  0
   -2.0210   17.7030  -34.5330 C   0  0  0  0  0  0  0  0  0  0  0  0
   -0.6120   17.8290  -34.6820 N   0  0  0  0  0  0  0  0  0  0  0  0
    0.1470   18.9950  -34.3580 C   0  0  0  0  0  0  0  0  0  0  0  0
    0.1280   16.6760  -35.2160 C   0  0  0  0  0  0  0  0  0  0  0  0
   -2.6750   16.5770  -34.9860 C   0  0  0  0  0  0  0  0  0  0  0  0
   -4.0390   16.4170  -34.8530 C   0  0  0  0  0  0  0  0  0  0  0  0
   -4.7400   17.4200  -34.2510 C   0  0  0  0  0  0  0  0  0  0  0  0
   -6.1000   17.2780  -34.1120 C   0  0  0  0  0  0  0  0  0  0  0  0
   -6.8500   18.2930  -33.4970 C   0  0  0  0  0  0  0  0  0  0  0  0
   -6.2660   19.4160  -33.0340 N   0  0  0  0  0  0  0  0  0  0  0  0
   -6.9930   20.3880  -32.4500 C   0  0  0  0  0  0  0  0  0  0  0  0
   -8.3550   20.2620  -32.3010 C   0  0  0  0  0  0  0  0  0  0  0  0
   -9.1330   21.2590  -31.6950 C   0  0  0  0  0  0  0  0  0  0  0  0
   -8.5520   22.4070  -31.2250 C   0  0  0  0  0  0  0  0  0  0  0  0
   -7.1780   22.5450  -31.3700 C   0  0  0  0  0  0  0  0  0  0  0  0
   -6.4010   21.5610  -31.9700 C   0  0  0  0  0  0  0  0  0  0  0  0
   -5.3048   25.5251  -28.6899 H   0  0  0  0  0  0  0  0  0  0  0  0
   -6.8942   26.0230  -29.3627 H   0  0  0  0  0  0  0  0  0  0  0  0
   -6.4220   24.2899  -29.3627 H   0  0  0  0  0  0  0  0  0  0  0  0
   -5.8307   24.7515  -31.5404 H   0  0  0  0  0  0  0  0  0  0  0  0
   -5.6293   26.4980  -31.2382 H   0  0  0  0  0  0  0  0  0  0  0  0
   -3.4810   25.3630  -31.5780 H   0  0  0  0  0  0  0  0  0  0  0  0
   -2.5543   24.4421  -29.5215 H   0  0  0  0  0  0  0  0  0  0  0  0
   -4.2797   24.3397  -28.9147 H   0  0  0  0  0  0  0  0  0  0  0  0
   -2.7428   22.4347  -30.4079 H   0  0  0  0  0  0  0  0  0  0  0  0
   -4.3655   22.2943  -29.6401 H   0  0  0  0  0  0  0  0  0  0  0  0
   -4.2880   23.8020  -32.1670 H   0  0  0  0  0  0  0  0  0  0  0  0
   -3.2296   20.8308  -32.8146 H   0  0  0  0  0  0  0  0  0  0  0  0
   -2.2946   19.5968  -33.5585 H   0  0  0  0  0  0  0  0  0  0  0  0
    0.2135   19.0972  -33.2648 H   0  0  0  0  0  0  0  0  0  0  0  0
    1.1587   18.9029  -34.7799 H   0  0  0  0  0  0  0  0  0  0  0  0
   -0.3467   19.8828  -34.7799 H   0  0  0  0  0  0  0  0  0  0  0  0
    0.5160   16.0715  -34.3829 H   0  0  0  0  0  0  0  0  0  0  0  0
   -0.5450   16.0619  -35.8323 H   0  0  0  0  0  0  0  0  0  0  0  0
    0.9667   17.0321  -35.8323 H   0  0  0  0  0  0  0  0  0  0  0  0
   -2.0904   15.7803  -35.4692 H   0  0  0  0  0  0  0  0  0  0  0  0
   -4.5438   15.5112  -35.2201 H   0  0  0  0  0  0  0  0  0  0  0  0
   -6.5999   16.3707  -34.4820 H   0  0  0  0  0  0  0  0  0  0  0  0
   -7.9378   18.1691  -33.3907 H   0  0  0  0  0  0  0  0  0  0  0  0
   -8.8491   19.3506  -32.6688 H   0  0  0  0  0  0  0  0  0  0  0  0
  -10.2194   21.1179  -31.5962 H   0  0  0  0  0  0  0  0  0  0  0  0
   -9.1545   23.1941  -30.7481 H   0  0  0  0  0  0  0  0  0  0  0  0
   -6.6906   23.4589  -30.9996 H   0  0  0  0  0  0  0  0  0  0  0  0
  1  2  1  0
  2  3  1  0
  3  4  1  0
  4  5  1  0
  5  6  1  0
  6  7  1  0
  7  8  2  0
  8  9  1  0
  9 10  2  0
 10 11  1  0
 11 12  2  0
 12 13  1  0
 13 14  1  0
 13 15  1  0
 12 16  1  0
 16 17  2  0
 17 18  1  0
 18 19  2  0
 19 20  1  0
 20 21  2  0
 21 22  1  0
 22 23  2  0
 23 24  1  0
 24 25  2  0
 25 26  1  0
 26 27  2  0
 27  7  1  0
 21  9  1  0
 27 22  1  0
 18 10  1  0
  1 28  1  0
  1 29  1  0
  1 30  1  0
  2 31  1  0
  2 32  1  0
  3 33  1  0
  4 34  1  0
  4 35  1  0
  5 36  1  0
  5 37  1  0
  6 38  1  0
  8 39  1  0
 11 40  1  0
 14 41  1  0
 14 42  1  0
 14 43  1  0
 15 44  1  0
 15 45  1  0
 15 46  1  0
 16 47  1  0
 17 48  1  0
 19 49  1  0
 20 50  1  0
 23 51  1  0
 24 52  1  0
 25 53  1  0
 26 54  1  0
M  CHG  1  21   1
M  END
>  <smiles>  (4) 
CCNCCNc1cc2c3cc(N(C)C)ccc3cc[n+]2c2ccccc12

>  <score_type>  (4) 
oracle

>  <origin>  (4) 
adg

>  <m_score__min__energy>  (4) 
-9.2899999999999991

>  <m_primary>  (4) 
energy

$$$$
5:0
     RDKit          3D

 33 34  0  0  0  0  0  0  0  0999 V2000
   -3.8590   25.3340  -30.5250 O   0  0  0  0  0  0  0  0  0  0  0  0
   -4.2150   24.1960  -30.3450 C   0  0  0  0  0  0  0  0  0  0  0  0
   -3.3450   23.0110  -30.6760 C   0  0  0  0  0  0  0  0  0  0  0  0
   -4.0440   22.2570  -31.7760 C   0  0  0  0  0  0  0  0  0  0  0  0
   -5.4970   22.0980  -31.5200 C   0  0  0  0  0  0  0  0  0  0  0  0
   -6.1720   22.8040  -30.6310 C   0  0  0  0  0  0  0  0  0  0  0  0
   -7.6300   22.5220  -30.4940 C   0  0  0  0  0  0  0  0  0  0  0  0
   -8.2500   22.3720  -31.8550 C   0  0  0  0  0  0  0  0  0  0  0  0
   -7.5830   21.3370  -32.7090 C   0  0  0  0  0  0  0  0  0  0  0  0
   -6.1900   21.1230  -32.2890 N   0  0  0  0  0  0  0  0  0  0  0  0
   -5.5780   19.8860  -32.7000 C   0  0  0  0  0  0  0  0  0  0  0  0
   -6.5600   18.9500  -33.3680 C   0  0  0  0  0  0  0  0  0  0  0  0
   -7.0780   17.9690  -32.3200 C   0  0  0  0  0  0  0  0  0  0  0  0
   -8.7620   18.5480  -31.5950 Br  0  0  0  0  0  0  0  0  0  0  0  0
   -5.5630   23.8520  -29.7730 C   0  0  0  0  0  0  0  0  0  0  0  0
   -2.3559   23.3501  -31.0177 H   0  0  0  0  0  0  0  0  0  0  0  0
   -3.1919   22.3728  -29.7933 H   0  0  0  0  0  0  0  0  0  0  0  0
   -3.9099   22.8052  -32.7202 H   0  0  0  0  0  0  0  0  0  0  0  0
   -3.6010   21.2514  -31.8264 H   0  0  0  0  0  0  0  0  0  0  0  0
   -7.7700   21.5914  -29.9244 H   0  0  0  0  0  0  0  0  0  0  0  0
   -8.1131   23.3567  -29.9650 H   0  0  0  0  0  0  0  0  0  0  0  0
   -9.3053   22.0892  -31.7268 H   0  0  0  0  0  0  0  0  0  0  0  0
   -8.1342   23.3373  -32.3696 H   0  0  0  0  0  0  0  0  0  0  0  0
   -8.1344   20.3892  -32.6217 H   0  0  0  0  0  0  0  0  0  0  0  0
   -7.5839   21.6897  -33.7509 H   0  0  0  0  0  0  0  0  0  0  0  0
   -4.7673   20.1115  -33.4084 H   0  0  0  0  0  0  0  0  0  0  0  0
   -5.1977   19.3844  -31.7979 H   0  0  0  0  0  0  0  0  0  0  0  0
   -7.3991   19.5268  -33.7841 H   0  0  0  0  0  0  0  0  0  0  0  0
   -6.0664   18.4044  -34.1857 H   0  0  0  0  0  0  0  0  0  0  0  0
   -7.2092   16.9817  -32.7869 H   0  0  0  0  0  0  0  0  0  0  0  0
   -6.3461   17.9172  -31.5005 H   0  0  0  0  0  0  0  0  0  0  0  0
   -6.2039   24.7460  -29.7641 H   0  0  0  0  0  0  0  0  0  0  0  0
   -5.4581   23.4871  -28.7406 H   0  0  0  0  0  0  0  0  0  0  0  0
  1  2  2  0
  2  3  1  0
  3  4  1  0
  4  5  1  0
  5  6  2  0
  6  7  1  0
  7  8  1  0
  8  9  1  0
  9 10  1  0
 10 11  1  0
 11 12  1  0
 12 13  1  0
 13 14  1  0
  6 15  1  0
 15  2  1  0
 10  5  1  0
  3 16  1  0
  3 17  1  0
  4 18  1  0
  4 19  1  0
  7 20  1  0
  7 21  1  0
  8 22  1  0
  8 23  1  0
  9 24  1  0
  9 25  1  0
 11 26  1  0
 11 27  1  0
 12 28  1  0
 12 29  1  0
 13 30  1  0
 13 31  1  0
 15 32  1  0
 15 33  1  0
M  END
>  <smiles>  (5) 
O=C1CCC2=C(CCCN2CCCBr)C1

>  <score_type>  (5) 
oracle

>  <origin>  (5) 
adg

>  <m_score__min__energy>  (5) 
-7.3300000000000001

>  <m_primary>  (5) 
energy

$$$$
6:0
     RDKit          3D

 43 45  0  0  0  0  0  0  0  0999 V2000
   -5.9350   25.2780  -29.4330 C   0  0  0  0  0  0  0  0  0  0  0  0
   -5.3360   25.5030  -30.8090 C   0  0  0  0  0  0  0  0  0  0  0  0
   -3.9230   25.3050  -30.6890 N   0  0  0  0  0  0  0  0  0  0  0  0
   -3.5510   24.2640  -29.7360 C   0  0  0  0  0  0  0  0  0  0  0  0
   -3.7660   22.8950  -30.3220 C   0  0  0  0  0  0  0  0  0  0  0  0
   -4.4330   22.8960  -31.5990 N   0  0  0  0  0  0  0  0  0  0  0  0
   -4.9930   21.6960  -32.0700 C   0  0  0  0  0  0  0  0  0  0  0  0
   -4.2440   20.7260  -32.7790 C   0  0  0  0  0  0  0  0  0  0  0  0
   -2.9250   20.7780  -33.0620 C   0  0  0  0  0  0  0  0  0  0  0  0
   -2.3550   19.7650  -33.7410 C   0  0  0  0  0  0  0  0  0  0  0  0
   -3.7880   18.5790  -34.0400 S   0  0  0  0  0  0  0  0  0  0  0  0
   -4.9390   19.6470  -33.1940 C   0  0  0  0  0  0  0  0  0  0  0  0
   -6.2780   19.4160  -32.9900 N   0  0  0  0  0  0  0  0  0  0  0  0
   -6.8800   18.2190  -33.5000 C   0  0  0  0  0  0  0  0  0  0  0  0
   -7.0030   20.3460  -32.3060 C   0  0  0  0  0  0  0  0  0  0  0  0
   -8.3620   20.1630  -32.0650 C   0  0  0  0  0  0  0  0  0  0  0  0
   -9.1130   18.9900  -32.5130 C   0  0  0  0  0  0  0  0  0  0  0  0
   -8.9980   21.1770  -31.3540 C   0  0  0  0  0  0  0  0  0  0  0  0
   -8.3650   22.3040  -30.8980 C   0  0  0  0  0  0  0  0  0  0  0  0
   -7.0250   22.4420  -31.1580 C   0  0  0  0  0  0  0  0  0  0  0  0
   -6.3360   21.4650  -31.8640 C   0  0  0  0  0  0  0  0  0  0  0  0
   -5.1994   25.5543  -28.6632 H   0  0  0  0  0  0  0  0  0  0  0  0
   -6.8357   25.8991  -29.3192 H   0  0  0  0  0  0  0  0  0  0  0  0
   -6.2041   24.2175  -29.3192 H   0  0  0  0  0  0  0  0  0  0  0  0
   -5.7584   24.7844  -31.5268 H   0  0  0  0  0  0  0  0  0  0  0  0
   -5.5604   26.5163  -31.1735 H   0  0  0  0  0  0  0  0  0  0  0  0
   -3.4090   25.2320  -31.5810 H   0  0  0  0  0  0  0  0  0  0  0  0
   -2.4893   24.3800  -29.4728 H   0  0  0  0  0  0  0  0  0  0  0  0
   -4.1830   24.3656  -28.8415 H   0  0  0  0  0  0  0  0  0  0  0  0
   -2.7840   22.4152  -30.4464 H   0  0  0  0  0  0  0  0  0  0  0  0
   -4.4209   22.3525  -29.6244 H   0  0  0  0  0  0  0  0  0  0  0  0
   -4.5200   23.7560  -32.1900 H   0  0  0  0  0  0  0  0  0  0  0  0
   -2.3218   21.6399  -32.7408 H   0  0  0  0  0  0  0  0  0  0  0  0
   -1.3043   19.6558  -34.0478 H   0  0  0  0  0  0  0  0  0  0  0  0
   -7.1997   17.5833  -32.6612 H   0  0  0  0  0  0  0  0  0  0  0  0
   -7.7535   18.4812  -34.1151 H   0  0  0  0  0  0  0  0  0  0  0  0
   -6.1487   17.6741  -34.1151 H   0  0  0  0  0  0  0  0  0  0  0  0
   -9.4724   18.4286  -31.6380 H   0  0  0  0  0  0  0  0  0  0  0  0
   -9.9720   19.3140  -33.1189 H   0  0  0  0  0  0  0  0  0  0  0  0
   -8.4592   18.3455  -33.1189 H   0  0  0  0  0  0  0  0  0  0  0  0
  -10.0725   21.0672  -31.1458 H   0  0  0  0  0  0  0  0  0  0  0  0
   -8.9155   23.0755  -30.3397 H   0  0  0  0  0  0  0  0  0  0  0  0
   -6.4910   23.3359  -30.8035 H   0  0  0  0  0  0  0  0  0  0  0  0
  1  2  1  0
  2  3  1  0
  3  4  1  0
  4  5  1  0
  5  6  1  0
  6  7  1  0
  7  8  2  0
  8  9  1  0
  9 10  2  0
 10 11  1  0
 11 12  1  0
 12 13  2  0
 13 14  1  0
 13 15  1  0
 15 16  2  0
 16 17  1  0
 16 18  1  0
 18 19  2  0
 19 20  1  0
 20 21  2  0
 21  7  1  0
 12  8  1  0
 21 15  1  0
  1 22  1  0
  1 23  1  0
  1 24  1  0
  2 25  1  0
  2 26  1  0
  3 27  1  0
  4 28  1  0
  4 29  1  0
  5 30  1  0
  5 31  1  0
  6 32  1  0
  9 33  1  0
 10 34  1  0
 14 35  1  0
 14 36  1  0
 14 37  1  0
 17 38  1  0
 17 39  1  0
 17 40  1  0
 18 41  1  0
 19 42  1  0
 20 43  1  0
M  CHG  1  13   1
M  END
>  <smiles>  (6) 
CCNCCNc1c2ccsc2[n+](C)c2c(C)cccc12

>  <score_type>  (6) 
oracle

>  <origin>  (6) 
adg

>  <m_score__min__energy>  (6) 
-8.8399999999999999

>  <m_primary>  (6) 
energy

$$$$
7:0
     RDKit          3D

 63 66  0  0  0  0  0  0  0  0999 V2000
   -8.5150   21.6670  -31.0920 C   0  0  0  0  0  0  0  0  0  0  0  0
   -9.2850   21.1960  -32.3200 C   0  0  0  0  0  0  0  0  0  0  0  0
   -8.6460   20.0650  -32.9410 N   0  0  0  0  0  0  0  0  0  0  0  0
   -8.7340   18.9290  -32.0400 C   0  0  0  0  0  0  0  0  0  0  0  0
   -7.5010   18.0510  -32.1410 C   0  0  0  0  0  0  0  0  0  0  0  0
   -6.9110   18.2480  -33.4600 N   0  0  0  0  0  0  0  0  0  0  0  0
   -5.6980   17.6000  -33.7320 C   0  0  0  0  0  0  0  0  0  0  0  0
   -5.7610   16.2320  -34.0210 C   0  0  0  0  0  0  0  0  0  0  0  0
   -6.9400   15.5510  -34.0410 C   0  0  0  0  0  0  0  0  0  0  0  0
   -7.0300   14.1910  -34.3250 C   0  0  0  0  0  0  0  0  0  0  0  0
   -5.8500   13.5080  -34.6010 C   0  0  0  0  0  0  0  0  0  0  0  0
   -4.6300   14.1720  -34.5890 C   0  0  0  0  0  0  0  0  0  0  0  0
   -4.5880   15.5290  -34.2990 C   0  0  0  0  0  0  0  0  0  0  0  0
   -3.4090   16.1800  -34.2870 N   0  0  0  0  0  0  0  0  0  0  0  0
   -2.2270   15.4110  -34.5800 C   0  0  0  0  0  0  0  0  0  0  0  0
   -3.3100   17.4960  -34.0130 C   0  0  0  0  0  0  0  0  0  0  0  0
   -2.2770   18.3340  -33.9430 N   0  0  0  0  0  0  0  0  0  0  0  0
   -2.7470   19.5640  -33.6270 C   0  0  0  0  0  0  0  0  0  0  0  0
   -2.1040   20.7670  -33.4370 C   0  0  0  0  0  0  0  0  0  0  0  0
   -2.8470   21.8890  -33.1160 C   0  0  0  0  0  0  0  0  0  0  0  0
   -4.2050   21.8930  -32.9680 C   0  0  0  0  0  0  0  0  0  0  0  0
   -5.0020   22.9350  -32.6600 O   0  0  0  0  0  0  0  0  0  0  0  0
   -5.4700   23.4700  -31.4880 C   0  0  0  0  0  0  0  0  0  0  0  0
   -4.6440   23.2920  -30.2590 C   0  0  0  0  0  0  0  0  0  0  0  0
   -4.4190   24.6470  -29.7270 N   0  0  0  0  0  0  0  0  0  0  0  0
   -4.0240   24.4890  -28.3470 C   0  0  0  0  0  0  0  0  0  0  0  0
   -5.6750   25.3610  -29.8040 C   0  0  0  0  0  0  0  0  0  0  0  0
   -3.4900   25.2980  -30.4650 O   0  0  0  0  0  0  0  0  0  0  0  0
   -4.8340   20.6470  -33.1680 C   0  0  0  0  0  0  0  0  0  0  0  0
   -4.1090   19.5280  -33.4870 C   0  0  0  0  0  0  0  0  0  0  0  0
   -4.4610   18.2030  -33.7350 C   0  0  0  0  0  0  0  0  0  0  0  0
   -9.0426   21.3443  -30.1823 H   0  0  0  0  0  0  0  0  0  0  0  0
   -7.5047   21.2322  -31.1037 H   0  0  0  0  0  0  0  0  0  0  0  0
   -8.4420   22.7645  -31.1037 H   0  0  0  0  0  0  0  0  0  0  0  0
  -10.3025   20.9093  -32.0158 H   0  0  0  0  0  0  0  0  0  0  0  0
   -9.3119   22.0202  -33.0480 H   0  0  0  0  0  0  0  0  0  0  0  0
   -9.0690   19.8320  -33.8450 H   0  0  0  0  0  0  0  0  0  0  0  0
   -8.8290   19.2966  -31.0076 H   0  0  0  0  0  0  0  0  0  0  0  0
   -9.6123   18.3292  -32.3209 H   0  0  0  0  0  0  0  0  0  0  0  0
   -6.7770   18.3341  -31.3627 H   0  0  0  0  0  0  0  0  0  0  0  0
   -7.7729   16.9946  -31.9992 H   0  0  0  0  0  0  0  0  0  0  0  0
   -7.3790   18.8530  -34.1800 H   0  0  0  0  0  0  0  0  0  0  0  0
   -7.8664   16.1022  -33.8221 H   0  0  0  0  0  0  0  0  0  0  0  0
   -8.0010   13.6742  -34.3309 H   0  0  0  0  0  0  0  0  0  0  0  0
   -5.8833   12.4328  -34.8307 H   0  0  0  0  0  0  0  0  0  0  0  0
   -3.7012   13.6250  -34.8083 H   0  0  0  0  0  0  0  0  0  0  0  0
   -1.7492   15.1002  -33.6392 H   0  0  0  0  0  0  0  0  0  0  0  0
   -2.5043   14.5199  -35.1623 H   0  0  0  0  0  0  0  0  0  0  0  0
   -1.5247   16.0256  -35.1623 H   0  0  0  0  0  0  0  0  0  0  0  0
   -1.2700   18.0950  -34.1040 H   0  0  0  0  0  0  0  0  0  0  0  0
   -1.0109   20.8350  -33.5394 H   0  0  0  0  0  0  0  0  0  0  0  0
   -2.3102   22.8381  -32.9707 H   0  0  0  0  0  0  0  0  0  0  0  0
   -5.5908   24.5517  -31.6473 H   0  0  0  0  0  0  0  0  0  0  0  0
   -6.3951   22.9121  -31.2809 H   0  0  0  0  0  0  0  0  0  0  0  0
   -5.1807   22.6756  -29.5227 H   0  0  0  0  0  0  0  0  0  0  0  0
   -3.6952   22.7809  -30.4794 H   0  0  0  0  0  0  0  0  0  0  0  0
   -4.8439   24.8170  -27.6911 H   0  0  0  0  0  0  0  0  0  0  0  0
   -3.7972   23.4309  -28.1494 H   0  0  0  0  0  0  0  0  0  0  0  0
   -3.1301   25.0988  -28.1494 H   0  0  0  0  0  0  0  0  0  0  0  0
   -6.0413   25.5692  -28.7879 H   0  0  0  0  0  0  0  0  0  0  0  0
   -5.5255   26.3091  -30.3413 H   0  0  0  0  0  0  0  0  0  0  0  0
   -6.4132   24.7475  -30.3413 H   0  0  0  0  0  0  0  0  0  0  0  0
   -5.9267   20.5714  -33.0662 H   0  0  0  0  0  0  0  0  0  0  0  0
  1  2  1  0
  2  3  1  0
  3  4  1  0
  4  5  1  0
  5  6  1  0
  6  7  1  0
  7  8  2  0
  8  9  1  0
  9 10  2  0
 10 11  1  0
 11 12  2  0
 12 13  1  0
 13 14  2  0
 14 15  1  0
 14 16  1  0
 16 17  1  0
 17 18  1  0
 18 19  2  0
 19 20  1  0
 20 21  2  0
 21 22  1  0
 22 23  1  0
 23 24  1  0
 24 25  1  0
 25 26  1  0
 25 27  1  0
 25 28  1  0
 21 29  1  0
 29 30  2  0
 30 31  1  0
 31  7  1  0
 13  8  1  0
 31 16  2  0
 30 18  1  0
  1 32  1  0
  1 33  1  0
  1 34  1  0
  2 35  1  0
  2 36  1  0
  3 37  1  0
  4 38  1  0
  4 39  1  0
  5 40  1  0
  5 41  1  0
  6 42  1  0
  9 43  1  0
 10 44  1  0
 11 45  1  0
 12 46  1  0
 15 47  1  0
 15 48  1  0
 15 49  1  0
 17 50  1  0
 19 51  1  0
 20 52  1  0
 23 53  1  0
 23 54  1  0
 24 55  1  0
 24 56  1  0
 26 57  1  0
 26 58  1  0
 26 59  1  0
 27 60  1  0
 27 61  1  0
 27 62  1  0
 29 63  1  0
M  CHG  3  14   1  25   1  28  -1
M  END
>  <smiles>  (7) 
CCNCCNc1c2ccccc2[n+](C)c2[nH]c3ccc(OCC[N+](C)(C)[O-])cc3c12

>  <score_type>  (7) 
oracle

>  <origin>  (7) 
adg

>  <m_score__min__energy>  (7) 
-10.35

>  <m_primary>  (7) 
energy

$$$$
8:0
     RDKit          3D

 36 38  0  0  0  0  0  0  0  0999 V2000
   -3.0030   23.0130  -30.5470 C   0  0  0  0  0  0  0  0  0  0  0  0
   -4.1510   23.9690  -30.5160 C   0  0  0  0  0  0  0  0  0  0  0  0
   -3.8600   25.1890  -30.4980 O   0  0  0  0  0  0  0  0  0  0  0  0
   -5.4960   23.5000  -30.5080 N   0  0  0  0  0  0  0  0  0  0  0  0
   -6.6430   24.3880  -30.4760 C   0  0  0  0  0  0  0  0  0  0  0  0
   -7.8030   23.8000  -31.2910 C   0  0  0  0  0  0  0  0  0  0  0  0
   -7.4170   22.4460  -31.8110 C   0  0  0  0  0  0  0  0  0  0  0  0
   -6.6140   21.8760  -32.3500 N   0  0  0  0  0  0  0  0  0  0  0  0
   -6.4720   20.6130  -32.7270 C   0  0  0  0  0  0  0  0  0  0  0  0
   -5.4500   19.9330  -33.4010 C   0  0  0  0  0  0  0  0  0  0  0  0
   -5.6000   18.5940  -33.6520 C   0  0  0  0  0  0  0  0  0  0  0  0
   -4.5540   17.9510  -34.3280 C   0  0  0  0  0  0  0  0  0  0  0  0
   -4.6910   16.6050  -34.5880 C   0  0  0  0  0  0  0  0  0  0  0  0
   -3.5410   15.9610  -35.3170 C   0  0  0  0  0  0  0  0  0  0  0  0
   -5.7940   15.8660  -34.2180 C   0  0  0  0  0  0  0  0  0  0  0  0
   -6.8250   16.4960  -33.5520 C   0  0  0  0  0  0  0  0  0  0  0  0
   -6.6940   17.8420  -33.2900 C   0  0  0  0  0  0  0  0  0  0  0  0
   -7.7180   18.4950  -32.6220 C   0  0  0  0  0  0  0  0  0  0  0  0
   -7.5560   19.8240  -32.3800 C   0  0  0  0  0  0  0  0  0  0  0  0
   -8.6940   21.0260  -31.5210 S   0  0  0  0  0  0  0  0  0  0  0  0
   -2.7048   22.7646  -29.5177 H   0  0  0  0  0  0  0  0  0  0  0  0
   -3.3043   22.0951  -31.0730 H   0  0  0  0  0  0  0  0  0  0  0  0
   -2.1548   23.4755  -31.0730 H   0  0  0  0  0  0  0  0  0  0  0  0
   -5.5970   22.4440  -30.5260 H   0  0  0  0  0  0  0  0  0  0  0  0
   -6.9660   24.5242  -29.4334 H   0  0  0  0  0  0  0  0  0  0  0  0
   -6.3556   25.3552  -30.9142 H   0  0  0  0  0  0  0  0  0  0  0  0
   -8.6911   23.7060  -30.6487 H   0  0  0  0  0  0  0  0  0  0  0  0
   -8.0294   24.4655  -32.1371 H   0  0  0  0  0  0  0  0  0  0  0  0
   -4.5424   20.4644  -33.7234 H   0  0  0  0  0  0  0  0  0  0  0  0
   -3.6546   18.5021  -34.6402 H   0  0  0  0  0  0  0  0  0  0  0  0
   -2.8231   15.5590  -34.5869 H   0  0  0  0  0  0  0  0  0  0  0  0
   -3.9189   15.1432  -35.9482 H   0  0  0  0  0  0  0  0  0  0  0  0
   -3.0412   16.7105  -35.9482 H   0  0  0  0  0  0  0  0  0  0  0  0
   -5.8513   14.7922  -34.4498 H   0  0  0  0  0  0  0  0  0  0  0  0
   -7.7224   15.9415  -33.2403 H   0  0  0  0  0  0  0  0  0  0  0  0
   -8.6243   17.9607  -32.3008 H   0  0  0  0  0  0  0  0  0  0  0  0
  1  2  1  0
  2  3  2  0
  2  4  1  0
  4  5  1  0
  5  6  1  0
  6  7  1  0
  7  8  2  0
  8  9  1  0
  9 10  2  0
 10 11  1  0
 11 12  2  0
 12 13  1  0
 13 14  1  0
 13 15  2  0
 15 16  1  0
 16 17  2  0
 17 18  1  0
 18 19  2  0
 19 20  1  0
 20  7  1  0
 19  9  1  0
 17 11  1  0
  1 21  1  0
  1 22  1  0
  1 23  1  0
  4 24  1  0
  5 25  1  0
  5 26  1  0
  6 27  1  0
  6 28  1  0
 10 29  1  0
 12 30  1  0
 14 31  1  0
 14 32  1  0
 14 33  1  0
 15 34  1  0
 16 35  1  0
 18 36  1  0
M  END
>  <smiles>  (8) 
CC(=O)NCCc1nc2cc3cc(C)ccc3cc2s1

>  <score_type>  (8) 
oracle

>  <origin>  (8) 
adg

>  <m_score__min__energy>  (8) 
-8.7400000000000002

>  <m_primary>  (8) 
energy

$$$$
9:0
     RDKit          3D

 60 63  0  0  0  0  0  0  0  0999 V2000
   -3.2830   23.4470  -29.7430 C   0  0  0  0  0  0  0  0  0  0  0  0
   -2.1580   22.6860  -30.4340 C   0  0  0  0  0  0  0  0  0  0  0  0
   -2.3910   21.3070  -30.3000 N   0  0  0  0  0  0  0  0  0  0  0  0
   -3.0980   20.8000  -29.2060 C   0  0  0  0  0  0  0  0  0  0  0  0
   -1.7380   20.4070  -31.1830 C   0  0  0  0  0  0  0  0  0  0  0  0
   -1.4510   21.1320  -32.4760 C   0  0  0  0  0  0  0  0  0  0  0  0
   -2.4810   21.0880  -33.4670 N   0  0  0  0  0  0  0  0  0  0  0  0
   -3.6740   20.3200  -33.3980 C   0  0  0  0  0  0  0  0  0  0  0  0
   -3.7650   18.9930  -33.7300 C   0  0  0  0  0  0  0  0  0  0  0  0
   -2.6630   18.3530  -34.2400 C   0  0  0  0  0  0  0  0  0  0  0  0
   -2.6490   17.0390  -34.6470 C   0  0  0  0  0  0  0  0  0  0  0  0
   -1.4840   16.3980  -35.1620 N   0  0  0  0  0  0  0  0  0  0  0  0
   -0.1580   16.9510  -34.9020 C   0  0  0  0  0  0  0  0  0  0  0  0
   -1.6380   15.1830  -35.9580 C   0  0  0  0  0  0  0  0  0  0  0  0
   -3.8200   16.3310  -34.5300 C   0  0  0  0  0  0  0  0  0  0  0  0
   -4.9480   16.9540  -34.0180 C   0  0  0  0  0  0  0  0  0  0  0  0
   -4.9430   18.2830  -33.6110 C   0  0  0  0  0  0  0  0  0  0  0  0
   -6.0910   18.8720  -33.1490 N   0  0  0  0  0  0  0  0  0  0  0  0
   -7.1770   17.9940  -32.8540 C   0  0  0  0  0  0  0  0  0  0  0  0
   -6.0300   20.1750  -32.8290 C   0  0  0  0  0  0  0  0  0  0  0  0
   -4.8420   20.9100  -32.9400 C   0  0  0  0  0  0  0  0  0  0  0  0
   -4.7630   22.2440  -32.6070 C   0  0  0  0  0  0  0  0  0  0  0  0
   -5.8630   22.9320  -32.1500 C   0  0  0  0  0  0  0  0  0  0  0  0
   -7.0460   22.1980  -32.0540 C   0  0  0  0  0  0  0  0  0  0  0  0
   -8.1510   22.9430  -31.6610 C   0  0  0  0  0  0  0  0  0  0  0  0
   -9.3690   22.3190  -31.6130 C   0  0  0  0  0  0  0  0  0  0  0  0
   -9.5070   21.0070  -31.9420 C   0  0  0  0  0  0  0  0  0  0  0  0
   -8.3610   20.2800  -32.3350 C   0  0  0  0  0  0  0  0  0  0  0  0
   -7.1210   20.8660  -32.3880 C   0  0  0  0  0  0  0  0  0  0  0  0
   -3.1642   23.3666  -28.6524 H   0  0  0  0  0  0  0  0  0  0  0  0
   -3.2452   24.5058  -30.0389 H   0  0  0  0  0  0  0  0  0  0  0  0
   -4.2517   23.0179  -30.0389 H   0  0  0  0  0  0  0  0  0  0  0  0
   -2.1319   22.9540  -31.5005 H   0  0  0  0  0  0  0  0  0  0  0  0
   -1.1939   22.9472  -29.9732 H   0  0  0  0  0  0  0  0  0  0  0  0
   -2.6238   21.1400  -28.2735 H   0  0  0  0  0  0  0  0  0  0  0  0
   -4.1367   21.1604  -29.2418 H   0  0  0  0  0  0  0  0  0  0  0  0
   -3.0899   19.7006  -29.2418 H   0  0  0  0  0  0  0  0  0  0  0  0
   -0.7951   20.0632  -30.7327 H   0  0  0  0  0  0  0  0  0  0  0  0
   -2.3784   19.5332  -31.3737 H   0  0  0  0  0  0  0  0  0  0  0  0
   -1.2633   22.1885  -32.2338 H   0  0  0  0  0  0  0  0  0  0  0  0
   -0.5915   20.6098  -32.9216 H   0  0  0  0  0  0  0  0  0  0  0  0
   -2.3780   21.6690  -34.3380 H   0  0  0  0  0  0  0  0  0  0  0  0
   -1.7298   18.9286  -34.3291 H   0  0  0  0  0  0  0  0  0  0  0  0
    0.0046   17.0188  -33.8162 H   0  0  0  0  0  0  0  0  0  0  0  0
    0.6059   16.2965  -35.3470 H   0  0  0  0  0  0  0  0  0  0  0  0
   -0.0855   17.9544  -35.3470 H   0  0  0  0  0  0  0  0  0  0  0  0
   -1.7477   14.3173  -35.2883 H   0  0  0  0  0  0  0  0  0  0  0  0
   -2.5321   15.2713  -36.5926 H   0  0  0  0  0  0  0  0  0  0  0  0
   -0.7501   15.0454  -36.5926 H   0  0  0  0  0  0  0  0  0  0  0  0
   -3.8628   15.2766  -34.8404 H   0  0  0  0  0  0  0  0  0  0  0  0
   -5.8798   16.3760  -33.9308 H   0  0  0  0  0  0  0  0  0  0  0  0
   -7.2893   17.9032  -31.7635 H   0  0  0  0  0  0  0  0  0  0  0  0
   -8.1040   18.3995  -33.2856 H   0  0  0  0  0  0  0  0  0  0  0  0
   -6.9747   17.0026  -33.2856 H   0  0  0  0  0  0  0  0  0  0  0  0
   -3.8019   22.7694  -32.7084 H   0  0  0  0  0  0  0  0  0  0  0  0
   -5.8132   23.9964  -31.8768 H   0  0  0  0  0  0  0  0  0  0  0  0
   -8.0501   24.0057  -31.3955 H   0  0  0  0  0  0  0  0  0  0  0  0
  -10.2550   22.8917  -31.3015 H   0  0  0  0  0  0  0  0  0  0  0  0
  -10.4928   20.5205  -31.9029 H   0  0  0  0  0  0  0  0  0  0  0  0
   -8.4651   19.2187  -32.6050 H   0  0  0  0  0  0  0  0  0  0  0  0
  1  2  1  0
  2  3  1  0
  3  4  1  0
  3  5  1  0
  5  6  1  0
  6  7  1  0
  7  8  1  0
  8  9  2  0
  9 10  1  0
 10 11  2  0
 11 12  1  0
 12 13  1  0
 12 14  1  0
 11 15  1  0
 15 16  2  0
 16 17  1  0
 17 18  2  0
 18 19  1  0
 18 20  1  0
 20 21  2  0
 21 22  1  0
 22 23  2  0
 23 24  1  0
 24 25  2  0
 25 26  1  0
 26 27  2  0
 27 28  1  0
 28 29  2  0
 21  8  1  0
 29 24  1  0
 17  9  1  0
 29 20  1  0
  1 30  1  0
  1 31  1  0
  1 32  1  0
  2 33  1  0
  2 34  1  0
  4 35  1  0
  4 36  1  0
  4 37  1  0
  5 38  1  0
  5 39  1  0
  6 40  1  0
  6 41  1  0
  7 42  1  0
 10 43  1  0
 13 44  1  0
 13 45  1  0
 13 46  1  0
 14 47  1  0
 14 48  1  0
 14 49  1  0
 15 50  1  0
 16 51  1  0
 19 52  1  0
 19 53  1  0
 19 54  1  0
 22 55  1  0
 23 56  1  0
 25 57  1  0
 26 58  1  0
 27 59  1  0
 28 60  1  0
M  CHG  1  18   1
M  END
>  <smiles>  (9) 
CCN(C)CCNc1c2cc(N(C)C)ccc2[n+](C)c2c1ccc1ccccc12

>  <score_type>  (9) 
oracle

>  <origin>  (9) 
adg

>  <m_score__min__energy>  (9) 
-8.1400000000000006

>  <m_primary>  (9) 
energy

$$$$
10:0
     RDKit          3D

 38 40  0  0  0  0  0  0  0  0999 V2000
   -2.7620   19.4510  -32.9580 C   0  0  0  0  0  0  0  0  0  0  0  0
   -3.8440   19.3270  -33.8360 O   0  0  0  0  0  0  0  0  0  0  0  0
   -5.1880   19.2640  -33.4760 C   0  0  0  0  0  0  0  0  0  0  0  0
   -5.9250   18.0840  -33.5340 C   0  0  0  0  0  0  0  0  0  0  0  0
   -7.2540   18.0250  -33.1820 C   0  0  0  0  0  0  0  0  0  0  0  0
   -7.9150   19.1580  -32.7510 C   0  0  0  0  0  0  0  0  0  0  0  0
   -9.3520   19.0720  -32.3620 C   0  0  0  0  0  0  0  0  0  0  0  0
   -7.1840   20.3300  -32.6940 C   0  0  0  0  0  0  0  0  0  0  0  0
   -5.8530   20.3880  -33.0440 C   0  0  0  0  0  0  0  0  0  0  0  0
   -5.0780   21.5890  -32.9560 N   0  0  0  0  0  0  0  0  0  0  0  0
   -4.9420   22.2410  -31.7900 C   0  0  0  0  0  0  0  0  0  0  0  0
   -5.6610   21.5280  -30.8200 O   0  0  0  0  0  0  0  0  0  0  0  0
   -4.3940   23.3270  -31.1300 C   0  0  0  0  0  0  0  0  0  0  0  0
   -3.1520   22.3800  -30.5190 C   0  0  0  0  0  0  0  0  0  0  0  0
   -2.2120   22.8610  -29.7460 C   0  0  0  0  0  0  0  0  0  0  0  0
   -1.2100   21.9940  -29.2840 C   0  0  0  0  0  0  0  0  0  0  0  0
   -0.2260   22.4710  -28.4830 C   0  0  0  0  0  0  0  0  0  0  0  0
   -0.1130   23.7730  -28.0630 C   0  0  0  0  0  0  0  0  0  0  0  0
   -1.0970   24.6480  -28.5120 C   0  0  0  0  0  0  0  0  0  0  0  0
   -2.0710   24.1940  -29.3020 C   0  0  0  0  0  0  0  0  0  0  0  0
   -3.0620   24.9370  -29.7940 O   0  0  0  0  0  0  0  0  0  0  0  0
   -3.8850   24.3330  -30.5190 C   0  0  0  0  0  0  0  0  0  0  0  0
   -4.8320   25.3320  -30.9110 O   0  0  0  0  0  0  0  0  0  0  0  0
   -3.1251   19.4094  -31.9205 H   0  0  0  0  0  0  0  0  0  0  0  0
   -2.0528   18.6283  -33.1316 H   0  0  0  0  0  0  0  0  0  0  0  0
   -2.2573   20.4129  -33.1316 H   0  0  0  0  0  0  0  0  0  0  0  0
   -5.4261   17.1645  -33.8740 H   0  0  0  0  0  0  0  0  0  0  0  0
   -7.7935   17.0684  -33.2444 H   0  0  0  0  0  0  0  0  0  0  0  0
   -9.4353   19.0670  -31.2652 H   0  0  0  0  0  0  0  0  0  0  0  0
   -9.8940   19.9393  -32.7669 H   0  0  0  0  0  0  0  0  0  0  0  0
   -9.7867   18.1462  -32.7669 H   0  0  0  0  0  0  0  0  0  0  0  0
   -7.6836   21.2501  -32.3567 H   0  0  0  0  0  0  0  0  0  0  0  0
   -4.6320   21.8930  -33.8310 H   0  0  0  0  0  0  0  0  0  0  0  0
   -3.1265   21.3114  -30.7785 H   0  0  0  0  0  0  0  0  0  0  0  0
   -1.2230   20.9321  -29.5706 H   0  0  0  0  0  0  0  0  0  0  0  0
    0.5413   21.7598  -28.1433 H   0  0  0  0  0  0  0  0  0  0  0  0
    0.7074   24.1050  -27.4098 H   0  0  0  0  0  0  0  0  0  0  0  0
   -1.0719   25.7075  -28.2173 H   0  0  0  0  0  0  0  0  0  0  0  0
  1  2  1  0
  2  3  1  0
  3  4  2  0
  4  5  1  0
  5  6  2  0
  6  7  1  0
  6  8  1  0
  8  9  2  0
  9 10  1  0
 10 11  1  0
 11 12  2  0
 11 13  1  0
 13 14  2  0
 14 15  1  0
 15 16  2  0
 16 17  1  0
 17 18  2  0
 18 19  1  0
 19 20  2  0
 20 21  1  0
 21 22  1  0
 22 23  2  0
  9  3  1  0
 22 13  1  0
 20 15  1  0
  1 24  1  0
  1 25  1  0
  1 26  1  0
  4 27  1  0
  5 28  1  0
  7 29  1  0
  7 30  1  0
  7 31  1  0
  8 32  1  0
 10 33  1  0
 14 34  1  0
 16 35  1  0
 17 36  1  0
 18 37  1  0
 19 38  1  0
M  END
>  <smiles>  (10) 
COc1ccc(C)cc1NC(=O)c1cc2ccccc2oc1=O

>  <score_type>  (10) 
oracle

>  <origin>  (10) 
adg

>  <m_score__min__energy>  (10) 
-8.4100000000000001

>  <m_primary>  (10) 
energy

$$$$
11:0
     RDKit          3D

 59 62  0  0  0  0  0  0  0  0999 V2000
   -3.5370   23.4380  -28.5920 C   0  0  0  0  0  0  0  0  0  0  0  0
   -3.5600   24.5230  -29.6180 C   0  0  0  0  0  0  0  0  0  0  0  0
   -4.2320   24.1840  -30.8380 N   0  0  0  0  0  0  0  0  0  0  0  0
   -5.3940   24.9270  -31.1300 C   0  0  0  0  0  0  0  0  0  0  0  0
   -6.0850   25.2700  -29.8110 C   0  0  0  0  0  0  0  0  0  0  0  0
   -4.2870   22.7490  -30.9860 C   0  0  0  0  0  0  0  0  0  0  0  0
   -3.7000   22.1940  -32.2200 C   0  0  0  0  0  0  0  0  0  0  0  0
   -4.6780   21.7300  -33.1780 N   0  0  0  0  0  0  0  0  0  0  0  0
   -5.7360   20.8460  -32.8950 C   0  0  0  0  0  0  0  0  0  0  0  0
   -6.9810   21.3350  -32.4750 C   0  0  0  0  0  0  0  0  0  0  0  0
   -7.2380   22.6790  -32.3470 C   0  0  0  0  0  0  0  0  0  0  0  0
   -8.4600   23.1830  -31.9430 C   0  0  0  0  0  0  0  0  0  0  0  0
   -9.4800   22.2980  -31.6500 C   0  0  0  0  0  0  0  0  0  0  0  0
   -9.2510   20.9380  -31.7700 C   0  0  0  0  0  0  0  0  0  0  0  0
   -8.0220   20.4600  -32.1760 C   0  0  0  0  0  0  0  0  0  0  0  0
   -7.8920   19.1280  -32.2750 N   0  0  0  0  0  0  0  0  0  0  0  0
   -8.9870   18.2440  -31.9560 C   0  0  0  0  0  0  0  0  0  0  0  0
   -6.7090   18.6290  -32.6800 C   0  0  0  0  0  0  0  0  0  0  0  0
   -6.3490   17.3380  -32.8890 N   0  0  0  0  0  0  0  0  0  0  0  0
   -5.0720   17.3210  -33.3320 C   0  0  0  0  0  0  0  0  0  0  0  0
   -4.2290   16.2810  -33.7160 C   0  0  0  0  0  0  0  0  0  0  0  0
   -4.6470   14.8640  -33.6640 C   0  0  0  0  0  0  0  0  0  0  0  0
   -2.9840   16.5440  -34.1550 N   0  0  0  0  0  0  0  0  0  0  0  0
   -2.0620   15.4940  -34.5660 C   0  0  0  0  0  0  0  0  0  0  0  0
   -2.5230   17.8060  -34.2340 C   0  0  0  0  0  0  0  0  0  0  0  0
   -3.3580   18.8380  -33.8530 C   0  0  0  0  0  0  0  0  0  0  0  0
   -4.6390   18.6370  -33.3950 C   0  0  0  0  0  0  0  0  0  0  0  0
   -5.6550   19.4720  -32.9840 C   0  0  0  0  0  0  0  0  0  0  0  0
   -3.5465   23.8839  -27.5865 H   0  0  0  0  0  0  0  0  0  0  0  0
   -4.4217   22.7964  -28.7169 H   0  0  0  0  0  0  0  0  0  0  0  0
   -2.6259   22.8345  -28.7169 H   0  0  0  0  0  0  0  0  0  0  0  0
   -4.0654   25.3966  -29.1806 H   0  0  0  0  0  0  0  0  0  0  0  0
   -2.5110   24.7169  -29.8864 H   0  0  0  0  0  0  0  0  0  0  0  0
   -5.1214   25.8520  -31.6592 H   0  0  0  0  0  0  0  0  0  0  0  0
   -6.0687   24.3410  -31.7714 H   0  0  0  0  0  0  0  0  0  0  0  0
   -5.4489   24.9543  -28.9709 H   0  0  0  0  0  0  0  0  0  0  0  0
   -6.2524   26.3558  -29.7563 H   0  0  0  0  0  0  0  0  0  0  0  0
   -7.0511   24.7468  -29.7563 H   0  0  0  0  0  0  0  0  0  0  0  0
   -3.7546   22.3039  -30.1325 H   0  0  0  0  0  0  0  0  0  0  0  0
   -5.3576   22.5011  -31.0345 H   0  0  0  0  0  0  0  0  0  0  0  0
   -3.0927   22.9773  -32.6971 H   0  0  0  0  0  0  0  0  0  0  0  0
   -3.1038   21.3184  -31.9236 H   0  0  0  0  0  0  0  0  0  0  0  0
   -4.6060   22.0720  -34.1780 H   0  0  0  0  0  0  0  0  0  0  0  0
   -6.4305   23.3894  -32.5777 H   0  0  0  0  0  0  0  0  0  0  0  0
   -8.6176   24.2682  -31.8564 H   0  0  0  0  0  0  0  0  0  0  0  0
  -10.4629   22.6700  -31.3251 H   0  0  0  0  0  0  0  0  0  0  0  0
  -10.0596   20.2290  -31.5386 H   0  0  0  0  0  0  0  0  0  0  0  0
   -9.0868   18.1634  -30.8635 H   0  0  0  0  0  0  0  0  0  0  0  0
   -9.9186   18.6462  -32.3807 H   0  0  0  0  0  0  0  0  0  0  0  0
   -8.7903   17.2485  -32.3807 H   0  0  0  0  0  0  0  0  0  0  0  0
   -6.9120   16.4750  -32.7500 H   0  0  0  0  0  0  0  0  0  0  0  0
   -4.7404   14.5475  -32.6147 H   0  0  0  0  0  0  0  0  0  0  0  0
   -5.6173   14.7492  -34.1693 H   0  0  0  0  0  0  0  0  0  0  0  0
   -3.8944   14.2409  -34.1693 H   0  0  0  0  0  0  0  0  0  0  0  0
   -1.6368   15.0098  -33.6745 H   0  0  0  0  0  0  0  0  0  0  0  0
   -2.6013   14.7470  -35.1669 H   0  0  0  0  0  0  0  0  0  0  0  0
   -1.2516   15.9322  -35.1669 H   0  0  0  0  0  0  0  0  0  0  0  0
   -1.5040   18.0109  -34.5940 H   0  0  0  0  0  0  0  0  0  0  0  0
   -2.9807   19.8691  -33.9190 H   0  0  0  0  0  0  0  0  0  0  0  0
  1  2  1  0
  2  3  1  0
  3  4  1  0
  4  5  1  0
  3  6  1  0
  6  7  1  0
  7  8  1  0
  8  9  1  0
  9 10  2  0
 10 11  1  0
 11 12  2  0
 12 13  1  0
 13 14  2  0
 14 15  1  0
 15 16  2  0
 16 17  1  0
 16 18  1  0
 18 19  1  0
 19 20  1  0
 20 21  2  0
 21 22  1  0
 21 23  1  0
 23 24  1  0
 23 25  2  0
 25 26  1  0
 26 27  2  0
 27 28  1  0
 28  9  1  0
 15 10  1  0
 28 18  2  0
 27 20  1  0
  1 29  1  0
  1 30  1  0
  1 31  1  0
  2 32  1  0
  2 33  1  0
  4 34  1  0
  4 35  1  0
  5 36  1  0
  5 37  1  0
  5 38  1  0
  6 39  1  0
  6 40  1  0
  7 41  1  0
  7 42  1  0
  8 43  1  0
 11 44  1  0
 12 45  1  0
 13 46  1  0
 14 47  1  0
 17 48  1  0
 17 49  1  0
 17 50  1  0
 19 51  1  0
 22 52  1  0
 22 53  1  0
 22 54  1  0
 24 55  1  0
 24 56  1  0
 24 57  1  0
 25 58  1  0
 26 59  1  0
M  CHG  2  16   1  23   1
M  END
>  <smiles>  (11) 
CCN(CC)CCNc1c2ccccc2[n+](C)c2[nH]c3c(C)[n+](C)ccc3c12

>  <score_type>  (11) 
oracle

>  <origin>  (11) 
adg

>  <m_score__min__energy>  (11) 
-8.8300000000000001

>  <m_primary>  (11) 
energy

$$$$
12:0
     RDKit          3D

 50 53  0  0  0  0  0  0  0  0999 V2000
   -6.5130   24.5690  -29.6960 C   0  0  0  0  0  0  0  0  0  0  0  0
   -5.7000   25.5910  -30.4330 C   0  0  0  0  0  0  0  0  0  0  0  0
   -4.6230   24.9730  -31.2060 N   0  0  0  0  0  0  0  0  0  0  0  0
   -3.9980   24.0060  -30.3450 C   0  0  0  0  0  0  0  0  0  0  0  0
   -3.7990   22.6660  -31.0260 C   0  0  0  0  0  0  0  0  0  0  0  0
   -4.7270   22.5900  -32.1160 N   0  0  0  0  0  0  0  0  0  0  0  0
   -5.3910   21.3830  -32.3760 C   0  0  0  0  0  0  0  0  0  0  0  0
   -6.7750   21.3590  -32.1910 C   0  0  0  0  0  0  0  0  0  0  0  0
   -7.4420   22.4840  -31.7690 C   0  0  0  0  0  0  0  0  0  0  0  0
   -8.8080   22.5310  -31.5650 C   0  0  0  0  0  0  0  0  0  0  0  0
   -9.5250   21.3760  -31.8040 C   0  0  0  0  0  0  0  0  0  0  0  0
   -8.8700   20.2250  -32.2300 C   0  0  0  0  0  0  0  0  0  0  0  0
   -7.4880   20.2120  -32.4260 C   0  0  0  0  0  0  0  0  0  0  0  0
   -6.8670   19.0910  -32.8400 N   0  0  0  0  0  0  0  0  0  0  0  0
   -7.6260   17.8990  -33.0820 C   0  0  0  0  0  0  0  0  0  0  0  0
   -5.5200   19.0860  -33.0280 C   0  0  0  0  0  0  0  0  0  0  0  0
   -4.6750   18.1230  -33.4270 N   0  0  0  0  0  0  0  0  0  0  0  0
   -3.4140   18.6270  -33.4550 C   0  0  0  0  0  0  0  0  0  0  0  0
   -2.2010   18.0250  -33.7990 C   0  0  0  0  0  0  0  0  0  0  0  0
   -1.0650   18.7900  -33.7340 C   0  0  0  0  0  0  0  0  0  0  0  0
   -1.1120   20.1100  -33.3420 C   0  0  0  0  0  0  0  0  0  0  0  0
    0.1790   20.8480  -33.3060 C   0  0  0  0  0  0  0  0  0  0  0  0
    0.2490   21.6840  -34.4000 F   0  0  0  0  0  0  0  0  0  0  0  0
    0.3050   21.5710  -32.1330 F   0  0  0  0  0  0  0  0  0  0  0  0
    1.2080   19.9230  -33.3330 F   0  0  0  0  0  0  0  0  0  0  0  0
   -2.3180   20.7220  -32.9960 C   0  0  0  0  0  0  0  0  0  0  0  0
   -3.4490   19.9640  -33.0600 C   0  0  0  0  0  0  0  0  0  0  0  0
   -4.7710   20.2220  -32.8010 C   0  0  0  0  0  0  0  0  0  0  0  0
   -6.3945   24.7180  -28.6126 H   0  0  0  0  0  0  0  0  0  0  0  0
   -7.5733   24.6788  -29.9674 H   0  0  0  0  0  0  0  0  0  0  0  0
   -6.1676   23.5605  -29.9674 H   0  0  0  0  0  0  0  0  0  0  0  0
   -6.3591   26.1433  -31.1190 H   0  0  0  0  0  0  0  0  0  0  0  0
   -5.2459   26.2659  -29.6925 H   0  0  0  0  0  0  0  0  0  0  0  0
   -3.9820   25.6650  -31.6040 H   0  0  0  0  0  0  0  0  0  0  0  0
   -3.0165   24.3929  -30.0337 H   0  0  0  0  0  0  0  0  0  0  0  0
   -4.6619   23.8475  -29.4824 H   0  0  0  0  0  0  0  0  0  0  0  0
   -2.7691   22.5871  -31.4044 H   0  0  0  0  0  0  0  0  0  0  0  0
   -3.9699   21.8434  -30.3160 H   0  0  0  0  0  0  0  0  0  0  0  0
   -4.9490   23.4060  -32.7550 H   0  0  0  0  0  0  0  0  0  0  0  0
   -6.8567   23.3967  -31.5835 H   0  0  0  0  0  0  0  0  0  0  0  0
   -9.3042   23.4522  -31.2257 H   0  0  0  0  0  0  0  0  0  0  0  0
  -10.6152   21.3657  -31.6575 H   0  0  0  0  0  0  0  0  0  0  0  0
   -9.4510   19.3096  -32.4155 H   0  0  0  0  0  0  0  0  0  0  0  0
   -7.9141   17.4465  -32.1217 H   0  0  0  0  0  0  0  0  0  0  0  0
   -8.5307   18.1504  -33.6550 H   0  0  0  0  0  0  0  0  0  0  0  0
   -7.0155   17.1856  -33.6550 H   0  0  0  0  0  0  0  0  0  0  0  0
   -4.9470   17.1410  -33.6750 H   0  0  0  0  0  0  0  0  0  0  0  0
   -2.1587   16.9713  -34.1119 H   0  0  0  0  0  0  0  0  0  0  0  0
   -0.0968   18.3409  -34.0001 H   0  0  0  0  0  0  0  0  0  0  0  0
   -2.3542   21.7761  -32.6835 H   0  0  0  0  0  0  0  0  0  0  0  0
  1  2  1  0
  2  3  1  0
  3  4  1  0
  4  5  1  0
  5  6  1  0
  6  7  1  0
  7  8  2  0
  8  9  1  0
  9 10  2  0
 10 11  1  0
 11 12  2  0
 12 13  1  0
 13 14  2  0
 14 15  1  0
 14 16  1  0
 16 17  1  0
 17 18  1  0
 18 19  2  0
 19 20  1  0
 20 21  2  0
 21 22  1  0
 22 23  1  0
 22 24  1  0
 22 25  1  0
 21 26  1  0
 26 27  2  0
 27 28  1  0
 28  7  1  0
 13  8  1  0
 28 16  2  0
 27 18  1  0
  1 29  1  0
  1 30  1  0
  1 31  1  0
  2 32  1  0
  2 33  1  0
  3 34  1  0
  4 35  1  0
  4 36  1  0
  5 37  1  0
  5 38  1  0
  6 39  1  0
  9 40  1  0
 10 41  1  0
 11 42  1  0
 12 43  1  0
 15 44  1  0
 15 45  1  0
 15 46  1  0
 17 47  1  0
 19 48  1  0
 20 49  1  0
 26 50  1  0
M  CHG  1  14   1
M  END
>  <smiles>  (12) 
CCNCCNc1c2ccccc2[n+](C)c2[nH]c3ccc(C(F)(F)F)cc3c12

>  <score_type>  (12) 
oracle

>  <origin>  (12) 
adg

>  <m_score__min__energy>  (12) 
-9.0800000000000001

>  <m_primary>  (12) 
energy

$$$$
13:0
     RDKit          3D

 61 63  0  0  0  0  0  0  0  0999 V2000
    0.3760   19.4090  -31.5050 C   0  0  0  0  0  0  0  0  0  0  0  0
    0.6300   20.3910  -32.6190 C   0  0  0  0  0  0  0  0  0  0  0  0
   -0.4850   21.3130  -32.7870 N   0  0  0  0  0  0  0  0  0  0  0  0
   -1.3170   21.1550  -31.6210 C   0  0  0  0  0  0  0  0  0  0  0  0
   -2.6470   21.8910  -31.7320 C   0  0  0  0  0  0  0  0  0  0  0  0
   -3.2510   21.5180  -33.0180 N   0  0  0  0  0  0  0  0  0  0  0  0
   -4.4910   20.8510  -33.0110 C   0  0  0  0  0  0  0  0  0  0  0  0
   -5.5820   21.6570  -32.6330 C   0  0  0  0  0  0  0  0  0  0  0  0
   -5.3700   22.9990  -32.3310 C   0  0  0  0  0  0  0  0  0  0  0  0
   -6.3780   23.8560  -31.9560 C   0  0  0  0  0  0  0  0  0  0  0  0
   -7.6500   23.3490  -31.8810 C   0  0  0  0  0  0  0  0  0  0  0  0
   -7.8790   22.0090  -32.1800 C   0  0  0  0  0  0  0  0  0  0  0  0
   -6.8570   21.1560  -32.5550 C   0  0  0  0  0  0  0  0  0  0  0  0
   -7.0970   19.8400  -32.8470 N   0  0  0  0  0  0  0  0  0  0  0  0
   -8.4680   19.4300  -32.7200 C   0  0  0  0  0  0  0  0  0  0  0  0
   -6.0710   19.0700  -33.2060 C   0  0  0  0  0  0  0  0  0  0  0  0
   -6.3320   17.7500  -33.4950 C   0  0  0  0  0  0  0  0  0  0  0  0
   -5.3230   16.9250  -33.8650 C   0  0  0  0  0  0  0  0  0  0  0  0
   -4.0400   17.4140  -33.9510 C   0  0  0  0  0  0  0  0  0  0  0  0
   -3.7090   18.7390  -33.6730 C   0  0  0  0  0  0  0  0  0  0  0  0
   -2.3760   19.1270  -33.9020 N   0  0  0  0  0  0  0  0  0  0  0  0
   -1.3620   18.1140  -34.2070 C   0  0  0  0  0  0  0  0  0  0  0  0
   -0.4050   18.5000  -35.2740 C   0  0  0  0  0  0  0  0  0  0  0  0
   -0.4920   19.9620  -35.4120 N   0  0  0  0  0  0  0  0  0  0  0  0
    0.4820   20.4920  -36.3390 C   0  0  0  0  0  0  0  0  0  0  0  0
    0.6750   21.9880  -36.1660 C   0  0  0  0  0  0  0  0  0  0  0  0
   -0.0390   22.4950  -34.9840 N   0  0  0  0  0  0  0  0  0  0  0  0
   -4.7500   19.5500  -33.2980 C   0  0  0  0  0  0  0  0  0  0  0  0
    0.5062   19.9124  -30.5357 H   0  0  0  0  0  0  0  0  0  0  0  0
   -0.6514   19.0237  -31.5830 H   0  0  0  0  0  0  0  0  0  0  0  0
    1.0877   18.5739  -31.5830 H   0  0  0  0  0  0  0  0  0  0  0  0
    1.5376   20.9673  -32.3865 H   0  0  0  0  0  0  0  0  0  0  0  0
    0.7520   19.8253  -33.5545 H   0  0  0  0  0  0  0  0  0  0  0  0
   -1.0520   21.0680  -33.6310 H   0  0  0  0  0  0  0  0  0  0  0  0
   -1.5206   20.0834  -31.4787 H   0  0  0  0  0  0  0  0  0  0  0  0
   -0.7728   21.5874  -30.7684 H   0  0  0  0  0  0  0  0  0  0  0  0
   -3.3101   21.5954  -30.9056 H   0  0  0  0  0  0  0  0  0  0  0  0
   -2.4940   22.9789  -31.6764 H   0  0  0  0  0  0  0  0  0  0  0  0
   -2.7820   21.7850  -33.9390 H   0  0  0  0  0  0  0  0  0  0  0  0
   -4.3453   23.3937  -32.3955 H   0  0  0  0  0  0  0  0  0  0  0  0
   -6.1712   24.9113  -31.7243 H   0  0  0  0  0  0  0  0  0  0  0  0
   -8.4866   23.9992  -31.5855 H   0  0  0  0  0  0  0  0  0  0  0  0
   -8.9045   21.6163  -32.1161 H   0  0  0  0  0  0  0  0  0  0  0  0
   -8.7301   19.3516  -31.6546 H   0  0  0  0  0  0  0  0  0  0  0  0
   -9.1192   20.1727  -33.2041 H   0  0  0  0  0  0  0  0  0  0  0  0
   -8.6045   18.4517  -33.2041 H   0  0  0  0  0  0  0  0  0  0  0  0
   -7.3600   17.3647  -33.4256 H   0  0  0  0  0  0  0  0  0  0  0  0
   -5.5287   15.8693  -34.0955 H   0  0  0  0  0  0  0  0  0  0  0  0
   -3.2367   16.7262  -34.2537 H   0  0  0  0  0  0  0  0  0  0  0  0
   -1.9770   20.0790  -33.9190 H   0  0  0  0  0  0  0  0  0  0  0  0
   -0.7900   17.9137  -33.2890 H   0  0  0  0  0  0  0  0  0  0  0  0
   -1.9041   17.2319  -34.5784 H   0  0  0  0  0  0  0  0  0  0  0  0
    0.6166   18.2061  -34.9913 H   0  0  0  0  0  0  0  0  0  0  0  0
   -0.6468   17.9982  -36.2225 H   0  0  0  0  0  0  0  0  0  0  0  0
   -0.3320   20.4420  -34.4910 H   0  0  0  0  0  0  0  0  0  0  0  0
    1.4448   19.9876  -36.1698 H   0  0  0  0  0  0  0  0  0  0  0  0
    0.1132   20.3123  -37.3597 H   0  0  0  0  0  0  0  0  0  0  0  0
    1.7486   22.1981  -36.0514 H   0  0  0  0  0  0  0  0  0  0  0  0
    0.2678   22.4916  -37.0551 H   0  0  0  0  0  0  0  0  0  0  0  0
   -0.9170   21.9080  -34.9230 H   0  0  0  0  0  0  0  0  0  0  0  0
    0.4870   22.2560  -34.1250 H   0  0  0  0  0  0  0  0  0  0  0  0
  1  2  1  0
  2  3  1  0
  3  4  1  0
  4  5  1  0
  5  6  1  0
  6  7  1  0
  7  8  2  0
  8  9  1  0
  9 10  2  0
 10 11  1  0
 11 12  2  0
 12 13  1  0
 13 14  2  0
 14 15  1  0
 14 16  1  0
 16 17  2  0
 17 18  1  0
 18 19  2  0
 19 20  1  0
 20 21  1  0
 21 22  1  0
 22 23  1  0
 23 24  1  0
 24 25  1  0
 25 26  1  0
 26 27  1  0
 20 28  2  0
 28  7  1  0
 13  8  1  0
 28 16  1  0
  1 29  1  0
  1 30  1  0
  1 31  1  0
  2 32  1  0
  2 33  1  0
  3 34  1  0
  4 35  1  0
  4 36  1  0
  5 37  1  0
  5 38  1  0
  6 39  1  0
  9 40  1  0
 10 41  1  0
 11 42  1  0
 12 43  1  0
 15 44  1  0
 15 45  1  0
 15 46  1  0
 17 47  1  0
 18 48  1  0
 19 49  1  0
 21 50  1  0
 22 51  1  0
 22 52  1  0
 23 53  1  0
 23 54  1  0
 24 55  1  0
 25 56  1  0
 25 57  1  0
 26 58  1  0
 26 59  1  0
 27 60  1  0
 27 61  1  0
M  CHG  1  14   1
M  END
>  <smiles>  (13) 
CCNCCNc1c2ccccc2[n+](C)c2cccc(NCCNCCN)c12

>  <score_type>  (13) 
oracle

>  <origin>  (13) 
adg

>  <m_score__min__energy>  (13) 
-8.2699999999999996

>  <m_primary>  (13) 
energy

$$$$
14:0
     RDKit          3D

 56 59  0  0  0  0  0  0  0  0999 V2000
   -2.7320   20.0770  -27.5080 C   0  0  0  0  0  0  0  0  0  0  0  0
   -2.0480   20.4250  -28.8160 C   0  0  0  0  0  0  0  0  0  0  0  0
   -1.7390   21.8290  -28.8360 N   0  0  0  0  0  0  0  0  0  0  0  0
   -1.7100   22.6160  -27.6010 C   0  0  0  0  0  0  0  0  0  0  0  0
   -2.8650   23.5670  -27.5150 C   0  0  0  0  0  0  0  0  0  0  0  0
   -1.4500   22.5140  -30.0320 C   0  0  0  0  0  0  0  0  0  0  0  0
   -1.1740   23.7500  -30.0870 O   0  0  0  0  0  0  0  0  0  0  0  0
   -1.4660   21.7550  -31.3320 C   0  0  0  0  0  0  0  0  0  0  0  0
   -2.8170   21.3720  -31.6680 N   0  0  0  0  0  0  0  0  0  0  0  0
   -3.1540   20.2190  -32.2050 N   0  0  0  0  0  0  0  0  0  0  0  0
   -4.4910   20.1510  -32.4070 C   0  0  0  0  0  0  0  0  0  0  0  0
   -5.1240   18.9900  -32.9660 C   0  0  0  0  0  0  0  0  0  0  0  0
   -5.8690   18.1910  -32.0860 C   0  0  0  0  0  0  0  0  0  0  0  0
   -6.4720   17.0270  -32.5140 C   0  0  0  0  0  0  0  0  0  0  0  0
   -6.3540   16.6110  -33.8420 C   0  0  0  0  0  0  0  0  0  0  0  0
   -5.6310   17.3800  -34.7110 C   0  0  0  0  0  0  0  0  0  0  0  0
   -5.0400   18.5380  -34.2550 C   0  0  0  0  0  0  0  0  0  0  0  0
   -5.0240   21.3230  -31.9710 C   0  0  0  0  0  0  0  0  0  0  0  0
   -6.3100   21.8530  -31.8920 C   0  0  0  0  0  0  0  0  0  0  0  0
   -6.4800   23.1140  -31.3620 C   0  0  0  0  0  0  0  0  0  0  0  0
   -5.3740   23.8390  -30.9140 C   0  0  0  0  0  0  0  0  0  0  0  0
   -5.5310   25.2130  -30.3330 C   0  0  0  0  0  0  0  0  0  0  0  0
   -4.1400   23.3110  -30.9970 N   0  0  0  0  0  0  0  0  0  0  0  0
   -3.9470   22.0740  -31.5130 C   0  0  0  0  0  0  0  0  0  0  0  0
   -7.7870   23.7960  -31.2110 C   0  0  0  0  0  0  0  0  0  0  0  0
   -8.8100   23.0810  -32.0470 C   0  0  0  0  0  0  0  0  0  0  0  0
   -8.7100   21.6030  -31.6770 C   0  0  0  0  0  0  0  0  0  0  0  0
   -7.4410   21.0210  -32.3520 C   0  0  0  0  0  0  0  0  0  0  0  0
   -2.1001   20.3985  -26.6669 H   0  0  0  0  0  0  0  0  0  0  0  0
   -3.7033   20.5905  -27.4542 H   0  0  0  0  0  0  0  0  0  0  0  0
   -2.8887   18.9896  -27.4542 H   0  0  0  0  0  0  0  0  0  0  0  0
   -1.1189   19.8436  -28.9101 H   0  0  0  0  0  0  0  0  0  0  0  0
   -2.7172   20.1846  -29.6553 H   0  0  0  0  0  0  0  0  0  0  0  0
   -1.7496   21.9303  -26.7418 H   0  0  0  0  0  0  0  0  0  0  0  0
   -0.7820   23.2066  -27.5958 H   0  0  0  0  0  0  0  0  0  0  0  0
   -3.1016   23.7618  -26.4586 H   0  0  0  0  0  0  0  0  0  0  0  0
   -2.5997   24.5120  -28.0116 H   0  0  0  0  0  0  0  0  0  0  0  0
   -3.7415   23.1252  -28.0116 H   0  0  0  0  0  0  0  0  0  0  0  0
   -1.0598   22.3932  -32.1306 H   0  0  0  0  0  0  0  0  0  0  0  0
   -0.8512   20.8489  -31.2267 H   0  0  0  0  0  0  0  0  0  0  0  0
   -5.9741   18.4986  -31.0351 H   0  0  0  0  0  0  0  0  0  0  0  0
   -7.0515   16.4203  -31.8026 H   0  0  0  0  0  0  0  0  0  0  0  0
   -6.8340   15.6817  -34.1825 H   0  0  0  0  0  0  0  0  0  0  0  0
   -5.5223   17.0774  -35.7630 H   0  0  0  0  0  0  0  0  0  0  0  0
   -4.4630   19.1383  -34.9738 H   0  0  0  0  0  0  0  0  0  0  0  0
   -5.5238   25.1498  -29.2348 H   0  0  0  0  0  0  0  0  0  0  0  0
   -4.6998   25.8504  -30.6690 H   0  0  0  0  0  0  0  0  0  0  0  0
   -6.4845   25.6464  -30.6690 H   0  0  0  0  0  0  0  0  0  0  0  0
   -8.0940   23.7757  -30.1549 H   0  0  0  0  0  0  0  0  0  0  0  0
   -7.7014   24.8417  -31.5415 H   0  0  0  0  0  0  0  0  0  0  0  0
   -9.8175   23.4620  -31.8240 H   0  0  0  0  0  0  0  0  0  0  0  0
   -8.6283   23.2372  -33.1206 H   0  0  0  0  0  0  0  0  0  0  0  0
   -8.6332   21.4966  -30.5849 H   0  0  0  0  0  0  0  0  0  0  0  0
   -9.6051   21.0634  -32.0200 H   0  0  0  0  0  0  0  0  0  0  0  0
   -7.2931   19.9745  -32.0472 H   0  0  0  0  0  0  0  0  0  0  0  0
   -7.5284   21.0349  -33.4484 H   0  0  0  0  0  0  0  0  0  0  0  0
  1  2  1  0
  2  3  1  0
  3  4  1  0
  4  5  1  0
  3  6  1  0
  6  7  2  0
  6  8  1  0
  8  9  1  0
  9 10  1  0
 10 11  2  0
 11 12  1  0
 12 13  2  0
 13 14  1  0
 14 15  2  0
 15 16  1  0
 16 17  2  0
 11 18  1  0
 18 19  2  0
 19 20  1  0
 20 21  2  0
 21 22  1  0
 21 23  1  0
 23 24  2  0
 20 25  1  0
 25 26  1  0
 26 27  1  0
 27 28  1  0
 24  9  1  0
 17 12  1  0
 24 18  1  0
 28 19  1  0
  1 29  1  0
  1 30  1  0
  1 31  1  0
  2 32  1  0
  2 33  1  0
  4 34  1  0
  4 35  1  0
  5 36  1  0
  5 37  1  0
  5 38  1  0
  8 39  1  0
  8 40  1  0
 13 41  1  0
 14 42  1  0
 15 43  1  0
 16 44  1  0
 17 45  1  0
 22 46  1  0
 22 47  1  0
 22 48  1  0
 25 49  1  0
 25 50  1  0
 26 51  1  0
 26 52  1  0
 27 53  1  0
 27 54  1  0
 28 55  1  0
 28 56  1  0
M  END
>  <smiles>  (14) 
CCN(CC)C(=O)Cn1nc(-c2ccccc2)c2c3c(c(C)nc21)CCCC3

>  <score_type>  (14) 
oracle

>  <origin>  (14) 
adg

>  <m_score__min__energy>  (14) 
-9.5299999999999994

>  <m_primary>  (14) 
energy

$$$$
15:0
     RDKit          3D

 57 59  0  0  1  0  0  0  0  0999 V2000
   -0.8780   22.8670  -28.5980 C   0  0  0  0  0  0  0  0  0  0  0  0
   -0.8580   24.1750  -29.3380 C   0  0  0  0  0  0  0  0  0  0  0  0
   -1.8160   25.1510  -28.8420 N   0  0  0  0  0  0  0  0  0  0  0  0
   -1.1780   25.8820  -27.8010 C   0  0  0  0  0  0  0  0  0  0  0  0
   -1.7210   25.7580  -26.4310 C   0  0  0  0  0  0  0  0  0  0  0  0
   -3.0660   24.5390  -28.4580 C   0  0  0  0  0  0  0  0  0  0  0  0
   -3.9280   24.1340  -29.5830 C   0  0  0  0  0  0  0  0  0  0  0  0
   -4.0750   25.1240  -30.5370 O   0  0  0  0  0  0  0  0  0  0  0  0
   -5.3070   25.7390  -30.5140 C   0  0  0  0  0  0  0  0  0  0  0  0
   -6.4080   24.7170  -30.1300 C   0  0  0  0  0  0  0  0  0  0  0  0
   -6.8220   24.1590  -31.3950 N   0  0  0  0  0  0  0  0  0  0  0  0
   -6.3690   23.0270  -31.7830 C   0  0  0  0  0  0  0  0  0  0  0  0
   -5.0770   22.7550  -32.0210 N   0  0  0  0  0  0  0  0  0  0  0  0
   -4.6480   21.5510  -32.4380 C   0  0  0  0  0  0  0  0  0  0  0  0
   -3.2550   21.3040  -32.6730 N   0  0  0  0  0  0  0  0  0  0  0  0
   -2.7430   20.5910  -33.8330 C   0  0  0  0  0  0  0  0  0  0  0  0
   -1.3200   20.2380  -33.4310 C   0  0  0  0  0  0  0  0  0  0  0  0
   -0.9320   21.4230  -32.5770 C   0  0  0  0  0  0  0  0  0  0  0  0
   -2.1830   21.7140  -31.7970 C   0  0  0  0  0  0  0  0  0  0  0  0
   -5.5640   20.5560  -32.6310 N   0  0  0  0  0  0  0  0  0  0  0  0
   -6.8700   20.7490  -32.4150 C   0  0  0  0  0  0  0  0  0  0  0  0
   -7.7410   19.7000  -32.6270 C   0  0  0  0  0  0  0  0  0  0  0  0
   -9.0870   19.8980  -32.4020 C   0  0  0  0  0  0  0  0  0  0  0  0
   -9.5210   21.1470  -31.9710 C   0  0  0  0  0  0  0  0  0  0  0  0
   -8.6220   22.1750  -31.7690 C   0  0  0  0  0  0  0  0  0  0  0  0
   -7.2680   21.9960  -31.9890 C   0  0  0  0  0  0  0  0  0  0  0  0
   -0.8751   23.0585  -27.5148 H   0  0  0  0  0  0  0  0  0  0  0  0
   -1.7848   22.3063  -28.8688 H   0  0  0  0  0  0  0  0  0  0  0  0
    0.0113   22.2789  -28.8688 H   0  0  0  0  0  0  0  0  0  0  0  0
    0.1505   24.6057  -29.2517 H   0  0  0  0  0  0  0  0  0  0  0  0
   -1.1377   23.9556  -30.3790 H   0  0  0  0  0  0  0  0  0  0  0  0
   -0.1284   25.5547  -27.7675 H   0  0  0  0  0  0  0  0  0  0  0  0
   -1.3415   26.9369  -28.0665 H   0  0  0  0  0  0  0  0  0  0  0  0
   -0.9190   25.9411  -25.7007 H   0  0  0  0  0  0  0  0  0  0  0  0
   -2.5239   26.4959  -26.2866 H   0  0  0  0  0  0  0  0  0  0  0  0
   -2.1240   24.7447  -26.2866 H   0  0  0  0  0  0  0  0  0  0  0  0
   -2.8392   23.6433  -27.8611 H   0  0  0  0  0  0  0  0  0  0  0  0
   -3.6257   25.3033  -27.8989 H   0  0  0  0  0  0  0  0  0  0  0  0
   -3.4850   23.2487  -30.0625 H   0  0  0  0  0  0  0  0  0  0  0  0
   -4.9264   23.9234  -29.1721 H   0  0  0  0  0  0  0  0  0  0  0  0
   -5.2930   26.5532  -29.7745 H   0  0  0  0  0  0  0  0  0  0  0  0
   -5.5252   26.1434  -31.5134 H   0  0  0  0  0  0  0  0  0  0  0  0
   -6.0029   23.9347  -29.4713 H   0  0  0  0  0  0  0  0  0  0  0  0
   -7.2401   25.1782  -29.5778 H   0  0  0  0  0  0  0  0  0  0  0  0
   -4.3730   23.5030  -31.8720 H   0  0  0  0  0  0  0  0  0  0  0  0
   -3.3330   19.6836  -34.0291 H   0  0  0  0  0  0  0  0  0  0  0  0
   -2.7929   21.1844  -34.7578 H   0  0  0  0  0  0  0  0  0  0  0  0
   -1.2881   19.3020  -32.8541 H   0  0  0  0  0  0  0  0  0  0  0  0
   -0.6474   20.0670  -34.2844 H   0  0  0  0  0  0  0  0  0  0  0  0
   -0.0993   21.1681  -31.9049 H   0  0  0  0  0  0  0  0  0  0  0  0
   -0.5844   22.2831  -33.1681 H   0  0  0  0  0  0  0  0  0  0  0  0
   -2.2019   21.1358  -30.8614 H   0  0  0  0  0  0  0  0  0  0  0  0
   -2.2598   22.7722  -31.5067 H   0  0  0  0  0  0  0  0  0  0  0  0
   -7.3683   18.7233  -32.9693 H   0  0  0  0  0  0  0  0  0  0  0  0
   -9.8061   19.0809  -32.5609 H   0  0  0  0  0  0  0  0  0  0  0  0
  -10.5923   21.3176  -31.7891 H   0  0  0  0  0  0  0  0  0  0  0  0
   -8.9889   23.1540  -31.4270 H   0  0  0  0  0  0  0  0  0  0  0  0
  1  2  1  0
  2  3  1  0
  3  4  1  0
  4  5  1  0
  3  6  1  0
  6  7  1  0
  7  8  1  0
  8  9  1  0
  9 10  1  0
 10 11  1  0
 11 12  2  0
 12 13  1  0
 13 14  1  0
 14 15  1  0
 15 16  1  0
 16 17  1  0
 17 18  1  0
 18 19  1  0
 14 20  2  0
 20 21  1  0
 21 22  2  0
 22 23  1  0
 23 24  2  0
 24 25  1  0
 25 26  2  0
 26 12  1  0
 19 15  1  0
 26 21  1  0
  1 27  1  0
  1 28  1  0
  1 29  1  0
  2 30  1  0
  2 31  1  0
  4 32  1  0
  4 33  1  0
  5 34  1  0
  5 35  1  0
  5 36  1  0
  6 37  1  0
  6 38  1  0
  7 39  1  0
  7 40  1  0
  9 41  1  0
  9 42  1  0
 10 43  1  0
 10 44  1  0
 13 45  1  0
 16 46  1  0
 16 47  1  0
 17 48  1  0
 17 49  1  0
 18 50  1  0
 18 51  1  0
 19 52  1  0
 19 53  1  0
 22 54  1  0
 23 55  1  0
 24 56  1  0
 25 57  1  0
M  END
>  <smiles>  (15) 
CCN(CC)CCOCCN=c1[nH]c(N2CCCC2)nc2ccccc12

>  <score_type>  (15) 
oracle

>  <origin>  (15) 
adg

>  <m_score__min__energy>  (15) 
-8.2200000000000006

>  <m_primary>  (15) 
energy

$$$$
16:0
     RDKit          3D

 71 75  0  0  0  0  0  0  0  0999 V2000
   -8.9870   23.4000  -32.3350 C   0  0  0  0  0  0  0  0  0  0  0  0
   -9.5120   22.0550  -31.8320 C   0  0  0  0  0  0  0  0  0  0  0  0
   -8.4800   21.1010  -31.8980 N   0  0  0  0  0  0  0  0  0  0  0  0
   -7.4350   21.2930  -30.9800 C   0  0  0  0  0  0  0  0  0  0  0  0
   -7.6410   22.3030  -29.9030 C   0  0  0  0  0  0  0  0  0  0  0  0
   -8.8700   19.7300  -32.1310 C   0  0  0  0  0  0  0  0  0  0  0  0
   -7.6450   18.8390  -32.1310 C   0  0  0  0  0  0  0  0  0  0  0  0
   -6.8840   18.7770  -33.3300 N   0  0  0  0  0  0  0  0  0  0  0  0
   -5.6570   18.1380  -33.5430 C   0  0  0  0  0  0  0  0  0  0  0  0
   -5.7490   16.7560  -33.8120 C   0  0  0  0  0  0  0  0  0  0  0  0
   -6.9820   16.1640  -33.9880 C   0  0  0  0  0  0  0  0  0  0  0  0
   -7.1730   14.8330  -34.2760 C   0  0  0  0  0  0  0  0  0  0  0  0
   -6.0590   14.0450  -34.3970 C   0  0  0  0  0  0  0  0  0  0  0  0
   -4.7990   14.6180  -34.2280 C   0  0  0  0  0  0  0  0  0  0  0  0
   -4.6360   15.9630  -33.9380 C   0  0  0  0  0  0  0  0  0  0  0  0
   -3.4230   16.5020  -33.8060 N   0  0  0  0  0  0  0  0  0  0  0  0
   -2.2060   15.7250  -33.9170 C   0  0  0  0  0  0  0  0  0  0  0  0
   -3.2960   17.8270  -33.5520 C   0  0  0  0  0  0  0  0  0  0  0  0
   -2.0160   18.3200  -33.4420 C   0  0  0  0  0  0  0  0  0  0  0  0
   -1.8550   19.6610  -33.2000 C   0  0  0  0  0  0  0  0  0  0  0  0
   -2.9730   20.4940  -33.0710 C   0  0  0  0  0  0  0  0  0  0  0  0
   -2.6400   21.9150  -32.7770 C   0  0  0  0  0  0  0  0  0  0  0  0
   -2.4480   22.0590  -31.3200 C   0  0  0  0  0  0  0  0  0  0  0  0
   -3.2300   22.8540  -30.5590 C   0  0  0  0  0  0  0  0  0  0  0  0
   -4.3110   23.6740  -30.8490 C   0  0  0  0  0  0  0  0  0  0  0  0
   -4.9650   24.4150  -29.9060 C   0  0  0  0  0  0  0  0  0  0  0  0
   -6.1090   25.2790  -30.2190 C   0  0  0  0  0  0  0  0  0  0  0  0
   -4.5460   24.3630  -28.5840 C   0  0  0  0  0  0  0  0  0  0  0  0
   -3.4670   23.5460  -28.2810 C   0  0  0  0  0  0  0  0  0  0  0  0
   -2.8190   22.8050  -29.2550 C   0  0  0  0  0  0  0  0  0  0  0  0
   -1.8090   22.0210  -29.1010 N   0  0  0  0  0  0  0  0  0  0  0  0
   -1.5010   21.4920  -30.3980 C   0  0  0  0  0  0  0  0  0  0  0  0
   -0.5830   20.7040  -30.6090 O   0  0  0  0  0  0  0  0  0  0  0  0
   -4.2250   20.0100  -33.1790 N   0  0  0  0  0  0  0  0  0  0  0  0
   -5.3210   20.9340  -33.0900 C   0  0  0  0  0  0  0  0  0  0  0  0
   -4.4030   18.6710  -33.4170 C   0  0  0  0  0  0  0  0  0  0  0  0
   -8.7370   24.0404  -31.4763 H   0  0  0  0  0  0  0  0  0  0  0  0
   -8.0865   23.2371  -32.9453 H   0  0  0  0  0  0  0  0  0  0  0  0
   -9.7598   23.8902  -32.9453 H   0  0  0  0  0  0  0  0  0  0  0  0
   -9.8510   22.1587  -30.7907 H   0  0  0  0  0  0  0  0  0  0  0  0
  -10.3558   21.7302  -32.4585 H   0  0  0  0  0  0  0  0  0  0  0  0
   -7.2432   20.3259  -30.4923 H   0  0  0  0  0  0  0  0  0  0  0  0
   -6.6038   21.6903  -31.5811 H   0  0  0  0  0  0  0  0  0  0  0  0
   -7.5419   21.8173  -28.9210 H   0  0  0  0  0  0  0  0  0  0  0  0
   -6.8865   23.0980  -29.9966 H   0  0  0  0  0  0  0  0  0  0  0  0
   -8.6466   22.7390  -29.9966 H   0  0  0  0  0  0  0  0  0  0  0  0
   -9.5569   19.4058  -31.3353 H   0  0  0  0  0  0  0  0  0  0  0  0
   -9.3714   19.6568  -33.1074 H   0  0  0  0  0  0  0  0  0  0  0  0
   -6.9767   19.1961  -31.3336 H   0  0  0  0  0  0  0  0  0  0  0  0
   -8.0366   17.8205  -31.9921 H   0  0  0  0  0  0  0  0  0  0  0  0
   -7.3230   19.2390  -34.1970 H   0  0  0  0  0  0  0  0  0  0  0  0
   -7.8741   16.8003  -33.8914 H   0  0  0  0  0  0  0  0  0  0  0  0
   -8.1829   14.4165  -34.4045 H   0  0  0  0  0  0  0  0  0  0  0  0
   -6.1572   12.9733  -34.6247 H   0  0  0  0  0  0  0  0  0  0  0  0
   -3.9068   13.9825  -34.3280 H   0  0  0  0  0  0  0  0  0  0  0  0
   -1.8309   15.4855  -32.9111 H   0  0  0  0  0  0  0  0  0  0  0  0
   -2.4147   14.7926  -34.4621 H   0  0  0  0  0  0  0  0  0  0  0  0
   -1.4480   16.3067  -34.4621 H   0  0  0  0  0  0  0  0  0  0  0  0
   -1.1448   17.6565  -33.5454 H   0  0  0  0  0  0  0  0  0  0  0  0
   -0.8436   20.0833  -33.1070 H   0  0  0  0  0  0  0  0  0  0  0  0
   -1.7155   22.1960  -33.3027 H   0  0  0  0  0  0  0  0  0  0  0  0
   -3.4548   22.5713  -33.1167 H   0  0  0  0  0  0  0  0  0  0  0  0
   -4.6590   23.7303  -31.8910 H   0  0  0  0  0  0  0  0  0  0  0  0
   -6.5714   25.6282  -29.2840 H   0  0  0  0  0  0  0  0  0  0  0  0
   -5.7653   26.1449  -30.8038 H   0  0  0  0  0  0  0  0  0  0  0  0
   -6.8479   24.7115  -30.8038 H   0  0  0  0  0  0  0  0  0  0  0  0
   -5.0523   24.9496  -27.8033 H   0  0  0  0  0  0  0  0  0  0  0  0
   -3.1169   23.4850  -27.2400 H   0  0  0  0  0  0  0  0  0  0  0  0
   -5.5517   21.1285  -32.0322 H   0  0  0  0  0  0  0  0  0  0  0  0
   -5.0465   21.8773  -33.5848 H   0  0  0  0  0  0  0  0  0  0  0  0
   -6.2043   20.5039  -33.5848 H   0  0  0  0  0  0  0  0  0  0  0  0
  1  2  1  0
  2  3  1  0
  3  4  1  0
  4  5  1  0
  3  6  1  0
  6  7  1  0
  7  8  1  0
  8  9  1  0
  9 10  2  0
 10 11  1  0
 11 12  2  0
 12 13  1  0
 13 14  2  0
 14 15  1  0
 15 16  2  0
 16 17  1  0
 16 18  1  0
 18 19  2  0
 19 20  1  0
 20 21  2  0
 21 22  1  0
 22 23  1  0
 23 24  2  0
 24 25  1  0
 25 26  2  0
 26 27  1  0
 26 28  1  0
 28 29  2  0
 29 30  1  0
 30 31  2  0
 31 32  1  0
 32 33  2  0
 21 34  1  0
 34 35  1  0
 34 36  2  0
 36  9  1  0
 15 10  1  0
 36 18  1  0
 32 23  1  0
 30 24  1  0
  1 37  1  0
  1 38  1  0
  1 39  1  0
  2 40  1  0
  2 41  1  0
  4 42  1  0
  4 43  1  0
  5 44  1  0
  5 45  1  0
  5 46  1  0
  6 47  1  0
  6 48  1  0
  7 49  1  0
  7 50  1  0
  8 51  1  0
 11 52  1  0
 12 53  1  0
 13 54  1  0
 14 55  1  0
 17 56  1  0
 17 57  1  0
 17 58  1  0
 19 59  1  0
 20 60  1  0
 22 61  1  0
 22 62  1  0
 25 63  1  0
 27 64  1  0
 27 65  1  0
 27 66  1  0
 28 67  1  0
 29 68  1  0
 35 69  1  0
 35 70  1  0
 35 71  1  0
M  CHG  2  16   1  34   1
M  END
>  <smiles>  (16) 
CCN(CC)CCNc1c2ccccc2[n+](C)c2ccc(CC3=c4cc(C)ccc4=NC3=O)[n+](C)c12

>  <score_type>  (16) 
oracle

>  <origin>  (16) 
adg

>  <m_score__min__energy>  (16) 
-9.0600000000000005

>  <m_primary>  (16) 
energy

$$$$
18:0
     RDKit          3D

 45 46  0  0  0  0  0  0  0  0999 V2000
   -2.0030   24.5990  -27.9980 C   0  0  0  0  0  0  0  0  0  0  0  0
   -3.4150   24.0790  -27.9890 C   0  0  0  0  0  0  0  0  0  0  0  0
   -4.2080   24.6090  -26.8110 C   0  0  0  0  0  0  0  0  0  0  0  0
   -3.4290   22.5860  -28.0160 C   0  0  0  0  0  0  0  0  0  0  0  0
   -4.1240   24.5630  -29.2260 C   0  0  0  0  0  0  0  0  0  0  0  0
   -3.5190   25.2320  -30.1130 O   0  0  0  0  0  0  0  0  0  0  0  0
   -5.4920   24.2290  -29.3340 N   0  0  0  0  0  0  0  0  0  0  0  0
   -6.2540   24.6490  -30.4850 C   0  0  0  0  0  0  0  0  0  0  0  0
   -5.7730   24.0690  -31.7820 C   0  0  0  0  0  0  0  0  0  0  0  0
   -4.6020   23.2270  -31.6120 N   0  0  0  0  0  0  0  0  0  0  0  0
   -4.5520   22.2590  -32.7100 C   0  0  0  0  0  0  0  0  0  0  0  0
   -4.4500   20.8960  -32.0620 C   0  0  0  0  0  0  0  0  0  0  0  0
   -5.6020   20.0730  -32.3550 N   0  0  0  0  0  0  0  0  0  0  0  0
   -5.5160   18.7780  -32.7710 C   0  0  0  0  0  0  0  0  0  0  0  0
   -6.7580   18.2880  -32.9570 N   0  0  0  0  0  0  0  0  0  0  0  0
   -7.6610   19.2640  -32.6620 C   0  0  0  0  0  0  0  0  0  0  0  0
   -9.0440   19.2990  -32.6820 C   0  0  0  0  0  0  0  0  0  0  0  0
   -9.7160   20.4710  -32.3200 C   0  0  0  0  0  0  0  0  0  0  0  0
   -8.9480   21.5640  -31.9500 C   0  0  0  0  0  0  0  0  0  0  0  0
   -9.6180   22.7050  -31.5970 F   0  0  0  0  0  0  0  0  0  0  0  0
   -7.5660   21.5300  -31.9290 C   0  0  0  0  0  0  0  0  0  0  0  0
   -6.9130   20.3680  -32.2890 C   0  0  0  0  0  0  0  0  0  0  0  0
   -1.6531   24.7279  -26.9631 H   0  0  0  0  0  0  0  0  0  0  0  0
   -1.3515   23.8818  -28.5187 H   0  0  0  0  0  0  0  0  0  0  0  0
   -1.9722   25.5675  -28.5187 H   0  0  0  0  0  0  0  0  0  0  0  0
   -3.7297   24.2893  -25.8734 H   0  0  0  0  0  0  0  0  0  0  0  0
   -4.2358   25.7079  -26.8523 H   0  0  0  0  0  0  0  0  0  0  0  0
   -5.2340   24.2144  -26.8523 H   0  0  0  0  0  0  0  0  0  0  0  0
   -3.4326   22.2007  -26.9857 H   0  0  0  0  0  0  0  0  0  0  0  0
   -4.3305   22.2372  -28.5411 H   0  0  0  0  0  0  0  0  0  0  0  0
   -2.5342   22.2204  -28.5411 H   0  0  0  0  0  0  0  0  0  0  0  0
   -5.9850   23.6750  -28.5960 H   0  0  0  0  0  0  0  0  0  0  0  0
   -7.3004   24.3437  -30.3369 H   0  0  0  0  0  0  0  0  0  0  0  0
   -6.1370   25.7400  -30.5623 H   0  0  0  0  0  0  0  0  0  0  0  0
   -6.5814   23.4654  -32.2203 H   0  0  0  0  0  0  0  0  0  0  0  0
   -5.4921   24.9051  -32.4393 H   0  0  0  0  0  0  0  0  0  0  0  0
   -3.7300   23.7690  -31.5370 H   0  0  0  0  0  0  0  0  0  0  0  0
   -5.4656   22.3249  -33.3191 H   0  0  0  0  0  0  0  0  0  0  0  0
   -3.6994   22.4518  -33.3777 H   0  0  0  0  0  0  0  0  0  0  0  0
   -3.5474   20.3908  -32.4363 H   0  0  0  0  0  0  0  0  0  0  0  0
   -4.4010   21.0390  -30.9724 H   0  0  0  0  0  0  0  0  0  0  0  0
   -4.5810   18.2208  -32.9299 H   0  0  0  0  0  0  0  0  0  0  0  0
   -9.6137   18.4071  -32.9819 H   0  0  0  0  0  0  0  0  0  0  0  0
  -10.8147   20.5235  -32.3286 H   0  0  0  0  0  0  0  0  0  0  0  0
   -6.9927   22.4194  -31.6286 H   0  0  0  0  0  0  0  0  0  0  0  0
  1  2  1  0
  2  3  1  0
  2  4  1  0
  2  5  1  0
  5  6  2  0
  5  7  1  0
  7  8  1  0
  8  9  1  0
  9 10  1  0
 10 11  1  0
 11 12  1  0
 12 13  1  0
 13 14  1  0
 14 15  2  0
 15 16  1  0
 16 17  2  0
 17 18  1  0
 18 19  2  0
 19 20  1  0
 19 21  1  0
 21 22  2  0
 22 13  1  0
 22 16  1  0
  1 23  1  0
  1 24  1  0
  1 25  1  0
  3 26  1  0
  3 27  1  0
  3 28  1  0
  4 29  1  0
  4 30  1  0
  4 31  1  0
  7 32  1  0
  8 33  1  0
  8 34  1  0
  9 35  1  0
  9 36  1  0
 10 37  1  0
 11 38  1  0
 11 39  1  0
 12 40  1  0
 12 41  1  0
 14 42  1  0
 17 43  1  0
 18 44  1  0
 21 45  1  0
M  END
>  <smiles>  (17) 
CC(C)(C)C(=O)NCCNCCn1cnc2ccc(F)cc21

>  <score_type>  (17) 
oracle

>  <origin>  (17) 
adg

>  <m_score__min__energy>  (17) 
-8.5800000000000001

>  <m_primary>  (17) 
energy

$$$$
19:0
     RDKit          3D

 50 53  0  0  0  0  0  0  0  0999 V2000
   -2.1070   24.1890  -29.2130 C   0  0  0  0  0  0  0  0  0  0  0  0
   -3.6060   24.4070  -29.2750 C   0  0  0  0  0  0  0  0  0  0  0  0
   -3.8800   25.2910  -30.3710 N   0  0  0  0  0  0  0  0  0  0  0  0
   -5.2690   25.6570  -30.4600 C   0  0  0  0  0  0  0  0  0  0  0  0
   -6.1290   24.9100  -29.4660 C   0  0  0  0  0  0  0  0  0  0  0  0
   -6.6650   23.6520  -30.1140 C   0  0  0  0  0  0  0  0  0  0  0  0
   -6.0940   23.4380  -31.4350 N   0  0  0  0  0  0  0  0  0  0  0  0
   -6.1610   22.1180  -31.9570 C   0  0  0  0  0  0  0  0  0  0  0  0
   -5.0170   21.4430  -32.3470 C   0  0  0  0  0  0  0  0  0  0  0  0
   -5.0580   20.1500  -32.8630 C   0  0  0  0  0  0  0  0  0  0  0  0
   -6.2550   19.5090  -32.9980 N   0  0  0  0  0  0  0  0  0  0  0  0
   -6.2550   18.1840  -33.5450 C   0  0  0  0  0  0  0  0  0  0  0  0
   -7.3530   20.1700  -32.6180 C   0  0  0  0  0  0  0  0  0  0  0  0
   -8.6050   19.5670  -32.7290 C   0  0  0  0  0  0  0  0  0  0  0  0
   -9.7680   20.2210  -32.3420 C   0  0  0  0  0  0  0  0  0  0  0  0
   -9.7140   21.4990  -31.8340 C   0  0  0  0  0  0  0  0  0  0  0  0
   -8.4940   22.1190  -31.7130 C   0  0  0  0  0  0  0  0  0  0  0  0
   -7.3510   21.4500  -32.1030 C   0  0  0  0  0  0  0  0  0  0  0  0
   -3.6730   19.8010  -33.1410 C   0  0  0  0  0  0  0  0  0  0  0  0
   -3.0740   18.6750  -33.6500 C   0  0  0  0  0  0  0  0  0  0  0  0
   -1.6920   18.6100  -33.8110 C   0  0  0  0  0  0  0  0  0  0  0  0
   -0.8640   19.6650  -33.4700 C   0  0  0  0  0  0  0  0  0  0  0  0
   -1.4590   20.7870  -32.9620 C   0  0  0  0  0  0  0  0  0  0  0  0
   -2.8260   20.8460  -32.8060 C   0  0  0  0  0  0  0  0  0  0  0  0
   -3.6440   21.9210  -32.2910 C   0  0  0  0  0  0  0  0  0  0  0  0
   -3.2310   23.0380  -31.8840 O   0  0  0  0  0  0  0  0  0  0  0  0
   -1.7864   24.1424  -28.1618 H   0  0  0  0  0  0  0  0  0  0  0  0
   -1.8527   23.2444  -29.7161 H   0  0  0  0  0  0  0  0  0  0  0  0
   -1.5942   25.0220  -29.7161 H   0  0  0  0  0  0  0  0  0  0  0  0
   -4.1168   23.4458  -29.4338 H   0  0  0  0  0  0  0  0  0  0  0  0
   -3.9682   24.8431  -28.3323 H   0  0  0  0  0  0  0  0  0  0  0  0
   -3.5240   24.9330  -31.2840 H   0  0  0  0  0  0  0  0  0  0  0  0
   -5.3627   26.7359  -30.2669 H   0  0  0  0  0  0  0  0  0  0  0  0
   -5.6199   25.3950  -31.4691 H   0  0  0  0  0  0  0  0  0  0  0  0
   -5.5253   24.6417  -28.5865 H   0  0  0  0  0  0  0  0  0  0  0  0
   -6.9677   25.5485  -29.1516 H   0  0  0  0  0  0  0  0  0  0  0  0
   -6.4187   22.7904  -29.4760 H   0  0  0  0  0  0  0  0  0  0  0  0
   -7.7536   23.7630  -30.2265 H   0  0  0  0  0  0  0  0  0  0  0  0
   -5.6500   24.2230  -31.9860 H   0  0  0  0  0  0  0  0  0  0  0  0
   -5.2179   17.8451  -33.6849 H   0  0  0  0  0  0  0  0  0  0  0  0
   -6.7735   17.5024  -32.8547 H   0  0  0  0  0  0  0  0  0  0  0  0
   -6.7735   18.1878  -34.5151 H   0  0  0  0  0  0  0  0  0  0  0  0
   -8.6739   18.5465  -33.1337 H   0  0  0  0  0  0  0  0  0  0  0  0
  -10.7389   19.7138  -32.4423 H   0  0  0  0  0  0  0  0  0  0  0  0
  -10.6352   22.0170  -31.5290 H   0  0  0  0  0  0  0  0  0  0  0  0
   -8.4284   23.1399  -31.3088 H   0  0  0  0  0  0  0  0  0  0  0  0
   -3.6943   17.8123  -33.9346 H   0  0  0  0  0  0  0  0  0  0  0  0
   -1.2453   17.6924  -34.2216 H   0  0  0  0  0  0  0  0  0  0  0  0
    0.2264   19.6039  -33.6019 H   0  0  0  0  0  0  0  0  0  0  0  0
   -0.8400   21.6500  -32.6755 H   0  0  0  0  0  0  0  0  0  0  0  0
  1  2  1  0
  2  3  1  0
  3  4  1  0
  4  5  1  0
  5  6  1  0
  6  7  1  0
  7  8  1  0
  8  9  2  0
  9 10  1  0
 10 11  2  0
 11 12  1  0
 11 13  1  0
 13 14  2  0
 14 15  1  0
 15 16  2  0
 16 17  1  0
 17 18  2  0
 10 19  1  0
 19 20  2  0
 20 21  1  0
 21 22  2  0
 22 23  1  0
 23 24  2  0
 24 25  1  0
 25 26  2  0
 18  8  1  0
 24 19  1  0
 25  9  1  0
 18 13  1  0
  1 27  1  0
  1 28  1  0
  1 29  1  0
  2 30  1  0
  2 31  1  0
  3 32  1  0
  4 33  1  0
  4 34  1  0
  5 35  1  0
  5 36  1  0
  6 37  1  0
  6 38  1  0
  7 39  1  0
 12 40  1  0
 12 41  1  0
 12 42  1  0
 14 43  1  0
 15 44  1  0
 16 45  1  0
 17 46  1  0
 20 47  1  0
 21 48  1  0
 22 49  1  0
 23 50  1  0
M  CHG  1  11   1
M  END
>  <smiles>  (18) 
CCNCCCNc1c2c([n+](C)c3ccccc13)-c1ccccc1C2=O

>  <score_type>  (18) 
oracle

>  <origin>  (18) 
adg

>  <m_score__min__energy>  (18) 
-9.75

>  <m_primary>  (18) 
energy

$$$$
20:0
     RDKit          3D

 72 75  0  0  0  0  0  0  0  0999 V2000
   -6.2160   25.3000  -29.6580 C   0  0  0  0  0  0  0  0  0  0  0  0
   -5.3170   25.1570  -30.8890 C   0  0  0  0  0  0  0  0  0  0  0  0
   -4.2260   24.2880  -30.6420 N   0  0  0  0  0  0  0  0  0  0  0  0
   -3.4290   24.5570  -29.4950 C   0  0  0  0  0  0  0  0  0  0  0  0
   -4.5300   22.9220  -30.8940 C   0  0  0  0  0  0  0  0  0  0  0  0
   -3.7890   22.4450  -32.1210 C   0  0  0  0  0  0  0  0  0  0  0  0
   -4.6930   21.8830  -33.0880 N   0  0  0  0  0  0  0  0  0  0  0  0
   -5.6780   20.9180  -32.8350 C   0  0  0  0  0  0  0  0  0  0  0  0
   -6.9280   21.3730  -32.4310 C   0  0  0  0  0  0  0  0  0  0  0  0
   -7.1590   22.7240  -32.3060 C   0  0  0  0  0  0  0  0  0  0  0  0
   -8.3650   23.2620  -31.9150 C   0  0  0  0  0  0  0  0  0  0  0  0
   -9.3860   22.3920  -31.6380 C   0  0  0  0  0  0  0  0  0  0  0  0
   -9.1750   21.0140  -31.7590 C   0  0  0  0  0  0  0  0  0  0  0  0
   -7.9620   20.5090  -32.1500 C   0  0  0  0  0  0  0  0  0  0  0  0
   -7.7880   19.1820  -32.2620 N   0  0  0  0  0  0  0  0  0  0  0  0
   -8.7860   18.2000  -31.9910 C   0  0  0  0  0  0  0  0  0  0  0  0
   -6.5660   18.7200  -32.6600 C   0  0  0  0  0  0  0  0  0  0  0  0
   -6.3800   17.3550  -32.7870 C   0  0  0  0  0  0  0  0  0  0  0  0
   -5.1860   16.8030  -33.1910 C   0  0  0  0  0  0  0  0  0  0  0  0
   -4.1510   17.6830  -33.4740 C   0  0  0  0  0  0  0  0  0  0  0  0
   -4.2670   19.0480  -33.3670 C   0  0  0  0  0  0  0  0  0  0  0  0
   -3.2940   19.9610  -33.6350 O   0  0  0  0  0  0  0  0  0  0  0  0
   -1.9830   19.7220  -34.0250 C   0  0  0  0  0  0  0  0  0  0  0  0
   -0.9810   20.4810  -33.2460 C   0  0  0  0  0  0  0  0  0  0  0  0
   -0.6800   19.9520  -31.9450 N   0  0  0  0  0  0  0  0  0  0  0  0
   -0.9580   18.5070  -32.0310 C   0  0  0  0  0  0  0  0  0  0  0  0
   -1.5820   20.4850  -30.9850 C   0  0  0  0  0  0  0  0  0  0  0  0
   -1.2720   20.2310  -29.5670 C   0  0  0  0  0  0  0  0  0  0  0  0
   -0.0930   19.3930  -29.2500 C   0  0  0  0  0  0  0  0  0  0  0  0
    0.9070   19.1880  -30.3190 C   0  0  0  0  0  0  0  0  0  0  0  0
    0.7090   20.0470  -31.5610 C   0  0  0  0  0  0  0  0  0  0  0  0
   -5.5100   19.5550  -32.9490 C   0  0  0  0  0  0  0  0  0  0  0  0
   -5.6078   25.2033  -28.7466 H   0  0  0  0  0  0  0  0  0  0  0  0
   -6.7020   26.2867  -29.6715 H   0  0  0  0  0  0  0  0  0  0  0  0
   -6.9842   24.5127  -29.6715 H   0  0  0  0  0  0  0  0  0  0  0  0
   -5.9130   24.7536  -31.7209 H   0  0  0  0  0  0  0  0  0  0  0  0
   -4.9151   26.1503  -31.1378 H   0  0  0  0  0  0  0  0  0  0  0  0
   -4.0159   24.3589  -28.5860 H   0  0  0  0  0  0  0  0  0  0  0  0
   -2.5401   23.9091  -29.5060 H   0  0  0  0  0  0  0  0  0  0  0  0
   -3.1146   25.6110  -29.5060 H   0  0  0  0  0  0  0  0  0  0  0  0
   -4.2276   22.3158  -30.0274 H   0  0  0  0  0  0  0  0  0  0  0  0
   -5.6120   22.8184  -31.0629 H   0  0  0  0  0  0  0  0  0  0  0  0
   -3.2614   23.2966  -32.5754 H   0  0  0  0  0  0  0  0  0  0  0  0
   -3.0756   21.6651  -31.8162 H   0  0  0  0  0  0  0  0  0  0  0  0
   -4.6130   22.2240  -34.0890 H   0  0  0  0  0  0  0  0  0  0  0  0
   -6.3325   23.4140  -32.5314 H   0  0  0  0  0  0  0  0  0  0  0  0
   -8.5031   24.3499  -31.8284 H   0  0  0  0  0  0  0  0  0  0  0  0
  -10.3675   22.7749  -31.3218 H   0  0  0  0  0  0  0  0  0  0  0  0
   -9.9998   20.3214  -31.5357 H   0  0  0  0  0  0  0  0  0  0  0  0
   -8.9021   18.0857  -30.9031 H   0  0  0  0  0  0  0  0  0  0  0  0
   -9.7428   18.5186  -32.4304 H   0  0  0  0  0  0  0  0  0  0  0  0
   -8.4829   17.2382  -32.4304 H   0  0  0  0  0  0  0  0  0  0  0  0
   -7.2204   16.6839  -32.5557 H   0  0  0  0  0  0  0  0  0  0  0  0
   -5.0579   15.7146  -33.2853 H   0  0  0  0  0  0  0  0  0  0  0  0
   -3.1871   17.2659  -33.8011 H   0  0  0  0  0  0  0  0  0  0  0  0
   -1.7755   18.6485  -33.9044 H   0  0  0  0  0  0  0  0  0  0  0  0
   -1.8942   20.0531  -35.0702 H   0  0  0  0  0  0  0  0  0  0  0  0
   -0.0471   20.5047  -33.8267 H   0  0  0  0  0  0  0  0  0  0  0  0
   -1.4211   21.4744  -33.0740 H   0  0  0  0  0  0  0  0  0  0  0  0
   -1.0386   18.0881  -31.0171 H   0  0  0  0  0  0  0  0  0  0  0  0
   -1.9034   18.3469  -32.5701 H   0  0  0  0  0  0  0  0  0  0  0  0
   -0.1395   18.0076  -32.5701 H   0  0  0  0  0  0  0  0  0  0  0  0
   -1.6140   21.5752  -31.1282 H   0  0  0  0  0  0  0  0  0  0  0  0
   -2.5350   19.9669  -31.1678 H   0  0  0  0  0  0  0  0  0  0  0  0
   -1.1168   21.2082  -29.0865 H   0  0  0  0  0  0  0  0  0  0  0  0
   -2.1291   19.6475  -29.1998 H   0  0  0  0  0  0  0  0  0  0  0  0
    0.4249   19.8613  -28.4000 H   0  0  0  0  0  0  0  0  0  0  0  0
   -0.5053   18.3917  -29.0568 H   0  0  0  0  0  0  0  0  0  0  0  0
    1.9006   19.4126  -29.9040 H   0  0  0  0  0  0  0  0  0  0  0  0
    0.7956   18.1440  -30.6471 H   0  0  0  0  0  0  0  0  0  0  0  0
    0.9650   21.0932  -31.3374 H   0  0  0  0  0  0  0  0  0  0  0  0
    1.3586   19.6986  -32.3774 H   0  0  0  0  0  0  0  0  0  0  0  0
  1  2  1  0
  2  3  1  0
  3  4  1  0
  3  5  1  0
  5  6  1  0
  6  7  1  0
  7  8  1  0
  8  9  2  0
  9 10  1  0
 10 11  2  0
 11 12  1  0
 12 13  2  0
 13 14  1  0
 14 15  2  0
 15 16  1  0
 15 17  1  0
 17 18  2  0
 18 19  1  0
 19 20  2  0
 20 21  1  0
 21 22  1  0
 22 23  1  0
 23 24  1  0
 24 25  1  0
 25 26  1  0
 25 27  1  0
 27 28  1  0
 28 29  1  0
 29 30  1  0
 30 31  1  0
 21 32  2  0
 32  8  1  0
 14  9  1  0
 32 17  1  0
 31 25  1  0
  1 33  1  0
  1 34  1  0
  1 35  1  0
  2 36  1  0
  2 37  1  0
  4 38  1  0
  4 39  1  0
  4 40  1  0
  5 41  1  0
  5 42  1  0
  6 43  1  0
  6 44  1  0
  7 45  1  0
 10 46  1  0
 11 47  1  0
 12 48  1  0
 13 49  1  0
 16 50  1  0
 16 51  1  0
 16 52  1  0
 18 53  1  0
 19 54  1  0
 20 55  1  0
 23 56  1  0
 23 57  1  0
 24 58  1  0
 24 59  1  0
 26 60  1  0
 26 61  1  0
 26 62  1  0
 27 63  1  0
 27 64  1  0
 28 65  1  0
 28 66  1  0
 29 67  1  0
 29 68  1  0
 30 69  1  0
 30 70  1  0
 31 71  1  0
 31 72  1  0
M  CHG  2  15   1  25   1
M  END
>  <smiles>  (19) 
CCN(C)CCNc1c2ccccc2[n+](C)c2cccc(OCC[N+]3(C)CCCCC3)c12

>  <score_type>  (19) 
oracle

>  <origin>  (19) 
adg

>  <m_score__min__energy>  (19) 
-8.4900000000000002

>  <m_primary>  (19) 
energy

$$$$
21:0
     RDKit          3D

 61 63  0  0  0  0  0  0  0  0999 V2000
   -0.7130   26.7350  -23.4370 C   0  0  0  0  0  0  0  0  0  0  0  0
   -1.2270   26.8360  -24.8650 C   0  0  0  0  0  0  0  0  0  0  0  0
   -1.5570   25.5160  -25.2860 N   0  0  0  0  0  0  0  0  0  0  0  0
   -0.5630   24.5370  -24.9790 C   0  0  0  0  0  0  0  0  0  0  0  0
   -2.1360   25.3890  -26.5820 C   0  0  0  0  0  0  0  0  0  0  0  0
   -1.2740   25.8490  -27.7210 C   0  0  0  0  0  0  0  0  0  0  0  0
   -1.8040   25.5970  -28.9570 O   0  0  0  0  0  0  0  0  0  0  0  0
   -1.9400   24.2710  -29.2840 C   0  0  0  0  0  0  0  0  0  0  0  0
   -3.3150   23.8830  -29.7800 C   0  0  0  0  0  0  0  0  0  0  0  0
   -3.7930   24.9570  -30.5000 O   0  0  0  0  0  0  0  0  0  0  0  0
   -5.0990   25.2800  -30.2440 C   0  0  0  0  0  0  0  0  0  0  0  0
   -6.1190   24.3040  -30.8140 C   0  0  0  0  0  0  0  0  0  0  0  0
   -5.4320   23.5290  -31.8120 N   0  0  0  0  0  0  0  0  0  0  0  0
   -5.7020   22.2280  -32.2160 C   0  0  0  0  0  0  0  0  0  0  0  0
   -4.6900   21.4410  -32.7250 C   0  0  0  0  0  0  0  0  0  0  0  0
   -5.0440   20.1750  -33.1420 C   0  0  0  0  0  0  0  0  0  0  0  0
   -6.2810   19.6800  -33.0830 N   0  0  0  0  0  0  0  0  0  0  0  0
   -6.4770   18.3300  -33.5680 C   0  0  0  0  0  0  0  0  0  0  0  0
   -7.3230   20.4320  -32.5820 C   0  0  0  0  0  0  0  0  0  0  0  0
   -8.6100   20.0500  -32.4850 C   0  0  0  0  0  0  0  0  0  0  0  0
   -9.5070   20.9560  -31.9720 C   0  0  0  0  0  0  0  0  0  0  0  0
   -8.4340   22.4290  -31.6120 S   0  0  0  0  0  0  0  0  0  0  0  0
   -6.9930   21.6840  -32.1650 C   0  0  0  0  0  0  0  0  0  0  0  0
   -3.9310   19.3370  -33.6890 C   0  0  0  0  0  0  0  0  0  0  0  0
   -2.7450   19.3660  -32.7370 C   0  0  0  0  0  0  0  0  0  0  0  0
   -2.4970   20.7160  -32.1350 C   0  0  0  0  0  0  0  0  0  0  0  0
   -3.2770   21.8320  -32.8560 C   0  0  0  0  0  0  0  0  0  0  0  0
   -1.5445   26.8984  -22.7356 H   0  0  0  0  0  0  0  0  0  0  0  0
   -0.2846   25.7355  -23.2713 H   0  0  0  0  0  0  0  0  0  0  0  0
    0.0618   27.4981  -23.2713 H   0  0  0  0  0  0  0  0  0  0  0  0
   -2.1199   27.4775  -24.9001 H   0  0  0  0  0  0  0  0  0  0  0  0
   -0.4659   27.2784  -25.5245 H   0  0  0  0  0  0  0  0  0  0  0  0
   -0.4667   24.4421  -23.8873 H   0  0  0  0  0  0  0  0  0  0  0  0
   -0.8587   23.5676  -25.4066 H   0  0  0  0  0  0  0  0  0  0  0  0
    0.4018   24.8474  -25.4066 H   0  0  0  0  0  0  0  0  0  0  0  0
   -2.3746   24.3275  -26.7444 H   0  0  0  0  0  0  0  0  0  0  0  0
   -3.0179   26.0464  -26.5852 H   0  0  0  0  0  0  0  0  0  0  0  0
   -1.1229   26.9343  -27.6241 H   0  0  0  0  0  0  0  0  0  0  0  0
   -0.3330   25.2830  -27.6568 H   0  0  0  0  0  0  0  0  0  0  0  0
   -1.2113   24.0358  -30.0738 H   0  0  0  0  0  0  0  0  0  0  0  0
   -1.7707   23.7024  -28.3577 H   0  0  0  0  0  0  0  0  0  0  0  0
   -3.2489   22.9938  -30.4241 H   0  0  0  0  0  0  0  0  0  0  0  0
   -3.9841   23.6387  -28.9418 H   0  0  0  0  0  0  0  0  0  0  0  0
   -5.2348   25.3193  -29.1531 H   0  0  0  0  0  0  0  0  0  0  0  0
   -5.2829   26.2455  -30.7380 H   0  0  0  0  0  0  0  0  0  0  0  0
   -6.5008   23.6465  -30.0191 H   0  0  0  0  0  0  0  0  0  0  0  0
   -6.9788   24.8362  -31.2470 H   0  0  0  0  0  0  0  0  0  0  0  0
   -4.6260   24.0360  -32.2910 H   0  0  0  0  0  0  0  0  0  0  0  0
   -6.5766   17.6443  -32.7137 H   0  0  0  0  0  0  0  0  0  0  0  0
   -7.3905   18.2891  -34.1794 H   0  0  0  0  0  0  0  0  0  0  0  0
   -5.6129   18.0310  -34.1794 H   0  0  0  0  0  0  0  0  0  0  0  0
   -8.9324   19.0482  -32.8050 H   0  0  0  0  0  0  0  0  0  0  0  0
  -10.5892   20.8384  -31.8141 H   0  0  0  0  0  0  0  0  0  0  0  0
   -4.2790   18.3001  -33.8066 H   0  0  0  0  0  0  0  0  0  0  0  0
   -3.6216   19.7384  -34.6653 H   0  0  0  0  0  0  0  0  0  0  0  0
   -2.9339   18.6507  -31.9229 H   0  0  0  0  0  0  0  0  0  0  0  0
   -1.8520   19.1031  -33.3231 H   0  0  0  0  0  0  0  0  0  0  0  0
   -2.8057   20.6943  -31.0794 H   0  0  0  0  0  0  0  0  0  0  0  0
   -1.4242   20.9369  -32.2364 H   0  0  0  0  0  0  0  0  0  0  0  0
   -3.0970   22.8048  -32.3750 H   0  0  0  0  0  0  0  0  0  0  0  0
   -2.9705   21.9436  -33.9065 H   0  0  0  0  0  0  0  0  0  0  0  0
  1  2  1  0
  2  3  1  0
  3  4  1  0
  3  5  1  0
  5  6  1  0
  6  7  1  0
  7  8  1  0
  8  9  1  0
  9 10  1  0
 10 11  1  0
 11 12  1  0
 12 13  1  0
 13 14  1  0
 14 15  2  0
 15 16  1  0
 16 17  2  0
 17 18  1  0
 17 19  1  0
 19 20  1  0
 20 21  2  0
 21 22  1  0
 22 23  1  0
 16 24  1  0
 24 25  1  0
 25 26  1  0
 26 27  1  0
 23 14  1  0
 27 15  1  0
 23 19  2  0
  1 28  1  0
  1 29  1  0
  1 30  1  0
  2 31  1  0
  2 32  1  0
  4 33  1  0
  4 34  1  0
  4 35  1  0
  5 36  1  0
  5 37  1  0
  6 38  1  0
  6 39  1  0
  8 40  1  0
  8 41  1  0
  9 42  1  0
  9 43  1  0
 11 44  1  0
 11 45  1  0
 12 46  1  0
 12 47  1  0
 13 48  1  0
 18 49  1  0
 18 50  1  0
 18 51  1  0
 20 52  1  0
 21 53  1  0
 24 54  1  0
 24 55  1  0
 25 56  1  0
 25 57  1  0
 26 58  1  0
 26 59  1  0
 27 60  1  0
 27 61  1  0
M  CHG  1  17   1
M  END
>  <smiles>  (20) 
CCN(C)CCOCCOCCNc1c2c([n+](C)c3ccsc13)CCCC2

>  <score_type>  (20) 
oracle

>  <origin>  (20) 
adg

>  <m_score__min__energy>  (20) 
-8.8100000000000005

>  <m_primary>  (20) 
energy

$$$$
