0:0
     RDKit          3D

 53 55  0  0  0  0  0  0  0  0999 V2000
   -1.6090   25.7440  -26.6530 C   0  0  0  0  0  0  0  0  0  0  0  0
   -1.2420   26.0750  -28.0950 C   0  0  0  0  0  0  0  0  0  0  0  0
   -1.8970   25.1290  -29.0090 N   0  0  0  0  0  0  0  0  0  0  0  0
   -3.0650   24.5000  -28.3770 C   0  0  0  0  0  0  0  0  0  0  0  0
   -4.1900   24.3440  -29.3630 C   0  0  0  0  0  0  0  0  0  0  0  0
   -5.4360   24.9420  -29.1280 C   0  0  0  0  0  0  0  0  0  0  0  0
   -6.4540   24.7960  -30.0730 C   0  0  0  0  0  0  0  0  0  0  0  0
   -6.2240   24.0610  -31.2360 C   0  0  0  0  0  0  0  0  0  0  0  0
   -4.9660   23.4740  -31.4440 C   0  0  0  0  0  0  0  0  0  0  0  0
   -4.6840   22.6650  -32.6870 C   0  0  0  0  0  0  0  0  0  0  0  0
   -4.4420   21.2210  -32.4310 N   0  0  0  0  0  0  0  0  0  0  0  0
   -5.1880   20.3260  -33.3430 C   0  0  0  0  0  0  0  0  0  0  0  0
   -6.5020   19.9080  -32.7370 C   0  0  0  0  0  0  0  0  0  0  0  0
   -7.4730   20.8770  -32.4360 C   0  0  0  0  0  0  0  0  0  0  0  0
   -8.7000   20.4980  -31.8830 C   0  0  0  0  0  0  0  0  0  0  0  0
   -8.9660   19.1480  -31.6300 C   0  0  0  0  0  0  0  0  0  0  0  0
   -8.0050   18.1790  -31.9270 C   0  0  0  0  0  0  0  0  0  0  0  0
   -6.7760   18.5550  -32.4790 C   0  0  0  0  0  0  0  0  0  0  0  0
   -3.0060   20.8650  -32.3890 C   0  0  0  0  0  0  0  0  0  0  0  0
   -2.4120   21.1420  -31.0310 C   0  0  0  0  0  0  0  0  0  0  0  0
   -1.1230   21.6910  -30.9140 C   0  0  0  0  0  0  0  0  0  0  0  0
   -0.5710   21.9280  -29.6520 C   0  0  0  0  0  0  0  0  0  0  0  0
   -1.2920   21.6060  -28.4980 C   0  0  0  0  0  0  0  0  0  0  0  0
   -2.5650   21.0420  -28.6050 C   0  0  0  0  0  0  0  0  0  0  0  0
   -3.1220   20.8030  -29.8660 C   0  0  0  0  0  0  0  0  0  0  0  0
   -3.9870   23.6490  -30.5150 N   0  0  0  0  0  0  0  0  0  0  0  0
   -0.9687   26.3215  -25.9699 H   0  0  0  0  0  0  0  0  0  0  0  0
   -2.6631   26.0028  -26.4743 H   0  0  0  0  0  0  0  0  0  0  0  0
   -1.4600   24.6689  -26.4743 H   0  0  0  0  0  0  0  0  0  0  0  0
   -1.5731   27.0973  -28.3299 H   0  0  0  0  0  0  0  0  0  0  0  0
   -0.1514   25.9994  -28.2170 H   0  0  0  0  0  0  0  0  0  0  0  0
   -2.2420   25.6710  -29.8370 H   0  0  0  0  0  0  0  0  0  0  0  0
   -2.7785   23.5080  -27.9976 H   0  0  0  0  0  0  0  0  0  0  0  0
   -3.4070   25.1428  -27.5525 H   0  0  0  0  0  0  0  0  0  0  0  0
   -5.6101   25.5203  -28.2087 H   0  0  0  0  0  0  0  0  0  0  0  0
   -7.4362   25.2602  -29.9003 H   0  0  0  0  0  0  0  0  0  0  0  0
   -7.0218   23.9424  -31.9839 H   0  0  0  0  0  0  0  0  0  0  0  0
   -5.5482   22.7559  -33.3614 H   0  0  0  0  0  0  0  0  0  0  0  0
   -3.7587   23.0684  -33.1241 H   0  0  0  0  0  0  0  0  0  0  0  0
   -5.3803   20.8552  -34.2880 H   0  0  0  0  0  0  0  0  0  0  0  0
   -4.5827   19.4249  -33.5209 H   0  0  0  0  0  0  0  0  0  0  0  0
   -7.2673   21.9389  -32.6362 H   0  0  0  0  0  0  0  0  0  0  0  0
   -9.4561   21.2612  -31.6469 H   0  0  0  0  0  0  0  0  0  0  0  0
   -9.9322   18.8497  -31.1971 H   0  0  0  0  0  0  0  0  0  0  0  0
   -8.2150   17.1180  -31.7264 H   0  0  0  0  0  0  0  0  0  0  0  0
   -6.0219   17.7887  -32.7117 H   0  0  0  0  0  0  0  0  0  0  0  0
   -2.8955   19.7945  -32.6168 H   0  0  0  0  0  0  0  0  0  0  0  0
   -2.4746   21.4780  -33.1318 H   0  0  0  0  0  0  0  0  0  0  0  0
   -0.5469   21.9349  -31.8188 H   0  0  0  0  0  0  0  0  0  0  0  0
    0.4331   22.3689  -29.5664 H   0  0  0  0  0  0  0  0  0  0  0  0
   -0.8565   21.7969  -27.5061 H   0  0  0  0  0  0  0  0  0  0  0  0
   -3.1304   20.7854  -27.6970 H   0  0  0  0  0  0  0  0  0  0  0  0
   -4.1201   20.3477  -29.9462 H   0  0  0  0  0  0  0  0  0  0  0  0
  1  2  1  0
  2  3  1  0
  3  4  1  0
  4  5  1  0
  5  6  2  0
  6  7  1  0
  7  8  2  0
  8  9  1  0
  9 10  1  0
 10 11  1  0
 11 12  1  0
 12 13  1  0
 13 14  2  0
 14 15  1  0
 15 16  2  0
 16 17  1  0
 17 18  2  0
 11 19  1  0
 19 20  1  0
 20 21  2  0
 21 22  1  0
 22 23  2  0
 23 24  1  0
 24 25  2  0
  9 26  2  0
 26  5  1  0
 18 13  1  0
 25 20  1  0
  1 27  1  0
  1 28  1  0
  1 29  1  0
  2 30  1  0
  2 31  1  0
  3 32  1  0
  4 33  1  0
  4 34  1  0
  6 35  1  0
  7 36  1  0
  8 37  1  0
 10 38  1  0
 10 39  1  0
 12 40  1  0
 12 41  1  0
 14 42  1  0
 15 43  1  0
 16 44  1  0
 17 45  1  0
 18 46  1  0
 19 47  1  0
 19 48  1  0
 21 49  1  0
 22 50  1  0
 23 51  1  0
 24 52  1  0
 25 53  1  0
M  END
>  <UniqueID>  (1) 
1

>  <SMILES>  (1) 
CCNCc1cccc(CN(Cc2ccccc2)Cc2ccccc2)n1

>  <Energy>  (1) 
52.55890479713752

>  <Genealogy>  (1) 
CCNCc1cccc(CN(Cc2ccccc2)Cc2ccccc2)n1 (3D coordinates assigned)
CCNCc1cccc(CN(Cc2ccccc2)Cc2ccccc2)n1 (optimized conformer: 52.55890479713752 kcal/mol)

>  <smiles>  (1) 
CCNCc1cccc(CN(Cc2ccccc2)Cc2ccccc2)n1

>  <score_type>  (1) 
oracle

>  <origin>  (1) 
adg

>  <m_score__min__energy>  (1) 
-8.6500000000000004

>  <m_primary>  (1) 
energy

$$$$
1:0
     RDKit          3D

 70 72  0  0  0  0  0  0  0  0999 V2000
    0.5360   21.1670  -34.8570 C   0  0  0  0  0  0  0  0  0  0  0  0
    0.5970   20.6840  -33.4000 C   0  0  0  0  0  0  0  0  0  0  0  0
   -0.6040   21.0390  -32.6060 N   0  0  0  0  0  0  0  0  0  0  0  0
   -0.9050   20.0250  -31.5700 C   0  0  0  0  0  0  0  0  0  0  0  0
   -0.2490   20.3790  -30.2380 C   0  0  0  0  0  0  0  0  0  0  0  0
   -1.7700   21.3740  -33.4630 C   0  0  0  0  0  0  0  0  0  0  0  0
   -3.0260   21.5590  -32.6060 C   0  0  0  0  0  0  0  0  0  0  0  0
   -4.2400   21.5540  -33.4260 N   0  0  0  0  0  0  0  0  0  0  0  0
   -5.4170   20.8720  -32.9780 C   0  0  0  0  0  0  0  0  0  0  0  0
   -5.5790   19.4920  -33.2490 C   0  0  0  0  0  0  0  0  0  0  0  0
   -4.5330   18.7450  -33.8310 C   0  0  0  0  0  0  0  0  0  0  0  0
   -4.6940   17.3900  -34.1130 C   0  0  0  0  0  0  0  0  0  0  0  0
   -5.8910   16.7520  -33.8070 C   0  0  0  0  0  0  0  0  0  0  0  0
   -6.9330   17.4600  -33.2100 C   0  0  0  0  0  0  0  0  0  0  0  0
   -6.8040   18.8390  -32.9120 C   0  0  0  0  0  0  0  0  0  0  0  0
   -7.8240   19.5470  -32.3040 N   0  0  0  0  0  0  0  0  0  0  0  0
   -9.1090   18.8960  -31.9820 C   0  0  0  0  0  0  0  0  0  0  0  0
   -7.6120   20.8600  -31.9790 C   0  0  0  0  0  0  0  0  0  0  0  0
   -8.6700   21.8890  -31.1650 S   0  0  0  0  0  0  0  0  0  0  0  0
   -7.6580   23.2250  -31.1700 C   0  0  0  0  0  0  0  0  0  0  0  0
   -6.4600   22.8940  -31.8050 C   0  0  0  0  0  0  0  0  0  0  0  0
   -5.3750   23.9350  -31.9280 C   0  0  0  0  0  0  0  0  0  0  0  0
   -5.3650   24.8620  -30.7080 C   0  0  0  0  0  0  0  0  0  0  0  0
   -4.0970   24.7210  -29.9830 N   0  0  0  0  0  0  0  0  0  0  0  0
   -4.1640   23.5980  -29.0390 C   0  0  0  0  0  0  0  0  0  0  0  0
   -2.8670   22.7720  -29.0770 C   0  0  0  0  0  0  0  0  0  0  0  0
   -1.7910   23.4220  -29.8500 N   0  0  0  0  0  0  0  0  0  0  0  0
   -0.5940   23.6540  -29.0270 C   0  0  0  0  0  0  0  0  0  0  0  0
   -0.6950   24.9990  -28.3060 C   0  0  0  0  0  0  0  0  0  0  0  0
   -1.9230   25.6880  -28.6960 N   0  0  0  0  0  0  0  0  0  0  0  0
   -6.4370   21.5500  -32.2820 C   0  0  0  0  0  0  0  0  0  0  0  0
    0.3982   22.2582  -34.8761 H   0  0  0  0  0  0  0  0  0  0  0  0
    1.4741   20.9069  -35.3691 H   0  0  0  0  0  0  0  0  0  0  0  0
   -0.3080   20.6818  -35.3691 H   0  0  0  0  0  0  0  0  0  0  0  0
    0.7022   19.5890  -33.4008 H   0  0  0  0  0  0  0  0  0  0  0  0
    1.4549   21.1864  -32.9293 H   0  0  0  0  0  0  0  0  0  0  0  0
   -1.9945   19.9697  -31.4290 H   0  0  0  0  0  0  0  0  0  0  0  0
   -0.5057   19.0568  -31.9064 H   0  0  0  0  0  0  0  0  0  0  0  0
   -0.8879   20.0342  -29.4116 H   0  0  0  0  0  0  0  0  0  0  0  0
    0.7333   19.8885  -30.1713 H   0  0  0  0  0  0  0  0  0  0  0  0
   -0.1197   21.4693  -30.1713 H   0  0  0  0  0  0  0  0  0  0  0  0
   -1.5629   22.3063  -34.0088 H   0  0  0  0  0  0  0  0  0  0  0  0
   -1.9399   20.5508  -34.1726 H   0  0  0  0  0  0  0  0  0  0  0  0
   -3.0845   20.7387  -31.8755 H   0  0  0  0  0  0  0  0  0  0  0  0
   -2.9568   22.5317  -32.0971 H   0  0  0  0  0  0  0  0  0  0  0  0
   -4.3380   22.2110  -34.2310 H   0  0  0  0  0  0  0  0  0  0  0  0
   -3.5783   19.2386  -34.0651 H   0  0  0  0  0  0  0  0  0  0  0  0
   -3.8733   16.8244  -34.5782 H   0  0  0  0  0  0  0  0  0  0  0  0
   -6.0163   15.6837  -34.0371 H   0  0  0  0  0  0  0  0  0  0  0  0
   -7.8708   16.9393  -32.9663 H   0  0  0  0  0  0  0  0  0  0  0  0
   -9.2264   18.8365  -30.8899 H   0  0  0  0  0  0  0  0  0  0  0  0
   -9.9350   19.4844  -32.4081 H   0  0  0  0  0  0  0  0  0  0  0  0
   -9.1232   17.8820  -32.4081 H   0  0  0  0  0  0  0  0  0  0  0  0
   -7.9000   24.2083  -30.7403 H   0  0  0  0  0  0  0  0  0  0  0  0
   -4.4001   23.4315  -32.0056 H   0  0  0  0  0  0  0  0  0  0  0  0
   -5.5683   24.5392  -32.8266 H   0  0  0  0  0  0  0  0  0  0  0  0
   -5.4807   25.9040  -31.0409 H   0  0  0  0  0  0  0  0  0  0  0  0
   -6.1958   24.5901  -30.0402 H   0  0  0  0  0  0  0  0  0  0  0  0
   -3.3540   24.5030  -30.6880 H   0  0  0  0  0  0  0  0  0  0  0  0
   -4.3115   23.9905  -28.0220 H   0  0  0  0  0  0  0  0  0  0  0  0
   -5.0038   22.9476  -29.3250 H   0  0  0  0  0  0  0  0  0  0  0  0
   -2.5162   22.6229  -28.0452 H   0  0  0  0  0  0  0  0  0  0  0  0
   -3.0990   21.8185  -29.5741 H   0  0  0  0  0  0  0  0  0  0  0  0
   -2.1220   24.3280  -30.2560 H   0  0  0  0  0  0  0  0  0  0  0  0
   -0.5047   22.8494  -28.2823 H   0  0  0  0  0  0  0  0  0  0  0  0
    0.2912   23.6648  -29.6799 H   0  0  0  0  0  0  0  0  0  0  0  0
   -0.7027   24.8293  -27.2192 H   0  0  0  0  0  0  0  0  0  0  0  0
    0.1694   25.6208  -28.5821 H   0  0  0  0  0  0  0  0  0  0  0  0
   -1.9830   25.6610  -29.7400 H   0  0  0  0  0  0  0  0  0  0  0  0
   -2.7350   25.1370  -28.3360 H   0  0  0  0  0  0  0  0  0  0  0  0
  1  2  1  0
  2  3  1  0
  3  4  1  0
  4  5  1  0
  3  6  1  0
  6  7  1  0
  7  8  1  0
  8  9  1  0
  9 10  2  0
 10 11  1  0
 11 12  2  0
 12 13  1  0
 13 14  2  0
 14 15  1  0
 15 16  2  0
 16 17  1  0
 16 18  1  0
 18 19  1  0
 19 20  1  0
 20 21  2  0
 21 22  1  0
 22 23  1  0
 23 24  1  0
 24 25  1  0
 25 26  1  0
 26 27  1  0
 27 28  1  0
 28 29  1  0
 29 30  1  0
 21 31  1  0
 31  9  1  0
 15 10  1  0
 31 18  2  0
  1 32  1  0
  1 33  1  0
  1 34  1  0
  2 35  1  0
  2 36  1  0
  4 37  1  0
  4 38  1  0
  5 39  1  0
  5 40  1  0
  5 41  1  0
  6 42  1  0
  6 43  1  0
  7 44  1  0
  7 45  1  0
  8 46  1  0
 11 47  1  0
 12 48  1  0
 13 49  1  0
 14 50  1  0
 17 51  1  0
 17 52  1  0
 17 53  1  0
 20 54  1  0
 22 55  1  0
 22 56  1  0
 23 57  1  0
 23 58  1  0
 24 59  1  0
 25 60  1  0
 25 61  1  0
 26 62  1  0
 26 63  1  0
 27 64  1  0
 28 65  1  0
 28 66  1  0
 29 67  1  0
 29 68  1  0
 30 69  1  0
 30 70  1  0
M  CHG  1  16   1
M  END
>  <UniqueID>  (2) 
2

>  <SMILES>  (2) 
CCN(CC)CCNc1c2ccccc2[n+](C)c2scc(CCNCCNCCN)c12

>  <Energy>  (2) 
110.15127287927123

>  <Genealogy>  (2) 
CCN(CC)CCNc1c2ccccc2[n+](C)c2scc(CCNCCNCCN)c12 (3D coordinates assigned)
CCN(CC)CCNc1c2ccccc2[n+](C)c2scc(CCNCCNCCN)c12 (optimized conformer: 110.15127287927123 kcal/mol)

>  <smiles>  (2) 
CCN(CC)CCNc1c2ccccc2[n+](C)c2scc(CCNCCNCCN)c12

>  <score_type>  (2) 
oracle

>  <origin>  (2) 
adg

>  <m_score__min__energy>  (2) 
-9.0899999999999999

>  <m_primary>  (2) 
energy

$$$$
2:0
     RDKit          3D

 57 59  0  0  0  0  0  0  0  0999 V2000
   -9.4890   20.0600  -32.4090 C   0  0  0  0  0  0  0  0  0  0  0  0
   -8.7520   19.2400  -31.3560 C   0  0  0  0  0  0  0  0  0  0  0  0
   -7.9600   18.1770  -31.9960 N   0  0  0  0  0  0  0  0  0  0  0  0
   -6.7480   17.8340  -31.2300 C   0  0  0  0  0  0  0  0  0  0  0  0
   -5.4520   18.2470  -31.9540 C   0  0  0  0  0  0  0  0  0  0  0  0
   -5.7220   18.7830  -33.3750 C   0  0  0  0  0  0  0  0  0  0  0  0
   -5.4900   20.2360  -33.5080 N   0  0  0  0  0  0  0  0  0  0  0  0
   -6.4410   21.0940  -32.7610 C   0  0  0  0  0  0  0  0  0  0  0  0
   -5.8970   21.5680  -31.4020 C   0  0  0  0  0  0  0  0  0  0  0  0
   -4.5010   21.9980  -31.5010 N   0  0  0  0  0  0  0  0  0  0  0  0
   -3.8000   22.4020  -30.3150 C   0  0  0  0  0  0  0  0  0  0  0  0
   -3.1250   21.4440  -29.5480 C   0  0  0  0  0  0  0  0  0  0  0  0
   -2.4330   21.8200  -28.3960 C   0  0  0  0  0  0  0  0  0  0  0  0
   -2.3950   23.1650  -27.9940 C   0  0  0  0  0  0  0  0  0  0  0  0
   -1.6560   23.5640  -26.7700 C   0  0  0  0  0  0  0  0  0  0  0  0
   -0.9090   22.6170  -26.0430 C   0  0  0  0  0  0  0  0  0  0  0  0
   -0.2140   22.9970  -24.8910 C   0  0  0  0  0  0  0  0  0  0  0  0
   -0.2560   24.3220  -24.4510 C   0  0  0  0  0  0  0  0  0  0  0  0
   -0.9930   25.2700  -25.1630 C   0  0  0  0  0  0  0  0  0  0  0  0
   -1.6900   24.8960  -26.3150 C   0  0  0  0  0  0  0  0  0  0  0  0
   -3.0660   24.1280  -28.7700 C   0  0  0  0  0  0  0  0  0  0  0  0
   -3.7660   23.7550  -29.9340 C   0  0  0  0  0  0  0  0  0  0  0  0
   -4.4250   24.6970  -30.7410 O   0  0  0  0  0  0  0  0  0  0  0  0
   -5.7520   25.1630  -30.5230 C   0  0  0  0  0  0  0  0  0  0  0  0
   -3.8210   21.9750  -32.7950 C   0  0  0  0  0  0  0  0  0  0  0  0
   -4.0560   20.6170  -33.4600 C   0  0  0  0  0  0  0  0  0  0  0  0
  -10.1451   20.7899  -31.9123 H   0  0  0  0  0  0  0  0  0  0  0  0
   -8.7589   20.5912  -33.0372 H   0  0  0  0  0  0  0  0  0  0  0  0
  -10.0948   19.3905  -33.0372 H   0  0  0  0  0  0  0  0  0  0  0  0
   -8.0805   19.8999  -30.7872 H   0  0  0  0  0  0  0  0  0  0  0  0
   -9.4891   18.7794  -30.6818 H   0  0  0  0  0  0  0  0  0  0  0  0
   -8.5640   17.3300  -32.1100 H   0  0  0  0  0  0  0  0  0  0  0  0
   -6.7880   18.3485  -30.2586 H   0  0  0  0  0  0  0  0  0  0  0  0
   -6.7283   16.7407  -31.1100 H   0  0  0  0  0  0  0  0  0  0  0  0
   -4.9542   19.0334  -31.3677 H   0  0  0  0  0  0  0  0  0  0  0  0
   -4.8177   17.3530  -32.0459 H   0  0  0  0  0  0  0  0  0  0  0  0
   -5.0580   18.2581  -34.0776 H   0  0  0  0  0  0  0  0  0  0  0  0
   -6.7849   18.6025  -33.5936 H   0  0  0  0  0  0  0  0  0  0  0  0
   -6.6679   21.9789  -33.3738 H   0  0  0  0  0  0  0  0  0  0  0  0
   -7.3365   20.4878  -32.5593 H   0  0  0  0  0  0  0  0  0  0  0  0
   -6.5065   22.4126  -31.0484 H   0  0  0  0  0  0  0  0  0  0  0  0
   -5.9483   20.7247  -30.6976 H   0  0  0  0  0  0  0  0  0  0  0  0
   -3.1405   20.3881  -29.8558 H   0  0  0  0  0  0  0  0  0  0  0  0
   -1.9132   21.0569  -27.7981 H   0  0  0  0  0  0  0  0  0  0  0  0
   -0.8721   21.5717  -26.3837 H   0  0  0  0  0  0  0  0  0  0  0  0
    0.3673   22.2507  -24.3297 H   0  0  0  0  0  0  0  0  0  0  0  0
    0.2913   24.6183  -23.5440 H   0  0  0  0  0  0  0  0  0  0  0  0
   -1.0251   26.3135  -24.8165 H   0  0  0  0  0  0  0  0  0  0  0  0
   -2.2696   25.6479  -26.8706 H   0  0  0  0  0  0  0  0  0  0  0  0
   -3.0437   25.1844  -28.4641 H   0  0  0  0  0  0  0  0  0  0  0  0
   -5.9440   25.2304  -29.4420 H   0  0  0  0  0  0  0  0  0  0  0  0
   -5.8712   26.1568  -30.9793 H   0  0  0  0  0  0  0  0  0  0  0  0
   -6.4664   24.4620  -30.9793 H   0  0  0  0  0  0  0  0  0  0  0  0
   -4.2223   22.7736  -33.4363 H   0  0  0  0  0  0  0  0  0  0  0  0
   -2.7424   22.1348  -32.6498 H   0  0  0  0  0  0  0  0  0  0  0  0
   -3.6696   20.6589  -34.4891 H   0  0  0  0  0  0  0  0  0  0  0  0
   -3.5340   19.8599  -32.8564 H   0  0  0  0  0  0  0  0  0  0  0  0
  1  2  1  0
  2  3  1  0
  3  4  1  0
  4  5  1  0
  5  6  1  0
  6  7  1  0
  7  8  1  0
  8  9  1  0
  9 10  1  0
 10 11  1  0
 11 12  2  0
 12 13  1  0
 13 14  2  0
 14 15  1  0
 15 16  2  0
 16 17  1  0
 17 18  2  0
 18 19  1  0
 19 20  2  0
 14 21  1  0
 21 22  2  0
 22 23  1  0
 23 24  1  0
 10 25  1  0
 25 26  1  0
 26  7  1  0
 22 11  1  0
 20 15  1  0
  1 27  1  0
  1 28  1  0
  1 29  1  0
  2 30  1  0
  2 31  1  0
  3 32  1  0
  4 33  1  0
  4 34  1  0
  5 35  1  0
  5 36  1  0
  6 37  1  0
  6 38  1  0
  8 39  1  0
  8 40  1  0
  9 41  1  0
  9 42  1  0
 12 43  1  0
 13 44  1  0
 16 45  1  0
 17 46  1  0
 18 47  1  0
 19 48  1  0
 20 49  1  0
 21 50  1  0
 24 51  1  0
 24 52  1  0
 24 53  1  0
 25 54  1  0
 25 55  1  0
 26 56  1  0
 26 57  1  0
M  END
>  <UniqueID>  (3) 
3

>  <SMILES>  (3) 
CCNCCCN1CCN(c2ccc(-c3ccccc3)cc2OC)CC1

>  <Energy>  (3) 
73.25437255877831

>  <Genealogy>  (3) 
CCNCCCN1CCN(c2ccc(-c3ccccc3)cc2OC)CC1 (3D coordinates assigned)
CCNCCCN1CCN(c2ccc(-c3ccccc3)cc2OC)CC1 (nonaromatic ring conformer: 73.25437255877831 kcal/mol)

>  <smiles>  (3) 
CCNCCCN1CCN(c2ccc(-c3ccccc3)cc2OC)CC1

>  <score_type>  (3) 
oracle

>  <origin>  (3) 
adg

>  <m_score__min__energy>  (3) 
-8.6600000000000001

>  <m_primary>  (3) 
energy

$$$$
3:0
     RDKit          3D

 43 43  0  0  0  0  0  0  0  0999 V2000
   -4.2290   24.5500  -26.7910 C   0  0  0  0  0  0  0  0  0  0  0  0
   -2.7560   24.8870  -26.9920 C   0  0  0  0  0  0  0  0  0  0  0  0
   -2.3700   24.6790  -28.4040 N   0  0  0  0  0  0  0  0  0  0  0  0
   -0.9450   24.9210  -28.7190 C   0  0  0  0  0  0  0  0  0  0  0  0
   -0.0030   23.8050  -28.2630 C   0  0  0  0  0  0  0  0  0  0  0  0
   -2.9980   23.5170  -29.0740 C   0  0  0  0  0  0  0  0  0  0  0  0
   -3.6560   23.8480  -30.4370 C   0  0  0  0  0  0  0  0  0  0  0  0
   -4.0810   25.2520  -30.4690 N   0  0  0  0  0  0  0  0  0  0  0  0
   -5.5060   25.3510  -30.8090 C   0  0  0  0  0  0  0  0  0  0  0  0
   -5.9940   24.0580  -31.4790 C   0  0  0  0  0  0  0  0  0  0  0  0
   -7.2710   23.4830  -30.8440 C   0  0  0  0  0  0  0  0  0  0  0  0
   -7.7060   22.1980  -31.5010 C   0  0  0  0  0  0  0  0  0  0  0  0
   -9.0600   21.8270  -31.4990 C   0  0  0  0  0  0  0  0  0  0  0  0
   -9.4640   20.6290  -32.1000 C   0  0  0  0  0  0  0  0  0  0  0  0
   -8.5170   19.7940  -32.7000 C   0  0  0  0  0  0  0  0  0  0  0  0
   -7.1660   20.1510  -32.6950 C   0  0  0  0  0  0  0  0  0  0  0  0
   -6.7590   21.3470  -32.0960 C   0  0  0  0  0  0  0  0  0  0  0  0
   -4.4500   24.4994  -25.7146 H   0  0  0  0  0  0  0  0  0  0  0  0
   -4.8503   25.3292  -27.2567 H   0  0  0  0  0  0  0  0  0  0  0  0
   -4.4497   23.5782  -27.2567 H   0  0  0  0  0  0  0  0  0  0  0  0
   -2.5840   25.9389  -26.7200 H   0  0  0  0  0  0  0  0  0  0  0  0
   -2.1481   24.2285  -26.3542 H   0  0  0  0  0  0  0  0  0  0  0  0
   -0.8467   25.0314  -29.8090 H   0  0  0  0  0  0  0  0  0  0  0  0
   -0.6498   25.8274  -28.1702 H   0  0  0  0  0  0  0  0  0  0  0  0
    0.0234   23.7737  -27.1638 H   0  0  0  0  0  0  0  0  0  0  0  0
   -0.3639   22.8401  -28.6487 H   0  0  0  0  0  0  0  0  0  0  0  0
    1.0088   23.9988  -28.6487 H   0  0  0  0  0  0  0  0  0  0  0  0
   -2.2226   22.7550  -29.2415 H   0  0  0  0  0  0  0  0  0  0  0  0
   -3.8034   23.1677  -28.4112 H   0  0  0  0  0  0  0  0  0  0  0  0
   -2.9294   23.6702  -31.2435 H   0  0  0  0  0  0  0  0  0  0  0  0
   -4.5370   23.2040  -30.5751 H   0  0  0  0  0  0  0  0  0  0  0  0
   -3.9530   25.6510  -29.5090 H   0  0  0  0  0  0  0  0  0  0  0  0
   -6.0856   25.5228  -29.8900 H   0  0  0  0  0  0  0  0  0  0  0  0
   -5.6457   26.1875  -31.5096 H   0  0  0  0  0  0  0  0  0  0  0  0
   -6.1973   24.2703  -32.5390 H   0  0  0  0  0  0  0  0  0  0  0  0
   -5.2011   23.3067  -31.3489 H   0  0  0  0  0  0  0  0  0  0  0  0
   -7.0799   23.2887  -29.7783 H   0  0  0  0  0  0  0  0  0  0  0  0
   -8.0762   24.2202  -30.9790 H   0  0  0  0  0  0  0  0  0  0  0  0
   -9.8063   22.4802  -31.0233 H   0  0  0  0  0  0  0  0  0  0  0  0
  -10.5266   20.3447  -32.1001 H   0  0  0  0  0  0  0  0  0  0  0  0
   -8.8355   18.8551  -33.1765 H   0  0  0  0  0  0  0  0  0  0  0  0
   -6.4216   19.4901  -33.1630 H   0  0  0  0  0  0  0  0  0  0  0  0
   -5.6941   21.6227  -32.0904 H   0  0  0  0  0  0  0  0  0  0  0  0
  1  2  1  0
  2  3  1  0
  3  4  1  0
  4  5  1  0
  3  6  1  0
  6  7  1  0
  7  8  1  0
  8  9  1  0
  9 10  1  0
 10 11  1  0
 11 12  1  0
 12 13  2  0
 13 14  1  0
 14 15  2  0
 15 16  1  0
 16 17  2  0
 17 12  1  0
  1 18  1  0
  1 19  1  0
  1 20  1  0
  2 21  1  0
  2 22  1  0
  4 23  1  0
  4 24  1  0
  5 25  1  0
  5 26  1  0
  5 27  1  0
  6 28  1  0
  6 29  1  0
  7 30  1  0
  7 31  1  0
  8 32  1  0
  9 33  1  0
  9 34  1  0
 10 35  1  0
 10 36  1  0
 11 37  1  0
 11 38  1  0
 13 39  1  0
 14 40  1  0
 15 41  1  0
 16 42  1  0
 17 43  1  0
M  END
>  <UniqueID>  (4) 
4

>  <SMILES>  (4) 
CCN(CC)CCNCCCc1ccccc1

>  <Energy>  (4) 
40.8634300856447

>  <Genealogy>  (4) 
CCN(CC)CCNCCCc1ccccc1 (3D coordinates assigned)
CCN(CC)CCNCCCc1ccccc1 (optimized conformer: 40.8634300856447 kcal/mol)

>  <smiles>  (4) 
CCN(CC)CCNCCCc1ccccc1

>  <score_type>  (4) 
oracle

>  <origin>  (4) 
adg

>  <m_score__min__energy>  (4) 
-6.7699999999999996

>  <m_primary>  (4) 
energy

$$$$
4:0
     RDKit          3D

 35 36  0  0  0  0  0  0  0  0999 V2000
   -3.3970   19.0130  -33.8690 C   0  0  0  0  0  0  0  0  0  0  0  0
   -2.1790   19.9350  -33.8670 C   0  0  0  0  0  0  0  0  0  0  0  0
   -2.5910   21.3460  -33.7720 N   0  0  0  0  0  0  0  0  0  0  0  0
   -2.6520   21.8120  -32.3740 C   0  0  0  0  0  0  0  0  0  0  0  0
   -4.0610   21.7020  -31.7670 C   0  0  0  0  0  0  0  0  0  0  0  0
   -5.0760   22.1510  -32.7200 N   0  0  0  0  0  0  0  0  0  0  0  0
   -6.4870   22.0130  -32.4710 C   0  0  0  0  0  0  0  0  0  0  0  0
   -7.2670   23.1640  -32.2690 C   0  0  0  0  0  0  0  0  0  0  0  0
   -8.6250   23.0630  -31.9690 C   0  0  0  0  0  0  0  0  0  0  0  0
   -9.2300   21.8130  -31.8590 C   0  0  0  0  0  0  0  0  0  0  0  0
   -8.4790   20.6470  -32.0580 C   0  0  0  0  0  0  0  0  0  0  0  0
   -9.0960   19.3900  -31.9540 C   0  0  0  0  0  0  0  0  0  0  0  0
   -8.3590   18.2240  -32.1690 C   0  0  0  0  0  0  0  0  0  0  0  0
   -7.0050   18.3030  -32.4970 C   0  0  0  0  0  0  0  0  0  0  0  0
   -6.3750   19.5450  -32.6020 C   0  0  0  0  0  0  0  0  0  0  0  0
   -7.0950   20.7370  -32.3710 C   0  0  0  0  0  0  0  0  0  0  0  0
   -3.6904   18.7909  -32.8324 H   0  0  0  0  0  0  0  0  0  0  0  0
   -4.2309   19.5082  -34.3880 H   0  0  0  0  0  0  0  0  0  0  0  0
   -3.1467   18.0760  -34.3880 H   0  0  0  0  0  0  0  0  0  0  0  0
   -1.5405   19.6871  -33.0063 H   0  0  0  0  0  0  0  0  0  0  0  0
   -1.6268   19.7916  -34.8075 H   0  0  0  0  0  0  0  0  0  0  0  0
   -3.5140   21.4860  -34.2440 H   0  0  0  0  0  0  0  0  0  0  0  0
   -1.8820   21.9290  -34.2760 H   0  0  0  0  0  0  0  0  0  0  0  0
   -1.9617   21.2039  -31.7710 H   0  0  0  0  0  0  0  0  0  0  0  0
   -2.3724   22.8759  -32.3683 H   0  0  0  0  0  0  0  0  0  0  0  0
   -4.2571   20.6532  -31.4994 H   0  0  0  0  0  0  0  0  0  0  0  0
   -4.1099   22.3419  -30.8736 H   0  0  0  0  0  0  0  0  0  0  0  0
   -4.7550   22.7140  -33.5390 H   0  0  0  0  0  0  0  0  0  0  0  0
   -6.8006   24.1571  -32.3485 H   0  0  0  0  0  0  0  0  0  0  0  0
   -9.2215   23.9749  -31.8185 H   0  0  0  0  0  0  0  0  0  0  0  0
  -10.3002   21.7412  -31.6152 H   0  0  0  0  0  0  0  0  0  0  0  0
  -10.1647   19.3237  -31.7020 H   0  0  0  0  0  0  0  0  0  0  0  0
   -8.8462   17.2418  -32.0797 H   0  0  0  0  0  0  0  0  0  0  0  0
   -6.4305   17.3817  -32.6739 H   0  0  0  0  0  0  0  0  0  0  0  0
   -5.3086   19.5948  -32.8670 H   0  0  0  0  0  0  0  0  0  0  0  0
  1  2  1  0
  2  3  1  0
  3  4  1  0
  4  5  1  0
  5  6  1  0
  6  7  1  0
  7  8  2  0
  8  9  1  0
  9 10  2  0
 10 11  1  0
 11 12  2  0
 12 13  1  0
 13 14  2  0
 14 15  1  0
 15 16  2  0
 16  7  1  0
 16 11  1  0
  1 17  1  0
  1 18  1  0
  1 19  1  0
  2 20  1  0
  2 21  1  0
  3 22  1  0
  3 23  1  0
  4 24  1  0
  4 25  1  0
  5 26  1  0
  5 27  1  0
  6 28  1  0
  8 29  1  0
  9 30  1  0
 10 31  1  0
 12 32  1  0
 13 33  1  0
 14 34  1  0
 15 35  1  0
M  CHG  1   3   1
M  END
>  <UniqueID>  (5) 
5

>  <SMILES>  (5) 
CC[NH2+]CCNc1cccc2ccccc12

>  <Energy>  (5) 
38.50876673708754

>  <Genealogy>  (5) 
CC[NH2+]CCNc1cccc2ccccc12 (protonated)
CC[NH2+]CCNc1cccc2ccccc12 (3D coordinates assigned)
CC[NH2+]CCNc1cccc2ccccc12 (optimized conformer: 38.50876673708754 kcal/mol)

>  <smiles>  (5) 
CCNCCNc1cccc2ccccc12

>  <score_type>  (5) 
oracle

>  <origin>  (5) 
adg

>  <m_score__min__energy>  (5) 
-6.7300000000000004

>  <m_primary>  (5) 
energy

$$$$
5:0
     RDKit          3D

 56 58  0  0  0  0  0  0  0  0999 V2000
   -0.8280   27.1770  -24.1210 C   0  0  0  0  0  0  0  0  0  0  0  0
   -0.9550   26.8630  -25.6160 C   0  0  0  0  0  0  0  0  0  0  0  0
   -1.3780   25.4530  -25.8660 N   0  0  0  0  0  0  0  0  0  0  0  0
   -0.8460   24.5060  -24.8550 C   0  0  0  0  0  0  0  0  0  0  0  0
   -0.4760   23.1460  -25.4550 C   0  0  0  0  0  0  0  0  0  0  0  0
   -2.8570   25.3340  -25.9930 C   0  0  0  0  0  0  0  0  0  0  0  0
   -3.3470   24.6410  -27.2880 C   0  0  0  0  0  0  0  0  0  0  0  0
   -2.2710   24.0890  -28.0230 O   0  0  0  0  0  0  0  0  0  0  0  0
   -2.7250   23.3340  -29.1330 C   0  0  0  0  0  0  0  0  0  0  0  0
   -4.1240   23.7860  -29.5900 C   0  0  0  0  0  0  0  0  0  0  0  0
   -4.1920   24.1550  -31.0140 N   0  0  0  0  0  0  0  0  0  0  0  0
   -5.5350   24.5620  -31.4540 C   0  0  0  0  0  0  0  0  0  0  0  0
   -6.4250   23.3620  -31.6620 C   0  0  0  0  0  0  0  0  0  0  0  0
   -7.7790   23.4130  -31.2730 C   0  0  0  0  0  0  0  0  0  0  0  0
   -8.6280   22.3080  -31.4750 C   0  0  0  0  0  0  0  0  0  0  0  0
   -8.1380   21.1330  -32.0620 C   0  0  0  0  0  0  0  0  0  0  0  0
   -6.7980   21.0960  -32.4400 C   0  0  0  0  0  0  0  0  0  0  0  0
   -5.9520   22.1770  -32.2540 C   0  0  0  0  0  0  0  0  0  0  0  0
   -4.5650   21.8690  -32.7560 C   0  0  0  0  0  0  0  0  0  0  0  0
   -4.7450   20.4600  -33.2340 C   0  0  0  0  0  0  0  0  0  0  0  0
   -3.7820   19.6230  -33.7990 C   0  0  0  0  0  0  0  0  0  0  0  0
   -4.1640   18.3260  -34.1850 C   0  0  0  0  0  0  0  0  0  0  0  0
   -5.4920   17.8900  -34.0050 C   0  0  0  0  0  0  0  0  0  0  0  0
   -6.4470   18.7430  -33.4310 C   0  0  0  0  0  0  0  0  0  0  0  0
   -6.0430   20.0240  -33.0540 C   0  0  0  0  0  0  0  0  0  0  0  0
   -1.1769   26.3144  -23.5342 H   0  0  0  0  0  0  0  0  0  0  0  0
    0.2246   27.3842  -23.8780 H   0  0  0  0  0  0  0  0  0  0  0  0
   -1.4406   28.0577  -23.8780 H   0  0  0  0  0  0  0  0  0  0  0  0
   -1.7017   27.5396  -26.0572 H   0  0  0  0  0  0  0  0  0  0  0  0
    0.0352   27.0030  -26.0741 H   0  0  0  0  0  0  0  0  0  0  0  0
   -1.0100   25.1470  -26.7990 H   0  0  0  0  0  0  0  0  0  0  0  0
    0.0535   24.9461  -24.3997 H   0  0  0  0  0  0  0  0  0  0  0  0
   -1.6376   24.3360  -24.1104 H   0  0  0  0  0  0  0  0  0  0  0  0
   -0.2808   22.4285  -24.6444 H   0  0  0  0  0  0  0  0  0  0  0  0
   -1.3074   22.7807  -26.0757 H   0  0  0  0  0  0  0  0  0  0  0  0
    0.4259   23.2522  -26.0757 H   0  0  0  0  0  0  0  0  0  0  0  0
   -3.2281   24.7551  -25.1344 H   0  0  0  0  0  0  0  0  0  0  0  0
   -3.2472   26.3619  -26.0269 H   0  0  0  0  0  0  0  0  0  0  0  0
   -4.0460   23.8354  -27.0191 H   0  0  0  0  0  0  0  0  0  0  0  0
   -3.8411   25.3965  -27.9165 H   0  0  0  0  0  0  0  0  0  0  0  0
   -2.0181   23.4629  -29.9659 H   0  0  0  0  0  0  0  0  0  0  0  0
   -2.7857   22.2783  -28.8301 H   0  0  0  0  0  0  0  0  0  0  0  0
   -4.8307   22.9623  -29.4107 H   0  0  0  0  0  0  0  0  0  0  0  0
   -4.3747   24.6879  -29.0123 H   0  0  0  0  0  0  0  0  0  0  0  0
   -3.5190   24.9310  -31.2150 H   0  0  0  0  0  0  0  0  0  0  0  0
   -5.9822   25.2126  -30.6880 H   0  0  0  0  0  0  0  0  0  0  0  0
   -5.4420   25.0980  -32.4101 H   0  0  0  0  0  0  0  0  0  0  0  0
   -8.1767   24.3263  -30.8064 H   0  0  0  0  0  0  0  0  0  0  0  0
   -9.6832   22.3671  -31.1700 H   0  0  0  0  0  0  0  0  0  0  0  0
   -8.7938   20.2641  -32.2197 H   0  0  0  0  0  0  0  0  0  0  0  0
   -4.2733   22.5407  -33.5768 H   0  0  0  0  0  0  0  0  0  0  0  0
   -3.7706   21.9972  -32.0060 H   0  0  0  0  0  0  0  0  0  0  0  0
   -2.7476   19.9699  -33.9392 H   0  0  0  0  0  0  0  0  0  0  0  0
   -3.4216   17.6474  -34.6303 H   0  0  0  0  0  0  0  0  0  0  0  0
   -5.7815   16.8754  -34.3162 H   0  0  0  0  0  0  0  0  0  0  0  0
   -7.4851   18.4109  -33.2825 H   0  0  0  0  0  0  0  0  0  0  0  0
  1  2  1  0
  2  3  1  0
  3  4  1  0
  4  5  1  0
  3  6  1  0
  6  7  1  0
  7  8  1  0
  8  9  1  0
  9 10  1  0
 10 11  1  0
 11 12  1  0
 12 13  1  0
 13 14  2  0
 14 15  1  0
 15 16  2  0
 16 17  1  0
 17 18  2  0
 18 19  1  0
 19 20  1  0
 20 21  2  0
 21 22  1  0
 22 23  2  0
 23 24  1  0
 24 25  2  0
 18 13  1  0
 25 20  1  0
 25 17  1  0
  1 26  1  0
  1 27  1  0
  1 28  1  0
  2 29  1  0
  2 30  1  0
  3 31  1  0
  4 32  1  0
  4 33  1  0
  5 34  1  0
  5 35  1  0
  5 36  1  0
  6 37  1  0
  6 38  1  0
  7 39  1  0
  7 40  1  0
  9 41  1  0
  9 42  1  0
 10 43  1  0
 10 44  1  0
 11 45  1  0
 12 46  1  0
 12 47  1  0
 14 48  1  0
 15 49  1  0
 16 50  1  0
 19 51  1  0
 19 52  1  0
 21 53  1  0
 22 54  1  0
 23 55  1  0
 24 56  1  0
M  CHG  1   3   1
M  END
>  <UniqueID>  (6) 
6

>  <SMILES>  (6) 
CC[NH+](CC)CCOCCNCc1cccc2c1Cc1ccccc1-2

>  <Energy>  (6) 
85.98610663045181

>  <Genealogy>  (6) 
CC[NH+](CC)CCOCCNCc1cccc2c1Cc1ccccc1-2 (protonated)
CC[NH+](CC)CCOCCNCc1cccc2c1Cc1ccccc1-2 (3D coordinates assigned)
CC[NH+](CC)CCOCCNCc1cccc2c1Cc1ccccc1-2 (nonaromatic ring conformer: 85.98610663045181 kcal/mol)

>  <smiles>  (6) 
CCN(CC)CCOCCNCc1cccc2c1Cc1ccccc1-2

>  <score_type>  (6) 
oracle

>  <origin>  (6) 
adg

>  <m_score__min__energy>  (6) 
-8.2699999999999996

>  <m_primary>  (6) 
energy

$$$$
6:0
     RDKit          3D

 67 70  0  0  0  0  0  0  0  0999 V2000
   -0.0970   19.0950  -29.8280 C   0  0  0  0  0  0  0  0  0  0  0  0
   -0.4520   19.0300  -28.3370 C   0  0  0  0  0  0  0  0  0  0  0  0
   -1.3090   20.1420  -27.8720 N   0  0  0  0  0  0  0  0  0  0  0  0
   -1.9380   19.9990  -26.5400 C   0  0  0  0  0  0  0  0  0  0  0  0
   -3.0470   18.9390  -26.4790 C   0  0  0  0  0  0  0  0  0  0  0  0
   -2.1190   20.8200  -28.9060 C   0  0  0  0  0  0  0  0  0  0  0  0
   -1.5990   22.2390  -29.1190 C   0  0  0  0  0  0  0  0  0  0  0  0
   -2.6310   23.0450  -29.6490 O   0  0  0  0  0  0  0  0  0  0  0  0
   -3.6170   23.3040  -28.6660 C   0  0  0  0  0  0  0  0  0  0  0  0
   -4.4360   24.5360  -29.0570 C   0  0  0  0  0  0  0  0  0  0  0  0
   -4.1700   24.8970  -30.4010 O   0  0  0  0  0  0  0  0  0  0  0  0
   -5.3650   25.0060  -31.1520 C   0  0  0  0  0  0  0  0  0  0  0  0
   -5.5680   23.7550  -32.0070 C   0  0  0  0  0  0  0  0  0  0  0  0
   -4.6190   22.7100  -31.6240 N   0  0  0  0  0  0  0  0  0  0  0  0
   -4.5880   21.4460  -32.3020 C   0  0  0  0  0  0  0  0  0  0  0  0
   -3.3790   20.9060  -32.8030 C   0  0  0  0  0  0  0  0  0  0  0  0
   -2.1470   21.5450  -32.5490 C   0  0  0  0  0  0  0  0  0  0  0  0
   -0.9620   21.0400  -33.0780 C   0  0  0  0  0  0  0  0  0  0  0  0
   -0.9790   19.8950  -33.8660 C   0  0  0  0  0  0  0  0  0  0  0  0
   -2.1770   19.2250  -34.1120 C   0  0  0  0  0  0  0  0  0  0  0  0
   -3.3990   19.6890  -33.5640 C   0  0  0  0  0  0  0  0  0  0  0  0
   -4.5890   19.0010  -33.7580 N   0  0  0  0  0  0  0  0  0  0  0  0
   -4.6150   17.7060  -34.4630 C   0  0  0  0  0  0  0  0  0  0  0  0
   -5.7480   19.5550  -33.2760 C   0  0  0  0  0  0  0  0  0  0  0  0
   -7.0050   19.0750  -33.4530 N   0  0  0  0  0  0  0  0  0  0  0  0
   -7.8080   19.9440  -32.8120 C   0  0  0  0  0  0  0  0  0  0  0  0
   -9.1980   19.8760  -32.7170 C   0  0  0  0  0  0  0  0  0  0  0  0
   -9.8620   20.8850  -31.9990 C   0  0  0  0  0  0  0  0  0  0  0  0
   -9.1320   21.9290  -31.3960 C   0  0  0  0  0  0  0  0  0  0  0  0
   -7.7320   21.9800  -31.5070 C   0  0  0  0  0  0  0  0  0  0  0  0
   -7.0910   20.9710  -32.2340 C   0  0  0  0  0  0  0  0  0  0  0  0
   -5.7600   20.7290  -32.5440 C   0  0  0  0  0  0  0  0  0  0  0  0
    0.9794   19.2921  -29.9404 H   0  0  0  0  0  0  0  0  0  0  0  0
   -0.3461   18.1363  -30.3064 H   0  0  0  0  0  0  0  0  0  0  0  0
   -0.6697   19.9032  -30.3064 H   0  0  0  0  0  0  0  0  0  0  0  0
   -0.9808   18.0840  -28.1486 H   0  0  0  0  0  0  0  0  0  0  0  0
    0.4946   19.1050  -27.7817 H   0  0  0  0  0  0  0  0  0  0  0  0
   -1.1563   19.7226  -25.8171 H   0  0  0  0  0  0  0  0  0  0  0  0
   -2.4104   20.9649  -26.3078 H   0  0  0  0  0  0  0  0  0  0  0  0
   -3.2821   18.7143  -25.4282 H   0  0  0  0  0  0  0  0  0  0  0  0
   -3.9473   19.3209  -26.9826 H   0  0  0  0  0  0  0  0  0  0  0  0
   -2.7062   18.0223  -26.9826 H   0  0  0  0  0  0  0  0  0  0  0  0
   -2.0498   20.2598  -29.8501 H   0  0  0  0  0  0  0  0  0  0  0  0
   -3.1679   20.8621  -28.5772 H   0  0  0  0  0  0  0  0  0  0  0  0
   -1.2660   22.6556  -28.1569 H   0  0  0  0  0  0  0  0  0  0  0  0
   -0.7533   22.2175  -29.8221 H   0  0  0  0  0  0  0  0  0  0  0  0
   -4.2851   22.4341  -28.5824 H   0  0  0  0  0  0  0  0  0  0  0  0
   -3.1237   23.4902  -27.7006 H   0  0  0  0  0  0  0  0  0  0  0  0
   -5.5069   24.3097  -28.9472 H   0  0  0  0  0  0  0  0  0  0  0  0
   -4.1585   25.3734  -28.3999 H   0  0  0  0  0  0  0  0  0  0  0  0
   -6.2167   25.1186  -30.4651 H   0  0  0  0  0  0  0  0  0  0  0  0
   -5.2954   25.8837  -31.8114 H   0  0  0  0  0  0  0  0  0  0  0  0
   -6.5931   23.3822  -31.8646 H   0  0  0  0  0  0  0  0  0  0  0  0
   -5.4011   24.0160  -33.0625 H   0  0  0  0  0  0  0  0  0  0  0  0
   -4.0740   22.8230  -30.7390 H   0  0  0  0  0  0  0  0  0  0  0  0
   -2.1223   22.4516  -31.9266 H   0  0  0  0  0  0  0  0  0  0  0  0
   -0.0090   21.5490  -32.8715 H   0  0  0  0  0  0  0  0  0  0  0  0
   -0.0416   19.5150  -34.2982 H   0  0  0  0  0  0  0  0  0  0  0  0
   -2.1736   18.3226  -34.7410 H   0  0  0  0  0  0  0  0  0  0  0  0
   -4.6314   16.8883  -33.7274 H   0  0  0  0  0  0  0  0  0  0  0  0
   -5.5145   17.6499  -35.0937 H   0  0  0  0  0  0  0  0  0  0  0  0
   -3.7185   17.6138  -35.0937 H   0  0  0  0  0  0  0  0  0  0  0  0
   -7.3270   18.2420  -33.9920 H   0  0  0  0  0  0  0  0  0  0  0  0
   -9.7581   19.0562  -33.1905 H   0  0  0  0  0  0  0  0  0  0  0  0
  -10.9579   20.8599  -31.9070 H   0  0  0  0  0  0  0  0  0  0  0  0
   -9.6629   22.7110  -30.8334 H   0  0  0  0  0  0  0  0  0  0  0  0
   -7.1564   22.7903  -31.0356 H   0  0  0  0  0  0  0  0  0  0  0  0
  1  2  1  0
  2  3  1  0
  3  4  1  0
  4  5  1  0
  3  6  1  0
  6  7  1  0
  7  8  1  0
  8  9  1  0
  9 10  1  0
 10 11  1  0
 11 12  1  0
 12 13  1  0
 13 14  1  0
 14 15  1  0
 15 16  2  0
 16 17  1  0
 17 18  2  0
 18 19  1  0
 19 20  2  0
 20 21  1  0
 21 22  2  0
 22 23  1  0
 22 24  1  0
 24 25  1  0
 25 26  1  0
 26 27  2  0
 27 28  1  0
 28 29  2  0
 29 30  1  0
 30 31  2  0
 31 32  1  0
 32 15  1  0
 21 16  1  0
 32 24  2  0
 31 26  1  0
  1 33  1  0
  1 34  1  0
  1 35  1  0
  2 36  1  0
  2 37  1  0
  4 38  1  0
  4 39  1  0
  5 40  1  0
  5 41  1  0
  5 42  1  0
  6 43  1  0
  6 44  1  0
  7 45  1  0
  7 46  1  0
  9 47  1  0
  9 48  1  0
 10 49  1  0
 10 50  1  0
 12 51  1  0
 12 52  1  0
 13 53  1  0
 13 54  1  0
 14 55  1  0
 17 56  1  0
 18 57  1  0
 19 58  1  0
 20 59  1  0
 23 60  1  0
 23 61  1  0
 23 62  1  0
 25 63  1  0
 27 64  1  0
 28 65  1  0
 29 66  1  0
 30 67  1  0
M  CHG  1  22   1
M  END
>  <UniqueID>  (7) 
7

>  <SMILES>  (7) 
CCN(CC)CCOCCOCCNc1c2ccccc2[n+](C)c2[nH]c3ccccc3c12

>  <Energy>  (7) 
135.45829281280422

>  <Genealogy>  (7) 
CCN(CC)CCOCCOCCNc1c2ccccc2[n+](C)c2[nH]c3ccccc3c12 (3D coordinates assigned)
CCN(CC)CCOCCOCCNc1c2ccccc2[n+](C)c2[nH]c3ccccc3c12 (optimized conformer: 135.45829281280422 kcal/mol)

>  <smiles>  (7) 
CCN(CC)CCOCCOCCNc1c2ccccc2[n+](C)c2[nH]c3ccccc3c12

>  <score_type>  (7) 
oracle

>  <origin>  (7) 
adg

>  <m_score__min__energy>  (7) 
-9.3100000000000005

>  <m_primary>  (7) 
energy

$$$$
7:0
     RDKit          3D

 45 46  0  0  0  0  0  0  0  0999 V2000
   -2.0218   21.7000  -28.6752 H   0  0  0  0  0  0  0  0  0  0  0  0
   -2.5470   22.6610  -28.5720 C   0  0  0  0  0  0  0  0  0  0  0  0
   -3.7980   22.7290  -28.9260 N   0  0  0  0  0  0  0  0  0  0  0  0
   -4.3180   22.3660  -30.2430 C   0  0  0  0  0  0  0  0  0  0  0  0
   -4.0818   21.3118  -30.4499 H   0  0  0  0  0  0  0  0  0  0  0  0
   -3.8528   23.0091  -31.0046 H   0  0  0  0  0  0  0  0  0  0  0  0
   -5.8360   22.5620  -30.2790 C   0  0  0  0  0  0  0  0  0  0  0  0
   -6.2092   22.6609  -29.2490 H   0  0  0  0  0  0  0  0  0  0  0  0
   -6.2875   21.6895  -30.7740 H   0  0  0  0  0  0  0  0  0  0  0  0
   -6.2030   23.7760  -31.0440 N   0  0  0  0  0  0  0  0  0  0  0  0
   -6.7180   23.4140  -32.3840 C   0  0  0  0  0  0  0  0  0  0  0  0
   -7.3974   24.2041  -32.7364 H   0  0  0  0  0  0  0  0  0  0  0  0
   -5.8688   23.3084  -33.0752 H   0  0  0  0  0  0  0  0  0  0  0  0
   -7.4650   22.1070  -32.3260 C   0  0  0  0  0  0  0  0  0  0  0  0
   -6.8490   20.9100  -32.7300 C   0  0  0  0  0  0  0  0  0  0  0  0
   -5.8168   20.9250  -33.1099 H   0  0  0  0  0  0  0  0  0  0  0  0
   -7.5460   19.6990  -32.6500 C   0  0  0  0  0  0  0  0  0  0  0  0
   -7.0612   18.7641  -32.9677 H   0  0  0  0  0  0  0  0  0  0  0  0
   -8.8570   19.6760  -32.1670 C   0  0  0  0  0  0  0  0  0  0  0  0
   -9.4032   18.7232  -32.1055 H   0  0  0  0  0  0  0  0  0  0  0  0
   -9.4750   20.8620  -31.7620 C   0  0  0  0  0  0  0  0  0  0  0  0
  -10.5079   20.8426  -31.3841 H   0  0  0  0  0  0  0  0  0  0  0  0
   -8.7810   22.0730  -31.8370 C   0  0  0  0  0  0  0  0  0  0  0  0
   -9.2681   23.0040  -31.5114 H   0  0  0  0  0  0  0  0  0  0  0  0
   -7.1590   24.6370  -30.3010 C   0  0  0  0  0  0  0  0  0  0  0  0
   -7.8368   24.0055  -29.7079 H   0  0  0  0  0  0  0  0  0  0  0  0
   -7.7454   25.2346  -31.0145 H   0  0  0  0  0  0  0  0  0  0  0  0
   -6.3840   25.5720  -29.3670 C   0  0  0  0  0  0  0  0  0  0  0  0
   -7.0096   25.8066  -28.4932 H   0  0  0  0  0  0  0  0  0  0  0  0
   -6.1331   26.4894  -29.9197 H   0  0  0  0  0  0  0  0  0  0  0  0
   -5.1420   24.9490  -28.9120 N   0  0  0  0  0  0  0  0  0  0  0  0
   -5.3520   24.1770  -28.2380 H   0  0  0  0  0  0  0  0  0  0  0  0
   -4.5300   25.6620  -28.4530 H   0  0  0  0  0  0  0  0  0  0  0  0
   -4.6350   24.5510  -29.7360 H   0  0  0  0  0  0  0  0  0  0  0  0
   -1.8050   23.8170  -28.0390 C   0  0  0  0  0  0  0  0  0  0  0  0
   -0.9300   23.6320  -26.9600 C   0  0  0  0  0  0  0  0  0  0  0  0
   -0.7994   22.6293  -26.5270 H   0  0  0  0  0  0  0  0  0  0  0  0
   -0.2220   24.7160  -26.4310 C   0  0  0  0  0  0  0  0  0  0  0  0
    0.6120   24.5330  -25.3790 F   0  0  0  0  0  0  0  0  0  0  0  0
   -0.3780   25.9890  -26.9870 C   0  0  0  0  0  0  0  0  0  0  0  0
    0.1719   26.8434  -26.5655 H   0  0  0  0  0  0  0  0  0  0  0  0
   -1.2310   26.1780  -28.0770 C   0  0  0  0  0  0  0  0  0  0  0  0
   -1.3439   27.1793  -28.5181 H   0  0  0  0  0  0  0  0  0  0  0  0
   -1.9420   25.0970  -28.6090 C   0  0  0  0  0  0  0  0  0  0  0  0
   -2.7710   25.2970  -29.7090 O   0  0  0  0  0  0  0  0  0  0  0  0
  1  2  1  0
  2  3  2  0
  3  4  1  0
  4  5  1  0
  4  6  1  0
  4  7  1  0
  7  8  1  0
  7  9  1  0
  7 10  1  0
 10 11  1  0
 11 12  1  0
 11 13  1  0
 11 14  1  0
 14 15  2  0
 15 16  1  0
 15 17  1  0
 17 18  1  0
 17 19  2  0
 19 20  1  0
 19 21  1  0
 21 22  1  0
 21 23  2  0
 23 24  1  0
 10 25  1  0
 25 26  1  0
 25 27  1  0
 25 28  1  0
 28 29  1  0
 28 30  1  0
 28 31  1  0
 31 32  1  0
 31 33  1  0
 31 34  1  0
  2 35  1  0
 35 36  2  0
 36 37  1  0
 36 38  1  0
 38 39  1  0
 38 40  2  0
 40 41  1  0
 40 42  1  0
 42 43  1  0
 42 44  2  0
 44 45  1  0
 23 14  1  0
 44 35  1  0
M  CHG  2  31   1  45  -1
M  END
>  <UniqueID>  (8) 
8

>  <SMILES>  (8) 
[NH3+]CCN(CC/N=C\c1cc(F)ccc1[O-])Cc1ccccc1

>  <Energy>  (8) 
49.88280759364982

>  <Genealogy>  (8) 
[NH3+]CCN(CCN=Cc1cc(F)ccc1[O-])Cc1ccccc1 (protonated)
[NH3+]CCN(CC/N=C\c1cc(F)ccc1[O-])Cc1ccccc1 (cis-trans isomerization)
[NH3+]CCN(CC/N=C\c1cc(F)ccc1[O-])Cc1ccccc1 (3D coordinates assigned)
[NH3+]CCN(CC/N=C\c1cc(F)ccc1[O-])Cc1ccccc1 (optimized conformer: 49.88280759364982 kcal/mol)

>  <smiles>  (8) 
NCCN(CCN=Cc1cc(F)ccc1O)Cc1ccccc1

>  <score_type>  (8) 
oracle

>  <origin>  (8) 
adg

>  <m_score__min__energy>  (8) 
-9.2699999999999996

>  <m_primary>  (8) 
energy

$$$$
8:0
     RDKit          3D

 14 14  0  0  0  0  0  0  0  0999 V2000
   -5.7170   26.4580  -30.1110 O   0  0  0  0  0  0  0  0  0  0  0  0
   -5.2520   25.3830  -30.5440 N   0  0  0  0  0  0  0  0  0  0  0  0
   -3.9050   25.3020  -30.8120 O   0  0  0  0  0  0  0  0  0  0  0  0
   -6.1070   24.2470  -30.7640 C   0  0  0  0  0  0  0  0  0  0  0  0
   -6.2550   23.7000  -32.0510 C   0  0  0  0  0  0  0  0  0  0  0  0
   -7.0890   22.5990  -32.2400 C   0  0  0  0  0  0  0  0  0  0  0  0
   -7.7700   22.0480  -31.1560 C   0  0  0  0  0  0  0  0  0  0  0  0
   -7.6050   22.6110  -29.8910 C   0  0  0  0  0  0  0  0  0  0  0  0
   -6.7880   23.6860  -29.7180 N   0  0  0  0  0  0  0  0  0  0  0  0
   -5.7158   24.1383  -32.9037 H   0  0  0  0  0  0  0  0  0  0  0  0
   -7.2095   22.1655  -33.2438 H   0  0  0  0  0  0  0  0  0  0  0  0
   -8.4299   21.1792  -31.2967 H   0  0  0  0  0  0  0  0  0  0  0  0
   -8.1378   22.1842  -29.0284 H   0  0  0  0  0  0  0  0  0  0  0  0
   -6.6900   24.0810  -28.7560 H   0  0  0  0  0  0  0  0  0  0  0  0
  1  2  2  0
  2  3  1  0
  2  4  1  0
  4  5  2  0
  5  6  1  0
  6  7  2  0
  7  8  1  0
  8  9  2  0
  9  4  1  0
  5 10  1  0
  6 11  1  0
  7 12  1  0
  8 13  1  0
  9 14  1  0
M  CHG  3   2   1   3  -1   9   1
M  END
>  <UniqueID>  (9) 
9

>  <SMILES>  (9) 
O=[N+]([O-])c1cccc[nH+]1

>  <Energy>  (9) 
13.61060476343375

>  <Genealogy>  (9) 
O=[N+]([O-])c1cccc[nH+]1 (protonated)
O=[N+]([O-])c1cccc[nH+]1 (3D coordinates assigned)
O=[N+]([O-])c1cccc[nH+]1 (optimized conformer: 13.61060476343375 kcal/mol)

>  <smiles>  (9) 
O=[N+]([O-])c1ccccn1

>  <score_type>  (9) 
oracle

>  <origin>  (9) 
adg

>  <m_score__min__energy>  (9) 
-4.54

>  <m_primary>  (9) 
energy

$$$$
9:0
     RDKit          3D

 61 63  0  0  0  0  0  0  0  0999 V2000
   -4.6300   14.5600  -32.0790 C   0  0  0  0  0  0  0  0  0  0  0  0
   -5.0450   15.9880  -32.4610 C   0  0  0  0  0  0  0  0  0  0  0  0
   -5.3950   16.1570  -33.8880 N   0  0  0  0  0  0  0  0  0  0  0  0
   -6.8380   15.9900  -34.1550 C   0  0  0  0  0  0  0  0  0  0  0  0
   -7.1330   14.5590  -34.5910 C   0  0  0  0  0  0  0  0  0  0  0  0
   -4.7730   17.6540  -34.5590 S   0  0  0  0  0  0  0  0  0  0  0  0
   -3.2780   17.6940  -34.4050 O   0  0  0  0  0  0  0  0  0  0  0  0
   -5.1000   17.7470  -36.0240 O   0  0  0  0  0  0  0  0  0  0  0  0
   -5.4440   19.0400  -33.7000 C   0  0  0  0  0  0  0  0  0  0  0  0
   -6.8130   19.2920  -33.7690 C   0  0  0  0  0  0  0  0  0  0  0  0
   -7.3660   20.3900  -33.1100 C   0  0  0  0  0  0  0  0  0  0  0  0
   -6.5550   21.2760  -32.3620 C   0  0  0  0  0  0  0  0  0  0  0  0
   -5.1600   21.0080  -32.2870 C   0  0  0  0  0  0  0  0  0  0  0  0
   -4.6200   19.8950  -32.9620 C   0  0  0  0  0  0  0  0  0  0  0  0
   -4.3340   21.8570  -31.5300 C   0  0  0  0  0  0  0  0  0  0  0  0
   -3.0940   21.6320  -31.4470 O   0  0  0  0  0  0  0  0  0  0  0  0
   -4.8920   22.9440  -30.8460 C   0  0  0  0  0  0  0  0  0  0  0  0
   -4.0480   23.8550  -30.0350 C   0  0  0  0  0  0  0  0  0  0  0  0
   -3.7840   25.0010  -30.4920 O   0  0  0  0  0  0  0  0  0  0  0  0
   -3.5340   23.4680  -28.7390 N   0  0  0  0  0  0  0  0  0  0  0  0
   -3.2160   22.0540  -28.4560 C   0  0  0  0  0  0  0  0  0  0  0  0
   -1.7030   21.7940  -28.2790 C   0  0  0  0  0  0  0  0  0  0  0  0
   -0.7780   22.8810  -28.8510 C   0  0  0  0  0  0  0  0  0  0  0  0
   -0.6250   24.1110  -27.9450 C   0  0  0  0  0  0  0  0  0  0  0  0
   -1.7650   25.1410  -28.0370 C   0  0  0  0  0  0  0  0  0  0  0  0
   -3.1660   24.5450  -27.7980 C   0  0  0  0  0  0  0  0  0  0  0  0
   -6.2640   23.1840  -30.9590 C   0  0  0  0  0  0  0  0  0  0  0  0
   -7.0760   22.3780  -31.7100 N   0  0  0  0  0  0  0  0  0  0  0  0
   -8.5110   22.7290  -31.7550 C   0  0  0  0  0  0  0  0  0  0  0  0
   -9.3410   21.7080  -30.9810 C   0  0  0  0  0  0  0  0  0  0  0  0
   -4.6029   14.4668  -30.9833 H   0  0  0  0  0  0  0  0  0  0  0  0
   -5.3573   13.8444  -32.4900 H   0  0  0  0  0  0  0  0  0  0  0  0
   -3.6324   14.3457  -32.4900 H   0  0  0  0  0  0  0  0  0  0  0  0
   -5.9205   16.2662  -31.8559 H   0  0  0  0  0  0  0  0  0  0  0  0
   -4.1734   16.6316  -32.2712 H   0  0  0  0  0  0  0  0  0  0  0  0
   -7.4049   16.2146  -33.2395 H   0  0  0  0  0  0  0  0  0  0  0  0
   -7.1350   16.6780  -34.9603 H   0  0  0  0  0  0  0  0  0  0  0  0
   -7.2638   13.9244  -33.7021 H   0  0  0  0  0  0  0  0  0  0  0  0
   -8.0537   14.5414  -35.1927 H   0  0  0  0  0  0  0  0  0  0  0  0
   -6.2944   14.1788  -35.1927 H   0  0  0  0  0  0  0  0  0  0  0  0
   -7.4629   18.6194  -34.3480 H   0  0  0  0  0  0  0  0  0  0  0  0
   -8.4494   20.5699  -33.1728 H   0  0  0  0  0  0  0  0  0  0  0  0
   -3.5393   19.6970  -32.9077 H   0  0  0  0  0  0  0  0  0  0  0  0
   -3.7322   21.7580  -27.5309 H   0  0  0  0  0  0  0  0  0  0  0  0
   -3.5499   21.4641  -29.3223 H   0  0  0  0  0  0  0  0  0  0  0  0
   -1.4972   21.7049  -27.2021 H   0  0  0  0  0  0  0  0  0  0  0  0
   -1.4833   20.8780  -28.8470 H   0  0  0  0  0  0  0  0  0  0  0  0
    0.2178   22.4406  -29.0074 H   0  0  0  0  0  0  0  0  0  0  0  0
   -1.2384   23.2304  -29.7869 H   0  0  0  0  0  0  0  0  0  0  0  0
   -0.5663   23.7611  -26.9038 H   0  0  0  0  0  0  0  0  0  0  0  0
    0.2825   24.6300  -28.2871 H   0  0  0  0  0  0  0  0  0  0  0  0
   -1.5877   25.9221  -27.2830 H   0  0  0  0  0  0  0  0  0  0  0  0
   -1.7568   25.5354  -29.0638 H   0  0  0  0  0  0  0  0  0  0  0  0
   -3.1977   24.1369  -26.7770 H   0  0  0  0  0  0  0  0  0  0  0  0
   -3.8874   25.3608  -27.9533 H   0  0  0  0  0  0  0  0  0  0  0  0
   -6.7028   24.0432  -30.4305 H   0  0  0  0  0  0  0  0  0  0  0  0
   -8.6536   23.7238  -31.3077 H   0  0  0  0  0  0  0  0  0  0  0  0
   -8.8417   22.7312  -32.8041 H   0  0  0  0  0  0  0  0  0  0  0  0
   -9.2087   21.8708  -29.9012 H   0  0  0  0  0  0  0  0  0  0  0  0
  -10.4031   21.8253  -31.2420 H   0  0  0  0  0  0  0  0  0  0  0  0
   -9.0093   20.6922  -31.2420 H   0  0  0  0  0  0  0  0  0  0  0  0
  1  2  1  0
  2  3  1  0
  3  4  1  0
  4  5  1  0
  3  6  1  0
  6  7  2  0
  6  8  2  0
  6  9  1  0
  9 10  2  0
 10 11  1  0
 11 12  2  0
 12 13  1  0
 13 14  2  0
 13 15  1  0
 15 16  2  0
 15 17  1  0
 17 18  1  0
 18 19  2  0
 18 20  1  0
 20 21  1  0
 21 22  1  0
 22 23  1  0
 23 24  1  0
 24 25  1  0
 25 26  1  0
 17 27  2  0
 27 28  1  0
 28 29  1  0
 29 30  1  0
 14  9  1  0
 26 20  1  0
 28 12  1  0
  1 31  1  0
  1 32  1  0
  1 33  1  0
  2 34  1  0
  2 35  1  0
  4 36  1  0
  4 37  1  0
  5 38  1  0
  5 39  1  0
  5 40  1  0
 10 41  1  0
 11 42  1  0
 14 43  1  0
 21 44  1  0
 21 45  1  0
 22 46  1  0
 22 47  1  0
 23 48  1  0
 23 49  1  0
 24 50  1  0
 24 51  1  0
 25 52  1  0
 25 53  1  0
 26 54  1  0
 26 55  1  0
 27 56  1  0
 29 57  1  0
 29 58  1  0
 30 59  1  0
 30 60  1  0
 30 61  1  0
M  END
>  <UniqueID>  (10) 
10

>  <SMILES>  (10) 
CCN(CC)S(=O)(=O)c1ccc2c(c1)c(=O)c(C(=O)N1CCCCCC1)cn2CC

>  <Energy>  (10) 
77.85053234794943

>  <Genealogy>  (10) 
CCN(CC)S(=O)(=O)c1ccc2c(c1)c(=O)c(C(=O)N1CCCCCC1)cn2CC (3D coordinates assigned)
CCN(CC)S(=O)(=O)c1ccc2c(c1)c(=O)c(C(=O)N1CCCCCC1)cn2CC (nonaromatic ring conformer: 77.85053234794943 kcal/mol)

>  <smiles>  (10) 
CCN(CC)S(=O)(=O)c1ccc2c(c1)c(=O)c(C(=O)N1CCCCCC1)cn2CC

>  <score_type>  (10) 
oracle

>  <origin>  (10) 
adg

>  <m_score__min__energy>  (10) 
-8.0800000000000001

>  <m_primary>  (10) 
energy

$$$$
10:0
     RDKit          3D

 49 50  0  0  0  0  0  0  0  0999 V2000
   -0.8570   26.7930  -27.8460 C   0  0  0  0  0  0  0  0  0  0  0  0
   -1.2460   25.8900  -28.8550 O   0  0  0  0  0  0  0  0  0  0  0  0
   -1.2720   24.5800  -28.3280 C   0  0  0  0  0  0  0  0  0  0  0  0
   -0.5340   23.6250  -29.2660 C   0  0  0  0  0  0  0  0  0  0  0  0
   -1.5050   22.8050  -30.0260 N   0  0  0  0  0  0  0  0  0  0  0  0
   -0.8600   21.5940  -30.5640 C   0  0  0  0  0  0  0  0  0  0  0  0
   -2.6750   22.4430  -29.1960 C   0  0  0  0  0  0  0  0  0  0  0  0
   -3.8900   23.2060  -29.6490 C   0  0  0  0  0  0  0  0  0  0  0  0
   -4.6070   24.0630  -28.8360 C   0  0  0  0  0  0  0  0  0  0  0  0
   -5.6520   24.5400  -29.5960 C   0  0  0  0  0  0  0  0  0  0  0  0
   -5.5290   23.9670  -30.8470 C   0  0  0  0  0  0  0  0  0  0  0  0
   -6.5410   24.1600  -31.9540 C   0  0  0  0  0  0  0  0  0  0  0  0
   -6.8420   22.9020  -32.6530 N   0  0  0  0  0  0  0  0  0  0  0  0
   -7.8870   22.1300  -31.9710 C   0  0  0  0  0  0  0  0  0  0  0  0
   -7.6830   20.6650  -32.2350 C   0  0  0  0  0  0  0  0  0  0  0  0
   -6.6460   20.2360  -33.0790 C   0  0  0  0  0  0  0  0  0  0  0  0
   -6.4770   18.8740  -33.3520 C   0  0  0  0  0  0  0  0  0  0  0  0
   -7.3500   17.9350  -32.7960 C   0  0  0  0  0  0  0  0  0  0  0  0
   -7.1870   16.6160  -33.0650 F   0  0  0  0  0  0  0  0  0  0  0  0
   -8.3950   18.3560  -31.9680 C   0  0  0  0  0  0  0  0  0  0  0  0
   -8.5660   19.7170  -31.6920 C   0  0  0  0  0  0  0  0  0  0  0  0
   -4.4410   23.1580  -30.8860 N   0  0  0  0  0  0  0  0  0  0  0  0
   -3.9980   22.3020  -31.9900 C   0  0  0  0  0  0  0  0  0  0  0  0
   -1.0496   26.3459  -26.8596 H   0  0  0  0  0  0  0  0  0  0  0  0
    0.2160   27.0138  -27.9453 H   0  0  0  0  0  0  0  0  0  0  0  0
   -1.4337   27.7244  -27.9453 H   0  0  0  0  0  0  0  0  0  0  0  0
   -0.7826   24.5738  -27.3429 H   0  0  0  0  0  0  0  0  0  0  0  0
   -2.3170   24.2518  -28.2272 H   0  0  0  0  0  0  0  0  0  0  0  0
    0.0791   24.2076  -29.9694 H   0  0  0  0  0  0  0  0  0  0  0  0
    0.1088   22.9606  -28.6698 H   0  0  0  0  0  0  0  0  0  0  0  0
   -0.5216   20.9586  -29.7323 H   0  0  0  0  0  0  0  0  0  0  0  0
   -1.5812   21.0376  -31.1806 H   0  0  0  0  0  0  0  0  0  0  0  0
    0.0042   21.8820  -31.1806 H   0  0  0  0  0  0  0  0  0  0  0  0
   -2.8675   21.3641  -29.2904 H   0  0  0  0  0  0  0  0  0  0  0  0
   -2.4628   22.6965  -28.1468 H   0  0  0  0  0  0  0  0  0  0  0  0
   -4.3866   24.3147  -27.7881 H   0  0  0  0  0  0  0  0  0  0  0  0
   -6.4337   25.2418  -29.2698 H   0  0  0  0  0  0  0  0  0  0  0  0
   -7.4709   24.5558  -31.5196 H   0  0  0  0  0  0  0  0  0  0  0  0
   -6.1130   24.8606  -32.6861 H   0  0  0  0  0  0  0  0  0  0  0  0
   -7.1610   23.1200  -33.6270 H   0  0  0  0  0  0  0  0  0  0  0  0
   -7.8338   22.3180  -30.8885 H   0  0  0  0  0  0  0  0  0  0  0  0
   -8.8736   22.4360  -32.3492 H   0  0  0  0  0  0  0  0  0  0  0  0
   -5.9639   20.9734  -33.5273 H   0  0  0  0  0  0  0  0  0  0  0  0
   -5.6562   18.5422  -34.0049 H   0  0  0  0  0  0  0  0  0  0  0  0
   -9.0834   17.6165  -31.5331 H   0  0  0  0  0  0  0  0  0  0  0  0
   -9.3947   20.0457  -31.0476 H   0  0  0  0  0  0  0  0  0  0  0  0
   -3.5281   21.3940  -31.5841 H   0  0  0  0  0  0  0  0  0  0  0  0
   -4.8644   22.0219  -32.6072 H   0  0  0  0  0  0  0  0  0  0  0  0
   -3.2690   22.8476  -32.6072 H   0  0  0  0  0  0  0  0  0  0  0  0
  1  2  1  0
  2  3  1  0
  3  4  1  0
  4  5  1  0
  5  6  1  0
  5  7  1  0
  7  8  1  0
  8  9  2  0
  9 10  1  0
 10 11  2  0
 11 12  1  0
 12 13  1  0
 13 14  1  0
 14 15  1  0
 15 16  2  0
 16 17  1  0
 17 18  2  0
 18 19  1  0
 18 20  1  0
 20 21  2  0
 11 22  1  0
 22 23  1  0
 22  8  1  0
 21 15  1  0
  1 24  1  0
  1 25  1  0
  1 26  1  0
  3 27  1  0
  3 28  1  0
  4 29  1  0
  4 30  1  0
  6 31  1  0
  6 32  1  0
  6 33  1  0
  7 34  1  0
  7 35  1  0
  9 36  1  0
 10 37  1  0
 12 38  1  0
 12 39  1  0
 13 40  1  0
 14 41  1  0
 14 42  1  0
 16 43  1  0
 17 44  1  0
 20 45  1  0
 21 46  1  0
 23 47  1  0
 23 48  1  0
 23 49  1  0
M  END
>  <UniqueID>  (11) 
11

>  <SMILES>  (11) 
COCCN(C)Cc1ccc(CNCc2ccc(F)cc2)n1C

>  <Energy>  (11) 
74.04484618357404

>  <Genealogy>  (11) 
COCCN(C)Cc1ccc(CNCc2ccc(F)cc2)n1C (3D coordinates assigned)
COCCN(C)Cc1ccc(CNCc2ccc(F)cc2)n1C (optimized conformer: 74.04484618357404 kcal/mol)

>  <smiles>  (11) 
COCCN(C)Cc1ccc(CNCc2ccc(F)cc2)n1C

>  <score_type>  (11) 
oracle

>  <origin>  (11) 
adg

>  <m_score__min__energy>  (11) 
-7.6200000000000001

>  <m_primary>  (11) 
energy

$$$$
11:0
     RDKit          3D

 43 46  0  0  0  0  0  0  0  0999 V2000
   -1.3140   18.7600  -32.5570 C   0  0  0  0  0  0  0  0  0  0  0  0
   -2.6140   18.6970  -33.2220 N   0  0  0  0  0  0  0  0  0  0  0  0
   -3.4270   19.7200  -33.6110 C   0  0  0  0  0  0  0  0  0  0  0  0
   -3.1410   21.1850  -33.3960 C   0  0  0  0  0  0  0  0  0  0  0  0
   -4.3570   22.0210  -33.4140 N   0  0  0  0  0  0  0  0  0  0  0  0
   -4.9340   22.2800  -32.0780 C   0  0  0  0  0  0  0  0  0  0  0  0
   -6.4410   22.0470  -32.0330 C   0  0  0  0  0  0  0  0  0  0  0  0
   -7.2620   23.1900  -32.0870 C   0  0  0  0  0  0  0  0  0  0  0  0
   -8.6470   23.0890  -31.9890 C   0  0  0  0  0  0  0  0  0  0  0  0
   -9.2520   21.8450  -31.8560 C   0  0  0  0  0  0  0  0  0  0  0  0
   -8.4760   20.6810  -31.8390 C   0  0  0  0  0  0  0  0  0  0  0  0
   -9.1080   19.4340  -31.7140 C   0  0  0  0  0  0  0  0  0  0  0  0
   -8.3570   18.2620  -31.6930 C   0  0  0  0  0  0  0  0  0  0  0  0
   -6.9690   18.3210  -31.7970 C   0  0  0  0  0  0  0  0  0  0  0  0
   -6.3210   19.5520  -31.9210 C   0  0  0  0  0  0  0  0  0  0  0  0
   -7.0560   20.7620  -31.9390 C   0  0  0  0  0  0  0  0  0  0  0  0
   -4.5780   19.2960  -34.1960 N   0  0  0  0  0  0  0  0  0  0  0  0
   -4.4820   17.9570  -34.1250 C   0  0  0  0  0  0  0  0  0  0  0  0
   -5.4300   17.0190  -34.5290 C   0  0  0  0  0  0  0  0  0  0  0  0
   -5.1450   15.6610  -34.2960 C   0  0  0  0  0  0  0  0  0  0  0  0
   -3.9360   15.2790  -33.6730 C   0  0  0  0  0  0  0  0  0  0  0  0
   -2.9990   16.2530  -33.2790 C   0  0  0  0  0  0  0  0  0  0  0  0
   -3.3130   17.5910  -33.5280 C   0  0  0  0  0  0  0  0  0  0  0  0
   -1.4592   18.7530  -31.4666 H   0  0  0  0  0  0  0  0  0  0  0  0
   -0.7087   17.8901  -32.8519 H   0  0  0  0  0  0  0  0  0  0  0  0
   -0.7957   19.6843  -32.8519 H   0  0  0  0  0  0  0  0  0  0  0  0
   -2.6475   21.3058  -32.4204 H   0  0  0  0  0  0  0  0  0  0  0  0
   -2.5008   21.5194  -34.2256 H   0  0  0  0  0  0  0  0  0  0  0  0
   -4.1890   22.9120  -33.9300 H   0  0  0  0  0  0  0  0  0  0  0  0
   -5.0770   21.4980  -33.9660 H   0  0  0  0  0  0  0  0  0  0  0  0
   -4.4523   21.6100  -31.3506 H   0  0  0  0  0  0  0  0  0  0  0  0
   -4.7538   23.3381  -31.8374 H   0  0  0  0  0  0  0  0  0  0  0  0
   -6.8003   24.1810  -32.2089 H   0  0  0  0  0  0  0  0  0  0  0  0
   -9.2655   23.9982  -32.0170 H   0  0  0  0  0  0  0  0  0  0  0  0
  -10.3459   21.7752  -31.7637 H   0  0  0  0  0  0  0  0  0  0  0  0
  -10.2037   19.3825  -31.6321 H   0  0  0  0  0  0  0  0  0  0  0  0
   -8.8599   17.2887  -31.5942 H   0  0  0  0  0  0  0  0  0  0  0  0
   -6.3798   17.3923  -31.7814 H   0  0  0  0  0  0  0  0  0  0  0  0
   -5.2247   19.5819  -32.0058 H   0  0  0  0  0  0  0  0  0  0  0  0
   -6.3679   17.3292  -35.0129 H   0  0  0  0  0  0  0  0  0  0  0  0
   -5.8689   14.8911  -34.6012 H   0  0  0  0  0  0  0  0  0  0  0  0
   -3.7255   14.2142  -33.4947 H   0  0  0  0  0  0  0  0  0  0  0  0
   -2.0537   15.9705  -32.7926 H   0  0  0  0  0  0  0  0  0  0  0  0
  1  2  1  0
  2  3  1  0
  3  4  1  0
  4  5  1  0
  5  6  1  0
  6  7  1  0
  7  8  2  0
  8  9  1  0
  9 10  2  0
 10 11  1  0
 11 12  2  0
 12 13  1  0
 13 14  2  0
 14 15  1  0
 15 16  2  0
  3 17  2  0
 17 18  1  0
 18 19  2  0
 19 20  1  0
 20 21  2  0
 21 22  1  0
 22 23  2  0
 23  2  1  0
 16  7  1  0
 23 18  1  0
 16 11  1  0
  1 24  1  0
  1 25  1  0
  1 26  1  0
  4 27  1  0
  4 28  1  0
  5 29  1  0
  5 30  1  0
  6 31  1  0
  6 32  1  0
  8 33  1  0
  9 34  1  0
 10 35  1  0
 12 36  1  0
 13 37  1  0
 14 38  1  0
 15 39  1  0
 19 40  1  0
 20 41  1  0
 21 42  1  0
 22 43  1  0
M  CHG  1   5   1
M  END
>  <UniqueID>  (12) 
12

>  <SMILES>  (12) 
Cn1c(C[NH2+]Cc2cccc3ccccc23)nc2ccccc21

>  <Energy>  (12) 
88.78952593739093

>  <Genealogy>  (12) 
Cn1c(C[NH2+]Cc2cccc3ccccc23)nc2ccccc21 (protonated)
Cn1c(C[NH2+]Cc2cccc3ccccc23)nc2ccccc21 (3D coordinates assigned)
Cn1c(C[NH2+]Cc2cccc3ccccc23)nc2ccccc21 (optimized conformer: 88.78952593739093 kcal/mol)

>  <smiles>  (12) 
Cn1c(CNCc2cccc3ccccc23)nc2ccccc21

>  <score_type>  (12) 
oracle

>  <origin>  (12) 
adg

>  <m_score__min__energy>  (12) 
-7.75

>  <m_primary>  (12) 
energy

$$$$
12:0
     RDKit          3D

 41 42  0  0  0  0  0  0  0  0999 V2000
   -6.3580   25.3160  -29.4640 C   0  0  0  0  0  0  0  0  0  0  0  0
   -5.3750   25.6790  -30.5720 C   0  0  0  0  0  0  0  0  0  0  0  0
   -4.5120   24.5780  -30.8640 O   0  0  0  0  0  0  0  0  0  0  0  0
   -4.8830   23.4070  -31.5480 C   0  0  0  0  0  0  0  0  0  0  0  0
   -6.2170   23.1110  -31.8840 C   0  0  0  0  0  0  0  0  0  0  0  0
   -6.5290   21.9300  -32.5610 C   0  0  0  0  0  0  0  0  0  0  0  0
   -5.5240   21.0030  -32.8890 C   0  0  0  0  0  0  0  0  0  0  0  0
   -4.1820   21.3150  -32.5840 C   0  0  0  0  0  0  0  0  0  0  0  0
   -3.8760   22.5060  -31.9050 C   0  0  0  0  0  0  0  0  0  0  0  0
   -3.1110   20.3900  -33.0120 C   0  0  0  0  0  0  0  0  0  0  0  0
   -1.8990   20.7190  -32.8990 O   0  0  0  0  0  0  0  0  0  0  0  0
   -3.4660   19.1200  -33.5850 N   0  0  0  0  0  0  0  0  0  0  0  0
   -2.4550   18.3110  -34.2670 C   0  0  0  0  0  0  0  0  0  0  0  0
   -4.8370   18.6300  -33.4150 C   0  0  0  0  0  0  0  0  0  0  0  0
   -5.8550   19.7510  -33.6880 C   0  0  1  0  0  0  0  0  0  0  0  0
   -7.1960   19.2540  -33.3640 N   0  0  0  0  0  0  0  0  0  0  0  0
   -7.5130   18.6480  -32.1050 C   0  0  0  0  0  0  0  0  0  0  0  0
   -6.6050   18.4120  -31.2630 O   0  0  0  0  0  0  0  0  0  0  0  0
   -8.9360   18.3190  -31.7610 C   0  0  0  0  0  0  0  0  0  0  0  0
   -9.8250   19.0610  -32.5740 O   0  0  0  0  0  0  0  0  0  0  0  0
   -9.6700   20.4430  -32.3320 C   0  0  0  0  0  0  0  0  0  0  0  0
   -5.8875   25.4897  -28.4850 H   0  0  0  0  0  0  0  0  0  0  0  0
   -7.2589   25.9407  -29.5539 H   0  0  0  0  0  0  0  0  0  0  0  0
   -6.6366   24.2557  -29.5539 H   0  0  0  0  0  0  0  0  0  0  0  0
   -5.9366   25.9477  -31.4789 H   0  0  0  0  0  0  0  0  0  0  0  0
   -4.7622   26.5285  -30.2360 H   0  0  0  0  0  0  0  0  0  0  0  0
   -7.0184   23.8136  -31.6119 H   0  0  0  0  0  0  0  0  0  0  0  0
   -7.5725   21.7228  -32.8407 H   0  0  0  0  0  0  0  0  0  0  0  0
   -2.8300   22.7325  -31.6509 H   0  0  0  0  0  0  0  0  0  0  0  0
   -1.8243   17.8063  -33.5203 H   0  0  0  0  0  0  0  0  0  0  0  0
   -2.9515   17.5580  -34.8967 H   0  0  0  0  0  0  0  0  0  0  0  0
   -1.8292   18.9606  -34.8967 H   0  0  0  0  0  0  0  0  0  0  0  0
   -5.0142   17.8027  -34.1180 H   0  0  0  0  0  0  0  0  0  0  0  0
   -4.9622   18.2845  -32.3782 H   0  0  0  0  0  0  0  0  0  0  0  0
   -5.8143   20.0326  -34.7506 H   0  0  0  0  0  0  0  0  0  0  0  0
   -7.9840   19.5060  -34.0060 H   0  0  0  0  0  0  0  0  0  0  0  0
   -9.1086   17.2447  -31.9223 H   0  0  0  0  0  0  0  0  0  0  0  0
   -9.1168   18.5773  -30.7072 H   0  0  0  0  0  0  0  0  0  0  0  0
   -9.6496   20.6253  -31.2474 H   0  0  0  0  0  0  0  0  0  0  0  0
   -8.7273   20.7902  -32.7800 H   0  0  0  0  0  0  0  0  0  0  0  0
  -10.5124   20.9904  -32.7800 H   0  0  0  0  0  0  0  0  0  0  0  0
  1  2  1  0
  2  3  1  0
  3  4  1  0
  4  5  2  0
  5  6  1  0
  6  7  2  0
  7  8  1  0
  8  9  2  0
  8 10  1  0
 10 11  2  0
 10 12  1  0
 12 13  1  0
 12 14  1  0
 14 15  1  0
 15 16  1  0
 16 17  1  0
 17 18  2  0
 17 19  1  0
 19 20  1  0
 20 21  1  0
  9  4  1  0
 15  7  1  0
  1 22  1  0
  1 23  1  0
  1 24  1  0
  2 25  1  0
  2 26  1  0
  5 27  1  0
  6 28  1  0
  9 29  1  0
 13 30  1  0
 13 31  1  0
 13 32  1  0
 14 33  1  0
 14 34  1  0
 15 35  1  6
 16 36  1  0
 19 37  1  0
 19 38  1  0
 21 39  1  0
 21 40  1  0
 21 41  1  0
M  END
>  <UniqueID>  (13) 
13

>  <SMILES>  (13) 
CCOc1ccc2c(c1)C(=O)N(C)C[C@H]2NC(=O)COC

>  <Energy>  (13) 
38.66419769787348

>  <Genealogy>  (13) 
CCOc1ccc2c(c1)C(=O)N(C)C[C@H]2NC(=O)COC (chirality)
CCOc1ccc2c(c1)C(=O)N(C)C[C@H]2NC(=O)COC (3D coordinates assigned)
CCOc1ccc2c(c1)C(=O)N(C)C[C@H]2NC(=O)COC (nonaromatic ring conformer: 38.66419769787348 kcal/mol)

>  <smiles>  (13) 
CCOc1ccc2c(c1)C(=O)N(C)CC2NC(=O)COC

>  <score_type>  (13) 
oracle

>  <origin>  (13) 
adg

>  <m_score__min__energy>  (13) 
-7.2300000000000004

>  <m_primary>  (13) 
energy

$$$$
13:0
     RDKit          3D

 31 32  0  0  0  0  0  0  0  0999 V2000
   -6.8230   16.4870  -33.8380 C   0  0  0  0  0  0  0  0  0  0  0  0
   -6.7900   17.8840  -33.2950 C   0  0  0  0  0  0  0  0  0  0  0  0
   -7.5220   18.2130  -32.1440 C   0  0  0  0  0  0  0  0  0  0  0  0
   -7.4620   19.5050  -31.6130 C   0  0  0  0  0  0  0  0  0  0  0  0
   -6.6570   20.4790  -32.2220 C   0  0  0  0  0  0  0  0  0  0  0  0
   -6.5580   22.1060  -31.5570 S   0  0  0  0  0  0  0  0  0  0  0  0
   -7.4800   22.2550  -30.3790 O   0  0  0  0  0  0  0  0  0  0  0  0
   -6.9780   23.0840  -32.6190 O   0  0  0  0  0  0  0  0  0  0  0  0
   -4.9000   22.4300  -31.0270 C   0  0  0  0  0  0  0  0  0  0  0  0
   -3.9210   21.4410  -31.2040 C   0  0  0  0  0  0  0  0  0  0  0  0
   -2.6090   21.6600  -30.7880 C   0  0  0  0  0  0  0  0  0  0  0  0
   -2.2560   22.8680  -30.1880 C   0  0  0  0  0  0  0  0  0  0  0  0
   -3.2130   23.8740  -29.9960 C   0  0  0  0  0  0  0  0  0  0  0  0
   -2.8130   25.1030  -29.3730 N   0  0  0  0  0  0  0  0  0  0  0  0
   -4.5470   23.6580  -30.4160 C   0  0  0  0  0  0  0  0  0  0  0  0
   -5.5440   24.6850  -30.2180 C   0  0  0  0  0  0  0  0  0  0  0  0
   -6.3430   25.5080  -30.0590 N   0  0  0  0  0  0  0  0  0  0  0  0
   -5.9150   20.1490  -33.3630 C   0  0  0  0  0  0  0  0  0  0  0  0
   -5.9750   18.8570  -33.8930 C   0  0  0  0  0  0  0  0  0  0  0  0
   -6.8399   15.7698  -33.0041 H   0  0  0  0  0  0  0  0  0  0  0  0
   -7.7245   16.3543  -34.4541 H   0  0  0  0  0  0  0  0  0  0  0  0
   -5.9287   16.3119  -34.4541 H   0  0  0  0  0  0  0  0  0  0  0  0
   -8.1467   17.4500  -31.6566 H   0  0  0  0  0  0  0  0  0  0  0  0
   -8.0469   19.7580  -30.7164 H   0  0  0  0  0  0  0  0  0  0  0  0
   -4.1912   20.4844  -31.6752 H   0  0  0  0  0  0  0  0  0  0  0  0
   -1.8497   20.8775  -30.9335 H   0  0  0  0  0  0  0  0  0  0  0  0
   -1.2182   23.0329  -29.8627 H   0  0  0  0  0  0  0  0  0  0  0  0
   -3.3240   25.4650  -28.5370 H   0  0  0  0  0  0  0  0  0  0  0  0
   -2.0120   25.6700  -29.7280 H   0  0  0  0  0  0  0  0  0  0  0  0
   -5.2825   20.9096  -33.8440 H   0  0  0  0  0  0  0  0  0  0  0  0
   -5.3807   18.6020  -34.7828 H   0  0  0  0  0  0  0  0  0  0  0  0
  1  2  1  0
  2  3  2  0
  3  4  1  0
  4  5  2  0
  5  6  1  0
  6  7  2  0
  6  8  2  0
  6  9  1  0
  9 10  2  0
 10 11  1  0
 11 12  2  0
 12 13  1  0
 13 14  1  0
 13 15  2  0
 15 16  1  0
 16 17  3  0
  5 18  1  0
 18 19  2  0
 19  2  1  0
 15  9  1  0
  1 20  1  0
  1 21  1  0
  1 22  1  0
  3 23  1  0
  4 24  1  0
 10 25  1  0
 11 26  1  0
 12 27  1  0
 14 28  1  0
 14 29  1  0
 18 30  1  0
 19 31  1  0
M  END
>  <UniqueID>  (14) 
14

>  <SMILES>  (14) 
Cc1ccc(S(=O)(=O)c2cccc(N)c2C#N)cc1

>  <Energy>  (14) 
34.001816942894465

>  <Genealogy>  (14) 
Cc1ccc(S(=O)(=O)c2cccc(N)c2C#N)cc1 (3D coordinates assigned)
Cc1ccc(S(=O)(=O)c2cccc(N)c2C#N)cc1 (optimized conformer: 34.001816942894465 kcal/mol)

>  <smiles>  (14) 
Cc1ccc(S(=O)(=O)c2cccc(N)c2C#N)cc1

>  <score_type>  (14) 
oracle

>  <origin>  (14) 
adg

>  <m_score__min__energy>  (14) 
-7.9000000000000004

>  <m_primary>  (14) 
energy

$$$$
14:0
     RDKit          3D

 47 48  0  0  0  0  0  0  0  0999 V2000
   -2.4370   22.1860  -28.8070 C   0  0  0  0  0  0  0  0  0  0  0  0
   -1.9340   22.6400  -30.0570 O   0  0  0  0  0  0  0  0  0  0  0  0
   -2.0000   21.9110  -31.2560 C   0  0  0  0  0  0  0  0  0  0  0  0
   -0.9470   21.1410  -31.6740 N   0  0  0  0  0  0  0  0  0  0  0  0
   -0.9970   20.4230  -32.8270 C   0  0  0  0  0  0  0  0  0  0  0  0
   -2.1400   20.4500  -33.6230 C   0  0  0  0  0  0  0  0  0  0  0  0
   -3.2260   21.2250  -33.2290 C   0  0  0  0  0  0  0  0  0  0  0  0
   -3.1730   21.9700  -32.0390 C   0  0  0  0  0  0  0  0  0  0  0  0
   -4.3430   22.7810  -31.6270 C   0  0  0  0  0  0  0  0  0  0  0  0
   -4.2410   23.9590  -30.9670 N   0  0  0  0  0  0  0  0  0  0  0  0
   -5.5210   24.3480  -30.8180 C   0  0  0  0  0  0  0  0  0  0  0  0
   -5.9340   25.5810  -30.0810 C   0  0  0  0  0  0  0  0  0  0  0  0
   -6.3490   23.3900  -31.3670 C   0  0  0  0  0  0  0  0  0  0  0  0
   -7.8440   23.4060  -31.4380 C   0  0  0  0  0  0  0  0  0  0  0  0
   -8.3060   22.3320  -32.3220 N   0  0  0  0  0  0  0  0  0  0  0  0
   -9.2740   21.4720  -31.6280 C   0  0  0  0  0  0  0  0  0  0  0  0
   -8.7130   20.0520  -31.4400 C   0  0  0  0  0  0  0  0  0  0  0  0
   -8.0950   19.4550  -32.7190 C   0  0  0  0  0  0  0  0  0  0  0  0
   -6.6570   19.7790  -32.8420 N   0  0  0  0  0  0  0  0  0  0  0  0
   -6.1070   19.2870  -34.1170 C   0  0  0  0  0  0  0  0  0  0  0  0
   -5.9040   19.1910  -31.7230 C   0  0  0  0  0  0  0  0  0  0  0  0
   -5.5930   22.4440  -31.8650 O   0  0  0  0  0  0  0  0  0  0  0  0
   -1.8899   22.6798  -27.9904 H   0  0  0  0  0  0  0  0  0  0  0  0
   -3.5069   22.4302  -28.7318 H   0  0  0  0  0  0  0  0  0  0  0  0
   -2.3034   21.0967  -28.7318 H   0  0  0  0  0  0  0  0  0  0  0  0
   -0.0710   21.0850  -31.1090 H   0  0  0  0  0  0  0  0  0  0  0  0
   -0.1309   19.8178  -33.1330 H   0  0  0  0  0  0  0  0  0  0  0  0
   -2.1833   19.8646  -34.5533 H   0  0  0  0  0  0  0  0  0  0  0  0
   -4.1315   21.2547  -33.8528 H   0  0  0  0  0  0  0  0  0  0  0  0
   -5.8729   25.3986  -28.9980 H   0  0  0  0  0  0  0  0  0  0  0  0
   -5.2649   26.4112  -30.3513 H   0  0  0  0  0  0  0  0  0  0  0  0
   -6.9682   25.8407  -30.3513 H   0  0  0  0  0  0  0  0  0  0  0  0
   -8.2599   23.2555  -30.4308 H   0  0  0  0  0  0  0  0  0  0  0  0
   -8.1804   24.3754  -31.8344 H   0  0  0  0  0  0  0  0  0  0  0  0
   -7.4720   21.7520  -32.5620 H   0  0  0  0  0  0  0  0  0  0  0  0
   -9.4970   21.9044  -30.6414 H   0  0  0  0  0  0  0  0  0  0  0  0
  -10.1881   21.4103  -32.2368 H   0  0  0  0  0  0  0  0  0  0  0  0
   -7.9359   20.0859  -30.6622 H   0  0  0  0  0  0  0  0  0  0  0  0
   -9.5590   19.4068  -31.1608 H   0  0  0  0  0  0  0  0  0  0  0  0
   -8.2119   18.3615  -32.6931 H   0  0  0  0  0  0  0  0  0  0  0  0
   -8.6169   19.8901  -33.5840 H   0  0  0  0  0  0  0  0  0  0  0  0
   -5.3011   18.5661  -33.9148 H   0  0  0  0  0  0  0  0  0  0  0  0
   -6.9034   18.7944  -34.6941 H   0  0  0  0  0  0  0  0  0  0  0  0
   -5.7058   20.1332  -34.6941 H   0  0  0  0  0  0  0  0  0  0  0  0
   -6.3380   19.5299  -30.7707 H   0  0  0  0  0  0  0  0  0  0  0  0
   -5.9583   18.0939  -31.7808 H   0  0  0  0  0  0  0  0  0  0  0  0
   -4.8528   19.5096  -31.7808 H   0  0  0  0  0  0  0  0  0  0  0  0
  1  2  1  0
  2  3  1  0
  3  4  2  0
  4  5  1  0
  5  6  2  0
  6  7  1  0
  7  8  2  0
  8  9  1  0
  9 10  2  0
 10 11  1  0
 11 12  1  0
 11 13  2  0
 13 14  1  0
 14 15  1  0
 15 16  1  0
 16 17  1  0
 17 18  1  0
 18 19  1  0
 19 20  1  0
 19 21  1  0
 13 22  1  0
  8  3  1  0
 22  9  1  0
  1 23  1  0
  1 24  1  0
  1 25  1  0
  4 26  1  0
  5 27  1  0
  6 28  1  0
  7 29  1  0
 12 30  1  0
 12 31  1  0
 12 32  1  0
 14 33  1  0
 14 34  1  0
 15 35  1  0
 16 36  1  0
 16 37  1  0
 17 38  1  0
 17 39  1  0
 18 40  1  0
 18 41  1  0
 20 42  1  0
 20 43  1  0
 20 44  1  0
 21 45  1  0
 21 46  1  0
 21 47  1  0
M  CHG  1   4   1
M  END
>  <UniqueID>  (15) 
15

>  <SMILES>  (15) 
COc1[nH+]cccc1-c1nc(C)c(CNCCCN(C)C)o1

>  <Energy>  (15) 
71.10328514198899

>  <Genealogy>  (15) 
COc1[nH+]cccc1-c1nc(C)c(CNCCCN(C)C)o1 (protonated)
COc1[nH+]cccc1-c1nc(C)c(CNCCCN(C)C)o1 (3D coordinates assigned)
COc1[nH+]cccc1-c1nc(C)c(CNCCCN(C)C)o1 (optimized conformer: 71.10328514198899 kcal/mol)

>  <smiles>  (15) 
COc1ncccc1-c1nc(C)c(CNCCCN(C)C)o1

>  <score_type>  (15) 
oracle

>  <origin>  (15) 
adg

>  <m_score__min__energy>  (15) 
-7.6200000000000001

>  <m_primary>  (15) 
energy

$$$$
15:0
     RDKit          3D

 41 42  0  0  0  0  0  0  0  0999 V2000
   -6.1030   25.2470  -29.4290 C   0  0  0  0  0  0  0  0  0  0  0  0
   -5.2790   25.6350  -30.6510 C   0  0  0  0  0  0  0  0  0  0  0  0
   -3.9190   25.0770  -30.5470 N   0  0  0  0  0  0  0  0  0  0  0  0
   -3.9180   23.6490  -30.1930 C   0  0  0  0  0  0  0  0  0  0  0  0
   -3.8990   22.7890  -31.4280 C   0  0  0  0  0  0  0  0  0  0  0  0
   -4.9210   22.5440  -32.3360 C   0  0  0  0  0  0  0  0  0  0  0  0
   -6.3160   23.1220  -32.3360 C   0  0  0  0  0  0  0  0  0  0  0  0
   -7.3160   22.2480  -31.6850 N   0  0  0  0  0  0  0  0  0  0  0  0
   -7.0310   20.7960  -31.8140 C   0  0  0  0  0  0  0  0  0  0  0  0
   -8.0290   20.0780  -32.7330 C   0  0  0  0  0  0  0  0  0  0  0  0
   -9.4730   20.2440  -32.2250 C   0  0  0  0  0  0  0  0  0  0  0  0
   -9.7000   21.5790  -31.4910 C   0  0  0  0  0  0  0  0  0  0  0  0
   -8.7140   22.6480  -31.9700 C   0  0  0  0  0  0  0  0  0  0  0  0
   -4.4680   21.6630  -33.2480 N   0  0  0  0  0  0  0  0  0  0  0  0
   -3.2380   21.3600  -32.9550 O   0  0  0  0  0  0  0  0  0  0  0  0
   -2.8490   22.0080  -31.8820 C   0  0  0  0  0  0  0  0  0  0  0  0
   -1.5000   21.8690  -31.2590 C   0  0  0  0  0  0  0  0  0  0  0  0
   -5.5489   25.5079  -28.5153 H   0  0  0  0  0  0  0  0  0  0  0  0
   -7.0600   25.7891  -29.4449 H   0  0  0  0  0  0  0  0  0  0  0  0
   -6.2948   24.1640  -29.4449 H   0  0  0  0  0  0  0  0  0  0  0  0
   -5.7646   25.2418  -31.5563 H   0  0  0  0  0  0  0  0  0  0  0  0
   -5.2134   26.7317  -30.7057 H   0  0  0  0  0  0  0  0  0  0  0  0
   -3.4640   25.1590  -31.4860 H   0  0  0  0  0  0  0  0  0  0  0  0
   -3.0266   23.4289  -29.5872 H   0  0  0  0  0  0  0  0  0  0  0  0
   -4.8334   23.4274  -29.6247 H   0  0  0  0  0  0  0  0  0  0  0  0
   -6.2945   24.0839  -31.8029 H   0  0  0  0  0  0  0  0  0  0  0  0
   -6.6198   23.2348  -33.3872 H   0  0  0  0  0  0  0  0  0  0  0  0
   -6.0191   20.6709  -32.2267 H   0  0  0  0  0  0  0  0  0  0  0  0
   -7.1189   20.3490  -30.8128 H   0  0  0  0  0  0  0  0  0  0  0  0
   -7.9538   20.5021  -33.7452 H   0  0  0  0  0  0  0  0  0  0  0  0
   -7.7843   19.0056  -32.7425 H   0  0  0  0  0  0  0  0  0  0  0  0
  -10.1558   20.1963  -33.0861 H   0  0  0  0  0  0  0  0  0  0  0  0
   -9.6650   19.4346  -31.5053 H   0  0  0  0  0  0  0  0  0  0  0  0
  -10.7262   21.9249  -31.6842 H   0  0  0  0  0  0  0  0  0  0  0  0
   -9.5421   21.4163  -30.4146 H   0  0  0  0  0  0  0  0  0  0  0  0
   -8.8340   22.7878  -33.0545 H   0  0  0  0  0  0  0  0  0  0  0  0
   -8.9261   23.5851  -31.4344 H   0  0  0  0  0  0  0  0  0  0  0  0
   -5.0000   21.2570  -34.0490 H   0  0  0  0  0  0  0  0  0  0  0  0
   -1.5992   21.8792  -30.1635 H   0  0  0  0  0  0  0  0  0  0  0  0
   -1.0453   20.9192  -31.5771 H   0  0  0  0  0  0  0  0  0  0  0  0
   -0.8612   22.7061  -31.5771 H   0  0  0  0  0  0  0  0  0  0  0  0
  1  2  1  0
  2  3  1  0
  3  4  1  0
  4  5  1  0
  5  6  1  0
  6  7  1  0
  7  8  1  0
  8  9  1  0
  9 10  1  0
 10 11  1  0
 11 12  1  0
 12 13  1  0
  6 14  2  0
 14 15  1  0
 15 16  1  0
 16 17  1  0
 16  5  2  0
 13  8  1  0
  1 18  1  0
  1 19  1  0
  1 20  1  0
  2 21  1  0
  2 22  1  0
  3 23  1  0
  4 24  1  0
  4 25  1  0
  7 26  1  0
  7 27  1  0
  9 28  1  0
  9 29  1  0
 10 30  1  0
 10 31  1  0
 11 32  1  0
 11 33  1  0
 12 34  1  0
 12 35  1  0
 13 36  1  0
 13 37  1  0
 14 38  1  0
 17 39  1  0
 17 40  1  0
 17 41  1  0
M  CHG  1  14   1
M  END
>  <UniqueID>  (16) 
16

>  <SMILES>  (16) 
CCNCc1c(CN2CCCCC2)[nH+]oc1C

>  <Energy>  (16) 
74.0655830348218

>  <Genealogy>  (16) 
CCNCc1c(CN2CCCCC2)[nH+]oc1C (protonated)
CCNCc1c(CN2CCCCC2)[nH+]oc1C (3D coordinates assigned)
CCNCc1c(CN2CCCCC2)[nH+]oc1C (nonaromatic ring conformer: 74.0655830348218 kcal/mol)

>  <smiles>  (16) 
CCNCc1c(CN2CCCCC2)noc1C

>  <score_type>  (16) 
oracle

>  <origin>  (16) 
adg

>  <m_score__min__energy>  (16) 
-6.8600000000000003

>  <m_primary>  (16) 
energy

$$$$
16:0
     RDKit          3D

 56 59  0  0  0  0  0  0  0  0999 V2000
   -6.0700   25.0720  -29.7580 C   0  0  0  0  0  0  0  0  0  0  0  0
   -4.6660   24.4840  -29.8740 C   0  0  0  0  0  0  0  0  0  0  0  0
   -4.6860   22.9590  -29.7060 C   0  0  0  0  0  0  0  0  0  0  0  0
   -3.4490   22.3530  -30.2210 N   0  0  0  0  0  0  0  0  0  0  0  0
   -2.9960   22.6750  -31.5840 C   0  0  0  0  0  0  0  0  0  0  0  0
   -3.1950   21.4800  -32.5470 C   0  0  0  0  0  0  0  0  0  0  0  0
   -4.4800   21.4680  -33.2660 N   0  0  0  0  0  0  0  0  0  0  0  0
   -5.6420   20.6860  -32.9220 C   0  0  0  0  0  0  0  0  0  0  0  0
   -5.6440   19.2840  -33.0640 C   0  0  0  0  0  0  0  0  0  0  0  0
   -4.4720   18.5880  -33.4280 C   0  0  0  0  0  0  0  0  0  0  0  0
   -4.5010   17.2170  -33.6690 C   0  0  0  0  0  0  0  0  0  0  0  0
   -5.6960   16.5170  -33.5540 C   0  0  0  0  0  0  0  0  0  0  0  0
   -6.8550   17.1720  -33.1440 C   0  0  0  0  0  0  0  0  0  0  0  0
   -6.8440   18.5580  -32.8350 C   0  0  0  0  0  0  0  0  0  0  0  0
   -7.9620   19.1990  -32.3340 N   0  0  0  0  0  0  0  0  0  0  0  0
   -9.1080   18.4050  -31.8340 C   0  0  0  0  0  0  0  0  0  0  0  0
   -7.9910   20.5790  -32.2510 C   0  0  0  0  0  0  0  0  0  0  0  0
   -9.1860   21.2840  -31.9500 C   0  0  0  0  0  0  0  0  0  0  0  0
   -9.1870   22.6690  -31.7960 C   0  0  0  0  0  0  0  0  0  0  0  0
   -8.0100   23.3900  -31.9530 C   0  0  0  0  0  0  0  0  0  0  0  0
   -6.8340   22.7360  -32.3060 C   0  0  0  0  0  0  0  0  0  0  0  0
   -6.8120   21.3360  -32.4880 C   0  0  0  0  0  0  0  0  0  0  0  0
   -2.6950   21.4280  -29.4030 C   0  0  0  0  0  0  0  0  0  0  0  0
   -3.1030   21.1380  -28.0870 C   0  0  0  0  0  0  0  0  0  0  0  0
   -2.3730   20.2420  -27.2990 C   0  0  0  0  0  0  0  0  0  0  0  0
   -1.2310   19.6270  -27.8140 C   0  0  0  0  0  0  0  0  0  0  0  0
   -0.8150   19.9060  -29.1180 C   0  0  0  0  0  0  0  0  0  0  0  0
   -1.5410   20.8000  -29.9090 C   0  0  0  0  0  0  0  0  0  0  0  0
   -6.3345   25.1828  -28.6960 H   0  0  0  0  0  0  0  0  0  0  0  0
   -6.0966   26.0569  -30.2472 H   0  0  0  0  0  0  0  0  0  0  0  0
   -6.7905   24.4000  -30.2472 H   0  0  0  0  0  0  0  0  0  0  0  0
   -4.2548   24.7303  -30.8641 H   0  0  0  0  0  0  0  0  0  0  0  0
   -4.0421   24.9136  -29.0764 H   0  0  0  0  0  0  0  0  0  0  0  0
   -4.7870   22.7166  -28.6378 H   0  0  0  0  0  0  0  0  0  0  0  0
   -5.5360   22.5560  -30.2762 H   0  0  0  0  0  0  0  0  0  0  0  0
   -3.5716   23.5346  -31.9579 H   0  0  0  0  0  0  0  0  0  0  0  0
   -1.9220   22.9094  -31.5435 H   0  0  0  0  0  0  0  0  0  0  0  0
   -2.3868   21.5044  -33.2928 H   0  0  0  0  0  0  0  0  0  0  0  0
   -3.1843   20.5755  -31.9211 H   0  0  0  0  0  0  0  0  0  0  0  0
   -4.5590   22.0980  -34.0970 H   0  0  0  0  0  0  0  0  0  0  0  0
   -3.5228   19.1357  -33.5227 H   0  0  0  0  0  0  0  0  0  0  0  0
   -3.5784   16.6881  -33.9503 H   0  0  0  0  0  0  0  0  0  0  0  0
   -5.7268   15.4425  -33.7874 H   0  0  0  0  0  0  0  0  0  0  0  0
   -7.7944   16.6062  -33.0582 H   0  0  0  0  0  0  0  0  0  0  0  0
   -9.1039   18.4078  -30.7340 H   0  0  0  0  0  0  0  0  0  0  0  0
  -10.0471   18.8470  -32.1983 H   0  0  0  0  0  0  0  0  0  0  0  0
   -9.0241   17.3705  -32.1983 H   0  0  0  0  0  0  0  0  0  0  0  0
  -10.1278   20.7271  -31.8363 H   0  0  0  0  0  0  0  0  0  0  0  0
  -10.1223   23.1928  -31.5494 H   0  0  0  0  0  0  0  0  0  0  0  0
   -8.0079   24.4790  -31.7981 H   0  0  0  0  0  0  0  0  0  0  0  0
   -5.9101   23.3166  -32.4450 H   0  0  0  0  0  0  0  0  0  0  0  0
   -4.0023   21.6195  -27.6755 H   0  0  0  0  0  0  0  0  0  0  0  0
   -2.6995   20.0218  -26.2719 H   0  0  0  0  0  0  0  0  0  0  0  0
   -0.6584   18.9224  -27.1930 H   0  0  0  0  0  0  0  0  0  0  0  0
    0.0856   19.4211  -29.5227 H   0  0  0  0  0  0  0  0  0  0  0  0
   -1.2083   21.0149  -30.9352 H   0  0  0  0  0  0  0  0  0  0  0  0
  1  2  1  0
  2  3  1  0
  3  4  1  0
  4  5  1  0
  5  6  1  0
  6  7  1  0
  7  8  1  0
  8  9  1  0
  9 10  2  0
 10 11  1  0
 11 12  2  0
 12 13  1  0
 13 14  2  0
 14 15  1  0
 15 16  1  0
 15 17  2  0
 17 18  1  0
 18 19  2  0
 19 20  1  0
 20 21  2  0
 21 22  1  0
  4 23  1  0
 23 24  2  0
 24 25  1  0
 25 26  2  0
 26 27  1  0
 27 28  2  0
 22  8  2  0
 28 23  1  0
 14  9  1  0
 22 17  1  0
  1 29  1  0
  1 30  1  0
  1 31  1  0
  2 32  1  0
  2 33  1  0
  3 34  1  0
  3 35  1  0
  5 36  1  0
  5 37  1  0
  6 38  1  0
  6 39  1  0
  7 40  1  0
 10 41  1  0
 11 42  1  0
 12 43  1  0
 13 44  1  0
 16 45  1  0
 16 46  1  0
 16 47  1  0
 18 48  1  0
 19 49  1  0
 20 50  1  0
 21 51  1  0
 24 52  1  0
 25 53  1  0
 26 54  1  0
 27 55  1  0
 28 56  1  0
M  CHG  1  15   1
M  END
>  <UniqueID>  (17) 
17

>  <SMILES>  (17) 
CCCN(CCNc1c2ccccc2[n+](C)c2ccccc12)c1ccccc1

>  <Energy>  (17) 
87.63421684391439

>  <Genealogy>  (17) 
CCCN(CCNc1c2ccccc2[n+](C)c2ccccc12)c1ccccc1 (3D coordinates assigned)
CCCN(CCNc1c2ccccc2[n+](C)c2ccccc12)c1ccccc1 (optimized conformer: 87.63421684391439 kcal/mol)

>  <smiles>  (17) 
CCCN(CCNc1c2ccccc2[n+](C)c2ccccc12)c1ccccc1

>  <score_type>  (17) 
oracle

>  <origin>  (17) 
adg

>  <m_score__min__energy>  (17) 
-9.3800000000000008

>  <m_primary>  (17) 
energy

$$$$
17:0
     RDKit          3D

 76 79  0  0  0  0  0  0  0  0999 V2000
   -4.2230   22.3190  -28.0100 C   0  0  0  0  0  0  0  0  0  0  0  0
   -3.9260   23.7840  -28.3800 C   0  0  0  0  0  0  0  0  0  0  0  0
   -3.3920   24.5220  -27.1430 C   0  0  0  0  0  0  0  0  0  0  0  0
   -5.1340   24.4680  -28.9060 N   0  0  0  0  0  0  0  0  0  0  0  0
   -5.6920   23.8190  -30.1110 C   0  0  0  0  0  0  0  0  0  0  0  0
   -4.6150   23.5470  -31.1740 C   0  0  0  0  0  0  0  0  0  0  0  0
   -5.2200   23.0460  -32.4090 N   0  0  0  0  0  0  0  0  0  0  0  0
   -5.7730   21.7250  -32.4830 C   0  0  0  0  0  0  0  0  0  0  0  0
   -7.1490   21.5130  -32.2800 C   0  0  0  0  0  0  0  0  0  0  0  0
   -7.9980   22.5590  -31.8670 C   0  0  0  0  0  0  0  0  0  0  0  0
   -9.3650   22.3420  -31.7080 C   0  0  0  0  0  0  0  0  0  0  0  0
   -9.9070   21.0870  -31.9650 C   0  0  0  0  0  0  0  0  0  0  0  0
   -9.0860   20.0330  -32.3670 C   0  0  0  0  0  0  0  0  0  0  0  0
   -7.6890   20.2120  -32.5150 C   0  0  0  0  0  0  0  0  0  0  0  0
   -6.8600   19.1700  -32.8930 N   0  0  0  0  0  0  0  0  0  0  0  0
   -7.3310   17.7760  -32.7960 C   0  0  0  0  0  0  0  0  0  0  0  0
   -5.5490   19.4620  -33.2030 C   0  0  0  0  0  0  0  0  0  0  0  0
   -5.0210   20.6710  -32.9030 N   0  0  0  0  0  0  0  0  0  0  0  0
   -3.6970   20.5470  -33.1450 C   0  0  0  0  0  0  0  0  0  0  0  0
   -2.6530   21.4400  -32.8750 C   0  0  0  0  0  0  0  0  0  0  0  0
   -1.3500   21.0510  -33.2120 C   0  0  0  0  0  0  0  0  0  0  0  0
   -1.1010   19.7830  -33.7750 C   0  0  0  0  0  0  0  0  0  0  0  0
   -2.1590   18.8690  -33.9920 C   0  0  0  0  0  0  0  0  0  0  0  0
   -1.9500   17.5740  -34.4950 O   0  0  0  0  0  0  0  0  0  0  0  0
   -1.2860   16.5120  -33.8080 C   0  0  0  0  0  0  0  0  0  0  0  0
   -2.2710   15.7620  -32.9020 C   0  0  0  0  0  0  0  0  0  0  0  0
   -2.8840   14.4770  -33.5230 C   0  0  0  0  0  0  0  0  0  0  0  0
   -3.4360   13.4460  -32.5810 N   0  0  0  0  0  0  0  0  0  0  0  0
   -4.5670   14.0620  -31.8410 C   0  0  0  0  0  0  0  0  0  0  0  0
   -2.4290   12.9960  -31.5880 C   0  0  0  0  0  0  0  0  0  0  0  0
   -3.9710   12.2720  -33.3150 C   0  0  0  0  0  0  0  0  0  0  0  0
   -3.4580   19.2970  -33.6640 C   0  0  0  0  0  0  0  0  0  0  0  0
   -4.6250   18.6110  -33.7480 N   0  0  0  0  0  0  0  0  0  0  0  0
   -4.8430   17.3910  -34.5340 C   0  0  0  0  0  0  0  0  0  0  0  0
   -4.2442   22.2144  -26.9152 H   0  0  0  0  0  0  0  0  0  0  0  0
   -5.1987   22.0265  -28.4253 H   0  0  0  0  0  0  0  0  0  0  0  0
   -3.4382   21.6696  -28.4253 H   0  0  0  0  0  0  0  0  0  0  0  0
   -3.1670   23.7957  -29.1761 H   0  0  0  0  0  0  0  0  0  0  0  0
   -3.7541   24.0216  -26.2328 H   0  0  0  0  0  0  0  0  0  0  0  0
   -2.2921   24.5099  -27.1552 H   0  0  0  0  0  0  0  0  0  0  0  0
   -3.7474   25.5629  -27.1552 H   0  0  0  0  0  0  0  0  0  0  0  0
   -5.8740   24.4870  -28.1640 H   0  0  0  0  0  0  0  0  0  0  0  0
   -4.9180   25.4680  -29.1320 H   0  0  0  0  0  0  0  0  0  0  0  0
   -6.1508   22.8630  -29.8185 H   0  0  0  0  0  0  0  0  0  0  0  0
   -6.4351   24.5014  -30.5493 H   0  0  0  0  0  0  0  0  0  0  0  0
   -4.0764   24.4816  -31.3894 H   0  0  0  0  0  0  0  0  0  0  0  0
   -3.9211   22.7863  -30.7869 H   0  0  0  0  0  0  0  0  0  0  0  0
   -5.0790   23.5860  -33.2920 H   0  0  0  0  0  0  0  0  0  0  0  0
   -7.5777   23.5559  -31.6683 H   0  0  0  0  0  0  0  0  0  0  0  0
  -10.0168   23.1646  -31.3786 H   0  0  0  0  0  0  0  0  0  0  0  0
  -10.9889   20.9246  -31.8507 H   0  0  0  0  0  0  0  0  0  0  0  0
   -9.5306   19.0480  -32.5721 H   0  0  0  0  0  0  0  0  0  0  0  0
   -7.4263   17.4940  -31.7370 H   0  0  0  0  0  0  0  0  0  0  0  0
   -8.3099   17.6846  -33.2893 H   0  0  0  0  0  0  0  0  0  0  0  0
   -6.6081   17.1096  -33.2893 H   0  0  0  0  0  0  0  0  0  0  0  0
   -2.8500   22.4181  -32.4119 H   0  0  0  0  0  0  0  0  0  0  0  0
   -0.5127   21.7422  -33.0354 H   0  0  0  0  0  0  0  0  0  0  0  0
   -0.0735   19.5011  -34.0485 H   0  0  0  0  0  0  0  0  0  0  0  0
   -0.8654   15.8113  -34.5443 H   0  0  0  0  0  0  0  0  0  0  0  0
   -0.4828   16.9360  -33.1875 H   0  0  0  0  0  0  0  0  0  0  0  0
   -1.7396   15.4767  -31.9821 H   0  0  0  0  0  0  0  0  0  0  0  0
   -3.1112   16.4495  -32.7248 H   0  0  0  0  0  0  0  0  0  0  0  0
   -3.7042   14.7904  -34.1856 H   0  0  0  0  0  0  0  0  0  0  0  0
   -2.0404   13.9773  -34.0217 H   0  0  0  0  0  0  0  0  0  0  0  0
   -4.3924   13.9669  -30.7591 H   0  0  0  0  0  0  0  0  0  0  0  0
   -4.6435   15.1264  -32.1079 H   0  0  0  0  0  0  0  0  0  0  0  0
   -5.5027   13.5489  -32.1079 H   0  0  0  0  0  0  0  0  0  0  0  0
   -2.8137   13.1679  -30.5719 H   0  0  0  0  0  0  0  0  0  0  0  0
   -2.2299   11.9233  -31.7280 H   0  0  0  0  0  0  0  0  0  0  0  0
   -1.4970   13.5633  -31.7280 H   0  0  0  0  0  0  0  0  0  0  0  0
   -4.3158   11.5153  -32.5949 H   0  0  0  0  0  0  0  0  0  0  0  0
   -4.8141   12.5878  -33.9470 H   0  0  0  0  0  0  0  0  0  0  0  0
   -3.1795   11.8429  -33.9470 H   0  0  0  0  0  0  0  0  0  0  0  0
   -4.9952   16.5394  -33.8546 H   0  0  0  0  0  0  0  0  0  0  0  0
   -5.7328   17.5176  -35.1683 H   0  0  0  0  0  0  0  0  0  0  0  0
   -3.9645   17.2016  -35.1683 H   0  0  0  0  0  0  0  0  0  0  0  0
  1  2  1  0
  2  3  1  0
  2  4  1  0
  4  5  1  0
  5  6  1  0
  6  7  1  0
  7  8  1  0
  8  9  2  0
  9 10  1  0
 10 11  2  0
 11 12  1  0
 12 13  2  0
 13 14  1  0
 14 15  2  0
 15 16  1  0
 15 17  1  0
 17 18  1  0
 18 19  1  0
 19 20  2  0
 20 21  1  0
 21 22  2  0
 22 23  1  0
 23 24  1  0
 24 25  1  0
 25 26  1  0
 26 27  1  0
 27 28  1  0
 28 29  1  0
 28 30  1  0
 28 31  1  0
 23 32  2  0
 32 33  1  0
 33 34  1  0
 18  8  1  0
 32 19  1  0
 14  9  1  0
 33 17  2  0
  1 35  1  0
  1 36  1  0
  1 37  1  0
  2 38  1  0
  3 39  1  0
  3 40  1  0
  3 41  1  0
  4 42  1  0
  4 43  1  0
  5 44  1  0
  5 45  1  0
  6 46  1  0
  6 47  1  0
  7 48  1  0
 10 49  1  0
 11 50  1  0
 12 51  1  0
 13 52  1  0
 16 53  1  0
 16 54  1  0
 16 55  1  0
 20 56  1  0
 21 57  1  0
 22 58  1  0
 25 59  1  0
 25 60  1  0
 26 61  1  0
 26 62  1  0
 27 63  1  0
 27 64  1  0
 29 65  1  0
 29 66  1  0
 29 67  1  0
 30 68  1  0
 30 69  1  0
 30 70  1  0
 31 71  1  0
 31 72  1  0
 31 73  1  0
 34 74  1  0
 34 75  1  0
 34 76  1  0
M  CHG  4   4   1  15   1  28   1  33   1
M  END
>  <UniqueID>  (18) 
18

>  <SMILES>  (18) 
CC(C)[NH2+]CCNc1c2ccccc2[n+](C)c2n1c1cccc(OCCC[N+](C)(C)C)c1[n+]2C

>  <Energy>  (18) 
157.02736853873196

>  <Genealogy>  (18) 
CC(C)[NH2+]CCNc1c2ccccc2[n+](C)c2n1c1cccc(OCCC[N+](C)(C)C)c1[n+]2C (protonated)
CC(C)[NH2+]CCNc1c2ccccc2[n+](C)c2n1c1cccc(OCCC[N+](C)(C)C)c1[n+]2C (3D coordinates assigned)
CC(C)[NH2+]CCNc1c2ccccc2[n+](C)c2n1c1cccc(OCCC[N+](C)(C)C)c1[n+]2C (optimized conformer: 157.02736853873196 kcal/mol)

>  <smiles>  (18) 
CC(C)NCCNc1c2ccccc2[n+](C)c2n1c1cccc(OCCC[N+](C)(C)C)c1[n+]2C

>  <score_type>  (18) 
oracle

>  <origin>  (18) 
adg

>  <m_score__min__energy>  (18) 
-7.3499999999999996

>  <m_primary>  (18) 
energy

$$$$
18:0
     RDKit          3D

 45 47  0  0  0  0  0  0  0  0999 V2000
   -8.4309   23.8747  -31.6646 H   0  0  0  0  0  0  0  0  0  0  0  0
   -8.3460   22.8000  -31.8830 C   0  0  0  0  0  0  0  0  0  0  0  0
   -9.4450   21.9640  -31.6960 C   0  0  0  0  0  0  0  0  0  0  0  0
  -10.3954   22.3788  -31.3290 H   0  0  0  0  0  0  0  0  0  0  0  0
   -9.3400   20.6020  -31.9740 C   0  0  0  0  0  0  0  0  0  0  0  0
  -10.2117   19.9469  -31.8289 H   0  0  0  0  0  0  0  0  0  0  0  0
   -8.1300   20.0590  -32.4380 C   0  0  0  0  0  0  0  0  0  0  0  0
   -7.0060   20.8960  -32.6280 C   0  0  0  0  0  0  0  0  0  0  0  0
   -7.1370   22.2770  -32.3470 C   0  0  0  0  0  0  0  0  0  0  0  0
   -6.2767   22.9461  -32.4958 H   0  0  0  0  0  0  0  0  0  0  0  0
   -5.7940   20.3500  -33.1240 C   0  0  0  0  0  0  0  0  0  0  0  0
   -4.8670   21.2110  -33.4750 N   0  0  0  0  0  0  0  0  0  0  0  0
   -3.9980   22.1030  -32.7160 C   0  0  0  0  0  0  0  0  0  0  0  0
   -4.3823   23.1319  -32.7761 H   0  0  0  0  0  0  0  0  0  0  0  0
   -2.9800   22.0738  -33.1318 H   0  0  0  0  0  0  0  0  0  0  0  0
   -3.9740   21.6480  -31.2540 C   0  0  0  0  0  0  0  0  0  0  0  0
   -2.9276   21.5596  -30.9266 H   0  0  0  0  0  0  0  0  0  0  0  0
   -4.4936   20.6806  -31.1905 H   0  0  0  0  0  0  0  0  0  0  0  0
   -4.7000   22.6380  -30.3320 C   0  0  0  0  0  0  0  0  0  0  0  0
   -4.5026   22.3635  -29.2853 H   0  0  0  0  0  0  0  0  0  0  0  0
   -5.7770   22.5900  -30.5506 H   0  0  0  0  0  0  0  0  0  0  0  0
   -4.2380   24.0260  -30.5620 N   0  0  0  0  0  0  0  0  0  0  0  0
   -5.3580   24.9520  -30.8100 C   0  0  0  0  0  0  0  0  0  0  0  0
   -5.7710   25.2935  -29.8494 H   0  0  0  0  0  0  0  0  0  0  0  0
   -4.9970   25.8189  -31.3828 H   0  0  0  0  0  0  0  0  0  0  0  0
   -6.1416   24.4345  -31.3828 H   0  0  0  0  0  0  0  0  0  0  0  0
   -3.3360   24.5120  -29.4930 C   0  0  0  0  0  0  0  0  0  0  0  0
   -3.2929   25.6097  -29.5493 H   0  0  0  0  0  0  0  0  0  0  0  0
   -2.3570   24.0405  -29.6637 H   0  0  0  0  0  0  0  0  0  0  0  0
   -3.7780   24.1180  -28.0760 C   0  0  0  0  0  0  0  0  0  0  0  0
   -3.1692   24.6607  -27.3378 H   0  0  0  0  0  0  0  0  0  0  0  0
   -4.8383   24.3760  -27.9376 H   0  0  0  0  0  0  0  0  0  0  0  0
   -3.6431   23.0351  -27.9376 H   0  0  0  0  0  0  0  0  0  0  0  0
   -5.7030   18.9250  -33.2900 C   0  0  0  0  0  0  0  0  0  0  0  0
   -4.5020   18.2210  -33.5550 C   0  0  0  0  0  0  0  0  0  0  0  0
   -3.5518   18.7735  -33.5970 H   0  0  0  0  0  0  0  0  0  0  0  0
   -4.5000   16.8400  -33.7640 C   0  0  0  0  0  0  0  0  0  0  0  0
   -3.5571   16.3241  -33.9982 H   0  0  0  0  0  0  0  0  0  0  0  0
   -5.6810   16.1140  -33.6780 C   0  0  0  0  0  0  0  0  0  0  0  0
   -5.6690   14.3790  -33.9380 Cl  0  0  0  0  0  0  0  0  0  0  0  0
   -6.8660   16.7610  -33.3420 C   0  0  0  0  0  0  0  0  0  0  0  0
   -7.7957   16.1806  -33.2484 H   0  0  0  0  0  0  0  0  0  0  0  0
   -6.8870   18.1490  -33.1210 C   0  0  0  0  0  0  0  0  0  0  0  0
   -8.0490   18.7330  -32.7190 N   0  0  0  0  0  0  0  0  0  0  0  0
   -8.9010   18.1380  -32.5930 H   0  0  0  0  0  0  0  0  0  0  0  0
  1  2  1  0
  2  3  2  0
  3  4  1  0
  3  5  1  0
  5  6  1  0
  5  7  2  0
  7  8  1  0
  8  9  2  0
  9 10  1  0
  8 11  1  0
 11 12  2  0
 12 13  1  0
 13 14  1  0
 13 15  1  0
 13 16  1  0
 16 17  1  0
 16 18  1  0
 16 19  1  0
 19 20  1  0
 19 21  1  0
 19 22  1  0
 22 23  1  0
 23 24  1  0
 23 25  1  0
 23 26  1  0
 22 27  1  0
 27 28  1  0
 27 29  1  0
 27 30  1  0
 30 31  1  0
 30 32  1  0
 30 33  1  0
 11 34  1  0
 34 35  2  0
 35 36  1  0
 35 37  1  0
 37 38  1  0
 37 39  2  0
 39 40  1  0
 39 41  1  0
 41 42  1  0
 41 43  2  0
 43 44  1  0
 44 45  1  0
  9  2  1  0
 43 34  1  0
 44  7  1  0
M  END
>  <UniqueID>  (19) 
19

>  <SMILES>  (19) 
CCN(C)CCC/N=c1/c2ccccc2[nH]c2cc(Cl)ccc12

>  <Energy>  (19) 
69.02736085908278

>  <Genealogy>  (19) 
CCN(C)CCC/N=c1/c2ccccc2[nH]c2cc(Cl)ccc12 (cis-trans isomerization)
CCN(C)CCC/N=c1/c2ccccc2[nH]c2cc(Cl)ccc12 (3D coordinates assigned)
CCN(C)CCC/N=c1/c2ccccc2[nH]c2cc(Cl)ccc12 (optimized conformer: 69.02736085908278 kcal/mol)

>  <smiles>  (19) 
CCN(C)CCCN=c1c2ccccc2[nH]c2cc(Cl)ccc12

>  <score_type>  (19) 
oracle

>  <origin>  (19) 
adg

>  <m_score__min__energy>  (19) 
-8.4600000000000009

>  <m_primary>  (19) 
energy

$$$$
19:0
     RDKit          3D

 65 67  0  0  0  0  0  0  0  0999 V2000
   -2.0130   20.7640  -30.0010 C   0  0  0  0  0  0  0  0  0  0  0  0
   -1.2820   20.0220  -28.8660 C   0  0  0  0  0  0  0  0  0  0  0  0
   -1.8740   20.2090  -27.5100 N   0  0  0  0  0  0  0  0  0  0  0  0
   -2.0390   18.9440  -26.7490 C   0  0  0  0  0  0  0  0  0  0  0  0
   -3.4760   18.7340  -26.2510 C   0  0  0  0  0  0  0  0  0  0  0  0
   -1.1160   21.2190  -26.7140 C   0  0  0  0  0  0  0  0  0  0  0  0
   -1.6330   22.6480  -26.9560 C   0  0  0  0  0  0  0  0  0  0  0  0
   -2.9400   22.6190  -27.5010 O   0  0  0  0  0  0  0  0  0  0  0  0
   -3.2000   23.7610  -28.2980 C   0  0  0  0  0  0  0  0  0  0  0  0
   -4.6860   23.8680  -28.6750 C   0  0  0  0  0  0  0  0  0  0  0  0
   -4.9610   24.9090  -29.7700 C   0  0  0  0  0  0  0  0  0  0  0  0
   -4.4200   24.4780  -31.0690 N   0  0  0  0  0  0  0  0  0  0  0  0
   -4.3570   23.0120  -31.2210 C   0  0  0  0  0  0  0  0  0  0  0  0
   -4.5220   22.5300  -32.6770 C   0  0  0  0  0  0  0  0  0  0  0  0
   -4.4950   21.0280  -32.7980 C   0  0  0  0  0  0  0  0  0  0  0  0
   -5.5750   20.1370  -32.7290 C   0  0  0  0  0  0  0  0  0  0  0  0
   -6.9790   20.4770  -32.4290 C   0  0  0  0  0  0  0  0  0  0  0  0
   -7.2840   21.7150  -31.8400 C   0  0  0  0  0  0  0  0  0  0  0  0
   -8.6110   22.0550  -31.5600 C   0  0  0  0  0  0  0  0  0  0  0  0
   -9.6430   21.1710  -31.8820 C   0  0  0  0  0  0  0  0  0  0  0  0
   -9.3500   19.9430  -32.4820 C   0  0  0  0  0  0  0  0  0  0  0  0
   -8.0230   19.6000  -32.7640 C   0  0  0  0  0  0  0  0  0  0  0  0
   -5.1800   18.8820  -33.0520 N   0  0  0  0  0  0  0  0  0  0  0  0
   -3.8670   18.9650  -33.3230 C   0  0  0  0  0  0  0  0  0  0  0  0
   -3.0280   17.9320  -33.7380 C   0  0  0  0  0  0  0  0  0  0  0  0
   -1.6880   18.2480  -34.0240 C   0  0  0  0  0  0  0  0  0  0  0  0
   -1.2240   19.5750  -33.8990 C   0  0  0  0  0  0  0  0  0  0  0  0
   -2.0920   20.5970  -33.4780 C   0  0  0  0  0  0  0  0  0  0  0  0
   -3.4140   20.2530  -33.1870 C   0  0  0  0  0  0  0  0  0  0  0  0
   -2.7232   21.4849  -29.5699 H   0  0  0  0  0  0  0  0  0  0  0  0
   -1.2791   21.2988  -30.6218 H   0  0  0  0  0  0  0  0  0  0  0  0
   -2.5587   20.0381  -30.6218 H   0  0  0  0  0  0  0  0  0  0  0  0
   -1.2928   18.9468  -29.0982 H   0  0  0  0  0  0  0  0  0  0  0  0
   -0.2687   20.4478  -28.8216 H   0  0  0  0  0  0  0  0  0  0  0  0
   -2.8430   20.5820  -27.6590 H   0  0  0  0  0  0  0  0  0  0  0  0
   -1.7668   18.1022  -27.4027 H   0  0  0  0  0  0  0  0  0  0  0  0
   -1.3866   19.0010  -25.8652 H   0  0  0  0  0  0  0  0  0  0  0  0
   -3.4863   18.7325  -25.1510 H   0  0  0  0  0  0  0  0  0  0  0  0
   -4.1155   19.5482  -26.6226 H   0  0  0  0  0  0  0  0  0  0  0  0
   -3.8558   17.7708  -26.6226 H   0  0  0  0  0  0  0  0  0  0  0  0
   -1.2197   20.9798  -25.6453 H   0  0  0  0  0  0  0  0  0  0  0  0
   -0.0629   21.1802  -27.0295 H   0  0  0  0  0  0  0  0  0  0  0  0
   -1.6517   23.1925  -26.0004 H   0  0  0  0  0  0  0  0  0  0  0  0
   -0.9628   23.1521  -27.6678 H   0  0  0  0  0  0  0  0  0  0  0  0
   -2.9096   24.6609  -27.7360 H   0  0  0  0  0  0  0  0  0  0  0  0
   -2.6176   23.6695  -29.2266 H   0  0  0  0  0  0  0  0  0  0  0  0
   -5.0269   22.8856  -29.0336 H   0  0  0  0  0  0  0  0  0  0  0  0
   -5.2284   24.1913  -27.7743 H   0  0  0  0  0  0  0  0  0  0  0  0
   -6.0478   25.0507  -29.8642 H   0  0  0  0  0  0  0  0  0  0  0  0
   -4.4678   25.8499  -29.4847 H   0  0  0  0  0  0  0  0  0  0  0  0
   -3.4740   24.8980  -31.2110 H   0  0  0  0  0  0  0  0  0  0  0  0
   -3.3810   22.6663  -30.8496 H   0  0  0  0  0  0  0  0  0  0  0  0
   -5.1974   22.5938  -30.6476 H   0  0  0  0  0  0  0  0  0  0  0  0
   -5.4847   22.8970  -33.0624 H   0  0  0  0  0  0  0  0  0  0  0  0
   -3.6749   22.9257  -33.2565 H   0  0  0  0  0  0  0  0  0  0  0  0
   -6.4753   22.4202  -31.5979 H   0  0  0  0  0  0  0  0  0  0  0  0
   -8.8424   23.0200  -31.0855 H   0  0  0  0  0  0  0  0  0  0  0  0
  -10.6867   21.4411  -31.6634 H   0  0  0  0  0  0  0  0  0  0  0  0
  -10.1631   19.2458  -32.7326 H   0  0  0  0  0  0  0  0  0  0  0  0
   -7.7969   18.6395  -33.2501 H   0  0  0  0  0  0  0  0  0  0  0  0
   -5.7760   18.0260  -33.1000 H   0  0  0  0  0  0  0  0  0  0  0  0
   -3.4023   16.9025  -33.8385 H   0  0  0  0  0  0  0  0  0  0  0  0
   -0.9968   17.4557  -34.3473 H   0  0  0  0  0  0  0  0  0  0  0  0
   -0.1754   19.8111  -34.1328 H   0  0  0  0  0  0  0  0  0  0  0  0
   -1.7413   21.6350  -33.3807 H   0  0  0  0  0  0  0  0  0  0  0  0
  1  2  1  0
  2  3  1  0
  3  4  1  0
  4  5  1  0
  3  6  1  0
  6  7  1  0
  7  8  1  0
  8  9  1  0
  9 10  1  0
 10 11  1  0
 11 12  1  0
 12 13  1  0
 13 14  1  0
 14 15  1  0
 15 16  2  0
 16 17  1  0
 17 18  2  0
 18 19  1  0
 19 20  2  0
 20 21  1  0
 21 22  2  0
 16 23  1  0
 23 24  1  0
 24 25  2  0
 25 26  1  0
 26 27  2  0
 27 28  1  0
 28 29  2  0
 29 15  1  0
 22 17  1  0
 29 24  1  0
  1 30  1  0
  1 31  1  0
  1 32  1  0
  2 33  1  0
  2 34  1  0
  3 35  1  0
  4 36  1  0
  4 37  1  0
  5 38  1  0
  5 39  1  0
  5 40  1  0
  6 41  1  0
  6 42  1  0
  7 43  1  0
  7 44  1  0
  9 45  1  0
  9 46  1  0
 10 47  1  0
 10 48  1  0
 11 49  1  0
 11 50  1  0
 12 51  1  0
 13 52  1  0
 13 53  1  0
 14 54  1  0
 14 55  1  0
 18 56  1  0
 19 57  1  0
 20 58  1  0
 21 59  1  0
 22 60  1  0
 23 61  1  0
 25 62  1  0
 26 63  1  0
 27 64  1  0
 28 65  1  0
M  CHG  1   3   1
M  END
>  <UniqueID>  (20) 
20

>  <SMILES>  (20) 
CC[NH+](CC)CCOCCCNCCc1c(-c2ccccc2)[nH]c2ccccc12

>  <Energy>  (20) 
107.6115414726829

>  <Genealogy>  (20) 
CC[NH+](CC)CCOCCCNCCc1c(-c2ccccc2)[nH]c2ccccc12 (protonated)
CC[NH+](CC)CCOCCCNCCc1c(-c2ccccc2)[nH]c2ccccc12 (3D coordinates assigned)
CC[NH+](CC)CCOCCCNCCc1c(-c2ccccc2)[nH]c2ccccc12 (optimized conformer: 107.6115414726829 kcal/mol)

>  <smiles>  (20) 
CCN(CC)CCOCCCNCCc1c(-c2ccccc2)[nH]c2ccccc12

>  <score_type>  (20) 
oracle

>  <origin>  (20) 
adg

>  <m_score__min__energy>  (20) 
-7.3300000000000001

>  <m_primary>  (20) 
energy

$$$$
20:0
     RDKit          3D

 47 48  0  0  0  0  0  0  0  0999 V2000
   -1.8990   25.7550  -25.6540 C   0  0  0  0  0  0  0  0  0  0  0  0
   -1.9030   24.9740  -26.9640 C   0  0  0  0  0  0  0  0  0  0  0  0
   -3.1930   24.2680  -27.1400 N   0  0  0  0  0  0  0  0  0  0  0  0
   -4.2520   24.9230  -26.3510 C   0  0  0  0  0  0  0  0  0  0  0  0
   -3.5870   24.1930  -28.5660 C   0  0  0  0  0  0  0  0  0  0  0  0
   -3.9530   22.7580  -28.9470 C   0  0  0  0  0  0  0  0  0  0  0  0
   -4.8610   22.7580  -30.0260 O   0  0  0  0  0  0  0  0  0  0  0  0
   -5.7860   23.8140  -29.8700 C   0  0  0  0  0  0  0  0  0  0  0  0
   -6.0840   24.4370  -31.2340 C   0  0  0  0  0  0  0  0  0  0  0  0
   -6.2660   23.4050  -32.2580 N   0  0  0  0  0  0  0  0  0  0  0  0
   -7.2440   22.3600  -32.1390 C   0  0  0  0  0  0  0  0  0  0  0  0
   -8.5180   22.6860  -31.6510 C   0  0  0  0  0  0  0  0  0  0  0  0
   -9.4840   21.6970  -31.4980 C   0  0  0  0  0  0  0  0  0  0  0  0
   -9.1970   20.4130  -31.8220 N   0  0  0  0  0  0  0  0  0  0  0  0
   -7.9830   20.0440  -32.3050 C   0  0  0  0  0  0  0  0  0  0  0  0
   -7.7660   18.7030  -32.6260 C   0  0  0  0  0  0  0  0  0  0  0  0
   -6.5400   18.2940  -33.1420 C   0  0  0  0  0  0  0  0  0  0  0  0
   -6.2790   16.6060  -33.5450 Cl  0  0  0  0  0  0  0  0  0  0  0  0
   -5.5220   19.2250  -33.3480 C   0  0  0  0  0  0  0  0  0  0  0  0
   -5.7090   20.5860  -33.0350 C   0  0  0  0  0  0  0  0  0  0  0  0
   -4.6840   21.5170  -33.2670 O   0  0  0  0  0  0  0  0  0  0  0  0
   -3.3900   21.4730  -32.6730 C   0  0  0  0  0  0  0  0  0  0  0  0
   -6.9550   21.0100  -32.4900 C   0  0  0  0  0  0  0  0  0  0  0  0
   -1.9026   25.0520  -24.8080 H   0  0  0  0  0  0  0  0  0  0  0  0
   -0.9976   26.3836  -25.6046 H   0  0  0  0  0  0  0  0  0  0  0  0
   -2.7939   26.3928  -25.6046 H   0  0  0  0  0  0  0  0  0  0  0  0
   -1.7539   25.6709  -27.8019 H   0  0  0  0  0  0  0  0  0  0  0  0
   -1.0908   24.2326  -26.9400 H   0  0  0  0  0  0  0  0  0  0  0  0
   -4.0433   24.7939  -25.2787 H   0  0  0  0  0  0  0  0  0  0  0  0
   -4.2790   25.9958  -26.5928 H   0  0  0  0  0  0  0  0  0  0  0  0
   -5.2239   24.4681  -26.5928 H   0  0  0  0  0  0  0  0  0  0  0  0
   -4.4562   24.8453  -28.7359 H   0  0  0  0  0  0  0  0  0  0  0  0
   -2.7396   24.5201  -29.1864 H   0  0  0  0  0  0  0  0  0  0  0  0
   -3.0416   22.2157  -29.2389 H   0  0  0  0  0  0  0  0  0  0  0  0
   -4.4221   22.2653  -28.0826 H   0  0  0  0  0  0  0  0  0  0  0  0
   -6.7174   23.4240  -29.4338 H   0  0  0  0  0  0  0  0  0  0  0  0
   -5.3604   24.5784  -29.2032 H   0  0  0  0  0  0  0  0  0  0  0  0
   -7.0031   25.0370  -31.1616 H   0  0  0  0  0  0  0  0  0  0  0  0
   -5.2310   25.0686  -31.5229 H   0  0  0  0  0  0  0  0  0  0  0  0
   -5.6360   23.4190  -33.0910 H   0  0  0  0  0  0  0  0  0  0  0  0
   -8.7540   23.7278  -31.3883 H   0  0  0  0  0  0  0  0  0  0  0  0
  -10.4813   21.9573  -31.1138 H   0  0  0  0  0  0  0  0  0  0  0  0
   -8.5678   17.9661  -32.4704 H   0  0  0  0  0  0  0  0  0  0  0  0
   -4.5586   18.8916  -33.7611 H   0  0  0  0  0  0  0  0  0  0  0  0
   -3.4891   21.4764  -31.5775 H   0  0  0  0  0  0  0  0  0  0  0  0
   -2.8713   20.5567  -32.9914 H   0  0  0  0  0  0  0  0  0  0  0  0
   -2.8103   22.3520  -32.9914 H   0  0  0  0  0  0  0  0  0  0  0  0
  1  2  1  0
  2  3  1  0
  3  4  1  0
  3  5  1  0
  5  6  1  0
  6  7  1  0
  7  8  1  0
  8  9  1  0
  9 10  1  0
 10 11  1  0
 11 12  2  0
 12 13  1  0
 13 14  2  0
 14 15  1  0
 15 16  2  0
 16 17  1  0
 17 18  1  0
 17 19  2  0
 19 20  1  0
 20 21  1  0
 21 22  1  0
 20 23  2  0
 23 11  1  0
 23 15  1  0
  1 24  1  0
  1 25  1  0
  1 26  1  0
  2 27  1  0
  2 28  1  0
  4 29  1  0
  4 30  1  0
  4 31  1  0
  5 32  1  0
  5 33  1  0
  6 34  1  0
  6 35  1  0
  8 36  1  0
  8 37  1  0
  9 38  1  0
  9 39  1  0
 10 40  1  0
 12 41  1  0
 13 42  1  0
 16 43  1  0
 19 44  1  0
 22 45  1  0
 22 46  1  0
 22 47  1  0
M  END
>  <UniqueID>  (21) 
21

>  <SMILES>  (21) 
CCN(C)CCOCCNc1ccnc2cc(Cl)cc(OC)c12

>  <Energy>  (21) 
51.129110794836095

>  <Genealogy>  (21) 
CCN(C)CCOCCNc1ccnc2cc(Cl)cc(OC)c12 (3D coordinates assigned)
CCN(C)CCOCCNc1ccnc2cc(Cl)cc(OC)c12 (optimized conformer: 51.129110794836095 kcal/mol)

>  <smiles>  (21) 
CCN(C)CCOCCNc1ccnc2cc(Cl)cc(OC)c12

>  <score_type>  (21) 
oracle

>  <origin>  (21) 
adg

>  <m_score__min__energy>  (21) 
-7.8899999999999997

>  <m_primary>  (21) 
energy

$$$$
21:0
     RDKit          3D

 53 56  0  0  0  0  0  0  0  0999 V2000
    1.7850   26.5340  -24.2020 C   0  0  0  0  0  0  0  0  0  0  0  0
    0.3270   26.5630  -24.0450 N   0  0  0  0  0  0  0  0  0  0  0  0
   -0.2450   27.1540  -22.8290 C   0  0  0  0  0  0  0  0  0  0  0  0
   -0.5320   26.0130  -25.0760 C   0  0  0  0  0  0  0  0  0  0  0  0
    0.0120   25.2670  -26.1430 C   0  0  0  0  0  0  0  0  0  0  0  0
   -0.8350   24.7420  -27.1260 C   0  0  0  0  0  0  0  0  0  0  0  0
   -0.3350   23.9960  -28.2000 C   0  0  0  0  0  0  0  0  0  0  0  0
   -1.2100   23.4870  -29.1620 C   0  0  0  0  0  0  0  0  0  0  0  0
   -2.5910   23.7270  -29.0430 C   0  0  0  0  0  0  0  0  0  0  0  0
   -3.5570   23.2110  -30.0370 C   0  0  0  0  0  0  0  0  0  0  0  0
   -4.9340   23.3680  -30.0380 C   0  0  0  0  0  0  0  0  0  0  0  0
   -5.3980   22.7240  -31.1730 C   0  0  0  0  0  0  0  0  0  0  0  0
   -6.8110   22.6840  -31.6040 C   0  0  0  0  0  0  0  0  0  0  0  0
   -7.3030   23.6870  -32.1890 O   0  0  0  0  0  0  0  0  0  0  0  0
   -7.6330   21.5240  -31.3670 N   0  0  0  0  0  0  0  0  0  0  0  0
   -7.0650   20.1750  -31.5340 C   0  0  0  0  0  0  0  0  0  0  0  0
   -8.1610   19.1240  -31.7610 C   0  0  0  0  0  0  0  0  0  0  0  0
   -9.2070   19.6500  -32.7520 C   0  0  0  0  0  0  0  0  0  0  0  0
   -9.8560   20.9740  -32.2910 C   0  0  0  0  0  0  0  0  0  0  0  0
   -9.0800   21.6740  -31.1640 C   0  0  0  0  0  0  0  0  0  0  0  0
   -4.3590   22.1920  -31.8560 N   0  0  0  0  0  0  0  0  0  0  0  0
   -4.4090   21.4550  -33.1170 C   0  0  0  0  0  0  0  0  0  0  0  0
   -3.2370   22.4880  -31.1710 C   0  0  0  0  0  0  0  0  0  0  0  0
   -3.0520   24.4570  -27.9890 N   0  0  0  0  0  0  0  0  0  0  0  0
   -2.2180   24.9630  -27.0400 C   0  0  0  0  0  0  0  0  0  0  0  0
   -2.7270   25.7040  -25.9750 C   0  0  0  0  0  0  0  0  0  0  0  0
   -1.8880   26.2070  -25.0270 N   0  0  0  0  0  0  0  0  0  0  0  0
    2.2605   26.5245  -23.2101 H   0  0  0  0  0  0  0  0  0  0  0  0
    2.0761   25.6299  -24.7568 H   0  0  0  0  0  0  0  0  0  0  0  0
    2.1119   27.4258  -24.7568 H   0  0  0  0  0  0  0  0  0  0  0  0
    0.2096   26.6843  -21.9442 H   0  0  0  0  0  0  0  0  0  0  0  0
   -0.0412   28.2349  -22.8158 H   0  0  0  0  0  0  0  0  0  0  0  0
   -1.3320   26.9856  -22.8158 H   0  0  0  0  0  0  0  0  0  0  0  0
    1.0974   25.0987  -26.2021 H   0  0  0  0  0  0  0  0  0  0  0  0
    0.7459   23.8110  -28.2860 H   0  0  0  0  0  0  0  0  0  0  0  0
   -0.8214   22.9015  -30.0083 H   0  0  0  0  0  0  0  0  0  0  0  0
   -5.5380   23.8984  -29.2871 H   0  0  0  0  0  0  0  0  0  0  0  0
   -6.3880   20.1776  -32.4010 H   0  0  0  0  0  0  0  0  0  0  0  0
   -6.5233   19.9135  -30.6131 H   0  0  0  0  0  0  0  0  0  0  0  0
   -7.7066   18.2076  -32.1656 H   0  0  0  0  0  0  0  0  0  0  0  0
   -8.6540   18.9087  -30.8015 H   0  0  0  0  0  0  0  0  0  0  0  0
   -8.7181   19.8177  -33.7230 H   0  0  0  0  0  0  0  0  0  0  0  0
  -10.0054   18.8965  -32.8218 H   0  0  0  0  0  0  0  0  0  0  0  0
   -9.9090   21.6551  -33.1531 H   0  0  0  0  0  0  0  0  0  0  0  0
  -10.8519   20.7268  -31.8947 H   0  0  0  0  0  0  0  0  0  0  0  0
   -9.3360   22.7438  -31.1583 H   0  0  0  0  0  0  0  0  0  0  0  0
   -9.3545   21.2138  -30.2033 H   0  0  0  0  0  0  0  0  0  0  0  0
   -4.4821   20.3773  -32.9092 H   0  0  0  0  0  0  0  0  0  0  0  0
   -5.2873   21.7773  -33.6955 H   0  0  0  0  0  0  0  0  0  0  0  0
   -3.4952   21.6557  -33.6955 H   0  0  0  0  0  0  0  0  0  0  0  0
   -2.2188   22.1978  -31.4695 H   0  0  0  0  0  0  0  0  0  0  0  0
   -3.8097   25.8832  -25.8997 H   0  0  0  0  0  0  0  0  0  0  0  0
   -2.3180   26.7660  -24.2590 H   0  0  0  0  0  0  0  0  0  0  0  0
  1  2  1  0
  2  3  1  0
  2  4  1  0
  4  5  2  0
  5  6  1  0
  6  7  2  0
  7  8  1  0
  8  9  2  0
  9 10  1  0
 10 11  1  0
 11 12  2  0
 12 13  1  0
 13 14  2  0
 13 15  1  0
 15 16  1  0
 16 17  1  0
 17 18  1  0
 18 19  1  0
 19 20  1  0
 12 21  1  0
 21 22  1  0
 21 23  1  0
  9 24  1  0
 24 25  2  0
 25 26  1  0
 26 27  2  0
 27  4  1  0
 25  6  1  0
 23 10  2  0
 20 15  1  0
  1 28  1  0
  1 29  1  0
  1 30  1  0
  3 31  1  0
  3 32  1  0
  3 33  1  0
  5 34  1  0
  7 35  1  0
  8 36  1  0
 11 37  1  0
 16 38  1  0
 16 39  1  0
 17 40  1  0
 17 41  1  0
 18 42  1  0
 18 43  1  0
 19 44  1  0
 19 45  1  0
 20 46  1  0
 20 47  1  0
 22 48  1  0
 22 49  1  0
 22 50  1  0
 23 51  1  0
 26 52  1  0
 27 53  1  0
M  CHG  1  27   1
M  END
>  <UniqueID>  (22) 
22

>  <SMILES>  (22) 
CN(C)c1cc2ccc(-c3cc(C(=O)N4CCCCC4)n(C)c3)nc2c[nH+]1

>  <Energy>  (22) 
92.05753233398379

>  <Genealogy>  (22) 
CN(C)c1cc2ccc(-c3cc(C(=O)N4CCCCC4)n(C)c3)nc2c[nH+]1 (protonated)
CN(C)c1cc2ccc(-c3cc(C(=O)N4CCCCC4)n(C)c3)nc2c[nH+]1 (3D coordinates assigned)
CN(C)c1cc2ccc(-c3cc(C(=O)N4CCCCC4)n(C)c3)nc2c[nH+]1 (nonaromatic ring conformer: 92.05753233398379 kcal/mol)

>  <smiles>  (22) 
CN(C)c1cc2ccc(-c3cc(C(=O)N4CCCCC4)n(C)c3)nc2cn1

>  <score_type>  (22) 
oracle

>  <origin>  (22) 
adg

>  <m_score__min__energy>  (22) 
-8.3800000000000008

>  <m_primary>  (22) 
energy

$$$$
22:0
     RDKit          3D

 54 55  0  0  0  0  0  0  0  0999 V2000
   -5.2220   17.0970  -34.4140 C   0  0  0  0  0  0  0  0  0  0  0  0
   -5.7390   18.4320  -34.9400 C   0  0  0  0  0  0  0  0  0  0  0  0
   -6.4460   19.1540  -33.8710 N   0  0  0  0  0  0  0  0  0  0  0  0
   -6.3730   18.4610  -32.5740 C   0  0  0  0  0  0  0  0  0  0  0  0
   -7.7350   17.8700  -32.1590 C   0  0  0  0  0  0  0  0  0  0  0  0
   -8.7180   18.9560  -31.6770 C   0  0  0  0  0  0  0  0  0  0  0  0
   -9.0460   19.9360  -32.7300 N   0  0  0  0  0  0  0  0  0  0  0  0
   -8.7170   21.3150  -32.3370 C   0  0  0  0  0  0  0  0  0  0  0  0
   -7.2470   21.6230  -32.6640 C   0  0  0  0  0  0  0  0  0  0  0  0
   -6.9290   23.0530  -32.5090 N   0  0  0  0  0  0  0  0  0  0  0  0
   -5.8450   23.2630  -31.5730 C   0  0  0  0  0  0  0  0  0  0  0  0
   -6.0620   24.0630  -30.4130 C   0  0  0  0  0  0  0  0  0  0  0  0
   -7.2900   24.5830  -30.1630 F   0  0  0  0  0  0  0  0  0  0  0  0
   -5.0140   24.3360  -29.5170 C   0  0  0  0  0  0  0  0  0  0  0  0
   -3.7610   23.8000  -29.8010 C   0  0  0  0  0  0  0  0  0  0  0  0
   -3.5320   23.0360  -30.9050 C   0  0  0  0  0  0  0  0  0  0  0  0
   -2.2380   22.6630  -30.9590 N   0  0  0  0  0  0  0  0  0  0  0  0
   -1.7050   23.2340  -29.8490 C   0  0  0  0  0  0  0  0  0  0  0  0
   -2.6120   23.9260  -29.1170 N   0  0  0  0  0  0  0  0  0  0  0  0
   -2.3500   24.7150  -27.9140 C   0  0  0  0  0  0  0  0  0  0  0  0
   -1.1760   25.6590  -28.1450 C   0  0  0  0  0  0  0  0  0  0  0  0
   -4.5460   22.7290  -31.8140 C   0  0  0  0  0  0  0  0  0  0  0  0
   -4.2570   21.9080  -32.9510 N   0  0  0  0  0  0  0  0  0  0  0  0
   -3.5840   20.6270  -32.7840 C   0  0  0  0  0  0  0  0  0  0  0  0
   -5.2269   17.1096  -33.3141 H   0  0  0  0  0  0  0  0  0  0  0  0
   -5.8707   16.2849  -34.7743 H   0  0  0  0  0  0  0  0  0  0  0  0
   -4.1956   16.9336  -34.7743 H   0  0  0  0  0  0  0  0  0  0  0  0
   -4.8909   19.0387  -35.2901 H   0  0  0  0  0  0  0  0  0  0  0  0
   -6.4343   18.2475  -35.7722 H   0  0  0  0  0  0  0  0  0  0  0  0
   -7.4480   19.2890  -34.1460 H   0  0  0  0  0  0  0  0  0  0  0  0
   -5.6392   17.6449  -32.6479 H   0  0  0  0  0  0  0  0  0  0  0  0
   -6.0744   19.1958  -31.8119 H   0  0  0  0  0  0  0  0  0  0  0  0
   -8.1751   17.3524  -33.0241 H   0  0  0  0  0  0  0  0  0  0  0  0
   -7.5618   17.1760  -31.3233 H   0  0  0  0  0  0  0  0  0  0  0  0
   -9.6476   18.4682  -31.3485 H   0  0  0  0  0  0  0  0  0  0  0  0
   -8.2322   19.5022  -30.8550 H   0  0  0  0  0  0  0  0  0  0  0  0
   -8.5250   19.7030  -33.6060 H   0  0  0  0  0  0  0  0  0  0  0  0
   -9.3655   22.0139  -32.8856 H   0  0  0  0  0  0  0  0  0  0  0  0
   -8.8754   21.4275  -31.2543 H   0  0  0  0  0  0  0  0  0  0  0  0
   -6.6043   21.0419  -31.9863 H   0  0  0  0  0  0  0  0  0  0  0  0
   -7.0712   21.3505  -33.7151 H   0  0  0  0  0  0  0  0  0  0  0  0
   -7.7880   23.5760  -32.2280 H   0  0  0  0  0  0  0  0  0  0  0  0
   -6.6470   23.4360  -33.4420 H   0  0  0  0  0  0  0  0  0  0  0  0
   -5.1785   24.9527  -28.6211 H   0  0  0  0  0  0  0  0  0  0  0  0
   -0.6444   23.1443  -29.5715 H   0  0  0  0  0  0  0  0  0  0  0  0
   -3.2451   25.3036  -27.6642 H   0  0  0  0  0  0  0  0  0  0  0  0
   -2.1035   24.0337  -27.0863 H   0  0  0  0  0  0  0  0  0  0  0  0
   -0.7711   25.9846  -27.1755 H   0  0  0  0  0  0  0  0  0  0  0  0
   -0.3920   25.1369  -28.7131 H   0  0  0  0  0  0  0  0  0  0  0  0
   -1.5176   26.5368  -28.7131 H   0  0  0  0  0  0  0  0  0  0  0  0
   -4.2490   22.3550  -33.8950 H   0  0  0  0  0  0  0  0  0  0  0  0
   -3.4699   20.4098  -31.7117 H   0  0  0  0  0  0  0  0  0  0  0  0
   -4.1820   19.8342  -33.2571 H   0  0  0  0  0  0  0  0  0  0  0  0
   -2.5918   20.6696  -33.2571 H   0  0  0  0  0  0  0  0  0  0  0  0
  1  2  1  0
  2  3  1  0
  3  4  1  0
  4  5  1  0
  5  6  1  0
  6  7  1  0
  7  8  1  0
  8  9  1  0
  9 10  1  0
 10 11  1  0
 11 12  2  0
 12 13  1  0
 12 14  1  0
 14 15  2  0
 15 16  1  0
 16 17  1  0
 17 18  2  0
 18 19  1  0
 19 20  1  0
 20 21  1  0
 16 22  2  0
 22 23  1  0
 23 24  1  0
 22 11  1  0
 19 15  1  0
  1 25  1  0
  1 26  1  0
  1 27  1  0
  2 28  1  0
  2 29  1  0
  3 30  1  0
  4 31  1  0
  4 32  1  0
  5 33  1  0
  5 34  1  0
  6 35  1  0
  6 36  1  0
  7 37  1  0
  8 38  1  0
  8 39  1  0
  9 40  1  0
  9 41  1  0
 10 42  1  0
 10 43  1  0
 14 44  1  0
 18 45  1  0
 20 46  1  0
 20 47  1  0
 21 48  1  0
 21 49  1  0
 21 50  1  0
 23 51  1  0
 24 52  1  0
 24 53  1  0
 24 54  1  0
M  CHG  1  10   1
M  END
>  <UniqueID>  (23) 
23

>  <SMILES>  (23) 
CCNCCCNCC[NH2+]c1c(F)cc2c(ncn2CC)c1NC

>  <Energy>  (23) 
90.16508218594412

>  <Genealogy>  (23) 
CCNCCCNCC[NH2+]c1c(F)cc2c(ncn2CC)c1NC (protonated)
CCNCCCNCC[NH2+]c1c(F)cc2c(ncn2CC)c1NC (3D coordinates assigned)
CCNCCCNCC[NH2+]c1c(F)cc2c(ncn2CC)c1NC (optimized conformer: 90.16508218594412 kcal/mol)

>  <smiles>  (23) 
CCNCCCNCCNc1c(F)cc2c(ncn2CC)c1NC

>  <score_type>  (23) 
oracle

>  <origin>  (23) 
adg

>  <m_score__min__energy>  (23) 
-6.79

>  <m_primary>  (23) 
energy

$$$$
23:0
     RDKit          3D

 57 58  0  0  0  0  0  0  0  0999 V2000
   -8.9480   19.0060  -32.3510 C   0  0  0  0  0  0  0  0  0  0  0  0
   -8.9490   20.5370  -32.3360 C   0  0  0  0  0  0  0  0  0  0  0  0
   -7.6040   21.0780  -32.0250 N   0  0  0  0  0  0  0  0  0  0  0  0
   -7.6550   22.0180  -30.8700 C   0  0  0  0  0  0  0  0  0  0  0  0
   -7.7190   23.4770  -31.3510 C   0  0  0  0  0  0  0  0  0  0  0  0
   -6.3650   24.2000  -31.2710 C   0  0  0  0  0  0  0  0  0  0  0  0
   -5.6760   23.9230  -30.0120 N   0  0  0  0  0  0  0  0  0  0  0  0
   -4.3820   24.4610  -29.7050 C   0  0  0  0  0  0  0  0  0  0  0  0
   -3.8090   25.2430  -30.5110 O   0  0  0  0  0  0  0  0  0  0  0  0
   -3.7270   24.1340  -28.3950 C   0  0  0  0  0  0  0  0  0  0  0  0
   -2.2920   23.9020  -28.5800 N   0  0  0  0  0  0  0  0  0  0  0  0
   -1.8400   22.6630  -29.1450 C   0  0  0  0  0  0  0  0  0  0  0  0
   -1.0420   22.6670  -30.3000 C   0  0  0  0  0  0  0  0  0  0  0  0
   -0.5870   21.4610  -30.8450 C   0  0  0  0  0  0  0  0  0  0  0  0
   -0.9220   20.2460  -30.2350 C   0  0  0  0  0  0  0  0  0  0  0  0
   -0.3570   18.7300  -30.9210 Cl  0  0  0  0  0  0  0  0  0  0  0  0
   -1.7090   20.2390  -29.0750 C   0  0  0  0  0  0  0  0  0  0  0  0
   -2.1650   21.4440  -28.5300 C   0  0  0  0  0  0  0  0  0  0  0  0
   -1.1170   25.0880  -28.0800 S   0  0  0  0  0  0  0  0  0  0  0  0
   -1.3830   25.5420  -26.3770 C   0  0  0  0  0  0  0  0  0  0  0  0
   -1.2390   26.3100  -28.9510 O   0  0  0  0  0  0  0  0  0  0  0  0
    0.2750   24.5330  -28.2260 O   0  0  0  0  0  0  0  0  0  0  0  0
   -6.6280   19.9850  -31.7920 C   0  0  0  0  0  0  0  0  0  0  0  0
   -5.2960   20.3160  -32.4150 C   0  0  0  0  0  0  0  0  0  0  0  0
   -4.5990   19.3570  -33.1690 C   0  0  0  0  0  0  0  0  0  0  0  0
   -3.3410   19.6590  -33.7020 C   0  0  0  0  0  0  0  0  0  0  0  0
   -2.7760   20.9200  -33.4930 C   0  0  0  0  0  0  0  0  0  0  0  0
   -3.4670   21.8810  -32.7490 C   0  0  0  0  0  0  0  0  0  0  0  0
   -4.7200   21.5810  -32.2070 C   0  0  0  0  0  0  0  0  0  0  0  0
   -8.9478   18.6292  -31.3176 H   0  0  0  0  0  0  0  0  0  0  0  0
   -9.8459   18.6438  -32.8731 H   0  0  0  0  0  0  0  0  0  0  0  0
   -8.0496   18.6450  -32.8731 H   0  0  0  0  0  0  0  0  0  0  0  0
   -9.2621   20.9040  -33.3246 H   0  0  0  0  0  0  0  0  0  0  0  0
   -9.6459   20.8741  -31.5545 H   0  0  0  0  0  0  0  0  0  0  0  0
   -8.5480   21.7985  -30.2664 H   0  0  0  0  0  0  0  0  0  0  0  0
   -6.7428   21.8861  -30.2696 H   0  0  0  0  0  0  0  0  0  0  0  0
   -8.0589   23.4858  -32.3971 H   0  0  0  0  0  0  0  0  0  0  0  0
   -8.4146   24.0104  -30.6865 H   0  0  0  0  0  0  0  0  0  0  0  0
   -5.7317   23.8635  -32.1051 H   0  0  0  0  0  0  0  0  0  0  0  0
   -6.5513   25.2826  -31.3282 H   0  0  0  0  0  0  0  0  0  0  0  0
   -6.1160   23.2420  -29.3500 H   0  0  0  0  0  0  0  0  0  0  0  0
   -3.8708   24.9738  -27.6993 H   0  0  0  0  0  0  0  0  0  0  0  0
   -4.1845   23.2203  -27.9879 H   0  0  0  0  0  0  0  0  0  0  0  0
   -0.7736   23.6207  -30.7779 H   0  0  0  0  0  0  0  0  0  0  0  0
    0.0340   21.4676  -31.7529 H   0  0  0  0  0  0  0  0  0  0  0  0
   -1.9683   19.2850  -28.5928 H   0  0  0  0  0  0  0  0  0  0  0  0
   -2.7795   21.4361  -27.6177 H   0  0  0  0  0  0  0  0  0  0  0  0
   -0.9368   24.7805  -25.7205 H   0  0  0  0  0  0  0  0  0  0  0  0
   -0.9132   26.5169  -26.1798 H   0  0  0  0  0  0  0  0  0  0  0  0
   -2.4631   25.6088  -26.1798 H   0  0  0  0  0  0  0  0  0  0  0  0
   -6.4949   19.8449  -30.7091 H   0  0  0  0  0  0  0  0  0  0  0  0
   -7.0137   19.0634  -32.2524 H   0  0  0  0  0  0  0  0  0  0  0  0
   -5.0437   18.3657  -33.3408 H   0  0  0  0  0  0  0  0  0  0  0  0
   -2.7961   18.9029  -34.2863 H   0  0  0  0  0  0  0  0  0  0  0  0
   -1.7876   21.1564  -33.9139 H   0  0  0  0  0  0  0  0  0  0  0  0
   -3.0238   22.8751  -32.5898 H   0  0  0  0  0  0  0  0  0  0  0  0
   -5.2570   22.3374  -31.6158 H   0  0  0  0  0  0  0  0  0  0  0  0
  1  2  1  0
  2  3  1  0
  3  4  1  0
  4  5  1  0
  5  6  1  0
  6  7  1  0
  7  8  1  0
  8  9  2  0
  8 10  1  0
 10 11  1  0
 11 12  1  0
 12 13  2  0
 13 14  1  0
 14 15  2  0
 15 16  1  0
 15 17  1  0
 17 18  2  0
 11 19  1  0
 19 20  1  0
 19 21  2  0
 19 22  2  0
  3 23  1  0
 23 24  1  0
 24 25  2  0
 25 26  1  0
 26 27  2  0
 27 28  1  0
 28 29  2  0
 18 12  1  0
 29 24  1  0
  1 30  1  0
  1 31  1  0
  1 32  1  0
  2 33  1  0
  2 34  1  0
  4 35  1  0
  4 36  1  0
  5 37  1  0
  5 38  1  0
  6 39  1  0
  6 40  1  0
  7 41  1  0
 10 42  1  0
 10 43  1  0
 13 44  1  0
 14 45  1  0
 17 46  1  0
 18 47  1  0
 20 48  1  0
 20 49  1  0
 20 50  1  0
 23 51  1  0
 23 52  1  0
 25 53  1  0
 26 54  1  0
 27 55  1  0
 28 56  1  0
 29 57  1  0
M  END
>  <UniqueID>  (24) 
24

>  <SMILES>  (24) 
CCN(CCCNC(=O)CN(c1ccc(Cl)cc1)S(C)(=O)=O)Cc1ccccc1

>  <Energy>  (24) 
49.76968949278671

>  <Genealogy>  (24) 
CCN(CCCNC(=O)CN(c1ccc(Cl)cc1)S(C)(=O)=O)Cc1ccccc1 (3D coordinates assigned)
CCN(CCCNC(=O)CN(c1ccc(Cl)cc1)S(C)(=O)=O)Cc1ccccc1 (optimized conformer: 49.76968949278671 kcal/mol)

>  <smiles>  (24) 
CCN(CCCNC(=O)CN(c1ccc(Cl)cc1)S(C)(=O)=O)Cc1ccccc1

>  <score_type>  (24) 
oracle

>  <origin>  (24) 
adg

>  <m_score__min__energy>  (24) 
-10.300000000000001

>  <m_primary>  (24) 
energy

$$$$
24:0
     RDKit          3D

 31 31  0  0  0  0  0  0  0  0999 V2000
   -6.4140   19.2130  -33.8460 C   0  0  0  0  0  0  0  0  0  0  0  0
   -6.9300   20.4840  -33.4660 O   0  0  0  0  0  0  0  0  0  0  0  0
   -6.3700   21.3060  -32.4760 C   0  0  0  0  0  0  0  0  0  0  0  0
   -4.9850   21.5550  -32.4070 C   0  0  0  0  0  0  0  0  0  0  0  0
   -4.4640   22.3800  -31.4050 C   0  0  0  0  0  0  0  0  0  0  0  0
   -5.3160   22.9760  -30.4640 C   0  0  0  0  0  0  0  0  0  0  0  0
   -4.7530   23.8410  -29.3660 C   0  0  0  0  0  0  0  0  0  0  0  0
   -3.8700   24.9270  -29.9300 C   0  0  0  0  0  0  0  0  0  0  0  0
   -4.2830   25.6080  -30.9060 O   0  0  0  0  0  0  0  0  0  0  0  0
   -2.6110   25.2790  -29.3380 N   0  0  0  0  0  0  0  0  0  0  0  0
   -1.7680   24.4210  -28.5080 C   0  0  0  0  0  0  0  0  0  0  0  0
   -1.1150   23.3350  -29.3680 C   0  0  0  0  0  0  0  0  0  0  0  0
   -0.6980   25.2780  -27.8340 C   0  0  0  0  0  0  0  0  0  0  0  0
   -6.6940   22.7200  -30.5250 C   0  0  0  0  0  0  0  0  0  0  0  0
   -7.2180   21.8940  -31.5250 C   0  0  0  0  0  0  0  0  0  0  0  0
   -9.1050   21.5760  -31.5760 Br  0  0  0  0  0  0  0  0  0  0  0  0
   -6.1769   18.6291  -32.9444 H   0  0  0  0  0  0  0  0  0  0  0  0
   -7.1653   18.6760  -34.4436 H   0  0  0  0  0  0  0  0  0  0  0  0
   -5.5010   19.3517  -34.4436 H   0  0  0  0  0  0  0  0  0  0  0  0
   -4.3097   21.0980  -33.1453 H   0  0  0  0  0  0  0  0  0  0  0  0
   -3.3804   22.5623  -31.3548 H   0  0  0  0  0  0  0  0  0  0  0  0
   -5.5829   24.3040  -28.8120 H   0  0  0  0  0  0  0  0  0  0  0  0
   -4.1480   23.2096  -28.6987 H   0  0  0  0  0  0  0  0  0  0  0  0
   -2.3826   23.9304  -27.7388 H   0  0  0  0  0  0  0  0  0  0  0  0
   -0.6586   22.5759  -28.7158 H   0  0  0  0  0  0  0  0  0  0  0  0
   -1.8784   22.8617  -30.0030 H   0  0  0  0  0  0  0  0  0  0  0  0
   -0.3390   23.7874  -30.0030 H   0  0  0  0  0  0  0  0  0  0  0  0
   -0.7983   25.1977  -26.7415 H   0  0  0  0  0  0  0  0  0  0  0  0
    0.2989   24.9257  -28.1376 H   0  0  0  0  0  0  0  0  0  0  0  0
   -0.8241   26.3277  -28.1376 H   0  0  0  0  0  0  0  0  0  0  0  0
   -7.3670   23.1719  -29.7814 H   0  0  0  0  0  0  0  0  0  0  0  0
  1  2  1  0
  2  3  1  0
  3  4  2  0
  4  5  1  0
  5  6  2  0
  6  7  1  0
  7  8  1  0
  8  9  2  0
  8 10  1  0
 10 11  1  0
 11 12  1  0
 11 13  1  0
  6 14  1  0
 14 15  2  0
 15 16  1  0
 15  3  1  0
  1 17  1  0
  1 18  1  0
  1 19  1  0
  4 20  1  0
  5 21  1  0
  7 22  1  0
  7 23  1  0
 11 24  1  0
 12 25  1  0
 12 26  1  0
 12 27  1  0
 13 28  1  0
 13 29  1  0
 13 30  1  0
 14 31  1  0
M  CHG  1  10  -1
M  END
>  <UniqueID>  (25) 
25

>  <SMILES>  (25) 
COc1ccc(CC(=O)[N-]C(C)C)cc1Br

>  <Energy>  (25) 
22.475227917586896

>  <Genealogy>  (25) 
COc1ccc(CC(=O)[N-]C(C)C)cc1Br (protonated)
COc1ccc(CC(=O)[N-]C(C)C)cc1Br (3D coordinates assigned)
COc1ccc(CC(=O)[N-]C(C)C)cc1Br (optimized conformer: 22.475227917586896 kcal/mol)

>  <smiles>  (25) 
COc1ccc(CC(=O)NC(C)C)cc1Br

>  <score_type>  (25) 
oracle

>  <origin>  (25) 
adg

>  <m_score__min__energy>  (25) 
-8.3100000000000005

>  <m_primary>  (25) 
energy

$$$$
25:0
     RDKit          3D

 85 86  0  0  0  0  0  0  0  0999 V2000
   -7.3403   19.8151  -30.8669 H   0  0  0  0  0  0  0  0  0  0  0  0
   -7.6740   20.2240  -31.8320 C   0  0  0  0  0  0  0  0  0  0  0  0
   -8.0840   21.5090  -31.8640 C   0  0  0  0  0  0  0  0  0  0  0  0
   -7.0960   22.5610  -32.2950 C   0  0  0  0  0  0  0  0  0  0  0  0
   -6.6523   23.0334  -31.4062 H   0  0  0  0  0  0  0  0  0  0  0  0
   -6.3024   22.0941  -32.8968 H   0  0  0  0  0  0  0  0  0  0  0  0
   -7.6117   23.3238  -32.8968 H   0  0  0  0  0  0  0  0  0  0  0  0
   -9.4860   21.9140  -31.4760 C   0  0  0  0  0  0  0  0  0  0  0  0
   -9.5704   21.9384  -30.3795 H   0  0  0  0  0  0  0  0  0  0  0  0
   -9.7052   22.9122  -31.8829 H   0  0  0  0  0  0  0  0  0  0  0  0
  -10.2037   21.1865  -31.8829 H   0  0  0  0  0  0  0  0  0  0  0  0
   -7.6430   19.3100  -33.0340 C   0  0  0  0  0  0  0  0  0  0  0  0
   -8.4835   19.5636  -33.6968 H   0  0  0  0  0  0  0  0  0  0  0  0
   -7.7217   18.2720  -32.6784 H   0  0  0  0  0  0  0  0  0  0  0  0
   -6.3310   19.4500  -33.8180 C   0  0  0  0  0  0  0  0  0  0  0  0
   -5.8335   20.3845  -33.5195 H   0  0  0  0  0  0  0  0  0  0  0  0
   -6.5685   19.4605  -34.8920 H   0  0  0  0  0  0  0  0  0  0  0  0
   -5.4000   18.2880  -33.5470 C   0  0  0  0  0  0  0  0  0  0  0  0
   -4.0660   18.4550  -33.7080 C   0  0  0  0  0  0  0  0  0  0  0  0
   -3.4390   17.5520  -33.7478 H   0  0  0  0  0  0  0  0  0  0  0  0
   -3.3770   19.7950  -33.8370 C   0  0  0  0  0  0  0  0  0  0  0  0
   -4.1443   20.5714  -33.9730 H   0  0  0  0  0  0  0  0  0  0  0  0
   -2.6968   19.7321  -34.6992 H   0  0  0  0  0  0  0  0  0  0  0  0
   -2.5140   20.1630  -32.5900 C   0  0  1  0  0  0  0  0  0  0  0  0
   -2.2851   19.1642  -32.1900 H   0  0  0  0  0  0  0  0  0  0  0  0
   -1.2220   20.9140  -32.9470 C   0  0  0  0  0  0  0  0  0  0  0  0
   -0.8700   21.3620  -34.3590 C   0  0  0  0  0  0  0  0  0  0  0  0
   -1.5996   22.1160  -34.6894 H   0  0  0  0  0  0  0  0  0  0  0  0
   -0.8956   20.4842  -35.0214 H   0  0  0  0  0  0  0  0  0  0  0  0
    0.4300   21.9240  -34.4050 O   0  0  0  0  0  0  0  0  0  0  0  0
    0.8420   22.0440  -35.7520 C   0  0  0  0  0  0  0  0  0  0  0  0
   -0.0312   22.2673  -36.3827 H   0  0  0  0  0  0  0  0  0  0  0  0
    1.3016   21.0990  -36.0774 H   0  0  0  0  0  0  0  0  0  0  0  0
    1.8640   23.1740  -35.8810 C   0  0  0  0  0  0  0  0  0  0  0  0
    2.8171   22.7612  -36.2432 H   0  0  0  0  0  0  0  0  0  0  0  0
    2.0052   23.6419  -34.8956 H   0  0  0  0  0  0  0  0  0  0  0  0
    1.3800   24.2030  -36.8390 N   0  0  0  0  0  0  0  0  0  0  0  0
    0.0390   24.7150  -36.4630 C   0  0  0  0  0  0  0  0  0  0  0  0
   -0.1598   24.4524  -35.4135 H   0  0  0  0  0  0  0  0  0  0  0  0
   -0.7005   24.2557  -37.1355 H   0  0  0  0  0  0  0  0  0  0  0  0
   -0.0600   26.2320  -36.6190 C   0  0  0  0  0  0  0  0  0  0  0  0
   -0.0906   26.7016  -35.6248 H   0  0  0  0  0  0  0  0  0  0  0  0
    0.8159   26.6016  -37.1723 H   0  0  0  0  0  0  0  0  0  0  0  0
   -0.9765   26.4847  -37.1723 H   0  0  0  0  0  0  0  0  0  0  0  0
    2.3350   25.3340  -36.9360 C   0  0  0  0  0  0  0  0  0  0  0  0
    2.9695   25.1936  -37.8236 H   0  0  0  0  0  0  0  0  0  0  0  0
    1.7622   26.2698  -37.0150 H   0  0  0  0  0  0  0  0  0  0  0  0
    3.2240   25.4110  -35.6930 C   0  0  0  0  0  0  0  0  0  0  0  0
    2.5977   25.3568  -34.7903 H   0  0  0  0  0  0  0  0  0  0  0  0
    3.9342   24.5710  -35.6975 H   0  0  0  0  0  0  0  0  0  0  0  0
    3.7792   26.3606  -35.6975 H   0  0  0  0  0  0  0  0  0  0  0  0
   -0.4030   21.2250  -31.9250 C   0  0  0  0  0  0  0  0  0  0  0  0
    0.5222   21.7913  -32.1075 H   0  0  0  0  0  0  0  0  0  0  0  0
   -0.7630   20.7930  -30.5380 C   0  0  0  0  0  0  0  0  0  0  0  0
   -0.6212   19.7051  -30.4589 H   0  0  0  0  0  0  0  0  0  0  0  0
   -0.1115   21.3364  -29.8378 H   0  0  0  0  0  0  0  0  0  0  0  0
   -2.2530   21.1360  -30.1710 C   0  0  1  0  0  0  0  0  0  0  0  0
   -2.5761   20.3567  -29.4651 H   0  0  0  0  0  0  0  0  0  0  0  0
   -2.4580   22.4410  -29.2580 C   0  0  0  0  0  0  0  0  0  0  0  0
   -1.1720   22.8690  -28.4980 C   0  0  0  0  0  0  0  0  0  0  0  0
   -1.3498   22.8098  -27.4141 H   0  0  0  0  0  0  0  0  0  0  0  0
   -0.3443   22.1979  -28.7710 H   0  0  0  0  0  0  0  0  0  0  0  0
   -0.9115   23.9023  -28.7710 H   0  0  0  0  0  0  0  0  0  0  0  0
   -3.5080   22.1660  -28.1430 C   0  0  0  0  0  0  0  0  0  0  0  0
   -3.0365   22.2895  -27.1569 H   0  0  0  0  0  0  0  0  0  0  0  0
   -4.3424   22.8759  -28.2420 H   0  0  0  0  0  0  0  0  0  0  0  0
   -3.8873   21.1382  -28.2420 H   0  0  0  0  0  0  0  0  0  0  0  0
   -2.9020   23.6670  -30.0880 C   0  0  0  0  0  0  0  0  0  0  0  0
   -3.1706   24.4800  -29.3974 H   0  0  0  0  0  0  0  0  0  0  0  0
   -2.0618   23.9460  -30.7409 H   0  0  0  0  0  0  0  0  0  0  0  0
   -4.0980   23.3740  -30.9820 C   0  0  0  0  0  0  0  0  0  0  0  0
   -4.9255   22.9856  -30.3701 H   0  0  0  0  0  0  0  0  0  0  0  0
   -4.4131   24.3006  -31.4841 H   0  0  0  0  0  0  0  0  0  0  0  0
   -3.7150   22.3410  -32.0270 C   0  0  0  0  0  0  0  0  0  0  0  0
   -4.5895   22.1595  -32.6691 H   0  0  0  0  0  0  0  0  0  0  0  0
   -2.8581   22.7538  -32.5796 H   0  0  0  0  0  0  0  0  0  0  0  0
   -3.2490   20.9710  -31.4350 C   0  0  1  0  0  0  0  0  0  0  0  0
   -4.5040   20.1750  -30.9850 C   0  0  0  0  0  0  0  0  0  0  0  0
   -4.5465   20.1480  -29.8862 H   0  0  0  0  0  0  0  0  0  0  0  0
   -5.4083   20.6650  -31.3750 H   0  0  0  0  0  0  0  0  0  0  0  0
   -4.4462   19.1481  -31.3750 H   0  0  0  0  0  0  0  0  0  0  0  0
   -5.9860   17.0000  -33.0230 C   0  0  0  0  0  0  0  0  0  0  0  0
   -5.9792   17.0148  -31.9231 H   0  0  0  0  0  0  0  0  0  0  0  0
   -7.0205   16.8951  -33.3819 H   0  0  0  0  0  0  0  0  0  0  0  0
   -5.3855   16.1512  -33.3819 H   0  0  0  0  0  0  0  0  0  0  0  0
  1  2  1  0
  2  3  2  3
  3  4  1  0
  4  5  1  0
  4  6  1  0
  4  7  1  0
  3  8  1  0
  8  9  1  0
  8 10  1  0
  8 11  1  0
  2 12  1  0
 12 13  1  0
 12 14  1  0
 12 15  1  0
 15 16  1  0
 15 17  1  0
 15 18  1  0
 18 19  2  0
 19 20  1  0
 19 21  1  0
 21 22  1  0
 21 23  1  0
 21 24  1  0
 24 25  1  1
 24 26  1  0
 26 27  1  0
 27 28  1  0
 27 29  1  0
 27 30  1  0
 30 31  1  0
 31 32  1  0
 31 33  1  0
 31 34  1  0
 34 35  1  0
 34 36  1  0
 34 37  1  0
 37 38  1  0
 38 39  1  0
 38 40  1  0
 38 41  1  0
 41 42  1  0
 41 43  1  0
 41 44  1  0
 37 45  1  0
 45 46  1  0
 45 47  1  0
 45 48  1  0
 48 49  1  0
 48 50  1  0
 48 51  1  0
 26 52  2  0
 52 53  1  0
 52 54  1  0
 54 55  1  0
 54 56  1  0
 54 57  1  0
 57 58  1  1
 57 59  1  0
 59 60  1  0
 60 61  1  0
 60 62  1  0
 60 63  1  0
 59 64  1  0
 64 65  1  0
 64 66  1  0
 64 67  1  0
 59 68  1  0
 68 69  1  0
 68 70  1  0
 68 71  1  0
 71 72  1  0
 71 73  1  0
 71 74  1  0
 74 75  1  0
 74 76  1  0
 74 77  1  0
 77 78  1  1
 78 79  1  0
 78 80  1  0
 78 81  1  0
 18 82  1  0
 82 83  1  0
 82 84  1  0
 82 85  1  0
 77 24  1  0
 77 57  1  0
M  END
>  <UniqueID>  (26) 
26

>  <SMILES>  (26) 
CCN(CC)CCOCC1=CC[C@H]2C(C)(C)CCC[C@@]2(C)C1C/C=C(\C)CCC=C(C)C

>  <Energy>  (26) 
99.34389899575244

>  <Genealogy>  (26) 
CCN(CC)CCOCC1=CC[C@H]2C(C)(C)CCC[C@@]2(C)C1CC=C(C)CCC=C(C)C (chirality)
CCN(CC)CCOCC1=CC[C@H]2C(C)(C)CCC[C@@]2(C)C1C/C=C(\C)CCC=C(C)C (cis-trans isomerization)
CCN(CC)CCOCC1=CC[C@H]2C(C)(C)CCC[C@@]2(C)C1C/C=C(\C)CCC=C(C)C (3D coordinates assigned)
CCN(CC)CCOCC1=CC[C@H]2C(C)(C)CCC[C@@]2(C)C1C/C=C(\C)CCC=C(C)C (nonaromatic ring conformer: 99.34389899575244 kcal/mol)

>  <smiles>  (26) 
CCN(CC)CCOCC1=CCC2C(C)(C)CCCC2(C)C1CC=C(C)CCC=C(C)C

>  <score_type>  (26) 
oracle

>  <origin>  (26) 
adg

>  <m_score__min__energy>  (26) 
-9.0299999999999994

>  <m_primary>  (26) 
energy

$$$$
26:0
     RDKit          3D

 52 54  0  0  0  0  0  0  0  0999 V2000
   -5.7150   18.2540  -34.6810 C   0  0  0  0  0  0  0  0  0  0  0  0
   -5.3680   19.4560  -33.8090 C   0  0  0  0  0  0  0  0  0  0  0  0
   -6.1760   19.4710  -32.6460 O   0  0  0  0  0  0  0  0  0  0  0  0
   -6.5100   18.1600  -32.2300 C   0  0  0  0  0  0  0  0  0  0  0  0
   -7.8100   18.1820  -31.4120 C   0  0  0  0  0  0  0  0  0  0  0  0
   -9.0040   18.7600  -32.1990 C   0  0  0  0  0  0  0  0  0  0  0  0
   -8.6970   20.0330  -32.8820 N   0  0  0  0  0  0  0  0  0  0  0  0
   -9.1450   21.2020  -32.1080 C   0  0  0  0  0  0  0  0  0  0  0  0
   -7.9660   22.0580  -31.7190 C   0  0  0  0  0  0  0  0  0  0  0  0
   -7.7530   22.4030  -30.3750 C   0  0  0  0  0  0  0  0  0  0  0  0
   -6.6390   23.1640  -30.0100 C   0  0  0  0  0  0  0  0  0  0  0  0
   -5.7080   23.5740  -30.9800 C   0  0  0  0  0  0  0  0  0  0  0  0
   -4.5340   24.3840  -30.5900 C   0  0  0  0  0  0  0  0  0  0  0  0
   -4.5250   25.6210  -30.8390 O   0  0  0  0  0  0  0  0  0  0  0  0
   -3.4180   23.7910  -29.9040 N   0  0  0  0  0  0  0  0  0  0  0  0
   -2.6760   24.4620  -28.8320 C   0  0  0  0  0  0  0  0  0  0  0  0
   -1.3340   23.7050  -28.6930 C   0  0  0  0  0  0  0  0  0  0  0  0
   -1.4260   22.6480  -29.7350 C   0  0  0  0  0  0  0  0  0  0  0  0
   -0.4850   21.6640  -30.0460 C   0  0  0  0  0  0  0  0  0  0  0  0
   -0.7880   20.7450  -31.0630 C   0  0  0  0  0  0  0  0  0  0  0  0
   -2.0180   20.8210  -31.7430 C   0  0  0  0  0  0  0  0  0  0  0  0
   -2.9490   21.8190  -31.4120 C   0  0  0  0  0  0  0  0  0  0  0  0
   -2.6160   22.7320  -30.4040 C   0  0  0  0  0  0  0  0  0  0  0  0
   -5.9250   23.2280  -32.3240 C   0  0  0  0  0  0  0  0  0  0  0  0
   -7.0400   22.4670  -32.6880 C   0  0  0  0  0  0  0  0  0  0  0  0
   -5.9629   17.3952  -34.0398 H   0  0  0  0  0  0  0  0  0  0  0  0
   -6.5791   18.4990  -35.3161 H   0  0  0  0  0  0  0  0  0  0  0  0
   -4.8533   18.0008  -35.3161 H   0  0  0  0  0  0  0  0  0  0  0  0
   -4.3098   19.3969  -33.5146 H   0  0  0  0  0  0  0  0  0  0  0  0
   -5.5497   20.3772  -34.3820 H   0  0  0  0  0  0  0  0  0  0  0  0
   -6.6475   17.5212  -33.1149 H   0  0  0  0  0  0  0  0  0  0  0  0
   -5.6972   17.7622  -31.6045 H   0  0  0  0  0  0  0  0  0  0  0  0
   -8.0531   17.1522  -31.1114 H   0  0  0  0  0  0  0  0  0  0  0  0
   -7.6417   18.8333  -30.5417 H   0  0  0  0  0  0  0  0  0  0  0  0
   -9.3115   18.0237  -32.9562 H   0  0  0  0  0  0  0  0  0  0  0  0
   -9.8023   18.9670  -31.4711 H   0  0  0  0  0  0  0  0  0  0  0  0
   -7.6580   20.0930  -32.9960 H   0  0  0  0  0  0  0  0  0  0  0  0
   -9.1220   20.0530  -33.8370 H   0  0  0  0  0  0  0  0  0  0  0  0
   -9.8390   21.7973  -32.7195 H   0  0  0  0  0  0  0  0  0  0  0  0
   -9.6496   20.8533  -31.1949 H   0  0  0  0  0  0  0  0  0  0  0  0
   -8.4663   22.0728  -29.6055 H   0  0  0  0  0  0  0  0  0  0  0  0
   -6.4898   23.4439  -28.9567 H   0  0  0  0  0  0  0  0  0  0  0  0
   -2.4941   25.5143  -29.0956 H   0  0  0  0  0  0  0  0  0  0  0  0
   -3.2405   24.4516  -27.8880 H   0  0  0  0  0  0  0  0  0  0  0  0
   -0.4826   24.3744  -28.8853 H   0  0  0  0  0  0  0  0  0  0  0  0
   -1.1715   23.3001  -27.6832 H   0  0  0  0  0  0  0  0  0  0  0  0
    0.4720   21.6103  -29.5062 H   0  0  0  0  0  0  0  0  0  0  0  0
   -0.0618   19.9629  -31.3293 H   0  0  0  0  0  0  0  0  0  0  0  0
   -2.2510   20.0959  -32.5367 H   0  0  0  0  0  0  0  0  0  0  0  0
   -3.9163   21.8819  -31.9320 H   0  0  0  0  0  0  0  0  0  0  0  0
   -5.2132   23.5579  -33.0950 H   0  0  0  0  0  0  0  0  0  0  0  0
   -7.1912   22.1877  -33.7412 H   0  0  0  0  0  0  0  0  0  0  0  0
  1  2  1  0
  2  3  1  0
  3  4  1  0
  4  5  1  0
  5  6  1  0
  6  7  1  0
  7  8  1  0
  8  9  1  0
  9 10  2  0
 10 11  1  0
 11 12  2  0
 12 13  1  0
 13 14  2  0
 13 15  1  0
 15 16  1  0
 16 17  1  0
 17 18  1  0
 18 19  2  0
 19 20  1  0
 20 21  2  0
 21 22  1  0
 22 23  2  0
 12 24  1  0
 24 25  2  0
 25  9  1  0
 23 15  1  0
 23 18  1  0
  1 26  1  0
  1 27  1  0
  1 28  1  0
  2 29  1  0
  2 30  1  0
  4 31  1  0
  4 32  1  0
  5 33  1  0
  5 34  1  0
  6 35  1  0
  6 36  1  0
  7 37  1  0
  7 38  1  0
  8 39  1  0
  8 40  1  0
 10 41  1  0
 11 42  1  0
 16 43  1  0
 16 44  1  0
 17 45  1  0
 17 46  1  0
 19 47  1  0
 20 48  1  0
 21 49  1  0
 22 50  1  0
 24 51  1  0
 25 52  1  0
M  CHG  1   7   1
M  END
>  <UniqueID>  (27) 
27

>  <SMILES>  (27) 
CCOCCC[NH2+]Cc1ccc(C(=O)N2CCc3ccccc32)cc1

>  <Energy>  (27) 
71.89053263035406

>  <Genealogy>  (27) 
CCOCCC[NH2+]Cc1ccc(C(=O)N2CCc3ccccc32)cc1 (protonated)
CCOCCC[NH2+]Cc1ccc(C(=O)N2CCc3ccccc32)cc1 (3D coordinates assigned)
CCOCCC[NH2+]Cc1ccc(C(=O)N2CCc3ccccc32)cc1 (nonaromatic ring conformer: 71.89053263035406 kcal/mol)

>  <smiles>  (27) 
CCOCCCNCc1ccc(C(=O)N2CCc3ccccc32)cc1

>  <score_type>  (27) 
oracle

>  <origin>  (27) 
adg

>  <m_score__min__energy>  (27) 
-7.7000000000000002

>  <m_primary>  (27) 
energy

$$$$
