0:0
     RDKit          3D

 52 54  0  0  0  0  0  0  0  0999 V2000
   -2.8780   23.1940  -30.0870 C   0  0  0  0  0  0  0  0  0  0  0  0
   -3.5690   24.5520  -30.0310 C   0  0  0  0  0  0  0  0  0  0  0  0
   -4.4160   24.7340  -31.2170 N   0  0  0  0  0  0  0  0  0  0  0  0
   -5.8420   24.5150  -30.9210 C   0  0  0  0  0  0  0  0  0  0  0  0
   -6.3060   23.0760  -31.2050 C   0  0  0  0  0  0  0  0  0  0  0  0
   -5.8910   22.6310  -32.5350 N   0  0  0  0  0  0  0  0  0  0  0  0
   -5.9070   21.2330  -32.8580 C   0  0  0  0  0  0  0  0  0  0  0  0
   -7.0790   20.4840  -32.6800 C   0  0  0  0  0  0  0  0  0  0  0  0
   -7.0770   19.1070  -32.9650 C   0  0  0  0  0  0  0  0  0  0  0  0
   -5.9790   18.5190  -33.5590 N   0  0  0  0  0  0  0  0  0  0  0  0
   -6.0920   17.1560  -34.1190 C   0  0  0  0  0  0  0  0  0  0  0  0
   -4.7860   19.2120  -33.6410 C   0  0  0  0  0  0  0  0  0  0  0  0
   -3.5800   18.5780  -34.0290 C   0  0  0  0  0  0  0  0  0  0  0  0
   -2.3890   19.2950  -34.1340 C   0  0  0  0  0  0  0  0  0  0  0  0
   -2.3490   20.6610  -33.8480 C   0  0  0  0  0  0  0  0  0  0  0  0
   -1.1010   21.3680  -33.9720 N   0  0  0  0  0  0  0  0  0  0  0  0
    0.0330   21.1730  -33.0750 C   0  0  0  0  0  0  0  0  0  0  0  0
   -3.5260   21.3040  -33.4330 C   0  0  0  0  0  0  0  0  0  0  0  0
   -4.7390   20.5930  -33.3110 C   0  0  0  0  0  0  0  0  0  0  0  0
   -8.3350   18.3290  -32.6130 C   0  0  0  0  0  0  0  0  0  0  0  0
   -8.9070   18.8060  -31.2700 C   0  0  0  0  0  0  0  0  0  0  0  0
   -9.1110   20.3350  -31.1880 C   0  0  0  0  0  0  0  0  0  0  0  0
   -8.3930   21.1260  -32.2930 C   0  0  0  0  0  0  0  0  0  0  0  0
   -2.6946   22.8335  -29.0641 H   0  0  0  0  0  0  0  0  0  0  0  0
   -3.5209   22.4771  -30.6187 H   0  0  0  0  0  0  0  0  0  0  0  0
   -1.9200   23.2917  -30.6187 H   0  0  0  0  0  0  0  0  0  0  0  0
   -4.1924   24.6065  -29.1263 H   0  0  0  0  0  0  0  0  0  0  0  0
   -2.8064   25.3444  -30.0069 H   0  0  0  0  0  0  0  0  0  0  0  0
   -4.2740   25.6960  -31.6020 H   0  0  0  0  0  0  0  0  0  0  0  0
   -6.0160   24.7349  -29.8574 H   0  0  0  0  0  0  0  0  0  0  0  0
   -6.4186   25.1804  -31.5803 H   0  0  0  0  0  0  0  0  0  0  0  0
   -5.8694   22.4044  -30.4511 H   0  0  0  0  0  0  0  0  0  0  0  0
   -7.4049   23.0529  -31.1609 H   0  0  0  0  0  0  0  0  0  0  0  0
   -5.3020   23.2610  -33.1260 H   0  0  0  0  0  0  0  0  0  0  0  0
   -6.1525   16.4262  -33.2982 H   0  0  0  0  0  0  0  0  0  0  0  0
   -6.9989   17.0879  -34.7378 H   0  0  0  0  0  0  0  0  0  0  0  0
   -5.2087   16.9394  -34.7378 H   0  0  0  0  0  0  0  0  0  0  0  0
   -3.5834   17.5007  -34.2514 H   0  0  0  0  0  0  0  0  0  0  0  0
   -1.4695   18.7782  -34.4460 H   0  0  0  0  0  0  0  0  0  0  0  0
   -0.9890   22.0640  -34.7440 H   0  0  0  0  0  0  0  0  0  0  0  0
   -0.3104   21.2321  -32.0316 H   0  0  0  0  0  0  0  0  0  0  0  0
    0.4800   20.1848  -33.2585 H   0  0  0  0  0  0  0  0  0  0  0  0
    0.7844   21.9551  -33.2585 H   0  0  0  0  0  0  0  0  0  0  0  0
   -3.5024   22.3786  -33.1993 H   0  0  0  0  0  0  0  0  0  0  0  0
   -9.0871   18.4819  -33.4011 H   0  0  0  0  0  0  0  0  0  0  0  0
   -8.0810   17.2618  -32.5315 H   0  0  0  0  0  0  0  0  0  0  0  0
   -9.8801   18.3173  -31.1141 H   0  0  0  0  0  0  0  0  0  0  0  0
   -8.1731   18.5384  -30.4956 H   0  0  0  0  0  0  0  0  0  0  0  0
  -10.1887   20.5436  -31.2589 H   0  0  0  0  0  0  0  0  0  0  0  0
   -8.6761   20.6613  -30.2318 H   0  0  0  0  0  0  0  0  0  0  0  0
   -9.0428   21.1694  -33.1795 H   0  0  0  0  0  0  0  0  0  0  0  0
   -8.1807   22.1346  -31.9087 H   0  0  0  0  0  0  0  0  0  0  0  0
  1  2  1  0
  2  3  1  0
  3  4  1  0
  4  5  1  0
  5  6  1  0
  6  7  1  0
  7  8  2  0
  8  9  1  0
  9 10  2  0
 10 11  1  0
 10 12  1  0
 12 13  2  0
 13 14  1  0
 14 15  2  0
 15 16  1  0
 16 17  1  0
 15 18  1  0
 18 19  2  0
  9 20  1  0
 20 21  1  0
 21 22  1  0
 22 23  1  0
 19  7  1  0
 23  8  1  0
 19 12  1  0
  1 24  1  0
  1 25  1  0
  1 26  1  0
  2 27  1  0
  2 28  1  0
  3 29  1  0
  4 30  1  0
  4 31  1  0
  5 32  1  0
  5 33  1  0
  6 34  1  0
 11 35  1  0
 11 36  1  0
 11 37  1  0
 13 38  1  0
 14 39  1  0
 16 40  1  0
 17 41  1  0
 17 42  1  0
 17 43  1  0
 18 44  1  0
 20 45  1  0
 20 46  1  0
 21 47  1  0
 21 48  1  0
 22 49  1  0
 22 50  1  0
 23 51  1  0
 23 52  1  0
M  CHG  1  10   1
M  END
>  <UniqueID>  (1) 
1

>  <SMILES>  (1) 
CCNCCNc1c2c([n+](C)c3ccc(NC)cc13)CCCC2

>  <Energy>  (1) 
71.66669550681439

>  <Genealogy>  (1) 
CCNCCNc1c2c([n+](C)c3ccc(NC)cc13)CCCC2 (3D coordinates assigned)
CCNCCNc1c2c([n+](C)c3ccc(NC)cc13)CCCC2 (nonaromatic ring conformer: 71.66669550681439 kcal/mol)

>  <smiles>  (1) 
CCNCCNc1c2c([n+](C)c3ccc(NC)cc13)CCCC2

>  <score_type>  (1) 
oracle

>  <origin>  (1) 
adg

>  <m_score__min__energy>  (1) 
-8.7100000000000009

>  <m_primary>  (1) 
energy

$$$$
1:0
     RDKit          3D

 67 69  0  0  0  0  0  0  0  0999 V2000
   -2.5850   19.2660  -26.6870 C   0  0  0  0  0  0  0  0  0  0  0  0
   -1.5960   20.4050  -26.4390 C   0  0  0  0  0  0  0  0  0  0  0  0
   -1.4150   21.2470  -27.6420 N   0  0  0  0  0  0  0  0  0  0  0  0
   -1.8980   20.6680  -28.9190 C   0  0  0  0  0  0  0  0  0  0  0  0
   -0.8070   19.9960  -29.7580 C   0  0  0  0  0  0  0  0  0  0  0  0
   -0.1070   21.9410  -27.7360 C   0  0  0  0  0  0  0  0  0  0  0  0
   -0.1500   23.4530  -27.4330 C   0  0  0  0  0  0  0  0  0  0  0  0
   -0.1400   24.1860  -28.6400 O   0  0  0  0  0  0  0  0  0  0  0  0
   -1.3600   23.9970  -29.3310 C   0  0  0  0  0  0  0  0  0  0  0  0
   -2.5460   24.2580  -28.3890 C   0  0  0  0  0  0  0  0  0  0  0  0
   -3.8930   23.6890  -28.8890 C   0  0  0  0  0  0  0  0  0  0  0  0
   -4.9860   24.6750  -28.8450 N   0  0  0  0  0  0  0  0  0  0  0  0
   -5.2090   25.3160  -30.1520 C   0  0  0  0  0  0  0  0  0  0  0  0
   -6.0070   24.4120  -31.1020 C   0  0  0  0  0  0  0  0  0  0  0  0
   -5.9460   23.0110  -30.6720 N   0  0  0  0  0  0  0  0  0  0  0  0
   -5.9210   21.9200  -31.6130 C   0  0  0  0  0  0  0  0  0  0  0  0
   -7.0940   21.2010  -31.9030 C   0  0  0  0  0  0  0  0  0  0  0  0
   -8.3410   21.6150  -31.3900 C   0  0  0  0  0  0  0  0  0  0  0  0
   -9.4880   20.8560  -31.6080 C   0  0  0  0  0  0  0  0  0  0  0  0
   -9.4110   19.6740  -32.3350 C   0  0  0  0  0  0  0  0  0  0  0  0
   -8.1990   19.2700  -32.8910 C   0  0  0  0  0  0  0  0  0  0  0  0
   -7.0230   20.0490  -32.7330 C   0  0  0  0  0  0  0  0  0  0  0  0
   -5.8340   19.7090  -33.3520 N   0  0  0  0  0  0  0  0  0  0  0  0
   -5.8240   18.6830  -34.4200 C   0  0  0  0  0  0  0  0  0  0  0  0
   -4.6610   20.3510  -33.0000 C   0  0  0  0  0  0  0  0  0  0  0  0
   -3.3920   19.8760  -33.4270 C   0  0  0  0  0  0  0  0  0  0  0  0
   -2.2180   20.5520  -33.0910 C   0  0  0  0  0  0  0  0  0  0  0  0
   -0.5270   19.8860  -33.6790 Br  0  0  0  0  0  0  0  0  0  0  0  0
   -2.2740   21.7090  -32.3230 C   0  0  0  0  0  0  0  0  0  0  0  0
   -3.4990   22.1790  -31.8590 C   0  0  0  0  0  0  0  0  0  0  0  0
   -4.6970   21.4980  -32.1630 C   0  0  0  0  0  0  0  0  0  0  0  0
   -2.9325   18.8658  -25.7231 H   0  0  0  0  0  0  0  0  0  0  0  0
   -3.4452   19.6452  -27.2582 H   0  0  0  0  0  0  0  0  0  0  0  0
   -2.0889   18.4675  -27.2582 H   0  0  0  0  0  0  0  0  0  0  0  0
   -1.9742   21.0327  -25.6186 H   0  0  0  0  0  0  0  0  0  0  0  0
   -0.6224   19.9625  -26.1816 H   0  0  0  0  0  0  0  0  0  0  0  0
   -2.6669   19.9162  -28.6875 H   0  0  0  0  0  0  0  0  0  0  0  0
   -2.2858   21.5051  -29.5181 H   0  0  0  0  0  0  0  0  0  0  0  0
   -0.0621   19.5372  -29.0912 H   0  0  0  0  0  0  0  0  0  0  0  0
   -1.2587   19.2194  -30.3927 H   0  0  0  0  0  0  0  0  0  0  0  0
   -0.3166   20.7488  -30.3927 H   0  0  0  0  0  0  0  0  0  0  0  0
    0.5824   21.4688  -27.0207 H   0  0  0  0  0  0  0  0  0  0  0  0
    0.2181   21.8455  -28.7825 H   0  0  0  0  0  0  0  0  0  0  0  0
   -1.0670   23.6866  -26.8721 H   0  0  0  0  0  0  0  0  0  0  0  0
    0.7318   23.7276  -26.8354 H   0  0  0  0  0  0  0  0  0  0  0  0
   -1.4092   24.6947  -30.1800 H   0  0  0  0  0  0  0  0  0  0  0  0
   -1.4107   22.9603  -29.6953 H   0  0  0  0  0  0  0  0  0  0  0  0
   -2.3192   23.8004  -27.4147 H   0  0  0  0  0  0  0  0  0  0  0  0
   -2.6676   25.3497  -28.3309 H   0  0  0  0  0  0  0  0  0  0  0  0
   -3.7668   23.3517  -29.9284 H   0  0  0  0  0  0  0  0  0  0  0  0
   -4.1694   22.8613  -28.2193 H   0  0  0  0  0  0  0  0  0  0  0  0
   -5.8490   24.1450  -28.5760 H   0  0  0  0  0  0  0  0  0  0  0  0
   -5.7665   26.2519  -29.9990 H   0  0  0  0  0  0  0  0  0  0  0  0
   -4.2276   25.5104  -30.6092 H   0  0  0  0  0  0  0  0  0  0  0  0
   -7.0571   24.7394  -31.1123 H   0  0  0  0  0  0  0  0  0  0  0  0
   -5.5688   24.4885  -32.1080 H   0  0  0  0  0  0  0  0  0  0  0  0
   -6.0800   22.7930  -29.6600 H   0  0  0  0  0  0  0  0  0  0  0  0
   -8.4082   22.5480  -30.8112 H   0  0  0  0  0  0  0  0  0  0  0  0
  -10.4548   21.1919  -31.2049 H   0  0  0  0  0  0  0  0  0  0  0  0
  -10.3101   19.0552  -32.4719 H   0  0  0  0  0  0  0  0  0  0  0  0
   -8.1527   18.3311  -33.4623 H   0  0  0  0  0  0  0  0  0  0  0  0
   -5.8142   17.6811  -33.9659 H   0  0  0  0  0  0  0  0  0  0  0  0
   -6.7233   18.7941  -35.0437 H   0  0  0  0  0  0  0  0  0  0  0  0
   -4.9271   18.8117  -35.0437 H   0  0  0  0  0  0  0  0  0  0  0  0
   -3.3337   18.9597  -34.0328 H   0  0  0  0  0  0  0  0  0  0  0  0
   -1.3493   22.2537  -32.0817 H   0  0  0  0  0  0  0  0  0  0  0  0
   -3.5338   23.0928  -31.2476 H   0  0  0  0  0  0  0  0  0  0  0  0
  1  2  1  0
  2  3  1  0
  3  4  1  0
  4  5  1  0
  3  6  1  0
  6  7  1  0
  7  8  1  0
  8  9  1  0
  9 10  1  0
 10 11  1  0
 11 12  1  0
 12 13  1  0
 13 14  1  0
 14 15  1  0
 15 16  1  0
 16 17  2  0
 17 18  1  0
 18 19  2  0
 19 20  1  0
 20 21  2  0
 21 22  1  0
 22 23  2  0
 23 24  1  0
 23 25  1  0
 25 26  2  0
 26 27  1  0
 27 28  1  0
 27 29  2  0
 29 30  1  0
 30 31  2  0
 31 16  1  0
 22 17  1  0
 31 25  1  0
  1 32  1  0
  1 33  1  0
  1 34  1  0
  2 35  1  0
  2 36  1  0
  4 37  1  0
  4 38  1  0
  5 39  1  0
  5 40  1  0
  5 41  1  0
  6 42  1  0
  6 43  1  0
  7 44  1  0
  7 45  1  0
  9 46  1  0
  9 47  1  0
 10 48  1  0
 10 49  1  0
 11 50  1  0
 11 51  1  0
 12 52  1  0
 13 53  1  0
 13 54  1  0
 14 55  1  0
 14 56  1  0
 15 57  1  0
 18 58  1  0
 19 59  1  0
 20 60  1  0
 21 61  1  0
 24 62  1  0
 24 63  1  0
 24 64  1  0
 26 65  1  0
 29 66  1  0
 30 67  1  0
M  CHG  1  23   1
M  END
>  <UniqueID>  (2) 
2

>  <SMILES>  (2) 
CCN(CC)CCOCCCNCCNc1c2ccccc2[n+](C)c2cc(Br)ccc12

>  <Energy>  (2) 
93.57122985383563

>  <Genealogy>  (2) 
CCN(CC)CCOCCCNCCNc1c2ccccc2[n+](C)c2cc(Br)ccc12 (3D coordinates assigned)
CCN(CC)CCOCCCNCCNc1c2ccccc2[n+](C)c2cc(Br)ccc12 (optimized conformer: 93.57122985383563 kcal/mol)

>  <smiles>  (2) 
CCN(CC)CCOCCCNCCNc1c2ccccc2[n+](C)c2cc(Br)ccc12

>  <score_type>  (2) 
oracle

>  <origin>  (2) 
adg

>  <m_score__min__energy>  (2) 
-9.6500000000000004

>  <m_primary>  (2) 
energy

$$$$
2:0
     RDKit          3D

 46 47  0  0  0  0  0  0  0  0999 V2000
   -4.2380   24.1640  -31.6590 H   0  0  0  0  0  0  0  0  0  0  0  0
   -4.4950   24.7410  -30.8650 O   0  0  0  0  0  0  0  0  0  0  0  0
   -5.7840   24.7600  -30.3720 N   0  0  0  0  0  0  0  0  0  0  0  0
   -6.7030   23.9710  -30.8610 C   0  0  0  0  0  0  0  0  0  0  0  0
   -7.7548   24.2740  -30.7523 H   0  0  0  0  0  0  0  0  0  0  0  0
   -6.4160   22.6950  -31.5520 C   0  0  0  0  0  0  0  0  0  0  0  0
   -5.2350   22.4360  -32.0820 O   0  0  0  0  0  0  0  0  0  0  0  0
   -5.2950   21.2500  -32.6390 C   0  0  0  0  0  0  0  0  0  0  0  0
   -4.2800   20.5720  -33.3230 C   0  0  0  0  0  0  0  0  0  0  0  0
   -2.9790   21.1720  -33.4680 N   0  0  0  0  0  0  0  0  0  0  0  0
   -2.8770   21.9900  -34.1120 H   0  0  0  0  0  0  0  0  0  0  0  0
   -1.7630   20.6730  -32.8250 C   0  0  0  0  0  0  0  0  0  0  0  0
   -0.9427   21.3811  -33.0143 H   0  0  0  0  0  0  0  0  0  0  0  0
   -1.5325   19.6832  -33.2459 H   0  0  0  0  0  0  0  0  0  0  0  0
   -1.9490   20.5180  -31.3010 C   0  0  0  0  0  0  0  0  0  0  0  0
   -0.9600   20.3754  -30.8411 H   0  0  0  0  0  0  0  0  0  0  0  0
   -2.6093   19.6533  -31.1392 H   0  0  0  0  0  0  0  0  0  0  0  0
   -2.6010   21.6970  -30.6650 N   0  0  0  0  0  0  0  0  0  0  0  0
   -3.2400   22.1390  -31.3680 H   0  0  0  0  0  0  0  0  0  0  0  0
   -3.4360   21.2830  -29.5070 C   0  0  0  0  0  0  0  0  0  0  0  0
   -2.8408   20.6145  -28.8675 H   0  0  0  0  0  0  0  0  0  0  0  0
   -4.3287   20.7816  -29.9091 H   0  0  0  0  0  0  0  0  0  0  0  0
   -3.9190   22.4660  -28.6600 C   0  0  0  0  0  0  0  0  0  0  0  0
   -3.8179   22.2185  -27.5930 H   0  0  0  0  0  0  0  0  0  0  0  0
   -3.3113   23.3537  -28.8896 H   0  0  0  0  0  0  0  0  0  0  0  0
   -4.9743   22.6747  -28.8896 H   0  0  0  0  0  0  0  0  0  0  0  0
   -1.5960   22.7430  -30.3270 C   0  0  0  0  0  0  0  0  0  0  0  0
   -1.0634   23.0186  -31.2492 H   0  0  0  0  0  0  0  0  0  0  0  0
   -2.1538   23.5820  -29.8855 H   0  0  0  0  0  0  0  0  0  0  0  0
   -0.5550   22.3120  -29.2820 C   0  0  0  0  0  0  0  0  0  0  0  0
   -0.9582   22.4789  -28.2723 H   0  0  0  0  0  0  0  0  0  0  0  0
   -0.3244   21.2444  -29.4128 H   0  0  0  0  0  0  0  0  0  0  0  0
    0.3628   22.9041  -29.4128 H   0  0  0  0  0  0  0  0  0  0  0  0
   -4.5960   19.2930  -33.8430 C   0  0  0  0  0  0  0  0  0  0  0  0
   -3.8271   18.7177  -34.3795 H   0  0  0  0  0  0  0  0  0  0  0  0
   -5.8900   18.7490  -33.6790 C   0  0  0  0  0  0  0  0  0  0  0  0
   -6.1203   17.7564  -34.0933 H   0  0  0  0  0  0  0  0  0  0  0  0
   -6.8860   19.4650  -32.9910 C   0  0  0  0  0  0  0  0  0  0  0  0
   -7.8977   19.0529  -32.8618 H   0  0  0  0  0  0  0  0  0  0  0  0
   -6.5450   20.7150  -32.4790 C   0  0  0  0  0  0  0  0  0  0  0  0
   -7.2950   21.6320  -31.7810 C   0  0  0  0  0  0  0  0  0  0  0  0
   -8.3476   21.5483  -31.4727 H   0  0  0  0  0  0  0  0  0  0  0  0
   -6.1500   25.7490  -29.3560 C   0  0  0  0  0  0  0  0  0  0  0  0
   -5.9919   25.3218  -28.3547 H   0  0  0  0  0  0  0  0  0  0  0  0
   -5.5242   26.6458  -29.4750 H   0  0  0  0  0  0  0  0  0  0  0  0
   -7.2088   26.0223  -29.4750 H   0  0  0  0  0  0  0  0  0  0  0  0
  1  2  1  0
  2  3  1  0
  3  4  2  0
  4  5  1  0
  4  6  1  0
  6  7  1  0
  7  8  1  0
  8  9  2  0
  9 10  1  0
 10 11  1  0
 10 12  1  0
 12 13  1  0
 12 14  1  0
 12 15  1  0
 15 16  1  0
 15 17  1  0
 15 18  1  0
 18 19  1  0
 18 20  1  0
 20 21  1  0
 20 22  1  0
 20 23  1  0
 23 24  1  0
 23 25  1  0
 23 26  1  0
 18 27  1  0
 27 28  1  0
 27 29  1  0
 27 30  1  0
 30 31  1  0
 30 32  1  0
 30 33  1  0
  9 34  1  0
 34 35  1  0
 34 36  2  0
 36 37  1  0
 36 38  1  0
 38 39  1  0
 38 40  2  0
 40 41  1  0
 41 42  1  0
  3 43  1  0
 43 44  1  0
 43 45  1  0
 43 46  1  0
 41  6  2  0
 40  8  1  0
M  CHG  2   3   1  18   1
M  END
>  <UniqueID>  (3) 
3

>  <SMILES>  (3) 
CC[NH+](CC)CCNc1cccc2cc(/C=[N+](/C)O)oc12

>  <Energy>  (3) 
81.53001281537547

>  <Genealogy>  (3) 
CC[NH+](CC)CCNc1cccc2cc(C=[N+](C)O)oc12 (protonated)
CC[NH+](CC)CCNc1cccc2cc(/C=[N+](/C)O)oc12 (cis-trans isomerization)
CC[NH+](CC)CCNc1cccc2cc(/C=[N+](/C)O)oc12 (3D coordinates assigned)
CC[NH+](CC)CCNc1cccc2cc(/C=[N+](/C)O)oc12 (optimized conformer: 81.53001281537547 kcal/mol)

>  <smiles>  (3) 
CCN(CC)CCNc1cccc2cc(C=[N+](C)[O-])oc12

>  <score_type>  (3) 
oracle

>  <origin>  (3) 
adg

>  <m_score__min__energy>  (3) 
-5.6600000000000001

>  <m_primary>  (3) 
energy

$$$$
3:0
     RDKit          3D

 31 32  0  0  0  0  0  0  0  0999 V2000
   -8.9190   21.4350  -31.5310 C   0  0  0  0  0  0  0  0  0  0  0  0
   -8.0010   20.2370  -31.8270 C   0  0  0  0  0  0  0  0  0  0  0  0
   -6.6030   20.5820  -32.2110 N   0  0  1  0  0  0  0  0  0  0  0  0
   -6.0910   19.8280  -33.3720 C   0  0  0  0  0  0  0  0  0  0  0  0
   -6.3540   22.0420  -32.3260 C   0  0  0  0  0  0  0  0  0  0  0  0
   -5.3170   22.5620  -31.3720 C   0  0  0  0  0  0  0  0  0  0  0  0
   -5.0280   23.8900  -31.3340 N   0  0  0  0  0  0  0  0  0  0  0  0
   -4.1030   24.3910  -30.4740 C   0  0  0  0  0  0  0  0  0  0  0  0
   -3.8690   25.6290  -30.4710 O   0  0  0  0  0  0  0  0  0  0  0  0
   -3.4220   23.5240  -29.6030 C   0  0  0  0  0  0  0  0  0  0  0  0
   -2.4570   23.9780  -28.6870 C   0  0  0  0  0  0  0  0  0  0  0  0
   -1.8110   23.0670  -27.8430 C   0  0  0  0  0  0  0  0  0  0  0  0
   -2.1230   21.7050  -27.9070 C   0  0  0  0  0  0  0  0  0  0  0  0
   -3.0820   21.2450  -28.8150 C   0  0  0  0  0  0  0  0  0  0  0  0
   -3.7320   22.1480  -29.6640 C   0  0  0  0  0  0  0  0  0  0  0  0
   -4.6660   21.7030  -30.5430 N   0  0  0  0  0  0  0  0  0  0  0  0
   -9.0164   21.5622  -30.4427 H   0  0  0  0  0  0  0  0  0  0  0  0
   -8.4856   22.3461  -31.9693 H   0  0  0  0  0  0  0  0  0  0  0  0
   -9.9115   21.2535  -31.9693 H   0  0  0  0  0  0  0  0  0  0  0  0
   -7.9599   19.6098  -30.9242 H   0  0  0  0  0  0  0  0  0  0  0  0
   -8.4380   19.7287  -32.6992 H   0  0  0  0  0  0  0  0  0  0  0  0
   -6.0080   20.2750  -31.4040 H   0  0  0  0  0  0  0  0  0  0  0  0
   -5.5055   18.9658  -33.0200 H   0  0  0  0  0  0  0  0  0  0  0  0
   -6.9360   19.4736  -33.9806 H   0  0  0  0  0  0  0  0  0  0  0  0
   -5.4499   20.4827  -33.9806 H   0  0  0  0  0  0  0  0  0  0  0  0
   -6.0187   22.2560  -33.3516 H   0  0  0  0  0  0  0  0  0  0  0  0
   -7.2987   22.5466  -32.0751 H   0  0  0  0  0  0  0  0  0  0  0  0
   -2.2097   25.0485  -28.6335 H   0  0  0  0  0  0  0  0  0  0  0  0
   -1.0556   23.4234  -27.1272 H   0  0  0  0  0  0  0  0  0  0  0  0
   -1.6125   20.9936  -27.2412 H   0  0  0  0  0  0  0  0  0  0  0  0
   -3.3255   20.1733  -28.8619 H   0  0  0  0  0  0  0  0  0  0  0  0
  1  2  1  0
  2  3  1  0
  3  4  1  0
  3  5  1  0
  5  6  1  0
  6  7  2  0
  7  8  1  0
  8  9  2  0
  8 10  1  0
 10 11  2  0
 11 12  1  0
 12 13  2  0
 13 14  1  0
 14 15  2  0
 15 16  1  0
 16  6  1  0
 15 10  1  0
  1 17  1  0
  1 18  1  0
  1 19  1  0
  2 20  1  0
  2 21  1  0
  3 22  1  1
  4 23  1  0
  4 24  1  0
  4 25  1  0
  5 26  1  0
  5 27  1  0
 11 28  1  0
 12 29  1  0
 13 30  1  0
 14 31  1  0
M  CHG  2   3   1  16  -1
M  END
>  <UniqueID>  (4) 
4

>  <SMILES>  (4) 
CC[N@@H+](C)Cc1nc(=O)c2ccccc2[n-]1

>  <Energy>  (4) 
41.095900741195685

>  <Genealogy>  (4) 
CC[NH+](C)Cc1nc(=O)c2ccccc2[n-]1 (protonated)
CC[N@@H+](C)Cc1nc(=O)c2ccccc2[n-]1 (chirality)
CC[N@@H+](C)Cc1nc(=O)c2ccccc2[n-]1 (3D coordinates assigned)
CC[N@@H+](C)Cc1nc(=O)c2ccccc2[n-]1 (optimized conformer: 41.095900741195685 kcal/mol)

>  <smiles>  (4) 
CCN(C)Cc1nc(=O)c2ccccc2[nH]1

>  <score_type>  (4) 
oracle

>  <origin>  (4) 
adg

>  <m_score__min__energy>  (4) 
-5.5

>  <m_primary>  (4) 
energy

$$$$
4:0
     RDKit          3D

 41 44  0  0  0  0  0  0  0  0999 V2000
   -6.8430   17.3100  -33.8310 C   0  0  0  0  0  0  0  0  0  0  0  0
   -6.4960   18.6770  -33.4440 N   0  0  0  0  0  0  0  0  0  0  0  0
   -5.2710   19.2580  -33.4980 C   0  0  0  0  0  0  0  0  0  0  0  0
   -5.3160   20.5450  -33.0160 C   0  0  0  0  0  0  0  0  0  0  0  0
   -6.6150   20.7630  -32.6070 C   0  0  0  0  0  0  0  0  0  0  0  0
   -7.2300   21.8690  -32.0220 C   0  0  0  0  0  0  0  0  0  0  0  0
   -8.5950   21.7670  -31.7010 C   0  0  0  0  0  0  0  0  0  0  0  0
   -9.3070   20.5770  -31.9660 C   0  0  0  0  0  0  0  0  0  0  0  0
   -8.6630   19.4750  -32.5570 C   0  0  0  0  0  0  0  0  0  0  0  0
   -7.3070   19.5990  -32.8730 C   0  0  0  0  0  0  0  0  0  0  0  0
   -4.1290   21.4090  -33.0230 C   0  0  0  0  0  0  0  0  0  0  0  0
   -4.2430   22.6280  -32.7230 O   0  0  0  0  0  0  0  0  0  0  0  0
   -2.8850   20.8810  -33.5670 N   0  0  1  0  0  0  0  0  0  0  0  0
   -1.6790   21.5530  -33.0120 C   0  0  0  0  0  0  0  0  0  0  0  0
   -1.5130   21.3920  -31.5130 C   0  0  0  0  0  0  0  0  0  0  0  0
   -0.7840   20.3050  -30.9960 C   0  0  0  0  0  0  0  0  0  0  0  0
   -0.6300   20.1490  -29.6150 C   0  0  0  0  0  0  0  0  0  0  0  0
   -1.1900   21.0800  -28.7380 C   0  0  0  0  0  0  0  0  0  0  0  0
   -1.8990   22.1740  -29.2410 C   0  0  0  0  0  0  0  0  0  0  0  0
   -2.0560   22.3330  -30.6210 C   0  0  0  0  0  0  0  0  0  0  0  0
   -2.7950   19.3980  -33.4360 C   0  0  0  0  0  0  0  0  0  0  0  0
   -4.0110   18.6750  -34.0600 C   0  0  0  0  0  0  0  0  0  0  0  0
   -6.9975   16.7013  -32.9279 H   0  0  0  0  0  0  0  0  0  0  0  0
   -7.7668   17.3212  -34.4281 H   0  0  0  0  0  0  0  0  0  0  0  0
   -6.0257   16.8793  -34.4281 H   0  0  0  0  0  0  0  0  0  0  0  0
   -6.6658   22.7911  -31.8183 H   0  0  0  0  0  0  0  0  0  0  0  0
   -9.1123   22.6212  -31.2397 H   0  0  0  0  0  0  0  0  0  0  0  0
  -10.3743   20.5111  -31.7081 H   0  0  0  0  0  0  0  0  0  0  0  0
   -9.2101   18.5435  -32.7643 H   0  0  0  0  0  0  0  0  0  0  0  0
   -2.9000   21.0980  -34.5920 H   0  0  0  0  0  0  0  0  0  0  0  0
   -0.7910   21.1306  -33.5049 H   0  0  0  0  0  0  0  0  0  0  0  0
   -1.8004   22.6294  -33.2031 H   0  0  0  0  0  0  0  0  0  0  0  0
   -0.3326   19.5736  -31.6825 H   0  0  0  0  0  0  0  0  0  0  0  0
   -0.0667   19.2913  -29.2188 H   0  0  0  0  0  0  0  0  0  0  0  0
   -1.0731   20.9523  -27.6517 H   0  0  0  0  0  0  0  0  0  0  0  0
   -2.3342   22.9111  -28.5502 H   0  0  0  0  0  0  0  0  0  0  0  0
   -2.6083   23.2005  -31.0115 H   0  0  0  0  0  0  0  0  0  0  0  0
   -1.8814   19.0536  -33.9427 H   0  0  0  0  0  0  0  0  0  0  0  0
   -2.7767   19.1571  -32.3628 H   0  0  0  0  0  0  0  0  0  0  0  0
   -3.9984   18.8089  -35.1517 H   0  0  0  0  0  0  0  0  0  0  0  0
   -3.9634   17.6013  -33.8255 H   0  0  0  0  0  0  0  0  0  0  0  0
  1  2  1  0
  2  3  1  0
  3  4  2  0
  4  5  1  0
  5  6  2  0
  6  7  1  0
  7  8  2  0
  8  9  1  0
  9 10  2  0
  4 11  1  0
 11 12  2  0
 11 13  1  0
 13 14  1  0
 14 15  1  0
 15 16  2  0
 16 17  1  0
 17 18  2  0
 18 19  1  0
 19 20  2  0
 13 21  1  0
 21 22  1  0
 10  2  1  0
 20 15  1  0
 22  3  1  0
 10  5  1  0
  1 23  1  0
  1 24  1  0
  1 25  1  0
  6 26  1  0
  7 27  1  0
  8 28  1  0
  9 29  1  0
 13 30  1  6
 14 31  1  0
 14 32  1  0
 16 33  1  0
 17 34  1  0
 18 35  1  0
 19 36  1  0
 20 37  1  0
 21 38  1  0
 21 39  1  0
 22 40  1  0
 22 41  1  0
M  CHG  1  13   1
M  END
>  <UniqueID>  (5) 
5

>  <SMILES>  (5) 
Cn1c2c(c3ccccc31)C(=O)[N@@H+](Cc1ccccc1)CC2

>  <Energy>  (5) 
90.48369181605014

>  <Genealogy>  (5) 
Cn1c2c(c3ccccc31)C(=O)[NH+](Cc1ccccc1)CC2 (protonated)
Cn1c2c(c3ccccc31)C(=O)[N@@H+](Cc1ccccc1)CC2 (chirality)
Cn1c2c(c3ccccc31)C(=O)[N@@H+](Cc1ccccc1)CC2 (3D coordinates assigned)
Cn1c2c(c3ccccc31)C(=O)[N@@H+](Cc1ccccc1)CC2 (nonaromatic ring conformer: 90.48369181605014 kcal/mol)

>  <smiles>  (5) 
Cn1c2c(c3ccccc31)C(=O)N(Cc1ccccc1)CC2

>  <score_type>  (5) 
oracle

>  <origin>  (5) 
adg

>  <m_score__min__energy>  (5) 
-7.6200000000000001

>  <m_primary>  (5) 
energy

$$$$
5:0
     RDKit          3D

 40 42  0  0  0  0  0  0  0  0999 V2000
   -6.4710   25.5000  -29.3410 C   0  0  0  0  0  0  0  0  0  0  0  0
   -6.0980   25.3400  -30.8170 C   0  0  0  0  0  0  0  0  0  0  0  0
   -5.4750   24.0220  -31.0810 N   0  0  0  0  0  0  0  0  0  0  0  0
   -6.2110   22.9450  -31.5610 C   0  0  0  0  0  0  0  0  0  0  0  0
   -7.9910   23.0270  -31.8540 S   0  0  0  0  0  0  0  0  0  0  0  0
   -8.3930   21.3900  -31.1380 C   0  0  0  0  0  0  0  0  0  0  0  0
   -9.1520   20.5090  -32.1330 C   0  0  0  0  0  0  0  0  0  0  0  0
   -8.2880   19.4400  -32.6790 N   0  0  0  0  0  0  0  0  0  0  0  0
   -7.6910   18.6220  -31.6050 C   0  0  0  0  0  0  0  0  0  0  0  0
   -6.8210   17.5000  -32.2130 C   0  0  0  0  0  0  0  0  0  0  0  0
   -6.6400   17.6550  -33.6100 O   0  0  0  0  0  0  0  0  0  0  0  0
   -6.1640   18.9570  -33.8870 C   0  0  0  0  0  0  0  0  0  0  0  0
   -7.2180   20.0190  -33.5170 C   0  0  0  0  0  0  0  0  0  0  0  0
   -5.6160   21.7320  -31.7530 N   0  0  0  0  0  0  0  0  0  0  0  0
   -4.2990   21.5700  -31.4990 C   0  0  0  0  0  0  0  0  0  0  0  0
   -3.5860   20.3810  -31.6650 C   0  0  0  0  0  0  0  0  0  0  0  0
   -2.2470   20.5140  -31.3010 C   0  0  0  0  0  0  0  0  0  0  0  0
   -1.9710   22.1000  -30.7730 S   0  0  0  0  0  0  0  0  0  0  0  0
   -3.5530   22.6120  -31.0180 C   0  0  0  0  0  0  0  0  0  0  0  0
   -4.1390   23.8480  -30.7870 C   0  0  0  0  0  0  0  0  0  0  0  0
   -3.4450   24.7840  -30.3020 O   0  0  0  0  0  0  0  0  0  0  0  0
   -5.6413   25.1441  -28.7125 H   0  0  0  0  0  0  0  0  0  0  0  0
   -6.6658   26.5608  -29.1249 H   0  0  0  0  0  0  0  0  0  0  0  0
   -7.3739   24.9100  -29.1249 H   0  0  0  0  0  0  0  0  0  0  0  0
   -7.0081   25.4336  -31.4276 H   0  0  0  0  0  0  0  0  0  0  0  0
   -5.3701   26.1232  -31.0754 H   0  0  0  0  0  0  0  0  0  0  0  0
   -7.4576   20.8848  -30.8556 H   0  0  0  0  0  0  0  0  0  0  0  0
   -9.0358   21.5480  -30.2595 H   0  0  0  0  0  0  0  0  0  0  0  0
  -10.0098   20.0487  -31.6209 H   0  0  0  0  0  0  0  0  0  0  0  0
   -9.4878   21.1416  -32.9679 H   0  0  0  0  0  0  0  0  0  0  0  0
   -7.0649   19.2618  -30.9658 H   0  0  0  0  0  0  0  0  0  0  0  0
   -8.4962   18.1693  -31.0077 H   0  0  0  0  0  0  0  0  0  0  0  0
   -5.8352   17.5136  -31.7252 H   0  0  0  0  0  0  0  0  0  0  0  0
   -7.3399   16.5446  -32.0455 H   0  0  0  0  0  0  0  0  0  0  0  0
   -5.2499   19.1381  -33.3025 H   0  0  0  0  0  0  0  0  0  0  0  0
   -5.9530   19.0320  -34.9640 H   0  0  0  0  0  0  0  0  0  0  0  0
   -6.7281   20.8326  -32.9620 H   0  0  0  0  0  0  0  0  0  0  0  0
   -7.6697   20.3997  -34.4449 H   0  0  0  0  0  0  0  0  0  0  0  0
   -4.0298   19.4469  -32.0399 H   0  0  0  0  0  0  0  0  0  0  0  0
   -1.4906   19.7168  -31.3489 H   0  0  0  0  0  0  0  0  0  0  0  0
  1  2  1  0
  2  3  1  0
  3  4  1  0
  4  5  1  0
  5  6  1  0
  6  7  1  0
  7  8  1  0
  8  9  1  0
  9 10  1  0
 10 11  1  0
 11 12  1  0
 12 13  1  0
  4 14  2  0
 14 15  1  0
 15 16  1  0
 16 17  2  0
 17 18  1  0
 18 19  1  0
 19 20  1  0
 20 21  2  0
 20  3  1  0
 13  8  1  0
 19 15  2  0
  1 22  1  0
  1 23  1  0
  1 24  1  0
  2 25  1  0
  2 26  1  0
  6 27  1  0
  6 28  1  0
  7 29  1  0
  7 30  1  0
  9 31  1  0
  9 32  1  0
 10 33  1  0
 10 34  1  0
 12 35  1  0
 12 36  1  0
 13 37  1  0
 13 38  1  0
 16 39  1  0
 17 40  1  0
M  END
>  <UniqueID>  (6) 
6

>  <SMILES>  (6) 
CCn1c(SCCN2CCOCC2)nc2ccsc2c1=O

>  <Energy>  (6) 
83.119042303614

>  <Genealogy>  (6) 
CCn1c(SCCN2CCOCC2)nc2ccsc2c1=O (3D coordinates assigned)
CCn1c(SCCN2CCOCC2)nc2ccsc2c1=O (nonaromatic ring conformer: 83.119042303614 kcal/mol)

>  <smiles>  (6) 
CCn1c(SCCN2CCOCC2)nc2ccsc2c1=O

>  <score_type>  (6) 
oracle

>  <origin>  (6) 
adg

>  <m_score__min__energy>  (6) 
-7.9900000000000002

>  <m_primary>  (6) 
energy

$$$$
6:0
     RDKit          3D

 38 38  0  0  0  0  0  0  0  0999 V2000
   -6.8480   24.9100  -30.1210 C   0  0  0  0  0  0  0  0  0  0  0  0
   -5.9600   23.9340  -29.3530 C   0  0  0  0  0  0  0  0  0  0  0  0
   -5.3030   22.9910  -30.2850 N   0  0  0  0  0  0  0  0  0  0  0  0
   -3.8280   23.1630  -30.2760 C   0  0  0  0  0  0  0  0  0  0  0  0
   -3.4890   24.6160  -30.1930 C   0  0  0  0  0  0  0  0  0  0  0  0
   -4.1500   25.4530  -30.8640 O   0  0  0  0  0  0  0  0  0  0  0  0
   -2.4170   25.0400  -29.3390 N   0  0  0  0  0  0  0  0  0  0  0  0
   -2.1910   24.6110  -27.9580 C   0  0  0  0  0  0  0  0  0  0  0  0
   -3.5080   24.5320  -27.1790 C   0  0  0  0  0  0  0  0  0  0  0  0
   -1.1700   25.5130  -27.2610 C   0  0  0  0  0  0  0  0  0  0  0  0
   -5.8610   23.1400  -31.6490 C   0  0  0  0  0  0  0  0  0  0  0  0
   -6.8930   22.0780  -31.9340 C   0  0  0  0  0  0  0  0  0  0  0  0
   -8.2380   22.2960  -31.5950 C   0  0  0  0  0  0  0  0  0  0  0  0
   -9.1950   21.3070  -31.8380 C   0  0  0  0  0  0  0  0  0  0  0  0
   -8.8160   20.0910  -32.4130 C   0  0  0  0  0  0  0  0  0  0  0  0
   -7.4780   19.8660  -32.7520 C   0  0  0  0  0  0  0  0  0  0  0  0
   -6.5180   20.8550  -32.5160 C   0  0  0  0  0  0  0  0  0  0  0  0
   -7.4123   25.5303  -29.4091 H   0  0  0  0  0  0  0  0  0  0  0  0
   -6.2214   25.5559  -30.7536 H   0  0  0  0  0  0  0  0  0  0  0  0
   -7.5501   24.3470  -30.7536 H   0  0  0  0  0  0  0  0  0  0  0  0
   -5.1903   24.4980  -28.8058 H   0  0  0  0  0  0  0  0  0  0  0  0
   -6.5831   23.3634  -28.6486 H   0  0  0  0  0  0  0  0  0  0  0  0
   -3.4044   22.6388  -29.4066 H   0  0  0  0  0  0  0  0  0  0  0  0
   -3.4075   22.7440  -31.2021 H   0  0  0  0  0  0  0  0  0  0  0  0
   -1.7675   23.5961  -27.9829 H   0  0  0  0  0  0  0  0  0  0  0  0
   -3.2968   24.5447  -26.0995 H   0  0  0  0  0  0  0  0  0  0  0  0
   -4.1401   25.3938  -27.4391 H   0  0  0  0  0  0  0  0  0  0  0  0
   -4.0326   23.6008  -27.4391 H   0  0  0  0  0  0  0  0  0  0  0  0
   -1.2794   25.4164  -26.1707 H   0  0  0  0  0  0  0  0  0  0  0  0
   -0.1537   25.2124  -27.5556 H   0  0  0  0  0  0  0  0  0  0  0  0
   -1.3430   26.5586  -27.5556 H   0  0  0  0  0  0  0  0  0  0  0  0
   -6.3311   24.1305  -31.7383 H   0  0  0  0  0  0  0  0  0  0  0  0
   -5.0413   23.0334  -32.3747 H   0  0  0  0  0  0  0  0  0  0  0  0
   -8.5397   23.2492  -31.1363 H   0  0  0  0  0  0  0  0  0  0  0  0
  -10.2483   21.4860  -31.5762 H   0  0  0  0  0  0  0  0  0  0  0  0
   -9.5695   19.3114  -32.5988 H   0  0  0  0  0  0  0  0  0  0  0  0
   -7.1801   18.9090  -33.2053 H   0  0  0  0  0  0  0  0  0  0  0  0
   -5.4670   20.6753  -32.7865 H   0  0  0  0  0  0  0  0  0  0  0  0
  1  2  1  0
  2  3  1  0
  3  4  1  0
  4  5  1  0
  5  6  2  0
  5  7  1  0
  7  8  1  0
  8  9  1  0
  8 10  1  0
  3 11  1  0
 11 12  1  0
 12 13  2  0
 13 14  1  0
 14 15  2  0
 15 16  1  0
 16 17  2  0
 17 12  1  0
  1 18  1  0
  1 19  1  0
  1 20  1  0
  2 21  1  0
  2 22  1  0
  4 23  1  0
  4 24  1  0
  8 25  1  0
  9 26  1  0
  9 27  1  0
  9 28  1  0
 10 29  1  0
 10 30  1  0
 10 31  1  0
 11 32  1  0
 11 33  1  0
 13 34  1  0
 14 35  1  0
 15 36  1  0
 16 37  1  0
 17 38  1  0
M  CHG  1   7  -1
M  END
>  <UniqueID>  (7) 
7

>  <SMILES>  (7) 
CCN(CC(=O)[N-]C(C)C)Cc1ccccc1

>  <Energy>  (7) 
28.484193513016663

>  <Genealogy>  (7) 
CCN(CC(=O)[N-]C(C)C)Cc1ccccc1 (protonated)
CCN(CC(=O)[N-]C(C)C)Cc1ccccc1 (3D coordinates assigned)
CCN(CC(=O)[N-]C(C)C)Cc1ccccc1 (optimized conformer: 28.484193513016663 kcal/mol)

>  <smiles>  (7) 
CCN(CC(=O)NC(C)C)Cc1ccccc1

>  <score_type>  (7) 
oracle

>  <origin>  (7) 
adg

>  <m_score__min__energy>  (7) 
-8.3300000000000001

>  <m_primary>  (7) 
energy

$$$$
7:0
     RDKit          3D

 52 55  0  0  0  0  0  0  0  0999 V2000
    1.9550   24.6910  -25.1040 C   0  0  0  0  0  0  0  0  0  0  0  0
    2.3560   25.7900  -24.1230 C   0  0  0  0  0  0  0  0  0  0  0  0
    1.1900   26.2600  -23.3560 N   0  0  0  0  0  0  0  0  0  0  0  0
    0.2420   27.0330  -24.1820 C   0  0  0  0  0  0  0  0  0  0  0  0
   -1.1880   26.4600  -24.1590 C   0  0  0  0  0  0  0  0  0  0  0  0
   -1.8750   26.6970  -25.3880 O   0  0  0  0  0  0  0  0  0  0  0  0
   -1.9700   25.7950  -26.4590 C   0  0  0  0  0  0  0  0  0  0  0  0
   -2.9640   24.8100  -26.4040 C   0  0  0  0  0  0  0  0  0  0  0  0
   -3.1110   23.8910  -27.4450 C   0  0  0  0  0  0  0  0  0  0  0  0
   -2.2560   23.9400  -28.5560 C   0  0  0  0  0  0  0  0  0  0  0  0
   -2.4030   22.9580  -29.6560 C   0  0  0  0  0  0  0  0  0  0  0  0
   -3.4290   23.1140  -30.6250 C   0  0  0  0  0  0  0  0  0  0  0  0
   -4.3430   24.2850  -30.6610 C   0  0  0  0  0  0  0  0  0  0  0  0
   -3.8720   25.4390  -30.4700 O   0  0  0  0  0  0  0  0  0  0  0  0
   -5.8200   24.1420  -30.9010 C   0  0  0  0  0  0  0  0  0  0  0  0
   -6.6840   24.9570  -29.9480 C   0  0  0  0  0  0  0  0  0  0  0  0
   -6.5980   23.4500  -29.7900 C   0  0  0  0  0  0  0  0  0  0  0  0
   -3.5850   22.1280  -31.6090 C   0  0  0  0  0  0  0  0  0  0  0  0
   -2.7560   21.0570  -31.6570 N   0  0  0  0  0  0  0  0  0  0  0  0
   -1.7570   20.8790  -30.7570 C   0  0  0  0  0  0  0  0  0  0  0  0
   -0.9380   19.7490  -30.8550 C   0  0  0  0  0  0  0  0  0  0  0  0
    0.0790   19.5350  -29.9230 C   0  0  0  0  0  0  0  0  0  0  0  0
    0.2790   20.4470  -28.8850 C   0  0  0  0  0  0  0  0  0  0  0  0
    1.2610   20.2300  -27.9760 F   0  0  0  0  0  0  0  0  0  0  0  0
   -0.5320   21.5800  -28.7780 C   0  0  0  0  0  0  0  0  0  0  0  0
   -1.5570   21.8210  -29.7210 C   0  0  0  0  0  0  0  0  0  0  0  0
   -1.2560   24.9200  -28.6140 C   0  0  0  0  0  0  0  0  0  0  0  0
   -1.1090   25.8400  -27.5730 C   0  0  0  0  0  0  0  0  0  0  0  0
    1.6303   23.8011  -24.5449 H   0  0  0  0  0  0  0  0  0  0  0  0
    1.1292   25.0479  -25.7369 H   0  0  0  0  0  0  0  0  0  0  0  0
    2.8166   24.4322  -25.7369 H   0  0  0  0  0  0  0  0  0  0  0  0
    3.1095   25.3938  -23.4264 H   0  0  0  0  0  0  0  0  0  0  0  0
    2.7671   26.6367  -24.6922 H   0  0  0  0  0  0  0  0  0  0  0  0
    0.6760   25.4260  -22.9830 H   0  0  0  0  0  0  0  0  0  0  0  0
    1.5080   26.8320  -22.5390 H   0  0  0  0  0  0  0  0  0  0  0  0
    0.2111   28.0659  -23.8051 H   0  0  0  0  0  0  0  0  0  0  0  0
    0.5979   26.9838  -25.2217 H   0  0  0  0  0  0  0  0  0  0  0  0
   -1.1339   25.3752  -23.9850 H   0  0  0  0  0  0  0  0  0  0  0  0
   -1.7444   26.9628  -23.3543 H   0  0  0  0  0  0  0  0  0  0  0  0
   -3.6346   24.7599  -25.5335 H   0  0  0  0  0  0  0  0  0  0  0  0
   -3.8999   23.1261  -27.3937 H   0  0  0  0  0  0  0  0  0  0  0  0
   -5.7511   24.0154  -31.9915 H   0  0  0  0  0  0  0  0  0  0  0  0
   -6.2114   25.6155  -29.2044 H   0  0  0  0  0  0  0  0  0  0  0  0
   -7.5040   25.6803  -30.0681 H   0  0  0  0  0  0  0  0  0  0  0  0
   -6.0632   23.0169  -28.9319 H   0  0  0  0  0  0  0  0  0  0  0  0
   -7.3300   22.6299  -29.7483 H   0  0  0  0  0  0  0  0  0  0  0  0
   -4.3906   22.2248  -32.3517 H   0  0  0  0  0  0  0  0  0  0  0  0
   -1.0960   19.0266  -31.6693 H   0  0  0  0  0  0  0  0  0  0  0  0
    0.7232   18.6473  -30.0065 H   0  0  0  0  0  0  0  0  0  0  0  0
   -0.3714   22.2900  -27.9533 H   0  0  0  0  0  0  0  0  0  0  0  0
   -0.5836   24.9651  -29.4834 H   0  0  0  0  0  0  0  0  0  0  0  0
   -0.3178   26.6025  -27.6234 H   0  0  0  0  0  0  0  0  0  0  0  0
  1  2  1  0
  2  3  1  0
  3  4  1  0
  4  5  1  0
  5  6  1  0
  6  7  1  0
  7  8  2  0
  8  9  1  0
  9 10  2  0
 10 11  1  0
 11 12  1  0
 12 13  1  0
 13 14  2  0
 13 15  1  0
 15 16  1  0
 16 17  1  0
 12 18  2  0
 18 19  1  0
 19 20  2  0
 20 21  1  0
 21 22  2  0
 22 23  1  0
 23 24  1  0
 23 25  2  0
 25 26  1  0
 10 27  1  0
 27 28  2  0
 28  7  1  0
 26 11  2  0
 17 15  1  0
 26 20  1  0
  1 29  1  0
  1 30  1  0
  1 31  1  0
  2 32  1  0
  2 33  1  0
  3 34  1  0
  3 35  1  0
  4 36  1  0
  4 37  1  0
  5 38  1  0
  5 39  1  0
  8 40  1  0
  9 41  1  0
 15 42  1  0
 16 43  1  0
 16 44  1  0
 17 45  1  0
 17 46  1  0
 18 47  1  0
 21 48  1  0
 22 49  1  0
 25 50  1  0
 27 51  1  0
 28 52  1  0
M  CHG  1   3   1
M  END
>  <UniqueID>  (8) 
8

>  <SMILES>  (8) 
CC[NH2+]CCOc1ccc(-c2c(C(=O)C3CC3)cnc3ccc(F)cc23)cc1

>  <Energy>  (8) 
331.68561789064574

>  <Genealogy>  (8) 
CC[NH2+]CCOc1ccc(-c2c(C(=O)C3CC3)cnc3ccc(F)cc23)cc1 (protonated)
CC[NH2+]CCOc1ccc(-c2c(C(=O)C3CC3)cnc3ccc(F)cc23)cc1 (3D coordinates assigned)
CC[NH2+]CCOc1ccc(-c2c(C(=O)C3CC3)cnc3ccc(F)cc23)cc1 (nonaromatic ring conformer: 331.68561789064574 kcal/mol)

>  <smiles>  (8) 
CCNCCOc1ccc(-c2c(C(=O)C3CC3)cnc3ccc(F)cc23)cc1

>  <score_type>  (8) 
oracle

>  <origin>  (8) 
adg

>  <m_score__min__energy>  (8) 
-8.75

>  <m_primary>  (8) 
energy

$$$$
8:0
     RDKit          3D

 74 76  0  0  0  0  0  0  0  0999 V2000
   -2.5840   25.2880  -26.4730 C   0  0  0  0  0  0  0  0  0  0  0  0
   -1.6360   25.4680  -27.6630 C   0  0  0  0  0  0  0  0  0  0  0  0
   -2.3050   25.2570  -28.9560 N   0  0  0  0  0  0  0  0  0  0  0  0
   -2.2880   23.8470  -29.3690 C   0  0  0  0  0  0  0  0  0  0  0  0
   -3.4000   23.5750  -30.3840 C   0  0  0  0  0  0  0  0  0  0  0  0
   -3.9850   24.7870  -30.8260 O   0  0  0  0  0  0  0  0  0  0  0  0
   -5.3560   24.8760  -30.4780 C   0  0  0  0  0  0  0  0  0  0  0  0
   -6.1200   23.6590  -31.0070 C   0  0  0  0  0  0  0  0  0  0  0  0
   -5.6610   23.2760  -32.3530 N   0  0  0  0  0  0  0  0  0  0  0  0
   -5.7600   21.8400  -32.5500 C   0  0  0  0  0  0  0  0  0  0  0  0
   -7.0160   21.1810  -32.4710 C   0  0  0  0  0  0  0  0  0  0  0  0
   -8.1800   21.8430  -32.0080 C   0  0  0  0  0  0  0  0  0  0  0  0
   -9.3960   21.1750  -31.9130 C   0  0  0  0  0  0  0  0  0  0  0  0
   -9.4850   19.8330  -32.2560 C   0  0  0  0  0  0  0  0  0  0  0  0
   -8.3590   19.1550  -32.7130 C   0  0  0  0  0  0  0  0  0  0  0  0
   -7.1110   19.8140  -32.8550 C   0  0  0  0  0  0  0  0  0  0  0  0
   -6.0030   19.1520  -33.3420 N   0  0  0  0  0  0  0  0  0  0  0  0
   -6.1650   17.8700  -34.0620 C   0  0  0  0  0  0  0  0  0  0  0  0
   -4.7460   19.6950  -33.1710 C   0  0  0  0  0  0  0  0  0  0  0  0
   -3.5790   18.9130  -33.3470 C   0  0  0  0  0  0  0  0  0  0  0  0
   -2.2950   19.4680  -33.2310 C   0  0  0  0  0  0  0  0  0  0  0  0
   -1.1250   18.7120  -33.4300 O   0  0  0  0  0  0  0  0  0  0  0  0
   -0.4610   18.5140  -34.6800 C   0  0  0  0  0  0  0  0  0  0  0  0
   -0.1000   19.8740  -35.3190 C   0  0  0  0  0  0  0  0  0  0  0  0
    1.3280   20.2900  -35.1640 N   0  0  0  0  0  0  0  0  0  0  0  0
    2.1580   19.8100  -36.2930 C   0  0  0  0  0  0  0  0  0  0  0  0
    1.8470   19.6850  -33.9120 C   0  0  0  0  0  0  0  0  0  0  0  0
    1.4450   21.7640  -35.0480 C   0  0  0  0  0  0  0  0  0  0  0  0
   -2.1550   20.8140  -32.8970 C   0  0  0  0  0  0  0  0  0  0  0  0
   -0.8560   21.3370  -32.7840 O   0  0  0  0  0  0  0  0  0  0  0  0
   -0.0560   21.2800  -31.6080 C   0  0  0  0  0  0  0  0  0  0  0  0
   -3.2980   21.5980  -32.6750 C   0  0  0  0  0  0  0  0  0  0  0  0
   -4.6000   21.0570  -32.7990 C   0  0  0  0  0  0  0  0  0  0  0  0
   -2.0195   25.3952  -25.5350 H   0  0  0  0  0  0  0  0  0  0  0  0
   -3.3741   26.0522  -26.5148 H   0  0  0  0  0  0  0  0  0  0  0  0
   -3.0390   24.2874  -26.5148 H   0  0  0  0  0  0  0  0  0  0  0  0
   -1.2304   26.4902  -27.6388 H   0  0  0  0  0  0  0  0  0  0  0  0
   -0.8405   24.7137  -27.5724 H   0  0  0  0  0  0  0  0  0  0  0  0
   -3.2990   25.5820  -28.8900 H   0  0  0  0  0  0  0  0  0  0  0  0
   -1.3150   23.6151  -29.8266 H   0  0  0  0  0  0  0  0  0  0  0  0
   -2.4501   23.2141  -28.4841 H   0  0  0  0  0  0  0  0  0  0  0  0
   -2.9768   23.0425  -31.2485 H   0  0  0  0  0  0  0  0  0  0  0  0
   -4.1768   22.9642  -29.9008 H   0  0  0  0  0  0  0  0  0  0  0  0
   -5.4503   24.9154  -29.3828 H   0  0  0  0  0  0  0  0  0  0  0  0
   -5.7800   25.7866  -30.9264 H   0  0  0  0  0  0  0  0  0  0  0  0
   -5.9629   22.8130  -30.3217 H   0  0  0  0  0  0  0  0  0  0  0  0
   -7.1866   23.9212  -31.0680 H   0  0  0  0  0  0  0  0  0  0  0  0
   -6.2090   23.7840  -33.0840 H   0  0  0  0  0  0  0  0  0  0  0  0
   -4.6810   23.6000  -32.5150 H   0  0  0  0  0  0  0  0  0  0  0  0
   -8.1209   22.9027  -31.7190 H   0  0  0  0  0  0  0  0  0  0  0  0
  -10.2906   21.7121  -31.5648 H   0  0  0  0  0  0  0  0  0  0  0  0
  -10.4460   19.3052  -32.1665 H   0  0  0  0  0  0  0  0  0  0  0  0
   -8.4382   18.0881  -32.9689 H   0  0  0  0  0  0  0  0  0  0  0  0
   -6.2684   17.0514  -33.3345 H   0  0  0  0  0  0  0  0  0  0  0  0
   -7.0646   17.9152  -34.6934 H   0  0  0  0  0  0  0  0  0  0  0  0
   -5.2825   17.6900  -34.6934 H   0  0  0  0  0  0  0  0  0  0  0  0
   -3.6812   17.8430  -33.5807 H   0  0  0  0  0  0  0  0  0  0  0  0
    0.4598   17.9357  -34.5138 H   0  0  0  0  0  0  0  0  0  0  0  0
   -1.1327   17.9678  -35.3585 H   0  0  0  0  0  0  0  0  0  0  0  0
   -0.3226   19.8146  -36.3946 H   0  0  0  0  0  0  0  0  0  0  0  0
   -0.6979   20.6295  -34.7883 H   0  0  0  0  0  0  0  0  0  0  0  0
    3.0478   19.2954  -35.9012 H   0  0  0  0  0  0  0  0  0  0  0  0
    1.5717   19.1116  -36.9081 H   0  0  0  0  0  0  0  0  0  0  0  0
    2.4710   20.6665  -36.9081 H   0  0  0  0  0  0  0  0  0  0  0  0
    1.4056   20.1995  -33.0457 H   0  0  0  0  0  0  0  0  0  0  0  0
    1.5783   18.6188  -33.8812 H   0  0  0  0  0  0  0  0  0  0  0  0
    2.9417   19.7883  -33.8812 H   0  0  0  0  0  0  0  0  0  0  0  0
    1.4675   22.0475  -33.9854 H   0  0  0  0  0  0  0  0  0  0  0  0
    2.3725   22.0978  -35.5363 H   0  0  0  0  0  0  0  0  0  0  0  0
    0.5818   22.2399  -35.5363 H   0  0  0  0  0  0  0  0  0  0  0  0
   -0.7046   21.3262  -30.7207 H   0  0  0  0  0  0  0  0  0  0  0  0
    0.5136   20.3390  -31.5972 H   0  0  0  0  0  0  0  0  0  0  0  0
    0.6412   22.1307  -31.5972 H   0  0  0  0  0  0  0  0  0  0  0  0
   -3.1792   22.6561  -32.3986 H   0  0  0  0  0  0  0  0  0  0  0  0
  1  2  1  0
  2  3  1  0
  3  4  1  0
  4  5  1  0
  5  6  1  0
  6  7  1  0
  7  8  1  0
  8  9  1  0
  9 10  1  0
 10 11  2  0
 11 12  1  0
 12 13  2  0
 13 14  1  0
 14 15  2  0
 15 16  1  0
 16 17  2  0
 17 18  1  0
 17 19  1  0
 19 20  2  0
 20 21  1  0
 21 22  1  0
 22 23  1  0
 23 24  1  0
 24 25  1  0
 25 26  1  0
 25 27  1  0
 25 28  1  0
 21 29  2  0
 29 30  1  0
 30 31  1  0
 29 32  1  0
 32 33  2  0
 33 10  1  0
 16 11  1  0
 33 19  1  0
  1 34  1  0
  1 35  1  0
  1 36  1  0
  2 37  1  0
  2 38  1  0
  3 39  1  0
  4 40  1  0
  4 41  1  0
  5 42  1  0
  5 43  1  0
  7 44  1  0
  7 45  1  0
  8 46  1  0
  8 47  1  0
  9 48  1  0
  9 49  1  0
 12 50  1  0
 13 51  1  0
 14 52  1  0
 15 53  1  0
 18 54  1  0
 18 55  1  0
 18 56  1  0
 20 57  1  0
 23 58  1  0
 23 59  1  0
 24 60  1  0
 24 61  1  0
 26 62  1  0
 26 63  1  0
 26 64  1  0
 27 65  1  0
 27 66  1  0
 27 67  1  0
 28 68  1  0
 28 69  1  0
 28 70  1  0
 31 71  1  0
 31 72  1  0
 31 73  1  0
 32 74  1  0
M  CHG  3   9   1  17   1  25   1
M  END
>  <UniqueID>  (9) 
9

>  <SMILES>  (9) 
CCNCCOCC[NH2+]c1c2ccccc2[n+](C)c2cc(OCC[N+](C)(C)C)c(OC)cc12

>  <Energy>  (9) 
104.59654915463949

>  <Genealogy>  (9) 
CCNCCOCC[NH2+]c1c2ccccc2[n+](C)c2cc(OCC[N+](C)(C)C)c(OC)cc12 (protonated)
CCNCCOCC[NH2+]c1c2ccccc2[n+](C)c2cc(OCC[N+](C)(C)C)c(OC)cc12 (3D coordinates assigned)
CCNCCOCC[NH2+]c1c2ccccc2[n+](C)c2cc(OCC[N+](C)(C)C)c(OC)cc12 (optimized conformer: 104.59654915463949 kcal/mol)

>  <smiles>  (9) 
CCNCCOCCNc1c2ccccc2[n+](C)c2cc(OCC[N+](C)(C)C)c(OC)cc12

>  <score_type>  (9) 
oracle

>  <origin>  (9) 
adg

>  <m_score__min__energy>  (9) 
-7.4699999999999998

>  <m_primary>  (9) 
energy

$$$$
9:0
     RDKit          3D

 66 68  0  0  0  0  0  0  0  0999 V2000
   -6.1080   17.2650  -31.6140 C   0  0  0  0  0  0  0  0  0  0  0  0
   -7.1520   17.4720  -32.7070 C   0  0  0  0  0  0  0  0  0  0  0  0
   -8.3790   18.2240  -32.1720 C   0  0  0  0  0  0  0  0  0  0  0  0
   -8.7480   19.3280  -33.0720 N   0  0  0  0  0  0  0  0  0  0  0  0
   -9.2580   20.5000  -32.3360 C   0  0  0  0  0  0  0  0  0  0  0  0
   -8.1240   21.3880  -31.7940 C   0  0  0  0  0  0  0  0  0  0  0  0
   -7.0430   21.5000  -32.7730 N   0  0  0  0  0  0  0  0  0  0  0  0
   -5.6800   21.7280  -32.3750 C   0  0  0  0  0  0  0  0  0  0  0  0
   -5.3370   22.8670  -31.6270 C   0  0  0  0  0  0  0  0  0  0  0  0
   -6.2750   23.8920  -31.3850 C   0  0  0  0  0  0  0  0  0  0  0  0
   -5.9310   25.0010  -30.6150 C   0  0  0  0  0  0  0  0  0  0  0  0
   -4.6500   25.1120  -30.0830 C   0  0  0  0  0  0  0  0  0  0  0  0
   -3.7030   24.1170  -30.3230 C   0  0  0  0  0  0  0  0  0  0  0  0
   -4.0260   22.9780  -31.1010 C   0  0  0  0  0  0  0  0  0  0  0  0
   -3.0970   21.9890  -31.3460 N   0  0  0  0  0  0  0  0  0  0  0  0
   -1.9800   21.8160  -30.3920 C   0  0  0  0  0  0  0  0  0  0  0  0
   -3.3320   21.0510  -32.3350 C   0  0  0  0  0  0  0  0  0  0  0  0
   -2.2930   20.2750  -32.9450 C   0  0  0  0  0  0  0  0  0  0  0  0
   -0.8310   20.6940  -32.9320 C   0  0  0  0  0  0  0  0  0  0  0  0
   -0.5510   21.6530  -34.0100 N   0  0  0  0  0  0  0  0  0  0  0  0
   -0.1240   20.9530  -35.2270 C   0  0  0  0  0  0  0  0  0  0  0  0
    1.1070   21.6420  -35.8570 C   0  0  0  0  0  0  0  0  0  0  0  0
    1.3800   23.0130  -35.3670 N   0  0  0  0  0  0  0  0  0  0  0  0
    2.8150   23.3420  -35.3330 C   0  0  0  0  0  0  0  0  0  0  0  0
    0.6110   24.0510  -36.0700 C   0  0  0  0  0  0  0  0  0  0  0  0
   -2.6370   19.1350  -33.6910 C   0  0  0  0  0  0  0  0  0  0  0  0
   -3.9650   18.8520  -33.9860 C   0  0  0  0  0  0  0  0  0  0  0  0
   -4.9700   19.7170  -33.5720 C   0  0  0  0  0  0  0  0  0  0  0  0
   -4.6690   20.8310  -32.7680 C   0  0  0  0  0  0  0  0  0  0  0  0
   -6.5859   17.3598  -30.6278 H   0  0  0  0  0  0  0  0  0  0  0  0
   -5.6673   16.2620  -31.7131 H   0  0  0  0  0  0  0  0  0  0  0  0
   -5.3180   18.0240  -31.7131 H   0  0  0  0  0  0  0  0  0  0  0  0
   -6.7034   18.0546  -33.5251 H   0  0  0  0  0  0  0  0  0  0  0  0
   -7.4792   16.4849  -33.0657 H   0  0  0  0  0  0  0  0  0  0  0  0
   -9.2245   17.5248  -32.0933 H   0  0  0  0  0  0  0  0  0  0  0  0
   -8.1341   18.6411  -31.1840 H   0  0  0  0  0  0  0  0  0  0  0  0
   -9.5060   18.9950  -33.7140 H   0  0  0  0  0  0  0  0  0  0  0  0
   -7.9250   19.6030  -33.6600 H   0  0  0  0  0  0  0  0  0  0  0  0
   -9.8831   21.0992  -33.0144 H   0  0  0  0  0  0  0  0  0  0  0  0
   -9.8372   20.1317  -31.4764 H   0  0  0  0  0  0  0  0  0  0  0  0
   -8.5218   22.3907  -31.5789 H   0  0  0  0  0  0  0  0  0  0  0  0
   -7.7246   20.9313  -30.8764 H   0  0  0  0  0  0  0  0  0  0  0  0
   -7.2510   21.3170  -33.7800 H   0  0  0  0  0  0  0  0  0  0  0  0
   -7.2875   23.8152  -31.8081 H   0  0  0  0  0  0  0  0  0  0  0  0
   -6.6736   25.7905  -30.4272 H   0  0  0  0  0  0  0  0  0  0  0  0
   -4.3837   25.9868  -29.4716 H   0  0  0  0  0  0  0  0  0  0  0  0
   -2.6915   24.2179  -29.9026 H   0  0  0  0  0  0  0  0  0  0  0  0
   -2.3641   21.8755  -29.3630 H   0  0  0  0  0  0  0  0  0  0  0  0
   -1.5100   20.8344  -30.5518 H   0  0  0  0  0  0  0  0  0  0  0  0
   -1.2351   22.6095  -30.5518 H   0  0  0  0  0  0  0  0  0  0  0  0
   -0.5991   21.1623  -31.9641 H   0  0  0  0  0  0  0  0  0  0  0  0
   -0.2078   19.8006  -33.0855 H   0  0  0  0  0  0  0  0  0  0  0  0
    0.2370   22.2690  -33.6970 H   0  0  0  0  0  0  0  0  0  0  0  0
    0.1354   19.9147  -34.9729 H   0  0  0  0  0  0  0  0  0  0  0  0
   -0.9496   20.9763  -35.9535 H   0  0  0  0  0  0  0  0  0  0  0  0
    1.9904   21.0220  -35.6442 H   0  0  0  0  0  0  0  0  0  0  0  0
    0.8875   21.7388  -36.9305 H   0  0  0  0  0  0  0  0  0  0  0  0
    3.1490   23.4186  -34.2877 H   0  0  0  0  0  0  0  0  0  0  0  0
    3.3847   22.5512  -35.8429 H   0  0  0  0  0  0  0  0  0  0  0  0
    2.9833   24.3020  -35.8429 H   0  0  0  0  0  0  0  0  0  0  0  0
    0.1242   24.7081  -35.3343 H   0  0  0  0  0  0  0  0  0  0  0  0
    1.2885   24.6453  -36.7007 H   0  0  0  0  0  0  0  0  0  0  0  0
   -0.1548   23.5760  -36.7007 H   0  0  0  0  0  0  0  0  0  0  0  0
   -1.8455   18.4585  -34.0457 H   0  0  0  0  0  0  0  0  0  0  0  0
   -4.2208   17.9418  -34.5481 H   0  0  0  0  0  0  0  0  0  0  0  0
   -6.0104   19.5290  -33.8757 H   0  0  0  0  0  0  0  0  0  0  0  0
  1  2  1  0
  2  3  1  0
  3  4  1  0
  4  5  1  0
  5  6  1  0
  6  7  1  0
  7  8  1  0
  8  9  2  0
  9 10  1  0
 10 11  2  0
 11 12  1  0
 12 13  2  0
 13 14  1  0
 14 15  2  0
 15 16  1  0
 15 17  1  0
 17 18  2  0
 18 19  1  0
 19 20  1  0
 20 21  1  0
 21 22  1  0
 22 23  1  0
 23 24  1  0
 23 25  1  0
 18 26  1  0
 26 27  2  0
 27 28  1  0
 28 29  2  0
 29  8  1  0
 14  9  1  0
 29 17  1  0
  1 30  1  0
  1 31  1  0
  1 32  1  0
  2 33  1  0
  2 34  1  0
  3 35  1  0
  3 36  1  0
  4 37  1  0
  4 38  1  0
  5 39  1  0
  5 40  1  0
  6 41  1  0
  6 42  1  0
  7 43  1  0
 10 44  1  0
 11 45  1  0
 12 46  1  0
 13 47  1  0
 16 48  1  0
 16 49  1  0
 16 50  1  0
 19 51  1  0
 19 52  1  0
 20 53  1  0
 21 54  1  0
 21 55  1  0
 22 56  1  0
 22 57  1  0
 24 58  1  0
 24 59  1  0
 24 60  1  0
 25 61  1  0
 25 62  1  0
 25 63  1  0
 26 64  1  0
 27 65  1  0
 28 66  1  0
M  CHG  2   4   1  15   1
M  END
>  <UniqueID>  (10) 
10

>  <SMILES>  (10) 
CCC[NH2+]CCNc1c2ccccc2[n+](C)c2c(CNCCN(C)C)cccc12

>  <Energy>  (10) 
98.55601601268536

>  <Genealogy>  (10) 
CCC[NH2+]CCNc1c2ccccc2[n+](C)c2c(CNCCN(C)C)cccc12 (protonated)
CCC[NH2+]CCNc1c2ccccc2[n+](C)c2c(CNCCN(C)C)cccc12 (3D coordinates assigned)
CCC[NH2+]CCNc1c2ccccc2[n+](C)c2c(CNCCN(C)C)cccc12 (optimized conformer: 98.55601601268536 kcal/mol)

>  <smiles>  (10) 
CCCNCCNc1c2ccccc2[n+](C)c2c(CNCCN(C)C)cccc12

>  <score_type>  (10) 
oracle

>  <origin>  (10) 
adg

>  <m_score__min__energy>  (10) 
-7.2400000000000002

>  <m_primary>  (10) 
energy

$$$$
10:0
     RDKit          3D

 62 65  0  0  0  0  0  0  0  0999 V2000
   -9.6850   21.5940  -30.8070 C   0  0  0  0  0  0  0  0  0  0  0  0
   -9.4910   20.8920  -32.1540 C   0  0  0  0  0  0  0  0  0  0  0  0
   -8.1200   20.3760  -32.3870 N   0  0  0  0  0  0  0  0  0  0  0  0
   -8.0000   18.9170  -32.6000 C   0  0  0  0  0  0  0  0  0  0  0  0
   -7.0400   18.2740  -31.5990 C   0  0  0  0  0  0  0  0  0  0  0  0
   -7.0740   20.9740  -31.5220 C   0  0  0  0  0  0  0  0  0  0  0  0
   -6.8260   22.4780  -31.7600 C   0  0  0  0  0  0  0  0  0  0  0  0
   -5.5890   22.6850  -32.5120 N   0  0  0  0  0  0  0  0  0  0  0  0
   -4.4260   21.8950  -32.2390 C   0  0  0  0  0  0  0  0  0  0  0  0
   -4.2960   20.6520  -32.8510 C   0  0  0  0  0  0  0  0  0  0  0  0
   -3.1830   19.8680  -32.6330 C   0  0  0  0  0  0  0  0  0  0  0  0
   -2.1170   20.3150  -31.8980 N   0  0  0  0  0  0  0  0  0  0  0  0
   -0.8240   19.6110  -31.9750 C   0  0  0  0  0  0  0  0  0  0  0  0
   -2.2610   21.4790  -31.1580 C   0  0  0  0  0  0  0  0  0  0  0  0
   -1.2990   21.8510  -30.1920 C   0  0  0  0  0  0  0  0  0  0  0  0
   -1.4050   23.0550  -29.4830 C   0  0  0  0  0  0  0  0  0  0  0  0
   -0.4570   23.4530  -28.5280 O   0  0  0  0  0  0  0  0  0  0  0  0
   -0.7220   23.5980  -27.1360 C   0  0  0  0  0  0  0  0  0  0  0  0
   -2.4840   23.8990  -29.7240 C   0  0  0  0  0  0  0  0  0  0  0  0
   -3.4920   23.5540  -30.6410 C   0  0  0  0  0  0  0  0  0  0  0  0
   -4.5780   24.4200  -30.8590 O   0  0  0  0  0  0  0  0  0  0  0  0
   -5.4790   24.8770  -29.8560 C   0  0  0  0  0  0  0  0  0  0  0  0
   -3.4070   22.3240  -31.3480 C   0  0  0  0  0  0  0  0  0  0  0  0
   -3.3600   18.6210  -33.3890 C   0  0  0  0  0  0  0  0  0  0  0  0
   -2.6560   17.4080  -33.3580 C   0  0  0  0  0  0  0  0  0  0  0  0
   -3.1160   16.3410  -34.1460 C   0  0  0  0  0  0  0  0  0  0  0  0
   -4.2850   16.4760  -34.9140 C   0  0  0  0  0  0  0  0  0  0  0  0
   -5.0170   17.6710  -34.8810 C   0  0  0  0  0  0  0  0  0  0  0  0
   -4.5420   18.7280  -34.1030 C   0  0  0  0  0  0  0  0  0  0  0  0
   -5.2390   20.0210  -33.8350 C   0  0  0  0  0  0  0  0  0  0  0  0
   -9.4885   20.8828  -29.9912 H   0  0  0  0  0  0  0  0  0  0  0  0
   -8.9873   22.4410  -30.7311 H   0  0  0  0  0  0  0  0  0  0  0  0
  -10.7187   21.9625  -30.7311 H   0  0  0  0  0  0  0  0  0  0  0  0
  -10.1902   20.0442  -32.2034 H   0  0  0  0  0  0  0  0  0  0  0  0
   -9.6767   21.6486  -32.9306 H   0  0  0  0  0  0  0  0  0  0  0  0
   -8.9931   18.4577  -32.4863 H   0  0  0  0  0  0  0  0  0  0  0  0
   -7.6009   18.7509  -33.6115 H   0  0  0  0  0  0  0  0  0  0  0  0
   -7.3740   18.4977  -30.5751 H   0  0  0  0  0  0  0  0  0  0  0  0
   -7.0275   17.1846  -31.7508 H   0  0  0  0  0  0  0  0  0  0  0  0
   -6.0278   18.6770  -31.7508 H   0  0  0  0  0  0  0  0  0  0  0  0
   -7.3770   20.8380  -30.4733 H   0  0  0  0  0  0  0  0  0  0  0  0
   -6.1335   20.4601  -31.7696 H   0  0  0  0  0  0  0  0  0  0  0  0
   -7.6689   22.8974  -32.3288 H   0  0  0  0  0  0  0  0  0  0  0  0
   -6.7358   22.9802  -30.7855 H   0  0  0  0  0  0  0  0  0  0  0  0
   -5.4950   23.4890  -33.1750 H   0  0  0  0  0  0  0  0  0  0  0  0
   -0.4548   19.4100  -30.9585 H   0  0  0  0  0  0  0  0  0  0  0  0
   -0.9557   18.6601  -32.5120 H   0  0  0  0  0  0  0  0  0  0  0  0
   -0.0967   20.2377  -32.5120 H   0  0  0  0  0  0  0  0  0  0  0  0
   -0.4493   21.1815  -29.9925 H   0  0  0  0  0  0  0  0  0  0  0  0
    0.0989   23.1488  -26.5577 H   0  0  0  0  0  0  0  0  0  0  0  0
   -0.8036   24.6665  -26.8876 H   0  0  0  0  0  0  0  0  0  0  0  0
   -1.6659   23.0907  -26.8876 H   0  0  0  0  0  0  0  0  0  0  0  0
   -2.5499   24.8562  -29.1859 H   0  0  0  0  0  0  0  0  0  0  0  0
   -5.0594   24.6642  -28.8617 H   0  0  0  0  0  0  0  0  0  0  0  0
   -5.6306   25.9610  -29.9657 H   0  0  0  0  0  0  0  0  0  0  0  0
   -6.4432   24.3590  -29.9657 H   0  0  0  0  0  0  0  0  0  0  0  0
   -1.7610   17.2951  -32.7286 H   0  0  0  0  0  0  0  0  0  0  0  0
   -2.5578   15.3933  -34.1623 H   0  0  0  0  0  0  0  0  0  0  0  0
   -4.6269   15.6410  -35.5433 H   0  0  0  0  0  0  0  0  0  0  0  0
   -5.9482   17.7738  -35.4574 H   0  0  0  0  0  0  0  0  0  0  0  0
   -5.3348   20.6260  -34.7487 H   0  0  0  0  0  0  0  0  0  0  0  0
   -6.2716   19.9143  -33.4712 H   0  0  0  0  0  0  0  0  0  0  0  0
  1  2  1  0
  2  3  1  0
  3  4  1  0
  4  5  1  0
  3  6  1  0
  6  7  1  0
  7  8  1  0
  8  9  1  0
  9 10  2  0
 10 11  1  0
 11 12  2  0
 12 13  1  0
 12 14  1  0
 14 15  2  0
 15 16  1  0
 16 17  1  0
 17 18  1  0
 16 19  2  0
 19 20  1  0
 20 21  1  0
 21 22  1  0
 20 23  2  0
 11 24  1  0
 24 25  2  0
 25 26  1  0
 26 27  2  0
 27 28  1  0
 28 29  2  0
 29 30  1  0
 23  9  1  0
 29 24  1  0
 30 10  1  0
 23 14  1  0
  1 31  1  0
  1 32  1  0
  1 33  1  0
  2 34  1  0
  2 35  1  0
  4 36  1  0
  4 37  1  0
  5 38  1  0
  5 39  1  0
  5 40  1  0
  6 41  1  0
  6 42  1  0
  7 43  1  0
  7 44  1  0
  8 45  1  0
 13 46  1  0
 13 47  1  0
 13 48  1  0
 15 49  1  0
 18 50  1  0
 18 51  1  0
 18 52  1  0
 19 53  1  0
 22 54  1  0
 22 55  1  0
 22 56  1  0
 25 57  1  0
 26 58  1  0
 27 59  1  0
 28 60  1  0
 30 61  1  0
 30 62  1  0
M  CHG  1  12   1
M  END
>  <UniqueID>  (11) 
11

>  <SMILES>  (11) 
CCN(CC)CCNc1c2c([n+](C)c3cc(OC)cc(OC)c13)-c1ccccc1C2

>  <Energy>  (11) 
113.84761078187383

>  <Genealogy>  (11) 
CCN(CC)CCNc1c2c([n+](C)c3cc(OC)cc(OC)c13)-c1ccccc1C2 (3D coordinates assigned)
CCN(CC)CCNc1c2c([n+](C)c3cc(OC)cc(OC)c13)-c1ccccc1C2 (nonaromatic ring conformer: 113.84761078187383 kcal/mol)

>  <smiles>  (11) 
CCN(CC)CCNc1c2c([n+](C)c3cc(OC)cc(OC)c13)-c1ccccc1C2

>  <score_type>  (11) 
oracle

>  <origin>  (11) 
adg

>  <m_score__min__energy>  (11) 
-8.3100000000000005

>  <m_primary>  (11) 
energy

$$$$
11:0
     RDKit          3D

 59 60  0  0  0  0  0  0  0  0999 V2000
   -1.6100   25.7910  -26.6030 C   0  0  0  0  0  0  0  0  0  0  0  0
   -0.8740   26.4110  -27.7800 C   0  0  0  0  0  0  0  0  0  0  0  0
   -1.2950   25.7820  -28.9720 O   0  0  0  0  0  0  0  0  0  0  0  0
   -0.9050   24.4210  -28.9860 C   0  0  0  0  0  0  0  0  0  0  0  0
   -2.0260   23.5200  -29.5290 C   0  0  0  0  0  0  0  0  0  0  0  0
   -3.4260   24.1170  -29.3060 C   0  0  0  0  0  0  0  0  0  0  0  0
   -4.1710   24.2080  -30.5810 N   0  0  0  0  0  0  0  0  0  0  0  0
   -4.1360   22.9350  -31.3520 C   0  0  0  0  0  0  0  0  0  0  0  0
   -5.4960   22.2270  -31.3840 C   0  0  0  0  0  0  0  0  0  0  0  0
   -6.5130   23.1080  -31.9950 N   0  0  0  0  0  0  0  0  0  0  0  0
   -7.8840   22.5490  -31.9770 C   0  0  0  0  0  0  0  0  0  0  0  0
   -8.2850   21.8890  -30.6450 C   0  0  0  0  0  0  0  0  0  0  0  0
   -9.0640   20.7370  -30.8960 O   0  0  0  0  0  0  0  0  0  0  0  0
   -9.1790   20.5270  -32.2880 C   0  0  0  0  0  0  0  0  0  0  0  0
   -8.4520   19.2380  -32.6600 C   0  0  0  0  0  0  0  0  0  0  0  0
   -6.9930   19.3960  -32.4540 N   0  0  0  0  0  0  0  0  0  0  0  0
   -6.3870   18.2220  -31.7940 C   0  0  0  0  0  0  0  0  0  0  0  0
   -6.3920   16.9750  -32.7070 C   0  0  0  0  0  0  0  0  0  0  0  0
   -6.5300   17.3240  -34.1300 N   0  0  0  0  0  0  0  0  0  0  0  0
   -5.7370   18.5110  -34.4570 C   0  0  0  0  0  0  0  0  0  0  0  0
   -6.2730   19.7450  -33.7030 C   0  0  0  0  0  0  0  0  0  0  0  0
   -6.4240   24.5330  -31.5910 C   0  0  0  0  0  0  0  0  0  0  0  0
   -5.5360   24.7350  -30.3540 C   0  0  0  0  0  0  0  0  0  0  0  0
   -1.1735   26.1587  -25.6627 H   0  0  0  0  0  0  0  0  0  0  0  0
   -2.6732   26.0697  -26.6474 H   0  0  0  0  0  0  0  0  0  0  0  0
   -1.5159   24.6959  -26.6474 H   0  0  0  0  0  0  0  0  0  0  0  0
   -1.1007   27.4862  -27.8311 H   0  0  0  0  0  0  0  0  0  0  0  0
    0.2100   26.2748  -27.6523 H   0  0  0  0  0  0  0  0  0  0  0  0
   -0.0163   24.3103  -29.6247 H   0  0  0  0  0  0  0  0  0  0  0  0
   -0.6850   24.1141  -27.9529 H   0  0  0  0  0  0  0  0  0  0  0  0
   -1.8717   23.3779  -30.6088 H   0  0  0  0  0  0  0  0  0  0  0  0
   -1.9801   22.5661  -28.9832 H   0  0  0  0  0  0  0  0  0  0  0  0
   -3.9839   23.4755  -28.6080 H   0  0  0  0  0  0  0  0  0  0  0  0
   -3.3140   25.1298  -28.8917 H   0  0  0  0  0  0  0  0  0  0  0  0
   -3.8301   23.1571  -32.3850 H   0  0  0  0  0  0  0  0  0  0  0  0
   -3.4223   22.2629  -30.8530 H   0  0  0  0  0  0  0  0  0  0  0  0
   -5.4116   21.3037  -31.9759 H   0  0  0  0  0  0  0  0  0  0  0  0
   -5.8004   21.9855  -30.3549 H   0  0  0  0  0  0  0  0  0  0  0  0
   -8.5913   23.3660  -32.1826 H   0  0  0  0  0  0  0  0  0  0  0  0
   -7.9098   21.7569  -32.7398 H   0  0  0  0  0  0  0  0  0  0  0  0
   -7.3783   21.6031  -30.0918 H   0  0  0  0  0  0  0  0  0  0  0  0
   -8.8736   22.6023  -30.0494 H   0  0  0  0  0  0  0  0  0  0  0  0
  -10.2412   20.4429  -32.5614 H   0  0  0  0  0  0  0  0  0  0  0  0
   -8.7319   21.3741  -32.8289 H   0  0  0  0  0  0  0  0  0  0  0  0
   -8.8215   18.4170  -32.0280 H   0  0  0  0  0  0  0  0  0  0  0  0
   -8.6426   19.0112  -33.7194 H   0  0  0  0  0  0  0  0  0  0  0  0
   -5.3472   18.4623  -31.5275 H   0  0  0  0  0  0  0  0  0  0  0  0
   -6.9846   17.9898  -30.9001 H   0  0  0  0  0  0  0  0  0  0  0  0
   -5.4467   16.4303  -32.5666 H   0  0  0  0  0  0  0  0  0  0  0  0
   -7.2578   16.3570  -32.4270 H   0  0  0  0  0  0  0  0  0  0  0  0
   -6.1710   16.5230  -34.7000 H   0  0  0  0  0  0  0  0  0  0  0  0
   -4.6899   18.3373  -34.1682 H   0  0  0  0  0  0  0  0  0  0  0  0
   -5.8068   18.6978  -35.5388 H   0  0  0  0  0  0  0  0  0  0  0  0
   -5.4235   20.3954  -33.4474 H   0  0  0  0  0  0  0  0  0  0  0  0
   -6.9918   20.2482  -34.3664 H   0  0  0  0  0  0  0  0  0  0  0  0
   -6.0033   25.1117  -32.4265 H   0  0  0  0  0  0  0  0  0  0  0  0
   -7.4382   24.8739  -31.3359 H   0  0  0  0  0  0  0  0  0  0  0  0
   -5.4726   25.8101  -30.1299 H   0  0  0  0  0  0  0  0  0  0  0  0
   -5.9841   24.1881  -29.5113 H   0  0  0  0  0  0  0  0  0  0  0  0
  1  2  1  0
  2  3  1  0
  3  4  1  0
  4  5  1  0
  5  6  1  0
  6  7  1  0
  7  8  1  0
  8  9  1  0
  9 10  1  0
 10 11  1  0
 11 12  1  0
 12 13  1  0
 13 14  1  0
 14 15  1  0
 15 16  1  0
 16 17  1  0
 17 18  1  0
 18 19  1  0
 19 20  1  0
 20 21  1  0
 10 22  1  0
 22 23  1  0
 23  7  1  0
 21 16  1  0
  1 24  1  0
  1 25  1  0
  1 26  1  0
  2 27  1  0
  2 28  1  0
  4 29  1  0
  4 30  1  0
  5 31  1  0
  5 32  1  0
  6 33  1  0
  6 34  1  0
  8 35  1  0
  8 36  1  0
  9 37  1  0
  9 38  1  0
 11 39  1  0
 11 40  1  0
 12 41  1  0
 12 42  1  0
 14 43  1  0
 14 44  1  0
 15 45  1  0
 15 46  1  0
 17 47  1  0
 17 48  1  0
 18 49  1  0
 18 50  1  0
 19 51  1  0
 20 52  1  0
 20 53  1  0
 21 54  1  0
 21 55  1  0
 22 56  1  0
 22 57  1  0
 23 58  1  0
 23 59  1  0
M  END
>  <UniqueID>  (12) 
12

>  <SMILES>  (12) 
CCOCCCN1CCN(CCOCCN2CCNCC2)CC1

>  <Energy>  (12) 
74.72718312399428

>  <Genealogy>  (12) 
CCOCCCN1CCN(CCOCCN2CCNCC2)CC1 (3D coordinates assigned)
CCOCCCN1CCN(CCOCCN2CCNCC2)CC1 (nonaromatic ring conformer: 74.72718312399428 kcal/mol)

>  <smiles>  (12) 
CCOCCCN1CCN(CCOCCN2CCNCC2)CC1

>  <score_type>  (12) 
oracle

>  <origin>  (12) 
adg

>  <m_score__min__energy>  (12) 
-7.4900000000000002

>  <m_primary>  (12) 
energy

$$$$
12:0
     RDKit          3D

 54 56  0  0  0  0  0  0  0  0999 V2000
   -6.8570   15.7460  -34.2170 C   0  0  0  0  0  0  0  0  0  0  0  0
   -5.6290   15.7480  -33.3050 C   0  0  0  0  0  0  0  0  0  0  0  0
   -4.3570   16.0080  -34.0300 N   0  0  2  0  0  0  0  0  0  0  0  0
   -3.2430   15.8870  -33.0690 C   0  0  0  0  0  0  0  0  0  0  0  0
   -4.3280   17.3560  -34.6680 C   0  0  0  0  0  0  0  0  0  0  0  0
   -4.7430   18.4950  -33.7000 C   0  0  0  0  0  0  0  0  0  0  0  0
   -5.9890   19.2760  -34.1520 C   0  0  0  0  0  0  0  0  0  0  0  0
   -6.8200   19.6850  -33.0040 N   0  0  0  0  0  0  0  0  0  0  0  0
   -7.9810   18.8240  -32.6940 C   0  0  0  0  0  0  0  0  0  0  0  0
   -9.0340   19.5170  -31.8160 C   0  0  0  0  0  0  0  0  0  0  0  0
   -9.1940   20.9850  -32.2140 C   0  0  0  0  0  0  0  0  0  0  0  0
   -7.8740   21.6790  -32.0380 C   0  0  0  0  0  0  0  0  0  0  0  0
   -7.8180   22.9760  -31.5190 C   0  0  0  0  0  0  0  0  0  0  0  0
   -6.5830   23.6000  -31.2690 C   0  0  0  0  0  0  0  0  0  0  0  0
   -6.5220   24.9080  -30.7600 O   0  0  0  0  0  0  0  0  0  0  0  0
   -6.4900   25.2450  -29.3770 C   0  0  0  0  0  0  0  0  0  0  0  0
   -5.3870   22.8870  -31.5250 C   0  0  0  0  0  0  0  0  0  0  0  0
   -4.1070   23.4210  -31.2480 C   0  0  0  0  0  0  0  0  0  0  0  0
   -3.9650   24.5830  -30.7780 O   0  0  0  0  0  0  0  0  0  0  0  0
   -2.9720   22.6540  -31.4920 C   0  0  0  0  0  0  0  0  0  0  0  0
   -3.1200   21.3630  -32.0000 C   0  0  0  0  0  0  0  0  0  0  0  0
   -1.9200   20.5120  -32.2600 C   0  0  0  0  0  0  0  0  0  0  0  0
   -4.3310   20.8850  -32.2620 O   0  0  0  0  0  0  0  0  0  0  0  0
   -5.4500   21.5760  -32.0720 C   0  0  0  0  0  0  0  0  0  0  0  0
   -6.6980   20.9970  -32.3900 C   0  0  0  0  0  0  0  0  0  0  0  0
   -7.7697   15.7445  -33.6030 H   0  0  0  0  0  0  0  0  0  0  0  0
   -6.8437   16.6442  -34.8519 H   0  0  0  0  0  0  0  0  0  0  0  0
   -6.8407   14.8479  -34.8519 H   0  0  0  0  0  0  0  0  0  0  0  0
   -5.7620   16.5295  -32.5424 H   0  0  0  0  0  0  0  0  0  0  0  0
   -5.5514   14.7443  -32.8616 H   0  0  0  0  0  0  0  0  0  0  0  0
   -4.2140   15.2630  -34.7500 H   0  0  0  0  0  0  0  0  0  0  0  0
   -3.6375   15.9298  -32.0431 H   0  0  0  0  0  0  0  0  0  0  0  0
   -2.7277   14.9276  -33.2239 H   0  0  0  0  0  0  0  0  0  0  0  0
   -2.5337   16.7134  -33.2239 H   0  0  0  0  0  0  0  0  0  0  0  0
   -3.3059   17.5534  -35.0235 H   0  0  0  0  0  0  0  0  0  0  0  0
   -5.0554   17.3447  -35.4931 H   0  0  0  0  0  0  0  0  0  0  0  0
   -4.9503   18.0531  -32.7142 H   0  0  0  0  0  0  0  0  0  0  0  0
   -3.9091   19.2119  -33.6753 H   0  0  0  0  0  0  0  0  0  0  0  0
   -5.6679   20.1751  -34.6984 H   0  0  0  0  0  0  0  0  0  0  0  0
   -6.5918   18.6189  -34.7961 H   0  0  0  0  0  0  0  0  0  0  0  0
   -8.4567   18.5254  -33.6398 H   0  0  0  0  0  0  0  0  0  0  0  0
   -7.6036   17.9591  -32.1288 H   0  0  0  0  0  0  0  0  0  0  0  0
   -9.9991   19.0034  -31.9375 H   0  0  0  0  0  0  0  0  0  0  0  0
   -8.7041   19.4704  -30.7677 H   0  0  0  0  0  0  0  0  0  0  0  0
   -9.5094   21.0510  -33.2658 H   0  0  0  0  0  0  0  0  0  0  0  0
   -9.9560   21.4636  -31.5813 H   0  0  0  0  0  0  0  0  0  0  0  0
   -8.7522   23.5153  -31.3034 H   0  0  0  0  0  0  0  0  0  0  0  0
   -6.5770   24.3289  -28.7743 H   0  0  0  0  0  0  0  0  0  0  0  0
   -5.5400   25.7483  -29.1441 H   0  0  0  0  0  0  0  0  0  0  0  0
   -7.3283   25.9181  -29.1441 H   0  0  0  0  0  0  0  0  0  0  0  0
   -1.9706   23.0604  -31.2870 H   0  0  0  0  0  0  0  0  0  0  0  0
   -1.4782   20.1987  -31.3025 H   0  0  0  0  0  0  0  0  0  0  0  0
   -2.2186   19.6227  -32.8344 H   0  0  0  0  0  0  0  0  0  0  0  0
   -1.1795   21.0880  -32.8344 H   0  0  0  0  0  0  0  0  0  0  0  0
  1  2  1  0
  2  3  1  0
  3  4  1  0
  3  5  1  0
  5  6  1  0
  6  7  1  0
  7  8  1  0
  8  9  1  0
  9 10  1  0
 10 11  1  0
 11 12  1  0
 12 13  2  0
 13 14  1  0
 14 15  1  0
 15 16  1  0
 14 17  2  0
 17 18  1  0
 18 19  2  0
 18 20  1  0
 20 21  2  0
 21 22  1  0
 21 23  1  0
 23 24  1  0
 24 25  2  0
 25  8  1  0
 25 12  1  0
 24 17  1  0
  1 26  1  0
  1 27  1  0
  1 28  1  0
  2 29  1  0
  2 30  1  0
  3 31  1  6
  4 32  1  0
  4 33  1  0
  4 34  1  0
  5 35  1  0
  5 36  1  0
  6 37  1  0
  6 38  1  0
  7 39  1  0
  7 40  1  0
  9 41  1  0
  9 42  1  0
 10 43  1  0
 10 44  1  0
 11 45  1  0
 11 46  1  0
 13 47  1  0
 16 48  1  0
 16 49  1  0
 16 50  1  0
 20 51  1  0
 22 52  1  0
 22 53  1  0
 22 54  1  0
M  CHG  1   3   1
M  END
>  <UniqueID>  (13) 
13

>  <SMILES>  (13) 
CC[N@H+](C)CCCN1CCCc2cc(OC)c3c(=O)cc(C)oc3c21

>  <Energy>  (13) 
66.71089604784447

>  <Genealogy>  (13) 
CC[NH+](C)CCCN1CCCc2cc(OC)c3c(=O)cc(C)oc3c21 (protonated)
CC[N@H+](C)CCCN1CCCc2cc(OC)c3c(=O)cc(C)oc3c21 (chirality)
CC[N@H+](C)CCCN1CCCc2cc(OC)c3c(=O)cc(C)oc3c21 (3D coordinates assigned)
CC[N@H+](C)CCCN1CCCc2cc(OC)c3c(=O)cc(C)oc3c21 (nonaromatic ring conformer: 66.71089604784447 kcal/mol)

>  <smiles>  (13) 
CCN(C)CCCN1CCCc2cc(OC)c3c(=O)cc(C)oc3c21

>  <score_type>  (13) 
oracle

>  <origin>  (13) 
adg

>  <m_score__min__energy>  (13) 
-7.54

>  <m_primary>  (13) 
energy

$$$$
13:0
     RDKit          3D

 49 52  0  0  0  0  0  0  0  0999 V2000
   -7.7590   18.1280  -31.6380 C   0  0  0  0  0  0  0  0  0  0  0  0
   -8.9110   19.1010  -31.9110 C   0  0  0  0  0  0  0  0  0  0  0  0
   -8.7920   20.3470  -31.1320 N   0  0  0  0  0  0  0  0  0  0  0  0
   -9.0620   21.5420  -31.9470 C   0  0  0  0  0  0  0  0  0  0  0  0
   -8.0950   22.6780  -31.5860 C   0  0  0  0  0  0  0  0  0  0  0  0
   -7.0240   22.7840  -32.5770 N   0  0  0  0  0  0  0  0  0  0  0  0
   -5.7460   22.1910  -32.3230 C   0  0  0  0  0  0  0  0  0  0  0  0
   -5.4370   20.9590  -32.8860 C   0  0  0  0  0  0  0  0  0  0  0  0
   -4.2270   20.3460  -32.6290 C   0  0  0  0  0  0  0  0  0  0  0  0
   -3.2350   20.9680  -31.9110 N   0  0  0  0  0  0  0  0  0  0  0  0
   -1.8650   20.4290  -31.9270 C   0  0  0  0  0  0  0  0  0  0  0  0
   -3.5420   22.1460  -31.2470 C   0  0  0  0  0  0  0  0  0  0  0  0
   -2.6430   22.7360  -30.3230 C   0  0  0  0  0  0  0  0  0  0  0  0
   -2.9430   23.9510  -29.7050 C   0  0  0  0  0  0  0  0  0  0  0  0
   -1.8090   24.6610  -28.5700 Cl  0  0  0  0  0  0  0  0  0  0  0  0
   -4.1430   24.6030  -29.9830 C   0  0  0  0  0  0  0  0  0  0  0  0
   -5.0660   24.0320  -30.8570 C   0  0  0  0  0  0  0  0  0  0  0  0
   -4.7980   22.7950  -31.4730 C   0  0  0  0  0  0  0  0  0  0  0  0
   -4.2530   19.0270  -33.2750 C   0  0  0  0  0  0  0  0  0  0  0  0
   -3.3960   17.9210  -33.1690 C   0  0  0  0  0  0  0  0  0  0  0  0
   -3.7300   16.7400  -33.8520 C   0  0  0  0  0  0  0  0  0  0  0  0
   -4.9230   16.6590  -34.5920 C   0  0  0  0  0  0  0  0  0  0  0  0
   -5.8040   17.7480  -34.6330 C   0  0  0  0  0  0  0  0  0  0  0  0
   -5.4550   18.9190  -33.9580 C   0  0  0  0  0  0  0  0  0  0  0  0
   -6.3100   20.1330  -33.7820 C   0  0  0  0  0  0  0  0  0  0  0  0
   -7.6245   18.0144  -30.5522 H   0  0  0  0  0  0  0  0  0  0  0  0
   -7.9923   17.1494  -32.0829 H   0  0  0  0  0  0  0  0  0  0  0  0
   -6.8333   18.5217  -32.0829 H   0  0  0  0  0  0  0  0  0  0  0  0
   -8.9141   19.3530  -32.9818 H   0  0  0  0  0  0  0  0  0  0  0  0
   -9.8461   18.6059  -31.6102 H   0  0  0  0  0  0  0  0  0  0  0  0
   -7.8100   20.4030  -30.7680 H   0  0  0  0  0  0  0  0  0  0  0  0
   -9.4420   20.3200  -30.3110 H   0  0  0  0  0  0  0  0  0  0  0  0
   -8.9396   21.2885  -33.0104 H   0  0  0  0  0  0  0  0  0  0  0  0
  -10.0905   21.8784  -31.7495 H   0  0  0  0  0  0  0  0  0  0  0  0
   -8.6502   23.6270  -31.5523 H   0  0  0  0  0  0  0  0  0  0  0  0
   -7.6471   22.4610  -30.6050 H   0  0  0  0  0  0  0  0  0  0  0  0
   -7.2370   23.0950  -33.5520 H   0  0  0  0  0  0  0  0  0  0  0  0
   -1.5133   20.2906  -30.8940 H   0  0  0  0  0  0  0  0  0  0  0  0
   -1.8579   19.4610  -32.4495 H   0  0  0  0  0  0  0  0  0  0  0  0
   -1.2002   21.1326  -32.4495 H   0  0  0  0  0  0  0  0  0  0  0  0
   -1.6952   22.2288  -30.0897 H   0  0  0  0  0  0  0  0  0  0  0  0
   -4.3623   25.5719  -29.5107 H   0  0  0  0  0  0  0  0  0  0  0  0
   -6.0121   24.5523  -31.0673 H   0  0  0  0  0  0  0  0  0  0  0  0
   -2.4800   17.9778  -32.5625 H   0  0  0  0  0  0  0  0  0  0  0  0
   -3.0542   15.8732  -33.8078 H   0  0  0  0  0  0  0  0  0  0  0  0
   -5.1656   15.7371  -35.1409 H   0  0  0  0  0  0  0  0  0  0  0  0
   -6.7523   17.6814  -35.1864 H   0  0  0  0  0  0  0  0  0  0  0  0
   -6.4998   20.6377  -34.7408 H   0  0  0  0  0  0  0  0  0  0  0  0
   -7.3142   19.9305  -33.3814 H   0  0  0  0  0  0  0  0  0  0  0  0
  1  2  1  0
  2  3  1  0
  3  4  1  0
  4  5  1  0
  5  6  1  0
  6  7  1  0
  7  8  2  0
  8  9  1  0
  9 10  2  0
 10 11  1  0
 10 12  1  0
 12 13  2  0
 13 14  1  0
 14 15  1  0
 14 16  2  0
 16 17  1  0
 17 18  2  0
  9 19  1  0
 19 20  2  0
 20 21  1  0
 21 22  2  0
 22 23  1  0
 23 24  2  0
 24 25  1  0
 18  7  1  0
 24 19  1  0
 25  8  1  0
 18 12  1  0
  1 26  1  0
  1 27  1  0
  1 28  1  0
  2 29  1  0
  2 30  1  0
  3 31  1  0
  3 32  1  0
  4 33  1  0
  4 34  1  0
  5 35  1  0
  5 36  1  0
  6 37  1  0
 11 38  1  0
 11 39  1  0
 11 40  1  0
 13 41  1  0
 16 42  1  0
 17 43  1  0
 20 44  1  0
 21 45  1  0
 22 46  1  0
 23 47  1  0
 25 48  1  0
 25 49  1  0
M  CHG  2   3   1  10   1
M  END
>  <UniqueID>  (14) 
14

>  <SMILES>  (14) 
CC[NH2+]CCNc1c2c([n+](C)c3cc(Cl)ccc13)-c1ccccc1C2

>  <Energy>  (14) 
91.33000613013904

>  <Genealogy>  (14) 
CC[NH2+]CCNc1c2c([n+](C)c3cc(Cl)ccc13)-c1ccccc1C2 (protonated)
CC[NH2+]CCNc1c2c([n+](C)c3cc(Cl)ccc13)-c1ccccc1C2 (3D coordinates assigned)
CC[NH2+]CCNc1c2c([n+](C)c3cc(Cl)ccc13)-c1ccccc1C2 (nonaromatic ring conformer: 91.33000613013904 kcal/mol)

>  <smiles>  (14) 
CCNCCNc1c2c([n+](C)c3cc(Cl)ccc13)-c1ccccc1C2

>  <score_type>  (14) 
oracle

>  <origin>  (14) 
adg

>  <m_score__min__energy>  (14) 
-7.5800000000000001

>  <m_primary>  (14) 
energy

$$$$
14:0
     RDKit          3D

 52 55  0  0  0  0  0  0  0  0999 V2000
   -1.3427   22.0669  -28.1184 H   0  0  0  0  0  0  0  0  0  0  0  0
   -2.3960   21.7590  -28.1950 C   0  0  0  0  0  0  0  0  0  0  0  0
   -2.7890   20.5150  -27.5830 C   0  0  0  0  0  0  0  0  0  0  0  0
   -3.1050   19.5150  -27.0940 N   0  0  0  0  0  0  0  0  0  0  0  0
   -3.2480   22.5640  -28.8550 C   0  0  0  0  0  0  0  0  0  0  0  0
   -3.4500   22.5230  -30.3570 C   0  0  0  0  0  0  0  0  0  0  0  0
   -2.7500   21.8340  -31.1460 O   0  0  0  0  0  0  0  0  0  0  0  0
   -4.5240   23.4580  -30.8500 C   0  0  2  0  0  0  0  0  0  0  0  0
   -4.3420   24.8390  -30.2030 C   0  0  0  0  0  0  0  0  0  0  0  0
   -4.8085   25.6722  -30.7491 H   0  0  0  0  0  0  0  0  0  0  0  0
   -3.3525   25.2977  -30.0598 H   0  0  0  0  0  0  0  0  0  0  0  0
   -5.1650   24.2900  -29.0420 C   0  0  2  0  0  0  0  0  0  0  0  0
   -5.8039   24.9561  -28.4436 H   0  0  0  0  0  0  0  0  0  0  0  0
   -4.1820   23.5350  -28.0600 C   0  0  2  0  0  0  0  0  0  0  0  0
   -4.7793   22.9229  -27.3682 H   0  0  0  0  0  0  0  0  0  0  0  0
   -3.3870   24.5310  -27.2030 C   0  0  0  0  0  0  0  0  0  0  0  0
   -3.5582   24.3165  -26.1378 H   0  0  0  0  0  0  0  0  0  0  0  0
   -2.3147   24.4347  -27.4287 H   0  0  0  0  0  0  0  0  0  0  0  0
   -3.7186   25.5553  -27.4287 H   0  0  0  0  0  0  0  0  0  0  0  0
   -5.7330   23.2000  -29.9680 C   0  0  1  0  0  0  0  0  0  0  0  0
   -6.1907   22.4081  -29.3570 H   0  0  0  0  0  0  0  0  0  0  0  0
   -6.6210   23.4100  -31.2020 C   0  0  1  0  0  0  0  0  0  0  0  0
   -7.5465   23.9058  -30.8739 H   0  0  0  0  0  0  0  0  0  0  0  0
   -5.3650   23.4250  -32.1240 C   0  0  2  0  0  0  0  0  0  0  0  0
   -4.7498   23.8392  -32.9363 H   0  0  0  0  0  0  0  0  0  0  0  0
   -6.4720   22.4000  -32.3190 C   0  0  1  0  0  0  0  0  0  0  0  0
   -7.1043   22.0959  -33.1662 H   0  0  0  0  0  0  0  0  0  0  0  0
   -6.1160   21.0480  -31.8760 N   0  0  0  0  0  0  0  0  0  0  0  0
   -6.9540   20.4450  -32.0430 H   0  0  0  0  0  0  0  0  0  0  0  0
   -5.0270   20.5010  -32.6960 C   0  0  0  0  0  0  0  0  0  0  0  0
   -4.0643   20.7631  -32.2329 H   0  0  0  0  0  0  0  0  0  0  0  0
   -5.1052   20.9307  -33.7056 H   0  0  0  0  0  0  0  0  0  0  0  0
   -5.1250   18.9750  -32.8130 C   0  0  0  0  0  0  0  0  0  0  0  0
   -4.1740   18.5239  -32.4934 H   0  0  0  0  0  0  0  0  0  0  0  0
   -5.3338   18.7070  -33.8592 H   0  0  0  0  0  0  0  0  0  0  0  0
   -6.2130   18.4710  -31.9610 N   0  0  0  0  0  0  0  0  0  0  0  0
   -6.4920   19.2160  -31.2780 H   0  0  0  0  0  0  0  0  0  0  0  0
   -7.3910   18.0500  -32.7400 C   0  0  0  0  0  0  0  0  0  0  0  0
   -7.2815   16.9871  -33.0014 H   0  0  0  0  0  0  0  0  0  0  0  0
   -7.4436   18.6801  -33.6401 H   0  0  0  0  0  0  0  0  0  0  0  0
   -8.7010   18.2350  -31.9570 C   0  0  0  0  0  0  0  0  0  0  0  0
   -8.8071   17.4207  -31.2251 H   0  0  0  0  0  0  0  0  0  0  0  0
   -9.5487   18.2163  -32.6577 H   0  0  0  0  0  0  0  0  0  0  0  0
   -8.6820   19.5240  -31.2530 N   0  0  0  0  0  0  0  0  0  0  0  0
   -7.6800   19.7800  -31.0900 H   0  0  0  0  0  0  0  0  0  0  0  0
   -9.2870   20.5890  -32.0680 C   0  0  0  0  0  0  0  0  0  0  0  0
  -10.2603   20.2451  -32.4480 H   0  0  0  0  0  0  0  0  0  0  0  0
   -8.6130   20.8217  -32.9056 H   0  0  0  0  0  0  0  0  0  0  0  0
   -9.4910   21.8500  -31.2350 C   0  0  0  0  0  0  0  0  0  0  0  0
   -9.4496   21.5940  -30.1660 H   0  0  0  0  0  0  0  0  0  0  0  0
   -8.6987   22.5762  -31.4691 H   0  0  0  0  0  0  0  0  0  0  0  0
  -10.4719   22.2894  -31.4691 H   0  0  0  0  0  0  0  0  0  0  0  0
  1  2  1  0
  2  3  1  0
  3  4  3  0
  2  5  2  0
  5  6  1  0
  6  7  2  0
  8  6  1  6
  8  9  1  0
  9 10  1  0
  9 11  1  0
  9 12  1  0
 12 13  1  1
 12 14  1  0
 14 15  1  1
 14 16  1  0
 16 17  1  0
 16 18  1  0
 16 19  1  0
 12 20  1  0
 20 21  1  1
 20 22  1  0
 22 23  1  1
 22 24  1  0
 24 25  1  6
 24 26  1  0
 26 27  1  6
 26 28  1  0
 28 29  1  0
 28 30  1  0
 30 31  1  0
 30 32  1  0
 30 33  1  0
 33 34  1  0
 33 35  1  0
 33 36  1  0
 36 37  1  0
 36 38  1  0
 38 39  1  0
 38 40  1  0
 38 41  1  0
 41 42  1  0
 41 43  1  0
 41 44  1  0
 44 45  1  0
 44 46  1  0
 46 47  1  0
 46 48  1  0
 46 49  1  0
 49 50  1  0
 49 51  1  0
 49 52  1  0
 14  5  1  0
 26 22  1  0
 20  8  1  0
 24  8  1  0
M  END
>  <UniqueID>  (15) 
15

>  <SMILES>  (15) 
CCNCCNCCN[C@@H]1C2[C@@H]1C1C3CC12C(=O)/C(=C\C#N)C3C

>  <Energy>  (15) 
484.1768315179387

>  <Genealogy>  (15) 
CCNCCNCCN[C@@H]1C2[C@@H]1C1C3CC12C(=O)C(=CC#N)C3C (chirality)
CCNCCNCCN[C@@H]1C2[C@@H]1C1C3CC12C(=O)/C(=C\C#N)C3C (cis-trans isomerization)
CCNCCNCCN[C@@H]1C2[C@@H]1C1C3CC12C(=O)/C(=C\C#N)C3C (3D coordinates assigned)
CCNCCNCCN[C@@H]1C2[C@@H]1C1C3CC12C(=O)/C(=C\C#N)C3C (nonaromatic ring conformer: 484.1768315179387 kcal/mol)

>  <smiles>  (15) 
CCNCCNCCNC1C2C3C4CC3(C(=O)C(=CC#N)C4C)C12

>  <score_type>  (15) 
oracle

>  <origin>  (15) 
adg

>  <m_score__min__energy>  (15) 
-9.1699999999999999

>  <m_primary>  (15) 
energy

$$$$
15:0
     RDKit          3D

 39 40  0  0  1  0  0  0  0  0999 V2000
   -6.3290   25.5540  -29.3950 C   0  0  0  0  0  0  0  0  0  0  0  0
   -5.3530   25.8760  -30.5120 C   0  0  0  0  0  0  0  0  0  0  0  0
   -4.5380   24.7340  -30.8150 N   0  0  0  0  0  0  0  0  0  0  0  0
   -4.5310   23.8270  -29.6920 C   0  0  0  0  0  0  0  0  0  0  0  0
   -3.4690   22.7760  -29.8350 C   0  0  0  0  0  0  0  0  0  0  0  0
   -2.6690   22.8820  -30.9380 O   0  0  0  0  0  0  0  0  0  0  0  0
   -1.6660   21.9220  -31.0010 C   0  0  0  0  0  0  0  0  0  0  0  0
   -1.9100   20.9480  -32.1340 C   0  0  0  0  0  0  0  0  0  0  0  0
   -2.8980   21.3600  -33.0840 N   0  0  0  0  0  0  0  0  0  0  0  0
   -4.1630   21.1670  -32.9520 C   0  0  0  0  0  0  0  0  0  0  0  0
   -4.9670   22.1000  -32.4170 N   0  0  0  0  0  0  0  0  0  0  0  0
   -6.2730   21.8690  -32.3080 C   0  0  0  0  0  0  0  0  0  0  0  0
   -7.2680   23.1220  -31.6000 Cl  0  0  0  0  0  0  0  0  0  0  0  0
   -6.7800   20.6880  -32.7380 N   0  0  0  0  0  0  0  0  0  0  0  0
   -6.0150   19.7200  -33.2820 C   0  0  0  0  0  0  0  0  0  0  0  0
   -6.5180   18.5190  -33.7300 C   0  0  0  0  0  0  0  0  0  0  0  0
   -5.6980   17.5540  -34.2880 C   0  0  0  0  0  0  0  0  0  0  0  0
   -4.3420   17.7870  -34.4040 C   0  0  0  0  0  0  0  0  0  0  0  0
   -3.8220   19.0020  -33.9520 C   0  0  0  0  0  0  0  0  0  0  0  0
   -4.6560   19.9520  -33.4000 C   0  0  0  0  0  0  0  0  0  0  0  0
   -5.8400   25.7153  -28.4230 H   0  0  0  0  0  0  0  0  0  0  0  0
   -7.2085   26.2096  -29.4763 H   0  0  0  0  0  0  0  0  0  0  0  0
   -6.6458   24.5037  -29.4763 H   0  0  0  0  0  0  0  0  0  0  0  0
   -5.9158   26.1674  -31.4111 H   0  0  0  0  0  0  0  0  0  0  0  0
   -4.7016   26.7007  -30.1872 H   0  0  0  0  0  0  0  0  0  0  0  0
   -3.6210   24.9270  -31.2280 H   0  0  0  0  0  0  0  0  0  0  0  0
   -4.3440   24.4001  -28.7719 H   0  0  0  0  0  0  0  0  0  0  0  0
   -5.5084   23.3240  -29.6509 H   0  0  0  0  0  0  0  0  0  0  0  0
   -2.8243   22.8250  -28.9451 H   0  0  0  0  0  0  0  0  0  0  0  0
   -4.0066   21.8230  -29.9477 H   0  0  0  0  0  0  0  0  0  0  0  0
   -0.6997   22.4228  -31.1603 H   0  0  0  0  0  0  0  0  0  0  0  0
   -1.6611   21.3611  -30.0548 H   0  0  0  0  0  0  0  0  0  0  0  0
   -0.9605   20.8035  -32.6702 H   0  0  0  0  0  0  0  0  0  0  0  0
   -2.2944   20.0275  -31.6705 H   0  0  0  0  0  0  0  0  0  0  0  0
   -4.5360   22.9890  -32.1040 H   0  0  0  0  0  0  0  0  0  0  0  0
   -7.5967   18.3221  -33.6423 H   0  0  0  0  0  0  0  0  0  0  0  0
   -6.1257   16.6031  -34.6385 H   0  0  0  0  0  0  0  0  0  0  0  0
   -3.6809   17.0269  -34.8459 H   0  0  0  0  0  0  0  0  0  0  0  0
   -2.7436   19.2020  -34.0365 H   0  0  0  0  0  0  0  0  0  0  0  0
  1  2  1  0
  2  3  1  0
  3  4  1  0
  4  5  1  0
  5  6  1  0
  6  7  1  0
  7  8  1  0
  8  9  1  0
  9 10  2  0
 10 11  1  0
 11 12  1  0
 12 13  1  0
 12 14  2  0
 14 15  1  0
 15 16  2  0
 16 17  1  0
 17 18  2  0
 18 19  1  0
 19 20  2  0
 20 10  1  0
 20 15  1  0
  1 21  1  0
  1 22  1  0
  1 23  1  0
  2 24  1  0
  2 25  1  0
  3 26  1  0
  4 27  1  0
  4 28  1  0
  5 29  1  0
  5 30  1  0
  7 31  1  0
  7 32  1  0
  8 33  1  0
  8 34  1  0
 11 35  1  0
 16 36  1  0
 17 37  1  0
 18 38  1  0
 19 39  1  0
M  END
>  <smiles>  (16) 
CCNCCOCCN=c1[nH]c(Cl)nc2ccccc12

>  <score_type>  (16) 
oracle

>  <origin>  (16) 
adg

>  <m_score__min__energy>  (16) 
-7.7599999999999998

>  <m_primary>  (16) 
energy

$$$$
16:0
     RDKit          3D

 72 74  0  0  0  0  0  0  0  0999 V2000
   -8.8470   18.1710  -31.5960 C   0  0  0  0  0  0  0  0  0  0  0  0
   -9.2620   19.3760  -32.4390 C   0  0  0  0  0  0  0  0  0  0  0  0
   -8.2790   20.4800  -32.3460 N   0  0  0  0  0  0  0  0  0  0  0  0
   -8.6440   21.5400  -31.3730 C   0  0  0  0  0  0  0  0  0  0  0  0
   -9.4640   22.6890  -31.9750 C   0  0  0  0  0  0  0  0  0  0  0  0
   -6.9070   19.9690  -32.1280 C   0  0  0  0  0  0  0  0  0  0  0  0
   -6.2380   19.6560  -33.4750 C   0  0  0  0  0  0  0  0  0  0  0  0
   -4.7200   19.8850  -33.4400 C   0  0  0  0  0  0  0  0  0  0  0  0
   -4.3930   21.3130  -33.4550 N   0  0  0  0  0  0  0  0  0  0  0  0
   -3.8080   21.9350  -32.3000 C   0  0  0  0  0  0  0  0  0  0  0  0
   -4.6100   22.7840  -31.5190 C   0  0  0  0  0  0  0  0  0  0  0  0
   -5.8020   23.3310  -32.0380 C   0  0  0  0  0  0  0  0  0  0  0  0
   -6.5760   24.2020  -31.2740 C   0  0  0  0  0  0  0  0  0  0  0  0
   -6.1700   24.5470  -29.9900 C   0  0  0  0  0  0  0  0  0  0  0  0
   -5.0040   24.0030  -29.4530 C   0  0  0  0  0  0  0  0  0  0  0  0
   -4.2190   23.0850  -30.1940 C   0  0  0  0  0  0  0  0  0  0  0  0
   -3.1090   22.4700  -29.6530 N   0  0  0  0  0  0  0  0  0  0  0  0
   -2.9120   22.4710  -28.1860 C   0  0  0  0  0  0  0  0  0  0  0  0
   -2.1900   21.8510  -30.4810 C   0  0  0  0  0  0  0  0  0  0  0  0
   -0.9190   21.4680  -29.9910 C   0  0  0  0  0  0  0  0  0  0  0  0
    0.0100   20.8450  -30.8080 C   0  0  0  0  0  0  0  0  0  0  0  0
   -0.2620   20.6470  -32.1490 C   0  0  0  0  0  0  0  0  0  0  0  0
   -1.4850   21.0480  -32.7130 C   0  0  0  0  0  0  0  0  0  0  0  0
   -1.5680   21.0600  -34.1620 N   0  0  0  0  0  0  0  0  0  0  0  0
   -0.9410   19.8510  -34.7250 C   0  0  0  0  0  0  0  0  0  0  0  0
    0.3030   20.1730  -35.5740 C   0  0  0  0  0  0  0  0  0  0  0  0
    0.2530   21.5520  -36.2600 C   0  0  0  0  0  0  0  0  0  0  0  0
    0.7160   22.6410  -35.3700 N   0  0  0  0  0  0  0  0  0  0  0  0
    2.1180   22.4090  -34.9810 C   0  0  0  0  0  0  0  0  0  0  0  0
    0.6110   23.9540  -36.0320 C   0  0  0  0  0  0  0  0  0  0  0  0
   -2.5020   21.6020  -31.8560 C   0  0  0  0  0  0  0  0  0  0  0  0
   -8.9337   18.4228  -30.5287 H   0  0  0  0  0  0  0  0  0  0  0  0
   -9.5035   17.3189  -31.8262 H   0  0  0  0  0  0  0  0  0  0  0  0
   -7.8051   17.9038  -31.8262 H   0  0  0  0  0  0  0  0  0  0  0  0
   -9.3464   19.0626  -33.4900 H   0  0  0  0  0  0  0  0  0  0  0  0
  -10.2253   19.7442  -32.0564 H   0  0  0  0  0  0  0  0  0  0  0  0
   -9.2342   21.0801  -30.5667 H   0  0  0  0  0  0  0  0  0  0  0  0
   -7.7013   21.9781  -31.0134 H   0  0  0  0  0  0  0  0  0  0  0  0
   -9.8963   23.2947  -31.1649 H   0  0  0  0  0  0  0  0  0  0  0  0
   -8.8107   23.3197  -32.5958 H   0  0  0  0  0  0  0  0  0  0  0  0
  -10.2728   22.2762  -32.5958 H   0  0  0  0  0  0  0  0  0  0  0  0
   -6.3160   20.7295  -31.5967 H   0  0  0  0  0  0  0  0  0  0  0  0
   -6.9577   19.0475  -31.5294 H   0  0  0  0  0  0  0  0  0  0  0  0
   -6.4310   18.6034  -33.7295 H   0  0  0  0  0  0  0  0  0  0  0  0
   -6.6633   20.3363  -34.2276 H   0  0  0  0  0  0  0  0  0  0  0  0
   -4.3113   19.4341  -32.5236 H   0  0  0  0  0  0  0  0  0  0  0  0
   -4.2797   19.4202  -34.3345 H   0  0  0  0  0  0  0  0  0  0  0  0
   -4.8830   21.9210  -34.1480 H   0  0  0  0  0  0  0  0  0  0  0  0
   -6.1238   23.0673  -33.0563 H   0  0  0  0  0  0  0  0  0  0  0  0
   -7.5077   24.6164  -31.6866 H   0  0  0  0  0  0  0  0  0  0  0  0
   -6.7706   25.2514  -29.3958 H   0  0  0  0  0  0  0  0  0  0  0  0
   -4.6888   24.2907  -28.4392 H   0  0  0  0  0  0  0  0  0  0  0  0
   -3.8911   22.4660  -27.6846 H   0  0  0  0  0  0  0  0  0  0  0  0
   -2.3447   21.5757  -27.8916 H   0  0  0  0  0  0  0  0  0  0  0  0
   -2.3538   23.3720  -27.8916 H   0  0  0  0  0  0  0  0  0  0  0  0
   -0.6636   21.6691  -28.9401 H   0  0  0  0  0  0  0  0  0  0  0  0
    0.9685   20.5062  -30.3880 H   0  0  0  0  0  0  0  0  0  0  0  0
    0.4940   20.1660  -32.7871 H   0  0  0  0  0  0  0  0  0  0  0  0
   -2.5710   21.0840  -34.4640 H   0  0  0  0  0  0  0  0  0  0  0  0
   -1.1550   21.9230  -34.5540 H   0  0  0  0  0  0  0  0  0  0  0  0
   -0.6422   19.1906  -33.8976 H   0  0  0  0  0  0  0  0  0  0  0  0
   -1.6784   19.3671  -35.3824 H   0  0  0  0  0  0  0  0  0  0  0  0
    1.1860   20.1443  -34.9187 H   0  0  0  0  0  0  0  0  0  0  0  0
    0.3457   19.4202  -36.3749 H   0  0  0  0  0  0  0  0  0  0  0  0
    0.8964   21.5267  -37.1518 H   0  0  0  0  0  0  0  0  0  0  0  0
   -0.7946   21.7574  -36.5252 H   0  0  0  0  0  0  0  0  0  0  0  0
    2.1968   22.3960  -33.8839 H   0  0  0  0  0  0  0  0  0  0  0  0
    2.4554   21.4428  -35.3843 H   0  0  0  0  0  0  0  0  0  0  0  0
    2.7486   23.2150  -35.3843 H   0  0  0  0  0  0  0  0  0  0  0  0
    0.5478   24.7448  -35.2700 H   0  0  0  0  0  0  0  0  0  0  0  0
    1.4987   24.1201  -36.6600 H   0  0  0  0  0  0  0  0  0  0  0  0
   -0.2918   23.9769  -36.6600 H   0  0  0  0  0  0  0  0  0  0  0  0
  1  2  1  0
  2  3  1  0
  3  4  1  0
  4  5  1  0
  3  6  1  0
  6  7  1  0
  7  8  1  0
  8  9  1  0
  9 10  1  0
 10 11  2  0
 11 12  1  0
 12 13  2  0
 13 14  1  0
 14 15  2  0
 15 16  1  0
 16 17  2  0
 17 18  1  0
 17 19  1  0
 19 20  2  0
 20 21  1  0
 21 22  2  0
 22 23  1  0
 23 24  1  0
 24 25  1  0
 25 26  1  0
 26 27  1  0
 27 28  1  0
 28 29  1  0
 28 30  1  0
 23 31  2  0
 31 10  1  0
 16 11  1  0
 31 19  1  0
  1 32  1  0
  1 33  1  0
  1 34  1  0
  2 35  1  0
  2 36  1  0
  4 37  1  0
  4 38  1  0
  5 39  1  0
  5 40  1  0
  5 41  1  0
  6 42  1  0
  6 43  1  0
  7 44  1  0
  7 45  1  0
  8 46  1  0
  8 47  1  0
  9 48  1  0
 12 49  1  0
 13 50  1  0
 14 51  1  0
 15 52  1  0
 18 53  1  0
 18 54  1  0
 18 55  1  0
 20 56  1  0
 21 57  1  0
 22 58  1  0
 24 59  1  0
 24 60  1  0
 25 61  1  0
 25 62  1  0
 26 63  1  0
 26 64  1  0
 27 65  1  0
 27 66  1  0
 29 67  1  0
 29 68  1  0
 29 69  1  0
 30 70  1  0
 30 71  1  0
 30 72  1  0
M  CHG  2  17   1  24   1
M  END
>  <UniqueID>  (17) 
16

>  <SMILES>  (17) 
CCN(CC)CCCNc1c2ccccc2[n+](C)c2cccc([NH2+]CCCN(C)C)c12

>  <Energy>  (17) 
105.1727506841883

>  <Genealogy>  (17) 
CCN(CC)CCCNc1c2ccccc2[n+](C)c2cccc([NH2+]CCCN(C)C)c12 (protonated)
CCN(CC)CCCNc1c2ccccc2[n+](C)c2cccc([NH2+]CCCN(C)C)c12 (3D coordinates assigned)
CCN(CC)CCCNc1c2ccccc2[n+](C)c2cccc([NH2+]CCCN(C)C)c12 (optimized conformer: 105.1727506841883 kcal/mol)

>  <smiles>  (17) 
CCN(CC)CCCNc1c2ccccc2[n+](C)c2cccc(NCCCN(C)C)c12

>  <score_type>  (17) 
oracle

>  <origin>  (17) 
adg

>  <m_score__min__energy>  (17) 
-7.9699999999999998

>  <m_primary>  (17) 
energy

$$$$
17:0
     RDKit          3D

 70 70  0  0  0  0  0  0  0  0999 V2000
   -2.4270   20.0170  -27.0950 C   0  0  0  0  0  0  0  0  0  0  0  0
   -0.9150   20.2470  -27.0870 C   0  0  0  0  0  0  0  0  0  0  0  0
   -0.5660   21.6830  -27.1590 N   0  0  0  0  0  0  0  0  0  0  0  0
   -0.8440   22.3540  -25.8790 C   0  0  0  0  0  0  0  0  0  0  0  0
    0.7870   21.9890  -27.6870 C   0  0  0  0  0  0  0  0  0  0  0  0
    1.2950   23.4150  -27.4180 C   0  0  0  0  0  0  0  0  0  0  0  0
    0.5700   24.3490  -28.1910 O   0  0  0  0  0  0  0  0  0  0  0  0
    0.1770   25.4580  -27.4030 C   0  0  0  0  0  0  0  0  0  0  0  0
   -1.0500   26.1420  -28.0130 C   0  0  0  0  0  0  0  0  0  0  0  0
   -1.2950   25.6700  -29.3200 O   0  0  0  0  0  0  0  0  0  0  0  0
   -2.5690   25.2010  -29.3410 N   0  0  0  0  0  0  0  0  0  0  0  0
   -2.8580   23.8000  -29.3420 C   0  0  0  0  0  0  0  0  0  0  0  0
   -4.0490   23.4180  -29.5160 O   0  0  0  0  0  0  0  0  0  0  0  0
   -1.8230   22.8290  -29.0960 N   0  0  0  0  0  0  0  0  0  0  0  0
   -1.3690   22.2500  -30.3700 C   0  0  0  0  0  0  0  0  0  0  0  0
   -1.4580   20.7140  -30.3820 C   0  0  0  0  0  0  0  0  0  0  0  0
   -0.8730   20.0570  -31.6470 C   0  0  0  0  0  0  0  0  0  0  0  0
   -0.5220   21.0830  -32.7390 C   0  0  0  0  0  0  0  0  0  0  0  0
   -1.5800   21.1460  -33.8570 C   0  0  0  0  0  0  0  0  0  0  0  0
   -2.9740   20.6810  -33.4080 C   0  0  0  0  0  0  0  0  0  0  0  0
   -3.9280   21.7980  -33.4600 N   0  0  0  0  0  0  0  0  0  0  0  0
   -4.5240   22.0810  -32.1460 C   0  0  0  0  0  0  0  0  0  0  0  0
   -6.0000   21.7510  -32.1080 C   0  0  0  0  0  0  0  0  0  0  0  0
   -6.8740   22.6180  -31.4280 C   0  0  0  0  0  0  0  0  0  0  0  0
   -8.2410   22.3410  -31.3700 C   0  0  0  0  0  0  0  0  0  0  0  0
   -8.7520   21.2030  -31.9940 C   0  0  0  0  0  0  0  0  0  0  0  0
   -7.8980   20.3350  -32.6800 C   0  0  0  0  0  0  0  0  0  0  0  0
   -6.5140   20.6000  -32.7490 C   0  0  0  0  0  0  0  0  0  0  0  0
   -5.6330   19.7520  -33.4380 O   0  0  0  0  0  0  0  0  0  0  0  0
   -6.0310   18.6050  -34.1810 C   0  0  0  0  0  0  0  0  0  0  0  0
   -2.7949   19.9610  -26.0598 H   0  0  0  0  0  0  0  0  0  0  0  0
   -2.9219   20.8502  -27.6155 H   0  0  0  0  0  0  0  0  0  0  0  0
   -2.6517   19.0743  -27.6155 H   0  0  0  0  0  0  0  0  0  0  0  0
   -0.4981   19.8275  -26.1595 H   0  0  0  0  0  0  0  0  0  0  0  0
   -0.4944   19.7531  -27.9753 H   0  0  0  0  0  0  0  0  0  0  0  0
   -0.5680   21.6879  -25.0483 H   0  0  0  0  0  0  0  0  0  0  0  0
   -0.2561   23.2816  -25.8160 H   0  0  0  0  0  0  0  0  0  0  0  0
   -1.9156   22.5941  -25.8160 H   0  0  0  0  0  0  0  0  0  0  0  0
    1.4969   21.2843  -27.2293 H   0  0  0  0  0  0  0  0  0  0  0  0
    0.7129   21.8958  -28.7805 H   0  0  0  0  0  0  0  0  0  0  0  0
    1.1671   23.6503  -26.3511 H   0  0  0  0  0  0  0  0  0  0  0  0
    2.3586   23.4731  -27.6925 H   0  0  0  0  0  0  0  0  0  0  0  0
   -0.0687   25.1120  -26.3882 H   0  0  0  0  0  0  0  0  0  0  0  0
    1.0058   26.1804  -27.3673 H   0  0  0  0  0  0  0  0  0  0  0  0
   -1.9281   25.9325  -27.3845 H   0  0  0  0  0  0  0  0  0  0  0  0
   -0.8598   27.2243  -28.0614 H   0  0  0  0  0  0  0  0  0  0  0  0
   -1.0270   23.3000  -28.6070 H   0  0  0  0  0  0  0  0  0  0  0  0
   -2.2030   22.0780  -28.4750 H   0  0  0  0  0  0  0  0  0  0  0  0
   -1.9968   22.6464  -31.1816 H   0  0  0  0  0  0  0  0  0  0  0  0
   -0.3127   22.5254  -30.5056 H   0  0  0  0  0  0  0  0  0  0  0  0
   -0.9100   20.3299  -29.5090 H   0  0  0  0  0  0  0  0  0  0  0  0
   -2.5279   20.4593  -30.3597 H   0  0  0  0  0  0  0  0  0  0  0  0
    0.0409   19.5111  -31.3698 H   0  0  0  0  0  0  0  0  0  0  0  0
   -1.6397   19.3833  -32.0572 H   0  0  0  0  0  0  0  0  0  0  0  0
   -0.4406   22.0770  -32.2750 H   0  0  0  0  0  0  0  0  0  0  0  0
    0.4276   20.7692  -33.1971 H   0  0  0  0  0  0  0  0  0  0  0  0
   -1.6557   22.1862  -34.2066 H   0  0  0  0  0  0  0  0  0  0  0  0
   -1.2512   20.4615  -34.6528 H   0  0  0  0  0  0  0  0  0  0  0  0
   -3.3202   19.8773  -34.0746 H   0  0  0  0  0  0  0  0  0  0  0  0
   -2.9114   20.3131  -32.3733 H   0  0  0  0  0  0  0  0  0  0  0  0
   -4.6830   21.5740  -34.1500 H   0  0  0  0  0  0  0  0  0  0  0  0
   -4.0062   21.4792  -31.3846 H   0  0  0  0  0  0  0  0  0  0  0  0
   -4.4121   23.1572  -31.9478 H   0  0  0  0  0  0  0  0  0  0  0  0
   -6.4779   23.5201  -30.9388 H   0  0  0  0  0  0  0  0  0  0  0  0
   -8.9166   23.0216  -30.8311 H   0  0  0  0  0  0  0  0  0  0  0  0
   -9.8298   20.9882  -31.9461 H   0  0  0  0  0  0  0  0  0  0  0  0
   -8.3077   19.4391  -33.1694 H   0  0  0  0  0  0  0  0  0  0  0  0
   -6.3110   17.7981  -33.4878 H   0  0  0  0  0  0  0  0  0  0  0  0
   -6.8933   18.8597  -34.8147 H   0  0  0  0  0  0  0  0  0  0  0  0
   -5.1963   18.2708  -34.8147 H   0  0  0  0  0  0  0  0  0  0  0  0
  1  2  1  0
  2  3  1  0
  3  4  1  0
  3  5  1  0
  5  6  1  0
  6  7  1  0
  7  8  1  0
  8  9  1  0
  9 10  1  0
 10 11  1  0
 11 12  1  0
 12 13  2  0
 12 14  1  0
 14 15  1  0
 15 16  1  0
 16 17  1  0
 17 18  1  0
 18 19  1  0
 19 20  1  0
 20 21  1  0
 21 22  1  0
 22 23  1  0
 23 24  2  0
 24 25  1  0
 25 26  2  0
 26 27  1  0
 27 28  2  0
 28 29  1  0
 29 30  1  0
 28 23  1  0
  1 31  1  0
  1 32  1  0
  1 33  1  0
  2 34  1  0
  2 35  1  0
  4 36  1  0
  4 37  1  0
  4 38  1  0
  5 39  1  0
  5 40  1  0
  6 41  1  0
  6 42  1  0
  8 43  1  0
  8 44  1  0
  9 45  1  0
  9 46  1  0
 14 47  1  0
 14 48  1  0
 15 49  1  0
 15 50  1  0
 16 51  1  0
 16 52  1  0
 17 53  1  0
 17 54  1  0
 18 55  1  0
 18 56  1  0
 19 57  1  0
 19 58  1  0
 20 59  1  0
 20 60  1  0
 21 61  1  0
 22 62  1  0
 22 63  1  0
 24 64  1  0
 25 65  1  0
 26 66  1  0
 27 67  1  0
 30 68  1  0
 30 69  1  0
 30 70  1  0
M  CHG  2  11  -1  14   1
M  END
>  <UniqueID>  (18) 
17

>  <SMILES>  (18) 
CCN(C)CCOCCO[N-]C(=O)[NH2+]CCCCCCNCc1ccccc1OC

>  <Energy>  (18) 
63.048698214960986

>  <Genealogy>  (18) 
CCN(C)CCOCCO[N-]C(=O)[NH2+]CCCCCCNCc1ccccc1OC (protonated)
CCN(C)CCOCCO[N-]C(=O)[NH2+]CCCCCCNCc1ccccc1OC (3D coordinates assigned)
CCN(C)CCOCCO[N-]C(=O)[NH2+]CCCCCCNCc1ccccc1OC (optimized conformer: 63.048698214960986 kcal/mol)

>  <smiles>  (18) 
CCN(C)CCOCCONC(=O)NCCCCCCNCc1ccccc1OC

>  <score_type>  (18) 
oracle

>  <origin>  (18) 
adg

>  <m_score__min__energy>  (18) 
-9.4499999999999993

>  <m_primary>  (18) 
energy

$$$$
18:0
     RDKit          3D

 45 47  0  0  0  0  0  0  0  0999 V2000
   -6.7520   24.4470  -30.1170 C   0  0  0  0  0  0  0  0  0  0  0  0
   -5.6060   25.3860  -30.5010 C   0  0  0  0  0  0  0  0  0  0  0  0
   -4.4200   24.6550  -30.9800 N   0  0  0  0  0  0  0  0  0  0  0  0
   -4.0370   23.5500  -30.0880 C   0  0  0  0  0  0  0  0  0  0  0  0
   -3.8380   22.2650  -30.8960 C   0  0  0  0  0  0  0  0  0  0  0  0
   -4.7130   22.2470  -32.0680 N   0  0  0  0  0  0  0  0  0  0  0  0
   -5.2360   21.0200  -32.6050 C   0  0  0  0  0  0  0  0  0  0  0  0
   -6.6100   20.7500  -32.4710 C   0  0  0  0  0  0  0  0  0  0  0  0
   -7.4940   21.7400  -31.9850 C   0  0  0  0  0  0  0  0  0  0  0  0
   -8.8440   21.4580  -31.7950 C   0  0  0  0  0  0  0  0  0  0  0  0
   -9.3350   20.1890  -32.0670 C   0  0  0  0  0  0  0  0  0  0  0  0
   -8.4840   19.1970  -32.5520 C   0  0  0  0  0  0  0  0  0  0  0  0
   -7.1100   19.4610  -32.7920 C   0  0  0  0  0  0  0  0  0  0  0  0
   -6.2590   18.4900  -33.2820 N   0  0  0  0  0  0  0  0  0  0  0  0
   -6.8150   17.2320  -33.8330 C   0  0  0  0  0  0  0  0  0  0  0  0
   -4.8940   18.7040  -33.2930 C   0  0  0  0  0  0  0  0  0  0  0  0
   -3.9840   17.6360  -33.4870 C   0  0  0  0  0  0  0  0  0  0  0  0
   -2.6170   17.8640  -33.5860 C   0  0  0  0  0  0  0  0  0  0  0  0
   -2.1230   19.1590  -33.5450 C   0  0  0  0  0  0  0  0  0  0  0  0
   -2.9820   20.2430  -33.3380 C   0  0  0  0  0  0  0  0  0  0  0  0
   -2.4410   21.5630  -33.4960 N   0  0  0  0  0  0  0  0  0  0  0  0
   -4.3670   20.0110  -33.0850 C   0  0  0  0  0  0  0  0  0  0  0  0
   -6.8253   24.3870  -29.0211 H   0  0  0  0  0  0  0  0  0  0  0  0
   -7.6964   24.8343  -30.5270 H   0  0  0  0  0  0  0  0  0  0  0  0
   -6.5579   23.4449  -30.5270 H   0  0  0  0  0  0  0  0  0  0  0  0
   -5.9526   26.0591  -31.2990 H   0  0  0  0  0  0  0  0  0  0  0  0
   -5.3145   25.9465  -29.6005 H   0  0  0  0  0  0  0  0  0  0  0  0
   -4.6040   24.2750  -31.9390 H   0  0  0  0  0  0  0  0  0  0  0  0
   -3.0984   23.8058  -29.5746 H   0  0  0  0  0  0  0  0  0  0  0  0
   -4.8366   23.3903  -29.3497 H   0  0  0  0  0  0  0  0  0  0  0  0
   -2.7907   22.2058  -31.2271 H   0  0  0  0  0  0  0  0  0  0  0  0
   -4.0871   21.4049  -30.2571 H   0  0  0  0  0  0  0  0  0  0  0  0
   -5.0540   23.1560  -32.4570 H   0  0  0  0  0  0  0  0  0  0  0  0
   -7.1108   22.7450  -31.7542 H   0  0  0  0  0  0  0  0  0  0  0  0
   -9.5226   22.2424  -31.4287 H   0  0  0  0  0  0  0  0  0  0  0  0
  -10.3989   19.9651  -31.8994 H   0  0  0  0  0  0  0  0  0  0  0  0
   -8.8842   18.1921  -32.7522 H   0  0  0  0  0  0  0  0  0  0  0  0
   -7.1085   16.5679  -33.0066 H   0  0  0  0  0  0  0  0  0  0  0  0
   -7.6961   17.4601  -34.4507 H   0  0  0  0  0  0  0  0  0  0  0  0
   -6.0532   16.7340  -34.4507 H   0  0  0  0  0  0  0  0  0  0  0  0
   -4.3666   16.6073  -33.5606 H   0  0  0  0  0  0  0  0  0  0  0  0
   -1.9255   17.0158  -33.6971 H   0  0  0  0  0  0  0  0  0  0  0  0
   -1.0452   19.3354  -33.6765 H   0  0  0  0  0  0  0  0  0  0  0  0
   -2.0630   22.0820  -32.6730 H   0  0  0  0  0  0  0  0  0  0  0  0
   -2.2100   21.9420  -34.4400 H   0  0  0  0  0  0  0  0  0  0  0  0
  1  2  1  0
  2  3  1  0
  3  4  1  0
  4  5  1  0
  5  6  1  0
  6  7  1  0
  7  8  2  0
  8  9  1  0
  9 10  2  0
 10 11  1  0
 11 12  2  0
 12 13  1  0
 13 14  2  0
 14 15  1  0
 14 16  1  0
 16 17  2  0
 17 18  1  0
 18 19  2  0
 19 20  1  0
 20 21  1  0
 20 22  2  0
 22  7  1  0
 13  8  1  0
 22 16  1  0
  1 23  1  0
  1 24  1  0
  1 25  1  0
  2 26  1  0
  2 27  1  0
  3 28  1  0
  4 29  1  0
  4 30  1  0
  5 31  1  0
  5 32  1  0
  6 33  1  0
  9 34  1  0
 10 35  1  0
 11 36  1  0
 12 37  1  0
 15 38  1  0
 15 39  1  0
 15 40  1  0
 17 41  1  0
 18 42  1  0
 19 43  1  0
 21 44  1  0
 21 45  1  0
M  CHG  1  14   1
M  END
>  <UniqueID>  (19) 
18

>  <SMILES>  (19) 
CCNCCNc1c2ccccc2[n+](C)c2cccc(N)c12

>  <Energy>  (19) 
76.98513054222295

>  <Genealogy>  (19) 
CCNCCNc1c2ccccc2[n+](C)c2cccc(N)c12 (3D coordinates assigned)
CCNCCNc1c2ccccc2[n+](C)c2cccc(N)c12 (optimized conformer: 76.98513054222295 kcal/mol)

>  <smiles>  (19) 
CCNCCNc1c2ccccc2[n+](C)c2cccc(N)c12

>  <score_type>  (19) 
oracle

>  <origin>  (19) 
adg

>  <m_score__min__energy>  (19) 
-8.6699999999999999

>  <m_primary>  (19) 
energy

$$$$
19:0
     RDKit          3D

 68 71  0  0  0  0  0  0  0  0999 V2000
   -2.7220   19.4850  -26.8390 C   0  0  0  0  0  0  0  0  0  0  0  0
   -3.0620   20.7590  -27.6130 C   0  0  0  0  0  0  0  0  0  0  0  0
   -1.8860   21.6490  -27.7590 N   0  0  0  0  0  0  0  0  0  0  0  0
   -1.1580   21.3860  -29.0220 C   0  0  0  0  0  0  0  0  0  0  0  0
   -0.9440   22.6850  -29.7960 C   0  0  0  0  0  0  0  0  0  0  0  0
   -2.1890   23.0920  -27.5780 C   0  0  0  0  0  0  0  0  0  0  0  0
   -3.6650   23.4660  -27.8530 C   0  0  0  0  0  0  0  0  0  0  0  0
   -3.7680   24.5130  -28.8010 O   0  0  0  0  0  0  0  0  0  0  0  0
   -5.1180   24.8450  -29.0700 C   0  0  0  0  0  0  0  0  0  0  0  0
   -5.4000   24.6040  -30.5520 C   0  0  0  0  0  0  0  0  0  0  0  0
   -4.2520   24.0870  -31.2010 O   0  0  0  0  0  0  0  0  0  0  0  0
   -4.1230   22.6910  -30.9970 C   0  0  0  0  0  0  0  0  0  0  0  0
   -3.5890   21.9880  -32.2540 C   0  0  0  0  0  0  0  0  0  0  0  0
   -4.5700   22.0210  -33.3500 N   0  0  0  0  0  0  0  0  0  0  0  0
   -5.6400   21.0800  -33.0850 C   0  0  0  0  0  0  0  0  0  0  0  0
   -5.4530   19.7070  -33.3000 C   0  0  0  0  0  0  0  0  0  0  0  0
   -6.4700   18.7920  -33.0760 C   0  0  0  0  0  0  0  0  0  0  0  0
   -7.6540   19.1580  -32.4930 N   0  0  0  0  0  0  0  0  0  0  0  0
   -8.5590   18.1280  -31.9580 C   0  0  0  0  0  0  0  0  0  0  0  0
   -7.9300   20.5080  -32.3440 C   0  0  0  0  0  0  0  0  0  0  0  0
   -9.2170   20.9540  -31.9510 C   0  0  0  0  0  0  0  0  0  0  0  0
   -9.4750   22.3050  -31.7360 C   0  0  0  0  0  0  0  0  0  0  0  0
   -8.4690   23.2470  -31.9090 C   0  0  0  0  0  0  0  0  0  0  0  0
   -7.2030   22.8530  -32.3370 C   0  0  0  0  0  0  0  0  0  0  0  0
   -6.9130   21.4920  -32.5950 C   0  0  0  0  0  0  0  0  0  0  0  0
   -5.9890   17.4490  -33.4870 C   0  0  0  0  0  0  0  0  0  0  0  0
   -6.6700   16.2380  -33.6890 C   0  0  0  0  0  0  0  0  0  0  0  0
   -5.9520   15.1350  -34.1850 C   0  0  0  0  0  0  0  0  0  0  0  0
   -4.5890   15.2600  -34.5170 C   0  0  0  0  0  0  0  0  0  0  0  0
   -3.9370   16.4930  -34.3780 C   0  0  0  0  0  0  0  0  0  0  0  0
   -4.6630   17.5690  -33.8700 C   0  0  0  0  0  0  0  0  0  0  0  0
   -4.2710   18.9640  -33.7590 C   0  0  0  0  0  0  0  0  0  0  0  0
   -3.1200   19.4210  -33.9900 O   0  0  0  0  0  0  0  0  0  0  0  0
   -2.7758   19.6867  -25.7590 H   0  0  0  0  0  0  0  0  0  0  0  0
   -3.4406   18.6943  -27.1006 H   0  0  0  0  0  0  0  0  0  0  0  0
   -1.7050   19.1574  -27.1006 H   0  0  0  0  0  0  0  0  0  0  0  0
   -3.4236   20.4809  -28.6139 H   0  0  0  0  0  0  0  0  0  0  0  0
   -3.8334   21.3041  -27.0492 H   0  0  0  0  0  0  0  0  0  0  0  0
   -0.1807   20.9376  -28.7900 H   0  0  0  0  0  0  0  0  0  0  0  0
   -1.7538   20.6977  -29.6395 H   0  0  0  0  0  0  0  0  0  0  0  0
   -0.8072   23.5155  -29.0878 H   0  0  0  0  0  0  0  0  0  0  0  0
   -0.0491   22.5916  -30.4288 H   0  0  0  0  0  0  0  0  0  0  0  0
   -1.8215   22.8836  -30.4288 H   0  0  0  0  0  0  0  0  0  0  0  0
   -1.9502   23.3678  -26.5403 H   0  0  0  0  0  0  0  0  0  0  0  0
   -1.5805   23.6389  -28.3132 H   0  0  0  0  0  0  0  0  0  0  0  0
   -4.1918   22.5810  -28.2394 H   0  0  0  0  0  0  0  0  0  0  0  0
   -4.1151   23.8094  -26.9099 H   0  0  0  0  0  0  0  0  0  0  0  0
   -5.7820   24.2146  -28.4603 H   0  0  0  0  0  0  0  0  0  0  0  0
   -5.2988   25.9015  -28.8228 H   0  0  0  0  0  0  0  0  0  0  0  0
   -6.2257   23.8839  -30.6503 H   0  0  0  0  0  0  0  0  0  0  0  0
   -5.6714   25.5612  -31.0213 H   0  0  0  0  0  0  0  0  0  0  0  0
   -3.4262   22.5138  -30.1645 H   0  0  0  0  0  0  0  0  0  0  0  0
   -5.1177   22.2813  -30.7673 H   0  0  0  0  0  0  0  0  0  0  0  0
   -2.6692   22.4939  -32.5826 H   0  0  0  0  0  0  0  0  0  0  0  0
   -3.3895   20.9360  -32.0018 H   0  0  0  0  0  0  0  0  0  0  0  0
   -4.9490   22.9830  -33.4850 H   0  0  0  0  0  0  0  0  0  0  0  0
   -4.0980   21.7950  -34.2530 H   0  0  0  0  0  0  0  0  0  0  0  0
   -8.5356   18.1546  -30.8586 H   0  0  0  0  0  0  0  0  0  0  0  0
   -9.5836   18.3226  -32.3078 H   0  0  0  0  0  0  0  0  0  0  0  0
   -8.2342   17.1370  -32.3078 H   0  0  0  0  0  0  0  0  0  0  0  0
  -10.0251   20.2204  -31.8137 H   0  0  0  0  0  0  0  0  0  0  0  0
  -10.4803   22.6280  -31.4277 H   0  0  0  0  0  0  0  0  0  0  0  0
   -8.6728   24.3089  -31.7072 H   0  0  0  0  0  0  0  0  0  0  0  0
   -6.4177   23.6105  -32.4764 H   0  0  0  0  0  0  0  0  0  0  0  0
   -7.7434   16.1535  -33.4639 H   0  0  0  0  0  0  0  0  0  0  0  0
   -6.4588   14.1674  -34.3146 H   0  0  0  0  0  0  0  0  0  0  0  0
   -4.0334   14.3858  -34.8872 H   0  0  0  0  0  0  0  0  0  0  0  0
   -2.8806   16.6084  -34.6622 H   0  0  0  0  0  0  0  0  0  0  0  0
  1  2  1  0
  2  3  1  0
  3  4  1  0
  4  5  1  0
  3  6  1  0
  6  7  1  0
  7  8  1  0
  8  9  1  0
  9 10  1  0
 10 11  1  0
 11 12  1  0
 12 13  1  0
 13 14  1  0
 14 15  1  0
 15 16  2  0
 16 17  1  0
 17 18  2  0
 18 19  1  0
 18 20  1  0
 20 21  2  0
 21 22  1  0
 22 23  2  0
 23 24  1  0
 24 25  2  0
 17 26  1  0
 26 27  2  0
 27 28  1  0
 28 29  2  0
 29 30  1  0
 30 31  2  0
 31 32  1  0
 32 33  2  0
 25 15  1  0
 31 26  1  0
 32 16  1  0
 25 20  1  0
  1 34  1  0
  1 35  1  0
  1 36  1  0
  2 37  1  0
  2 38  1  0
  4 39  1  0
  4 40  1  0
  5 41  1  0
  5 42  1  0
  5 43  1  0
  6 44  1  0
  6 45  1  0
  7 46  1  0
  7 47  1  0
  9 48  1  0
  9 49  1  0
 10 50  1  0
 10 51  1  0
 12 52  1  0
 12 53  1  0
 13 54  1  0
 13 55  1  0
 14 56  1  0
 14 57  1  0
 19 58  1  0
 19 59  1  0
 19 60  1  0
 21 61  1  0
 22 62  1  0
 23 63  1  0
 24 64  1  0
 27 65  1  0
 28 66  1  0
 29 67  1  0
 30 68  1  0
M  CHG  2  14   1  18   1
M  END
>  <UniqueID>  (20) 
19

>  <SMILES>  (20) 
CCN(CC)CCOCCOCC[NH2+]c1c2c([n+](C)c3ccccc13)-c1ccccc1C2=O

>  <Energy>  (20) 
127.92909645293071

>  <Genealogy>  (20) 
CCN(CC)CCOCCOCC[NH2+]c1c2c([n+](C)c3ccccc13)-c1ccccc1C2=O (protonated)
CCN(CC)CCOCCOCC[NH2+]c1c2c([n+](C)c3ccccc13)-c1ccccc1C2=O (3D coordinates assigned)
CCN(CC)CCOCCOCC[NH2+]c1c2c([n+](C)c3ccccc13)-c1ccccc1C2=O (nonaromatic ring conformer: 127.92909645293071 kcal/mol)

>  <smiles>  (20) 
CCN(CC)CCOCCOCCNc1c2c([n+](C)c3ccccc13)-c1ccccc1C2=O

>  <score_type>  (20) 
oracle

>  <origin>  (20) 
adg

>  <m_score__min__energy>  (20) 
-9.1300000000000008

>  <m_primary>  (20) 
energy

$$$$
20:0
     RDKit          3D

 44 46  0  0  0  0  0  0  0  0999 V2000
   -7.2750   23.0980  -30.4380 C   0  0  0  0  0  0  0  0  0  0  0  0
   -7.6260   23.3390  -31.9010 C   0  0  0  0  0  0  0  0  0  0  0  0
   -7.1710   22.2580  -32.7130 O   0  0  0  0  0  0  0  0  0  0  0  0
   -7.5000   20.9000  -32.5430 C   0  0  0  0  0  0  0  0  0  0  0  0
   -8.7670   20.4850  -32.0850 C   0  0  0  0  0  0  0  0  0  0  0  0
   -9.0420   19.1280  -31.9010 C   0  0  0  0  0  0  0  0  0  0  0  0
   -8.0620   18.1720  -32.1640 C   0  0  0  0  0  0  0  0  0  0  0  0
   -6.8030   18.5670  -32.6210 C   0  0  0  0  0  0  0  0  0  0  0  0
   -6.5200   19.9260  -32.8280 C   0  0  0  0  0  0  0  0  0  0  0  0
   -5.1520   20.3430  -33.3150 C   0  0  0  0  0  0  0  0  0  0  0  0
   -4.8080   21.6910  -32.8230 N   0  0  0  0  0  0  0  0  0  0  0  0
   -3.3840   21.7980  -32.4620 C   0  0  0  0  0  0  0  0  0  0  0  0
   -3.2060   22.5670  -31.1830 C   0  0  0  0  0  0  0  0  0  0  0  0
   -2.0140   22.7000  -30.4870 C   0  0  0  0  0  0  0  0  0  0  0  0
   -2.3030   23.3360  -29.3450 N   0  0  0  0  0  0  0  0  0  0  0  0
   -1.4950   23.6720  -28.3080 C   0  0  0  0  0  0  0  0  0  0  0  0
   -2.0730   24.3120  -27.1950 C   0  0  0  0  0  0  0  0  0  0  0  0
   -1.2380   24.6580  -26.0000 C   0  0  0  0  0  0  0  0  0  0  0  0
   -3.4660   24.5510  -27.1890 C   0  0  0  0  0  0  0  0  0  0  0  0
   -4.2590   24.1800  -28.2870 C   0  0  0  0  0  0  0  0  0  0  0  0
   -3.6260   23.5650  -29.3630 C   0  0  0  0  0  0  0  0  0  0  0  0
   -4.2310   23.1050  -30.4770 N   0  0  0  0  0  0  0  0  0  0  0  0
   -8.0114   23.6036  -29.7961 H   0  0  0  0  0  0  0  0  0  0  0  0
   -7.2885   22.0178  -30.2308 H   0  0  0  0  0  0  0  0  0  0  0  0
   -6.2717   23.4986  -30.2308 H   0  0  0  0  0  0  0  0  0  0  0  0
   -8.7177   23.4306  -32.0001 H   0  0  0  0  0  0  0  0  0  0  0  0
   -7.1337   24.2642  -32.2352 H   0  0  0  0  0  0  0  0  0  0  0  0
   -9.5436   21.2342  -31.8713 H   0  0  0  0  0  0  0  0  0  0  0  0
  -10.0348   18.8127  -31.5475 H   0  0  0  0  0  0  0  0  0  0  0  0
   -8.2808   17.1049  -32.0113 H   0  0  0  0  0  0  0  0  0  0  0  0
   -6.0300   17.8100  -32.8195 H   0  0  0  0  0  0  0  0  0  0  0  0
   -4.4044   19.6240  -32.9488 H   0  0  0  0  0  0  0  0  0  0  0  0
   -5.1601   20.3610  -34.4148 H   0  0  0  0  0  0  0  0  0  0  0  0
   -5.0390   22.4250  -33.5350 H   0  0  0  0  0  0  0  0  0  0  0  0
   -5.3830   21.8880  -31.9700 H   0  0  0  0  0  0  0  0  0  0  0  0
   -2.9689   20.7874  -32.3342 H   0  0  0  0  0  0  0  0  0  0  0  0
   -2.8589   22.3329  -33.2671 H   0  0  0  0  0  0  0  0  0  0  0  0
   -1.0225   22.3504  -30.8107 H   0  0  0  0  0  0  0  0  0  0  0  0
   -0.4179   23.4505  -28.3361 H   0  0  0  0  0  0  0  0  0  0  0  0
   -1.7978   24.4260  -25.0819 H   0  0  0  0  0  0  0  0  0  0  0  0
   -0.3078   24.0713  -26.0204 H   0  0  0  0  0  0  0  0  0  0  0  0
   -0.9954   25.7307  -26.0204 H   0  0  0  0  0  0  0  0  0  0  0  0
   -3.9330   25.0317  -26.3168 H   0  0  0  0  0  0  0  0  0  0  0  0
   -5.3426   24.3689  -28.2962 H   0  0  0  0  0  0  0  0  0  0  0  0
  1  2  1  0
  2  3  1  0
  3  4  1  0
  4  5  2  0
  5  6  1  0
  6  7  2  0
  7  8  1  0
  8  9  2  0
  9 10  1  0
 10 11  1  0
 11 12  1  0
 12 13  1  0
 13 14  2  0
 14 15  1  0
 15 16  1  0
 16 17  2  0
 17 18  1  0
 17 19  1  0
 19 20  2  0
 20 21  1  0
 21 22  2  0
  9  4  1  0
 22 13  1  0
 21 15  1  0
  1 23  1  0
  1 24  1  0
  1 25  1  0
  2 26  1  0
  2 27  1  0
  5 28  1  0
  6 29  1  0
  7 30  1  0
  8 31  1  0
 10 32  1  0
 10 33  1  0
 11 34  1  0
 11 35  1  0
 12 36  1  0
 12 37  1  0
 14 38  1  0
 16 39  1  0
 18 40  1  0
 18 41  1  0
 18 42  1  0
 19 43  1  0
 20 44  1  0
M  CHG  1  11   1
M  END
>  <UniqueID>  (21) 
20

>  <SMILES>  (21) 
CCOc1ccccc1C[NH2+]Cc1cn2cc(C)ccc2n1

>  <Energy>  (21) 
74.85235505199769

>  <Genealogy>  (21) 
CCOc1ccccc1C[NH2+]Cc1cn2cc(C)ccc2n1 (protonated)
CCOc1ccccc1C[NH2+]Cc1cn2cc(C)ccc2n1 (3D coordinates assigned)
CCOc1ccccc1C[NH2+]Cc1cn2cc(C)ccc2n1 (optimized conformer: 74.85235505199769 kcal/mol)

>  <smiles>  (21) 
CCOc1ccccc1CNCc1cn2cc(C)ccc2n1

>  <score_type>  (21) 
oracle

>  <origin>  (21) 
adg

>  <m_score__min__energy>  (21) 
-7.4699999999999998

>  <m_primary>  (21) 
energy

$$$$
