0:0
     RDKit          3D

 43 45  0  0  0  0  0  0  0  0999 V2000
   -5.7000   25.6660  -30.3980 C   0  0  0  0  0  0  0  0  0  0  0  0
   -5.0070   24.7170  -31.2010 O   0  0  0  0  0  0  0  0  0  0  0  0
   -5.4890   23.4360  -31.5080 C   0  0  0  0  0  0  0  0  0  0  0  0
   -6.8640   23.2690  -31.6880 C   0  0  0  0  0  0  0  0  0  0  0  0
   -7.3940   22.0140  -31.9960 C   0  0  0  0  0  0  0  0  0  0  0  0
   -6.5570   20.8880  -32.1270 C   0  0  0  0  0  0  0  0  0  0  0  0
   -7.1610   19.5260  -32.4750 C   0  0  2  0  0  0  0  0  0  0  0  0
   -8.6770   19.6130  -32.7090 C   0  0  0  0  0  0  0  0  0  0  0  0
   -6.9000   18.5240  -31.4330 N   0  0  0  0  0  0  0  0  0  0  0  0
   -6.1250   17.4780  -31.9980 C   0  0  0  0  0  0  0  0  0  0  0  0
   -5.7910   16.4440  -31.3620 O   0  0  0  0  0  0  0  0  0  0  0  0
   -5.8020   17.7010  -33.3590 N   0  0  0  0  0  0  0  0  0  0  0  0
   -5.3240   16.7030  -34.3150 C   0  0  0  0  0  0  0  0  0  0  0  0
   -3.8940   16.9600  -34.7240 C   0  0  0  0  0  0  0  0  0  0  0  0
   -3.4170   16.3420  -35.7150 O   0  0  0  0  0  0  0  0  0  0  0  0
   -3.0360   17.9260  -33.9840 C   0  0  0  0  0  0  0  0  0  0  0  0
   -2.0400   17.4870  -33.0870 C   0  0  0  0  0  0  0  0  0  0  0  0
   -1.2450   18.4110  -32.4020 C   0  0  0  0  0  0  0  0  0  0  0  0
   -1.4310   19.7810  -32.5980 C   0  0  0  0  0  0  0  0  0  0  0  0
   -0.6570   20.6720  -31.9300 F   0  0  0  0  0  0  0  0  0  0  0  0
   -2.4130   20.2310  -33.4830 C   0  0  0  0  0  0  0  0  0  0  0  0
   -2.5950   21.5610  -33.6770 F   0  0  0  0  0  0  0  0  0  0  0  0
   -3.2110   19.3120  -34.1720 C   0  0  0  0  0  0  0  0  0  0  0  0
   -6.4640   18.9220  -33.6720 C   0  0  0  0  0  0  0  0  0  0  0  0
   -6.4880   19.4100  -34.8350 O   0  0  0  0  0  0  0  0  0  0  0  0
   -5.1680   21.0650  -31.9520 C   0  0  0  0  0  0  0  0  0  0  0  0
   -4.6410   22.3230  -31.6440 C   0  0  0  0  0  0  0  0  0  0  0  0
   -5.5335   25.4379  -29.3349 H   0  0  0  0  0  0  0  0  0  0  0  0
   -5.3257   26.6764  -30.6193 H   0  0  0  0  0  0  0  0  0  0  0  0
   -6.7764   25.6171  -30.6193 H   0  0  0  0  0  0  0  0  0  0  0  0
   -7.5358   24.1341  -31.5862 H   0  0  0  0  0  0  0  0  0  0  0  0
   -8.4791   21.9031  -32.1382 H   0  0  0  0  0  0  0  0  0  0  0  0
   -9.1965   19.6428  -31.7399 H   0  0  0  0  0  0  0  0  0  0  0  0
   -8.9085   20.5259  -33.2773 H   0  0  0  0  0  0  0  0  0  0  0  0
   -9.0114   18.7326  -33.2773 H   0  0  0  0  0  0  0  0  0  0  0  0
   -7.3060   18.5210  -30.4700 H   0  0  0  0  0  0  0  0  0  0  0  0
   -5.3888   15.7070  -33.8526 H   0  0  0  0  0  0  0  0  0  0  0  0
   -5.9535   16.7621  -35.2151 H   0  0  0  0  0  0  0  0  0  0  0  0
   -1.8875   16.4097  -32.9251 H   0  0  0  0  0  0  0  0  0  0  0  0
   -0.4701   18.0573  -31.7060 H   0  0  0  0  0  0  0  0  0  0  0  0
   -3.9826   19.6743  -34.8673 H   0  0  0  0  0  0  0  0  0  0  0  0
   -4.4923   20.2037  -32.0591 H   0  0  0  0  0  0  0  0  0  0  0  0
   -3.5561   22.4425  -31.5073 H   0  0  0  0  0  0  0  0  0  0  0  0
  1  2  1  0
  2  3  1  0
  3  4  2  0
  4  5  1  0
  5  6  2  0
  6  7  1  0
  7  8  1  6
  7  9  1  0
  9 10  1  0
 10 11  2  0
 10 12  1  0
 12 13  1  0
 13 14  1  0
 14 15  2  0
 14 16  1  0
 16 17  2  0
 17 18  1  0
 18 19  2  0
 19 20  1  0
 19 21  1  0
 21 22  1  0
 21 23  2  0
 12 24  1  0
 24 25  2  0
  6 26  1  0
 26 27  2  0
 27  3  1  0
 24  7  1  0
 23 16  1  0
  1 28  1  0
  1 29  1  0
  1 30  1  0
  4 31  1  0
  5 32  1  0
  8 33  1  0
  8 34  1  0
  8 35  1  0
  9 36  1  0
 13 37  1  0
 13 38  1  0
 17 39  1  0
 18 40  1  0
 23 41  1  0
 26 42  1  0
 27 43  1  0
M  END
>  <UniqueID>  (1) 
1

>  <SMILES>  (1) 
COc1ccc([C@]2(C)NC(=O)N(CC(=O)c3ccc(F)c(F)c3)C2=O)cc1

>  <Energy>  (1) 
65.99815411206502

>  <Genealogy>  (1) 
COc1ccc([C@]2(C)NC(=O)N(CC(=O)c3ccc(F)c(F)c3)C2=O)cc1 (chirality)
COc1ccc([C@]2(C)NC(=O)N(CC(=O)c3ccc(F)c(F)c3)C2=O)cc1 (3D coordinates assigned)
COc1ccc([C@]2(C)NC(=O)N(CC(=O)c3ccc(F)c(F)c3)C2=O)cc1 (nonaromatic ring conformer: 65.99815411206502 kcal/mol)

>  <smiles>  (1) 
COc1ccc(C2(C)NC(=O)N(CC(=O)c3ccc(F)c(F)c3)C2=O)cc1

>  <score_type>  (1) 
oracle

>  <origin>  (1) 
adg

>  <m_score__min__energy>  (1) 
-8.5700000000000003

>  <m_primary>  (1) 
energy

$$$$
1:0
     RDKit          3D

 38 40  0  0  1  0  0  0  0  0999 V2000
   -2.4590   24.5480  -28.0660 C   0  0  0  0  0  0  0  0  0  0  0  0
   -2.7200   25.1750  -29.3160 O   0  0  0  0  0  0  0  0  0  0  0  0
   -3.7130   24.6050  -30.1380 C   0  0  0  0  0  0  0  0  0  0  0  0
   -3.5270   23.3600  -30.7200 C   0  0  0  0  0  0  0  0  0  0  0  0
   -4.5110   22.7900  -31.5400 C   0  0  0  0  0  0  0  0  0  0  0  0
   -5.6840   23.4580  -31.7840 C   0  0  0  0  0  0  0  0  0  0  0  0
   -6.7320   23.0000  -32.6040 N   0  0  0  0  0  0  0  0  0  0  0  0
   -7.6800   22.0050  -32.3280 C   0  0  0  0  0  0  0  0  0  0  0  0
   -7.3240   20.6670  -32.5750 C   0  0  0  0  0  0  0  0  0  0  0  0
   -8.1970   19.6410  -32.3100 C   0  0  0  0  0  0  0  0  0  0  0  0
   -7.8750   18.4380  -32.5270 N   0  0  0  0  0  0  0  0  0  0  0  0
   -6.6500   17.9590  -33.0560 C   0  0  0  0  0  0  0  0  0  0  0  0
   -6.1120   18.4040  -34.2470 C   0  0  0  0  0  0  0  0  0  0  0  0
   -4.9090   17.8880  -34.6700 C   0  0  0  0  0  0  0  0  0  0  0  0
   -4.2280   16.9290  -33.9240 C   0  0  0  0  0  0  0  0  0  0  0  0
   -4.7520   16.4780  -32.7370 C   0  0  0  0  0  0  0  0  0  0  0  0
   -5.9600   17.0100  -32.3340 C   0  0  0  0  0  0  0  0  0  0  0  0
   -9.4340   19.8780  -31.8020 N   0  0  0  0  0  0  0  0  0  0  0  0
   -9.7730   21.1850  -31.5630 C   0  0  0  0  0  0  0  0  0  0  0  0
   -8.9000   22.1890  -31.8290 N   0  0  0  0  0  0  0  0  0  0  0  0
   -5.8360   24.6950  -31.1870 C   0  0  0  0  0  0  0  0  0  0  0  0
   -4.8890   25.2760  -30.3810 C   0  0  0  0  0  0  0  0  0  0  0  0
   -2.7419   25.2277  -27.2487 H   0  0  0  0  0  0  0  0  0  0  0  0
   -3.0458   23.6206  -27.9914 H   0  0  0  0  0  0  0  0  0  0  0  0
   -1.3875   24.3109  -27.9914 H   0  0  0  0  0  0  0  0  0  0  0  0
   -2.5921   22.8107  -30.5352 H   0  0  0  0  0  0  0  0  0  0  0  0
   -4.3414   21.8009  -31.9905 H   0  0  0  0  0  0  0  0  0  0  0  0
   -6.8030   23.4800  -33.5560 H   0  0  0  0  0  0  0  0  0  0  0  0
   -6.3300   20.4388  -32.9872 H   0  0  0  0  0  0  0  0  0  0  0  0
   -6.6375   19.1600  -34.8489 H   0  0  0  0  0  0  0  0  0  0  0  0
   -4.4756   18.2403  -35.6177 H   0  0  0  0  0  0  0  0  0  0  0  0
   -3.2683   16.5318  -34.2862 H   0  0  0  0  0  0  0  0  0  0  0  0
   -4.2295   15.7227  -32.1316 H   0  0  0  0  0  0  0  0  0  0  0  0
   -6.3946   16.6579  -31.3868 H   0  0  0  0  0  0  0  0  0  0  0  0
  -10.7648   21.4224  -31.1506 H   0  0  0  0  0  0  0  0  0  0  0  0
   -9.2300   23.1440  -31.6080 H   0  0  0  0  0  0  0  0  0  0  0  0
   -6.7705   25.2462  -31.3683 H   0  0  0  0  0  0  0  0  0  0  0  0
   -5.0682   26.2655  -29.9351 H   0  0  0  0  0  0  0  0  0  0  0  0
  1  2  1  0
  2  3  1  0
  3  4  2  0
  4  5  1  0
  5  6  2  0
  6  7  1  0
  7  8  1  0
  8  9  2  0
  9 10  1  0
 10 11  2  0
 11 12  1  0
 12 13  2  0
 13 14  1  0
 14 15  2  0
 15 16  1  0
 16 17  2  0
 10 18  1  0
 18 19  2  0
 19 20  1  0
  6 21  1  0
 21 22  2  0
 22  3  1  0
 20  8  1  0
 17 12  1  0
  1 23  1  0
  1 24  1  0
  1 25  1  0
  4 26  1  0
  5 27  1  0
  7 28  1  0
  9 29  1  0
 13 30  1  0
 14 31  1  0
 15 32  1  0
 16 33  1  0
 17 34  1  0
 19 35  1  0
 20 36  1  0
 21 37  1  0
 22 38  1  0
M  END
>  <smiles>  (2) 
COc1ccc(Nc2cc(=Nc3ccccc3)nc[nH]2)cc1

>  <score_type>  (2) 
oracle

>  <origin>  (2) 
adg

>  <m_score__min__energy>  (2) 
-8.0399999999999991

>  <m_primary>  (2) 
energy

$$$$
2:0
     RDKit          3D

 42 44  0  0  0  0  0  0  0  0999 V2000
    0.1880   21.4840  -31.7060 H   0  0  0  0  0  0  0  0  0  0  0  0
    0.6720   21.1530  -32.5090 O   0  0  0  0  0  0  0  0  0  0  0  0
   -0.2770   21.0590  -33.5440 C   0  0  0  0  0  0  0  0  0  0  0  0
   -0.3002   20.0183  -33.8996 H   0  0  0  0  0  0  0  0  0  0  0  0
    0.0880   21.9100  -34.5990 O   0  0  0  0  0  0  0  0  0  0  0  0
   -0.7540   22.2360  -35.0160 H   0  0  0  0  0  0  0  0  0  0  0  0
   -1.6570   21.4200  -33.0490 C   0  0  0  0  0  0  0  0  0  0  0  0
   -1.8070   22.1040  -31.8890 N   0  0  0  0  0  0  0  0  0  0  0  0
   -3.0210   22.5060  -31.4190 C   0  0  0  0  0  0  0  0  0  0  0  0
   -4.1870   22.2280  -32.1740 C   0  0  0  0  0  0  0  0  0  0  0  0
   -5.3410   22.9640  -31.8340 C   0  0  0  0  0  0  0  0  0  0  0  0
   -6.2780   23.0890  -32.6660 O   0  0  0  0  0  0  0  0  0  0  0  0
   -5.4050   23.6440  -30.6470 N   0  0  0  0  0  0  0  0  0  0  0  0
   -6.6470   24.3400  -30.2640 C   0  0  0  0  0  0  0  0  0  0  0  0
   -6.7209   24.3814  -29.1673 H   0  0  0  0  0  0  0  0  0  0  0  0
   -6.6343   25.3625  -30.6695 H   0  0  0  0  0  0  0  0  0  0  0  0
   -7.5125   23.7954  -30.6695 H   0  0  0  0  0  0  0  0  0  0  0  0
   -4.2890   23.7720  -29.8630 C   0  0  0  0  0  0  0  0  0  0  0  0
   -4.3500   24.4420  -28.7920 O   0  0  0  0  0  0  0  0  0  0  0  0
   -3.0990   23.2140  -30.2500 N   0  0  0  0  0  0  0  0  0  0  0  0
   -1.8810   23.4410  -29.4480 C   0  0  0  0  0  0  0  0  0  0  0  0
   -2.1324   23.3941  -28.3781 H   0  0  0  0  0  0  0  0  0  0  0  0
   -1.1368   22.6661  -29.6841 H   0  0  0  0  0  0  0  0  0  0  0  0
   -1.4659   24.4320  -29.6841 H   0  0  0  0  0  0  0  0  0  0  0  0
   -4.0680   21.3470  -33.2990 C   0  0  0  0  0  0  0  0  0  0  0  0
   -5.0430   20.6500  -33.8260 N   0  0  0  0  0  0  0  0  0  0  0  0
   -5.4050   19.2430  -33.6880 C   0  0  0  0  0  0  0  0  0  0  0  0
   -5.5413   18.7962  -34.6839 H   0  0  0  0  0  0  0  0  0  0  0  0
   -4.6074   18.7003  -33.1596 H   0  0  0  0  0  0  0  0  0  0  0  0
   -6.6890   19.1510  -32.9120 C   0  0  0  0  0  0  0  0  0  0  0  0
   -7.2570   17.8970  -32.6270 C   0  0  0  0  0  0  0  0  0  0  0  0
   -6.7453   16.9778  -32.9484 H   0  0  0  0  0  0  0  0  0  0  0  0
   -8.4690   17.8140  -31.9370 C   0  0  0  0  0  0  0  0  0  0  0  0
   -8.9027   16.8298  -31.7063 H   0  0  0  0  0  0  0  0  0  0  0  0
   -9.1320   18.9790  -31.5390 C   0  0  0  0  0  0  0  0  0  0  0  0
  -10.0845   18.9104  -30.9931 H   0  0  0  0  0  0  0  0  0  0  0  0
   -8.5840   20.2320  -31.8350 C   0  0  0  0  0  0  0  0  0  0  0  0
   -9.4220   21.6940  -31.3470 Cl  0  0  0  0  0  0  0  0  0  0  0  0
   -7.3690   20.3190  -32.5260 C   0  0  0  0  0  0  0  0  0  0  0  0
   -6.9453   21.3050  -32.7675 H   0  0  0  0  0  0  0  0  0  0  0  0
   -2.7860   21.0460  -33.7770 C   0  0  0  0  0  0  0  0  0  0  0  0
   -2.6694   20.5119  -34.7315 H   0  0  0  0  0  0  0  0  0  0  0  0
  1  2  1  0
  2  3  1  0
  3  4  1  0
  3  5  1  0
  5  6  1  0
  3  7  1  0
  7  8  1  0
  8  9  1  0
  9 10  2  0
 10 11  1  0
 11 12  2  0
 11 13  1  0
 13 14  1  0
 14 15  1  0
 14 16  1  0
 14 17  1  0
 13 18  1  0
 18 19  2  0
 18 20  1  0
 20 21  1  0
 21 22  1  0
 21 23  1  0
 21 24  1  0
 10 25  1  0
 25 26  2  0
 26 27  1  0
 27 28  1  0
 27 29  1  0
 27 30  1  0
 30 31  2  0
 31 32  1  0
 31 33  1  0
 33 34  1  0
 33 35  2  0
 35 36  1  0
 35 37  1  0
 37 38  1  0
 37 39  2  0
 39 40  1  0
 25 41  1  0
 41 42  1  0
 41  7  2  0
 20  9  1  0
 39 30  1  0
M  CHG  1   8  -1
M  END
>  <UniqueID>  (3) 
2

>  <SMILES>  (3) 
Cn1c(=O)c2/c(=N\Cc3cccc(Cl)c3)cc(C(O)O)[n-]c2n(C)c1=O

>  <Energy>  (3) 
77.84944377586815

>  <Genealogy>  (3) 
Cn1c(=O)c2c(=NCc3cccc(Cl)c3)cc(C(O)O)[n-]c2n(C)c1=O (protonated)
Cn1c(=O)c2/c(=N\Cc3cccc(Cl)c3)cc(C(O)O)[n-]c2n(C)c1=O (cis-trans isomerization)
Cn1c(=O)c2/c(=N\Cc3cccc(Cl)c3)cc(C(O)O)[n-]c2n(C)c1=O (3D coordinates assigned)
Cn1c(=O)c2/c(=N\Cc3cccc(Cl)c3)cc(C(O)O)[n-]c2n(C)c1=O (optimized conformer: 77.84944377586815 kcal/mol)

>  <smiles>  (3) 
Cn1c(=O)c2c(=NCc3cccc(Cl)c3)cc(C(O)O)[nH]c2n(C)c1=O

>  <score_type>  (3) 
oracle

>  <origin>  (3) 
adg

>  <m_score__min__energy>  (3) 
-9.4900000000000002

>  <m_primary>  (3) 
energy

$$$$
3:0
     RDKit          3D

 38 40  0  0  0  0  0  0  0  0999 V2000
   -2.6000   18.6900  -26.4430 C   0  0  0  0  0  0  0  0  0  0  0  0
   -1.8650   19.2770  -27.5100 O   0  0  0  0  0  0  0  0  0  0  0  0
   -2.1220   20.5710  -27.9970 C   0  0  0  0  0  0  0  0  0  0  0  0
   -3.1310   21.3850  -27.4470 C   0  0  0  0  0  0  0  0  0  0  0  0
   -3.3330   22.6720  -27.9390 C   0  0  0  0  0  0  0  0  0  0  0  0
   -2.5180   23.1710  -28.9700 C   0  0  0  0  0  0  0  0  0  0  0  0
   -2.6400   24.5800  -29.4080 C   0  0  0  0  0  0  0  0  0  0  0  0
   -1.9650   25.4950  -28.8350 O   0  0  0  0  0  0  0  0  0  0  0  0
   -3.5240   24.9270  -30.4810 N   0  0  0  0  0  0  0  0  0  0  0  0
   -4.9070   24.4510  -30.5230 C   0  0  0  0  0  0  0  0  0  0  0  0
   -4.9830   23.0780  -31.2050 C   0  0  0  0  0  0  0  0  0  0  0  0
   -6.4070   22.6890  -31.5050 C   0  0  0  0  0  0  0  0  0  0  0  0
   -7.5240   23.5110  -31.4000 C   0  0  0  0  0  0  0  0  0  0  0  0
   -8.6550   22.8050  -31.6390 N   0  0  0  0  0  0  0  0  0  0  0  0
   -8.2670   21.5460  -31.8980 C   0  0  0  0  0  0  0  0  0  0  0  0
   -9.0840   20.4390  -32.1600 C   0  0  0  0  0  0  0  0  0  0  0  0
   -8.4610   19.1880  -32.3450 C   0  0  0  0  0  0  0  0  0  0  0  0
   -7.0540   19.0720  -32.2560 C   0  0  0  0  0  0  0  0  0  0  0  0
   -6.2570   20.1980  -31.9930 C   0  0  0  0  0  0  0  0  0  0  0  0
   -6.8970   21.4290  -31.8130 C   0  0  0  0  0  0  0  0  0  0  0  0
   -1.5130   22.3300  -29.4940 C   0  0  0  0  0  0  0  0  0  0  0  0
   -1.3460   21.0730  -29.0090 N   0  0  0  0  0  0  0  0  0  0  0  0
   -2.1816   19.0242  -25.4821 H   0  0  0  0  0  0  0  0  0  0  0  0
   -3.6539   18.9977  -26.5109 H   0  0  0  0  0  0  0  0  0  0  0  0
   -2.5329   17.5941  -26.5109 H   0  0  0  0  0  0  0  0  0  0  0  0
   -3.7597   21.0042  -26.6286 H   0  0  0  0  0  0  0  0  0  0  0  0
   -4.1328   23.3001  -27.5196 H   0  0  0  0  0  0  0  0  0  0  0  0
   -5.2921   24.3668  -29.4961 H   0  0  0  0  0  0  0  0  0  0  0  0
   -5.5123   25.1675  -31.0977 H   0  0  0  0  0  0  0  0  0  0  0  0
   -4.4164   23.1150  -32.1472 H   0  0  0  0  0  0  0  0  0  0  0  0
   -4.5572   22.3288  -30.5213 H   0  0  0  0  0  0  0  0  0  0  0  0
   -7.4933   24.5834  -31.1571 H   0  0  0  0  0  0  0  0  0  0  0  0
   -9.6370   23.1600  -31.6110 H   0  0  0  0  0  0  0  0  0  0  0  0
  -10.1775   20.5425  -32.2196 H   0  0  0  0  0  0  0  0  0  0  0  0
   -9.0715   18.2984  -32.5594 H   0  0  0  0  0  0  0  0  0  0  0  0
   -6.5791   18.0895  -32.3943 H   0  0  0  0  0  0  0  0  0  0  0  0
   -5.1620   20.1146  -31.9304 H   0  0  0  0  0  0  0  0  0  0  0  0
   -0.8606   22.6954  -30.3008 H   0  0  0  0  0  0  0  0  0  0  0  0
  1  2  1  0
  2  3  1  0
  3  4  2  0
  4  5  1  0
  5  6  2  0
  6  7  1  0
  7  8  2  0
  7  9  1  0
  9 10  1  0
 10 11  1  0
 11 12  1  0
 12 13  2  0
 13 14  1  0
 14 15  1  0
 15 16  2  0
 16 17  1  0
 17 18  2  0
 18 19  1  0
 19 20  2  0
  6 21  1  0
 21 22  2  0
 22  3  1  0
 20 12  1  0
 20 15  1  0
  1 23  1  0
  1 24  1  0
  1 25  1  0
  4 26  1  0
  5 27  1  0
 10 28  1  0
 10 29  1  0
 11 30  1  0
 11 31  1  0
 13 32  1  0
 14 33  1  0
 16 34  1  0
 17 35  1  0
 18 36  1  0
 19 37  1  0
 21 38  1  0
M  CHG  1   9  -1
M  END
>  <UniqueID>  (4) 
3

>  <SMILES>  (4) 
COc1ccc(C(=O)[N-]CCc2c[nH]c3ccccc23)cn1

>  <Energy>  (4) 
76.61290741414022

>  <Genealogy>  (4) 
COc1ccc(C(=O)[N-]CCc2c[nH]c3ccccc23)cn1 (protonated)
COc1ccc(C(=O)[N-]CCc2c[nH]c3ccccc23)cn1 (3D coordinates assigned)
COc1ccc(C(=O)[N-]CCc2c[nH]c3ccccc23)cn1 (optimized conformer: 76.61290741414022 kcal/mol)

>  <smiles>  (4) 
COc1ccc(C(=O)NCCc2c[nH]c3ccccc23)cn1

>  <score_type>  (4) 
oracle

>  <origin>  (4) 
adg

>  <m_score__min__energy>  (4) 
-9.3800000000000008

>  <m_primary>  (4) 
energy

$$$$
4:0
     RDKit          3D

 37 38  0  0  0  0  0  0  0  0999 V2000
   -8.4790   19.8720  -32.0530 C   0  0  0  0  0  0  0  0  0  0  0  0
   -8.7840   21.1360  -31.4710 O   0  0  0  0  0  0  0  0  0  0  0  0
   -7.8510   22.1680  -31.2890 C   0  0  0  0  0  0  0  0  0  0  0  0
   -7.5950   22.6110  -29.9870 C   0  0  0  0  0  0  0  0  0  0  0  0
   -6.6720   23.6340  -29.7530 C   0  0  0  0  0  0  0  0  0  0  0  0
   -5.9790   24.2200  -30.8220 C   0  0  0  0  0  0  0  0  0  0  0  0
   -5.0080   25.3020  -30.5630 C   0  0  0  0  0  0  0  0  0  0  0  0
   -5.4250   26.4870  -30.4790 O   0  0  0  0  0  0  0  0  0  0  0  0
   -3.6080   25.0480  -30.3830 N   0  0  0  0  0  0  0  0  0  0  0  0
   -2.9770   23.7320  -30.3070 C   0  0  0  0  0  0  0  0  0  0  0  0
   -2.4860   23.4450  -28.8860 C   0  0  0  0  0  0  0  0  0  0  0  0
   -2.6970   24.6190  -28.0360 N   0  0  0  0  0  0  0  0  0  0  0  0
   -1.2070   25.4950  -27.8700 S   0  0  0  0  0  0  0  0  0  0  0  0
   -0.0500   24.6040  -28.2290 O   0  0  0  0  0  0  0  0  0  0  0  0
   -1.2160   26.6770  -28.7980 O   0  0  0  0  0  0  0  0  0  0  0  0
   -1.0220   26.0650  -26.2220 C   0  0  0  0  0  0  0  0  0  0  0  0
   -0.9870   27.3950  -25.8290 C   0  0  0  0  0  0  0  0  0  0  0  0
   -0.8610   27.5500  -24.4440 C   0  0  0  0  0  0  0  0  0  0  0  0
   -0.8020   26.3450  -23.7520 C   0  0  0  0  0  0  0  0  0  0  0  0
   -0.9080   25.0840  -24.8630 S   0  0  0  0  0  0  0  0  0  0  0  0
   -6.2490   23.7950  -32.1310 C   0  0  0  0  0  0  0  0  0  0  0  0
   -7.1710   22.7720  -32.3650 C   0  0  0  0  0  0  0  0  0  0  0  0
   -8.3011   19.1348  -31.2562 H   0  0  0  0  0  0  0  0  0  0  0  0
   -9.3233   19.5419  -32.6761 H   0  0  0  0  0  0  0  0  0  0  0  0
   -7.5771   19.9633  -32.6761 H   0  0  0  0  0  0  0  0  0  0  0  0
   -8.1247   22.1502  -29.1402 H   0  0  0  0  0  0  0  0  0  0  0  0
   -6.4883   23.9811  -28.7255 H   0  0  0  0  0  0  0  0  0  0  0  0
   -3.7089   22.9640  -30.5975 H   0  0  0  0  0  0  0  0  0  0  0  0
   -2.1134   23.7156  -30.9881 H   0  0  0  0  0  0  0  0  0  0  0  0
   -3.0439   22.5915  -28.4733 H   0  0  0  0  0  0  0  0  0  0  0  0
   -1.4119   23.2095  -28.9160 H   0  0  0  0  0  0  0  0  0  0  0  0
   -3.3670   25.2580  -28.5240 H   0  0  0  0  0  0  0  0  0  0  0  0
   -1.0515   28.2387  -26.5319 H   0  0  0  0  0  0  0  0  0  0  0  0
   -0.8132   28.5315  -23.9496 H   0  0  0  0  0  0  0  0  0  0  0  0
   -0.7028   26.2343  -22.6621 H   0  0  0  0  0  0  0  0  0  0  0  0
   -5.7320   24.2698  -32.9779 H   0  0  0  0  0  0  0  0  0  0  0  0
   -7.3670   22.4365  -33.3941 H   0  0  0  0  0  0  0  0  0  0  0  0
  1  2  1  0
  2  3  1  0
  3  4  2  0
  4  5  1  0
  5  6  2  0
  6  7  1  0
  7  8  2  0
  7  9  1  0
  9 10  1  0
 10 11  1  0
 11 12  1  0
 12 13  1  0
 13 14  2  0
 13 15  2  0
 13 16  1  0
 16 17  2  0
 17 18  1  0
 18 19  2  0
 19 20  1  0
  6 21  1  0
 21 22  2  0
 22  3  1  0
 20 16  1  0
  1 23  1  0
  1 24  1  0
  1 25  1  0
  4 26  1  0
  5 27  1  0
 10 28  1  0
 10 29  1  0
 11 30  1  0
 11 31  1  0
 12 32  1  0
 17 33  1  0
 18 34  1  0
 19 35  1  0
 21 36  1  0
 22 37  1  0
M  CHG  1   9  -1
M  END
>  <UniqueID>  (5) 
4

>  <SMILES>  (5) 
COc1ccc(C(=O)[N-]CCNS(=O)(=O)c2cccs2)cc1

>  <Energy>  (5) 
61.592160421780974

>  <Genealogy>  (5) 
COc1ccc(C(=O)[N-]CCNS(=O)(=O)c2cccs2)cc1 (protonated)
COc1ccc(C(=O)[N-]CCNS(=O)(=O)c2cccs2)cc1 (3D coordinates assigned)
COc1ccc(C(=O)[N-]CCNS(=O)(=O)c2cccs2)cc1 (optimized conformer: 61.592160421780974 kcal/mol)

>  <smiles>  (5) 
COc1ccc(C(=O)NCCNS(=O)(=O)c2cccs2)cc1

>  <score_type>  (5) 
oracle

>  <origin>  (5) 
adg

>  <m_score__min__energy>  (5) 
-9.6600000000000001

>  <m_primary>  (5) 
energy

$$$$
5:0
     RDKit          3D

 28 29  0  0  0  0  0  0  0  0999 V2000
   -5.9610   25.2380  -29.2010 N   0  0  0  0  0  0  0  0  0  0  0  0
   -4.9990   24.6260  -30.5020 S   0  0  0  0  0  0  0  0  0  0  0  0
   -5.8590   24.4080  -31.7130 O   0  0  0  0  0  0  0  0  0  0  0  0
   -3.9520   25.6540  -30.8320 O   0  0  0  0  0  0  0  0  0  0  0  0
   -4.2140   23.1040  -30.0480 C   0  0  0  0  0  0  0  0  0  0  0  0
   -3.6840   22.9910  -28.7510 C   0  0  0  0  0  0  0  0  0  0  0  0
   -3.0930   21.8010  -28.3240 C   0  0  0  0  0  0  0  0  0  0  0  0
   -3.0250   20.7070  -29.1830 C   0  0  0  0  0  0  0  0  0  0  0  0
   -3.5340   20.8050  -30.4790 C   0  0  0  0  0  0  0  0  0  0  0  0
   -4.1080   22.0020  -30.9330 C   0  0  0  0  0  0  0  0  0  0  0  0
   -4.7160   22.0440  -32.6300 S   0  0  0  0  0  0  0  0  0  0  0  0
   -6.2470   21.1880  -32.2510 C   0  0  0  0  0  0  0  0  0  0  0  0
   -7.2920   21.8660  -31.6050 C   0  0  0  0  0  0  0  0  0  0  0  0
   -8.4870   21.1990  -31.3170 C   0  0  0  0  0  0  0  0  0  0  0  0
   -8.6480   19.8600  -31.6840 C   0  0  0  0  0  0  0  0  0  0  0  0
   -7.6190   19.1900  -32.3500 C   0  0  0  0  0  0  0  0  0  0  0  0
   -6.4230   19.8540  -32.6390 C   0  0  0  0  0  0  0  0  0  0  0  0
   -5.3690   25.9220  -28.6780 H   0  0  0  0  0  0  0  0  0  0  0  0
   -6.1440   24.4390  -28.5550 H   0  0  0  0  0  0  0  0  0  0  0  0
   -3.7356   23.8496  -28.0653 H   0  0  0  0  0  0  0  0  0  0  0  0
   -2.6801   21.7271  -27.3071 H   0  0  0  0  0  0  0  0  0  0  0  0
   -2.5703   19.7659  -28.8403 H   0  0  0  0  0  0  0  0  0  0  0  0
   -3.4846   19.9354  -31.1508 H   0  0  0  0  0  0  0  0  0  0  0  0
   -7.1712   22.9229  -31.3249 H   0  0  0  0  0  0  0  0  0  0  0  0
   -9.3012   21.7289  -30.8010 H   0  0  0  0  0  0  0  0  0  0  0  0
   -9.5849   19.3339  -31.4484 H   0  0  0  0  0  0  0  0  0  0  0  0
   -7.7498   18.1391  -32.6473 H   0  0  0  0  0  0  0  0  0  0  0  0
   -5.6182   19.3272  -33.1726 H   0  0  0  0  0  0  0  0  0  0  0  0
  1  2  1  0
  2  3  2  0
  2  4  2  0
  2  5  1  0
  5  6  2  0
  6  7  1  0
  7  8  2  0
  8  9  1  0
  9 10  2  0
 10 11  1  0
 11 12  1  0
 12 13  2  0
 13 14  1  0
 14 15  2  0
 15 16  1  0
 16 17  2  0
 10  5  1  0
 17 12  1  0
  1 18  1  0
  1 19  1  0
  6 20  1  0
  7 21  1  0
  8 22  1  0
  9 23  1  0
 13 24  1  0
 14 25  1  0
 15 26  1  0
 16 27  1  0
 17 28  1  0
M  END
>  <UniqueID>  (6) 
5

>  <SMILES>  (6) 
NS(=O)(=O)c1ccccc1Sc1ccccc1

>  <Energy>  (6) 
25.947377228270142

>  <Genealogy>  (6) 
NS(=O)(=O)c1ccccc1Sc1ccccc1 (3D coordinates assigned)
NS(=O)(=O)c1ccccc1Sc1ccccc1 (optimized conformer: 25.947377228270142 kcal/mol)

>  <smiles>  (6) 
NS(=O)(=O)c1ccccc1Sc1ccccc1

>  <score_type>  (6) 
oracle

>  <origin>  (6) 
adg

>  <m_score__min__energy>  (6) 
-8.0199999999999996

>  <m_primary>  (6) 
energy

$$$$
6:0
     RDKit          3D

 41 43  0  0  0  0  0  0  0  0999 V2000
   -5.5450   16.6230  -34.1550 C   0  0  0  0  0  0  0  0  0  0  0  0
   -6.6930   16.8250  -33.3380 O   0  0  0  0  0  0  0  0  0  0  0  0
   -7.1610   18.0830  -32.9270 C   0  0  0  0  0  0  0  0  0  0  0  0
   -6.6060   19.2870  -33.4010 C   0  0  0  0  0  0  0  0  0  0  0  0
   -7.1030   20.5150  -32.9560 C   0  0  0  0  0  0  0  0  0  0  0  0
   -8.1490   20.5610  -32.0210 C   0  0  0  0  0  0  0  0  0  0  0  0
   -8.6900   21.8540  -31.5560 C   0  0  0  0  0  0  0  0  0  0  0  0
   -9.8870   21.9130  -31.1720 O   0  0  0  0  0  0  0  0  0  0  0  0
   -7.8980   23.0490  -31.5220 N   0  0  0  0  0  0  0  0  0  0  0  0
   -6.4620   23.1260  -31.2470 C   0  0  0  0  0  0  0  0  0  0  0  0
   -5.9020   24.5120  -31.5870 C   0  0  0  0  0  0  0  0  0  0  0  0
   -5.3110   25.2280  -30.3650 C   0  0  0  0  0  0  0  0  0  0  0  0
   -3.8550   25.3060  -30.4690 N   0  0  0  0  0  0  0  0  0  0  0  0
   -3.0290   24.6800  -29.6860 C   0  0  0  0  0  0  0  0  0  0  0  0
   -1.9040   25.2730  -29.2110 N   0  0  0  0  0  0  0  0  0  0  0  0
   -1.3630   24.2980  -28.4650 C   0  0  0  0  0  0  0  0  0  0  0  0
   -0.1820   24.3450  -27.7280 C   0  0  0  0  0  0  0  0  0  0  0  0
    0.1900   23.1900  -27.0150 C   0  0  0  0  0  0  0  0  0  0  0  0
   -0.6220   22.0330  -27.0560 C   0  0  0  0  0  0  0  0  0  0  0  0
   -1.8090   22.0230  -27.8110 C   0  0  0  0  0  0  0  0  0  0  0  0
   -2.1450   23.1830  -28.5040 C   0  0  0  0  0  0  0  0  0  0  0  0
   -3.2190   23.3960  -29.2770 N   0  0  0  0  0  0  0  0  0  0  0  0
   -8.7180   19.3610  -31.5700 C   0  0  0  0  0  0  0  0  0  0  0  0
   -8.2200   18.1330  -32.0140 C   0  0  0  0  0  0  0  0  0  0  0  0
   -4.6630   16.4678  -33.5162 H   0  0  0  0  0  0  0  0  0  0  0  0
   -5.6981   15.7380  -34.7901 H   0  0  0  0  0  0  0  0  0  0  0  0
   -5.3868   17.5071  -34.7901 H   0  0  0  0  0  0  0  0  0  0  0  0
   -5.7778   19.2610  -34.1245 H   0  0  0  0  0  0  0  0  0  0  0  0
   -6.6720   21.4511  -33.3407 H   0  0  0  0  0  0  0  0  0  0  0  0
   -6.2904   22.9224  -30.1797 H   0  0  0  0  0  0  0  0  0  0  0  0
   -5.9487   22.3815  -31.8733 H   0  0  0  0  0  0  0  0  0  0  0  0
   -5.1118   24.3964  -32.3434 H   0  0  0  0  0  0  0  0  0  0  0  0
   -6.7358   25.1249  -31.9602 H   0  0  0  0  0  0  0  0  0  0  0  0
   -5.7244   26.2457  -30.3073 H   0  0  0  0  0  0  0  0  0  0  0  0
   -5.5721   24.6595  -29.4602 H   0  0  0  0  0  0  0  0  0  0  0  0
    0.4383   25.2531  -27.7041 H   0  0  0  0  0  0  0  0  0  0  0  0
    1.1170   23.1873  -26.4229 H   0  0  0  0  0  0  0  0  0  0  0  0
   -0.3237   21.1355  -26.4942 H   0  0  0  0  0  0  0  0  0  0  0  0
   -2.4495   21.1297  -27.8524 H   0  0  0  0  0  0  0  0  0  0  0  0
   -9.5605   19.3865  -30.8632 H   0  0  0  0  0  0  0  0  0  0  0  0
   -8.6644   17.1978  -31.6425 H   0  0  0  0  0  0  0  0  0  0  0  0
  1  2  1  0
  2  3  1  0
  3  4  2  0
  4  5  1  0
  5  6  2  0
  6  7  1  0
  7  8  2  0
  7  9  1  0
  9 10  1  0
 10 11  1  0
 11 12  1  0
 12 13  1  0
 13 14  2  3
 14 15  1  0
 15 16  1  0
 16 17  2  0
 17 18  1  0
 18 19  2  0
 19 20  1  0
 20 21  2  0
 21 22  1  0
  6 23  1  0
 23 24  2  0
 24  3  1  0
 22 14  1  0
 21 16  1  0
  1 25  1  0
  1 26  1  0
  1 27  1  0
  4 28  1  0
  5 29  1  0
 10 30  1  0
 10 31  1  0
 11 32  1  0
 11 33  1  0
 12 34  1  0
 12 35  1  0
 17 36  1  0
 18 37  1  0
 19 38  1  0
 20 39  1  0
 23 40  1  0
 24 41  1  0
M  CHG  3   9  -1  15  -1  22  -1
M  END
>  <UniqueID>  (7) 
6

>  <SMILES>  (7) 
COc1ccc(C(=O)[N-]CCCN=c2[n-]c3ccccc3[n-]2)cc1

>  <Energy>  (7) 
78.19654278605734

>  <Genealogy>  (7) 
COc1ccc(C(=O)[N-]CCCN=c2[n-]c3ccccc3[n-]2)cc1 (protonated)
COc1ccc(C(=O)[N-]CCCN=c2[n-]c3ccccc3[n-]2)cc1 (3D coordinates assigned)
COc1ccc(C(=O)[N-]CCCN=c2[n-]c3ccccc3[n-]2)cc1 (optimized conformer: 78.19654278605734 kcal/mol)

>  <smiles>  (7) 
COc1ccc(C(=O)NCCCN=c2[nH]c3ccccc3[nH]2)cc1

>  <score_type>  (7) 
oracle

>  <origin>  (7) 
adg

>  <m_score__min__energy>  (7) 
-10.74

>  <m_primary>  (7) 
energy

$$$$
7:0
     RDKit          3D

 45 47  0  0  0  0  0  0  0  0999 V2000
    0.8830   17.1290  -27.8240 C   0  0  0  0  0  0  0  0  0  0  0  0
    0.6960   18.5350  -27.7150 O   0  0  0  0  0  0  0  0  0  0  0  0
   -0.5660   19.1210  -27.5760 C   0  0  0  0  0  0  0  0  0  0  0  0
   -1.5020   18.5420  -26.7220 C   0  0  0  0  0  0  0  0  0  0  0  0
   -2.7510   19.1550  -26.5780 C   0  0  0  0  0  0  0  0  0  0  0  0
   -3.7880   18.5490  -25.6790 C   0  0  0  0  0  0  0  0  0  0  0  0
   -3.0390   20.2770  -27.2990 N   0  0  0  0  0  0  0  0  0  0  0  0
   -2.1180   20.8210  -28.1470 C   0  0  0  0  0  0  0  0  0  0  0  0
   -2.4170   22.0180  -28.8900 N   0  0  0  0  0  0  0  0  0  0  0  0
   -2.8500   23.2190  -28.1630 C   0  0  0  0  0  0  0  0  0  0  0  0
   -3.1340   24.3920  -29.1120 C   0  0  0  0  0  0  0  0  0  0  0  0
   -3.8740   23.9300  -30.2970 N   0  0  0  0  0  0  0  0  0  0  0  0
   -4.9490   24.7160  -30.8480 C   0  0  0  0  0  0  0  0  0  0  0  0
   -5.2190   25.8480  -30.3600 O   0  0  0  0  0  0  0  0  0  0  0  0
   -5.6780   24.2330  -31.9850 N   0  0  0  0  0  0  0  0  0  0  0  0
   -6.6290   23.1590  -32.0000 C   0  0  0  0  0  0  0  0  0  0  0  0
   -6.1860   21.8740  -32.3430 C   0  0  0  0  0  0  0  0  0  0  0  0
   -7.0760   20.7960  -32.3500 C   0  0  0  0  0  0  0  0  0  0  0  0
   -8.4140   20.9910  -31.9980 C   0  0  0  0  0  0  0  0  0  0  0  0
   -9.2770   19.9450  -32.0010 F   0  0  0  0  0  0  0  0  0  0  0  0
   -8.8610   22.2640  -31.6310 C   0  0  0  0  0  0  0  0  0  0  0  0
   -7.9720   23.3440  -31.6240 C   0  0  0  0  0  0  0  0  0  0  0  0
   -3.4500   22.7080  -31.0000 C   0  0  0  0  0  0  0  0  0  0  0  0
   -2.2180   22.0810  -30.3430 C   0  0  0  0  0  0  0  0  0  0  0  0
   -0.8920   20.2470  -28.2640 N   0  0  0  0  0  0  0  0  0  0  0  0
    0.9417   16.6878  -26.8181 H   0  0  0  0  0  0  0  0  0  0  0  0
    0.0357   16.6876  -28.3691 H   0  0  0  0  0  0  0  0  0  0  0  0
    1.8163   16.9244  -28.3691 H   0  0  0  0  0  0  0  0  0  0  0  0
   -1.2634   17.6202  -26.1713 H   0  0  0  0  0  0  0  0  0  0  0  0
   -3.5049   18.7144  -24.6290 H   0  0  0  0  0  0  0  0  0  0  0  0
   -4.7629   19.0196  -25.8744 H   0  0  0  0  0  0  0  0  0  0  0  0
   -3.8566   17.4687  -25.8744 H   0  0  0  0  0  0  0  0  0  0  0  0
   -3.9660   20.7390  -27.1680 H   0  0  0  0  0  0  0  0  0  0  0  0
   -3.7674   22.9843  -27.6033 H   0  0  0  0  0  0  0  0  0  0  0  0
   -2.0372   23.5184  -27.4850 H   0  0  0  0  0  0  0  0  0  0  0  0
   -3.7331   25.1481  -28.5834 H   0  0  0  0  0  0  0  0  0  0  0  0
   -2.1768   24.8254  -29.4375 H   0  0  0  0  0  0  0  0  0  0  0  0
   -5.1308   21.7128  -32.6085 H   0  0  0  0  0  0  0  0  0  0  0  0
   -6.7226   19.7934  -32.6329 H   0  0  0  0  0  0  0  0  0  0  0  0
   -9.9129   22.4164  -31.3475 H   0  0  0  0  0  0  0  0  0  0  0  0
   -8.3243   24.3417  -31.3234 H   0  0  0  0  0  0  0  0  0  0  0  0
   -4.2746   21.9803  -30.9806 H   0  0  0  0  0  0  0  0  0  0  0  0
   -3.1896   22.9778  -32.0341 H   0  0  0  0  0  0  0  0  0  0  0  0
   -2.0695   21.0648  -30.7371 H   0  0  0  0  0  0  0  0  0  0  0  0
   -1.3320   22.6938  -30.5655 H   0  0  0  0  0  0  0  0  0  0  0  0
  1  2  1  0
  2  3  1  0
  3  4  2  0
  4  5  1  0
  5  6  1  0
  5  7  2  0
  7  8  1  0
  8  9  1  0
  9 10  1  0
 10 11  1  0
 11 12  1  0
 12 13  1  0
 13 14  2  0
 13 15  1  0
 15 16  1  0
 16 17  2  0
 17 18  1  0
 18 19  2  0
 19 20  1  0
 19 21  1  0
 21 22  2  0
 12 23  1  0
 23 24  1  0
  8 25  2  0
 25  3  1  0
 24  9  1  0
 22 16  1  0
  1 26  1  0
  1 27  1  0
  1 28  1  0
  4 29  1  0
  6 30  1  0
  6 31  1  0
  6 32  1  0
  7 33  1  0
 10 34  1  0
 10 35  1  0
 11 36  1  0
 11 37  1  0
 17 38  1  0
 18 39  1  0
 21 40  1  0
 22 41  1  0
 23 42  1  0
 23 43  1  0
 24 44  1  0
 24 45  1  0
M  CHG  2   7   1  15  -1
M  END
>  <UniqueID>  (8) 
7

>  <SMILES>  (8) 
COc1cc(C)[nH+]c(N2CCN(C(=O)[N-]c3ccc(F)cc3)CC2)n1

>  <Energy>  (8) 
49.78013711551445

>  <Genealogy>  (8) 
COc1cc(C)[nH+]c(N2CCN(C(=O)[N-]c3ccc(F)cc3)CC2)n1 (protonated)
COc1cc(C)[nH+]c(N2CCN(C(=O)[N-]c3ccc(F)cc3)CC2)n1 (3D coordinates assigned)
COc1cc(C)[nH+]c(N2CCN(C(=O)[N-]c3ccc(F)cc3)CC2)n1 (nonaromatic ring conformer: 49.78013711551445 kcal/mol)

>  <smiles>  (8) 
COc1cc(C)nc(N2CCN(C(=O)Nc3ccc(F)cc3)CC2)n1

>  <score_type>  (8) 
oracle

>  <origin>  (8) 
adg

>  <m_score__min__energy>  (8) 
-7.9800000000000004

>  <m_primary>  (8) 
energy

$$$$
8:0
     RDKit          3D

 34 34  0  0  0  0  0  0  0  0999 V2000
   -9.1070   18.4520  -31.9390 C   0  0  0  0  0  0  0  0  0  0  0  0
   -7.8080   19.1990  -32.0940 C   0  0  0  0  0  0  0  0  0  0  0  0
   -6.6120   18.4770  -32.2300 C   0  0  0  0  0  0  0  0  0  0  0  0
   -5.3920   19.1390  -32.3690 C   0  0  0  0  0  0  0  0  0  0  0  0
   -5.3390   20.5420  -32.3690 C   0  0  0  0  0  0  0  0  0  0  0  0
   -4.0440   21.2480  -32.5170 C   0  0  0  0  0  0  0  0  0  0  0  0
   -2.9440   20.7250  -33.6150 S   0  0  0  0  0  0  0  0  0  0  0  0
   -3.7450   22.4120  -31.7350 N   0  0  0  0  0  0  0  0  0  0  0  0
   -4.5120   22.7310  -30.6320 O   0  0  0  0  0  0  0  0  0  0  0  0
   -4.8870   24.0450  -30.3380 C   0  0  0  0  0  0  0  0  0  0  0  0
   -4.2350   25.0160  -30.8150 O   0  0  0  0  0  0  0  0  0  0  0  0
   -6.0370   24.2810  -29.5010 N   0  0  0  0  0  0  0  0  0  0  0  0
   -7.1270   23.3630  -29.8650 C   0  0  0  0  0  0  0  0  0  0  0  0
   -6.4710   25.6820  -29.6070 C   0  0  0  0  0  0  0  0  0  0  0  0
   -6.5330   21.2690  -32.2380 C   0  0  0  0  0  0  0  0  0  0  0  0
   -7.7670   20.6130  -32.0870 C   0  0  0  0  0  0  0  0  0  0  0  0
   -9.0240   21.4300  -31.9500 C   0  0  0  0  0  0  0  0  0  0  0  0
   -9.3307   18.3234  -30.8697 H   0  0  0  0  0  0  0  0  0  0  0  0
   -9.9172   19.0222  -32.4171 H   0  0  0  0  0  0  0  0  0  0  0  0
   -9.0217   17.4650  -32.4171 H   0  0  0  0  0  0  0  0  0  0  0  0
   -6.6370   17.3773  -32.2269 H   0  0  0  0  0  0  0  0  0  0  0  0
   -4.4648   18.5576  -32.4794 H   0  0  0  0  0  0  0  0  0  0  0  0
   -2.8950   22.9740  -31.9670 H   0  0  0  0  0  0  0  0  0  0  0  0
   -5.7710   24.0950  -28.5050 H   0  0  0  0  0  0  0  0  0  0  0  0
   -7.5950   22.9688  -28.9509 H   0  0  0  0  0  0  0  0  0  0  0  0
   -7.8791   23.9038  -30.4582 H   0  0  0  0  0  0  0  0  0  0  0  0
   -6.7220   22.5298  -30.4582 H   0  0  0  0  0  0  0  0  0  0  0  0
   -6.6013   26.1027  -28.5990 H   0  0  0  0  0  0  0  0  0  0  0  0
   -5.7102   26.2614  -30.1506 H   0  0  0  0  0  0  0  0  0  0  0  0
   -7.4261   25.7299  -30.1506 H   0  0  0  0  0  0  0  0  0  0  0  0
   -6.5023   22.3685  -32.2538 H   0  0  0  0  0  0  0  0  0  0  0  0
   -9.2510   21.5776  -30.8838 H   0  0  0  0  0  0  0  0  0  0  0  0
   -8.8803   22.4078  -32.4330 H   0  0  0  0  0  0  0  0  0  0  0  0
   -9.8592   20.9017  -32.4330 H   0  0  0  0  0  0  0  0  0  0  0  0
  1  2  1  0
  2  3  2  0
  3  4  1  0
  4  5  2  0
  5  6  1  0
  6  7  2  0
  6  8  1  0
  8  9  1  0
  9 10  1  0
 10 11  2  0
 10 12  1  0
 12 13  1  0
 12 14  1  0
  5 15  1  0
 15 16  2  0
 16 17  1  0
 16  2  1  0
  1 18  1  0
  1 19  1  0
  1 20  1  0
  3 21  1  0
  4 22  1  0
  8 23  1  0
 12 24  1  0
 13 25  1  0
 13 26  1  0
 13 27  1  0
 14 28  1  0
 14 29  1  0
 14 30  1  0
 15 31  1  0
 17 32  1  0
 17 33  1  0
 17 34  1  0
M  CHG  1  12   1
M  END
>  <UniqueID>  (9) 
8

>  <SMILES>  (9) 
Cc1ccc(C(=S)NOC(=O)[NH+](C)C)cc1C

>  <Energy>  (9) 
34.12863794592286

>  <Genealogy>  (9) 
Cc1ccc(C(=S)NOC(=O)[NH+](C)C)cc1C (protonated)
Cc1ccc(C(=S)NOC(=O)[NH+](C)C)cc1C (3D coordinates assigned)
Cc1ccc(C(=S)NOC(=O)[NH+](C)C)cc1C (optimized conformer: 34.12863794592286 kcal/mol)

>  <smiles>  (9) 
Cc1ccc(C(=S)NOC(=O)N(C)C)cc1C

>  <score_type>  (9) 
oracle

>  <origin>  (9) 
adg

>  <m_score__min__energy>  (9) 
-6.4100000000000001

>  <m_primary>  (9) 
energy

$$$$
9:0
     RDKit          3D

 40 42  0  0  1  0  0  0  0  0999 V2000
   -3.1070   18.9220  -26.6380 C   0  0  0  0  0  0  0  0  0  0  0  0
   -2.2160   20.1460  -26.7220 C   0  0  0  0  0  0  0  0  0  0  0  0
   -1.5510   20.1320  -28.0770 C   0  0  0  0  0  0  0  0  0  0  0  0
   -2.2230   21.0430  -29.0050 N   0  0  0  0  0  0  0  0  0  0  0  0
   -2.2970   20.9040  -30.3430 C   0  0  0  0  0  0  0  0  0  0  0  0
   -3.0010   21.9510  -30.8390 N   0  0  0  0  0  0  0  0  0  0  0  0
   -3.3790   22.7610  -29.8330 C   0  0  0  0  0  0  0  0  0  0  0  0
   -4.1010   23.9420  -29.7990 C   0  0  0  0  0  0  0  0  0  0  0  0
   -4.5660   24.4940  -30.8420 N   0  0  0  0  0  0  0  0  0  0  0  0
   -5.9350   24.5820  -31.2440 C   0  0  0  0  0  0  0  0  0  0  0  0
   -6.5270   23.2550  -31.5680 C   0  0  0  0  0  0  0  0  0  0  0  0
   -7.8280   22.9150  -31.1770 C   0  0  0  0  0  0  0  0  0  0  0  0
   -8.3980   21.7110  -31.4570 C   0  0  0  0  0  0  0  0  0  0  0  0
   -7.6970   20.7510  -32.1580 C   0  0  0  0  0  0  0  0  0  0  0  0
   -8.3770   19.4640  -32.4300 C   0  0  0  0  0  0  0  0  0  0  0  0
   -6.4180   21.0460  -32.5600 C   0  0  0  0  0  0  0  0  0  0  0  0
   -5.8500   22.2780  -32.2670 C   0  0  0  0  0  0  0  0  0  0  0  0
   -4.3260   24.5390  -28.6150 N   0  0  0  0  0  0  0  0  0  0  0  0
   -3.8430   23.9720  -27.4990 C   0  0  0  0  0  0  0  0  0  0  0  0
   -3.1310   22.8100  -27.5220 N   0  0  0  0  0  0  0  0  0  0  0  0
   -2.8790   22.1740  -28.6860 C   0  0  0  0  0  0  0  0  0  0  0  0
   -3.2886   18.6725  -25.5822 H   0  0  0  0  0  0  0  0  0  0  0  0
   -4.0655   19.1314  -27.1354 H   0  0  0  0  0  0  0  0  0  0  0  0
   -2.6132   18.0742  -27.1354 H   0  0  0  0  0  0  0  0  0  0  0  0
   -2.8200   21.0585  -26.6096 H   0  0  0  0  0  0  0  0  0  0  0  0
   -1.4624   20.1319  -25.9208 H   0  0  0  0  0  0  0  0  0  0  0  0
   -0.5018   20.4430  -27.9652 H   0  0  0  0  0  0  0  0  0  0  0  0
   -1.6114   19.1121  -28.4845 H   0  0  0  0  0  0  0  0  0  0  0  0
   -1.8615   20.0829  -30.9313 H   0  0  0  0  0  0  0  0  0  0  0  0
   -6.5135   25.0345  -30.4251 H   0  0  0  0  0  0  0  0  0  0  0  0
   -5.9736   25.1940  -32.1572 H   0  0  0  0  0  0  0  0  0  0  0  0
   -8.4173   23.6561  -30.6170 H   0  0  0  0  0  0  0  0  0  0  0  0
   -9.4247   21.5018  -31.1221 H   0  0  0  0  0  0  0  0  0  0  0  0
   -8.6344   18.9769  -31.4779 H   0  0  0  0  0  0  0  0  0  0  0  0
   -9.2950   19.6491  -33.0071 H   0  0  0  0  0  0  0  0  0  0  0  0
   -7.7068   18.8100  -33.0071 H   0  0  0  0  0  0  0  0  0  0  0  0
   -5.8373   20.2983  -33.1201 H   0  0  0  0  0  0  0  0  0  0  0  0
   -4.8232   22.4823  -32.6044 H   0  0  0  0  0  0  0  0  0  0  0  0
   -4.8660   25.4270  -28.5590 H   0  0  0  0  0  0  0  0  0  0  0  0
   -4.0281   24.4621  -26.5317 H   0  0  0  0  0  0  0  0  0  0  0  0
  1  2  1  0
  2  3  1  0
  3  4  1  0
  4  5  1  0
  5  6  2  0
  6  7  1  0
  7  8  1  0
  8  9  2  0
  9 10  1  0
 10 11  1  0
 11 12  2  0
 12 13  1  0
 13 14  2  0
 14 15  1  0
 14 16  1  0
 16 17  2  0
  8 18  1  0
 18 19  1  0
 19 20  2  0
 20 21  1  0
 21  4  1  0
 21  7  2  0
 17 11  1  0
  1 22  1  0
  1 23  1  0
  1 24  1  0
  2 25  1  0
  2 26  1  0
  3 27  1  0
  3 28  1  0
  5 29  1  0
 10 30  1  0
 10 31  1  0
 12 32  1  0
 13 33  1  0
 15 34  1  0
 15 35  1  0
 15 36  1  0
 16 37  1  0
 17 38  1  0
 18 39  1  0
 19 40  1  0
M  END
>  <smiles>  (10) 
CCCn1cnc2c(=NCc3ccc(C)cc3)[nH]cnc21

>  <score_type>  (10) 
oracle

>  <origin>  (10) 
adg

>  <m_score__min__energy>  (10) 
-7.4699999999999998

>  <m_primary>  (10) 
energy

$$$$
10:0
     RDKit          3D

 46 49  0  0  0  0  0  0  0  0999 V2000
   -2.1767   23.3143  -26.6243 H   0  0  0  0  0  0  0  0  0  0  0  0
   -2.5180   23.1930  -27.6630 C   0  0  0  0  0  0  0  0  0  0  0  0
   -2.5060   21.9310  -28.2560 C   0  0  0  0  0  0  0  0  0  0  0  0
   -2.1550   21.0589  -27.6848 H   0  0  0  0  0  0  0  0  0  0  0  0
   -2.9390   21.7730  -29.5740 C   0  0  0  0  0  0  0  0  0  0  0  0
   -2.9314   20.7747  -30.0359 H   0  0  0  0  0  0  0  0  0  0  0  0
   -3.3850   22.8830  -30.3150 C   0  0  0  0  0  0  0  0  0  0  0  0
   -3.8610   22.6990  -31.7330 C   0  0  0  0  0  0  0  0  0  0  0  0
   -4.7621   23.3067  -31.9023 H   0  0  0  0  0  0  0  0  0  0  0  0
   -3.0764   23.0178  -32.4350 H   0  0  0  0  0  0  0  0  0  0  0  0
   -4.1730   21.2900  -31.9450 N   0  0  0  0  0  0  0  0  0  0  0  0
   -5.2470   20.6370  -32.3210 C   0  0  0  0  0  0  0  0  0  0  0  0
   -6.5900   20.9650  -31.9290 C   0  0  0  0  0  0  0  0  0  0  0  0
   -7.6630   20.2580  -32.5440 C   0  0  0  0  0  0  0  0  0  0  0  0
   -7.4110   19.2270  -33.3950 N   0  0  0  0  0  0  0  0  0  0  0  0
   -8.2200   18.7030  -33.8010 H   0  0  0  0  0  0  0  0  0  0  0  0
   -6.1520   18.8460  -33.7220 C   0  0  0  0  0  0  0  0  0  0  0  0
   -5.9550   17.7610  -34.5940 C   0  0  0  0  0  0  0  0  0  0  0  0
   -6.8238   17.2214  -34.9991 H   0  0  0  0  0  0  0  0  0  0  0  0
   -4.6670   17.3640  -34.9490 C   0  0  0  0  0  0  0  0  0  0  0  0
   -4.5219   16.5125  -35.6301 H   0  0  0  0  0  0  0  0  0  0  0  0
   -3.5630   18.0460  -34.4410 C   0  0  0  0  0  0  0  0  0  0  0  0
   -2.5472   17.7319  -34.7229 H   0  0  0  0  0  0  0  0  0  0  0  0
   -3.7420   19.1260  -33.5760 C   0  0  0  0  0  0  0  0  0  0  0  0
   -2.8639   19.6585  -33.1819 H   0  0  0  0  0  0  0  0  0  0  0  0
   -5.0410   19.5440  -33.2000 C   0  0  0  0  0  0  0  0  0  0  0  0
   -9.1140   20.5460  -32.2200 C   0  0  0  0  0  0  0  0  0  0  0  0
   -9.6968   20.5005  -33.1518 H   0  0  0  0  0  0  0  0  0  0  0  0
   -9.4443   19.7910  -31.4914 H   0  0  0  0  0  0  0  0  0  0  0  0
   -9.3220   21.9140  -31.5840 C   0  0  0  0  0  0  0  0  0  0  0  0
   -9.1343   22.6999  -32.3304 H   0  0  0  0  0  0  0  0  0  0  0  0
  -10.3564   22.0008  -31.2201 H   0  0  0  0  0  0  0  0  0  0  0  0
   -8.3550   22.0730  -30.4230 C   0  0  0  0  0  0  0  0  0  0  0  0
   -8.5584   23.0240  -29.9090 H   0  0  0  0  0  0  0  0  0  0  0  0
   -8.4903   21.2320  -29.7270 H   0  0  0  0  0  0  0  0  0  0  0  0
   -6.9120   22.0720  -30.9300 C   0  0  0  0  0  0  0  0  0  0  0  0
   -6.7186   23.0396  -31.4161 H   0  0  0  0  0  0  0  0  0  0  0  0
   -6.2735   21.8946  -30.0520 H   0  0  0  0  0  0  0  0  0  0  0  0
   -3.4010   24.1600  -29.7160 C   0  0  0  0  0  0  0  0  0  0  0  0
   -3.8620   25.2570  -30.4650 O   0  0  0  0  0  0  0  0  0  0  0  0
   -5.2250   25.6560  -30.5610 C   0  0  0  0  0  0  0  0  0  0  0  0
   -5.6432   25.7784  -29.5510 H   0  0  0  0  0  0  0  0  0  0  0  0
   -5.2902   26.6109  -31.1031 H   0  0  0  0  0  0  0  0  0  0  0  0
   -5.7949   24.8870  -31.1031 H   0  0  0  0  0  0  0  0  0  0  0  0
   -2.9620   24.3030  -28.3840 C   0  0  0  0  0  0  0  0  0  0  0  0
   -2.9693   25.2955  -27.9097 H   0  0  0  0  0  0  0  0  0  0  0  0
  1  2  1  0
  2  3  2  0
  3  4  1  0
  3  5  1  0
  5  6  1  0
  5  7  2  0
  7  8  1  0
  8  9  1  0
  8 10  1  0
  8 11  1  0
 11 12  2  0
 12 13  1  0
 13 14  2  0
 14 15  1  0
 15 16  1  0
 15 17  1  0
 17 18  2  0
 18 19  1  0
 18 20  1  0
 20 21  1  0
 20 22  2  0
 22 23  1  0
 22 24  1  0
 24 25  1  0
 24 26  2  0
 14 27  1  0
 27 28  1  0
 27 29  1  0
 27 30  1  0
 30 31  1  0
 30 32  1  0
 30 33  1  0
 33 34  1  0
 33 35  1  0
 33 36  1  0
 36 37  1  0
 36 38  1  0
  7 39  1  0
 39 40  1  0
 40 41  1  0
 41 42  1  0
 41 43  1  0
 41 44  1  0
 39 45  2  0
 45 46  1  0
 45  2  1  0
 26 12  1  0
 36 13  1  0
 26 17  1  0
M  END
>  <UniqueID>  (11) 
9

>  <SMILES>  (11) 
COc1ccccc1C/N=c1\c2c([nH]c3ccccc13)CCCC2

>  <Energy>  (11) 
66.6939068094079

>  <Genealogy>  (11) 
COc1ccccc1C/N=c1\c2c([nH]c3ccccc13)CCCC2 (cis-trans isomerization)
COc1ccccc1C/N=c1\c2c([nH]c3ccccc13)CCCC2 (3D coordinates assigned)
COc1ccccc1C/N=c1\c2c([nH]c3ccccc13)CCCC2 (nonaromatic ring conformer: 66.6939068094079 kcal/mol)

>  <smiles>  (11) 
COc1ccccc1CN=c1c2c([nH]c3ccccc13)CCCC2

>  <score_type>  (11) 
oracle

>  <origin>  (11) 
adg

>  <m_score__min__energy>  (11) 
-9.6600000000000001

>  <m_primary>  (11) 
energy

$$$$
11:0
     RDKit          3D

 43 47  0  0  0  0  0  0  0  0999 V2000
   -5.3500   16.4510  -32.9350 C   0  0  0  0  0  0  0  0  0  0  0  0
   -6.0860   17.6530  -33.5620 C   0  0  1  0  0  0  0  0  0  0  0  0
   -6.4020   17.3770  -34.9050 O   0  0  0  0  0  0  0  0  0  0  0  0
   -7.3700   17.9600  -32.7820 C   0  0  0  0  0  0  0  0  0  0  0  0
   -6.9720   19.0010  -31.7440 C   0  0  0  0  0  0  0  0  0  0  0  0
   -5.7590   19.6270  -32.2520 N   0  0  0  0  0  0  0  0  0  0  0  0
   -5.1230   20.7750  -31.6290 C   0  0  0  0  0  0  0  0  0  0  0  0
   -3.9810   20.5980  -30.8230 C   0  0  0  0  0  0  0  0  0  0  0  0
   -3.3380   21.6820  -30.1720 C   0  0  0  0  0  0  0  0  0  0  0  0
   -3.8130   22.9990  -30.4630 C   0  0  0  0  0  0  0  0  0  0  0  0
   -4.9610   23.1700  -31.2530 C   0  0  0  0  0  0  0  0  0  0  0  0
   -5.6190   22.0790  -31.8120 C   0  0  0  0  0  0  0  0  0  0  0  0
   -6.7360   22.3220  -32.5420 F   0  0  0  0  0  0  0  0  0  0  0  0
   -3.1070   24.1200  -29.9890 C   0  0  0  0  0  0  0  0  0  0  0  0
   -3.5050   25.2910  -30.2380 O   0  0  0  0  0  0  0  0  0  0  0  0
   -1.9330   23.9130  -29.2760 C   0  0  0  0  0  0  0  0  0  0  0  0
   -1.0190   24.9090  -28.8420 C   0  0  0  0  0  0  0  0  0  0  0  0
   -1.2140   26.1400  -29.0250 O   0  0  0  0  0  0  0  0  0  0  0  0
    0.1040   24.4660  -28.2240 N   0  0  0  0  0  0  0  0  0  0  0  0
   -0.0500   22.8120  -28.2140 S   0  0  0  0  0  0  0  0  0  0  0  0
   -1.5410   22.6190  -28.9590 C   0  0  0  0  0  0  0  0  0  0  0  0
   -2.2590   21.4900  -29.3110 N   0  0  0  0  0  0  0  0  0  0  0  0
   -2.0210   20.1100  -28.7760 C   0  0  0  0  0  0  0  0  0  0  0  0
   -1.2040   20.0140  -27.4970 C   0  0  0  0  0  0  0  0  0  0  0  0
   -2.6930   19.6630  -27.4830 C   0  0  0  0  0  0  0  0  0  0  0  0
   -5.2570   18.9410  -33.4360 C   0  0  0  0  0  0  0  0  0  0  0  0
   -5.3952   16.5248  -31.8384 H   0  0  0  0  0  0  0  0  0  0  0  0
   -5.8310   15.5165  -33.2597 H   0  0  0  0  0  0  0  0  0  0  0  0
   -4.2990   16.4546  -33.2597 H   0  0  0  0  0  0  0  0  0  0  0  0
   -6.7890   18.2050  -35.2950 H   0  0  0  0  0  0  0  0  0  0  0  0
   -8.1421   18.3622  -33.4543 H   0  0  0  0  0  0  0  0  0  0  0  0
   -7.7918   17.0573  -32.3159 H   0  0  0  0  0  0  0  0  0  0  0  0
   -7.7693   19.7498  -31.6278 H   0  0  0  0  0  0  0  0  0  0  0  0
   -6.8083   18.5449  -30.7565 H   0  0  0  0  0  0  0  0  0  0  0  0
   -3.5740   19.5842  -30.6941 H   0  0  0  0  0  0  0  0  0  0  0  0
   -5.3469   24.1842  -31.4331 H   0  0  0  0  0  0  0  0  0  0  0  0
   -1.9736   19.6815  -29.7880 H   0  0  0  0  0  0  0  0  0  0  0  0
   -0.4507   19.2205  -27.3837 H   0  0  0  0  0  0  0  0  0  0  0  0
   -0.5619   20.7043  -26.9302 H   0  0  0  0  0  0  0  0  0  0  0  0
   -3.0112   18.6172  -27.3607 H   0  0  0  0  0  0  0  0  0  0  0  0
   -3.5668   19.9955  -26.9034 H   0  0  0  0  0  0  0  0  0  0  0  0
   -5.3907   19.5705  -34.3281 H   0  0  0  0  0  0  0  0  0  0  0  0
   -4.1825   18.7220  -33.3498 H   0  0  0  0  0  0  0  0  0  0  0  0
  1  2  1  0
  2  3  1  6
  2  4  1  0
  4  5  1  0
  5  6  1  0
  6  7  1  0
  7  8  2  0
  8  9  1  0
  9 10  2  0
 10 11  1  0
 11 12  2  0
 12 13  1  0
 10 14  1  0
 14 15  2  0
 14 16  1  0
 16 17  1  0
 17 18  2  0
 17 19  1  0
 19 20  1  0
 20 21  1  0
 21 22  1  0
 22 23  1  0
 23 24  1  0
 24 25  1  0
  6 26  1  0
 26  2  1  0
 12  7  1  0
 21 16  2  0
 25 23  1  0
 22  9  1  0
  1 27  1  0
  1 28  1  0
  1 29  1  0
  3 30  1  0
  4 31  1  0
  4 32  1  0
  5 33  1  0
  5 34  1  0
  8 35  1  0
 11 36  1  0
 23 37  1  0
 24 38  1  0
 24 39  1  0
 25 40  1  0
 25 41  1  0
 26 42  1  0
 26 43  1  0
M  CHG  1  19  -1
M  END
>  <UniqueID>  (12) 
10

>  <SMILES>  (12) 
C[C@@]1(O)CCN(c2cc3c(cc2F)c(=O)c2c(=O)[n-]sc2n3C2CC2)C1

>  <Energy>  (12) 
385.27732402949545

>  <Genealogy>  (12) 
CC1(O)CCN(c2cc3c(cc2F)c(=O)c2c(=O)[n-]sc2n3C2CC2)C1 (protonated)
C[C@@]1(O)CCN(c2cc3c(cc2F)c(=O)c2c(=O)[n-]sc2n3C2CC2)C1 (chirality)
C[C@@]1(O)CCN(c2cc3c(cc2F)c(=O)c2c(=O)[n-]sc2n3C2CC2)C1 (3D coordinates assigned)
C[C@@]1(O)CCN(c2cc3c(cc2F)c(=O)c2c(=O)[n-]sc2n3C2CC2)C1 (nonaromatic ring conformer: 385.27732402949545 kcal/mol)

>  <smiles>  (12) 
CC1(O)CCN(c2cc3c(cc2F)c(=O)c2c(=O)[nH]sc2n3C2CC2)C1

>  <score_type>  (12) 
oracle

>  <origin>  (12) 
adg

>  <m_score__min__energy>  (12) 
-9.7899999999999991

>  <m_primary>  (12) 
energy

$$$$
12:0
     RDKit          3D

 40 43  0  0  0  0  0  0  0  0999 V2000
   -4.2460   24.9180  -26.5550 C   0  0  0  0  0  0  0  0  0  0  0  0
   -3.1200   24.5710  -27.4230 N   0  0  0  0  0  0  0  0  0  0  0  0
   -3.1630   24.1870  -28.7300 C   0  0  0  0  0  0  0  0  0  0  0  0
   -4.3930   23.9910  -29.5280 C   0  0  0  0  0  0  0  0  0  0  0  0
   -4.7940   24.9490  -30.4760 C   0  0  0  0  0  0  0  0  0  0  0  0
   -5.9660   24.7620  -31.2140 C   0  0  0  0  0  0  0  0  0  0  0  0
   -6.7520   23.6230  -31.0090 C   0  0  0  0  0  0  0  0  0  0  0  0
   -8.2480   23.3790  -31.9660 S   0  0  0  0  0  0  0  0  0  0  0  0
   -7.9960   21.6080  -32.0790 C   0  0  0  0  0  0  0  0  0  0  0  0
   -8.9270   20.7290  -31.5100 C   0  0  0  0  0  0  0  0  0  0  0  0
   -8.7270   19.3470  -31.5920 C   0  0  0  0  0  0  0  0  0  0  0  0
   -7.5990   18.8420  -32.2450 C   0  0  0  0  0  0  0  0  0  0  0  0
   -6.6690   19.7170  -32.8180 C   0  0  0  0  0  0  0  0  0  0  0  0
   -6.8680   21.0990  -32.7350 C   0  0  0  0  0  0  0  0  0  0  0  0
   -6.3710   22.6780  -30.0500 C   0  0  0  0  0  0  0  0  0  0  0  0
   -5.2000   22.8630  -29.3100 C   0  0  0  0  0  0  0  0  0  0  0  0
   -1.8760   23.9830  -29.2240 C   0  0  0  0  0  0  0  0  0  0  0  0
   -1.0360   24.2280  -28.1610 C   0  0  0  0  0  0  0  0  0  0  0  0
    0.3530   24.1580  -28.0770 C   0  0  0  0  0  0  0  0  0  0  0  0
    0.9520   24.4560  -26.8410 C   0  0  0  0  0  0  0  0  0  0  0  0
    0.1590   24.8100  -25.7290 C   0  0  0  0  0  0  0  0  0  0  0  0
   -1.2420   24.8710  -25.8430 C   0  0  0  0  0  0  0  0  0  0  0  0
   -1.8130   24.5750  -27.0850 C   0  0  0  0  0  0  0  0  0  0  0  0
   -3.9403   24.8238  -25.5025 H   0  0  0  0  0  0  0  0  0  0  0  0
   -4.5575   25.9538  -26.7550 H   0  0  0  0  0  0  0  0  0  0  0  0
   -5.0865   24.2372  -26.7550 H   0  0  0  0  0  0  0  0  0  0  0  0
   -4.1828   25.8492  -30.6374 H   0  0  0  0  0  0  0  0  0  0  0  0
   -6.2713   25.5124  -31.9581 H   0  0  0  0  0  0  0  0  0  0  0  0
   -9.8161   21.1261  -30.9983 H   0  0  0  0  0  0  0  0  0  0  0  0
   -9.4572   18.6578  -31.1427 H   0  0  0  0  0  0  0  0  0  0  0  0
   -7.4420   17.7551  -32.3086 H   0  0  0  0  0  0  0  0  0  0  0  0
   -5.7826   19.3183  -33.3330 H   0  0  0  0  0  0  0  0  0  0  0  0
   -6.1376   21.7871  -33.1856 H   0  0  0  0  0  0  0  0  0  0  0  0
   -6.9942   21.7880  -29.8783 H   0  0  0  0  0  0  0  0  0  0  0  0
   -4.9089   22.1206  -28.5524 H   0  0  0  0  0  0  0  0  0  0  0  0
   -1.5919   23.6890  -30.2452 H   0  0  0  0  0  0  0  0  0  0  0  0
    0.9612   23.8785  -28.9499 H   0  0  0  0  0  0  0  0  0  0  0  0
    2.0465   24.4130  -26.7399 H   0  0  0  0  0  0  0  0  0  0  0  0
    0.6393   25.0398  -24.7665 H   0  0  0  0  0  0  0  0  0  0  0  0
   -1.8693   25.1433  -24.9814 H   0  0  0  0  0  0  0  0  0  0  0  0
  1  2  1  0
  2  3  1  0
  3  4  1  0
  4  5  2  0
  5  6  1  0
  6  7  2  0
  7  8  1  0
  8  9  1  0
  9 10  2  0
 10 11  1  0
 11 12  2  0
 12 13  1  0
 13 14  2  0
  7 15  1  0
 15 16  2  0
  3 17  2  0
 17 18  1  0
 18 19  2  0
 19 20  1  0
 20 21  2  0
 21 22  1  0
 22 23  2  0
 23  2  1  0
 16  4  1  0
 23 18  1  0
 14  9  1  0
  1 24  1  0
  1 25  1  0
  1 26  1  0
  5 27  1  0
  6 28  1  0
 10 29  1  0
 11 30  1  0
 12 31  1  0
 13 32  1  0
 14 33  1  0
 15 34  1  0
 16 35  1  0
 17 36  1  0
 19 37  1  0
 20 38  1  0
 21 39  1  0
 22 40  1  0
M  END
>  <UniqueID>  (13) 
11

>  <SMILES>  (13) 
Cn1c(-c2ccc(Sc3ccccc3)cc2)cc2ccccc21

>  <Energy>  (13) 
78.69728473535339

>  <Genealogy>  (13) 
Cn1c(-c2ccc(Sc3ccccc3)cc2)cc2ccccc21 (3D coordinates assigned)
Cn1c(-c2ccc(Sc3ccccc3)cc2)cc2ccccc21 (optimized conformer: 78.69728473535339 kcal/mol)

>  <smiles>  (13) 
Cn1c(-c2ccc(Sc3ccccc3)cc2)cc2ccccc21

>  <score_type>  (13) 
oracle

>  <origin>  (13) 
adg

>  <m_score__min__energy>  (13) 
-8.5899999999999999

>  <m_primary>  (13) 
energy

$$$$
13:0
     RDKit          3D

 63 65  0  0  0  0  0  0  0  0999 V2000
    0.3370   17.7980  -27.8440 C   0  0  0  0  0  0  0  0  0  0  0  0
   -0.6800   18.8820  -28.1990 C   0  0  0  0  0  0  0  0  0  0  0  0
   -1.2350   19.5210  -26.9880 N   0  0  0  0  0  0  0  0  0  0  0  0
   -2.7110   19.4400  -26.9580 C   0  0  0  0  0  0  0  0  0  0  0  0
   -3.1600   18.5910  -25.7740 C   0  0  0  0  0  0  0  0  0  0  0  0
   -0.6920   21.1860  -26.8250 S   0  0  0  0  0  0  0  0  0  0  0  0
    0.7820   21.2390  -27.1170 O   0  0  0  0  0  0  0  0  0  0  0  0
   -0.8920   21.6700  -25.4150 O   0  0  0  0  0  0  0  0  0  0  0  0
   -1.5430   22.2900  -27.9120 C   0  0  0  0  0  0  0  0  0  0  0  0
   -2.3210   21.7890  -28.9680 C   0  0  0  0  0  0  0  0  0  0  0  0
   -2.9930   22.6650  -29.8240 C   0  0  0  0  0  0  0  0  0  0  0  0
   -2.8850   24.0550  -29.6450 C   0  0  0  0  0  0  0  0  0  0  0  0
   -3.5720   24.9780  -30.5020 N   0  0  0  0  0  0  0  0  0  0  0  0
   -4.9770   24.9630  -30.7910 C   0  0  0  0  0  0  0  0  0  0  0  0
   -5.5480   26.0510  -31.0670 O   0  0  0  0  0  0  0  0  0  0  0  0
   -5.7540   23.7030  -30.8280 C   0  0  0  0  0  0  0  0  0  0  0  0
   -6.9130   23.5520  -30.0480 C   0  0  0  0  0  0  0  0  0  0  0  0
   -7.6390   22.3600  -30.0840 C   0  0  0  0  0  0  0  0  0  0  0  0
   -7.2130   21.3040  -30.8910 C   0  0  0  0  0  0  0  0  0  0  0  0
   -6.0530   21.4330  -31.6670 C   0  0  0  0  0  0  0  0  0  0  0  0
   -5.5080   20.0930  -32.6780 S   0  0  0  0  0  0  0  0  0  0  0  0
   -6.0600   18.8040  -32.1370 O   0  0  0  0  0  0  0  0  0  0  0  0
   -6.0410   20.2750  -34.0720 O   0  0  0  0  0  0  0  0  0  0  0  0
   -3.7630   20.0020  -32.7230 N   0  0  0  0  0  0  0  0  0  0  0  0
   -3.3260   18.7590  -33.3940 C   0  0  0  0  0  0  0  0  0  0  0  0
   -1.7830   18.6670  -33.4950 C   0  0  0  0  0  0  0  0  0  0  0  0
   -1.0400   19.1120  -32.2200 C   0  0  0  0  0  0  0  0  0  0  0  0
   -1.1830   20.6170  -31.8910 C   0  0  0  0  0  0  0  0  0  0  0  0
   -1.7440   21.4880  -33.0300 C   0  0  0  0  0  0  0  0  0  0  0  0
   -3.2230   21.2190  -33.3620 C   0  0  0  0  0  0  0  0  0  0  0  0
   -5.3230   22.6300  -31.6270 C   0  0  0  0  0  0  0  0  0  0  0  0
   -2.1240   24.5520  -28.5800 C   0  0  0  0  0  0  0  0  0  0  0  0
   -1.4470   23.6760  -27.7260 C   0  0  0  0  0  0  0  0  0  0  0  0
    0.4162   17.7136  -26.7501 H   0  0  0  0  0  0  0  0  0  0  0  0
    0.0084   16.8355  -28.2632 H   0  0  0  0  0  0  0  0  0  0  0  0
    1.3184   18.0646  -28.2632 H   0  0  0  0  0  0  0  0  0  0  0  0
   -0.1853   19.6489  -28.8131 H   0  0  0  0  0  0  0  0  0  0  0  0
   -1.5071   18.4119  -28.7511 H   0  0  0  0  0  0  0  0  0  0  0  0
   -3.1300   20.4524  -26.8606 H   0  0  0  0  0  0  0  0  0  0  0  0
   -3.0674   18.9783  -27.8906 H   0  0  0  0  0  0  0  0  0  0  0  0
   -2.8914   19.0988  -24.8359 H   0  0  0  0  0  0  0  0  0  0  0  0
   -4.2502   18.4507  -25.8159 H   0  0  0  0  0  0  0  0  0  0  0  0
   -2.6623   17.6109  -25.8159 H   0  0  0  0  0  0  0  0  0  0  0  0
   -2.4017   20.7028  -29.1219 H   0  0  0  0  0  0  0  0  0  0  0  0
   -3.6098   22.2649  -30.6422 H   0  0  0  0  0  0  0  0  0  0  0  0
   -7.2504   24.3782  -29.4049 H   0  0  0  0  0  0  0  0  0  0  0  0
   -8.5487   22.2529  -29.4750 H   0  0  0  0  0  0  0  0  0  0  0  0
   -7.7895   20.3675  -30.9181 H   0  0  0  0  0  0  0  0  0  0  0  0
   -3.6966   17.8965  -32.8206 H   0  0  0  0  0  0  0  0  0  0  0  0
   -3.7342   18.7622  -34.4154 H   0  0  0  0  0  0  0  0  0  0  0  0
   -1.5125   17.6217  -33.7051 H   0  0  0  0  0  0  0  0  0  0  0  0
   -1.4765   19.3552  -34.2966 H   0  0  0  0  0  0  0  0  0  0  0  0
   -1.4362   18.5349  -31.3715 H   0  0  0  0  0  0  0  0  0  0  0  0
    0.0298   18.9295  -32.3995 H   0  0  0  0  0  0  0  0  0  0  0  0
   -1.8558   20.7136  -31.0261 H   0  0  0  0  0  0  0  0  0  0  0  0
   -0.1643   20.9851  -31.6994 H   0  0  0  0  0  0  0  0  0  0  0  0
   -1.6426   22.5438  -32.7385 H   0  0  0  0  0  0  0  0  0  0  0  0
   -1.1673   21.2370  -33.9325 H   0  0  0  0  0  0  0  0  0  0  0  0
   -3.8170   22.0812  -33.0246 H   0  0  0  0  0  0  0  0  0  0  0  0
   -3.2857   21.0659  -34.4495 H   0  0  0  0  0  0  0  0  0  0  0  0
   -4.4057   22.7298  -32.2258 H   0  0  0  0  0  0  0  0  0  0  0  0
   -2.0584   25.6375  -28.4143 H   0  0  0  0  0  0  0  0  0  0  0  0
   -0.8358   24.0766  -26.9038 H   0  0  0  0  0  0  0  0  0  0  0  0
  1  2  1  0
  2  3  1  0
  3  4  1  0
  4  5  1  0
  3  6  1  0
  6  7  2  0
  6  8  2  0
  6  9  1  0
  9 10  2  0
 10 11  1  0
 11 12  2  0
 12 13  1  0
 13 14  1  0
 14 15  2  0
 14 16  1  0
 16 17  2  0
 17 18  1  0
 18 19  2  0
 19 20  1  0
 20 21  1  0
 21 22  2  0
 21 23  2  0
 21 24  1  0
 24 25  1  0
 25 26  1  0
 26 27  1  0
 27 28  1  0
 28 29  1  0
 29 30  1  0
 20 31  2  0
 12 32  1  0
 32 33  2  0
 33  9  1  0
 31 16  1  0
 30 24  1  0
  1 34  1  0
  1 35  1  0
  1 36  1  0
  2 37  1  0
  2 38  1  0
  4 39  1  0
  4 40  1  0
  5 41  1  0
  5 42  1  0
  5 43  1  0
 10 44  1  0
 11 45  1  0
 17 46  1  0
 18 47  1  0
 19 48  1  0
 25 49  1  0
 25 50  1  0
 26 51  1  0
 26 52  1  0
 27 53  1  0
 27 54  1  0
 28 55  1  0
 28 56  1  0
 29 57  1  0
 29 58  1  0
 30 59  1  0
 30 60  1  0
 31 61  1  0
 32 62  1  0
 33 63  1  0
M  CHG  1  13  -1
M  END
>  <UniqueID>  (14) 
12

>  <SMILES>  (14) 
CCN(CC)S(=O)(=O)c1ccc([N-]C(=O)c2cccc(S(=O)(=O)N3CCCCCC3)c2)cc1

>  <Energy>  (14) 
75.94061443190724

>  <Genealogy>  (14) 
CCN(CC)S(=O)(=O)c1ccc([N-]C(=O)c2cccc(S(=O)(=O)N3CCCCCC3)c2)cc1 (protonated)
CCN(CC)S(=O)(=O)c1ccc([N-]C(=O)c2cccc(S(=O)(=O)N3CCCCCC3)c2)cc1 (3D coordinates assigned)
CCN(CC)S(=O)(=O)c1ccc([N-]C(=O)c2cccc(S(=O)(=O)N3CCCCCC3)c2)cc1 (nonaromatic ring conformer: 75.94061443190724 kcal/mol)

>  <smiles>  (14) 
CCN(CC)S(=O)(=O)c1ccc(NC(=O)c2cccc(S(=O)(=O)N3CCCCCC3)c2)cc1

>  <score_type>  (14) 
oracle

>  <origin>  (14) 
adg

>  <m_score__min__energy>  (14) 
-9.8699999999999992

>  <m_primary>  (14) 
energy

$$$$
14:0
     RDKit          3D

 45 48  0  0  0  0  0  0  0  0999 V2000
   -0.7090   26.8280  -23.8930 C   0  0  0  0  0  0  0  0  0  0  0  0
   -0.8210   27.0100  -25.3010 O   0  0  0  0  0  0  0  0  0  0  0  0
   -1.4830   26.1230  -26.1640 C   0  0  0  0  0  0  0  0  0  0  0  0
   -2.7470   25.5820  -25.8620 C   0  0  0  0  0  0  0  0  0  0  0  0
   -3.3680   24.7010  -26.7530 C   0  0  0  0  0  0  0  0  0  0  0  0
   -2.7440   24.3520  -27.9610 C   0  0  0  0  0  0  0  0  0  0  0  0
   -3.4060   23.4160  -28.8960 C   0  0  0  0  0  0  0  0  0  0  0  0
   -3.2830   22.0230  -28.9880 C   0  0  0  0  0  0  0  0  0  0  0  0
   -2.4200   21.1350  -28.1500 C   0  0  0  0  0  0  0  0  0  0  0  0
   -4.0910   21.5620  -29.9720 N   0  0  0  0  0  0  0  0  0  0  0  0
   -4.7000   22.6010  -30.5180 N   0  0  0  0  0  0  0  0  0  0  0  0
   -5.6170   22.6060  -31.5240 C   0  0  0  0  0  0  0  0  0  0  0  0
   -6.0150   21.3640  -32.2190 C   0  0  0  0  0  0  0  0  0  0  0  0
   -7.3380   20.9120  -32.0900 C   0  0  0  0  0  0  0  0  0  0  0  0
   -7.7440   19.7290  -32.7090 C   0  0  0  0  0  0  0  0  0  0  0  0
   -6.8360   18.9870  -33.4640 C   0  0  0  0  0  0  0  0  0  0  0  0
   -5.5200   19.4310  -33.6120 C   0  0  0  0  0  0  0  0  0  0  0  0
   -5.0990   20.6300  -33.0100 C   0  0  0  0  0  0  0  0  0  0  0  0
   -3.6750   21.0850  -33.2030 C   0  0  0  0  0  0  0  0  0  0  0  0
   -6.1800   23.8410  -31.8860 C   0  0  0  0  0  0  0  0  0  0  0  0
   -5.7640   25.0030  -31.2100 C   0  0  0  0  0  0  0  0  0  0  0  0
   -4.8350   24.9300  -30.2150 N   0  0  0  0  0  0  0  0  0  0  0  0
   -4.3130   23.7210  -29.8930 C   0  0  0  0  0  0  0  0  0  0  0  0
   -1.4800   24.8880  -28.2560 C   0  0  0  0  0  0  0  0  0  0  0  0
   -0.8580   25.7670  -27.3650 C   0  0  0  0  0  0  0  0  0  0  0  0
    0.3650   26.2720  -27.6680 F   0  0  0  0  0  0  0  0  0  0  0  0
   -1.2175   27.6544  -23.3749 H   0  0  0  0  0  0  0  0  0  0  0  0
   -1.1764   25.8738  -23.6083 H   0  0  0  0  0  0  0  0  0  0  0  0
    0.3534   26.8152  -23.6083 H   0  0  0  0  0  0  0  0  0  0  0  0
   -3.2483   25.8534  -24.9212 H   0  0  0  0  0  0  0  0  0  0  0  0
   -4.3529   24.2783  -26.5053 H   0  0  0  0  0  0  0  0  0  0  0  0
   -2.6135   21.3341  -27.0856 H   0  0  0  0  0  0  0  0  0  0  0  0
   -2.6499   20.0829  -28.3739 H   0  0  0  0  0  0  0  0  0  0  0  0
   -1.3617   21.3348  -28.3739 H   0  0  0  0  0  0  0  0  0  0  0  0
   -4.2250   20.5640  -30.2490 H   0  0  0  0  0  0  0  0  0  0  0  0
   -8.0591   21.4940  -31.4973 H   0  0  0  0  0  0  0  0  0  0  0  0
   -8.7820   19.3812  -32.6012 H   0  0  0  0  0  0  0  0  0  0  0  0
   -7.1568   18.0505  -33.9437 H   0  0  0  0  0  0  0  0  0  0  0  0
   -4.8074   18.8381  -34.2041 H   0  0  0  0  0  0  0  0  0  0  0  0
   -3.2021   21.2361  -32.2214 H   0  0  0  0  0  0  0  0  0  0  0  0
   -3.1185   20.3199  -33.7642 H   0  0  0  0  0  0  0  0  0  0  0  0
   -3.6652   22.0310  -33.7642 H   0  0  0  0  0  0  0  0  0  0  0  0
   -6.9339   23.8988  -32.6850 H   0  0  0  0  0  0  0  0  0  0  0  0
   -6.1918   25.9779  -31.4866 H   0  0  0  0  0  0  0  0  0  0  0  0
   -0.9760   24.6142  -29.1946 H   0  0  0  0  0  0  0  0  0  0  0  0
  1  2  1  0
  2  3  1  0
  3  4  2  0
  4  5  1  0
  5  6  2  0
  6  7  1  0
  7  8  1  0
  8  9  1  0
  8 10  2  0
 10 11  1  0
 11 12  1  0
 12 13  1  0
 13 14  2  0
 14 15  1  0
 15 16  2  0
 16 17  1  0
 17 18  2  0
 18 19  1  0
 12 20  2  0
 20 21  1  0
 21 22  2  0
 22 23  1  0
  6 24  1  0
 24 25  2  0
 25 26  1  0
 25  3  1  0
 23  7  2  0
 23 11  1  0
 18 13  1  0
  1 27  1  0
  1 28  1  0
  1 29  1  0
  4 30  1  0
  5 31  1  0
  9 32  1  0
  9 33  1  0
  9 34  1  0
 10 35  1  0
 14 36  1  0
 15 37  1  0
 16 38  1  0
 17 39  1  0
 19 40  1  0
 19 41  1  0
 19 42  1  0
 20 43  1  0
 21 44  1  0
 24 45  1  0
M  CHG  1  10   1
M  END
>  <UniqueID>  (15) 
13

>  <SMILES>  (15) 
COc1ccc(-c2c(C)[nH+]n3c(-c4ccccc4C)ccnc23)cc1F

>  <Energy>  (15) 
97.99633979907823

>  <Genealogy>  (15) 
COc1ccc(-c2c(C)[nH+]n3c(-c4ccccc4C)ccnc23)cc1F (protonated)
COc1ccc(-c2c(C)[nH+]n3c(-c4ccccc4C)ccnc23)cc1F (3D coordinates assigned)
COc1ccc(-c2c(C)[nH+]n3c(-c4ccccc4C)ccnc23)cc1F (optimized conformer: 97.99633979907823 kcal/mol)

>  <smiles>  (15) 
COc1ccc(-c2c(C)nn3c(-c4ccccc4C)ccnc23)cc1F

>  <score_type>  (15) 
oracle

>  <origin>  (15) 
adg

>  <m_score__min__energy>  (15) 
-7.8300000000000001

>  <m_primary>  (15) 
energy

$$$$
15:0
     RDKit          3D

 29 31  0  0  0  0  0  0  0  0999 V2000
   -5.7070   18.1560  -34.8980 C   0  0  0  0  0  0  0  0  0  0  0  0
   -5.4070   19.2000  -33.8280 C   0  0  0  0  0  0  0  0  0  0  0  0
   -6.1230   18.8700  -32.5150 C   0  0  0  0  0  0  0  0  0  0  0  0
   -7.3580   19.6480  -32.4020 N   0  0  0  0  0  0  0  0  0  0  0  0
   -8.5540   19.1070  -32.5720 N   0  0  0  0  0  0  0  0  0  0  0  0
   -9.4790   20.0500  -32.3120 C   0  0  0  0  0  0  0  0  0  0  0  0
   -8.8540   21.2270  -31.9560 C   0  0  0  0  0  0  0  0  0  0  0  0
   -7.5050   20.9450  -32.0370 C   0  0  0  0  0  0  0  0  0  0  0  0
   -6.4320   21.9060  -31.7110 C   0  0  0  0  0  0  0  0  0  0  0  0
   -6.7230   23.2510  -31.3830 C   0  0  0  0  0  0  0  0  0  0  0  0
   -5.6450   24.0670  -31.0630 C   0  0  0  0  0  0  0  0  0  0  0  0
   -5.5560   25.3890  -30.7030 C   0  0  0  0  0  0  0  0  0  0  0  0
   -4.2480   25.6750  -30.4860 N   0  0  0  0  0  0  0  0  0  0  0  0
   -3.5180   24.5820  -30.6940 N   0  0  0  0  0  0  0  0  0  0  0  0
   -4.3680   23.6040  -31.0450 C   0  0  0  0  0  0  0  0  0  0  0  0
   -4.0870   22.2780  -31.3450 C   0  0  0  0  0  0  0  0  0  0  0  0
   -5.1330   21.4600  -31.6660 N   0  0  0  0  0  0  0  0  0  0  0  0
   -5.9801   17.2055  -34.4165 H   0  0  0  0  0  0  0  0  0  0  0  0
   -6.5419   18.5027  -35.5247 H   0  0  0  0  0  0  0  0  0  0  0  0
   -4.8154   18.0066  -35.5247 H   0  0  0  0  0  0  0  0  0  0  0  0
   -4.3222   19.2275  -33.6479 H   0  0  0  0  0  0  0  0  0  0  0  0
   -5.7663   20.1767  -34.1843 H   0  0  0  0  0  0  0  0  0  0  0  0
   -6.3662   17.7974  -32.4936 H   0  0  0  0  0  0  0  0  0  0  0  0
   -5.4619   19.1226  -31.6729 H   0  0  0  0  0  0  0  0  0  0  0  0
  -10.5675   19.9041  -32.3740 H   0  0  0  0  0  0  0  0  0  0  0  0
   -9.3257   22.1789  -31.6709 H   0  0  0  0  0  0  0  0  0  0  0  0
   -7.7546   23.6329  -31.3814 H   0  0  0  0  0  0  0  0  0  0  0  0
   -6.3968   26.0919  -30.6075 H   0  0  0  0  0  0  0  0  0  0  0  0
   -3.0549   21.8981  -31.3249 H   0  0  0  0  0  0  0  0  0  0  0  0
  1  2  1  0
  2  3  1  0
  3  4  1  0
  4  5  1  0
  5  6  2  0
  6  7  1  0
  7  8  2  0
  8  9  1  0
  9 10  2  0
 10 11  1  0
 11 12  1  0
 12 13  2  0
 13 14  1  0
 14 15  1  0
 15 16  1  0
 16 17  2  0
  8  4  1  0
 17  9  1  0
 15 11  2  0
  1 18  1  0
  1 19  1  0
  1 20  1  0
  2 21  1  0
  2 22  1  0
  3 23  1  0
  3 24  1  0
  6 25  1  0
  7 26  1  0
 10 27  1  0
 12 28  1  0
 16 29  1  0
M  CHG  1  14  -1
M  END
>  <UniqueID>  (16) 
14

>  <SMILES>  (16) 
CCCn1nccc1-c1cc2cn[n-]c2cn1

>  <Energy>  (16) 
99.94342039433309

>  <Genealogy>  (16) 
CCCn1nccc1-c1cc2cn[n-]c2cn1 (protonated)
CCCn1nccc1-c1cc2cn[n-]c2cn1 (3D coordinates assigned)
CCCn1nccc1-c1cc2cn[n-]c2cn1 (optimized conformer: 99.94342039433309 kcal/mol)

>  <smiles>  (16) 
CCCn1nccc1-c1cc2cn[nH]c2cn1

>  <score_type>  (16) 
oracle

>  <origin>  (16) 
adg

>  <m_score__min__energy>  (16) 
-8.7200000000000006

>  <m_primary>  (16) 
energy

$$$$
16:0
     RDKit          3D

 43 44  0  0  0  0  0  0  0  0999 V2000
   -3.1230   25.2350  -26.3340 C   0  0  0  0  0  0  0  0  0  0  0  0
   -4.1200   24.5640  -27.0910 O   0  0  0  0  0  0  0  0  0  0  0  0
   -3.7860   23.6670  -28.1080 C   0  0  0  0  0  0  0  0  0  0  0  0
   -3.0520   24.0470  -29.1710 C   0  0  0  0  0  0  0  0  0  0  0  0
   -3.7380   24.5100  -30.4060 C   0  0  0  0  0  0  0  0  0  0  0  0
   -4.2390   25.6660  -30.4510 O   0  0  0  0  0  0  0  0  0  0  0  0
   -3.8800   23.6320  -31.5310 N   0  0  0  0  0  0  0  0  0  0  0  0
   -4.9070   22.6440  -31.6750 C   0  0  0  0  0  0  0  0  0  0  0  0
   -6.2750   22.7650  -31.4600 C   0  0  0  0  0  0  0  0  0  0  0  0
   -7.0130   23.9910  -31.0070 C   0  0  0  0  0  0  0  0  0  0  0  0
   -6.8620   21.5860  -31.7900 N   0  0  0  0  0  0  0  0  0  0  0  0
   -8.2900   21.2780  -31.6770 C   0  0  0  0  0  0  0  0  0  0  0  0
   -5.9300   20.7570  -32.2580 N   0  0  0  0  0  0  0  0  0  0  0  0
   -6.1570   19.4340  -32.7750 C   0  0  0  0  0  0  0  0  0  0  0  0
   -5.8500   19.1300  -34.1110 C   0  0  0  0  0  0  0  0  0  0  0  0
   -6.0600   17.8380  -34.6060 C   0  0  0  0  0  0  0  0  0  0  0  0
   -6.5700   16.8410  -33.7690 C   0  0  0  0  0  0  0  0  0  0  0  0
   -6.8670   17.1340  -32.4350 C   0  0  0  0  0  0  0  0  0  0  0  0
   -6.6580   18.4240  -31.9370 C   0  0  0  0  0  0  0  0  0  0  0  0
   -4.7390   21.3850  -32.2000 C   0  0  0  0  0  0  0  0  0  0  0  0
   -3.6470   20.8910  -32.5910 O   0  0  0  0  0  0  0  0  0  0  0  0
   -1.5650   24.0020  -29.1390 C   0  0  0  0  0  0  0  0  0  0  0  0
   -0.8950   25.0530  -28.9420 O   0  0  0  0  0  0  0  0  0  0  0  0
   -0.9050   22.7840  -29.3320 O   0  0  0  0  0  0  0  0  0  0  0  0
   -1.2680   21.8670  -30.3580 C   0  0  0  0  0  0  0  0  0  0  0  0
   -3.3242   25.0996  -25.2611 H   0  0  0  0  0  0  0  0  0  0  0  0
   -2.1349   24.8174  -26.5773 H   0  0  0  0  0  0  0  0  0  0  0  0
   -3.1378   26.3076  -26.5773 H   0  0  0  0  0  0  0  0  0  0  0  0
   -4.1309   22.6248  -28.0390 H   0  0  0  0  0  0  0  0  0  0  0  0
   -7.0319   24.0223  -29.9076 H   0  0  0  0  0  0  0  0  0  0  0  0
   -6.5045   24.8878  -31.3907 H   0  0  0  0  0  0  0  0  0  0  0  0
   -8.0435   23.9614  -31.3907 H   0  0  0  0  0  0  0  0  0  0  0  0
   -8.5692   21.2178  -30.6147 H   0  0  0  0  0  0  0  0  0  0  0  0
   -8.8758   22.0704  -32.1657 H   0  0  0  0  0  0  0  0  0  0  0  0
   -8.4971   20.3145  -32.1657 H   0  0  0  0  0  0  0  0  0  0  0  0
   -5.4429   19.9102  -34.7709 H   0  0  0  0  0  0  0  0  0  0  0  0
   -5.8235   17.6065  -35.6550 H   0  0  0  0  0  0  0  0  0  0  0  0
   -6.7374   15.8266  -34.1601 H   0  0  0  0  0  0  0  0  0  0  0  0
   -7.2657   16.3488  -31.7759 H   0  0  0  0  0  0  0  0  0  0  0  0
   -6.8869   18.6487  -30.8848 H   0  0  0  0  0  0  0  0  0  0  0  0
   -1.6367   20.9355  -29.9036 H   0  0  0  0  0  0  0  0  0  0  0  0
   -2.0590   22.3089  -30.9817 H   0  0  0  0  0  0  0  0  0  0  0  0
   -0.3888   21.6478  -30.9817 H   0  0  0  0  0  0  0  0  0  0  0  0
  1  2  1  0
  2  3  1  0
  3  4  2  3
  4  5  1  0
  5  6  2  0
  5  7  1  0
  7  8  1  0
  8  9  2  0
  9 10  1  0
  9 11  1  0
 11 12  1  0
 11 13  1  0
 13 14  1  0
 14 15  2  0
 15 16  1  0
 16 17  2  0
 17 18  1  0
 18 19  2  0
 13 20  1  0
 20 21  2  0
  4 22  1  0
 22 23  2  0
 22 24  1  0
 24 25  1  0
 20  8  1  0
 19 14  1  0
  1 26  1  0
  1 27  1  0
  1 28  1  0
  3 29  1  0
 10 30  1  0
 10 31  1  0
 10 32  1  0
 12 33  1  0
 12 34  1  0
 12 35  1  0
 15 36  1  0
 16 37  1  0
 17 38  1  0
 18 39  1  0
 19 40  1  0
 25 41  1  0
 25 42  1  0
 25 43  1  0
M  CHG  1   7  -1
M  END
>  <UniqueID>  (17) 
15

>  <SMILES>  (17) 
COC=C(C(=O)[N-]c1c(C)n(C)n(-c2ccccc2)c1=O)C(=O)OC

>  <Energy>  (17) 
85.6995359995948

>  <Genealogy>  (17) 
COC=C(C(=O)[N-]c1c(C)n(C)n(-c2ccccc2)c1=O)C(=O)OC (protonated)
COC=C(C(=O)[N-]c1c(C)n(C)n(-c2ccccc2)c1=O)C(=O)OC (3D coordinates assigned)
COC=C(C(=O)[N-]c1c(C)n(C)n(-c2ccccc2)c1=O)C(=O)OC (optimized conformer: 85.6995359995948 kcal/mol)

>  <smiles>  (17) 
COC=C(C(=O)Nc1c(C)n(C)n(-c2ccccc2)c1=O)C(=O)OC

>  <score_type>  (17) 
oracle

>  <origin>  (17) 
adg

>  <m_score__min__energy>  (17) 
-8.8499999999999996

>  <m_primary>  (17) 
energy

$$$$
17:0
     RDKit          3D

 55 58  0  0  0  0  0  0  0  0999 V2000
   -3.4936   23.3426  -32.1480 H   0  0  0  0  0  0  0  0  0  0  0  0
   -3.7460   23.1720  -31.0910 C   0  0  0  0  0  0  0  0  0  0  0  0
   -4.9940   22.7520  -30.7950 C   0  0  0  0  0  0  0  0  0  0  0  0
   -5.6810   21.6210  -31.4810 C   0  0  0  0  0  0  0  0  0  0  0  0
   -7.0260   21.6810  -31.6960 C   0  0  0  0  0  0  0  0  0  0  0  0
   -7.8610   22.8820  -31.2060 C   0  0  2  0  0  0  0  0  0  0  0  0
   -8.4644   22.4721  -30.3826 H   0  0  0  0  0  0  0  0  0  0  0  0
   -8.7770   23.4240  -32.3170 C   0  0  0  0  0  0  0  0  0  0  0  0
   -9.6398   23.9345  -31.8643 H   0  0  0  0  0  0  0  0  0  0  0  0
   -8.2157   24.1355  -32.9405 H   0  0  0  0  0  0  0  0  0  0  0  0
   -9.1304   22.5895  -32.9405 H   0  0  0  0  0  0  0  0  0  0  0  0
   -7.0320   24.0490  -30.6110 C   0  0  0  0  0  0  0  0  0  0  0  0
   -6.6787   24.6914  -31.4311 H   0  0  0  0  0  0  0  0  0  0  0  0
   -7.6761   24.6145  -29.9215 H   0  0  0  0  0  0  0  0  0  0  0  0
   -5.8300   23.5360  -29.8310 C   0  0  0  0  0  0  0  0  0  0  0  0
   -5.2518   24.3802  -29.4272 H   0  0  0  0  0  0  0  0  0  0  0  0
   -6.1462   22.9113  -28.9826 H   0  0  0  0  0  0  0  0  0  0  0  0
   -7.7760   20.5100  -32.3480 C   0  0  2  0  0  0  0  0  0  0  0  0
   -8.1890   20.9960  -33.2442 H   0  0  0  0  0  0  0  0  0  0  0  0
   -8.8780   19.9210  -31.4470 C   0  0  0  0  0  0  0  0  0  0  0  0
   -8.7087   20.2180  -30.4015 H   0  0  0  0  0  0  0  0  0  0  0  0
   -9.8687   20.2911  -31.7494 H   0  0  0  0  0  0  0  0  0  0  0  0
   -8.8040   18.3960  -31.5780 C   0  0  0  0  0  0  0  0  0  0  0  0
   -8.4293   17.9512  -30.6443 H   0  0  0  0  0  0  0  0  0  0  0  0
   -9.7959   17.9630  -31.7744 H   0  0  0  0  0  0  0  0  0  0  0  0
   -7.8410   18.1120  -32.7200 C   0  0  0  0  0  0  0  0  0  0  0  0
   -7.2713   17.1919  -32.5229 H   0  0  0  0  0  0  0  0  0  0  0  0
   -8.3700   17.9630  -33.6729 H   0  0  0  0  0  0  0  0  0  0  0  0
   -6.9080   19.3150  -32.7730 C   0  0  2  0  0  0  0  0  0  0  0  0
   -6.4764   19.4562  -33.7749 H   0  0  0  0  0  0  0  0  0  0  0  0
   -5.7190   19.1330  -31.8260 C   0  0  0  0  0  0  0  0  0  0  0  0
   -6.0834   18.9582  -30.8029 H   0  0  0  0  0  0  0  0  0  0  0  0
   -5.1158   18.2690  -32.1417 H   0  0  0  0  0  0  0  0  0  0  0  0
   -4.8740   20.3970  -31.8600 C   0  0  0  0  0  0  0  0  0  0  0  0
   -4.0395   20.2870  -31.1518 H   0  0  0  0  0  0  0  0  0  0  0  0
   -4.5043   20.5346  -32.8868 H   0  0  0  0  0  0  0  0  0  0  0  0
   -2.7030   23.4150  -30.0810 C   0  0  0  0  0  0  0  0  0  0  0  0
   -1.6210   22.5350  -29.9610 C   0  0  0  0  0  0  0  0  0  0  0  0
   -1.5392   21.6724  -30.6387 H   0  0  0  0  0  0  0  0  0  0  0  0
   -0.6450   22.7470  -28.9850 C   0  0  0  0  0  0  0  0  0  0  0  0
    0.1962   22.0439  -28.8960 H   0  0  0  0  0  0  0  0  0  0  0  0
   -0.7250   23.8530  -28.1110 C   0  0  0  0  0  0  0  0  0  0  0  0
    0.2780   24.0610  -27.0790 N   0  0  0  0  0  0  0  0  0  0  0  0
   -0.0620   23.8750  -25.6600 C   0  0  0  0  0  0  0  0  0  0  0  0
    0.7309   24.3088  -25.0331 H   0  0  0  0  0  0  0  0  0  0  0  0
   -1.0167   24.3765  -25.4429 H   0  0  0  0  0  0  0  0  0  0  0  0
   -0.1545   22.8006  -25.4429 H   0  0  0  0  0  0  0  0  0  0  0  0
    1.6400   24.4730  -27.4340 C   0  0  0  0  0  0  0  0  0  0  0  0
    2.2208   24.6487  -26.5165 H   0  0  0  0  0  0  0  0  0  0  0  0
    2.1204   23.6800  -28.0259 H   0  0  0  0  0  0  0  0  0  0  0  0
    1.6003   25.3993  -28.0259 H   0  0  0  0  0  0  0  0  0  0  0  0
   -1.8040   24.7500  -28.2670 C   0  0  0  0  0  0  0  0  0  0  0  0
   -1.8827   25.6255  -27.6057 H   0  0  0  0  0  0  0  0  0  0  0  0
   -2.7740   24.5390  -29.2520 C   0  0  0  0  0  0  0  0  0  0  0  0
   -3.5958   25.2597  -29.3752 H   0  0  0  0  0  0  0  0  0  0  0  0
  1  2  1  0
  2  3  2  0
  3  4  1  0
  4  5  2  0
  5  6  1  0
  6  7  1  1
  6  8  1  0
  8  9  1  0
  8 10  1  0
  8 11  1  0
  6 12  1  0
 12 13  1  0
 12 14  1  0
 12 15  1  0
 15 16  1  0
 15 17  1  0
  5 18  1  0
 18 19  1  6
 18 20  1  0
 20 21  1  0
 20 22  1  0
 20 23  1  0
 23 24  1  0
 23 25  1  0
 23 26  1  0
 26 27  1  0
 26 28  1  0
 26 29  1  0
 29 30  1  6
 29 31  1  0
 31 32  1  0
 31 33  1  0
 31 34  1  0
 34 35  1  0
 34 36  1  0
  2 37  1  0
 37 38  2  0
 38 39  1  0
 38 40  1  0
 40 41  1  0
 40 42  2  0
 42 43  1  0
 43 44  1  0
 44 45  1  0
 44 46  1  0
 44 47  1  0
 43 48  1  0
 48 49  1  0
 48 50  1  0
 48 51  1  0
 42 52  1  0
 52 53  1  0
 52 54  2  0
 54 55  1  0
 15  3  1  0
 29 18  1  0
 54 37  1  0
 34  4  1  0
M  END
>  <UniqueID>  (18) 
16

>  <SMILES>  (18) 
C[C@@H]1CC/C(=C/c2ccc(N(C)C)cc2)C2=C1[C@@H]1CCCC1CC2

>  <Energy>  (18) 
74.25742620975325

>  <Genealogy>  (18) 
C[C@@H]1CCC(=Cc2ccc(N(C)C)cc2)C2=C1[C@@H]1CCCC1CC2 (chirality)
C[C@@H]1CC/C(=C/c2ccc(N(C)C)cc2)C2=C1[C@@H]1CCCC1CC2 (cis-trans isomerization)
C[C@@H]1CC/C(=C/c2ccc(N(C)C)cc2)C2=C1[C@@H]1CCCC1CC2 (3D coordinates assigned)
C[C@@H]1CC/C(=C/c2ccc(N(C)C)cc2)C2=C1[C@@H]1CCCC1CC2 (nonaromatic ring conformer: 74.25742620975325 kcal/mol)

>  <smiles>  (18) 
CC1CCC(=Cc2ccc(N(C)C)cc2)C2=C1C1CCCC1CC2

>  <score_type>  (18) 
oracle

>  <origin>  (18) 
adg

>  <m_score__min__energy>  (18) 
-9.2899999999999991

>  <m_primary>  (18) 
energy

$$$$
18:0
     RDKit          3D

 50 51  0  0  0  0  0  0  0  0999 V2000
   -0.1670   22.9230  -24.5340 C   0  0  0  0  0  0  0  0  0  0  0  0
   -0.8580   22.4790  -25.8140 C   0  0  0  0  0  0  0  0  0  0  0  0
   -0.7840   23.5200  -26.7660 O   0  0  0  0  0  0  0  0  0  0  0  0
   -1.7010   24.5500  -26.4480 C   0  0  0  0  0  0  0  0  0  0  0  0
   -2.6300   24.8310  -27.6330 C   0  0  0  0  0  0  0  0  0  0  0  0
   -2.6510   23.7080  -28.5720 N   0  0  0  0  0  0  0  0  0  0  0  0
   -3.2090   23.8490  -29.8870 C   0  0  0  0  0  0  0  0  0  0  0  0
   -3.5360   24.9940  -30.3040 O   0  0  0  0  0  0  0  0  0  0  0  0
   -3.3910   22.6740  -30.7740 C   0  0  0  0  0  0  0  0  0  0  0  0
   -4.3960   22.6540  -31.7580 C   0  0  0  0  0  0  0  0  0  0  0  0
   -4.5520   21.5410  -32.5890 C   0  0  0  0  0  0  0  0  0  0  0  0
   -3.7050   20.4340  -32.4550 C   0  0  0  0  0  0  0  0  0  0  0  0
   -3.9230   19.0160  -33.4810 S   0  0  0  0  0  0  0  0  0  0  0  0
   -2.9020   19.0370  -34.5840 O   0  0  0  0  0  0  0  0  0  0  0  0
   -3.6900   17.7750  -32.6640 O   0  0  0  0  0  0  0  0  0  0  0  0
   -5.5300   18.9800  -34.1740 N   0  0  0  0  0  0  0  0  0  0  0  0
   -5.7360   17.7070  -34.8930 C   0  0  0  0  0  0  0  0  0  0  0  0
   -6.5470   16.6850  -34.0790 C   0  0  0  0  0  0  0  0  0  0  0  0
   -5.9910   16.3500  -32.6820 C   0  0  0  0  0  0  0  0  0  0  0  0
   -6.5300   17.2430  -31.5540 C   0  0  0  0  0  0  0  0  0  0  0  0
   -6.3000   18.7660  -31.7360 C   0  0  0  0  0  0  0  0  0  0  0  0
   -6.5550   19.3260  -33.1550 C   0  0  0  0  0  0  0  0  0  0  0  0
   -2.6930   20.4540  -31.4870 C   0  0  0  0  0  0  0  0  0  0  0  0
   -2.5340   21.5660  -30.6560 C   0  0  0  0  0  0  0  0  0  0  0  0
   -0.7347   22.5582  -23.6653 H   0  0  0  0  0  0  0  0  0  0  0  0
    0.8523   22.5104  -24.5054 H   0  0  0  0  0  0  0  0  0  0  0  0
   -0.1188   24.0216  -24.5054 H   0  0  0  0  0  0  0  0  0  0  0  0
   -0.3588   21.5822  -26.2097 H   0  0  0  0  0  0  0  0  0  0  0  0
   -1.9119   22.2446  -25.6033 H   0  0  0  0  0  0  0  0  0  0  0  0
   -2.3041   24.2419  -25.5812 H   0  0  0  0  0  0  0  0  0  0  0  0
   -1.1381   25.4657  -26.2144 H   0  0  0  0  0  0  0  0  0  0  0  0
   -3.6493   25.0019  -27.2563 H   0  0  0  0  0  0  0  0  0  0  0  0
   -2.2564   25.7193  -28.1633 H   0  0  0  0  0  0  0  0  0  0  0  0
   -2.2110   22.8010  -28.2960 H   0  0  0  0  0  0  0  0  0  0  0  0
   -5.0638   23.5203  -31.8743 H   0  0  0  0  0  0  0  0  0  0  0  0
   -5.3442   21.5347  -33.3522 H   0  0  0  0  0  0  0  0  0  0  0  0
   -6.2736   17.9158  -35.8297 H   0  0  0  0  0  0  0  0  0  0  0  0
   -4.7445   17.2687  -35.0794 H   0  0  0  0  0  0  0  0  0  0  0  0
   -7.5635   17.0854  -33.9509 H   0  0  0  0  0  0  0  0  0  0  0  0
   -6.5056   15.7462  -34.6508 H   0  0  0  0  0  0  0  0  0  0  0  0
   -6.2511   15.3069  -32.4492 H   0  0  0  0  0  0  0  0  0  0  0  0
   -4.9053   16.5213  -32.7266 H   0  0  0  0  0  0  0  0  0  0  0  0
   -7.6137   17.0716  -31.4754 H   0  0  0  0  0  0  0  0  0  0  0  0
   -5.9679   16.9598  -30.6519 H   0  0  0  0  0  0  0  0  0  0  0  0
   -6.9703   19.2929  -31.0409 H   0  0  0  0  0  0  0  0  0  0  0  0
   -5.2299   18.9294  -31.5409 H   0  0  0  0  0  0  0  0  0  0  0  0
   -7.5235   18.9378  -33.5034 H   0  0  0  0  0  0  0  0  0  0  0  0
   -6.5251   20.4212  -33.0569 H   0  0  0  0  0  0  0  0  0  0  0  0
   -2.0202   19.5903  -31.3804 H   0  0  0  0  0  0  0  0  0  0  0  0
   -1.7318   21.5745  -29.9034 H   0  0  0  0  0  0  0  0  0  0  0  0
  1  2  1  0
  2  3  1  0
  3  4  1  0
  4  5  1  0
  5  6  1  0
  6  7  1  0
  7  8  2  0
  7  9  1  0
  9 10  2  0
 10 11  1  0
 11 12  2  0
 12 13  1  0
 13 14  2  0
 13 15  2  0
 13 16  1  0
 16 17  1  0
 17 18  1  0
 18 19  1  0
 19 20  1  0
 20 21  1  0
 21 22  1  0
 12 23  1  0
 23 24  2  0
 24  9  1  0
 22 16  1  0
  1 25  1  0
  1 26  1  0
  1 27  1  0
  2 28  1  0
  2 29  1  0
  4 30  1  0
  4 31  1  0
  5 32  1  0
  5 33  1  0
  6 34  1  0
 10 35  1  0
 11 36  1  0
 17 37  1  0
 17 38  1  0
 18 39  1  0
 18 40  1  0
 19 41  1  0
 19 42  1  0
 20 43  1  0
 20 44  1  0
 21 45  1  0
 21 46  1  0
 22 47  1  0
 22 48  1  0
 23 49  1  0
 24 50  1  0
M  END
>  <UniqueID>  (19) 
17

>  <SMILES>  (19) 
CCOCCNC(=O)c1ccc(S(=O)(=O)N2CCCCCC2)cc1

>  <Energy>  (19) 
57.873763867829105

>  <Genealogy>  (19) 
CCOCCNC(=O)c1ccc(S(=O)(=O)N2CCCCCC2)cc1 (3D coordinates assigned)
CCOCCNC(=O)c1ccc(S(=O)(=O)N2CCCCCC2)cc1 (nonaromatic ring conformer: 57.873763867829105 kcal/mol)

>  <smiles>  (19) 
CCOCCNC(=O)c1ccc(S(=O)(=O)N2CCCCCC2)cc1

>  <score_type>  (19) 
oracle

>  <origin>  (19) 
adg

>  <m_score__min__energy>  (19) 
-6.5300000000000002

>  <m_primary>  (19) 
energy

$$$$
19:0
     RDKit          3D

 28 29  0  0  0  0  0  0  0  0999 V2000
   -5.7150   16.6770  -32.7970 C   0  0  0  0  0  0  0  0  0  0  0  0
   -5.7160   17.8550  -31.9970 O   0  0  0  0  0  0  0  0  0  0  0  0
   -6.7470   18.8050  -31.9860 C   0  0  0  0  0  0  0  0  0  0  0  0
   -8.1070   18.4400  -31.9810 C   0  0  0  0  0  0  0  0  0  0  0  0
   -9.0990   19.4210  -31.9730 C   0  0  0  0  0  0  0  0  0  0  0  0
   -8.7500   20.7750  -31.9700 C   0  0  0  0  0  0  0  0  0  0  0  0
   -9.7190   21.7220  -31.9670 N   0  0  0  0  0  0  0  0  0  0  0  0
   -9.4120   23.0170  -31.9690 N   0  0  0  0  0  0  0  0  0  0  0  0
   -8.1440   23.4260  -31.9710 N   0  0  0  0  0  0  0  0  0  0  0  0
   -7.1090   22.5460  -31.9670 C   0  0  0  0  0  0  0  0  0  0  0  0
   -5.7120   23.1070  -31.9950 C   0  0  0  0  0  0  0  0  0  0  0  0
   -5.4040   24.1290  -30.5620 S   0  0  0  0  0  0  0  0  0  0  0  0
   -5.0120   23.1090  -29.1560 C   0  0  0  0  0  0  0  0  0  0  0  0
   -4.2410   25.0370  -30.8480 O   0  0  0  0  0  0  0  0  0  0  0  0
   -6.6140   24.9620  -30.2470 O   0  0  0  0  0  0  0  0  0  0  0  0
   -7.3950   21.1620  -31.9730 C   0  0  0  0  0  0  0  0  0  0  0  0
   -6.4000   20.1620  -31.9820 C   0  0  0  0  0  0  0  0  0  0  0  0
   -5.7142   15.7910  -32.1450 H   0  0  0  0  0  0  0  0  0  0  0  0
   -6.6131   16.6642  -33.4320 H   0  0  0  0  0  0  0  0  0  0  0  0
   -4.8168   16.6658  -33.4320 H   0  0  0  0  0  0  0  0  0  0  0  0
   -8.3885   17.3766  -31.9834 H   0  0  0  0  0  0  0  0  0  0  0  0
  -10.1593   19.1283  -31.9690 H   0  0  0  0  0  0  0  0  0  0  0  0
   -4.9909   22.2764  -32.0063 H   0  0  0  0  0  0  0  0  0  0  0  0
   -5.6007   23.7259  -32.8975 H   0  0  0  0  0  0  0  0  0  0  0  0
   -5.2250   23.6633  -28.2301 H   0  0  0  0  0  0  0  0  0  0  0  0
   -5.6228   22.1946  -29.1847 H   0  0  0  0  0  0  0  0  0  0  0  0
   -3.9460   22.8390  -29.1847 H   0  0  0  0  0  0  0  0  0  0  0  0
   -5.3388   20.4515  -31.9859 H   0  0  0  0  0  0  0  0  0  0  0  0
  1  2  1  0
  2  3  1  0
  3  4  2  0
  4  5  1  0
  5  6  2  0
  6  7  1  0
  7  8  2  0
  8  9  1  0
  9 10  2  0
 10 11  1  0
 11 12  1  0
 12 13  1  0
 12 14  2  0
 12 15  2  0
 10 16  1  0
 16 17  2  0
 17  3  1  0
 16  6  1  0
  1 18  1  0
  1 19  1  0
  1 20  1  0
  4 21  1  0
  5 22  1  0
 11 23  1  0
 11 24  1  0
 13 25  1  0
 13 26  1  0
 13 27  1  0
 17 28  1  0
M  END
>  <UniqueID>  (20) 
18

>  <SMILES>  (20) 
COc1ccc2nnnc(CS(C)(=O)=O)c2c1

>  <Energy>  (20) 
25.615650991072506

>  <Genealogy>  (20) 
COc1ccc2nnnc(CS(C)(=O)=O)c2c1 (3D coordinates assigned)
COc1ccc2nnnc(CS(C)(=O)=O)c2c1 (optimized conformer: 25.615650991072506 kcal/mol)

>  <smiles>  (20) 
COc1ccc2nnnc(CS(C)(=O)=O)c2c1

>  <score_type>  (20) 
oracle

>  <origin>  (20) 
adg

>  <m_score__min__energy>  (20) 
-7.6600000000000001

>  <m_primary>  (20) 
energy

$$$$
20:0
     RDKit          3D

 27 28  0  0  0  0  0  0  0  0999 V2000
   -2.8790   20.1080  -33.3930 C   0  0  0  0  0  0  0  0  0  0  0  0
   -4.2320   20.5070  -33.4060 O   0  0  0  0  0  0  0  0  0  0  0  0
   -5.0780   19.3950  -33.6410 C   0  0  0  0  0  0  0  0  0  0  0  0
   -6.5170   19.8700  -33.8310 C   0  0  0  0  0  0  0  0  0  0  0  0
   -6.8750   20.8450  -32.8030 N   0  0  0  0  0  0  0  0  0  0  0  0
   -7.8660   20.7160  -31.8990 C   0  0  0  0  0  0  0  0  0  0  0  0
   -7.8270   21.8030  -31.0450 C   0  0  0  0  0  0  0  0  0  0  0  0
   -6.7570   22.5620  -31.4940 C   0  0  0  0  0  0  0  0  0  0  0  0
   -6.2700   23.8200  -30.9130 C   0  0  0  0  0  0  0  0  0  0  0  0
   -6.9320   24.6040  -29.9880 C   0  0  0  0  0  0  0  0  0  0  0  0
   -6.0960   25.6720  -29.7400 C   0  0  0  0  0  0  0  0  0  0  0  0
   -4.9790   25.4750  -30.5270 C   0  0  0  0  0  0  0  0  0  0  0  0
   -5.1130   24.3630  -31.2150 O   0  0  0  0  0  0  0  0  0  0  0  0
   -6.1990   21.9550  -32.5560 N   0  0  0  0  0  0  0  0  0  0  0  0
   -2.5365   20.0070  -32.3526 H   0  0  0  0  0  0  0  0  0  0  0  0
   -2.7768   19.1415  -33.9081 H   0  0  0  0  0  0  0  0  0  0  0  0
   -2.2687   20.8644  -33.9081 H   0  0  0  0  0  0  0  0  0  0  0  0
   -4.7449   18.8679  -34.5472 H   0  0  0  0  0  0  0  0  0  0  0  0
   -5.0313   18.7147  -32.7779 H   0  0  0  0  0  0  0  0  0  0  0  0
   -6.6162   20.3364  -34.8223 H   0  0  0  0  0  0  0  0  0  0  0  0
   -7.1907   19.0042  -33.7497 H   0  0  0  0  0  0  0  0  0  0  0  0
   -8.5854   19.8853  -31.8488 H   0  0  0  0  0  0  0  0  0  0  0  0
   -8.4957   22.0176  -30.1984 H   0  0  0  0  0  0  0  0  0  0  0  0
   -7.9199   24.4155  -29.5424 H   0  0  0  0  0  0  0  0  0  0  0  0
   -6.2816   26.5114  -29.0537 H   0  0  0  0  0  0  0  0  0  0  0  0
   -4.1090   26.1466  -30.5716 H   0  0  0  0  0  0  0  0  0  0  0  0
   -5.3630   22.2780  -33.0940 H   0  0  0  0  0  0  0  0  0  0  0  0
  1  2  1  0
  2  3  1  0
  3  4  1  0
  4  5  1  0
  5  6  1  0
  6  7  2  0
  7  8  1  0
  8  9  1  0
  9 10  2  0
 10 11  1  0
 11 12  2  0
 12 13  1  0
  8 14  2  0
 14  5  1  0
 13  9  1  0
  1 15  1  0
  1 16  1  0
  1 17  1  0
  3 18  1  0
  3 19  1  0
  4 20  1  0
  4 21  1  0
  6 22  1  0
  7 23  1  0
 10 24  1  0
 11 25  1  0
 12 26  1  0
 14 27  1  0
M  CHG  1  14   1
M  END
>  <UniqueID>  (21) 
19

>  <SMILES>  (21) 
COCCn1ccc(-c2ccco2)[nH+]1

>  <Energy>  (21) 
80.86910929868196

>  <Genealogy>  (21) 
COCCn1ccc(-c2ccco2)[nH+]1 (protonated)
COCCn1ccc(-c2ccco2)[nH+]1 (3D coordinates assigned)
COCCn1ccc(-c2ccco2)[nH+]1 (optimized conformer: 80.86910929868196 kcal/mol)

>  <smiles>  (21) 
COCCn1ccc(-c2ccco2)n1

>  <score_type>  (21) 
oracle

>  <origin>  (21) 
adg

>  <m_score__min__energy>  (21) 
-4.3200000000000003

>  <m_primary>  (21) 
energy

$$$$
21:0
     RDKit          3D

 19 20  0  0  0  0  0  0  0  0999 V2000
   -0.3131   25.3920  -26.6809 H   0  0  0  0  0  0  0  0  0  0  0  0
   -0.2300   24.9460  -27.6830 C   0  0  0  0  0  0  0  0  0  0  0  0
    0.9050   24.7830  -28.2030 O   0  0  0  0  0  0  0  0  0  0  0  0
   -1.4390   24.5460  -28.4030 C   0  0  0  0  0  0  0  0  0  0  0  0
   -2.1120   23.3990  -28.1830 N   0  0  0  0  0  0  0  0  0  0  0  0
   -3.1370   23.4020  -29.0220 N   0  0  0  0  0  0  0  0  0  0  0  0
   -3.0420   24.5510  -29.7180 C   0  0  0  0  0  0  0  0  0  0  0  0
   -3.8710   24.9370  -30.6440 N   0  0  0  0  0  0  0  0  0  0  0  0
   -5.2710   25.2300  -30.4960 C   0  0  0  0  0  0  0  0  0  0  0  0
   -5.6330   26.4360  -30.4730 O   0  0  0  0  0  0  0  0  0  0  0  0
   -6.3130   24.1540  -30.3480 C   0  0  0  0  0  0  0  0  0  0  0  0
   -6.6953   24.4950  -29.3746 H   0  0  0  0  0  0  0  0  0  0  0  0
   -6.9470   23.6880  -31.6530 C   0  0  0  0  0  0  0  0  0  0  0  0
   -8.0057   23.3901  -31.6744 H   0  0  0  0  0  0  0  0  0  0  0  0
   -7.0452   24.1102  -32.6640 H   0  0  0  0  0  0  0  0  0  0  0  0
   -5.9260   22.8110  -30.9510 C   0  0  0  0  0  0  0  0  0  0  0  0
   -6.2453   21.8776  -30.4643 H   0  0  0  0  0  0  0  0  0  0  0  0
   -4.9785   22.3350  -31.2438 H   0  0  0  0  0  0  0  0  0  0  0  0
   -2.0060   25.2610  -29.3450 O   0  0  0  0  0  0  0  0  0  0  0  0
  1  2  1  0
  2  3  2  0
  2  4  1  0
  4  5  2  0
  5  6  1  0
  6  7  1  0
  7  8  2  0
  8  9  1  0
  9 10  2  0
  9 11  1  0
 11 12  1  0
 11 13  1  0
 13 14  1  0
 13 15  1  0
 13 16  1  0
 16 17  1  0
 16 18  1  0
  7 19  1  0
 19  4  1  0
 16 11  1  0
M  CHG  1   6  -1
M  END
>  <UniqueID>  (22) 
20

>  <SMILES>  (22) 
O=Cc1n[n-]/c(=N\C(=O)C2CC2)o1

>  <Energy>  (22) 
318.32178830409356

>  <Genealogy>  (22) 
O=Cc1n[n-]c(=NC(=O)C2CC2)o1 (protonated)
O=Cc1n[n-]/c(=N\C(=O)C2CC2)o1 (cis-trans isomerization)
O=Cc1n[n-]/c(=N\C(=O)C2CC2)o1 (3D coordinates assigned)
O=Cc1n[n-]/c(=N\C(=O)C2CC2)o1 (nonaromatic ring conformer: 318.32178830409356 kcal/mol)

>  <smiles>  (22) 
O=Cc1n[nH]c(=NC(=O)C2CC2)o1

>  <score_type>  (22) 
oracle

>  <origin>  (22) 
adg

>  <m_score__min__energy>  (22) 
-6.5499999999999998

>  <m_primary>  (22) 
energy

$$$$
22:0
     RDKit          3D

 38 40  0  0  0  0  0  0  0  0999 V2000
   -7.6760   18.3210  -32.3720 C   0  0  0  0  0  0  0  0  0  0  0  0
   -7.2840   19.5870  -33.1300 C   0  0  0  0  0  0  0  0  0  0  0  0
   -7.7750   20.7890  -32.4390 N   0  0  0  0  0  0  0  0  0  0  0  0
   -9.2220   20.9410  -32.2130 C   0  0  0  0  0  0  0  0  0  0  0  0
   -9.4970   21.5680  -30.8500 C   0  0  0  0  0  0  0  0  0  0  0  0
   -6.8450   21.8020  -31.9860 C   0  0  0  0  0  0  0  0  0  0  0  0
   -7.0600   23.1730  -32.3050 C   0  0  0  0  0  0  0  0  0  0  0  0
   -6.1690   24.1690  -31.8640 C   0  0  0  0  0  0  0  0  0  0  0  0
   -5.0740   23.7670  -31.1080 C   0  0  0  0  0  0  0  0  0  0  0  0
   -4.1040   24.5340  -30.5870 N   0  0  0  0  0  0  0  0  0  0  0  0
   -3.3170   23.6150  -29.9640 C   0  0  0  0  0  0  0  0  0  0  0  0
   -2.0870   23.9620  -29.2230 C   0  0  0  0  0  0  0  0  0  0  0  0
   -1.9940   25.1870  -28.5420 C   0  0  0  0  0  0  0  0  0  0  0  0
   -0.8300   25.5180  -27.8390 C   0  0  0  0  0  0  0  0  0  0  0  0
    0.2480   24.6300  -27.8110 C   0  0  0  0  0  0  0  0  0  0  0  0
    1.3750   24.9530  -27.1300 F   0  0  0  0  0  0  0  0  0  0  0  0
    0.1650   23.4090  -28.4860 C   0  0  0  0  0  0  0  0  0  0  0  0
   -0.9960   23.0740  -29.1890 C   0  0  0  0  0  0  0  0  0  0  0  0
   -3.7650   22.3750  -30.0900 O   0  0  0  0  0  0  0  0  0  0  0  0
   -4.8580   22.4610  -30.7980 C   0  0  0  0  0  0  0  0  0  0  0  0
   -5.7110   21.4450  -31.2130 C   0  0  0  0  0  0  0  0  0  0  0  0
   -7.6178   18.5088  -31.2897 H   0  0  0  0  0  0  0  0  0  0  0  0
   -8.7042   18.0367  -32.6401 H   0  0  0  0  0  0  0  0  0  0  0  0
   -6.9883   17.5054  -32.6401 H   0  0  0  0  0  0  0  0  0  0  0  0
   -6.1876   19.6371  -33.2036 H   0  0  0  0  0  0  0  0  0  0  0  0
   -7.7365   19.5496  -34.1319 H   0  0  0  0  0  0  0  0  0  0  0  0
   -9.6433   21.5863  -32.9979 H   0  0  0  0  0  0  0  0  0  0  0  0
   -9.6889   19.9454  -32.2426 H   0  0  0  0  0  0  0  0  0  0  0  0
   -9.1909   20.8700  -30.0568 H   0  0  0  0  0  0  0  0  0  0  0  0
   -8.9267   22.5038  -30.7551 H   0  0  0  0  0  0  0  0  0  0  0  0
  -10.5717   21.7823  -30.7551 H   0  0  0  0  0  0  0  0  0  0  0  0
   -7.9364   23.4581  -32.9056 H   0  0  0  0  0  0  0  0  0  0  0  0
   -6.3333   25.2287  -32.1090 H   0  0  0  0  0  0  0  0  0  0  0  0
   -2.8402   25.8896  -28.5613 H   0  0  0  0  0  0  0  0  0  0  0  0
   -0.7639   26.4789  -27.3077 H   0  0  0  0  0  0  0  0  0  0  0  0
    1.0145   22.7105  -28.4641 H   0  0  0  0  0  0  0  0  0  0  0  0
   -1.0569   22.1116  -29.7181 H   0  0  0  0  0  0  0  0  0  0  0  0
   -5.5124   20.3956  -30.9497 H   0  0  0  0  0  0  0  0  0  0  0  0
  1  2  1  0
  2  3  1  0
  3  4  1  0
  4  5  1  0
  3  6  1  0
  6  7  2  0
  7  8  1  0
  8  9  2  0
  9 10  1  0
 10 11  2  0
 11 12  1  0
 12 13  2  0
 13 14  1  0
 14 15  2  0
 15 16  1  0
 15 17  1  0
 17 18  2  0
 11 19  1  0
 19 20  1  0
 20 21  2  0
 21  6  1  0
 20  9  1  0
 18 12  1  0
  1 22  1  0
  1 23  1  0
  1 24  1  0
  2 25  1  0
  2 26  1  0
  4 27  1  0
  4 28  1  0
  5 29  1  0
  5 30  1  0
  5 31  1  0
  7 32  1  0
  8 33  1  0
 13 34  1  0
 14 35  1  0
 17 36  1  0
 18 37  1  0
 21 38  1  0
M  END
>  <UniqueID>  (23) 
21

>  <SMILES>  (23) 
CCN(CC)c1ccc2nc(-c3ccc(F)cc3)oc2c1

>  <Energy>  (23) 
75.07477922272369

>  <Genealogy>  (23) 
CCN(CC)c1ccc2nc(-c3ccc(F)cc3)oc2c1 (3D coordinates assigned)
CCN(CC)c1ccc2nc(-c3ccc(F)cc3)oc2c1 (optimized conformer: 75.07477922272369 kcal/mol)

>  <smiles>  (23) 
CCN(CC)c1ccc2nc(-c3ccc(F)cc3)oc2c1

>  <score_type>  (23) 
oracle

>  <origin>  (23) 
adg

>  <m_score__min__energy>  (23) 
-6.4800000000000004

>  <m_primary>  (23) 
energy

$$$$
23:0
     RDKit          3D

 55 58  0  0  0  0  0  0  0  0999 V2000
  -10.2350   21.2600  -32.1110 C   0  0  0  0  0  0  0  0  0  0  0  0
   -9.1440   20.4350  -32.5050 O   0  0  0  0  0  0  0  0  0  0  0  0
   -7.8030   20.6830  -32.1760 C   0  0  0  0  0  0  0  0  0  0  0  0
   -6.8690   19.6500  -31.9930 C   0  0  0  0  0  0  0  0  0  0  0  0
   -5.5440   19.9520  -31.6780 C   0  0  0  0  0  0  0  0  0  0  0  0
   -5.1300   21.2840  -31.5370 C   0  0  0  0  0  0  0  0  0  0  0  0
   -6.0640   22.3270  -31.6890 C   0  0  0  0  0  0  0  0  0  0  0  0
   -7.3910   22.0120  -32.0280 C   0  0  0  0  0  0  0  0  0  0  0  0
   -5.6840   23.7550  -31.5980 C   0  0  0  0  0  0  0  0  0  0  0  0
   -4.7710   24.2830  -30.7650 C   0  0  0  0  0  0  0  0  0  0  0  0
   -3.9730   23.5350  -29.7660 C   0  0  0  0  0  0  0  0  0  0  0  0
   -3.6390   24.1820  -28.5640 C   0  0  0  0  0  0  0  0  0  0  0  0
   -2.8570   23.5370  -27.6030 C   0  0  0  0  0  0  0  0  0  0  0  0
   -2.3880   22.2440  -27.8350 C   0  0  0  0  0  0  0  0  0  0  0  0
   -2.6910   21.5980  -29.0350 C   0  0  0  0  0  0  0  0  0  0  0  0
   -3.4700   22.2400  -30.0110 C   0  0  0  0  0  0  0  0  0  0  0  0
   -3.7580   21.5700  -31.2440 N   0  0  0  0  0  0  0  0  0  0  0  0
   -2.6910   21.1660  -32.1340 C   0  0  0  0  0  0  0  0  0  0  0  0
   -2.3440   21.9280  -33.0790 O   0  0  0  0  0  0  0  0  0  0  0  0
   -1.9610   19.8590  -31.9380 C   0  0  0  0  0  0  0  0  0  0  0  0
   -2.1510   18.9070  -33.1290 C   0  0  0  0  0  0  0  0  0  0  0  0
   -3.3870   19.2770  -33.9690 C   0  0  0  0  0  0  0  0  0  0  0  0
   -4.1230   18.0800  -34.4370 N   0  0  0  0  0  0  0  0  0  0  0  0
   -3.9110   16.9220  -33.5300 C   0  0  0  0  0  0  0  0  0  0  0  0
   -5.0700   16.7430  -32.5370 C   0  0  0  0  0  0  0  0  0  0  0  0
   -6.3600   16.5270  -33.2180 N   0  0  0  0  0  0  0  0  0  0  0  0
   -6.4260   17.1170  -34.5670 C   0  0  0  0  0  0  0  0  0  0  0  0
   -5.5580   18.3780  -34.6770 C   0  0  0  0  0  0  0  0  0  0  0  0
  -10.2871   21.2994  -31.0129 H   0  0  0  0  0  0  0  0  0  0  0  0
  -10.0888   22.2755  -32.5078 H   0  0  0  0  0  0  0  0  0  0  0  0
  -11.1722   20.8427  -32.5078 H   0  0  0  0  0  0  0  0  0  0  0  0
   -7.1829   18.6010  -32.0983 H   0  0  0  0  0  0  0  0  0  0  0  0
   -4.8176   19.1378  -31.5390 H   0  0  0  0  0  0  0  0  0  0  0  0
   -8.1178   22.8237  -32.1795 H   0  0  0  0  0  0  0  0  0  0  0  0
   -6.1983   24.4506  -32.2774 H   0  0  0  0  0  0  0  0  0  0  0  0
   -4.6011   25.3678  -30.8310 H   0  0  0  0  0  0  0  0  0  0  0  0
   -3.9966   25.2055  -28.3783 H   0  0  0  0  0  0  0  0  0  0  0  0
   -2.6106   24.0497  -26.6615 H   0  0  0  0  0  0  0  0  0  0  0  0
   -1.7801   21.7339  -27.0733 H   0  0  0  0  0  0  0  0  0  0  0  0
   -2.3171   20.5796  -29.2170 H   0  0  0  0  0  0  0  0  0  0  0  0
   -0.8875   20.0668  -31.8177 H   0  0  0  0  0  0  0  0  0  0  0  0
   -2.3754   19.3702  -31.0439 H   0  0  0  0  0  0  0  0  0  0  0  0
   -1.2581   18.9563  -33.7695 H   0  0  0  0  0  0  0  0  0  0  0  0
   -2.2998   17.8916  -32.7331 H   0  0  0  0  0  0  0  0  0  0  0  0
   -4.0623   19.8906  -33.3546 H   0  0  0  0  0  0  0  0  0  0  0  0
   -3.0406   19.8289  -34.8553 H   0  0  0  0  0  0  0  0  0  0  0  0
   -3.8199   16.0089  -34.1366 H   0  0  0  0  0  0  0  0  0  0  0  0
   -2.9954   17.1103  -32.9502 H   0  0  0  0  0  0  0  0  0  0  0  0
   -4.8573   15.8736  -31.8975 H   0  0  0  0  0  0  0  0  0  0  0  0
   -5.1519   17.6661  -31.9444 H   0  0  0  0  0  0  0  0  0  0  0  0
   -6.5210   15.4960  -33.3090 H   0  0  0  0  0  0  0  0  0  0  0  0
   -6.0721   16.3755  -35.2983 H   0  0  0  0  0  0  0  0  0  0  0  0
   -7.4699   17.4002  -34.7672 H   0  0  0  0  0  0  0  0  0  0  0  0
   -5.6703   18.8011  -35.6862 H   0  0  0  0  0  0  0  0  0  0  0  0
   -5.8926   19.0924  -33.9104 H   0  0  0  0  0  0  0  0  0  0  0  0
  1  2  1  0
  2  3  1  0
  3  4  2  0
  4  5  1  0
  5  6  2  0
  6  7  1  0
  7  8  2  0
  7  9  1  0
  9 10  2  0
 10 11  1  0
 11 12  2  0
 12 13  1  0
 13 14  2  0
 14 15  1  0
 15 16  2  0
 16 17  1  0
 17 18  1  0
 18 19  2  0
 18 20  1  0
 20 21  1  0
 21 22  1  0
 22 23  1  0
 23 24  1  0
 24 25  1  0
 25 26  1  0
 26 27  1  0
 27 28  1  0
  8  3  1  0
 16 11  1  0
 28 23  1  0
 17  6  1  0
  1 29  1  0
  1 30  1  0
  1 31  1  0
  4 32  1  0
  5 33  1  0
  8 34  1  0
  9 35  1  0
 10 36  1  0
 12 37  1  0
 13 38  1  0
 14 39  1  0
 15 40  1  0
 20 41  1  0
 20 42  1  0
 21 43  1  0
 21 44  1  0
 22 45  1  0
 22 46  1  0
 24 47  1  0
 24 48  1  0
 25 49  1  0
 25 50  1  0
 26 51  1  0
 27 52  1  0
 27 53  1  0
 28 54  1  0
 28 55  1  0
M  END
>  <UniqueID>  (24) 
22

>  <SMILES>  (24) 
COc1ccc2c(c1)C=Cc1ccccc1N2C(=O)CCCN1CCNCC1

>  <Energy>  (24) 
88.0889589673877

>  <Genealogy>  (24) 
COc1ccc2c(c1)C=Cc1ccccc1N2C(=O)CCCN1CCNCC1 (3D coordinates assigned)
COc1ccc2c(c1)C=Cc1ccccc1N2C(=O)CCCN1CCNCC1 (nonaromatic ring conformer: 88.0889589673877 kcal/mol)

>  <smiles>  (24) 
COc1ccc2c(c1)C=Cc1ccccc1N2C(=O)CCCN1CCNCC1

>  <score_type>  (24) 
oracle

>  <origin>  (24) 
adg

>  <m_score__min__energy>  (24) 
-7.0899999999999999

>  <m_primary>  (24) 
energy

$$$$
24:0
     RDKit          3D

 25 27  0  0  0  0  0  0  0  0999 V2000
   -1.5890   26.0390  -28.9600 O   0  0  0  0  0  0  0  0  0  0  0  0
   -1.2980   25.4440  -27.7490 N   0  0  0  0  0  0  0  0  0  0  0  0
   -0.9400   26.2200  -26.6840 C   0  0  0  0  0  0  0  0  0  0  0  0
   -0.8760   27.6220  -26.8100 C   0  0  0  0  0  0  0  0  0  0  0  0
   -0.5420   28.4200  -25.7180 C   0  0  0  0  0  0  0  0  0  0  0  0
   -0.2780   27.8340  -24.4830 C   0  0  0  0  0  0  0  0  0  0  0  0
   -0.3310   26.4470  -24.3340 C   0  0  0  0  0  0  0  0  0  0  0  0
   -0.6390   25.6120  -25.4340 C   0  0  0  0  0  0  0  0  0  0  0  0
   -0.6830   24.2390  -25.3240 N   0  0  0  0  0  0  0  0  0  0  0  0
   -0.3170   23.5840  -24.1590 O   0  0  0  0  0  0  0  0  0  0  0  0
   -1.0730   23.4730  -26.3910 C   0  0  0  0  0  0  0  0  0  0  0  0
   -1.1580   22.0690  -26.2820 C   0  0  0  0  0  0  0  0  0  0  0  0
   -1.5470   21.2930  -27.3740 C   0  0  0  0  0  0  0  0  0  0  0  0
   -1.8540   21.8990  -28.5920 C   0  0  0  0  0  0  0  0  0  0  0  0
   -2.3420   20.9170  -29.9620 Cl  0  0  0  0  0  0  0  0  0  0  0  0
   -1.7740   23.2880  -28.7210 C   0  0  0  0  0  0  0  0  0  0  0  0
   -1.3840   24.0870  -27.6270 C   0  0  0  0  0  0  0  0  0  0  0  0
   -1.0921   28.0914  -27.7811 H   0  0  0  0  0  0  0  0  0  0  0  0
   -0.4869   29.5127  -25.8315 H   0  0  0  0  0  0  0  0  0  0  0  0
   -0.0262   28.4675  -23.6197 H   0  0  0  0  0  0  0  0  0  0  0  0
   -0.1310   25.9980  -23.3499 H   0  0  0  0  0  0  0  0  0  0  0  0
    0.2450   23.9950  -23.4290 H   0  0  0  0  0  0  0  0  0  0  0  0
   -0.9151   21.5813  -25.3264 H   0  0  0  0  0  0  0  0  0  0  0  0
   -1.6118   20.1995  -27.2741 H   0  0  0  0  0  0  0  0  0  0  0  0
   -2.0172   23.7617  -29.6836 H   0  0  0  0  0  0  0  0  0  0  0  0
  1  2  1  0
  2  3  2  0
  3  4  1  0
  4  5  2  0
  5  6  1  0
  6  7  2  0
  7  8  1  0
  8  9  2  0
  9 10  1  0
  9 11  1  0
 11 12  2  0
 12 13  1  0
 13 14  2  0
 14 15  1  0
 14 16  1  0
 16 17  2  0
 17  2  1  0
  8  3  1  0
 17 11  1  0
  4 18  1  0
  5 19  1  0
  6 20  1  0
  7 21  1  0
 10 22  1  0
 12 23  1  0
 13 24  1  0
 16 25  1  0
M  CHG  3   1  -1   2   1   9   1
M  END
>  <UniqueID>  (25) 
23

>  <SMILES>  (25) 
[O-][n+]1c2ccccc2[n+](O)c2ccc(Cl)cc21

>  <Energy>  (25) 
43.75034234096657

>  <Genealogy>  (25) 
[O-][n+]1c2ccccc2[n+](O)c2ccc(Cl)cc21 (protonated)
[O-][n+]1c2ccccc2[n+](O)c2ccc(Cl)cc21 (3D coordinates assigned)
[O-][n+]1c2ccccc2[n+](O)c2ccc(Cl)cc21 (optimized conformer: 43.75034234096657 kcal/mol)

>  <smiles>  (25) 
[O-][n+]1c2ccccc2[n+]([O-])c2cc(Cl)ccc21

>  <score_type>  (25) 
oracle

>  <origin>  (25) 
adg

>  <m_score__min__energy>  (25) 
-7.0599999999999996

>  <m_primary>  (25) 
energy

$$$$
25:0
     RDKit          3D

 39 40  0  0  0  0  0  0  0  0999 V2000
   -6.8490   19.1140  -32.3230 C   0  0  0  0  0  0  0  0  0  0  0  0
   -5.5110   19.7190  -32.6320 C   0  0  0  0  0  0  0  0  0  0  0  0
   -4.6550   19.1030  -33.5540 C   0  0  0  0  0  0  0  0  0  0  0  0
   -3.3900   19.6380  -33.8080 C   0  0  0  0  0  0  0  0  0  0  0  0
   -2.9530   20.7890  -33.1340 C   0  0  0  0  0  0  0  0  0  0  0  0
   -1.5660   21.3080  -33.4030 C   0  0  0  0  0  0  0  0  0  0  0  0
   -3.8250   21.4310  -32.2230 C   0  0  0  0  0  0  0  0  0  0  0  0
   -3.4410   22.6240  -31.5260 N   0  0  0  0  0  0  0  0  0  0  0  0
   -2.4760   22.6160  -30.4630 C   0  0  0  0  0  0  0  0  0  0  0  0
   -1.8500   21.5580  -30.1840 O   0  0  0  0  0  0  0  0  0  0  0  0
   -2.1920   23.8420  -29.7020 C   0  0  0  0  0  0  0  0  0  0  0  0
   -1.1290   23.9410  -29.0310 O   0  0  0  0  0  0  0  0  0  0  0  0
   -3.1200   24.9270  -29.7270 N   0  0  0  0  0  0  0  0  0  0  0  0
   -3.8810   25.1810  -30.8240 O   0  0  0  0  0  0  0  0  0  0  0  0
   -5.1780   25.4570  -30.3530 C   0  0  0  0  0  0  0  0  0  0  0  0
   -6.0900   24.3330  -30.7490 C   0  0  0  0  0  0  0  0  0  0  0  0
   -6.6690   23.5080  -29.7700 C   0  0  0  0  0  0  0  0  0  0  0  0
   -7.5470   22.4850  -30.1410 C   0  0  0  0  0  0  0  0  0  0  0  0
   -7.8630   22.2850  -31.4880 C   0  0  0  0  0  0  0  0  0  0  0  0
   -7.3030   23.1120  -32.4660 C   0  0  0  0  0  0  0  0  0  0  0  0
   -6.4250   24.1380  -32.1000 C   0  0  0  0  0  0  0  0  0  0  0  0
   -5.0820   20.8690  -31.9560 C   0  0  0  0  0  0  0  0  0  0  0  0
   -6.9813   19.0542  -31.2326 H   0  0  0  0  0  0  0  0  0  0  0  0
   -7.6433   19.7405  -32.7549 H   0  0  0  0  0  0  0  0  0  0  0  0
   -6.9032   18.1038  -32.7549 H   0  0  0  0  0  0  0  0  0  0  0  0
   -4.9806   18.1937  -34.0804 H   0  0  0  0  0  0  0  0  0  0  0  0
   -2.7305   19.1530  -34.5427 H   0  0  0  0  0  0  0  0  0  0  0  0
   -1.0545   21.4994  -32.4481 H   0  0  0  0  0  0  0  0  0  0  0  0
   -1.0001   20.5608  -33.9787 H   0  0  0  0  0  0  0  0  0  0  0  0
   -1.6297   22.2431  -33.9787 H   0  0  0  0  0  0  0  0  0  0  0  0
   -3.7350   23.5410  -31.9320 H   0  0  0  0  0  0  0  0  0  0  0  0
   -5.1607   25.5494  -29.2570 H   0  0  0  0  0  0  0  0  0  0  0  0
   -5.5392   26.4003  -30.7887 H   0  0  0  0  0  0  0  0  0  0  0  0
   -6.4307   23.6675  -28.7080 H   0  0  0  0  0  0  0  0  0  0  0  0
   -7.9901   21.8361  -29.3712 H   0  0  0  0  0  0  0  0  0  0  0  0
   -8.5516   21.4777  -31.7780 H   0  0  0  0  0  0  0  0  0  0  0  0
   -7.5532   22.9558  -33.5257 H   0  0  0  0  0  0  0  0  0  0  0  0
   -5.9957   24.7939  -32.8717 H   0  0  0  0  0  0  0  0  0  0  0  0
   -5.7386   21.3364  -31.2074 H   0  0  0  0  0  0  0  0  0  0  0  0
  1  2  1  0
  2  3  2  0
  3  4  1  0
  4  5  2  0
  5  6  1  0
  5  7  1  0
  7  8  1  0
  8  9  1  0
  9 10  2  0
  9 11  1  0
 11 12  2  0
 11 13  1  0
 13 14  1  0
 14 15  1  0
 15 16  1  0
 16 17  2  0
 17 18  1  0
 18 19  2  0
 19 20  1  0
 20 21  2  0
  7 22  2  0
 22  2  1  0
 21 16  1  0
  1 23  1  0
  1 24  1  0
  1 25  1  0
  3 26  1  0
  4 27  1  0
  6 28  1  0
  6 29  1  0
  6 30  1  0
  8 31  1  0
 15 32  1  0
 15 33  1  0
 17 34  1  0
 18 35  1  0
 19 36  1  0
 20 37  1  0
 21 38  1  0
 22 39  1  0
M  CHG  1  13  -1
M  END
>  <UniqueID>  (26) 
24

>  <SMILES>  (26) 
Cc1ccc(C)c(NC(=O)C(=O)[N-]OCc2ccccc2)c1

>  <Energy>  (26) 
41.00175752706976

>  <Genealogy>  (26) 
Cc1ccc(C)c(NC(=O)C(=O)[N-]OCc2ccccc2)c1 (protonated)
Cc1ccc(C)c(NC(=O)C(=O)[N-]OCc2ccccc2)c1 (3D coordinates assigned)
Cc1ccc(C)c(NC(=O)C(=O)[N-]OCc2ccccc2)c1 (optimized conformer: 41.00175752706976 kcal/mol)

>  <smiles>  (26) 
Cc1ccc(C)c(NC(=O)C(=O)NOCc2ccccc2)c1

>  <score_type>  (26) 
oracle

>  <origin>  (26) 
adg

>  <m_score__min__energy>  (26) 
-9.2799999999999994

>  <m_primary>  (26) 
energy

$$$$
26:0
     RDKit          3D

 28 29  0  0  0  0  0  0  0  0999 V2000
   -3.4520   24.8830  -26.7120 C   0  0  0  0  0  0  0  0  0  0  0  0
   -4.2410   23.8170  -27.4590 C   0  0  0  0  0  0  0  0  0  0  0  0
   -4.9710   24.4280  -28.5730 N   0  0  0  0  0  0  0  0  0  0  0  0
   -4.0100   24.3990  -30.0260 S   0  0  0  0  0  0  0  0  0  0  0  0
   -4.6250   25.2580  -31.0980 O   0  0  0  0  0  0  0  0  0  0  0  0
   -2.6340   24.9190  -29.7170 O   0  0  0  0  0  0  0  0  0  0  0  0
   -3.8620   22.7220  -30.6160 C   0  0  0  0  0  0  0  0  0  0  0  0
   -5.2050   22.1820  -30.9820 C   0  0  0  0  0  0  0  0  0  0  0  0
   -5.3670   21.1330  -31.8320 N   0  0  0  0  0  0  0  0  0  0  0  0
   -6.7000   21.0510  -31.9370 C   0  0  0  0  0  0  0  0  0  0  0  0
   -7.4420   20.1500  -32.6970 C   0  0  0  0  0  0  0  0  0  0  0  0
   -8.8450   20.2680  -32.6660 C   0  0  0  0  0  0  0  0  0  0  0  0
   -9.4600   21.2750  -31.8890 C   0  0  0  0  0  0  0  0  0  0  0  0
   -8.6770   22.1710  -31.1350 C   0  0  0  0  0  0  0  0  0  0  0  0
   -7.2930   22.0200  -31.1880 C   0  0  0  0  0  0  0  0  0  0  0  0
   -6.3630   22.7620  -30.5700 N   0  0  0  0  0  0  0  0  0  0  0  0
   -3.5647   24.7307  -25.6284 H   0  0  0  0  0  0  0  0  0  0  0  0
   -2.3886   24.8100  -26.9839 H   0  0  0  0  0  0  0  0  0  0  0  0
   -3.8325   25.8787  -26.9839 H   0  0  0  0  0  0  0  0  0  0  0  0
   -3.5484   23.0569  -27.8496 H   0  0  0  0  0  0  0  0  0  0  0  0
   -4.9579   23.3467  -26.7699 H   0  0  0  0  0  0  0  0  0  0  0  0
   -5.8240   23.8500  -28.7550 H   0  0  0  0  0  0  0  0  0  0  0  0
   -3.2101   22.7050  -31.5019 H   0  0  0  0  0  0  0  0  0  0  0  0
   -3.4303   22.0987  -29.8191 H   0  0  0  0  0  0  0  0  0  0  0  0
   -6.9493   19.3733  -33.3004 H   0  0  0  0  0  0  0  0  0  0  0  0
   -9.4654   19.5723  -33.2500 H   0  0  0  0  0  0  0  0  0  0  0  0
  -10.5566   21.3599  -31.8727 H   0  0  0  0  0  0  0  0  0  0  0  0
   -9.1414   22.9611  -30.5266 H   0  0  0  0  0  0  0  0  0  0  0  0
  1  2  1  0
  2  3  1  0
  3  4  1  0
  4  5  2  0
  4  6  2  0
  4  7  1  0
  7  8  1  0
  8  9  2  0
  9 10  1  0
 10 11  2  0
 11 12  1  0
 12 13  2  0
 13 14  1  0
 14 15  2  0
 15 16  1  0
 16  8  1  0
 15 10  1  0
  1 17  1  0
  1 18  1  0
  1 19  1  0
  2 20  1  0
  2 21  1  0
  3 22  1  0
  7 23  1  0
  7 24  1  0
 11 25  1  0
 12 26  1  0
 13 27  1  0
 14 28  1  0
M  CHG  1  16  -1
M  END
>  <UniqueID>  (27) 
25

>  <SMILES>  (27) 
CCNS(=O)(=O)Cc1nc2ccccc2[n-]1

>  <Energy>  (27) 
51.566545417326154

>  <Genealogy>  (27) 
CCNS(=O)(=O)Cc1nc2ccccc2[n-]1 (protonated)
CCNS(=O)(=O)Cc1nc2ccccc2[n-]1 (3D coordinates assigned)
CCNS(=O)(=O)Cc1nc2ccccc2[n-]1 (optimized conformer: 51.566545417326154 kcal/mol)

>  <smiles>  (27) 
CCNS(=O)(=O)Cc1nc2ccccc2[nH]1

>  <score_type>  (27) 
oracle

>  <origin>  (27) 
adg

>  <m_score__min__energy>  (27) 
-6.9100000000000001

>  <m_primary>  (27) 
energy

$$$$
27:0
     RDKit          3D

 36 37  0  0  0  0  0  0  0  0999 V2000
   -2.4770   24.3510  -28.8800 C   0  0  0  0  0  0  0  0  0  0  0  0
   -3.2450   24.9240  -29.9330 O   0  0  0  0  0  0  0  0  0  0  0  0
   -4.4360   24.3780  -30.4330 C   0  0  0  0  0  0  0  0  0  0  0  0
   -5.6960   24.9310  -30.1510 C   0  0  0  0  0  0  0  0  0  0  0  0
   -6.8540   24.3480  -30.6690 C   0  0  0  0  0  0  0  0  0  0  0  0
   -6.7780   23.2010  -31.4810 C   0  0  0  0  0  0  0  0  0  0  0  0
   -7.9300   22.5920  -32.0060 O   0  0  0  0  0  0  0  0  0  0  0  0
   -9.0560   22.1860  -31.2340 C   0  0  0  0  0  0  0  0  0  0  0  0
   -5.5140   22.6460  -31.7710 C   0  0  0  0  0  0  0  0  0  0  0  0
   -5.3710   21.4060  -32.6220 C   0  0  0  0  0  0  0  0  0  0  0  0
   -6.3710   20.3940  -32.2240 N   0  0  0  0  0  0  0  0  0  0  0  0
   -5.6930   19.1850  -31.6990 C   0  0  0  0  0  0  0  0  0  0  0  0
   -6.6440   17.9840  -31.5490 C   0  0  0  0  0  0  0  0  0  0  0  0
   -8.3500   18.5330  -31.2190 S   0  0  0  0  0  0  0  0  0  0  0  0
   -8.5590   19.4020  -32.8230 C   0  0  0  0  0  0  0  0  0  0  0  0
   -7.2690   20.0530  -33.3460 C   0  0  0  0  0  0  0  0  0  0  0  0
   -4.3570   23.2390  -31.2410 C   0  0  0  0  0  0  0  0  0  0  0  0
   -2.8940   24.6621  -27.9108 H   0  0  0  0  0  0  0  0  0  0  0  0
   -2.5089   23.2542  -28.9578 H   0  0  0  0  0  0  0  0  0  0  0  0
   -1.4347   24.6939  -28.9578 H   0  0  0  0  0  0  0  0  0  0  0  0
   -5.7708   25.8280  -29.5188 H   0  0  0  0  0  0  0  0  0  0  0  0
   -7.8352   24.7894  -30.4403 H   0  0  0  0  0  0  0  0  0  0  0  0
   -8.8171   22.2722  -30.1637 H   0  0  0  0  0  0  0  0  0  0  0  0
   -9.9149   22.8311  -31.4710 H   0  0  0  0  0  0  0  0  0  0  0  0
   -9.3056   21.1413  -31.4710 H   0  0  0  0  0  0  0  0  0  0  0  0
   -5.5236   21.6712  -33.6786 H   0  0  0  0  0  0  0  0  0  0  0  0
   -4.3631   20.9887  -32.4805 H   0  0  0  0  0  0  0  0  0  0  0  0
   -4.8837   18.9079  -32.3906 H   0  0  0  0  0  0  0  0  0  0  0  0
   -5.3090   19.4298  -30.6977 H   0  0  0  0  0  0  0  0  0  0  0  0
   -6.6295   17.3963  -32.4787 H   0  0  0  0  0  0  0  0  0  0  0  0
   -6.3036   17.3736  -30.6996 H   0  0  0  0  0  0  0  0  0  0  0  0
   -8.9077   18.6734  -33.5697 H   0  0  0  0  0  0  0  0  0  0  0  0
   -9.2836   20.2128  -32.6571 H   0  0  0  0  0  0  0  0  0  0  0  0
   -6.7563   19.3507  -34.0197 H   0  0  0  0  0  0  0  0  0  0  0  0
   -7.5292   20.9749  -33.8867 H   0  0  0  0  0  0  0  0  0  0  0  0
   -3.3731   22.8010  -31.4647 H   0  0  0  0  0  0  0  0  0  0  0  0
  1  2  1  0
  2  3  1  0
  3  4  2  0
  4  5  1  0
  5  6  2  0
  6  7  1  0
  7  8  1  0
  6  9  1  0
  9 10  1  0
 10 11  1  0
 11 12  1  0
 12 13  1  0
 13 14  1  0
 14 15  1  0
 15 16  1  0
  9 17  2  0
 17  3  1  0
 16 11  1  0
  1 18  1  0
  1 19  1  0
  1 20  1  0
  4 21  1  0
  5 22  1  0
  8 23  1  0
  8 24  1  0
  8 25  1  0
 10 26  1  0
 10 27  1  0
 12 28  1  0
 12 29  1  0
 13 30  1  0
 13 31  1  0
 15 32  1  0
 15 33  1  0
 16 34  1  0
 16 35  1  0
 17 36  1  0
M  END
>  <UniqueID>  (28) 
26

>  <SMILES>  (28) 
COc1ccc(OC)c(CN2CCSCC2)c1

>  <Energy>  (28) 
38.89386653244159

>  <Genealogy>  (28) 
COc1ccc(OC)c(CN2CCSCC2)c1 (3D coordinates assigned)
COc1ccc(OC)c(CN2CCSCC2)c1 (nonaromatic ring conformer: 38.89386653244159 kcal/mol)

>  <smiles>  (28) 
COc1ccc(OC)c(CN2CCSCC2)c1

>  <score_type>  (28) 
oracle

>  <origin>  (28) 
adg

>  <m_score__min__energy>  (28) 
-6.5199999999999996

>  <m_primary>  (28) 
energy

$$$$
28:0
     RDKit          3D

 55 60  0  0  0  0  0  0  0  0999 V2000
   -5.5850   26.2610  -30.4540 C   0  0  0  0  0  0  0  0  0  0  0  0
   -4.2910   25.6670  -30.5010 O   0  0  0  0  0  0  0  0  0  0  0  0
   -3.9610   24.4580  -29.8740 C   0  0  0  0  0  0  0  0  0  0  0  0
   -4.8940   23.4000  -29.6740 C   0  0  0  0  0  0  0  0  0  0  0  0
   -4.5340   22.2470  -28.9280 C   0  0  0  0  0  0  0  0  0  0  0  0
   -3.2160   22.0930  -28.4580 C   0  0  0  0  0  0  0  0  0  0  0  0
   -2.3210   23.0830  -28.7730 C   0  0  0  0  0  0  0  0  0  0  0  0
   -2.6750   24.2790  -29.3660 C   0  0  0  0  0  0  0  0  0  0  0  0
   -1.6750   25.2430  -29.1290 O   0  0  0  0  0  0  0  0  0  0  0  0
   -0.9740   24.6410  -28.0390 C   0  0  2  0  0  0  0  0  0  0  0  0
    0.1700   25.1010  -27.2230 C   0  0  0  0  0  0  0  0  0  0  0  0
    0.9290   25.9880  -27.5750 O   0  0  0  0  0  0  0  0  0  0  0  0
    0.2960   24.3600  -25.8770 C   0  0  0  0  0  0  0  0  0  0  0  0
   -0.6200   23.0560  -25.8110 C   0  0  0  0  0  0  0  0  0  0  0  0
   -0.4600   22.2640  -27.1460 C   0  0  1  0  0  0  0  0  0  0  0  0
    0.9320   22.0160  -27.2220 O   0  0  0  0  0  0  0  0  0  0  0  0
   -1.1990   20.9030  -27.3920 C   0  0  1  0  0  0  0  0  0  0  0  0
   -2.7660   21.0470  -27.4660 C   0  0  0  0  0  0  0  0  0  0  0  0
   -0.6640   20.2440  -28.6490 N   0  0  2  0  0  0  0  0  0  0  0  0
    0.5830   19.4590  -28.4030 C   0  0  0  0  0  0  0  0  0  0  0  0
    0.3930   17.9520  -28.6960 C   0  0  0  0  0  0  0  0  0  0  0  0
    0.3100   17.0800  -27.4430 C   0  0  0  0  0  0  0  0  0  0  0  0
    1.5980   16.3770  -27.8470 C   0  0  0  0  0  0  0  0  0  0  0  0
    1.6880   17.2450  -29.0940 C   0  0  0  0  0  0  0  0  0  0  0  0
   -0.4990   21.1410  -29.8560 C   0  0  0  0  0  0  0  0  0  0  0  0
   -0.1200   22.6360  -29.5780 C   0  0  0  0  0  0  0  0  0  0  0  0
   -0.9080   23.1410  -28.3470 C   0  0  1  0  0  0  0  0  0  0  0  0
   -5.8870   26.3996  -29.4054 H   0  0  0  0  0  0  0  0  0  0  0  0
   -5.5589   27.2373  -30.9602 H   0  0  0  0  0  0  0  0  0  0  0  0
   -6.3083   25.6048  -30.9602 H   0  0  0  0  0  0  0  0  0  0  0  0
   -5.9043   23.4773  -30.1022 H   0  0  0  0  0  0  0  0  0  0  0  0
   -5.2862   21.4727  -28.7169 H   0  0  0  0  0  0  0  0  0  0  0  0
   -1.5924   25.1078  -27.2582 H   0  0  0  0  0  0  0  0  0  0  0  0
    1.3453   24.0619  -25.7351 H   0  0  0  0  0  0  0  0  0  0  0  0
   -0.0398   25.0454  -25.0848 H   0  0  0  0  0  0  0  0  0  0  0  0
   -0.3056   22.4252  -24.9664 H   0  0  0  0  0  0  0  0  0  0  0  0
   -1.6722   23.3439  -25.6699 H   0  0  0  0  0  0  0  0  0  0  0  0
    1.3290   22.1930  -26.3290 H   0  0  0  0  0  0  0  0  0  0  0  0
   -0.9918   20.2660  -26.5195 H   0  0  0  0  0  0  0  0  0  0  0  0
   -3.1936   20.0773  -27.7608 H   0  0  0  0  0  0  0  0  0  0  0  0
   -3.1147   21.3643  -26.4722 H   0  0  0  0  0  0  0  0  0  0  0  0
   -1.3860   19.5380  -28.9260 H   0  0  0  0  0  0  0  0  0  0  0  0
    1.3805   19.8483  -29.0529 H   0  0  0  0  0  0  0  0  0  0  0  0
    0.8446   19.5657  -27.3399 H   0  0  0  0  0  0  0  0  0  0  0  0
   -0.4577   18.0066  -29.3912 H   0  0  0  0  0  0  0  0  0  0  0  0
    0.3816   17.6413  -26.4997 H   0  0  0  0  0  0  0  0  0  0  0  0
   -0.5985   16.4979  -27.2290 H   0  0  0  0  0  0  0  0  0  0  0  0
    2.4281   16.5212  -27.1398 H   0  0  0  0  0  0  0  0  0  0  0  0
    1.6287   15.2806  -27.9310 H   0  0  0  0  0  0  0  0  0  0  0  0
    2.5690   17.9031  -29.1203 H   0  0  0  0  0  0  0  0  0  0  0  0
    1.7874   16.7833  -30.0875 H   0  0  0  0  0  0  0  0  0  0  0  0
    0.2921   20.7087  -30.4864 H   0  0  0  0  0  0  0  0  0  0  0  0
   -1.4932   21.1783  -30.3253 H   0  0  0  0  0  0  0  0  0  0  0  0
    0.9594   22.7110  -29.3797 H   0  0  0  0  0  0  0  0  0  0  0  0
   -0.3723   23.2500  -30.4551 H   0  0  0  0  0  0  0  0  0  0  0  0
  1  2  1  0
  2  3  1  0
  3  4  2  0
  4  5  1  0
  5  6  2  0
  6  7  1  0
  7  8  2  0
  8  9  1  0
  9 10  1  0
 10 11  1  0
 11 12  2  0
 11 13  1  0
 13 14  1  0
 14 15  1  0
 15 16  1  6
 15 17  1  0
 17 18  1  0
 17 19  1  0
 19 20  1  0
 20 21  1  0
 21 22  1  0
 22 23  1  0
 23 24  1  0
 19 25  1  0
 25 26  1  0
 27 26  1  6
  8  3  1  0
 27 10  1  0
 18  6  1  0
 24 21  1  0
 27  7  1  0
 27 15  1  0
  1 28  1  0
  1 29  1  0
  1 30  1  0
  4 31  1  0
  5 32  1  0
 10 33  1  1
 13 34  1  0
 13 35  1  0
 14 36  1  0
 14 37  1  0
 16 38  1  0
 17 39  1  1
 18 40  1  0
 18 41  1  0
 19 42  1  6
 20 43  1  0
 20 44  1  0
 21 45  1  0
 22 46  1  0
 22 47  1  0
 23 48  1  0
 23 49  1  0
 24 50  1  0
 24 51  1  0
 25 52  1  0
 25 53  1  0
 26 54  1  0
 26 55  1  0
M  CHG  1  19   1
M  END
>  <UniqueID>  (29) 
27

>  <SMILES>  (29) 
COc1ccc2c3c1O[C@@H]1C(=O)CC[C@@]4(O)C(C2)[NH+](CC2CCC2)CCC314

>  <Energy>  (29) 
243.99287770407224

>  <Genealogy>  (29) 
COc1ccc2c3c1OC1C(=O)CCC4(O)C(C2)[NH+](CC2CCC2)CCC314 (protonated)
COc1ccc2c3c1O[C@@H]1C(=O)CC[C@@]4(O)C(C2)[NH+](CC2CCC2)CCC314 (chirality)
COc1ccc2c3c1O[C@@H]1C(=O)CC[C@@]4(O)C(C2)[NH+](CC2CCC2)CCC314 (3D coordinates assigned)
COc1ccc2c3c1O[C@@H]1C(=O)CC[C@@]4(O)C(C2)[NH+](CC2CCC2)CCC314 (nonaromatic ring conformer: 243.99287770407224 kcal/mol)

>  <smiles>  (29) 
COc1ccc2c3c1OC1C(=O)CCC4(O)C(C2)N(CC2CCC2)CCC314

>  <score_type>  (29) 
oracle

>  <origin>  (29) 
adg

>  <m_score__min__energy>  (29) 
-7.1100000000000003

>  <m_primary>  (29) 
energy

$$$$
29:0
     RDKit          3D

 27 28  0  0  0  0  0  0  0  0999 V2000
   -0.3290   26.9190  -25.6480 C   0  0  0  0  0  0  0  0  0  0  0  0
   -1.2450   26.1170  -26.5100 C   0  0  0  0  0  0  0  0  0  0  0  0
   -2.2290   25.2480  -26.0560 C   0  0  0  0  0  0  0  0  0  0  0  0
   -2.8770   24.5610  -27.0900 C   0  0  0  0  0  0  0  0  0  0  0  0
   -2.3910   24.8870  -28.3520 C   0  0  0  0  0  0  0  0  0  0  0  0
   -2.8470   24.2850  -29.6420 C   0  0  0  0  0  0  0  0  0  0  0  0
   -3.5070   25.2920  -30.4640 N   0  0  0  0  0  0  0  0  0  0  0  0
   -4.9230   25.3410  -30.6740 C   0  0  0  0  0  0  0  0  0  0  0  0
   -5.5560   26.4140  -30.4690 O   0  0  0  0  0  0  0  0  0  0  0  0
   -5.6340   24.1330  -31.1270 C   0  0  0  0  0  0  0  0  0  0  0  0
   -6.9720   23.8940  -30.7660 C   0  0  0  0  0  0  0  0  0  0  0  0
   -7.6080   22.7360  -31.2190 C   0  0  0  0  0  0  0  0  0  0  0  0
   -6.9150   21.8300  -32.0230 C   0  0  0  0  0  0  0  0  0  0  0  0
   -5.5880   22.0980  -32.3630 C   0  0  0  0  0  0  0  0  0  0  0  0
   -4.9840   23.2300  -31.9130 N   0  0  0  0  0  0  0  0  0  0  0  0
   -1.1500   26.0120  -28.1860 S   0  0  0  0  0  0  0  0  0  0  0  0
   -0.5547   26.7214  -24.5897 H   0  0  0  0  0  0  0  0  0  0  0  0
    0.7132   26.6378  -25.8593 H   0  0  0  0  0  0  0  0  0  0  0  0
   -0.4700   27.9893  -25.8593 H   0  0  0  0  0  0  0  0  0  0  0  0
   -2.4743   25.1132  -24.9922 H   0  0  0  0  0  0  0  0  0  0  0  0
   -3.6879   23.8371  -26.9214 H   0  0  0  0  0  0  0  0  0  0  0  0
   -1.9768   23.8869  -30.1845 H   0  0  0  0  0  0  0  0  0  0  0  0
   -3.5595   23.4749  -29.4271 H   0  0  0  0  0  0  0  0  0  0  0  0
   -7.5128   24.6126  -30.1326 H   0  0  0  0  0  0  0  0  0  0  0  0
   -8.6541   22.5383  -30.9423 H   0  0  0  0  0  0  0  0  0  0  0  0
   -7.4085   20.9158  -32.3844 H   0  0  0  0  0  0  0  0  0  0  0  0
   -5.0300   21.3923  -32.9960 H   0  0  0  0  0  0  0  0  0  0  0  0
  1  2  1  0
  2  3  2  0
  3  4  1  0
  4  5  2  0
  5  6  1  0
  6  7  1  0
  7  8  1  0
  8  9  2  0
  8 10  1  0
 10 11  2  0
 11 12  1  0
 12 13  2  0
 13 14  1  0
 14 15  2  0
  5 16  1  0
 16  2  1  0
 15 10  1  0
  1 17  1  0
  1 18  1  0
  1 19  1  0
  3 20  1  0
  4 21  1  0
  6 22  1  0
  6 23  1  0
 11 24  1  0
 12 25  1  0
 13 26  1  0
 14 27  1  0
M  CHG  1   7  -1
M  END
>  <UniqueID>  (30) 
28

>  <SMILES>  (30) 
Cc1ccc(C[N-]C(=O)c2ccccn2)s1

>  <Energy>  (30) 
49.419719254758334

>  <Genealogy>  (30) 
Cc1ccc(C[N-]C(=O)c2ccccn2)s1 (protonated)
Cc1ccc(C[N-]C(=O)c2ccccn2)s1 (3D coordinates assigned)
Cc1ccc(C[N-]C(=O)c2ccccn2)s1 (optimized conformer: 49.419719254758334 kcal/mol)

>  <smiles>  (30) 
Cc1ccc(CNC(=O)c2ccccn2)s1

>  <score_type>  (30) 
oracle

>  <origin>  (30) 
adg

>  <m_score__min__energy>  (30) 
-8.2100000000000009

>  <m_primary>  (30) 
energy

$$$$
30:0
     RDKit          3D

 28 30  0  0  0  0  0  0  0  0999 V2000
   -9.1140   22.5610  -31.9560 C   0  0  0  0  0  0  0  0  0  0  0  0
   -9.4590   21.3170  -32.0750 N   0  0  0  0  0  0  0  0  0  0  0  0
   -8.2870   20.4470  -31.9080 C   0  0  1  0  0  0  0  0  0  0  0  0
   -8.1130   19.5400  -33.0490 N   0  0  0  0  0  0  0  0  0  0  0  0
   -7.0080   18.6360  -33.2560 C   0  0  0  0  0  0  0  0  0  0  0  0
   -6.8390   17.4700  -32.4850 C   0  0  0  0  0  0  0  0  0  0  0  0
   -5.7580   16.6140  -32.7260 C   0  0  0  0  0  0  0  0  0  0  0  0
   -4.8450   16.9050  -33.7410 C   0  0  0  0  0  0  0  0  0  0  0  0
   -5.0140   18.0500  -34.5230 C   0  0  0  0  0  0  0  0  0  0  0  0
   -6.0920   18.9070  -34.2860 C   0  0  0  0  0  0  0  0  0  0  0  0
   -7.1640   21.4160  -31.7650 C   0  0  0  0  0  0  0  0  0  0  0  0
   -5.7950   21.1930  -31.6160 C   0  0  0  0  0  0  0  0  0  0  0  0
   -4.9540   22.3110  -31.4740 C   0  0  0  0  0  0  0  0  0  0  0  0
   -5.4940   23.6160  -31.4780 C   0  0  0  0  0  0  0  0  0  0  0  0
   -6.8790   23.8100  -31.6220 C   0  0  0  0  0  0  0  0  0  0  0  0
   -7.6850   22.6820  -31.7540 C   0  0  0  0  0  0  0  0  0  0  0  0
   -9.8122   23.4098  -32.0022 H   0  0  0  0  0  0  0  0  0  0  0  0
   -8.3677   19.7693  -31.0454 H   0  0  0  0  0  0  0  0  0  0  0  0
   -8.7720   19.6800  -33.8480 H   0  0  0  0  0  0  0  0  0  0  0  0
   -7.5599   17.2306  -31.6894 H   0  0  0  0  0  0  0  0  0  0  0  0
   -5.6276   15.7094  -32.1138 H   0  0  0  0  0  0  0  0  0  0  0  0
   -3.9934   16.2334  -33.9248 H   0  0  0  0  0  0  0  0  0  0  0  0
   -4.2977   18.2773  -35.3263 H   0  0  0  0  0  0  0  0  0  0  0  0
   -6.2245   19.8020  -34.9117 H   0  0  0  0  0  0  0  0  0  0  0  0
   -5.3853   20.1722  -31.6098 H   0  0  0  0  0  0  0  0  0  0  0  0
   -3.8694   22.1683  -31.3592 H   0  0  0  0  0  0  0  0  0  0  0  0
   -4.8280   24.4845  -31.3680 H   0  0  0  0  0  0  0  0  0  0  0  0
   -7.3124   24.8210  -31.6301 H   0  0  0  0  0  0  0  0  0  0  0  0
  1  2  2  0
  2  3  1  0
  3  4  1  0
  4  5  1  0
  5  6  2  0
  6  7  1  0
  7  8  2  0
  8  9  1  0
  9 10  2  0
  3 11  1  0
 11 12  2  0
 12 13  1  0
 13 14  2  0
 14 15  1  0
 15 16  2  0
 16  1  1  0
 10  5  1  0
 16 11  1  0
  1 17  1  0
  3 18  1  1
  4 19  1  0
  6 20  1  0
  7 21  1  0
  8 22  1  0
  9 23  1  0
 10 24  1  0
 12 25  1  0
 13 26  1  0
 14 27  1  0
 15 28  1  0
M  END
>  <UniqueID>  (31) 
29

>  <SMILES>  (31) 
C1=N[C@@H](Nc2ccccc2)c2ccccc21

>  <Energy>  (31) 
56.759324405969224

>  <Genealogy>  (31) 
C1=N[C@@H](Nc2ccccc2)c2ccccc21 (chirality)
C1=N[C@@H](Nc2ccccc2)c2ccccc21 (3D coordinates assigned)
C1=N[C@@H](Nc2ccccc2)c2ccccc21 (nonaromatic ring conformer: 56.759324405969224 kcal/mol)

>  <smiles>  (31) 
C1=NC(Nc2ccccc2)c2ccccc21

>  <score_type>  (31) 
oracle

>  <origin>  (31) 
adg

>  <m_score__min__energy>  (31) 
-6.8899999999999997

>  <m_primary>  (31) 
energy

$$$$
31:0
     RDKit          3D

 42 44  0  0  0  0  0  0  0  0999 V2000
   -0.4610   24.1450  -24.6830 C   0  0  0  0  0  0  0  0  0  0  0  0
   -0.5020   23.9610  -26.1790 C   0  0  0  0  0  0  0  0  0  0  0  0
    0.3960   23.0630  -26.7770 C   0  0  0  0  0  0  0  0  0  0  0  0
    0.3940   22.8730  -28.1570 C   0  0  0  0  0  0  0  0  0  0  0  0
   -0.4870   23.5900  -28.9620 C   0  0  0  0  0  0  0  0  0  0  0  0
   -1.3690   24.5190  -28.3960 C   0  0  0  0  0  0  0  0  0  0  0  0
   -2.2490   25.2640  -29.2460 N   0  0  0  0  0  0  0  0  0  0  0  0
   -3.4960   24.7850  -29.7720 C   0  0  0  0  0  0  0  0  0  0  0  0
   -3.9430   25.3040  -30.8270 O   0  0  0  0  0  0  0  0  0  0  0  0
   -4.2760   23.6580  -29.1280 C   0  0  0  0  0  0  0  0  0  0  0  0
   -5.3940   23.1770  -29.9780 N   0  0  0  0  0  0  0  0  0  0  0  0
   -6.5570   23.9080  -30.1190 C   0  0  0  0  0  0  0  0  0  0  0  0
   -6.7100   25.3060  -29.5830 C   0  0  0  0  0  0  0  0  0  0  0  0
   -7.6160   23.3800  -30.7850 N   0  0  0  0  0  0  0  0  0  0  0  0
   -7.5560   22.1630  -31.3730 C   0  0  0  0  0  0  0  0  0  0  0  0
   -8.6830   21.6410  -32.0200 C   0  0  0  0  0  0  0  0  0  0  0  0
   -8.6130   20.3950  -32.6470 C   0  0  0  0  0  0  0  0  0  0  0  0
   -7.4180   19.6710  -32.6380 C   0  0  0  0  0  0  0  0  0  0  0  0
   -6.2880   20.1900  -31.9970 C   0  0  0  0  0  0  0  0  0  0  0  0
   -6.3530   21.4390  -31.3530 C   0  0  0  0  0  0  0  0  0  0  0  0
   -5.2590   21.9900  -30.6640 C   0  0  0  0  0  0  0  0  0  0  0  0
   -4.1550   21.3780  -30.6680 O   0  0  0  0  0  0  0  0  0  0  0  0
   -1.3960   24.7030  -26.9930 C   0  0  0  0  0  0  0  0  0  0  0  0
   -2.3820   25.6630  -26.3670 C   0  0  0  0  0  0  0  0  0  0  0  0
   -0.6748   23.1854  -24.1896 H   0  0  0  0  0  0  0  0  0  0  0  0
    0.5375   24.4966  -24.3840 H   0  0  0  0  0  0  0  0  0  0  0  0
   -1.2158   24.8872  -24.3840 H   0  0  0  0  0  0  0  0  0  0  0  0
    1.1073   22.5046  -26.1506 H   0  0  0  0  0  0  0  0  0  0  0  0
    1.0909   22.1540  -28.6123 H   0  0  0  0  0  0  0  0  0  0  0  0
   -0.4903   23.4258  -30.0497 H   0  0  0  0  0  0  0  0  0  0  0  0
   -3.5907   22.8184  -28.9395 H   0  0  0  0  0  0  0  0  0  0  0  0
   -4.7107   24.0454  -28.1947 H   0  0  0  0  0  0  0  0  0  0  0  0
   -6.7071   25.2794  -28.4833 H   0  0  0  0  0  0  0  0  0  0  0  0
   -5.8746   25.9279  -29.9370 H   0  0  0  0  0  0  0  0  0  0  0  0
   -7.6602   25.7325  -29.9370 H   0  0  0  0  0  0  0  0  0  0  0  0
   -9.6230   22.2121  -32.0344 H   0  0  0  0  0  0  0  0  0  0  0  0
   -9.5007   19.9827  -33.1491 H   0  0  0  0  0  0  0  0  0  0  0  0
   -7.3656   18.6914  -33.1357 H   0  0  0  0  0  0  0  0  0  0  0  0
   -5.3470   19.6204  -31.9966 H   0  0  0  0  0  0  0  0  0  0  0  0
   -2.3135   25.5963  -25.2712 H   0  0  0  0  0  0  0  0  0  0  0  0
   -2.1484   26.6891  -26.6872 H   0  0  0  0  0  0  0  0  0  0  0  0
   -3.4015   25.4021  -26.6872 H   0  0  0  0  0  0  0  0  0  0  0  0
  1  2  1  0
  2  3  2  0
  3  4  1  0
  4  5  2  0
  5  6  1  0
  6  7  1  0
  7  8  1  0
  8  9  2  0
  8 10  1  0
 10 11  1  0
 11 12  1  0
 12 13  1  0
 12 14  2  0
 14 15  1  0
 15 16  2  0
 16 17  1  0
 17 18  2  0
 18 19  1  0
 19 20  2  0
 20 21  1  0
 21 22  2  0
  6 23  2  0
 23 24  1  0
 23  2  1  0
 21 11  1  0
 20 15  1  0
  1 25  1  0
  1 26  1  0
  1 27  1  0
  3 28  1  0
  4 29  1  0
  5 30  1  0
 10 31  1  0
 10 32  1  0
 13 33  1  0
 13 34  1  0
 13 35  1  0
 16 36  1  0
 17 37  1  0
 18 38  1  0
 19 39  1  0
 24 40  1  0
 24 41  1  0
 24 42  1  0
M  CHG  1   7  -1
M  END
>  <UniqueID>  (32) 
30

>  <SMILES>  (32) 
Cc1cccc([N-]C(=O)Cn2c(C)nc3ccccc3c2=O)c1C

>  <Energy>  (32) 
57.09953361052915

>  <Genealogy>  (32) 
Cc1cccc([N-]C(=O)Cn2c(C)nc3ccccc3c2=O)c1C (protonated)
Cc1cccc([N-]C(=O)Cn2c(C)nc3ccccc3c2=O)c1C (3D coordinates assigned)
Cc1cccc([N-]C(=O)Cn2c(C)nc3ccccc3c2=O)c1C (optimized conformer: 57.09953361052915 kcal/mol)

>  <smiles>  (32) 
Cc1cccc(NC(=O)Cn2c(C)nc3ccccc3c2=O)c1C

>  <score_type>  (32) 
oracle

>  <origin>  (32) 
adg

>  <m_score__min__energy>  (32) 
-10.27

>  <m_primary>  (32) 
energy

$$$$
32:0
     RDKit          3D

 54 57  0  0  0  0  0  0  0  0999 V2000
   -8.9260   18.1630  -31.3170 O   0  0  0  0  0  0  0  0  0  0  0  0
   -8.0010   18.8020  -31.8890 C   0  0  0  0  0  0  0  0  0  0  0  0
   -7.9330   20.2300  -31.9420 N   0  0  0  0  0  0  0  0  0  0  0  0
   -9.1240   21.0810  -31.9320 C   0  0  0  0  0  0  0  0  0  0  0  0
   -8.7210   22.5560  -32.0340 C   0  0  0  0  0  0  0  0  0  0  0  0
   -7.7580   22.9690  -30.9040 C   0  0  0  0  0  0  0  0  0  0  0  0
   -6.7420   23.9640  -31.3220 N   0  0  0  0  0  0  0  0  0  0  0  0
   -6.4160   24.9490  -30.2650 C   0  0  0  0  0  0  0  0  0  0  0  0
   -5.0270   25.5670  -30.4730 C   0  0  0  0  0  0  0  0  0  0  0  0
   -3.9560   24.5430  -30.4570 N   0  0  0  0  0  0  0  0  0  0  0  0
   -3.4460   24.3270  -29.0840 C   0  0  0  0  0  0  0  0  0  0  0  0
   -2.6080   23.0750  -29.0030 C   0  0  0  0  0  0  0  0  0  0  0  0
   -1.4200   22.9620  -29.7420 C   0  0  0  0  0  0  0  0  0  0  0  0
   -0.6330   21.8130  -29.6410 C   0  0  0  0  0  0  0  0  0  0  0  0
   -1.0220   20.7640  -28.8020 C   0  0  0  0  0  0  0  0  0  0  0  0
   -0.0050   19.3320  -28.7000 Cl  0  0  0  0  0  0  0  0  0  0  0  0
   -2.2090   20.8690  -28.0570 C   0  0  0  0  0  0  0  0  0  0  0  0
   -2.7320   19.5750  -26.9860 Cl  0  0  0  0  0  0  0  0  0  0  0  0
   -2.9960   22.0220  -28.1590 C   0  0  0  0  0  0  0  0  0  0  0  0
   -4.3460   23.2630  -31.1080 C   0  0  0  0  0  0  0  0  0  0  0  0
   -5.5710   23.3960  -32.0290 C   0  0  0  0  0  0  0  0  0  0  0  0
   -6.7420   20.5230  -32.7520 C   0  0  0  0  0  0  0  0  0  0  0  0
   -6.5360   19.1970  -33.4750 C   0  0  1  0  0  0  0  0  0  0  0  0
   -4.9860   18.6670  -34.2050 S   0  0  0  0  0  0  0  0  0  0  0  0
   -5.7340   16.9680  -34.2000 C   0  0  0  0  0  0  0  0  0  0  0  0
   -6.9740   16.9530  -33.2670 C   0  0  0  0  0  0  0  0  0  0  0  0
   -6.8770   18.1840  -32.4970 N   0  0  2  0  0  0  0  0  0  0  0  0
   -9.7648   20.8194  -32.7870 H   0  0  0  0  0  0  0  0  0  0  0  0
   -9.6707   20.9224  -30.9907 H   0  0  0  0  0  0  0  0  0  0  0  0
   -8.2257   22.7231  -33.0019 H   0  0  0  0  0  0  0  0  0  0  0  0
   -9.6326   23.1651  -31.9441 H   0  0  0  0  0  0  0  0  0  0  0  0
   -8.3500   23.4006  -30.0835 H   0  0  0  0  0  0  0  0  0  0  0  0
   -7.2143   22.0632  -30.5974 H   0  0  0  0  0  0  0  0  0  0  0  0
   -7.1688   25.7509  -30.2808 H   0  0  0  0  0  0  0  0  0  0  0  0
   -6.4168   24.4260  -29.2973 H   0  0  0  0  0  0  0  0  0  0  0  0
   -5.0099   26.0837  -31.4440 H   0  0  0  0  0  0  0  0  0  0  0  0
   -4.8395   26.2678  -29.6461 H   0  0  0  0  0  0  0  0  0  0  0  0
   -2.8306   25.1901  -28.7901 H   0  0  0  0  0  0  0  0  0  0  0  0
   -4.3058   24.2146  -28.4071 H   0  0  0  0  0  0  0  0  0  0  0  0
   -1.1073   23.7829  -30.4041 H   0  0  0  0  0  0  0  0  0  0  0  0
    0.2966   21.7327  -30.2236 H   0  0  0  0  0  0  0  0  0  0  0  0
   -3.9242   22.1037  -27.5744 H   0  0  0  0  0  0  0  0  0  0  0  0
   -3.4965   22.9032  -31.7070 H   0  0  0  0  0  0  0  0  0  0  0  0
   -4.6163   22.5596  -30.3067 H   0  0  0  0  0  0  0  0  0  0  0  0
   -5.3116   24.0546  -32.8710 H   0  0  0  0  0  0  0  0  0  0  0  0
   -5.8426   22.3889  -32.3782 H   0  0  0  0  0  0  0  0  0  0  0  0
   -6.9294   21.3429  -33.4610 H   0  0  0  0  0  0  0  0  0  0  0  0
   -5.8717   20.8564  -32.1676 H   0  0  0  0  0  0  0  0  0  0  0  0
   -7.1393   19.3495  -34.3820 H   0  0  0  0  0  0  0  0  0  0  0  0
   -6.0403   16.6989  -35.2217 H   0  0  0  0  0  0  0  0  0  0  0  0
   -4.9924   16.2413  -33.8369 H   0  0  0  0  0  0  0  0  0  0  0  0
   -7.9023   16.9375  -33.8570 H   0  0  0  0  0  0  0  0  0  0  0  0
   -6.9971   16.0618  -32.6226 H   0  0  0  0  0  0  0  0  0  0  0  0
   -6.1210   18.0980  -31.7750 H   0  0  0  0  0  0  0  0  0  0  0  0
  1  2  2  0
  2  3  1  0
  3  4  1  0
  4  5  1  0
  5  6  1  0
  6  7  1  0
  7  8  1  0
  8  9  1  0
  9 10  1  0
 10 11  1  0
 11 12  1  0
 12 13  2  0
 13 14  1  0
 14 15  2  0
 15 16  1  0
 15 17  1  0
 17 18  1  0
 17 19  2  0
 10 20  1  0
 20 21  1  0
  3 22  1  0
 22 23  1  0
 23 24  1  0
 24 25  1  0
 25 26  1  0
 26 27  1  0
 27  2  1  0
 21  7  1  0
 27 23  1  0
 19 12  1  0
  4 28  1  0
  4 29  1  0
  5 30  1  0
  5 31  1  0
  6 32  1  0
  6 33  1  0
  8 34  1  0
  8 35  1  0
  9 36  1  0
  9 37  1  0
 11 38  1  0
 11 39  1  0
 13 40  1  0
 14 41  1  0
 19 42  1  0
 20 43  1  0
 20 44  1  0
 21 45  1  0
 21 46  1  0
 22 47  1  0
 22 48  1  0
 23 49  1  6
 25 50  1  0
 25 51  1  0
 26 52  1  0
 26 53  1  0
 27 54  1  1
M  CHG  1  27   1
M  END
>  <UniqueID>  (33) 
31

>  <SMILES>  (33) 
O=C1N(CCCN2CCN(Cc3ccc(Cl)c(Cl)c3)CC2)C[C@H]2SCC[N@H+]12

>  <Energy>  (33) 
99.87812680801639

>  <Genealogy>  (33) 
O=C1N(CCCN2CCN(Cc3ccc(Cl)c(Cl)c3)CC2)CC2SCC[NH+]12 (protonated)
O=C1N(CCCN2CCN(Cc3ccc(Cl)c(Cl)c3)CC2)C[C@H]2SCC[N@H+]12 (chirality)
O=C1N(CCCN2CCN(Cc3ccc(Cl)c(Cl)c3)CC2)C[C@H]2SCC[N@H+]12 (3D coordinates assigned)
O=C1N(CCCN2CCN(Cc3ccc(Cl)c(Cl)c3)CC2)C[C@H]2SCC[N@H+]12 (nonaromatic ring conformer: 99.87812680801639 kcal/mol)

>  <smiles>  (33) 
O=C1N(CCCN2CCN(Cc3ccc(Cl)c(Cl)c3)CC2)CC2SCCN12

>  <score_type>  (33) 
oracle

>  <origin>  (33) 
adg

>  <m_score__min__energy>  (33) 
-9.4600000000000009

>  <m_primary>  (33) 
energy

$$$$
33:0
     RDKit          3D

 50 52  0  0  0  0  0  0  0  0999 V2000
    0.8360   23.5080  -27.3320 C   0  0  0  0  0  0  0  0  0  0  0  0
    0.6690   24.6070  -28.1980 O   0  0  0  0  0  0  0  0  0  0  0  0
    0.2100   25.7200  -27.4610 C   0  0  0  0  0  0  0  0  0  0  0  0
   -0.8790   26.4500  -28.2430 C   0  0  0  0  0  0  0  0  0  0  0  0
   -1.9870   25.5480  -28.5480 N   0  0  0  0  0  0  0  0  0  0  0  0
   -2.6350   24.6720  -27.6170 C   0  0  0  0  0  0  0  0  0  0  0  0
   -1.9910   24.2700  -26.6130 O   0  0  0  0  0  0  0  0  0  0  0  0
   -4.0340   24.1640  -27.8360 C   0  0  0  0  0  0  0  0  0  0  0  0
   -4.0080   22.8990  -28.4940 O   0  0  0  0  0  0  0  0  0  0  0  0
   -4.1300   22.7860  -29.8820 C   0  0  0  0  0  0  0  0  0  0  0  0
   -3.0530   22.2680  -30.6170 C   0  0  0  0  0  0  0  0  0  0  0  0
   -1.5290   21.8880  -29.8280 Cl  0  0  0  0  0  0  0  0  0  0  0  0
   -3.1910   22.0170  -31.9810 C   0  0  0  0  0  0  0  0  0  0  0  0
   -4.3960   22.2890  -32.6260 C   0  0  0  0  0  0  0  0  0  0  0  0
   -5.4660   22.8690  -31.9260 C   0  0  0  0  0  0  0  0  0  0  0  0
   -6.7410   23.1840  -32.6750 C   0  0  0  0  0  0  0  0  0  0  0  0
   -7.7900   22.2190  -32.3390 N   0  0  0  0  0  0  0  0  0  0  0  0
   -9.0040   22.5150  -31.8120 C   0  0  0  0  0  0  0  0  0  0  0  0
   -9.7250   21.3540  -31.5590 C   0  0  0  0  0  0  0  0  0  0  0  0
   -8.8990   20.3200  -31.9490 C   0  0  0  0  0  0  0  0  0  0  0  0
   -9.0990   18.9420  -31.9120 C   0  0  0  0  0  0  0  0  0  0  0  0
   -8.0590   18.1140  -32.3740 C   0  0  0  0  0  0  0  0  0  0  0  0
   -6.8590   18.6780  -32.8580 C   0  0  0  0  0  0  0  0  0  0  0  0
   -6.6860   20.0740  -32.8830 C   0  0  0  0  0  0  0  0  0  0  0  0
   -7.7330   20.8730  -32.4160 C   0  0  0  0  0  0  0  0  0  0  0  0
   -5.3250   23.1530  -30.5480 C   0  0  0  0  0  0  0  0  0  0  0  0
   -6.3780   23.8010  -29.8810 O   0  0  0  0  0  0  0  0  0  0  0  0
   -6.5030   25.2170  -29.7690 C   0  0  0  0  0  0  0  0  0  0  0  0
    0.7837   23.8522  -26.2885 H   0  0  0  0  0  0  0  0  0  0  0  0
    0.0394   22.7720  -27.5157 H   0  0  0  0  0  0  0  0  0  0  0  0
    1.8153   23.0419  -27.5157 H   0  0  0  0  0  0  0  0  0  0  0  0
   -0.1997   25.3766  -26.4996 H   0  0  0  0  0  0  0  0  0  0  0  0
    1.0502   26.4075  -27.2838 H   0  0  0  0  0  0  0  0  0  0  0  0
   -1.2533   27.2915  -27.6415 H   0  0  0  0  0  0  0  0  0  0  0  0
   -0.4510   26.8172  -29.1875 H   0  0  0  0  0  0  0  0  0  0  0  0
   -4.5365   24.0560  -26.8634 H   0  0  0  0  0  0  0  0  0  0  0  0
   -4.5790   24.8821  -28.4663 H   0  0  0  0  0  0  0  0  0  0  0  0
   -2.3459   21.6028  -32.5504 H   0  0  0  0  0  0  0  0  0  0  0  0
   -4.5099   22.0471  -33.6930 H   0  0  0  0  0  0  0  0  0  0  0  0
   -7.0794   24.1947  -32.4030 H   0  0  0  0  0  0  0  0  0  0  0  0
   -6.5403   23.1268  -33.7550 H   0  0  0  0  0  0  0  0  0  0  0  0
   -9.3679   23.5337  -31.6123 H   0  0  0  0  0  0  0  0  0  0  0  0
  -10.7381   21.2761  -31.1377 H   0  0  0  0  0  0  0  0  0  0  0  0
  -10.0395   18.5148  -31.5339 H   0  0  0  0  0  0  0  0  0  0  0  0
   -8.1820   17.0210  -32.3578 H   0  0  0  0  0  0  0  0  0  0  0  0
   -6.0533   18.0214  -33.2182 H   0  0  0  0  0  0  0  0  0  0  0  0
   -5.7547   20.5229  -33.2588 H   0  0  0  0  0  0  0  0  0  0  0  0
   -6.5280   25.5000  -28.7063 H   0  0  0  0  0  0  0  0  0  0  0  0
   -5.6441   25.7007  -30.2571 H   0  0  0  0  0  0  0  0  0  0  0  0
   -7.4334   25.5427  -30.2571 H   0  0  0  0  0  0  0  0  0  0  0  0
  1  2  1  0
  2  3  1  0
  3  4  1  0
  4  5  1  0
  5  6  1  0
  6  7  2  0
  6  8  1  0
  8  9  1  0
  9 10  1  0
 10 11  2  0
 11 12  1  0
 11 13  1  0
 13 14  2  0
 14 15  1  0
 15 16  1  0
 16 17  1  0
 17 18  1  0
 18 19  2  0
 19 20  1  0
 20 21  2  0
 21 22  1  0
 22 23  2  0
 23 24  1  0
 24 25  2  0
 15 26  2  0
 26 27  1  0
 27 28  1  0
 26 10  1  0
 25 17  1  0
 25 20  1  0
  1 29  1  0
  1 30  1  0
  1 31  1  0
  3 32  1  0
  3 33  1  0
  4 34  1  0
  4 35  1  0
  8 36  1  0
  8 37  1  0
 13 38  1  0
 14 39  1  0
 16 40  1  0
 16 41  1  0
 18 42  1  0
 19 43  1  0
 21 44  1  0
 22 45  1  0
 23 46  1  0
 24 47  1  0
 28 48  1  0
 28 49  1  0
 28 50  1  0
M  CHG  1   5  -1
M  END
>  <UniqueID>  (34) 
32

>  <SMILES>  (34) 
COCC[N-]C(=O)COc1c(Cl)ccc(Cn2ccc3ccccc32)c1OC

>  <Energy>  (34) 
91.91193009673815

>  <Genealogy>  (34) 
COCC[N-]C(=O)COc1c(Cl)ccc(Cn2ccc3ccccc32)c1OC (protonated)
COCC[N-]C(=O)COc1c(Cl)ccc(Cn2ccc3ccccc32)c1OC (3D coordinates assigned)
COCC[N-]C(=O)COc1c(Cl)ccc(Cn2ccc3ccccc32)c1OC (optimized conformer: 91.91193009673815 kcal/mol)

>  <smiles>  (34) 
COCCNC(=O)COc1c(Cl)ccc(Cn2ccc3ccccc32)c1OC

>  <score_type>  (34) 
oracle

>  <origin>  (34) 
adg

>  <m_score__min__energy>  (34) 
-10.35

>  <m_primary>  (34) 
energy

$$$$
34:0
     RDKit          3D

 35 37  0  0  0  0  0  0  0  0999 V2000
   -9.3740   23.4490  -32.3080 C   0  0  0  0  0  0  0  0  0  0  0  0
   -8.6200   22.2230  -31.9910 N   0  0  0  0  0  0  0  0  0  0  0  0
   -8.1790   22.2410  -30.5780 C   0  0  0  0  0  0  0  0  0  0  0  0
   -6.9240   23.0580  -30.4350 C   0  0  0  0  0  0  0  0  0  0  0  0
   -6.9900   24.4390  -30.1900 C   0  0  0  0  0  0  0  0  0  0  0  0
   -5.8150   25.1900  -30.0750 C   0  0  0  0  0  0  0  0  0  0  0  0
   -4.5700   24.5690  -30.2060 C   0  0  0  0  0  0  0  0  0  0  0  0
   -3.4330   25.2990  -30.0940 F   0  0  0  0  0  0  0  0  0  0  0  0
   -4.4970   23.1960  -30.4540 C   0  0  0  0  0  0  0  0  0  0  0  0
   -5.6690   22.4410  -30.5700 C   0  0  0  0  0  0  0  0  0  0  0  0
   -9.4490   21.0350  -32.2730 C   0  0  0  0  0  0  0  0  0  0  0  0
   -8.6060   19.7910  -32.2280 C   0  0  0  0  0  0  0  0  0  0  0  0
   -9.0320   18.5350  -31.8260 C   0  0  0  0  0  0  0  0  0  0  0  0
   -8.0270   17.6370  -31.9670 N   0  0  0  0  0  0  0  0  0  0  0  0
   -7.0170   18.3820  -32.4580 C   0  0  0  0  0  0  0  0  0  0  0  0
   -5.7880   17.9050  -32.7760 N   0  0  0  0  0  0  0  0  0  0  0  0
   -4.8560   18.7640  -33.2800 C   0  0  0  0  0  0  0  0  0  0  0  0
   -5.1670   20.1240  -33.4710 C   0  0  0  0  0  0  0  0  0  0  0  0
   -6.4470   20.5780  -33.1320 C   0  0  0  0  0  0  0  0  0  0  0  0
   -7.3280   19.6750  -32.6310 N   0  0  0  0  0  0  0  0  0  0  0  0
   -9.6784   23.9440  -31.3740 H   0  0  0  0  0  0  0  0  0  0  0  0
   -8.7381   24.1295  -32.8933 H   0  0  0  0  0  0  0  0  0  0  0  0
  -10.2682   23.1885  -32.8933 H   0  0  0  0  0  0  0  0  0  0  0  0
   -8.9719   22.6813  -29.9556 H   0  0  0  0  0  0  0  0  0  0  0  0
   -7.9748   21.2102  -30.2529 H   0  0  0  0  0  0  0  0  0  0  0  0
   -7.9681   24.9319  -30.0882 H   0  0  0  0  0  0  0  0  0  0  0  0
   -5.8714   26.2713  -29.8811 H   0  0  0  0  0  0  0  0  0  0  0  0
   -3.5167   22.7080  -30.5582 H   0  0  0  0  0  0  0  0  0  0  0  0
   -5.6078   21.3606  -30.7676 H   0  0  0  0  0  0  0  0  0  0  0  0
  -10.2464   20.9610  -31.5189 H   0  0  0  0  0  0  0  0  0  0  0  0
   -9.8890   21.1343  -33.2763 H   0  0  0  0  0  0  0  0  0  0  0  0
  -10.0382   18.3013  -31.4480 H   0  0  0  0  0  0  0  0  0  0  0  0
   -3.8540   18.3915  -33.5392 H   0  0  0  0  0  0  0  0  0  0  0  0
   -4.4172   20.8175  -33.8795 H   0  0  0  0  0  0  0  0  0  0  0  0
   -6.7298   21.6324  -33.2672 H   0  0  0  0  0  0  0  0  0  0  0  0
  1  2  1  0
  2  3  1  0
  3  4  1  0
  4  5  2  0
  5  6  1  0
  6  7  2  0
  7  8  1  0
  7  9  1  0
  9 10  2  0
  2 11  1  0
 11 12  1  0
 12 13  2  0
 13 14  1  0
 14 15  2  0
 15 16  1  0
 16 17  2  0
 17 18  1  0
 18 19  2  0
 19 20  1  0
 10  4  1  0
 20 12  1  0
 20 15  1  0
  1 21  1  0
  1 22  1  0
  1 23  1  0
  3 24  1  0
  3 25  1  0
  5 26  1  0
  6 27  1  0
  9 28  1  0
 10 29  1  0
 11 30  1  0
 11 31  1  0
 13 32  1  0
 17 33  1  0
 18 34  1  0
 19 35  1  0
M  END
>  <UniqueID>  (35) 
33

>  <SMILES>  (35) 
CN(Cc1ccc(F)cc1)Cc1cnc2ncccn12

>  <Energy>  (35) 
73.73967898906804

>  <Genealogy>  (35) 
CN(Cc1ccc(F)cc1)Cc1cnc2ncccn12 (3D coordinates assigned)
CN(Cc1ccc(F)cc1)Cc1cnc2ncccn12 (optimized conformer: 73.73967898906804 kcal/mol)

>  <smiles>  (35) 
CN(Cc1ccc(F)cc1)Cc1cnc2ncccn12

>  <score_type>  (35) 
oracle

>  <origin>  (35) 
adg

>  <m_score__min__energy>  (35) 
-7.3399999999999999

>  <m_primary>  (35) 
energy

$$$$
35:0
     RDKit          3D

 42 44  0  0  0  0  0  0  0  0999 V2000
   -1.6640   25.6740  -29.3280 O   0  0  0  0  0  0  0  0  0  0  0  0
   -1.6700   24.4450  -28.6760 C   0  0  0  0  0  0  0  0  0  0  0  0
   -0.4900   23.9730  -28.0910 C   0  0  0  0  0  0  0  0  0  0  0  0
   -0.4770   22.7460  -27.4240 C   0  0  0  0  0  0  0  0  0  0  0  0
   -1.6460   21.9840  -27.3380 C   0  0  0  0  0  0  0  0  0  0  0  0
   -1.6290   20.3100  -26.4180 Br  0  0  0  0  0  0  0  0  0  0  0  0
   -2.8290   22.4490  -27.9220 C   0  0  0  0  0  0  0  0  0  0  0  0
   -2.8490   23.6790  -28.6010 C   0  0  0  0  0  0  0  0  0  0  0  0
   -4.1370   24.1880  -29.2040 C   0  0  0  0  0  0  0  0  0  0  0  0
   -4.9970   23.0680  -29.6390 N   0  0  0  0  0  0  0  0  0  0  0  0
   -6.3060   23.5510  -30.1480 C   0  0  0  0  0  0  0  0  0  0  0  0
   -6.3520   23.6100  -31.6840 C   0  0  0  0  0  0  0  0  0  0  0  0
   -6.1020   22.2850  -32.3070 N   0  0  0  0  0  0  0  0  0  0  0  0
   -7.3650   21.6300  -32.7120 C   0  0  0  0  0  0  0  0  0  0  0  0
   -7.1770   20.1430  -32.8640 C   0  0  0  0  0  0  0  0  0  0  0  0
   -6.3370   19.6400  -33.8710 C   0  0  0  0  0  0  0  0  0  0  0  0
   -6.1400   18.2620  -34.0000 C   0  0  0  0  0  0  0  0  0  0  0  0
   -6.7730   17.3780  -33.1220 C   0  0  0  0  0  0  0  0  0  0  0  0
   -7.6050   17.8710  -32.1130 C   0  0  0  0  0  0  0  0  0  0  0  0
   -7.8060   19.2490  -31.9810 C   0  0  0  0  0  0  0  0  0  0  0  0
   -5.2760   21.3880  -31.4610 C   0  0  0  0  0  0  0  0  0  0  0  0
   -4.2890   22.1840  -30.5990 C   0  0  0  0  0  0  0  0  0  0  0  0
    0.4311   24.5706  -28.1566 H   0  0  0  0  0  0  0  0  0  0  0  0
    0.4534   22.3790  -26.9661 H   0  0  0  0  0  0  0  0  0  0  0  0
   -3.7480   21.8489  -27.8493 H   0  0  0  0  0  0  0  0  0  0  0  0
   -4.6753   24.7839  -28.4523 H   0  0  0  0  0  0  0  0  0  0  0  0
   -3.8934   24.8043  -30.0820 H   0  0  0  0  0  0  0  0  0  0  0  0
   -7.0948   22.8695  -29.7969 H   0  0  0  0  0  0  0  0  0  0  0  0
   -6.4573   24.5723  -29.7684 H   0  0  0  0  0  0  0  0  0  0  0  0
   -7.3457   23.9651  -31.9947 H   0  0  0  0  0  0  0  0  0  0  0  0
   -5.5581   24.2941  -32.0183 H   0  0  0  0  0  0  0  0  0  0  0  0
   -8.1305   21.8193  -31.9451 H   0  0  0  0  0  0  0  0  0  0  0  0
   -7.6798   22.0445  -33.6811 H   0  0  0  0  0  0  0  0  0  0  0  0
   -5.8324   20.3327  -34.5606 H   0  0  0  0  0  0  0  0  0  0  0  0
   -5.4856   17.8729  -34.7940 H   0  0  0  0  0  0  0  0  0  0  0  0
   -6.6164   16.2941  -33.2251 H   0  0  0  0  0  0  0  0  0  0  0  0
   -8.1023   17.1746  -31.4219 H   0  0  0  0  0  0  0  0  0  0  0  0
   -8.4585   19.6340  -31.1835 H   0  0  0  0  0  0  0  0  0  0  0  0
   -5.9384   20.8070  -30.8025 H   0  0  0  0  0  0  0  0  0  0  0  0
   -4.7004   20.7226  -32.1213 H   0  0  0  0  0  0  0  0  0  0  0  0
   -3.6562   21.4806  -30.0378 H   0  0  0  0  0  0  0  0  0  0  0  0
   -3.6793   22.8136  -31.2637 H   0  0  0  0  0  0  0  0  0  0  0  0
  1  2  1  0
  2  3  2  0
  3  4  1  0
  4  5  2  0
  5  6  1  0
  5  7  1  0
  7  8  2  0
  8  9  1  0
  9 10  1  0
 10 11  1  0
 11 12  1  0
 12 13  1  0
 13 14  1  0
 14 15  1  0
 15 16  2  0
 16 17  1  0
 17 18  2  0
 18 19  1  0
 19 20  2  0
 13 21  1  0
 21 22  1  0
  8  2  1  0
 22 10  1  0
 20 15  1  0
  3 23  1  0
  4 24  1  0
  7 25  1  0
  9 26  1  0
  9 27  1  0
 11 28  1  0
 11 29  1  0
 12 30  1  0
 12 31  1  0
 14 32  1  0
 14 33  1  0
 16 34  1  0
 17 35  1  0
 18 36  1  0
 19 37  1  0
 20 38  1  0
 21 39  1  0
 21 40  1  0
 22 41  1  0
 22 42  1  0
M  CHG  1   1  -1
M  END
>  <UniqueID>  (36) 
34

>  <SMILES>  (36) 
[O-]c1ccc(Br)cc1CN1CCN(Cc2ccccc2)CC1

>  <Energy>  (36) 
56.87575703064417

>  <Genealogy>  (36) 
[O-]c1ccc(Br)cc1CN1CCN(Cc2ccccc2)CC1 (protonated)
[O-]c1ccc(Br)cc1CN1CCN(Cc2ccccc2)CC1 (3D coordinates assigned)
[O-]c1ccc(Br)cc1CN1CCN(Cc2ccccc2)CC1 (nonaromatic ring conformer: 56.87575703064417 kcal/mol)

>  <smiles>  (36) 
Oc1ccc(Br)cc1CN1CCN(Cc2ccccc2)CC1

>  <score_type>  (36) 
oracle

>  <origin>  (36) 
adg

>  <m_score__min__energy>  (36) 
-11.640000000000001

>  <m_primary>  (36) 
energy

$$$$
36:0
     RDKit          3D

 30 32  0  0  0  0  0  0  0  0999 V2000
   -7.7830   18.0210  -32.6150 F   0  0  0  0  0  0  0  0  0  0  0  0
   -8.7160   18.9270  -32.1640 C   0  0  0  0  0  0  0  0  0  0  0  0
   -9.8260   18.9740  -32.9850 F   0  0  0  0  0  0  0  0  0  0  0  0
   -9.1000   18.5460  -30.8940 F   0  0  0  0  0  0  0  0  0  0  0  0
   -8.1000   20.2780  -32.0520 C   0  0  0  0  0  0  0  0  0  0  0  0
   -6.7560   20.4400  -32.2800 C   0  0  0  0  0  0  0  0  0  0  0  0
   -6.2260   21.7180  -32.1630 C   0  0  0  0  0  0  0  0  0  0  0  0
   -7.0090   22.8040  -31.8300 C   0  0  0  0  0  0  0  0  0  0  0  0
   -6.4780   24.1820  -31.6970 C   0  0  0  0  0  0  0  0  0  0  0  0
   -5.3880   24.1800  -30.6650 C   0  0  0  0  0  0  0  0  0  0  0  0
   -4.0580   24.1740  -30.8510 N   0  0  0  0  0  0  0  0  0  0  0  0
   -3.4300   24.1740  -29.6430 C   0  0  0  0  0  0  0  0  0  0  0  0
   -2.1070   24.1690  -29.2430 C   0  0  0  0  0  0  0  0  0  0  0  0
   -1.8820   24.1700  -27.8740 C   0  0  0  0  0  0  0  0  0  0  0  0
   -2.9150   24.1770  -26.9570 C   0  0  0  0  0  0  0  0  0  0  0  0
   -4.2140   24.1810  -27.3780 N   0  0  0  0  0  0  0  0  0  0  0  0
   -4.4620   24.1800  -28.7220 C   0  0  0  0  0  0  0  0  0  0  0  0
   -5.6460   24.1830  -29.3410 N   0  0  0  0  0  0  0  0  0  0  0  0
   -8.3610   22.6300  -31.6020 C   0  0  0  0  0  0  0  0  0  0  0  0
   -8.8860   21.3560  -31.7190 C   0  0  0  0  0  0  0  0  0  0  0  0
   -6.1188   19.5840  -32.5471 H   0  0  0  0  0  0  0  0  0  0  0  0
   -5.1510   21.8689  -32.3409 H   0  0  0  0  0  0  0  0  0  0  0  0
   -6.0726   24.5173  -32.6630 H   0  0  0  0  0  0  0  0  0  0  0  0
   -7.2831   24.8660  -31.3906 H   0  0  0  0  0  0  0  0  0  0  0  0
   -1.2801   24.1645  -29.9684 H   0  0  0  0  0  0  0  0  0  0  0  0
   -0.8453   24.1650  -27.5062 H   0  0  0  0  0  0  0  0  0  0  0  0
   -2.6897   24.1794  -25.8803 H   0  0  0  0  0  0  0  0  0  0  0  0
   -6.6000   24.1880  -28.9050 H   0  0  0  0  0  0  0  0  0  0  0  0
   -9.0026   23.4825  -31.3345 H   0  0  0  0  0  0  0  0  0  0  0  0
   -9.9604   21.2009  -31.5410 H   0  0  0  0  0  0  0  0  0  0  0  0
  1  2  1  0
  2  3  1  0
  2  4  1  0
  2  5  1  0
  5  6  2  0
  6  7  1  0
  7  8  2  0
  8  9  1  0
  9 10  1  0
 10 11  2  0
 11 12  1  0
 12 13  2  0
 13 14  1  0
 14 15  2  0
 15 16  1  0
 16 17  2  0
 17 18  1  0
  8 19  1  0
 19 20  2  0
 20  5  1  0
 18 10  1  0
 17 12  1  0
  6 21  1  0
  7 22  1  0
  9 23  1  0
  9 24  1  0
 13 25  1  0
 14 26  1  0
 15 27  1  0
 18 28  1  0
 19 29  1  0
 20 30  1  0
M  END
>  <smiles>  (37) 
FC(F)(F)c1ccc(Cc2nc3cccnc3[nH]2)cc1

>  <score_type>  (37) 
oracle

>  <origin>  (37) 
adg

>  <m_score__min__energy>  (37) 
-7.3499999999999996

>  <m_primary>  (37) 
energy

$$$$
37:0
     RDKit          3D

 49 50  0  0  0  0  0  0  0  0999 V2000
   -9.5130   20.7760  -31.9530 C   0  0  0  0  0  0  0  0  0  0  0  0
   -9.4620   19.4350  -32.6800 C   0  0  0  0  0  0  0  0  0  0  0  0
   -8.3080   18.5060  -32.2400 C   0  0  0  0  0  0  0  0  0  0  0  0
   -6.9370   18.8020  -32.7670 N   0  0  2  0  0  0  0  0  0  0  0  0
   -6.2570   17.5820  -33.3220 C   0  0  0  0  0  0  0  0  0  0  0  0
   -5.7370   17.6540  -34.7800 C   0  0  0  0  0  0  0  0  0  0  0  0
   -5.9240   18.9190  -35.3430 O   0  0  0  0  0  0  0  0  0  0  0  0
   -6.0630   19.7130  -31.9530 C   0  0  1  0  0  0  0  0  0  0  0  0
   -4.5880   19.6300  -32.4310 C   0  0  0  0  0  0  0  0  0  0  0  0
   -3.6650   20.3640  -31.4580 C   0  0  0  0  0  0  0  0  0  0  0  0
   -4.1370   21.7680  -31.1790 C   0  0  0  0  0  0  0  0  0  0  0  0
   -3.2420   22.6850  -30.6120 C   0  0  0  0  0  0  0  0  0  0  0  0
   -3.6550   23.9920  -30.2920 C   0  0  0  0  0  0  0  0  0  0  0  0
   -2.7780   24.9330  -29.7290 O   0  0  0  0  0  0  0  0  0  0  0  0
   -2.0280   24.7270  -28.5360 C   0  0  0  0  0  0  0  0  0  0  0  0
   -4.9790   24.3790  -30.5360 C   0  0  0  0  0  0  0  0  0  0  0  0
   -5.3580   25.6920  -30.2130 O   0  0  0  0  0  0  0  0  0  0  0  0
   -6.4140   26.0310  -29.3200 C   0  0  0  0  0  0  0  0  0  0  0  0
   -5.8820   23.4560  -31.0920 C   0  0  0  0  0  0  0  0  0  0  0  0
   -5.4790   22.1470  -31.3970 C   0  0  0  0  0  0  0  0  0  0  0  0
   -6.4770   21.2070  -32.0410 C   0  0  0  0  0  0  0  0  0  0  0  0
   -9.5065   20.6045  -30.8665 H   0  0  0  0  0  0  0  0  0  0  0  0
   -8.6371   21.3791  -32.2343 H   0  0  0  0  0  0  0  0  0  0  0  0
  -10.4321   21.3109  -32.2343 H   0  0  0  0  0  0  0  0  0  0  0  0
  -10.4120   18.9107  -32.4992 H   0  0  0  0  0  0  0  0  0  0  0  0
   -9.2895   19.6635  -33.7421 H   0  0  0  0  0  0  0  0  0  0  0  0
   -8.2539   18.5465  -31.1421 H   0  0  0  0  0  0  0  0  0  0  0  0
   -8.5636   17.5242  -32.6650 H   0  0  0  0  0  0  0  0  0  0  0  0
   -7.1620   19.3720  -33.6190 H   0  0  0  0  0  0  0  0  0  0  0  0
   -5.3949   17.3623  -32.6751 H   0  0  0  0  0  0  0  0  0  0  0  0
   -7.0396   16.8092  -33.3413 H   0  0  0  0  0  0  0  0  0  0  0  0
   -4.6625   17.4187  -34.7853 H   0  0  0  0  0  0  0  0  0  0  0  0
   -6.3074   16.9290  -35.3792 H   0  0  0  0  0  0  0  0  0  0  0  0
   -6.8430   18.9240  -35.7180 H   0  0  0  0  0  0  0  0  0  0  0  0
   -6.1792   19.3670  -30.9153 H   0  0  0  0  0  0  0  0  0  0  0  0
   -4.2857   18.5740  -32.4892 H   0  0  0  0  0  0  0  0  0  0  0  0
   -4.5087   20.1035  -33.4207 H   0  0  0  0  0  0  0  0  0  0  0  0
   -3.6322   19.8059  -30.5107 H   0  0  0  0  0  0  0  0  0  0  0  0
   -2.6681   20.4269  -31.9187 H   0  0  0  0  0  0  0  0  0  0  0  0
   -2.2038   22.3797  -30.4145 H   0  0  0  0  0  0  0  0  0  0  0  0
   -2.6726   24.9041  -27.6625 H   0  0  0  0  0  0  0  0  0  0  0  0
   -1.6539   23.6928  -28.5120 H   0  0  0  0  0  0  0  0  0  0  0  0
   -1.1781   25.4250  -28.5120 H   0  0  0  0  0  0  0  0  0  0  0  0
   -6.0666   25.9195  -28.2823 H   0  0  0  0  0  0  0  0  0  0  0  0
   -6.7210   27.0729  -29.4939 H   0  0  0  0  0  0  0  0  0  0  0  0
   -7.2701   25.3625  -29.4939 H   0  0  0  0  0  0  0  0  0  0  0  0
   -6.9190   23.7643  -31.2907 H   0  0  0  0  0  0  0  0  0  0  0  0
   -7.4471   21.3302  -31.5374 H   0  0  0  0  0  0  0  0  0  0  0  0
   -6.5265   21.4678  -33.1085 H   0  0  0  0  0  0  0  0  0  0  0  0
  1  2  1  0
  2  3  1  0
  3  4  1  0
  4  5  1  0
  5  6  1  0
  6  7  1  0
  4  8  1  0
  8  9  1  0
  9 10  1  0
 10 11  1  0
 11 12  2  0
 12 13  1  0
 13 14  1  0
 14 15  1  0
 13 16  2  0
 16 17  1  0
 17 18  1  0
 16 19  1  0
 19 20  2  0
 20 21  1  0
 21  8  1  0
 20 11  1  0
  1 22  1  0
  1 23  1  0
  1 24  1  0
  2 25  1  0
  2 26  1  0
  3 27  1  0
  3 28  1  0
  4 29  1  6
  5 30  1  0
  5 31  1  0
  6 32  1  0
  6 33  1  0
  7 34  1  0
  8 35  1  1
  9 36  1  0
  9 37  1  0
 10 38  1  0
 10 39  1  0
 12 40  1  0
 15 41  1  0
 15 42  1  0
 15 43  1  0
 18 44  1  0
 18 45  1  0
 18 46  1  0
 19 47  1  0
 21 48  1  0
 21 49  1  0
M  CHG  1   4   1
M  END
>  <UniqueID>  (38) 
35

>  <SMILES>  (38) 
CCC[N@H+](CCO)[C@H]1CCc2cc(OC)c(OC)cc2C1

>  <Energy>  (38) 
67.44853579869533

>  <Genealogy>  (38) 
CCC[NH+](CCO)C1CCc2cc(OC)c(OC)cc2C1 (protonated)
CCC[N@H+](CCO)[C@H]1CCc2cc(OC)c(OC)cc2C1 (chirality)
CCC[N@H+](CCO)[C@H]1CCc2cc(OC)c(OC)cc2C1 (3D coordinates assigned)
CCC[N@H+](CCO)[C@H]1CCc2cc(OC)c(OC)cc2C1 (nonaromatic ring conformer: 67.44853579869533 kcal/mol)

>  <smiles>  (38) 
CCCN(CCO)C1CCc2cc(OC)c(OC)cc2C1

>  <score_type>  (38) 
oracle

>  <origin>  (38) 
adg

>  <m_score__min__energy>  (38) 
-6.8499999999999996

>  <m_primary>  (38) 
energy

$$$$
38:0
     RDKit          3D

 46 49  0  0  0  0  0  0  0  0999 V2000
   -1.4993   26.6216  -28.2728 H   0  0  0  0  0  0  0  0  0  0  0  0
   -1.2170   26.5150  -27.2150 C   0  0  0  0  0  0  0  0  0  0  0  0
   -1.8300   25.6260  -26.4330 C   0  0  0  0  0  0  0  0  0  0  0  0
   -2.8690   24.7390  -26.9840 C   0  0  0  0  0  0  0  0  0  0  0  0
   -3.8817   24.7975  -26.5585 H   0  0  0  0  0  0  0  0  0  0  0  0
   -2.6480   23.8650  -27.9750 C   0  0  0  0  0  0  0  0  0  0  0  0
   -2.8574   22.8017  -27.7866 H   0  0  0  0  0  0  0  0  0  0  0  0
   -2.1290   24.2580  -29.3320 C   0  0  0  0  0  0  0  0  0  0  0  0
   -1.8213   23.3537  -29.8775 H   0  0  0  0  0  0  0  0  0  0  0  0
   -1.2707   24.9336  -29.2022 H   0  0  0  0  0  0  0  0  0  0  0  0
   -3.1400   24.9350  -30.0780 O   0  0  0  0  0  0  0  0  0  0  0  0
   -4.4190   24.4270  -30.3550 C   0  0  0  0  0  0  0  0  0  0  0  0
   -5.6000   25.0560  -29.9090 C   0  0  0  0  0  0  0  0  0  0  0  0
   -5.5363   25.9825  -29.3195 H   0  0  0  0  0  0  0  0  0  0  0  0
   -6.8510   24.5100  -30.2110 C   0  0  0  0  0  0  0  0  0  0  0  0
   -7.7670   25.0067  -29.8585 H   0  0  0  0  0  0  0  0  0  0  0  0
   -6.9390   23.3310  -30.9620 C   0  0  0  0  0  0  0  0  0  0  0  0
   -8.1720   22.7570  -31.2830 C   0  0  0  0  0  0  0  0  0  0  0  0
   -9.1080   23.2274  -30.9474 H   0  0  0  0  0  0  0  0  0  0  0  0
   -8.2040   21.5820  -32.0330 C   0  0  0  0  0  0  0  0  0  0  0  0
   -9.1639   21.1135  -32.2960 H   0  0  0  0  0  0  0  0  0  0  0  0
   -6.9970   21.0080  -32.4460 C   0  0  0  0  0  0  0  0  0  0  0  0
   -7.0040   19.9470  -33.1240 O   0  0  0  0  0  0  0  0  0  0  0  0
   -5.8370   21.5760  -32.1260 O   0  0  0  0  0  0  0  0  0  0  0  0
   -5.7620   22.6970  -31.4120 C   0  0  0  0  0  0  0  0  0  0  0  0
   -4.5140   23.2480  -31.1060 C   0  0  0  0  0  0  0  0  0  0  0  0
   -3.5980   22.7512  -31.4582 H   0  0  0  0  0  0  0  0  0  0  0  0
   -1.3520   25.5050  -25.0090 C   0  0  0  0  0  0  0  0  0  0  0  0
   -0.3624   25.0249  -24.9981 H   0  0  0  0  0  0  0  0  0  0  0  0
   -2.0719   24.8979  -24.4405 H   0  0  0  0  0  0  0  0  0  0  0  0
   -1.2520   26.8470  -24.3830 N   0  0  1  0  0  0  0  0  0  0  0  0
   -2.2290   27.1730  -24.1840 H   0  0  0  0  0  0  0  0  0  0  0  0
   -0.5170   26.7820  -23.1050 C   0  0  0  0  0  0  0  0  0  0  0  0
   -0.4268   25.7364  -22.7753 H   0  0  0  0  0  0  0  0  0  0  0  0
   -1.0482   27.3420  -22.3212 H   0  0  0  0  0  0  0  0  0  0  0  0
    0.8580   27.3700  -23.3460 C   0  0  0  0  0  0  0  0  0  0  0  0
    1.5605   26.5939  -23.6839 H   0  0  0  0  0  0  0  0  0  0  0  0
    1.2963   27.8040  -22.4352 H   0  0  0  0  0  0  0  0  0  0  0  0
    0.6360   28.3990  -24.4280 C   0  0  0  0  0  0  0  0  0  0  0  0
    1.5223   28.4790  -25.0745 H   0  0  0  0  0  0  0  0  0  0  0  0
    0.4580   29.4033  -24.0160 H   0  0  0  0  0  0  0  0  0  0  0  0
   -0.5660   27.8780  -25.2220 C   0  0  1  0  0  0  0  0  0  0  0  0
   -1.2834   28.6849  -25.4323 H   0  0  0  0  0  0  0  0  0  0  0  0
   -0.1350   27.3660  -26.6220 C   0  0  0  0  0  0  0  0  0  0  0  0
    0.7842   26.7698  -26.5242 H   0  0  0  0  0  0  0  0  0  0  0  0
    0.0463   28.2283  -27.2805 H   0  0  0  0  0  0  0  0  0  0  0  0
  1  2  1  0
  2  3  2  0
  3  4  1  0
  4  5  1  0
  4  6  2  0
  6  7  1  0
  6  8  1  0
  8  9  1  0
  8 10  1  0
  8 11  1  0
 11 12  1  0
 12 13  2  0
 13 14  1  0
 13 15  1  0
 15 16  1  0
 15 17  2  0
 17 18  1  0
 18 19  1  0
 18 20  2  0
 20 21  1  0
 20 22  1  0
 22 23  2  0
 22 24  1  0
 24 25  1  0
 25 26  2  0
 26 27  1  0
  3 28  1  0
 28 29  1  0
 28 30  1  0
 28 31  1  0
 31 32  1  1
 31 33  1  0
 33 34  1  0
 33 35  1  0
 33 36  1  0
 36 37  1  0
 36 38  1  0
 36 39  1  0
 39 40  1  0
 39 41  1  0
 39 42  1  0
 42 43  1  6
 42 44  1  0
 44 45  1  0
 44 46  1  0
 44  2  1  0
 26 12  1  0
 42 31  1  0
 25 17  1  0
M  CHG  1  31   1
M  END
>  <UniqueID>  (39) 
36

>  <SMILES>  (39) 
O=c1ccc2ccc(OC/C=C\C3=CC[C@@H]4CCC[N@@H+]4C3)cc2o1

>  <Energy>  (39) 
66.15223395241856

>  <Genealogy>  (39) 
O=c1ccc2ccc(OCC=CC3=CCC4CCC[NH+]4C3)cc2o1 (protonated)
O=c1ccc2ccc(OCC=CC3=CC[C@@H]4CCC[N@@H+]4C3)cc2o1 (chirality)
O=c1ccc2ccc(OC/C=C\C3=CC[C@@H]4CCC[N@@H+]4C3)cc2o1 (cis-trans isomerization)
O=c1ccc2ccc(OC/C=C\C3=CC[C@@H]4CCC[N@@H+]4C3)cc2o1 (3D coordinates assigned)
O=c1ccc2ccc(OC/C=C\C3=CC[C@@H]4CCC[N@@H+]4C3)cc2o1 (nonaromatic ring conformer: 66.15223395241856 kcal/mol)

>  <smiles>  (39) 
O=c1ccc2ccc(OCC=CC3=CCC4CCCN4C3)cc2o1

>  <score_type>  (39) 
oracle

>  <origin>  (39) 
adg

>  <m_score__min__energy>  (39) 
-8.7899999999999991

>  <m_primary>  (39) 
energy

$$$$
39:0
     RDKit          3D

 38 39  0  0  0  0  0  0  0  0999 V2000
   -2.6290   21.4250  -33.3460 C   0  0  0  0  0  0  0  0  0  0  0  0
   -3.8730   20.6280  -33.0840 C   0  0  0  0  0  0  0  0  0  0  0  0
   -3.7880   19.2590  -32.8060 C   0  0  0  0  0  0  0  0  0  0  0  0
   -4.9160   18.5630  -32.5170 N   0  0  0  0  0  0  0  0  0  0  0  0
   -6.1290   19.1680  -32.4940 C   0  0  0  0  0  0  0  0  0  0  0  0
   -6.2340   20.5380  -32.7800 C   0  0  0  0  0  0  0  0  0  0  0  0
   -7.6060   21.1970  -32.7180 C   0  0  1  0  0  0  0  0  0  0  0  0
   -8.7110   20.4370  -31.9950 C   0  0  0  0  0  0  0  0  0  0  0  0
   -9.7650   21.5030  -31.7520 C   0  0  0  0  0  0  0  0  0  0  0  0
   -9.0480   22.8400  -31.9650 C   0  0  0  0  0  0  0  0  0  0  0  0
   -7.6100   22.5610  -32.1490 N   0  0  0  0  0  0  0  0  0  0  0  0
   -6.8960   22.6630  -30.8470 C   0  0  0  0  0  0  0  0  0  0  0  0
   -6.4380   24.1020  -30.5790 C   0  0  0  0  0  0  0  0  0  0  0  0
   -4.6540   24.2450  -30.5700 S   0  0  0  0  0  0  0  0  0  0  0  0
   -4.0420   23.7620  -28.9710 C   0  0  0  0  0  0  0  0  0  0  0  0
   -4.0630   23.3450  -31.6170 O   0  0  0  0  0  0  0  0  0  0  0  0
   -4.2500   25.6670  -30.8420 O   0  0  0  0  0  0  0  0  0  0  0  0
   -5.0900   21.2430  -33.0390 N   0  0  0  0  0  0  0  0  0  0  0  0
   -2.1725   21.7174  -32.3889 H   0  0  0  0  0  0  0  0  0  0  0  0
   -1.9167   20.8147  -33.9206 H   0  0  0  0  0  0  0  0  0  0  0  0
   -2.8858   22.3272  -33.9206 H   0  0  0  0  0  0  0  0  0  0  0  0
   -2.8127   18.7506  -32.8217 H   0  0  0  0  0  0  0  0  0  0  0  0
   -7.0301   18.5856  -32.2514 H   0  0  0  0  0  0  0  0  0  0  0  0
   -7.8330   21.2082  -33.7943 H   0  0  0  0  0  0  0  0  0  0  0  0
   -9.1080   19.6260  -32.6233 H   0  0  0  0  0  0  0  0  0  0  0  0
   -8.3665   19.9526  -31.0694 H   0  0  0  0  0  0  0  0  0  0  0  0
  -10.5949   21.3934  -32.4656 H   0  0  0  0  0  0  0  0  0  0  0  0
  -10.1985   21.4273  -30.7439 H   0  0  0  0  0  0  0  0  0  0  0  0
   -9.4487   23.3405  -32.8588 H   0  0  0  0  0  0  0  0  0  0  0  0
   -9.2020   23.4991  -31.0979 H   0  0  0  0  0  0  0  0  0  0  0  0
   -7.5730   22.3454  -30.0403 H   0  0  0  0  0  0  0  0  0  0  0  0
   -6.0078   22.0151  -30.8842 H   0  0  0  0  0  0  0  0  0  0  0  0
   -6.8431   24.7562  -31.3651 H   0  0  0  0  0  0  0  0  0  0  0  0
   -6.8083   24.3979  -29.5864 H   0  0  0  0  0  0  0  0  0  0  0  0
   -4.6476   24.2400  -28.1869 H   0  0  0  0  0  0  0  0  0  0  0  0
   -4.1064   22.6687  -28.8687 H   0  0  0  0  0  0  0  0  0  0  0  0
   -2.9936   24.0787  -28.8687 H   0  0  0  0  0  0  0  0  0  0  0  0
   -5.1250   22.2730  -33.1990 H   0  0  0  0  0  0  0  0  0  0  0  0
  1  2  1  0
  2  3  2  0
  3  4  1  0
  4  5  2  0
  5  6  1  0
  6  7  1  0
  7  8  1  0
  8  9  1  0
  9 10  1  0
 10 11  1  0
 11 12  1  0
 12 13  1  0
 13 14  1  0
 14 15  1  0
 14 16  2  0
 14 17  2  0
  6 18  2  0
 18  2  1  0
 11  7  1  0
  1 19  1  0
  1 20  1  0
  1 21  1  0
  3 22  1  0
  5 23  1  0
  7 24  1  6
  8 25  1  0
  8 26  1  0
  9 27  1  0
  9 28  1  0
 10 29  1  0
 10 30  1  0
 12 31  1  0
 12 32  1  0
 13 33  1  0
 13 34  1  0
 15 35  1  0
 15 36  1  0
 15 37  1  0
 18 38  1  0
M  CHG  1  18   1
M  END
>  <UniqueID>  (40) 
37

>  <SMILES>  (40) 
Cc1cncc([C@H]2CCCN2CCS(C)(=O)=O)[nH+]1

>  <Energy>  (40) 
39.25179479506867

>  <Genealogy>  (40) 
Cc1cncc(C2CCCN2CCS(C)(=O)=O)[nH+]1 (protonated)
Cc1cncc([C@H]2CCCN2CCS(C)(=O)=O)[nH+]1 (chirality)
Cc1cncc([C@H]2CCCN2CCS(C)(=O)=O)[nH+]1 (3D coordinates assigned)
Cc1cncc([C@H]2CCCN2CCS(C)(=O)=O)[nH+]1 (nonaromatic ring conformer: 39.25179479506867 kcal/mol)

>  <smiles>  (40) 
Cc1cncc(C2CCCN2CCS(C)(=O)=O)n1

>  <score_type>  (40) 
oracle

>  <origin>  (40) 
adg

>  <m_score__min__energy>  (40) 
-7.0599999999999996

>  <m_primary>  (40) 
energy

$$$$
40:0
     RDKit          3D

 47 50  0  0  0  0  0  0  0  0999 V2000
   -9.3350   22.4310  -32.0540 C   0  0  0  0  0  0  0  0  0  0  0  0
   -7.9970   22.6460  -31.4160 C   0  0  0  0  0  0  0  0  0  0  0  0
   -7.6180   23.7810  -30.7230 C   0  0  0  0  0  0  0  0  0  0  0  0
   -6.3500   23.6140  -30.3010 N   0  0  0  0  0  0  0  0  0  0  0  0
   -5.5760   24.5400  -29.4730 C   0  0  0  0  0  0  0  0  0  0  0  0
   -4.1230   24.5450  -29.8690 C   0  0  0  0  0  0  0  0  0  0  0  0
   -3.7370   25.2770  -30.8220 O   0  0  0  0  0  0  0  0  0  0  0  0
   -3.1600   23.7580  -29.1460 N   0  0  0  0  0  0  0  0  0  0  0  0
   -3.4760   22.9470  -27.9840 C   0  0  0  0  0  0  0  0  0  0  0  0
   -2.1370   22.4590  -27.4480 C   0  0  0  0  0  0  0  0  0  0  0  0
   -1.1320   22.6720  -28.5780 C   0  0  0  0  0  0  0  0  0  0  0  0
   -1.7520   23.7160  -29.4970 C   0  0  0  0  0  0  0  0  0  0  0  0
   -5.9890   22.3830  -30.7180 C   0  0  0  0  0  0  0  0  0  0  0  0
   -4.8700   21.8610  -30.4660 O   0  0  0  0  0  0  0  0  0  0  0  0
   -6.9720   21.7600  -31.4030 N   0  0  0  0  0  0  0  0  0  0  0  0
   -6.9270   20.4400  -31.9740 C   0  0  0  0  0  0  0  0  0  0  0  0
   -8.0460   19.5770  -31.8520 C   0  0  0  0  0  0  0  0  0  0  0  0
   -8.0200   18.2850  -32.4090 C   0  0  0  0  0  0  0  0  0  0  0  0
   -6.8680   17.8890  -33.0810 C   0  0  0  0  0  0  0  0  0  0  0  0
   -6.5690   16.7040  -33.7190 C   0  0  0  0  0  0  0  0  0  0  0  0
   -5.2820   16.8720  -34.2210 C   0  0  0  0  0  0  0  0  0  0  0  0
   -4.8080   18.1020  -33.9060 N   0  0  0  0  0  0  0  0  0  0  0  0
   -3.5030   18.6460  -34.2640 C   0  0  0  0  0  0  0  0  0  0  0  0
   -5.7850   18.7160  -33.2110 C   0  0  0  0  0  0  0  0  0  0  0  0
   -5.7790   20.0040  -32.6720 C   0  0  0  0  0  0  0  0  0  0  0  0
  -10.0987   22.3083  -31.2719 H   0  0  0  0  0  0  0  0  0  0  0  0
   -9.5870   23.3002  -32.6793 H   0  0  0  0  0  0  0  0  0  0  0  0
   -9.3020   21.5266  -32.6793 H   0  0  0  0  0  0  0  0  0  0  0  0
   -8.2445   24.6678  -30.5467 H   0  0  0  0  0  0  0  0  0  0  0  0
   -5.9836   25.5546  -29.5934 H   0  0  0  0  0  0  0  0  0  0  0  0
   -5.6491   24.2128  -28.4253 H   0  0  0  0  0  0  0  0  0  0  0  0
   -3.9965   23.5498  -27.2253 H   0  0  0  0  0  0  0  0  0  0  0  0
   -4.1408   22.1093  -28.2413 H   0  0  0  0  0  0  0  0  0  0  0  0
   -1.8448   23.0406  -26.5612 H   0  0  0  0  0  0  0  0  0  0  0  0
   -2.1843   21.4032  -27.1428 H   0  0  0  0  0  0  0  0  0  0  0  0
   -0.1753   23.0364  -28.1755 H   0  0  0  0  0  0  0  0  0  0  0  0
   -0.9231   21.7347  -29.1146 H   0  0  0  0  0  0  0  0  0  0  0  0
   -1.2856   24.6985  -29.3319 H   0  0  0  0  0  0  0  0  0  0  0  0
   -1.6042   23.4640  -30.5575 H   0  0  0  0  0  0  0  0  0  0  0  0
   -8.9432   19.9211  -31.3166 H   0  0  0  0  0  0  0  0  0  0  0  0
   -8.8832   17.6095  -32.3160 H   0  0  0  0  0  0  0  0  0  0  0  0
   -7.2107   15.8154  -33.8115 H   0  0  0  0  0  0  0  0  0  0  0  0
   -4.7275   16.1134  -34.7929 H   0  0  0  0  0  0  0  0  0  0  0  0
   -2.9399   18.8807  -33.3486 H   0  0  0  0  0  0  0  0  0  0  0  0
   -2.9468   17.9048  -34.8567 H   0  0  0  0  0  0  0  0  0  0  0  0
   -3.6380   19.5628  -34.8567 H   0  0  0  0  0  0  0  0  0  0  0  0
   -4.9044   20.6610  -32.7877 H   0  0  0  0  0  0  0  0  0  0  0  0
  1  2  1  0
  2  3  2  0
  3  4  1  0
  4  5  1  0
  5  6  1  0
  6  7  2  0
  6  8  1  0
  8  9  1  0
  9 10  1  0
 10 11  1  0
 11 12  1  0
  4 13  1  0
 13 14  2  0
 13 15  1  0
 15 16  1  0
 16 17  2  0
 17 18  1  0
 18 19  2  0
 19 20  1  0
 20 21  2  0
 21 22  1  0
 22 23  1  0
 22 24  1  0
 24 25  2  0
 15  2  1  0
 25 16  1  0
 12  8  1  0
 24 19  1  0
  1 26  1  0
  1 27  1  0
  1 28  1  0
  3 29  1  0
  5 30  1  0
  5 31  1  0
  9 32  1  0
  9 33  1  0
 10 34  1  0
 10 35  1  0
 11 36  1  0
 11 37  1  0
 12 38  1  0
 12 39  1  0
 17 40  1  0
 18 41  1  0
 20 42  1  0
 21 43  1  0
 23 44  1  0
 23 45  1  0
 23 46  1  0
 25 47  1  0
M  END
>  <UniqueID>  (41) 
38

>  <SMILES>  (41) 
Cc1cn(CC(=O)N2CCCC2)c(=O)n1-c1ccc2ccn(C)c2c1

>  <Energy>  (41) 
117.92412407194264

>  <Genealogy>  (41) 
Cc1cn(CC(=O)N2CCCC2)c(=O)n1-c1ccc2ccn(C)c2c1 (3D coordinates assigned)
Cc1cn(CC(=O)N2CCCC2)c(=O)n1-c1ccc2ccn(C)c2c1 (nonaromatic ring conformer: 117.92412407194264 kcal/mol)

>  <smiles>  (41) 
Cc1cn(CC(=O)N2CCCC2)c(=O)n1-c1ccc2ccn(C)c2c1

>  <score_type>  (41) 
oracle

>  <origin>  (41) 
adg

>  <m_score__min__energy>  (41) 
-8.8399999999999999

>  <m_primary>  (41) 
energy

$$$$
41:0
     RDKit          3D

 40 42  0  0  1  0  0  0  0  0999 V2000
   -5.3630   25.6540  -30.8430 C   0  0  0  0  0  0  0  0  0  0  0  0
   -6.0570   24.9330  -29.7050 C   0  0  0  0  0  0  0  0  0  0  0  0
   -4.9890   24.0910  -29.0400 C   0  0  0  0  0  0  0  0  0  0  0  0
   -7.0890   24.0040  -30.3500 C   0  0  0  0  0  0  0  0  0  0  0  0
   -6.7130   23.6580  -31.6860 N   0  0  0  0  0  0  0  0  0  0  0  0
   -6.1680   22.5490  -31.9770 C   0  0  0  0  0  0  0  0  0  0  0  0
   -4.8300   22.4160  -32.1450 N   0  0  0  0  0  0  0  0  0  0  0  0
   -4.2670   21.2440  -32.4520 C   0  0  0  0  0  0  0  0  0  0  0  0
   -2.8330   21.0710  -32.6390 C   0  0  0  0  0  0  0  0  0  0  0  0
   -2.2690   20.7710  -33.8540 C   0  0  0  0  0  0  0  0  0  0  0  0
   -0.8930   20.6150  -33.9830 C   0  0  0  0  0  0  0  0  0  0  0  0
   -0.0470   20.7590  -32.8880 C   0  0  0  0  0  0  0  0  0  0  0  0
   -0.6150   21.0650  -31.6530 C   0  0  0  0  0  0  0  0  0  0  0  0
   -1.9780   21.2110  -31.5670 C   0  0  0  0  0  0  0  0  0  0  0  0
   -2.7250   21.6310  -29.8540 Br  0  0  0  0  0  0  0  0  0  0  0  0
   -5.0870   20.1850  -32.5890 N   0  0  0  0  0  0  0  0  0  0  0  0
   -6.4230   20.2360  -32.4380 C   0  0  0  0  0  0  0  0  0  0  0  0
   -7.1810   19.0790  -32.6030 C   0  0  0  0  0  0  0  0  0  0  0  0
   -8.5480   19.1880  -32.4360 C   0  0  0  0  0  0  0  0  0  0  0  0
   -9.1430   20.4050  -32.1180 C   0  0  0  0  0  0  0  0  0  0  0  0
   -8.3710   21.5360  -31.9600 C   0  0  0  0  0  0  0  0  0  0  0  0
   -6.9990   21.4470  -32.1230 C   0  0  0  0  0  0  0  0  0  0  0  0
   -4.6550   26.3895  -30.4335 H   0  0  0  0  0  0  0  0  0  0  0  0
   -4.8180   24.9250  -31.4608 H   0  0  0  0  0  0  0  0  0  0  0  0
   -6.1122   26.1708  -31.4608 H   0  0  0  0  0  0  0  0  0  0  0  0
   -6.5387   25.6094  -28.9836 H   0  0  0  0  0  0  0  0  0  0  0  0
   -5.0881   24.1691  -27.9473 H   0  0  0  0  0  0  0  0  0  0  0  0
   -5.1075   23.0407  -29.3448 H   0  0  0  0  0  0  0  0  0  0  0  0
   -3.9954   24.4513  -29.3448 H   0  0  0  0  0  0  0  0  0  0  0  0
   -7.1681   23.0851  -29.7506 H   0  0  0  0  0  0  0  0  0  0  0  0
   -8.0548   24.5293  -30.3860 H   0  0  0  0  0  0  0  0  0  0  0  0
   -4.2520   23.2760  -32.0250 H   0  0  0  0  0  0  0  0  0  0  0  0
   -2.9138   20.6524  -34.7372 H   0  0  0  0  0  0  0  0  0  0  0  0
   -0.4663   20.3736  -34.9677 H   0  0  0  0  0  0  0  0  0  0  0  0
    1.0408   20.6347  -32.9943 H   0  0  0  0  0  0  0  0  0  0  0  0
    0.0178   21.1876  -30.7616 H   0  0  0  0  0  0  0  0  0  0  0  0
   -6.7102   18.1176  -32.8560 H   0  0  0  0  0  0  0  0  0  0  0  0
   -9.1787   18.2949  -32.5568 H   0  0  0  0  0  0  0  0  0  0  0  0
  -10.2341   20.4648  -31.9922 H   0  0  0  0  0  0  0  0  0  0  0  0
   -8.8398   22.4985  -31.7072 H   0  0  0  0  0  0  0  0  0  0  0  0
  1  2  1  0
  2  3  1  0
  2  4  1  0
  4  5  1  0
  5  6  2  0
  6  7  1  0
  7  8  1  0
  8  9  1  0
  9 10  2  0
 10 11  1  0
 11 12  2  0
 12 13  1  0
 13 14  2  0
 14 15  1  0
  8 16  2  0
 16 17  1  0
 17 18  2  0
 18 19  1  0
 19 20  2  0
 20 21  1  0
 21 22  2  0
 22  6  1  0
 14  9  1  0
 22 17  1  0
  1 23  1  0
  1 24  1  0
  1 25  1  0
  2 26  1  0
  3 27  1  0
  3 28  1  0
  3 29  1  0
  4 30  1  0
  4 31  1  0
  7 32  1  0
 10 33  1  0
 11 34  1  0
 12 35  1  0
 13 36  1  0
 18 37  1  0
 19 38  1  0
 20 39  1  0
 21 40  1  0
M  END
>  <smiles>  (42) 
CC(C)CN=c1[nH]c(-c2ccccc2Br)nc2ccccc12

>  <score_type>  (42) 
oracle

>  <origin>  (42) 
adg

>  <m_score__min__energy>  (42) 
-8.0099999999999998

>  <m_primary>  (42) 
energy

$$$$
42:0
     RDKit          3D

 42 44  0  0  0  0  0  0  0  0999 V2000
   -3.0520   20.7260  -30.1400 C   0  0  0  0  0  0  0  0  0  0  0  0
   -3.8550   21.7560  -30.8790 C   0  0  0  0  0  0  0  0  0  0  0  0
   -3.9240   23.1170  -30.6190 C   0  0  0  0  0  0  0  0  0  0  0  0
   -3.2970   23.8530  -29.4960 C   0  0  0  0  0  0  0  0  0  0  0  0
   -2.7130   24.9420  -29.7430 O   0  0  0  0  0  0  0  0  0  0  0  0
   -3.3180   23.3580  -28.1370 N   0  0  0  0  0  0  0  0  0  0  0  0
   -2.4130   23.9610  -27.1520 C   0  0  0  0  0  0  0  0  0  0  0  0
   -4.2770   22.3350  -27.7090 C   0  0  0  0  0  0  0  0  0  0  0  0
   -4.7240   23.6760  -31.5530 N   0  0  0  0  0  0  0  0  0  0  0  0
   -5.1210   22.6950  -32.3490 N   0  0  0  0  0  0  0  0  0  0  0  0
   -4.6300   21.5290  -31.9610 N   0  0  0  0  0  0  0  0  0  0  0  0
   -4.8900   20.2840  -32.6290 C   0  0  0  0  0  0  0  0  0  0  0  0
   -3.8240   19.6120  -33.2430 C   0  0  0  0  0  0  0  0  0  0  0  0
   -4.0260   18.3770  -33.8640 C   0  0  0  0  0  0  0  0  0  0  0  0
   -2.6800   17.5400  -34.6140 Cl  0  0  0  0  0  0  0  0  0  0  0  0
   -5.3000   17.8070  -33.8820 C   0  0  0  0  0  0  0  0  0  0  0  0
   -6.3760   18.4750  -33.2930 C   0  0  0  0  0  0  0  0  0  0  0  0
   -6.1900   19.7230  -32.6730 C   0  0  0  0  0  0  0  0  0  0  0  0
   -7.3670   20.4320  -32.1140 C   0  0  0  0  0  0  0  0  0  0  0  0
   -8.6360   20.2900  -32.7040 C   0  0  0  0  0  0  0  0  0  0  0  0
   -9.7390   20.9730  -32.1800 C   0  0  0  0  0  0  0  0  0  0  0  0
   -9.5870   21.7920  -31.0600 C   0  0  0  0  0  0  0  0  0  0  0  0
   -8.3340   21.9290  -30.4570 C   0  0  0  0  0  0  0  0  0  0  0  0
   -7.2280   21.2480  -30.9780 C   0  0  0  0  0  0  0  0  0  0  0  0
   -3.1698   20.8771  -29.0568 H   0  0  0  0  0  0  0  0  0  0  0  0
   -3.4071   19.7207  -30.4107 H   0  0  0  0  0  0  0  0  0  0  0  0
   -1.9905   20.8251  -30.4107 H   0  0  0  0  0  0  0  0  0  0  0  0
   -2.7662   23.7256  -26.1372 H   0  0  0  0  0  0  0  0  0  0  0  0
   -1.3991   23.5573  -27.2902 H   0  0  0  0  0  0  0  0  0  0  0  0
   -2.3952   25.0521  -27.2902 H   0  0  0  0  0  0  0  0  0  0  0  0
   -4.3098   22.3000  -26.6100 H   0  0  0  0  0  0  0  0  0  0  0  0
   -5.2756   22.5830  -28.0979 H   0  0  0  0  0  0  0  0  0  0  0  0
   -3.9651   21.3544  -28.0979 H   0  0  0  0  0  0  0  0  0  0  0  0
   -5.7560   22.8290  -33.1670 H   0  0  0  0  0  0  0  0  0  0  0  0
   -2.8198   20.0609  -33.2358 H   0  0  0  0  0  0  0  0  0  0  0  0
   -5.4570   16.8294  -34.3612 H   0  0  0  0  0  0  0  0  0  0  0  0
   -7.3776   18.0207  -33.3144 H   0  0  0  0  0  0  0  0  0  0  0  0
   -8.7618   19.6388  -33.5816 H   0  0  0  0  0  0  0  0  0  0  0  0
  -10.7270   20.8644  -32.6512 H   0  0  0  0  0  0  0  0  0  0  0  0
  -10.4549   22.3304  -30.6515 H   0  0  0  0  0  0  0  0  0  0  0  0
   -8.2169   22.5724  -29.5725 H   0  0  0  0  0  0  0  0  0  0  0  0
   -6.2447   21.3519  -30.4960 H   0  0  0  0  0  0  0  0  0  0  0  0
  1  2  1  0
  2  3  2  0
  3  4  1  0
  4  5  2  0
  4  6  1  0
  6  7  1  0
  6  8  1  0
  3  9  1  0
  9 10  2  0
 10 11  1  0
 11 12  1  0
 12 13  2  0
 13 14  1  0
 14 15  1  0
 14 16  2  0
 16 17  1  0
 17 18  2  0
 18 19  1  0
 19 20  2  0
 20 21  1  0
 21 22  2  0
 22 23  1  0
 23 24  2  0
 11  2  1  0
 18 12  1  0
 24 19  1  0
  1 25  1  0
  1 26  1  0
  1 27  1  0
  7 28  1  0
  7 29  1  0
  7 30  1  0
  8 31  1  0
  8 32  1  0
  8 33  1  0
 10 34  1  0
 13 35  1  0
 16 36  1  0
 17 37  1  0
 20 38  1  0
 21 39  1  0
 22 40  1  0
 23 41  1  0
 24 42  1  0
M  CHG  1  10   1
M  END
>  <UniqueID>  (43) 
39

>  <SMILES>  (43) 
Cc1c(C(=O)N(C)C)n[nH+]n1-c1cc(Cl)ccc1-c1ccccc1

>  <Energy>  (43) 
90.70433645973027

>  <Genealogy>  (43) 
Cc1c(C(=O)N(C)C)n[nH+]n1-c1cc(Cl)ccc1-c1ccccc1 (protonated)
Cc1c(C(=O)N(C)C)n[nH+]n1-c1cc(Cl)ccc1-c1ccccc1 (3D coordinates assigned)
Cc1c(C(=O)N(C)C)n[nH+]n1-c1cc(Cl)ccc1-c1ccccc1 (optimized conformer: 90.70433645973027 kcal/mol)

>  <smiles>  (43) 
Cc1c(C(=O)N(C)C)nnn1-c1cc(Cl)ccc1-c1ccccc1

>  <score_type>  (43) 
oracle

>  <origin>  (43) 
adg

>  <m_score__min__energy>  (43) 
-8.7100000000000009

>  <m_primary>  (43) 
energy

$$$$
43:0
     RDKit          3D

 51 55  0  0  0  0  0  0  0  0999 V2000
    1.2910   24.1450  -28.2060 O   0  0  0  0  0  0  0  0  0  0  0  0
    0.0300   24.1440  -28.1400 C   0  0  0  0  0  0  0  0  0  0  0  0
   -0.6480   24.9370  -27.0890 C   0  0  0  0  0  0  0  0  0  0  0  0
    0.0710   25.6120  -26.0870 C   0  0  0  0  0  0  0  0  0  0  0  0
   -0.6150   26.3030  -25.0810 C   0  0  0  0  0  0  0  0  0  0  0  0
   -2.0130   26.3170  -25.0650 C   0  0  0  0  0  0  0  0  0  0  0  0
   -2.7310   25.6500  -26.0630 C   0  0  0  0  0  0  0  0  0  0  0  0
   -2.0480   24.9750  -27.0840 C   0  0  0  0  0  0  0  0  0  0  0  0
   -2.7640   24.2880  -28.1110 N   0  0  0  0  0  0  0  0  0  0  0  0
   -2.0720   23.9250  -29.3580 C   0  0  2  0  0  0  0  0  0  0  0  0
   -2.9610   23.0950  -30.2990 C   0  0  0  0  0  0  0  0  0  0  0  0
   -2.4270   22.3260  -31.3570 C   0  0  0  0  0  0  0  0  0  0  0  0
   -3.2630   21.6210  -32.2270 C   0  0  0  0  0  0  0  0  0  0  0  0
   -4.6500   21.6950  -32.0930 C   0  0  0  0  0  0  0  0  0  0  0  0
   -5.4550   20.9800  -32.9920 O   0  0  0  0  0  0  0  0  0  0  0  0
   -6.5710   20.2040  -32.6430 C   0  0  0  0  0  0  0  0  0  0  0  0
   -7.8040   20.7870  -32.2960 C   0  0  0  0  0  0  0  0  0  0  0  0
   -8.8860   19.9810  -31.9310 C   0  0  0  0  0  0  0  0  0  0  0  0
   -8.7450   18.5900  -31.9030 C   0  0  0  0  0  0  0  0  0  0  0  0
   -9.7950   17.8090  -31.5480 F   0  0  0  0  0  0  0  0  0  0  0  0
   -7.5180   18.0060  -32.2330 C   0  0  0  0  0  0  0  0  0  0  0  0
   -6.4340   18.8110  -32.5960 C   0  0  0  0  0  0  0  0  0  0  0  0
   -5.1980   22.5320  -31.1100 C   0  0  0  0  0  0  0  0  0  0  0  0
   -4.3640   23.2370  -30.2390 C   0  0  0  0  0  0  0  0  0  0  0  0
   -0.7320   23.3240  -29.0610 N   0  0  2  0  0  0  0  0  0  0  0  0
   -0.7550   21.9500  -28.5680 C   0  0  0  0  0  0  0  0  0  0  0  0
   -0.1190   20.9350  -29.3160 C   0  0  0  0  0  0  0  0  0  0  0  0
   -0.1060   19.6120  -28.8670 C   0  0  0  0  0  0  0  0  0  0  0  0
   -0.7050   19.2800  -27.6520 C   0  0  0  0  0  0  0  0  0  0  0  0
   -1.3030   20.2720  -26.8760 C   0  0  0  0  0  0  0  0  0  0  0  0
   -1.3200   21.5990  -27.3190 C   0  0  0  0  0  0  0  0  0  0  0  0
    1.1709   25.5972  -26.0934 H   0  0  0  0  0  0  0  0  0  0  0  0
   -0.0524   26.8366  -24.3008 H   0  0  0  0  0  0  0  0  0  0  0  0
   -2.5484   26.8527  -24.2673 H   0  0  0  0  0  0  0  0  0  0  0  0
   -3.8309   25.6552  -26.0466 H   0  0  0  0  0  0  0  0  0  0  0  0
   -3.7470   23.9930  -27.9180 H   0  0  0  0  0  0  0  0  0  0  0  0
   -1.8686   24.8418  -29.9307 H   0  0  0  0  0  0  0  0  0  0  0  0
   -1.3370   22.2815  -31.4980 H   0  0  0  0  0  0  0  0  0  0  0  0
   -2.8241   21.0027  -33.0239 H   0  0  0  0  0  0  0  0  0  0  0  0
   -7.9166   21.8811  -32.3121 H   0  0  0  0  0  0  0  0  0  0  0  0
   -9.8492   20.4412  -31.6656 H   0  0  0  0  0  0  0  0  0  0  0  0
   -7.4055   16.9121  -32.2070 H   0  0  0  0  0  0  0  0  0  0  0  0
   -5.4682   18.3477  -32.8461 H   0  0  0  0  0  0  0  0  0  0  0  0
   -6.2899   22.6338  -31.0245 H   0  0  0  0  0  0  0  0  0  0  0  0
   -4.8079   23.9139  -29.4942 H   0  0  0  0  0  0  0  0  0  0  0  0
   -0.2000   23.3550  -29.9620 H   0  0  0  0  0  0  0  0  0  0  0  0
    0.3734   21.1897  -30.2661 H   0  0  0  0  0  0  0  0  0  0  0  0
    0.3773   18.8312  -29.4726 H   0  0  0  0  0  0  0  0  0  0  0  0
   -0.7056   18.2358  -27.3061 H   0  0  0  0  0  0  0  0  0  0  0  0
   -1.7632   20.0103  -25.9118 H   0  0  0  0  0  0  0  0  0  0  0  0
   -1.7771   22.3772  -26.6901 H   0  0  0  0  0  0  0  0  0  0  0  0
  1  2  2  0
  2  3  1  0
  3  4  2  0
  4  5  1  0
  5  6  2  0
  6  7  1  0
  7  8  2  0
  8  9  1  0
  9 10  1  0
 10 11  1  0
 11 12  2  0
 12 13  1  0
 13 14  2  0
 14 15  1  0
 15 16  1  0
 16 17  2  0
 17 18  1  0
 18 19  2  0
 19 20  1  0
 19 21  1  0
 21 22  2  0
 14 23  1  0
 23 24  2  0
 10 25  1  0
 25 26  1  0
 26 27  2  0
 27 28  1  0
 28 29  2  0
 29 30  1  0
 30 31  2  0
 25  2  1  0
 31 26  1  0
  8  3  1  0
 24 11  1  0
 22 16  1  0
  4 32  1  0
  5 33  1  0
  6 34  1  0
  7 35  1  0
  9 36  1  0
 10 37  1  6
 12 38  1  0
 13 39  1  0
 17 40  1  0
 18 41  1  0
 21 42  1  0
 22 43  1  0
 23 44  1  0
 24 45  1  0
 25 46  1  6
 27 47  1  0
 28 48  1  0
 29 49  1  0
 30 50  1  0
 31 51  1  0
M  CHG  1  25   1
M  END
>  <UniqueID>  (44) 
40

>  <SMILES>  (44) 
O=C1c2ccccc2N[C@H](c2ccc(Oc3ccc(F)cc3)cc2)[N@@H+]1c1ccccc1

>  <Energy>  (44) 
83.19692966386232

>  <Genealogy>  (44) 
O=C1c2ccccc2NC(c2ccc(Oc3ccc(F)cc3)cc2)[NH+]1c1ccccc1 (protonated)
O=C1c2ccccc2N[C@H](c2ccc(Oc3ccc(F)cc3)cc2)[N@@H+]1c1ccccc1 (chirality)
O=C1c2ccccc2N[C@H](c2ccc(Oc3ccc(F)cc3)cc2)[N@@H+]1c1ccccc1 (3D coordinates assigned)
O=C1c2ccccc2N[C@H](c2ccc(Oc3ccc(F)cc3)cc2)[N@@H+]1c1ccccc1 (nonaromatic ring conformer: 83.19692966386232 kcal/mol)

>  <smiles>  (44) 
O=C1c2ccccc2NC(c2ccc(Oc3ccc(F)cc3)cc2)N1c1ccccc1

>  <score_type>  (44) 
oracle

>  <origin>  (44) 
adg

>  <m_score__min__energy>  (44) 
-8.5099999999999998

>  <m_primary>  (44) 
energy

$$$$
44:0
     RDKit          3D

 36 38  0  0  0  0  0  0  0  0999 V2000
    0.5388   21.2588  -32.1326 H   0  0  0  0  0  0  0  0  0  0  0  0
   -0.5490   21.1970  -32.2840 C   0  0  0  0  0  0  0  0  0  0  0  0
   -1.6980   20.9030  -31.0880 S   0  0  0  0  0  0  0  0  0  0  0  0
   -2.9880   20.9980  -32.1580 C   0  0  0  0  0  0  0  0  0  0  0  0
   -4.2200   20.7780  -31.8060 N   0  0  0  0  0  0  0  0  0  0  0  0
   -5.3570   20.6950  -32.6770 C   0  0  0  0  0  0  0  0  0  0  0  0
   -5.1990   20.4710  -33.9090 O   0  0  0  0  0  0  0  0  0  0  0  0
   -6.7150   20.9670  -32.1480 C   0  0  0  0  0  0  0  0  0  0  0  0
   -7.7780   20.1360  -32.5470 C   0  0  0  0  0  0  0  0  0  0  0  0
   -7.5787   19.2713  -33.1970 H   0  0  0  0  0  0  0  0  0  0  0  0
   -9.0840   20.3980  -32.1260 C   0  0  0  0  0  0  0  0  0  0  0  0
   -9.9060   19.7409  -32.4463 H   0  0  0  0  0  0  0  0  0  0  0  0
   -9.3480   21.4900  -31.3010 C   0  0  0  0  0  0  0  0  0  0  0  0
  -10.3798   21.7016  -30.9837 H   0  0  0  0  0  0  0  0  0  0  0  0
   -8.3060   22.3150  -30.8770 C   0  0  0  0  0  0  0  0  0  0  0  0
   -8.5216   23.1735  -30.2239 H   0  0  0  0  0  0  0  0  0  0  0  0
   -6.9830   22.0590  -31.2770 C   0  0  0  0  0  0  0  0  0  0  0  0
   -5.9040   22.9110  -30.7280 C   0  0  0  0  0  0  0  0  0  0  0  0
   -5.6840   24.1960  -31.2460 C   0  0  0  0  0  0  0  0  0  0  0  0
   -6.3462   24.5915  -32.0303 H   0  0  0  0  0  0  0  0  0  0  0  0
   -4.6260   24.9760  -30.7690 C   0  0  0  0  0  0  0  0  0  0  0  0
   -4.4585   25.9807  -31.1845 H   0  0  0  0  0  0  0  0  0  0  0  0
   -3.7780   24.4890  -29.7670 C   0  0  0  0  0  0  0  0  0  0  0  0
   -2.7150   25.2990  -29.3410 O   0  0  0  0  0  0  0  0  0  0  0  0
   -1.7820   24.9330  -28.3310 C   0  0  0  0  0  0  0  0  0  0  0  0
   -2.2269   25.1075  -27.3402 H   0  0  0  0  0  0  0  0  0  0  0  0
   -1.5269   23.8682  -28.4360 H   0  0  0  0  0  0  0  0  0  0  0  0
   -0.8709   25.5404  -28.4360 H   0  0  0  0  0  0  0  0  0  0  0  0
   -4.0150   23.2100  -29.2270 C   0  0  0  0  0  0  0  0  0  0  0  0
   -3.3634   22.8222  -28.4301 H   0  0  0  0  0  0  0  0  0  0  0  0
   -5.0750   22.4320  -29.7000 C   0  0  0  0  0  0  0  0  0  0  0  0
   -5.2613   21.4390  -29.2650 H   0  0  0  0  0  0  0  0  0  0  0  0
   -2.5660   21.2340  -33.4230 N   0  0  0  0  0  0  0  0  0  0  0  0
   -3.1770   21.2840  -34.2680 H   0  0  0  0  0  0  0  0  0  0  0  0
   -1.2140   21.3480  -33.4960 C   0  0  0  0  0  0  0  0  0  0  0  0
   -0.6862   21.5446  -34.4409 H   0  0  0  0  0  0  0  0  0  0  0  0
  1  2  1  0
  2  3  1  0
  3  4  1  0
  4  5  2  0
  5  6  1  0
  6  7  2  0
  6  8  1  0
  8  9  2  0
  9 10  1  0
  9 11  1  0
 11 12  1  0
 11 13  2  0
 13 14  1  0
 13 15  1  0
 15 16  1  0
 15 17  2  0
 17 18  1  0
 18 19  2  0
 19 20  1  0
 19 21  1  0
 21 22  1  0
 21 23  2  0
 23 24  1  0
 24 25  1  0
 25 26  1  0
 25 27  1  0
 25 28  1  0
 23 29  1  0
 29 30  1  0
 29 31  2  0
 31 32  1  0
  4 33  1  0
 33 34  1  0
 33 35  1  0
 35 36  1  0
 35  2  2  0
 17  8  1  0
 31 18  1  0
M  END
>  <UniqueID>  (45) 
41

>  <SMILES>  (45) 
COc1ccc(-c2ccccc2C(=O)/N=c2\[nH]ccs2)cc1

>  <Energy>  (45) 
81.84594802183189

>  <Genealogy>  (45) 
COc1ccc(-c2ccccc2C(=O)/N=c2\[nH]ccs2)cc1 (cis-trans isomerization)
COc1ccc(-c2ccccc2C(=O)/N=c2\[nH]ccs2)cc1 (3D coordinates assigned)
COc1ccc(-c2ccccc2C(=O)/N=c2\[nH]ccs2)cc1 (optimized conformer: 81.84594802183189 kcal/mol)

>  <smiles>  (45) 
COc1ccc(-c2ccccc2C(=O)N=c2[nH]ccs2)cc1

>  <score_type>  (45) 
oracle

>  <origin>  (45) 
adg

>  <m_score__min__energy>  (45) 
-8.0800000000000001

>  <m_primary>  (45) 
energy

$$$$
45:0
     RDKit          3D

 39 42  0  0  0  0  0  0  0  0999 V2000
   -8.1218   20.0944  -33.2684 H   0  0  0  0  0  0  0  0  0  0  0  0
   -7.1620   20.1970  -32.7410 C   0  0  0  0  0  0  0  0  0  0  0  0
   -6.3630   19.1060  -32.6880 C   0  0  0  0  0  0  0  0  0  0  0  0
   -5.2620   18.9580  -31.6470 C   0  0  0  0  0  0  0  0  0  0  0  0
   -5.2099   19.8928  -31.0696 H   0  0  0  0  0  0  0  0  0  0  0  0
   -5.5305   18.0832  -31.0366 H   0  0  0  0  0  0  0  0  0  0  0  0
   -3.9150   18.6820  -32.1980 N   0  0  0  0  0  0  0  0  0  0  0  0
   -3.6090   19.3630  -33.4730 C   0  0  0  0  0  0  0  0  0  0  0  0
   -4.4196   20.0182  -33.8246 H   0  0  0  0  0  0  0  0  0  0  0  0
   -2.7606   20.0622  -33.5108 H   0  0  0  0  0  0  0  0  0  0  0  0
   -3.5140   18.0450  -34.2440 C   0  0  2  0  0  0  0  0  0  0  0  0
   -2.6633   17.7995  -34.8967 H   0  0  0  0  0  0  0  0  0  0  0  0
   -4.5760   17.7790  -35.3310 C   0  0  0  0  0  0  0  0  0  0  0  0
   -4.2171   18.2415  -36.2623 H   0  0  0  0  0  0  0  0  0  0  0  0
   -4.6803   16.6843  -35.3587 H   0  0  0  0  0  0  0  0  0  0  0  0
   -6.0010   18.3020  -35.0760 C   0  0  0  0  0  0  0  0  0  0  0  0
   -5.9825   19.3952  -35.1963 H   0  0  0  0  0  0  0  0  0  0  0  0
   -6.6392   17.7739  -35.7998 H   0  0  0  0  0  0  0  0  0  0  0  0
   -6.6110   17.9920  -33.6890 C   0  0  1  0  0  0  0  0  0  0  0  0
   -7.7006   17.9647  -33.8378 H   0  0  0  0  0  0  0  0  0  0  0  0
   -6.2830   16.5850  -33.1620 C   0  0  0  0  0  0  0  0  0  0  0  0
   -6.9285   16.4031  -32.2901 H   0  0  0  0  0  0  0  0  0  0  0  0
   -6.4489   15.9220  -34.0239 H   0  0  0  0  0  0  0  0  0  0  0  0
   -4.8290   16.2970  -32.7260 C   0  0  0  0  0  0  0  0  0  0  0  0
   -4.8633   16.0371  -31.6577 H   0  0  0  0  0  0  0  0  0  0  0  0
   -4.5053   15.5134  -33.4268 H   0  0  0  0  0  0  0  0  0  0  0  0
   -3.7410   17.3900  -32.8860 C   0  0  2  0  0  0  0  0  0  0  0  0
   -2.9692   16.6985  -32.5170 H   0  0  0  0  0  0  0  0  0  0  0  0
   -6.8520   21.5120  -32.1500 C   0  0  0  0  0  0  0  0  0  0  0  0
   -7.7700   22.1040  -31.2690 C   0  0  0  0  0  0  0  0  0  0  0  0
   -8.6926   21.5693  -30.9988 H   0  0  0  0  0  0  0  0  0  0  0  0
   -7.5170   23.3710  -30.7330 C   0  0  0  0  0  0  0  0  0  0  0  0
   -8.2316   23.8229  -30.0293 H   0  0  0  0  0  0  0  0  0  0  0  0
   -6.3570   24.0630  -31.0910 C   0  0  0  0  0  0  0  0  0  0  0  0
   -6.1559   25.0568  -30.6644 H   0  0  0  0  0  0  0  0  0  0  0  0
   -5.4520   23.4930  -31.9910 C   0  0  0  0  0  0  0  0  0  0  0  0
   -4.5420   24.0412  -32.2763 H   0  0  0  0  0  0  0  0  0  0  0  0
   -5.7020   22.2270  -32.5290 C   0  0  0  0  0  0  0  0  0  0  0  0
   -4.9970   21.7890  -33.2509 H   0  0  0  0  0  0  0  0  0  0  0  0
  1  2  1  0
  2  3  2  0
  3  4  1  0
  4  5  1  0
  4  6  1  0
  4  7  1  0
  7  8  1  0
  8  9  1  0
  8 10  1  0
  8 11  1  0
 11 12  1  6
 11 13  1  0
 13 14  1  0
 13 15  1  0
 13 16  1  0
 16 17  1  0
 16 18  1  0
 16 19  1  0
 19 20  1  6
 19 21  1  0
 21 22  1  0
 21 23  1  0
 21 24  1  0
 24 25  1  0
 24 26  1  0
 24 27  1  0
 27 28  1  1
  2 29  1  0
 29 30  2  0
 30 31  1  0
 30 32  1  0
 32 33  1  0
 32 34  2  0
 34 35  1  0
 34 36  1  0
 36 37  1  0
 36 38  2  0
 38 39  1  0
 19  3  1  0
 38 29  1  0
 27  7  1  0
 27 11  1  0
M  END
>  <UniqueID>  (46) 
42

>  <SMILES>  (46) 
C(=C1\CN2C[C@@H]3CC[C@H]1CCC32)\c1ccccc1

>  <Energy>  (46) 
150.058038219491

>  <Genealogy>  (46) 
C(=C1CN2C[C@@H]3CC[C@H]1CCC32)c1ccccc1 (chirality)
C(=C1\CN2C[C@@H]3CC[C@H]1CCC32)\c1ccccc1 (cis-trans isomerization)
C(=C1\CN2C[C@@H]3CC[C@H]1CCC32)\c1ccccc1 (3D coordinates assigned)
C(=C1\CN2C[C@@H]3CC[C@H]1CCC32)\c1ccccc1 (nonaromatic ring conformer: 150.058038219491 kcal/mol)

>  <smiles>  (46) 
C(=C1CN2CC3CCC1CCC32)c1ccccc1

>  <score_type>  (46) 
oracle

>  <origin>  (46) 
adg

>  <m_score__min__energy>  (46) 
-4.7699999999999996

>  <m_primary>  (46) 
energy

$$$$
46:0
     RDKit          3D

 51 52  0  0  0  0  0  0  0  0999 V2000
   -1.1420   21.1720  -33.7750 C   0  0  0  0  0  0  0  0  0  0  0  0
   -1.9900   20.6080  -32.6380 C   0  0  0  0  0  0  0  0  0  0  0  0
   -3.4150   20.9090  -32.8420 N   0  0  0  0  0  0  0  0  0  0  0  0
   -3.8820   22.2960  -32.6840 C   0  0  0  0  0  0  0  0  0  0  0  0
   -3.8260   22.7070  -31.2470 C   0  0  0  0  0  0  0  0  0  0  0  0
   -3.7730   23.9940  -30.8400 N   0  0  0  0  0  0  0  0  0  0  0  0
   -3.6550   24.0930  -29.4900 C   0  0  0  0  0  0  0  0  0  0  0  0
   -3.6010   22.8820  -28.8110 C   0  0  0  0  0  0  0  0  0  0  0  0
   -3.7020   21.6470  -29.9480 S   0  0  0  0  0  0  0  0  0  0  0  0
   -4.3480   19.8530  -33.1760 C   0  0  0  0  0  0  0  0  0  0  0  0
   -5.6660   19.8850  -32.6860 C   0  0  0  0  0  0  0  0  0  0  0  0
   -6.5480   18.8380  -32.9830 C   0  0  0  0  0  0  0  0  0  0  0  0
   -7.9700   18.8760  -32.4940 C   0  0  0  0  0  0  0  0  0  0  0  0
   -8.6470   20.0590  -33.0400 N   0  0  0  0  0  0  0  0  0  0  0  0
   -9.5800   20.6460  -32.0660 C   0  0  0  0  0  0  0  0  0  0  0  0
   -9.1370   22.0490  -31.6230 C   0  0  0  0  0  0  0  0  0  0  0  0
   -7.9730   22.0180  -30.6190 C   0  0  0  0  0  0  0  0  0  0  0  0
   -6.9050   22.9640  -31.0130 N   0  0  0  0  0  0  0  0  0  0  0  0
   -6.8610   24.1210  -30.1010 C   0  0  0  0  0  0  0  0  0  0  0  0
   -7.1120   23.4340  -32.3920 C   0  0  0  0  0  0  0  0  0  0  0  0
   -6.1090   17.7840  -33.7920 C   0  0  0  0  0  0  0  0  0  0  0  0
   -4.7980   17.7830  -34.2670 C   0  0  0  0  0  0  0  0  0  0  0  0
   -3.9520   18.8010  -33.9530 N   0  0  0  0  0  0  0  0  0  0  0  0
   -0.2951   21.7353  -33.3562 H   0  0  0  0  0  0  0  0  0  0  0  0
   -0.7625   20.3457  -34.3941 H   0  0  0  0  0  0  0  0  0  0  0  0
   -1.7573   21.8414  -34.3941 H   0  0  0  0  0  0  0  0  0  0  0  0
   -1.8555   19.5171  -32.5963 H   0  0  0  0  0  0  0  0  0  0  0  0
   -1.6656   21.0734  -31.6956 H   0  0  0  0  0  0  0  0  0  0  0  0
   -3.2398   22.9639  -33.2769 H   0  0  0  0  0  0  0  0  0  0  0  0
   -4.9231   22.3628  -33.0329 H   0  0  0  0  0  0  0  0  0  0  0  0
   -3.6058   25.0621  -28.9720 H   0  0  0  0  0  0  0  0  0  0  0  0
   -3.5085   22.7538  -27.7224 H   0  0  0  0  0  0  0  0  0  0  0  0
   -6.0039   20.7314  -32.0701 H   0  0  0  0  0  0  0  0  0  0  0  0
   -8.4954   17.9681  -32.8251 H   0  0  0  0  0  0  0  0  0  0  0  0
   -7.9773   18.9255  -31.3951 H   0  0  0  0  0  0  0  0  0  0  0  0
   -9.2090   19.7470  -33.8660 H   0  0  0  0  0  0  0  0  0  0  0  0
  -10.5768   20.7163  -32.5259 H   0  0  0  0  0  0  0  0  0  0  0  0
   -9.5984   19.9976  -31.1776 H   0  0  0  0  0  0  0  0  0  0  0  0
   -8.8194   22.6140  -32.5117 H   0  0  0  0  0  0  0  0  0  0  0  0
   -9.9936   22.5235  -31.1218 H   0  0  0  0  0  0  0  0  0  0  0  0
   -8.3496   22.2955  -29.6234 H   0  0  0  0  0  0  0  0  0  0  0  0
   -7.5518   21.0020  -30.6032 H   0  0  0  0  0  0  0  0  0  0  0  0
   -6.8744   23.7676  -29.0594 H   0  0  0  0  0  0  0  0  0  0  0  0
   -5.9404   24.6953  -30.2815 H   0  0  0  0  0  0  0  0  0  0  0  0
   -7.7354   24.7636  -30.2815 H   0  0  0  0  0  0  0  0  0  0  0  0
   -7.5553   24.4405  -32.3737 H   0  0  0  0  0  0  0  0  0  0  0  0
   -6.1458   23.4684  -32.9166 H   0  0  0  0  0  0  0  0  0  0  0  0
   -7.7897   22.7444  -32.9166 H   0  0  0  0  0  0  0  0  0  0  0  0
   -6.7930   16.9624  -34.0513 H   0  0  0  0  0  0  0  0  0  0  0  0
   -4.4459   16.9545  -34.8991 H   0  0  0  0  0  0  0  0  0  0  0  0
   -2.9860   18.7650  -34.3440 H   0  0  0  0  0  0  0  0  0  0  0  0
  1  2  1  0
  2  3  1  0
  3  4  1  0
  4  5  1  0
  5  6  2  0
  6  7  1  0
  7  8  2  0
  8  9  1  0
  3 10  1  0
 10 11  2  0
 11 12  1  0
 12 13  1  0
 13 14  1  0
 14 15  1  0
 15 16  1  0
 16 17  1  0
 17 18  1  0
 18 19  1  0
 18 20  1  0
 12 21  2  0
 21 22  1  0
 22 23  2  0
  9  5  1  0
 23 10  1  0
  1 24  1  0
  1 25  1  0
  1 26  1  0
  2 27  1  0
  2 28  1  0
  4 29  1  0
  4 30  1  0
  7 31  1  0
  8 32  1  0
 11 33  1  0
 13 34  1  0
 13 35  1  0
 14 36  1  0
 15 37  1  0
 15 38  1  0
 16 39  1  0
 16 40  1  0
 17 41  1  0
 17 42  1  0
 19 43  1  0
 19 44  1  0
 19 45  1  0
 20 46  1  0
 20 47  1  0
 20 48  1  0
 21 49  1  0
 22 50  1  0
 23 51  1  0
M  CHG  1  23   1
M  END
>  <UniqueID>  (47) 
43

>  <SMILES>  (47) 
CCN(Cc1nccs1)c1cc(CNCCCN(C)C)cc[nH+]1

>  <Energy>  (47) 
71.7289806986227

>  <Genealogy>  (47) 
CCN(Cc1nccs1)c1cc(CNCCCN(C)C)cc[nH+]1 (protonated)
CCN(Cc1nccs1)c1cc(CNCCCN(C)C)cc[nH+]1 (3D coordinates assigned)
CCN(Cc1nccs1)c1cc(CNCCCN(C)C)cc[nH+]1 (optimized conformer: 71.7289806986227 kcal/mol)

>  <smiles>  (47) 
CCN(Cc1nccs1)c1cc(CNCCCN(C)C)ccn1

>  <score_type>  (47) 
oracle

>  <origin>  (47) 
adg

>  <m_score__min__energy>  (47) 
-6.3700000000000001

>  <m_primary>  (47) 
energy

$$$$
47:0
     RDKit          3D

 64 67  0  0  0  0  0  0  0  0999 V2000
   -9.5062   18.7529  -30.7291 H   0  0  0  0  0  0  0  0  0  0  0  0
   -8.7470   19.1030  -31.4440 C   0  0  0  0  0  0  0  0  0  0  0  0
   -8.1100   18.1860  -32.1820 C   0  0  0  0  0  0  0  0  0  0  0  0
   -8.6050   17.7679  -33.0709 H   0  0  0  0  0  0  0  0  0  0  0  0
   -6.7290   17.7180  -31.8160 C   0  0  0  0  0  0  0  0  0  0  0  0
   -6.8069   16.8260  -31.1770 H   0  0  0  0  0  0  0  0  0  0  0  0
   -6.2109   18.5261  -31.2789 H   0  0  0  0  0  0  0  0  0  0  0  0
   -5.9560   17.3800  -33.0310 N   0  0  0  0  0  0  0  0  0  0  0  0
   -6.1670   18.3530  -34.1190 C   0  0  0  0  0  0  0  0  0  0  0  0
   -7.2472   18.5267  -34.2325 H   0  0  0  0  0  0  0  0  0  0  0  0
   -5.7272   17.9315  -35.0349 H   0  0  0  0  0  0  0  0  0  0  0  0
   -5.4730   19.7070  -33.8440 C   0  0  0  0  0  0  0  0  0  0  0  0
   -6.1697   20.3483  -33.2842 H   0  0  0  0  0  0  0  0  0  0  0  0
   -5.2035   20.1374  -34.8198 H   0  0  0  0  0  0  0  0  0  0  0  0
   -4.2160   19.5790  -33.0590 N   0  0  0  0  0  0  0  0  0  0  0  0
   -4.4570   19.6750  -32.0430 H   0  0  0  0  0  0  0  0  0  0  0  0
   -3.2820   20.6810  -33.4050 C   0  0  0  0  0  0  0  0  0  0  0  0
   -3.7525   21.3197  -34.1670 H   0  0  0  0  0  0  0  0  0  0  0  0
   -2.3512   20.2327  -33.7826 H   0  0  0  0  0  0  0  0  0  0  0  0
   -2.9390   21.5280  -32.2020 C   0  0  0  0  0  0  0  0  0  0  0  0
   -3.8190   22.3880  -31.5700 C   0  0  0  0  0  0  0  0  0  0  0  0
   -4.8076   22.7038  -31.9347 H   0  0  0  0  0  0  0  0  0  0  0  0
   -3.2110   22.7720  -30.3900 C   0  0  0  0  0  0  0  0  0  0  0  0
   -3.8440   23.6570  -29.3610 C   0  0  0  0  0  0  0  0  0  0  0  0
   -3.5844   23.2941  -28.3556 H   0  0  0  0  0  0  0  0  0  0  0  0
   -3.4757   24.6860  -29.4858 H   0  0  0  0  0  0  0  0  0  0  0  0
   -4.9368   23.6410  -29.4858 H   0  0  0  0  0  0  0  0  0  0  0  0
   -1.9990   22.1740  -30.2680 N   0  0  0  0  0  0  0  0  0  0  0  0
   -1.1640   22.1310  -29.0560 C   0  0  0  0  0  0  0  0  0  0  0  0
   -0.1036   22.1050  -29.3472 H   0  0  0  0  0  0  0  0  0  0  0  0
   -1.3678   23.0263  -28.4503 H   0  0  0  0  0  0  0  0  0  0  0  0
   -1.4860   20.9020  -28.2380 C   0  0  0  0  0  0  0  0  0  0  0  0
   -2.7440   20.7710  -27.6230 C   0  0  0  0  0  0  0  0  0  0  0  0
   -3.4815   21.5829  -27.7069 H   0  0  0  0  0  0  0  0  0  0  0  0
   -3.0620   19.6130  -26.9050 C   0  0  0  0  0  0  0  0  0  0  0  0
   -4.0508   19.5139  -26.4333 H   0  0  0  0  0  0  0  0  0  0  0  0
   -2.1270   18.5830  -26.7860 C   0  0  0  0  0  0  0  0  0  0  0  0
   -2.3797   17.6741  -26.2203 H   0  0  0  0  0  0  0  0  0  0  0  0
   -0.8680   18.7060  -27.3860 C   0  0  0  0  0  0  0  0  0  0  0  0
   -0.1328   17.8931  -27.2925 H   0  0  0  0  0  0  0  0  0  0  0  0
   -0.5440   19.8630  -28.1050 C   0  0  0  0  0  0  0  0  0  0  0  0
    0.4492   19.9610  -28.5675 H   0  0  0  0  0  0  0  0  0  0  0  0
   -1.8110   21.4380  -31.3920 C   0  0  0  0  0  0  0  0  0  0  0  0
   -0.6330   20.5330  -31.6280 C   0  0  0  0  0  0  0  0  0  0  0  0
   -0.2168   20.2133  -30.6613 H   0  0  0  0  0  0  0  0  0  0  0  0
   -0.9575   19.6497  -32.1977 H   0  0  0  0  0  0  0  0  0  0  0  0
    0.1368   21.0742  -32.1977 H   0  0  0  0  0  0  0  0  0  0  0  0
   -3.5900   18.2550  -33.2590 C   0  0  0  0  0  0  0  0  0  0  0  0
   -2.6439   18.2157  -32.6993 H   0  0  0  0  0  0  0  0  0  0  0  0
   -3.4065   18.1117  -34.3341 H   0  0  0  0  0  0  0  0  0  0  0  0
   -4.5170   17.1280  -32.7630 C   0  0  0  0  0  0  0  0  0  0  0  0
   -4.3797   17.0175  -31.6772 H   0  0  0  0  0  0  0  0  0  0  0  0
   -4.2410   16.2173  -33.3147 H   0  0  0  0  0  0  0  0  0  0  0  0
   -8.4930   20.5630  -31.5300 C   0  0  0  0  0  0  0  0  0  0  0  0
   -7.1920   21.0350  -31.2790 C   0  0  0  0  0  0  0  0  0  0  0  0
   -6.3953   20.3234  -31.0166 H   0  0  0  0  0  0  0  0  0  0  0  0
   -6.9020   22.4010  -31.3600 C   0  0  0  0  0  0  0  0  0  0  0  0
   -5.8824   22.7588  -31.1541 H   0  0  0  0  0  0  0  0  0  0  0  0
   -7.9050   23.3120  -31.7020 C   0  0  0  0  0  0  0  0  0  0  0  0
   -7.6762   24.3863  -31.7619 H   0  0  0  0  0  0  0  0  0  0  0  0
   -9.2000   22.8560  -31.9680 C   0  0  0  0  0  0  0  0  0  0  0  0
   -9.9884   23.5727  -32.2417 H   0  0  0  0  0  0  0  0  0  0  0  0
   -9.4960   21.4900  -31.8870 C   0  0  0  0  0  0  0  0  0  0  0  0
  -10.5154   21.1373  -32.1026 H   0  0  0  0  0  0  0  0  0  0  0  0
  1  2  1  0
  2  3  2  0
  3  4  1  0
  3  5  1  0
  5  6  1  0
  5  7  1  0
  5  8  1  0
  8  9  1  0
  9 10  1  0
  9 11  1  0
  9 12  1  0
 12 13  1  0
 12 14  1  0
 12 15  1  0
 15 16  1  0
 15 17  1  0
 17 18  1  0
 17 19  1  0
 17 20  1  0
 20 21  1  0
 21 22  1  0
 21 23  2  0
 23 24  1  0
 24 25  1  0
 24 26  1  0
 24 27  1  0
 23 28  1  0
 28 29  1  0
 29 30  1  0
 29 31  1  0
 29 32  1  0
 32 33  2  0
 33 34  1  0
 33 35  1  0
 35 36  1  0
 35 37  2  0
 37 38  1  0
 37 39  1  0
 39 40  1  0
 39 41  2  0
 41 42  1  0
 28 43  1  0
 43 44  1  0
 44 45  1  0
 44 46  1  0
 44 47  1  0
 15 48  1  0
 48 49  1  0
 48 50  1  0
 48 51  1  0
 51 52  1  0
 51 53  1  0
  2 54  1  0
 54 55  2  0
 55 56  1  0
 55 57  1  0
 57 58  1  0
 57 59  2  0
 59 60  1  0
 59 61  1  0
 61 62  1  0
 61 63  2  0
 63 64  1  0
 51  8  1  0
 63 54  1  0
 43 20  2  0
 41 32  1  0
M  CHG  1  15   1
M  END
>  <UniqueID>  (48) 
44

>  <SMILES>  (48) 
Cc1cc(C[NH+]2CCN(C/C=C/c3ccccc3)CC2)c(C)n1Cc1ccccc1

>  <Energy>  (48) 
103.81426503990897

>  <Genealogy>  (48) 
Cc1cc(C[NH+]2CCN(CC=Cc3ccccc3)CC2)c(C)n1Cc1ccccc1 (protonated)
Cc1cc(C[NH+]2CCN(C/C=C/c3ccccc3)CC2)c(C)n1Cc1ccccc1 (cis-trans isomerization)
Cc1cc(C[NH+]2CCN(C/C=C/c3ccccc3)CC2)c(C)n1Cc1ccccc1 (3D coordinates assigned)
Cc1cc(C[NH+]2CCN(C/C=C/c3ccccc3)CC2)c(C)n1Cc1ccccc1 (nonaromatic ring conformer: 103.81426503990897 kcal/mol)

>  <smiles>  (48) 
Cc1cc(CN2CCN(CC=Cc3ccccc3)CC2)c(C)n1Cc1ccccc1

>  <score_type>  (48) 
oracle

>  <origin>  (48) 
adg

>  <m_score__min__energy>  (48) 
-8.7699999999999996

>  <m_primary>  (48) 
energy

$$$$
