0:0
     RDKit          3D

 46 47  0  0  0  0  0  0  0  0999 V2000
   -2.1270   20.8660  -27.5630 C   0  0  0  0  0  0  0  0  0  0  0  0
   -1.4350   22.2090  -27.3270 C   0  0  0  0  0  0  0  0  0  0  0  0
   -0.4740   22.5300  -28.4070 N   0  0  0  0  0  0  0  0  0  0  0  0
   -0.6670   21.6320  -29.5590 C   0  0  0  0  0  0  0  0  0  0  0  0
   -0.4520   23.9550  -28.8140 C   0  0  0  0  0  0  0  0  0  0  0  0
   -1.6230   24.7920  -28.2640 C   0  0  0  0  0  0  0  0  0  0  0  0
   -2.4420   25.2970  -29.3620 N   0  0  0  0  0  0  0  0  0  0  0  0
   -3.4480   24.5550  -30.0680 C   0  0  0  0  0  0  0  0  0  0  0  0
   -4.2250   25.1770  -30.8420 O   0  0  0  0  0  0  0  0  0  0  0  0
   -3.6530   23.0790  -29.8720 C   0  0  0  0  0  0  0  0  0  0  0  0
   -4.7960   22.6260  -30.6610 N   0  0  0  0  0  0  0  0  0  0  0  0
   -4.9000   21.4500  -31.3100 C   0  0  0  0  0  0  0  0  0  0  0  0
   -6.1640   21.3720  -31.8640 C   0  0  0  0  0  0  0  0  0  0  0  0
   -6.7810   22.5700  -31.5290 C   0  0  0  0  0  0  0  0  0  0  0  0
   -5.9300   23.2960  -30.7810 N   0  0  0  0  0  0  0  0  0  0  0  0
   -8.1920   22.9840  -31.8410 C   0  0  0  0  0  0  0  0  0  0  0  0
   -9.2070   21.9190  -31.4160 C   0  0  0  0  0  0  0  0  0  0  0  0
   -9.2160   20.6760  -32.3300 C   0  0  0  0  0  0  0  0  0  0  0  0
   -8.0280   19.7100  -32.1500 C   0  0  0  0  0  0  0  0  0  0  0  0
   -6.7030   20.2500  -32.7070 C   0  0  0  0  0  0  0  0  0  0  0  0
   -2.3662   20.4017  -26.5949 H   0  0  0  0  0  0  0  0  0  0  0  0
   -3.0547   21.0265  -28.1319 H   0  0  0  0  0  0  0  0  0  0  0  0
   -1.4579   20.2037  -28.1319 H   0  0  0  0  0  0  0  0  0  0  0  0
   -2.1983   22.9999  -27.2829 H   0  0  0  0  0  0  0  0  0  0  0  0
   -0.8772   22.1446  -26.3811 H   0  0  0  0  0  0  0  0  0  0  0  0
   -0.8854   20.6157  -29.1992 H   0  0  0  0  0  0  0  0  0  0  0  0
   -1.5079   21.9936  -30.1690 H   0  0  0  0  0  0  0  0  0  0  0  0
    0.2483   21.6162  -30.1690 H   0  0  0  0  0  0  0  0  0  0  0  0
    0.4876   24.4007  -28.4557 H   0  0  0  0  0  0  0  0  0  0  0  0
   -0.5429   23.9699  -29.9101 H   0  0  0  0  0  0  0  0  0  0  0  0
   -2.2427   24.1628  -27.6082 H   0  0  0  0  0  0  0  0  0  0  0  0
   -1.2197   25.6435  -27.6963 H   0  0  0  0  0  0  0  0  0  0  0  0
   -2.7504   22.5395  -30.1948 H   0  0  0  0  0  0  0  0  0  0  0  0
   -3.8457   22.8786  -28.8077 H   0  0  0  0  0  0  0  0  0  0  0  0
   -4.1144   20.6838  -31.3860 H   0  0  0  0  0  0  0  0  0  0  0  0
   -6.1210   24.2270  -30.3510 H   0  0  0  0  0  0  0  0  0  0  0  0
   -8.4142   23.9200  -31.3075 H   0  0  0  0  0  0  0  0  0  0  0  0
   -8.2749   23.1187  -32.9296 H   0  0  0  0  0  0  0  0  0  0  0  0
   -8.9650   21.5965  -30.3925 H   0  0  0  0  0  0  0  0  0  0  0  0
  -10.2044   22.3777  -31.4848 H   0  0  0  0  0  0  0  0  0  0  0  0
  -10.1414   20.1157  -32.1307 H   0  0  0  0  0  0  0  0  0  0  0  0
   -9.1411   21.0577  -33.3589 H   0  0  0  0  0  0  0  0  0  0  0  0
   -7.8990   19.5148  -31.0752 H   0  0  0  0  0  0  0  0  0  0  0  0
   -8.2668   18.7979  -32.7167 H   0  0  0  0  0  0  0  0  0  0  0  0
   -5.9658   19.4338  -32.7285 H   0  0  0  0  0  0  0  0  0  0  0  0
   -6.8885   20.6389  -33.7191 H   0  0  0  0  0  0  0  0  0  0  0  0
  1  2  1  0
  2  3  1  0
  3  4  1  0
  3  5  1  0
  5  6  1  0
  6  7  1  0
  7  8  1  0
  8  9  2  0
  8 10  1  0
 10 11  1  0
 11 12  1  0
 12 13  2  0
 13 14  1  0
 14 15  2  0
 14 16  1  0
 16 17  1  0
 17 18  1  0
 18 19  1  0
 19 20  1  0
 15 11  1  0
 20 13  1  0
  1 21  1  0
  1 22  1  0
  1 23  1  0
  2 24  1  0
  2 25  1  0
  4 26  1  0
  4 27  1  0
  4 28  1  0
  5 29  1  0
  5 30  1  0
  6 31  1  0
  6 32  1  0
 10 33  1  0
 10 34  1  0
 12 35  1  0
 15 36  1  0
 16 37  1  0
 16 38  1  0
 17 39  1  0
 17 40  1  0
 18 41  1  0
 18 42  1  0
 19 43  1  0
 19 44  1  0
 20 45  1  0
 20 46  1  0
M  CHG  2   7  -1  15   1
M  END
>  <UniqueID>  (1) 
1

>  <SMILES>  (1) 
CCN(C)CC[N-]C(=O)Cn1cc2c([nH+]1)CCCCC2

>  <Energy>  (1) 
73.14037873694024

>  <Genealogy>  (1) 
CCN(C)CC[N-]C(=O)Cn1cc2c([nH+]1)CCCCC2 (protonated)
CCN(C)CC[N-]C(=O)Cn1cc2c([nH+]1)CCCCC2 (3D coordinates assigned)
CCN(C)CC[N-]C(=O)Cn1cc2c([nH+]1)CCCCC2 (nonaromatic ring conformer: 73.14037873694024 kcal/mol)

>  <smiles>  (1) 
CCN(C)CCNC(=O)Cn1cc2c(n1)CCCCC2

>  <score_type>  (1) 
oracle

>  <origin>  (1) 
adg

>  <m_score__min__energy>  (1) 
-6.5800000000000001

>  <m_primary>  (1) 
energy

$$$$
1:0
     RDKit          3D

 46 48  0  0  0  0  0  0  0  0999 V2000
   -4.3480   24.1090  -28.7770 C   0  0  0  0  0  0  0  0  0  0  0  0
   -3.6050   24.3930  -30.0840 C   0  0  0  0  0  0  0  0  0  0  0  0
   -4.5220   24.7390  -31.1830 N   0  0  0  0  0  0  0  0  0  0  0  0
   -5.9310   24.7910  -30.7620 C   0  0  0  0  0  0  0  0  0  0  0  0
   -6.6670   23.4970  -31.1270 C   0  0  0  0  0  0  0  0  0  0  0  0
   -6.2090   22.9640  -32.4120 N   0  0  0  0  0  0  0  0  0  0  0  0
   -6.0220   21.5550  -32.6310 C   0  0  0  0  0  0  0  0  0  0  0  0
   -7.1160   20.6780  -32.5370 C   0  0  0  0  0  0  0  0  0  0  0  0
   -8.3840   21.1450  -32.1330 C   0  0  0  0  0  0  0  0  0  0  0  0
   -9.4580   20.2670  -32.0130 C   0  0  0  0  0  0  0  0  0  0  0  0
   -9.2850   18.9140  -32.2810 C   0  0  0  0  0  0  0  0  0  0  0  0
   -8.0450   18.4340  -32.6990 C   0  0  0  0  0  0  0  0  0  0  0  0
   -6.9420   19.3080  -32.8710 C   0  0  0  0  0  0  0  0  0  0  0  0
   -5.7210   18.8600  -33.3410 N   0  0  0  0  0  0  0  0  0  0  0  0
   -5.6180   17.5250  -33.9740 C   0  0  0  0  0  0  0  0  0  0  0  0
   -4.6030   19.6640  -33.2360 C   0  0  0  0  0  0  0  0  0  0  0  0
   -3.2940   19.1540  -33.4330 C   0  0  0  0  0  0  0  0  0  0  0  0
   -2.1670   19.9810  -33.3360 C   0  0  0  0  0  0  0  0  0  0  0  0
   -0.7970   19.4210  -33.5910 C   0  0  0  0  0  0  0  0  0  0  0  0
   -2.3300   21.3360  -33.0480 C   0  0  0  0  0  0  0  0  0  0  0  0
   -3.5990   21.8570  -32.8140 C   0  0  0  0  0  0  0  0  0  0  0  0
   -4.7430   21.0380  -32.9020 C   0  0  0  0  0  0  0  0  0  0  0  0
   -3.6985   24.3573  -27.9246 H   0  0  0  0  0  0  0  0  0  0  0  0
   -5.2605   24.7217  -28.7334 H   0  0  0  0  0  0  0  0  0  0  0  0
   -4.6192   23.0438  -28.7334 H   0  0  0  0  0  0  0  0  0  0  0  0
   -2.9132   25.2328  -29.9226 H   0  0  0  0  0  0  0  0  0  0  0  0
   -3.0655   23.4782  -30.3706 H   0  0  0  0  0  0  0  0  0  0  0  0
   -4.2510   25.6620  -31.5950 H   0  0  0  0  0  0  0  0  0  0  0  0
   -5.9748   24.9334  -29.6721 H   0  0  0  0  0  0  0  0  0  0  0  0
   -6.4193   25.6280  -31.2826 H   0  0  0  0  0  0  0  0  0  0  0  0
   -6.4830   22.7476  -30.3430 H   0  0  0  0  0  0  0  0  0  0  0  0
   -7.7407   23.7217  -31.2091 H   0  0  0  0  0  0  0  0  0  0  0  0
   -5.9640   23.6300  -33.1790 H   0  0  0  0  0  0  0  0  0  0  0  0
   -8.5258   22.2129  -31.9106 H   0  0  0  0  0  0  0  0  0  0  0  0
  -10.4445   20.6444  -31.7058 H   0  0  0  0  0  0  0  0  0  0  0  0
  -10.1299   18.2196  -32.1627 H   0  0  0  0  0  0  0  0  0  0  0  0
   -7.9201   17.3595  -32.8987 H   0  0  0  0  0  0  0  0  0  0  0  0
   -5.5584   16.7526  -33.1931 H   0  0  0  0  0  0  0  0  0  0  0  0
   -6.5050   17.3464  -34.5995 H   0  0  0  0  0  0  0  0  0  0  0  0
   -4.7141   17.4845  -34.5995 H   0  0  0  0  0  0  0  0  0  0  0  0
   -3.1610   18.0874  -33.6667 H   0  0  0  0  0  0  0  0  0  0  0  0
   -0.2995   19.2177  -32.6312 H   0  0  0  0  0  0  0  0  0  0  0  0
   -0.8839   18.4862  -34.1643 H   0  0  0  0  0  0  0  0  0  0  0  0
   -0.2042   20.1490  -34.1643 H   0  0  0  0  0  0  0  0  0  0  0  0
   -1.4511   21.9961  -33.0056 H   0  0  0  0  0  0  0  0  0  0  0  0
   -3.7108   22.9208  -32.5573 H   0  0  0  0  0  0  0  0  0  0  0  0
  1  2  1  0
  2  3  1  0
  3  4  1  0
  4  5  1  0
  5  6  1  0
  6  7  1  0
  7  8  2  0
  8  9  1  0
  9 10  2  0
 10 11  1  0
 11 12  2  0
 12 13  1  0
 13 14  2  0
 14 15  1  0
 14 16  1  0
 16 17  2  0
 17 18  1  0
 18 19  1  0
 18 20  2  0
 20 21  1  0
 21 22  2  0
 22  7  1  0
 13  8  1  0
 22 16  1  0
  1 23  1  0
  1 24  1  0
  1 25  1  0
  2 26  1  0
  2 27  1  0
  3 28  1  0
  4 29  1  0
  4 30  1  0
  5 31  1  0
  5 32  1  0
  6 33  1  0
  9 34  1  0
 10 35  1  0
 11 36  1  0
 12 37  1  0
 15 38  1  0
 15 39  1  0
 15 40  1  0
 17 41  1  0
 19 42  1  0
 19 43  1  0
 19 44  1  0
 20 45  1  0
 21 46  1  0
M  CHG  1  14   1
M  END
>  <UniqueID>  (2) 
2

>  <SMILES>  (2) 
CCNCCNc1c2ccccc2[n+](C)c2cc(C)ccc12

>  <Energy>  (2) 
69.20873927067223

>  <Genealogy>  (2) 
CCNCCNc1c2ccccc2[n+](C)c2cc(C)ccc12 (3D coordinates assigned)
CCNCCNc1c2ccccc2[n+](C)c2cc(C)ccc12 (optimized conformer: 69.20873927067223 kcal/mol)

>  <smiles>  (2) 
CCNCCNc1c2ccccc2[n+](C)c2cc(C)ccc12

>  <score_type>  (2) 
oracle

>  <origin>  (2) 
adg

>  <m_score__min__energy>  (2) 
-8.6899999999999995

>  <m_primary>  (2) 
energy

$$$$
2:0
     RDKit          3D

 57 60  0  0  0  0  0  0  0  0999 V2000
    0.0500   20.7710  -35.7880 C   0  0  0  0  0  0  0  0  0  0  0  0
   -0.1540   21.5270  -34.4660 C   0  0  0  0  0  0  0  0  0  0  0  0
   -1.2200   20.9650  -33.5980 N   0  0  0  0  0  0  0  0  0  0  0  0
   -1.5440   19.5460  -33.8830 C   0  0  0  0  0  0  0  0  0  0  0  0
   -1.5570   18.7010  -32.6080 C   0  0  0  0  0  0  0  0  0  0  0  0
   -0.9390   21.1750  -32.1590 C   0  0  0  0  0  0  0  0  0  0  0  0
   -2.1290   21.8720  -31.4690 C   0  0  0  0  0  0  0  0  0  0  0  0
   -3.1880   22.1670  -32.4340 N   0  0  0  0  0  0  0  0  0  0  0  0
   -4.5780   22.0550  -32.0840 C   0  0  0  0  0  0  0  0  0  0  0  0
   -5.2170   23.0490  -31.3200 C   0  0  0  0  0  0  0  0  0  0  0  0
   -4.5120   24.1730  -30.8410 C   0  0  0  0  0  0  0  0  0  0  0  0
   -5.1640   25.1600  -30.1040 C   0  0  0  0  0  0  0  0  0  0  0  0
   -6.5250   25.0480  -29.8370 C   0  0  0  0  0  0  0  0  0  0  0  0
   -7.2450   23.9530  -30.3140 C   0  0  0  0  0  0  0  0  0  0  0  0
   -6.6130   22.9390  -31.0740 C   0  0  0  0  0  0  0  0  0  0  0  0
   -7.3250   21.8700  -31.5820 N   0  0  0  0  0  0  0  0  0  0  0  0
   -8.7830   22.0190  -31.7820 C   0  0  0  0  0  0  0  0  0  0  0  0
   -6.6530   20.7700  -32.0870 C   0  0  0  0  0  0  0  0  0  0  0  0
   -7.2580   19.4830  -32.2580 C   0  0  0  0  0  0  0  0  0  0  0  0
   -8.4740   19.0700  -31.4530 C   0  0  0  0  0  0  0  0  0  0  0  0
   -6.5960   18.5110  -33.0510 C   0  0  0  0  0  0  0  0  0  0  0  0
   -7.2050   17.2910  -33.4270 C   0  0  0  0  0  0  0  0  0  0  0  0
   -6.5000   16.3510  -34.1850 C   0  0  0  0  0  0  0  0  0  0  0  0
   -5.1850   16.6060  -34.5760 C   0  0  0  0  0  0  0  0  0  0  0  0
   -4.5710   17.8070  -34.2190 C   0  0  0  0  0  0  0  0  0  0  0  0
   -5.2720   18.7600  -33.4700 C   0  0  0  0  0  0  0  0  0  0  0  0
   -4.6570   19.9130  -33.1200 N   0  0  0  0  0  0  0  0  0  0  0  0
   -5.2920   20.9070  -32.4450 C   0  0  0  0  0  0  0  0  0  0  0  0
    0.3311   19.7291  -35.5749 H   0  0  0  0  0  0  0  0  0  0  0  0
   -0.8847   20.7873  -36.3677 H   0  0  0  0  0  0  0  0  0  0  0  0
    0.8496   21.2553  -36.3677 H   0  0  0  0  0  0  0  0  0  0  0  0
    0.7930   21.5045  -33.9068 H   0  0  0  0  0  0  0  0  0  0  0  0
   -0.4697   22.5466  -34.7320 H   0  0  0  0  0  0  0  0  0  0  0  0
   -2.5365   19.4948  -34.3546 H   0  0  0  0  0  0  0  0  0  0  0  0
   -0.7683   19.1451  -34.5519 H   0  0  0  0  0  0  0  0  0  0  0  0
   -1.5468   19.3628  -31.7294 H   0  0  0  0  0  0  0  0  0  0  0  0
   -2.4648   18.0801  -32.5889 H   0  0  0  0  0  0  0  0  0  0  0  0
   -0.6687   18.0525  -32.5889 H   0  0  0  0  0  0  0  0  0  0  0  0
   -0.7631   20.2009  -31.6792 H   0  0  0  0  0  0  0  0  0  0  0  0
   -0.0489   21.8139  -32.0613 H   0  0  0  0  0  0  0  0  0  0  0  0
   -2.5288   21.2117  -30.6853 H   0  0  0  0  0  0  0  0  0  0  0  0
   -1.7780   22.8176  -31.0302 H   0  0  0  0  0  0  0  0  0  0  0  0
   -2.9240   22.2700  -33.4400 H   0  0  0  0  0  0  0  0  0  0  0  0
   -3.4368   24.2715  -31.0513 H   0  0  0  0  0  0  0  0  0  0  0  0
   -4.6015   26.0293  -29.7326 H   0  0  0  0  0  0  0  0  0  0  0  0
   -7.0343   25.8251  -29.2482 H   0  0  0  0  0  0  0  0  0  0  0  0
   -8.3205   23.8758  -30.0965 H   0  0  0  0  0  0  0  0  0  0  0  0
   -9.2839   22.0702  -30.8040 H   0  0  0  0  0  0  0  0  0  0  0  0
   -8.9834   22.9423  -32.3454 H   0  0  0  0  0  0  0  0  0  0  0  0
   -9.1660   21.1553  -32.3454 H   0  0  0  0  0  0  0  0  0  0  0  0
   -8.2466   19.1472  -30.3795 H   0  0  0  0  0  0  0  0  0  0  0  0
   -9.3178   19.7319  -31.6976 H   0  0  0  0  0  0  0  0  0  0  0  0
   -8.7401   18.0311  -31.6976 H   0  0  0  0  0  0  0  0  0  0  0  0
   -8.2403   17.0802  -33.1210 H   0  0  0  0  0  0  0  0  0  0  0  0
   -6.9840   15.4065  -34.4743 H   0  0  0  0  0  0  0  0  0  0  0  0
   -4.6323   15.8600  -35.1659 H   0  0  0  0  0  0  0  0  0  0  0  0
   -3.5338   18.0056  -34.5267 H   0  0  0  0  0  0  0  0  0  0  0  0
  1  2  1  0
  2  3  1  0
  3  4  1  0
  4  5  1  0
  3  6  1  0
  6  7  1  0
  7  8  1  0
  8  9  1  0
  9 10  2  0
 10 11  1  0
 11 12  2  0
 12 13  1  0
 13 14  2  0
 14 15  1  0
 15 16  2  0
 16 17  1  0
 16 18  1  0
 18 19  2  0
 19 20  1  0
 19 21  1  0
 21 22  2  0
 22 23  1  0
 23 24  2  0
 24 25  1  0
 25 26  2  0
 26 27  1  0
 27 28  2  0
 28  9  1  0
 15 10  1  0
 28 18  1  0
 26 21  1  0
  1 29  1  0
  1 30  1  0
  1 31  1  0
  2 32  1  0
  2 33  1  0
  4 34  1  0
  4 35  1  0
  5 36  1  0
  5 37  1  0
  5 38  1  0
  6 39  1  0
  6 40  1  0
  7 41  1  0
  7 42  1  0
  8 43  1  0
 11 44  1  0
 12 45  1  0
 13 46  1  0
 14 47  1  0
 17 48  1  0
 17 49  1  0
 17 50  1  0
 20 51  1  0
 20 52  1  0
 20 53  1  0
 22 54  1  0
 23 55  1  0
 24 56  1  0
 25 57  1  0
M  CHG  1  16   1
M  END
>  <UniqueID>  (3) 
3

>  <SMILES>  (3) 
CCN(CC)CCNc1c2ccccc2[n+](C)c2c(C)c3ccccc3nc12

>  <Energy>  (3) 
103.03083607416521

>  <Genealogy>  (3) 
CCN(CC)CCNc1c2ccccc2[n+](C)c2c(C)c3ccccc3nc12 (3D coordinates assigned)
CCN(CC)CCNc1c2ccccc2[n+](C)c2c(C)c3ccccc3nc12 (optimized conformer: 103.03083607416521 kcal/mol)

>  <smiles>  (3) 
CCN(CC)CCNc1c2ccccc2[n+](C)c2c(C)c3ccccc3nc12

>  <score_type>  (3) 
oracle

>  <origin>  (3) 
adg

>  <m_score__min__energy>  (3) 
-9.1699999999999999

>  <m_primary>  (3) 
energy

$$$$
3:0
     RDKit          3D

 63 65  0  0  0  0  0  0  0  0999 V2000
   -7.8590   18.0030  -31.9490 C   0  0  0  0  0  0  0  0  0  0  0  0
   -9.0670   18.8890  -31.6710 C   0  0  0  0  0  0  0  0  0  0  0  0
   -8.9520   20.1520  -32.4180 N   0  0  0  0  0  0  0  0  0  0  0  0
   -9.2400   21.3350  -31.5860 C   0  0  0  0  0  0  0  0  0  0  0  0
   -8.0700   22.3380  -31.5860 C   0  0  0  0  0  0  0  0  0  0  0  0
   -7.1730   22.1700  -32.7510 N   0  0  0  0  0  0  0  0  0  0  0  0
   -5.8140   21.8160  -32.3560 C   0  0  0  0  0  0  0  0  0  0  0  0
   -5.2230   20.6090  -32.8320 C   0  0  0  0  0  0  0  0  0  0  0  0
   -5.9110   19.7420  -33.7200 C   0  0  0  0  0  0  0  0  0  0  0  0
   -5.3050   18.5960  -34.2260 C   0  0  0  0  0  0  0  0  0  0  0  0
   -4.0000   18.2880  -33.8750 C   0  0  0  0  0  0  0  0  0  0  0  0
   -3.3040   19.1040  -32.9880 C   0  0  0  0  0  0  0  0  0  0  0  0
   -3.9090   20.2560  -32.4180 C   0  0  0  0  0  0  0  0  0  0  0  0
   -3.2400   21.0280  -31.4910 N   0  0  0  0  0  0  0  0  0  0  0  0
   -2.0330   20.4940  -30.8200 C   0  0  0  0  0  0  0  0  0  0  0  0
   -3.7110   22.2820  -31.1660 C   0  0  0  0  0  0  0  0  0  0  0  0
   -2.8970   23.2060  -30.4630 C   0  0  0  0  0  0  0  0  0  0  0  0
   -3.3970   24.4270  -30.0210 C   0  0  0  0  0  0  0  0  0  0  0  0
   -2.5750   25.2840  -29.2900 O   0  0  0  0  0  0  0  0  0  0  0  0
   -1.6590   24.7900  -28.3220 C   0  0  0  0  0  0  0  0  0  0  0  0
   -2.0730   25.2090  -26.8940 C   0  0  0  0  0  0  0  0  0  0  0  0
   -1.0300   25.9160  -26.0810 N   0  0  0  0  0  0  0  0  0  0  0  0
   -1.6830   26.4250  -24.8480 C   0  0  0  0  0  0  0  0  0  0  0  0
   -0.4730   27.0810  -26.8160 C   0  0  0  0  0  0  0  0  0  0  0  0
    0.0720   25.0020  -25.6860 C   0  0  0  0  0  0  0  0  0  0  0  0
   -4.7060   24.7820  -30.3170 C   0  0  0  0  0  0  0  0  0  0  0  0
   -5.5050   23.9380  -31.0830 C   0  0  0  0  0  0  0  0  0  0  0  0
   -5.0270   22.6800  -31.5390 C   0  0  0  0  0  0  0  0  0  0  0  0
   -7.4157   17.6779  -30.9962 H   0  0  0  0  0  0  0  0  0  0  0  0
   -8.1758   17.1215  -32.5257 H   0  0  0  0  0  0  0  0  0  0  0  0
   -7.1134   18.5700  -32.5257 H   0  0  0  0  0  0  0  0  0  0  0  0
   -9.9822   18.3643  -31.9826 H   0  0  0  0  0  0  0  0  0  0  0  0
   -9.1101   19.1107  -30.5944 H   0  0  0  0  0  0  0  0  0  0  0  0
   -9.6060   20.1250  -33.2370 H   0  0  0  0  0  0  0  0  0  0  0  0
  -10.1373   21.8357  -31.9787 H   0  0  0  0  0  0  0  0  0  0  0  0
   -9.3958   20.9939  -30.5519 H   0  0  0  0  0  0  0  0  0  0  0  0
   -8.4811   23.3581  -31.6028 H   0  0  0  0  0  0  0  0  0  0  0  0
   -7.4748   22.1538  -30.6794 H   0  0  0  0  0  0  0  0  0  0  0  0
   -7.5890   21.5090  -33.4400 H   0  0  0  0  0  0  0  0  0  0  0  0
   -7.1500   23.0610  -33.2960 H   0  0  0  0  0  0  0  0  0  0  0  0
   -6.9437   19.9805  -34.0142 H   0  0  0  0  0  0  0  0  0  0  0  0
   -5.8622   17.9340  -34.9052 H   0  0  0  0  0  0  0  0  0  0  0  0
   -3.5134   17.3969  -34.2983 H   0  0  0  0  0  0  0  0  0  0  0  0
   -2.2664   18.8523  -32.7235 H   0  0  0  0  0  0  0  0  0  0  0  0
   -2.1639   20.5519  -29.7294 H   0  0  0  0  0  0  0  0  0  0  0  0
   -1.8826   19.4453  -31.1161 H   0  0  0  0  0  0  0  0  0  0  0  0
   -1.1558   21.0880  -31.1161 H   0  0  0  0  0  0  0  0  0  0  0  0
   -1.8458   22.9517  -30.2624 H   0  0  0  0  0  0  0  0  0  0  0  0
   -1.6334   23.6918  -28.3802 H   0  0  0  0  0  0  0  0  0  0  0  0
   -0.6664   25.2136  -28.5346 H   0  0  0  0  0  0  0  0  0  0  0  0
   -2.9419   25.8781  -26.9796 H   0  0  0  0  0  0  0  0  0  0  0  0
   -2.2749   24.2692  -26.3592 H   0  0  0  0  0  0  0  0  0  0  0  0
   -1.1651   26.0213  -23.9655 H   0  0  0  0  0  0  0  0  0  0  0  0
   -1.6316   27.5237  -24.8327 H   0  0  0  0  0  0  0  0  0  0  0  0
   -2.7359   26.1070  -24.8327 H   0  0  0  0  0  0  0  0  0  0  0  0
   -0.1143   27.8313  -26.0961 H   0  0  0  0  0  0  0  0  0  0  0  0
    0.3641   26.7497  -27.4480 H   0  0  0  0  0  0  0  0  0  0  0  0
   -1.2565   27.5245  -27.4480 H   0  0  0  0  0  0  0  0  0  0  0  0
    0.1318   24.9524  -24.5887 H   0  0  0  0  0  0  0  0  0  0  0  0
   -0.1232   23.9970  -26.0884 H   0  0  0  0  0  0  0  0  0  0  0  0
    1.0236   25.3796  -26.0884 H   0  0  0  0  0  0  0  0  0  0  0  0
   -5.1133   25.7337  -29.9449 H   0  0  0  0  0  0  0  0  0  0  0  0
   -6.5275   24.2513  -31.3406 H   0  0  0  0  0  0  0  0  0  0  0  0
  1  2  1  0
  2  3  1  0
  3  4  1  0
  4  5  1  0
  5  6  1  0
  6  7  1  0
  7  8  2  0
  8  9  1  0
  9 10  2  0
 10 11  1  0
 11 12  2  0
 12 13  1  0
 13 14  2  0
 14 15  1  0
 14 16  1  0
 16 17  2  0
 17 18  1  0
 18 19  1  0
 19 20  1  0
 20 21  1  0
 21 22  1  0
 22 23  1  0
 22 24  1  0
 22 25  1  0
 18 26  2  0
 26 27  1  0
 27 28  2  0
 28  7  1  0
 13  8  1  0
 28 16  1  0
  1 29  1  0
  1 30  1  0
  1 31  1  0
  2 32  1  0
  2 33  1  0
  3 34  1  0
  4 35  1  0
  4 36  1  0
  5 37  1  0
  5 38  1  0
  6 39  1  0
  6 40  1  0
  9 41  1  0
 10 42  1  0
 11 43  1  0
 12 44  1  0
 15 45  1  0
 15 46  1  0
 15 47  1  0
 17 48  1  0
 20 49  1  0
 20 50  1  0
 21 51  1  0
 21 52  1  0
 23 53  1  0
 23 54  1  0
 23 55  1  0
 24 56  1  0
 24 57  1  0
 24 58  1  0
 25 59  1  0
 25 60  1  0
 25 61  1  0
 26 62  1  0
 27 63  1  0
M  CHG  3   6   1  14   1  22   1
M  END
>  <UniqueID>  (4) 
4

>  <SMILES>  (4) 
CCNCC[NH2+]c1c2ccccc2[n+](C)c2cc(OCC[N+](C)(C)C)ccc12

>  <Energy>  (4) 
103.09383667639226

>  <Genealogy>  (4) 
CCNCC[NH2+]c1c2ccccc2[n+](C)c2cc(OCC[N+](C)(C)C)ccc12 (protonated)
CCNCC[NH2+]c1c2ccccc2[n+](C)c2cc(OCC[N+](C)(C)C)ccc12 (3D coordinates assigned)
CCNCC[NH2+]c1c2ccccc2[n+](C)c2cc(OCC[N+](C)(C)C)ccc12 (optimized conformer: 103.09383667639226 kcal/mol)

>  <smiles>  (4) 
CCNCCNc1c2ccccc2[n+](C)c2cc(OCC[N+](C)(C)C)ccc12

>  <score_type>  (4) 
oracle

>  <origin>  (4) 
adg

>  <m_score__min__energy>  (4) 
-7.5099999999999998

>  <m_primary>  (4) 
energy

$$$$
4:0
     RDKit          3D

 49 51  0  0  0  0  0  0  0  0999 V2000
   -3.9810   22.5100  -27.8570 C   0  0  0  0  0  0  0  0  0  0  0  0
   -4.6280   23.7040  -28.5800 C   0  0  0  0  0  0  0  0  0  0  0  0
   -3.6820   24.5210  -29.3790 N   0  0  0  0  0  0  0  0  0  0  0  0
   -2.3710   23.8910  -29.6480 C   0  0  0  0  0  0  0  0  0  0  0  0
   -1.2470   24.5600  -28.8570 C   0  0  0  0  0  0  0  0  0  0  0  0
   -4.2950   25.2960  -30.4870 C   0  0  0  0  0  0  0  0  0  0  0  0
   -5.7650   24.9680  -30.7780 C   0  0  0  0  0  0  0  0  0  0  0  0
   -5.8730   24.0610  -31.8720 O   0  0  0  0  0  0  0  0  0  0  0  0
   -6.6070   22.8620  -31.8740 C   0  0  0  0  0  0  0  0  0  0  0  0
   -7.9920   22.9820  -31.7220 C   0  0  0  0  0  0  0  0  0  0  0  0
   -8.8220   21.8670  -31.7640 C   0  0  0  0  0  0  0  0  0  0  0  0
   -8.2810   20.5910  -31.9380 C   0  0  0  0  0  0  0  0  0  0  0  0
   -9.1290   19.4720  -31.9770 C   0  0  0  0  0  0  0  0  0  0  0  0
   -8.5970   18.1920  -32.1220 C   0  0  0  0  0  0  0  0  0  0  0  0
   -7.2190   18.0140  -32.2240 C   0  0  0  0  0  0  0  0  0  0  0  0
   -6.3610   19.1160  -32.1890 C   0  0  0  0  0  0  0  0  0  0  0  0
   -6.8760   20.4260  -32.0550 C   0  0  0  0  0  0  0  0  0  0  0  0
   -6.0290   21.5690  -32.0180 C   0  0  0  0  0  0  0  0  0  0  0  0
   -4.5610   21.4010  -32.0320 C   0  0  0  0  0  0  0  0  0  0  0  0
   -3.8840   20.9840  -30.8740 C   0  0  0  0  0  0  0  0  0  0  0  0
   -2.4940   20.8370  -30.8890 C   0  0  0  0  0  0  0  0  0  0  0  0
   -1.7740   21.1100  -32.0550 C   0  0  0  0  0  0  0  0  0  0  0  0
   -2.4420   21.5360  -33.2080 C   0  0  0  0  0  0  0  0  0  0  0  0
   -3.8320   21.6840  -33.1970 C   0  0  0  0  0  0  0  0  0  0  0  0
   -4.0590   22.6539  -26.7693 H   0  0  0  0  0  0  0  0  0  0  0  0
   -4.5004   21.5833  -28.1424 H   0  0  0  0  0  0  0  0  0  0  0  0
   -2.9210   22.4391  -28.1424 H   0  0  0  0  0  0  0  0  0  0  0  0
   -5.4048   23.3173  -29.2560 H   0  0  0  0  0  0  0  0  0  0  0  0
   -5.0309   24.3644  -27.7980 H   0  0  0  0  0  0  0  0  0  0  0  0
   -2.4217   22.8290  -29.3659 H   0  0  0  0  0  0  0  0  0  0  0  0
   -2.1501   24.0052  -30.7195 H   0  0  0  0  0  0  0  0  0  0  0  0
   -1.4385   24.4460  -27.7798 H   0  0  0  0  0  0  0  0  0  0  0  0
   -0.2874   24.0859  -29.1110 H   0  0  0  0  0  0  0  0  0  0  0  0
   -1.2062   25.6295  -29.1110 H   0  0  0  0  0  0  0  0  0  0  0  0
   -4.2285   26.3641  -30.2327 H   0  0  0  0  0  0  0  0  0  0  0  0
   -3.7362   25.0250  -31.3949 H   0  0  0  0  0  0  0  0  0  0  0  0
   -6.2165   24.5115  -29.8848 H   0  0  0  0  0  0  0  0  0  0  0  0
   -6.2897   25.8991  -31.0382 H   0  0  0  0  0  0  0  0  0  0  0  0
   -8.4333   23.9775  -31.5662 H   0  0  0  0  0  0  0  0  0  0  0  0
   -9.9101   21.9905  -31.6597 H   0  0  0  0  0  0  0  0  0  0  0  0
  -10.2175   19.6064  -31.8928 H   0  0  0  0  0  0  0  0  0  0  0  0
   -9.2668   17.3201  -32.1560 H   0  0  0  0  0  0  0  0  0  0  0  0
   -6.8045   17.0009  -32.3326 H   0  0  0  0  0  0  0  0  0  0  0  0
   -5.2744   18.9631  -32.2664 H   0  0  0  0  0  0  0  0  0  0  0  0
   -4.4486   20.7728  -29.9539 H   0  0  0  0  0  0  0  0  0  0  0  0
   -1.9665   20.5061  -29.9822 H   0  0  0  0  0  0  0  0  0  0  0  0
   -0.6806   20.9898  -32.0663 H   0  0  0  0  0  0  0  0  0  0  0  0
   -1.8731   21.7546  -34.1238 H   0  0  0  0  0  0  0  0  0  0  0  0
   -4.3552   22.0229  -34.1033 H   0  0  0  0  0  0  0  0  0  0  0  0
  1  2  1  0
  2  3  1  0
  3  4  1  0
  4  5  1  0
  3  6  1  0
  6  7  1  0
  7  8  1  0
  8  9  1  0
  9 10  2  0
 10 11  1  0
 11 12  2  0
 12 13  1  0
 13 14  2  0
 14 15  1  0
 15 16  2  0
 16 17  1  0
 17 18  2  0
 18 19  1  0
 19 20  2  0
 20 21  1  0
 21 22  2  0
 22 23  1  0
 23 24  2  0
 18  9  1  0
 24 19  1  0
 17 12  1  0
  1 25  1  0
  1 26  1  0
  1 27  1  0
  2 28  1  0
  2 29  1  0
  4 30  1  0
  4 31  1  0
  5 32  1  0
  5 33  1  0
  5 34  1  0
  6 35  1  0
  6 36  1  0
  7 37  1  0
  7 38  1  0
 10 39  1  0
 11 40  1  0
 13 41  1  0
 14 42  1  0
 15 43  1  0
 16 44  1  0
 20 45  1  0
 21 46  1  0
 22 47  1  0
 23 48  1  0
 24 49  1  0
M  END
>  <UniqueID>  (5) 
5

>  <SMILES>  (5) 
CCN(CC)CCOc1ccc2ccccc2c1-c1ccccc1

>  <Energy>  (5) 
73.58360909207504

>  <Genealogy>  (5) 
CCN(CC)CCOc1ccc2ccccc2c1-c1ccccc1 (3D coordinates assigned)
CCN(CC)CCOc1ccc2ccccc2c1-c1ccccc1 (optimized conformer: 73.58360909207504 kcal/mol)

>  <smiles>  (5) 
CCN(CC)CCOc1ccc2ccccc2c1-c1ccccc1

>  <score_type>  (5) 
oracle

>  <origin>  (5) 
adg

>  <m_score__min__energy>  (5) 
-8.4700000000000006

>  <m_primary>  (5) 
energy

$$$$
5:0
     RDKit          3D

 54 56  0  0  0  0  0  0  0  0999 V2000
   -2.6720   20.6030  -28.2320 C   0  0  0  0  0  0  0  0  0  0  0  0
   -3.1000   21.1590  -29.5960 C   0  0  0  0  0  0  0  0  0  0  0  0
   -2.7920   22.6090  -29.7350 N   0  0  0  0  0  0  0  0  0  0  0  0
   -1.3190   22.8210  -29.7820 C   0  0  0  0  0  0  0  0  0  0  0  0
   -0.8800   24.0330  -28.9520 C   0  0  0  0  0  0  0  0  0  0  0  0
   -3.3870   23.3750  -28.6040 C   0  0  0  0  0  0  0  0  0  0  0  0
   -4.3040   24.5110  -29.0910 C   0  0  0  0  0  0  0  0  0  0  0  0
   -4.2240   24.6240  -30.4990 O   0  0  0  0  0  0  0  0  0  0  0  0
   -5.4930   24.9180  -31.0480 C   0  0  0  0  0  0  0  0  0  0  0  0
   -6.2770   23.6200  -31.2300 C   0  0  0  0  0  0  0  0  0  0  0  0
   -5.9740   23.0040  -32.5210 N   0  0  0  0  0  0  0  0  0  0  0  0
   -5.8360   21.5820  -32.6280 C   0  0  0  0  0  0  0  0  0  0  0  0
   -6.9370   20.7170  -32.4570 C   0  0  0  0  0  0  0  0  0  0  0  0
   -8.2090   21.2260  -32.1290 C   0  0  0  0  0  0  0  0  0  0  0  0
   -9.2970   20.3700  -31.9650 C   0  0  0  0  0  0  0  0  0  0  0  0
   -9.1350   18.9970  -32.1180 C   0  0  0  0  0  0  0  0  0  0  0  0
   -7.8840   18.4630  -32.4280 C   0  0  0  0  0  0  0  0  0  0  0  0
   -6.7560   19.3020  -32.5990 C   0  0  0  0  0  0  0  0  0  0  0  0
   -5.5050   18.7840  -32.8900 N   0  0  0  0  0  0  0  0  0  0  0  0
   -5.2970   17.3320  -33.0440 C   0  0  0  0  0  0  0  0  0  0  0  0
   -4.4550   19.6530  -33.0270 C   0  0  0  0  0  0  0  0  0  0  0  0
   -2.8410   19.2980  -33.3720 S   0  0  0  0  0  0  0  0  0  0  0  0
   -2.3060   20.8970  -33.3630 C   0  0  0  0  0  0  0  0  0  0  0  0
   -3.3890   21.7280  -33.0910 C   0  0  0  0  0  0  0  0  0  0  0  0
   -4.5880   21.0240  -32.9010 C   0  0  0  0  0  0  0  0  0  0  0  0
   -3.1322   21.2009  -27.4315 H   0  0  0  0  0  0  0  0  0  0  0  0
   -3.0001   19.5568  -28.1431 H   0  0  0  0  0  0  0  0  0  0  0  0
   -1.5767   20.6526  -28.1431 H   0  0  0  0  0  0  0  0  0  0  0  0
   -2.5693   20.6070  -30.3857 H   0  0  0  0  0  0  0  0  0  0  0  0
   -4.1895   21.0357  -29.6837 H   0  0  0  0  0  0  0  0  0  0  0  0
   -3.2090   22.9550  -30.6320 H   0  0  0  0  0  0  0  0  0  0  0  0
   -0.8195   21.9232  -29.3890 H   0  0  0  0  0  0  0  0  0  0  0  0
   -1.0390   23.0101  -30.8288 H   0  0  0  0  0  0  0  0  0  0  0  0
   -0.9662   23.7950  -27.8815 H   0  0  0  0  0  0  0  0  0  0  0  0
    0.1651   24.2809  -29.1895 H   0  0  0  0  0  0  0  0  0  0  0  0
   -1.5239   24.8927  -29.1895 H   0  0  0  0  0  0  0  0  0  0  0  0
   -3.9763   22.6863  -27.9808 H   0  0  0  0  0  0  0  0  0  0  0  0
   -2.5636   23.8271  -28.0317 H   0  0  0  0  0  0  0  0  0  0  0  0
   -5.3421   24.2915  -28.8011 H   0  0  0  0  0  0  0  0  0  0  0  0
   -3.9824   25.4579  -28.6327 H   0  0  0  0  0  0  0  0  0  0  0  0
   -6.0416   25.5864  -30.3681 H   0  0  0  0  0  0  0  0  0  0  0  0
   -5.3674   25.4125  -32.0225 H   0  0  0  0  0  0  0  0  0  0  0  0
   -6.0073   22.9205  -30.4250 H   0  0  0  0  0  0  0  0  0  0  0  0
   -7.3519   23.8508  -31.1944 H   0  0  0  0  0  0  0  0  0  0  0  0
   -6.1010   23.5530  -33.4020 H   0  0  0  0  0  0  0  0  0  0  0  0
   -8.3451   22.3100  -32.0010 H   0  0  0  0  0  0  0  0  0  0  0  0
  -10.2859   20.7813  -31.7140 H   0  0  0  0  0  0  0  0  0  0  0  0
   -9.9991   18.3278  -31.9937 H   0  0  0  0  0  0  0  0  0  0  0  0
   -7.7722   17.3746  -32.5412 H   0  0  0  0  0  0  0  0  0  0  0  0
   -5.2299   16.8638  -32.0509 H   0  0  0  0  0  0  0  0  0  0  0  0
   -6.1420   16.8973  -33.5980 H   0  0  0  0  0  0  0  0  0  0  0  0
   -4.3639   17.1520  -33.5980 H   0  0  0  0  0  0  0  0  0  0  0  0
   -1.2726   21.2284  -33.5423 H   0  0  0  0  0  0  0  0  0  0  0  0
   -3.3129   22.8237  -33.0311 H   0  0  0  0  0  0  0  0  0  0  0  0
  1  2  1  0
  2  3  1  0
  3  4  1  0
  4  5  1  0
  3  6  1  0
  6  7  1  0
  7  8  1  0
  8  9  1  0
  9 10  1  0
 10 11  1  0
 11 12  1  0
 12 13  2  0
 13 14  1  0
 14 15  2  0
 15 16  1  0
 16 17  2  0
 17 18  1  0
 18 19  2  0
 19 20  1  0
 19 21  1  0
 21 22  1  0
 22 23  1  0
 23 24  2  0
 24 25  1  0
 25 12  1  0
 18 13  1  0
 25 21  2  0
  1 26  1  0
  1 27  1  0
  1 28  1  0
  2 29  1  0
  2 30  1  0
  3 31  1  0
  4 32  1  0
  4 33  1  0
  5 34  1  0
  5 35  1  0
  5 36  1  0
  6 37  1  0
  6 38  1  0
  7 39  1  0
  7 40  1  0
  9 41  1  0
  9 42  1  0
 10 43  1  0
 10 44  1  0
 11 45  1  0
 14 46  1  0
 15 47  1  0
 16 48  1  0
 17 49  1  0
 20 50  1  0
 20 51  1  0
 20 52  1  0
 23 53  1  0
 24 54  1  0
M  CHG  2   3   1  19   1
M  END
>  <UniqueID>  (6) 
6

>  <SMILES>  (6) 
CC[NH+](CC)CCOCCNc1c2ccccc2[n+](C)c2sccc12

>  <Energy>  (6) 
102.10061329560061

>  <Genealogy>  (6) 
CC[NH+](CC)CCOCCNc1c2ccccc2[n+](C)c2sccc12 (protonated)
CC[NH+](CC)CCOCCNc1c2ccccc2[n+](C)c2sccc12 (3D coordinates assigned)
CC[NH+](CC)CCOCCNc1c2ccccc2[n+](C)c2sccc12 (optimized conformer: 102.10061329560061 kcal/mol)

>  <smiles>  (6) 
CCN(CC)CCOCCNc1c2ccccc2[n+](C)c2sccc12

>  <score_type>  (6) 
oracle

>  <origin>  (6) 
adg

>  <m_score__min__energy>  (6) 
-7.3799999999999999

>  <m_primary>  (6) 
energy

$$$$
6:0
     RDKit          3D

 63 66  0  0  0  0  0  0  0  0999 V2000
   -0.8680   25.7130  -28.2010 C   0  0  0  0  0  0  0  0  0  0  0  0
   -0.0560   24.4920  -28.3040 N   0  0  0  0  0  0  0  0  0  0  0  0
    1.3190   24.7250  -27.8320 C   0  0  0  0  0  0  0  0  0  0  0  0
   -0.6920   23.3170  -27.6680 C   0  0  0  0  0  0  0  0  0  0  0  0
   -1.6170   22.5100  -28.6000 C   0  0  0  0  0  0  0  0  0  0  0  0
   -2.0280   23.3350  -29.7350 N   0  0  0  0  0  0  0  0  0  0  0  0
   -3.1410   22.9550  -30.5640 C   0  0  0  0  0  0  0  0  0  0  0  0
   -2.9810   21.9770  -31.5560 C   0  0  0  0  0  0  0  0  0  0  0  0
   -4.0880   21.5720  -32.3260 C   0  0  0  0  0  0  0  0  0  0  0  0
   -5.3500   22.0760  -32.0670 N   0  0  0  0  0  0  0  0  0  0  0  0
   -6.5360   21.4730  -32.7160 C   0  0  0  0  0  0  0  0  0  0  0  0
   -7.4180   20.7480  -31.6850 C   0  0  0  0  0  0  0  0  0  0  0  0
   -8.0320   19.4590  -32.2450 C   0  0  0  0  0  0  0  0  0  0  0  0
   -6.9740   18.4490  -32.6130 C   0  0  0  0  0  0  0  0  0  0  0  0
   -6.5120   17.5210  -31.6630 C   0  0  0  0  0  0  0  0  0  0  0  0
   -5.5530   16.5680  -32.0190 C   0  0  0  0  0  0  0  0  0  0  0  0
   -5.0530   16.5300  -33.3220 C   0  0  0  0  0  0  0  0  0  0  0  0
   -5.5100   17.4470  -34.2750 C   0  0  0  0  0  0  0  0  0  0  0  0
   -6.4680   18.4020  -33.9230 C   0  0  0  0  0  0  0  0  0  0  0  0
   -5.5000   23.1320  -31.1820 C   0  0  0  0  0  0  0  0  0  0  0  0
   -6.7350   23.8200  -31.0300 C   0  0  0  0  0  0  0  0  0  0  0  0
   -6.8650   24.8820  -30.1380 C   0  0  0  0  0  0  0  0  0  0  0  0
   -5.7770   25.3040  -29.3850 C   0  0  0  0  0  0  0  0  0  0  0  0
   -4.5460   24.6670  -29.5230 C   0  0  0  0  0  0  0  0  0  0  0  0
   -4.3910   23.5800  -30.4100 C   0  0  0  0  0  0  0  0  0  0  0  0
   -3.7790   20.6180  -33.4740 C   0  0  0  0  0  0  0  0  0  0  0  0
   -2.9440   19.4250  -32.9840 C   0  0  0  0  0  0  0  0  0  0  0  0
   -1.7940   19.8200  -32.0270 C   0  0  0  0  0  0  0  0  0  0  0  0
   -1.6360   21.3360  -31.8460 C   0  0  0  0  0  0  0  0  0  0  0  0
   -1.0303   25.9571  -27.1408 H   0  0  0  0  0  0  0  0  0  0  0  0
   -0.3428   26.5452  -28.6926 H   0  0  0  0  0  0  0  0  0  0  0  0
   -1.8385   25.5505  -28.6926 H   0  0  0  0  0  0  0  0  0  0  0  0
    1.3336   24.7275  -26.7321 H   0  0  0  0  0  0  0  0  0  0  0  0
    1.9754   23.9253  -28.2056 H   0  0  0  0  0  0  0  0  0  0  0  0
    1.6753   25.6963  -28.2056 H   0  0  0  0  0  0  0  0  0  0  0  0
    0.1037   22.6475  -27.3094 H   0  0  0  0  0  0  0  0  0  0  0  0
   -1.3255   23.7044  -26.8564 H   0  0  0  0  0  0  0  0  0  0  0  0
   -1.0789   21.6246  -28.9694 H   0  0  0  0  0  0  0  0  0  0  0  0
   -2.5102   22.1974  -28.0392 H   0  0  0  0  0  0  0  0  0  0  0  0
   -1.3530   24.0480  -30.0950 H   0  0  0  0  0  0  0  0  0  0  0  0
   -7.1249   22.2669  -33.1986 H   0  0  0  0  0  0  0  0  0  0  0  0
   -6.1936   20.7406  -33.4619 H   0  0  0  0  0  0  0  0  0  0  0  0
   -6.8024   20.4947  -30.8093 H   0  0  0  0  0  0  0  0  0  0  0  0
   -8.2434   21.4233  -31.4155 H   0  0  0  0  0  0  0  0  0  0  0  0
   -8.6941   19.0201  -31.4841 H   0  0  0  0  0  0  0  0  0  0  0  0
   -8.5924   19.7148  -33.1563 H   0  0  0  0  0  0  0  0  0  0  0  0
   -6.9064   17.5449  -30.6364 H   0  0  0  0  0  0  0  0  0  0  0  0
   -5.1917   15.8468  -31.2711 H   0  0  0  0  0  0  0  0  0  0  0  0
   -4.2992   15.7786  -33.5997 H   0  0  0  0  0  0  0  0  0  0  0  0
   -5.1153   17.4163  -35.3013 H   0  0  0  0  0  0  0  0  0  0  0  0
   -6.8274   19.1200  -34.6749 H   0  0  0  0  0  0  0  0  0  0  0  0
   -7.6039   23.5078  -31.6279 H   0  0  0  0  0  0  0  0  0  0  0  0
   -7.8350   25.3893  -30.0294 H   0  0  0  0  0  0  0  0  0  0  0  0
   -5.8874   26.1410  -28.6799 H   0  0  0  0  0  0  0  0  0  0  0  0
   -3.6847   25.0151  -28.9339 H   0  0  0  0  0  0  0  0  0  0  0  0
   -4.7236   20.2468  -33.8983 H   0  0  0  0  0  0  0  0  0  0  0  0
   -3.2028   21.1610  -34.2376 H   0  0  0  0  0  0  0  0  0  0  0  0
   -3.6112   18.7281  -32.4556 H   0  0  0  0  0  0  0  0  0  0  0  0
   -2.4805   18.9713  -33.8725 H   0  0  0  0  0  0  0  0  0  0  0  0
   -1.9919   19.3713  -31.0423 H   0  0  0  0  0  0  0  0  0  0  0  0
   -0.8603   19.4506  -32.4762 H   0  0  0  0  0  0  0  0  0  0  0  0
   -0.9527   21.5316  -31.0065 H   0  0  0  0  0  0  0  0  0  0  0  0
   -1.2283   21.7656  -32.7730 H   0  0  0  0  0  0  0  0  0  0  0  0
  1  2  1  0
  2  3  1  0
  2  4  1  0
  4  5  1  0
  5  6  1  0
  6  7  1  0
  7  8  2  0
  8  9  1  0
  9 10  2  0
 10 11  1  0
 11 12  1  0
 12 13  1  0
 13 14  1  0
 14 15  2  0
 15 16  1  0
 16 17  2  0
 17 18  1  0
 18 19  2  0
 10 20  1  0
 20 21  2  0
 21 22  1  0
 22 23  2  0
 23 24  1  0
 24 25  2  0
  9 26  1  0
 26 27  1  0
 27 28  1  0
 28 29  1  0
 25  7  1  0
 29  8  1  0
 19 14  1  0
 25 20  1  0
  1 30  1  0
  1 31  1  0
  1 32  1  0
  3 33  1  0
  3 34  1  0
  3 35  1  0
  4 36  1  0
  4 37  1  0
  5 38  1  0
  5 39  1  0
  6 40  1  0
 11 41  1  0
 11 42  1  0
 12 43  1  0
 12 44  1  0
 13 45  1  0
 13 46  1  0
 15 47  1  0
 16 48  1  0
 17 49  1  0
 18 50  1  0
 19 51  1  0
 21 52  1  0
 22 53  1  0
 23 54  1  0
 24 55  1  0
 26 56  1  0
 26 57  1  0
 27 58  1  0
 27 59  1  0
 28 60  1  0
 28 61  1  0
 29 62  1  0
 29 63  1  0
M  CHG  1  10   1
M  END
>  <UniqueID>  (7) 
7

>  <SMILES>  (7) 
CN(C)CCNc1c2c([n+](CCCc3ccccc3)c3ccccc13)CCCC2

>  <Energy>  (7) 
87.91811564982642

>  <Genealogy>  (7) 
CN(C)CCNc1c2c([n+](CCCc3ccccc3)c3ccccc13)CCCC2 (3D coordinates assigned)
CN(C)CCNc1c2c([n+](CCCc3ccccc3)c3ccccc13)CCCC2 (nonaromatic ring conformer: 87.91811564982642 kcal/mol)

>  <smiles>  (7) 
CN(C)CCNc1c2c([n+](CCCc3ccccc3)c3ccccc13)CCCC2

>  <score_type>  (7) 
oracle

>  <origin>  (7) 
adg

>  <m_score__min__energy>  (7) 
-9.0399999999999991

>  <m_primary>  (7) 
energy

$$$$
7:0
     RDKit          3D

 58 60  0  0  0  0  0  0  0  0999 V2000
   -6.0060   20.4140  -33.0950 C   0  0  0  0  0  0  0  0  0  0  0  0
   -6.5170   21.2860  -31.9410 C   0  0  0  0  0  0  0  0  0  0  0  0
   -7.0860   22.5830  -32.4200 N   0  0  0  0  0  0  0  0  0  0  0  0
   -8.4800   22.8040  -31.9560 C   0  0  0  0  0  0  0  0  0  0  0  0
   -9.1120   21.5410  -31.3640 C   0  0  0  0  0  0  0  0  0  0  0  0
   -6.2010   23.7430  -32.1100 C   0  0  0  0  0  0  0  0  0  0  0  0
   -6.1950   24.2330  -30.6390 C   0  0  0  0  0  0  0  0  0  0  0  0
   -5.1080   25.2570  -30.3170 C   0  0  0  0  0  0  0  0  0  0  0  0
   -3.8480   24.7030  -30.6450 O   0  0  0  0  0  0  0  0  0  0  0  0
   -3.4670   23.7190  -29.6960 C   0  0  2  0  0  0  0  0  0  0  0  0
   -2.3600   24.2220  -28.7770 C   0  0  0  0  0  0  0  0  0  0  0  0
   -2.6800   24.6700  -27.4840 C   0  0  0  0  0  0  0  0  0  0  0  0
   -1.6740   25.1140  -26.6250 C   0  0  0  0  0  0  0  0  0  0  0  0
   -0.3490   25.1010  -27.0600 C   0  0  0  0  0  0  0  0  0  0  0  0
   -0.0460   24.6530  -28.3060 N   0  0  0  0  0  0  0  0  0  0  0  0
   -1.0060   24.2150  -29.1640 C   0  0  0  0  0  0  0  0  0  0  0  0
   -3.0090   22.4690  -30.4410 C   0  0  0  0  0  0  0  0  0  0  0  0
   -3.1730   22.4590  -31.8420 C   0  0  0  0  0  0  0  0  0  0  0  0
   -2.4910   21.5470  -32.6400 C   0  0  0  0  0  0  0  0  0  0  0  0
   -1.6210   20.6320  -32.0640 C   0  0  0  0  0  0  0  0  0  0  0  0
   -1.5090   20.5440  -30.6710 C   0  0  0  0  0  0  0  0  0  0  0  0
   -0.6280   19.6030  -30.1180 C   0  0  0  0  0  0  0  0  0  0  0  0
   -0.5410   19.4470  -28.7410 C   0  0  0  0  0  0  0  0  0  0  0  0
   -1.3930   20.1600  -27.9060 C   0  0  0  0  0  0  0  0  0  0  0  0
   -2.3180   21.0800  -28.4280 C   0  0  0  0  0  0  0  0  0  0  0  0
   -3.4070   21.5340  -27.4890 C   0  0  0  0  0  0  0  0  0  0  0  0
   -2.2900   21.3900  -29.8260 C   0  0  0  0  0  0  0  0  0  0  0  0
   -5.4894   19.5325  -32.6875 H   0  0  0  0  0  0  0  0  0  0  0  0
   -6.8560   20.0880  -33.7125 H   0  0  0  0  0  0  0  0  0  0  0  0
   -5.3062   20.9962  -33.7125 H   0  0  0  0  0  0  0  0  0  0  0  0
   -7.3000   20.7342  -31.4003 H   0  0  0  0  0  0  0  0  0  0  0  0
   -5.6624   21.5140  -31.2870 H   0  0  0  0  0  0  0  0  0  0  0  0
   -7.1230   22.5620  -33.4690 H   0  0  0  0  0  0  0  0  0  0  0  0
   -8.4744   23.5892  -31.1856 H   0  0  0  0  0  0  0  0  0  0  0  0
   -9.0792   23.0972  -32.8306 H   0  0  0  0  0  0  0  0  0  0  0  0
   -9.0839   21.5971  -30.2658 H   0  0  0  0  0  0  0  0  0  0  0  0
  -10.1562   21.4612  -31.7005 H   0  0  0  0  0  0  0  0  0  0  0  0
   -8.5498   20.6574  -31.7005 H   0  0  0  0  0  0  0  0  0  0  0  0
   -5.1714   23.4575  -32.3717 H   0  0  0  0  0  0  0  0  0  0  0  0
   -6.6043   24.5824  -32.6955 H   0  0  0  0  0  0  0  0  0  0  0  0
   -7.1722   24.6905  -30.4252 H   0  0  0  0  0  0  0  0  0  0  0  0
   -5.9879   23.3504  -30.0160 H   0  0  0  0  0  0  0  0  0  0  0  0
   -5.2747   26.1708  -30.9062 H   0  0  0  0  0  0  0  0  0  0  0  0
   -5.1379   25.5098  -29.2469 H   0  0  0  0  0  0  0  0  0  0  0  0
   -4.3348   23.4855  -29.0617 H   0  0  0  0  0  0  0  0  0  0  0  0
   -3.7274   24.6707  -27.1479 H   0  0  0  0  0  0  0  0  0  0  0  0
   -1.9235   25.4707  -25.6148 H   0  0  0  0  0  0  0  0  0  0  0  0
    0.4516   25.4539  -26.3933 H   0  0  0  0  0  0  0  0  0  0  0  0
   -0.7238   23.8539  -30.1640 H   0  0  0  0  0  0  0  0  0  0  0  0
   -3.8524   23.1855  -32.3116 H   0  0  0  0  0  0  0  0  0  0  0  0
   -2.6414   21.5508  -33.7297 H   0  0  0  0  0  0  0  0  0  0  0  0
   -1.0167   19.9729  -32.7046 H   0  0  0  0  0  0  0  0  0  0  0  0
   -0.0024   18.9851  -30.7790 H   0  0  0  0  0  0  0  0  0  0  0  0
    0.2021   18.7592  -28.3111 H   0  0  0  0  0  0  0  0  0  0  0  0
   -1.3424   20.0015  -26.8186 H   0  0  0  0  0  0  0  0  0  0  0  0
   -3.0757   21.3959  -26.4492 H   0  0  0  0  0  0  0  0  0  0  0  0
   -3.6242   22.5976  -27.6664 H   0  0  0  0  0  0  0  0  0  0  0  0
   -4.3155   20.9397  -27.6664 H   0  0  0  0  0  0  0  0  0  0  0  0
  1  2  1  0
  2  3  1  0
  3  4  1  0
  4  5  1  0
  3  6  1  0
  6  7  1  0
  7  8  1  0
  8  9  1  0
  9 10  1  0
 10 11  1  0
 11 12  2  0
 12 13  1  0
 13 14  2  0
 14 15  1  0
 15 16  2  0
 10 17  1  0
 17 18  2  0
 18 19  1  0
 19 20  2  0
 20 21  1  0
 21 22  2  0
 22 23  1  0
 23 24  2  0
 24 25  1  0
 25 26  1  0
 25 27  2  0
 16 11  1  0
 27 17  1  0
 27 21  1  0
  1 28  1  0
  1 29  1  0
  1 30  1  0
  2 31  1  0
  2 32  1  0
  3 33  1  0
  4 34  1  0
  4 35  1  0
  5 36  1  0
  5 37  1  0
  5 38  1  0
  6 39  1  0
  6 40  1  0
  7 41  1  0
  7 42  1  0
  8 43  1  0
  8 44  1  0
 10 45  1  1
 12 46  1  0
 13 47  1  0
 14 48  1  0
 16 49  1  0
 18 50  1  0
 19 51  1  0
 20 52  1  0
 22 53  1  0
 23 54  1  0
 24 55  1  0
 26 56  1  0
 26 57  1  0
 26 58  1  0
M  CHG  1   3   1
M  END
>  <UniqueID>  (8) 
8

>  <SMILES>  (8) 
CC[NH+](CC)CCCO[C@H](c1cccnc1)c1cccc2cccc(C)c12

>  <Energy>  (8) 
86.69400733831722

>  <Genealogy>  (8) 
CC[NH+](CC)CCCOC(c1cccnc1)c1cccc2cccc(C)c12 (protonated)
CC[NH+](CC)CCCO[C@H](c1cccnc1)c1cccc2cccc(C)c12 (chirality)
CC[NH+](CC)CCCO[C@H](c1cccnc1)c1cccc2cccc(C)c12 (3D coordinates assigned)
CC[NH+](CC)CCCO[C@H](c1cccnc1)c1cccc2cccc(C)c12 (optimized conformer: 86.69400733831722 kcal/mol)

>  <smiles>  (8) 
CCN(CC)CCCOC(c1cccnc1)c1cccc2cccc(C)c12

>  <score_type>  (8) 
oracle

>  <origin>  (8) 
adg

>  <m_score__min__energy>  (8) 
-7.5099999999999998

>  <m_primary>  (8) 
energy

$$$$
8:0
     RDKit          3D

 41 44  0  0  0  0  0  0  0  0999 V2000
   -3.8520   13.8390  -32.2980 C   0  0  0  0  0  0  0  0  0  0  0  0
   -4.0250   14.9310  -33.2500 N   0  0  0  0  0  0  0  0  0  0  0  0
   -4.9970   15.9800  -33.0890 C   0  0  0  0  0  0  0  0  0  0  0  0
   -5.5310   16.6710  -34.1910 C   0  0  0  0  0  0  0  0  0  0  0  0
   -6.4720   17.6870  -34.0030 C   0  0  0  0  0  0  0  0  0  0  0  0
   -6.8970   18.0380  -32.7100 C   0  0  0  0  0  0  0  0  0  0  0  0
   -7.8960   19.1120  -32.4990 C   0  0  0  0  0  0  0  0  0  0  0  0
   -9.2670   19.0360  -32.7190 C   0  0  0  0  0  0  0  0  0  0  0  0
   -9.8610   20.2110  -32.3910 N   0  0  0  0  0  0  0  0  0  0  0  0
   -8.8310   20.9760  -31.9730 C   0  0  0  0  0  0  0  0  0  0  0  0
   -8.9100   22.2740  -31.4890 C   0  0  0  0  0  0  0  0  0  0  0  0
   -7.7190   22.8770  -31.0610 C   0  0  0  0  0  0  0  0  0  0  0  0
   -6.4950   22.1630  -31.1320 C   0  0  0  0  0  0  0  0  0  0  0  0
   -5.2110   22.7550  -30.6780 C   0  0  0  0  0  0  0  0  0  0  0  0
   -3.9810   22.1100  -30.9050 C   0  0  0  0  0  0  0  0  0  0  0  0
   -2.7860   22.6810  -30.4610 C   0  0  0  0  0  0  0  0  0  0  0  0
   -2.7900   23.9070  -29.7720 C   0  0  0  0  0  0  0  0  0  0  0  0
   -1.5600   24.4970  -29.3140 N   0  0  0  0  0  0  0  0  0  0  0  0
   -1.5180   25.6960  -28.9700 O   0  0  0  0  0  0  0  0  0  0  0  0
   -0.4070   23.7480  -29.2480 O   0  0  0  0  0  0  0  0  0  0  0  0
   -4.0180   24.5460  -29.5340 C   0  0  0  0  0  0  0  0  0  0  0  0
   -5.2130   23.9750  -29.9780 C   0  0  0  0  0  0  0  0  0  0  0  0
   -6.5090   20.8840  -31.6130 N   0  0  0  0  0  0  0  0  0  0  0  0
   -7.6540   20.3460  -32.0280 N   0  0  0  0  0  0  0  0  0  0  0  0
   -6.3730   17.3380  -31.6110 C   0  0  0  0  0  0  0  0  0  0  0  0
   -5.4300   16.3230  -31.7990 C   0  0  0  0  0  0  0  0  0  0  0  0
   -3.9144   14.2329  -31.2729 H   0  0  0  0  0  0  0  0  0  0  0  0
   -4.6427   13.0898  -32.4517 H   0  0  0  0  0  0  0  0  0  0  0  0
   -2.8685   13.3709  -32.4517 H   0  0  0  0  0  0  0  0  0  0  0  0
   -3.4070   14.9400  -34.0930 H   0  0  0  0  0  0  0  0  0  0  0  0
   -5.2056   16.4099  -35.2088 H   0  0  0  0  0  0  0  0  0  0  0  0
   -6.8837   18.2167  -34.8747 H   0  0  0  0  0  0  0  0  0  0  0  0
   -9.7942   18.1505  -33.1037 H   0  0  0  0  0  0  0  0  0  0  0  0
   -9.8700   22.8091  -31.4429 H   0  0  0  0  0  0  0  0  0  0  0  0
   -7.7335   23.9049  -30.6697 H   0  0  0  0  0  0  0  0  0  0  0  0
   -3.9604   21.1474  -31.4369 H   0  0  0  0  0  0  0  0  0  0  0  0
   -1.8326   22.1667  -30.6521 H   0  0  0  0  0  0  0  0  0  0  0  0
   -4.0388   25.5039  -28.9936 H   0  0  0  0  0  0  0  0  0  0  0  0
   -6.1667   24.4854  -29.7779 H   0  0  0  0  0  0  0  0  0  0  0  0
   -6.7073   17.5904  -30.5939 H   0  0  0  0  0  0  0  0  0  0  0  0
   -5.0238   15.7884  -30.9277 H   0  0  0  0  0  0  0  0  0  0  0  0
  1  2  1  0
  2  3  1  0
  3  4  2  0
  4  5  1  0
  5  6  2  0
  6  7  1  0
  7  8  2  0
  8  9  1  0
  9 10  2  0
 10 11  1  0
 11 12  2  0
 12 13  1  0
 13 14  1  0
 14 15  2  0
 15 16  1  0
 16 17  2  0
 17 18  1  0
 18 19  2  0
 18 20  1  0
 17 21  1  0
 21 22  2  0
 13 23  2  0
 23 24  1  0
  6 25  1  0
 25 26  2  0
 26  3  1  0
 24  7  1  0
 24 10  1  0
 22 14  1  0
  1 27  1  0
  1 28  1  0
  1 29  1  0
  2 30  1  0
  4 31  1  0
  5 32  1  0
  8 33  1  0
 11 34  1  0
 12 35  1  0
 15 36  1  0
 16 37  1  0
 21 38  1  0
 22 39  1  0
 25 40  1  0
 26 41  1  0
M  CHG  2  18   1  20  -1
M  END
>  <UniqueID>  (9) 
9

>  <SMILES>  (9) 
CNc1ccc(-c2cnc3ccc(-c4ccc([N+](=O)[O-])cc4)nn23)cc1

>  <Energy>  (9) 
89.40470469432846

>  <Genealogy>  (9) 
CNc1ccc(-c2cnc3ccc(-c4ccc([N+](=O)[O-])cc4)nn23)cc1 (3D coordinates assigned)
CNc1ccc(-c2cnc3ccc(-c4ccc([N+](=O)[O-])cc4)nn23)cc1 (optimized conformer: 89.40470469432846 kcal/mol)

>  <smiles>  (9) 
CNc1ccc(-c2cnc3ccc(-c4ccc([N+](=O)[O-])cc4)nn23)cc1

>  <score_type>  (9) 
oracle

>  <origin>  (9) 
adg

>  <m_score__min__energy>  (9) 
-8.7699999999999996

>  <m_primary>  (9) 
energy

$$$$
9:0
     RDKit          3D

 59 61  0  0  0  0  0  0  0  0999 V2000
   -4.2430   12.9810  -31.2250 C   0  0  0  0  0  0  0  0  0  0  0  0
   -4.6060   14.4030  -31.6410 C   0  0  0  0  0  0  0  0  0  0  0  0
   -3.8230   14.8320  -32.8840 C   0  0  0  0  0  0  0  0  0  0  0  0
   -4.9500   15.2460  -34.2630 S   0  0  0  0  0  0  0  0  0  0  0  0
   -5.1430   16.9740  -33.8090 C   0  0  0  0  0  0  0  0  0  0  0  0
   -4.0810   17.8600  -33.9740 C   0  0  0  0  0  0  0  0  0  0  0  0
   -4.2370   19.2050  -33.6540 C   0  0  0  0  0  0  0  0  0  0  0  0
   -5.4580   19.6850  -33.1380 C   0  0  0  0  0  0  0  0  0  0  0  0
   -5.6340   21.0520  -32.8730 C   0  0  0  0  0  0  0  0  0  0  0  0
   -4.5450   21.9680  -33.0660 N   0  0  0  0  0  0  0  0  0  0  0  0
   -3.6280   22.2660  -31.9670 C   0  0  0  0  0  0  0  0  0  0  0  0
   -4.3670   22.9430  -30.8080 C   0  0  0  0  0  0  0  0  0  0  0  0
   -3.9230   24.3470  -30.6460 N   0  0  0  0  0  0  0  0  0  0  0  0
   -3.1460   24.5500  -29.3980 C   0  0  0  0  0  0  0  0  0  0  0  0
   -3.5750   23.6440  -28.2360 C   0  0  0  0  0  0  0  0  0  0  0  0
   -5.0420   25.3020  -30.8220 C   0  0  0  0  0  0  0  0  0  0  0  0
   -6.1520   25.0630  -29.8000 C   0  0  0  0  0  0  0  0  0  0  0  0
   -6.8980   21.5260  -32.4820 C   0  0  0  0  0  0  0  0  0  0  0  0
   -7.1320   22.9070  -32.3170 C   0  0  0  0  0  0  0  0  0  0  0  0
   -8.3980   23.3770  -31.9760 C   0  0  0  0  0  0  0  0  0  0  0  0
   -9.4500   22.4850  -31.8100 C   0  0  0  0  0  0  0  0  0  0  0  0
   -9.2380   21.1140  -31.9550 C   0  0  0  0  0  0  0  0  0  0  0  0
   -7.9520   20.6000  -32.2590 C   0  0  0  0  0  0  0  0  0  0  0  0
   -7.7130   19.2400  -32.3550 N   0  0  0  0  0  0  0  0  0  0  0  0
   -8.7130   18.2750  -31.8470 C   0  0  0  0  0  0  0  0  0  0  0  0
   -6.5300   18.7830  -32.9060 C   0  0  0  0  0  0  0  0  0  0  0  0
   -6.3530   17.4260  -33.2760 C   0  0  0  0  0  0  0  0  0  0  0  0
   -4.2257   12.9132  -30.1272 H   0  0  0  0  0  0  0  0  0  0  0  0
   -4.9910   12.2800  -31.6239 H   0  0  0  0  0  0  0  0  0  0  0  0
   -3.2505   12.7243  -31.6239 H   0  0  0  0  0  0  0  0  0  0  0  0
   -5.6827   14.4487  -31.8615 H   0  0  0  0  0  0  0  0  0  0  0  0
   -4.3503   15.0838  -30.8157 H   0  0  0  0  0  0  0  0  0  0  0  0
   -3.2160   15.7159  -32.6386 H   0  0  0  0  0  0  0  0  0  0  0  0
   -3.1805   13.9960  -33.1974 H   0  0  0  0  0  0  0  0  0  0  0  0
   -3.1168   17.4955  -34.3581 H   0  0  0  0  0  0  0  0  0  0  0  0
   -3.3988   19.9012  -33.8052 H   0  0  0  0  0  0  0  0  0  0  0  0
   -4.6200   22.6510  -33.8520 H   0  0  0  0  0  0  0  0  0  0  0  0
   -3.1781   21.3283  -31.6088 H   0  0  0  0  0  0  0  0  0  0  0  0
   -2.8486   22.9497  -32.3346 H   0  0  0  0  0  0  0  0  0  0  0  0
   -5.4477   22.9284  -31.0125 H   0  0  0  0  0  0  0  0  0  0  0  0
   -4.1439   22.3947  -29.8809 H   0  0  0  0  0  0  0  0  0  0  0  0
   -2.0859   24.3532  -29.6157 H   0  0  0  0  0  0  0  0  0  0  0  0
   -3.3296   25.5857  -29.0760 H   0  0  0  0  0  0  0  0  0  0  0  0
   -3.3414   24.1373  -27.2809 H   0  0  0  0  0  0  0  0  0  0  0  0
   -4.6573   23.4570  -28.2971 H   0  0  0  0  0  0  0  0  0  0  0  0
   -3.0338   22.6883  -28.2971 H   0  0  0  0  0  0  0  0  0  0  0  0
   -4.6595   26.3262  -30.7005 H   0  0  0  0  0  0  0  0  0  0  0  0
   -5.4633   25.1564  -31.8276 H   0  0  0  0  0  0  0  0  0  0  0  0
   -5.7401   25.1517  -28.7839 H   0  0  0  0  0  0  0  0  0  0  0  0
   -6.9466   25.8106  -29.9401 H   0  0  0  0  0  0  0  0  0  0  0  0
   -6.5685   24.0546  -29.9401 H   0  0  0  0  0  0  0  0  0  0  0  0
   -6.3065   23.6200  -32.4590 H   0  0  0  0  0  0  0  0  0  0  0  0
   -8.5650   24.4555  -31.8380 H   0  0  0  0  0  0  0  0  0  0  0  0
  -10.4538   22.8612  -31.5633 H   0  0  0  0  0  0  0  0  0  0  0  0
  -10.0825   20.4201  -31.8315 H   0  0  0  0  0  0  0  0  0  0  0  0
   -8.7046   18.2831  -30.7471 H   0  0  0  0  0  0  0  0  0  0  0  0
   -9.7126   18.5585  -32.2081 H   0  0  0  0  0  0  0  0  0  0  0  0
   -8.4652   17.2659  -32.2081 H   0  0  0  0  0  0  0  0  0  0  0  0
   -7.1827   16.7165  -33.1412 H   0  0  0  0  0  0  0  0  0  0  0  0
  1  2  1  0
  2  3  1  0
  3  4  1  0
  4  5  1  0
  5  6  2  0
  6  7  1  0
  7  8  2  0
  8  9  1  0
  9 10  1  0
 10 11  1  0
 11 12  1  0
 12 13  1  0
 13 14  1  0
 14 15  1  0
 13 16  1  0
 16 17  1  0
  9 18  2  0
 18 19  1  0
 19 20  2  0
 20 21  1  0
 21 22  2  0
 22 23  1  0
 23 24  2  0
 24 25  1  0
 24 26  1  0
 26 27  2  0
 27  5  1  0
 26  8  1  0
 23 18  1  0
  1 28  1  0
  1 29  1  0
  1 30  1  0
  2 31  1  0
  2 32  1  0
  3 33  1  0
  3 34  1  0
  6 35  1  0
  7 36  1  0
 10 37  1  0
 11 38  1  0
 11 39  1  0
 12 40  1  0
 12 41  1  0
 14 42  1  0
 14 43  1  0
 15 44  1  0
 15 45  1  0
 15 46  1  0
 16 47  1  0
 16 48  1  0
 17 49  1  0
 17 50  1  0
 17 51  1  0
 19 52  1  0
 20 53  1  0
 21 54  1  0
 22 55  1  0
 25 56  1  0
 25 57  1  0
 25 58  1  0
 27 59  1  0
M  CHG  1  24   1
M  END
>  <UniqueID>  (10) 
10

>  <SMILES>  (10) 
CCCSc1ccc2c(NCCN(CC)CC)c3ccccc3[n+](C)c2c1

>  <Energy>  (10) 
77.6295719562122

>  <Genealogy>  (10) 
CCCSc1ccc2c(NCCN(CC)CC)c3ccccc3[n+](C)c2c1 (3D coordinates assigned)
CCCSc1ccc2c(NCCN(CC)CC)c3ccccc3[n+](C)c2c1 (optimized conformer: 77.6295719562122 kcal/mol)

>  <smiles>  (10) 
CCCSc1ccc2c(NCCN(CC)CC)c3ccccc3[n+](C)c2c1

>  <score_type>  (10) 
oracle

>  <origin>  (10) 
adg

>  <m_score__min__energy>  (10) 
-9.0500000000000007

>  <m_primary>  (10) 
energy

$$$$
10:0
     RDKit          3D

 47 48  0  0  0  0  0  0  0  0999 V2000
   -6.6860   14.7170  -34.1910 C   0  0  0  0  0  0  0  0  0  0  0  0
   -6.4850   16.2210  -34.3090 C   0  0  0  0  0  0  0  0  0  0  0  0
   -5.1630   16.5870  -33.7460 N   0  0  0  0  0  0  0  0  0  0  0  0
   -4.7770   17.9840  -34.0470 C   0  0  0  0  0  0  0  0  0  0  0  0
   -5.8130   18.7440  -34.8900 C   0  0  0  0  0  0  0  0  0  0  0  0
   -5.0040   16.2390  -32.3160 C   0  0  0  0  0  0  0  0  0  0  0  0
   -6.1310   16.8450  -31.4700 C   0  0  0  0  0  0  0  0  0  0  0  0
   -6.8040   17.8690  -32.1760 O   0  0  0  0  0  0  0  0  0  0  0  0
   -8.0360   18.1800  -31.5600 C   0  0  0  0  0  0  0  0  0  0  0  0
   -8.2180   19.7010  -31.4950 C   0  0  0  0  0  0  0  0  0  0  0  0
   -7.4110   20.4220  -32.4990 N   0  0  0  0  0  0  0  0  0  0  0  0
   -6.7710   21.5990  -31.9470 C   0  0  0  0  0  0  0  0  0  0  0  0
   -7.4790   22.8110  -31.7610 C   0  0  0  0  0  0  0  0  0  0  0  0
   -9.3420   23.0030  -32.1910 Br  0  0  0  0  0  0  0  0  0  0  0  0
   -6.8270   23.9360  -31.2500 C   0  0  0  0  0  0  0  0  0  0  0  0
   -5.4660   23.8840  -30.9070 C   0  0  0  0  0  0  0  0  0  0  0  0
   -4.7870   25.0120  -30.4030 C   0  0  0  0  0  0  0  0  0  0  0  0
   -5.3840   26.1090  -30.2410 O   0  0  0  0  0  0  0  0  0  0  0  0
   -3.4680   24.9230  -30.0870 N   0  0  0  0  0  0  0  0  0  0  0  0
   -2.7660   23.7700  -30.2390 C   0  0  0  0  0  0  0  0  0  0  0  0
   -3.3940   22.6270  -30.7320 C   0  0  0  0  0  0  0  0  0  0  0  0
   -4.7540   22.6750  -31.0730 C   0  0  0  0  0  0  0  0  0  0  0  0
   -5.4080   21.5420  -31.5870 C   0  0  0  0  0  0  0  0  0  0  0  0
   -4.7220   20.3790  -31.7420 F   0  0  0  0  0  0  0  0  0  0  0  0
   -6.7238   14.4344  -33.1286 H   0  0  0  0  0  0  0  0  0  0  0  0
   -7.6300   14.4338  -34.6796 H   0  0  0  0  0  0  0  0  0  0  0  0
   -5.8495   14.1958  -34.6796 H   0  0  0  0  0  0  0  0  0  0  0  0
   -6.5269   16.5148  -35.3682 H   0  0  0  0  0  0  0  0  0  0  0  0
   -7.2782   16.7424  -33.7531 H   0  0  0  0  0  0  0  0  0  0  0  0
   -4.6431   18.5198  -33.0957 H   0  0  0  0  0  0  0  0  0  0  0  0
   -3.8508   17.9408  -34.6388 H   0  0  0  0  0  0  0  0  0  0  0  0
   -6.5189   19.2618  -34.2240 H   0  0  0  0  0  0  0  0  0  0  0  0
   -5.2996   19.4813  -35.5247 H   0  0  0  0  0  0  0  0  0  0  0  0
   -6.3621   18.0329  -35.5247 H   0  0  0  0  0  0  0  0  0  0  0  0
   -5.0233   15.1444  -32.2086 H   0  0  0  0  0  0  0  0  0  0  0  0
   -4.0451   16.6460  -31.9626 H   0  0  0  0  0  0  0  0  0  0  0  0
   -6.8507   16.0544  -31.2112 H   0  0  0  0  0  0  0  0  0  0  0  0
   -5.6900   17.2795  -30.5607 H   0  0  0  0  0  0  0  0  0  0  0  0
   -8.8573   17.7391  -32.1440 H   0  0  0  0  0  0  0  0  0  0  0  0
   -8.0439   17.7705  -30.5391 H   0  0  0  0  0  0  0  0  0  0  0  0
   -9.2794   19.9346  -31.6650 H   0  0  0  0  0  0  0  0  0  0  0  0
   -7.8789   20.0308  -30.5019 H   0  0  0  0  0  0  0  0  0  0  0  0
   -6.7240   19.7710  -32.9400 H   0  0  0  0  0  0  0  0  0  0  0  0
   -8.0490   20.7260  -33.2720 H   0  0  0  0  0  0  0  0  0  0  0  0
   -7.3862   24.8736  -31.1147 H   0  0  0  0  0  0  0  0  0  0  0  0
   -1.6993   23.7380  -29.9724 H   0  0  0  0  0  0  0  0  0  0  0  0
   -2.8262   21.6927  -30.8529 H   0  0  0  0  0  0  0  0  0  0  0  0
  1  2  1  0
  2  3  1  0
  3  4  1  0
  4  5  1  0
  3  6  1  0
  6  7  1  0
  7  8  1  0
  8  9  1  0
  9 10  1  0
 10 11  1  0
 11 12  1  0
 12 13  2  0
 13 14  1  0
 13 15  1  0
 15 16  2  0
 16 17  1  0
 17 18  2  0
 17 19  1  0
 19 20  1  0
 20 21  2  0
 21 22  1  0
 22 23  2  0
 23 24  1  0
 23 12  1  0
 22 16  1  0
  1 25  1  0
  1 26  1  0
  1 27  1  0
  2 28  1  0
  2 29  1  0
  4 30  1  0
  4 31  1  0
  5 32  1  0
  5 33  1  0
  5 34  1  0
  6 35  1  0
  6 36  1  0
  7 37  1  0
  7 38  1  0
  9 39  1  0
  9 40  1  0
 10 41  1  0
 10 42  1  0
 11 43  1  0
 11 44  1  0
 15 45  1  0
 20 46  1  0
 21 47  1  0
M  CHG  2  11   1  19  -1
M  END
>  <UniqueID>  (11) 
11

>  <SMILES>  (11) 
CCN(CC)CCOCC[NH2+]c1c(Br)cc2c(=O)[n-]ccc2c1F

>  <Energy>  (11) 
53.94689379396474

>  <Genealogy>  (11) 
CCN(CC)CCOCC[NH2+]c1c(Br)cc2c(=O)[n-]ccc2c1F (protonated)
CCN(CC)CCOCC[NH2+]c1c(Br)cc2c(=O)[n-]ccc2c1F (3D coordinates assigned)
CCN(CC)CCOCC[NH2+]c1c(Br)cc2c(=O)[n-]ccc2c1F (optimized conformer: 53.94689379396474 kcal/mol)

>  <smiles>  (11) 
CCN(CC)CCOCCNc1c(Br)cc2c(=O)[nH]ccc2c1F

>  <score_type>  (11) 
oracle

>  <origin>  (11) 
adg

>  <m_score__min__energy>  (11) 
-7.0599999999999996

>  <m_primary>  (11) 
energy

$$$$
11:0
     RDKit          3D

 50 52  0  0  0  0  0  0  0  0999 V2000
   -6.3080   14.0920  -34.2340 C   0  0  0  0  0  0  0  0  0  0  0  0
   -5.4640   15.2260  -34.3970 O   0  0  0  0  0  0  0  0  0  0  0  0
   -5.8220   16.5380  -34.0490 C   0  0  0  0  0  0  0  0  0  0  0  0
   -6.9280   16.8170  -33.2240 C   0  0  0  0  0  0  0  0  0  0  0  0
   -7.2580   18.1370  -32.8930 C   0  0  0  0  0  0  0  0  0  0  0  0
   -6.4940   19.2000  -33.4090 C   0  0  0  0  0  0  0  0  0  0  0  0
   -5.3930   18.9230  -34.2300 C   0  0  0  0  0  0  0  0  0  0  0  0
   -5.0490   17.5940  -34.5510 C   0  0  0  0  0  0  0  0  0  0  0  0
   -3.9480   17.2870  -35.3670 O   0  0  0  0  0  0  0  0  0  0  0  0
   -2.7780   16.6070  -34.9240 C   0  0  0  0  0  0  0  0  0  0  0  0
   -6.8290   20.6440  -33.1040 C   0  0  0  0  0  0  0  0  0  0  0  0
   -7.9310   20.8030  -32.1380 N   0  0  0  0  0  0  0  0  0  0  0  0
   -8.4750   22.1270  -31.9310 C   0  0  0  0  0  0  0  0  0  0  0  0
   -9.6240   22.2490  -31.4190 O   0  0  0  0  0  0  0  0  0  0  0  0
   -7.6800   23.3650  -32.2690 C   0  0  0  0  0  0  0  0  0  0  0  0
   -6.2220   23.2810  -31.7980 C   0  0  0  0  0  0  0  0  0  0  0  0
   -6.1490   23.5610  -30.3470 N   0  0  0  0  0  0  0  0  0  0  0  0
   -6.4840   24.9640  -30.0280 C   0  0  0  0  0  0  0  0  0  0  0  0
   -5.3690   25.9430  -30.4780 C   0  0  0  0  0  0  0  0  0  0  0  0
   -4.1470   25.2850  -30.7790 O   0  0  0  0  0  0  0  0  0  0  0  0
   -3.8320   24.3580  -29.7610 C   0  0  0  0  0  0  0  0  0  0  0  0
   -4.8380   23.1840  -29.7630 C   0  0  0  0  0  0  0  0  0  0  0  0
   -8.2880   19.6890  -31.2480 C   0  0  0  0  0  0  0  0  0  0  0  0
   -8.4740   18.4130  -32.0600 C   0  0  0  0  0  0  0  0  0  0  0  0
   -6.4545   13.8951  -33.1617 H   0  0  0  0  0  0  0  0  0  0  0  0
   -7.2814   14.2884  -34.7071 H   0  0  0  0  0  0  0  0  0  0  0  0
   -5.8405   13.2159  -34.7071 H   0  0  0  0  0  0  0  0  0  0  0  0
   -7.5395   15.9894  -32.8353 H   0  0  0  0  0  0  0  0  0  0  0  0
   -4.7900   19.7521  -34.6288 H   0  0  0  0  0  0  0  0  0  0  0  0
   -2.7557   16.5940  -33.8243 H   0  0  0  0  0  0  0  0  0  0  0  0
   -2.7885   15.5743  -35.3027 H   0  0  0  0  0  0  0  0  0  0  0  0
   -1.8859   17.1274  -35.3027 H   0  0  0  0  0  0  0  0  0  0  0  0
   -5.9322   21.1293  -32.6914 H   0  0  0  0  0  0  0  0  0  0  0  0
   -7.1579   21.1049  -34.0471 H   0  0  0  0  0  0  0  0  0  0  0  0
   -7.6897   23.5020  -33.3604 H   0  0  0  0  0  0  0  0  0  0  0  0
   -8.1486   24.2127  -31.7477 H   0  0  0  0  0  0  0  0  0  0  0  0
   -5.8316   22.2718  -31.9956 H   0  0  0  0  0  0  0  0  0  0  0  0
   -5.6202   24.0234  -32.3427 H   0  0  0  0  0  0  0  0  0  0  0  0
   -7.4198   25.2313  -30.5407 H   0  0  0  0  0  0  0  0  0  0  0  0
   -6.5909   25.0486  -28.9365 H   0  0  0  0  0  0  0  0  0  0  0  0
   -5.7115   26.4765  -31.3769 H   0  0  0  0  0  0  0  0  0  0  0  0
   -5.1768   26.6323  -29.6426 H   0  0  0  0  0  0  0  0  0  0  0  0
   -2.8184   23.9657  -29.9305 H   0  0  0  0  0  0  0  0  0  0  0  0
   -3.8850   24.8685  -28.7881 H   0  0  0  0  0  0  0  0  0  0  0  0
   -4.4141   22.3571  -30.3517 H   0  0  0  0  0  0  0  0  0  0  0  0
   -5.0100   22.8890  -28.7173 H   0  0  0  0  0  0  0  0  0  0  0  0
   -7.4844   19.5387  -30.5120 H   0  0  0  0  0  0  0  0  0  0  0  0
   -9.2284   19.9277  -30.7296 H   0  0  0  0  0  0  0  0  0  0  0  0
   -8.6420   17.5693  -31.3745 H   0  0  0  0  0  0  0  0  0  0  0  0
   -9.3399   18.5392  -32.7265 H   0  0  0  0  0  0  0  0  0  0  0  0
  1  2  1  0
  2  3  1  0
  3  4  2  0
  4  5  1  0
  5  6  2  0
  6  7  1  0
  7  8  2  0
  8  9  1  0
  9 10  1  0
  6 11  1  0
 11 12  1  0
 12 13  1  0
 13 14  2  0
 13 15  1  0
 15 16  1  0
 16 17  1  0
 17 18  1  0
 18 19  1  0
 19 20  1  0
 20 21  1  0
 21 22  1  0
 12 23  1  0
 23 24  1  0
  8  3  1  0
 22 17  1  0
 24  5  1  0
  1 25  1  0
  1 26  1  0
  1 27  1  0
  4 28  1  0
  7 29  1  0
 10 30  1  0
 10 31  1  0
 10 32  1  0
 11 33  1  0
 11 34  1  0
 15 35  1  0
 15 36  1  0
 16 37  1  0
 16 38  1  0
 18 39  1  0
 18 40  1  0
 19 41  1  0
 19 42  1  0
 21 43  1  0
 21 44  1  0
 22 45  1  0
 22 46  1  0
 23 47  1  0
 23 48  1  0
 24 49  1  0
 24 50  1  0
M  END
>  <UniqueID>  (12) 
12

>  <SMILES>  (12) 
COc1cc2c(cc1OC)CN(C(=O)CCN1CCOCC1)CC2

>  <Energy>  (12) 
63.558296604371286

>  <Genealogy>  (12) 
COc1cc2c(cc1OC)CN(C(=O)CCN1CCOCC1)CC2 (3D coordinates assigned)
COc1cc2c(cc1OC)CN(C(=O)CCN1CCOCC1)CC2 (nonaromatic ring conformer: 63.558296604371286 kcal/mol)

>  <smiles>  (12) 
COc1cc2c(cc1OC)CN(C(=O)CCN1CCOCC1)CC2

>  <score_type>  (12) 
oracle

>  <origin>  (12) 
adg

>  <m_score__min__energy>  (12) 
-8.3200000000000003

>  <m_primary>  (12) 
energy

$$$$
12:0
     RDKit          3D

 40 42  0  0  0  0  0  0  0  0999 V2000
   -3.6590   23.7250  -28.3500 C   0  0  0  0  0  0  0  0  0  0  0  0
   -4.9670   23.2210  -28.9490 C   0  0  0  0  0  0  0  0  0  0  0  0
   -5.0190   23.4860  -30.3960 N   0  0  0  0  0  0  0  0  0  0  0  0
   -5.2580   24.8630  -30.8520 C   0  0  0  0  0  0  0  0  0  0  0  0
   -6.1310   25.6160  -29.8520 C   0  0  0  0  0  0  0  0  0  0  0  0
   -4.4430   22.5230  -31.3040 C   0  0  0  0  0  0  0  0  0  0  0  0
   -3.0860   22.4350  -31.3930 N   0  0  0  0  0  0  0  0  0  0  0  0
   -2.4770   21.5990  -32.2700 C   0  0  0  0  0  0  0  0  0  0  0  0
   -1.0810   21.5330  -32.3420 C   0  0  0  0  0  0  0  0  0  0  0  0
   -0.4710   20.6730  -33.2640 C   0  0  0  0  0  0  0  0  0  0  0  0
   -1.2560   19.8820  -34.1130 C   0  0  0  0  0  0  0  0  0  0  0  0
   -2.6520   19.9470  -34.0430 C   0  0  0  0  0  0  0  0  0  0  0  0
   -3.2640   20.8050  -33.1230 C   0  0  0  0  0  0  0  0  0  0  0  0
   -4.6160   20.8750  -33.0330 N   0  0  0  0  0  0  0  0  0  0  0  0
   -5.2370   21.6950  -32.1420 C   0  0  0  0  0  0  0  0  0  0  0  0
   -6.7140   21.6610  -32.0780 C   0  0  0  0  0  0  0  0  0  0  0  0
   -7.3800   20.4250  -32.0160 C   0  0  0  0  0  0  0  0  0  0  0  0
   -8.7760   20.3790  -31.9500 C   0  0  0  0  0  0  0  0  0  0  0  0
   -9.5170   21.5640  -31.9320 C   0  0  0  0  0  0  0  0  0  0  0  0
   -8.8610   22.7970  -31.9720 C   0  0  0  0  0  0  0  0  0  0  0  0
   -7.4660   22.8480  -32.0370 C   0  0  0  0  0  0  0  0  0  0  0  0
   -3.7247   23.6997  -27.2523 H   0  0  0  0  0  0  0  0  0  0  0  0
   -2.8313   23.0814  -28.6828 H   0  0  0  0  0  0  0  0  0  0  0  0
   -3.4772   24.7576  -28.6828 H   0  0  0  0  0  0  0  0  0  0  0  0
   -5.0472   22.1373  -28.7783 H   0  0  0  0  0  0  0  0  0  0  0  0
   -5.8016   23.7492  -28.4649 H   0  0  0  0  0  0  0  0  0  0  0  0
   -4.2938   25.3827  -30.9534 H   0  0  0  0  0  0  0  0  0  0  0  0
   -5.7766   24.8306  -31.8216 H   0  0  0  0  0  0  0  0  0  0  0  0
   -5.8262   25.3531  -28.8283 H   0  0  0  0  0  0  0  0  0  0  0  0
   -6.0114   26.6989  -30.0035 H   0  0  0  0  0  0  0  0  0  0  0  0
   -7.1847   25.3387  -30.0035 H   0  0  0  0  0  0  0  0  0  0  0  0
   -0.4644   22.1548  -31.6763 H   0  0  0  0  0  0  0  0  0  0  0  0
    0.6261   20.6186  -33.3216 H   0  0  0  0  0  0  0  0  0  0  0  0
   -0.7737   19.2082  -34.8364 H   0  0  0  0  0  0  0  0  0  0  0  0
   -3.2669   19.3248  -34.7099 H   0  0  0  0  0  0  0  0  0  0  0  0
   -6.8007   19.4899  -32.0194 H   0  0  0  0  0  0  0  0  0  0  0  0
   -9.2920   19.4083  -31.9122 H   0  0  0  0  0  0  0  0  0  0  0  0
  -10.6154   21.5259  -31.8864 H   0  0  0  0  0  0  0  0  0  0  0  0
   -9.4439   23.7296  -31.9523 H   0  0  0  0  0  0  0  0  0  0  0  0
   -6.9540   23.8214  -32.0562 H   0  0  0  0  0  0  0  0  0  0  0  0
  1  2  1  0
  2  3  1  0
  3  4  1  0
  4  5  1  0
  3  6  1  0
  6  7  2  0
  7  8  1  0
  8  9  2  0
  9 10  1  0
 10 11  2  0
 11 12  1  0
 12 13  2  0
 13 14  1  0
 14 15  2  0
 15 16  1  0
 16 17  2  0
 17 18  1  0
 18 19  2  0
 19 20  1  0
 20 21  2  0
 15  6  1  0
 21 16  1  0
 13  8  1  0
  1 22  1  0
  1 23  1  0
  1 24  1  0
  2 25  1  0
  2 26  1  0
  4 27  1  0
  4 28  1  0
  5 29  1  0
  5 30  1  0
  5 31  1  0
  9 32  1  0
 10 33  1  0
 11 34  1  0
 12 35  1  0
 17 36  1  0
 18 37  1  0
 19 38  1  0
 20 39  1  0
 21 40  1  0
M  END
>  <UniqueID>  (13) 
13

>  <SMILES>  (13) 
CCN(CC)c1nc2ccccc2nc1-c1ccccc1

>  <Energy>  (13) 
49.086124605732884

>  <Genealogy>  (13) 
CCN(CC)c1nc2ccccc2nc1-c1ccccc1 (3D coordinates assigned)
CCN(CC)c1nc2ccccc2nc1-c1ccccc1 (optimized conformer: 49.086124605732884 kcal/mol)

>  <smiles>  (13) 
CCN(CC)c1nc2ccccc2nc1-c1ccccc1

>  <score_type>  (13) 
oracle

>  <origin>  (13) 
adg

>  <m_score__min__energy>  (13) 
-7.0300000000000002

>  <m_primary>  (13) 
energy

$$$$
13:0
     RDKit          3D

 55 55  0  0  0  0  0  0  0  0999 V2000
   -8.9030   19.4390  -32.5140 C   0  0  0  0  0  0  0  0  0  0  0  0
   -7.5450   19.9400  -33.0190 C   0  0  0  0  0  0  0  0  0  0  0  0
   -6.4770   18.9070  -32.9670 N   0  0  0  0  0  0  0  0  0  0  0  0
   -5.9390   18.8280  -31.5840 C   0  0  0  0  0  0  0  0  0  0  0  0
   -6.1260   17.4520  -30.9340 C   0  0  0  0  0  0  0  0  0  0  0  0
   -6.8830   17.5860  -33.5330 C   0  0  0  0  0  0  0  0  0  0  0  0
   -5.9380   16.9900  -34.5950 C   0  0  0  0  0  0  0  0  0  0  0  0
   -5.0150   17.9660  -35.0320 O   0  0  0  0  0  0  0  0  0  0  0  0
   -3.7090   17.6610  -34.5780 C   0  0  0  0  0  0  0  0  0  0  0  0
   -3.0590   18.9040  -33.9650 C   0  0  0  0  0  0  0  0  0  0  0  0
   -4.0330   19.9080  -33.7490 O   0  0  0  0  0  0  0  0  0  0  0  0
   -3.4170   21.1260  -33.3850 C   0  0  0  0  0  0  0  0  0  0  0  0
   -3.1950   21.1380  -31.8730 C   0  0  0  0  0  0  0  0  0  0  0  0
   -3.2580   22.5050  -31.3490 N   0  0  0  0  0  0  0  0  0  0  0  0
   -4.4760   23.2040  -31.0090 C   0  0  0  0  0  0  0  0  0  0  0  0
   -5.7420   22.6660  -31.3250 C   0  0  0  0  0  0  0  0  0  0  0  0
   -6.9230   23.3440  -30.9810 C   0  0  0  0  0  0  0  0  0  0  0  0
   -8.2080   22.7850  -31.3120 N   0  0  0  0  0  0  0  0  0  0  0  0
   -8.6660   21.8170  -30.6710 O   0  0  0  0  0  0  0  0  0  0  0  0
   -8.9480   23.3000  -32.3540 O   0  0  0  0  0  0  0  0  0  0  0  0
   -6.8320   24.5720  -30.3090 C   0  0  0  0  0  0  0  0  0  0  0  0
   -5.5890   25.1140  -29.9880 C   0  0  0  0  0  0  0  0  0  0  0  0
   -4.4030   24.4400  -30.3330 C   0  0  0  0  0  0  0  0  0  0  0  0
   -3.1390   24.9700  -30.0250 O   0  0  0  0  0  0  0  0  0  0  0  0
   -2.2960   24.5000  -28.9770 C   0  0  0  0  0  0  0  0  0  0  0  0
   -8.9073   19.4374  -31.4140 H   0  0  0  0  0  0  0  0  0  0  0  0
   -9.6989   20.1027  -32.8828 H   0  0  0  0  0  0  0  0  0  0  0  0
   -9.0772   18.4174  -32.8828 H   0  0  0  0  0  0  0  0  0  0  0  0
   -7.6609   20.2692  -34.0622 H   0  0  0  0  0  0  0  0  0  0  0  0
   -7.2349   20.7608  -32.3555 H   0  0  0  0  0  0  0  0  0  0  0  0
   -5.6950   19.2600  -33.5700 H   0  0  0  0  0  0  0  0  0  0  0  0
   -4.8632   19.0553  -31.6151 H   0  0  0  0  0  0  0  0  0  0  0  0
   -6.5004   19.5526  -30.9760 H   0  0  0  0  0  0  0  0  0  0  0  0
   -6.1115   17.5586  -29.8393 H   0  0  0  0  0  0  0  0  0  0  0  0
   -7.0903   17.0261  -31.2482 H   0  0  0  0  0  0  0  0  0  0  0  0
   -5.3104   16.7842  -31.2482 H   0  0  0  0  0  0  0  0  0  0  0  0
   -6.9503   16.8692  -32.7013 H   0  0  0  0  0  0  0  0  0  0  0  0
   -7.8375   17.7641  -34.0499 H   0  0  0  0  0  0  0  0  0  0  0  0
   -5.3901   16.1419  -34.1584 H   0  0  0  0  0  0  0  0  0  0  0  0
   -6.5342   16.6505  -35.4548 H   0  0  0  0  0  0  0  0  0  0  0  0
   -3.7645   16.8677  -33.8180 H   0  0  0  0  0  0  0  0  0  0  0  0
   -3.1024   17.3222  -35.4308 H   0  0  0  0  0  0  0  0  0  0  0  0
   -2.5948   18.6353  -33.0046 H   0  0  0  0  0  0  0  0  0  0  0  0
   -2.2947   19.2879  -34.6568 H   0  0  0  0  0  0  0  0  0  0  0  0
   -2.4498   21.2188  -33.9006 H   0  0  0  0  0  0  0  0  0  0  0  0
   -4.0616   21.9695  -33.6730 H   0  0  0  0  0  0  0  0  0  0  0  0
   -3.9737   20.5300  -31.3893 H   0  0  0  0  0  0  0  0  0  0  0  0
   -2.1985   20.7240  -31.6595 H   0  0  0  0  0  0  0  0  0  0  0  0
   -2.3430   22.9910  -31.2170 H   0  0  0  0  0  0  0  0  0  0  0  0
   -5.8047   21.7008  -31.8488 H   0  0  0  0  0  0  0  0  0  0  0  0
   -7.7499   25.1118  -30.0330 H   0  0  0  0  0  0  0  0  0  0  0  0
   -5.5345   26.0775  -29.4601 H   0  0  0  0  0  0  0  0  0  0  0  0
   -2.7454   24.7505  -28.0047 H   0  0  0  0  0  0  0  0  0  0  0  0
   -2.1833   23.4088  -29.0586 H   0  0  0  0  0  0  0  0  0  0  0  0
   -1.3085   24.9778  -29.0586 H   0  0  0  0  0  0  0  0  0  0  0  0
  1  2  1  0
  2  3  1  0
  3  4  1  0
  4  5  1  0
  3  6  1  0
  6  7  1  0
  7  8  1  0
  8  9  1  0
  9 10  1  0
 10 11  1  0
 11 12  1  0
 12 13  1  0
 13 14  1  0
 14 15  1  0
 15 16  2  0
 16 17  1  0
 17 18  1  0
 18 19  2  0
 18 20  1  0
 17 21  2  0
 21 22  1  0
 22 23  2  0
 23 24  1  0
 24 25  1  0
 23 15  1  0
  1 26  1  0
  1 27  1  0
  1 28  1  0
  2 29  1  0
  2 30  1  0
  3 31  1  0
  4 32  1  0
  4 33  1  0
  5 34  1  0
  5 35  1  0
  5 36  1  0
  6 37  1  0
  6 38  1  0
  7 39  1  0
  7 40  1  0
  9 41  1  0
  9 42  1  0
 10 43  1  0
 10 44  1  0
 12 45  1  0
 12 46  1  0
 13 47  1  0
 13 48  1  0
 14 49  1  0
 16 50  1  0
 21 51  1  0
 22 52  1  0
 25 53  1  0
 25 54  1  0
 25 55  1  0
M  CHG  3   3   1  18   1  20  -1
M  END
>  <UniqueID>  (14) 
14

>  <SMILES>  (14) 
CC[NH+](CC)CCOCCOCCNc1cc([N+](=O)[O-])ccc1OC

>  <Energy>  (14) 
57.48296827504063

>  <Genealogy>  (14) 
CC[NH+](CC)CCOCCOCCNc1cc([N+](=O)[O-])ccc1OC (protonated)
CC[NH+](CC)CCOCCOCCNc1cc([N+](=O)[O-])ccc1OC (3D coordinates assigned)
CC[NH+](CC)CCOCCOCCNc1cc([N+](=O)[O-])ccc1OC (optimized conformer: 57.48296827504063 kcal/mol)

>  <smiles>  (14) 
CCN(CC)CCOCCOCCNc1cc([N+](=O)[O-])ccc1OC

>  <score_type>  (14) 
oracle

>  <origin>  (14) 
adg

>  <m_score__min__energy>  (14) 
-5.0300000000000002

>  <m_primary>  (14) 
energy

$$$$
14:0
     RDKit          3D

 55 57  0  0  0  0  0  0  0  0999 V2000
    0.8690   24.1550  -36.0920 C   0  0  0  0  0  0  0  0  0  0  0  0
    1.0810   22.6460  -35.9460 C   0  0  0  0  0  0  0  0  0  0  0  0
    0.0820   22.0320  -35.0400 N   0  0  0  0  0  0  0  0  0  0  0  0
    0.5210   20.7440  -34.4730 C   0  0  0  0  0  0  0  0  0  0  0  0
   -0.4820   19.6110  -34.7490 C   0  0  0  0  0  0  0  0  0  0  0  0
   -1.8640   19.9490  -34.1800 C   0  0  0  0  0  0  0  0  0  0  0  0
   -1.9170   21.3670  -33.8110 N   0  0  0  0  0  0  0  0  0  0  0  0
   -2.0710   21.5280  -32.3600 C   0  0  0  0  0  0  0  0  0  0  0  0
   -3.5540   21.6490  -31.9980 C   0  0  0  0  0  0  0  0  0  0  0  0
   -4.4070   21.3810  -33.1600 N   0  0  0  0  0  0  0  0  0  0  0  0
   -5.6500   20.6690  -33.0390 C   0  0  0  0  0  0  0  0  0  0  0  0
   -5.7140   19.3140  -33.4060 C   0  0  0  0  0  0  0  0  0  0  0  0
   -4.6230   18.6880  -34.0490 C   0  0  0  0  0  0  0  0  0  0  0  0
   -4.6850   17.3450  -34.4090 C   0  0  0  0  0  0  0  0  0  0  0  0
   -5.8380   16.6090  -34.1590 C   0  0  0  0  0  0  0  0  0  0  0  0
   -6.9290   17.2080  -33.5300 C   0  0  0  0  0  0  0  0  0  0  0  0
   -6.8810   18.5630  -33.1090 C   0  0  0  0  0  0  0  0  0  0  0  0
   -7.9270   19.1520  -32.4260 N   0  0  0  0  0  0  0  0  0  0  0  0
   -9.0050   18.3150  -31.8540 C   0  0  0  0  0  0  0  0  0  0  0  0
   -7.9600   20.5250  -32.2630 C   0  0  0  0  0  0  0  0  0  0  0  0
   -9.1350   21.1920  -31.8310 C   0  0  0  0  0  0  0  0  0  0  0  0
   -9.1560   22.5720  -31.6490 C   0  0  0  0  0  0  0  0  0  0  0  0
   -8.0220   23.3290  -31.9120 C   0  0  0  0  0  0  0  0  0  0  0  0
   -6.8580   22.7160  -32.3720 C   0  0  0  0  0  0  0  0  0  0  0  0
   -5.8140   23.5200  -32.6960 F   0  0  0  0  0  0  0  0  0  0  0  0
   -6.8070   21.3100  -32.5500 C   0  0  0  0  0  0  0  0  0  0  0  0
    0.8045   24.6144  -35.0946 H   0  0  0  0  0  0  0  0  0  0  0  0
    1.7145   24.5924  -36.6432 H   0  0  0  0  0  0  0  0  0  0  0  0
   -0.0643   24.3425  -36.6432 H   0  0  0  0  0  0  0  0  0  0  0  0
    0.9968   22.1776  -36.9377 H   0  0  0  0  0  0  0  0  0  0  0  0
    2.0790   22.4826  -35.5133 H   0  0  0  0  0  0  0  0  0  0  0  0
   -0.1910   22.6800  -34.2640 H   0  0  0  0  0  0  0  0  0  0  0  0
   -0.7870   21.8440  -35.5930 H   0  0  0  0  0  0  0  0  0  0  0  0
    1.4903   20.4741  -34.9175 H   0  0  0  0  0  0  0  0  0  0  0  0
    0.5984   20.8659  -33.3825 H   0  0  0  0  0  0  0  0  0  0  0  0
   -0.5670   19.4629  -35.8357 H   0  0  0  0  0  0  0  0  0  0  0  0
   -0.1175   18.6945  -34.2620 H   0  0  0  0  0  0  0  0  0  0  0  0
   -2.6323   19.7404  -34.9391 H   0  0  0  0  0  0  0  0  0  0  0  0
   -2.0486   19.3345  -33.2865 H   0  0  0  0  0  0  0  0  0  0  0  0
   -2.7510   21.8000  -34.2770 H   0  0  0  0  0  0  0  0  0  0  0  0
   -1.6421   20.6531  -31.8494 H   0  0  0  0  0  0  0  0  0  0  0  0
   -1.5472   22.4414  -32.0417 H   0  0  0  0  0  0  0  0  0  0  0  0
   -3.7900   20.9243  -31.2049 H   0  0  0  0  0  0  0  0  0  0  0  0
   -3.7460   22.6762  -31.6545 H   0  0  0  0  0  0  0  0  0  0  0  0
   -4.0840   21.6750  -34.1080 H   0  0  0  0  0  0  0  0  0  0  0  0
   -3.7145   19.2684  -34.2676 H   0  0  0  0  0  0  0  0  0  0  0  0
   -3.8209   16.8652  -34.8919 H   0  0  0  0  0  0  0  0  0  0  0  0
   -5.8896   15.5517  -34.4581 H   0  0  0  0  0  0  0  0  0  0  0  0
   -7.8427   16.6204  -33.3570 H   0  0  0  0  0  0  0  0  0  0  0  0
   -8.9555   18.3535  -30.7558 H   0  0  0  0  0  0  0  0  0  0  0  0
   -9.9812   18.6941  -32.1905 H   0  0  0  0  0  0  0  0  0  0  0  0
   -8.8796   17.2753  -32.1905 H   0  0  0  0  0  0  0  0  0  0  0  0
  -10.0465   20.6079  -31.6362 H   0  0  0  0  0  0  0  0  0  0  0  0
  -10.0740   23.0644  -31.2957 H   0  0  0  0  0  0  0  0  0  0  0  0
   -8.0425   24.4178  -31.7565 H   0  0  0  0  0  0  0  0  0  0  0  0
  1  2  1  0
  2  3  1  0
  3  4  1  0
  4  5  1  0
  5  6  1  0
  6  7  1  0
  7  8  1  0
  8  9  1  0
  9 10  1  0
 10 11  1  0
 11 12  2  0
 12 13  1  0
 13 14  2  0
 14 15  1  0
 15 16  2  0
 16 17  1  0
 17 18  2  0
 18 19  1  0
 18 20  1  0
 20 21  2  0
 21 22  1  0
 22 23  2  0
 23 24  1  0
 24 25  1  0
 24 26  2  0
 26 11  1  0
 17 12  1  0
 26 20  1  0
  1 27  1  0
  1 28  1  0
  1 29  1  0
  2 30  1  0
  2 31  1  0
  3 32  1  0
  3 33  1  0
  4 34  1  0
  4 35  1  0
  5 36  1  0
  5 37  1  0
  6 38  1  0
  6 39  1  0
  7 40  1  0
  8 41  1  0
  8 42  1  0
  9 43  1  0
  9 44  1  0
 10 45  1  0
 13 46  1  0
 14 47  1  0
 15 48  1  0
 16 49  1  0
 19 50  1  0
 19 51  1  0
 19 52  1  0
 21 53  1  0
 22 54  1  0
 23 55  1  0
M  CHG  2   3   1  18   1
M  END
>  <UniqueID>  (15) 
15

>  <SMILES>  (15) 
CC[NH2+]CCCNCCNc1c2ccccc2[n+](C)c2cccc(F)c12

>  <Energy>  (15) 
73.09812022547696

>  <Genealogy>  (15) 
CC[NH2+]CCCNCCNc1c2ccccc2[n+](C)c2cccc(F)c12 (protonated)
CC[NH2+]CCCNCCNc1c2ccccc2[n+](C)c2cccc(F)c12 (3D coordinates assigned)
CC[NH2+]CCCNCCNc1c2ccccc2[n+](C)c2cccc(F)c12 (optimized conformer: 73.09812022547696 kcal/mol)

>  <smiles>  (15) 
CCNCCCNCCNc1c2ccccc2[n+](C)c2cccc(F)c12

>  <score_type>  (15) 
oracle

>  <origin>  (15) 
adg

>  <m_score__min__energy>  (15) 
-8.0800000000000001

>  <m_primary>  (15) 
energy

$$$$
15:0
     RDKit          3D

 52 56  0  0  0  0  0  0  0  0999 V2000
   -8.3610   21.2270  -31.2070 C   0  0  0  0  0  0  0  0  0  0  0  0
   -7.2550   20.8140  -32.0710 N   0  0  0  0  0  0  0  0  0  0  0  0
   -6.2020   21.5690  -32.4930 C   0  0  0  0  0  0  0  0  0  0  0  0
   -6.0180   23.0270  -32.1810 C   0  0  0  0  0  0  0  0  0  0  0  0
   -5.5430   23.2020  -30.7940 N   0  0  0  0  0  0  0  0  0  0  0  0
   -6.1470   24.4110  -30.1870 C   0  0  0  0  0  0  0  0  0  0  0  0
   -5.3500   24.9230  -28.9710 C   0  0  0  0  0  0  0  0  0  0  0  0
   -4.6090   23.8220  -28.3230 N   0  0  0  0  0  0  0  0  0  0  0  0
   -3.8210   24.3080  -27.1760 C   0  0  0  0  0  0  0  0  0  0  0  0
   -2.3310   24.1330  -27.4960 C   0  0  2  0  0  0  0  0  0  0  0  0
   -1.5880   25.3260  -27.2300 O   0  0  0  0  0  0  0  0  0  0  0  0
   -1.2260   25.7830  -25.9530 C   0  0  0  0  0  0  0  0  0  0  0  0
   -1.2730   27.1350  -25.5760 C   0  0  0  0  0  0  0  0  0  0  0  0
   -0.9020   27.5020  -24.3230 N   0  0  0  0  0  0  0  0  0  0  0  0
   -0.4870   26.5800  -23.4160 C   0  0  0  0  0  0  0  0  0  0  0  0
   -0.4380   25.2640  -23.7560 N   0  0  0  0  0  0  0  0  0  0  0  0
   -0.7990   24.8540  -25.0000 C   0  0  0  0  0  0  0  0  0  0  0  0
   -2.2850   23.8080  -28.9740 C   0  0  0  0  0  0  0  0  0  0  0  0
   -3.6460   23.1870  -29.2450 C   0  0  2  0  0  0  0  0  0  0  0  0
   -4.0720   23.2720  -30.7260 C   0  0  0  0  0  0  0  0  0  0  0  0
   -5.3150   20.8780  -33.2570 N   0  0  0  0  0  0  0  0  0  0  0  0
   -5.8400   19.6400  -33.2900 C   0  0  0  0  0  0  0  0  0  0  0  0
   -5.3190   18.5190  -33.9280 C   0  0  0  0  0  0  0  0  0  0  0  0
   -6.0290   17.3090  -33.8130 C   0  0  0  0  0  0  0  0  0  0  0  0
   -7.2280   17.2530  -33.0680 C   0  0  0  0  0  0  0  0  0  0  0  0
   -7.7290   18.4050  -32.4320 C   0  0  0  0  0  0  0  0  0  0  0  0
   -7.0020   19.5910  -32.5710 C   0  0  0  0  0  0  0  0  0  0  0  0
   -8.0644   21.1162  -30.1535 H   0  0  0  0  0  0  0  0  0  0  0  0
   -8.6109   22.2790  -31.4089 H   0  0  0  0  0  0  0  0  0  0  0  0
   -9.2393   20.5962  -31.4089 H   0  0  0  0  0  0  0  0  0  0  0  0
   -5.2786   23.4551  -32.8738 H   0  0  0  0  0  0  0  0  0  0  0  0
   -6.9844   23.5402  -32.2940 H   0  0  0  0  0  0  0  0  0  0  0  0
   -6.1822   25.2065  -30.9459 H   0  0  0  0  0  0  0  0  0  0  0  0
   -7.1541   24.1410  -29.8365 H   0  0  0  0  0  0  0  0  0  0  0  0
   -4.6356   25.6895  -29.3058 H   0  0  0  0  0  0  0  0  0  0  0  0
   -6.0562   25.3472  -28.2421 H   0  0  0  0  0  0  0  0  0  0  0  0
   -4.0398   25.3716  -27.0002 H   0  0  0  0  0  0  0  0  0  0  0  0
   -4.0808   23.7366  -26.2727 H   0  0  0  0  0  0  0  0  0  0  0  0
   -1.8794   23.3471  -26.8728 H   0  0  0  0  0  0  0  0  0  0  0  0
   -1.6101   27.8958  -26.2954 H   0  0  0  0  0  0  0  0  0  0  0  0
   -0.1903   26.8979  -22.4056 H   0  0  0  0  0  0  0  0  0  0  0  0
   -0.1180   24.5610  -23.0530 H   0  0  0  0  0  0  0  0  0  0  0  0
   -0.7550   23.7857  -25.2584 H   0  0  0  0  0  0  0  0  0  0  0  0
   -2.1430   24.7199  -29.5726 H   0  0  0  0  0  0  0  0  0  0  0  0
   -1.4505   23.1425  -29.2399 H   0  0  0  0  0  0  0  0  0  0  0  0
   -3.6061   22.1043  -29.0548 H   0  0  0  0  0  0  0  0  0  0  0  0
   -3.7253   24.2224  -31.1579 H   0  0  0  0  0  0  0  0  0  0  0  0
   -3.6283   22.4412  -31.2942 H   0  0  0  0  0  0  0  0  0  0  0  0
   -4.3832   18.5762  -34.5033 H   0  0  0  0  0  0  0  0  0  0  0  0
   -5.6482   16.4023  -34.3058 H   0  0  0  0  0  0  0  0  0  0  0  0
   -7.7745   16.3020  -32.9841 H   0  0  0  0  0  0  0  0  0  0  0  0
   -8.6596   18.3729  -31.8464 H   0  0  0  0  0  0  0  0  0  0  0  0
  1  2  1  0
  2  3  1  0
  3  4  1  0
  4  5  1  0
  5  6  1  0
  6  7  1  0
  7  8  1  0
  8  9  1  0
  9 10  1  0
 10 11  1  0
 11 12  1  0
 12 13  2  0
 13 14  1  0
 14 15  2  0
 15 16  1  0
 16 17  2  0
 10 18  1  0
 18 19  1  0
 19 20  1  0
  3 21  2  0
 21 22  1  0
 22 23  2  0
 23 24  1  0
 24 25  2  0
 25 26  1  0
 26 27  2  0
 27  2  1  0
 20  5  1  0
 27 22  1  0
 19  8  1  0
 17 12  1  0
  1 28  1  0
  1 29  1  0
  1 30  1  0
  4 31  1  0
  4 32  1  0
  6 33  1  0
  6 34  1  0
  7 35  1  0
  7 36  1  0
  9 37  1  0
  9 38  1  0
 10 39  1  1
 13 40  1  0
 15 41  1  0
 16 42  1  0
 17 43  1  0
 18 44  1  0
 18 45  1  0
 19 46  1  1
 20 47  1  0
 20 48  1  0
 23 49  1  0
 24 50  1  0
 25 51  1  0
 26 52  1  0
M  CHG  1  16   1
M  END
>  <UniqueID>  (16) 
16

>  <SMILES>  (16) 
Cn1c(CN2CCN3C[C@H](Oc4cnc[nH+]c4)C[C@@H]3C2)nc2ccccc21

>  <Energy>  (16) 
105.37936866445732

>  <Genealogy>  (16) 
Cn1c(CN2CCN3CC(Oc4cnc[nH+]c4)CC3C2)nc2ccccc21 (protonated)
Cn1c(CN2CCN3C[C@H](Oc4cnc[nH+]c4)C[C@@H]3C2)nc2ccccc21 (chirality)
Cn1c(CN2CCN3C[C@H](Oc4cnc[nH+]c4)C[C@@H]3C2)nc2ccccc21 (3D coordinates assigned)
Cn1c(CN2CCN3C[C@H](Oc4cnc[nH+]c4)C[C@@H]3C2)nc2ccccc21 (nonaromatic ring conformer: 105.37936866445732 kcal/mol)

>  <smiles>  (16) 
Cn1c(CN2CCN3CC(Oc4cncnc4)CC3C2)nc2ccccc21

>  <score_type>  (16) 
oracle

>  <origin>  (16) 
adg

>  <m_score__min__energy>  (16) 
-9.2300000000000004

>  <m_primary>  (16) 
energy

$$$$
16:0
     RDKit          3D

 38 40  0  0  0  0  0  0  0  0999 V2000
   -8.1450   23.3280  -31.9370 C   0  0  0  0  0  0  0  0  0  0  0  0
   -9.0240   22.0730  -31.9920 C   0  0  0  0  0  0  0  0  0  0  0  0
   -9.8520   21.9230  -30.7100 C   0  0  0  0  0  0  0  0  0  0  0  0
   -8.1910   20.8320  -32.2530 C   0  0  0  0  0  0  0  0  0  0  0  0
   -8.7400   19.5580  -32.0320 C   0  0  0  0  0  0  0  0  0  0  0  0
   -7.9840   18.4080  -32.2670 C   0  0  0  0  0  0  0  0  0  0  0  0
   -6.6600   18.5040  -32.7320 C   0  0  0  0  0  0  0  0  0  0  0  0
   -5.8570   17.2810  -32.9820 C   0  0  0  0  0  0  0  0  0  0  0  0
   -5.2380   17.0730  -34.2470 C   0  0  0  0  0  0  0  0  0  0  0  0
   -4.4720   15.9180  -34.4960 C   0  0  0  0  0  0  0  0  0  0  0  0
   -4.3480   14.9910  -33.4640 C   0  0  0  0  0  0  0  0  0  0  0  0
   -4.9350   15.1820  -32.2480 C   0  0  0  0  0  0  0  0  0  0  0  0
   -5.6980   16.3100  -31.9630 C   0  0  0  0  0  0  0  0  0  0  0  0
   -4.6370   14.1510  -31.4370 N   0  0  0  0  0  0  0  0  0  0  0  0
   -3.8590   13.3390  -32.1950 C   0  0  0  0  0  0  0  0  0  0  0  0
   -3.6720   13.8270  -33.4470 N   0  0  0  0  0  0  0  0  0  0  0  0
   -2.8570   13.2470  -34.5070 C   0  0  0  0  0  0  0  0  0  0  0  0
   -6.1110   19.7780  -32.9530 C   0  0  0  0  0  0  0  0  0  0  0  0
   -6.8670   20.9290  -32.7160 C   0  0  0  0  0  0  0  0  0  0  0  0
   -7.9561   23.5977  -30.8874 H   0  0  0  0  0  0  0  0  0  0  0  0
   -7.1885   23.1281  -32.4421 H   0  0  0  0  0  0  0  0  0  0  0  0
   -8.6598   24.1586  -32.4421 H   0  0  0  0  0  0  0  0  0  0  0  0
   -9.7236   22.1897  -32.8328 H   0  0  0  0  0  0  0  0  0  0  0  0
   -9.1969   22.0417  -29.8344 H   0  0  0  0  0  0  0  0  0  0  0  0
  -10.6366   22.6936  -30.6880 H   0  0  0  0  0  0  0  0  0  0  0  0
  -10.3164   20.9261  -30.6880 H   0  0  0  0  0  0  0  0  0  0  0  0
   -9.7748   19.4656  -31.6706 H   0  0  0  0  0  0  0  0  0  0  0  0
   -8.4279   17.4178  -32.0868 H   0  0  0  0  0  0  0  0  0  0  0  0
   -5.3598   17.8248  -35.0407 H   0  0  0  0  0  0  0  0  0  0  0  0
   -3.9889   15.7538  -35.4705 H   0  0  0  0  0  0  0  0  0  0  0  0
   -6.1640   16.4438  -30.9756 H   0  0  0  0  0  0  0  0  0  0  0  0
   -4.9290   14.0100  -30.4460 H   0  0  0  0  0  0  0  0  0  0  0  0
   -3.4286   12.3926  -31.8357 H   0  0  0  0  0  0  0  0  0  0  0  0
   -2.0374   12.6638  -34.0619 H   0  0  0  0  0  0  0  0  0  0  0  0
   -3.4800   12.5880  -35.1296 H   0  0  0  0  0  0  0  0  0  0  0  0
   -2.4385   14.0515  -35.1296 H   0  0  0  0  0  0  0  0  0  0  0  0
   -5.0767   19.8704  -33.3159 H   0  0  0  0  0  0  0  0  0  0  0  0
   -6.4225   21.9195  -32.8932 H   0  0  0  0  0  0  0  0  0  0  0  0
  1  2  1  0
  2  3  1  0
  2  4  1  0
  4  5  2  0
  5  6  1  0
  6  7  2  0
  7  8  1  0
  8  9  2  0
  9 10  1  0
 10 11  2  0
 11 12  1  0
 12 13  2  0
 12 14  1  0
 14 15  2  0
 15 16  1  0
 16 17  1  0
  7 18  1  0
 18 19  2  0
 19  4  1  0
 13  8  1  0
 16 11  1  0
  1 20  1  0
  1 21  1  0
  1 22  1  0
  2 23  1  0
  3 24  1  0
  3 25  1  0
  3 26  1  0
  5 27  1  0
  6 28  1  0
  9 29  1  0
 10 30  1  0
 13 31  1  0
 14 32  1  0
 15 33  1  0
 17 34  1  0
 17 35  1  0
 17 36  1  0
 18 37  1  0
 19 38  1  0
M  CHG  1  14   1
M  END
>  <UniqueID>  (17) 
17

>  <SMILES>  (17) 
CC(C)c1ccc(-c2ccc3c(c2)[nH+]cn3C)cc1

>  <Energy>  (17) 
79.65350121799959

>  <Genealogy>  (17) 
CC(C)c1ccc(-c2ccc3c(c2)[nH+]cn3C)cc1 (protonated)
CC(C)c1ccc(-c2ccc3c(c2)[nH+]cn3C)cc1 (3D coordinates assigned)
CC(C)c1ccc(-c2ccc3c(c2)[nH+]cn3C)cc1 (optimized conformer: 79.65350121799959 kcal/mol)

>  <smiles>  (17) 
CC(C)c1ccc(-c2ccc3c(c2)ncn3C)cc1

>  <score_type>  (17) 
oracle

>  <origin>  (17) 
adg

>  <m_score__min__energy>  (17) 
-6.6200000000000001

>  <m_primary>  (17) 
energy

$$$$
17:0
     RDKit          3D

 31 34  0  0  0  0  0  0  0  0999 V2000
   -5.1040   17.0180  -33.8240 F   0  0  0  0  0  0  0  0  0  0  0  0
   -5.6460   18.2050  -33.4570 C   0  0  0  0  0  0  0  0  0  0  0  0
   -4.8550   19.3530  -33.4370 C   0  0  0  0  0  0  0  0  0  0  0  0
   -5.3930   20.5950  -33.0580 C   0  0  0  0  0  0  0  0  0  0  0  0
   -4.4730   21.7960  -33.0230 C   0  0  0  0  0  0  0  0  0  0  0  0
   -4.2490   22.2380  -31.6470 N   0  0  0  0  0  0  0  0  0  0  0  0
   -3.5620   21.5980  -30.6580 C   0  0  0  0  0  0  0  0  0  0  0  0
   -3.6280   22.2290  -29.4460 N   0  0  0  0  0  0  0  0  0  0  0  0
   -4.3950   23.2940  -29.7360 C   0  0  0  0  0  0  0  0  0  0  0  0
   -4.9190   24.3200  -28.9670 C   0  0  0  0  0  0  0  0  0  0  0  0
   -5.7390   25.1380  -29.7650 C   0  0  0  0  0  0  0  0  0  0  0  0
   -5.7970   24.5520  -31.3790 S   0  0  0  0  0  0  0  0  0  0  0  0
   -4.7580   23.2940  -31.0090 C   0  0  0  0  0  0  0  0  0  0  0  0
   -6.7640   20.6720  -32.6880 C   0  0  0  0  0  0  0  0  0  0  0  0
   -7.3720   21.8860  -32.2970 C   0  0  0  0  0  0  0  0  0  0  0  0
   -8.7200   21.9230  -31.9340 C   0  0  0  0  0  0  0  0  0  0  0  0
   -9.4870   20.7590  -31.9560 C   0  0  0  0  0  0  0  0  0  0  0  0
   -8.9120   19.5490  -32.3430 C   0  0  0  0  0  0  0  0  0  0  0  0
   -7.5580   19.4920  -32.7100 C   0  0  0  0  0  0  0  0  0  0  0  0
   -6.9890   18.2710  -33.0940 C   0  0  0  0  0  0  0  0  0  0  0  0
   -3.7947   19.2858  -33.7219 H   0  0  0  0  0  0  0  0  0  0  0  0
   -3.5082   21.5247  -33.4763 H   0  0  0  0  0  0  0  0  0  0  0  0
   -4.9426   22.6166  -33.5852 H   0  0  0  0  0  0  0  0  0  0  0  0
   -3.0069   20.6622  -30.8196 H   0  0  0  0  0  0  0  0  0  0  0  0
   -4.7236   24.4719  -27.8952 H   0  0  0  0  0  0  0  0  0  0  0  0
   -6.2706   26.0311  -29.4048 H   0  0  0  0  0  0  0  0  0  0  0  0
   -6.7775   22.8114  -32.2783 H   0  0  0  0  0  0  0  0  0  0  0  0
   -9.1788   22.8752  -31.6292 H   0  0  0  0  0  0  0  0  0  0  0  0
  -10.5479   20.7952  -31.6675 H   0  0  0  0  0  0  0  0  0  0  0  0
   -9.5226   18.6342  -32.3608 H   0  0  0  0  0  0  0  0  0  0  0  0
   -7.6056   17.3602  -33.1089 H   0  0  0  0  0  0  0  0  0  0  0  0
  1  2  1  0
  2  3  2  0
  3  4  1  0
  4  5  1  0
  5  6  1  0
  6  7  1  0
  7  8  2  0
  8  9  1  0
  9 10  1  0
 10 11  2  0
 11 12  1  0
 12 13  1  0
  4 14  2  0
 14 15  1  0
 15 16  2  0
 16 17  1  0
 17 18  2  0
 18 19  1  0
 19 20  2  0
 20  2  1  0
 13  6  1  0
 19 14  1  0
 13  9  2  0
  3 21  1  0
  5 22  1  0
  5 23  1  0
  7 24  1  0
 10 25  1  0
 11 26  1  0
 15 27  1  0
 16 28  1  0
 17 29  1  0
 18 30  1  0
 20 31  1  0
M  END
>  <UniqueID>  (18) 
18

>  <SMILES>  (18) 
Fc1cc(Cn2cnc3ccsc32)c2ccccc2c1

>  <Energy>  (18) 
119.83516057550571

>  <Genealogy>  (18) 
Fc1cc(Cn2cnc3ccsc32)c2ccccc2c1 (3D coordinates assigned)
Fc1cc(Cn2cnc3ccsc32)c2ccccc2c1 (optimized conformer: 119.83516057550571 kcal/mol)

>  <smiles>  (18) 
Fc1cc(Cn2cnc3ccsc32)c2ccccc2c1

>  <score_type>  (18) 
oracle

>  <origin>  (18) 
adg

>  <m_score__min__energy>  (18) 
-7.6900000000000004

>  <m_primary>  (18) 
energy

$$$$
18:0
     RDKit          3D

 61 62  0  0  0  0  0  0  0  0999 V2000
   -0.2400   18.3410  -27.7360 C   0  0  0  0  0  0  0  0  0  0  0  0
   -0.9500   19.6070  -28.2110 C   0  0  0  0  0  0  0  0  0  0  0  0
   -2.3130   19.6800  -27.6350 N   0  0  0  0  0  0  0  0  0  0  0  0
   -2.3960   18.9270  -26.3620 C   0  0  0  0  0  0  0  0  0  0  0  0
   -3.8470   18.5550  -26.0600 C   0  0  0  0  0  0  0  0  0  0  0  0
   -2.7430   21.0860  -27.4540 C   0  0  0  0  0  0  0  0  0  0  0  0
   -1.5260   22.0040  -27.3570 C   0  0  0  0  0  0  0  0  0  0  0  0
   -1.9360   23.2650  -26.8710 O   0  0  0  0  0  0  0  0  0  0  0  0
   -2.9180   23.8040  -27.7310 C   0  0  0  0  0  0  0  0  0  0  0  0
   -2.2370   24.6460  -28.8080 C   0  0  0  0  0  0  0  0  0  0  0  0
   -3.2000   25.1860  -29.7170 O   0  0  0  0  0  0  0  0  0  0  0  0
   -4.4090   24.5820  -30.1050 C   0  0  0  0  0  0  0  0  0  0  0  0
   -5.6490   25.1270  -29.7200 C   0  0  0  0  0  0  0  0  0  0  0  0
   -6.8460   24.5290  -30.1040 C   0  0  0  0  0  0  0  0  0  0  0  0
   -6.8380   23.3740  -30.8870 C   0  0  0  0  0  0  0  0  0  0  0  0
   -8.0470   22.7730  -31.2710 C   0  0  0  0  0  0  0  0  0  0  0  0
   -8.0400   21.6150  -32.0510 C   0  0  0  0  0  0  0  0  0  0  0  0
   -6.8300   21.0520  -32.4560 C   0  0  0  0  0  0  0  0  0  0  0  0
   -5.6190   21.6400  -32.0850 C   0  0  0  0  0  0  0  0  0  0  0  0
   -5.6040   22.8080  -31.2940 C   0  0  0  0  0  0  0  0  0  0  0  0
   -4.3850   23.4100  -30.9080 C   0  0  0  0  0  0  0  0  0  0  0  0
   -3.1930   22.8020  -31.3500 O   0  0  0  0  0  0  0  0  0  0  0  0
   -2.5270   21.6830  -30.7710 C   0  0  0  0  0  0  0  0  0  0  0  0
   -1.3500   21.2740  -31.6590 C   0  0  0  0  0  0  0  0  0  0  0  0
   -1.6800   21.4200  -33.0940 N   0  0  0  0  0  0  0  0  0  0  0  0
   -2.7520   20.4800  -33.4610 C   0  0  0  0  0  0  0  0  0  0  0  0
   -0.5010   21.1690  -33.9410 C   0  0  0  0  0  0  0  0  0  0  0  0
   -0.2273   18.3184  -26.6363 H   0  0  0  0  0  0  0  0  0  0  0  0
   -0.7740   17.4571  -28.1148 H   0  0  0  0  0  0  0  0  0  0  0  0
    0.7927   18.3357  -28.1148 H   0  0  0  0  0  0  0  0  0  0  0  0
   -0.3736   20.4877  -27.8915 H   0  0  0  0  0  0  0  0  0  0  0  0
   -1.0264   19.5838  -29.3081 H   0  0  0  0  0  0  0  0  0  0  0  0
   -1.7954   18.0091  -26.4435 H   0  0  0  0  0  0  0  0  0  0  0  0
   -2.0111   19.5578  -25.5472 H   0  0  0  0  0  0  0  0  0  0  0  0
   -3.9966   18.5166  -24.9709 H   0  0  0  0  0  0  0  0  0  0  0  0
   -4.5175   19.3103  -26.4959 H   0  0  0  0  0  0  0  0  0  0  0  0
   -4.0714   17.5703  -26.4959 H   0  0  0  0  0  0  0  0  0  0  0  0
   -3.3596   21.3903  -28.3126 H   0  0  0  0  0  0  0  0  0  0  0  0
   -3.3260   21.1652  -26.5246 H   0  0  0  0  0  0  0  0  0  0  0  0
   -0.7882   21.5661  -26.6686 H   0  0  0  0  0  0  0  0  0  0  0  0
   -1.0695   22.1205  -28.3510 H   0  0  0  0  0  0  0  0  0  0  0  0
   -3.4807   22.9861  -28.2048 H   0  0  0  0  0  0  0  0  0  0  0  0
   -3.6095   24.4341  -27.1524 H   0  0  0  0  0  0  0  0  0  0  0  0
   -1.6915   25.4720  -28.3283 H   0  0  0  0  0  0  0  0  0  0  0  0
   -1.5435   24.0038  -29.3706 H   0  0  0  0  0  0  0  0  0  0  0  0
   -5.6722   26.0395  -29.1062 H   0  0  0  0  0  0  0  0  0  0  0  0
   -7.8034   24.9693  -29.7885 H   0  0  0  0  0  0  0  0  0  0  0  0
   -9.0034   23.2160  -30.9563 H   0  0  0  0  0  0  0  0  0  0  0  0
   -8.9902   21.1461  -32.3465 H   0  0  0  0  0  0  0  0  0  0  0  0
   -6.8296   20.1399  -33.0709 H   0  0  0  0  0  0  0  0  0  0  0  0
   -4.6702   21.1894  -32.4118 H   0  0  0  0  0  0  0  0  0  0  0  0
   -2.1555   21.9543  -29.7718 H   0  0  0  0  0  0  0  0  0  0  0  0
   -3.2307   20.8420  -30.6849 H   0  0  0  0  0  0  0  0  0  0  0  0
   -0.4855   21.9123  -31.4238 H   0  0  0  0  0  0  0  0  0  0  0  0
   -1.1193   20.2165  -31.4627 H   0  0  0  0  0  0  0  0  0  0  0  0
   -3.2134   20.0754  -32.5480 H   0  0  0  0  0  0  0  0  0  0  0  0
   -3.5139   21.0064  -34.0546 H   0  0  0  0  0  0  0  0  0  0  0  0
   -2.3297   19.6558  -34.0546 H   0  0  0  0  0  0  0  0  0  0  0  0
    0.3756   20.9824  -33.3032 H   0  0  0  0  0  0  0  0  0  0  0  0
   -0.6862   20.2901  -34.5761 H   0  0  0  0  0  0  0  0  0  0  0  0
   -0.3121   22.0471  -34.5761 H   0  0  0  0  0  0  0  0  0  0  0  0
  1  2  1  0
  2  3  1  0
  3  4  1  0
  4  5  1  0
  3  6  1  0
  6  7  1  0
  7  8  1  0
  8  9  1  0
  9 10  1  0
 10 11  1  0
 11 12  1  0
 12 13  2  0
 13 14  1  0
 14 15  2  0
 15 16  1  0
 16 17  2  0
 17 18  1  0
 18 19  2  0
 19 20  1  0
 20 21  2  0
 21 22  1  0
 22 23  1  0
 23 24  1  0
 24 25  1  0
 25 26  1  0
 25 27  1  0
 21 12  1  0
 20 15  1  0
  1 28  1  0
  1 29  1  0
  1 30  1  0
  2 31  1  0
  2 32  1  0
  4 33  1  0
  4 34  1  0
  5 35  1  0
  5 36  1  0
  5 37  1  0
  6 38  1  0
  6 39  1  0
  7 40  1  0
  7 41  1  0
  9 42  1  0
  9 43  1  0
 10 44  1  0
 10 45  1  0
 13 46  1  0
 14 47  1  0
 16 48  1  0
 17 49  1  0
 18 50  1  0
 19 51  1  0
 23 52  1  0
 23 53  1  0
 24 54  1  0
 24 55  1  0
 26 56  1  0
 26 57  1  0
 26 58  1  0
 27 59  1  0
 27 60  1  0
 27 61  1  0
M  END
>  <UniqueID>  (19) 
19

>  <SMILES>  (19) 
CCN(CC)CCOCCOc1ccc2ccccc2c1OCCN(C)C

>  <Energy>  (19) 
60.87434212207498

>  <Genealogy>  (19) 
CCN(CC)CCOCCOc1ccc2ccccc2c1OCCN(C)C (3D coordinates assigned)
CCN(CC)CCOCCOc1ccc2ccccc2c1OCCN(C)C (optimized conformer: 60.87434212207498 kcal/mol)

>  <smiles>  (19) 
CCN(CC)CCOCCOc1ccc2ccccc2c1OCCN(C)C

>  <score_type>  (19) 
oracle

>  <origin>  (19) 
adg

>  <m_score__min__energy>  (19) 
-7.75

>  <m_primary>  (19) 
energy

$$$$
19:0
     RDKit          3D

 57 59  0  0  0  0  0  0  0  0999 V2000
   -2.8970   17.7440  -34.3030 C   0  0  0  0  0  0  0  0  0  0  0  0
   -1.6110   17.9340  -33.4990 C   0  0  0  0  0  0  0  0  0  0  0  0
   -1.5460   19.2840  -32.9000 N   0  0  0  0  0  0  0  0  0  0  0  0
   -0.4200   19.5150  -31.9610 C   0  0  0  0  0  0  0  0  0  0  0  0
   -0.5880   20.7390  -31.0570 C   0  0  0  0  0  0  0  0  0  0  0  0
   -1.8210   20.4080  -33.8290 C   0  0  0  0  0  0  0  0  0  0  0  0
   -3.0590   21.2540  -33.4600 C   0  0  0  0  0  0  0  0  0  0  0  0
   -3.7560   20.6780  -32.3110 N   0  0  0  0  0  0  0  0  0  0  0  0
   -5.1110   21.0560  -32.0250 C   0  0  0  0  0  0  0  0  0  0  0  0
   -5.3790   22.2780  -31.3880 C   0  0  0  0  0  0  0  0  0  0  0  0
   -4.3280   23.1490  -31.0320 C   0  0  0  0  0  0  0  0  0  0  0  0
   -4.5750   24.3370  -30.3440 C   0  0  0  0  0  0  0  0  0  0  0  0
   -3.4840   25.1580  -30.0170 O   0  0  0  0  0  0  0  0  0  0  0  0
   -2.5160   24.8490  -29.0190 C   0  0  0  0  0  0  0  0  0  0  0  0
   -5.8920   24.6620  -29.9950 C   0  0  0  0  0  0  0  0  0  0  0  0
   -6.9450   23.8200  -30.3510 C   0  0  0  0  0  0  0  0  0  0  0  0
   -6.7200   22.6290  -31.0850 C   0  0  0  0  0  0  0  0  0  0  0  0
   -7.7600   21.8070  -31.4830 N   0  0  0  0  0  0  0  0  0  0  0  0
   -9.1560   22.2950  -31.4130 C   0  0  0  0  0  0  0  0  0  0  0  0
   -7.4940   20.5420  -31.9750 C   0  0  0  0  0  0  0  0  0  0  0  0
   -8.5180   19.5780  -32.1530 C   0  0  0  0  0  0  0  0  0  0  0  0
   -8.2450   18.3270  -32.7080 C   0  0  0  0  0  0  0  0  0  0  0  0
   -6.9410   17.9930  -33.0960 C   0  0  0  0  0  0  0  0  0  0  0  0
   -6.6220   16.7560  -33.6770 O   0  0  0  0  0  0  0  0  0  0  0  0
   -5.5600   15.9110  -33.2430 C   0  0  0  0  0  0  0  0  0  0  0  0
   -5.9130   18.9150  -32.8930 C   0  0  0  0  0  0  0  0  0  0  0  0
   -6.1640   20.1700  -32.3010 C   0  0  0  0  0  0  0  0  0  0  0  0
   -3.7451   17.6187  -33.6138 H   0  0  0  0  0  0  0  0  0  0  0  0
   -3.0669   18.6268  -34.9369 H   0  0  0  0  0  0  0  0  0  0  0  0
   -2.8044   16.8498  -34.9369 H   0  0  0  0  0  0  0  0  0  0  0  0
   -1.5767   17.1835  -32.6955 H   0  0  0  0  0  0  0  0  0  0  0  0
   -0.7553   17.8149  -34.1799 H   0  0  0  0  0  0  0  0  0  0  0  0
   -0.3188   18.6263  -31.3207 H   0  0  0  0  0  0  0  0  0  0  0  0
    0.4698   19.7030  -32.5798 H   0  0  0  0  0  0  0  0  0  0  0  0
   -0.5450   20.4254  -30.0035 H   0  0  0  0  0  0  0  0  0  0  0  0
    0.2199   21.4577  -31.2590 H   0  0  0  0  0  0  0  0  0  0  0  0
   -1.5597   21.2134  -31.2590 H   0  0  0  0  0  0  0  0  0  0  0  0
   -0.9424   21.0698  -33.8374 H   0  0  0  0  0  0  0  0  0  0  0  0
   -2.0298   19.9588  -34.8112 H   0  0  0  0  0  0  0  0  0  0  0  0
   -2.7367   22.2759  -33.2114 H   0  0  0  0  0  0  0  0  0  0  0  0
   -3.7459   21.2682  -34.3190 H   0  0  0  0  0  0  0  0  0  0  0  0
   -3.3300   19.9020  -31.7560 H   0  0  0  0  0  0  0  0  0  0  0  0
   -3.2945   22.8865  -31.3020 H   0  0  0  0  0  0  0  0  0  0  0  0
   -2.9591   24.9904  -28.0222 H   0  0  0  0  0  0  0  0  0  0  0  0
   -2.1938   23.8033  -29.1320 H   0  0  0  0  0  0  0  0  0  0  0  0
   -1.6475   25.5146  -29.1320 H   0  0  0  0  0  0  0  0  0  0  0  0
   -6.0969   25.5873  -29.4366 H   0  0  0  0  0  0  0  0  0  0  0  0
   -7.9709   24.0857  -30.0561 H   0  0  0  0  0  0  0  0  0  0  0  0
   -9.4554   22.3997  -30.3597 H   0  0  0  0  0  0  0  0  0  0  0  0
   -9.2285   23.2718  -31.9136 H   0  0  0  0  0  0  0  0  0  0  0  0
   -9.8213   21.5761  -31.9136 H   0  0  0  0  0  0  0  0  0  0  0  0
   -9.5467   19.8205  -31.8481 H   0  0  0  0  0  0  0  0  0  0  0  0
   -9.0586   17.5988  -32.8416 H   0  0  0  0  0  0  0  0  0  0  0  0
   -5.5339   15.8902  -32.1435 H   0  0  0  0  0  0  0  0  0  0  0  0
   -5.7223   14.8924  -33.6252 H   0  0  0  0  0  0  0  0  0  0  0  0
   -4.6039   16.2980  -33.6252 H   0  0  0  0  0  0  0  0  0  0  0  0
   -4.8886   18.6580  -33.2004 H   0  0  0  0  0  0  0  0  0  0  0  0
  1  2  1  0
  2  3  1  0
  3  4  1  0
  4  5  1  0
  3  6  1  0
  6  7  1  0
  7  8  1  0
  8  9  1  0
  9 10  2  0
 10 11  1  0
 11 12  2  0
 12 13  1  0
 13 14  1  0
 12 15  1  0
 15 16  2  0
 16 17  1  0
 17 18  2  0
 18 19  1  0
 18 20  1  0
 20 21  2  0
 21 22  1  0
 22 23  2  0
 23 24  1  0
 24 25  1  0
 23 26  1  0
 26 27  2  0
 27  9  1  0
 17 10  1  0
 27 20  1  0
  1 28  1  0
  1 29  1  0
  1 30  1  0
  2 31  1  0
  2 32  1  0
  4 33  1  0
  4 34  1  0
  5 35  1  0
  5 36  1  0
  5 37  1  0
  6 38  1  0
  6 39  1  0
  7 40  1  0
  7 41  1  0
  8 42  1  0
 11 43  1  0
 14 44  1  0
 14 45  1  0
 14 46  1  0
 15 47  1  0
 16 48  1  0
 19 49  1  0
 19 50  1  0
 19 51  1  0
 21 52  1  0
 22 53  1  0
 25 54  1  0
 25 55  1  0
 25 56  1  0
 26 57  1  0
M  CHG  1  18   1
M  END
>  <UniqueID>  (20) 
20

>  <SMILES>  (20) 
CCN(CC)CCNc1c2cc(OC)ccc2[n+](C)c2ccc(OC)cc12

>  <Energy>  (20) 
87.82899993162047

>  <Genealogy>  (20) 
CCN(CC)CCNc1c2cc(OC)ccc2[n+](C)c2ccc(OC)cc12 (3D coordinates assigned)
CCN(CC)CCNc1c2cc(OC)ccc2[n+](C)c2ccc(OC)cc12 (optimized conformer: 87.82899993162047 kcal/mol)

>  <smiles>  (20) 
CCN(CC)CCNc1c2cc(OC)ccc2[n+](C)c2ccc(OC)cc12

>  <score_type>  (20) 
oracle

>  <origin>  (20) 
adg

>  <m_score__min__energy>  (20) 
-8.0199999999999996

>  <m_primary>  (20) 
energy

$$$$
20:0
     RDKit          3D

 47 49  0  0  0  0  0  0  0  0999 V2000
   -3.7550   24.5440  -26.8250 C   0  0  0  0  0  0  0  0  0  0  0  0
   -4.2610   24.1250  -28.2090 C   0  0  0  0  0  0  0  0  0  0  0  0
   -5.3810   24.9680  -28.6690 N   0  0  0  0  0  0  0  0  0  0  0  0
   -5.3200   25.2670  -30.1190 C   0  0  0  0  0  0  0  0  0  0  0  0
   -6.0470   24.2210  -30.9940 C   0  0  0  0  0  0  0  0  0  0  0  0
   -5.2240   22.9510  -31.2750 C   0  0  0  0  0  0  0  0  0  0  0  0
   -5.4270   22.4490  -32.6350 N   0  0  0  0  0  0  0  0  0  0  0  0
   -5.5250   21.0350  -32.8770 C   0  0  0  0  0  0  0  0  0  0  0  0
   -6.7270   20.3480  -32.6330 C   0  0  0  0  0  0  0  0  0  0  0  0
   -7.8650   21.0260  -32.1480 C   0  0  0  0  0  0  0  0  0  0  0  0
   -9.0350   20.3330  -31.8500 C   0  0  0  0  0  0  0  0  0  0  0  0
   -9.0900   18.9560  -32.0200 C   0  0  0  0  0  0  0  0  0  0  0  0
   -7.9870   18.2670  -32.5250 C   0  0  0  0  0  0  0  0  0  0  0  0
   -6.7960   18.9510  -32.8820 C   0  0  0  0  0  0  0  0  0  0  0  0
   -5.7210   18.2910  -33.4490 N   0  0  0  0  0  0  0  0  0  0  0  0
   -5.8890   16.9170  -33.9740 C   0  0  0  0  0  0  0  0  0  0  0  0
   -4.4970   18.9250  -33.5520 C   0  0  0  0  0  0  0  0  0  0  0  0
   -3.3140   18.2160  -33.8820 C   0  0  0  0  0  0  0  0  0  0  0  0
   -2.0940   18.8750  -34.0270 C   0  0  0  0  0  0  0  0  0  0  0  0
   -2.0130   20.2490  -33.8320 C   0  0  0  0  0  0  0  0  0  0  0  0
   -0.4740   21.0730  -34.0140 Cl  0  0  0  0  0  0  0  0  0  0  0  0
   -3.1500   20.9690  -33.4660 C   0  0  0  0  0  0  0  0  0  0  0  0
   -4.3930   20.3200  -33.3050 C   0  0  0  0  0  0  0  0  0  0  0  0
   -4.3555   24.0467  -26.0490 H   0  0  0  0  0  0  0  0  0  0  0  0
   -2.7003   24.2513  -26.7161 H   0  0  0  0  0  0  0  0  0  0  0  0
   -3.8459   25.6348  -26.7161 H   0  0  0  0  0  0  0  0  0  0  0  0
   -3.4342   24.2096  -28.9295 H   0  0  0  0  0  0  0  0  0  0  0  0
   -4.6238   23.0890  -28.1377 H   0  0  0  0  0  0  0  0  0  0  0  0
   -5.3760   25.8670  -28.1330 H   0  0  0  0  0  0  0  0  0  0  0  0
   -6.2820   24.4970  -28.4250 H   0  0  0  0  0  0  0  0  0  0  0  0
   -5.7842   26.2491  -30.2920 H   0  0  0  0  0  0  0  0  0  0  0  0
   -4.2590   25.2509  -30.4089 H   0  0  0  0  0  0  0  0  0  0  0  0
   -6.9732   23.9250  -30.4797 H   0  0  0  0  0  0  0  0  0  0  0  0
   -6.2335   24.6983  -31.9674 H   0  0  0  0  0  0  0  0  0  0  0  0
   -4.1574   23.1829  -31.1387 H   0  0  0  0  0  0  0  0  0  0  0  0
   -5.5574   22.1712  -30.5744 H   0  0  0  0  0  0  0  0  0  0  0  0
   -5.1960   23.0540  -33.4550 H   0  0  0  0  0  0  0  0  0  0  0  0
   -7.8274   22.1158  -32.0035 H   0  0  0  0  0  0  0  0  0  0  0  0
   -9.9166   20.8767  -31.4796 H   0  0  0  0  0  0  0  0  0  0  0  0
  -10.0058   18.4069  -31.7558 H   0  0  0  0  0  0  0  0  0  0  0  0
   -8.0414   17.1753  -32.6485 H   0  0  0  0  0  0  0  0  0  0  0  0
   -5.9752   16.2116  -33.1343 H   0  0  0  0  0  0  0  0  0  0  0  0
   -6.7998   16.8682  -34.5889 H   0  0  0  0  0  0  0  0  0  0  0  0
   -5.0168   16.6502  -34.5889 H   0  0  0  0  0  0  0  0  0  0  0  0
   -3.3598   17.1264  -34.0262 H   0  0  0  0  0  0  0  0  0  0  0  0
   -1.1923   18.3057  -34.2967 H   0  0  0  0  0  0  0  0  0  0  0  0
   -3.0773   22.0541  -33.3011 H   0  0  0  0  0  0  0  0  0  0  0  0
  1  2  1  0
  2  3  1  0
  3  4  1  0
  4  5  1  0
  5  6  1  0
  6  7  1  0
  7  8  1  0
  8  9  2  0
  9 10  1  0
 10 11  2  0
 11 12  1  0
 12 13  2  0
 13 14  1  0
 14 15  2  0
 15 16  1  0
 15 17  1  0
 17 18  2  0
 18 19  1  0
 19 20  2  0
 20 21  1  0
 20 22  1  0
 22 23  2  0
 23  8  1  0
 14  9  1  0
 23 17  1  0
  1 24  1  0
  1 25  1  0
  1 26  1  0
  2 27  1  0
  2 28  1  0
  3 29  1  0
  3 30  1  0
  4 31  1  0
  4 32  1  0
  5 33  1  0
  5 34  1  0
  6 35  1  0
  6 36  1  0
  7 37  1  0
 10 38  1  0
 11 39  1  0
 12 40  1  0
 13 41  1  0
 16 42  1  0
 16 43  1  0
 16 44  1  0
 18 45  1  0
 19 46  1  0
 22 47  1  0
M  CHG  2   3   1  15   1
M  END
>  <UniqueID>  (21) 
21

>  <SMILES>  (21) 
CC[NH2+]CCCNc1c2ccccc2[n+](C)c2ccc(Cl)cc12

>  <Energy>  (21) 
74.58528207447672

>  <Genealogy>  (21) 
CC[NH2+]CCCNc1c2ccccc2[n+](C)c2ccc(Cl)cc12 (protonated)
CC[NH2+]CCCNc1c2ccccc2[n+](C)c2ccc(Cl)cc12 (3D coordinates assigned)
CC[NH2+]CCCNc1c2ccccc2[n+](C)c2ccc(Cl)cc12 (optimized conformer: 74.58528207447672 kcal/mol)

>  <smiles>  (21) 
CCNCCCNc1c2ccccc2[n+](C)c2ccc(Cl)cc12

>  <score_type>  (21) 
oracle

>  <origin>  (21) 
adg

>  <m_score__min__energy>  (21) 
-8.0399999999999991

>  <m_primary>  (21) 
energy

$$$$
21:0
     RDKit          3D

 50 52  0  0  0  0  0  0  0  0999 V2000
   -4.4415   21.8021  -34.1172 H   0  0  0  0  0  0  0  0  0  0  0  0
   -4.4310   20.9930  -33.3720 C   0  0  0  0  0  0  0  0  0  0  0  0
   -3.3390   20.7470  -32.7130 N   0  0  0  0  0  0  0  0  0  0  0  0
   -2.4450   21.8020  -32.2350 C   0  0  0  0  0  0  0  0  0  0  0  0
   -2.3833   22.5854  -33.0047 H   0  0  0  0  0  0  0  0  0  0  0  0
   -1.4651   21.3417  -32.0405 H   0  0  0  0  0  0  0  0  0  0  0  0
   -2.9250   22.4430  -30.9180 C   0  0  0  0  0  0  0  0  0  0  0  0
   -2.0960   23.0271  -30.4918 H   0  0  0  0  0  0  0  0  0  0  0  0
   -3.2406   21.6247  -30.2541 H   0  0  0  0  0  0  0  0  0  0  0  0
   -4.1350   23.3740  -31.0990 C   0  0  0  0  0  0  0  0  0  0  0  0
   -5.0215   22.9022  -30.6501 H   0  0  0  0  0  0  0  0  0  0  0  0
   -4.2890   23.5413  -32.1752 H   0  0  0  0  0  0  0  0  0  0  0  0
   -3.9020   24.6860  -30.4470 N   0  0  0  0  0  0  0  0  0  0  0  0
   -3.5130   24.5050  -29.0290 C   0  0  0  0  0  0  0  0  0  0  0  0
   -3.6773   23.4554  -28.7436 H   0  0  0  0  0  0  0  0  0  0  0  0
   -4.1276   25.1770  -28.4120 H   0  0  0  0  0  0  0  0  0  0  0  0
   -2.0420   24.8570  -28.8070 C   0  0  0  0  0  0  0  0  0  0  0  0
   -1.8357   24.9064  -27.7277 H   0  0  0  0  0  0  0  0  0  0  0  0
   -1.4069   24.0855  -29.2668 H   0  0  0  0  0  0  0  0  0  0  0  0
   -1.8250   25.8324  -29.2668 H   0  0  0  0  0  0  0  0  0  0  0  0
   -5.1200   25.5310  -30.5460 C   0  0  0  0  0  0  0  0  0  0  0  0
   -4.8877   26.5418  -30.1797 H   0  0  0  0  0  0  0  0  0  0  0  0
   -5.4378   25.5671  -31.5985 H   0  0  0  0  0  0  0  0  0  0  0  0
   -6.2580   24.9470  -29.7130 C   0  0  0  0  0  0  0  0  0  0  0  0
   -6.0278   25.0651  -28.6439 H   0  0  0  0  0  0  0  0  0  0  0  0
   -7.1932   25.4766  -29.9474 H   0  0  0  0  0  0  0  0  0  0  0  0
   -6.3731   23.8784  -29.9474 H   0  0  0  0  0  0  0  0  0  0  0  0
   -5.6680   20.2000  -33.1370 C   0  0  0  0  0  0  0  0  0  0  0  0
   -5.6730   18.8080  -33.4300 C   0  0  0  0  0  0  0  0  0  0  0  0
   -4.5530   18.1450  -33.9860 C   0  0  0  0  0  0  0  0  0  0  0  0
   -3.6380   18.7149  -34.2049 H   0  0  0  0  0  0  0  0  0  0  0  0
   -4.5950   16.7770  -34.2600 C   0  0  0  0  0  0  0  0  0  0  0  0
   -3.7122   16.2759  -34.6838 H   0  0  0  0  0  0  0  0  0  0  0  0
   -5.7500   16.0440  -33.9990 C   0  0  0  0  0  0  0  0  0  0  0  0
   -5.7753   14.9646  -34.2092 H   0  0  0  0  0  0  0  0  0  0  0  0
   -6.8730   16.6770  -33.4720 C   0  0  0  0  0  0  0  0  0  0  0  0
   -7.7851   16.0948  -33.2741 H   0  0  0  0  0  0  0  0  0  0  0  0
   -6.8500   18.0540  -33.1910 C   0  0  0  0  0  0  0  0  0  0  0  0
   -7.9660   18.6580  -32.6990 N   0  0  0  0  0  0  0  0  0  0  0  0
   -8.8250   18.0820  -32.5360 H   0  0  0  0  0  0  0  0  0  0  0  0
   -7.9990   19.9870  -32.4130 C   0  0  0  0  0  0  0  0  0  0  0  0
   -9.1780   20.5570  -31.9020 C   0  0  0  0  0  0  0  0  0  0  0  0
  -10.0698   19.9292  -31.7582 H   0  0  0  0  0  0  0  0  0  0  0  0
   -9.2260   21.9120  -31.5760 C   0  0  0  0  0  0  0  0  0  0  0  0
  -10.1546   22.3513  -31.1827 H   0  0  0  0  0  0  0  0  0  0  0  0
   -8.0970   22.7080  -31.7490 C   0  0  0  0  0  0  0  0  0  0  0  0
   -8.1320   23.7746  -31.4821 H   0  0  0  0  0  0  0  0  0  0  0  0
   -6.9210   22.1570  -32.2600 C   0  0  0  0  0  0  0  0  0  0  0  0
   -6.0349   22.7962  -32.3872 H   0  0  0  0  0  0  0  0  0  0  0  0
   -6.8500   20.7940  -32.6160 C   0  0  0  0  0  0  0  0  0  0  0  0
  1  2  1  0
  2  3  2  0
  3  4  1  0
  4  5  1  0
  4  6  1  0
  4  7  1  0
  7  8  1  0
  7  9  1  0
  7 10  1  0
 10 11  1  0
 10 12  1  0
 10 13  1  0
 13 14  1  0
 14 15  1  0
 14 16  1  0
 14 17  1  0
 17 18  1  0
 17 19  1  0
 17 20  1  0
 13 21  1  0
 21 22  1  0
 21 23  1  0
 21 24  1  0
 24 25  1  0
 24 26  1  0
 24 27  1  0
  2 28  1  0
 28 29  2  0
 29 30  1  0
 30 31  1  0
 30 32  2  0
 32 33  1  0
 32 34  1  0
 34 35  1  0
 34 36  2  0
 36 37  1  0
 36 38  1  0
 38 39  2  0
 39 40  1  0
 39 41  1  0
 41 42  2  0
 42 43  1  0
 42 44  1  0
 44 45  1  0
 44 46  2  0
 46 47  1  0
 46 48  1  0
 48 49  1  0
 48 50  2  0
 50 28  1  0
 38 29  1  0
 50 41  1  0
M  CHG  1  39   1
M  END
>  <UniqueID>  (22) 
22

>  <SMILES>  (22) 
CCN(CC)CCC/N=C/c1c2ccccc2[nH+]c2ccccc12

>  <Energy>  (22) 
61.98994699981759

>  <Genealogy>  (22) 
CCN(CC)CCCN=Cc1c2ccccc2[nH+]c2ccccc12 (protonated)
CCN(CC)CCC/N=C/c1c2ccccc2[nH+]c2ccccc12 (cis-trans isomerization)
CCN(CC)CCC/N=C/c1c2ccccc2[nH+]c2ccccc12 (3D coordinates assigned)
CCN(CC)CCC/N=C/c1c2ccccc2[nH+]c2ccccc12 (optimized conformer: 61.98994699981759 kcal/mol)

>  <smiles>  (22) 
CCN(CC)CCCN=Cc1c2ccccc2nc2ccccc12

>  <score_type>  (22) 
oracle

>  <origin>  (22) 
adg

>  <m_score__min__energy>  (22) 
-8.0299999999999994

>  <m_primary>  (22) 
energy

$$$$
22:0
     RDKit          3D

 71 74  0  0  0  0  0  0  0  0999 V2000
   -3.3120   24.1900  -27.7150 C   0  0  0  0  0  0  0  0  0  0  0  0
   -4.4690   23.8650  -28.6490 C   0  0  0  0  0  0  0  0  0  0  0  0
   -4.0600   24.0070  -30.0740 N   0  0  0  0  0  0  0  0  0  0  0  0
   -5.0680   24.8210  -30.8010 C   0  0  0  0  0  0  0  0  0  0  0  0
   -6.1800   25.3070  -29.8640 C   0  0  0  0  0  0  0  0  0  0  0  0
   -3.9330   22.6590  -30.6870 C   0  0  0  0  0  0  0  0  0  0  0  0
   -3.5790   22.6680  -32.2030 C   0  0  0  0  0  0  0  0  0  0  0  0
   -4.6160   22.2080  -33.1700 N   0  0  0  0  0  0  0  0  0  0  0  0
   -5.4820   21.1250  -32.7440 C   0  0  0  0  0  0  0  0  0  0  0  0
   -6.8040   21.4010  -32.2720 C   0  0  0  0  0  0  0  0  0  0  0  0
   -7.2360   22.7260  -32.0190 C   0  0  0  0  0  0  0  0  0  0  0  0
   -8.5090   22.9850  -31.5180 C   0  0  0  0  0  0  0  0  0  0  0  0
   -9.3780   21.9380  -31.2440 C   0  0  0  0  0  0  0  0  0  0  0  0
   -8.9900   20.6240  -31.4850 C   0  0  0  0  0  0  0  0  0  0  0  0
   -7.7170   20.3230  -32.0290 C   0  0  0  0  0  0  0  0  0  0  0  0
   -7.3470   19.0210  -32.3020 N   0  0  0  0  0  0  0  0  0  0  0  0
   -8.3550   17.9500  -32.3930 C   0  0  0  0  0  0  0  0  0  0  0  0
   -6.0300   18.7630  -32.5770 C   0  0  0  0  0  0  0  0  0  0  0  0
   -5.3610   17.5490  -32.6890 C   0  0  0  0  0  0  0  0  0  0  0  0
   -5.7290   16.2360  -32.3880 C   0  0  0  0  0  0  0  0  0  0  0  0
   -4.7960   15.2110  -32.5880 C   0  0  0  0  0  0  0  0  0  0  0  0
   -3.4840   15.4820  -33.0690 C   0  0  0  0  0  0  0  0  0  0  0  0
   -2.5190   14.4030  -33.2820 N   0  0  0  0  0  0  0  0  0  0  0  0
   -1.7190   13.8520  -32.1710 C   0  0  0  0  0  0  0  0  0  0  0  0
   -2.5690   12.9330  -31.2960 C   0  0  0  0  0  0  0  0  0  0  0  0
   -2.2950   13.8130  -34.6140 C   0  0  0  0  0  0  0  0  0  0  0  0
   -2.0100   14.9010  -35.6480 C   0  0  0  0  0  0  0  0  0  0  0  0
   -3.1360   16.8380  -33.3140 C   0  0  0  0  0  0  0  0  0  0  0  0
   -4.0810   17.8520  -33.0880 C   0  0  0  0  0  0  0  0  0  0  0  0
   -3.8980   19.1970  -33.1830 N   0  0  0  0  0  0  0  0  0  0  0  0
   -2.6540   19.8510  -33.6090 C   0  0  0  0  0  0  0  0  0  0  0  0
   -5.1040   19.7590  -32.8490 C   0  0  0  0  0  0  0  0  0  0  0  0
   -3.6460   24.0962  -26.6711 H   0  0  0  0  0  0  0  0  0  0  0  0
   -2.4840   23.4897  -27.8994 H   0  0  0  0  0  0  0  0  0  0  0  0
   -2.9698   25.2190  -27.8994 H   0  0  0  0  0  0  0  0  0  0  0  0
   -4.7962   22.8302  -28.4700 H   0  0  0  0  0  0  0  0  0  0  0  0
   -5.2902   24.5687  -28.4481 H   0  0  0  0  0  0  0  0  0  0  0  0
   -4.5686   25.6942  -31.2460 H   0  0  0  0  0  0  0  0  0  0  0  0
   -5.5235   24.1913  -31.5795 H   0  0  0  0  0  0  0  0  0  0  0  0
   -5.8652   25.1694  -28.8190 H   0  0  0  0  0  0  0  0  0  0  0  0
   -6.3766   26.3731  -30.0504 H   0  0  0  0  0  0  0  0  0  0  0  0
   -7.0960   24.7272  -30.0504 H   0  0  0  0  0  0  0  0  0  0  0  0
   -3.1418   22.1123  -30.1530 H   0  0  0  0  0  0  0  0  0  0  0  0
   -4.9205   22.1823  -30.6000 H   0  0  0  0  0  0  0  0  0  0  0  0
   -3.3186   23.7025  -32.4712 H   0  0  0  0  0  0  0  0  0  0  0  0
   -2.7694   21.9295  -32.2988 H   0  0  0  0  0  0  0  0  0  0  0  0
   -4.1830   21.9950  -34.0890 H   0  0  0  0  0  0  0  0  0  0  0  0
   -5.2130   23.0250  -33.4360 H   0  0  0  0  0  0  0  0  0  0  0  0
   -6.5540   23.5649  -32.2218 H   0  0  0  0  0  0  0  0  0  0  0  0
   -8.8270   24.0227  -31.3388 H   0  0  0  0  0  0  0  0  0  0  0  0
  -10.3772   22.1480  -30.8348 H   0  0  0  0  0  0  0  0  0  0  0  0
   -9.6841   19.8039  -31.2489 H   0  0  0  0  0  0  0  0  0  0  0  0
   -8.6497   17.6369  -31.3805 H   0  0  0  0  0  0  0  0  0  0  0  0
   -9.2379   18.3224  -32.9332 H   0  0  0  0  0  0  0  0  0  0  0  0
   -7.9298   17.0913  -32.9332 H   0  0  0  0  0  0  0  0  0  0  0  0
   -6.7337   16.0109  -32.0008 H   0  0  0  0  0  0  0  0  0  0  0  0
   -5.0837   14.1723  -32.3683 H   0  0  0  0  0  0  0  0  0  0  0  0
   -0.8754   13.2789  -32.5833 H   0  0  0  0  0  0  0  0  0  0  0  0
   -1.3502   14.6849  -31.5544 H   0  0  0  0  0  0  0  0  0  0  0  0
   -2.3696   13.1486  -30.2359 H   0  0  0  0  0  0  0  0  0  0  0  0
   -3.6341   13.1041  -31.5109 H   0  0  0  0  0  0  0  0  0  0  0  0
   -2.3154   11.8844  -31.5109 H   0  0  0  0  0  0  0  0  0  0  0  0
   -1.4358   13.1279  -34.5652 H   0  0  0  0  0  0  0  0  0  0  0  0
   -3.2020   13.2686  -34.9157 H   0  0  0  0  0  0  0  0  0  0  0  0
   -1.7637   15.8411  -35.1327 H   0  0  0  0  0  0  0  0  0  0  0  0
   -1.1617   14.5950  -36.2779 H   0  0  0  0  0  0  0  0  0  0  0  0
   -2.8994   15.0502  -36.2779 H   0  0  0  0  0  0  0  0  0  0  0  0
   -2.1301   17.0924  -33.6793 H   0  0  0  0  0  0  0  0  0  0  0  0
   -2.0771   20.1543  -32.7229 H   0  0  0  0  0  0  0  0  0  0  0  0
   -2.0586   19.1493  -34.2116 H   0  0  0  0  0  0  0  0  0  0  0  0
   -2.8945   20.7393  -34.2116 H   0  0  0  0  0  0  0  0  0  0  0  0
  1  2  1  0
  2  3  1  0
  3  4  1  0
  4  5  1  0
  3  6  1  0
  6  7  1  0
  7  8  1  0
  8  9  1  0
  9 10  2  0
 10 11  1  0
 11 12  2  0
 12 13  1  0
 13 14  2  0
 14 15  1  0
 15 16  2  0
 16 17  1  0
 16 18  1  0
 18 19  1  0
 19 20  2  0
 20 21  1  0
 21 22  2  0
 22 23  1  0
 23 24  1  0
 24 25  1  0
 23 26  1  0
 26 27  1  0
 22 28  1  0
 28 29  2  0
 29 30  1  0
 30 31  1  0
 30 32  1  0
 32  9  1  0
 15 10  1  0
 32 18  2  0
 29 19  1  0
  1 33  1  0
  1 34  1  0
  1 35  1  0
  2 36  1  0
  2 37  1  0
  4 38  1  0
  4 39  1  0
  5 40  1  0
  5 41  1  0
  5 42  1  0
  6 43  1  0
  6 44  1  0
  7 45  1  0
  7 46  1  0
  8 47  1  0
  8 48  1  0
 11 49  1  0
 12 50  1  0
 13 51  1  0
 14 52  1  0
 17 53  1  0
 17 54  1  0
 17 55  1  0
 20 56  1  0
 21 57  1  0
 24 58  1  0
 24 59  1  0
 25 60  1  0
 25 61  1  0
 25 62  1  0
 26 63  1  0
 26 64  1  0
 27 65  1  0
 27 66  1  0
 27 67  1  0
 28 68  1  0
 31 69  1  0
 31 70  1  0
 31 71  1  0
M  CHG  2   8   1  16   1
M  END
>  <UniqueID>  (23) 
23

>  <SMILES>  (23) 
CCN(CC)CC[NH2+]c1c2ccccc2[n+](C)c2c3ccc(N(CC)CC)cc3n(C)c12

>  <Energy>  (23) 
146.40976351488737

>  <Genealogy>  (23) 
CCN(CC)CC[NH2+]c1c2ccccc2[n+](C)c2c3ccc(N(CC)CC)cc3n(C)c12 (protonated)
CCN(CC)CC[NH2+]c1c2ccccc2[n+](C)c2c3ccc(N(CC)CC)cc3n(C)c12 (3D coordinates assigned)
CCN(CC)CC[NH2+]c1c2ccccc2[n+](C)c2c3ccc(N(CC)CC)cc3n(C)c12 (optimized conformer: 146.40976351488737 kcal/mol)

>  <smiles>  (23) 
CCN(CC)CCNc1c2ccccc2[n+](C)c2c3ccc(N(CC)CC)cc3n(C)c12

>  <score_type>  (23) 
oracle

>  <origin>  (23) 
adg

>  <m_score__min__energy>  (23) 
-7.8399999999999999

>  <m_primary>  (23) 
energy

$$$$
23:0
     RDKit          3D

 49 51  0  0  0  0  0  0  0  0999 V2000
   -2.3840   23.7980  -29.2980 C   0  0  0  0  0  0  0  0  0  0  0  0
   -3.2820   23.0680  -30.3020 C   0  0  0  0  0  0  0  0  0  0  0  0
   -4.0020   23.9920  -31.1920 N   0  0  0  0  0  0  0  0  0  0  0  0
   -5.3800   24.2340  -30.7440 C   0  0  0  0  0  0  0  0  0  0  0  0
   -6.3120   23.1720  -31.3390 C   0  0  0  0  0  0  0  0  0  0  0  0
   -5.9060   22.7630  -32.6970 N   0  0  0  0  0  0  0  0  0  0  0  0
   -5.9100   21.3130  -32.8570 C   0  0  0  0  0  0  0  0  0  0  0  0
   -7.0880   20.5440  -32.6190 C   0  0  0  0  0  0  0  0  0  0  0  0
   -8.3200   21.1390  -32.2350 C   0  0  0  0  0  0  0  0  0  0  0  0
   -9.4340   20.3620  -31.9310 C   0  0  0  0  0  0  0  0  0  0  0  0
   -9.3590   18.9810  -31.9890 C   0  0  0  0  0  0  0  0  0  0  0  0
   -8.1800   18.3660  -32.3970 C   0  0  0  0  0  0  0  0  0  0  0  0
   -7.0400   19.1270  -32.7660 C   0  0  0  0  0  0  0  0  0  0  0  0
   -5.9030   18.5120  -33.2500 N   0  0  0  0  0  0  0  0  0  0  0  0
   -5.9660   17.1070  -33.7150 C   0  0  0  0  0  0  0  0  0  0  0  0
   -4.7210   19.2140  -33.3410 C   0  0  0  0  0  0  0  0  0  0  0  0
   -3.4900   18.5470  -33.5580 C   0  0  0  0  0  0  0  0  0  0  0  0
   -2.3020   19.2500  -33.7320 C   0  0  0  0  0  0  0  0  0  0  0  0
   -2.2950   20.6460  -33.6900 C   0  0  0  0  0  0  0  0  0  0  0  0
   -1.0870   21.4020  -33.8960 N   0  0  0  0  0  0  0  0  0  0  0  0
    0.1720   21.1160  -33.2140 C   0  0  0  0  0  0  0  0  0  0  0  0
   -3.4920   21.3220  -33.4250 C   0  0  0  0  0  0  0  0  0  0  0  0
   -4.7100   20.6290  -33.2060 C   0  0  0  0  0  0  0  0  0  0  0  0
   -2.6964   23.5440  -28.2743 H   0  0  0  0  0  0  0  0  0  0  0  0
   -1.3389   23.4901  -29.4494 H   0  0  0  0  0  0  0  0  0  0  0  0
   -2.4719   24.8840  -29.4494 H   0  0  0  0  0  0  0  0  0  0  0  0
   -2.6566   22.4030  -30.9157 H   0  0  0  0  0  0  0  0  0  0  0  0
   -4.0327   22.5038  -29.7292 H   0  0  0  0  0  0  0  0  0  0  0  0
   -3.4890   24.9050  -31.2310 H   0  0  0  0  0  0  0  0  0  0  0  0
   -5.4216   24.1829  -29.6460 H   0  0  0  0  0  0  0  0  0  0  0  0
   -5.7022   25.2305  -31.0804 H   0  0  0  0  0  0  0  0  0  0  0  0
   -6.3013   22.2870  -30.6858 H   0  0  0  0  0  0  0  0  0  0  0  0
   -7.3184   23.6106  -31.4082 H   0  0  0  0  0  0  0  0  0  0  0  0
   -6.5500   23.1970  -33.3950 H   0  0  0  0  0  0  0  0  0  0  0  0
   -5.0000   23.2070  -32.9520 H   0  0  0  0  0  0  0  0  0  0  0  0
   -8.3947   22.2349  -32.1769 H   0  0  0  0  0  0  0  0  0  0  0  0
  -10.3782   20.8475  -31.6434 H   0  0  0  0  0  0  0  0  0  0  0  0
  -10.2312   18.3704  -31.7126 H   0  0  0  0  0  0  0  0  0  0  0  0
   -8.1300   17.2678  -32.4345 H   0  0  0  0  0  0  0  0  0  0  0  0
   -5.9962   16.4340  -32.8454 H   0  0  0  0  0  0  0  0  0  0  0  0
   -6.8715   16.9621  -34.3224 H   0  0  0  0  0  0  0  0  0  0  0  0
   -5.0771   16.8816  -34.3224 H   0  0  0  0  0  0  0  0  0  0  0  0
   -3.4731   17.4476  -33.5897 H   0  0  0  0  0  0  0  0  0  0  0  0
   -1.3630   18.7033  -33.9036 H   0  0  0  0  0  0  0  0  0  0  0  0
   -1.0950   22.2000  -34.5720 H   0  0  0  0  0  0  0  0  0  0  0  0
    0.0158   21.1515  -32.1257 H   0  0  0  0  0  0  0  0  0  0  0  0
    0.5254   20.1147  -33.5012 H   0  0  0  0  0  0  0  0  0  0  0  0
    0.9233   21.8664  -33.5012 H   0  0  0  0  0  0  0  0  0  0  0  0
   -3.4878   22.4213  -33.3855 H   0  0  0  0  0  0  0  0  0  0  0  0
  1  2  1  0
  2  3  1  0
  3  4  1  0
  4  5  1  0
  5  6  1  0
  6  7  1  0
  7  8  2  0
  8  9  1  0
  9 10  2  0
 10 11  1  0
 11 12  2  0
 12 13  1  0
 13 14  2  0
 14 15  1  0
 14 16  1  0
 16 17  2  0
 17 18  1  0
 18 19  2  0
 19 20  1  0
 20 21  1  0
 19 22  1  0
 22 23  2  0
 23  7  1  0
 13  8  1  0
 23 16  1  0
  1 24  1  0
  1 25  1  0
  1 26  1  0
  2 27  1  0
  2 28  1  0
  3 29  1  0
  4 30  1  0
  4 31  1  0
  5 32  1  0
  5 33  1  0
  6 34  1  0
  6 35  1  0
  9 36  1  0
 10 37  1  0
 11 38  1  0
 12 39  1  0
 15 40  1  0
 15 41  1  0
 15 42  1  0
 17 43  1  0
 18 44  1  0
 20 45  1  0
 21 46  1  0
 21 47  1  0
 21 48  1  0
 22 49  1  0
M  CHG  2   6   1  14   1
M  END
>  <UniqueID>  (24) 
24

>  <SMILES>  (24) 
CCNCC[NH2+]c1c2ccccc2[n+](C)c2ccc(NC)cc12

>  <Energy>  (24) 
75.34349835603872

>  <Genealogy>  (24) 
CCNCC[NH2+]c1c2ccccc2[n+](C)c2ccc(NC)cc12 (protonated)
CCNCC[NH2+]c1c2ccccc2[n+](C)c2ccc(NC)cc12 (3D coordinates assigned)
CCNCC[NH2+]c1c2ccccc2[n+](C)c2ccc(NC)cc12 (optimized conformer: 75.34349835603872 kcal/mol)

>  <smiles>  (24) 
CCNCCNc1c2ccccc2[n+](C)c2ccc(NC)cc12

>  <score_type>  (24) 
oracle

>  <origin>  (24) 
adg

>  <m_score__min__energy>  (24) 
-8.5800000000000001

>  <m_primary>  (24) 
energy

$$$$
24:0
     RDKit          3D

 46 46  0  0  0  0  0  0  0  0999 V2000
   -2.2480   20.8780  -32.2170 C   0  0  0  0  0  0  0  0  0  0  0  0
   -3.0440   21.6820  -33.2430 C   0  0  0  0  0  0  0  0  0  0  0  0
   -4.4500   21.8240  -32.8310 N   0  0  0  0  0  0  0  0  0  0  0  0
   -5.1170   20.5280  -32.6070 C   0  0  0  0  0  0  0  0  0  0  0  0
   -6.6580   20.5680  -32.7100 C   0  0  0  0  0  0  0  0  0  0  0  0
   -7.3140   21.7040  -31.9080 C   0  0  0  0  0  0  0  0  0  0  0  0
   -6.5650   22.9580  -32.0660 N   0  0  0  0  0  0  0  0  0  0  0  0
   -7.2320   24.0850  -31.3920 C   0  0  0  0  0  0  0  0  0  0  0  0
   -6.5970   24.3300  -30.0180 C   0  0  0  0  0  0  0  0  0  0  0  0
   -5.2660   25.0860  -30.1210 C   0  0  0  0  0  0  0  0  0  0  0  0
   -4.2770   24.2800  -30.8540 N   0  0  0  0  0  0  0  0  0  0  0  0
   -3.6880   23.2100  -30.0310 C   0  0  0  0  0  0  0  0  0  0  0  0
   -2.2260   23.5020  -29.6500 C   0  0  0  0  0  0  0  0  0  0  0  0
   -2.1650   24.3380  -28.4100 C   0  0  0  0  0  0  0  0  0  0  0  0
   -3.0170   24.2370  -27.3170 C   0  0  0  0  0  0  0  0  0  0  0  0
   -2.7490   25.1880  -26.3250 C   0  0  0  0  0  0  0  0  0  0  0  0
   -1.7000   26.0450  -26.6390 C   0  0  0  0  0  0  0  0  0  0  0  0
   -1.1050   25.6180  -28.1520 S   0  0  0  0  0  0  0  0  0  0  0  0
   -2.5471   21.1801  -31.2024 H   0  0  0  0  0  0  0  0  0  0  0  0
   -2.4501   19.8055  -32.3548 H   0  0  0  0  0  0  0  0  0  0  0  0
   -1.1736   21.0693  -32.3548 H   0  0  0  0  0  0  0  0  0  0  0  0
   -2.5960   22.6818  -33.3417 H   0  0  0  0  0  0  0  0  0  0  0  0
   -3.0142   21.1479  -34.2042 H   0  0  0  0  0  0  0  0  0  0  0  0
   -4.4800   22.3440  -31.9220 H   0  0  0  0  0  0  0  0  0  0  0  0
   -4.9760   22.3920  -33.5310 H   0  0  0  0  0  0  0  0  0  0  0  0
   -4.7420   19.8157  -33.3566 H   0  0  0  0  0  0  0  0  0  0  0  0
   -4.8825   20.2327  -31.5736 H   0  0  0  0  0  0  0  0  0  0  0  0
   -6.9299   20.6915  -33.7687 H   0  0  0  0  0  0  0  0  0  0  0  0
   -7.0280   19.6245  -32.2822 H   0  0  0  0  0  0  0  0  0  0  0  0
   -8.3429   21.8513  -32.2680 H   0  0  0  0  0  0  0  0  0  0  0  0
   -7.3152   21.4272  -30.8434 H   0  0  0  0  0  0  0  0  0  0  0  0
   -6.5120   23.1720  -33.0920 H   0  0  0  0  0  0  0  0  0  0  0  0
   -7.1269   24.9905  -32.0077 H   0  0  0  0  0  0  0  0  0  0  0  0
   -8.2969   23.8441  -31.2579 H   0  0  0  0  0  0  0  0  0  0  0  0
   -7.2939   24.9215  -29.4061 H   0  0  0  0  0  0  0  0  0  0  0  0
   -6.3944   23.3505  -29.5602 H   0  0  0  0  0  0  0  0  0  0  0  0
   -5.4277   26.0347  -30.6537 H   0  0  0  0  0  0  0  0  0  0  0  0
   -4.8868   25.2832  -29.1074 H   0  0  0  0  0  0  0  0  0  0  0  0
   -3.5180   24.9060  -31.2110 H   0  0  0  0  0  0  0  0  0  0  0  0
   -4.2796   23.1067  -29.1094 H   0  0  0  0  0  0  0  0  0  0  0  0
   -3.7019   22.2837  -30.6242 H   0  0  0  0  0  0  0  0  0  0  0  0
   -1.7014   22.5516  -29.4722 H   0  0  0  0  0  0  0  0  0  0  0  0
   -1.7464   24.0512  -30.4736 H   0  0  0  0  0  0  0  0  0  0  0  0
   -3.8187   23.4878  -27.2392 H   0  0  0  0  0  0  0  0  0  0  0  0
   -3.3158   25.2513  -25.3844 H   0  0  0  0  0  0  0  0  0  0  0  0
   -1.3240   26.8622  -26.0059 H   0  0  0  0  0  0  0  0  0  0  0  0
  1  2  1  0
  2  3  1  0
  3  4  1  0
  4  5  1  0
  5  6  1  0
  6  7  1  0
  7  8  1  0
  8  9  1  0
  9 10  1  0
 10 11  1  0
 11 12  1  0
 12 13  1  0
 13 14  1  0
 14 15  2  0
 15 16  1  0
 16 17  2  0
 17 18  1  0
 18 14  1  0
  1 19  1  0
  1 20  1  0
  1 21  1  0
  2 22  1  0
  2 23  1  0
  3 24  1  0
  3 25  1  0
  4 26  1  0
  4 27  1  0
  5 28  1  0
  5 29  1  0
  6 30  1  0
  6 31  1  0
  7 32  1  0
  8 33  1  0
  8 34  1  0
  9 35  1  0
  9 36  1  0
 10 37  1  0
 10 38  1  0
 11 39  1  0
 12 40  1  0
 12 41  1  0
 13 42  1  0
 13 43  1  0
 15 44  1  0
 16 45  1  0
 17 46  1  0
M  CHG  1   3   1
M  END
>  <UniqueID>  (25) 
25

>  <SMILES>  (25) 
CC[NH2+]CCCNCCCNCCc1cccs1

>  <Energy>  (25) 
56.84349577578413

>  <Genealogy>  (25) 
CC[NH2+]CCCNCCCNCCc1cccs1 (protonated)
CC[NH2+]CCCNCCCNCCc1cccs1 (3D coordinates assigned)
CC[NH2+]CCCNCCCNCCc1cccs1 (optimized conformer: 56.84349577578413 kcal/mol)

>  <smiles>  (25) 
CCNCCCNCCCNCCc1cccs1

>  <score_type>  (25) 
oracle

>  <origin>  (25) 
adg

>  <m_score__min__energy>  (25) 
-4.6399999999999997

>  <m_primary>  (25) 
energy

$$$$
25:0
     RDKit          3D

 52 54  0  0  0  0  0  0  0  0999 V2000
   -6.1150   25.6830  -29.6950 C   0  0  0  0  0  0  0  0  0  0  0  0
   -5.1740   25.3270  -30.8440 C   0  0  0  0  0  0  0  0  0  0  0  0
   -5.5280   24.0010  -31.4030 N   0  0  0  0  0  0  0  0  0  0  0  0
   -6.9730   23.7180  -31.2320 C   0  0  0  0  0  0  0  0  0  0  0  0
   -7.1840   22.7260  -30.0910 C   0  0  0  0  0  0  0  0  0  0  0  0
   -4.6990   22.9290  -30.8050 C   0  0  0  0  0  0  0  0  0  0  0  0
   -3.9450   22.1720  -31.9080 C   0  0  0  0  0  0  0  0  0  0  0  0
   -4.8120   21.9330  -33.0700 N   0  0  0  0  0  0  0  0  0  0  0  0
   -5.1320   20.5180  -33.1860 C   0  0  0  0  0  0  0  0  0  0  0  0
   -6.4470   20.0500  -32.9230 C   0  0  0  0  0  0  0  0  0  0  0  0
   -7.5180   20.9420  -32.6660 C   0  0  0  0  0  0  0  0  0  0  0  0
   -8.7790   20.4700  -32.3100 C   0  0  0  0  0  0  0  0  0  0  0  0
   -9.0040   19.1070  -32.1970 C   0  0  0  0  0  0  0  0  0  0  0  0
   -7.9870   18.2050  -32.4920 C   0  0  0  0  0  0  0  0  0  0  0  0
   -6.7080   18.6500  -32.9170 C   0  0  0  0  0  0  0  0  0  0  0  0
   -5.7300   17.7560  -33.3070 N   0  0  0  0  0  0  0  0  0  0  0  0
   -6.0910   16.3480  -33.5930 C   0  0  0  0  0  0  0  0  0  0  0  0
   -4.4290   18.1830  -33.4880 C   0  0  0  0  0  0  0  0  0  0  0  0
   -3.3660   17.2560  -33.6500 C   0  0  0  0  0  0  0  0  0  0  0  0
   -2.0670   17.6800  -33.9400 C   0  0  0  0  0  0  0  0  0  0  0  0
   -1.0170   16.7230  -34.1140 N   0  0  0  0  0  0  0  0  0  0  0  0
   -1.8010   19.0390  -34.0700 C   0  0  0  0  0  0  0  0  0  0  0  0
   -2.8090   19.9740  -33.8550 C   0  0  0  0  0  0  0  0  0  0  0  0
   -4.1230   19.5720  -33.5090 C   0  0  0  0  0  0  0  0  0  0  0  0
   -5.6111   25.4924  -28.7359 H   0  0  0  0  0  0  0  0  0  0  0  0
   -6.3880   26.7466  -29.7607 H   0  0  0  0  0  0  0  0  0  0  0  0
   -7.0236   25.0665  -29.7607 H   0  0  0  0  0  0  0  0  0  0  0  0
   -5.2596   26.0886  -31.6331 H   0  0  0  0  0  0  0  0  0  0  0  0
   -4.1418   25.2930  -30.4653 H   0  0  0  0  0  0  0  0  0  0  0  0
   -7.5020   24.6546  -31.0018 H   0  0  0  0  0  0  0  0  0  0  0  0
   -7.3665   23.2837  -32.1629 H   0  0  0  0  0  0  0  0  0  0  0  0
   -7.0734   23.2459  -29.1280 H   0  0  0  0  0  0  0  0  0  0  0  0
   -8.1938   22.2955  -30.1614 H   0  0  0  0  0  0  0  0  0  0  0  0
   -6.4368   21.9218  -30.1614 H   0  0  0  0  0  0  0  0  0  0  0  0
   -3.9740   23.3749  -30.1081 H   0  0  0  0  0  0  0  0  0  0  0  0
   -5.3511   22.2264  -30.2655 H   0  0  0  0  0  0  0  0  0  0  0  0
   -3.0762   22.7681  -32.2240 H   0  0  0  0  0  0  0  0  0  0  0  0
   -3.6206   21.2004  -31.5072 H   0  0  0  0  0  0  0  0  0  0  0  0
   -4.3620   22.2900  -33.9420 H   0  0  0  0  0  0  0  0  0  0  0  0
   -5.6790   22.5110  -33.0070 H   0  0  0  0  0  0  0  0  0  0  0  0
   -7.3503   22.0260  -32.7492 H   0  0  0  0  0  0  0  0  0  0  0  0
   -9.5973   21.1797  -32.1183 H   0  0  0  0  0  0  0  0  0  0  0  0
   -9.9885   18.7380  -31.8735 H   0  0  0  0  0  0  0  0  0  0  0  0
   -8.1777   17.1261  -32.3940 H   0  0  0  0  0  0  0  0  0  0  0  0
   -6.2301   15.8056  -32.6462 H   0  0  0  0  0  0  0  0  0  0  0  0
   -7.0255   16.3195  -34.1726 H   0  0  0  0  0  0  0  0  0  0  0  0
   -5.2855   15.8734  -34.1726 H   0  0  0  0  0  0  0  0  0  0  0  0
   -3.5698   16.1802  -33.5448 H   0  0  0  0  0  0  0  0  0  0  0  0
   -0.7190   16.4200  -35.0680 H   0  0  0  0  0  0  0  0  0  0  0  0
   -0.5280   16.3100  -33.2890 H   0  0  0  0  0  0  0  0  0  0  0  0
   -0.7903   19.3759  -34.3437 H   0  0  0  0  0  0  0  0  0  0  0  0
   -2.5814   21.0455  -33.9556 H   0  0  0  0  0  0  0  0  0  0  0  0
  1  2  1  0
  2  3  1  0
  3  4  1  0
  4  5  1  0
  3  6  1  0
  6  7  1  0
  7  8  1  0
  8  9  1  0
  9 10  2  0
 10 11  1  0
 11 12  2  0
 12 13  1  0
 13 14  2  0
 14 15  1  0
 15 16  2  0
 16 17  1  0
 16 18  1  0
 18 19  2  0
 19 20  1  0
 20 21  1  0
 20 22  2  0
 22 23  1  0
 23 24  2  0
 24  9  1  0
 15 10  1  0
 24 18  1  0
  1 25  1  0
  1 26  1  0
  1 27  1  0
  2 28  1  0
  2 29  1  0
  4 30  1  0
  4 31  1  0
  5 32  1  0
  5 33  1  0
  5 34  1  0
  6 35  1  0
  6 36  1  0
  7 37  1  0
  7 38  1  0
  8 39  1  0
  8 40  1  0
 11 41  1  0
 12 42  1  0
 13 43  1  0
 14 44  1  0
 17 45  1  0
 17 46  1  0
 17 47  1  0
 19 48  1  0
 21 49  1  0
 21 50  1  0
 22 51  1  0
 23 52  1  0
M  CHG  2   8   1  16   1
M  END
>  <UniqueID>  (26) 
26

>  <SMILES>  (26) 
CCN(CC)CC[NH2+]c1c2ccccc2[n+](C)c2cc(N)ccc12

>  <Energy>  (26) 
78.15852679326004

>  <Genealogy>  (26) 
CCN(CC)CC[NH2+]c1c2ccccc2[n+](C)c2cc(N)ccc12 (protonated)
CCN(CC)CC[NH2+]c1c2ccccc2[n+](C)c2cc(N)ccc12 (3D coordinates assigned)
CCN(CC)CC[NH2+]c1c2ccccc2[n+](C)c2cc(N)ccc12 (optimized conformer: 78.15852679326004 kcal/mol)

>  <smiles>  (26) 
CCN(CC)CCNc1c2ccccc2[n+](C)c2cc(N)ccc12

>  <score_type>  (26) 
oracle

>  <origin>  (26) 
adg

>  <m_score__min__energy>  (26) 
-7.0700000000000003

>  <m_primary>  (26) 
energy

$$$$
