0:0
     RDKit          3D

 52 54  0  0  0  0  0  0  0  0999 V2000
   -6.5320   25.2960  -29.5010 C   0  0  0  0  0  0  0  0  0  0  0  0
   -5.6600   25.9940  -30.5490 C   0  0  0  0  0  0  0  0  0  0  0  0
   -4.6430   25.1010  -31.1240 N   0  0  0  0  0  0  0  0  0  0  0  0
   -4.0220   24.2370  -30.1090 C   0  0  0  0  0  0  0  0  0  0  0  0
   -4.3470   22.7650  -30.3940 C   0  0  0  0  0  0  0  0  0  0  0  0
   -4.5860   22.5310  -31.8310 N   0  0  0  0  0  0  0  0  0  0  0  0
   -5.1110   21.1890  -32.0580 C   0  0  0  0  0  0  0  0  0  0  0  0
   -6.5120   20.9630  -32.0120 C   0  0  0  0  0  0  0  0  0  0  0  0
   -7.3770   21.8620  -31.3430 C   0  0  0  0  0  0  0  0  0  0  0  0
   -8.7560   21.6800  -31.3630 C   0  0  0  0  0  0  0  0  0  0  0  0
   -9.3070   20.6130  -32.0570 C   0  0  0  0  0  0  0  0  0  0  0  0
   -8.4800   19.7020  -32.7080 C   0  0  0  0  0  0  0  0  0  0  0  0
   -7.0660   19.8280  -32.6650 C   0  0  0  0  0  0  0  0  0  0  0  0
   -6.2410   18.9070  -33.2810 N   0  0  0  0  0  0  0  0  0  0  0  0
   -6.8070   17.6360  -33.7930 C   0  0  0  0  0  0  0  0  0  0  0  0
   -4.8810   19.1330  -33.3570 C   0  0  0  0  0  0  0  0  0  0  0  0
   -4.0520   18.3630  -34.2070 C   0  0  0  0  0  0  0  0  0  0  0  0
   -2.6700   18.4840  -34.1600 C   0  0  0  0  0  0  0  0  0  0  0  0
   -2.0760   19.3150  -33.2210 C   0  0  0  0  0  0  0  0  0  0  0  0
   -2.8620   20.1320  -32.3900 C   0  0  0  0  0  0  0  0  0  0  0  0
   -2.2690   20.7320  -31.2160 N   0  0  0  0  0  0  0  0  0  0  0  0
   -1.2350   21.7740  -31.2190 C   0  0  0  0  0  0  0  0  0  0  0  0
   -0.6520   21.9970  -29.8210 C   0  0  0  0  0  0  0  0  0  0  0  0
   -0.8610   23.6790  -29.2670 Cl  0  0  0  0  0  0  0  0  0  0  0  0
   -4.2770   20.1640  -32.5870 C   0  0  0  0  0  0  0  0  0  0  0  0
   -6.1868   25.5724  -28.4938 H   0  0  0  0  0  0  0  0  0  0  0  0
   -7.5790   25.6084  -29.6283 H   0  0  0  0  0  0  0  0  0  0  0  0
   -6.4565   24.2060  -29.6283 H   0  0  0  0  0  0  0  0  0  0  0  0
   -6.3077   26.3587  -31.3599 H   0  0  0  0  0  0  0  0  0  0  0  0
   -5.1335   26.8196  -30.0479 H   0  0  0  0  0  0  0  0  0  0  0  0
   -3.8990   25.6740  -31.5880 H   0  0  0  0  0  0  0  0  0  0  0  0
   -2.9314   24.3787  -30.1296 H   0  0  0  0  0  0  0  0  0  0  0  0
   -4.4176   24.5062  -29.1185 H   0  0  0  0  0  0  0  0  0  0  0  0
   -3.5012   22.1426  -30.0666 H   0  0  0  0  0  0  0  0  0  0  0  0
   -5.2632   22.5020  -29.8451 H   0  0  0  0  0  0  0  0  0  0  0  0
   -3.7200   22.6860  -32.3940 H   0  0  0  0  0  0  0  0  0  0  0  0
   -5.2540   23.2680  -32.1230 H   0  0  0  0  0  0  0  0  0  0  0  0
   -6.9519   22.7181  -30.7986 H   0  0  0  0  0  0  0  0  0  0  0  0
   -9.4105   22.3835  -30.8275 H   0  0  0  0  0  0  0  0  0  0  0  0
  -10.3991   20.4865  -32.0930 H   0  0  0  0  0  0  0  0  0  0  0  0
   -8.9304   18.8683  -33.2666 H   0  0  0  0  0  0  0  0  0  0  0  0
   -7.0927   16.9945  -32.9463 H   0  0  0  0  0  0  0  0  0  0  0  0
   -7.6946   17.8506  -34.4063 H   0  0  0  0  0  0  0  0  0  0  0  0
   -6.0537   17.1199  -34.4063 H   0  0  0  0  0  0  0  0  0  0  0  0
   -4.5099   17.6576  -34.9160 H   0  0  0  0  0  0  0  0  0  0  0  0
   -2.0449   17.9203  -34.8682 H   0  0  0  0  0  0  0  0  0  0  0  0
   -0.9803   19.3346  -33.1260 H   0  0  0  0  0  0  0  0  0  0  0  0
   -2.5820   20.3850  -30.2810 H   0  0  0  0  0  0  0  0  0  0  0  0
   -0.4251   21.4707  -31.8988 H   0  0  0  0  0  0  0  0  0  0  0  0
   -1.6973   22.7150  -31.5519 H   0  0  0  0  0  0  0  0  0  0  0  0
   -1.1599   21.3250  -29.1136 H   0  0  0  0  0  0  0  0  0  0  0  0
    0.4268   21.7872  -29.8667 H   0  0  0  0  0  0  0  0  0  0  0  0
  1  2  1  0
  2  3  1  0
  3  4  1  0
  4  5  1  0
  5  6  1  0
  6  7  1  0
  7  8  2  0
  8  9  1  0
  9 10  2  0
 10 11  1  0
 11 12  2  0
 12 13  1  0
 13 14  2  0
 14 15  1  0
 14 16  1  0
 16 17  2  0
 17 18  1  0
 18 19  2  0
 19 20  1  0
 20 21  1  0
 21 22  1  0
 22 23  1  0
 23 24  1  0
 20 25  2  0
 25  7  1  0
 13  8  1  0
 25 16  1  0
  1 26  1  0
  1 27  1  0
  1 28  1  0
  2 29  1  0
  2 30  1  0
  3 31  1  0
  4 32  1  0
  4 33  1  0
  5 34  1  0
  5 35  1  0
  6 36  1  0
  6 37  1  0
  9 38  1  0
 10 39  1  0
 11 40  1  0
 12 41  1  0
 15 42  1  0
 15 43  1  0
 15 44  1  0
 17 45  1  0
 18 46  1  0
 19 47  1  0
 21 48  1  0
 22 49  1  0
 22 50  1  0
 23 51  1  0
 23 52  1  0
M  CHG  2   6   1  14   1
M  END
>  <UniqueID>  (1) 
1

>  <SMILES>  (1) 
CCNCC[NH2+]c1c2ccccc2[n+](C)c2cccc(NCCCl)c12

>  <Energy>  (1) 
89.94785150923711

>  <Genealogy>  (1) 
CCNCC[NH2+]c1c2ccccc2[n+](C)c2cccc(NCCCl)c12 (protonated)
CCNCC[NH2+]c1c2ccccc2[n+](C)c2cccc(NCCCl)c12 (3D coordinates assigned)
CCNCC[NH2+]c1c2ccccc2[n+](C)c2cccc(NCCCl)c12 (optimized conformer: 89.94785150923711 kcal/mol)

>  <smiles>  (1) 
CCNCCNc1c2ccccc2[n+](C)c2cccc(NCCCl)c12

>  <score_type>  (1) 
oracle

>  <origin>  (1) 
adg

>  <m_score__min__energy>  (1) 
-7.4000000000000004

>  <m_primary>  (1) 
energy

$$$$
1:0
     RDKit          3D

 65 67  0  0  0  0  0  0  0  0999 V2000
    2.3650   23.4470  -27.0960 C   0  0  0  0  0  0  0  0  0  0  0  0
    0.9150   23.3160  -27.5460 C   0  0  0  0  0  0  0  0  0  0  0  0
    0.5090   24.5040  -28.3040 N   0  0  0  0  0  0  0  0  0  0  0  0
   -0.0630   25.5080  -27.3980 C   0  0  0  0  0  0  0  0  0  0  0  0
   -1.1450   26.3300  -28.1120 C   0  0  0  0  0  0  0  0  0  0  0  0
   -1.9680   25.5230  -28.9350 O   0  0  0  0  0  0  0  0  0  0  0  0
   -2.6380   24.5370  -28.1740 C   0  0  0  0  0  0  0  0  0  0  0  0
   -3.0440   23.3660  -29.0760 C   0  0  0  0  0  0  0  0  0  0  0  0
   -3.2070   23.7390  -30.5640 C   0  0  0  0  0  0  0  0  0  0  0  0
   -3.8640   25.0380  -30.7780 N   0  0  0  0  0  0  0  0  0  0  0  0
   -5.3030   24.9400  -31.0730 C   0  0  0  0  0  0  0  0  0  0  0  0
   -5.7260   23.4680  -31.1130 C   0  0  0  0  0  0  0  0  0  0  0  0
   -5.5380   22.8870  -32.4460 N   0  0  0  0  0  0  0  0  0  0  0  0
   -5.5600   21.4670  -32.6760 C   0  0  0  0  0  0  0  0  0  0  0  0
   -6.7450   20.7400  -32.4710 C   0  0  0  0  0  0  0  0  0  0  0  0
   -7.8870   21.3580  -31.9180 C   0  0  0  0  0  0  0  0  0  0  0  0
   -9.0590   20.6340  -31.7110 C   0  0  0  0  0  0  0  0  0  0  0  0
   -9.1050   19.2820  -32.0290 C   0  0  0  0  0  0  0  0  0  0  0  0
   -7.9910   18.6520  -32.5850 C   0  0  0  0  0  0  0  0  0  0  0  0
   -6.8000   19.3740  -32.8530 C   0  0  0  0  0  0  0  0  0  0  0  0
   -5.7130   18.7830  -33.4700 N   0  0  0  0  0  0  0  0  0  0  0  0
   -5.8650   17.4740  -34.1430 C   0  0  0  0  0  0  0  0  0  0  0  0
   -4.4900   19.4290  -33.4790 C   0  0  0  0  0  0  0  0  0  0  0  0
   -3.2940   18.7560  -33.8390 C   0  0  0  0  0  0  0  0  0  0  0  0
   -2.0650   19.4190  -33.8740 C   0  0  0  0  0  0  0  0  0  0  0  0
   -0.9270   18.6890  -34.2520 O   0  0  0  0  0  0  0  0  0  0  0  0
   -0.1730   17.8600  -33.3720 C   0  0  0  0  0  0  0  0  0  0  0  0
   -2.0040   20.7730  -33.5230 C   0  0  0  0  0  0  0  0  0  0  0  0
   -3.1560   21.4480  -33.1300 C   0  0  0  0  0  0  0  0  0  0  0  0
   -4.4040   20.7940  -33.1030 C   0  0  0  0  0  0  0  0  0  0  0  0
    2.4089   23.4510  -25.9969 H   0  0  0  0  0  0  0  0  0  0  0  0
    2.9472   22.5978  -27.4831 H   0  0  0  0  0  0  0  0  0  0  0  0
    2.7856   24.3868  -27.4831 H   0  0  0  0  0  0  0  0  0  0  0  0
    0.8118   22.4257  -28.1837 H   0  0  0  0  0  0  0  0  0  0  0  0
    0.2718   23.2201  -26.6588 H   0  0  0  0  0  0  0  0  0  0  0  0
   -0.2410   24.2140  -28.9780 H   0  0  0  0  0  0  0  0  0  0  0  0
   -0.5095   24.9992  -26.5310 H   0  0  0  0  0  0  0  0  0  0  0  0
    0.7386   26.1868  -27.0713 H   0  0  0  0  0  0  0  0  0  0  0  0
   -1.7735   26.8228  -27.3556 H   0  0  0  0  0  0  0  0  0  0  0  0
   -0.6423   27.0683  -28.7541 H   0  0  0  0  0  0  0  0  0  0  0  0
   -1.9688   24.1714  -27.3812 H   0  0  0  0  0  0  0  0  0  0  0  0
   -3.5406   24.9778  -27.7258 H   0  0  0  0  0  0  0  0  0  0  0  0
   -2.2711   22.5872  -28.9985 H   0  0  0  0  0  0  0  0  0  0  0  0
   -4.0298   23.0255  -28.7263 H   0  0  0  0  0  0  0  0  0  0  0  0
   -2.2088   23.7742  -31.0249 H   0  0  0  0  0  0  0  0  0  0  0  0
   -3.8518   22.9729  -31.0194 H   0  0  0  0  0  0  0  0  0  0  0  0
   -3.3800   25.5750  -31.5360 H   0  0  0  0  0  0  0  0  0  0  0  0
   -5.8726   25.4624  -30.2902 H   0  0  0  0  0  0  0  0  0  0  0  0
   -5.5055   25.4026  -32.0503 H   0  0  0  0  0  0  0  0  0  0  0  0
   -5.1205   22.9030  -30.3890 H   0  0  0  0  0  0  0  0  0  0  0  0
   -6.7953   23.4110  -30.8612 H   0  0  0  0  0  0  0  0  0  0  0  0
   -5.2610   23.5160  -33.2330 H   0  0  0  0  0  0  0  0  0  0  0  0
   -7.8512   22.4236  -31.6473 H   0  0  0  0  0  0  0  0  0  0  0  0
   -9.9476   21.1322  -31.2960 H   0  0  0  0  0  0  0  0  0  0  0  0
  -10.0233   18.7061  -31.8417 H   0  0  0  0  0  0  0  0  0  0  0  0
   -8.0373   17.5782  -32.8192 H   0  0  0  0  0  0  0  0  0  0  0  0
   -5.9571   16.6811  -33.3862 H   0  0  0  0  0  0  0  0  0  0  0  0
   -6.7676   17.4875  -34.7716 H   0  0  0  0  0  0  0  0  0  0  0  0
   -4.9833   17.2803  -34.7716 H   0  0  0  0  0  0  0  0  0  0  0  0
   -3.3355   17.6874  -34.0965 H   0  0  0  0  0  0  0  0  0  0  0  0
   -0.4099   18.1205  -32.3299 H   0  0  0  0  0  0  0  0  0  0  0  0
   -0.4279   16.8054  -33.5534 H   0  0  0  0  0  0  0  0  0  0  0  0
    0.9010   18.0141  -33.5534 H   0  0  0  0  0  0  0  0  0  0  0  0
   -1.0420   21.3053  -33.5580 H   0  0  0  0  0  0  0  0  0  0  0  0
   -3.0914   22.5062  -32.8365 H   0  0  0  0  0  0  0  0  0  0  0  0
  1  2  1  0
  2  3  1  0
  3  4  1  0
  4  5  1  0
  5  6  1  0
  6  7  1  0
  7  8  1  0
  8  9  1  0
  9 10  1  0
 10 11  1  0
 11 12  1  0
 12 13  1  0
 13 14  1  0
 14 15  2  0
 15 16  1  0
 16 17  2  0
 17 18  1  0
 18 19  2  0
 19 20  1  0
 20 21  2  0
 21 22  1  0
 21 23  1  0
 23 24  2  0
 24 25  1  0
 25 26  1  0
 26 27  1  0
 25 28  2  0
 28 29  1  0
 29 30  2  0
 30 14  1  0
 20 15  1  0
 30 23  1  0
  1 31  1  0
  1 32  1  0
  1 33  1  0
  2 34  1  0
  2 35  1  0
  3 36  1  0
  4 37  1  0
  4 38  1  0
  5 39  1  0
  5 40  1  0
  7 41  1  0
  7 42  1  0
  8 43  1  0
  8 44  1  0
  9 45  1  0
  9 46  1  0
 10 47  1  0
 11 48  1  0
 11 49  1  0
 12 50  1  0
 12 51  1  0
 13 52  1  0
 16 53  1  0
 17 54  1  0
 18 55  1  0
 19 56  1  0
 22 57  1  0
 22 58  1  0
 22 59  1  0
 24 60  1  0
 27 61  1  0
 27 62  1  0
 27 63  1  0
 28 64  1  0
 29 65  1  0
M  CHG  1  21   1
M  END
>  <UniqueID>  (2) 
2

>  <SMILES>  (2) 
CCNCCOCCCNCCNc1c2ccccc2[n+](C)c2cc(OC)ccc12

>  <Energy>  (2) 
80.29105105444114

>  <Genealogy>  (2) 
CCNCCOCCCNCCNc1c2ccccc2[n+](C)c2cc(OC)ccc12 (3D coordinates assigned)
CCNCCOCCCNCCNc1c2ccccc2[n+](C)c2cc(OC)ccc12 (optimized conformer: 80.29105105444114 kcal/mol)

>  <smiles>  (2) 
CCNCCOCCCNCCNc1c2ccccc2[n+](C)c2cc(OC)ccc12

>  <score_type>  (2) 
oracle

>  <origin>  (2) 
adg

>  <m_score__min__energy>  (2) 
-9.1600000000000001

>  <m_primary>  (2) 
energy

$$$$
2:0
     RDKit          3D

 53 55  0  0  0  0  0  0  0  0999 V2000
   -5.4020   25.9990  -30.4750 C   0  0  0  0  0  0  0  0  0  0  0  0
   -6.5020   25.2660  -29.7060 C   0  0  0  0  0  0  0  0  0  0  0  0
   -6.7780   23.8560  -30.2580 C   0  0  0  0  0  0  0  0  0  0  0  0
   -6.8180   23.7950  -31.7950 C   0  0  0  0  0  0  0  0  0  0  0  0
   -5.4800   23.5950  -32.3620 N   0  0  0  0  0  0  0  0  0  0  0  0
   -4.6380   22.8340  -31.4300 C   0  0  0  0  0  0  0  0  0  0  0  0
   -3.5780   22.0250  -32.1930 C   0  0  0  0  0  0  0  0  0  0  0  0
   -4.0620   21.4600  -33.4720 N   0  0  0  0  0  0  0  0  0  0  0  0
   -4.4140   20.0450  -33.3890 C   0  0  0  0  0  0  0  0  0  0  0  0
   -3.4700   19.0240  -33.7110 C   0  0  0  0  0  0  0  0  0  0  0  0
   -2.1740   19.3180  -34.2110 C   0  0  0  0  0  0  0  0  0  0  0  0
   -1.2840   18.3050  -34.5590 C   0  0  0  0  0  0  0  0  0  0  0  0
   -1.6540   16.9770  -34.4320 C   0  0  0  0  0  0  0  0  0  0  0  0
   -2.9110   16.6510  -33.9340 C   0  0  0  0  0  0  0  0  0  0  0  0
   -3.8290   17.6560  -33.5280 C   0  0  0  0  0  0  0  0  0  0  0  0
   -5.0510   17.3200  -32.9870 N   0  0  0  0  0  0  0  0  0  0  0  0
   -5.2960   15.9370  -32.5140 C   0  0  0  0  0  0  0  0  0  0  0  0
   -6.0380   18.2740  -32.8580 C   0  0  0  0  0  0  0  0  0  0  0  0
   -7.3820   17.9050  -32.5940 C   0  0  0  0  0  0  0  0  0  0  0  0
   -8.3640   18.8640  -32.3700 C   0  0  0  0  0  0  0  0  0  0  0  0
   -8.0470   20.2180  -32.4160 C   0  0  0  0  0  0  0  0  0  0  0  0
   -9.0920   21.2520  -32.1120 C   0  0  0  0  0  0  0  0  0  0  0  0
   -6.7360   20.6080  -32.7070 C   0  0  0  0  0  0  0  0  0  0  0  0
   -5.7240   19.6540  -32.9880 C   0  0  0  0  0  0  0  0  0  0  0  0
   -4.7043   26.4639  -29.7629 H   0  0  0  0  0  0  0  0  0  0  0  0
   -4.8572   25.2827  -31.1076 H   0  0  0  0  0  0  0  0  0  0  0  0
   -5.8533   26.7776  -31.1076 H   0  0  0  0  0  0  0  0  0  0  0  0
   -6.1956   25.1775  -28.6533 H   0  0  0  0  0  0  0  0  0  0  0  0
   -7.4274   25.8508  -29.8140 H   0  0  0  0  0  0  0  0  0  0  0  0
   -5.9844   23.1819  -29.9034 H   0  0  0  0  0  0  0  0  0  0  0  0
   -7.7727   23.5563  -29.8965 H   0  0  0  0  0  0  0  0  0  0  0  0
   -7.4646   22.9599  -32.1025 H   0  0  0  0  0  0  0  0  0  0  0  0
   -7.2101   24.7529  -32.1675 H   0  0  0  0  0  0  0  0  0  0  0  0
   -5.5800   23.0200  -33.2320 H   0  0  0  0  0  0  0  0  0  0  0  0
   -4.1352   23.5324  -30.7449 H   0  0  0  0  0  0  0  0  0  0  0  0
   -5.2754   22.1379  -30.8651 H   0  0  0  0  0  0  0  0  0  0  0  0
   -2.7252   22.6861  -32.4069 H   0  0  0  0  0  0  0  0  0  0  0  0
   -3.3023   21.1747  -31.5519 H   0  0  0  0  0  0  0  0  0  0  0  0
   -4.8240   22.0530  -33.8570 H   0  0  0  0  0  0  0  0  0  0  0  0
   -3.3170   21.5780  -34.1940 H   0  0  0  0  0  0  0  0  0  0  0  0
   -1.8665   20.3679  -34.3259 H   0  0  0  0  0  0  0  0  0  0  0  0
   -0.2830   18.5611  -34.9363 H   0  0  0  0  0  0  0  0  0  0  0  0
   -0.9543   16.1803  -34.7247 H   0  0  0  0  0  0  0  0  0  0  0  0
   -3.2003   15.5928  -33.8528 H   0  0  0  0  0  0  0  0  0  0  0  0
   -5.2989   15.9208  -31.4141 H   0  0  0  0  0  0  0  0  0  0  0  0
   -6.2699   15.5885  -32.8884 H   0  0  0  0  0  0  0  0  0  0  0  0
   -4.5011   15.2752  -32.8884 H   0  0  0  0  0  0  0  0  0  0  0  0
   -7.6529   16.8392  -32.5659 H   0  0  0  0  0  0  0  0  0  0  0  0
   -9.3963   18.5505  -32.1554 H   0  0  0  0  0  0  0  0  0  0  0  0
   -9.1979   21.3568  -31.0221 H   0  0  0  0  0  0  0  0  0  0  0  0
   -8.7902   22.2168  -32.5455 H   0  0  0  0  0  0  0  0  0  0  0  0
  -10.0536   20.9400  -32.5455 H   0  0  0  0  0  0  0  0  0  0  0  0
   -6.4836   21.6786  -32.7183 H   0  0  0  0  0  0  0  0  0  0  0  0
  1  2  1  0
  2  3  1  0
  3  4  1  0
  4  5  1  0
  5  6  1  0
  6  7  1  0
  7  8  1  0
  8  9  1  0
  9 10  2  0
 10 11  1  0
 11 12  2  0
 12 13  1  0
 13 14  2  0
 14 15  1  0
 15 16  2  0
 16 17  1  0
 16 18  1  0
 18 19  2  0
 19 20  1  0
 20 21  2  0
 21 22  1  0
 21 23  1  0
 23 24  2  0
 24  9  1  0
 15 10  1  0
 24 18  1  0
  1 25  1  0
  1 26  1  0
  1 27  1  0
  2 28  1  0
  2 29  1  0
  3 30  1  0
  3 31  1  0
  4 32  1  0
  4 33  1  0
  5 34  1  0
  6 35  1  0
  6 36  1  0
  7 37  1  0
  7 38  1  0
  8 39  1  0
  8 40  1  0
 11 41  1  0
 12 42  1  0
 13 43  1  0
 14 44  1  0
 17 45  1  0
 17 46  1  0
 17 47  1  0
 19 48  1  0
 20 49  1  0
 22 50  1  0
 22 51  1  0
 22 52  1  0
 23 53  1  0
M  CHG  2   8   1  16   1
M  END
>  <UniqueID>  (3) 
3

>  <SMILES>  (3) 
CCCCNCC[NH2+]c1c2ccccc2[n+](C)c2ccc(C)cc12

>  <Energy>  (3) 
72.61449246291028

>  <Genealogy>  (3) 
CCCCNCC[NH2+]c1c2ccccc2[n+](C)c2ccc(C)cc12 (protonated)
CCCCNCC[NH2+]c1c2ccccc2[n+](C)c2ccc(C)cc12 (3D coordinates assigned)
CCCCNCC[NH2+]c1c2ccccc2[n+](C)c2ccc(C)cc12 (optimized conformer: 72.61449246291028 kcal/mol)

>  <smiles>  (3) 
CCCCNCCNc1c2ccccc2[n+](C)c2ccc(C)cc12

>  <score_type>  (3) 
oracle

>  <origin>  (3) 
adg

>  <m_score__min__energy>  (3) 
-7.9199999999999999

>  <m_primary>  (3) 
energy

$$$$
3:0
     RDKit          3D

 46 50  0  0  0  0  0  0  0  0999 V2000
   -5.7460   17.7320  -33.4920 C   0  0  0  0  0  0  0  0  0  0  0  0
   -5.2070   19.0530  -34.0300 C   0  0  0  0  0  0  0  0  0  0  0  0
   -5.4750   20.1310  -33.0790 N   0  0  0  0  0  0  0  0  0  0  0  0
   -4.5650   21.0220  -32.6180 C   0  0  0  0  0  0  0  0  0  0  0  0
   -5.1870   21.9910  -31.8340 C   0  0  0  0  0  0  0  0  0  0  0  0
   -4.5400   23.1580  -31.2050 C   0  0  0  0  0  0  0  0  0  0  0  0
   -3.3970   23.1600  -30.5180 C   0  0  0  0  0  0  0  0  0  0  0  0
   -2.4640   22.0270  -30.3600 C   0  0  0  0  0  0  0  0  0  0  0  0
   -1.6020   21.5230  -31.3310 C   0  0  0  0  0  0  0  0  0  0  0  0
   -0.9080   20.4700  -30.8400 N   0  0  0  0  0  0  0  0  0  0  0  0
    0.0400   19.6440  -31.5790 C   0  0  0  0  0  0  0  0  0  0  0  0
   -1.3290   20.2940  -29.5710 C   0  0  0  0  0  0  0  0  0  0  0  0
   -0.9370   19.3020  -28.6680 C   0  0  0  0  0  0  0  0  0  0  0  0
   -1.5450   19.2880  -27.4000 C   0  0  0  0  0  0  0  0  0  0  0  0
   -2.5310   20.2420  -27.0690 C   0  0  0  0  0  0  0  0  0  0  0  0
   -2.9140   21.2250  -27.9990 C   0  0  0  0  0  0  0  0  0  0  0  0
   -2.2780   21.2310  -29.2420 C   0  0  0  0  0  0  0  0  0  0  0  0
   -3.1790   24.5250  -30.0390 C   0  0  0  0  0  0  0  0  0  0  0  0
   -2.1620   24.9170  -29.4100 O   0  0  0  0  0  0  0  0  0  0  0  0
   -4.2380   25.3960  -30.4200 N   0  0  0  0  0  0  0  0  0  0  0  0
   -5.0850   24.5150  -31.1470 C   0  0  0  0  0  0  0  0  0  0  0  0
   -6.1900   24.8730  -31.6330 O   0  0  0  0  0  0  0  0  0  0  0  0
   -6.5320   21.6680  -31.8340 C   0  0  0  0  0  0  0  0  0  0  0  0
   -7.6460   22.3100  -31.3010 C   0  0  0  0  0  0  0  0  0  0  0  0
   -8.9060   21.7440  -31.5550 C   0  0  0  0  0  0  0  0  0  0  0  0
   -9.0060   20.5770  -32.3450 C   0  0  0  0  0  0  0  0  0  0  0  0
   -7.8850   19.9940  -32.8690 N   0  0  0  0  0  0  0  0  0  0  0  0
   -6.6680   20.5420  -32.6030 C   0  0  0  0  0  0  0  0  0  0  0  0
   -5.7374   17.7531  -32.3922 H   0  0  0  0  0  0  0  0  0  0  0  0
   -6.7763   17.5842  -33.8478 H   0  0  0  0  0  0  0  0  0  0  0  0
   -5.1131   16.9056  -33.8478 H   0  0  0  0  0  0  0  0  0  0  0  0
   -4.1214   18.9666  -34.1852 H   0  0  0  0  0  0  0  0  0  0  0  0
   -5.7049   19.2828  -34.9836 H   0  0  0  0  0  0  0  0  0  0  0  0
   -3.4867   20.9856  -32.8325 H   0  0  0  0  0  0  0  0  0  0  0  0
   -1.5000   21.9233  -32.3505 H   0  0  0  0  0  0  0  0  0  0  0  0
    0.6745   19.0911  -30.8707 H   0  0  0  0  0  0  0  0  0  0  0  0
   -0.5098   18.9318  -32.2118 H   0  0  0  0  0  0  0  0  0  0  0  0
    0.6703   20.2861  -32.2118 H   0  0  0  0  0  0  0  0  0  0  0  0
   -0.1766   18.5554  -28.9406 H   0  0  0  0  0  0  0  0  0  0  0  0
   -1.2501   18.5283  -26.6611 H   0  0  0  0  0  0  0  0  0  0  0  0
   -3.0035   20.2165  -26.0760 H   0  0  0  0  0  0  0  0  0  0  0  0
   -3.6899   21.9655  -27.7549 H   0  0  0  0  0  0  0  0  0  0  0  0
   -7.5433   23.2273  -30.7026 H   0  0  0  0  0  0  0  0  0  0  0  0
   -9.8128   22.2082  -31.1399 H   0  0  0  0  0  0  0  0  0  0  0  0
   -9.9935   20.1335  -32.5403 H   0  0  0  0  0  0  0  0  0  0  0  0
   -7.9780   19.1460  -33.4690 H   0  0  0  0  0  0  0  0  0  0  0  0
  1  2  1  0
  2  3  1  0
  3  4  1  0
  4  5  2  0
  5  6  1  0
  6  7  2  0
  7  8  1  0
  8  9  2  0
  9 10  1  0
 10 11  1  0
 10 12  1  0
 12 13  2  0
 13 14  1  0
 14 15  2  0
 15 16  1  0
 16 17  2  0
  7 18  1  0
 18 19  2  0
 18 20  1  0
 20 21  1  0
 21 22  2  0
  5 23  1  0
 23 24  2  0
 24 25  1  0
 25 26  2  0
 26 27  1  0
 27 28  2  0
 28  3  1  0
 21  6  1  0
 28 23  1  0
 17  8  1  0
 17 12  1  0
  1 29  1  0
  1 30  1  0
  1 31  1  0
  2 32  1  0
  2 33  1  0
  4 34  1  0
  9 35  1  0
 11 36  1  0
 11 37  1  0
 11 38  1  0
 13 39  1  0
 14 40  1  0
 15 41  1  0
 16 42  1  0
 24 43  1  0
 25 44  1  0
 26 45  1  0
 27 46  1  0
M  CHG  2  20  -1  27   1
M  END
>  <UniqueID>  (4) 
4

>  <SMILES>  (4) 
CCn1cc(C2=C(c3cn(C)c4ccccc34)C(=O)[N-]C2=O)c2ccc[nH+]c21

>  <Energy>  (4) 
148.5718197863149

>  <Genealogy>  (4) 
CCn1cc(C2=C(c3cn(C)c4ccccc34)C(=O)[N-]C2=O)c2ccc[nH+]c21 (protonated)
CCn1cc(C2=C(c3cn(C)c4ccccc34)C(=O)[N-]C2=O)c2ccc[nH+]c21 (3D coordinates assigned)
CCn1cc(C2=C(c3cn(C)c4ccccc34)C(=O)[N-]C2=O)c2ccc[nH+]c21 (nonaromatic ring conformer: 148.5718197863149 kcal/mol)

>  <smiles>  (4) 
CCn1cc(C2=C(c3cn(C)c4ccccc34)C(=O)NC2=O)c2cccnc21

>  <score_type>  (4) 
oracle

>  <origin>  (4) 
adg

>  <m_score__min__energy>  (4) 
-10.92

>  <m_primary>  (4) 
energy

$$$$
4:0
     RDKit          3D

 53 56  0  0  0  0  0  0  0  0999 V2000
   -2.1800   16.0230  -33.7110 C   0  0  0  0  0  0  0  0  0  0  0  0
   -3.5560   16.0050  -33.0600 C   0  0  0  0  0  0  0  0  0  0  0  0
   -4.5140   16.7520  -33.9050 N   0  0  0  0  0  0  0  0  0  0  0  0
   -4.1880   16.6680  -35.3380 C   0  0  0  0  0  0  0  0  0  0  0  0
   -5.9290   16.4310  -33.6140 C   0  0  0  0  0  0  0  0  0  0  0  0
   -6.8450   17.6760  -33.4480 C   0  0  0  0  0  0  0  0  0  0  0  0
   -6.3080   18.8490  -34.1580 N   0  0  0  0  0  0  0  0  0  0  0  0
   -6.2520   19.9870  -33.2620 C   0  0  0  0  0  0  0  0  0  0  0  0
   -7.4470   20.5520  -32.7100 C   0  0  0  0  0  0  0  0  0  0  0  0
   -8.7210   19.9750  -32.9430 C   0  0  0  0  0  0  0  0  0  0  0  0
   -9.8630   20.4770  -32.3250 C   0  0  0  0  0  0  0  0  0  0  0  0
   -9.7700   21.5600  -31.4620 C   0  0  0  0  0  0  0  0  0  0  0  0
   -8.5470   22.1860  -31.2510 C   0  0  0  0  0  0  0  0  0  0  0  0
   -7.3720   21.7370  -31.9030 C   0  0  0  0  0  0  0  0  0  0  0  0
   -6.1770   22.4180  -31.7680 N   0  0  0  0  0  0  0  0  0  0  0  0
   -6.1140   23.7400  -31.1130 C   0  0  0  0  0  0  0  0  0  0  0  0
   -5.0370   21.8460  -32.2590 C   0  0  0  0  0  0  0  0  0  0  0  0
   -3.7900   22.3420  -32.1140 N   0  0  0  0  0  0  0  0  0  0  0  0
   -2.9810   21.4740  -32.7420 C   0  0  0  0  0  0  0  0  0  0  0  0
   -1.5930   21.5750  -32.8320 C   0  0  0  0  0  0  0  0  0  0  0  0
   -0.8770   20.5450  -33.4740 C   0  0  0  0  0  0  0  0  0  0  0  0
    0.5570   20.6050  -33.5660 N   0  0  0  0  0  0  0  0  0  0  0  0
    1.1190   21.5560  -34.1510 O   0  0  0  0  0  0  0  0  0  0  0  0
    1.3360   19.5950  -33.0520 O   0  0  0  0  0  0  0  0  0  0  0  0
   -1.5870   19.4400  -34.0010 C   0  0  0  0  0  0  0  0  0  0  0  0
   -2.9900   19.3640  -33.9040 C   0  0  0  0  0  0  0  0  0  0  0  0
   -3.6840   20.4130  -33.2790 C   0  0  0  0  0  0  0  0  0  0  0  0
   -5.0370   20.6540  -32.9760 C   0  0  0  0  0  0  0  0  0  0  0  0
   -1.4051   16.0331  -32.9303 H   0  0  0  0  0  0  0  0  0  0  0  0
   -2.0586   15.1264  -34.3365 H   0  0  0  0  0  0  0  0  0  0  0  0
   -2.0821   16.9225  -34.3365 H   0  0  0  0  0  0  0  0  0  0  0  0
   -3.8966   14.9646  -32.9523 H   0  0  0  0  0  0  0  0  0  0  0  0
   -3.4975   16.4775  -32.0684 H   0  0  0  0  0  0  0  0  0  0  0  0
   -3.1291   16.3952  -35.4578 H   0  0  0  0  0  0  0  0  0  0  0  0
   -4.8197   15.9033  -35.8135 H   0  0  0  0  0  0  0  0  0  0  0  0
   -4.3715   17.6428  -35.8135 H   0  0  0  0  0  0  0  0  0  0  0  0
   -6.3216   15.8220  -34.4417 H   0  0  0  0  0  0  0  0  0  0  0  0
   -5.9405   15.9001  -32.6507 H   0  0  0  0  0  0  0  0  0  0  0  0
   -7.8412   17.4413  -33.8510 H   0  0  0  0  0  0  0  0  0  0  0  0
   -6.8991   17.9201  -32.3768 H   0  0  0  0  0  0  0  0  0  0  0  0
   -5.3670   18.6410  -34.5600 H   0  0  0  0  0  0  0  0  0  0  0  0
   -6.8850   19.0540  -34.9920 H   0  0  0  0  0  0  0  0  0  0  0  0
   -8.8086   19.1156  -33.6240 H   0  0  0  0  0  0  0  0  0  0  0  0
  -10.8414   20.0142  -32.5211 H   0  0  0  0  0  0  0  0  0  0  0  0
  -10.6684   21.9247  -30.9425 H   0  0  0  0  0  0  0  0  0  0  0  0
   -8.4905   23.0448  -30.5660 H   0  0  0  0  0  0  0  0  0  0  0  0
   -6.1203   23.6088  -30.0209 H   0  0  0  0  0  0  0  0  0  0  0  0
   -5.1903   24.2552  -31.4151 H   0  0  0  0  0  0  0  0  0  0  0  0
   -6.9845   24.3407  -31.4151 H   0  0  0  0  0  0  0  0  0  0  0  0
   -3.4740   23.1860  -31.5870 H   0  0  0  0  0  0  0  0  0  0  0  0
   -1.0664   22.4434  -32.4093 H   0  0  0  0  0  0  0  0  0  0  0  0
   -1.0340   18.6272  -34.4945 H   0  0  0  0  0  0  0  0  0  0  0  0
   -3.5329   18.4980  -34.3107 H   0  0  0  0  0  0  0  0  0  0  0  0
  1  2  1  0
  2  3  1  0
  3  4  1  0
  3  5  1  0
  5  6  1  0
  6  7  1  0
  7  8  1  0
  8  9  2  0
  9 10  1  0
 10 11  2  0
 11 12  1  0
 12 13  2  0
 13 14  1  0
 14 15  2  0
 15 16  1  0
 15 17  1  0
 17 18  1  0
 18 19  1  0
 19 20  2  0
 20 21  1  0
 21 22  1  0
 22 23  2  0
 22 24  1  0
 21 25  2  0
 25 26  1  0
 26 27  2  0
 27 28  1  0
 28  8  1  0
 14  9  1  0
 28 17  2  0
 27 19  1  0
  1 29  1  0
  1 30  1  0
  1 31  1  0
  2 32  1  0
  2 33  1  0
  4 34  1  0
  4 35  1  0
  4 36  1  0
  5 37  1  0
  5 38  1  0
  6 39  1  0
  6 40  1  0
  7 41  1  0
  7 42  1  0
 10 43  1  0
 11 44  1  0
 12 45  1  0
 13 46  1  0
 16 47  1  0
 16 48  1  0
 16 49  1  0
 18 50  1  0
 20 51  1  0
 25 52  1  0
 26 53  1  0
M  CHG  4   7   1  15   1  22   1  24  -1
M  END
>  <UniqueID>  (5) 
5

>  <SMILES>  (5) 
CCN(C)CC[NH2+]c1c2ccccc2[n+](C)c2[nH]c3cc([N+](=O)[O-])ccc3c12

>  <Energy>  (5) 
123.71557698431515

>  <Genealogy>  (5) 
CCN(C)CC[NH2+]c1c2ccccc2[n+](C)c2[nH]c3cc([N+](=O)[O-])ccc3c12 (protonated)
CCN(C)CC[NH2+]c1c2ccccc2[n+](C)c2[nH]c3cc([N+](=O)[O-])ccc3c12 (3D coordinates assigned)
CCN(C)CC[NH2+]c1c2ccccc2[n+](C)c2[nH]c3cc([N+](=O)[O-])ccc3c12 (optimized conformer: 123.71557698431515 kcal/mol)

>  <smiles>  (5) 
CCN(C)CCNc1c2ccccc2[n+](C)c2[nH]c3cc([N+](=O)[O-])ccc3c12

>  <score_type>  (5) 
oracle

>  <origin>  (5) 
adg

>  <m_score__min__energy>  (5) 
-7.9500000000000002

>  <m_primary>  (5) 
energy

$$$$
5:0
     RDKit          3D

 55 56  0  0  0  0  0  0  0  0999 V2000
   -3.9600   21.0510  -31.3740 C   0  0  0  0  0  0  0  0  0  0  0  0
   -3.7130   21.9100  -32.6130 C   0  0  0  0  0  0  0  0  0  0  0  0
   -3.2830   21.0800  -33.7470 N   0  0  0  0  0  0  0  0  0  0  0  0
   -2.7530   19.7710  -33.3270 C   0  0  0  0  0  0  0  0  0  0  0  0
   -3.4100   18.6690  -34.1590 C   0  0  0  0  0  0  0  0  0  0  0  0
   -4.2640   17.7450  -33.2850 C   0  0  0  0  0  0  0  0  0  0  0  0
   -5.5910   18.3850  -32.9820 C   0  0  0  0  0  0  0  0  0  0  0  0
   -6.0660   19.4410  -33.7730 C   0  0  0  0  0  0  0  0  0  0  0  0
   -7.2800   20.0630  -33.4690 C   0  0  0  0  0  0  0  0  0  0  0  0
   -8.0340   19.6470  -32.3550 C   0  0  0  0  0  0  0  0  0  0  0  0
   -9.2850   20.2730  -32.0050 N   0  0  0  0  0  0  0  0  0  0  0  0
   -9.5040   21.7200  -31.9710 C   0  0  0  0  0  0  0  0  0  0  0  0
   -8.2710   22.4370  -31.4880 C   0  0  0  0  0  0  0  0  0  0  0  0
   -7.8060   22.2550  -30.1770 C   0  0  0  0  0  0  0  0  0  0  0  0
   -6.6600   22.9210  -29.7350 C   0  0  0  0  0  0  0  0  0  0  0  0
   -5.9520   23.7690  -30.6010 C   0  0  0  0  0  0  0  0  0  0  0  0
   -4.7090   24.4910  -30.1210 C   0  0  0  0  0  0  0  0  0  0  0  0
   -3.9070   23.7210  -29.1430 N   0  0  0  0  0  0  0  0  0  0  0  0
   -4.1410   24.1500  -27.7560 C   0  0  0  0  0  0  0  0  0  0  0  0
   -2.4700   23.7260  -29.4590 C   0  0  0  0  0  0  0  0  0  0  0  0
   -6.4140   23.9460  -31.9150 C   0  0  0  0  0  0  0  0  0  0  0  0
   -7.5600   23.2790  -32.3570 C   0  0  0  0  0  0  0  0  0  0  0  0
   -7.5530   18.5930  -31.5650 C   0  0  0  0  0  0  0  0  0  0  0  0
   -6.3390   17.9710  -31.8690 C   0  0  0  0  0  0  0  0  0  0  0  0
   -3.7869   21.6532  -30.4699 H   0  0  0  0  0  0  0  0  0  0  0  0
   -4.9987   20.6889  -31.3800 H   0  0  0  0  0  0  0  0  0  0  0  0
   -3.2723   20.1925  -31.3800 H   0  0  0  0  0  0  0  0  0  0  0  0
   -4.6433   22.4323  -32.8809 H   0  0  0  0  0  0  0  0  0  0  0  0
   -2.9179   22.6355  -32.3859 H   0  0  0  0  0  0  0  0  0  0  0  0
   -2.5230   21.5980  -34.2490 H   0  0  0  0  0  0  0  0  0  0  0  0
   -1.6642   19.7486  -33.4819 H   0  0  0  0  0  0  0  0  0  0  0  0
   -2.9732   19.6090  -32.2615 H   0  0  0  0  0  0  0  0  0  0  0  0
   -4.0509   19.1316  -34.9240 H   0  0  0  0  0  0  0  0  0  0  0  0
   -2.6165   18.0680  -34.6271 H   0  0  0  0  0  0  0  0  0  0  0  0
   -4.4323   16.7971  -33.8171 H   0  0  0  0  0  0  0  0  0  0  0  0
   -3.7340   17.5599  -32.3391 H   0  0  0  0  0  0  0  0  0  0  0  0
   -5.4791   19.7821  -34.6386 H   0  0  0  0  0  0  0  0  0  0  0  0
   -7.6486   20.8823  -34.1037 H   0  0  0  0  0  0  0  0  0  0  0  0
  -10.0800   19.6640  -31.7050 H   0  0  0  0  0  0  0  0  0  0  0  0
   -9.7517   22.0710  -32.9836 H   0  0  0  0  0  0  0  0  0  0  0  0
  -10.3307   21.9350  -31.2779 H   0  0  0  0  0  0  0  0  0  0  0  0
   -8.3467   21.5842  -29.4931 H   0  0  0  0  0  0  0  0  0  0  0  0
   -6.3103   22.7799  -28.7017 H   0  0  0  0  0  0  0  0  0  0  0  0
   -4.0757   24.7077  -30.9939 H   0  0  0  0  0  0  0  0  0  0  0  0
   -5.0480   25.4030  -29.6079 H   0  0  0  0  0  0  0  0  0  0  0  0
   -3.7310   23.3982  -27.0655 H   0  0  0  0  0  0  0  0  0  0  0  0
   -3.6451   25.1164  -27.5825 H   0  0  0  0  0  0  0  0  0  0  0  0
   -5.2220   24.2562  -27.5825 H   0  0  0  0  0  0  0  0  0  0  0  0
   -1.8892   23.7280  -28.5249 H   0  0  0  0  0  0  0  0  0  0  0  0
   -2.2201   22.8287  -30.0442 H   0  0  0  0  0  0  0  0  0  0  0  0
   -2.2264   24.6250  -30.0442 H   0  0  0  0  0  0  0  0  0  0  0  0
   -5.8710   24.6133  -32.6004 H   0  0  0  0  0  0  0  0  0  0  0  0
   -7.9067   23.4148  -33.3921 H   0  0  0  0  0  0  0  0  0  0  0  0
   -8.1371   18.2524  -30.6973 H   0  0  0  0  0  0  0  0  0  0  0  0
   -5.9682   17.1535  -31.2333 H   0  0  0  0  0  0  0  0  0  0  0  0
  1  2  1  0
  2  3  1  0
  3  4  1  0
  4  5  1  0
  5  6  1  0
  6  7  1  0
  7  8  2  0
  8  9  1  0
  9 10  2  0
 10 11  1  0
 11 12  1  0
 12 13  1  0
 13 14  2  0
 14 15  1  0
 15 16  2  0
 16 17  1  0
 17 18  1  0
 18 19  1  0
 18 20  1  0
 16 21  1  0
 21 22  2  0
 10 23  1  0
 23 24  2  0
 24  7  1  0
 22 13  1  0
  1 25  1  0
  1 26  1  0
  1 27  1  0
  2 28  1  0
  2 29  1  0
  3 30  1  0
  4 31  1  0
  4 32  1  0
  5 33  1  0
  5 34  1  0
  6 35  1  0
  6 36  1  0
  8 37  1  0
  9 38  1  0
 11 39  1  0
 12 40  1  0
 12 41  1  0
 14 42  1  0
 15 43  1  0
 17 44  1  0
 17 45  1  0
 19 46  1  0
 19 47  1  0
 19 48  1  0
 20 49  1  0
 20 50  1  0
 20 51  1  0
 21 52  1  0
 22 53  1  0
 23 54  1  0
 24 55  1  0
M  END
>  <UniqueID>  (6) 
6

>  <SMILES>  (6) 
CCNCCCc1ccc(NCc2ccc(CN(C)C)cc2)cc1

>  <Energy>  (6) 
48.99825436349555

>  <Genealogy>  (6) 
CCNCCCc1ccc(NCc2ccc(CN(C)C)cc2)cc1 (3D coordinates assigned)
CCNCCCc1ccc(NCc2ccc(CN(C)C)cc2)cc1 (optimized conformer: 48.99825436349555 kcal/mol)

>  <smiles>  (6) 
CCNCCCc1ccc(NCc2ccc(CN(C)C)cc2)cc1

>  <score_type>  (6) 
oracle

>  <origin>  (6) 
adg

>  <m_score__min__energy>  (6) 
-8.2200000000000006

>  <m_primary>  (6) 
energy

$$$$
6:0
     RDKit          3D

 52 55  0  0  0  0  0  0  0  0999 V2000
   -6.8430   24.7520  -30.0050 C   0  0  0  0  0  0  0  0  0  0  0  0
   -5.6670   25.6790  -30.3220 C   0  0  0  0  0  0  0  0  0  0  0  0
   -4.6200   25.0060  -31.1120 N   0  0  0  0  0  0  0  0  0  0  0  0
   -3.7640   24.1360  -30.2910 C   0  0  0  0  0  0  0  0  0  0  0  0
   -3.6120   22.7660  -30.9550 C   0  0  0  0  0  0  0  0  0  0  0  0
   -4.4650   22.6640  -32.1420 N   0  0  0  0  0  0  0  0  0  0  0  0
   -4.9660   21.4020  -32.6100 C   0  0  0  0  0  0  0  0  0  0  0  0
   -6.3390   21.1190  -32.5610 C   0  0  0  0  0  0  0  0  0  0  0  0
   -6.8010   19.8410  -32.9250 C   0  0  0  0  0  0  0  0  0  0  0  0
   -5.9380   18.9150  -33.4690 N   0  0  0  0  0  0  0  0  0  0  0  0
   -6.4800   17.7170  -34.1370 C   0  0  0  0  0  0  0  0  0  0  0  0
   -4.5780   19.1460  -33.4420 C   0  0  0  0  0  0  0  0  0  0  0  0
   -4.0740   20.4230  -33.0820 C   0  0  0  0  0  0  0  0  0  0  0  0
   -2.5700   20.6880  -33.1010 C   0  0  0  0  0  0  0  0  0  0  0  0
   -1.8360   19.8740  -34.1800 C   0  0  0  0  0  0  0  0  0  0  0  0
   -2.2560   18.4410  -34.1000 C   0  0  0  0  0  0  0  0  0  0  0  0
   -1.4100   17.3390  -34.2780 C   0  0  0  0  0  0  0  0  0  0  0  0
   -2.0480   16.1230  -34.0640 C   0  0  0  0  0  0  0  0  0  0  0  0
   -3.6520   16.4330  -33.6540 S   0  0  0  0  0  0  0  0  0  0  0  0
   -3.5660   18.1120  -33.7960 C   0  0  0  0  0  0  0  0  0  0  0  0
   -8.2830   19.5610  -32.7250 C   0  0  0  0  0  0  0  0  0  0  0  0
   -8.7790   20.1760  -31.4070 C   0  0  0  0  0  0  0  0  0  0  0  0
   -8.4020   21.6650  -31.2280 C   0  0  0  0  0  0  0  0  0  0  0  0
   -7.3770   22.1750  -32.2520 C   0  0  0  0  0  0  0  0  0  0  0  0
   -6.9560   24.6629  -28.9145 H   0  0  0  0  0  0  0  0  0  0  0  0
   -7.7651   25.1688  -30.4364 H   0  0  0  0  0  0  0  0  0  0  0  0
   -6.6531   23.7581  -30.4364 H   0  0  0  0  0  0  0  0  0  0  0  0
   -6.0408   26.5418  -30.8928 H   0  0  0  0  0  0  0  0  0  0  0  0
   -5.2188   25.9918  -29.3674 H   0  0  0  0  0  0  0  0  0  0  0  0
   -4.0250   25.7220  -31.5890 H   0  0  0  0  0  0  0  0  0  0  0  0
   -2.7723   24.5994  -30.1828 H   0  0  0  0  0  0  0  0  0  0  0  0
   -4.2276   24.0062  -29.3020 H   0  0  0  0  0  0  0  0  0  0  0  0
   -2.5625   22.6240  -31.2522 H   0  0  0  0  0  0  0  0  0  0  0  0
   -3.9153   21.9908  -30.2359 H   0  0  0  0  0  0  0  0  0  0  0  0
   -4.6870   23.5280  -32.6840 H   0  0  0  0  0  0  0  0  0  0  0  0
   -6.8084   16.9912  -33.3785 H   0  0  0  0  0  0  0  0  0  0  0  0
   -7.3362   18.0034  -34.7654 H   0  0  0  0  0  0  0  0  0  0  0  0
   -5.6996   17.2629  -34.7654 H   0  0  0  0  0  0  0  0  0  0  0  0
   -2.4039   21.7581  -33.2941 H   0  0  0  0  0  0  0  0  0  0  0  0
   -2.1671   20.3828  -32.1240 H   0  0  0  0  0  0  0  0  0  0  0  0
   -2.0863   20.2739  -35.1737 H   0  0  0  0  0  0  0  0  0  0  0  0
   -0.7506   19.9461  -34.0166 H   0  0  0  0  0  0  0  0  0  0  0  0
   -0.3499   17.4269  -34.5583 H   0  0  0  0  0  0  0  0  0  0  0  0
   -1.5849   15.1288  -34.1480 H   0  0  0  0  0  0  0  0  0  0  0  0
   -8.8488   19.9961  -33.5620 H   0  0  0  0  0  0  0  0  0  0  0  0
   -8.4351   18.4723  -32.6865 H   0  0  0  0  0  0  0  0  0  0  0  0
   -9.8752   20.0904  -31.3760 H   0  0  0  0  0  0  0  0  0  0  0  0
   -8.2884   19.6228  -30.5926 H   0  0  0  0  0  0  0  0  0  0  0  0
   -9.3170   22.2679  -31.3241 H   0  0  0  0  0  0  0  0  0  0  0  0
   -7.9363   21.7594  -30.2359 H   0  0  0  0  0  0  0  0  0  0  0  0
   -7.9015   22.4448  -33.1805 H   0  0  0  0  0  0  0  0  0  0  0  0
   -6.8659   23.0510  -31.8260 H   0  0  0  0  0  0  0  0  0  0  0  0
  1  2  1  0
  2  3  1  0
  3  4  1  0
  4  5  1  0
  5  6  1  0
  6  7  1  0
  7  8  2  0
  8  9  1  0
  9 10  2  0
 10 11  1  0
 10 12  1  0
 12 13  2  0
 13 14  1  0
 14 15  1  0
 15 16  1  0
 16 17  1  0
 17 18  2  0
 18 19  1  0
 19 20  1  0
  9 21  1  0
 21 22  1  0
 22 23  1  0
 23 24  1  0
 13  7  1  0
 20 16  2  0
 24  8  1  0
 20 12  1  0
  1 25  1  0
  1 26  1  0
  1 27  1  0
  2 28  1  0
  2 29  1  0
  3 30  1  0
  4 31  1  0
  4 32  1  0
  5 33  1  0
  5 34  1  0
  6 35  1  0
 11 36  1  0
 11 37  1  0
 11 38  1  0
 14 39  1  0
 14 40  1  0
 15 41  1  0
 15 42  1  0
 17 43  1  0
 18 44  1  0
 21 45  1  0
 21 46  1  0
 22 47  1  0
 22 48  1  0
 23 49  1  0
 23 50  1  0
 24 51  1  0
 24 52  1  0
M  CHG  1  10   1
M  END
>  <UniqueID>  (7) 
7

>  <SMILES>  (7) 
CCNCCNc1c2c([n+](C)c3c1CCc1ccsc1-3)CCCC2

>  <Energy>  (7) 
104.02591018836134

>  <Genealogy>  (7) 
CCNCCNc1c2c([n+](C)c3c1CCc1ccsc1-3)CCCC2 (3D coordinates assigned)
CCNCCNc1c2c([n+](C)c3c1CCc1ccsc1-3)CCCC2 (nonaromatic ring conformer: 104.02591018836134 kcal/mol)

>  <smiles>  (7) 
CCNCCNc1c2c([n+](C)c3c1CCc1ccsc1-3)CCCC2

>  <score_type>  (7) 
oracle

>  <origin>  (7) 
adg

>  <m_score__min__energy>  (7) 
-8.9499999999999993

>  <m_primary>  (7) 
energy

$$$$
7:0
     RDKit          3D

 41 42  0  0  0  0  0  0  0  0999 V2000
   -6.0920   17.9440  -34.0740 C   0  0  0  0  0  0  0  0  0  0  0  0
   -6.4660   19.3510  -33.6140 C   0  0  0  0  0  0  0  0  0  0  0  0
   -6.5120   19.4350  -32.1440 N   0  0  0  0  0  0  0  0  0  0  0  0
   -7.8900   19.3190  -31.6500 C   0  0  0  0  0  0  0  0  0  0  0  0
   -8.5590   20.6940  -31.4960 C   0  0  0  0  0  0  0  0  0  0  0  0
   -7.8860   21.6190  -32.3150 O   0  0  0  0  0  0  0  0  0  0  0  0
   -7.6950   22.8390  -31.6160 C   0  0  0  0  0  0  0  0  0  0  0  0
   -6.9110   23.8250  -32.4900 C   0  0  0  0  0  0  0  0  0  0  0  0
   -5.7420   24.3160  -31.7560 N   0  0  0  0  0  0  0  0  0  0  0  0
   -4.7510   23.4320  -31.2230 C   0  0  0  0  0  0  0  0  0  0  0  0
   -4.9010   22.0860  -31.3550 N   0  0  0  0  0  0  0  0  0  0  0  0
   -3.9690   21.2300  -30.9270 N   0  0  0  0  0  0  0  0  0  0  0  0
   -4.1460   19.8790  -31.1460 O   0  0  0  0  0  0  0  0  0  0  0  0
   -2.8350   21.6910  -30.3230 C   0  0  0  0  0  0  0  0  0  0  0  0
   -1.8390   20.8120  -29.8640 C   0  0  0  0  0  0  0  0  0  0  0  0
   -0.6660   21.3190  -29.2820 C   0  0  0  0  0  0  0  0  0  0  0  0
   -0.4910   22.7020  -29.1400 C   0  0  0  0  0  0  0  0  0  0  0  0
   -1.4760   23.5810  -29.5870 C   0  0  0  0  0  0  0  0  0  0  0  0
   -2.6580   23.0850  -30.1800 C   0  0  0  0  0  0  0  0  0  0  0  0
   -3.6320   23.9330  -30.6310 N   0  0  0  0  0  0  0  0  0  0  0  0
   -3.5040   25.2960  -30.4680 O   0  0  0  0  0  0  0  0  0  0  0  0
   -5.9219   17.3041  -33.1956 H   0  0  0  0  0  0  0  0  0  0  0  0
   -6.9103   17.5264  -34.6789 H   0  0  0  0  0  0  0  0  0  0  0  0
   -5.1743   17.9878  -34.6789 H   0  0  0  0  0  0  0  0  0  0  0  0
   -5.7170   20.0629  -33.9910 H   0  0  0  0  0  0  0  0  0  0  0  0
   -7.4638   19.5933  -34.0086 H   0  0  0  0  0  0  0  0  0  0  0  0
   -6.1610   20.3870  -31.8700 H   0  0  0  0  0  0  0  0  0  0  0  0
   -8.4738   18.7167  -32.3617 H   0  0  0  0  0  0  0  0  0  0  0  0
   -7.8590   18.8411  -30.6597 H   0  0  0  0  0  0  0  0  0  0  0  0
   -9.6137   20.6284  -31.8014 H   0  0  0  0  0  0  0  0  0  0  0  0
   -8.5096   21.0186  -30.4461 H   0  0  0  0  0  0  0  0  0  0  0  0
   -8.6743   23.2728  -31.3655 H   0  0  0  0  0  0  0  0  0  0  0  0
   -7.1280   22.6428  -30.6941 H   0  0  0  0  0  0  0  0  0  0  0  0
   -6.5794   23.3164  -33.4073 H   0  0  0  0  0  0  0  0  0  0  0  0
   -7.5593   24.6743  -32.7515 H   0  0  0  0  0  0  0  0  0  0  0  0
   -5.7100   25.3230  -31.4950 H   0  0  0  0  0  0  0  0  0  0  0  0
   -5.0470   19.5160  -31.4210 H   0  0  0  0  0  0  0  0  0  0  0  0
   -1.9786   19.7252  -29.9608 H   0  0  0  0  0  0  0  0  0  0  0  0
    0.1176   20.6286  -28.9366 H   0  0  0  0  0  0  0  0  0  0  0  0
    0.4253   23.0946  -28.6750 H   0  0  0  0  0  0  0  0  0  0  0  0
   -1.3321   24.6660  -29.4774 H   0  0  0  0  0  0  0  0  0  0  0  0
  1  2  1  0
  2  3  1  0
  3  4  1  0
  4  5  1  0
  5  6  1  0
  6  7  1  0
  7  8  1  0
  8  9  1  0
  9 10  1  0
 10 11  2  0
 11 12  1  0
 12 13  1  0
 12 14  2  0
 14 15  1  0
 15 16  2  0
 16 17  1  0
 17 18  2  0
 18 19  1  0
 19 20  2  0
 20 21  1  0
 20 10  1  0
 19 14  1  0
  1 22  1  0
  1 23  1  0
  1 24  1  0
  2 25  1  0
  2 26  1  0
  3 27  1  0
  4 28  1  0
  4 29  1  0
  5 30  1  0
  5 31  1  0
  7 32  1  0
  7 33  1  0
  8 34  1  0
  8 35  1  0
  9 36  1  0
 13 37  1  0
 15 38  1  0
 16 39  1  0
 17 40  1  0
 18 41  1  0
M  CHG  3  12   1  20   1  21  -1
M  END
>  <UniqueID>  (8) 
8

>  <SMILES>  (8) 
CCNCCOCCNc1n[n+](O)c2ccccc2[n+]1[O-]

>  <Energy>  (8) 
44.35336725447317

>  <Genealogy>  (8) 
CCNCCOCCNc1n[n+](O)c2ccccc2[n+]1[O-] (protonated)
CCNCCOCCNc1n[n+](O)c2ccccc2[n+]1[O-] (3D coordinates assigned)
CCNCCOCCNc1n[n+](O)c2ccccc2[n+]1[O-] (optimized conformer: 44.35336725447317 kcal/mol)

>  <smiles>  (8) 
CCNCCOCCNc1n[n+]([O-])c2ccccc2[n+]1[O-]

>  <score_type>  (8) 
oracle

>  <origin>  (8) 
adg

>  <m_score__min__energy>  (8) 
-7.4299999999999997

>  <m_primary>  (8) 
energy

$$$$
8:0
     RDKit          3D

 71 73  0  0  0  0  0  0  0  0999 V2000
   -2.7300   19.4340  -26.6510 C   0  0  0  0  0  0  0  0  0  0  0  0
   -2.6980   20.5690  -27.6720 C   0  0  0  0  0  0  0  0  0  0  0  0
   -2.3150   20.0470  -29.0050 N   0  0  0  0  0  0  0  0  0  0  0  0
   -0.8480   19.8680  -29.1080 C   0  0  0  0  0  0  0  0  0  0  0  0
   -0.4580   19.4290  -30.5170 C   0  0  0  0  0  0  0  0  0  0  0  0
   -2.8230   20.9220  -30.0870 C   0  0  0  0  0  0  0  0  0  0  0  0
   -2.5900   22.3280  -29.7330 N   0  0  0  0  0  0  0  0  0  0  0  0
   -1.2530   22.7560  -30.1640 C   0  0  0  0  0  0  0  0  0  0  0  0
   -0.5650   23.5870  -29.0720 C   0  0  0  0  0  0  0  0  0  0  0  0
   -1.3820   24.8210  -28.6530 C   0  0  0  0  0  0  0  0  0  0  0  0
   -2.6100   24.9190  -29.3540 O   0  0  0  0  0  0  0  0  0  0  0  0
   -3.6940   24.5410  -28.5300 C   0  0  0  0  0  0  0  0  0  0  0  0
   -4.9660   24.4690  -29.3650 C   0  0  0  0  0  0  0  0  0  0  0  0
   -4.6290   24.5460  -30.7350 O   0  0  0  0  0  0  0  0  0  0  0  0
   -5.7870   24.6620  -31.5410 C   0  0  0  0  0  0  0  0  0  0  0  0
   -5.9970   23.3730  -32.3380 C   0  0  0  0  0  0  0  0  0  0  0  0
   -5.0010   22.3690  -31.9700 N   0  0  0  0  0  0  0  0  0  0  0  0
   -5.0590   21.0440  -32.5300 C   0  0  0  0  0  0  0  0  0  0  0  0
   -3.9210   20.4830  -33.1360 C   0  0  0  0  0  0  0  0  0  0  0  0
   -2.7040   21.1930  -33.1850 C   0  0  0  0  0  0  0  0  0  0  0  0
   -1.5590   20.6160  -33.7270 C   0  0  0  0  0  0  0  0  0  0  0  0
   -1.6030   19.3150  -34.2150 C   0  0  0  0  0  0  0  0  0  0  0  0
   -2.7970   18.5950  -34.1900 C   0  0  0  0  0  0  0  0  0  0  0  0
   -3.9900   19.1710  -33.6780 C   0  0  0  0  0  0  0  0  0  0  0  0
   -5.1890   18.4820  -33.6780 N   0  0  0  0  0  0  0  0  0  0  0  0
   -5.3330   17.2520  -34.4870 C   0  0  0  0  0  0  0  0  0  0  0  0
   -6.2590   18.9560  -32.9430 C   0  0  0  0  0  0  0  0  0  0  0  0
   -7.4100   18.1630  -32.7040 C   0  0  0  0  0  0  0  0  0  0  0  0
   -8.5080   18.6770  -32.0160 C   0  0  0  0  0  0  0  0  0  0  0  0
   -8.4880   19.9820  -31.5400 C   0  0  0  0  0  0  0  0  0  0  0  0
   -7.3570   20.7730  -31.7200 C   0  0  0  0  0  0  0  0  0  0  0  0
   -6.2220   20.2660  -32.3920 C   0  0  0  0  0  0  0  0  0  0  0  0
   -2.7181   19.8546  -25.6347 H   0  0  0  0  0  0  0  0  0  0  0  0
   -3.6452   18.8402  -26.7914 H   0  0  0  0  0  0  0  0  0  0  0  0
   -1.8497   18.7896  -26.7914 H   0  0  0  0  0  0  0  0  0  0  0  0
   -3.6950   21.0296  -27.7348 H   0  0  0  0  0  0  0  0  0  0  0  0
   -1.9580   21.3179  -27.3534 H   0  0  0  0  0  0  0  0  0  0  0  0
   -0.3503   20.8210  -28.8755 H   0  0  0  0  0  0  0  0  0  0  0  0
   -0.5346   19.0912  -28.3950 H   0  0  0  0  0  0  0  0  0  0  0  0
    0.2715   18.6079  -30.4565 H   0  0  0  0  0  0  0  0  0  0  0  0
   -1.3537   19.0849  -31.0549 H   0  0  0  0  0  0  0  0  0  0  0  0
   -0.0108   20.2779  -31.0549 H   0  0  0  0  0  0  0  0  0  0  0  0
   -2.2969   20.6883  -31.0243 H   0  0  0  0  0  0  0  0  0  0  0  0
   -3.9018   20.7521  -30.2184 H   0  0  0  0  0  0  0  0  0  0  0  0
   -3.2920   22.9150  -30.2390 H   0  0  0  0  0  0  0  0  0  0  0  0
   -0.6420   21.8668  -30.3785 H   0  0  0  0  0  0  0  0  0  0  0  0
   -1.3568   23.3777  -31.0655 H   0  0  0  0  0  0  0  0  0  0  0  0
   -0.4147   22.9493  -28.1884 H   0  0  0  0  0  0  0  0  0  0  0  0
    0.3888   23.9478  -29.4843 H   0  0  0  0  0  0  0  0  0  0  0  0
   -1.5944   24.7550  -27.5757 H   0  0  0  0  0  0  0  0  0  0  0  0
   -0.7868   25.7146  -28.8923 H   0  0  0  0  0  0  0  0  0  0  0  0
   -3.4907   23.5554  -28.0860 H   0  0  0  0  0  0  0  0  0  0  0  0
   -3.8226   25.2845  -27.7296 H   0  0  0  0  0  0  0  0  0  0  0  0
   -5.4829   23.5185  -29.1664 H   0  0  0  0  0  0  0  0  0  0  0  0
   -5.6289   25.3060  -29.1005 H   0  0  0  0  0  0  0  0  0  0  0  0
   -6.6621   24.8406  -30.8989 H   0  0  0  0  0  0  0  0  0  0  0  0
   -5.6603   25.5030  -32.2386 H   0  0  0  0  0  0  0  0  0  0  0  0
   -7.0020   22.9784  -32.1278 H   0  0  0  0  0  0  0  0  0  0  0  0
   -5.8916   23.5990  -33.4094 H   0  0  0  0  0  0  0  0  0  0  0  0
   -4.4900   22.4910  -31.0660 H   0  0  0  0  0  0  0  0  0  0  0  0
   -2.6586   22.2182  -32.7890 H   0  0  0  0  0  0  0  0  0  0  0  0
   -0.6207   21.1886  -33.7691 H   0  0  0  0  0  0  0  0  0  0  0  0
   -0.6923   18.8517  -34.6225 H   0  0  0  0  0  0  0  0  0  0  0  0
   -2.8152   17.5640  -34.5731 H   0  0  0  0  0  0  0  0  0  0  0  0
   -5.4346   16.3838  -33.8193 H   0  0  0  0  0  0  0  0  0  0  0  0
   -6.2278   17.3332  -35.1217 H   0  0  0  0  0  0  0  0  0  0  0  0
   -4.4437   17.1243  -35.1217 H   0  0  0  0  0  0  0  0  0  0  0  0
   -7.4369   17.1251  -33.0675 H   0  0  0  0  0  0  0  0  0  0  0  0
   -9.3940   18.0467  -31.8493 H   0  0  0  0  0  0  0  0  0  0  0  0
   -9.3671   20.3907  -31.0202 H   0  0  0  0  0  0  0  0  0  0  0  0
   -7.3466   21.8034  -31.3352 H   0  0  0  0  0  0  0  0  0  0  0  0
  1  2  1  0
  2  3  1  0
  3  4  1  0
  4  5  1  0
  3  6  1  0
  6  7  1  0
  7  8  1  0
  8  9  1  0
  9 10  1  0
 10 11  1  0
 11 12  1  0
 12 13  1  0
 13 14  1  0
 14 15  1  0
 15 16  1  0
 16 17  1  0
 17 18  1  0
 18 19  2  0
 19 20  1  0
 20 21  2  0
 21 22  1  0
 22 23  2  0
 23 24  1  0
 24 25  2  0
 25 26  1  0
 25 27  1  0
 27 28  2  0
 28 29  1  0
 29 30  2  0
 30 31  1  0
 31 32  2  0
 32 18  1  0
 24 19  1  0
 32 27  1  0
  1 33  1  0
  1 34  1  0
  1 35  1  0
  2 36  1  0
  2 37  1  0
  4 38  1  0
  4 39  1  0
  5 40  1  0
  5 41  1  0
  5 42  1  0
  6 43  1  0
  6 44  1  0
  7 45  1  0
  8 46  1  0
  8 47  1  0
  9 48  1  0
  9 49  1  0
 10 50  1  0
 10 51  1  0
 12 52  1  0
 12 53  1  0
 13 54  1  0
 13 55  1  0
 15 56  1  0
 15 57  1  0
 16 58  1  0
 16 59  1  0
 17 60  1  0
 20 61  1  0
 21 62  1  0
 22 63  1  0
 23 64  1  0
 26 65  1  0
 26 66  1  0
 26 67  1  0
 28 68  1  0
 29 69  1  0
 30 70  1  0
 31 71  1  0
M  CHG  1  25   1
M  END
>  <UniqueID>  (9) 
9

>  <SMILES>  (9) 
CCN(CC)CNCCCOCCOCCNc1c2ccccc2[n+](C)c2ccccc12

>  <Energy>  (9) 
92.38796454115004

>  <Genealogy>  (9) 
CCN(CC)CNCCCOCCOCCNc1c2ccccc2[n+](C)c2ccccc12 (3D coordinates assigned)
CCN(CC)CNCCCOCCOCCNc1c2ccccc2[n+](C)c2ccccc12 (optimized conformer: 92.38796454115004 kcal/mol)

>  <smiles>  (9) 
CCN(CC)CNCCCOCCOCCNc1c2ccccc2[n+](C)c2ccccc12

>  <score_type>  (9) 
oracle

>  <origin>  (9) 
adg

>  <m_score__min__energy>  (9) 
-9.0399999999999991

>  <m_primary>  (9) 
energy

$$$$
9:0
     RDKit          3D

 48 49  0  0  0  0  0  0  0  0999 V2000
   -5.3070   23.4200  -33.5520 H   0  0  0  0  0  0  0  0  0  0  0  0
   -5.3640   23.2160  -32.5260 N   0  0  0  0  0  0  0  0  0  0  0  0
   -4.9530   21.8190  -32.3310 C   0  0  0  0  0  0  0  0  0  0  0  0
   -5.7276   21.1513  -32.7362 H   0  0  0  0  0  0  0  0  0  0  0  0
   -4.8214   21.6276  -31.2558 H   0  0  0  0  0  0  0  0  0  0  0  0
   -3.6350   21.5590  -33.0510 C   0  0  0  0  0  0  0  0  0  0  0  0
   -2.8373   21.4016  -32.3101 H   0  0  0  0  0  0  0  0  0  0  0  0
   -3.7321   20.6627  -33.6812 H   0  0  0  0  0  0  0  0  0  0  0  0
   -3.3844   22.4250  -33.6812 H   0  0  0  0  0  0  0  0  0  0  0  0
   -6.7560   23.4320  -32.1050 C   0  0  0  0  0  0  0  0  0  0  0  0
   -7.1300   24.3643  -32.5533 H   0  0  0  0  0  0  0  0  0  0  0  0
   -7.3669   22.5807  -32.4399 H   0  0  0  0  0  0  0  0  0  0  0  0
   -6.8410   23.5360  -30.5760 C   0  0  0  0  0  0  0  0  0  0  0  0
   -7.8482   23.2296  -30.2572 H   0  0  0  0  0  0  0  0  0  0  0  0
   -6.0656   22.8803  -30.1531 H   0  0  0  0  0  0  0  0  0  0  0  0
   -6.5750   24.9630  -30.0660 C   0  0  0  0  0  0  0  0  0  0  0  0
   -7.4266   25.5981  -30.3514 H   0  0  0  0  0  0  0  0  0  0  0  0
   -6.4481   24.8959  -28.9754 H   0  0  0  0  0  0  0  0  0  0  0  0
   -5.2920   25.5910  -30.6290 C   0  0  0  0  0  0  0  0  0  0  0  0
   -5.4353   25.8094  -31.6975 H   0  0  0  0  0  0  0  0  0  0  0  0
   -5.0789   26.5178  -30.0762 H   0  0  0  0  0  0  0  0  0  0  0  0
   -4.1700   24.6860  -30.4740 N   0  0  0  0  0  0  0  0  0  0  0  0
   -3.6630   24.3260  -29.3420 C   0  0  0  0  0  0  0  0  0  0  0  0
   -4.2510   24.5430  -27.9700 C   0  0  0  0  0  0  0  0  0  0  0  0
   -4.4744   25.6038  -27.7836 H   0  0  0  0  0  0  0  0  0  0  0  0
   -5.2124   24.0395  -27.7904 H   0  0  0  0  0  0  0  0  0  0  0  0
   -3.0720   24.0390  -27.0960 C   0  0  2  0  0  0  0  0  0  0  0  0
   -3.3675   23.8134  -26.0607 H   0  0  0  0  0  0  0  0  0  0  0  0
   -1.9550   25.1140  -27.2090 C   0  0  0  0  0  0  0  0  0  0  0  0
   -2.3667   26.1265  -27.0852 H   0  0  0  0  0  0  0  0  0  0  0  0
   -1.1794   25.0163  -26.4351 H   0  0  0  0  0  0  0  0  0  0  0  0
   -1.4150   24.9050  -28.6430 C   0  0  0  0  0  0  0  0  0  0  0  0
   -1.5556   25.8079  -29.2554 H   0  0  0  0  0  0  0  0  0  0  0  0
   -0.3354   24.6969  -28.6770 H   0  0  0  0  0  0  0  0  0  0  0  0
   -2.2830   23.7350  -29.1660 C   0  0  2  0  0  0  0  0  0  0  0  0
   -1.7180   23.0240  -30.4020 C   0  0  0  0  0  0  0  0  0  0  0  0
   -1.0630   22.1997  -30.0834 H   0  0  0  0  0  0  0  0  0  0  0  0
   -2.5461   22.6224  -31.0045 H   0  0  0  0  0  0  0  0  0  0  0  0
   -1.1397   23.7400  -31.0045 H   0  0  0  0  0  0  0  0  0  0  0  0
   -2.4950   22.8600  -27.9120 C   0  0  0  0  0  0  0  0  0  0  0  0
   -3.5010   21.6820  -28.1040 C   0  0  0  0  0  0  0  0  0  0  0  0
   -3.8201   21.3083  -27.1199 H   0  0  0  0  0  0  0  0  0  0  0  0
   -4.3789   22.0371  -28.6637 H   0  0  0  0  0  0  0  0  0  0  0  0
   -3.0129   20.8705  -28.6637 H   0  0  0  0  0  0  0  0  0  0  0  0
   -1.2040   22.2420  -27.2970 C   0  0  0  0  0  0  0  0  0  0  0  0
   -1.2694   22.2733  -26.1994 H   0  0  0  0  0  0  0  0  0  0  0  0
   -1.1033   21.1980  -27.6287 H   0  0  0  0  0  0  0  0  0  0  0  0
   -0.3277   22.8183  -27.6287 H   0  0  0  0  0  0  0  0  0  0  0  0
  1  2  1  0
  2  3  1  0
  3  4  1  0
  3  5  1  0
  3  6  1  0
  6  7  1  0
  6  8  1  0
  6  9  1  0
  2 10  1  0
 10 11  1  0
 10 12  1  0
 10 13  1  0
 13 14  1  0
 13 15  1  0
 13 16  1  0
 16 17  1  0
 16 18  1  0
 16 19  1  0
 19 20  1  0
 19 21  1  0
 19 22  1  0
 22 23  2  0
 23 24  1  0
 24 25  1  0
 24 26  1  0
 24 27  1  0
 27 28  1  1
 27 29  1  0
 29 30  1  0
 29 31  1  0
 29 32  1  0
 32 33  1  0
 32 34  1  0
 32 35  1  0
 35 36  1  6
 36 37  1  0
 36 38  1  0
 36 39  1  0
 35 40  1  0
 40 41  1  0
 41 42  1  0
 41 43  1  0
 41 44  1  0
 40 45  1  0
 45 46  1  0
 45 47  1  0
 45 48  1  0
 35 23  1  0
 40 27  1  0
M  END
>  <UniqueID>  (10) 
10

>  <SMILES>  (10) 
CCNCCCC/N=C1\C[C@@H]2CC[C@@]1(C)C2(C)C

>  <Energy>  (10) 
76.03124011196549

>  <Genealogy>  (10) 
CCNCCCCN=C1C[C@@H]2CC[C@@]1(C)C2(C)C (chirality)
CCNCCCC/N=C1\C[C@@H]2CC[C@@]1(C)C2(C)C (cis-trans isomerization)
CCNCCCC/N=C1\C[C@@H]2CC[C@@]1(C)C2(C)C (3D coordinates assigned)
CCNCCCC/N=C1\C[C@@H]2CC[C@@]1(C)C2(C)C (nonaromatic ring conformer: 76.03124011196549 kcal/mol)

>  <smiles>  (10) 
CCNCCCCN=C1CC2CCC1(C)C2(C)C

>  <score_type>  (10) 
oracle

>  <origin>  (10) 
adg

>  <m_score__min__energy>  (10) 
-7.6399999999999997

>  <m_primary>  (10) 
energy

$$$$
10:0
     RDKit          3D

 79 81  0  0  0  0  0  0  0  0999 V2000
   -2.7320   18.6170  -26.0050 C   0  0  0  0  0  0  0  0  0  0  0  0
   -3.1680   19.6100  -27.0750 C   0  0  0  0  0  0  0  0  0  0  0  0
   -2.0790   20.5540  -27.3590 N   0  0  0  0  0  0  0  0  0  0  0  0
   -0.8730   19.8520  -27.8240 C   0  0  0  0  0  0  0  0  0  0  0  0
    0.3940   20.6850  -27.5730 C   0  0  0  0  0  0  0  0  0  0  0  0
    0.1170   21.8620  -26.8380 O   0  0  0  0  0  0  0  0  0  0  0  0
    0.8990   22.9390  -27.3100 C   0  0  0  0  0  0  0  0  0  0  0  0
    0.0700   23.7910  -28.2720 C   0  0  0  0  0  0  0  0  0  0  0  0
   -1.3660   23.5740  -28.0730 N   0  0  0  0  0  0  0  0  0  0  0  0
   -2.3430   24.5320  -28.5120 C   0  0  0  0  0  0  0  0  0  0  0  0
   -1.9760   25.6530  -28.9570 O   0  0  0  0  0  0  0  0  0  0  0  0
   -3.8200   24.2080  -28.4610 C   0  0  0  0  0  0  0  0  0  0  0  0
   -4.4170   23.8780  -29.7820 N   0  0  0  0  0  0  0  0  0  0  0  0
   -5.0630   25.0520  -30.3970 C   0  0  0  0  0  0  0  0  0  0  0  0
   -3.4490   23.2250  -30.6940 C   0  0  0  0  0  0  0  0  0  0  0  0
   -3.0360   21.8270  -30.2090 C   0  0  0  0  0  0  0  0  0  0  0  0
   -2.0600   21.1960  -31.1350 N   0  0  0  0  0  0  0  0  0  0  0  0
   -0.6790   21.5150  -30.7190 C   0  0  0  0  0  0  0  0  0  0  0  0
   -2.2490   21.6060  -32.5500 C   0  0  0  0  0  0  0  0  0  0  0  0
   -3.0680   20.5890  -33.3620 C   0  0  0  0  0  0  0  0  0  0  0  0
   -4.4230   21.0760  -33.6370 N   0  0  0  0  0  0  0  0  0  0  0  0
   -5.5890   20.3750  -33.1730 C   0  0  0  0  0  0  0  0  0  0  0  0
   -6.6350   21.0960  -32.5650 C   0  0  0  0  0  0  0  0  0  0  0  0
   -6.5290   22.4890  -32.3550 C   0  0  0  0  0  0  0  0  0  0  0  0
   -7.6000   23.2170  -31.8490 C   0  0  0  0  0  0  0  0  0  0  0  0
   -8.7970   22.5780  -31.5490 C   0  0  0  0  0  0  0  0  0  0  0  0
   -8.9120   21.1970  -31.7090 C   0  0  0  0  0  0  0  0  0  0  0  0
   -7.8200   20.4190  -32.1720 C   0  0  0  0  0  0  0  0  0  0  0  0
   -7.8980   19.0430  -32.2730 N   0  0  0  0  0  0  0  0  0  0  0  0
   -8.9920   18.3110  -31.5920 C   0  0  0  0  0  0  0  0  0  0  0  0
   -6.9500   18.3470  -33.0000 C   0  0  0  0  0  0  0  0  0  0  0  0
   -7.1420   16.9850  -33.3580 C   0  0  0  0  0  0  0  0  0  0  0  0
   -6.1790   16.2910  -34.0890 C   0  0  0  0  0  0  0  0  0  0  0  0
   -5.0190   16.9310  -34.5030 C   0  0  0  0  0  0  0  0  0  0  0  0
   -4.8140   18.2730  -34.1910 C   0  0  0  0  0  0  0  0  0  0  0  0
   -5.7680   19.0020  -33.4450 C   0  0  0  0  0  0  0  0  0  0  0  0
   -2.9199   19.0449  -25.0092 H   0  0  0  0  0  0  0  0  0  0  0  0
   -3.3030   17.6835  -26.1166 H   0  0  0  0  0  0  0  0  0  0  0  0
   -1.6583   18.4056  -26.1166 H   0  0  0  0  0  0  0  0  0  0  0  0
   -3.4261   19.0644  -27.9946 H   0  0  0  0  0  0  0  0  0  0  0  0
   -4.0442   20.1682  -26.7136 H   0  0  0  0  0  0  0  0  0  0  0  0
   -1.8390   21.0350  -26.4600 H   0  0  0  0  0  0  0  0  0  0  0  0
   -0.7854   18.8966  -27.2859 H   0  0  0  0  0  0  0  0  0  0  0  0
   -0.9670   19.6835  -28.9069 H   0  0  0  0  0  0  0  0  0  0  0  0
    1.1142   20.0748  -27.0083 H   0  0  0  0  0  0  0  0  0  0  0  0
    0.8043   20.9825  -28.5493 H   0  0  0  0  0  0  0  0  0  0  0  0
    1.2227   23.5569  -26.4595 H   0  0  0  0  0  0  0  0  0  0  0  0
    1.7815   22.5468  -27.8366 H   0  0  0  0  0  0  0  0  0  0  0  0
    0.2994   24.8528  -28.0989 H   0  0  0  0  0  0  0  0  0  0  0  0
    0.3257   23.5006  -29.3017 H   0  0  0  0  0  0  0  0  0  0  0  0
   -1.6940   22.6510  -27.6960 H   0  0  0  0  0  0  0  0  0  0  0  0
   -3.9612   23.3453  -27.7933 H   0  0  0  0  0  0  0  0  0  0  0  0
   -4.3302   25.1134  -28.1006 H   0  0  0  0  0  0  0  0  0  0  0  0
   -5.4322   25.7230  -29.6074 H   0  0  0  0  0  0  0  0  0  0  0  0
   -4.3325   25.5874  -31.0212 H   0  0  0  0  0  0  0  0  0  0  0  0
   -5.9063   24.7215  -31.0212 H   0  0  0  0  0  0  0  0  0  0  0  0
   -3.9090   23.1318  -31.6889 H   0  0  0  0  0  0  0  0  0  0  0  0
   -2.5440   23.8496  -30.7242 H   0  0  0  0  0  0  0  0  0  0  0  0
   -2.5781   21.9150  -29.2127 H   0  0  0  0  0  0  0  0  0  0  0  0
   -3.9354   21.1947  -30.1720 H   0  0  0  0  0  0  0  0  0  0  0  0
   -0.6208   21.5284  -29.6206 H   0  0  0  0  0  0  0  0  0  0  0  0
    0.0082   20.7519  -31.1133 H   0  0  0  0  0  0  0  0  0  0  0  0
   -0.3961   22.5022  -31.1133 H   0  0  0  0  0  0  0  0  0  0  0  0
   -2.7724   22.5733  -32.5685 H   0  0  0  0  0  0  0  0  0  0  0  0
   -1.2525   21.6717  -33.0112 H   0  0  0  0  0  0  0  0  0  0  0  0
   -2.5563   20.4017  -34.3175 H   0  0  0  0  0  0  0  0  0  0  0  0
   -3.1504   19.6658  -32.7697 H   0  0  0  0  0  0  0  0  0  0  0  0
   -4.5560   22.0720  -33.9160 H   0  0  0  0  0  0  0  0  0  0  0  0
   -5.5872   23.0042  -32.5949 H   0  0  0  0  0  0  0  0  0  0  0  0
   -7.4997   24.3002  -31.6859 H   0  0  0  0  0  0  0  0  0  0  0  0
   -9.6551   23.1620  -31.1848 H   0  0  0  0  0  0  0  0  0  0  0  0
   -9.8658   20.7029  -31.4721 H   0  0  0  0  0  0  0  0  0  0  0  0
   -8.8666   18.3949  -30.5024 H   0  0  0  0  0  0  0  0  0  0  0  0
   -9.9602   18.7439  -31.8841 H   0  0  0  0  0  0  0  0  0  0  0  0
   -8.9612   17.2509  -31.8841 H   0  0  0  0  0  0  0  0  0  0  0  0
   -8.0652   16.4703  -33.0534 H   0  0  0  0  0  0  0  0  0  0  0  0
   -6.3391   15.2318  -34.3388 H   0  0  0  0  0  0  0  0  0  0  0  0
   -4.2613   16.3782  -35.0777 H   0  0  0  0  0  0  0  0  0  0  0  0
   -3.8951   18.7734  -34.5305 H   0  0  0  0  0  0  0  0  0  0  0  0
  1  2  1  0
  2  3  1  0
  3  4  1  0
  4  5  1  0
  5  6  1  0
  6  7  1  0
  7  8  1  0
  8  9  1  0
  9 10  1  0
 10 11  2  0
 10 12  1  0
 12 13  1  0
 13 14  1  0
 13 15  1  0
 15 16  1  0
 16 17  1  0
 17 18  1  0
 17 19  1  0
 19 20  1  0
 20 21  1  0
 21 22  1  0
 22 23  2  0
 23 24  1  0
 24 25  2  0
 25 26  1  0
 26 27  2  0
 27 28  1  0
 28 29  2  0
 29 30  1  0
 29 31  1  0
 31 32  2  0
 32 33  1  0
 33 34  2  0
 34 35  1  0
 35 36  2  0
 36 22  1  0
 28 23  1  0
 36 31  1  0
  1 37  1  0
  1 38  1  0
  1 39  1  0
  2 40  1  0
  2 41  1  0
  3 42  1  0
  4 43  1  0
  4 44  1  0
  5 45  1  0
  5 46  1  0
  7 47  1  0
  7 48  1  0
  8 49  1  0
  8 50  1  0
  9 51  1  0
 12 52  1  0
 12 53  1  0
 14 54  1  0
 14 55  1  0
 14 56  1  0
 15 57  1  0
 15 58  1  0
 16 59  1  0
 16 60  1  0
 18 61  1  0
 18 62  1  0
 18 63  1  0
 19 64  1  0
 19 65  1  0
 20 66  1  0
 20 67  1  0
 21 68  1  0
 24 69  1  0
 25 70  1  0
 26 71  1  0
 27 72  1  0
 30 73  1  0
 30 74  1  0
 30 75  1  0
 32 76  1  0
 33 77  1  0
 34 78  1  0
 35 79  1  0
M  CHG  1  29   1
M  END
>  <UniqueID>  (11) 
11

>  <SMILES>  (11) 
CCNCCOCCNC(=O)CN(C)CCN(C)CCNc1c2ccccc2[n+](C)c2ccccc12

>  <Energy>  (11) 
96.43593929595627

>  <Genealogy>  (11) 
CCNCCOCCNC(=O)CN(C)CCN(C)CCNc1c2ccccc2[n+](C)c2ccccc12 (3D coordinates assigned)
CCNCCOCCNC(=O)CN(C)CCN(C)CCNc1c2ccccc2[n+](C)c2ccccc12 (optimized conformer: 96.43593929595627 kcal/mol)

>  <smiles>  (11) 
CCNCCOCCNC(=O)CN(C)CCN(C)CCNc1c2ccccc2[n+](C)c2ccccc12

>  <score_type>  (11) 
oracle

>  <origin>  (11) 
adg

>  <m_score__min__energy>  (11) 
-8.8100000000000005

>  <m_primary>  (11) 
energy

$$$$
11:0
     RDKit          3D

 36 38  0  0  0  0  0  0  0  0999 V2000
   -3.3700   24.1470  -27.4670 C   0  0  0  0  0  0  0  0  0  0  0  0
   -2.4090   24.4420  -28.6140 C   0  0  0  0  0  0  0  0  0  0  0  0
   -3.1340   24.9580  -29.7770 N   0  0  0  0  0  0  0  0  0  0  0  0
   -4.4620   24.5550  -30.1630 C   0  0  0  0  0  0  0  0  0  0  0  0
   -5.5920   25.3490  -29.8920 C   0  0  0  0  0  0  0  0  0  0  0  0
   -6.8630   24.9230  -30.2780 C   0  0  0  0  0  0  0  0  0  0  0  0
   -7.0300   23.7010  -30.9320 C   0  0  0  0  0  0  0  0  0  0  0  0
   -5.9180   22.8860  -31.2080 C   0  0  0  0  0  0  0  0  0  0  0  0
   -6.0630   21.5830  -31.9000 C   0  0  0  0  0  0  0  0  0  0  0  0
   -5.2760   21.1510  -32.9220 N   0  0  0  0  0  0  0  0  0  0  0  0
   -5.7790   19.9430  -33.2140 C   0  0  0  0  0  0  0  0  0  0  0  0
   -5.3640   19.0450  -34.1940 C   0  0  0  0  0  0  0  0  0  0  0  0
   -6.0760   17.8370  -34.3120 C   0  0  0  0  0  0  0  0  0  0  0  0
   -7.1680   17.5590  -33.4560 C   0  0  0  0  0  0  0  0  0  0  0  0
   -7.5520   18.4860  -32.4610 C   0  0  0  0  0  0  0  0  0  0  0  0
   -8.7320   18.2330  -31.5720 C   0  0  0  0  0  0  0  0  0  0  0  0
   -6.8290   19.6790  -32.3870 C   0  0  0  0  0  0  0  0  0  0  0  0
   -6.9960   20.6980  -31.5800 O   0  0  0  0  0  0  0  0  0  0  0  0
   -4.6400   23.3230  -30.8170 C   0  0  0  0  0  0  0  0  0  0  0  0
   -2.8554   24.3050  -26.5077 H   0  0  0  0  0  0  0  0  0  0  0  0
   -4.2374   24.8202  -27.5330 H   0  0  0  0  0  0  0  0  0  0  0  0
   -3.7103   23.1030  -27.5330 H   0  0  0  0  0  0  0  0  0  0  0  0
   -1.6736   25.1912  -28.2854 H   0  0  0  0  0  0  0  0  0  0  0  0
   -1.9016   23.5086  -28.8992 H   0  0  0  0  0  0  0  0  0  0  0  0
   -2.6380   25.6630  -30.3680 H   0  0  0  0  0  0  0  0  0  0  0  0
   -5.4722   26.3113  -29.3727 H   0  0  0  0  0  0  0  0  0  0  0  0
   -7.7389   25.5537  -30.0658 H   0  0  0  0  0  0  0  0  0  0  0  0
   -8.0363   23.3742  -31.2328 H   0  0  0  0  0  0  0  0  0  0  0  0
   -4.4720   21.6250  -33.3850 H   0  0  0  0  0  0  0  0  0  0  0  0
   -4.5115   19.2714  -34.8513 H   0  0  0  0  0  0  0  0  0  0  0  0
   -5.7812   17.1026  -35.0761 H   0  0  0  0  0  0  0  0  0  0  0  0
   -7.7217   16.6149  -33.5659 H   0  0  0  0  0  0  0  0  0  0  0  0
   -8.4192   18.3001  -30.5195 H   0  0  0  0  0  0  0  0  0  0  0  0
   -9.5097   18.9848  -31.7720 H   0  0  0  0  0  0  0  0  0  0  0  0
   -9.1331   17.2284  -31.7720 H   0  0  0  0  0  0  0  0  0  0  0  0
   -3.7647   22.6904  -31.0263 H   0  0  0  0  0  0  0  0  0  0  0  0
  1  2  1  0
  2  3  1  0
  3  4  1  0
  4  5  2  0
  5  6  1  0
  6  7  2  0
  7  8  1  0
  8  9  1  0
  9 10  2  0
 10 11  1  0
 11 12  2  0
 12 13  1  0
 13 14  2  0
 14 15  1  0
 15 16  1  0
 15 17  2  0
 17 18  1  0
  8 19  2  0
 19  4  1  0
 18  9  1  0
 17 11  1  0
  1 20  1  0
  1 21  1  0
  1 22  1  0
  2 23  1  0
  2 24  1  0
  3 25  1  0
  5 26  1  0
  6 27  1  0
  7 28  1  0
 10 29  1  0
 12 30  1  0
 13 31  1  0
 14 32  1  0
 16 33  1  0
 16 34  1  0
 16 35  1  0
 19 36  1  0
M  CHG  1  10   1
M  END
>  <UniqueID>  (12) 
12

>  <SMILES>  (12) 
CCNc1cccc(-c2[nH+]c3cccc(C)c3o2)c1

>  <Energy>  (12) 
74.35513516940306

>  <Genealogy>  (12) 
CCNc1cccc(-c2[nH+]c3cccc(C)c3o2)c1 (protonated)
CCNc1cccc(-c2[nH+]c3cccc(C)c3o2)c1 (3D coordinates assigned)
CCNc1cccc(-c2[nH+]c3cccc(C)c3o2)c1 (optimized conformer: 74.35513516940306 kcal/mol)

>  <smiles>  (12) 
CCNc1cccc(-c2nc3cccc(C)c3o2)c1

>  <score_type>  (12) 
oracle

>  <origin>  (12) 
adg

>  <m_score__min__energy>  (12) 
-7.4900000000000002

>  <m_primary>  (12) 
energy

$$$$
12:0
     RDKit          3D

 46 48  0  0  0  0  0  0  0  0999 V2000
    0.8340   21.9070  -35.7420 C   0  0  0  0  0  0  0  0  0  0  0  0
    0.0000   20.7380  -35.2130 C   0  0  0  0  0  0  0  0  0  0  0  0
   -1.2030   21.1880  -34.4920 N   0  0  0  0  0  0  0  0  0  0  0  0
   -1.1730   20.8640  -33.0470 C   0  0  0  0  0  0  0  0  0  0  0  0
   -2.4260   21.3630  -32.3070 C   0  0  0  0  0  0  0  0  0  0  0  0
   -3.5450   21.5540  -33.2330 N   0  0  0  0  0  0  0  0  0  0  0  0
   -4.8970   21.2140  -32.8770 C   0  0  0  0  0  0  0  0  0  0  0  0
   -5.6800   22.1050  -32.1190 C   0  0  0  0  0  0  0  0  0  0  0  0
   -5.1840   23.3740  -31.7490 C   0  0  0  0  0  0  0  0  0  0  0  0
   -5.9310   24.2220  -30.9350 C   0  0  0  0  0  0  0  0  0  0  0  0
   -7.1800   23.8230  -30.4780 C   0  0  0  0  0  0  0  0  0  0  0  0
   -7.7100   22.5940  -30.8660 C   0  0  0  0  0  0  0  0  0  0  0  0
   -6.9970   21.7300  -31.7360 C   0  0  0  0  0  0  0  0  0  0  0  0
   -7.5460   20.5500  -32.2020 N   0  0  0  0  0  0  0  0  0  0  0  0
   -8.9990   20.3040  -32.0530 C   0  0  0  0  0  0  0  0  0  0  0  0
   -6.7510   19.6200  -32.8470 C   0  0  0  0  0  0  0  0  0  0  0  0
   -7.2100   18.3040  -33.1130 C   0  0  0  0  0  0  0  0  0  0  0  0
   -6.4170   17.3820  -33.8170 C   0  0  0  0  0  0  0  0  0  0  0  0
   -6.8710   16.0510  -34.1010 N   0  0  0  0  0  0  0  0  0  0  0  0
   -6.2000   15.0530  -33.8380 N   0  0  0  0  0  0  0  0  0  0  0  0
   -5.5300   14.0560  -33.5730 N   0  0  0  0  0  0  0  0  0  0  0  0
   -5.1480   17.7600  -34.2460 C   0  0  0  0  0  0  0  0  0  0  0  0
   -4.6530   19.0270  -33.9560 C   0  0  0  0  0  0  0  0  0  0  0  0
   -5.4290   19.9620  -33.2390 C   0  0  0  0  0  0  0  0  0  0  0  0
    1.2420   22.4789  -34.8956 H   0  0  0  0  0  0  0  0  0  0  0  0
    1.6609   21.5195  -36.3553 H   0  0  0  0  0  0  0  0  0  0  0  0
    0.1986   22.5628  -36.3553 H   0  0  0  0  0  0  0  0  0  0  0  0
   -0.3107   20.1125  -36.0629 H   0  0  0  0  0  0  0  0  0  0  0  0
    0.6244   20.1738  -34.5046 H   0  0  0  0  0  0  0  0  0  0  0  0
   -2.0510   20.7970  -34.9630 H   0  0  0  0  0  0  0  0  0  0  0  0
   -1.2550   22.2280  -34.5930 H   0  0  0  0  0  0  0  0  0  0  0  0
   -1.1060   19.7722  -32.9313 H   0  0  0  0  0  0  0  0  0  0  0  0
   -0.3008   21.3706  -32.6081 H   0  0  0  0  0  0  0  0  0  0  0  0
   -2.7122   20.6224  -31.5457 H   0  0  0  0  0  0  0  0  0  0  0  0
   -2.1923   22.3300  -31.8376 H   0  0  0  0  0  0  0  0  0  0  0  0
   -3.3240   21.7390  -34.2380 H   0  0  0  0  0  0  0  0  0  0  0  0
   -4.1956   23.6969  -32.1080 H   0  0  0  0  0  0  0  0  0  0  0  0
   -5.5316   25.2077  -30.6542 H   0  0  0  0  0  0  0  0  0  0  0  0
   -7.7533   24.4796  -29.8071 H   0  0  0  0  0  0  0  0  0  0  0  0
   -8.6981   22.2887  -30.4912 H   0  0  0  0  0  0  0  0  0  0  0  0
   -9.2558   20.2605  -30.9843 H   0  0  0  0  0  0  0  0  0  0  0  0
   -9.5600   21.1199  -32.5320 H   0  0  0  0  0  0  0  0  0  0  0  0
   -9.2602   19.3489  -32.5320 H   0  0  0  0  0  0  0  0  0  0  0  0
   -8.2067   17.9994  -32.7610 H   0  0  0  0  0  0  0  0  0  0  0  0
   -4.5319   17.0513  -34.8188 H   0  0  0  0  0  0  0  0  0  0  0  0
   -3.6423   19.3040  -34.2904 H   0  0  0  0  0  0  0  0  0  0  0  0
  1  2  1  0
  2  3  1  0
  3  4  1  0
  4  5  1  0
  5  6  1  0
  6  7  1  0
  7  8  2  0
  8  9  1  0
  9 10  2  0
 10 11  1  0
 11 12  2  0
 12 13  1  0
 13 14  2  0
 14 15  1  0
 14 16  1  0
 16 17  2  0
 17 18  1  0
 18 19  1  0
 19 20  2  0
 20 21  2  0
 18 22  2  0
 22 23  1  0
 23 24  2  0
 24  7  1  0
 13  8  1  0
 24 16  1  0
  1 25  1  0
  1 26  1  0
  1 27  1  0
  2 28  1  0
  2 29  1  0
  3 30  1  0
  3 31  1  0
  4 32  1  0
  4 33  1  0
  5 34  1  0
  5 35  1  0
  6 36  1  0
  9 37  1  0
 10 38  1  0
 11 39  1  0
 12 40  1  0
 15 41  1  0
 15 42  1  0
 15 43  1  0
 17 44  1  0
 22 45  1  0
 23 46  1  0
M  CHG  4   3   1  14   1  20   1  21  -1
M  END
>  <UniqueID>  (13) 
13

>  <SMILES>  (13) 
CC[NH2+]CCNc1c2ccccc2[n+](C)c2cc(N=[N+]=[N-])ccc12

>  <Energy>  (13) 
72.92561995115832

>  <Genealogy>  (13) 
CC[NH2+]CCNc1c2ccccc2[n+](C)c2cc(N=[N+]=[N-])ccc12 (protonated)
CC[NH2+]CCNc1c2ccccc2[n+](C)c2cc(N=[N+]=[N-])ccc12 (3D coordinates assigned)
CC[NH2+]CCNc1c2ccccc2[n+](C)c2cc(N=[N+]=[N-])ccc12 (optimized conformer: 72.92561995115832 kcal/mol)

>  <smiles>  (13) 
CCNCCNc1c2ccccc2[n+](C)c2cc(N=[N+]=[N-])ccc12

>  <score_type>  (13) 
oracle

>  <origin>  (13) 
adg

>  <m_score__min__energy>  (13) 
-7.6500000000000004

>  <m_primary>  (13) 
energy

$$$$
13:0
     RDKit          3D

 45 45  0  0  0  0  0  0  0  0999 V2000
   -6.8840   18.1340  -33.3570 C   0  0  0  0  0  0  0  0  0  0  0  0
   -7.3690   18.2380  -31.9420 C   0  0  0  0  0  0  0  0  0  0  0  0
   -6.6480   17.8690  -31.0270 O   0  0  0  0  0  0  0  0  0  0  0  0
   -8.7280   18.8110  -31.6390 C   0  0  0  0  0  0  0  0  0  0  0  0
   -8.9440   20.1650  -32.3290 C   0  0  0  0  0  0  0  0  0  0  0  0
   -7.6910   21.0720  -32.2850 C   0  0  0  0  0  0  0  0  0  0  0  0
   -7.9540   22.4220  -31.5980 C   0  0  0  0  0  0  0  0  0  0  0  0
   -6.6710   23.0900  -31.1680 C   0  0  0  0  0  0  0  0  0  0  0  0
   -6.6960   24.3350  -30.5220 C   0  0  0  0  0  0  0  0  0  0  0  0
   -5.5080   24.9270  -30.0860 C   0  0  0  0  0  0  0  0  0  0  0  0
   -4.2780   24.2910  -30.2870 C   0  0  0  0  0  0  0  0  0  0  0  0
   -3.1190   24.9300  -29.8160 O   0  0  0  0  0  0  0  0  0  0  0  0
   -1.9620   24.2740  -29.2990 C   0  0  0  0  0  0  0  0  0  0  0  0
   -2.0540   24.0770  -27.7730 C   0  0  0  0  0  0  0  0  0  0  0  0
   -3.0630   24.9560  -27.1330 N   0  0  0  0  0  0  0  0  0  0  0  0
   -4.2320   24.1560  -26.7250 C   0  0  0  0  0  0  0  0  0  0  0  0
   -2.5120   25.6590  -25.9570 C   0  0  0  0  0  0  0  0  0  0  0  0
   -4.2510   23.0450  -30.9400 C   0  0  0  0  0  0  0  0  0  0  0  0
   -5.4390   22.4520  -31.3790 C   0  0  0  0  0  0  0  0  0  0  0  0
   -5.8085   17.9034  -33.3599 H   0  0  0  0  0  0  0  0  0  0  0  0
   -7.4322   17.3330  -33.8746 H   0  0  0  0  0  0  0  0  0  0  0  0
   -7.0556   19.0894  -33.8746 H   0  0  0  0  0  0  0  0  0  0  0  0
   -9.4972   18.1067  -31.9888 H   0  0  0  0  0  0  0  0  0  0  0  0
   -8.7983   18.9666  -30.5523 H   0  0  0  0  0  0  0  0  0  0  0  0
   -9.2091   19.9841  -33.3811 H   0  0  0  0  0  0  0  0  0  0  0  0
   -9.7470   20.6863  -31.7873 H   0  0  0  0  0  0  0  0  0  0  0  0
   -6.8966   20.5468  -31.7345 H   0  0  0  0  0  0  0  0  0  0  0  0
   -7.3985   21.2818  -33.3244 H   0  0  0  0  0  0  0  0  0  0  0  0
   -8.4814   23.0830  -32.3015 H   0  0  0  0  0  0  0  0  0  0  0  0
   -8.5612   22.2365  -30.6997 H   0  0  0  0  0  0  0  0  0  0  0  0
   -7.6554   24.8475  -30.3580 H   0  0  0  0  0  0  0  0  0  0  0  0
   -5.5399   25.9030  -29.5796 H   0  0  0  0  0  0  0  0  0  0  0  0
   -1.8649   23.2898  -29.7805 H   0  0  0  0  0  0  0  0  0  0  0  0
   -1.0860   24.9043  -29.5117 H   0  0  0  0  0  0  0  0  0  0  0  0
   -2.3232   23.0298  -27.5707 H   0  0  0  0  0  0  0  0  0  0  0  0
   -1.0737   24.3394  -27.3485 H   0  0  0  0  0  0  0  0  0  0  0  0
   -3.3930   25.6690  -27.8250 H   0  0  0  0  0  0  0  0  0  0  0  0
   -4.2859   24.1191  -25.6269 H   0  0  0  0  0  0  0  0  0  0  0  0
   -5.1485   24.6172  -27.1218 H   0  0  0  0  0  0  0  0  0  0  0  0
   -4.1340   23.1348  -27.1218 H   0  0  0  0  0  0  0  0  0  0  0  0
   -2.8847   25.1835  -25.0377 H   0  0  0  0  0  0  0  0  0  0  0  0
   -1.4136   25.6045  -25.9786 H   0  0  0  0  0  0  0  0  0  0  0  0
   -2.8273   26.7126  -25.9786 H   0  0  0  0  0  0  0  0  0  0  0  0
   -3.2907   22.5348  -31.1060 H   0  0  0  0  0  0  0  0  0  0  0  0
   -5.4076   21.4798  -31.8927 H   0  0  0  0  0  0  0  0  0  0  0  0
  1  2  1  0
  2  3  2  0
  2  4  1  0
  4  5  1  0
  5  6  1  0
  6  7  1  0
  7  8  1  0
  8  9  2  0
  9 10  1  0
 10 11  2  0
 11 12  1  0
 12 13  1  0
 13 14  1  0
 14 15  1  0
 15 16  1  0
 15 17  1  0
 11 18  1  0
 18 19  2  0
 19  8  1  0
  1 20  1  0
  1 21  1  0
  1 22  1  0
  4 23  1  0
  4 24  1  0
  5 25  1  0
  5 26  1  0
  6 27  1  0
  6 28  1  0
  7 29  1  0
  7 30  1  0
  9 31  1  0
 10 32  1  0
 13 33  1  0
 13 34  1  0
 14 35  1  0
 14 36  1  0
 15 37  1  0
 16 38  1  0
 16 39  1  0
 16 40  1  0
 17 41  1  0
 17 42  1  0
 17 43  1  0
 18 44  1  0
 19 45  1  0
M  CHG  1  15   1
M  END
>  <UniqueID>  (14) 
14

>  <SMILES>  (14) 
CC(=O)CCCCc1ccc(OCC[NH+](C)C)cc1

>  <Energy>  (14) 
35.67917332348265

>  <Genealogy>  (14) 
CC(=O)CCCCc1ccc(OCC[NH+](C)C)cc1 (protonated)
CC(=O)CCCCc1ccc(OCC[NH+](C)C)cc1 (3D coordinates assigned)
CC(=O)CCCCc1ccc(OCC[NH+](C)C)cc1 (optimized conformer: 35.67917332348265 kcal/mol)

>  <smiles>  (14) 
CC(=O)CCCCc1ccc(OCCN(C)C)cc1

>  <score_type>  (14) 
oracle

>  <origin>  (14) 
adg

>  <m_score__min__energy>  (14) 
-6.6200000000000001

>  <m_primary>  (14) 
energy

$$$$
14:0
     RDKit          3D

 58 60  0  0  0  0  0  0  0  0999 V2000
    0.3728   21.2880  -31.7256 H   0  0  0  0  0  0  0  0  0  0  0  0
   -0.6810   21.2850  -32.0410 C   0  0  0  0  0  0  0  0  0  0  0  0
   -1.6080   21.5260  -31.1810 N   0  0  0  0  0  0  0  0  0  0  0  0
   -1.6310   20.8960  -29.8850 C   0  0  0  0  0  0  0  0  0  0  0  0
   -1.6028   21.6677  -29.1016 H   0  0  0  0  0  0  0  0  0  0  0  0
   -2.5514   20.3025  -29.7821 H   0  0  0  0  0  0  0  0  0  0  0  0
   -0.7563   20.2370  -29.7821 H   0  0  0  0  0  0  0  0  0  0  0  0
   -1.0330   20.9990  -33.4770 C   0  0  0  0  0  0  0  0  0  0  0  0
   -0.6188   20.0187  -33.7551 H   0  0  0  0  0  0  0  0  0  0  0  0
   -0.6077   21.8026  -34.0962 H   0  0  0  0  0  0  0  0  0  0  0  0
   -2.4970   20.9790  -33.6990 N   0  0  0  0  0  0  0  0  0  0  0  0
   -2.9760   21.6270  -33.0330 H   0  0  0  0  0  0  0  0  0  0  0  0
   -2.6130   21.3240  -34.6770 H   0  0  0  0  0  0  0  0  0  0  0  0
   -3.1390   19.6750  -33.6380 C   0  0  0  0  0  0  0  0  0  0  0  0
   -2.4460   18.5220  -34.0580 C   0  0  0  0  0  0  0  0  0  0  0  0
   -1.3592   18.5720  -34.2203 H   0  0  0  0  0  0  0  0  0  0  0  0
   -3.1120   17.3290  -34.2690 C   0  0  0  0  0  0  0  0  0  0  0  0
   -2.5574   16.4474  -34.6228 H   0  0  0  0  0  0  0  0  0  0  0  0
   -4.4740   17.2390  -34.0370 C   0  0  0  0  0  0  0  0  0  0  0  0
   -5.0078   16.3165  -34.3091 H   0  0  0  0  0  0  0  0  0  0  0  0
   -5.1930   18.3120  -33.4560 C   0  0  0  0  0  0  0  0  0  0  0  0
   -4.5000   19.5340  -33.1890 C   0  0  0  0  0  0  0  0  0  0  0  0
   -5.1920   20.5600  -32.4800 C   0  0  0  0  0  0  0  0  0  0  0  0
   -4.4560   21.6040  -31.8040 N   0  0  0  0  0  0  0  0  0  0  0  0
   -3.7750   21.3010  -31.0730 H   0  0  0  0  0  0  0  0  0  0  0  0
   -4.6440   23.0390  -32.0600 C   0  0  0  0  0  0  0  0  0  0  0  0
   -5.6107   23.1921  -32.5620 H   0  0  0  0  0  0  0  0  0  0  0  0
   -3.8209   23.3941  -32.6975 H   0  0  0  0  0  0  0  0  0  0  0  0
   -4.6280   23.8050  -30.7950 N   0  0  0  0  0  0  0  0  0  0  0  0
   -3.3130   23.8920  -30.1140 C   0  0  0  0  0  0  0  0  0  0  0  0
   -2.7477   24.7220  -30.5629 H   0  0  0  0  0  0  0  0  0  0  0  0
   -2.8244   22.9160  -30.2505 H   0  0  0  0  0  0  0  0  0  0  0  0
   -3.3960   24.1320  -28.5970 C   0  0  0  0  0  0  0  0  0  0  0  0
   -3.0815   23.2225  -28.0641 H   0  0  0  0  0  0  0  0  0  0  0  0
   -2.7341   24.9661  -28.3210 H   0  0  0  0  0  0  0  0  0  0  0  0
   -4.4318   24.3790  -28.3210 H   0  0  0  0  0  0  0  0  0  0  0  0
   -5.4230   25.0560  -30.7890 C   0  0  0  0  0  0  0  0  0  0  0  0
   -4.8376   25.8333  -30.2761 H   0  0  0  0  0  0  0  0  0  0  0  0
   -5.6316   25.3007  -31.8410 H   0  0  0  0  0  0  0  0  0  0  0  0
   -6.7800   24.9390  -30.0900 C   0  0  0  0  0  0  0  0  0  0  0  0
   -6.6332   24.9517  -28.9999 H   0  0  0  0  0  0  0  0  0  0  0  0
   -7.4180   25.7855  -30.3839 H   0  0  0  0  0  0  0  0  0  0  0  0
   -7.2637   23.9958  -30.3839 H   0  0  0  0  0  0  0  0  0  0  0  0
   -6.5900   20.4450  -32.2910 C   0  0  0  0  0  0  0  0  0  0  0  0
   -7.3410   21.4470  -31.6340 C   0  0  0  0  0  0  0  0  0  0  0  0
   -6.8194   22.2965  -31.1690 H   0  0  0  0  0  0  0  0  0  0  0  0
   -8.7300   21.3760  -31.5660 C   0  0  0  0  0  0  0  0  0  0  0  0
   -9.2966   22.1705  -31.0583 H   0  0  0  0  0  0  0  0  0  0  0  0
   -9.4000   20.3040  -32.1380 C   0  0  0  0  0  0  0  0  0  0  0  0
  -10.4996   20.2751  -32.1316 H   0  0  0  0  0  0  0  0  0  0  0  0
   -8.6790   19.2650  -32.7200 C   0  0  0  0  0  0  0  0  0  0  0  0
   -9.2182   18.4173  -33.1680 H   0  0  0  0  0  0  0  0  0  0  0  0
   -7.2610   19.2810  -32.7450 C   0  0  0  0  0  0  0  0  0  0  0  0
   -6.5350   18.1830  -33.1520 N   0  0  0  0  0  0  0  0  0  0  0  0
   -7.1880   16.8540  -33.2160 C   0  0  0  0  0  0  0  0  0  0  0  0
   -7.3693   16.4850  -32.1957 H   0  0  0  0  0  0  0  0  0  0  0  0
   -8.1458   16.9414  -33.7499 H   0  0  0  0  0  0  0  0  0  0  0  0
   -6.5336   16.1492  -33.7499 H   0  0  0  0  0  0  0  0  0  0  0  0
  1  2  1  0
  2  3  2  0
  3  4  1  0
  4  5  1  0
  4  6  1  0
  4  7  1  0
  2  8  1  0
  8  9  1  0
  8 10  1  0
  8 11  1  0
 11 12  1  0
 11 13  1  0
 11 14  1  0
 14 15  2  0
 15 16  1  0
 15 17  1  0
 17 18  1  0
 17 19  2  0
 19 20  1  0
 19 21  1  0
 21 22  2  0
 22 23  1  0
 23 24  1  0
 24 25  1  0
 24 26  1  0
 26 27  1  0
 26 28  1  0
 26 29  1  0
 29 30  1  0
 30 31  1  0
 30 32  1  0
 30 33  1  0
 33 34  1  0
 33 35  1  0
 33 36  1  0
 29 37  1  0
 37 38  1  0
 37 39  1  0
 37 40  1  0
 40 41  1  0
 40 42  1  0
 40 43  1  0
 23 44  2  0
 44 45  1  0
 45 46  1  0
 45 47  2  0
 47 48  1  0
 47 49  1  0
 49 50  1  0
 49 51  2  0
 51 52  1  0
 51 53  1  0
 53 54  2  0
 54 55  1  0
 55 56  1  0
 55 57  1  0
 55 58  1  0
 22 14  1  0
 53 44  1  0
 54 21  1  0
M  CHG  2  11   1  54   1
M  END
>  <UniqueID>  (15) 
15

>  <SMILES>  (15) 
CCN(CC)CNc1c2ccccc2[n+](C)c2cccc([NH2+]C/C=N/C)c12

>  <Energy>  (15) 
108.60039350819788

>  <Genealogy>  (15) 
CCN(CC)CNc1c2ccccc2[n+](C)c2cccc([NH2+]CC=NC)c12 (protonated)
CCN(CC)CNc1c2ccccc2[n+](C)c2cccc([NH2+]C/C=N/C)c12 (cis-trans isomerization)
CCN(CC)CNc1c2ccccc2[n+](C)c2cccc([NH2+]C/C=N/C)c12 (3D coordinates assigned)
CCN(CC)CNc1c2ccccc2[n+](C)c2cccc([NH2+]C/C=N/C)c12 (optimized conformer: 108.60039350819788 kcal/mol)

>  <smiles>  (15) 
CCN(CC)CNc1c2ccccc2[n+](C)c2cccc(NCC=NC)c12

>  <score_type>  (15) 
oracle

>  <origin>  (15) 
adg

>  <m_score__min__energy>  (15) 
-7.79

>  <m_primary>  (15) 
energy

$$$$
15:0
     RDKit          3D

 63 65  0  0  0  0  0  0  0  0999 V2000
   -0.3990   19.9650  -34.1930 C   0  0  0  0  0  0  0  0  0  0  0  0
   -0.7860   19.7590  -32.7200 C   0  0  0  0  0  0  0  0  0  0  0  0
   -1.8550   20.6670  -32.2420 N   0  0  0  0  0  0  0  0  0  0  0  0
   -1.4130   21.4880  -31.1000 C   0  0  0  0  0  0  0  0  0  0  0  0
   -2.4300   21.4920  -33.3270 C   0  0  0  0  0  0  0  0  0  0  0  0
   -3.9410   21.2290  -33.4580 C   0  0  0  0  0  0  0  0  0  0  0  0
   -4.4690   20.4510  -32.3190 N   0  0  0  0  0  0  0  0  0  0  0  0
   -5.6970   21.0220  -31.7770 C   0  0  0  0  0  0  0  0  0  0  0  0
   -5.7010   22.3260  -31.2320 C   0  0  0  0  0  0  0  0  0  0  0  0
   -4.5370   22.8930  -30.6690 C   0  0  0  0  0  0  0  0  0  0  0  0
   -4.5580   24.1810  -30.1370 C   0  0  0  0  0  0  0  0  0  0  0  0
   -5.7380   24.9160  -30.1390 C   0  0  0  0  0  0  0  0  0  0  0  0
   -6.9020   24.3740  -30.6850 C   0  0  0  0  0  0  0  0  0  0  0  0
   -6.9020   23.0790  -31.2580 C   0  0  0  0  0  0  0  0  0  0  0  0
   -8.0290   22.5460  -31.8460 N   0  0  0  0  0  0  0  0  0  0  0  0
   -9.1440   23.4290  -32.2450 C   0  0  0  0  0  0  0  0  0  0  0  0
   -8.1150   21.1800  -32.0360 C   0  0  0  0  0  0  0  0  0  0  0  0
   -9.3540   20.5570  -32.3090 C   0  0  0  0  0  0  0  0  0  0  0  0
   -9.4510   19.1770  -32.4290 C   0  0  0  0  0  0  0  0  0  0  0  0
   -8.3400   18.3770  -32.2160 C   0  0  0  0  0  0  0  0  0  0  0  0
   -7.0840   18.9430  -31.9410 C   0  0  0  0  0  0  0  0  0  0  0  0
   -6.0220   18.0890  -31.4660 N   0  0  0  0  0  0  0  0  0  0  0  0
   -5.8080   16.6980  -31.8790 C   0  0  0  0  0  0  0  0  0  0  0  0
   -5.0900   16.6090  -33.2370 C   0  0  0  0  0  0  0  0  0  0  0  0
   -4.7810   17.9550  -33.7680 N   0  0  0  0  0  0  0  0  0  0  0  0
   -3.4090   18.0040  -34.2960 C   0  0  0  0  0  0  0  0  0  0  0  0
   -5.7310   18.3400  -34.8250 C   0  0  0  0  0  0  0  0  0  0  0  0
   -6.9490   20.3670  -31.9280 C   0  0  0  0  0  0  0  0  0  0  0  0
    0.5708   20.4812  -34.2486 H   0  0  0  0  0  0  0  0  0  0  0  0
   -0.3234   18.9878  -34.6924 H   0  0  0  0  0  0  0  0  0  0  0  0
   -1.1674   20.5734  -34.6924 H   0  0  0  0  0  0  0  0  0  0  0  0
   -1.1323   18.7224  -32.5957 H   0  0  0  0  0  0  0  0  0  0  0  0
    0.1102   19.9825  -32.1226 H   0  0  0  0  0  0  0  0  0  0  0  0
   -1.6839   20.9848  -30.1601 H   0  0  0  0  0  0  0  0  0  0  0  0
   -0.3218   21.6201  -31.1439 H   0  0  0  0  0  0  0  0  0  0  0  0
   -1.9035   22.4716  -31.1439 H   0  0  0  0  0  0  0  0  0  0  0  0
   -2.2656   22.5556  -33.0995 H   0  0  0  0  0  0  0  0  0  0  0  0
   -1.9384   21.2278  -34.2749 H   0  0  0  0  0  0  0  0  0  0  0  0
   -4.4667   22.1942  -33.5027 H   0  0  0  0  0  0  0  0  0  0  0  0
   -4.1052   20.6431  -34.3744 H   0  0  0  0  0  0  0  0  0  0  0  0
   -3.7450   20.3860  -31.5670 H   0  0  0  0  0  0  0  0  0  0  0  0
   -4.6130   19.4870  -32.6860 H   0  0  0  0  0  0  0  0  0  0  0  0
   -3.6033   22.3118  -30.6500 H   0  0  0  0  0  0  0  0  0  0  0  0
   -3.6401   24.6164  -29.7152 H   0  0  0  0  0  0  0  0  0  0  0  0
   -5.7541   25.9282  -29.7087 H   0  0  0  0  0  0  0  0  0  0  0  0
   -7.8324   24.9606  -30.6702 H   0  0  0  0  0  0  0  0  0  0  0  0
   -9.6404   23.8221  -31.3455 H   0  0  0  0  0  0  0  0  0  0  0  0
   -8.7534   24.2653  -32.8433 H   0  0  0  0  0  0  0  0  0  0  0  0
   -9.8686   22.8571  -32.8433 H   0  0  0  0  0  0  0  0  0  0  0  0
  -10.2559   21.1753  -32.4283 H   0  0  0  0  0  0  0  0  0  0  0  0
  -10.4143   18.7169  -32.6944 H   0  0  0  0  0  0  0  0  0  0  0  0
   -8.4429   17.2828  -32.2629 H   0  0  0  0  0  0  0  0  0  0  0  0
   -5.3730   18.4670  -30.7380 H   0  0  0  0  0  0  0  0  0  0  0  0
   -5.1957   16.1910  -31.1187 H   0  0  0  0  0  0  0  0  0  0  0  0
   -6.7917   16.2162  -31.9802 H   0  0  0  0  0  0  0  0  0  0  0  0
   -4.1517   16.0490  -33.1108 H   0  0  0  0  0  0  0  0  0  0  0  0
   -5.7541   16.0975  -33.9493 H   0  0  0  0  0  0  0  0  0  0  0  0
   -2.6950   18.0295  -33.4596 H   0  0  0  0  0  0  0  0  0  0  0  0
   -3.2210   17.1120  -34.9116 H   0  0  0  0  0  0  0  0  0  0  0  0
   -3.2851   18.9071  -34.9116 H   0  0  0  0  0  0  0  0  0  0  0  0
   -6.6576   18.7155  -34.3662 H   0  0  0  0  0  0  0  0  0  0  0  0
   -5.2852   19.1284  -35.4492 H   0  0  0  0  0  0  0  0  0  0  0  0
   -5.9599   17.4637  -35.4492 H   0  0  0  0  0  0  0  0  0  0  0  0
  1  2  1  0
  2  3  1  0
  3  4  1  0
  3  5  1  0
  5  6  1  0
  6  7  1  0
  7  8  1  0
  8  9  2  0
  9 10  1  0
 10 11  2  0
 11 12  1  0
 12 13  2  0
 13 14  1  0
 14 15  2  0
 15 16  1  0
 15 17  1  0
 17 18  2  0
 18 19  1  0
 19 20  2  0
 20 21  1  0
 21 22  1  0
 22 23  1  0
 23 24  1  0
 24 25  1  0
 25 26  1  0
 25 27  1  0
 21 28  2  0
 28  8  1  0
 14  9  1  0
 28 17  1  0
  1 29  1  0
  1 30  1  0
  1 31  1  0
  2 32  1  0
  2 33  1  0
  4 34  1  0
  4 35  1  0
  4 36  1  0
  5 37  1  0
  5 38  1  0
  6 39  1  0
  6 40  1  0
  7 41  1  0
  7 42  1  0
 10 43  1  0
 11 44  1  0
 12 45  1  0
 13 46  1  0
 16 47  1  0
 16 48  1  0
 16 49  1  0
 18 50  1  0
 19 51  1  0
 20 52  1  0
 22 53  1  0
 23 54  1  0
 23 55  1  0
 24 56  1  0
 24 57  1  0
 26 58  1  0
 26 59  1  0
 26 60  1  0
 27 61  1  0
 27 62  1  0
 27 63  1  0
M  CHG  2   7   1  15   1
M  END
>  <UniqueID>  (16) 
16

>  <SMILES>  (16) 
CCN(C)CC[NH2+]c1c2ccccc2[n+](C)c2cccc(NCCN(C)C)c12

>  <Energy>  (16) 
102.36419397623276

>  <Genealogy>  (16) 
CCN(C)CC[NH2+]c1c2ccccc2[n+](C)c2cccc(NCCN(C)C)c12 (protonated)
CCN(C)CC[NH2+]c1c2ccccc2[n+](C)c2cccc(NCCN(C)C)c12 (3D coordinates assigned)
CCN(C)CC[NH2+]c1c2ccccc2[n+](C)c2cccc(NCCN(C)C)c12 (optimized conformer: 102.36419397623276 kcal/mol)

>  <smiles>  (16) 
CCN(C)CCNc1c2ccccc2[n+](C)c2cccc(NCCN(C)C)c12

>  <score_type>  (16) 
oracle

>  <origin>  (16) 
adg

>  <m_score__min__energy>  (16) 
-7.21

>  <m_primary>  (16) 
energy

$$$$
16:0
     RDKit          3D

 29 30  0  0  0  0  0  0  0  0999 V2000
   -5.6110   18.0710  -34.9450 C   0  0  0  0  0  0  0  0  0  0  0  0
   -6.5130   17.5510  -33.9060 N   0  0  0  0  0  0  0  0  0  0  0  0
   -6.5000   16.0790  -33.8870 C   0  0  0  0  0  0  0  0  0  0  0  0
   -6.2330   18.1340  -32.5750 C   0  0  0  0  0  0  0  0  0  0  0  0
   -6.4710   19.6190  -32.5080 C   0  0  0  0  0  0  0  0  0  0  0  0
   -5.9330   20.4250  -31.5680 N   0  0  0  0  0  0  0  0  0  0  0  0
   -6.4060   21.6350  -31.9470 C   0  0  0  0  0  0  0  0  0  0  0  0
   -6.1110   22.8980  -31.2410 C   0  0  0  0  0  0  0  0  0  0  0  0
   -7.1610   23.6940  -30.7510 C   0  0  0  0  0  0  0  0  0  0  0  0
   -6.8860   24.8920  -30.0830 C   0  0  0  0  0  0  0  0  0  0  0  0
   -5.5640   25.3050  -29.9000 C   0  0  0  0  0  0  0  0  0  0  0  0
   -4.5130   24.5200  -30.3850 C   0  0  0  0  0  0  0  0  0  0  0  0
   -3.2310   24.9220  -30.2060 F   0  0  0  0  0  0  0  0  0  0  0  0
   -4.7840   23.3220  -31.0520 C   0  0  0  0  0  0  0  0  0  0  0  0
   -7.1560   21.5460  -33.0210 O   0  0  0  0  0  0  0  0  0  0  0  0
   -7.2130   20.3070  -33.3920 N   0  0  0  0  0  0  0  0  0  0  0  0
   -4.7515   18.5665  -34.4699 H   0  0  0  0  0  0  0  0  0  0  0  0
   -5.2549   17.2396  -35.5711 H   0  0  0  0  0  0  0  0  0  0  0  0
   -6.1521   18.7958  -35.5711 H   0  0  0  0  0  0  0  0  0  0  0  0
   -6.4969   15.7258  -32.8453 H   0  0  0  0  0  0  0  0  0  0  0  0
   -7.3948   15.6978  -34.4008 H   0  0  0  0  0  0  0  0  0  0  0  0
   -5.5986   15.7136  -34.4008 H   0  0  0  0  0  0  0  0  0  0  0  0
   -6.8836   17.6434  -31.8361 H   0  0  0  0  0  0  0  0  0  0  0  0
   -5.1658   17.9675  -32.3668 H   0  0  0  0  0  0  0  0  0  0  0  0
   -8.2036   23.3734  -30.8935 H   0  0  0  0  0  0  0  0  0  0  0  0
   -7.7121   25.5099  -29.7012 H   0  0  0  0  0  0  0  0  0  0  0  0
   -5.3498   26.2474  -29.3746 H   0  0  0  0  0  0  0  0  0  0  0  0
   -3.9543   22.7074  -31.4312 H   0  0  0  0  0  0  0  0  0  0  0  0
   -7.7330   19.9400  -34.2190 H   0  0  0  0  0  0  0  0  0  0  0  0
  1  2  1  0
  2  3  1  0
  2  4  1  0
  4  5  1  0
  5  6  1  0
  6  7  2  0
  7  8  1  0
  8  9  2  0
  9 10  1  0
 10 11  2  0
 11 12  1  0
 12 13  1  0
 12 14  2  0
  7 15  1  0
 15 16  1  0
 16  5  2  0
 14  8  1  0
  1 17  1  0
  1 18  1  0
  1 19  1  0
  3 20  1  0
  3 21  1  0
  3 22  1  0
  4 23  1  0
  4 24  1  0
  9 25  1  0
 10 26  1  0
 11 27  1  0
 14 28  1  0
 16 29  1  0
M  CHG  1  16   1
M  END
>  <UniqueID>  (17) 
17

>  <SMILES>  (17) 
CN(C)Cc1nc(-c2cccc(F)c2)o[nH+]1

>  <Energy>  (17) 
64.2007676774707

>  <Genealogy>  (17) 
CN(C)Cc1nc(-c2cccc(F)c2)o[nH+]1 (protonated)
CN(C)Cc1nc(-c2cccc(F)c2)o[nH+]1 (3D coordinates assigned)
CN(C)Cc1nc(-c2cccc(F)c2)o[nH+]1 (optimized conformer: 64.2007676774707 kcal/mol)

>  <smiles>  (17) 
CN(C)Cc1noc(-c2cccc(F)c2)n1

>  <score_type>  (17) 
oracle

>  <origin>  (17) 
adg

>  <m_score__min__energy>  (17) 
-5.9800000000000004

>  <m_primary>  (17) 
energy

$$$$
17:0
     RDKit          3D

 35 36  0  0  0  0  0  0  0  0999 V2000
   -7.5720   23.3760  -32.0130 C   0  0  0  0  0  0  0  0  0  0  0  0
   -7.0280   24.1770  -30.8360 C   0  0  0  0  0  0  0  0  0  0  0  0
   -5.5310   24.1100  -30.7980 C   0  0  0  0  0  0  0  0  0  0  0  0
   -4.7250   25.1930  -30.7930 N   0  0  0  0  0  0  0  0  0  0  0  0
   -3.4950   24.7560  -30.8200 O   0  0  0  0  0  0  0  0  0  0  0  0
   -3.4670   23.4430  -30.8380 C   0  0  0  0  0  0  0  0  0  0  0  0
   -4.7510   22.9750  -30.8590 C   0  0  0  0  0  0  0  0  0  0  0  0
   -5.1270   21.5280  -30.9160 C   0  0  0  0  0  0  0  0  0  0  0  0
   -3.9580   20.7160  -31.5020 C   0  0  0  0  0  0  0  0  0  0  0  0
   -2.6230   21.0510  -30.8020 C   0  0  0  0  0  0  0  0  0  0  0  0
   -2.2450   22.5600  -30.9260 C   0  0  2  0  0  0  0  0  0  0  0  0
   -1.1510   22.9440  -29.9910 N   0  0  0  0  0  0  0  0  0  0  0  0
   -1.4450   22.9170  -28.5390 C   0  0  0  0  0  0  0  0  0  0  0  0
   -1.6200   24.3130  -27.9180 C   0  0  0  0  0  0  0  0  0  0  0  0
   -2.0060   25.2970  -28.9270 N   0  0  0  0  0  0  0  0  0  0  0  0
   -8.1528   22.5207  -31.6373 H   0  0  0  0  0  0  0  0  0  0  0  0
   -8.2209   24.0192  -32.6256 H   0  0  0  0  0  0  0  0  0  0  0  0
   -6.7349   23.0100  -32.6256 H   0  0  0  0  0  0  0  0  0  0  0  0
   -7.3402   25.2268  -30.9382 H   0  0  0  0  0  0  0  0  0  0  0  0
   -7.4255   23.7504  -29.9033 H   0  0  0  0  0  0  0  0  0  0  0  0
   -5.3515   21.1674  -29.9013 H   0  0  0  0  0  0  0  0  0  0  0  0
   -6.0146   21.4050  -31.5540 H   0  0  0  0  0  0  0  0  0  0  0  0
   -4.1687   19.6440  -31.3736 H   0  0  0  0  0  0  0  0  0  0  0  0
   -3.8611   20.9737  -32.5670 H   0  0  0  0  0  0  0  0  0  0  0  0
   -2.7102   20.7957  -29.7356 H   0  0  0  0  0  0  0  0  0  0  0  0
   -1.8317   20.4668  -31.2945 H   0  0  0  0  0  0  0  0  0  0  0  0
   -1.8289   22.7234  -31.9311 H   0  0  0  0  0  0  0  0  0  0  0  0
   -0.3040   22.3580  -30.1750 H   0  0  0  0  0  0  0  0  0  0  0  0
   -0.8740   23.9280  -30.2200 H   0  0  0  0  0  0  0  0  0  0  0  0
   -2.3738   22.3486  -28.3832 H   0  0  0  0  0  0  0  0  0  0  0  0
   -0.5800   22.4511  -28.0443 H   0  0  0  0  0  0  0  0  0  0  0  0
   -2.4015   24.2663  -27.1453 H   0  0  0  0  0  0  0  0  0  0  0  0
   -0.6591   24.6220  -27.4806 H   0  0  0  0  0  0  0  0  0  0  0  0
   -3.0480   25.2950  -29.0210 H   0  0  0  0  0  0  0  0  0  0  0  0
   -1.6010   25.0140  -29.8500 H   0  0  0  0  0  0  0  0  0  0  0  0
  1  2  1  0
  2  3  1  0
  3  4  2  0
  4  5  1  0
  5  6  1  0
  6  7  2  0
  7  8  1  0
  8  9  1  0
  9 10  1  0
 10 11  1  0
 11 12  1  0
 12 13  1  0
 13 14  1  0
 14 15  1  0
  7  3  1  0
 11  6  1  0
  1 16  1  0
  1 17  1  0
  1 18  1  0
  2 19  1  0
  2 20  1  0
  8 21  1  0
  8 22  1  0
  9 23  1  0
  9 24  1  0
 10 25  1  0
 10 26  1  0
 11 27  1  6
 12 28  1  0
 12 29  1  0
 13 30  1  0
 13 31  1  0
 14 32  1  0
 14 33  1  0
 15 34  1  0
 15 35  1  0
M  CHG  1  12   1
M  END
>  <UniqueID>  (18) 
18

>  <SMILES>  (18) 
CCc1noc2c1CCC[C@@H]2[NH2+]CCN

>  <Energy>  (18) 
66.75162666732547

>  <Genealogy>  (18) 
CCc1noc2c1CCCC2[NH2+]CCN (protonated)
CCc1noc2c1CCC[C@@H]2[NH2+]CCN (chirality)
CCc1noc2c1CCC[C@@H]2[NH2+]CCN (3D coordinates assigned)
CCc1noc2c1CCC[C@@H]2[NH2+]CCN (nonaromatic ring conformer: 66.75162666732547 kcal/mol)

>  <smiles>  (18) 
CCc1noc2c1CCCC2NCCN

>  <score_type>  (18) 
oracle

>  <origin>  (18) 
adg

>  <m_score__min__energy>  (18) 
-5.4100000000000001

>  <m_primary>  (18) 
energy

$$$$
18:0
     RDKit          3D

 61 63  0  0  0  0  0  0  0  0999 V2000
    0.2940   27.3100  -23.3850 C   0  0  0  0  0  0  0  0  0  0  0  0
   -0.7390   26.2610  -23.7980 C   0  0  0  0  0  0  0  0  0  0  0  0
   -0.1000   24.9510  -24.0130 N   0  0  0  0  0  0  0  0  0  0  0  0
   -0.1410   24.5400  -25.4300 C   0  0  0  0  0  0  0  0  0  0  0  0
   -1.3070   25.1890  -26.1940 C   0  0  0  0  0  0  0  0  0  0  0  0
   -0.9040   25.6010  -27.6140 C   0  0  0  0  0  0  0  0  0  0  0  0
   -1.9950   25.4400  -28.5060 O   0  0  0  0  0  0  0  0  0  0  0  0
   -2.0750   24.1200  -29.0150 C   0  0  0  0  0  0  0  0  0  0  0  0
   -3.3370   23.9370  -29.8600 C   0  0  0  0  0  0  0  0  0  0  0  0
   -3.6780   25.1590  -30.4770 O   0  0  0  0  0  0  0  0  0  0  0  0
   -5.0620   25.1750  -30.7610 C   0  0  0  0  0  0  0  0  0  0  0  0
   -5.5700   23.7360  -30.8300 C   0  0  0  0  0  0  0  0  0  0  0  0
   -5.7200   23.3040  -32.2190 N   0  0  0  0  0  0  0  0  0  0  0  0
   -5.8000   21.9090  -32.5430 C   0  0  0  0  0  0  0  0  0  0  0  0
   -7.0210   21.2260  -32.4180 C   0  0  0  0  0  0  0  0  0  0  0  0
   -8.1790   21.8980  -31.9700 C   0  0  0  0  0  0  0  0  0  0  0  0
   -9.3770   21.2110  -31.7960 C   0  0  0  0  0  0  0  0  0  0  0  0
   -9.4380   19.8480  -32.0510 C   0  0  0  0  0  0  0  0  0  0  0  0
   -8.3090   19.1640  -32.5040 C   0  0  0  0  0  0  0  0  0  0  0  0
   -7.0860   19.8440  -32.7380 C   0  0  0  0  0  0  0  0  0  0  0  0
   -5.9750   19.1970  -33.2510 N   0  0  0  0  0  0  0  0  0  0  0  0
   -6.1100   17.8400  -33.8310 C   0  0  0  0  0  0  0  0  0  0  0  0
   -4.7440   19.8290  -33.2550 C   0  0  0  0  0  0  0  0  0  0  0  0
   -3.5440   19.1320  -33.5560 C   0  0  0  0  0  0  0  0  0  0  0  0
   -2.3190   19.7990  -33.6270 C   0  0  0  0  0  0  0  0  0  0  0  0
   -0.8590   18.9150  -34.0310 Cl  0  0  0  0  0  0  0  0  0  0  0  0
   -2.2530   21.1660  -33.3800 C   0  0  0  0  0  0  0  0  0  0  0  0
   -3.4040   21.8680  -33.0330 C   0  0  0  0  0  0  0  0  0  0  0  0
   -4.6490   21.2120  -32.9440 C   0  0  0  0  0  0  0  0  0  0  0  0
    0.3452   27.3620  -22.2874 H   0  0  0  0  0  0  0  0  0  0  0  0
    1.2799   27.0312  -23.7852 H   0  0  0  0  0  0  0  0  0  0  0  0
    0.0000   28.2915  -23.7852 H   0  0  0  0  0  0  0  0  0  0  0  0
   -1.4946   26.1673  -23.0041 H   0  0  0  0  0  0  0  0  0  0  0  0
   -1.2091   26.5818  -24.7393 H   0  0  0  0  0  0  0  0  0  0  0  0
    0.9040   25.0200  -23.7240 H   0  0  0  0  0  0  0  0  0  0  0  0
   -0.5590   24.2220  -23.4140 H   0  0  0  0  0  0  0  0  0  0  0  0
    0.8037   24.8339  -25.9107 H   0  0  0  0  0  0  0  0  0  0  0  0
   -0.2855   23.4499  -25.4595 H   0  0  0  0  0  0  0  0  0  0  0  0
   -2.1363   24.4689  -26.2550 H   0  0  0  0  0  0  0  0  0  0  0  0
   -1.6072   26.0962  -25.6492 H   0  0  0  0  0  0  0  0  0  0  0  0
   -0.5921   26.6558  -27.6102 H   0  0  0  0  0  0  0  0  0  0  0  0
   -0.0737   24.9615  -27.9481 H   0  0  0  0  0  0  0  0  0  0  0  0
   -1.1915   23.9204  -29.6391 H   0  0  0  0  0  0  0  0  0  0  0  0
   -2.1136   23.4184  -28.1687 H   0  0  0  0  0  0  0  0  0  0  0  0
   -3.1524   23.1763  -30.6328 H   0  0  0  0  0  0  0  0  0  0  0  0
   -4.1649   23.6126  -29.2124 H   0  0  0  0  0  0  0  0  0  0  0  0
   -5.5957   25.7172  -29.9665 H   0  0  0  0  0  0  0  0  0  0  0  0
   -5.2392   25.6791  -31.7225 H   0  0  0  0  0  0  0  0  0  0  0  0
   -4.8517   23.0753  -30.3225 H   0  0  0  0  0  0  0  0  0  0  0  0
   -6.5520   23.6849  -30.3370 H   0  0  0  0  0  0  0  0  0  0  0  0
   -5.8030   23.9980  -32.9940 H   0  0  0  0  0  0  0  0  0  0  0  0
   -8.1340   22.9761  -31.7562 H   0  0  0  0  0  0  0  0  0  0  0  0
  -10.2750   21.7480  -31.4566 H   0  0  0  0  0  0  0  0  0  0  0  0
  -10.3813   19.3040  -31.8952 H   0  0  0  0  0  0  0  0  0  0  0  0
   -8.3683   18.0802  -32.6825 H   0  0  0  0  0  0  0  0  0  0  0  0
   -6.1836   17.1003  -33.0201 H   0  0  0  0  0  0  0  0  0  0  0  0
   -7.0170   17.7951  -34.4517 H   0  0  0  0  0  0  0  0  0  0  0  0
   -5.2296   17.6173  -34.4517 H   0  0  0  0  0  0  0  0  0  0  0  0
   -3.5799   18.0475  -33.7364 H   0  0  0  0  0  0  0  0  0  0  0  0
   -1.2906   21.6929  -33.4589 H   0  0  0  0  0  0  0  0  0  0  0  0
   -3.3415   22.9465  -32.8259 H   0  0  0  0  0  0  0  0  0  0  0  0
  1  2  1  0
  2  3  1  0
  3  4  1  0
  4  5  1  0
  5  6  1  0
  6  7  1  0
  7  8  1  0
  8  9  1  0
  9 10  1  0
 10 11  1  0
 11 12  1  0
 12 13  1  0
 13 14  1  0
 14 15  2  0
 15 16  1  0
 16 17  2  0
 17 18  1  0
 18 19  2  0
 19 20  1  0
 20 21  2  0
 21 22  1  0
 21 23  1  0
 23 24  2  0
 24 25  1  0
 25 26  1  0
 25 27  2  0
 27 28  1  0
 28 29  2  0
 29 14  1  0
 20 15  1  0
 29 23  1  0
  1 30  1  0
  1 31  1  0
  1 32  1  0
  2 33  1  0
  2 34  1  0
  3 35  1  0
  3 36  1  0
  4 37  1  0
  4 38  1  0
  5 39  1  0
  5 40  1  0
  6 41  1  0
  6 42  1  0
  8 43  1  0
  8 44  1  0
  9 45  1  0
  9 46  1  0
 11 47  1  0
 11 48  1  0
 12 49  1  0
 12 50  1  0
 13 51  1  0
 16 52  1  0
 17 53  1  0
 18 54  1  0
 19 55  1  0
 22 56  1  0
 22 57  1  0
 22 58  1  0
 24 59  1  0
 27 60  1  0
 28 61  1  0
M  CHG  2   3   1  21   1
M  END
>  <UniqueID>  (19) 
19

>  <SMILES>  (19) 
CC[NH2+]CCCOCCOCCNc1c2ccccc2[n+](C)c2cc(Cl)ccc12

>  <Energy>  (19) 
83.57896411195331

>  <Genealogy>  (19) 
CC[NH2+]CCCOCCOCCNc1c2ccccc2[n+](C)c2cc(Cl)ccc12 (protonated)
CC[NH2+]CCCOCCOCCNc1c2ccccc2[n+](C)c2cc(Cl)ccc12 (3D coordinates assigned)
CC[NH2+]CCCOCCOCCNc1c2ccccc2[n+](C)c2cc(Cl)ccc12 (optimized conformer: 83.57896411195331 kcal/mol)

>  <smiles>  (19) 
CCNCCCOCCOCCNc1c2ccccc2[n+](C)c2cc(Cl)ccc12

>  <score_type>  (19) 
oracle

>  <origin>  (19) 
adg

>  <m_score__min__energy>  (19) 
-9.7699999999999996

>  <m_primary>  (19) 
energy

$$$$
19:0
     RDKit          3D

 70 71  0  0  0  0  0  0  0  0999 V2000
   -1.1820   21.1340  -33.0270 C   0  0  0  0  0  0  0  0  0  0  0  0
   -2.1640   20.0330  -32.6280 C   0  0  0  0  0  0  0  0  0  0  0  0
   -3.4240   20.1460  -33.3630 N   0  0  0  0  0  0  0  0  0  0  0  0
   -4.3030   21.2690  -33.0820 C   0  0  0  0  0  0  0  0  0  0  0  0
   -4.3240   21.5590  -31.5860 C   0  0  0  0  0  0  0  0  0  0  0  0
   -3.8160   19.2990  -34.2040 N   0  0  0  0  0  0  0  0  0  0  0  0
   -5.3400   18.4850  -34.2230 S   0  0  0  0  0  0  0  0  0  0  0  0
   -6.4640   19.4770  -34.2870 O   0  0  0  0  0  0  0  0  0  0  0  0
   -5.4390   17.5230  -35.3730 O   0  0  0  0  0  0  0  0  0  0  0  0
   -5.4980   17.5490  -32.7080 C   0  0  0  0  0  0  0  0  0  0  0  0
   -6.5760   18.1110  -31.7680 C   0  0  0  0  0  0  0  0  0  0  0  0
   -8.0000   17.9090  -32.3050 C   0  0  0  0  0  0  0  0  0  0  0  0
   -8.9660   18.9420  -31.7090 C   0  0  0  0  0  0  0  0  0  0  0  0
   -8.9340   20.2830  -32.4590 C   0  0  0  0  0  0  0  0  0  0  0  0
   -7.6430   21.0810  -32.2030 C   0  0  0  0  0  0  0  0  0  0  0  0
   -7.8060   22.1280  -31.0880 C   0  0  0  0  0  0  0  0  0  0  0  0
   -7.1860   23.4870  -31.4580 C   0  0  0  0  0  0  0  0  0  0  0  0
   -7.2460   24.5060  -30.3050 C   0  0  0  0  0  0  0  0  0  0  0  0
   -5.8910   25.1110  -29.8860 C   0  0  0  0  0  0  0  0  0  0  0  0
   -4.7520   24.8130  -30.8690 C   0  0  0  0  0  0  0  0  0  0  0  0
   -3.5140   25.2510  -30.3180 O   0  0  0  0  0  0  0  0  0  0  0  0
   -2.8240   24.6090  -29.2790 C   0  0  0  0  0  0  0  0  0  0  0  0
   -3.2660   23.3930  -28.7260 C   0  0  0  0  0  0  0  0  0  0  0  0
   -2.5580   22.7900  -27.6840 C   0  0  0  0  0  0  0  0  0  0  0  0
   -1.3960   23.3890  -27.1810 C   0  0  0  0  0  0  0  0  0  0  0  0
   -0.6850   22.7890  -26.1280 C   0  0  0  0  0  0  0  0  0  0  0  0
    0.4730   23.3910  -25.6290 C   0  0  0  0  0  0  0  0  0  0  0  0
    0.9310   24.5930  -26.1760 C   0  0  0  0  0  0  0  0  0  0  0  0
    0.2360   25.1970  -27.2270 C   0  0  0  0  0  0  0  0  0  0  0  0
   -0.9360   24.6100  -27.7350 C   0  0  0  0  0  0  0  0  0  0  0  0
   -1.6580   25.2100  -28.7850 C   0  0  0  0  0  0  0  0  0  0  0  0
   -1.2270   26.4100  -29.3440 O   0  0  0  0  0  0  0  0  0  0  0  0
   -0.7662   21.6002  -32.1216 H   0  0  0  0  0  0  0  0  0  0  0  0
   -0.3662   20.6993  -33.6233 H   0  0  0  0  0  0  0  0  0  0  0  0
   -1.7068   21.8949  -33.6233 H   0  0  0  0  0  0  0  0  0  0  0  0
   -1.7107   19.0543  -32.8440 H   0  0  0  0  0  0  0  0  0  0  0  0
   -2.3803   20.1360  -31.5544 H   0  0  0  0  0  0  0  0  0  0  0  0
   -3.9404   22.1577  -33.6194 H   0  0  0  0  0  0  0  0  0  0  0  0
   -5.3217   21.0194  -33.4137 H   0  0  0  0  0  0  0  0  0  0  0  0
   -4.2555   20.6134  -31.0282 H   0  0  0  0  0  0  0  0  0  0  0  0
   -3.4700   22.2013  -31.3250 H   0  0  0  0  0  0  0  0  0  0  0  0
   -5.2616   22.0716  -31.3250 H   0  0  0  0  0  0  0  0  0  0  0  0
   -5.7601   16.5114  -32.9621 H   0  0  0  0  0  0  0  0  0  0  0  0
   -4.5349   17.6101  -32.1800 H   0  0  0  0  0  0  0  0  0  0  0  0
   -6.4924   17.6044  -30.7952 H   0  0  0  0  0  0  0  0  0  0  0  0
   -6.4063   19.1943  -31.6808 H   0  0  0  0  0  0  0  0  0  0  0  0
   -7.9899   18.0161  -33.3997 H   0  0  0  0  0  0  0  0  0  0  0  0
   -8.3425   16.9037  -32.0185 H   0  0  0  0  0  0  0  0  0  0  0  0
   -9.9876   18.5368  -31.7553 H   0  0  0  0  0  0  0  0  0  0  0  0
   -8.6517   19.1326  -30.6722 H   0  0  0  0  0  0  0  0  0  0  0  0
   -9.0157   20.0840  -33.5378 H   0  0  0  0  0  0  0  0  0  0  0  0
   -9.7752   20.8882  -32.0899 H   0  0  0  0  0  0  0  0  0  0  0  0
   -6.8467   20.3794  -31.9138 H   0  0  0  0  0  0  0  0  0  0  0  0
   -7.3938   21.6178  -33.1302 H   0  0  0  0  0  0  0  0  0  0  0  0
   -8.8791   22.2715  -30.8934 H   0  0  0  0  0  0  0  0  0  0  0  0
   -7.2794   21.7524  -30.1983 H   0  0  0  0  0  0  0  0  0  0  0  0
   -6.1326   23.3292  -31.7327 H   0  0  0  0  0  0  0  0  0  0  0  0
   -7.7694   23.8996  -32.2943 H   0  0  0  0  0  0  0  0  0  0  0  0
   -7.9046   25.3307  -30.6149 H   0  0  0  0  0  0  0  0  0  0  0  0
   -7.6142   23.9515  -29.4292 H   0  0  0  0  0  0  0  0  0  0  0  0
   -6.0068   26.2022  -29.8092 H   0  0  0  0  0  0  0  0  0  0  0  0
   -5.6161   24.6494  -28.9261 H   0  0  0  0  0  0  0  0  0  0  0  0
   -4.7056   23.7302  -31.0571 H   0  0  0  0  0  0  0  0  0  0  0  0
   -4.9382   25.3450  -31.8136 H   0  0  0  0  0  0  0  0  0  0  0  0
   -4.1756   22.9139  -29.1171 H   0  0  0  0  0  0  0  0  0  0  0  0
   -2.9143   21.8411  -27.2567 H   0  0  0  0  0  0  0  0  0  0  0  0
   -1.0411   21.8425  -25.6952 H   0  0  0  0  0  0  0  0  0  0  0  0
    1.0255   22.9179  -24.8038 H   0  0  0  0  0  0  0  0  0  0  0  0
    1.8414   25.0649  -25.7779 H   0  0  0  0  0  0  0  0  0  0  0  0
    0.6082   26.1375  -27.6595 H   0  0  0  0  0  0  0  0  0  0  0  0
  1  2  1  0
  2  3  1  0
  3  4  1  0
  4  5  1  0
  3  6  2  3
  6  7  1  0
  7  8  2  0
  7  9  2  0
  7 10  1  0
 10 11  1  0
 11 12  1  0
 12 13  1  0
 13 14  1  0
 14 15  1  0
 15 16  1  0
 16 17  1  0
 17 18  1  0
 18 19  1  0
 19 20  1  0
 20 21  1  0
 21 22  1  0
 22 23  2  0
 23 24  1  0
 24 25  2  0
 25 26  1  0
 26 27  2  0
 27 28  1  0
 28 29  2  0
 29 30  1  0
 30 31  2  0
 31 32  1  0
 31 22  1  0
 30 25  1  0
  1 33  1  0
  1 34  1  0
  1 35  1  0
  2 36  1  0
  2 37  1  0
  4 38  1  0
  4 39  1  0
  5 40  1  0
  5 41  1  0
  5 42  1  0
 10 43  1  0
 10 44  1  0
 11 45  1  0
 11 46  1  0
 12 47  1  0
 12 48  1  0
 13 49  1  0
 13 50  1  0
 14 51  1  0
 14 52  1  0
 15 53  1  0
 15 54  1  0
 16 55  1  0
 16 56  1  0
 17 57  1  0
 17 58  1  0
 18 59  1  0
 18 60  1  0
 19 61  1  0
 19 62  1  0
 20 63  1  0
 20 64  1  0
 23 65  1  0
 24 66  1  0
 26 67  1  0
 27 68  1  0
 28 69  1  0
 29 70  1  0
M  CHG  2   3   1  32  -1
M  END
>  <UniqueID>  (20) 
20

>  <SMILES>  (20) 
CC[N+](CC)=NS(=O)(=O)CCCCCCCCCCCOc1ccc2ccccc2c1[O-]

>  <Energy>  (20) 
53.13437092462301

>  <Genealogy>  (20) 
CC[N+](CC)=NS(=O)(=O)CCCCCCCCCCCOc1ccc2ccccc2c1[O-] (protonated)
CC[N+](CC)=NS(=O)(=O)CCCCCCCCCCCOc1ccc2ccccc2c1[O-] (3D coordinates assigned)
CC[N+](CC)=NS(=O)(=O)CCCCCCCCCCCOc1ccc2ccccc2c1[O-] (optimized conformer: 53.13437092462301 kcal/mol)

>  <smiles>  (20) 
CC[N+](CC)=NS(=O)(=O)CCCCCCCCCCCOc1ccc2ccccc2c1O

>  <score_type>  (20) 
oracle

>  <origin>  (20) 
adg

>  <m_score__min__energy>  (20) 
-12.369999999999999

>  <m_primary>  (20) 
energy

$$$$
20:0
     RDKit          3D

 80 84  0  0  0  0  0  0  0  0999 V2000
   -7.5740   18.1700  -31.6000 C   0  0  0  0  0  0  0  0  0  0  0  0
   -8.8920   18.6050  -32.2440 C   0  0  0  0  0  0  0  0  0  0  0  0
   -8.7200   19.7960  -33.1080 N   0  0  0  0  0  0  0  0  0  0  0  0
   -8.7170   21.0650  -32.3560 C   0  0  0  0  0  0  0  0  0  0  0  0
   -7.3330   21.3920  -31.7710 C   0  0  0  0  0  0  0  0  0  0  0  0
   -6.3250   21.4480  -32.8280 N   0  0  0  0  0  0  0  0  0  0  0  0
   -5.1040   20.7010  -32.7290 C   0  0  0  0  0  0  0  0  0  0  0  0
   -4.9080   19.5070  -33.4590 C   0  0  0  0  0  0  0  0  0  0  0  0
   -5.9610   18.9450  -34.2130 C   0  0  0  0  0  0  0  0  0  0  0  0
   -5.7510   17.8060  -34.9840 C   0  0  0  0  0  0  0  0  0  0  0  0
   -4.4970   17.2050  -35.0230 C   0  0  0  0  0  0  0  0  0  0  0  0
   -3.4390   17.7330  -34.2830 C   0  0  0  0  0  0  0  0  0  0  0  0
   -3.6170   18.8790  -33.4700 C   0  0  0  0  0  0  0  0  0  0  0  0
   -2.5720   19.4090  -32.7250 N   0  0  0  0  0  0  0  0  0  0  0  0
   -1.2590   18.7390  -32.6620 C   0  0  0  0  0  0  0  0  0  0  0  0
   -2.7840   20.5840  -32.0520 C   0  0  0  0  0  0  0  0  0  0  0  0
   -1.8590   21.3010  -31.3620 N   0  0  0  0  0  0  0  0  0  0  0  0
   -2.5340   22.3560  -30.8620 C   0  0  0  0  0  0  0  0  0  0  0  0
   -2.0100   23.3890  -30.0860 C   0  0  0  0  0  0  0  0  0  0  0  0
   -2.8780   24.4000  -29.6310 C   0  0  0  0  0  0  0  0  0  0  0  0
   -2.3130   25.4640  -28.9150 O   0  0  0  0  0  0  0  0  0  0  0  0
   -1.2400   25.3780  -27.9780 C   0  0  0  0  0  0  0  0  0  0  0  0
   -1.7640   25.7270  -26.5650 C   0  0  0  0  0  0  0  0  0  0  0  0
   -0.7350   25.6680  -25.4730 N   0  0  0  0  0  0  0  0  0  0  0  0
   -0.6320   24.2780  -24.9440 C   0  0  0  0  0  0  0  0  0  0  0  0
   -1.2210   26.5550  -24.3700 C   0  0  0  0  0  0  0  0  0  0  0  0
   -0.1360   26.8730  -23.3190 C   0  0  0  0  0  0  0  0  0  0  0  0
    1.1300   27.4300  -23.9020 N   0  0  0  0  0  0  0  0  0  0  0  0
    2.2970   26.6320  -23.4370 C   0  0  0  0  0  0  0  0  0  0  0  0
    1.3240   28.8240  -23.4280 C   0  0  0  0  0  0  0  0  0  0  0  0
    1.0990   27.4480  -25.3940 C   0  0  0  0  0  0  0  0  0  0  0  0
    0.6040   26.1180  -25.9980 C   0  0  0  0  0  0  0  0  0  0  0  0
   -4.2620   24.3300  -29.9510 C   0  0  0  0  0  0  0  0  0  0  0  0
   -4.7610   23.2880  -30.7520 C   0  0  0  0  0  0  0  0  0  0  0  0
   -3.8630   22.3240  -31.2160 C   0  0  0  0  0  0  0  0  0  0  0  0
   -4.0190   21.2020  -32.0140 C   0  0  0  0  0  0  0  0  0  0  0  0
   -7.6727   18.2026  -30.5049 H   0  0  0  0  0  0  0  0  0  0  0  0
   -7.3324   17.1445  -31.9160 H   0  0  0  0  0  0  0  0  0  0  0  0
   -6.7694   18.8502  -31.9160 H   0  0  0  0  0  0  0  0  0  0  0  0
   -9.2797   17.7762  -32.8545 H   0  0  0  0  0  0  0  0  0  0  0  0
   -9.5938   18.8675  -31.4386 H   0  0  0  0  0  0  0  0  0  0  0  0
   -9.5240   19.8350  -33.7780 H   0  0  0  0  0  0  0  0  0  0  0  0
   -7.8530   19.7360  -33.6910 H   0  0  0  0  0  0  0  0  0  0  0  0
   -9.0162   21.8785  -33.0333 H   0  0  0  0  0  0  0  0  0  0  0  0
   -9.4215   20.9616  -31.5175 H   0  0  0  0  0  0  0  0  0  0  0  0
   -7.3771   22.3663  -31.2622 H   0  0  0  0  0  0  0  0  0  0  0  0
   -7.0546   20.6015  -31.0586 H   0  0  0  0  0  0  0  0  0  0  0  0
   -6.4180   22.1830  -33.5740 H   0  0  0  0  0  0  0  0  0  0  0  0
   -6.9567   19.4119  -34.1907 H   0  0  0  0  0  0  0  0  0  0  0  0
   -6.5809   17.3785  -35.5658 H   0  0  0  0  0  0  0  0  0  0  0  0
   -4.3389   16.3086  -35.6407 H   0  0  0  0  0  0  0  0  0  0  0  0
   -2.4510   17.2518  -34.3316 H   0  0  0  0  0  0  0  0  0  0  0  0
   -0.9721   18.5926  -31.6102 H   0  0  0  0  0  0  0  0  0  0  0  0
   -1.3212   17.7624  -33.1644 H   0  0  0  0  0  0  0  0  0  0  0  0
   -0.5047   19.3624  -33.1644 H   0  0  0  0  0  0  0  0  0  0  0  0
   -0.8380   21.1200  -31.2410 H   0  0  0  0  0  0  0  0  0  0  0  0
   -0.9395   23.4137  -29.8342 H   0  0  0  0  0  0  0  0  0  0  0  0
   -0.8344   24.3555  -27.9770 H   0  0  0  0  0  0  0  0  0  0  0  0
   -0.4467   26.0854  -28.2613 H   0  0  0  0  0  0  0  0  0  0  0  0
   -2.1713   26.7484  -26.5950 H   0  0  0  0  0  0  0  0  0  0  0  0
   -2.5165   24.9632  -26.3193 H   0  0  0  0  0  0  0  0  0  0  0  0
   -0.6339   24.3031  -23.8443 H   0  0  0  0  0  0  0  0  0  0  0  0
   -1.4888   23.6863  -25.2987 H   0  0  0  0  0  0  0  0  0  0  0  0
    0.3026   23.8190  -25.2987 H   0  0  0  0  0  0  0  0  0  0  0  0
   -1.5685   27.5012  -24.8104 H   0  0  0  0  0  0  0  0  0  0  0  0
   -2.0289   26.0176  -23.8518 H   0  0  0  0  0  0  0  0  0  0  0  0
   -0.5446   27.6091  -22.6111 H   0  0  0  0  0  0  0  0  0  0  0  0
    0.1273   25.9216  -22.8336 H   0  0  0  0  0  0  0  0  0  0  0  0
    2.3170   26.6183  -22.3373 H   0  0  0  0  0  0  0  0  0  0  0  0
    2.2113   25.6026  -23.8150 H   0  0  0  0  0  0  0  0  0  0  0  0
    3.2252   27.0853  -23.8150 H   0  0  0  0  0  0  0  0  0  0  0  0
    1.3263   28.8403  -22.3281 H   0  0  0  0  0  0  0  0  0  0  0  0
    2.2843   29.2083  -23.8024 H   0  0  0  0  0  0  0  0  0  0  0  0
    0.5051   29.4559  -23.8024 H   0  0  0  0  0  0  0  0  0  0  0  0
    0.4267   28.2546  -25.7218 H   0  0  0  0  0  0  0  0  0  0  0  0
    2.1293   27.6076  -25.7446 H   0  0  0  0  0  0  0  0  0  0  0  0
    0.5246   26.2414  -27.0882 H   0  0  0  0  0  0  0  0  0  0  0  0
    1.3341   25.3467  -25.7115 H   0  0  0  0  0  0  0  0  0  0  0  0
   -4.9489   25.0990  -29.5679 H   0  0  0  0  0  0  0  0  0  0  0  0
   -5.8298   23.2333  -31.0065 H   0  0  0  0  0  0  0  0  0  0  0  0
  1  2  1  0
  2  3  1  0
  3  4  1  0
  4  5  1  0
  5  6  1  0
  6  7  1  0
  7  8  2  0
  8  9  1  0
  9 10  2  0
 10 11  1  0
 11 12  2  0
 12 13  1  0
 13 14  2  0
 14 15  1  0
 14 16  1  0
 16 17  1  0
 17 18  1  0
 18 19  2  0
 19 20  1  0
 20 21  1  0
 21 22  1  0
 22 23  1  0
 23 24  1  0
 24 25  1  0
 24 26  1  0
 26 27  1  0
 27 28  1  0
 28 29  1  0
 28 30  1  0
 28 31  1  0
 31 32  1  0
 20 33  2  0
 33 34  1  0
 34 35  2  0
 35 36  1  0
 36  7  1  0
 13  8  1  0
 36 16  2  0
 35 18  1  0
 32 24  1  0
  1 37  1  0
  1 38  1  0
  1 39  1  0
  2 40  1  0
  2 41  1  0
  3 42  1  0
  3 43  1  0
  4 44  1  0
  4 45  1  0
  5 46  1  0
  5 47  1  0
  6 48  1  0
  9 49  1  0
 10 50  1  0
 11 51  1  0
 12 52  1  0
 15 53  1  0
 15 54  1  0
 15 55  1  0
 17 56  1  0
 19 57  1  0
 22 58  1  0
 22 59  1  0
 23 60  1  0
 23 61  1  0
 25 62  1  0
 25 63  1  0
 25 64  1  0
 26 65  1  0
 26 66  1  0
 27 67  1  0
 27 68  1  0
 29 69  1  0
 29 70  1  0
 29 71  1  0
 30 72  1  0
 30 73  1  0
 30 74  1  0
 31 75  1  0
 31 76  1  0
 32 77  1  0
 32 78  1  0
 33 79  1  0
 34 80  1  0
M  CHG  4   3   1  14   1  24   1  28   1
M  END
>  <UniqueID>  (21) 
21

>  <SMILES>  (21) 
CC[NH2+]CCNc1c2ccccc2[n+](C)c2[nH]c3cc(OCC[N+]4(C)CC[N+](C)(C)CC4)ccc3c12

>  <Energy>  (21) 
171.48823150701375

>  <Genealogy>  (21) 
CC[NH2+]CCNc1c2ccccc2[n+](C)c2[nH]c3cc(OCC[N+]4(C)CC[N+](C)(C)CC4)ccc3c12 (protonated)
CC[NH2+]CCNc1c2ccccc2[n+](C)c2[nH]c3cc(OCC[N+]4(C)CC[N+](C)(C)CC4)ccc3c12 (3D coordinates assigned)
CC[NH2+]CCNc1c2ccccc2[n+](C)c2[nH]c3cc(OCC[N+]4(C)CC[N+](C)(C)CC4)ccc3c12 (nonaromatic ring conformer: 171.48823150701375 kcal/mol)

>  <smiles>  (21) 
CCNCCNc1c2ccccc2[n+](C)c2[nH]c3cc(OCC[N+]4(C)CC[N+](C)(C)CC4)ccc3c12

>  <score_type>  (21) 
oracle

>  <origin>  (21) 
adg

>  <m_score__min__energy>  (21) 
-8.5399999999999991

>  <m_primary>  (21) 
energy

$$$$
21:0
     RDKit          3D

 47 49  0  0  0  0  0  0  0  0999 V2000
    0.9934   24.3391  -27.8348 H   0  0  0  0  0  0  0  0  0  0  0  0
    0.1190   23.8950  -28.3330 C   0  0  0  0  0  0  0  0  0  0  0  0
    0.0850   22.5250  -28.5930 C   0  0  0  0  0  0  0  0  0  0  0  0
    0.9337   21.8903  -28.2982 H   0  0  0  0  0  0  0  0  0  0  0  0
   -1.0220   21.9560  -29.2260 C   0  0  0  0  0  0  0  0  0  0  0  0
   -1.0358   20.8754  -29.4313 H   0  0  0  0  0  0  0  0  0  0  0  0
   -2.1260   22.7550  -29.6060 C   0  0  0  0  0  0  0  0  0  0  0  0
   -3.2550   22.2100  -30.2750 C   0  0  0  0  0  0  0  0  0  0  0  0
   -3.1510   20.9610  -30.6640 N   0  0  0  0  0  0  0  0  0  0  0  0
   -2.8340   20.3370  -31.9440 C   0  0  0  0  0  0  0  0  0  0  0  0
   -2.7897   19.2448  -31.8209 H   0  0  0  0  0  0  0  0  0  0  0  0
   -1.8595   20.6998  -32.3029 H   0  0  0  0  0  0  0  0  0  0  0  0
   -3.9230   20.6950  -32.9560 C   0  0  0  0  0  0  0  0  0  0  0  0
   -3.4821   20.7439  -33.9626 H   0  0  0  0  0  0  0  0  0  0  0  0
   -4.3557   21.6703  -32.6886 H   0  0  0  0  0  0  0  0  0  0  0  0
   -4.9910   19.6710  -32.9390 N   0  0  0  0  0  0  0  0  0  0  0  0
   -6.3250   20.2420  -33.2540 C   0  0  0  0  0  0  0  0  0  0  0  0
   -6.5545   20.0227  -34.3072 H   0  0  0  0  0  0  0  0  0  0  0  0
   -6.2647   21.3208  -33.0477 H   0  0  0  0  0  0  0  0  0  0  0  0
   -7.4650   19.6890  -32.3870 C   0  0  0  0  0  0  0  0  0  0  0  0
   -7.2103   19.8125  -31.3240 H   0  0  0  0  0  0  0  0  0  0  0  0
   -8.3927   20.2372  -32.6079 H   0  0  0  0  0  0  0  0  0  0  0  0
   -7.6087   18.6210  -32.6079 H   0  0  0  0  0  0  0  0  0  0  0  0
   -4.6330   18.4910  -33.7610 C   0  0  0  0  0  0  0  0  0  0  0  0
   -3.6671   18.6794  -34.2524 H   0  0  0  0  0  0  0  0  0  0  0  0
   -4.5750   17.6165  -33.0962 H   0  0  0  0  0  0  0  0  0  0  0  0
   -5.6850   18.2040  -34.8320 C   0  0  0  0  0  0  0  0  0  0  0  0
   -6.6385   17.9439  -34.3490 H   0  0  0  0  0  0  0  0  0  0  0  0
   -5.8232   19.0973  -35.4589 H   0  0  0  0  0  0  0  0  0  0  0  0
   -5.3504   17.3643  -35.4589 H   0  0  0  0  0  0  0  0  0  0  0  0
   -4.3700   23.0760  -30.5530 C   0  0  0  0  0  0  0  0  0  0  0  0
   -5.6360   22.6430  -31.0240 C   0  0  0  0  0  0  0  0  0  0  0  0
   -5.8267   21.5661  -31.1416 H   0  0  0  0  0  0  0  0  0  0  0  0
   -6.6500   23.5580  -31.3430 C   0  0  0  0  0  0  0  0  0  0  0  0
   -7.9860   23.0670  -31.8230 C   0  0  0  0  0  0  0  0  0  0  0  0
   -8.6232   22.8328  -30.9574 H   0  0  0  0  0  0  0  0  0  0  0  0
   -8.4664   23.8473  -32.4315 H   0  0  0  0  0  0  0  0  0  0  0  0
   -7.8468   22.1613  -32.4315 H   0  0  0  0  0  0  0  0  0  0  0  0
   -6.4470   24.9230  -31.1280 C   0  0  0  0  0  0  0  0  0  0  0  0
   -7.2382   25.6438  -31.3817 H   0  0  0  0  0  0  0  0  0  0  0  0
   -5.2440   25.3700  -30.5930 C   0  0  0  0  0  0  0  0  0  0  0  0
   -5.0949   26.4442  -30.4088 H   0  0  0  0  0  0  0  0  0  0  0  0
   -4.2220   24.4660  -30.2870 C   0  0  0  0  0  0  0  0  0  0  0  0
   -3.0990   24.9420  -29.6990 N   0  0  0  0  0  0  0  0  0  0  0  0
   -2.0740   24.1410  -29.3360 C   0  0  0  0  0  0  0  0  0  0  0  0
   -0.9560   24.7010  -28.7050 C   0  0  0  0  0  0  0  0  0  0  0  0
   -0.9260   25.7817  -28.5020 H   0  0  0  0  0  0  0  0  0  0  0  0
  1  2  1  0
  2  3  2  0
  3  4  1  0
  3  5  1  0
  5  6  1  0
  5  7  2  0
  7  8  1  0
  8  9  2  0
  9 10  1  0
 10 11  1  0
 10 12  1  0
 10 13  1  0
 13 14  1  0
 13 15  1  0
 13 16  1  0
 16 17  1  0
 17 18  1  0
 17 19  1  0
 17 20  1  0
 20 21  1  0
 20 22  1  0
 20 23  1  0
 16 24  1  0
 24 25  1  0
 24 26  1  0
 24 27  1  0
 27 28  1  0
 27 29  1  0
 27 30  1  0
  8 31  1  0
 31 32  2  0
 32 33  1  0
 32 34  1  0
 34 35  1  0
 35 36  1  0
 35 37  1  0
 35 38  1  0
 34 39  2  0
 39 40  1  0
 39 41  1  0
 41 42  1  0
 41 43  2  0
 43 44  1  0
 44 45  1  0
 45 46  2  0
 46 47  1  0
 46  2  1  0
 45  7  1  0
 43 31  1  0
M  CHG  1  44  -1
M  END
>  <UniqueID>  (22) 
22

>  <SMILES>  (22) 
CCN(CC)CC/N=c1/c2ccccc2[n-]c2ccc(C)cc12

>  <Energy>  (22) 
71.23143586363919

>  <Genealogy>  (22) 
CCN(CC)CCN=c1c2ccccc2[n-]c2ccc(C)cc12 (protonated)
CCN(CC)CC/N=c1/c2ccccc2[n-]c2ccc(C)cc12 (cis-trans isomerization)
CCN(CC)CC/N=c1/c2ccccc2[n-]c2ccc(C)cc12 (3D coordinates assigned)
CCN(CC)CC/N=c1/c2ccccc2[n-]c2ccc(C)cc12 (optimized conformer: 71.23143586363919 kcal/mol)

>  <smiles>  (22) 
CCN(CC)CCN=c1c2ccccc2[nH]c2ccc(C)cc12

>  <score_type>  (22) 
oracle

>  <origin>  (22) 
adg

>  <m_score__min__energy>  (22) 
-8.6099999999999994

>  <m_primary>  (22) 
energy

$$$$
22:0
     RDKit          3D

 74 78  0  0  0  0  0  0  0  0999 V2000
   -6.8420   24.9180  -29.8350 C   0  0  0  0  0  0  0  0  0  0  0  0
   -5.4690   25.4950  -30.1700 C   0  0  0  0  0  0  0  0  0  0  0  0
   -4.7180   24.5650  -31.0460 N   0  0  0  0  0  0  0  0  0  0  0  0
   -3.7530   23.7800  -30.2540 C   0  0  0  0  0  0  0  0  0  0  0  0
   -5.6310   23.6570  -31.7780 C   0  0  0  0  0  0  0  0  0  0  0  0
   -4.8140   22.6100  -32.5800 C   0  0  0  0  0  0  0  0  0  0  0  0
   -4.5400   21.3180  -31.8890 N   0  0  0  0  0  0  0  0  0  0  0  0
   -5.0720   20.1170  -32.5230 C   0  0  0  0  0  0  0  0  0  0  0  0
   -6.4410   19.7760  -32.3210 C   0  0  0  0  0  0  0  0  0  0  0  0
   -7.3280   20.6430  -31.6300 C   0  0  0  0  0  0  0  0  0  0  0  0
   -8.6580   20.2960  -31.4140 C   0  0  0  0  0  0  0  0  0  0  0  0
   -9.1400   19.0760  -31.8630 C   0  0  0  0  0  0  0  0  0  0  0  0
   -8.2980   18.2050  -32.5480 C   0  0  0  0  0  0  0  0  0  0  0  0
   -6.9450   18.5440  -32.8150 C   0  0  0  0  0  0  0  0  0  0  0  0
   -6.1180   17.6840  -33.5000 N   0  0  0  0  0  0  0  0  0  0  0  0
   -6.6950   16.5380  -34.2420 C   0  0  0  0  0  0  0  0  0  0  0  0
   -4.7580   17.8970  -33.5200 C   0  0  0  0  0  0  0  0  0  0  0  0
   -3.8740   16.8430  -33.8500 C   0  0  0  0  0  0  0  0  0  0  0  0
   -2.5080   17.0530  -33.9420 C   0  0  0  0  0  0  0  0  0  0  0  0
   -1.9930   18.3260  -33.7850 C   0  0  0  0  0  0  0  0  0  0  0  0
   -2.8260   19.4110  -33.4690 C   0  0  0  0  0  0  0  0  0  0  0  0
   -2.3050   20.7440  -33.6480 N   0  0  0  0  0  0  0  0  0  0  0  0
   -1.5760   21.5160  -32.6410 C   0  0  0  0  0  0  0  0  0  0  0  0
   -0.1410   20.9930  -32.4710 C   0  0  0  0  0  0  0  0  0  0  0  0
   -0.0630   19.9600  -31.4150 N   0  0  0  0  0  0  0  0  0  0  0  0
    0.5470   18.7870  -31.7530 C   0  0  0  0  0  0  0  0  0  0  0  0
    0.7620   17.7940  -30.8070 C   0  0  0  0  0  0  0  0  0  0  0  0
    0.3780   17.9730  -29.5120 N   0  0  0  0  0  0  0  0  0  0  0  0
    0.6570   16.8960  -28.5490 C   0  0  0  0  0  0  0  0  0  0  0  0
   -0.2500   19.1410  -29.1390 C   0  0  0  0  0  0  0  0  0  0  0  0
   -0.6510   19.3650  -27.8000 C   0  0  0  0  0  0  0  0  0  0  0  0
   -1.2810   20.5500  -27.4310 C   0  0  0  0  0  0  0  0  0  0  0  0
   -1.5390   21.5290  -28.3820 C   0  0  0  0  0  0  0  0  0  0  0  0
   -1.1620   21.3360  -29.7090 C   0  0  0  0  0  0  0  0  0  0  0  0
   -0.4940   20.1540  -30.1160 C   0  0  0  0  0  0  0  0  0  0  0  0
   -4.2150   19.1740  -33.1820 C   0  0  0  0  0  0  0  0  0  0  0  0
   -6.9620   24.8676  -28.7427 H   0  0  0  0  0  0  0  0  0  0  0  0
   -7.6247   25.5633  -30.2604 H   0  0  0  0  0  0  0  0  0  0  0  0
   -6.9287   23.9073  -30.2604 H   0  0  0  0  0  0  0  0  0  0  0  0
   -5.5966   26.4572  -30.6876 H   0  0  0  0  0  0  0  0  0  0  0  0
   -4.9053   25.6400  -29.2366 H   0  0  0  0  0  0  0  0  0  0  0  0
   -3.9451   23.9363  -29.1822 H   0  0  0  0  0  0  0  0  0  0  0  0
   -3.8638   22.7123  -30.4945 H   0  0  0  0  0  0  0  0  0  0  0  0
   -2.7303   24.1058  -30.4945 H   0  0  0  0  0  0  0  0  0  0  0  0
   -6.2809   23.1374  -31.0585 H   0  0  0  0  0  0  0  0  0  0  0  0
   -6.2418   24.2479  -32.4764 H   0  0  0  0  0  0  0  0  0  0  0  0
   -5.3698   22.3858  -33.5024 H   0  0  0  0  0  0  0  0  0  0  0  0
   -3.8285   23.0699  -32.7450 H   0  0  0  0  0  0  0  0  0  0  0  0
   -3.5190   21.2270  -31.6950 H   0  0  0  0  0  0  0  0  0  0  0  0
   -4.9070   21.3730  -30.9120 H   0  0  0  0  0  0  0  0  0  0  0  0
   -6.9560   21.6090  -31.2577 H   0  0  0  0  0  0  0  0  0  0  0  0
   -9.3280   20.9906  -30.8862 H   0  0  0  0  0  0  0  0  0  0  0  0
  -10.1877   18.7966  -31.6778 H   0  0  0  0  0  0  0  0  0  0  0  0
   -8.6882   17.2348  -32.8894 H   0  0  0  0  0  0  0  0  0  0  0  0
   -7.0712   15.7908  -33.5278 H   0  0  0  0  0  0  0  0  0  0  0  0
   -7.5232   16.8903  -34.8745 H   0  0  0  0  0  0  0  0  0  0  0  0
   -5.9188   16.0825  -34.8745 H   0  0  0  0  0  0  0  0  0  0  0  0
   -4.2791   15.8376  -34.0371 H   0  0  0  0  0  0  0  0  0  0  0  0
   -1.8333   16.2070  -34.1399 H   0  0  0  0  0  0  0  0  0  0  0  0
   -0.9127   18.4917  -33.9097 H   0  0  0  0  0  0  0  0  0  0  0  0
   -2.3640   21.1700  -34.5910 H   0  0  0  0  0  0  0  0  0  0  0  0
   -1.5390   22.5698  -32.9543 H   0  0  0  0  0  0  0  0  0  0  0  0
   -2.0996   21.4154  -31.6788 H   0  0  0  0  0  0  0  0  0  0  0  0
    0.1959   20.5572  -33.4231 H   0  0  0  0  0  0  0  0  0  0  0  0
    0.5016   21.8362  -32.1777 H   0  0  0  0  0  0  0  0  0  0  0  0
    0.8734   18.6258  -32.7910 H   0  0  0  0  0  0  0  0  0  0  0  0
    1.2473   16.8532  -31.1059 H   0  0  0  0  0  0  0  0  0  0  0  0
    0.5563   17.2847  -27.5249 H   0  0  0  0  0  0  0  0  0  0  0  0
   -0.0578   16.0739  -28.7011 H   0  0  0  0  0  0  0  0  0  0  0  0
    1.6811   16.5243  -28.7011 H   0  0  0  0  0  0  0  0  0  0  0  0
   -0.4621   18.5919  -27.0407 H   0  0  0  0  0  0  0  0  0  0  0  0
   -1.5754   20.7116  -26.3835 H   0  0  0  0  0  0  0  0  0  0  0  0
   -2.0432   22.4607  -28.0859 H   0  0  0  0  0  0  0  0  0  0  0  0
   -1.3865   22.1140  -30.4536 H   0  0  0  0  0  0  0  0  0  0  0  0
  1  2  1  0
  2  3  1  0
  3  4  1  0
  3  5  1  0
  5  6  1  0
  6  7  1  0
  7  8  1  0
  8  9  2  0
  9 10  1  0
 10 11  2  0
 11 12  1  0
 12 13  2  0
 13 14  1  0
 14 15  2  0
 15 16  1  0
 15 17  1  0
 17 18  2  0
 18 19  1  0
 19 20  2  0
 20 21  1  0
 21 22  1  0
 22 23  1  0
 23 24  1  0
 24 25  1  0
 25 26  2  0
 26 27  1  0
 27 28  2  0
 28 29  1  0
 28 30  1  0
 30 31  2  0
 31 32  1  0
 32 33  2  0
 33 34  1  0
 34 35  2  0
 21 36  2  0
 36  8  1  0
 14  9  1  0
 36 17  1  0
 35 25  1  0
 35 30  1  0
  1 37  1  0
  1 38  1  0
  1 39  1  0
  2 40  1  0
  2 41  1  0
  4 42  1  0
  4 43  1  0
  4 44  1  0
  5 45  1  0
  5 46  1  0
  6 47  1  0
  6 48  1  0
  7 49  1  0
  7 50  1  0
 10 51  1  0
 11 52  1  0
 12 53  1  0
 13 54  1  0
 16 55  1  0
 16 56  1  0
 16 57  1  0
 18 58  1  0
 19 59  1  0
 20 60  1  0
 22 61  1  0
 23 62  1  0
 23 63  1  0
 24 64  1  0
 24 65  1  0
 26 66  1  0
 27 67  1  0
 29 68  1  0
 29 69  1  0
 29 70  1  0
 31 71  1  0
 32 72  1  0
 33 73  1  0
 34 74  1  0
M  CHG  4   7   1  15   1  25   1  28   1
M  END
>  <UniqueID>  (23) 
23

>  <SMILES>  (23) 
CCN(C)CC[NH2+]c1c2ccccc2[n+](C)c2cccc(NCC[n+]3cc[n+](C)c4ccccc43)c12

>  <Energy>  (23) 
132.73532746192618

>  <Genealogy>  (23) 
CCN(C)CC[NH2+]c1c2ccccc2[n+](C)c2cccc(NCC[n+]3cc[n+](C)c4ccccc43)c12 (protonated)
CCN(C)CC[NH2+]c1c2ccccc2[n+](C)c2cccc(NCC[n+]3cc[n+](C)c4ccccc43)c12 (3D coordinates assigned)
CCN(C)CC[NH2+]c1c2ccccc2[n+](C)c2cccc(NCC[n+]3cc[n+](C)c4ccccc43)c12 (optimized conformer: 132.73532746192618 kcal/mol)

>  <smiles>  (23) 
CCN(C)CCNc1c2ccccc2[n+](C)c2cccc(NCC[n+]3cc[n+](C)c4ccccc43)c12

>  <score_type>  (23) 
oracle

>  <origin>  (23) 
adg

>  <m_score__min__energy>  (23) 
-8.6099999999999994

>  <m_primary>  (23) 
energy

$$$$
23:0
     RDKit          3D

 65 67  0  0  0  0  0  0  0  0999 V2000
    0.2460   20.1640  -30.6810 C   0  0  0  0  0  0  0  0  0  0  0  0
   -1.1860   19.9150  -30.1870 C   0  0  0  0  0  0  0  0  0  0  0  0
   -1.7210   21.0460  -29.3830 N   0  0  2  0  0  0  0  0  0  0  0  0
   -0.6770   22.0850  -29.1580 C   0  0  0  0  0  0  0  0  0  0  0  0
   -1.0630   23.4710  -29.7030 C   0  0  0  0  0  0  0  0  0  0  0  0
   -2.2310   23.3590  -30.4690 O   0  0  0  0  0  0  0  0  0  0  0  0
   -2.3740   20.5600  -28.1320 C   0  0  0  0  0  0  0  0  0  0  0  0
   -3.4760   21.4750  -27.5650 C   0  0  0  0  0  0  0  0  0  0  0  0
   -3.8460   22.4340  -28.5310 O   0  0  0  0  0  0  0  0  0  0  0  0
   -3.9230   23.7100  -27.9340 C   0  0  0  0  0  0  0  0  0  0  0  0
   -4.9400   24.5530  -28.6920 C   0  0  0  0  0  0  0  0  0  0  0  0
   -4.4030   24.9020  -29.9480 O   0  0  0  0  0  0  0  0  0  0  0  0
   -5.4410   25.2880  -30.8220 C   0  0  0  0  0  0  0  0  0  0  0  0
   -5.7370   24.1360  -31.7820 C   0  0  0  0  0  0  0  0  0  0  0  0
   -4.9750   22.9430  -31.4120 N   0  0  0  0  0  0  0  0  0  0  0  0
   -5.2080   21.6870  -32.0640 C   0  0  0  0  0  0  0  0  0  0  0  0
   -6.4820   21.0990  -32.0290 C   0  0  0  0  0  0  0  0  0  0  0  0
   -7.5330   21.7030  -31.3060 C   0  0  0  0  0  0  0  0  0  0  0  0
   -8.7820   21.0880  -31.2250 C   0  0  0  0  0  0  0  0  0  0  0  0
   -8.9970   19.8650  -31.8490 C   0  0  0  0  0  0  0  0  0  0  0  0
   -7.9780   19.2620  -32.5850 C   0  0  0  0  0  0  0  0  0  0  0  0
   -6.7100   19.8840  -32.7260 C   0  0  0  0  0  0  0  0  0  0  0  0
   -5.7100   19.3330  -33.5070 N   0  0  0  0  0  0  0  0  0  0  0  0
   -6.0250   18.2400  -34.4550 C   0  0  0  0  0  0  0  0  0  0  0  0
   -4.4200   19.8240  -33.4270 C   0  0  0  0  0  0  0  0  0  0  0  0
   -3.3210   19.1470  -34.0180 C   0  0  0  0  0  0  0  0  0  0  0  0
   -2.0320   19.6740  -33.9600 C   0  0  0  0  0  0  0  0  0  0  0  0
   -1.7990   20.8800  -33.3100 C   0  0  0  0  0  0  0  0  0  0  0  0
   -2.8490   21.5570  -32.6990 C   0  0  0  0  0  0  0  0  0  0  0  0
   -4.1590   21.0320  -32.7280 C   0  0  0  0  0  0  0  0  0  0  0  0
    0.9168   20.2806  -29.8171 H   0  0  0  0  0  0  0  0  0  0  0  0
    0.5775   19.3100  -31.2900 H   0  0  0  0  0  0  0  0  0  0  0  0
    0.2698   21.0798  -31.2900 H   0  0  0  0  0  0  0  0  0  0  0  0
   -1.8381   19.7644  -31.0600 H   0  0  0  0  0  0  0  0  0  0  0  0
   -1.1637   19.0273  -29.5377 H   0  0  0  0  0  0  0  0  0  0  0  0
   -2.4870   21.4970  -29.9410 H   0  0  0  0  0  0  0  0  0  0  0  0
   -0.5010   22.1731  -28.0758 H   0  0  0  0  0  0  0  0  0  0  0  0
    0.2230   21.7625  -29.7022 H   0  0  0  0  0  0  0  0  0  0  0  0
   -1.2388   24.1599  -28.8636 H   0  0  0  0  0  0  0  0  0  0  0  0
   -0.2473   23.8605  -30.3299 H   0  0  0  0  0  0  0  0  0  0  0  0
   -2.9460   23.7970  -29.9410 H   0  0  0  0  0  0  0  0  0  0  0  0
   -2.8229   19.5781  -28.3426 H   0  0  0  0  0  0  0  0  0  0  0  0
   -1.5826   20.5289  -27.3687 H   0  0  0  0  0  0  0  0  0  0  0  0
   -4.3536   20.8676  -27.2989 H   0  0  0  0  0  0  0  0  0  0  0  0
   -3.0956   21.9895  -26.6702 H   0  0  0  0  0  0  0  0  0  0  0  0
   -4.2377   23.6077  -26.8850 H   0  0  0  0  0  0  0  0  0  0  0  0
   -2.9371   24.1966  -27.9700 H   0  0  0  0  0  0  0  0  0  0  0  0
   -5.8651   23.9751  -28.8343 H   0  0  0  0  0  0  0  0  0  0  0  0
   -5.1676   25.4642  -28.1193 H   0  0  0  0  0  0  0  0  0  0  0  0
   -6.3441   25.5247  -30.2403 H   0  0  0  0  0  0  0  0  0  0  0  0
   -5.1354   26.1778  -31.3920 H   0  0  0  0  0  0  0  0  0  0  0  0
   -6.8115   23.9033  -31.7458 H   0  0  0  0  0  0  0  0  0  0  0  0
   -5.4453   24.4398  -32.7982 H   0  0  0  0  0  0  0  0  0  0  0  0
   -4.3530   22.9460  -30.5710 H   0  0  0  0  0  0  0  0  0  0  0  0
   -7.3656   22.6665  -30.8024 H   0  0  0  0  0  0  0  0  0  0  0  0
   -9.5975   21.5712  -30.6669 H   0  0  0  0  0  0  0  0  0  0  0  0
   -9.9757   19.3705  -31.7618 H   0  0  0  0  0  0  0  0  0  0  0  0
   -8.1596   18.2886  -33.0641 H   0  0  0  0  0  0  0  0  0  0  0  0
   -6.2869   17.3313  -33.8931 H   0  0  0  0  0  0  0  0  0  0  0  0
   -6.8741   18.5371  -35.0881 H   0  0  0  0  0  0  0  0  0  0  0  0
   -5.1480   18.0396  -35.0881 H   0  0  0  0  0  0  0  0  0  0  0  0
   -3.4899   18.1888  -34.5312 H   0  0  0  0  0  0  0  0  0  0  0  0
   -1.1969   19.1339  -34.4300 H   0  0  0  0  0  0  0  0  0  0  0  0
   -0.7827   21.2997  -33.2787 H   0  0  0  0  0  0  0  0  0  0  0  0
   -2.6566   22.5117  -32.1877 H   0  0  0  0  0  0  0  0  0  0  0  0
  1  2  1  0
  2  3  1  0
  3  4  1  0
  4  5  1  0
  5  6  1  0
  3  7  1  0
  7  8  1  0
  8  9  1  0
  9 10  1  0
 10 11  1  0
 11 12  1  0
 12 13  1  0
 13 14  1  0
 14 15  1  0
 15 16  1  0
 16 17  2  0
 17 18  1  0
 18 19  2  0
 19 20  1  0
 20 21  2  0
 21 22  1  0
 22 23  2  0
 23 24  1  0
 23 25  1  0
 25 26  2  0
 26 27  1  0
 27 28  2  0
 28 29  1  0
 29 30  2  0
 30 16  1  0
 22 17  1  0
 30 25  1  0
  1 31  1  0
  1 32  1  0
  1 33  1  0
  2 34  1  0
  2 35  1  0
  3 36  1  6
  4 37  1  0
  4 38  1  0
  5 39  1  0
  5 40  1  0
  6 41  1  0
  7 42  1  0
  7 43  1  0
  8 44  1  0
  8 45  1  0
 10 46  1  0
 10 47  1  0
 11 48  1  0
 11 49  1  0
 13 50  1  0
 13 51  1  0
 14 52  1  0
 14 53  1  0
 15 54  1  0
 18 55  1  0
 19 56  1  0
 20 57  1  0
 21 58  1  0
 24 59  1  0
 24 60  1  0
 24 61  1  0
 26 62  1  0
 27 63  1  0
 28 64  1  0
 29 65  1  0
M  CHG  2   3   1  23   1
M  END
>  <UniqueID>  (24) 
24

>  <SMILES>  (24) 
CC[N@H+](CCO)CCOCCOCCNc1c2ccccc2[n+](C)c2ccccc12

>  <Energy>  (24) 
88.87386550407307

>  <Genealogy>  (24) 
CC[NH+](CCO)CCOCCOCCNc1c2ccccc2[n+](C)c2ccccc12 (protonated)
CC[N@H+](CCO)CCOCCOCCNc1c2ccccc2[n+](C)c2ccccc12 (chirality)
CC[N@H+](CCO)CCOCCOCCNc1c2ccccc2[n+](C)c2ccccc12 (3D coordinates assigned)
CC[N@H+](CCO)CCOCCOCCNc1c2ccccc2[n+](C)c2ccccc12 (optimized conformer: 88.87386550407307 kcal/mol)

>  <smiles>  (24) 
CCN(CCO)CCOCCOCCNc1c2ccccc2[n+](C)c2ccccc12

>  <score_type>  (24) 
oracle

>  <origin>  (24) 
adg

>  <m_score__min__energy>  (24) 
-8.5399999999999991

>  <m_primary>  (24) 
energy

$$$$
24:0
     RDKit          3D

 32 32  0  0  0  0  0  0  0  0999 V2000
   -5.4190   25.5670  -30.4730 C   0  0  0  0  0  0  0  0  0  0  0  0
   -6.5440   24.6780  -29.9440 C   0  0  0  0  0  0  0  0  0  0  0  0
   -6.5130   23.2680  -30.5570 C   0  0  0  0  0  0  0  0  0  0  0  0
   -6.8890   23.2760  -32.3500 S   0  0  0  0  0  0  0  0  0  0  0  0
   -6.9300   21.4820  -32.5350 C   0  0  0  0  0  0  0  0  0  0  0  0
   -5.9180   20.8730  -33.2040 N   0  0  0  0  0  0  0  0  0  0  0  0
   -5.8650   19.5230  -33.3800 C   0  0  0  0  0  0  0  0  0  0  0  0
   -4.7100   18.9400  -34.1540 C   0  0  0  0  0  0  0  0  0  0  0  0
   -6.8710   18.6990  -32.8160 C   0  0  0  0  0  0  0  0  0  0  0  0
   -6.8020   17.1920  -32.9560 C   0  0  0  0  0  0  0  0  0  0  0  0
   -7.9730   19.3150  -32.1650 C   0  0  0  0  0  0  0  0  0  0  0  0
   -9.1130   18.4740  -31.6240 C   0  0  0  0  0  0  0  0  0  0  0  0
   -7.9710   20.7180  -31.9840 C   0  0  0  0  0  0  0  0  0  0  0  0
   -9.0180   21.3750  -31.2300 C   0  0  0  0  0  0  0  0  0  0  0  0
   -9.8550   21.9000  -30.6280 N   0  0  0  0  0  0  0  0  0  0  0  0
   -4.8675   26.0028  -29.6269 H   0  0  0  0  0  0  0  0  0  0  0  0
   -4.7331   24.9643  -31.0864 H   0  0  0  0  0  0  0  0  0  0  0  0
   -5.8468   26.3737  -31.0864 H   0  0  0  0  0  0  0  0  0  0  0  0
   -6.4421   24.5911  -28.8522 H   0  0  0  0  0  0  0  0  0  0  0  0
   -7.5002   25.1446  -30.2231 H   0  0  0  0  0  0  0  0  0  0  0  0
   -5.5105   22.8404  -30.4084 H   0  0  0  0  0  0  0  0  0  0  0  0
   -7.2863   22.6677  -30.0554 H   0  0  0  0  0  0  0  0  0  0  0  0
   -5.1580   21.4720  -33.5990 H   0  0  0  0  0  0  0  0  0  0  0  0
   -3.9538   18.5583  -33.4522 H   0  0  0  0  0  0  0  0  0  0  0  0
   -5.0715   18.1164  -34.7872 H   0  0  0  0  0  0  0  0  0  0  0  0
   -4.2620   19.7200  -34.7872 H   0  0  0  0  0  0  0  0  0  0  0  0
   -6.7809   16.7316  -31.9572 H   0  0  0  0  0  0  0  0  0  0  0  0
   -7.6847   16.8341  -33.5062 H   0  0  0  0  0  0  0  0  0  0  0  0
   -5.8903   16.9162  -33.5062 H   0  0  0  0  0  0  0  0  0  0  0  0
   -9.0909   18.4903  -30.5243 H   0  0  0  0  0  0  0  0  0  0  0  0
  -10.0707   18.8836  -31.9776 H   0  0  0  0  0  0  0  0  0  0  0  0
   -9.0043   17.4381  -31.9776 H   0  0  0  0  0  0  0  0  0  0  0  0
  1  2  1  0
  2  3  1  0
  3  4  1  0
  4  5  1  0
  5  6  2  0
  6  7  1  0
  7  8  1  0
  7  9  2  0
  9 10  1  0
  9 11  1  0
 11 12  1  0
 11 13  2  0
 13 14  1  0
 14 15  3  0
 13  5  1  0
  1 16  1  0
  1 17  1  0
  1 18  1  0
  2 19  1  0
  2 20  1  0
  3 21  1  0
  3 22  1  0
  6 23  1  0
  8 24  1  0
  8 25  1  0
  8 26  1  0
 10 27  1  0
 10 28  1  0
 10 29  1  0
 12 30  1  0
 12 31  1  0
 12 32  1  0
M  CHG  1   6   1
M  END
>  <UniqueID>  (25) 
25

>  <SMILES>  (25) 
CCCSc1[nH+]c(C)c(C)c(C)c1C#N

>  <Energy>  (25) 
29.292869843393238

>  <Genealogy>  (25) 
CCCSc1[nH+]c(C)c(C)c(C)c1C#N (protonated)
CCCSc1[nH+]c(C)c(C)c(C)c1C#N (3D coordinates assigned)
CCCSc1[nH+]c(C)c(C)c(C)c1C#N (optimized conformer: 29.292869843393238 kcal/mol)

>  <smiles>  (25) 
CCCSc1nc(C)c(C)c(C)c1C#N

>  <score_type>  (25) 
oracle

>  <origin>  (25) 
adg

>  <m_score__min__energy>  (25) 
-6.1500000000000004

>  <m_primary>  (25) 
energy

$$$$
