0:0
     RDKit          3D

 56 59  0  0  0  0  0  0  0  0999 V2000
   -0.5010   22.2040  -29.0730 C   0  0  0  0  0  0  0  0  0  0  0  0
   -1.2780   23.3920  -29.2030 O   0  0  0  0  0  0  0  0  0  0  0  0
   -2.6520   23.4300  -29.4870 C   0  0  0  0  0  0  0  0  0  0  0  0
   -3.1540   22.9960  -30.7300 C   0  0  0  0  0  0  0  0  0  0  0  0
   -4.5360   22.9910  -31.0100 C   0  0  0  0  0  0  0  0  0  0  0  0
   -5.4050   23.5960  -30.0680 C   0  0  0  0  0  0  0  0  0  0  0  0
   -4.9110   24.0130  -28.8250 C   0  0  0  0  0  0  0  0  0  0  0  0
   -3.5460   23.9200  -28.5110 C   0  0  0  0  0  0  0  0  0  0  0  0
   -3.0790   24.3900  -27.1380 C   0  0  0  0  0  0  0  0  0  0  0  0
   -1.9350   25.4080  -27.2370 C   0  0  0  0  0  0  0  0  0  0  0  0
   -4.2410   24.9260  -26.2920 C   0  0  0  0  0  0  0  0  0  0  0  0
   -6.8800   23.7950  -30.3320 C   0  0  0  0  0  0  0  0  0  0  0  0
   -7.2470   23.6470  -31.8080 C   0  0  0  0  0  0  0  0  0  0  0  0
   -6.6030   22.4050  -32.4390 C   0  0  1  0  0  0  0  0  0  0  0  0
   -5.0440   22.5200  -32.3820 C   0  0  2  0  0  0  0  0  0  0  0  0
   -4.3660   21.2030  -32.8930 C   0  0  0  0  0  0  0  0  0  0  0  0
   -4.9270   19.9090  -32.2570 C   0  0  0  0  0  0  0  0  0  0  0  0
   -6.4610   19.8390  -32.4180 C   0  0  1  0  0  0  0  0  0  0  0  0
   -6.8490   19.6740  -33.9240 C   0  0  0  0  0  0  0  0  0  0  0  0
   -7.1470   18.7360  -31.5870 C   0  0  2  0  0  0  0  0  0  0  0  0
   -7.1550   17.4970  -32.2500 O   0  0  0  0  0  0  0  0  0  0  0  0
   -8.5790   19.2680  -31.3510 C   0  0  0  0  0  0  0  0  0  0  0  0
   -8.5350   20.7850  -31.6160 C   0  0  0  0  0  0  0  0  0  0  0  0
   -7.0500   21.0890  -31.7560 C   0  0  2  0  0  0  0  0  0  0  0  0
   -0.3529   21.9776  -28.0068 H   0  0  0  0  0  0  0  0  0  0  0  0
   -1.0269   21.3672  -29.5559 H   0  0  0  0  0  0  0  0  0  0  0  0
    0.4764   22.3505  -29.5559 H   0  0  0  0  0  0  0  0  0  0  0  0
   -2.4497   22.6522  -31.5018 H   0  0  0  0  0  0  0  0  0  0  0  0
   -5.6080   24.4222  -28.0789 H   0  0  0  0  0  0  0  0  0  0  0  0
   -2.6796   23.5061  -26.6190 H   0  0  0  0  0  0  0  0  0  0  0  0
   -1.6117   25.6957  -26.2257 H   0  0  0  0  0  0  0  0  0  0  0  0
   -1.0896   24.9580  -27.7781 H   0  0  0  0  0  0  0  0  0  0  0  0
   -2.2837   26.3000  -27.7781 H   0  0  0  0  0  0  0  0  0  0  0  0
   -3.9994   24.8146  -25.2247 H   0  0  0  0  0  0  0  0  0  0  0  0
   -4.4022   25.9895  -26.5223 H   0  0  0  0  0  0  0  0  0  0  0  0
   -5.1546   24.3583  -26.5223 H   0  0  0  0  0  0  0  0  0  0  0  0
   -7.4436   23.0479  -29.7539 H   0  0  0  0  0  0  0  0  0  0  0  0
   -7.1327   24.8225  -30.0312 H   0  0  0  0  0  0  0  0  0  0  0  0
   -8.3403   23.5633  -31.8954 H   0  0  0  0  0  0  0  0  0  0  0  0
   -6.8717   24.5326  -32.3418 H   0  0  0  0  0  0  0  0  0  0  0  0
   -6.9423   22.3662  -33.4846 H   0  0  0  0  0  0  0  0  0  0  0  0
   -4.7381   23.3162  -33.0767 H   0  0  0  0  0  0  0  0  0  0  0  0
   -4.5097   21.1418  -33.9819 H   0  0  0  0  0  0  0  0  0  0  0  0
   -3.3063   21.2619  -32.6038 H   0  0  0  0  0  0  0  0  0  0  0  0
   -4.4724   19.0378  -32.7514 H   0  0  0  0  0  0  0  0  0  0  0  0
   -4.6849   19.9100  -31.1840 H   0  0  0  0  0  0  0  0  0  0  0  0
   -7.8590   19.2445  -33.9975 H   0  0  0  0  0  0  0  0  0  0  0  0
   -6.8319   20.6572  -34.4169 H   0  0  0  0  0  0  0  0  0  0  0  0
   -6.1290   19.0042  -34.4169 H   0  0  0  0  0  0  0  0  0  0  0  0
   -6.6124   18.5409  -30.6456 H   0  0  0  0  0  0  0  0  0  0  0  0
   -6.8120   16.8290  -31.6000 H   0  0  0  0  0  0  0  0  0  0  0  0
   -9.2830   18.7823  -32.0427 H   0  0  0  0  0  0  0  0  0  0  0  0
   -8.9174   19.0542  -30.3264 H   0  0  0  0  0  0  0  0  0  0  0  0
   -9.0749   21.0366  -32.5408 H   0  0  0  0  0  0  0  0  0  0  0  0
   -9.0143   21.3694  -30.8168 H   0  0  0  0  0  0  0  0  0  0  0  0
   -6.6603   21.3025  -30.7497 H   0  0  0  0  0  0  0  0  0  0  0  0
  1  2  1  0
  2  3  1  0
  3  4  2  0
  4  5  1  0
  5  6  2  0
  6  7  1  0
  7  8  2  0
  8  9  1  0
  9 10  1  0
  9 11  1  0
  6 12  1  0
 12 13  1  0
 13 14  1  0
 14 15  1  0
 15 16  1  0
 16 17  1  0
 17 18  1  0
 18 19  1  6
 18 20  1  0
 20 21  1  0
 20 22  1  0
 22 23  1  0
 23 24  1  0
  8  3  1  0
 24 14  1  0
 15  5  1  0
 24 18  1  0
  1 25  1  0
  1 26  1  0
  1 27  1  0
  4 28  1  0
  7 29  1  0
  9 30  1  0
 10 31  1  0
 10 32  1  0
 10 33  1  0
 11 34  1  0
 11 35  1  0
 11 36  1  0
 12 37  1  0
 12 38  1  0
 13 39  1  0
 13 40  1  0
 14 41  1  6
 15 42  1  6
 16 43  1  0
 16 44  1  0
 17 45  1  0
 17 46  1  0
 19 47  1  0
 19 48  1  0
 19 49  1  0
 20 50  1  1
 21 51  1  0
 22 52  1  0
 22 53  1  0
 23 54  1  0
 23 55  1  0
 24 56  1  1
M  END
>  <UniqueID>  (1) 
1

>  <SMILES>  (1) 
COc1cc2c(cc1C(C)C)CC[C@@H]1C3CCC(O)C3(C)CC[C@H]21

>  <Energy>  (1) 
73.15940730279367

>  <Genealogy>  (1) 
COc1cc2c(cc1C(C)C)CC[C@@H]1C3CCC(O)C3(C)CC[C@H]21 (chirality)
COc1cc2c(cc1C(C)C)CC[C@@H]1C3CCC(O)C3(C)CC[C@H]21 (3D coordinates assigned)
COc1cc2c(cc1C(C)C)CC[C@@H]1C3CCC(O)C3(C)CC[C@H]21 (nonaromatic ring conformer: 73.15940730279367 kcal/mol)

>  <smiles>  (1) 
COc1cc2c(cc1C(C)C)CCC1C2CCC2(C)C(O)CCC12

>  <score_type>  (1) 
oracle

>  <origin>  (1) 
adg

>  <m_score__min__energy>  (1) 
-9.2699999999999996

>  <m_primary>  (1) 
energy

$$$$
1:0
     RDKit          3D

 78 83  0  0  1  0  0  0  0  0999 V2000
   -2.3870   21.7390  -32.0240 C   0  0  0  0  0  0  0  0  0  0  0  0
   -1.2830   21.0500  -32.5650 O   0  0  0  0  0  0  0  0  0  0  0  0
   -1.3840   19.7220  -32.9650 C   0  0  0  0  0  0  0  0  0  0  0  0
   -2.5250   19.2090  -33.5740 C   0  0  0  0  0  0  0  0  0  0  0  0
   -2.5190   17.8930  -33.9210 C   0  0  0  0  0  0  0  0  0  0  0  0
   -3.6190   17.3440  -34.5270 C   0  0  0  0  0  0  0  0  0  0  0  0
   -4.6600   17.9780  -34.6900 N   0  0  0  0  0  0  0  0  0  0  0  0
   -5.5200   18.6500  -33.8700 C   0  0  0  0  0  0  0  0  0  0  0  0
   -5.5230   20.0670  -33.8420 C   0  0  0  0  0  0  0  0  0  0  0  0
   -6.5060   20.6990  -33.0890 C   0  0  0  0  0  0  0  0  0  0  0  0
   -7.4620   20.0070  -32.3830 C   0  0  0  0  0  0  0  0  0  0  0  0
   -7.4650   18.6040  -32.4080 C   0  0  0  0  0  0  0  0  0  0  0  0
   -8.5450   18.1950  -31.6150 C   0  0  0  0  0  0  0  0  0  0  0  0
   -9.1060   19.3180  -31.1800 N   0  0  0  0  0  0  0  0  0  0  0  0
   -8.5100   20.4070  -31.6010 N   0  0  0  0  0  0  0  0  0  0  0  0
   -8.7940   21.8060  -31.3560 C   0  0  0  0  0  0  0  0  0  0  0  0
   -7.5860   22.6260  -31.1500 C   0  0  0  0  0  0  0  0  0  0  0  0
   -7.2320   23.6730  -31.9770 C   0  0  0  0  0  0  0  0  0  0  0  0
   -6.0880   24.4430  -31.7420 C   0  0  0  0  0  0  0  0  0  0  0  0
   -5.2980   24.1390  -30.6530 C   0  0  0  0  0  0  0  0  0  0  0  0
   -5.6330   23.0980  -29.8160 C   0  0  0  0  0  0  0  0  0  0  0  0
   -4.7300   22.8350  -28.6590 C   0  0  0  0  0  0  0  0  0  0  0  0
   -6.7660   22.3520  -30.0670 C   0  0  0  0  0  0  0  0  0  0  0  0
   -6.5040   17.9440  -33.1420 C   0  0  0  0  0  0  0  0  0  0  0  0
   -3.6220   16.0200  -34.8960 N   0  0  0  0  0  0  0  0  0  0  0  0
   -2.5520   15.2300  -34.6700 C   0  0  0  0  0  0  0  0  0  0  0  0
   -1.4670   15.7420  -34.0750 N   0  0  0  0  0  0  0  0  0  0  0  0
   -1.4590   17.0410  -33.7140 C   0  0  0  0  0  0  0  0  0  0  0  0
   -0.3330   17.5430  -33.1150 C   0  0  0  0  0  0  0  0  0  0  0  0
   -0.3020   18.8660  -32.7490 C   0  0  0  0  0  0  0  0  0  0  0  0
    0.7700   19.4590  -32.1530 O   0  0  0  0  0  0  0  0  0  0  0  0
    1.1470   19.6640  -30.8780 C   0  0  0  0  0  0  0  0  0  0  0  0
    0.2190   19.2840  -29.7650 C   0  0  0  0  0  0  0  0  0  0  0  0
    0.2800   20.1930  -28.5810 C   0  0  0  0  0  0  0  0  0  0  0  0
   -0.9010   20.9400  -28.2830 N   0  0  0  0  0  0  0  0  0  0  0  0
   -1.0430   21.2180  -26.8730 C   0  0  0  0  0  0  0  0  0  0  0  0
   -1.5600   20.0610  -26.0620 C   0  0  0  0  0  0  0  0  0  0  0  0
   -2.4370   19.2150  -26.8710 N   0  0  0  0  0  0  0  0  0  0  0  0
   -3.4440   18.6130  -26.0230 C   0  0  0  0  0  0  0  0  0  0  0  0
   -3.1090   20.0760  -27.8650 C   0  0  0  0  0  0  0  0  0  0  0  0
   -2.0600   20.4000  -28.9130 C   0  0  0  0  0  0  0  0  0  0  0  0
   -2.3365   21.7075  -30.9256 H   0  0  0  0  0  0  0  0  0  0  0  0
   -2.3676   22.7856  -32.3621 H   0  0  0  0  0  0  0  0  0  0  0  0
   -3.3186   21.2617  -32.3621 H   0  0  0  0  0  0  0  0  0  0  0  0
   -3.4013   19.8449  -33.7682 H   0  0  0  0  0  0  0  0  0  0  0  0
   -4.7721   20.6477  -34.3979 H   0  0  0  0  0  0  0  0  0  0  0  0
   -6.5197   21.7984  -33.0566 H   0  0  0  0  0  0  0  0  0  0  0  0
   -8.8611   17.1639  -31.3986 H   0  0  0  0  0  0  0  0  0  0  0  0
   -9.3427   22.2062  -32.2213 H   0  0  0  0  0  0  0  0  0  0  0  0
   -9.3817   21.8582  -30.4276 H   0  0  0  0  0  0  0  0  0  0  0  0
   -7.8666   23.9082  -32.8442 H   0  0  0  0  0  0  0  0  0  0  0  0
   -5.8238   25.2742  -32.4122 H   0  0  0  0  0  0  0  0  0  0  0  0
   -4.3939   24.7323  -30.4516 H   0  0  0  0  0  0  0  0  0  0  0  0
   -5.2806   22.9954  -27.7203 H   0  0  0  0  0  0  0  0  0  0  0  0
   -4.3728   21.7955  -28.7016 H   0  0  0  0  0  0  0  0  0  0  0  0
   -3.8705   23.5201  -28.7016 H   0  0  0  0  0  0  0  0  0  0  0  0
   -7.0240   21.5219  -29.3930 H   0  0  0  0  0  0  0  0  0  0  0  0
   -6.5027   16.8442  -33.1618 H   0  0  0  0  0  0  0  0  0  0  0  0
   -4.4310   15.5790  -35.3530 H   0  0  0  0  0  0  0  0  0  0  0  0
   -2.5707   14.1725  -34.9724 H   0  0  0  0  0  0  0  0  0  0  0  0
    0.5354   16.8937  -32.9297 H   0  0  0  0  0  0  0  0  0  0  0  0
    2.0786   19.0994  -30.7249 H   0  0  0  0  0  0  0  0  0  0  0  0
    1.2099   20.7594  -30.7998 H   0  0  0  0  0  0  0  0  0  0  0  0
   -0.8096   19.2934  -30.1548 H   0  0  0  0  0  0  0  0  0  0  0  0
    0.5331   18.2890  -29.4167 H   0  0  0  0  0  0  0  0  0  0  0  0
    0.5160   19.5776  -27.7003 H   0  0  0  0  0  0  0  0  0  0  0  0
    1.0415   20.9455  -28.8337 H   0  0  0  0  0  0  0  0  0  0  0  0
   -0.0570   21.5027  -26.4771 H   0  0  0  0  0  0  0  0  0  0  0  0
   -1.7882   22.0223  -26.7844 H   0  0  0  0  0  0  0  0  0  0  0  0
   -0.7096   19.4620  -25.7042 H   0  0  0  0  0  0  0  0  0  0  0  0
   -2.1344   20.4542  -25.2102 H   0  0  0  0  0  0  0  0  0  0  0  0
   -3.1776   18.7723  -24.9677 H   0  0  0  0  0  0  0  0  0  0  0  0
   -4.4206   19.0755  -26.2285 H   0  0  0  0  0  0  0  0  0  0  0  0
   -3.4989   17.5338  -26.2285 H   0  0  0  0  0  0  0  0  0  0  0  0
   -3.9552   19.5429  -28.3229 H   0  0  0  0  0  0  0  0  0  0  0  0
   -3.5117   20.9887  -27.4016 H   0  0  0  0  0  0  0  0  0  0  0  0
   -1.7877   19.4816  -29.4537 H   0  0  0  0  0  0  0  0  0  0  0  0
   -2.4674   21.1381  -29.6196 H   0  0  0  0  0  0  0  0  0  0  0  0
  1  2  1  0
  2  3  1  0
  3  4  2  0
  4  5  1  0
  5  6  1  0
  6  7  2  0
  7  8  1  0
  8  9  2  0
  9 10  1  0
 10 11  2  0
 11 12  1  0
 12 13  1  0
 13 14  2  0
 14 15  1  0
 15 16  1  0
 16 17  1  0
 17 18  2  0
 18 19  1  0
 19 20  2  0
 20 21  1  0
 21 22  1  0
 21 23  2  0
 12 24  2  0
  6 25  1  0
 25 26  1  0
 26 27  2  0
 27 28  1  0
 28 29  1  0
 29 30  2  0
 30 31  1  0
 31 32  1  0
 32 33  1  0
 33 34  1  0
 34 35  1  0
 35 36  1  0
 36 37  1  0
 37 38  1  0
 38 39  1  0
 38 40  1  0
 40 41  1  0
 30  3  1  0
 41 35  1  0
 28  5  2  0
 24  8  1  0
 15 11  1  0
 23 17  1  0
  1 42  1  0
  1 43  1  0
  1 44  1  0
  4 45  1  0
  9 46  1  0
 10 47  1  0
 13 48  1  0
 16 49  1  0
 16 50  1  0
 18 51  1  0
 19 52  1  0
 20 53  1  0
 22 54  1  0
 22 55  1  0
 22 56  1  0
 23 57  1  0
 24 58  1  0
 25 59  1  0
 26 60  1  0
 29 61  1  0
 32 62  1  0
 32 63  1  0
 33 64  1  0
 33 65  1  0
 34 66  1  0
 34 67  1  0
 36 68  1  0
 36 69  1  0
 37 70  1  0
 37 71  1  0
 39 72  1  0
 39 73  1  0
 39 74  1  0
 40 75  1  0
 40 76  1  0
 41 77  1  0
 41 78  1  0
M  END
>  <smiles>  (2) 
COc1cc2c(=Nc3ccc4c(cnn4Cc4cccc(C)c4)c3)[nH]cnc2cc1OCCCN1CCN(C)CC1

>  <score_type>  (2) 
oracle

>  <origin>  (2) 
adg

>  <m_score__min__energy>  (2) 
-10.9

>  <m_primary>  (2) 
energy

$$$$
2:0
     RDKit          3D

 41 42  0  0  0  0  0  0  0  0999 V2000
   -9.5650   21.8100  -31.1350 C   0  0  0  0  0  0  0  0  0  0  0  0
   -9.0790   22.7360  -31.9670 C   0  0  0  0  0  0  0  0  0  0  0  0
   -7.6170   22.8030  -32.3360 C   0  0  0  0  0  0  0  0  0  0  0  0
   -6.6710   21.9350  -31.4580 C   0  0  2  0  0  0  0  0  0  0  0  0
   -5.5310   22.7570  -30.8830 C   0  0  0  0  0  0  0  0  0  0  0  0
   -5.8150   23.7110  -29.8900 C   0  0  0  0  0  0  0  0  0  0  0  0
   -4.8100   24.5410  -29.3920 C   0  0  0  0  0  0  0  0  0  0  0  0
   -3.5000   24.4330  -29.8660 C   0  0  0  0  0  0  0  0  0  0  0  0
   -2.5280   25.2920  -29.3340 O   0  0  0  0  0  0  0  0  0  0  0  0
   -1.7680   25.0200  -28.1600 C   0  0  0  0  0  0  0  0  0  0  0  0
   -3.2020   23.4720  -30.8490 C   0  0  0  0  0  0  0  0  0  0  0  0
   -4.2060   22.6360  -31.3680 C   0  0  0  0  0  0  0  0  0  0  0  0
   -3.7970   21.5400  -32.3270 C   0  0  0  0  0  0  0  0  0  0  0  0
   -4.9710   20.9000  -33.0770 C   0  0  0  0  0  0  0  0  0  0  0  0
   -6.1500   20.6310  -32.1170 C   0  0  2  0  0  0  0  0  0  0  0  0
   -7.2580   19.8130  -32.6730 N   0  0  0  0  0  0  0  0  0  0  0  0
   -7.5850   18.5800  -31.9410 C   0  0  0  0  0  0  0  0  0  0  0  0
   -9.0770   18.5460  -31.6340 C   0  0  0  0  0  0  0  0  0  0  0  0
  -10.6379   21.7971  -30.8927 H   0  0  0  0  0  0  0  0  0  0  0  0
   -8.8921   21.0607  -30.6925 H   0  0  0  0  0  0  0  0  0  0  0  0
   -9.7692   23.4759  -32.3984 H   0  0  0  0  0  0  0  0  0  0  0  0
   -7.5139   22.4697  -33.3792 H   0  0  0  0  0  0  0  0  0  0  0  0
   -7.3096   23.8469  -32.1753 H   0  0  0  0  0  0  0  0  0  0  0  0
   -7.3145   21.5870  -30.6366 H   0  0  0  0  0  0  0  0  0  0  0  0
   -6.8400   23.8040  -29.5017 H   0  0  0  0  0  0  0  0  0  0  0  0
   -5.0510   25.2865  -28.6199 H   0  0  0  0  0  0  0  0  0  0  0  0
   -2.3770   25.2380  -27.2703 H   0  0  0  0  0  0  0  0  0  0  0  0
   -1.4727   23.9604  -28.1517 H   0  0  0  0  0  0  0  0  0  0  0  0
   -0.8675   25.6516  -28.1517 H   0  0  0  0  0  0  0  0  0  0  0  0
   -2.1699   23.3733  -31.2164 H   0  0  0  0  0  0  0  0  0  0  0  0
   -3.1053   21.9681  -33.0674 H   0  0  0  0  0  0  0  0  0  0  0  0
   -3.3324   20.7457  -31.7243 H   0  0  0  0  0  0  0  0  0  0  0  0
   -5.3032   21.5799  -33.8753 H   0  0  0  0  0  0  0  0  0  0  0  0
   -4.6378   19.9430  -33.5050 H   0  0  0  0  0  0  0  0  0  0  0  0
   -5.7134   19.9944  -31.3334 H   0  0  0  0  0  0  0  0  0  0  0  0
   -8.1240   20.4020  -32.6980 H   0  0  0  0  0  0  0  0  0  0  0  0
   -7.3182   17.7079  -32.5560 H   0  0  0  0  0  0  0  0  0  0  0  0
   -7.0183   18.5544  -30.9986 H   0  0  0  0  0  0  0  0  0  0  0  0
   -9.2271   18.5426  -30.5443 H   0  0  0  0  0  0  0  0  0  0  0  0
   -9.5610   19.4333  -32.0680 H   0  0  0  0  0  0  0  0  0  0  0  0
   -9.5200   17.6375  -32.0680 H   0  0  0  0  0  0  0  0  0  0  0  0
  1  2  2  0
  2  3  1  0
  3  4  1  0
  4  5  1  0
  5  6  2  0
  6  7  1  0
  7  8  2  0
  8  9  1  0
  9 10  1  0
  8 11  1  0
 11 12  2  0
 12 13  1  0
 13 14  1  0
 14 15  1  0
 15 16  1  0
 16 17  1  0
 17 18  1  0
 15  4  1  0
 12  5  1  0
  1 19  1  0
  1 20  1  0
  2 21  1  0
  3 22  1  0
  3 23  1  0
  4 24  1  1
  6 25  1  0
  7 26  1  0
 10 27  1  0
 10 28  1  0
 10 29  1  0
 11 30  1  0
 13 31  1  0
 13 32  1  0
 14 33  1  0
 14 34  1  0
 15 35  1  1
 16 36  1  0
 17 37  1  0
 17 38  1  0
 18 39  1  0
 18 40  1  0
 18 41  1  0
M  END
>  <UniqueID>  (3) 
2

>  <SMILES>  (3) 
C=CC[C@@H]1c2ccc(OC)cc2CC[C@@H]1NCC

>  <Energy>  (3) 
44.02789650113335

>  <Genealogy>  (3) 
C=CC[C@@H]1c2ccc(OC)cc2CC[C@@H]1NCC (chirality)
C=CC[C@@H]1c2ccc(OC)cc2CC[C@@H]1NCC (3D coordinates assigned)
C=CC[C@@H]1c2ccc(OC)cc2CC[C@@H]1NCC (nonaromatic ring conformer: 44.02789650113335 kcal/mol)

>  <smiles>  (3) 
C=CCC1c2ccc(OC)cc2CCC1NCC

>  <score_type>  (3) 
oracle

>  <origin>  (3) 
adg

>  <m_score__min__energy>  (3) 
-7.5499999999999998

>  <m_primary>  (3) 
energy

$$$$
3:0
     RDKit          3D

 37 39  0  0  0  0  0  0  0  0999 V2000
   -3.9790   17.7280  -34.2690 C   0  0  0  0  0  0  0  0  0  0  0  0
   -3.6590   19.0220  -33.5300 C   0  0  0  0  0  0  0  0  0  0  0  0
   -4.8600   19.8530  -33.3860 N   0  0  0  0  0  0  0  0  0  0  0  0
   -6.1050   19.5240  -34.0880 C   0  0  0  0  0  0  0  0  0  0  0  0
   -7.2120   19.3320  -33.1020 C   0  0  0  0  0  0  0  0  0  0  0  0
   -8.1380   20.2950  -32.7230 C   0  0  0  0  0  0  0  0  0  0  0  0
   -8.9920   19.8640  -31.7020 C   0  0  0  0  0  0  0  0  0  0  0  0
   -8.7320   18.5720  -31.2640 C   0  0  0  0  0  0  0  0  0  0  0  0
   -7.4340   17.9650  -32.1460 S   0  0  0  0  0  0  0  0  0  0  0  0
   -4.8620   20.9330  -32.4440 C   0  0  0  0  0  0  0  0  0  0  0  0
   -5.5510   22.0810  -32.6320 N   0  0  0  0  0  0  0  0  0  0  0  0
   -5.4830   22.8930  -31.5450 C   0  0  0  0  0  0  0  0  0  0  0  0
   -4.7100   22.3970  -30.5000 C   0  0  0  0  0  0  0  0  0  0  0  0
   -4.1510   20.8640  -30.9170 S   0  0  0  0  0  0  0  0  0  0  0  0
   -4.5730   23.0600  -29.1650 C   0  0  0  0  0  0  0  0  0  0  0  0
   -4.9490   24.5490  -29.2550 C   0  0  0  0  0  0  0  0  0  0  0  0
   -6.2580   24.7490  -30.0410 C   0  0  0  0  0  0  0  0  0  0  0  0
   -6.1240   24.2510  -31.4920 C   0  0  0  0  0  0  0  0  0  0  0  0
   -4.1767   16.9286  -33.5398 H   0  0  0  0  0  0  0  0  0  0  0  0
   -4.8675   17.8764  -34.9003 H   0  0  0  0  0  0  0  0  0  0  0  0
   -3.1237   17.4452  -34.9003 H   0  0  0  0  0  0  0  0  0  0  0  0
   -3.2672   18.7790  -32.5313 H   0  0  0  0  0  0  0  0  0  0  0  0
   -2.9110   19.5825  -34.1100 H   0  0  0  0  0  0  0  0  0  0  0  0
   -6.3651   20.3448  -34.7726 H   0  0  0  0  0  0  0  0  0  0  0  0
   -5.9634   18.5938  -34.6579 H   0  0  0  0  0  0  0  0  0  0  0  0
   -8.1943   21.2945  -33.1789 H   0  0  0  0  0  0  0  0  0  0  0  0
   -9.7946   20.4901  -31.2851 H   0  0  0  0  0  0  0  0  0  0  0  0
   -9.2809   18.0368  -30.4751 H   0  0  0  0  0  0  0  0  0  0  0  0
   -6.1000   22.3000  -33.4930 H   0  0  0  0  0  0  0  0  0  0  0  0
   -5.2392   22.5624  -28.4449 H   0  0  0  0  0  0  0  0  0  0  0  0
   -3.5264   22.9793  -28.8363 H   0  0  0  0  0  0  0  0  0  0  0  0
   -5.0771   24.9483  -28.2381 H   0  0  0  0  0  0  0  0  0  0  0  0
   -4.1427   25.0794  -29.7827 H   0  0  0  0  0  0  0  0  0  0  0  0
   -7.0634   24.1889  -29.5434 H   0  0  0  0  0  0  0  0  0  0  0  0
   -6.4870   25.8247  -30.0640 H   0  0  0  0  0  0  0  0  0  0  0  0
   -7.1247   24.1930  -31.9450 H   0  0  0  0  0  0  0  0  0  0  0  0
   -5.4875   24.9577  -32.0447 H   0  0  0  0  0  0  0  0  0  0  0  0
  1  2  1  0
  2  3  1  0
  3  4  1  0
  4  5  1  0
  5  6  2  0
  6  7  1  0
  7  8  2  0
  8  9  1  0
  3 10  1  0
 10 11  2  0
 11 12  1  0
 12 13  2  0
 13 14  1  0
 13 15  1  0
 15 16  1  0
 16 17  1  0
 17 18  1  0
  9  5  1  0
 14 10  1  0
 18 12  1  0
  1 19  1  0
  1 20  1  0
  1 21  1  0
  2 22  1  0
  2 23  1  0
  4 24  1  0
  4 25  1  0
  6 26  1  0
  7 27  1  0
  8 28  1  0
 11 29  1  0
 15 30  1  0
 15 31  1  0
 16 32  1  0
 16 33  1  0
 17 34  1  0
 17 35  1  0
 18 36  1  0
 18 37  1  0
M  CHG  1  11   1
M  END
>  <UniqueID>  (4) 
3

>  <SMILES>  (4) 
CCN(Cc1cccs1)c1[nH+]c2c(s1)CCCC2

>  <Energy>  (4) 
90.67681271072829

>  <Genealogy>  (4) 
CCN(Cc1cccs1)c1[nH+]c2c(s1)CCCC2 (protonated)
CCN(Cc1cccs1)c1[nH+]c2c(s1)CCCC2 (3D coordinates assigned)
CCN(Cc1cccs1)c1[nH+]c2c(s1)CCCC2 (nonaromatic ring conformer: 90.67681271072829 kcal/mol)

>  <smiles>  (4) 
CCN(Cc1cccs1)c1nc2c(s1)CCCC2

>  <score_type>  (4) 
oracle

>  <origin>  (4) 
adg

>  <m_score__min__energy>  (4) 
-6.5999999999999996

>  <m_primary>  (4) 
energy

$$$$
4:0
     RDKit          3D

 32 34  0  0  0  0  0  0  0  0999 V2000
   -9.0830   19.7300  -32.2860 C   0  0  0  0  0  0  0  0  0  0  0  0
   -8.3140   18.5580  -32.0360 O   0  0  0  0  0  0  0  0  0  0  0  0
   -7.1410   18.2160  -32.7280 C   0  0  0  0  0  0  0  0  0  0  0  0
   -6.9880   16.9740  -33.3760 C   0  0  0  0  0  0  0  0  0  0  0  0
   -5.8050   16.6720  -34.0540 C   0  0  0  0  0  0  0  0  0  0  0  0
   -4.7600   17.5960  -34.0970 C   0  0  0  0  0  0  0  0  0  0  0  0
   -4.8950   18.8400  -33.4560 C   0  0  0  0  0  0  0  0  0  0  0  0
   -3.8760   19.8070  -33.4790 C   0  0  0  0  0  0  0  0  0  0  0  0
   -2.7930   19.5900  -34.0880 O   0  0  0  0  0  0  0  0  0  0  0  0
   -4.0710   21.0270  -32.8270 C   0  0  0  0  0  0  0  0  0  0  0  0
   -3.0850   22.0080  -32.8890 O   0  0  0  0  0  0  0  0  0  0  0  0
   -5.2820   21.2530  -32.1430 C   0  0  0  0  0  0  0  0  0  0  0  0
   -5.5540   22.5130  -31.4150 C   0  0  0  0  0  0  0  0  0  0  0  0
   -6.7990   22.6930  -30.7890 C   0  0  0  0  0  0  0  0  0  0  0  0
   -7.0710   23.8660  -30.0780 C   0  0  0  0  0  0  0  0  0  0  0  0
   -6.0970   24.8680  -29.9720 C   0  0  0  0  0  0  0  0  0  0  0  0
   -6.3630   26.0400  -29.2660 O   0  0  0  0  0  0  0  0  0  0  0  0
   -4.8470   24.6870  -30.5760 C   0  0  0  0  0  0  0  0  0  0  0  0
   -3.8700   25.6690  -30.4640 O   0  0  0  0  0  0  0  0  0  0  0  0
   -4.5750   23.5140  -31.2890 C   0  0  0  0  0  0  0  0  0  0  0  0
   -6.2300   20.3170  -32.1560 O   0  0  0  0  0  0  0  0  0  0  0  0
   -6.0920   19.1460  -32.7690 C   0  0  0  0  0  0  0  0  0  0  0  0
   -9.3809   20.1840  -31.3294 H   0  0  0  0  0  0  0  0  0  0  0  0
   -8.4802   20.4484  -32.8609 H   0  0  0  0  0  0  0  0  0  0  0  0
   -9.9820   19.4630  -32.8609 H   0  0  0  0  0  0  0  0  0  0  0  0
   -7.8051   16.2381  -33.3476 H   0  0  0  0  0  0  0  0  0  0  0  0
   -5.6962   15.6999  -34.5572 H   0  0  0  0  0  0  0  0  0  0  0  0
   -3.8308   17.3510  -34.6323 H   0  0  0  0  0  0  0  0  0  0  0  0
   -7.5646   21.9062  -30.8587 H   0  0  0  0  0  0  0  0  0  0  0  0
   -8.0525   24.0026  -29.6005 H   0  0  0  0  0  0  0  0  0  0  0  0
   -5.6240   26.6800  -29.0040 H   0  0  0  0  0  0  0  0  0  0  0  0
   -3.5881   23.3742  -31.7542 H   0  0  0  0  0  0  0  0  0  0  0  0
  1  2  1  0
  2  3  1  0
  3  4  2  0
  4  5  1  0
  5  6  2  0
  6  7  1  0
  7  8  1  0
  8  9  2  0
  8 10  1  0
 10 11  1  0
 10 12  2  0
 12 13  1  0
 13 14  2  0
 14 15  1  0
 15 16  2  0
 16 17  1  0
 16 18  1  0
 18 19  1  0
 18 20  2  0
 12 21  1  0
 21 22  1  0
 22  3  1  0
 22  7  2  0
 20 13  1  0
  1 23  1  0
  1 24  1  0
  1 25  1  0
  4 26  1  0
  5 27  1  0
  6 28  1  0
 14 29  1  0
 15 30  1  0
 17 31  1  0
 20 32  1  0
M  CHG  2  11  -1  19  -1
M  END
>  <UniqueID>  (5) 
4

>  <SMILES>  (5) 
COc1cccc2c(=O)c([O-])c(-c3ccc(O)c([O-])c3)oc12

>  <Energy>  (5) 
45.36139887577672

>  <Genealogy>  (5) 
COc1cccc2c(=O)c([O-])c(-c3ccc(O)c([O-])c3)oc12 (protonated)
COc1cccc2c(=O)c([O-])c(-c3ccc(O)c([O-])c3)oc12 (3D coordinates assigned)
COc1cccc2c(=O)c([O-])c(-c3ccc(O)c([O-])c3)oc12 (optimized conformer: 45.36139887577672 kcal/mol)

>  <smiles>  (5) 
COc1cccc2c(=O)c(O)c(-c3ccc(O)c(O)c3)oc12

>  <score_type>  (5) 
oracle

>  <origin>  (5) 
adg

>  <m_score__min__energy>  (5) 
-10.77

>  <m_primary>  (5) 
energy

$$$$
5:0
     RDKit          3D

 39 42  0  0  0  0  0  0  0  0999 V2000
   -3.7510   21.9080  -33.1990 C   0  0  0  0  0  0  0  0  0  0  0  0
   -2.8620   22.1070  -31.9780 C   0  0  0  0  0  0  0  0  0  0  0  0
   -3.3780   23.1420  -31.1390 O   0  0  0  0  0  0  0  0  0  0  0  0
   -3.0010   23.3880  -29.8060 C   0  0  0  0  0  0  0  0  0  0  0  0
   -1.6870   23.1700  -29.3430 C   0  0  0  0  0  0  0  0  0  0  0  0
   -1.3450   23.4660  -28.0220 C   0  0  0  0  0  0  0  0  0  0  0  0
   -2.3030   23.9820  -27.1480 C   0  0  0  0  0  0  0  0  0  0  0  0
   -3.6100   24.1910  -27.5900 C   0  0  0  0  0  0  0  0  0  0  0  0
   -3.9700   23.8780  -28.9090 C   0  0  0  0  0  0  0  0  0  0  0  0
   -5.3560   24.1110  -29.3430 C   0  0  0  0  0  0  0  0  0  0  0  0
   -5.9580   25.3200  -29.3330 N   0  0  0  0  0  0  0  0  0  0  0  0
   -7.0470   25.2450  -30.0920 N   0  0  0  0  0  0  0  0  0  0  0  0
   -7.1320   23.9530  -30.4700 C   0  0  0  0  0  0  0  0  0  0  0  0
   -6.1210   23.2380  -30.0170 N   0  0  0  0  0  0  0  0  0  0  0  0
   -5.7650   22.2200  -30.8920 N   0  0  0  0  0  0  0  0  0  0  0  0
   -6.6920   22.2220  -32.0250 C   0  0  1  0  0  0  0  0  0  0  0  0
   -7.4270   20.9170  -32.1010 C   0  0  0  0  0  0  0  0  0  0  0  0
   -6.8540   19.6540  -32.2130 C   0  0  0  0  0  0  0  0  0  0  0  0
   -7.7960   18.6190  -32.2020 C   0  0  0  0  0  0  0  0  0  0  0  0
   -9.1070   19.0590  -32.0700 C   0  0  0  0  0  0  0  0  0  0  0  0
   -9.0930   20.7370  -31.9650 S   0  0  0  0  0  0  0  0  0  0  0  0
   -7.6590   23.4230  -31.7590 C   0  0  0  0  0  0  0  0  0  0  0  0
   -4.7761   21.6785  -32.8727 H   0  0  0  0  0  0  0  0  0  0  0  0
   -3.7556   22.8273  -33.8030 H   0  0  0  0  0  0  0  0  0  0  0  0
   -3.3632   21.0744  -33.8030 H   0  0  0  0  0  0  0  0  0  0  0  0
   -2.8180   21.1679  -31.4069 H   0  0  0  0  0  0  0  0  0  0  0  0
   -1.8562   22.3960  -32.3170 H   0  0  0  0  0  0  0  0  0  0  0  0
   -0.9268   22.7643  -30.0267 H   0  0  0  0  0  0  0  0  0  0  0  0
   -0.3177   23.2920  -27.6692 H   0  0  0  0  0  0  0  0  0  0  0  0
   -2.0278   24.2239  -26.1108 H   0  0  0  0  0  0  0  0  0  0  0  0
   -4.3616   24.6032  -26.9007 H   0  0  0  0  0  0  0  0  0  0  0  0
   -5.5760   26.2050  -28.9340 H   0  0  0  0  0  0  0  0  0  0  0  0
   -4.9070   21.6310  -30.7990 H   0  0  0  0  0  0  0  0  0  0  0  0
   -6.1784   22.3345  -32.9912 H   0  0  0  0  0  0  0  0  0  0  0  0
   -5.7705   19.4860  -32.3012 H   0  0  0  0  0  0  0  0  0  0  0  0
   -7.5238   17.5568  -32.2896 H   0  0  0  0  0  0  0  0  0  0  0  0
  -10.0012   18.4191  -32.0394 H   0  0  0  0  0  0  0  0  0  0  0  0
   -7.5939   24.1754  -32.5588 H   0  0  0  0  0  0  0  0  0  0  0  0
   -8.7221   23.1424  -31.7260 H   0  0  0  0  0  0  0  0  0  0  0  0
  1  2  1  0
  2  3  1  0
  3  4  1  0
  4  5  2  0
  5  6  1  0
  6  7  2  0
  7  8  1  0
  8  9  2  0
  9 10  1  0
 10 11  2  0
 11 12  1  0
 12 13  2  0
 13 14  1  0
 14 15  1  0
 15 16  1  0
 16 17  1  0
 17 18  2  0
 18 19  1  0
 19 20  2  0
 20 21  1  0
 16 22  1  0
  9  4  1  0
 14 10  1  0
 21 17  1  0
 22 13  1  0
  1 23  1  0
  1 24  1  0
  1 25  1  0
  2 26  1  0
  2 27  1  0
  5 28  1  0
  6 29  1  0
  7 30  1  0
  8 31  1  0
 11 32  1  0
 15 33  1  0
 16 34  1  6
 18 35  1  0
 19 36  1  0
 20 37  1  0
 22 38  1  0
 22 39  1  0
M  CHG  1  11   1
M  END
>  <UniqueID>  (6) 
5

>  <SMILES>  (6) 
CCOc1ccccc1-c1[nH+]nc2n1N[C@@H](c1cccs1)C2

>  <Energy>  (6) 
141.15707185826594

>  <Genealogy>  (6) 
CCOc1ccccc1-c1[nH+]nc2n1NC(c1cccs1)C2 (protonated)
CCOc1ccccc1-c1[nH+]nc2n1N[C@@H](c1cccs1)C2 (chirality)
CCOc1ccccc1-c1[nH+]nc2n1N[C@@H](c1cccs1)C2 (3D coordinates assigned)
CCOc1ccccc1-c1[nH+]nc2n1N[C@@H](c1cccs1)C2 (nonaromatic ring conformer: 141.15707185826594 kcal/mol)

>  <smiles>  (6) 
CCOc1ccccc1-c1nnc2n1NC(c1cccs1)C2

>  <score_type>  (6) 
oracle

>  <origin>  (6) 
adg

>  <m_score__min__energy>  (6) 
-7.7699999999999996

>  <m_primary>  (6) 
energy

$$$$
6:0
     RDKit          3D

 49 50  0  0  0  0  0  0  0  0999 V2000
   -4.0469   24.9766  -27.1299 H   0  0  0  0  0  0  0  0  0  0  0  0
   -4.1730   24.2590  -27.9540 C   0  0  0  0  0  0  0  0  0  0  0  0
   -5.1110   24.4910  -28.8270 N   0  0  0  0  0  0  0  0  0  0  0  0
   -4.9410   24.7700  -30.2230 C   0  0  0  0  0  0  0  0  0  0  0  0
   -3.8690   25.3020  -30.6110 O   0  0  0  0  0  0  0  0  0  0  0  0
   -6.0480   24.5370  -31.2190 C   0  0  0  0  0  0  0  0  0  0  0  0
   -7.0093   24.7799  -30.7426 H   0  0  0  0  0  0  0  0  0  0  0  0
   -5.8574   25.1806  -32.0905 H   0  0  0  0  0  0  0  0  0  0  0  0
   -6.0930   23.1070  -31.7020 C   0  0  0  0  0  0  0  0  0  0  0  0
   -4.9530   22.5170  -32.2700 C   0  0  0  0  0  0  0  0  0  0  0  0
   -4.0194   23.0940  -32.3431 H   0  0  0  0  0  0  0  0  0  0  0  0
   -4.9940   21.2040  -32.7430 C   0  0  0  0  0  0  0  0  0  0  0  0
   -4.0860   20.7465  -33.1627 H   0  0  0  0  0  0  0  0  0  0  0  0
   -6.1870   20.4620  -32.6870 C   0  0  0  0  0  0  0  0  0  0  0  0
   -6.2310   19.1010  -33.1620 N   0  0  0  0  0  0  0  0  0  0  0  0
   -6.9860   18.0390  -32.6020 C   0  0  0  0  0  0  0  0  0  0  0  0
   -7.6340   18.1380  -31.5260 O   0  0  0  0  0  0  0  0  0  0  0  0
   -6.8650   16.7790  -33.3610 C   0  0  0  0  0  0  0  0  0  0  0  0
   -7.8526   16.4144  -33.6798 H   0  0  0  0  0  0  0  0  0  0  0  0
   -6.4238   15.9616  -32.7717 H   0  0  0  0  0  0  0  0  0  0  0  0
   -6.0090   17.1780  -34.5710 C   0  0  0  0  0  0  0  0  0  0  0  0
   -6.6217   17.1747  -35.4845 H   0  0  0  0  0  0  0  0  0  0  0  0
   -5.1811   16.4685  -34.7167 H   0  0  0  0  0  0  0  0  0  0  0  0
   -5.4750   18.5960  -34.2980 C   0  0  0  0  0  0  0  0  0  0  0  0
   -5.6319   19.2386  -35.1769 H   0  0  0  0  0  0  0  0  0  0  0  0
   -4.3951   18.5850  -34.0887 H   0  0  0  0  0  0  0  0  0  0  0  0
   -7.3320   21.0590  -32.1370 C   0  0  0  0  0  0  0  0  0  0  0  0
   -8.2699   20.4872  -32.0776 H   0  0  0  0  0  0  0  0  0  0  0  0
   -7.2910   22.3740  -31.6640 C   0  0  0  0  0  0  0  0  0  0  0  0
   -8.2027   22.8378  -31.2594 H   0  0  0  0  0  0  0  0  0  0  0  0
   -3.2470   23.0660  -28.0020 C   0  0  0  0  0  0  0  0  0  0  0  0
   -3.7526   22.2065  -27.5376 H   0  0  0  0  0  0  0  0  0  0  0  0
   -2.3273   23.3310  -27.4599 H   0  0  0  0  0  0  0  0  0  0  0  0
   -2.8680   22.7040  -29.3920 N   0  0  0  0  0  0  0  0  0  0  0  0
   -3.5030   23.2390  -30.0260 H   0  0  0  0  0  0  0  0  0  0  0  0
   -1.4880   23.1720  -29.6780 C   0  0  0  0  0  0  0  0  0  0  0  0
   -1.4861   23.6812  -30.6530 H   0  0  0  0  0  0  0  0  0  0  0  0
   -0.8343   22.2873  -29.6740 H   0  0  0  0  0  0  0  0  0  0  0  0
   -0.9500   24.1430  -28.6190 C   0  0  0  0  0  0  0  0  0  0  0  0
   -1.1684   23.7489  -27.6155 H   0  0  0  0  0  0  0  0  0  0  0  0
    0.1377   24.2529  -28.7411 H   0  0  0  0  0  0  0  0  0  0  0  0
   -1.4336   25.1234  -28.7411 H   0  0  0  0  0  0  0  0  0  0  0  0
   -3.0890   21.2620  -29.6990 C   0  0  0  0  0  0  0  0  0  0  0  0
   -2.8529   20.6815  -28.7949 H   0  0  0  0  0  0  0  0  0  0  0  0
   -4.1388   21.1747  -30.0156 H   0  0  0  0  0  0  0  0  0  0  0  0
   -2.2470   20.7030  -30.8560 C   0  0  0  0  0  0  0  0  0  0  0  0
   -1.3953   20.1376  -30.4499 H   0  0  0  0  0  0  0  0  0  0  0  0
   -2.8682   20.0373  -31.4733 H   0  0  0  0  0  0  0  0  0  0  0  0
   -1.8746   21.5338  -31.4733 H   0  0  0  0  0  0  0  0  0  0  0  0
  1  2  1  0
  2  3  2  0
  3  4  1  0
  4  5  2  0
  4  6  1  0
  6  7  1  0
  6  8  1  0
  6  9  1  0
  9 10  2  0
 10 11  1  0
 10 12  1  0
 12 13  1  0
 12 14  2  0
 14 15  1  0
 15 16  1  0
 16 17  2  0
 16 18  1  0
 18 19  1  0
 18 20  1  0
 18 21  1  0
 21 22  1  0
 21 23  1  0
 21 24  1  0
 24 25  1  0
 24 26  1  0
 14 27  1  0
 27 28  1  0
 27 29  2  0
 29 30  1  0
  2 31  1  0
 31 32  1  0
 31 33  1  0
 31 34  1  0
 34 35  1  0
 34 36  1  0
 36 37  1  0
 36 38  1  0
 36 39  1  0
 39 40  1  0
 39 41  1  0
 39 42  1  0
 34 43  1  0
 43 44  1  0
 43 45  1  0
 43 46  1  0
 46 47  1  0
 46 48  1  0
 46 49  1  0
 29  9  1  0
 24 15  1  0
M  CHG  1  34   1
M  END
>  <UniqueID>  (7) 
6

>  <SMILES>  (7) 
CC[NH+](CC)C/C=N\C(=O)Cc1ccc(N2CCCC2=O)cc1

>  <Energy>  (7) 
68.64827039127431

>  <Genealogy>  (7) 
CC[NH+](CC)CC=NC(=O)Cc1ccc(N2CCCC2=O)cc1 (protonated)
CC[NH+](CC)C/C=N\C(=O)Cc1ccc(N2CCCC2=O)cc1 (cis-trans isomerization)
CC[NH+](CC)C/C=N\C(=O)Cc1ccc(N2CCCC2=O)cc1 (3D coordinates assigned)
CC[NH+](CC)C/C=N\C(=O)Cc1ccc(N2CCCC2=O)cc1 (nonaromatic ring conformer: 68.64827039127431 kcal/mol)

>  <smiles>  (7) 
CCN(CC)CC=NC(=O)Cc1ccc(N2CCCC2=O)cc1

>  <score_type>  (7) 
oracle

>  <origin>  (7) 
adg

>  <m_score__min__energy>  (7) 
-6.8799999999999999

>  <m_primary>  (7) 
energy

$$$$
7:0
     RDKit          3D

 45 46  0  0  0  0  0  0  0  0999 V2000
   -1.2170   26.0860  -27.9650 C   0  0  0  0  0  0  0  0  0  0  0  0
   -1.9110   25.4680  -29.0450 O   0  0  0  0  0  0  0  0  0  0  0  0
   -1.8720   24.0960  -29.3400 C   0  0  0  0  0  0  0  0  0  0  0  0
   -0.7730   23.2990  -28.9650 C   0  0  0  0  0  0  0  0  0  0  0  0
   -0.7330   21.9440  -29.2980 C   0  0  0  0  0  0  0  0  0  0  0  0
   -1.7730   21.3670  -30.0220 C   0  0  0  0  0  0  0  0  0  0  0  0
   -2.8790   22.1360  -30.3840 C   0  0  0  0  0  0  0  0  0  0  0  0
   -2.9560   23.4970  -30.0270 C   0  0  0  0  0  0  0  0  0  0  0  0
   -4.2160   24.2780  -30.3970 C   0  0  2  0  0  0  0  0  0  0  0  0
   -3.8820   25.5660  -30.8570 O   0  0  0  0  0  0  0  0  0  0  0  0
   -5.2460   24.3390  -29.2320 C   0  0  0  0  0  0  0  0  0  0  0  0
   -6.6210   24.5920  -29.6980 N   0  0  0  0  0  0  0  0  0  0  0  0
   -6.8920   24.1070  -31.0670 C   0  0  0  0  0  0  0  0  0  0  0  0
   -7.3150   22.6340  -31.0930 C   0  0  0  0  0  0  0  0  0  0  0  0
   -6.2000   21.8130  -31.4290 O   0  0  0  0  0  0  0  0  0  0  0  0
   -6.2890   20.5710  -32.0760 C   0  0  0  0  0  0  0  0  0  0  0  0
   -7.3880   19.7080  -31.8830 C   0  0  0  0  0  0  0  0  0  0  0  0
   -7.4490   18.4800  -32.5510 C   0  0  0  0  0  0  0  0  0  0  0  0
   -6.4030   18.0840  -33.3880 C   0  0  0  0  0  0  0  0  0  0  0  0
   -6.4890   16.5420  -34.2210 Cl  0  0  0  0  0  0  0  0  0  0  0  0
   -5.3010   18.9190  -33.5680 C   0  0  0  0  0  0  0  0  0  0  0  0
   -5.2470   20.1750  -32.9420 C   0  0  0  0  0  0  0  0  0  0  0  0
   -4.0680   21.0750  -33.1800 C   0  0  0  0  0  0  0  0  0  0  0  0
   -1.6255   25.7222  -27.0106 H   0  0  0  0  0  0  0  0  0  0  0  0
   -0.1476   25.8357  -28.0253 H   0  0  0  0  0  0  0  0  0  0  0  0
   -1.3421   27.1772  -28.0253 H   0  0  0  0  0  0  0  0  0  0  0  0
    0.0606   23.7480  -28.4051 H   0  0  0  0  0  0  0  0  0  0  0  0
    0.1244   21.3290  -28.9869 H   0  0  0  0  0  0  0  0  0  0  0  0
   -1.7225   20.3061  -30.3081 H   0  0  0  0  0  0  0  0  0  0  0  0
   -3.6994   21.6754  -30.9539 H   0  0  0  0  0  0  0  0  0  0  0  0
   -4.7089   23.7323  -31.2151 H   0  0  0  0  0  0  0  0  0  0  0  0
   -2.8920   25.6590  -30.8310 H   0  0  0  0  0  0  0  0  0  0  0  0
   -5.2277   23.3786  -28.6961 H   0  0  0  0  0  0  0  0  0  0  0  0
   -4.9583   25.1762  -28.5791 H   0  0  0  0  0  0  0  0  0  0  0  0
   -7.3170   24.2400  -28.9930 H   0  0  0  0  0  0  0  0  0  0  0  0
   -7.6991   24.7139  -31.5033 H   0  0  0  0  0  0  0  0  0  0  0  0
   -5.9607   24.1983  -31.6452 H   0  0  0  0  0  0  0  0  0  0  0  0
   -7.6937   22.3461  -30.1012 H   0  0  0  0  0  0  0  0  0  0  0  0
   -8.1040   22.4980  -31.8473 H   0  0  0  0  0  0  0  0  0  0  0  0
   -8.2016   20.0020  -31.2036 H   0  0  0  0  0  0  0  0  0  0  0  0
   -8.3225   17.8250  -32.4168 H   0  0  0  0  0  0  0  0  0  0  0  0
   -4.4668   18.5912  -34.2057 H   0  0  0  0  0  0  0  0  0  0  0  0
   -3.6496   21.3944  -32.2141 H   0  0  0  0  0  0  0  0  0  0  0  0
   -3.3006   20.5309  -33.7501 H   0  0  0  0  0  0  0  0  0  0  0  0
   -4.3905   21.9587  -33.7501 H   0  0  0  0  0  0  0  0  0  0  0  0
  1  2  1  0
  2  3  1  0
  3  4  2  0
  4  5  1  0
  5  6  2  0
  6  7  1  0
  7  8  2  0
  8  9  1  0
  9 10  1  0
  9 11  1  0
 11 12  1  0
 12 13  1  0
 13 14  1  0
 14 15  1  0
 15 16  1  0
 16 17  2  0
 17 18  1  0
 18 19  2  0
 19 20  1  0
 19 21  1  0
 21 22  2  0
 22 23  1  0
  8  3  1  0
 22 16  1  0
  1 24  1  0
  1 25  1  0
  1 26  1  0
  4 27  1  0
  5 28  1  0
  6 29  1  0
  7 30  1  0
  9 31  1  6
 10 32  1  0
 11 33  1  0
 11 34  1  0
 12 35  1  0
 13 36  1  0
 13 37  1  0
 14 38  1  0
 14 39  1  0
 17 40  1  0
 18 41  1  0
 21 42  1  0
 23 43  1  0
 23 44  1  0
 23 45  1  0
M  END
>  <UniqueID>  (8) 
7

>  <SMILES>  (8) 
COc1ccccc1[C@H](O)CNCCOc1ccc(Cl)cc1C

>  <Energy>  (8) 
49.16952313847892

>  <Genealogy>  (8) 
COc1ccccc1[C@H](O)CNCCOc1ccc(Cl)cc1C (chirality)
COc1ccccc1[C@H](O)CNCCOc1ccc(Cl)cc1C (3D coordinates assigned)
COc1ccccc1[C@H](O)CNCCOc1ccc(Cl)cc1C (optimized conformer: 49.16952313847892 kcal/mol)

>  <smiles>  (8) 
COc1ccccc1C(O)CNCCOc1ccc(Cl)cc1C

>  <score_type>  (8) 
oracle

>  <origin>  (8) 
adg

>  <m_score__min__energy>  (8) 
-8.6799999999999997

>  <m_primary>  (8) 
energy

$$$$
8:0
     RDKit          3D

 51 54  0  0  0  0  0  0  0  0999 V2000
   -4.0370   24.2700  -27.2770 C   0  0  0  0  0  0  0  0  0  0  0  0
   -3.4840   23.0460  -28.0230 C   0  0  0  0  0  0  0  0  0  0  0  0
   -3.3960   23.2200  -29.4950 N   0  0  0  0  0  0  0  0  0  0  0  0
   -2.0960   22.8080  -30.0730 C   0  0  0  0  0  0  0  0  0  0  0  0
   -2.2690   21.7330  -31.1460 C   0  0  0  0  0  0  0  0  0  0  0  0
   -4.5340   22.5890  -30.2020 C   0  0  0  0  0  0  0  0  0  0  0  0
   -5.7390   23.5390  -30.2160 C   0  0  0  0  0  0  0  0  0  0  0  0
   -5.8710   24.2850  -31.5480 C   0  0  0  0  0  0  0  0  0  0  0  0
   -6.6190   23.4870  -32.5200 N   0  0  0  0  0  0  0  0  0  0  0  0
   -7.2340   22.2330  -32.1820 C   0  0  0  0  0  0  0  0  0  0  0  0
   -8.5300   22.2240  -31.5780 C   0  0  0  0  0  0  0  0  0  0  0  0
   -9.2000   21.0130  -31.2940 C   0  0  0  0  0  0  0  0  0  0  0  0
   -8.5520   19.8310  -31.6300 C   0  0  0  0  0  0  0  0  0  0  0  0
   -8.9470   18.5520  -31.4730 N   0  0  0  0  0  0  0  0  0  0  0  0
   -7.9120   17.8130  -31.9630 C   0  0  0  0  0  0  0  0  0  0  0  0
   -6.9020   18.6030  -32.4120 N   0  0  0  0  0  0  0  0  0  0  0  0
   -5.6830   18.3440  -32.9580 C   0  0  0  0  0  0  0  0  0  0  0  0
   -5.2320   17.0350  -33.1900 C   0  0  0  0  0  0  0  0  0  0  0  0
   -3.9690   16.8190  -33.7460 C   0  0  0  0  0  0  0  0  0  0  0  0
   -3.1470   17.9000  -34.0720 C   0  0  0  0  0  0  0  0  0  0  0  0
   -3.5790   19.2100  -33.8470 C   0  0  0  0  0  0  0  0  0  0  0  0
   -4.8490   19.4560  -33.2910 C   0  0  0  0  0  0  0  0  0  0  0  0
   -5.3130   20.7860  -33.0460 C   0  0  0  0  0  0  0  0  0  0  0  0
   -4.5630   21.7670  -33.3000 O   0  0  0  0  0  0  0  0  0  0  0  0
   -6.6060   20.9890  -32.4960 C   0  0  0  0  0  0  0  0  0  0  0  0
   -7.3260   19.8450  -32.1980 C   0  0  0  0  0  0  0  0  0  0  0  0
   -3.9616   24.1032  -26.1923 H   0  0  0  0  0  0  0  0  0  0  0  0
   -3.4542   25.1614  -27.5523 H   0  0  0  0  0  0  0  0  0  0  0  0
   -5.0911   24.4218  -27.5523 H   0  0  0  0  0  0  0  0  0  0  0  0
   -2.4749   22.8349  -27.6395 H   0  0  0  0  0  0  0  0  0  0  0  0
   -4.1889   22.2208  -27.8434 H   0  0  0  0  0  0  0  0  0  0  0  0
   -1.6119   23.6869  -30.5238 H   0  0  0  0  0  0  0  0  0  0  0  0
   -1.4789   22.3890  -29.2645 H   0  0  0  0  0  0  0  0  0  0  0  0
   -2.4262   20.7565  -30.6647 H   0  0  0  0  0  0  0  0  0  0  0  0
   -3.1394   21.9772  -31.7727 H   0  0  0  0  0  0  0  0  0  0  0  0
   -1.3659   21.6918  -31.7727 H   0  0  0  0  0  0  0  0  0  0  0  0
   -4.2382   22.3614  -31.2368 H   0  0  0  0  0  0  0  0  0  0  0  0
   -4.8127   21.6620  -29.6796 H   0  0  0  0  0  0  0  0  0  0  0  0
   -6.6543   22.9531  -30.0456 H   0  0  0  0  0  0  0  0  0  0  0  0
   -5.5895   24.2866  -29.4230 H   0  0  0  0  0  0  0  0  0  0  0  0
   -6.3996   25.2347  -31.3784 H   0  0  0  0  0  0  0  0  0  0  0  0
   -4.8635   24.4729  -31.9476 H   0  0  0  0  0  0  0  0  0  0  0  0
   -6.6220   23.8060  -33.5140 H   0  0  0  0  0  0  0  0  0  0  0  0
   -9.0152   23.1794  -31.3294 H   0  0  0  0  0  0  0  0  0  0  0  0
  -10.1952   21.0063  -30.8255 H   0  0  0  0  0  0  0  0  0  0  0  0
   -9.8410   18.2030  -31.0620 H   0  0  0  0  0  0  0  0  0  0  0  0
   -7.8963   16.7135  -31.9914 H   0  0  0  0  0  0  0  0  0  0  0  0
   -5.8736   16.1790  -32.9338 H   0  0  0  0  0  0  0  0  0  0  0  0
   -3.6199   15.7919  -33.9281 H   0  0  0  0  0  0  0  0  0  0  0  0
   -2.1536   17.7193  -34.5085 H   0  0  0  0  0  0  0  0  0  0  0  0
   -2.9228   20.0540  -34.1059 H   0  0  0  0  0  0  0  0  0  0  0  0
  1  2  1  0
  2  3  1  0
  3  4  1  0
  4  5  1  0
  3  6  1  0
  6  7  1  0
  7  8  1  0
  8  9  1  0
  9 10  1  0
 10 11  2  0
 11 12  1  0
 12 13  2  0
 13 14  1  0
 14 15  2  0
 15 16  1  0
 16 17  1  0
 17 18  2  0
 18 19  1  0
 19 20  2  0
 20 21  1  0
 21 22  2  0
 22 23  1  0
 23 24  2  0
 23 25  1  0
 25 26  2  0
 25 10  1  0
 26 13  1  0
 26 16  1  0
 22 17  1  0
  1 27  1  0
  1 28  1  0
  1 29  1  0
  2 30  1  0
  2 31  1  0
  4 32  1  0
  4 33  1  0
  5 34  1  0
  5 35  1  0
  5 36  1  0
  6 37  1  0
  6 38  1  0
  7 39  1  0
  7 40  1  0
  8 41  1  0
  8 42  1  0
  9 43  1  0
 11 44  1  0
 12 45  1  0
 14 46  1  0
 15 47  1  0
 18 48  1  0
 19 49  1  0
 20 50  1  0
 21 51  1  0
M  CHG  1  14   1
M  END
>  <UniqueID>  (9) 
8

>  <SMILES>  (9) 
CCN(CC)CCCNc1ccc2[nH+]cn3c4ccccc4c(=O)c1c23

>  <Energy>  (9) 
113.47976793585835

>  <Genealogy>  (9) 
CCN(CC)CCCNc1ccc2[nH+]cn3c4ccccc4c(=O)c1c23 (protonated)
CCN(CC)CCCNc1ccc2[nH+]cn3c4ccccc4c(=O)c1c23 (3D coordinates assigned)
CCN(CC)CCCNc1ccc2[nH+]cn3c4ccccc4c(=O)c1c23 (optimized conformer: 113.47976793585835 kcal/mol)

>  <smiles>  (9) 
CCN(CC)CCCNc1ccc2ncn3c4ccccc4c(=O)c1c23

>  <score_type>  (9) 
oracle

>  <origin>  (9) 
adg

>  <m_score__min__energy>  (9) 
-7.9699999999999998

>  <m_primary>  (9) 
energy

$$$$
9:0
     RDKit          3D

 65 69  0  0  0  0  0  0  0  0999 V2000
   -2.4096   20.8693  -32.4677 H   0  0  0  0  0  0  0  0  0  0  0  0
   -3.3870   20.3650  -32.4480 C   0  0  0  0  0  0  0  0  0  0  0  0
   -3.8740   19.7440  -33.6010 C   0  0  0  0  0  0  0  0  0  0  0  0
   -3.2867   19.7786  -34.5304 H   0  0  0  0  0  0  0  0  0  0  0  0
   -5.1090   19.0760  -33.5800 C   0  0  0  0  0  0  0  0  0  0  0  0
   -5.6800   18.4840  -34.8440 C   0  0  0  0  0  0  0  0  0  0  0  0
   -6.4097   19.1880  -35.2705 H   0  0  0  0  0  0  0  0  0  0  0  0
   -4.8521   18.3049  -35.5458 H   0  0  0  0  0  0  0  0  0  0  0  0
   -6.3800   17.1430  -34.5720 C   0  0  0  0  0  0  0  0  0  0  0  0
   -7.1000   17.2764  -33.7512 H   0  0  0  0  0  0  0  0  0  0  0  0
   -6.8894   16.8278  -35.4946 H   0  0  0  0  0  0  0  0  0  0  0  0
   -5.4120   16.0890  -34.1950 N   0  0  0  0  0  0  0  0  0  0  0  0
   -5.3580   15.9200  -32.7340 C   0  0  0  0  0  0  0  0  0  0  0  0
   -4.8835   16.8041  -32.2833 H   0  0  0  0  0  0  0  0  0  0  0  0
   -6.3816   15.8052  -32.3479 H   0  0  0  0  0  0  0  0  0  0  0  0
   -4.5400   14.6630  -32.3730 C   0  0  0  0  0  0  0  0  0  0  0  0
   -4.0167   14.8484  -31.4234 H   0  0  0  0  0  0  0  0  0  0  0  0
   -5.2482   13.8244  -32.3007 H   0  0  0  0  0  0  0  0  0  0  0  0
   -3.5360   14.3000  -33.3990 N   0  0  0  0  0  0  0  0  0  0  0  0
   -4.0500   13.3080  -34.3600 C   0  0  0  0  0  0  0  0  0  0  0  0
   -4.4890   12.4607  -33.8129 H   0  0  0  0  0  0  0  0  0  0  0  0
   -4.8198   13.7746  -34.9922 H   0  0  0  0  0  0  0  0  0  0  0  0
   -3.2249   12.9482  -34.9922 H   0  0  0  0  0  0  0  0  0  0  0  0
   -2.9750   15.4900  -34.0710 C   0  0  0  0  0  0  0  0  0  0  0  0
   -2.4369   16.0942  -33.3258 H   0  0  0  0  0  0  0  0  0  0  0  0
   -2.3047   15.1366  -34.8683 H   0  0  0  0  0  0  0  0  0  0  0  0
   -4.0620   16.3700  -34.7300 C   0  0  0  0  0  0  0  0  0  0  0  0
   -3.8212   17.4273  -34.5452 H   0  0  0  0  0  0  0  0  0  0  0  0
   -4.0724   16.1426  -35.8062 H   0  0  0  0  0  0  0  0  0  0  0  0
   -5.8340   19.0090  -32.3790 C   0  0  0  0  0  0  0  0  0  0  0  0
   -6.7894   18.4649  -32.3452 H   0  0  0  0  0  0  0  0  0  0  0  0
   -5.3460   19.6310  -31.2270 C   0  0  0  0  0  0  0  0  0  0  0  0
   -5.9089   19.5595  -30.2847 H   0  0  0  0  0  0  0  0  0  0  0  0
   -4.1390   20.3470  -31.2690 C   0  0  0  0  0  0  0  0  0  0  0  0
   -3.6240   20.9860  -30.0940 N   0  0  0  0  0  0  0  0  0  0  0  0
   -3.4590   22.2600  -29.8280 C   0  0  0  0  0  0  0  0  0  0  0  0
   -2.2510   22.8210  -29.2980 C   0  0  0  0  0  0  0  0  0  0  0  0
   -1.2450   22.0660  -28.6510 C   0  0  0  0  0  0  0  0  0  0  0  0
   -1.3934   20.9873  -28.4947 H   0  0  0  0  0  0  0  0  0  0  0  0
   -0.0670   22.6690  -28.2080 C   0  0  0  0  0  0  0  0  0  0  0  0
    0.7205   22.0520  -27.7508 H   0  0  0  0  0  0  0  0  0  0  0  0
    0.1240   24.0450  -28.3380 C   0  0  0  0  0  0  0  0  0  0  0  0
    1.3350   24.5950  -27.8920 O   0  0  0  0  0  0  0  0  0  0  0  0
    1.4950   25.2950  -26.6620 C   0  0  0  0  0  0  0  0  0  0  0  0
    1.3366   24.6021  -25.8225 H   0  0  0  0  0  0  0  0  0  0  0  0
    2.5115   25.7116  -26.6068 H   0  0  0  0  0  0  0  0  0  0  0  0
    0.7604   26.1119  -26.6068 H   0  0  0  0  0  0  0  0  0  0  0  0
   -0.9070   24.8280  -28.8820 C   0  0  0  0  0  0  0  0  0  0  0  0
   -0.7806   25.9177  -28.9631 H   0  0  0  0  0  0  0  0  0  0  0  0
   -2.0950   24.2310  -29.3220 C   0  0  0  0  0  0  0  0  0  0  0  0
   -3.1150   25.0280  -29.7210 N   0  0  0  0  0  0  0  0  0  0  0  0
   -4.3190   24.5310  -30.0950 C   0  0  0  0  0  0  0  0  0  0  0  0
   -5.3440   25.4130  -30.4510 C   0  0  0  0  0  0  0  0  0  0  0  0
   -5.1680   26.4983  -30.4187 H   0  0  0  0  0  0  0  0  0  0  0  0
   -6.5890   24.9230  -30.8470 C   0  0  0  0  0  0  0  0  0  0  0  0
   -7.3922   25.6237  -31.1188 H   0  0  0  0  0  0  0  0  0  0  0  0
   -6.8210   23.5380  -30.9000 C   0  0  0  0  0  0  0  0  0  0  0  0
   -8.0560   22.9980  -31.2940 O   0  0  0  0  0  0  0  0  0  0  0  0
   -8.2270   21.6910  -31.8330 C   0  0  0  0  0  0  0  0  0  0  0  0
   -8.3220   20.9653  -31.0118 H   0  0  0  0  0  0  0  0  0  0  0  0
   -9.1361   21.6656  -32.4517 H   0  0  0  0  0  0  0  0  0  0  0  0
   -7.3550   21.4326  -32.4517 H   0  0  0  0  0  0  0  0  0  0  0  0
   -5.7920   22.6560  -30.5520 C   0  0  0  0  0  0  0  0  0  0  0  0
   -5.9694   21.5715  -30.6016 H   0  0  0  0  0  0  0  0  0  0  0  0
   -4.5290   23.1350  -30.1380 C   0  0  0  0  0  0  0  0  0  0  0  0
  1  2  1  0
  2  3  2  0
  3  4  1  0
  3  5  1  0
  5  6  1  0
  6  7  1  0
  6  8  1  0
  6  9  1  0
  9 10  1  0
  9 11  1  0
  9 12  1  0
 12 13  1  0
 13 14  1  0
 13 15  1  0
 13 16  1  0
 16 17  1  0
 16 18  1  0
 16 19  1  0
 19 20  1  0
 20 21  1  0
 20 22  1  0
 20 23  1  0
 19 24  1  0
 24 25  1  0
 24 26  1  0
 24 27  1  0
 27 28  1  0
 27 29  1  0
  5 30  2  0
 30 31  1  0
 30 32  1  0
 32 33  1  0
 32 34  2  0
 34 35  1  0
 35 36  2  0
 36 37  1  0
 37 38  2  0
 38 39  1  0
 38 40  1  0
 40 41  1  0
 40 42  2  0
 42 43  1  0
 43 44  1  0
 44 45  1  0
 44 46  1  0
 44 47  1  0
 42 48  1  0
 48 49  1  0
 48 50  2  0
 50 51  1  0
 51 52  1  0
 52 53  2  0
 53 54  1  0
 53 55  1  0
 55 56  1  0
 55 57  2  0
 57 58  1  0
 58 59  1  0
 59 60  1  0
 59 61  1  0
 59 62  1  0
 57 63  1  0
 63 64  1  0
 63 65  2  0
 34  2  1  0
 65 36  1  0
 27 12  1  0
 50 37  1  0
 65 52  1  0
M  CHG  1  51  -1
M  END
>  <UniqueID>  (10) 
9

>  <SMILES>  (10) 
COc1ccc2/c(=N\c3ccc(CCN4CCN(C)CC4)cc3)c3cc(OC)ccc3[n-]c2c1

>  <Energy>  (10) 
103.067204175791

>  <Genealogy>  (10) 
COc1ccc2c(=Nc3ccc(CCN4CCN(C)CC4)cc3)c3cc(OC)ccc3[n-]c2c1 (protonated)
COc1ccc2/c(=N\c3ccc(CCN4CCN(C)CC4)cc3)c3cc(OC)ccc3[n-]c2c1 (cis-trans isomerization)
COc1ccc2/c(=N\c3ccc(CCN4CCN(C)CC4)cc3)c3cc(OC)ccc3[n-]c2c1 (3D coordinates assigned)
COc1ccc2/c(=N\c3ccc(CCN4CCN(C)CC4)cc3)c3cc(OC)ccc3[n-]c2c1 (nonaromatic ring conformer: 103.067204175791 kcal/mol)

>  <smiles>  (10) 
COc1ccc2c(=Nc3ccc(CCN4CCN(C)CC4)cc3)c3cc(OC)ccc3[nH]c2c1

>  <score_type>  (10) 
oracle

>  <origin>  (10) 
adg

>  <m_score__min__energy>  (10) 
-10.140000000000001

>  <m_primary>  (10) 
energy

$$$$
10:0
     RDKit          3D

 44 46  0  0  0  0  0  0  0  0999 V2000
   -3.0480   16.2490  -35.7330 C   0  0  0  0  0  0  0  0  0  0  0  0
   -3.4320   16.8820  -34.4580 N   0  0  0  0  0  0  0  0  0  0  0  0
   -2.7180   18.1560  -34.2560 C   0  0  0  0  0  0  0  0  0  0  0  0
   -3.3680   15.9710  -33.2780 C   0  0  0  0  0  0  0  0  0  0  0  0
   -4.6930   15.2650  -32.8310 C   0  0  0  0  0  0  0  0  0  0  0  0
   -5.7170   15.2550  -34.0060 C   0  0  0  0  0  0  0  0  0  0  0  0
   -6.7740   16.3750  -33.9220 C   0  0  0  0  0  0  0  0  0  0  0  0
   -6.2500   17.5360  -33.1920 N   0  0  0  0  0  0  0  0  0  0  0  0
   -5.9980   18.7770  -33.8820 C   0  0  0  0  0  0  0  0  0  0  0  0
   -5.7470   18.7590  -35.1180 O   0  0  0  0  0  0  0  0  0  0  0  0
   -6.0390   20.0750  -33.1750 C   0  0  0  0  0  0  0  0  0  0  0  0
   -4.7190   21.1240  -33.0220 S   0  0  0  0  0  0  0  0  0  0  0  0
   -5.5230   22.2580  -32.0860 C   0  0  0  0  0  0  0  0  0  0  0  0
   -5.0250   23.4510  -31.5680 C   0  0  0  0  0  0  0  0  0  0  0  0
   -5.8850   24.2490  -30.8000 C   0  0  0  0  0  0  0  0  0  0  0  0
   -7.2130   23.8430  -30.5660 C   0  0  0  0  0  0  0  0  0  0  0  0
   -7.6930   22.6350  -31.1000 C   0  0  0  0  0  0  0  0  0  0  0  0
   -6.8280   21.8410  -31.8650 C   0  0  0  0  0  0  0  0  0  0  0  0
   -7.1300   20.6100  -32.4710 C   0  0  0  0  0  0  0  0  0  0  0  0
   -8.8640   19.7900  -32.3750 Br  0  0  0  0  0  0  0  0  0  0  0  0
   -5.7760   17.3380  -31.8130 C   0  0  0  0  0  0  0  0  0  0  0  0
   -5.3570   15.8770  -31.5760 C   0  0  0  0  0  0  0  0  0  0  0  0
   -2.4873   15.3248  -35.5293 H   0  0  0  0  0  0  0  0  0  0  0  0
   -3.9530   16.0091  -36.3105 H   0  0  0  0  0  0  0  0  0  0  0  0
   -2.4172   16.9408  -36.3105 H   0  0  0  0  0  0  0  0  0  0  0  0
   -4.4420   17.1450  -34.5620 H   0  0  0  0  0  0  0  0  0  0  0  0
   -2.6099   18.3489  -33.1785 H   0  0  0  0  0  0  0  0  0  0  0  0
   -1.7222   18.0957  -34.7194 H   0  0  0  0  0  0  0  0  0  0  0  0
   -3.2892   18.9739  -34.7194 H   0  0  0  0  0  0  0  0  0  0  0  0
   -2.6378   15.1821  -33.5112 H   0  0  0  0  0  0  0  0  0  0  0  0
   -3.1037   16.6261  -32.4348 H   0  0  0  0  0  0  0  0  0  0  0  0
   -4.3999   14.2416  -32.5539 H   0  0  0  0  0  0  0  0  0  0  0  0
   -5.1632   15.3712  -34.9493 H   0  0  0  0  0  0  0  0  0  0  0  0
   -6.2587   14.2993  -33.9499 H   0  0  0  0  0  0  0  0  0  0  0  0
   -7.0518   16.6851  -34.9401 H   0  0  0  0  0  0  0  0  0  0  0  0
   -7.6529   15.9893  -33.3846 H   0  0  0  0  0  0  0  0  0  0  0  0
   -3.9858   23.7587  -31.7561 H   0  0  0  0  0  0  0  0  0  0  0  0
   -5.5204   25.1972  -30.3781 H   0  0  0  0  0  0  0  0  0  0  0  0
   -7.8791   24.4758  -29.9611 H   0  0  0  0  0  0  0  0  0  0  0  0
   -8.7309   22.3178  -30.9204 H   0  0  0  0  0  0  0  0  0  0  0  0
   -4.9113   17.9935  -31.6327 H   0  0  0  0  0  0  0  0  0  0  0  0
   -6.5969   17.5825  -31.1228 H   0  0  0  0  0  0  0  0  0  0  0  0
   -4.6422   15.8416  -30.7407 H   0  0  0  0  0  0  0  0  0  0  0  0
   -6.2601   15.2930  -31.3450 H   0  0  0  0  0  0  0  0  0  0  0  0
  1  2  1  0
  2  3  1  0
  2  4  1  0
  4  5  1  0
  5  6  1  0
  6  7  1  0
  7  8  1  0
  8  9  1  0
  9 10  2  0
  9 11  1  0
 11 12  1  0
 12 13  1  0
 13 14  2  0
 14 15  1  0
 15 16  2  0
 16 17  1  0
 17 18  2  0
 18 19  1  0
 19 20  1  0
  8 21  1  0
 21 22  1  0
 22  5  1  0
 19 11  2  0
 18 13  1  0
  1 23  1  0
  1 24  1  0
  1 25  1  0
  2 26  1  0
  3 27  1  0
  3 28  1  0
  3 29  1  0
  4 30  1  0
  4 31  1  0
  5 32  1  0
  6 33  1  0
  6 34  1  0
  7 35  1  0
  7 36  1  0
 14 37  1  0
 15 38  1  0
 16 39  1  0
 17 40  1  0
 21 41  1  0
 21 42  1  0
 22 43  1  0
 22 44  1  0
M  CHG  1   2   1
M  END
>  <UniqueID>  (11) 
10

>  <SMILES>  (11) 
C[NH+](C)CC1CCN(C(=O)c2sc3ccccc3c2Br)CC1

>  <Energy>  (11) 
92.3748495094273

>  <Genealogy>  (11) 
C[NH+](C)CC1CCN(C(=O)c2sc3ccccc3c2Br)CC1 (protonated)
C[NH+](C)CC1CCN(C(=O)c2sc3ccccc3c2Br)CC1 (3D coordinates assigned)
C[NH+](C)CC1CCN(C(=O)c2sc3ccccc3c2Br)CC1 (nonaromatic ring conformer: 92.3748495094273 kcal/mol)

>  <smiles>  (11) 
CN(C)CC1CCN(C(=O)c2sc3ccccc3c2Br)CC1

>  <score_type>  (11) 
oracle

>  <origin>  (11) 
adg

>  <m_score__min__energy>  (11) 
-7.7400000000000002

>  <m_primary>  (11) 
energy

$$$$
11:0
     RDKit          3D

 35 37  0  0  0  0  0  0  0  0999 V2000
   -0.0792   25.1248  -28.0795 H   0  0  0  0  0  0  0  0  0  0  0  0
   -1.0020   24.6430  -28.4350 C   0  0  0  0  0  0  0  0  0  0  0  0
   -1.8050   25.2960  -29.3180 N   0  0  0  0  0  0  0  0  0  0  0  0
   -2.9690   24.7280  -29.7070 C   0  0  0  0  0  0  0  0  0  0  0  0
   -3.8430   25.2960  -30.5050 O   0  0  0  0  0  0  0  0  0  0  0  0
   -4.8770   24.4950  -30.5510 C   0  0  0  0  0  0  0  0  0  0  0  0
   -6.0690   24.7290  -31.2340 C   0  0  0  0  0  0  0  0  0  0  0  0
   -6.1808   25.6011  -31.8950 H   0  0  0  0  0  0  0  0  0  0  0  0
   -7.1220   23.8200  -31.0540 C   0  0  0  0  0  0  0  0  0  0  0  0
   -8.0638   23.9563  -31.6057 H   0  0  0  0  0  0  0  0  0  0  0  0
   -6.9780   22.7340  -30.1700 C   0  0  0  0  0  0  0  0  0  0  0  0
   -7.8221   22.0476  -30.0076 H   0  0  0  0  0  0  0  0  0  0  0  0
   -5.7650   22.5190  -29.4930 C   0  0  0  0  0  0  0  0  0  0  0  0
   -5.6652   21.6983  -28.7674 H   0  0  0  0  0  0  0  0  0  0  0  0
   -4.6860   23.3710  -29.7610 C   0  0  0  0  0  0  0  0  0  0  0  0
   -3.3880   23.4850  -29.2470 C   0  0  0  0  0  0  0  0  0  0  0  0
   -2.5100   22.7120  -28.4370 C   0  0  0  0  0  0  0  0  0  0  0  0
   -2.5950   21.4250  -28.2250 N   0  0  0  0  0  0  0  0  0  0  0  0
   -1.8870   20.3060  -28.8290 C   0  0  0  0  0  0  0  0  0  0  0  0
   -0.9812   20.6720  -29.3346 H   0  0  0  0  0  0  0  0  0  0  0  0
   -2.5354   19.8095  -29.5659 H   0  0  0  0  0  0  0  0  0  0  0  0
   -1.4960   19.3120  -27.7290 C   0  0  0  0  0  0  0  0  0  0  0  0
   -0.3991   19.2866  -27.6508 H   0  0  0  0  0  0  0  0  0  0  0  0
   -1.9057   18.3296  -28.0066 H   0  0  0  0  0  0  0  0  0  0  0  0
   -2.0540   19.6730  -26.4160 N   0  0  0  0  0  0  0  0  0  0  0  0
   -2.6870   20.5010  -26.5240 H   0  0  0  0  0  0  0  0  0  0  0  0
   -2.8080   18.5690  -25.8070 C   0  0  0  0  0  0  0  0  0  0  0  0
   -2.8388   18.7057  -24.7160 H   0  0  0  0  0  0  0  0  0  0  0  0
   -2.3144   17.6157  -26.0468 H   0  0  0  0  0  0  0  0  0  0  0  0
   -4.2290   18.5520  -26.3550 C   0  0  0  0  0  0  0  0  0  0  0  0
   -4.9442   18.5434  -25.5193 H   0  0  0  0  0  0  0  0  0  0  0  0
   -4.3953   19.4482  -26.9707 H   0  0  0  0  0  0  0  0  0  0  0  0
   -4.3738   17.6521  -26.9707 H   0  0  0  0  0  0  0  0  0  0  0  0
   -1.3390   23.3590  -27.9720 C   0  0  0  0  0  0  0  0  0  0  0  0
   -0.1020   22.4590  -26.8150 Br  0  0  0  0  0  0  0  0  0  0  0  0
  1  2  1  0
  2  3  1  0
  3  4  1  0
  4  5  1  0
  5  6  1  0
  6  7  2  0
  7  8  1  0
  7  9  1  0
  9 10  1  0
  9 11  2  0
 11 12  1  0
 11 13  1  0
 13 14  1  0
 13 15  2  0
 15 16  1  0
 16 17  1  0
 17 18  2  0
 18 19  1  0
 19 20  1  0
 19 21  1  0
 19 22  1  0
 22 23  1  0
 22 24  1  0
 22 25  1  0
 25 26  1  0
 25 27  1  0
 27 28  1  0
 27 29  1  0
 27 30  1  0
 30 31  1  0
 30 32  1  0
 30 33  1  0
 17 34  1  0
 34 35  1  0
 34  2  2  0
 16  4  2  0
 15  6  1  0
M  CHG  1   3  -1
M  END
>  <UniqueID>  (12) 
11

>  <SMILES>  (12) 
CCNCC/N=c1/c(Br)c[n-]c2oc3ccccc3c12

>  <Energy>  (12) 
95.18165900683584

>  <Genealogy>  (12) 
CCNCCN=c1c(Br)c[n-]c2oc3ccccc3c12 (protonated)
CCNCC/N=c1/c(Br)c[n-]c2oc3ccccc3c12 (cis-trans isomerization)
CCNCC/N=c1/c(Br)c[n-]c2oc3ccccc3c12 (3D coordinates assigned)
CCNCC/N=c1/c(Br)c[n-]c2oc3ccccc3c12 (optimized conformer: 95.18165900683584 kcal/mol)

>  <smiles>  (12) 
CCNCCN=c1c(Br)c[nH]c2oc3ccccc3c12

>  <score_type>  (12) 
oracle

>  <origin>  (12) 
adg

>  <m_score__min__energy>  (12) 
-8.7200000000000006

>  <m_primary>  (12) 
energy

$$$$
12:0
     RDKit          3D

 52 54  0  0  0  0  0  0  0  0999 V2000
   -0.4970   27.6460  -27.4590 C   0  0  0  0  0  0  0  0  0  0  0  0
   -0.8080   26.4350  -28.1370 O   0  0  0  0  0  0  0  0  0  0  0  0
   -0.5020   25.1700  -27.6210 C   0  0  0  0  0  0  0  0  0  0  0  0
    0.6670   24.5540  -27.9630 N   0  0  0  0  0  0  0  0  0  0  0  0
    0.9970   23.3230  -27.4940 C   0  0  0  0  0  0  0  0  0  0  0  0
    0.1280   22.6460  -26.6380 C   0  0  0  0  0  0  0  0  0  0  0  0
   -1.0760   23.2470  -26.2710 C   0  0  0  0  0  0  0  0  0  0  0  0
   -1.4030   24.5230  -26.7540 C   0  0  0  0  0  0  0  0  0  0  0  0
   -2.7220   25.1490  -26.3730 C   0  0  0  0  0  0  0  0  0  0  0  0
   -3.8180   24.5920  -27.1810 N   0  0  0  0  0  0  0  0  0  0  0  0
   -3.3620   24.0620  -28.4820 C   0  0  1  0  0  0  0  0  0  0  0  0
   -3.1640   22.5400  -28.3710 C   0  0  0  0  0  0  0  0  0  0  0  0
   -2.6340   21.9440  -29.6510 C   0  0  0  0  0  0  0  0  0  0  0  0
   -1.3080   22.1610  -30.0500 C   0  0  0  0  0  0  0  0  0  0  0  0
   -0.8280   21.5820  -31.2250 C   0  0  0  0  0  0  0  0  0  0  0  0
   -1.6770   20.7800  -31.9900 C   0  0  0  0  0  0  0  0  0  0  0  0
   -2.9590   20.5700  -31.5890 N   0  0  0  0  0  0  0  0  0  0  0  0
   -3.4510   21.1280  -30.4500 C   0  0  0  0  0  0  0  0  0  0  0  0
   -4.3210   24.4170  -29.6010 C   0  0  0  0  0  0  0  0  0  0  0  0
   -3.8550   24.8580  -30.6860 O   0  0  0  0  0  0  0  0  0  0  0  0
   -5.7390   24.2610  -29.4390 N   0  0  0  0  0  0  0  0  0  0  0  0
   -6.6810   24.5150  -30.5250 C   0  0  0  0  0  0  0  0  0  0  0  0
   -6.9660   23.2400  -31.2700 C   0  0  0  0  0  0  0  0  0  0  0  0
   -8.2400   22.6500  -31.1940 C   0  0  0  0  0  0  0  0  0  0  0  0
   -8.4990   21.4460  -31.8550 C   0  0  0  0  0  0  0  0  0  0  0  0
   -7.4880   20.8180  -32.5870 C   0  0  0  0  0  0  0  0  0  0  0  0
   -6.2150   21.3920  -32.6570 C   0  0  0  0  0  0  0  0  0  0  0  0
   -5.9520   22.5980  -32.0000 C   0  0  0  0  0  0  0  0  0  0  0  0
   -0.5398   27.4794  -26.3725 H   0  0  0  0  0  0  0  0  0  0  0  0
    0.5146   27.9742  -27.7400 H   0  0  0  0  0  0  0  0  0  0  0  0
   -1.2253   28.4210  -27.7400 H   0  0  0  0  0  0  0  0  0  0  0  0
    1.9499   22.8595  -27.7892 H   0  0  0  0  0  0  0  0  0  0  0  0
    0.3897   21.6481  -26.2563 H   0  0  0  0  0  0  0  0  0  0  0  0
   -1.7709   22.7192  -25.6012 H   0  0  0  0  0  0  0  0  0  0  0  0
   -2.9213   24.9508  -25.3095 H   0  0  0  0  0  0  0  0  0  0  0  0
   -2.6641   26.2320  -26.5566 H   0  0  0  0  0  0  0  0  0  0  0  0
   -4.5300   25.3440  -27.3370 H   0  0  0  0  0  0  0  0  0  0  0  0
   -2.3999   24.5308  -28.7363 H   0  0  0  0  0  0  0  0  0  0  0  0
   -2.4497   22.3330  -27.5605 H   0  0  0  0  0  0  0  0  0  0  0  0
   -4.1436   22.0843  -28.1643 H   0  0  0  0  0  0  0  0  0  0  0  0
   -0.6452   22.7885  -29.4361 H   0  0  0  0  0  0  0  0  0  0  0  0
    0.2098   21.7557  -31.5458 H   0  0  0  0  0  0  0  0  0  0  0  0
   -1.3085   20.3178  -32.9177 H   0  0  0  0  0  0  0  0  0  0  0  0
   -4.4934   20.9391  -30.1537 H   0  0  0  0  0  0  0  0  0  0  0  0
   -6.1210   23.9140  -28.5310 H   0  0  0  0  0  0  0  0  0  0  0  0
   -7.6190   24.9104  -30.1081 H   0  0  0  0  0  0  0  0  0  0  0  0
   -6.2421   25.2472  -31.2187 H   0  0  0  0  0  0  0  0  0  0  0  0
   -9.0359   23.1378  -30.6121 H   0  0  0  0  0  0  0  0  0  0  0  0
   -9.4996   20.9925  -31.7989 H   0  0  0  0  0  0  0  0  0  0  0  0
   -7.6937   19.8716  -33.1085 H   0  0  0  0  0  0  0  0  0  0  0  0
   -5.4189   20.8940  -33.2299 H   0  0  0  0  0  0  0  0  0  0  0  0
   -4.9485   23.0451  -32.0549 H   0  0  0  0  0  0  0  0  0  0  0  0
  1  2  1  0
  2  3  1  0
  3  4  2  0
  4  5  1  0
  5  6  2  0
  6  7  1  0
  7  8  2  0
  8  9  1  0
  9 10  1  0
 10 11  1  0
 11 12  1  0
 12 13  1  0
 13 14  2  0
 14 15  1  0
 15 16  2  0
 16 17  1  0
 17 18  2  0
 11 19  1  0
 19 20  2  0
 19 21  1  0
 21 22  1  0
 22 23  1  0
 23 24  2  0
 24 25  1  0
 25 26  2  0
 26 27  1  0
 27 28  2  0
  8  3  1  0
 18 13  1  0
 28 23  1  0
  1 29  1  0
  1 30  1  0
  1 31  1  0
  5 32  1  0
  6 33  1  0
  7 34  1  0
  9 35  1  0
  9 36  1  0
 10 37  1  0
 11 38  1  6
 12 39  1  0
 12 40  1  0
 14 41  1  0
 15 42  1  0
 16 43  1  0
 18 44  1  0
 21 45  1  0
 22 46  1  0
 22 47  1  0
 24 48  1  0
 25 49  1  0
 26 50  1  0
 27 51  1  0
 28 52  1  0
M  END
>  <UniqueID>  (13) 
12

>  <SMILES>  (13) 
COc1ncccc1CN[C@@H](Cc1cccnc1)C(=O)NCc1ccccc1

>  <Energy>  (13) 
45.87019436336863

>  <Genealogy>  (13) 
COc1ncccc1CN[C@@H](Cc1cccnc1)C(=O)NCc1ccccc1 (chirality)
COc1ncccc1CN[C@@H](Cc1cccnc1)C(=O)NCc1ccccc1 (3D coordinates assigned)
COc1ncccc1CN[C@@H](Cc1cccnc1)C(=O)NCc1ccccc1 (optimized conformer: 45.87019436336863 kcal/mol)

>  <smiles>  (13) 
COc1ncccc1CNC(Cc1cccnc1)C(=O)NCc1ccccc1

>  <score_type>  (13) 
oracle

>  <origin>  (13) 
adg

>  <m_score__min__energy>  (13) 
-9.1899999999999995

>  <m_primary>  (13) 
energy

$$$$
13:0
     RDKit          3D

 30 32  0  0  0  0  0  0  0  0999 V2000
   -4.8890   21.0040  -32.7380 C   0  0  0  0  0  0  0  0  0  0  0  0
   -6.2960   21.2050  -32.2390 C   0  0  0  0  0  0  0  0  0  0  0  0
   -7.3050   20.3640  -32.7460 C   0  0  0  0  0  0  0  0  0  0  0  0
   -8.6270   20.4990  -32.3260 C   0  0  0  0  0  0  0  0  0  0  0  0
   -8.9660   21.4740  -31.3940 C   0  0  0  0  0  0  0  0  0  0  0  0
   -7.9850   22.3200  -30.8770 C   0  0  0  0  0  0  0  0  0  0  0  0
   -6.6390   22.2070  -31.2820 C   0  0  0  0  0  0  0  0  0  0  0  0
   -5.6470   23.1480  -30.6840 C   0  0  0  0  0  0  0  0  0  0  0  0
   -4.9850   24.1080  -31.3600 N   0  0  0  0  0  0  0  0  0  0  0  0
   -4.2300   24.6910  -30.4800 O   0  0  0  0  0  0  0  0  0  0  0  0
   -4.4070   24.1310  -29.3090 C   0  0  0  0  0  0  0  0  0  0  0  0
   -3.7090   24.5430  -28.0760 C   0  0  0  0  0  0  0  0  0  0  0  0
   -2.3070   24.5730  -28.0180 C   0  0  0  0  0  0  0  0  0  0  0  0
   -1.6660   24.9660  -26.8420 C   0  0  0  0  0  0  0  0  0  0  0  0
   -2.4300   25.3270  -25.7330 C   0  0  0  0  0  0  0  0  0  0  0  0
   -3.7890   25.2950  -25.7990 N   0  0  0  0  0  0  0  0  0  0  0  0
   -4.4360   24.9140  -26.9340 C   0  0  0  0  0  0  0  0  0  0  0  0
   -5.3060   23.1310  -29.3760 N   0  0  0  0  0  0  0  0  0  0  0  0
   -4.2064   20.9065  -31.8809 H   0  0  0  0  0  0  0  0  0  0  0  0
   -4.8436   20.0902  -33.3487 H   0  0  0  0  0  0  0  0  0  0  0  0
   -4.5895   21.8685  -33.3487 H   0  0  0  0  0  0  0  0  0  0  0  0
   -7.0464   19.5900  -33.4835 H   0  0  0  0  0  0  0  0  0  0  0  0
   -9.4031   19.8337  -32.7321 H   0  0  0  0  0  0  0  0  0  0  0  0
  -10.0101   21.5782  -31.0639 H   0  0  0  0  0  0  0  0  0  0  0  0
   -8.2659   23.0880  -30.1413 H   0  0  0  0  0  0  0  0  0  0  0  0
   -1.7136   24.2869  -28.8989 H   0  0  0  0  0  0  0  0  0  0  0  0
   -0.5675   24.9907  -26.7906 H   0  0  0  0  0  0  0  0  0  0  0  0
   -1.9331   25.6385  -24.8024 H   0  0  0  0  0  0  0  0  0  0  0  0
   -4.3470   25.5670  -24.9590 H   0  0  0  0  0  0  0  0  0  0  0  0
   -5.5356   24.8967  -26.9566 H   0  0  0  0  0  0  0  0  0  0  0  0
  1  2  1  0
  2  3  2  0
  3  4  1  0
  4  5  2  0
  5  6  1  0
  6  7  2  0
  7  8  1  0
  8  9  2  0
  9 10  1  0
 10 11  1  0
 11 12  1  0
 12 13  2  0
 13 14  1  0
 14 15  2  0
 15 16  1  0
 16 17  2  0
 11 18  2  0
  7  2  1  0
 18  8  1  0
 17 12  1  0
  1 19  1  0
  1 20  1  0
  1 21  1  0
  3 22  1  0
  4 23  1  0
  5 24  1  0
  6 25  1  0
 13 26  1  0
 14 27  1  0
 15 28  1  0
 16 29  1  0
 17 30  1  0
M  CHG  1  16   1
M  END
>  <UniqueID>  (14) 
13

>  <SMILES>  (14) 
Cc1ccccc1-c1noc(-c2ccc[nH+]c2)n1

>  <Energy>  (14) 
69.93441040136503

>  <Genealogy>  (14) 
Cc1ccccc1-c1noc(-c2ccc[nH+]c2)n1 (protonated)
Cc1ccccc1-c1noc(-c2ccc[nH+]c2)n1 (3D coordinates assigned)
Cc1ccccc1-c1noc(-c2ccc[nH+]c2)n1 (optimized conformer: 69.93441040136503 kcal/mol)

>  <smiles>  (14) 
Cc1ccccc1-c1noc(-c2cccnc2)n1

>  <score_type>  (14) 
oracle

>  <origin>  (14) 
adg

>  <m_score__min__energy>  (14) 
-7.25

>  <m_primary>  (14) 
energy

$$$$
14:0
     RDKit          3D

 34 37  0  0  0  0  0  0  0  0999 V2000
   -5.7060   25.8430  -30.0930 C   0  0  0  0  0  0  0  0  0  0  0  0
   -5.2120   24.9670  -31.1000 O   0  0  0  0  0  0  0  0  0  0  0  0
   -5.8050   23.7450  -31.4560 C   0  0  0  0  0  0  0  0  0  0  0  0
   -7.1820   23.5370  -31.3690 C   0  0  0  0  0  0  0  0  0  0  0  0
   -7.7230   22.3140  -31.7330 C   0  0  0  0  0  0  0  0  0  0  0  0
   -9.0630   22.1300  -31.6410 N   0  0  0  0  0  0  0  0  0  0  0  0
   -9.6480   20.9610  -31.9820 C   0  0  0  0  0  0  0  0  0  0  0  0
   -8.8760   19.8980  -32.4410 C   0  0  0  0  0  0  0  0  0  0  0  0
   -7.4700   20.0300  -32.5550 C   0  0  0  0  0  0  0  0  0  0  0  0
   -6.6350   18.9790  -33.0150 C   0  0  0  0  0  0  0  0  0  0  0  0
   -7.1340   17.7050  -33.3940 C   0  0  0  0  0  0  0  0  0  0  0  0
   -6.2780   16.6980  -33.8590 C   0  0  0  0  0  0  0  0  0  0  0  0
   -6.8280   15.3480  -34.2200 C   0  0  0  0  0  0  0  0  0  0  0  0
   -4.9060   16.9340  -33.9200 C   0  0  0  0  0  0  0  0  0  0  0  0
   -4.3910   18.1720  -33.5520 C   0  0  0  0  0  0  0  0  0  0  0  0
   -5.2400   19.2050  -33.1000 C   0  0  0  0  0  0  0  0  0  0  0  0
   -4.7020   20.4530  -32.7300 C   0  0  0  0  0  0  0  0  0  0  0  0
   -3.4520   20.6190  -32.8200 O   0  0  0  0  0  0  0  0  0  0  0  0
   -5.5140   21.4760  -32.2800 N   0  0  0  0  0  0  0  0  0  0  0  0
   -4.9850   22.7050  -31.9140 C   0  0  0  0  0  0  0  0  0  0  0  0
   -3.7440   22.9300  -31.9790 O   0  0  0  0  0  0  0  0  0  0  0  0
   -6.8790   21.2730  -32.1920 C   0  0  0  0  0  0  0  0  0  0  0  0
   -5.4728   25.4295  -29.1007 H   0  0  0  0  0  0  0  0  0  0  0  0
   -5.2312   26.8295  -30.2000 H   0  0  0  0  0  0  0  0  0  0  0  0
   -6.7958   25.9471  -30.2000 H   0  0  0  0  0  0  0  0  0  0  0  0
   -7.8384   24.3440  -31.0114 H   0  0  0  0  0  0  0  0  0  0  0  0
  -10.7389   20.8489  -31.8965 H   0  0  0  0  0  0  0  0  0  0  0  0
   -9.3603   18.9497  -32.7169 H   0  0  0  0  0  0  0  0  0  0  0  0
   -8.2132   17.5047  -33.3212 H   0  0  0  0  0  0  0  0  0  0  0  0
   -7.0563   14.7875  -33.3015 H   0  0  0  0  0  0  0  0  0  0  0  0
   -7.7470   15.4727  -34.8115 H   0  0  0  0  0  0  0  0  0  0  0  0
   -6.0835   14.7950  -34.8115 H   0  0  0  0  0  0  0  0  0  0  0  0
   -4.2277   16.1378  -34.2606 H   0  0  0  0  0  0  0  0  0  0  0  0
   -3.3071   18.3488  -33.6140 H   0  0  0  0  0  0  0  0  0  0  0  0
  1  2  1  0
  2  3  1  0
  3  4  2  0
  4  5  1  0
  5  6  2  0
  6  7  1  0
  7  8  2  0
  8  9  1  0
  9 10  1  0
 10 11  2  0
 11 12  1  0
 12 13  1  0
 12 14  2  0
 14 15  1  0
 15 16  2  0
 16 17  1  0
 17 18  2  0
 17 19  1  0
 19 20  1  0
 20 21  2  0
 19 22  1  0
 20  3  1  0
 22  5  1  0
 22  9  2  0
 16 10  1  0
  1 23  1  0
  1 24  1  0
  1 25  1  0
  4 26  1  0
  7 27  1  0
  8 28  1  0
 11 29  1  0
 13 30  1  0
 13 31  1  0
 13 32  1  0
 14 33  1  0
 15 34  1  0
M  END
>  <UniqueID>  (15) 
14

>  <SMILES>  (15) 
COc1cc2nccc3c4cc(C)ccc4c(=O)n(c1=O)c23

>  <Energy>  (15) 
62.37922158530837

>  <Genealogy>  (15) 
COc1cc2nccc3c4cc(C)ccc4c(=O)n(c1=O)c23 (3D coordinates assigned)
COc1cc2nccc3c4cc(C)ccc4c(=O)n(c1=O)c23 (optimized conformer: 62.37922158530837 kcal/mol)

>  <smiles>  (15) 
COc1cc2nccc3c4cc(C)ccc4c(=O)n(c1=O)c23

>  <score_type>  (15) 
oracle

>  <origin>  (15) 
adg

>  <m_score__min__energy>  (15) 
-8.8499999999999996

>  <m_primary>  (15) 
energy

$$$$
15:0
     RDKit          3D

 32 34  0  0  0  0  0  0  0  0999 V2000
   -9.1671   20.2530  -32.4201 H   0  0  0  0  0  0  0  0  0  0  0  0
   -8.3390   20.8990  -32.0930 C   0  0  0  0  0  0  0  0  0  0  0  0
   -8.5740   21.9250  -31.1760 C   0  0  0  0  0  0  0  0  0  0  0  0
   -9.5884   22.0872  -30.7827 H   0  0  0  0  0  0  0  0  0  0  0  0
   -7.5240   22.7470  -30.7560 C   0  0  0  0  0  0  0  0  0  0  0  0
   -7.7161   23.5529  -30.0324 H   0  0  0  0  0  0  0  0  0  0  0  0
   -6.2220   22.5490  -31.2540 C   0  0  0  0  0  0  0  0  0  0  0  0
   -5.1010   23.4130  -30.8200 C   0  0  0  0  0  0  0  0  0  0  0  0
   -4.9520   24.7010  -31.2130 N   0  0  0  0  0  0  0  0  0  0  0  0
   -3.8720   25.2960  -30.7090 N   0  0  0  0  0  0  0  0  0  0  0  0
   -3.1510   24.4930  -29.8990 C   0  0  0  0  0  0  0  0  0  0  0  0
   -2.0390   24.8830  -29.3480 N   0  0  0  0  0  0  0  0  0  0  0  0
   -1.8680   25.3320  -27.9950 C   0  0  0  0  0  0  0  0  0  0  0  0
   -0.8740   26.2780  -27.7170 C   0  0  0  0  0  0  0  0  0  0  0  0
   -0.2215   26.6393  -28.5255 H   0  0  0  0  0  0  0  0  0  0  0  0
   -0.7060   26.7660  -26.4180 C   0  0  0  0  0  0  0  0  0  0  0  0
    0.0907   27.4949  -26.2080 H   0  0  0  0  0  0  0  0  0  0  0  0
   -1.5430   26.3350  -25.3820 C   0  0  0  0  0  0  0  0  0  0  0  0
   -1.3330   26.8520  -24.0960 O   0  0  0  0  0  0  0  0  0  0  0  0
   -0.0960   26.7850  -23.3940 C   0  0  0  0  0  0  0  0  0  0  0  0
   -0.2880   26.7954  -22.3109 H   0  0  0  0  0  0  0  0  0  0  0  0
    0.4292   25.8571  -23.6644 H   0  0  0  0  0  0  0  0  0  0  0  0
    0.5264   27.6508  -23.6644 H   0  0  0  0  0  0  0  0  0  0  0  0
   -2.5660   25.4100  -25.6670 C   0  0  0  0  0  0  0  0  0  0  0  0
   -3.2371   25.0709  -24.8641 H   0  0  0  0  0  0  0  0  0  0  0  0
   -2.7320   24.9210  -26.9660 C   0  0  0  0  0  0  0  0  0  0  0  0
   -3.5432   24.2107  -27.1837 H   0  0  0  0  0  0  0  0  0  0  0  0
   -3.8380   22.9540  -29.7940 S   0  0  0  0  0  0  0  0  0  0  0  0
   -5.9980   21.5120  -32.1790 C   0  0  0  0  0  0  0  0  0  0  0  0
   -4.9864   21.3447  -32.5775 H   0  0  0  0  0  0  0  0  0  0  0  0
   -7.0520   20.6930  -32.5950 C   0  0  0  0  0  0  0  0  0  0  0  0
   -6.8674   19.8853  -33.3186 H   0  0  0  0  0  0  0  0  0  0  0  0
  1  2  1  0
  2  3  2  0
  3  4  1  0
  3  5  1  0
  5  6  1  0
  5  7  2  0
  7  8  1  0
  8  9  2  0
  9 10  1  0
 10 11  1  0
 11 12  2  0
 12 13  1  0
 13 14  2  0
 14 15  1  0
 14 16  1  0
 16 17  1  0
 16 18  2  0
 18 19  1  0
 19 20  1  0
 20 21  1  0
 20 22  1  0
 20 23  1  0
 18 24  1  0
 24 25  1  0
 24 26  2  0
 26 27  1  0
 11 28  1  0
  7 29  1  0
 29 30  1  0
 29 31  2  0
 31 32  1  0
 31  2  1  0
 28  8  1  0
 26 13  1  0
M  CHG  1  10  -1
M  END
>  <UniqueID>  (16) 
15

>  <SMILES>  (16) 
COc1ccc(/N=c2/[n-]nc(-c3ccccc3)s2)cc1

>  <Energy>  (16) 
76.63236814565273

>  <Genealogy>  (16) 
COc1ccc(N=c2[n-]nc(-c3ccccc3)s2)cc1 (protonated)
COc1ccc(/N=c2/[n-]nc(-c3ccccc3)s2)cc1 (cis-trans isomerization)
COc1ccc(/N=c2/[n-]nc(-c3ccccc3)s2)cc1 (3D coordinates assigned)
COc1ccc(/N=c2/[n-]nc(-c3ccccc3)s2)cc1 (optimized conformer: 76.63236814565273 kcal/mol)

>  <smiles>  (16) 
COc1ccc(N=c2[nH]nc(-c3ccccc3)s2)cc1

>  <score_type>  (16) 
oracle

>  <origin>  (16) 
adg

>  <m_score__min__energy>  (16) 
-9.6400000000000006

>  <m_primary>  (16) 
energy

$$$$
16:0
     RDKit          3D

 37 38  0  0  0  0  0  0  0  0999 V2000
   -2.7610   21.1730  -32.9410 C   0  0  0  0  0  0  0  0  0  0  0  0
   -2.7920   22.1490  -31.9090 O   0  0  0  0  0  0  0  0  0  0  0  0
   -2.4830   21.8520  -30.5790 C   0  0  0  0  0  0  0  0  0  0  0  0
   -1.3140   21.4960  -30.2640 O   0  0  0  0  0  0  0  0  0  0  0  0
   -3.5210   22.0010  -29.4960 C   0  0  0  0  0  0  0  0  0  0  0  0
   -4.3450   23.3230  -29.5040 C   0  0  1  0  0  0  0  0  0  0  0  0
   -3.5610   24.5380  -29.9550 C   0  0  0  0  0  0  0  0  0  0  0  0
   -2.3270   24.6260  -29.7150 O   0  0  0  0  0  0  0  0  0  0  0  0
   -4.2460   25.6710  -30.4910 N   0  0  0  0  0  0  0  0  0  0  0  0
   -5.6630   25.6430  -30.8270 C   0  0  0  0  0  0  0  0  0  0  0  0
   -6.3900   24.5260  -30.0610 C   0  0  0  0  0  0  0  0  0  0  0  0
   -5.6840   23.2200  -30.1640 N   0  0  1  0  0  0  0  0  0  0  0  0
   -5.6320   22.6980  -31.5590 C   0  0  0  0  0  0  0  0  0  0  0  0
   -6.7460   21.7230  -31.8730 C   0  0  0  0  0  0  0  0  0  0  0  0
   -8.0830   22.0670  -31.6090 C   0  0  0  0  0  0  0  0  0  0  0  0
   -9.1150   21.1690  -31.9020 C   0  0  0  0  0  0  0  0  0  0  0  0
   -8.8200   19.9190  -32.4530 C   0  0  0  0  0  0  0  0  0  0  0  0
   -9.8240   19.0520  -32.7340 F   0  0  0  0  0  0  0  0  0  0  0  0
   -7.4920   19.5630  -32.7080 C   0  0  0  0  0  0  0  0  0  0  0  0
   -7.2040   18.3470  -33.2350 F   0  0  0  0  0  0  0  0  0  0  0  0
   -6.4580   20.4590  -32.4160 C   0  0  0  0  0  0  0  0  0  0  0  0
   -2.7291   20.1682  -32.4945 H   0  0  0  0  0  0  0  0  0  0  0  0
   -3.6626   21.2691  -33.5637 H   0  0  0  0  0  0  0  0  0  0  0  0
   -1.8673   21.3261  -33.5637 H   0  0  0  0  0  0  0  0  0  0  0  0
   -4.2289   21.1647  -29.5935 H   0  0  0  0  0  0  0  0  0  0  0  0
   -2.9580   22.0132  -28.5511 H   0  0  0  0  0  0  0  0  0  0  0  0
   -4.5652   23.4904  -28.4393 H   0  0  0  0  0  0  0  0  0  0  0  0
   -6.1140   26.6113  -30.5644 H   0  0  0  0  0  0  0  0  0  0  0  0
   -5.7632   25.4504  -31.9054 H   0  0  0  0  0  0  0  0  0  0  0  0
   -6.4566   24.8097  -29.0003 H   0  0  0  0  0  0  0  0  0  0  0  0
   -7.3881   24.4056  -30.5075 H   0  0  0  0  0  0  0  0  0  0  0  0
   -6.2430   22.5370  -29.6000 H   0  0  0  0  0  0  0  0  0  0  0  0
   -5.7055   23.5481  -32.2533 H   0  0  0  0  0  0  0  0  0  0  0  0
   -4.6818   22.1550  -31.6694 H   0  0  0  0  0  0  0  0  0  0  0  0
   -8.3192   23.0474  -31.1697 H   0  0  0  0  0  0  0  0  0  0  0  0
  -10.1596   21.4471  -31.6985 H   0  0  0  0  0  0  0  0  0  0  0  0
   -5.4142   20.1728  -32.6124 H   0  0  0  0  0  0  0  0  0  0  0  0
  1  2  1  0
  2  3  1  0
  3  4  2  0
  3  5  1  0
  5  6  1  0
  6  7  1  0
  7  8  2  0
  7  9  1  0
  9 10  1  0
 10 11  1  0
 11 12  1  0
 12 13  1  0
 13 14  1  0
 14 15  2  0
 15 16  1  0
 16 17  2  0
 17 18  1  0
 17 19  1  0
 19 20  1  0
 19 21  2  0
 12  6  1  0
 21 14  1  0
  1 22  1  0
  1 23  1  0
  1 24  1  0
  5 25  1  0
  5 26  1  0
  6 27  1  1
 10 28  1  0
 10 29  1  0
 11 30  1  0
 11 31  1  0
 12 32  1  1
 13 33  1  0
 13 34  1  0
 15 35  1  0
 16 36  1  0
 21 37  1  0
M  CHG  2   9  -1  12   1
M  END
>  <UniqueID>  (17) 
16

>  <SMILES>  (17) 
COC(=O)C[C@H]1C(=O)[N-]CC[N@H+]1Cc1ccc(F)c(F)c1

>  <Energy>  (17) 
47.253770083894864

>  <Genealogy>  (17) 
COC(=O)CC1C(=O)[N-]CC[NH+]1Cc1ccc(F)c(F)c1 (protonated)
COC(=O)C[C@H]1C(=O)[N-]CC[N@H+]1Cc1ccc(F)c(F)c1 (chirality)
COC(=O)C[C@H]1C(=O)[N-]CC[N@H+]1Cc1ccc(F)c(F)c1 (3D coordinates assigned)
COC(=O)C[C@H]1C(=O)[N-]CC[N@H+]1Cc1ccc(F)c(F)c1 (nonaromatic ring conformer: 47.253770083894864 kcal/mol)

>  <smiles>  (17) 
COC(=O)CC1C(=O)NCCN1Cc1ccc(F)c(F)c1

>  <score_type>  (17) 
oracle

>  <origin>  (17) 
adg

>  <m_score__min__energy>  (17) 
-7.75

>  <m_primary>  (17) 
energy

$$$$
17:0
     RDKit          3D

 55 57  0  0  0  0  0  0  0  0999 V2000
   -4.7160   15.4690  -32.4880 F   0  0  0  0  0  0  0  0  0  0  0  0
   -5.4060   16.6340  -32.5620 C   0  0  0  0  0  0  0  0  0  0  0  0
   -6.1240   17.0930  -31.4550 C   0  0  0  0  0  0  0  0  0  0  0  0
   -6.8360   18.2940  -31.5310 C   0  0  0  0  0  0  0  0  0  0  0  0
   -6.8330   19.0470  -32.7170 C   0  0  0  0  0  0  0  0  0  0  0  0
   -7.6200   20.3300  -32.8050 C   0  0  0  0  0  0  0  0  0  0  0  0
   -8.5800   20.4220  -31.6960 N   0  0  0  0  0  0  0  0  0  0  0  0
   -8.4450   21.6980  -30.9810 C   0  0  0  0  0  0  0  0  0  0  0  0
   -7.8800   22.7650  -31.9210 C   0  0  0  0  0  0  0  0  0  0  0  0
   -6.6030   23.3370  -31.3670 C   0  0  0  0  0  0  0  0  0  0  0  0
   -5.3670   22.7560  -31.6890 C   0  0  0  0  0  0  0  0  0  0  0  0
   -4.1840   23.2650  -31.1490 C   0  0  0  0  0  0  0  0  0  0  0  0
   -4.2190   24.3660  -30.2700 C   0  0  0  0  0  0  0  0  0  0  0  0
   -3.0640   24.9230  -29.7000 O   0  0  0  0  0  0  0  0  0  0  0  0
   -2.6420   24.7600  -28.3440 C   0  0  0  0  0  0  0  0  0  0  0  0
   -2.8920   23.3280  -27.8600 C   0  0  0  0  0  0  0  0  0  0  0  0
   -1.6550   22.5230  -27.9790 N   0  0  0  0  0  0  0  0  0  0  0  0
   -1.2460   21.8900  -26.6960 C   0  0  0  0  0  0  0  0  0  0  0  0
   -1.5110   20.3710  -26.6300 C   0  0  0  0  0  0  0  0  0  0  0  0
   -2.7880   19.9980  -27.3830 C   0  0  0  0  0  0  0  0  0  0  0  0
   -2.7270   20.4360  -28.8580 C   0  0  0  0  0  0  0  0  0  0  0  0
   -1.7090   21.5670  -29.1030 C   0  0  0  0  0  0  0  0  0  0  0  0
   -5.4570   24.9290  -29.9350 C   0  0  0  0  0  0  0  0  0  0  0  0
   -6.6410   24.4200  -30.4760 C   0  0  0  0  0  0  0  0  0  0  0  0
   -6.1120   18.5760  -33.8290 C   0  0  0  0  0  0  0  0  0  0  0  0
   -6.1010   19.2780  -34.9910 F   0  0  0  0  0  0  0  0  0  0  0  0
   -5.4000   17.3740  -33.7480 C   0  0  0  0  0  0  0  0  0  0  0  0
   -6.1292   16.5091  -30.5228 H   0  0  0  0  0  0  0  0  0  0  0  0
   -7.4014   18.6511  -30.6576 H   0  0  0  0  0  0  0  0  0  0  0  0
   -6.9277   21.1834  -32.7562 H   0  0  0  0  0  0  0  0  0  0  0  0
   -8.1726   20.3439  -33.7560 H   0  0  0  0  0  0  0  0  0  0  0  0
   -9.5410   20.3920  -32.1120 H   0  0  0  0  0  0  0  0  0  0  0  0
   -9.4324   22.0184  -30.6172 H   0  0  0  0  0  0  0  0  0  0  0  0
   -7.7601   21.5656  -30.1305 H   0  0  0  0  0  0  0  0  0  0  0  0
   -7.6770   22.3113  -32.9023 H   0  0  0  0  0  0  0  0  0  0  0  0
   -8.6172   23.5753  -32.0213 H   0  0  0  0  0  0  0  0  0  0  0  0
   -5.3297   21.8939  -32.3713 H   0  0  0  0  0  0  0  0  0  0  0  0
   -3.2201   22.8043  -31.4110 H   0  0  0  0  0  0  0  0  0  0  0  0
   -1.5669   24.9814  -28.2727 H   0  0  0  0  0  0  0  0  0  0  0  0
   -3.2200   25.4498  -27.7115 H   0  0  0  0  0  0  0  0  0  0  0  0
   -3.2104   23.3509  -26.8073 H   0  0  0  0  0  0  0  0  0  0  0  0
   -3.6773   22.8720  -28.4808 H   0  0  0  0  0  0  0  0  0  0  0  0
   -0.1682   22.0590  -26.5556 H   0  0  0  0  0  0  0  0  0  0  0  0
   -1.8552   22.3528  -25.9056 H   0  0  0  0  0  0  0  0  0  0  0  0
   -0.6605   19.8387  -27.0809 H   0  0  0  0  0  0  0  0  0  0  0  0
   -1.6333   20.0849  -25.5749 H   0  0  0  0  0  0  0  0  0  0  0  0
   -2.9215   18.9070  -27.3402 H   0  0  0  0  0  0  0  0  0  0  0  0
   -3.6321   20.5170  -26.9054 H   0  0  0  0  0  0  0  0  0  0  0  0
   -2.4425   19.5681  -29.4710 H   0  0  0  0  0  0  0  0  0  0  0  0
   -3.7210   20.8199  -29.1311 H   0  0  0  0  0  0  0  0  0  0  0  0
   -0.7118   21.1227  -29.2382 H   0  0  0  0  0  0  0  0  0  0  0  0
   -2.0269   22.1186  -30.0000 H   0  0  0  0  0  0  0  0  0  0  0  0
   -5.4979   25.7801  -29.2393 H   0  0  0  0  0  0  0  0  0  0  0  0
   -7.6065   24.8704  -30.2021 H   0  0  0  0  0  0  0  0  0  0  0  0
   -4.8347   17.0109  -34.6190 H   0  0  0  0  0  0  0  0  0  0  0  0
  1  2  1  0
  2  3  2  0
  3  4  1  0
  4  5  2  0
  5  6  1  0
  6  7  1  0
  7  8  1  0
  8  9  1  0
  9 10  1  0
 10 11  2  0
 11 12  1  0
 12 13  2  0
 13 14  1  0
 14 15  1  0
 15 16  1  0
 16 17  1  0
 17 18  1  0
 18 19  1  0
 19 20  1  0
 20 21  1  0
 21 22  1  0
 13 23  1  0
 23 24  2  0
  5 25  1  0
 25 26  1  0
 25 27  2  0
 27  2  1  0
 24 10  1  0
 22 17  1  0
  3 28  1  0
  4 29  1  0
  6 30  1  0
  6 31  1  0
  7 32  1  0
  8 33  1  0
  8 34  1  0
  9 35  1  0
  9 36  1  0
 11 37  1  0
 12 38  1  0
 15 39  1  0
 15 40  1  0
 16 41  1  0
 16 42  1  0
 18 43  1  0
 18 44  1  0
 19 45  1  0
 19 46  1  0
 20 47  1  0
 20 48  1  0
 21 49  1  0
 21 50  1  0
 22 51  1  0
 22 52  1  0
 23 53  1  0
 24 54  1  0
 27 55  1  0
M  END
>  <UniqueID>  (18) 
17

>  <SMILES>  (18) 
Fc1ccc(CNCCc2ccc(OCCN3CCCCC3)cc2)c(F)c1

>  <Energy>  (18) 
58.94811609027579

>  <Genealogy>  (18) 
Fc1ccc(CNCCc2ccc(OCCN3CCCCC3)cc2)c(F)c1 (3D coordinates assigned)
Fc1ccc(CNCCc2ccc(OCCN3CCCCC3)cc2)c(F)c1 (nonaromatic ring conformer: 58.94811609027579 kcal/mol)

>  <smiles>  (18) 
Fc1ccc(CNCCc2ccc(OCCN3CCCCC3)cc2)c(F)c1

>  <score_type>  (18) 
oracle

>  <origin>  (18) 
adg

>  <m_score__min__energy>  (18) 
-9.1500000000000004

>  <m_primary>  (18) 
energy

$$$$
18:0
     RDKit          3D

 48 50  0  0  0  0  0  0  0  0999 V2000
   -6.8300   16.7130  -33.2620 C   0  0  0  0  0  0  0  0  0  0  0  0
   -7.4010   18.0050  -33.4450 O   0  0  0  0  0  0  0  0  0  0  0  0
   -6.7830   19.2080  -33.0700 C   0  0  0  0  0  0  0  0  0  0  0  0
   -7.4120   20.1390  -32.2230 C   0  0  0  0  0  0  0  0  0  0  0  0
   -6.7710   21.3360  -31.8760 C   0  0  0  0  0  0  0  0  0  0  0  0
   -5.4780   21.6030  -32.3610 C   0  0  0  0  0  0  0  0  0  0  0  0
   -4.8460   20.6700  -33.1970 C   0  0  0  0  0  0  0  0  0  0  0  0
   -5.4960   19.4760  -33.5590 C   0  0  0  0  0  0  0  0  0  0  0  0
   -4.8930   18.5260  -34.4010 O   0  0  0  0  0  0  0  0  0  0  0  0
   -3.5680   18.0290  -34.2400 C   0  0  0  0  0  0  0  0  0  0  0  0
   -4.7280   22.8500  -31.9480 C   0  0  0  0  0  0  0  0  0  0  0  0
   -5.5960   23.8780  -31.3480 N   0  0  0  0  0  0  0  0  0  0  0  0
   -4.9760   25.0270  -30.7490 C   0  0  0  0  0  0  0  0  0  0  0  0
   -5.6890   26.0080  -30.4130 O   0  0  0  0  0  0  0  0  0  0  0  0
   -3.5650   25.0810  -30.4950 N   0  0  0  0  0  0  0  0  0  0  0  0
   -2.8790   24.5460  -29.3200 C   0  0  0  0  0  0  0  0  0  0  0  0
   -1.9820   23.3460  -29.7240 C   0  0  0  0  0  0  0  0  0  0  0  0
   -1.8330   22.3330  -28.5850 C   0  0  0  0  0  0  0  0  0  0  0  0
   -3.1940   21.7370  -28.1760 C   0  0  0  0  0  0  0  0  0  0  0  0
   -4.3740   22.7100  -28.3740 C   0  0  0  0  0  0  0  0  0  0  0  0
   -3.9280   24.1700  -28.2470 C   0  0  0  0  0  0  0  0  0  0  0  0
   -7.0560   23.7370  -31.3400 C   0  0  0  0  0  0  0  0  0  0  0  0
   -7.4420   22.3140  -30.9540 C   0  0  0  0  0  0  0  0  0  0  0  0
   -6.7369   16.5023  -32.1864 H   0  0  0  0  0  0  0  0  0  0  0  0
   -7.4776   15.9564  -33.7291 H   0  0  0  0  0  0  0  0  0  0  0  0
   -5.8346   16.6825  -33.7291 H   0  0  0  0  0  0  0  0  0  0  0  0
   -8.4167   19.9252  -31.8294 H   0  0  0  0  0  0  0  0  0  0  0  0
   -3.8326   20.8741  -33.5729 H   0  0  0  0  0  0  0  0  0  0  0  0
   -3.3367   17.9422  -33.1681 H   0  0  0  0  0  0  0  0  0  0  0  0
   -3.4874   17.0395  -34.7138 H   0  0  0  0  0  0  0  0  0  0  0  0
   -2.8566   18.7214  -34.7138 H   0  0  0  0  0  0  0  0  0  0  0  0
   -3.9600   22.5684  -31.2126 H   0  0  0  0  0  0  0  0  0  0  0  0
   -4.2892   23.2839  -32.8586 H   0  0  0  0  0  0  0  0  0  0  0  0
   -2.2131   25.3068  -28.8867 H   0  0  0  0  0  0  0  0  0  0  0  0
   -2.4329   22.8416  -30.5914 H   0  0  0  0  0  0  0  0  0  0  0  0
   -0.9820   23.7352  -29.9660 H   0  0  0  0  0  0  0  0  0  0  0  0
   -1.1713   21.5188  -28.9154 H   0  0  0  0  0  0  0  0  0  0  0  0
   -1.4091   22.8539  -27.7138 H   0  0  0  0  0  0  0  0  0  0  0  0
   -3.3776   20.8384  -28.7832 H   0  0  0  0  0  0  0  0  0  0  0  0
   -3.1385   21.5089  -27.1013 H   0  0  0  0  0  0  0  0  0  0  0  0
   -4.8019   22.5532  -29.3751 H   0  0  0  0  0  0  0  0  0  0  0  0
   -5.1208   22.5090  -27.5918 H   0  0  0  0  0  0  0  0  0  0  0  0
   -4.8062   24.8220  -28.3639 H   0  0  0  0  0  0  0  0  0  0  0  0
   -3.4667   24.3016  -27.2571 H   0  0  0  0  0  0  0  0  0  0  0  0
   -7.4856   24.4408  -30.6120 H   0  0  0  0  0  0  0  0  0  0  0  0
   -7.4446   23.9555  -32.3456 H   0  0  0  0  0  0  0  0  0  0  0  0
   -7.1242   22.1174  -29.9194 H   0  0  0  0  0  0  0  0  0  0  0  0
   -8.5330   22.1993  -31.0351 H   0  0  0  0  0  0  0  0  0  0  0  0
  1  2  1  0
  2  3  1  0
  3  4  2  0
  4  5  1  0
  5  6  2  0
  6  7  1  0
  7  8  2  0
  8  9  1  0
  9 10  1  0
  6 11  1  0
 11 12  1  0
 12 13  1  0
 13 14  2  0
 13 15  1  0
 15 16  1  0
 16 17  1  0
 17 18  1  0
 18 19  1  0
 19 20  1  0
 20 21  1  0
 12 22  1  0
 22 23  1  0
  8  3  1  0
 21 16  1  0
 23  5  1  0
  1 24  1  0
  1 25  1  0
  1 26  1  0
  4 27  1  0
  7 28  1  0
 10 29  1  0
 10 30  1  0
 10 31  1  0
 11 32  1  0
 11 33  1  0
 16 34  1  0
 17 35  1  0
 17 36  1  0
 18 37  1  0
 18 38  1  0
 19 39  1  0
 19 40  1  0
 20 41  1  0
 20 42  1  0
 21 43  1  0
 21 44  1  0
 22 45  1  0
 22 46  1  0
 23 47  1  0
 23 48  1  0
M  CHG  1  15  -1
M  END
>  <UniqueID>  (19) 
18

>  <SMILES>  (19) 
COc1cc2c(cc1OC)CN(C(=O)[N-]C1CCCCC1)CC2

>  <Energy>  (19) 
52.90108812444114

>  <Genealogy>  (19) 
COc1cc2c(cc1OC)CN(C(=O)[N-]C1CCCCC1)CC2 (protonated)
COc1cc2c(cc1OC)CN(C(=O)[N-]C1CCCCC1)CC2 (3D coordinates assigned)
COc1cc2c(cc1OC)CN(C(=O)[N-]C1CCCCC1)CC2 (nonaromatic ring conformer: 52.90108812444114 kcal/mol)

>  <smiles>  (19) 
COc1cc2c(cc1OC)CN(C(=O)NC1CCCCC1)CC2

>  <score_type>  (19) 
oracle

>  <origin>  (19) 
adg

>  <m_score__min__energy>  (19) 
-8.8599999999999994

>  <m_primary>  (19) 
energy

$$$$
19:0
     RDKit          3D

 45 47  0  0  0  0  0  0  0  0999 V2000
   -4.9490   12.0510  -32.5630 C   0  0  0  0  0  0  0  0  0  0  0  0
   -5.2480   12.9360  -33.6370 O   0  0  0  0  0  0  0  0  0  0  0  0
   -5.5480   14.2980  -33.4800 C   0  0  0  0  0  0  0  0  0  0  0  0
   -6.5510   14.9420  -34.2330 C   0  0  0  0  0  0  0  0  0  0  0  0
   -6.8100   16.3010  -34.0410 C   0  0  0  0  0  0  0  0  0  0  0  0
   -6.0680   17.0380  -33.1070 C   0  0  0  0  0  0  0  0  0  0  0  0
   -6.3440   18.4380  -32.9040 N   0  0  0  0  0  0  0  0  0  0  0  0
   -5.4800   19.4100  -33.3610 C   0  0  0  0  0  0  0  0  0  0  0  0
   -4.1580   19.0740  -34.0290 C   0  0  0  0  0  0  0  0  0  0  0  0
   -2.9800   19.0600  -33.0390 C   0  0  0  0  0  0  0  0  0  0  0  0
   -3.0890   20.1210  -31.9260 C   0  0  0  0  0  0  0  0  0  0  0  0
   -2.6550   21.5180  -32.3890 C   0  0  0  0  0  0  0  0  0  0  0  0
   -3.4370   21.9310  -33.4750 O   0  0  0  0  0  0  0  0  0  0  0  0
   -5.7910   20.7280  -33.1890 N   0  0  0  0  0  0  0  0  0  0  0  0
   -6.9260   21.1140  -32.5490 C   0  0  0  0  0  0  0  0  0  0  0  0
   -7.2150   22.4780  -32.3740 C   0  0  0  0  0  0  0  0  0  0  0  0
   -8.3790   22.8700  -31.7110 C   0  0  0  0  0  0  0  0  0  0  0  0
   -9.2640   21.9070  -31.2200 C   0  0  0  0  0  0  0  0  0  0  0  0
   -8.9870   20.5490  -31.3890 C   0  0  0  0  0  0  0  0  0  0  0  0
   -7.8150   20.1430  -32.0550 C   0  0  0  0  0  0  0  0  0  0  0  0
   -7.4990   18.7900  -32.2530 C   0  0  0  0  0  0  0  0  0  0  0  0
   -8.2880   17.8950  -31.8340 O   0  0  0  0  0  0  0  0  0  0  0  0
   -5.0830   16.3940  -32.3450 C   0  0  0  0  0  0  0  0  0  0  0  0
   -4.8220   15.0350  -32.5370 C   0  0  0  0  0  0  0  0  0  0  0  0
   -5.1224   12.5644  -31.6057 H   0  0  0  0  0  0  0  0  0  0  0  0
   -5.5976   11.1649  -32.6266 H   0  0  0  0  0  0  0  0  0  0  0  0
   -3.8959   11.7398  -32.6266 H   0  0  0  0  0  0  0  0  0  0  0  0
   -7.1313   14.3725  -34.9739 H   0  0  0  0  0  0  0  0  0  0  0  0
   -7.5999   16.7955  -34.6254 H   0  0  0  0  0  0  0  0  0  0  0  0
   -4.2403   18.0797  -34.4923 H   0  0  0  0  0  0  0  0  0  0  0  0
   -3.9550   19.8551  -34.7765 H   0  0  0  0  0  0  0  0  0  0  0  0
   -2.9348   18.0669  -32.5680 H   0  0  0  0  0  0  0  0  0  0  0  0
   -2.0737   19.2941  -33.6167 H   0  0  0  0  0  0  0  0  0  0  0  0
   -4.1354   20.1717  -31.5905 H   0  0  0  0  0  0  0  0  0  0  0  0
   -2.4130   19.8176  -31.1130 H   0  0  0  0  0  0  0  0  0  0  0  0
   -2.7787   22.2305  -31.5601 H   0  0  0  0  0  0  0  0  0  0  0  0
   -1.6001   21.4825  -32.6986 H   0  0  0  0  0  0  0  0  0  0  0  0
   -2.8340   21.9710  -34.2620 H   0  0  0  0  0  0  0  0  0  0  0  0
   -5.1370   21.4580  -33.5540 H   0  0  0  0  0  0  0  0  0  0  0  0
   -6.5216   23.2393  -32.7608 H   0  0  0  0  0  0  0  0  0  0  0  0
   -8.5999   23.9390  -31.5749 H   0  0  0  0  0  0  0  0  0  0  0  0
  -10.1811   22.2193  -30.6991 H   0  0  0  0  0  0  0  0  0  0  0  0
   -9.6865   19.7941  -31.0006 H   0  0  0  0  0  0  0  0  0  0  0  0
   -4.5137   16.9606  -31.5934 H   0  0  0  0  0  0  0  0  0  0  0  0
   -4.0399   14.5402  -31.9425 H   0  0  0  0  0  0  0  0  0  0  0  0
  1  2  1  0
  2  3  1  0
  3  4  2  0
  4  5  1  0
  5  6  2  0
  6  7  1  0
  7  8  1  0
  8  9  1  0
  9 10  1  0
 10 11  1  0
 11 12  1  0
 12 13  1  0
  8 14  2  0
 14 15  1  0
 15 16  2  0
 16 17  1  0
 17 18  2  0
 18 19  1  0
 19 20  2  0
 20 21  1  0
 21 22  2  0
  6 23  1  0
 23 24  2  0
 24  3  1  0
 21  7  1  0
 20 15  1  0
  1 25  1  0
  1 26  1  0
  1 27  1  0
  4 28  1  0
  5 29  1  0
  9 30  1  0
  9 31  1  0
 10 32  1  0
 10 33  1  0
 11 34  1  0
 11 35  1  0
 12 36  1  0
 12 37  1  0
 13 38  1  0
 14 39  1  0
 16 40  1  0
 17 41  1  0
 18 42  1  0
 19 43  1  0
 23 44  1  0
 24 45  1  0
M  CHG  1  14   1
M  END
>  <UniqueID>  (20) 
19

>  <SMILES>  (20) 
COc1ccc(-n2c(CCCCO)[nH+]c3ccccc3c2=O)cc1

>  <Energy>  (20) 
56.409909335532596

>  <Genealogy>  (20) 
COc1ccc(-n2c(CCCCO)[nH+]c3ccccc3c2=O)cc1 (protonated)
COc1ccc(-n2c(CCCCO)[nH+]c3ccccc3c2=O)cc1 (3D coordinates assigned)
COc1ccc(-n2c(CCCCO)[nH+]c3ccccc3c2=O)cc1 (optimized conformer: 56.409909335532596 kcal/mol)

>  <smiles>  (20) 
COc1ccc(-n2c(CCCCO)nc3ccccc3c2=O)cc1

>  <score_type>  (20) 
oracle

>  <origin>  (20) 
adg

>  <m_score__min__energy>  (20) 
-7.2800000000000002

>  <m_primary>  (20) 
energy

$$$$
20:0
     RDKit          3D

 51 52  0  0  0  0  0  0  0  0999 V2000
   -3.6880   21.5690  -32.4210 C   0  0  0  0  0  0  0  0  0  0  0  0
   -2.3700   21.1540  -31.8170 C   0  0  0  0  0  0  0  0  0  0  0  0
   -1.2980   20.8570  -32.6740 C   0  0  0  0  0  0  0  0  0  0  0  0
   -0.0660   20.4600  -32.1580 C   0  0  0  0  0  0  0  0  0  0  0  0
    0.1170   20.3660  -30.7810 C   0  0  0  0  0  0  0  0  0  0  0  0
   -0.9320   20.6610  -29.9010 C   0  0  0  0  0  0  0  0  0  0  0  0
   -0.6920   20.5840  -28.4850 N   0  0  0  0  0  0  0  0  0  0  0  0
   -1.1070   19.3690  -27.7640 C   0  0  0  0  0  0  0  0  0  0  0  0
   -1.8520   19.7150  -26.4670 C   0  0  0  0  0  0  0  0  0  0  0  0
   -3.1580   19.0470  -26.4090 C   0  0  0  0  0  0  0  0  0  0  0  0
   -4.1870   18.5200  -26.3610 N   0  0  0  0  0  0  0  0  0  0  0  0
   -0.1350   21.7340  -27.8070 C   0  0  0  0  0  0  0  0  0  0  0  0
    0.0740   21.6780  -26.5630 O   0  0  0  0  0  0  0  0  0  0  0  0
    0.1370   23.0340  -28.5200 C   0  0  0  0  0  0  0  0  0  0  0  0
   -0.6780   24.0810  -27.9950 O   0  0  0  0  0  0  0  0  0  0  0  0
   -1.5440   24.8440  -28.7880 C   0  0  0  0  0  0  0  0  0  0  0  0
   -1.1650   25.9370  -29.2890 O   0  0  0  0  0  0  0  0  0  0  0  0
   -2.9440   24.3760  -29.0020 C   0  0  0  0  0  0  0  0  0  0  0  0
   -3.4660   24.9720  -30.2250 N   0  0  0  0  0  0  0  0  0  0  0  0
   -4.8500   25.2500  -30.4780 C   0  0  0  0  0  0  0  0  0  0  0  0
   -5.2420   26.4460  -30.4470 O   0  0  0  0  0  0  0  0  0  0  0  0
   -5.8180   24.1880  -30.8170 C   0  0  0  0  0  0  0  0  0  0  0  0
   -6.0220   23.7970  -32.1520 C   0  0  0  0  0  0  0  0  0  0  0  0
   -6.9350   22.7830  -32.4570 C   0  0  0  0  0  0  0  0  0  0  0  0
   -7.6390   22.1430  -31.4340 C   0  0  0  0  0  0  0  0  0  0  0  0
   -7.4250   22.5090  -30.1030 C   0  0  0  0  0  0  0  0  0  0  0  0
   -6.5120   23.5230  -29.7940 C   0  0  0  0  0  0  0  0  0  0  0  0
   -2.2050   21.0170  -30.4140 C   0  0  0  0  0  0  0  0  0  0  0  0
   -3.3640   21.2740  -29.4780 C   0  0  0  0  0  0  0  0  0  0  0  0
   -4.4047   21.7947  -31.6176 H   0  0  0  0  0  0  0  0  0  0  0  0
   -3.5406   22.4642  -33.0430 H   0  0  0  0  0  0  0  0  0  0  0  0
   -4.0801   20.7508  -33.0430 H   0  0  0  0  0  0  0  0  0  0  0  0
   -1.4320   20.9385  -33.7628 H   0  0  0  0  0  0  0  0  0  0  0  0
    0.7634   20.2205  -32.8397 H   0  0  0  0  0  0  0  0  0  0  0  0
    1.0940   20.0574  -30.3807 H   0  0  0  0  0  0  0  0  0  0  0  0
   -1.7712   18.7777  -28.4115 H   0  0  0  0  0  0  0  0  0  0  0  0
   -0.2051   18.7959  -27.5031 H   0  0  0  0  0  0  0  0  0  0  0  0
   -1.2455   19.3919  -25.6080 H   0  0  0  0  0  0  0  0  0  0  0  0
   -2.0161   20.8024  -26.4397 H   0  0  0  0  0  0  0  0  0  0  0  0
    1.1959   23.3018  -28.3899 H   0  0  0  0  0  0  0  0  0  0  0  0
   -0.0978   22.9063  -29.5870 H   0  0  0  0  0  0  0  0  0  0  0  0
   -2.9558   23.2798  -29.0926 H   0  0  0  0  0  0  0  0  0  0  0  0
   -3.5690   24.6764  -28.1481 H   0  0  0  0  0  0  0  0  0  0  0  0
   -5.4613   24.2906  -32.9594 H   0  0  0  0  0  0  0  0  0  0  0  0
   -7.0993   22.4887  -33.5041 H   0  0  0  0  0  0  0  0  0  0  0  0
   -8.3622   21.3505  -31.6767 H   0  0  0  0  0  0  0  0  0  0  0  0
   -7.9745   21.9998  -29.2976 H   0  0  0  0  0  0  0  0  0  0  0  0
   -6.3371   23.8006  -28.7441 H   0  0  0  0  0  0  0  0  0  0  0  0
   -3.0182   21.1973  -28.4366 H   0  0  0  0  0  0  0  0  0  0  0  0
   -3.7641   22.2827  -29.6582 H   0  0  0  0  0  0  0  0  0  0  0  0
   -4.1530   20.5290  -29.6582 H   0  0  0  0  0  0  0  0  0  0  0  0
  1  2  1  0
  2  3  2  0
  3  4  1  0
  4  5  2  0
  5  6  1  0
  6  7  1  0
  7  8  1  0
  8  9  1  0
  9 10  1  0
 10 11  3  0
  7 12  1  0
 12 13  2  0
 12 14  1  0
 14 15  1  0
 15 16  1  0
 16 17  2  0
 16 18  1  0
 18 19  1  0
 19 20  1  0
 20 21  2  0
 20 22  1  0
 22 23  2  0
 23 24  1  0
 24 25  2  0
 25 26  1  0
 26 27  2  0
  6 28  2  0
 28 29  1  0
 28  2  1  0
 27 22  1  0
  1 30  1  0
  1 31  1  0
  1 32  1  0
  3 33  1  0
  4 34  1  0
  5 35  1  0
  8 36  1  0
  8 37  1  0
  9 38  1  0
  9 39  1  0
 14 40  1  0
 14 41  1  0
 18 42  1  0
 18 43  1  0
 23 44  1  0
 24 45  1  0
 25 46  1  0
 26 47  1  0
 27 48  1  0
 29 49  1  0
 29 50  1  0
 29 51  1  0
M  CHG  1  19  -1
M  END
>  <UniqueID>  (21) 
20

>  <SMILES>  (21) 
Cc1cccc(N(CCC#N)C(=O)COC(=O)C[N-]C(=O)c2ccccc2)c1C

>  <Energy>  (21) 
56.680935816490525

>  <Genealogy>  (21) 
Cc1cccc(N(CCC#N)C(=O)COC(=O)C[N-]C(=O)c2ccccc2)c1C (protonated)
Cc1cccc(N(CCC#N)C(=O)COC(=O)C[N-]C(=O)c2ccccc2)c1C (3D coordinates assigned)
Cc1cccc(N(CCC#N)C(=O)COC(=O)C[N-]C(=O)c2ccccc2)c1C (optimized conformer: 56.680935816490525 kcal/mol)

>  <smiles>  (21) 
Cc1cccc(N(CCC#N)C(=O)COC(=O)CNC(=O)c2ccccc2)c1C

>  <score_type>  (21) 
oracle

>  <origin>  (21) 
adg

>  <m_score__min__energy>  (21) 
-10.17

>  <m_primary>  (21) 
energy

$$$$
21:0
     RDKit          3D

 30 30  0  0  0  0  0  0  0  0999 V2000
   -4.5750   24.1720  -28.3040 C   0  0  0  0  0  0  0  0  0  0  0  0
   -3.4820   24.5530  -29.2980 C   0  0  0  0  0  0  0  0  0  0  0  0
   -4.0440   25.2230  -30.4810 N   0  0  0  0  0  0  0  0  0  0  0  0
   -5.4460   24.8530  -30.7380 C   0  0  0  0  0  0  0  0  0  0  0  0
   -5.5240   23.5490  -31.4930 C   0  0  0  0  0  0  0  0  0  0  0  0
   -6.7060   22.9320  -31.8880 C   0  0  0  0  0  0  0  0  0  0  0  0
   -8.0960   23.4050  -31.6030 C   0  0  0  0  0  0  0  0  0  0  0  0
   -6.4390   21.7760  -32.5240 N   0  0  0  0  0  0  0  0  0  0  0  0
   -5.1240   21.6450  -32.5720 N   0  0  0  0  0  0  0  0  0  0  0  0
   -4.4490   20.4900  -33.1530 C   0  0  0  0  0  0  0  0  0  0  0  0
   -4.5270   22.6840  -31.9580 C   0  0  0  0  0  0  0  0  0  0  0  0
   -3.1290   22.7680  -31.8510 O   0  0  0  0  0  0  0  0  0  0  0  0
   -2.2880   21.9040  -31.1030 C   0  0  0  0  0  0  0  0  0  0  0  0
   -4.1997   24.3028  -27.2783 H   0  0  0  0  0  0  0  0  0  0  0  0
   -5.4523   24.8173  -28.4585 H   0  0  0  0  0  0  0  0  0  0  0  0
   -4.8610   23.1211  -28.4585 H   0  0  0  0  0  0  0  0  0  0  0  0
   -2.7710   25.2326  -28.8055 H   0  0  0  0  0  0  0  0  0  0  0  0
   -2.9770   23.6330  -29.6277 H   0  0  0  0  0  0  0  0  0  0  0  0
   -3.4850   24.9070  -31.3080 H   0  0  0  0  0  0  0  0  0  0  0  0
   -5.9730   24.7466  -29.7784 H   0  0  0  0  0  0  0  0  0  0  0  0
   -5.9141   25.6417  -31.3454 H   0  0  0  0  0  0  0  0  0  0  0  0
   -8.2497   23.4573  -30.5150 H   0  0  0  0  0  0  0  0  0  0  0  0
   -8.2410   24.4031  -32.0422 H   0  0  0  0  0  0  0  0  0  0  0  0
   -8.8196   22.7025  -32.0422 H   0  0  0  0  0  0  0  0  0  0  0  0
   -4.0709   19.8429  -32.3478 H   0  0  0  0  0  0  0  0  0  0  0  0
   -5.1590   19.9248  -33.7747 H   0  0  0  0  0  0  0  0  0  0  0  0
   -3.6081   20.8311  -33.7747 H   0  0  0  0  0  0  0  0  0  0  0  0
   -2.4520   22.0725  -30.0284 H   0  0  0  0  0  0  0  0  0  0  0  0
   -2.5236   20.8584  -31.3503 H   0  0  0  0  0  0  0  0  0  0  0  0
   -1.2364   22.1113  -31.3503 H   0  0  0  0  0  0  0  0  0  0  0  0
  1  2  1  0
  2  3  1  0
  3  4  1  0
  4  5  1  0
  5  6  1  0
  6  7  1  0
  6  8  2  0
  8  9  1  0
  9 10  1  0
  9 11  1  0
 11 12  1  0
 12 13  1  0
 11  5  2  0
  1 14  1  0
  1 15  1  0
  1 16  1  0
  2 17  1  0
  2 18  1  0
  3 19  1  0
  4 20  1  0
  4 21  1  0
  7 22  1  0
  7 23  1  0
  7 24  1  0
 10 25  1  0
 10 26  1  0
 10 27  1  0
 13 28  1  0
 13 29  1  0
 13 30  1  0
M  END
>  <UniqueID>  (22) 
21

>  <SMILES>  (22) 
CCNCc1c(C)nn(C)c1OC

>  <Energy>  (22) 
56.46979961027252

>  <Genealogy>  (22) 
CCNCc1c(C)nn(C)c1OC (3D coordinates assigned)
CCNCc1c(C)nn(C)c1OC (optimized conformer: 56.46979961027252 kcal/mol)

>  <smiles>  (22) 
CCNCc1c(C)nn(C)c1OC

>  <score_type>  (22) 
oracle

>  <origin>  (22) 
adg

>  <m_score__min__energy>  (22) 
-5.0300000000000002

>  <m_primary>  (22) 
energy

$$$$
22:0
     RDKit          3D

 43 44  0  0  0  0  0  0  0  0999 V2000
   -5.7500   19.3120  -33.5560 C   0  0  0  0  0  0  0  0  0  0  0  0
   -6.9760   20.2240  -33.5210 C   0  0  0  0  0  0  0  0  0  0  0  0
   -7.6490   20.1910  -32.1990 N   0  0  0  0  0  0  0  0  0  0  0  0
   -7.5870   18.8210  -31.6390 C   0  0  0  0  0  0  0  0  0  0  0  0
   -8.9730   18.1790  -31.5990 C   0  0  0  0  0  0  0  0  0  0  0  0
   -9.0500   20.6860  -32.2800 C   0  0  0  0  0  0  0  0  0  0  0  0
   -9.1460   22.1080  -31.7170 C   0  0  0  0  0  0  0  0  0  0  0  0
   -8.0730   22.9480  -32.2660 N   0  0  0  0  0  0  0  0  0  0  0  0
   -7.4550   23.7920  -31.2330 C   0  0  0  0  0  0  0  0  0  0  0  0
   -5.9570   23.6810  -31.2380 C   0  0  0  0  0  0  0  0  0  0  0  0
   -5.0740   24.5770  -30.6820 C   0  0  0  0  0  0  0  0  0  0  0  0
   -3.8690   24.0950  -30.8530 O   0  0  0  0  0  0  0  0  0  0  0  0
   -3.9920   22.9460  -31.4810 C   0  0  0  0  0  0  0  0  0  0  0  0
   -2.8480   22.0900  -31.8540 C   0  0  0  0  0  0  0  0  0  0  0  0
   -1.7490   21.9630  -30.9870 C   0  0  0  0  0  0  0  0  0  0  0  0
   -0.6640   21.1530  -31.3370 C   0  0  0  0  0  0  0  0  0  0  0  0
   -0.6670   20.4620  -32.5510 C   0  0  0  0  0  0  0  0  0  0  0  0
   -1.7560   20.5810  -33.4190 C   0  0  0  0  0  0  0  0  0  0  0  0
   -1.7580   19.9100  -34.5980 F   0  0  0  0  0  0  0  0  0  0  0  0
   -2.8430   21.3910  -33.0740 C   0  0  0  0  0  0  0  0  0  0  0  0
   -5.2810   22.6320  -31.7430 N   0  0  0  0  0  0  0  0  0  0  0  0
   -5.4368   19.0790  -32.5276 H   0  0  0  0  0  0  0  0  0  0  0  0
   -6.0015   18.3797  -34.0828 H   0  0  0  0  0  0  0  0  0  0  0  0
   -4.9293   19.8209  -34.0828 H   0  0  0  0  0  0  0  0  0  0  0  0
   -6.6587   21.2556  -33.7335 H   0  0  0  0  0  0  0  0  0  0  0  0
   -7.6901   19.8666  -34.2775 H   0  0  0  0  0  0  0  0  0  0  0  0
   -6.9245   18.2063  -32.2661 H   0  0  0  0  0  0  0  0  0  0  0  0
   -7.2005   18.8813  -30.6109 H   0  0  0  0  0  0  0  0  0  0  0  0
   -9.2810   18.0364  -30.5527 H   0  0  0  0  0  0  0  0  0  0  0  0
   -9.6954   18.8342  -32.1078 H   0  0  0  0  0  0  0  0  0  0  0  0
   -8.9404   17.2043  -32.1078 H   0  0  0  0  0  0  0  0  0  0  0  0
   -9.3732   20.6896  -33.3314 H   0  0  0  0  0  0  0  0  0  0  0  0
   -9.6982   20.0228  -31.6883 H   0  0  0  0  0  0  0  0  0  0  0  0
  -10.1202   22.5406  -31.9885 H   0  0  0  0  0  0  0  0  0  0  0  0
   -9.0433   22.0669  -30.6226 H   0  0  0  0  0  0  0  0  0  0  0  0
   -7.3370   22.3290  -32.6830 H   0  0  0  0  0  0  0  0  0  0  0  0
   -7.7341   24.8400  -31.4168 H   0  0  0  0  0  0  0  0  0  0  0  0
   -7.8179   23.4498  -30.2526 H   0  0  0  0  0  0  0  0  0  0  0  0
   -5.3326   25.5238  -30.1853 H   0  0  0  0  0  0  0  0  0  0  0  0
   -1.7423   22.5032  -30.0288 H   0  0  0  0  0  0  0  0  0  0  0  0
    0.1938   21.0598  -30.6547 H   0  0  0  0  0  0  0  0  0  0  0  0
    0.1871   19.8247  -32.8237 H   0  0  0  0  0  0  0  0  0  0  0  0
   -3.6978   21.4815  -33.7603 H   0  0  0  0  0  0  0  0  0  0  0  0
  1  2  1  0
  2  3  1  0
  3  4  1  0
  4  5  1  0
  3  6  1  0
  6  7  1  0
  7  8  1  0
  8  9  1  0
  9 10  1  0
 10 11  2  0
 11 12  1  0
 12 13  1  0
 13 14  1  0
 14 15  2  0
 15 16  1  0
 16 17  2  0
 17 18  1  0
 18 19  1  0
 18 20  2  0
 13 21  2  0
 21 10  1  0
 20 14  1  0
  1 22  1  0
  1 23  1  0
  1 24  1  0
  2 25  1  0
  2 26  1  0
  4 27  1  0
  4 28  1  0
  5 29  1  0
  5 30  1  0
  5 31  1  0
  6 32  1  0
  6 33  1  0
  7 34  1  0
  7 35  1  0
  8 36  1  0
  9 37  1  0
  9 38  1  0
 11 39  1  0
 15 40  1  0
 16 41  1  0
 17 42  1  0
 20 43  1  0
M  END
>  <UniqueID>  (23) 
22

>  <SMILES>  (23) 
CCN(CC)CCNCc1coc(-c2cccc(F)c2)n1

>  <Energy>  (23) 
69.35836129782037

>  <Genealogy>  (23) 
CCN(CC)CCNCc1coc(-c2cccc(F)c2)n1 (3D coordinates assigned)
CCN(CC)CCNCc1coc(-c2cccc(F)c2)n1 (optimized conformer: 69.35836129782037 kcal/mol)

>  <smiles>  (23) 
CCN(CC)CCNCc1coc(-c2cccc(F)c2)n1

>  <score_type>  (23) 
oracle

>  <origin>  (23) 
adg

>  <m_score__min__energy>  (23) 
-6.8099999999999996

>  <m_primary>  (23) 
energy

$$$$
23:0
     RDKit          3D

 42 46  0  0  0  0  0  0  0  0999 V2000
   -4.2400   20.6770  -30.4770 O   0  0  0  0  0  0  0  0  0  0  0  0
   -4.3870   21.8910  -30.1640 C   0  0  0  0  0  0  0  0  0  0  0  0
   -5.5720   22.5610  -30.4860 C   0  0  0  0  0  0  0  0  0  0  0  0
   -6.7200   22.0750  -31.1450 C   0  0  0  0  0  0  0  0  0  0  0  0
   -7.7240   23.0440  -31.2340 C   0  0  0  0  0  0  0  0  0  0  0  0
   -7.1850   24.5040  -30.5810 S   0  0  0  0  0  0  0  0  0  0  0  0
   -5.6870   23.8880  -30.1350 C   0  0  0  0  0  0  0  0  0  0  0  0
   -4.7000   24.5540  -29.4960 N   0  0  0  0  0  0  0  0  0  0  0  0
   -3.5480   23.9010  -29.1630 C   0  0  0  0  0  0  0  0  0  0  0  0
   -2.5140   24.6660  -28.4230 C   0  0  0  0  0  0  0  0  0  0  0  0
   -2.1660   24.5290  -27.0910 C   0  0  0  0  0  0  0  0  0  0  0  0
   -1.1900   25.4720  -26.8610 C   0  0  0  0  0  0  0  0  0  0  0  0
   -1.0070   26.1350  -28.0570 C   0  0  0  0  0  0  0  0  0  0  0  0
   -1.8140   25.6360  -28.9650 O   0  0  0  0  0  0  0  0  0  0  0  0
   -3.3800   22.5710  -29.5150 N   0  0  0  0  0  0  0  0  0  0  0  0
   -2.1300   21.8900  -29.2800 C   0  0  0  0  0  0  0  0  0  0  0  0
   -1.7970   21.4540  -27.9860 C   0  0  0  0  0  0  0  0  0  0  0  0
   -0.5860   20.7960  -27.7550 C   0  0  0  0  0  0  0  0  0  0  0  0
    0.2960   20.5610  -28.8130 C   0  0  0  0  0  0  0  0  0  0  0  0
   -0.0330   20.9810  -30.1060 C   0  0  0  0  0  0  0  0  0  0  0  0
   -1.2440   21.6400  -30.3430 C   0  0  0  0  0  0  0  0  0  0  0  0
   -1.5580   22.0300  -31.6040 F   0  0  0  0  0  0  0  0  0  0  0  0
   -9.0430   22.8310  -31.9120 C   0  0  0  0  0  0  0  0  0  0  0  0
   -9.3610   21.3320  -32.0200 C   0  0  0  0  0  0  0  0  0  0  0  0
   -8.1530   20.5510  -32.5620 C   0  0  0  0  0  0  0  0  0  0  0  0
   -6.9390   20.6590  -31.6210 C   0  0  0  0  0  0  0  0  0  0  0  0
   -4.8410   25.5590  -29.2390 H   0  0  0  0  0  0  0  0  0  0  0  0
   -2.5829   23.8145  -26.3660 H   0  0  0  0  0  0  0  0  0  0  0  0
   -0.6622   25.6593  -25.9142 H   0  0  0  0  0  0  0  0  0  0  0  0
   -0.2942   26.9559  -28.2244 H   0  0  0  0  0  0  0  0  0  0  0  0
   -2.4921   21.6314  -27.1521 H   0  0  0  0  0  0  0  0  0  0  0  0
   -0.3268   20.4627  -26.7393 H   0  0  0  0  0  0  0  0  0  0  0  0
    1.2500   20.0452  -28.6289 H   0  0  0  0  0  0  0  0  0  0  0  0
    0.6617   20.7928  -30.9379 H   0  0  0  0  0  0  0  0  0  0  0  0
   -9.8331   23.3269  -31.3290 H   0  0  0  0  0  0  0  0  0  0  0  0
   -8.9931   23.2563  -32.9252 H   0  0  0  0  0  0  0  0  0  0  0  0
   -9.6208   20.9465  -31.0231 H   0  0  0  0  0  0  0  0  0  0  0  0
  -10.2036   21.2014  -32.7149 H   0  0  0  0  0  0  0  0  0  0  0  0
   -8.4305   19.4917  -32.6663 H   0  0  0  0  0  0  0  0  0  0  0  0
   -7.8734   20.9818  -33.5348 H   0  0  0  0  0  0  0  0  0  0  0  0
   -7.1075   20.0122  -30.7474 H   0  0  0  0  0  0  0  0  0  0  0  0
   -6.0452   20.3452  -32.1802 H   0  0  0  0  0  0  0  0  0  0  0  0
  1  2  2  0
  2  3  1  0
  3  4  1  0
  4  5  2  0
  5  6  1  0
  6  7  1  0
  7  8  1  0
  8  9  2  0
  9 10  1  0
 10 11  2  0
 11 12  1  0
 12 13  2  0
 13 14  1  0
  9 15  1  0
 15 16  1  0
 16 17  2  0
 17 18  1  0
 18 19  2  0
 19 20  1  0
 20 21  2  0
 21 22  1  0
  5 23  1  0
 23 24  1  0
 24 25  1  0
 25 26  1  0
 15  2  1  0
 21 16  1  0
  7  3  2  0
 14 10  1  0
 26  4  1  0
  8 27  1  0
 11 28  1  0
 12 29  1  0
 13 30  1  0
 17 31  1  0
 18 32  1  0
 19 33  1  0
 20 34  1  0
 23 35  1  0
 23 36  1  0
 24 37  1  0
 24 38  1  0
 25 39  1  0
 25 40  1  0
 26 41  1  0
 26 42  1  0
M  CHG  1   8   1
M  END
>  <UniqueID>  (24) 
23

>  <SMILES>  (24) 
O=c1c2c3c(sc2[nH+]c(-c2ccco2)n1-c1ccccc1F)CCCC3

>  <Energy>  (24) 
120.58953331996364

>  <Genealogy>  (24) 
O=c1c2c3c(sc2[nH+]c(-c2ccco2)n1-c1ccccc1F)CCCC3 (protonated)
O=c1c2c3c(sc2[nH+]c(-c2ccco2)n1-c1ccccc1F)CCCC3 (3D coordinates assigned)
O=c1c2c3c(sc2[nH+]c(-c2ccco2)n1-c1ccccc1F)CCCC3 (nonaromatic ring conformer: 120.58953331996364 kcal/mol)

>  <smiles>  (24) 
O=c1c2c3c(sc2nc(-c2ccco2)n1-c1ccccc1F)CCCC3

>  <score_type>  (24) 
oracle

>  <origin>  (24) 
adg

>  <m_score__min__energy>  (24) 
-8.0600000000000005

>  <m_primary>  (24) 
energy

$$$$
24:0
     RDKit          3D

 39 41  0  0  0  0  0  0  0  0999 V2000
   -5.7460   25.7290  -30.4760 C   0  0  0  0  0  0  0  0  0  0  0  0
   -4.7530   24.6120  -30.3500 C   0  0  0  0  0  0  0  0  0  0  0  0
   -3.5230   24.9010  -29.8390 N   0  0  0  0  0  0  0  0  0  0  0  0
   -2.5540   23.9610  -29.7000 C   0  0  0  0  0  0  0  0  0  0  0  0
   -2.7980   22.6460  -30.0900 C   0  0  0  0  0  0  0  0  0  0  0  0
   -4.0430   22.3110  -30.6190 C   0  0  0  0  0  0  0  0  0  0  0  0
   -5.0440   23.2850  -30.7570 C   0  0  0  0  0  0  0  0  0  0  0  0
   -6.3970   22.8670  -31.3020 C   0  0  0  0  0  0  0  0  0  0  0  0
   -6.3200   22.4650  -32.7180 N   0  0  0  0  0  0  0  0  0  0  0  0
   -6.2060   21.0310  -32.8530 C   0  0  0  0  0  0  0  0  0  0  0  0
   -7.3220   20.2090  -32.6270 C   0  0  0  0  0  0  0  0  0  0  0  0
   -7.2320   18.8270  -32.8030 C   0  0  0  0  0  0  0  0  0  0  0  0
   -6.0240   18.2350  -33.2110 C   0  0  0  0  0  0  0  0  0  0  0  0
   -5.9320   16.7660  -33.4080 C   0  0  0  0  0  0  0  0  0  0  0  0
   -4.9180   16.0180  -32.7860 C   0  0  0  0  0  0  0  0  0  0  0  0
   -4.8440   14.6370  -32.9800 C   0  0  0  0  0  0  0  0  0  0  0  0
   -5.7870   14.0100  -33.7940 C   0  0  0  0  0  0  0  0  0  0  0  0
   -6.7650   14.7400  -34.3900 N   0  0  0  0  0  0  0  0  0  0  0  0
   -6.8580   16.0860  -34.2190 C   0  0  0  0  0  0  0  0  0  0  0  0
   -4.9070   19.0580  -33.4380 C   0  0  0  0  0  0  0  0  0  0  0  0
   -4.9950   20.4420  -33.2630 C   0  0  0  0  0  0  0  0  0  0  0  0
   -3.9020   21.2110  -33.5030 F   0  0  0  0  0  0  0  0  0  0  0  0
   -6.0466   26.0672  -29.4734 H   0  0  0  0  0  0  0  0  0  0  0  0
   -5.2886   26.5662  -31.0235 H   0  0  0  0  0  0  0  0  0  0  0  0
   -6.6311   25.3728  -31.0235 H   0  0  0  0  0  0  0  0  0  0  0  0
   -1.5759   24.2374  -29.2794 H   0  0  0  0  0  0  0  0  0  0  0  0
   -2.0160   21.8800  -29.9815 H   0  0  0  0  0  0  0  0  0  0  0  0
   -4.2427   21.2752  -30.9308 H   0  0  0  0  0  0  0  0  0  0  0  0
   -6.7712   22.0179  -30.7113 H   0  0  0  0  0  0  0  0  0  0  0  0
   -7.0747   23.7304  -31.2296 H   0  0  0  0  0  0  0  0  0  0  0  0
   -5.5140   22.9410  -33.1870 H   0  0  0  0  0  0  0  0  0  0  0  0
   -7.1870   22.7910  -33.2070 H   0  0  0  0  0  0  0  0  0  0  0  0
   -8.2746   20.6576  -32.3088 H   0  0  0  0  0  0  0  0  0  0  0  0
   -8.1142   18.1957  -32.6208 H   0  0  0  0  0  0  0  0  0  0  0  0
   -4.1802   16.5218  -32.1443 H   0  0  0  0  0  0  0  0  0  0  0  0
   -4.0500   14.0497  -32.4957 H   0  0  0  0  0  0  0  0  0  0  0  0
   -5.7386   12.9227  -33.9535 H   0  0  0  0  0  0  0  0  0  0  0  0
   -7.6624   16.6462  -34.7181 H   0  0  0  0  0  0  0  0  0  0  0  0
   -3.9548   18.6085  -33.7563 H   0  0  0  0  0  0  0  0  0  0  0  0
  1  2  1  0
  2  3  2  0
  3  4  1  0
  4  5  2  0
  5  6  1  0
  6  7  2  0
  7  8  1  0
  8  9  1  0
  9 10  1  0
 10 11  2  0
 11 12  1  0
 12 13  2  0
 13 14  1  0
 14 15  2  0
 15 16  1  0
 16 17  2  0
 17 18  1  0
 18 19  2  0
 13 20  1  0
 20 21  2  0
 21 22  1  0
  7  2  1  0
 21 10  1  0
 19 14  1  0
  1 23  1  0
  1 24  1  0
  1 25  1  0
  4 26  1  0
  5 27  1  0
  6 28  1  0
  8 29  1  0
  8 30  1  0
  9 31  1  0
  9 32  1  0
 11 33  1  0
 12 34  1  0
 15 35  1  0
 16 36  1  0
 17 37  1  0
 19 38  1  0
 20 39  1  0
M  CHG  1   9   1
M  END
>  <UniqueID>  (25) 
24

>  <SMILES>  (25) 
Cc1ncccc1C[NH2+]c1ccc(-c2cccnc2)cc1F

>  <Energy>  (25) 
49.04957634755851

>  <Genealogy>  (25) 
Cc1ncccc1C[NH2+]c1ccc(-c2cccnc2)cc1F (protonated)
Cc1ncccc1C[NH2+]c1ccc(-c2cccnc2)cc1F (3D coordinates assigned)
Cc1ncccc1C[NH2+]c1ccc(-c2cccnc2)cc1F (optimized conformer: 49.04957634755851 kcal/mol)

>  <smiles>  (25) 
Cc1ncccc1CNc1ccc(-c2cccnc2)cc1F

>  <score_type>  (25) 
oracle

>  <origin>  (25) 
adg

>  <m_score__min__energy>  (25) 
-7.3099999999999996

>  <m_primary>  (25) 
energy

$$$$
25:0
     RDKit          3D

 34 37  0  0  0  0  0  0  0  0999 V2000
   -8.0560   12.8260  -34.8140 N   0  0  0  0  0  0  0  0  0  0  0  0
   -7.2890   13.6630  -34.5910 C   0  0  0  0  0  0  0  0  0  0  0  0
   -6.3350   14.7050  -34.3160 C   0  0  0  0  0  0  0  0  0  0  0  0
   -4.9760   14.5050  -34.5740 C   0  0  0  0  0  0  0  0  0  0  0  0
   -4.0820   15.4940  -34.3160 N   0  0  0  0  0  0  0  0  0  0  0  0
   -4.4670   16.6960  -33.8080 C   0  0  0  0  0  0  0  0  0  0  0  0
   -5.8230   16.9480  -33.5300 C   0  0  0  0  0  0  0  0  0  0  0  0
   -6.2550   18.2550  -32.9720 C   0  0  0  0  0  0  0  0  0  0  0  0
   -7.6060   18.4970  -32.6850 C   0  0  0  0  0  0  0  0  0  0  0  0
   -8.0100   19.7260  -32.1600 C   0  0  0  0  0  0  0  0  0  0  0  0
   -7.0770   20.7510  -31.9080 C   0  0  0  0  0  0  0  0  0  0  0  0
   -5.7200   20.5070  -32.1990 C   0  0  0  0  0  0  0  0  0  0  0  0
   -5.3180   19.2700  -32.7250 C   0  0  0  0  0  0  0  0  0  0  0  0
   -4.5020   21.7300  -31.9250 S   0  0  0  0  0  0  0  0  0  0  0  0
   -3.8700   22.1110  -33.2340 O   0  0  0  0  0  0  0  0  0  0  0  0
   -3.4600   21.1990  -30.9820 O   0  0  0  0  0  0  0  0  0  0  0  0
   -5.2560   23.1340  -31.2170 C   0  0  0  0  0  0  0  0  0  0  0  0
   -4.4710   24.1930  -30.8830 N   0  0  0  0  0  0  0  0  0  0  0  0
   -4.9810   25.3240  -30.3330 C   0  0  0  0  0  0  0  0  0  0  0  0
   -6.3490   25.4240  -30.0950 C   0  0  0  0  0  0  0  0  0  0  0  0
   -7.1800   24.3540  -30.4270 C   0  0  0  0  0  0  0  0  0  0  0  0
   -6.6470   23.1820  -30.9980 C   0  0  0  0  0  0  0  0  0  0  0  0
   -7.5520   22.0490  -31.3460 C   0  0  0  0  0  0  0  0  0  0  0  0
   -8.7910   22.1980  -31.1500 O   0  0  0  0  0  0  0  0  0  0  0  0
   -6.7570   15.9310  -33.7910 C   0  0  0  0  0  0  0  0  0  0  0  0
   -4.6303   13.5456  -34.9864 H   0  0  0  0  0  0  0  0  0  0  0  0
   -3.7145   17.4745  -33.6137 H   0  0  0  0  0  0  0  0  0  0  0  0
   -8.3533   17.7125  -32.8750 H   0  0  0  0  0  0  0  0  0  0  0  0
   -9.0741   19.8967  -31.9396 H   0  0  0  0  0  0  0  0  0  0  0  0
   -4.2551   19.0936  -32.9465 H   0  0  0  0  0  0  0  0  0  0  0  0
   -4.3145   26.1604  -30.0757 H   0  0  0  0  0  0  0  0  0  0  0  0
   -6.7702   26.3374  -29.6497 H   0  0  0  0  0  0  0  0  0  0  0  0
   -8.2618   24.4262  -30.2411 H   0  0  0  0  0  0  0  0  0  0  0  0
   -7.8237   16.0996  -33.5817 H   0  0  0  0  0  0  0  0  0  0  0  0
  1  2  3  0
  2  3  1  0
  3  4  2  0
  4  5  1  0
  5  6  2  0
  6  7  1  0
  7  8  1  0
  8  9  2  0
  9 10  1  0
 10 11  2  0
 11 12  1  0
 12 13  2  0
 12 14  1  0
 14 15  2  0
 14 16  2  0
 14 17  1  0
 17 18  2  0
 18 19  1  0
 19 20  2  0
 20 21  1  0
 21 22  2  0
 22 23  1  0
 23 24  2  0
  7 25  2  0
 25  3  1  0
 13  8  1  0
 22 17  1  0
 23 11  1  0
  4 26  1  0
  6 27  1  0
  9 28  1  0
 10 29  1  0
 13 30  1  0
 19 31  1  0
 20 32  1  0
 21 33  1  0
 25 34  1  0
M  END
>  <UniqueID>  (26) 
25

>  <SMILES>  (26) 
N#Cc1cncc(-c2ccc3c(c2)S(=O)(=O)c2ncccc2C3=O)c1

>  <Energy>  (26) 
53.371748760887385

>  <Genealogy>  (26) 
N#Cc1cncc(-c2ccc3c(c2)S(=O)(=O)c2ncccc2C3=O)c1 (3D coordinates assigned)
N#Cc1cncc(-c2ccc3c(c2)S(=O)(=O)c2ncccc2C3=O)c1 (nonaromatic ring conformer: 53.371748760887385 kcal/mol)

>  <smiles>  (26) 
N#Cc1cncc(-c2ccc3c(c2)S(=O)(=O)c2ncccc2C3=O)c1

>  <score_type>  (26) 
oracle

>  <origin>  (26) 
adg

>  <m_score__min__energy>  (26) 
-9.1400000000000006

>  <m_primary>  (26) 
energy

$$$$
26:0
     RDKit          3D

 47 48  0  0  0  0  0  0  0  0999 V2000
   -7.2805   16.2699  -33.2468 H   0  0  0  0  0  0  0  0  0  0  0  0
   -6.5380   17.0810  -33.2190 C   0  0  0  0  0  0  0  0  0  0  0  0
   -5.9090   17.4930  -34.3970 C   0  0  0  0  0  0  0  0  0  0  0  0
   -6.1573   17.0059  -35.3515 H   0  0  0  0  0  0  0  0  0  0  0  0
   -4.9640   18.5240  -34.3640 C   0  0  0  0  0  0  0  0  0  0  0  0
   -4.4764   18.8508  -35.2943 H   0  0  0  0  0  0  0  0  0  0  0  0
   -4.6360   19.1430  -33.1470 C   0  0  0  0  0  0  0  0  0  0  0  0
   -3.6750   20.2990  -33.1210 C   0  0  0  0  0  0  0  0  0  0  0  0
   -2.9342   20.1753  -33.9247 H   0  0  0  0  0  0  0  0  0  0  0  0
   -3.1661   20.3245  -32.1461 H   0  0  0  0  0  0  0  0  0  0  0  0
   -4.3980   21.5520  -33.3180 N   0  0  0  0  0  0  0  0  0  0  0  0
   -4.7630   21.7640  -34.2730 H   0  0  0  0  0  0  0  0  0  0  0  0
   -4.9820   22.2400  -32.2020 C   0  0  0  0  0  0  0  0  0  0  0  0
   -4.2750   23.0870  -31.5110 N   0  0  0  0  0  0  0  0  0  0  0  0
   -3.9710   22.9460  -30.0880 C   0  0  0  0  0  0  0  0  0  0  0  0
   -2.9164   23.2049  -29.9125 H   0  0  0  0  0  0  0  0  0  0  0  0
   -4.1538   21.9063  -29.7789 H   0  0  0  0  0  0  0  0  0  0  0  0
   -4.8350   23.8480  -29.3000 N   0  0  0  0  0  0  0  0  0  0  0  0
   -5.1510   25.0650  -30.0790 C   0  0  0  0  0  0  0  0  0  0  0  0
   -5.2023   24.8055  -31.1467 H   0  0  0  0  0  0  0  0  0  0  0  0
   -4.3614   25.8100  -29.9012 H   0  0  0  0  0  0  0  0  0  0  0  0
   -6.4880   25.6600  -29.6450 C   0  0  0  0  0  0  0  0  0  0  0  0
   -6.5398   25.6830  -28.5465 H   0  0  0  0  0  0  0  0  0  0  0  0
   -6.5787   26.6834  -30.0379 H   0  0  0  0  0  0  0  0  0  0  0  0
   -7.3090   25.0423  -30.0379 H   0  0  0  0  0  0  0  0  0  0  0  0
   -4.2220   24.1710  -27.9860 C   0  0  0  0  0  0  0  0  0  0  0  0
   -4.5879   25.1494  -27.6412 H   0  0  0  0  0  0  0  0  0  0  0  0
   -4.4966   23.3980  -27.2532 H   0  0  0  0  0  0  0  0  0  0  0  0
   -2.7070   24.2180  -28.1310 C   0  0  0  0  0  0  0  0  0  0  0  0
   -2.2435   24.2324  -27.1335 H   0  0  0  0  0  0  0  0  0  0  0  0
   -2.3637   23.3301  -28.6821 H   0  0  0  0  0  0  0  0  0  0  0  0
   -2.4194   25.1255  -28.6821 H   0  0  0  0  0  0  0  0  0  0  0  0
   -6.3960   21.9800  -31.8250 C   0  0  0  0  0  0  0  0  0  0  0  0
   -7.2370   21.2440  -32.6790 C   0  0  0  0  0  0  0  0  0  0  0  0
   -6.8443   20.8318  -33.6202 H   0  0  0  0  0  0  0  0  0  0  0  0
   -8.5720   21.0390  -32.3270 C   0  0  0  0  0  0  0  0  0  0  0  0
   -9.2348   20.4635  -32.9899 H   0  0  0  0  0  0  0  0  0  0  0  0
   -9.0630   21.5650  -31.1340 C   0  0  0  0  0  0  0  0  0  0  0  0
  -10.1148   21.4124  -30.8506 H   0  0  0  0  0  0  0  0  0  0  0  0
   -8.2070   22.2870  -30.3030 C   0  0  0  0  0  0  0  0  0  0  0  0
   -8.5851   22.7065  -29.3590 H   0  0  0  0  0  0  0  0  0  0  0  0
   -6.9050   22.4750  -30.6550 N   0  0  0  0  0  0  0  0  0  0  0  0
   -6.3010   23.0150  -29.9970 H   0  0  0  0  0  0  0  0  0  0  0  0
   -5.2790   18.7280  -31.9670 C   0  0  0  0  0  0  0  0  0  0  0  0
   -5.0374   19.2147  -31.0106 H   0  0  0  0  0  0  0  0  0  0  0  0
   -6.2240   17.6990  -32.0060 C   0  0  0  0  0  0  0  0  0  0  0  0
   -6.7215   17.3751  -31.0799 H   0  0  0  0  0  0  0  0  0  0  0  0
  1  2  1  0
  2  3  2  0
  3  4  1  0
  3  5  1  0
  5  6  1  0
  5  7  2  0
  7  8  1  0
  8  9  1  0
  8 10  1  0
  8 11  1  0
 11 12  1  0
 11 13  1  0
 13 14  2  0
 14 15  1  0
 15 16  1  0
 15 17  1  0
 15 18  1  0
 18 19  1  0
 19 20  1  0
 19 21  1  0
 19 22  1  0
 22 23  1  0
 22 24  1  0
 22 25  1  0
 18 26  1  0
 26 27  1  0
 26 28  1  0
 26 29  1  0
 29 30  1  0
 29 31  1  0
 29 32  1  0
 13 33  1  0
 33 34  2  0
 34 35  1  0
 34 36  1  0
 36 37  1  0
 36 38  2  0
 38 39  1  0
 38 40  1  0
 40 41  1  0
 40 42  2  0
 42 43  1  0
  7 44  1  0
 44 45  1  0
 44 46  2  0
 46 47  1  0
 46  2  1  0
 42 33  1  0
M  CHG  1  42   1
M  END
>  <UniqueID>  (27) 
26

>  <SMILES>  (27) 
CCN(CC)C/N=C(\NCc1ccccc1)c1cccc[nH+]1

>  <Energy>  (27) 
48.48841528530307

>  <Genealogy>  (27) 
CCN(CC)CN=C(NCc1ccccc1)c1cccc[nH+]1 (protonated)
CCN(CC)C/N=C(\NCc1ccccc1)c1cccc[nH+]1 (cis-trans isomerization)
CCN(CC)C/N=C(\NCc1ccccc1)c1cccc[nH+]1 (3D coordinates assigned)
CCN(CC)C/N=C(\NCc1ccccc1)c1cccc[nH+]1 (optimized conformer: 48.48841528530307 kcal/mol)

>  <smiles>  (27) 
CCN(CC)CN=C(NCc1ccccc1)c1ccccn1

>  <score_type>  (27) 
oracle

>  <origin>  (27) 
adg

>  <m_score__min__energy>  (27) 
-6.9400000000000004

>  <m_primary>  (27) 
energy

$$$$
27:0
     RDKit          3D

 75 79  0  0  0  0  0  0  0  0999 V2000
   -1.4170   15.1740  -32.4810 C   0  0  0  0  0  0  0  0  0  0  0  0
   -2.1760   16.3760  -32.3910 O   0  0  0  0  0  0  0  0  0  0  0  0
   -3.2410   16.7130  -33.2430 C   0  0  0  0  0  0  0  0  0  0  0  0
   -4.5170   17.0490  -32.7460 C   0  0  0  0  0  0  0  0  0  0  0  0
   -5.5620   17.4120  -33.6170 C   0  0  0  0  0  0  0  0  0  0  0  0
   -6.9130   17.7040  -33.0580 C   0  0  0  0  0  0  0  0  0  0  0  0
   -7.6480   16.7320  -32.7170 O   0  0  0  0  0  0  0  0  0  0  0  0
   -7.4330   19.0580  -32.9520 N   0  0  1  0  0  0  0  0  0  0  0  0
   -8.5510   19.0420  -31.9760 C   0  0  0  0  0  0  0  0  0  0  0  0
   -9.5880   20.1540  -32.1920 C   0  0  0  0  0  0  0  0  0  0  0  0
   -9.1900   21.5570  -31.7000 C   0  0  0  0  0  0  0  0  0  0  0  0
   -7.8400   22.0030  -32.1160 N   0  0  0  0  0  0  0  0  0  0  0  0
   -7.6130   23.4320  -31.8390 C   0  0  0  0  0  0  0  0  0  0  0  0
   -6.6840   21.1690  -31.6910 C   0  0  0  0  0  0  0  0  0  0  0  0
   -6.3220   20.0190  -32.6580 C   0  0  0  0  0  0  0  0  0  0  0  0
   -5.3070   17.4460  -35.0000 C   0  0  0  0  0  0  0  0  0  0  0  0
   -4.0440   17.1210  -35.4980 C   0  0  0  0  0  0  0  0  0  0  0  0
   -3.0200   16.7250  -34.6320 C   0  0  0  0  0  0  0  0  0  0  0  0
   -1.7480   16.3510  -35.1850 N   0  0  0  0  0  0  0  0  0  0  0  0
   -0.7990   17.1910  -35.4790 C   0  0  0  0  0  0  0  0  0  0  0  0
   -0.7810   18.4170  -34.8750 N   0  0  0  0  0  0  0  0  0  0  0  0
    0.1930   19.3020  -35.2100 C   0  0  0  0  0  0  0  0  0  0  0  0
    1.1290   19.0000  -36.1540 C   0  0  0  0  0  0  0  0  0  0  0  0
    1.1230   17.7630  -36.7770 C   0  0  0  0  0  0  0  0  0  0  0  0
    0.1490   16.8770  -36.4210 N   0  0  0  0  0  0  0  0  0  0  0  0
    1.8990   20.1160  -36.3580 C   0  0  0  0  0  0  0  0  0  0  0  0
    1.3620   21.0760  -35.5070 C   0  0  0  0  0  0  0  0  0  0  0  0
    1.7810   22.4850  -35.5390 C   0  0  0  0  0  0  0  0  0  0  0  0
    0.8920   23.3790  -35.5220 O   0  0  0  0  0  0  0  0  0  0  0  0
    3.1750   22.8520  -35.5510 N   0  0  0  0  0  0  0  0  0  0  0  0
    3.5480   24.2460  -35.8060 C   0  0  0  0  0  0  0  0  0  0  0  0
    4.2060   21.8600  -35.2190 C   0  0  0  0  0  0  0  0  0  0  0  0
    0.3360   20.5690  -34.7570 N   0  0  0  0  0  0  0  0  0  0  0  0
   -0.5190   21.3000  -33.7890 C   0  0  0  0  0  0  0  0  0  0  0  0
   -0.0810   21.0830  -32.3350 C   0  0  0  0  0  0  0  0  0  0  0  0
   -1.3470   21.1200  -31.4790 C   0  0  0  0  0  0  0  0  0  0  0  0
   -2.5220   21.2330  -32.4370 C   0  0  0  0  0  0  0  0  0  0  0  0
   -1.9780   20.8500  -33.8000 C   0  0  0  0  0  0  0  0  0  0  0  0
   -1.1866   14.8092  -31.4691 H   0  0  0  0  0  0  0  0  0  0  0  0
   -1.9985   14.4128  -33.0217 H   0  0  0  0  0  0  0  0  0  0  0  0
   -0.4797   15.3718  -33.0217 H   0  0  0  0  0  0  0  0  0  0  0  0
   -4.6988   17.0272  -31.6613 H   0  0  0  0  0  0  0  0  0  0  0  0
   -7.8220   19.3420  -33.8810 H   0  0  0  0  0  0  0  0  0  0  0  0
   -9.0636   18.0718  -32.0538 H   0  0  0  0  0  0  0  0  0  0  0  0
   -8.1079   19.2101  -30.9833 H   0  0  0  0  0  0  0  0  0  0  0  0
   -9.7888   20.2210  -33.2714 H   0  0  0  0  0  0  0  0  0  0  0  0
  -10.4603   19.8656  -31.5871 H   0  0  0  0  0  0  0  0  0  0  0  0
   -9.9236   22.2773  -32.0910 H   0  0  0  0  0  0  0  0  0  0  0  0
   -9.1736   21.5060  -30.6013 H   0  0  0  0  0  0  0  0  0  0  0  0
   -7.5871   23.5951  -30.7515 H   0  0  0  0  0  0  0  0  0  0  0  0
   -6.6542   23.7431  -32.2794 H   0  0  0  0  0  0  0  0  0  0  0  0
   -8.4282   24.0249  -32.2794 H   0  0  0  0  0  0  0  0  0  0  0  0
   -5.8060   21.8248  -31.5958 H   0  0  0  0  0  0  0  0  0  0  0  0
   -6.9774   20.6946  -30.7429 H   0  0  0  0  0  0  0  0  0  0  0  0
   -5.9969   20.4645  -33.6097 H   0  0  0  0  0  0  0  0  0  0  0  0
   -5.5377   19.4338  -32.1556 H   0  0  0  0  0  0  0  0  0  0  0  0
   -6.1101   17.7313  -35.6954 H   0  0  0  0  0  0  0  0  0  0  0  0
   -3.8529   17.1768  -36.5798 H   0  0  0  0  0  0  0  0  0  0  0  0
    1.8784   17.5038  -37.5335 H   0  0  0  0  0  0  0  0  0  0  0  0
    2.7524   20.2274  -37.0430 H   0  0  0  0  0  0  0  0  0  0  0  0
    3.6880   24.7691  -34.8485 H   0  0  0  0  0  0  0  0  0  0  0  0
    4.4856   24.2755  -36.3804 H   0  0  0  0  0  0  0  0  0  0  0  0
    2.7504   24.7398  -36.3804 H   0  0  0  0  0  0  0  0  0  0  0  0
    4.2945   21.7749  -34.1259 H   0  0  0  0  0  0  0  0  0  0  0  0
    3.9251   20.8839  -35.6412 H   0  0  0  0  0  0  0  0  0  0  0  0
    5.1706   22.1783  -35.6412 H   0  0  0  0  0  0  0  0  0  0  0  0
   -0.4133   22.3457  -34.1137 H   0  0  0  0  0  0  0  0  0  0  0  0
    0.4170   20.1077  -32.2316 H   0  0  0  0  0  0  0  0  0  0  0  0
    0.6309   21.8595  -32.0184 H   0  0  0  0  0  0  0  0  0  0  0  0
   -1.4298   20.1976  -30.8854 H   0  0  0  0  0  0  0  0  0  0  0  0
   -1.3255   21.9683  -30.7791 H   0  0  0  0  0  0  0  0  0  0  0  0
   -3.3276   20.5460  -32.1386 H   0  0  0  0  0  0  0  0  0  0  0  0
   -2.9476   22.2473  -32.4399 H   0  0  0  0  0  0  0  0  0  0  0  0
   -2.0452   19.7624  -33.9506 H   0  0  0  0  0  0  0  0  0  0  0  0
   -2.5469   21.3187  -34.6165 H   0  0  0  0  0  0  0  0  0  0  0  0
  1  2  1  0
  2  3  1  0
  3  4  2  0
  4  5  1  0
  5  6  1  0
  6  7  2  0
  6  8  1  0
  8  9  1  0
  9 10  1  0
 10 11  1  0
 11 12  1  0
 12 13  1  0
 12 14  1  0
 14 15  1  0
  5 16  2  0
 16 17  1  0
 17 18  2  0
 18 19  1  0
 19 20  2  3
 20 21  1  0
 21 22  2  0
 22 23  1  0
 23 24  2  0
 24 25  1  0
 23 26  1  0
 26 27  2  0
 27 28  1  0
 28 29  2  0
 28 30  1  0
 30 31  1  0
 30 32  1  0
 27 33  1  0
 33 34  1  0
 34 35  1  0
 35 36  1  0
 36 37  1  0
 37 38  1  0
 18  3  1  0
 25 20  1  0
 38 34  1  0
 15  8  1  0
 33 22  1  0
  1 39  1  0
  1 40  1  0
  1 41  1  0
  4 42  1  0
  8 43  1  6
  9 44  1  0
  9 45  1  0
 10 46  1  0
 10 47  1  0
 11 48  1  0
 11 49  1  0
 13 50  1  0
 13 51  1  0
 13 52  1  0
 14 53  1  0
 14 54  1  0
 15 55  1  0
 15 56  1  0
 16 57  1  0
 17 58  1  0
 24 59  1  0
 26 60  1  0
 31 61  1  0
 31 62  1  0
 31 63  1  0
 32 64  1  0
 32 65  1  0
 32 66  1  0
 34 67  1  0
 35 68  1  0
 35 69  1  0
 36 70  1  0
 36 71  1  0
 37 72  1  0
 37 73  1  0
 38 74  1  0
 38 75  1  0
M  CHG  2   8   1  25  -1
M  END
>  <UniqueID>  (28) 
27

>  <SMILES>  (28) 
COc1cc(C(=O)[N@H+]2CCCN(C)CC2)ccc1N=c1nc2c(c[n-]1)cc(C(=O)N(C)C)n2C1CCCC1

>  <Energy>  (28) 
157.18089548674627

>  <Genealogy>  (28) 
COc1cc(C(=O)[NH+]2CCCN(C)CC2)ccc1N=c1nc2c(c[n-]1)cc(C(=O)N(C)C)n2C1CCCC1 (protonated)
COc1cc(C(=O)[N@H+]2CCCN(C)CC2)ccc1N=c1nc2c(c[n-]1)cc(C(=O)N(C)C)n2C1CCCC1 (chirality)
COc1cc(C(=O)[N@H+]2CCCN(C)CC2)ccc1N=c1nc2c(c[n-]1)cc(C(=O)N(C)C)n2C1CCCC1 (3D coordinates assigned)
COc1cc(C(=O)[N@H+]2CCCN(C)CC2)ccc1N=c1nc2c(c[n-]1)cc(C(=O)N(C)C)n2C1CCCC1 (nonaromatic ring conformer: 157.18089548674627 kcal/mol)

>  <smiles>  (28) 
COc1cc(C(=O)N2CCCN(C)CC2)ccc1N=c1nc2c(c[nH]1)cc(C(=O)N(C)C)n2C1CCCC1

>  <score_type>  (28) 
oracle

>  <origin>  (28) 
adg

>  <m_score__min__energy>  (28) 
-8.4399999999999995

>  <m_primary>  (28) 
energy

$$$$
28:0
     RDKit          3D

 43 44  0  0  0  0  0  0  0  0999 V2000
   -9.8490   21.2850  -32.0740 C   0  0  0  0  0  0  0  0  0  0  0  0
   -8.4120   20.8660  -32.0600 C   0  0  0  0  0  0  0  0  0  0  0  0
   -7.9420   19.8770  -32.8720 N   0  0  0  0  0  0  0  0  0  0  0  0
   -6.6100   19.6690  -32.7340 C   0  0  0  0  0  0  0  0  0  0  0  0
   -5.8580   18.6480  -33.4920 C   0  0  0  0  0  0  0  0  0  0  0  0
   -4.5160   18.8480  -33.8590 C   0  0  0  0  0  0  0  0  0  0  0  0
   -3.8430   17.8530  -34.5710 C   0  0  0  0  0  0  0  0  0  0  0  0
   -4.5040   16.6720  -34.9100 C   0  0  0  0  0  0  0  0  0  0  0  0
   -5.8360   16.5030  -34.5300 C   0  0  0  0  0  0  0  0  0  0  0  0
   -6.4760   17.4830  -33.8390 N   0  0  0  0  0  0  0  0  0  0  0  0
   -5.9610   20.7280  -31.5940 S   0  0  0  0  0  0  0  0  0  0  0  0
   -7.4350   21.4720  -31.2660 C   0  0  0  0  0  0  0  0  0  0  0  0
   -7.6250   22.6050  -30.3000 C   0  0  0  0  0  0  0  0  0  0  0  0
   -7.3240   23.9060  -30.9400 N   0  0  0  0  0  0  0  0  0  0  0  0
   -6.7470   23.6980  -32.2810 C   0  0  0  0  0  0  0  0  0  0  0  0
   -6.3900   24.6980  -30.1070 C   0  0  0  0  0  0  0  0  0  0  0  0
   -5.1880   25.1890  -30.9310 C   0  0  0  0  0  0  0  0  0  0  0  0
   -3.9190   24.5780  -30.4760 N   0  0  0  0  0  0  0  0  0  0  0  0
   -3.9570   24.3700  -29.0200 C   0  0  0  0  0  0  0  0  0  0  0  0
   -3.6760   23.2880  -31.1470 C   0  0  0  0  0  0  0  0  0  0  0  0
  -10.2103   21.3903  -31.0404 H   0  0  0  0  0  0  0  0  0  0  0  0
   -9.9449   22.2485  -32.5960 H   0  0  0  0  0  0  0  0  0  0  0  0
  -10.4478   20.5240  -32.5960 H   0  0  0  0  0  0  0  0  0  0  0  0
   -8.5480   19.3380  -33.5290 H   0  0  0  0  0  0  0  0  0  0  0  0
   -4.0001   19.7808  -33.5875 H   0  0  0  0  0  0  0  0  0  0  0  0
   -2.7931   18.0001  -34.8642 H   0  0  0  0  0  0  0  0  0  0  0  0
   -3.9811   15.8831  -35.4705 H   0  0  0  0  0  0  0  0  0  0  0  0
   -6.3684   15.5761  -34.7898 H   0  0  0  0  0  0  0  0  0  0  0  0
   -8.6682   22.6088  -29.9512 H   0  0  0  0  0  0  0  0  0  0  0  0
   -6.9357   22.4632  -29.4546 H   0  0  0  0  0  0  0  0  0  0  0  0
   -5.7163   23.3264  -32.1831 H   0  0  0  0  0  0  0  0  0  0  0  0
   -7.3517   22.9613  -32.8301 H   0  0  0  0  0  0  0  0  0  0  0  0
   -6.7426   24.6511  -32.8301 H   0  0  0  0  0  0  0  0  0  0  0  0
   -6.9241   25.5684  -29.6981 H   0  0  0  0  0  0  0  0  0  0  0  0
   -6.0166   24.0553  -29.2961 H   0  0  0  0  0  0  0  0  0  0  0  0
   -5.3501   24.9269  -31.9870 H   0  0  0  0  0  0  0  0  0  0  0  0
   -5.1076   26.2782  -30.8000 H   0  0  0  0  0  0  0  0  0  0  0  0
   -3.7820   25.3278  -28.5081 H   0  0  0  0  0  0  0  0  0  0  0  0
   -4.9422   23.9748  -28.7317 H   0  0  0  0  0  0  0  0  0  0  0  0
   -3.1752   23.6519  -28.7317 H   0  0  0  0  0  0  0  0  0  0  0  0
   -3.5282   22.5033  -30.3904 H   0  0  0  0  0  0  0  0  0  0  0  0
   -4.5419   23.0328  -31.7756 H   0  0  0  0  0  0  0  0  0  0  0  0
   -2.7766   23.3654  -31.7756 H   0  0  0  0  0  0  0  0  0  0  0  0
  1  2  1  0
  2  3  1  0
  3  4  2  0
  4  5  1  0
  5  6  2  0
  6  7  1  0
  7  8  2  0
  8  9  1  0
  9 10  2  0
  4 11  1  0
 11 12  1  0
 12 13  1  0
 13 14  1  0
 14 15  1  0
 14 16  1  0
 16 17  1  0
 17 18  1  0
 18 19  1  0
 18 20  1  0
 12  2  2  0
 10  5  1  0
  1 21  1  0
  1 22  1  0
  1 23  1  0
  3 24  1  0
  6 25  1  0
  7 26  1  0
  8 27  1  0
  9 28  1  0
 13 29  1  0
 13 30  1  0
 15 31  1  0
 15 32  1  0
 15 33  1  0
 16 34  1  0
 16 35  1  0
 17 36  1  0
 17 37  1  0
 19 38  1  0
 19 39  1  0
 19 40  1  0
 20 41  1  0
 20 42  1  0
 20 43  1  0
M  CHG  1   3   1
M  END
>  <UniqueID>  (29) 
28

>  <SMILES>  (29) 
Cc1[nH+]c(-c2ccccn2)sc1CN(C)CCN(C)C

>  <Energy>  (29) 
70.1898724860622

>  <Genealogy>  (29) 
Cc1[nH+]c(-c2ccccn2)sc1CN(C)CCN(C)C (protonated)
Cc1[nH+]c(-c2ccccn2)sc1CN(C)CCN(C)C (3D coordinates assigned)
Cc1[nH+]c(-c2ccccn2)sc1CN(C)CCN(C)C (optimized conformer: 70.1898724860622 kcal/mol)

>  <smiles>  (29) 
Cc1nc(-c2ccccn2)sc1CN(C)CCN(C)C

>  <score_type>  (29) 
oracle

>  <origin>  (29) 
adg

>  <m_score__min__energy>  (29) 
-6.7000000000000002

>  <m_primary>  (29) 
energy

$$$$
29:0
     RDKit          3D

 38 40  0  0  0  0  0  0  0  0999 V2000
   -5.7050   13.1420  -33.8010 F   0  0  0  0  0  0  0  0  0  0  0  0
   -4.5810   13.9170  -34.0120 C   0  0  0  0  0  0  0  0  0  0  0  0
   -4.0700   14.3100  -32.7900 F   0  0  0  0  0  0  0  0  0  0  0  0
   -4.9440   15.0620  -34.7790 O   0  0  0  0  0  0  0  0  0  0  0  0
   -5.4460   16.2580  -34.2410 C   0  0  0  0  0  0  0  0  0  0  0  0
   -4.8740   17.4640  -34.6600 C   0  0  0  0  0  0  0  0  0  0  0  0
   -5.3360   18.6830  -34.1560 C   0  0  0  0  0  0  0  0  0  0  0  0
   -6.3830   18.7170  -33.2180 C   0  0  0  0  0  0  0  0  0  0  0  0
   -6.8810   20.0080  -32.6810 C   0  0  0  0  0  0  0  0  0  0  0  0
   -5.9790   21.0060  -32.2800 C   0  0  0  0  0  0  0  0  0  0  0  0
   -6.4790   22.2150  -31.7700 C   0  0  0  0  0  0  0  0  0  0  0  0
   -5.5980   23.2770  -31.3420 N   0  0  0  0  0  0  0  0  0  0  0  0
   -4.1510   23.0330  -31.2860 C   0  0  0  0  0  0  0  0  0  0  0  0
   -3.4960   23.9510  -30.2510 C   0  0  0  0  0  0  0  0  0  0  0  0
   -3.8630   25.2980  -30.4720 O   0  0  0  0  0  0  0  0  0  0  0  0
   -5.2490   25.4540  -30.2430 C   0  0  0  0  0  0  0  0  0  0  0  0
   -6.0650   24.6680  -31.2740 C   0  0  0  0  0  0  0  0  0  0  0  0
   -7.8260   22.3780  -31.6710 N   0  0  0  0  0  0  0  0  0  0  0  0
   -8.6890   21.4070  -32.0590 C   0  0  0  0  0  0  0  0  0  0  0  0
   -8.2210   20.2350  -32.5600 N   0  0  0  0  0  0  0  0  0  0  0  0
   -6.9580   17.5040  -32.7990 C   0  0  0  0  0  0  0  0  0  0  0  0
   -6.4940   16.2860  -33.3030 C   0  0  0  0  0  0  0  0  0  0  0  0
   -3.8182   13.3416  -34.5570 H   0  0  0  0  0  0  0  0  0  0  0  0
   -4.0535   17.4528  -35.3925 H   0  0  0  0  0  0  0  0  0  0  0  0
   -4.8770   19.6231  -34.4958 H   0  0  0  0  0  0  0  0  0  0  0  0
   -4.8944   20.8431  -32.3642 H   0  0  0  0  0  0  0  0  0  0  0  0
   -3.9706   21.9845  -31.0066 H   0  0  0  0  0  0  0  0  0  0  0  0
   -3.7151   23.2405  -32.2744 H   0  0  0  0  0  0  0  0  0  0  0  0
   -3.8207   23.6492  -29.2443 H   0  0  0  0  0  0  0  0  0  0  0  0
   -2.4034   23.8634  -30.3429 H   0  0  0  0  0  0  0  0  0  0  0  0
   -5.4913   25.0856  -29.2352 H   0  0  0  0  0  0  0  0  0  0  0  0
   -5.5024   26.5206  -30.3333 H   0  0  0  0  0  0  0  0  0  0  0  0
   -7.1257   24.6807  -30.9830 H   0  0  0  0  0  0  0  0  0  0  0  0
   -5.9390   25.1360  -32.2615 H   0  0  0  0  0  0  0  0  0  0  0  0
   -9.7731   21.5694  -31.9675 H   0  0  0  0  0  0  0  0  0  0  0  0
   -8.9120   19.5160  -32.8700 H   0  0  0  0  0  0  0  0  0  0  0  0
   -7.7801   17.5140  -32.0682 H   0  0  0  0  0  0  0  0  0  0  0  0
   -6.9506   15.3442  -32.9645 H   0  0  0  0  0  0  0  0  0  0  0  0
  1  2  1  0
  2  3  1  0
  2  4  1  0
  4  5  1  0
  5  6  2  0
  6  7  1  0
  7  8  2  0
  8  9  1  0
  9 10  2  0
 10 11  1  0
 11 12  1  0
 12 13  1  0
 13 14  1  0
 14 15  1  0
 15 16  1  0
 16 17  1  0
 11 18  2  0
 18 19  1  0
 19 20  2  0
  8 21  1  0
 21 22  2  0
 22  5  1  0
 20  9  1  0
 17 12  1  0
  2 23  1  0
  6 24  1  0
  7 25  1  0
 10 26  1  0
 13 27  1  0
 13 28  1  0
 14 29  1  0
 14 30  1  0
 16 31  1  0
 16 32  1  0
 17 33  1  0
 17 34  1  0
 19 35  1  0
 20 36  1  0
 21 37  1  0
 22 38  1  0
M  CHG  1  20   1
M  END
>  <UniqueID>  (30) 
29

>  <SMILES>  (30) 
FC(F)Oc1ccc(-c2cc(N3CCOCC3)nc[nH+]2)cc1

>  <Energy>  (30) 
48.48309179457507

>  <Genealogy>  (30) 
FC(F)Oc1ccc(-c2cc(N3CCOCC3)nc[nH+]2)cc1 (protonated)
FC(F)Oc1ccc(-c2cc(N3CCOCC3)nc[nH+]2)cc1 (3D coordinates assigned)
FC(F)Oc1ccc(-c2cc(N3CCOCC3)nc[nH+]2)cc1 (nonaromatic ring conformer: 48.48309179457507 kcal/mol)

>  <smiles>  (30) 
FC(F)Oc1ccc(-c2cc(N3CCOCC3)ncn2)cc1

>  <score_type>  (30) 
oracle

>  <origin>  (30) 
adg

>  <m_score__min__energy>  (30) 
-6.8600000000000003

>  <m_primary>  (30) 
energy

$$$$
30:0
     RDKit          3D

 47 49  0  0  0  0  0  0  0  0999 V2000
   -9.0870   18.5760  -31.6260 C   0  0  0  0  0  0  0  0  0  0  0  0
   -8.5230   19.9600  -31.8080 C   0  0  0  0  0  0  0  0  0  0  0  0
   -9.0780   20.9780  -31.0830 N   0  0  0  0  0  0  0  0  0  0  0  0
   -8.6050   22.2500  -31.1420 C   0  0  0  0  0  0  0  0  0  0  0  0
   -7.5150   22.5540  -31.9480 C   0  0  0  0  0  0  0  0  0  0  0  0
   -6.9370   21.5520  -32.7210 C   0  0  0  0  0  0  0  0  0  0  0  0
   -7.4580   20.2440  -32.7080 C   0  0  0  0  0  0  0  0  0  0  0  0
   -6.8420   19.2200  -33.6530 C   0  0  0  0  0  0  0  0  0  0  0  0
   -5.6530   18.5170  -33.1110 N   0  0  0  0  0  0  0  0  0  0  0  0
   -4.4240   18.5670  -33.9370 C   0  0  0  0  0  0  0  0  0  0  0  0
   -3.2190   19.1730  -33.1990 C   0  0  0  0  0  0  0  0  0  0  0  0
   -3.6640   20.2070  -32.2570 N   0  0  0  0  0  0  0  0  0  0  0  0
   -3.1880   21.5710  -32.3750 C   0  0  0  0  0  0  0  0  0  0  0  0
   -2.5230   21.9150  -33.3900 O   0  0  0  0  0  0  0  0  0  0  0  0
   -3.4820   22.6060  -31.3620 C   0  0  0  0  0  0  0  0  0  0  0  0
   -2.7530   22.8170  -30.2030 C   0  0  0  0  0  0  0  0  0  0  0  0
   -3.3830   23.8820  -29.5950 C   0  0  0  0  0  0  0  0  0  0  0  0
   -2.9590   24.5450  -28.3220 C   0  0  0  0  0  0  0  0  0  0  0  0
   -4.4330   24.2560  -30.3530 N   0  0  0  0  0  0  0  0  0  0  0  0
   -5.3420   25.3660  -30.0970 C   0  0  0  0  0  0  0  0  0  0  0  0
   -4.5000   23.4860  -31.4280 N   0  0  0  0  0  0  0  0  0  0  0  0
   -4.6350   19.8130  -31.2270 C   0  0  0  0  0  0  0  0  0  0  0  0
   -5.4420   18.5720  -31.6510 C   0  0  0  0  0  0  0  0  0  0  0  0
   -9.1770   18.3550  -30.5522 H   0  0  0  0  0  0  0  0  0  0  0  0
  -10.0797   18.5198  -32.0964 H   0  0  0  0  0  0  0  0  0  0  0  0
   -8.4163   17.8419  -32.0964 H   0  0  0  0  0  0  0  0  0  0  0  0
   -9.8890   20.7880  -30.4520 H   0  0  0  0  0  0  0  0  0  0  0  0
   -9.0866   23.0420  -30.5497 H   0  0  0  0  0  0  0  0  0  0  0  0
   -7.1127   23.5774  -31.9747 H   0  0  0  0  0  0  0  0  0  0  0  0
   -6.0640   21.7840  -33.3488 H   0  0  0  0  0  0  0  0  0  0  0  0
   -7.6080   18.4667  -33.8894 H   0  0  0  0  0  0  0  0  0  0  0  0
   -6.4987   19.7778  -34.5367 H   0  0  0  0  0  0  0  0  0  0  0  0
   -4.1668   17.5421  -34.2425 H   0  0  0  0  0  0  0  0  0  0  0  0
   -4.6375   19.2156  -34.7994 H   0  0  0  0  0  0  0  0  0  0  0  0
   -2.6961   18.3791  -32.6455 H   0  0  0  0  0  0  0  0  0  0  0  0
   -2.5413   19.6289  -33.9358 H   0  0  0  0  0  0  0  0  0  0  0  0
   -1.8722   22.2614  -29.8486 H   0  0  0  0  0  0  0  0  0  0  0  0
   -3.3304   23.9643  -27.4648 H   0  0  0  0  0  0  0  0  0  0  0  0
   -1.8608   24.5951  -28.2828 H   0  0  0  0  0  0  0  0  0  0  0  0
   -3.3741   25.5629  -28.2828 H   0  0  0  0  0  0  0  0  0  0  0  0
   -5.4553   25.5043  -29.0116 H   0  0  0  0  0  0  0  0  0  0  0  0
   -4.9335   26.2848  -30.5431 H   0  0  0  0  0  0  0  0  0  0  0  0
   -6.3233   25.1467  -30.5431 H   0  0  0  0  0  0  0  0  0  0  0  0
   -4.0949   19.5862  -30.2959 H   0  0  0  0  0  0  0  0  0  0  0  0
   -5.3381   20.6463  -31.0815 H   0  0  0  0  0  0  0  0  0  0  0  0
   -4.8958   17.6701  -31.3376 H   0  0  0  0  0  0  0  0  0  0  0  0
   -6.4290   18.6297  -31.1688 H   0  0  0  0  0  0  0  0  0  0  0  0
  1  2  1  0
  2  3  2  0
  3  4  1  0
  4  5  2  0
  5  6  1  0
  6  7  2  0
  7  8  1  0
  8  9  1  0
  9 10  1  0
 10 11  1  0
 11 12  1  0
 12 13  1  0
 13 14  2  0
 13 15  1  0
 15 16  1  0
 16 17  2  0
 17 18  1  0
 17 19  1  0
 19 20  1  0
 19 21  1  0
 12 22  1  0
 22 23  1  0
  7  2  1  0
 23  9  1  0
 21 15  2  0
  1 24  1  0
  1 25  1  0
  1 26  1  0
  3 27  1  0
  4 28  1  0
  5 29  1  0
  6 30  1  0
  8 31  1  0
  8 32  1  0
 10 33  1  0
 10 34  1  0
 11 35  1  0
 11 36  1  0
 16 37  1  0
 18 38  1  0
 18 39  1  0
 18 40  1  0
 20 41  1  0
 20 42  1  0
 20 43  1  0
 22 44  1  0
 22 45  1  0
 23 46  1  0
 23 47  1  0
M  CHG  1   3   1
M  END
>  <UniqueID>  (31) 
30

>  <SMILES>  (31) 
Cc1[nH+]cccc1CN1CCN(C(=O)c2cc(C)n(C)n2)CC1

>  <Energy>  (31) 
92.35632772827762

>  <Genealogy>  (31) 
Cc1[nH+]cccc1CN1CCN(C(=O)c2cc(C)n(C)n2)CC1 (protonated)
Cc1[nH+]cccc1CN1CCN(C(=O)c2cc(C)n(C)n2)CC1 (3D coordinates assigned)
Cc1[nH+]cccc1CN1CCN(C(=O)c2cc(C)n(C)n2)CC1 (nonaromatic ring conformer: 92.35632772827762 kcal/mol)

>  <smiles>  (31) 
Cc1ncccc1CN1CCN(C(=O)c2cc(C)n(C)n2)CC1

>  <score_type>  (31) 
oracle

>  <origin>  (31) 
adg

>  <m_score__min__energy>  (31) 
-7.2699999999999996

>  <m_primary>  (31) 
energy

$$$$
31:0
     RDKit          3D

 33 35  0  0  0  0  0  0  0  0999 V2000
   -1.9020   21.5150  -32.2770 C   0  0  0  0  0  0  0  0  0  0  0  0
   -3.2250   20.9330  -32.7000 C   0  0  0  0  0  0  0  0  0  0  0  0
   -3.2240   19.8090  -33.5440 C   0  0  0  0  0  0  0  0  0  0  0  0
   -4.4240   19.2100  -33.9330 C   0  0  0  0  0  0  0  0  0  0  0  0
   -5.6400   19.7260  -33.4860 C   0  0  0  0  0  0  0  0  0  0  0  0
   -5.6610   20.8540  -32.6640 C   0  0  0  0  0  0  0  0  0  0  0  0
   -4.4650   21.4860  -32.2870 C   0  0  0  0  0  0  0  0  0  0  0  0
   -4.5560   22.6990  -31.4510 C   0  0  0  0  0  0  0  0  0  0  0  0
   -3.4930   23.3490  -31.0210 O   0  0  0  0  0  0  0  0  0  0  0  0
   -3.8960   24.3830  -30.3220 C   0  0  0  0  0  0  0  0  0  0  0  0
   -3.0410   25.2920  -29.7150 O   0  0  0  0  0  0  0  0  0  0  0  0
   -5.2700   24.4190  -30.2770 C   0  0  0  0  0  0  0  0  0  0  0  0
   -6.0550   25.3510  -29.6040 O   0  0  0  0  0  0  0  0  0  0  0  0
   -5.7170   23.3300  -30.9990 C   0  0  0  0  0  0  0  0  0  0  0  0
   -7.1230   22.9000  -31.1710 C   0  0  0  0  0  0  0  0  0  0  0  0
   -7.6780   21.9140  -30.3370 C   0  0  0  0  0  0  0  0  0  0  0  0
   -9.0030   21.5040  -30.5150 C   0  0  0  0  0  0  0  0  0  0  0  0
   -9.7860   22.0770  -31.5190 C   0  0  0  0  0  0  0  0  0  0  0  0
   -9.2450   23.0650  -32.3470 C   0  0  0  0  0  0  0  0  0  0  0  0
   -7.9210   23.4780  -32.1740 C   0  0  0  0  0  0  0  0  0  0  0  0
   -1.8465   21.5394  -31.1787 H   0  0  0  0  0  0  0  0  0  0  0  0
   -1.0849   20.8932  -32.6717 H   0  0  0  0  0  0  0  0  0  0  0  0
   -1.8082   22.5375  -32.6717 H   0  0  0  0  0  0  0  0  0  0  0  0
   -2.2687   19.3972  -33.9016 H   0  0  0  0  0  0  0  0  0  0  0  0
   -4.4100   18.3300  -34.5929 H   0  0  0  0  0  0  0  0  0  0  0  0
   -6.5835   19.2437  -33.7814 H   0  0  0  0  0  0  0  0  0  0  0  0
   -6.6231   21.2514  -32.3084 H   0  0  0  0  0  0  0  0  0  0  0  0
   -5.6430   26.0010  -28.9450 H   0  0  0  0  0  0  0  0  0  0  0  0
   -7.0674   21.4630  -29.5409 H   0  0  0  0  0  0  0  0  0  0  0  0
   -9.4295   20.7280  -29.8623 H   0  0  0  0  0  0  0  0  0  0  0  0
  -10.8274   21.7514  -31.6583 H   0  0  0  0  0  0  0  0  0  0  0  0
   -9.8626   23.5183  -33.1363 H   0  0  0  0  0  0  0  0  0  0  0  0
   -7.5014   24.2587  -32.8255 H   0  0  0  0  0  0  0  0  0  0  0  0
  1  2  1  0
  2  3  2  0
  3  4  1  0
  4  5  2  0
  5  6  1  0
  6  7  2  0
  7  8  1  0
  8  9  1  0
  9 10  1  0
 10 11  1  0
 10 12  2  0
 12 13  1  0
 12 14  1  0
 14 15  1  0
 15 16  2  0
 16 17  1  0
 17 18  2  0
 18 19  1  0
 19 20  2  0
  7  2  1  0
 14  8  2  0
 20 15  1  0
  1 21  1  0
  1 22  1  0
  1 23  1  0
  3 24  1  0
  4 25  1  0
  5 26  1  0
  6 27  1  0
 13 28  1  0
 16 29  1  0
 17 30  1  0
 18 31  1  0
 19 32  1  0
 20 33  1  0
M  CHG  1  11  -1
M  END
>  <UniqueID>  (32) 
31

>  <SMILES>  (32) 
Cc1ccccc1-c1oc([O-])c(O)c1-c1ccccc1

>  <Energy>  (32) 
74.65274647324836

>  <Genealogy>  (32) 
Cc1ccccc1-c1oc([O-])c(O)c1-c1ccccc1 (protonated)
Cc1ccccc1-c1oc([O-])c(O)c1-c1ccccc1 (3D coordinates assigned)
Cc1ccccc1-c1oc([O-])c(O)c1-c1ccccc1 (optimized conformer: 74.65274647324836 kcal/mol)

>  <smiles>  (32) 
Cc1ccccc1-c1oc(O)c(O)c1-c1ccccc1

>  <score_type>  (32) 
oracle

>  <origin>  (32) 
adg

>  <m_score__min__energy>  (32) 
-9.3100000000000005

>  <m_primary>  (32) 
energy

$$$$
32:0
     RDKit          3D

 48 48  0  0  0  0  0  0  0  0999 V2000
   -2.7640   20.8230  -33.2630 C   0  0  0  0  0  0  0  0  0  0  0  0
   -4.0750   20.8460  -33.0070 C   0  0  0  0  0  0  0  0  0  0  0  0
   -4.7930   22.1270  -32.6850 C   0  0  0  0  0  0  0  0  0  0  0  0
   -6.2520   21.8680  -32.3980 C   0  0  0  0  0  0  0  0  0  0  0  0
   -6.8100   20.6190  -32.7190 C   0  0  0  0  0  0  0  0  0  0  0  0
   -8.1570   20.3620  -32.4650 C   0  0  0  0  0  0  0  0  0  0  0  0
   -8.9580   21.3420  -31.8810 C   0  0  0  0  0  0  0  0  0  0  0  0
   -8.4160   22.5850  -31.5470 C   0  0  0  0  0  0  0  0  0  0  0  0
   -7.0560   22.8630  -31.8000 C   0  0  0  0  0  0  0  0  0  0  0  0
   -6.4620   24.1000  -31.4860 O   0  0  0  0  0  0  0  0  0  0  0  0
   -6.3570   24.7000  -30.1920 C   0  0  0  0  0  0  0  0  0  0  0  0
   -4.8850   24.9180  -29.7890 C   0  0  2  0  0  0  0  0  0  0  0  0
   -4.2670   25.7380  -30.7470 O   0  0  0  0  0  0  0  0  0  0  0  0
   -4.0890   23.6040  -29.6940 C   0  0  0  0  0  0  0  0  0  0  0  0
   -2.9660   23.5840  -30.6490 N   0  0  0  0  0  0  0  0  0  0  0  0
   -1.7240   23.0310  -30.0790 C   0  0  2  0  0  0  0  0  0  0  0  0
   -2.0470   21.8020  -29.2190 C   0  0  0  0  0  0  0  0  0  0  0  0
   -1.0180   24.0650  -29.2370 C   0  0  0  0  0  0  0  0  0  0  0  0
   -0.0250   23.7260  -28.5350 O   0  0  0  0  0  0  0  0  0  0  0  0
   -1.5060   25.4130  -29.1920 N   0  0  0  0  0  0  0  0  0  0  0  0
   -0.8960   26.4410  -28.3520 C   0  0  0  0  0  0  0  0  0  0  0  0
   -1.2070   26.1870  -26.8810 C   0  0  0  0  0  0  0  0  0  0  0  0
   -2.2657   19.8703  -33.4956 H   0  0  0  0  0  0  0  0  0  0  0  0
   -2.1829   21.7567  -33.2412 H   0  0  0  0  0  0  0  0  0  0  0  0
   -4.6431   19.9044  -33.0324 H   0  0  0  0  0  0  0  0  0  0  0  0
   -4.3282   22.5882  -31.8011 H   0  0  0  0  0  0  0  0  0  0  0  0
   -4.7190   22.7995  -33.5523 H   0  0  0  0  0  0  0  0  0  0  0  0
   -6.1808   19.8394  -33.1733 H   0  0  0  0  0  0  0  0  0  0  0  0
   -8.5881   19.3842  -32.7260 H   0  0  0  0  0  0  0  0  0  0  0  0
  -10.0201   21.1357  -31.6826 H   0  0  0  0  0  0  0  0  0  0  0  0
   -9.0535   23.3524  -31.0836 H   0  0  0  0  0  0  0  0  0  0  0  0
   -6.8717   25.6721  -30.2057 H   0  0  0  0  0  0  0  0  0  0  0  0
   -6.8193   24.0229  -29.4587 H   0  0  0  0  0  0  0  0  0  0  0  0
   -4.8877   25.3828  -28.7920 H   0  0  0  0  0  0  0  0  0  0  0  0
   -4.2030   25.2100  -31.5860 H   0  0  0  0  0  0  0  0  0  0  0  0
   -3.6925   23.4990  -28.6733 H   0  0  0  0  0  0  0  0  0  0  0  0
   -4.7654   22.7716  -29.9381 H   0  0  0  0  0  0  0  0  0  0  0  0
   -2.7740   24.5790  -30.9190 H   0  0  0  0  0  0  0  0  0  0  0  0
   -1.0620   22.7375  -30.9070 H   0  0  0  0  0  0  0  0  0  0  0  0
   -1.9764   22.0705  -28.1546 H   0  0  0  0  0  0  0  0  0  0  0  0
   -3.0667   21.4555  -29.4429 H   0  0  0  0  0  0  0  0  0  0  0  0
   -1.3294   20.9989  -29.4429 H   0  0  0  0  0  0  0  0  0  0  0  0
   -2.3740   25.6580  -29.7200 H   0  0  0  0  0  0  0  0  0  0  0  0
    0.1941   26.4275  -28.4985 H   0  0  0  0  0  0  0  0  0  0  0  0
   -1.3064   27.4210  -28.6369 H   0  0  0  0  0  0  0  0  0  0  0  0
   -0.5069   26.7588  -26.2542 H   0  0  0  0  0  0  0  0  0  0  0  0
   -2.2374   26.5051  -26.6638 H   0  0  0  0  0  0  0  0  0  0  0  0
   -1.1011   25.1139  -26.6638 H   0  0  0  0  0  0  0  0  0  0  0  0
  1  2  2  0
  2  3  1  0
  3  4  1  0
  4  5  2  0
  5  6  1  0
  6  7  2  0
  7  8  1  0
  8  9  2  0
  9 10  1  0
 10 11  1  0
 11 12  1  0
 12 13  1  0
 12 14  1  0
 14 15  1  0
 15 16  1  0
 16 17  1  0
 16 18  1  0
 18 19  2  0
 18 20  1  0
 20 21  1  0
 21 22  1  0
  9  4  1  0
  1 23  1  0
  1 24  1  0
  2 25  1  0
  3 26  1  0
  3 27  1  0
  5 28  1  0
  6 29  1  0
  7 30  1  0
  8 31  1  0
 11 32  1  0
 11 33  1  0
 12 34  1  1
 13 35  1  0
 14 36  1  0
 14 37  1  0
 15 38  1  0
 16 39  1  6
 17 40  1  0
 17 41  1  0
 17 42  1  0
 20 43  1  0
 21 44  1  0
 21 45  1  0
 22 46  1  0
 22 47  1  0
 22 48  1  0
M  END
>  <UniqueID>  (33) 
32

>  <SMILES>  (33) 
C=CCc1ccccc1OC[C@H](O)CN[C@H](C)C(=O)NCC

>  <Energy>  (33) 
34.79664463018883

>  <Genealogy>  (33) 
C=CCc1ccccc1OC[C@H](O)CN[C@H](C)C(=O)NCC (chirality)
C=CCc1ccccc1OC[C@H](O)CN[C@H](C)C(=O)NCC (3D coordinates assigned)
C=CCc1ccccc1OC[C@H](O)CN[C@H](C)C(=O)NCC (optimized conformer: 34.79664463018883 kcal/mol)

>  <smiles>  (33) 
C=CCc1ccccc1OCC(O)CNC(C)C(=O)NCC

>  <score_type>  (33) 
oracle

>  <origin>  (33) 
adg

>  <m_score__min__energy>  (33) 
-8.0800000000000001

>  <m_primary>  (33) 
energy

$$$$
33:0
     RDKit          3D

 47 49  0  0  0  0  0  0  0  0999 V2000
   -2.7340   20.7540  -28.4370 C   0  0  0  0  0  0  0  0  0  0  0  0
   -2.4940   20.8200  -29.9160 C   0  0  0  0  0  0  0  0  0  0  0  0
   -1.4120   20.1330  -30.4850 C   0  0  0  0  0  0  0  0  0  0  0  0
   -1.2150   20.1530  -31.8680 C   0  0  0  0  0  0  0  0  0  0  0  0
   -2.1030   20.8460  -32.6940 C   0  0  0  0  0  0  0  0  0  0  0  0
   -3.1930   21.5360  -32.1410 C   0  0  0  0  0  0  0  0  0  0  0  0
   -4.1530   22.2810  -33.0340 C   0  0  0  0  0  0  0  0  0  0  0  0
   -5.4700   22.4280  -32.3810 N   0  0  0  0  0  0  0  0  0  0  0  0
   -5.6950   23.4380  -31.4800 C   0  0  0  0  0  0  0  0  0  0  0  0
   -4.7920   24.2720  -31.1990 O   0  0  0  0  0  0  0  0  0  0  0  0
   -6.9330   23.5610  -30.8610 C   0  0  0  0  0  0  0  0  0  0  0  0
   -7.9230   22.6320  -31.1490 C   0  0  0  0  0  0  0  0  0  0  0  0
   -7.6830   21.6080  -32.0180 N   0  0  0  0  0  0  0  0  0  0  0  0
   -8.7520   20.6180  -32.2530 C   0  0  0  0  0  0  0  0  0  0  0  0
   -8.7000   19.4620  -31.2380 C   0  0  0  0  0  0  0  0  0  0  0  0
   -8.4390   18.0830  -31.8710 C   0  0  0  0  0  0  0  0  0  0  0  0
   -7.0640   17.9650  -32.4820 C   0  0  0  0  0  0  0  0  0  0  0  0
   -6.9050   17.4430  -33.7770 C   0  0  0  0  0  0  0  0  0  0  0  0
   -5.6330   17.3460  -34.3480 C   0  0  0  0  0  0  0  0  0  0  0  0
   -4.5110   17.7820  -33.6400 C   0  0  0  0  0  0  0  0  0  0  0  0
   -4.6610   18.3240  -32.3600 C   0  0  0  0  0  0  0  0  0  0  0  0
   -5.9320   18.4220  -31.7850 C   0  0  0  0  0  0  0  0  0  0  0  0
   -6.4700   21.5250  -32.6570 C   0  0  0  0  0  0  0  0  0  0  0  0
   -6.2680   20.6140  -33.5090 O   0  0  0  0  0  0  0  0  0  0  0  0
   -3.3890   21.5100  -30.7490 C   0  0  0  0  0  0  0  0  0  0  0  0
   -1.8066   21.0090  -27.9033 H   0  0  0  0  0  0  0  0  0  0  0  0
   -3.5239   21.4683  -28.1615 H   0  0  0  0  0  0  0  0  0  0  0  0
   -3.0476   19.7363  -28.1615 H   0  0  0  0  0  0  0  0  0  0  0  0
   -0.7160   19.5764  -29.8402 H   0  0  0  0  0  0  0  0  0  0  0  0
   -0.3581   19.6215  -32.3077 H   0  0  0  0  0  0  0  0  0  0  0  0
   -1.9473   20.8510  -33.7829 H   0  0  0  0  0  0  0  0  0  0  0  0
   -3.7441   23.2791  -33.2500 H   0  0  0  0  0  0  0  0  0  0  0  0
   -4.2829   21.7108  -33.9656 H   0  0  0  0  0  0  0  0  0  0  0  0
   -7.1252   24.3815  -30.1541 H   0  0  0  0  0  0  0  0  0  0  0  0
   -8.9102   22.7221  -30.6723 H   0  0  0  0  0  0  0  0  0  0  0  0
   -9.7267   21.1210  -32.1689 H   0  0  0  0  0  0  0  0  0  0  0  0
   -8.6083   20.1947  -33.2581 H   0  0  0  0  0  0  0  0  0  0  0  0
   -7.8947   19.6700  -30.5181 H   0  0  0  0  0  0  0  0  0  0  0  0
   -9.6908   19.4113  -30.7629 H   0  0  0  0  0  0  0  0  0  0  0  0
   -8.5432   17.3141  -31.0913 H   0  0  0  0  0  0  0  0  0  0  0  0
   -9.1714   17.9489  -32.6807 H   0  0  0  0  0  0  0  0  0  0  0  0
   -7.7863   17.1090  -34.3443 H   0  0  0  0  0  0  0  0  0  0  0  0
   -5.5154   16.9252  -35.3575 H   0  0  0  0  0  0  0  0  0  0  0  0
   -3.5102   17.6991  -34.0890 H   0  0  0  0  0  0  0  0  0  0  0  0
   -3.7783   18.6737  -31.8046 H   0  0  0  0  0  0  0  0  0  0  0  0
   -6.0465   18.8590  -30.7820 H   0  0  0  0  0  0  0  0  0  0  0  0
   -4.2502   22.0343  -30.3092 H   0  0  0  0  0  0  0  0  0  0  0  0
  1  2  1  0
  2  3  2  0
  3  4  1  0
  4  5  2  0
  5  6  1  0
  6  7  1  0
  7  8  1  0
  8  9  1  0
  9 10  2  0
  9 11  1  0
 11 12  2  0
 12 13  1  0
 13 14  1  0
 14 15  1  0
 15 16  1  0
 16 17  1  0
 17 18  2  0
 18 19  1  0
 19 20  2  0
 20 21  1  0
 21 22  2  0
 13 23  1  0
 23 24  2  0
  6 25  2  0
 25  2  1  0
 23  8  1  0
 22 17  1  0
  1 26  1  0
  1 27  1  0
  1 28  1  0
  3 29  1  0
  4 30  1  0
  5 31  1  0
  7 32  1  0
  7 33  1  0
 11 34  1  0
 12 35  1  0
 14 36  1  0
 14 37  1  0
 15 38  1  0
 15 39  1  0
 16 40  1  0
 16 41  1  0
 18 42  1  0
 19 43  1  0
 20 44  1  0
 21 45  1  0
 22 46  1  0
 25 47  1  0
M  END
>  <UniqueID>  (34) 
33

>  <SMILES>  (34) 
Cc1cccc(Cn2c(=O)ccn(CCCc3ccccc3)c2=O)c1

>  <Energy>  (34) 
48.10807797911112

>  <Genealogy>  (34) 
Cc1cccc(Cn2c(=O)ccn(CCCc3ccccc3)c2=O)c1 (3D coordinates assigned)
Cc1cccc(Cn2c(=O)ccn(CCCc3ccccc3)c2=O)c1 (optimized conformer: 48.10807797911112 kcal/mol)

>  <smiles>  (34) 
Cc1cccc(Cn2c(=O)ccn(CCCc3ccccc3)c2=O)c1

>  <score_type>  (34) 
oracle

>  <origin>  (34) 
adg

>  <m_score__min__energy>  (34) 
-9.0999999999999996

>  <m_primary>  (34) 
energy

$$$$
34:0
     RDKit          3D

 35 37  0  0  0  0  0  0  0  0999 V2000
   -2.7830   21.9260  -31.9600 C   0  0  0  0  0  0  0  0  0  0  0  0
   -4.0750   22.4610  -32.2300 O   0  0  0  0  0  0  0  0  0  0  0  0
   -5.2830   21.7740  -32.0270 C   0  0  0  0  0  0  0  0  0  0  0  0
   -5.4970   20.4820  -32.5480 C   0  0  0  0  0  0  0  0  0  0  0  0
   -6.7070   19.8200  -32.3250 C   0  0  0  0  0  0  0  0  0  0  0  0
   -6.9830   18.0690  -33.0350 Br  0  0  0  0  0  0  0  0  0  0  0  0
   -7.7140   20.4370  -31.5810 C   0  0  0  0  0  0  0  0  0  0  0  0
   -7.5170   21.7150  -31.0600 C   0  0  0  0  0  0  0  0  0  0  0  0
   -6.3080   22.3980  -31.2820 C   0  0  0  0  0  0  0  0  0  0  0  0
   -6.1040   23.7660  -30.6770 C   0  0  0  0  0  0  0  0  0  0  0  0
   -4.9360   23.7560  -29.7210 C   0  0  0  0  0  0  0  0  0  0  0  0
   -4.8890   22.7790  -28.6910 C   0  0  0  0  0  0  0  0  0  0  0  0
   -3.8040   22.7220  -27.8010 C   0  0  0  0  0  0  0  0  0  0  0  0
   -2.7830   23.6520  -27.9620 C   0  0  0  0  0  0  0  0  0  0  0  0
   -1.6630   23.7710  -27.2350 N   0  0  0  0  0  0  0  0  0  0  0  0
   -1.0450   24.8290  -27.8220 C   0  0  0  0  0  0  0  0  0  0  0  0
    0.2930   25.3220  -27.3870 C   0  0  0  0  0  0  0  0  0  0  0  0
   -1.7120   25.3580  -28.8810 N   0  0  0  0  0  0  0  0  0  0  0  0
   -2.8140   24.5950  -28.9420 C   0  0  0  0  0  0  0  0  0  0  0  0
   -3.8740   24.6890  -29.8480 C   0  0  0  0  0  0  0  0  0  0  0  0
   -3.8840   25.6670  -30.8420 O   0  0  0  0  0  0  0  0  0  0  0  0
   -2.6320   21.8635  -30.8722 H   0  0  0  0  0  0  0  0  0  0  0  0
   -2.7032   20.9208  -32.3996 H   0  0  0  0  0  0  0  0  0  0  0  0
   -2.0159   22.5805  -32.3996 H   0  0  0  0  0  0  0  0  0  0  0  0
   -4.7060   19.9915  -33.1342 H   0  0  0  0  0  0  0  0  0  0  0  0
   -8.6654   19.9136  -31.4053 H   0  0  0  0  0  0  0  0  0  0  0  0
   -8.3135   22.1928  -30.4707 H   0  0  0  0  0  0  0  0  0  0  0  0
   -5.9071   24.4908  -31.4806 H   0  0  0  0  0  0  0  0  0  0  0  0
   -7.0121   24.0479  -30.1240 H   0  0  0  0  0  0  0  0  0  0  0  0
   -5.7131   22.0576  -28.5891 H   0  0  0  0  0  0  0  0  0  0  0  0
   -3.7633   21.9663  -27.0027 H   0  0  0  0  0  0  0  0  0  0  0  0
    0.3381   25.3386  -26.2881 H   0  0  0  0  0  0  0  0  0  0  0  0
    1.0746   24.6528  -27.7760 H   0  0  0  0  0  0  0  0  0  0  0  0
    0.4535   26.3383  -27.7760 H   0  0  0  0  0  0  0  0  0  0  0  0
   -3.2030   25.6730  -31.5920 H   0  0  0  0  0  0  0  0  0  0  0  0
  1  2  1  0
  2  3  1  0
  3  4  2  0
  4  5  1  0
  5  6  1  0
  5  7  2  0
  7  8  1  0
  8  9  2  0
  9 10  1  0
 10 11  1  0
 11 12  2  0
 12 13  1  0
 13 14  2  0
 14 15  1  0
 15 16  2  0
 16 17  1  0
 16 18  1  0
 18 19  1  0
 19 20  2  0
 20 21  1  0
  9  3  1  0
 20 11  1  0
 19 14  1  0
  1 22  1  0
  1 23  1  0
  1 24  1  0
  4 25  1  0
  7 26  1  0
  8 27  1  0
 10 28  1  0
 10 29  1  0
 12 30  1  0
 13 31  1  0
 17 32  1  0
 17 33  1  0
 17 34  1  0
 21 35  1  0
M  CHG  1  18  -1
M  END
>  <UniqueID>  (35) 
34

>  <SMILES>  (35) 
COc1cc(Br)ccc1Cc1ccc2nc(C)[n-]c2c1O

>  <Energy>  (35) 
69.12969297878048

>  <Genealogy>  (35) 
COc1cc(Br)ccc1Cc1ccc2nc(C)[n-]c2c1O (protonated)
COc1cc(Br)ccc1Cc1ccc2nc(C)[n-]c2c1O (3D coordinates assigned)
COc1cc(Br)ccc1Cc1ccc2nc(C)[n-]c2c1O (optimized conformer: 69.12969297878048 kcal/mol)

>  <smiles>  (35) 
COc1cc(Br)ccc1Cc1ccc2nc(C)[nH]c2c1O

>  <score_type>  (35) 
oracle

>  <origin>  (35) 
adg

>  <m_score__min__energy>  (35) 
-10.17

>  <m_primary>  (35) 
energy

$$$$
35:0
     RDKit          3D

 52 54  0  0  0  0  0  0  0  0999 V2000
   -4.1372   16.0760  -34.5265 H   0  0  0  0  0  0  0  0  0  0  0  0
   -4.7530   16.9070  -34.1520 C   0  0  0  0  0  0  0  0  0  0  0  0
   -6.1140   16.7120  -33.9130 C   0  0  0  0  0  0  0  0  0  0  0  0
   -6.8410   15.1440  -34.2140 Cl  0  0  0  0  0  0  0  0  0  0  0  0
   -6.8970   17.7660  -33.4400 C   0  0  0  0  0  0  0  0  0  0  0  0
   -7.9706   17.6099  -33.2585 H   0  0  0  0  0  0  0  0  0  0  0  0
   -6.3240   19.0250  -33.1940 C   0  0  0  0  0  0  0  0  0  0  0  0
   -4.9440   19.2320  -33.4250 C   0  0  0  0  0  0  0  0  0  0  0  0
   -4.1710   18.1540  -33.9170 C   0  0  0  0  0  0  0  0  0  0  0  0
   -3.0992   18.3001  -34.1166 H   0  0  0  0  0  0  0  0  0  0  0  0
   -4.3830   20.5150  -33.2170 C   0  0  0  0  0  0  0  0  0  0  0  0
   -3.1890   20.7230  -33.7190 N   0  0  0  0  0  0  0  0  0  0  0  0
   -1.8490   20.5440  -33.1630 C   0  0  0  0  0  0  0  0  0  0  0  0
   -1.1986   21.3618  -33.5067 H   0  0  0  0  0  0  0  0  0  0  0  0
   -1.4412   19.5798  -33.5006 H   0  0  0  0  0  0  0  0  0  0  0  0
   -1.9170   20.5570  -31.6320 C   0  0  0  0  0  0  0  0  0  0  0  0
   -1.3458   19.6982  -31.2497 H   0  0  0  0  0  0  0  0  0  0  0  0
   -2.9796   20.5052  -31.3522 H   0  0  0  0  0  0  0  0  0  0  0  0
   -1.3440   21.8400  -31.0100 C   0  0  0  0  0  0  0  0  0  0  0  0
   -1.5057   22.6808  -31.7006 H   0  0  0  0  0  0  0  0  0  0  0  0
   -0.2679   21.6990  -30.8304 H   0  0  0  0  0  0  0  0  0  0  0  0
   -2.0140   22.1340  -29.7150 N   0  0  0  0  0  0  0  0  0  0  0  0
   -3.0660   21.1410  -29.3910 C   0  0  0  0  0  0  0  0  0  0  0  0
   -3.1406   20.4117  -30.2111 H   0  0  0  0  0  0  0  0  0  0  0  0
   -4.0241   21.6660  -29.2628 H   0  0  0  0  0  0  0  0  0  0  0  0
   -2.7270   20.4080  -28.0960 C   0  0  0  0  0  0  0  0  0  0  0  0
   -3.0149   21.0306  -27.2361 H   0  0  0  0  0  0  0  0  0  0  0  0
   -3.2760   19.4555  -28.0593 H   0  0  0  0  0  0  0  0  0  0  0  0
   -1.6457   20.2095  -28.0593 H   0  0  0  0  0  0  0  0  0  0  0  0
   -2.5480   23.5140  -29.6660 C   0  0  0  0  0  0  0  0  0  0  0  0
   -1.7136   24.2197  -29.5409 H   0  0  0  0  0  0  0  0  0  0  0  0
   -3.0842   23.7190  -30.6043 H   0  0  0  0  0  0  0  0  0  0  0  0
   -3.5210   23.6760  -28.4990 C   0  0  0  0  0  0  0  0  0  0  0  0
   -2.9732   23.5848  -27.5495 H   0  0  0  0  0  0  0  0  0  0  0  0
   -3.9976   24.6659  -28.5537 H   0  0  0  0  0  0  0  0  0  0  0  0
   -4.2926   22.8940  -28.5537 H   0  0  0  0  0  0  0  0  0  0  0  0
   -5.1950   21.5240  -32.6060 C   0  0  0  0  0  0  0  0  0  0  0  0
   -4.6860   22.7300  -32.0680 C   0  0  0  0  0  0  0  0  0  0  0  0
   -3.5986   22.8949  -32.0483 H   0  0  0  0  0  0  0  0  0  0  0  0
   -5.5430   23.7220  -31.5580 C   0  0  0  0  0  0  0  0  0  0  0  0
   -5.0690   24.9470  -31.0650 O   0  0  0  0  0  0  0  0  0  0  0  0
   -5.7240   25.7260  -30.0680 C   0  0  0  0  0  0  0  0  0  0  0  0
   -5.4255   25.3710  -29.0706 H   0  0  0  0  0  0  0  0  0  0  0  0
   -5.4387   26.7822  -30.1818 H   0  0  0  0  0  0  0  0  0  0  0  0
   -6.8135   25.6262  -30.1818 H   0  0  0  0  0  0  0  0  0  0  0  0
   -6.9160   23.4900  -31.5270 C   0  0  0  0  0  0  0  0  0  0  0  0
   -7.5960   24.2776  -31.1703 H   0  0  0  0  0  0  0  0  0  0  0  0
   -7.4320   22.2670  -31.9450 C   0  0  0  0  0  0  0  0  0  0  0  0
   -8.5140   22.0802  -31.8782 H   0  0  0  0  0  0  0  0  0  0  0  0
   -6.5840   21.2700  -32.4510 C   0  0  0  0  0  0  0  0  0  0  0  0
   -7.1040   20.0510  -32.7610 N   0  0  0  0  0  0  0  0  0  0  0  0
   -8.1290   19.8850  -32.6260 H   0  0  0  0  0  0  0  0  0  0  0  0
  1  2  1  0
  2  3  2  0
  3  4  1  0
  3  5  1  0
  5  6  1  0
  5  7  2  0
  7  8  1  0
  8  9  2  0
  9 10  1  0
  8 11  1  0
 11 12  2  0
 12 13  1  0
 13 14  1  0
 13 15  1  0
 13 16  1  0
 16 17  1  0
 16 18  1  0
 16 19  1  0
 19 20  1  0
 19 21  1  0
 19 22  1  0
 22 23  1  0
 23 24  1  0
 23 25  1  0
 23 26  1  0
 26 27  1  0
 26 28  1  0
 26 29  1  0
 22 30  1  0
 30 31  1  0
 30 32  1  0
 30 33  1  0
 33 34  1  0
 33 35  1  0
 33 36  1  0
 11 37  1  0
 37 38  2  0
 38 39  1  0
 38 40  1  0
 40 41  1  0
 41 42  1  0
 42 43  1  0
 42 44  1  0
 42 45  1  0
 40 46  2  0
 46 47  1  0
 46 48  1  0
 48 49  1  0
 48 50  2  0
 50 51  1  0
 51 52  1  0
  9  2  1  0
 50 37  1  0
 51  7  1  0
M  END
>  <UniqueID>  (36) 
35

>  <SMILES>  (36) 
CCN(CC)CCC/N=c1/c2ccc(Cl)cc2[nH]c2ccc(OC)cc12

>  <Energy>  (36) 
71.95016322323565

>  <Genealogy>  (36) 
CCN(CC)CCC/N=c1/c2ccc(Cl)cc2[nH]c2ccc(OC)cc12 (cis-trans isomerization)
CCN(CC)CCC/N=c1/c2ccc(Cl)cc2[nH]c2ccc(OC)cc12 (3D coordinates assigned)
CCN(CC)CCC/N=c1/c2ccc(Cl)cc2[nH]c2ccc(OC)cc12 (optimized conformer: 71.95016322323565 kcal/mol)

>  <smiles>  (36) 
CCN(CC)CCCN=c1c2ccc(Cl)cc2[nH]c2ccc(OC)cc12

>  <score_type>  (36) 
oracle

>  <origin>  (36) 
adg

>  <m_score__min__energy>  (36) 
-8

>  <m_primary>  (36) 
energy

$$$$
36:0
     RDKit          3D

 46 47  0  0  0  0  0  0  0  0999 V2000
   -5.6910   18.5370  -34.7790 C   0  0  0  0  0  0  0  0  0  0  0  0
   -6.3700   19.6290  -34.0770 N   0  0  0  0  0  0  0  0  0  0  0  0
   -6.7000   19.2630  -32.6890 C   0  0  0  0  0  0  0  0  0  0  0  0
   -8.1730   19.5820  -32.3630 C   0  0  1  0  0  0  0  0  0  0  0  0
   -8.7320   18.6750  -31.2560 C   0  0  0  0  0  0  0  0  0  0  0  0
   -8.3700   21.0570  -32.0660 C   0  0  0  0  0  0  0  0  0  0  0  0
   -9.4810   21.5410  -30.9480 S   0  0  0  0  0  0  0  0  0  0  0  0
   -7.5020   22.0140  -32.7010 N   0  0  0  0  0  0  0  0  0  0  0  0
   -7.4350   23.4320  -32.3460 C   0  0  0  0  0  0  0  0  0  0  0  0
   -6.3150   23.6680  -31.3720 C   0  0  0  0  0  0  0  0  0  0  0  0
   -6.3990   24.6880  -30.4110 C   0  0  0  0  0  0  0  0  0  0  0  0
   -5.3600   24.8830  -29.4970 C   0  0  0  0  0  0  0  0  0  0  0  0
   -4.2170   24.0670  -29.5350 C   0  0  0  0  0  0  0  0  0  0  0  0
   -3.1430   24.2620  -28.5970 N   0  0  0  0  0  0  0  0  0  0  0  0
   -1.7530   24.0250  -28.9950 C   0  0  0  0  0  0  0  0  0  0  0  0
   -0.8300   24.9520  -28.1990 C   0  0  0  0  0  0  0  0  0  0  0  0
   -1.0680   24.8260  -26.8100 O   0  0  0  0  0  0  0  0  0  0  0  0
   -2.3770   25.2720  -26.5020 C   0  0  0  0  0  0  0  0  0  0  0  0
   -3.4280   24.3760  -27.1640 C   0  0  0  0  0  0  0  0  0  0  0  0
   -4.1400   23.0410  -30.4900 C   0  0  0  0  0  0  0  0  0  0  0  0
   -5.1820   22.8410  -31.3980 C   0  0  0  0  0  0  0  0  0  0  0  0
   -5.2587   17.8417  -34.0444 H   0  0  0  0  0  0  0  0  0  0  0  0
   -6.4150   18.0004  -35.4098 H   0  0  0  0  0  0  0  0  0  0  0  0
   -4.8895   18.9490  -35.4098 H   0  0  0  0  0  0  0  0  0  0  0  0
   -7.2590   19.8310  -34.5920 H   0  0  0  0  0  0  0  0  0  0  0  0
   -6.5274   18.1854  -32.5514 H   0  0  0  0  0  0  0  0  0  0  0  0
   -6.0592   19.8480  -32.0129 H   0  0  0  0  0  0  0  0  0  0  0  0
   -8.7631   19.3585  -33.2640 H   0  0  0  0  0  0  0  0  0  0  0  0
   -8.4734   19.0947  -30.2726 H   0  0  0  0  0  0  0  0  0  0  0  0
   -9.8260   18.6117  -31.3514 H   0  0  0  0  0  0  0  0  0  0  0  0
   -8.2968   17.6692  -31.3514 H   0  0  0  0  0  0  0  0  0  0  0  0
   -6.7980   21.6650  -33.3900 H   0  0  0  0  0  0  0  0  0  0  0  0
   -7.2585   24.0266  -33.2545 H   0  0  0  0  0  0  0  0  0  0  0  0
   -8.3857   23.7322  -31.8812 H   0  0  0  0  0  0  0  0  0  0  0  0
   -7.2867   25.3367  -30.3773 H   0  0  0  0  0  0  0  0  0  0  0  0
   -5.4376   25.6803  -28.7432 H   0  0  0  0  0  0  0  0  0  0  0  0
   -1.4863   22.9776  -28.7903 H   0  0  0  0  0  0  0  0  0  0  0  0
   -1.6392   24.2284  -30.0700 H   0  0  0  0  0  0  0  0  0  0  0  0
    0.2165   24.6878  -28.4110 H   0  0  0  0  0  0  0  0  0  0  0  0
   -1.0306   25.9913  -28.4983 H   0  0  0  0  0  0  0  0  0  0  0  0
   -2.5185   25.2483  -25.4114 H   0  0  0  0  0  0  0  0  0  0  0  0
   -2.4983   26.2970  -26.8823 H   0  0  0  0  0  0  0  0  0  0  0  0
   -3.3997   23.3771  -26.7043 H   0  0  0  0  0  0  0  0  0  0  0  0
   -4.4258   24.8173  -27.0235 H   0  0  0  0  0  0  0  0  0  0  0  0
   -3.2535   22.3906  -30.5233 H   0  0  0  0  0  0  0  0  0  0  0  0
   -5.1140   22.0301  -32.1381 H   0  0  0  0  0  0  0  0  0  0  0  0
  1  2  1  0
  2  3  1  0
  3  4  1  0
  4  5  1  0
  4  6  1  0
  6  7  2  0
  6  8  1  0
  8  9  1  0
  9 10  1  0
 10 11  2  0
 11 12  1  0
 12 13  2  0
 13 14  1  0
 14 15  1  0
 15 16  1  0
 16 17  1  0
 17 18  1  0
 18 19  1  0
 13 20  1  0
 20 21  2  0
 21 10  1  0
 19 14  1  0
  1 22  1  0
  1 23  1  0
  1 24  1  0
  2 25  1  0
  3 26  1  0
  3 27  1  0
  4 28  1  6
  5 29  1  0
  5 30  1  0
  5 31  1  0
  8 32  1  0
  9 33  1  0
  9 34  1  0
 11 35  1  0
 12 36  1  0
 15 37  1  0
 15 38  1  0
 16 39  1  0
 16 40  1  0
 18 41  1  0
 18 42  1  0
 19 43  1  0
 19 44  1  0
 20 45  1  0
 21 46  1  0
M  END
>  <UniqueID>  (37) 
36

>  <SMILES>  (37) 
CNC[C@@H](C)C(=S)NCc1ccc(N2CCOCC2)cc1

>  <Energy>  (37) 
46.14994852167267

>  <Genealogy>  (37) 
CNC[C@@H](C)C(=S)NCc1ccc(N2CCOCC2)cc1 (chirality)
CNC[C@@H](C)C(=S)NCc1ccc(N2CCOCC2)cc1 (3D coordinates assigned)
CNC[C@@H](C)C(=S)NCc1ccc(N2CCOCC2)cc1 (nonaromatic ring conformer: 46.14994852167267 kcal/mol)

>  <smiles>  (37) 
CNCC(C)C(=S)NCc1ccc(N2CCOCC2)cc1

>  <score_type>  (37) 
oracle

>  <origin>  (37) 
adg

>  <m_score__min__energy>  (37) 
-7.9199999999999999

>  <m_primary>  (37) 
energy

$$$$
37:0
     RDKit          3D

 36 37  0  0  0  0  0  0  0  0999 V2000
   -9.1300   21.6390  -30.8560 C   0  0  0  0  0  0  0  0  0  0  0  0
   -8.4320   20.6620  -31.7000 N   0  0  0  0  0  0  0  0  0  0  0  0
   -9.0240   19.3450  -31.9440 C   0  0  0  0  0  0  0  0  0  0  0  0
   -7.2400   21.0390  -32.4210 C   0  0  0  0  0  0  0  0  0  0  0  0
   -6.9930   20.5030  -33.5360 O   0  0  0  0  0  0  0  0  0  0  0  0
   -6.2990   22.0500  -31.8940 C   0  0  0  0  0  0  0  0  0  0  0  0
   -6.7110   23.3780  -31.6990 C   0  0  0  0  0  0  0  0  0  0  0  0
   -5.8190   24.3270  -31.1900 C   0  0  0  0  0  0  0  0  0  0  0  0
   -4.5030   23.9580  -30.8590 C   0  0  0  0  0  0  0  0  0  0  0  0
   -3.5510   24.9020  -30.3490 N   0  0  0  0  0  0  0  0  0  0  0  0
   -2.5600   24.6630  -28.9470 S   0  0  0  0  0  0  0  0  0  0  0  0
   -1.4410   25.6660  -28.9600 O   0  0  0  0  0  0  0  0  0  0  0  0
   -3.3940   24.8740  -27.7140 O   0  0  0  0  0  0  0  0  0  0  0  0
   -1.9240   23.0220  -28.9290 C   0  0  0  0  0  0  0  0  0  0  0  0
   -2.3250   22.1160  -27.9360 C   0  0  0  0  0  0  0  0  0  0  0  0
   -1.8090   20.8170  -27.9200 C   0  0  0  0  0  0  0  0  0  0  0  0
   -0.8900   20.4160  -28.8960 C   0  0  0  0  0  0  0  0  0  0  0  0
   -0.4910   21.3140  -29.8900 C   0  0  0  0  0  0  0  0  0  0  0  0
   -1.0080   22.6130  -29.9100 C   0  0  0  0  0  0  0  0  0  0  0  0
   -4.1040   22.6270  -31.0260 C   0  0  0  0  0  0  0  0  0  0  0  0
   -4.9960   21.6780  -31.5340 C   0  0  0  0  0  0  0  0  0  0  0  0
   -8.9577   21.3978  -29.7967 H   0  0  0  0  0  0  0  0  0  0  0  0
   -8.7469   22.6478  -31.0694 H   0  0  0  0  0  0  0  0  0  0  0  0
  -10.2085   21.6036  -31.0694 H   0  0  0  0  0  0  0  0  0  0  0  0
   -9.2431   18.8576  -30.9825 H   0  0  0  0  0  0  0  0  0  0  0  0
   -9.9560   19.4623  -32.5164 H   0  0  0  0  0  0  0  0  0  0  0  0
   -8.3176   18.7258  -32.5164 H   0  0  0  0  0  0  0  0  0  0  0  0
   -7.7409   23.6735  -31.9479 H   0  0  0  0  0  0  0  0  0  0  0  0
   -6.1482   25.3669  -31.0479 H   0  0  0  0  0  0  0  0  0  0  0  0
   -3.0475   22.4286  -27.1678 H   0  0  0  0  0  0  0  0  0  0  0  0
   -2.1256   20.1095  -27.1395 H   0  0  0  0  0  0  0  0  0  0  0  0
   -0.4818   19.3947  -28.8810 H   0  0  0  0  0  0  0  0  0  0  0  0
    0.2308   20.9983  -30.6577 H   0  0  0  0  0  0  0  0  0  0  0  0
   -0.6959   23.3158  -30.6965 H   0  0  0  0  0  0  0  0  0  0  0  0
   -3.0813   22.3254  -30.7556 H   0  0  0  0  0  0  0  0  0  0  0  0
   -4.6736   20.6329  -31.6520 H   0  0  0  0  0  0  0  0  0  0  0  0
  1  2  1  0
  2  3  1  0
  2  4  1  0
  4  5  2  0
  4  6  1  0
  6  7  2  0
  7  8  1  0
  8  9  2  0
  9 10  1  0
 10 11  1  0
 11 12  2  0
 11 13  2  0
 11 14  1  0
 14 15  2  0
 15 16  1  0
 16 17  2  0
 17 18  1  0
 18 19  2  0
  9 20  1  0
 20 21  2  0
 21  6  1  0
 19 14  1  0
  1 22  1  0
  1 23  1  0
  1 24  1  0
  3 25  1  0
  3 26  1  0
  3 27  1  0
  7 28  1  0
  8 29  1  0
 15 30  1  0
 16 31  1  0
 17 32  1  0
 18 33  1  0
 19 34  1  0
 20 35  1  0
 21 36  1  0
M  CHG  1  10  -1
M  END
>  <UniqueID>  (38) 
37

>  <SMILES>  (38) 
CN(C)C(=O)c1ccc([N-]S(=O)(=O)c2ccccc2)cc1

>  <Energy>  (38) 
42.34868453635603

>  <Genealogy>  (38) 
CN(C)C(=O)c1ccc([N-]S(=O)(=O)c2ccccc2)cc1 (protonated)
CN(C)C(=O)c1ccc([N-]S(=O)(=O)c2ccccc2)cc1 (3D coordinates assigned)
CN(C)C(=O)c1ccc([N-]S(=O)(=O)c2ccccc2)cc1 (optimized conformer: 42.34868453635603 kcal/mol)

>  <smiles>  (38) 
CN(C)C(=O)c1ccc(NS(=O)(=O)c2ccccc2)cc1

>  <score_type>  (38) 
oracle

>  <origin>  (38) 
adg

>  <m_score__min__energy>  (38) 
-8.9700000000000006

>  <m_primary>  (38) 
energy

$$$$
38:0
     RDKit          3D

 65 68  0  0  0  0  0  0  0  0999 V2000
   -0.3980   29.3920  -36.4950 C   0  0  0  0  0  0  0  0  0  0  0  0
    0.7510   28.5560  -36.4090 O   0  0  0  0  0  0  0  0  0  0  0  0
    0.7070   27.1580  -36.2800 C   0  0  0  0  0  0  0  0  0  0  0  0
   -0.4230   26.4010  -36.6430 C   0  0  0  0  0  0  0  0  0  0  0  0
   -0.4170   25.0110  -36.4960 C   0  0  0  0  0  0  0  0  0  0  0  0
    0.7160   24.3540  -35.9900 C   0  0  0  0  0  0  0  0  0  0  0  0
    0.7200   22.8850  -35.8420 C   0  0  0  0  0  0  0  0  0  0  0  0
    0.2970   22.2420  -34.7310 N   0  0  0  0  0  0  0  0  0  0  0  0
    0.4670   20.9410  -35.0350 C   0  0  0  0  0  0  0  0  0  0  0  0
    0.1550   19.8220  -34.0850 C   0  0  0  0  0  0  0  0  0  0  0  0
   -1.3560   20.1370  -33.1830 S   0  0  0  0  0  0  0  0  0  0  0  0
   -2.4080   21.1450  -34.0200 O   0  0  0  0  0  0  0  0  0  0  0  0
   -2.1800   18.6390  -32.6810 C   0  0  0  0  0  0  0  0  0  0  0  0
   -2.9420   18.0490  -33.8330 C   0  0  0  0  0  0  0  0  0  0  0  0
   -2.3370   17.7620  -34.8570 O   0  0  0  0  0  0  0  0  0  0  0  0
   -4.3770   17.8440  -33.7510 N   0  0  0  0  0  0  0  0  0  0  0  0
   -4.8400   17.9190  -32.3380 C   0  0  0  0  0  0  0  0  0  0  0  0
   -5.3580   19.3100  -31.9490 C   0  0  0  0  0  0  0  0  0  0  0  0
   -6.4060   19.7450  -32.8790 N   0  0  0  0  0  0  0  0  0  0  0  0
   -7.3000   20.8150  -32.5110 C   0  0  0  0  0  0  0  0  0  0  0  0
   -6.7890   22.1070  -32.2990 C   0  0  0  0  0  0  0  0  0  0  0  0
   -7.6390   23.1590  -31.9540 C   0  0  0  0  0  0  0  0  0  0  0  0
   -9.0070   22.9340  -31.8130 C   0  0  0  0  0  0  0  0  0  0  0  0
   -9.5310   21.6550  -32.0100 C   0  0  0  0  0  0  0  0  0  0  0  0
   -8.6840   20.5810  -32.3550 C   0  0  0  0  0  0  0  0  0  0  0  0
   -9.1800   19.2790  -32.5310 O   0  0  0  0  0  0  0  0  0  0  0  0
   -9.0360   18.2240  -31.5860 C   0  0  0  0  0  0  0  0  0  0  0  0
   -6.4880   19.1240  -34.2060 C   0  0  0  0  0  0  0  0  0  0  0  0
   -5.0780   18.7670  -34.6860 C   0  0  0  0  0  0  0  0  0  0  0  0
    1.0060   20.8450  -36.3050 C   0  0  0  0  0  0  0  0  0  0  0  0
    1.3640   19.6090  -37.0640 C   0  0  0  0  0  0  0  0  0  0  0  0
    1.1390   22.0590  -36.7770 O   0  0  0  0  0  0  0  0  0  0  0  0
    1.8420   25.1120  -35.6270 C   0  0  0  0  0  0  0  0  0  0  0  0
    1.8330   26.5020  -35.7720 C   0  0  0  0  0  0  0  0  0  0  0  0
   -0.7446   29.6442  -35.4820 H   0  0  0  0  0  0  0  0  0  0  0  0
   -0.1402   30.3152  -37.0347 H   0  0  0  0  0  0  0  0  0  0  0  0
   -1.1970   28.8626  -37.0347 H   0  0  0  0  0  0  0  0  0  0  0  0
   -1.3144   26.9055  -37.0440 H   0  0  0  0  0  0  0  0  0  0  0  0
   -1.3059   24.4279  -36.7786 H   0  0  0  0  0  0  0  0  0  0  0  0
    0.0435   18.8882  -34.6557 H   0  0  0  0  0  0  0  0  0  0  0  0
    0.9800   19.7405  -33.3620 H   0  0  0  0  0  0  0  0  0  0  0  0
   -1.8170   21.7340  -34.5540 H   0  0  0  0  0  0  0  0  0  0  0  0
   -1.4310   17.9129  -32.3321 H   0  0  0  0  0  0  0  0  0  0  0  0
   -2.8850   18.8743  -31.8701 H   0  0  0  0  0  0  0  0  0  0  0  0
   -4.5810   16.8690  -34.0770 H   0  0  0  0  0  0  0  0  0  0  0  0
   -5.6519   17.1905  -32.1962 H   0  0  0  0  0  0  0  0  0  0  0  0
   -3.9740   17.6995  -31.6963 H   0  0  0  0  0  0  0  0  0  0  0  0
   -5.7711   19.2709  -30.9303 H   0  0  0  0  0  0  0  0  0  0  0  0
   -4.5239   20.0258  -31.9919 H   0  0  0  0  0  0  0  0  0  0  0  0
   -5.7097   22.2907  -32.4059 H   0  0  0  0  0  0  0  0  0  0  0  0
   -7.2286   24.1668  -31.7932 H   0  0  0  0  0  0  0  0  0  0  0  0
   -9.6754   23.7658  -31.5459 H   0  0  0  0  0  0  0  0  0  0  0  0
  -10.6115   21.4837  -31.8954 H   0  0  0  0  0  0  0  0  0  0  0  0
   -9.0920   18.6344  -30.5670 H   0  0  0  0  0  0  0  0  0  0  0  0
   -9.8423   17.4898  -31.7304 H   0  0  0  0  0  0  0  0  0  0  0  0
   -8.0625   17.7327  -31.7304 H   0  0  0  0  0  0  0  0  0  0  0  0
   -7.0983   18.2107  -34.1472 H   0  0  0  0  0  0  0  0  0  0  0  0
   -6.9511   19.8272  -34.9139 H   0  0  0  0  0  0  0  0  0  0  0  0
   -5.1521   18.2829  -35.6710 H   0  0  0  0  0  0  0  0  0  0  0  0
   -4.4953   19.6985  -34.7376 H   0  0  0  0  0  0  0  0  0  0  0  0
    1.5984   18.7996  -36.3570 H   0  0  0  0  0  0  0  0  0  0  0  0
    0.5159   19.3088  -37.6969 H   0  0  0  0  0  0  0  0  0  0  0  0
    2.2413   19.8086  -37.6969 H   0  0  0  0  0  0  0  0  0  0  0  0
    2.7347   24.6091  -35.2268 H   0  0  0  0  0  0  0  0  0  0  0  0
    2.7198   27.0856  -35.4839 H   0  0  0  0  0  0  0  0  0  0  0  0
  1  2  1  0
  2  3  1  0
  3  4  2  0
  4  5  1  0
  5  6  2  0
  6  7  1  0
  7  8  2  0
  8  9  1  0
  9 10  1  0
 10 11  1  0
 11 12  1  6
 11 13  1  0
 13 14  1  0
 14 15  2  0
 14 16  1  0
 16 17  1  0
 17 18  1  0
 18 19  1  0
 19 20  1  0
 20 21  2  0
 21 22  1  0
 22 23  2  0
 23 24  1  0
 24 25  2  0
 25 26  1  0
 26 27  1  0
 19 28  1  0
 28 29  1  0
  9 30  2  0
 30 31  1  0
 30 32  1  0
  6 33  1  0
 33 34  2  0
 34  3  1  0
 32  7  1  0
 29 16  1  0
 25 20  1  0
  1 35  1  0
  1 36  1  0
  1 37  1  0
  4 38  1  0
  5 39  1  0
 10 40  1  0
 10 41  1  0
 12 42  1  0
 13 43  1  0
 13 44  1  0
 16 45  1  0
 17 46  1  0
 17 47  1  0
 18 48  1  0
 18 49  1  0
 21 50  1  0
 22 51  1  0
 23 52  1  0
 24 53  1  0
 27 54  1  0
 27 55  1  0
 27 56  1  0
 28 57  1  0
 28 58  1  0
 29 59  1  0
 29 60  1  0
 31 61  1  0
 31 62  1  0
 31 63  1  0
 33 64  1  0
 34 65  1  0
M  CHG  2  11   1  16   1
M  END
>  <UniqueID>  (39) 
38

>  <SMILES>  (39) 
COc1ccc(-c2nc(C[S@@+](O)CC(=O)[NH+]3CCN(c4ccccc4OC)CC3)c(C)o2)cc1

>  <Energy>  (39) 
97.8435854179039

>  <Genealogy>  (39) 
COc1ccc(-c2nc(C[S+](O)CC(=O)[NH+]3CCN(c4ccccc4OC)CC3)c(C)o2)cc1 (protonated)
COc1ccc(-c2nc(C[S@@+](O)CC(=O)[NH+]3CCN(c4ccccc4OC)CC3)c(C)o2)cc1 (chirality)
COc1ccc(-c2nc(C[S@@+](O)CC(=O)[NH+]3CCN(c4ccccc4OC)CC3)c(C)o2)cc1 (3D coordinates assigned)
COc1ccc(-c2nc(C[S@@+](O)CC(=O)[NH+]3CCN(c4ccccc4OC)CC3)c(C)o2)cc1 (nonaromatic ring conformer: 97.8435854179039 kcal/mol)

>  <smiles>  (39) 
COc1ccc(-c2nc(C[S+]([O-])CC(=O)N3CCN(c4ccccc4OC)CC3)c(C)o2)cc1

>  <score_type>  (39) 
oracle

>  <origin>  (39) 
adg

>  <m_score__min__energy>  (39) 
-7.46

>  <m_primary>  (39) 
energy

$$$$
39:0
     RDKit          3D

 49 52  0  0  0  0  0  0  0  0999 V2000
   -1.1710   25.9000  -28.1020 C   0  0  0  0  0  0  0  0  0  0  0  0
   -1.9380   24.9770  -28.9550 N   0  0  0  0  0  0  0  0  0  0  0  0
   -1.0830   23.8410  -29.3420 C   0  0  0  0  0  0  0  0  0  0  0  0
   -3.1420   24.5100  -28.2390 C   0  0  0  0  0  0  0  0  0  0  0  0
   -4.2560   24.2150  -29.2100 C   0  0  0  0  0  0  0  0  0  0  0  0
   -5.1210   23.1350  -28.9770 C   0  0  0  0  0  0  0  0  0  0  0  0
   -6.1670   22.8650  -29.8650 C   0  0  0  0  0  0  0  0  0  0  0  0
   -6.3690   23.6780  -30.9900 C   0  0  0  0  0  0  0  0  0  0  0  0
   -7.4680   23.3610  -31.9690 C   0  0  0  0  0  0  0  0  0  0  0  0
   -7.6440   21.9080  -32.0740 N   0  0  0  0  0  0  0  0  0  0  0  0
   -8.8890   21.3570  -31.8290 C   0  0  0  0  0  0  0  0  0  0  0  0
   -9.1200   19.9720  -31.9510 C   0  0  0  0  0  0  0  0  0  0  0  0
   -8.0430   19.1900  -32.3330 C   0  0  0  0  0  0  0  0  0  0  0  0
   -7.9830   17.8660  -32.5430 N   0  0  0  0  0  0  0  0  0  0  0  0
   -6.6860   17.6580  -32.9180 C   0  0  0  0  0  0  0  0  0  0  0  0
   -6.1680   16.3090  -33.2620 C   0  0  0  0  0  0  0  0  0  0  0  0
   -5.0180   15.7830  -32.6410 C   0  0  0  0  0  0  0  0  0  0  0  0
   -4.5490   14.5100  -32.9790 C   0  0  0  0  0  0  0  0  0  0  0  0
   -5.2200   13.7460  -33.9360 C   0  0  0  0  0  0  0  0  0  0  0  0
   -6.3630   14.2530  -34.5550 C   0  0  0  0  0  0  0  0  0  0  0  0
   -6.8380   15.5240  -34.2200 C   0  0  0  0  0  0  0  0  0  0  0  0
   -5.9340   18.7960  -32.9560 N   0  0  0  0  0  0  0  0  0  0  0  0
   -6.7790   19.7650  -32.5870 C   0  0  0  0  0  0  0  0  0  0  0  0
   -6.5790   21.1290  -32.4640 C   0  0  0  0  0  0  0  0  0  0  0  0
   -5.4980   24.7530  -31.2270 C   0  0  0  0  0  0  0  0  0  0  0  0
   -4.4530   25.0240  -30.3400 C   0  0  0  0  0  0  0  0  0  0  0  0
   -1.3640   25.6677  -27.0443 H   0  0  0  0  0  0  0  0  0  0  0  0
   -0.0972   25.7869  -28.3122 H   0  0  0  0  0  0  0  0  0  0  0  0
   -1.4788   26.9349  -28.3122 H   0  0  0  0  0  0  0  0  0  0  0  0
   -0.7065   23.3407  -28.4376 H   0  0  0  0  0  0  0  0  0  0  0  0
   -1.6697   23.1270  -29.9386 H   0  0  0  0  0  0  0  0  0  0  0  0
   -0.2345   24.2072  -29.9386 H   0  0  0  0  0  0  0  0  0  0  0  0
   -2.8978   23.5946  -27.6801 H   0  0  0  0  0  0  0  0  0  0  0  0
   -3.4730   25.3003  -27.5492 H   0  0  0  0  0  0  0  0  0  0  0  0
   -4.9757   22.4980  -28.0921 H   0  0  0  0  0  0  0  0  0  0  0  0
   -6.8348   22.0106  -29.6803 H   0  0  0  0  0  0  0  0  0  0  0  0
   -8.4070   23.8174  -31.6227 H   0  0  0  0  0  0  0  0  0  0  0  0
   -7.1988   23.7640  -32.9565 H   0  0  0  0  0  0  0  0  0  0  0  0
   -9.7185   22.0155  -31.5319 H   0  0  0  0  0  0  0  0  0  0  0  0
  -10.1089   19.5331  -31.7522 H   0  0  0  0  0  0  0  0  0  0  0  0
   -4.4852   16.3782  -31.8847 H   0  0  0  0  0  0  0  0  0  0  0  0
   -3.6490   14.1092  -32.4897 H   0  0  0  0  0  0  0  0  0  0  0  0
   -4.8479   12.7455  -34.2016 H   0  0  0  0  0  0  0  0  0  0  0  0
   -6.8916   13.6508  -35.3086 H   0  0  0  0  0  0  0  0  0  0  0  0
   -7.7428   15.9144  -34.7088 H   0  0  0  0  0  0  0  0  0  0  0  0
   -4.9340   18.9170  -33.2270 H   0  0  0  0  0  0  0  0  0  0  0  0
   -5.5964   21.5776  -32.6721 H   0  0  0  0  0  0  0  0  0  0  0  0
   -5.6389   25.3855  -32.1159 H   0  0  0  0  0  0  0  0  0  0  0  0
   -3.7818   25.8750  -30.5280 H   0  0  0  0  0  0  0  0  0  0  0  0
  1  2  1  0
  2  3  1  0
  2  4  1  0
  4  5  1  0
  5  6  2  0
  6  7  1  0
  7  8  2  0
  8  9  1  0
  9 10  1  0
 10 11  1  0
 11 12  2  0
 12 13  1  0
 13 14  2  0
 14 15  1  0
 15 16  1  0
 16 17  2  0
 17 18  1  0
 18 19  2  0
 19 20  1  0
 20 21  2  0
 15 22  2  0
 22 23  1  0
 23 24  2  0
  8 25  1  0
 25 26  2  0
 26  5  1  0
 24 10  1  0
 23 13  1  0
 21 16  1  0
  1 27  1  0
  1 28  1  0
  1 29  1  0
  3 30  1  0
  3 31  1  0
  3 32  1  0
  4 33  1  0
  4 34  1  0
  6 35  1  0
  7 36  1  0
  9 37  1  0
  9 38  1  0
 11 39  1  0
 12 40  1  0
 17 41  1  0
 18 42  1  0
 19 43  1  0
 20 44  1  0
 21 45  1  0
 22 46  1  0
 24 47  1  0
 25 48  1  0
 26 49  1  0
M  CHG  1  22   1
M  END
>  <UniqueID>  (40) 
39

>  <SMILES>  (40) 
CN(C)Cc1ccc(Cn2ccc3nc(-c4ccccc4)[nH+]c-3c2)cc1

>  <Energy>  (40) 
92.40791315001943

>  <Genealogy>  (40) 
CN(C)Cc1ccc(Cn2ccc3nc(-c4ccccc4)[nH+]c-3c2)cc1 (protonated)
CN(C)Cc1ccc(Cn2ccc3nc(-c4ccccc4)[nH+]c-3c2)cc1 (3D coordinates assigned)
CN(C)Cc1ccc(Cn2ccc3nc(-c4ccccc4)[nH+]c-3c2)cc1 (optimized conformer: 92.40791315001943 kcal/mol)

>  <smiles>  (40) 
CN(C)Cc1ccc(Cn2ccc3nc(-c4ccccc4)nc-3c2)cc1

>  <score_type>  (40) 
oracle

>  <origin>  (40) 
adg

>  <m_score__min__energy>  (40) 
-8.3200000000000003

>  <m_primary>  (40) 
energy

$$$$
40:0
     RDKit          3D

 60 60  0  0  0  0  0  0  0  0999 V2000
   -0.9180   21.3910  -30.2560 C   0  0  0  0  0  0  0  0  0  0  0  0
   -2.2930   20.8070  -29.9150 C   0  0  0  0  0  0  0  0  0  0  0  0
   -3.1760   20.7200  -31.0930 N   0  0  0  0  0  0  0  0  0  0  0  0
   -2.6820   21.5270  -32.2220 C   0  0  0  0  0  0  0  0  0  0  0  0
   -3.6300   21.4100  -33.4280 C   0  0  0  0  0  0  0  0  0  0  0  0
   -4.3710   20.0650  -33.4530 C   0  0  0  0  0  0  0  0  0  0  0  0
   -5.2630   19.9240  -32.2920 N   0  0  0  0  0  0  0  0  0  0  0  0
   -5.8700   18.5860  -32.2360 C   0  0  0  0  0  0  0  0  0  0  0  0
   -7.1370   18.5370  -33.0970 C   0  0  0  0  0  0  0  0  0  0  0  0
   -8.4020   18.3420  -32.2440 C   0  0  0  0  0  0  0  0  0  0  0  0
   -8.7830   19.6200  -31.4710 C   0  0  0  0  0  0  0  0  0  0  0  0
   -8.1570   20.8260  -32.0380 N   0  0  0  0  0  0  0  0  0  0  0  0
   -8.8130   22.0960  -31.6770 C   0  0  0  0  0  0  0  0  0  0  0  0
   -7.9590   23.3590  -31.9130 C   0  0  0  0  0  0  0  0  0  0  0  0
   -6.5100   23.0540  -32.3110 C   0  0  0  0  0  0  0  0  0  0  0  0
   -5.8190   22.3780  -31.1950 N   0  0  0  0  0  0  0  0  0  0  0  0
   -5.9710   23.0920  -29.9170 C   0  0  0  0  0  0  0  0  0  0  0  0
   -4.6320   23.3900  -29.2950 C   0  0  0  0  0  0  0  0  0  0  0  0
   -3.7290   24.2490  -29.9430 C   0  0  0  0  0  0  0  0  0  0  0  0
   -2.5060   24.5660  -29.3440 C   0  0  0  0  0  0  0  0  0  0  0  0
   -2.1750   24.0280  -28.0980 C   0  0  0  0  0  0  0  0  0  0  0  0
   -3.0650   23.1680  -27.4500 C   0  0  0  0  0  0  0  0  0  0  0  0
   -4.2900   22.8490  -28.0450 C   0  0  0  0  0  0  0  0  0  0  0  0
   -0.3766   21.6210  -29.3265 H   0  0  0  0  0  0  0  0  0  0  0  0
   -0.3441   20.6590  -30.8431 H   0  0  0  0  0  0  0  0  0  0  0  0
   -1.0463   22.3123  -30.8431 H   0  0  0  0  0  0  0  0  0  0  0  0
   -2.1550   19.7969  -29.5019 H   0  0  0  0  0  0  0  0  0  0  0  0
   -2.7711   21.4790  -29.1871 H   0  0  0  0  0  0  0  0  0  0  0  0
   -3.2820   19.7210  -31.3860 H   0  0  0  0  0  0  0  0  0  0  0  0
   -4.1210   21.0770  -30.8120 H   0  0  0  0  0  0  0  0  0  0  0  0
   -2.6191   22.5808  -31.9127 H   0  0  0  0  0  0  0  0  0  0  0  0
   -1.6887   21.1560  -32.5148 H   0  0  0  0  0  0  0  0  0  0  0  0
   -4.3705   22.2218  -33.3770 H   0  0  0  0  0  0  0  0  0  0  0  0
   -3.0236   21.4793  -34.3431 H   0  0  0  0  0  0  0  0  0  0  0  0
   -4.9692   20.0026  -34.3740 H   0  0  0  0  0  0  0  0  0  0  0  0
   -3.6252   19.2573  -33.4176 H   0  0  0  0  0  0  0  0  0  0  0  0
   -6.0390   20.6200  -32.4010 H   0  0  0  0  0  0  0  0  0  0  0  0
   -5.1486   17.8449  -32.6105 H   0  0  0  0  0  0  0  0  0  0  0  0
   -6.1383   18.3595  -31.1935 H   0  0  0  0  0  0  0  0  0  0  0  0
   -7.2255   19.4815  -33.6538 H   0  0  0  0  0  0  0  0  0  0  0  0
   -7.0515   17.6801  -33.7814 H   0  0  0  0  0  0  0  0  0  0  0  0
   -9.2365   18.0654  -32.9052 H   0  0  0  0  0  0  0  0  0  0  0  0
   -8.1959   17.5502  -31.5087 H   0  0  0  0  0  0  0  0  0  0  0  0
   -9.8759   19.7404  -31.5041 H   0  0  0  0  0  0  0  0  0  0  0  0
   -8.4211   19.5080  -30.4383 H   0  0  0  0  0  0  0  0  0  0  0  0
   -7.1520   20.8570  -31.7500 H   0  0  0  0  0  0  0  0  0  0  0  0
   -9.7316   22.1881  -32.2751 H   0  0  0  0  0  0  0  0  0  0  0  0
   -9.0010   22.0489  -30.5942 H   0  0  0  0  0  0  0  0  0  0  0  0
   -8.4240   23.9481  -32.7172 H   0  0  0  0  0  0  0  0  0  0  0  0
   -7.9234   23.9073  -30.9601 H   0  0  0  0  0  0  0  0  0  0  0  0
   -6.5037   22.3995  -33.1951 H   0  0  0  0  0  0  0  0  0  0  0  0
   -5.9906   23.9951  -32.5444 H   0  0  0  0  0  0  0  0  0  0  0  0
   -6.2490   21.4310  -31.0730 H   0  0  0  0  0  0  0  0  0  0  0  0
   -6.5017   24.0387  -30.0962 H   0  0  0  0  0  0  0  0  0  0  0  0
   -6.5401   22.4519  -29.2268 H   0  0  0  0  0  0  0  0  0  0  0  0
   -3.9849   24.6737  -30.9249 H   0  0  0  0  0  0  0  0  0  0  0  0
   -1.8030   25.2404  -29.8549 H   0  0  0  0  0  0  0  0  0  0  0  0
   -1.2137   24.2815  -27.6272 H   0  0  0  0  0  0  0  0  0  0  0  0
   -2.8021   22.7413  -26.4708 H   0  0  0  0  0  0  0  0  0  0  0  0
   -4.9883   22.1716  -27.5317 H   0  0  0  0  0  0  0  0  0  0  0  0
  1  2  1  0
  2  3  1  0
  3  4  1  0
  4  5  1  0
  5  6  1  0
  6  7  1  0
  7  8  1  0
  8  9  1  0
  9 10  1  0
 10 11  1  0
 11 12  1  0
 12 13  1  0
 13 14  1  0
 14 15  1  0
 15 16  1  0
 16 17  1  0
 17 18  1  0
 18 19  2  0
 19 20  1  0
 20 21  2  0
 21 22  1  0
 22 23  2  0
 23 18  1  0
  1 24  1  0
  1 25  1  0
  1 26  1  0
  2 27  1  0
  2 28  1  0
  3 29  1  0
  3 30  1  0
  4 31  1  0
  4 32  1  0
  5 33  1  0
  5 34  1  0
  6 35  1  0
  6 36  1  0
  7 37  1  0
  8 38  1  0
  8 39  1  0
  9 40  1  0
  9 41  1  0
 10 42  1  0
 10 43  1  0
 11 44  1  0
 11 45  1  0
 12 46  1  0
 13 47  1  0
 13 48  1  0
 14 49  1  0
 14 50  1  0
 15 51  1  0
 15 52  1  0
 16 53  1  0
 17 54  1  0
 17 55  1  0
 19 56  1  0
 20 57  1  0
 21 58  1  0
 22 59  1  0
 23 60  1  0
M  CHG  1   3   1
M  END
>  <UniqueID>  (41) 
40

>  <SMILES>  (41) 
CC[NH2+]CCCNCCCCNCCCNCc1ccccc1

>  <Energy>  (41) 
43.68533384318277

>  <Genealogy>  (41) 
CC[NH2+]CCCNCCCCNCCCNCc1ccccc1 (protonated)
CC[NH2+]CCCNCCCCNCCCNCc1ccccc1 (3D coordinates assigned)
CC[NH2+]CCCNCCCCNCCCNCc1ccccc1 (optimized conformer: 43.68533384318277 kcal/mol)

>  <smiles>  (41) 
CCNCCCNCCCCNCCCNCc1ccccc1

>  <score_type>  (41) 
oracle

>  <origin>  (41) 
adg

>  <m_score__min__energy>  (41) 
-7.5099999999999998

>  <m_primary>  (41) 
energy

$$$$
41:0
     RDKit          3D

 44 47  0  0  0  0  0  0  0  0999 V2000
   -4.0440   24.4680  -31.5820 H   0  0  0  0  0  0  0  0  0  0  0  0
   -4.4350   25.3020  -31.2140 O   0  0  0  0  0  0  0  0  0  0  0  0
   -5.5180   24.9310  -30.3990 C   0  0  2  0  0  0  0  0  0  0  0  0
   -6.2097   25.7429  -30.1300 H   0  0  0  0  0  0  0  0  0  0  0  0
   -4.9780   24.5260  -28.9970 C   0  0  0  0  0  0  0  0  0  0  0  0
   -4.7550   25.4486  -28.4410 H   0  0  0  0  0  0  0  0  0  0  0  0
   -5.7650   23.9090  -28.5387 H   0  0  0  0  0  0  0  0  0  0  0  0
   -3.7370   23.6750  -28.9980 C   0  0  0  0  0  0  0  0  0  0  0  0
   -2.4760   24.2530  -29.2350 C   0  0  0  0  0  0  0  0  0  0  0  0
   -2.3939   25.3359  -29.4099 H   0  0  0  0  0  0  0  0  0  0  0  0
   -1.3280   23.4570  -29.2490 C   0  0  0  0  0  0  0  0  0  0  0  0
   -0.3459   23.9126  -29.4436 H   0  0  0  0  0  0  0  0  0  0  0  0
   -1.4260   22.0820  -29.0160 C   0  0  0  0  0  0  0  0  0  0  0  0
   -0.5215   21.4562  -29.0311 H   0  0  0  0  0  0  0  0  0  0  0  0
   -2.6720   21.5020  -28.7640 C   0  0  0  0  0  0  0  0  0  0  0  0
   -2.7466   20.4208  -28.5756 H   0  0  0  0  0  0  0  0  0  0  0  0
   -3.8240   22.2940  -28.7510 C   0  0  0  0  0  0  0  0  0  0  0  0
   -4.8024   21.8346  -28.5467 H   0  0  0  0  0  0  0  0  0  0  0  0
   -6.4770   23.9920  -31.2120 C   0  0  2  0  0  0  0  0  0  0  0  0
   -7.0673   24.8278  -31.6157 H   0  0  0  0  0  0  0  0  0  0  0  0
   -7.3650   23.0430  -30.4420 C   0  0  0  0  0  0  0  0  0  0  0  0
   -8.2650   23.5649  -30.0848 H   0  0  0  0  0  0  0  0  0  0  0  0
   -6.8534   22.6374  -29.5567 H   0  0  0  0  0  0  0  0  0  0  0  0
   -7.7140   22.0310  -31.3450 O   0  0  0  0  0  0  0  0  0  0  0  0
   -6.7260   22.0360  -32.3610 C   0  0  2  0  0  0  0  0  0  0  0  0
   -7.3139   21.8351  -33.2688 H   0  0  0  0  0  0  0  0  0  0  0  0
   -5.6050   21.1500  -32.0240 C   0  0  0  0  0  0  0  0  0  0  0  0
   -5.4660   19.8530  -31.7510 C   0  0  0  0  0  0  0  0  0  0  0  0
   -5.0708   19.5629  -30.7663 H   0  0  0  0  0  0  0  0  0  0  0  0
   -5.8180   18.7900  -32.7090 C   0  0  0  0  0  0  0  0  0  0  0  0
   -6.5600   17.6610  -32.3190 C   0  0  0  0  0  0  0  0  0  0  0  0
   -6.8888   17.5547  -31.2747 H   0  0  0  0  0  0  0  0  0  0  0  0
   -6.8810   16.6730  -33.2550 C   0  0  0  0  0  0  0  0  0  0  0  0
   -7.4702   15.7964  -32.9477 H   0  0  0  0  0  0  0  0  0  0  0  0
   -6.4550   16.7970  -34.5790 C   0  0  0  0  0  0  0  0  0  0  0  0
   -6.7173   16.0232  -35.3155 H   0  0  0  0  0  0  0  0  0  0  0  0
   -5.6960   17.9030  -34.9690 C   0  0  0  0  0  0  0  0  0  0  0  0
   -5.3540   17.9957  -36.0104 H   0  0  0  0  0  0  0  0  0  0  0  0
   -5.3710   18.8920  -34.0360 C   0  0  0  0  0  0  0  0  0  0  0  0
   -4.7617   19.7548  -34.3432 H   0  0  0  0  0  0  0  0  0  0  0  0
   -4.7380   22.4160  -32.0680 C   0  0  0  0  0  0  0  0  0  0  0  0
   -3.5010   22.6430  -32.0440 O   0  0  0  0  0  0  0  0  0  0  0  0
   -5.9230   23.2030  -32.3170 N   0  0  2  0  0  0  0  0  0  0  0  0
   -5.8820   23.7040  -33.2360 H   0  0  0  0  0  0  0  0  0  0  0  0
  1  2  1  0
  2  3  1  0
  3  4  1  1
  3  5  1  0
  5  6  1  0
  5  7  1  0
  5  8  1  0
  8  9  2  0
  9 10  1  0
  9 11  1  0
 11 12  1  0
 11 13  2  0
 13 14  1  0
 13 15  1  0
 15 16  1  0
 15 17  2  0
 17 18  1  0
  3 19  1  0
 19 20  1  6
 19 21  1  0
 21 22  1  0
 21 23  1  0
 21 24  1  0
 24 25  1  0
 25 26  1  6
 25 27  1  0
 27 28  2  0
 28 29  1  0
 28 30  1  0
 30 31  2  0
 31 32  1  0
 31 33  1  0
 33 34  1  0
 33 35  2  0
 35 36  1  0
 35 37  1  0
 37 38  1  0
 37 39  2  0
 39 40  1  0
 27 41  1  0
 41 42  2  0
 41 43  1  0
 43 44  1  6
 17  8  1  0
 43 19  1  0
 43 25  1  0
 39 30  1  0
M  CHG  1  43   1
M  END
>  <UniqueID>  (42) 
41

>  <SMILES>  (42) 
O=C1/C(=C\c2ccccc2)[C@H]2OC[C@@H](C(O)Cc3ccccc3)[NH+]12

>  <Energy>  (42) 
93.99417666102882

>  <Genealogy>  (42) 
O=C1C(=Cc2ccccc2)C2OCC(C(O)Cc3ccccc3)[NH+]12 (protonated)
O=C1C(=Cc2ccccc2)[C@H]2OC[C@@H](C(O)Cc3ccccc3)[NH+]12 (chirality)
O=C1/C(=C\c2ccccc2)[C@H]2OC[C@@H](C(O)Cc3ccccc3)[NH+]12 (cis-trans isomerization)
O=C1/C(=C\c2ccccc2)[C@H]2OC[C@@H](C(O)Cc3ccccc3)[NH+]12 (3D coordinates assigned)
O=C1/C(=C\c2ccccc2)[C@H]2OC[C@@H](C(O)Cc3ccccc3)[NH+]12 (nonaromatic ring conformer: 93.99417666102882 kcal/mol)

>  <smiles>  (42) 
O=C1C(=Cc2ccccc2)C2OCC(C([O-])Cc3ccccc3)N12

>  <score_type>  (42) 
oracle

>  <origin>  (42) 
adg

>  <m_score__min__energy>  (42) 
-8.25

>  <m_primary>  (42) 
energy

$$$$
42:0
     RDKit          3D

 40 42  0  0  0  0  0  0  0  0999 V2000
   -9.5140   21.5440  -30.8560 C   0  0  0  0  0  0  0  0  0  0  0  0
   -8.3690   21.0390  -31.6350 N   0  0  0  0  0  0  0  0  0  0  0  0
   -7.3980   21.8980  -32.0960 C   0  0  0  0  0  0  0  0  0  0  0  0
   -7.5170   23.6870  -31.8520 S   0  0  0  0  0  0  0  0  0  0  0  0
   -6.2720   23.7650  -30.5140 C   0  0  0  0  0  0  0  0  0  0  0  0
   -4.8870   23.8750  -31.0670 C   0  0  0  0  0  0  0  0  0  0  0  0
   -4.2040   24.9060  -30.8330 O   0  0  0  0  0  0  0  0  0  0  0  0
   -4.4070   22.8500  -31.9470 N   0  0  0  0  0  0  0  0  0  0  0  0
   -3.1640   22.1410  -31.8660 C   0  0  0  0  0  0  0  0  0  0  0  0
   -2.6500   21.6600  -30.6490 C   0  0  0  0  0  0  0  0  0  0  0  0
   -1.4390   20.9640  -30.6260 C   0  0  0  0  0  0  0  0  0  0  0  0
   -0.7350   20.7360  -31.8110 C   0  0  0  0  0  0  0  0  0  0  0  0
   -1.2440   21.1930  -33.0400 C   0  0  0  0  0  0  0  0  0  0  0  0
   -0.5270   20.9570  -34.2660 N   0  0  0  0  0  0  0  0  0  0  0  0
   -0.6490   19.8750  -34.8760 O   0  0  0  0  0  0  0  0  0  0  0  0
    0.3130   21.9180  -34.7820 O   0  0  0  0  0  0  0  0  0  0  0  0
   -2.4680   21.8840  -33.0550 C   0  0  0  0  0  0  0  0  0  0  0  0
   -6.3290   21.4190  -32.7880 N   0  0  0  0  0  0  0  0  0  0  0  0
   -6.2200   20.1000  -33.1000 C   0  0  0  0  0  0  0  0  0  0  0  0
   -5.1220   19.6320  -33.8400 C   0  0  0  0  0  0  0  0  0  0  0  0
   -5.0280   18.2790  -34.1770 C   0  0  0  0  0  0  0  0  0  0  0  0
   -6.0260   17.3860  -33.7810 C   0  0  0  0  0  0  0  0  0  0  0  0
   -7.1220   17.8420  -33.0440 C   0  0  0  0  0  0  0  0  0  0  0  0
   -7.2260   19.2030  -32.6960 C   0  0  0  0  0  0  0  0  0  0  0  0
   -8.3080   19.7040  -31.9560 C   0  0  0  0  0  0  0  0  0  0  0  0
   -9.2310   18.9200  -31.5940 O   0  0  0  0  0  0  0  0  0  0  0  0
   -9.2973   21.4484  -29.7818 H   0  0  0  0  0  0  0  0  0  0  0  0
   -9.6871   22.6020  -31.1024 H   0  0  0  0  0  0  0  0  0  0  0  0
  -10.4120   20.9584  -31.1024 H   0  0  0  0  0  0  0  0  0  0  0  0
   -6.4773   24.6432  -29.8842 H   0  0  0  0  0  0  0  0  0  0  0  0
   -6.3379   22.8391  -29.9237 H   0  0  0  0  0  0  0  0  0  0  0  0
   -3.2023   21.8320  -29.7134 H   0  0  0  0  0  0  0  0  0  0  0  0
   -1.0380   20.5939  -29.6709 H   0  0  0  0  0  0  0  0  0  0  0  0
    0.2229   20.1960  -31.7827 H   0  0  0  0  0  0  0  0  0  0  0  0
   -2.8852   22.2277  -34.0130 H   0  0  0  0  0  0  0  0  0  0  0  0
   -5.5950   22.0900  -33.1100 H   0  0  0  0  0  0  0  0  0  0  0  0
   -4.3341   20.3320  -34.1551 H   0  0  0  0  0  0  0  0  0  0  0  0
   -4.1656   17.9165  -34.7557 H   0  0  0  0  0  0  0  0  0  0  0  0
   -5.9492   16.3221  -34.0497 H   0  0  0  0  0  0  0  0  0  0  0  0
   -7.9064   17.1357  -32.7344 H   0  0  0  0  0  0  0  0  0  0  0  0
  1  2  1  0
  2  3  1  0
  3  4  1  0
  4  5  1  0
  5  6  1  0
  6  7  2  0
  6  8  1  0
  8  9  1  0
  9 10  2  0
 10 11  1  0
 11 12  2  0
 12 13  1  0
 13 14  1  0
 14 15  2  0
 14 16  1  0
 13 17  2  0
  3 18  2  0
 18 19  1  0
 19 20  2  0
 20 21  1  0
 21 22  2  0
 22 23  1  0
 23 24  2  0
 24 25  1  0
 25 26  2  0
 25  2  1  0
 17  9  1  0
 24 19  1  0
  1 27  1  0
  1 28  1  0
  1 29  1  0
  5 30  1  0
  5 31  1  0
 10 32  1  0
 11 33  1  0
 12 34  1  0
 17 35  1  0
 18 36  1  0
 20 37  1  0
 21 38  1  0
 22 39  1  0
 23 40  1  0
M  CHG  4   8  -1  14   1  16  -1  18   1
M  END
>  <UniqueID>  (43) 
42

>  <SMILES>  (43) 
Cn1c(SCC(=O)[N-]c2cccc([N+](=O)[O-])c2)[nH+]c2ccccc2c1=O

>  <Energy>  (43) 
48.49547908546463

>  <Genealogy>  (43) 
Cn1c(SCC(=O)[N-]c2cccc([N+](=O)[O-])c2)[nH+]c2ccccc2c1=O (protonated)
Cn1c(SCC(=O)[N-]c2cccc([N+](=O)[O-])c2)[nH+]c2ccccc2c1=O (3D coordinates assigned)
Cn1c(SCC(=O)[N-]c2cccc([N+](=O)[O-])c2)[nH+]c2ccccc2c1=O (optimized conformer: 48.49547908546463 kcal/mol)

>  <smiles>  (43) 
Cn1c(SCC(=O)Nc2cccc([N+](=O)[O-])c2)nc2ccccc2c1=O

>  <score_type>  (43) 
oracle

>  <origin>  (43) 
adg

>  <m_score__min__energy>  (43) 
-9.9299999999999997

>  <m_primary>  (43) 
energy

$$$$
43:0
     RDKit          3D

 34 36  0  0  0  0  0  0  0  0999 V2000
   -7.6970   22.3950  -32.3060 C   0  0  0  0  0  0  0  0  0  0  0  0
   -7.7830   20.8940  -32.3290 C   0  0  0  0  0  0  0  0  0  0  0  0
   -9.0370   20.2700  -32.2030 C   0  0  0  0  0  0  0  0  0  0  0  0
   -9.1420   18.8790  -32.2170 C   0  0  0  0  0  0  0  0  0  0  0  0
   -7.9960   18.0930  -32.3440 C   0  0  0  0  0  0  0  0  0  0  0  0
   -6.7420   18.6960  -32.4590 C   0  0  0  0  0  0  0  0  0  0  0  0
   -6.6200   20.0980  -32.4600 C   0  0  0  0  0  0  0  0  0  0  0  0
   -5.3200   20.7100  -32.5390 N   0  0  0  0  0  0  0  0  0  0  0  0
   -4.1750   20.0680  -33.1210 C   0  0  0  0  0  0  0  0  0  0  0  0
   -4.2970   18.9810  -33.7480 O   0  0  0  0  0  0  0  0  0  0  0  0
   -2.8220   20.6870  -32.9810 C   0  0  0  0  0  0  0  0  0  0  0  0
   -2.3710   20.7580  -31.2180 S   0  0  0  0  0  0  0  0  0  0  0  0
   -3.4570   22.1380  -30.8810 C   0  0  0  0  0  0  0  0  0  0  0  0
   -4.6710   21.9850  -30.2860 N   0  0  0  0  0  0  0  0  0  0  0  0
   -5.1210   23.2450  -30.2320 C   0  0  0  0  0  0  0  0  0  0  0  0
   -6.3240   23.7140  -29.7190 C   0  0  0  0  0  0  0  0  0  0  0  0
   -6.5550   25.1010  -29.7860 C   0  0  0  0  0  0  0  0  0  0  0  0
   -5.5770   25.9480  -30.3590 C   0  0  0  0  0  0  0  0  0  0  0  0
   -4.4100   25.4280  -30.8490 N   0  0  0  0  0  0  0  0  0  0  0  0
   -4.2090   24.0890  -30.7750 C   0  0  0  0  0  0  0  0  0  0  0  0
   -3.1320   23.4200  -31.2020 N   0  0  0  0  0  0  0  0  0  0  0  0
   -7.6769   22.7452  -31.2634 H   0  0  0  0  0  0  0  0  0  0  0  0
   -6.7789   22.7176  -32.8189 H   0  0  0  0  0  0  0  0  0  0  0  0
   -8.5722   22.8203  -32.8189 H   0  0  0  0  0  0  0  0  0  0  0  0
   -9.9429   20.8841  -32.0924 H   0  0  0  0  0  0  0  0  0  0  0  0
  -10.1289   18.4014  -32.1279 H   0  0  0  0  0  0  0  0  0  0  0  0
   -8.0808   16.9963  -32.3535 H   0  0  0  0  0  0  0  0  0  0  0  0
   -5.8420   18.0701  -32.5496 H   0  0  0  0  0  0  0  0  0  0  0  0
   -5.2090   21.6920  -32.2010 H   0  0  0  0  0  0  0  0  0  0  0  0
   -2.0827   20.0809  -33.5251 H   0  0  0  0  0  0  0  0  0  0  0  0
   -2.8378   21.7047  -33.3982 H   0  0  0  0  0  0  0  0  0  0  0  0
   -7.0648   23.0302  -29.2790 H   0  0  0  0  0  0  0  0  0  0  0  0
   -7.4917   25.5245  -29.3946 H   0  0  0  0  0  0  0  0  0  0  0  0
   -5.7561   27.0321  -30.4109 H   0  0  0  0  0  0  0  0  0  0  0  0
  1  2  1  0
  2  3  2  0
  3  4  1  0
  4  5  2  0
  5  6  1  0
  6  7  2  0
  7  8  1  0
  8  9  1  0
  9 10  2  0
  9 11  1  0
 11 12  1  0
 12 13  1  0
 13 14  2  0
 14 15  1  0
 15 16  2  0
 16 17  1  0
 17 18  2  0
 18 19  1  0
 19 20  2  0
 20 21  1  0
  7  2  1  0
 21 13  1  0
 20 15  1  0
  1 22  1  0
  1 23  1  0
  1 24  1  0
  3 25  1  0
  4 26  1  0
  5 27  1  0
  6 28  1  0
  8 29  1  0
 11 30  1  0
 11 31  1  0
 16 32  1  0
 17 33  1  0
 18 34  1  0
M  CHG  1  21  -1
M  END
>  <UniqueID>  (44) 
43

>  <SMILES>  (44) 
Cc1ccccc1NC(=O)CSc1nc2cccnc2[n-]1

>  <Energy>  (44) 
72.27851020466656

>  <Genealogy>  (44) 
Cc1ccccc1NC(=O)CSc1nc2cccnc2[n-]1 (protonated)
Cc1ccccc1NC(=O)CSc1nc2cccnc2[n-]1 (3D coordinates assigned)
Cc1ccccc1NC(=O)CSc1nc2cccnc2[n-]1 (optimized conformer: 72.27851020466656 kcal/mol)

>  <smiles>  (44) 
Cc1ccccc1NC(=O)CSc1nc2cccnc2[nH]1

>  <score_type>  (44) 
oracle

>  <origin>  (44) 
adg

>  <m_score__min__energy>  (44) 
-9.0099999999999998

>  <m_primary>  (44) 
energy

$$$$
