0:0
     RDKit          3D

 33 35  0  0  0  0  0  0  0  0999 V2000
   -9.4780   18.5310  -31.9710 C   0  0  0  0  0  0  0  0  0  0  0  0
   -8.1280   19.1730  -32.0990 C   0  0  0  0  0  0  0  0  0  0  0  0
   -7.7700   20.2330  -31.2570 C   0  0  0  0  0  0  0  0  0  0  0  0
   -6.5050   20.8130  -31.3570 C   0  0  0  0  0  0  0  0  0  0  0  0
   -5.5680   20.3380  -32.2870 C   0  0  0  0  0  0  0  0  0  0  0  0
   -3.9920   21.1390  -32.3930 S   0  0  0  0  0  0  0  0  0  0  0  0
   -2.9190   20.2690  -31.7970 O   0  0  0  0  0  0  0  0  0  0  0  0
   -3.6670   21.3650  -33.8430 O   0  0  0  0  0  0  0  0  0  0  0  0
   -4.0290   22.6420  -31.5130 N   0  0  0  0  0  0  0  0  0  0  0  0
   -4.9760   23.6240  -31.5080 C   0  0  0  0  0  0  0  0  0  0  0  0
   -6.3490   23.5950  -32.3980 S   0  0  0  0  0  0  0  0  0  0  0  0
   -4.6790   24.6630  -30.6830 N   0  0  0  0  0  0  0  0  0  0  0  0
   -3.4950   24.2920  -30.1660 C   0  0  0  0  0  0  0  0  0  0  0  0
   -2.7560   24.9910  -29.2690 N   0  0  0  0  0  0  0  0  0  0  0  0
   -1.5660   24.4680  -28.8440 C   0  0  0  0  0  0  0  0  0  0  0  0
   -1.1140   23.2200  -29.3340 C   0  0  0  0  0  0  0  0  0  0  0  0
   -1.8940   22.5100  -30.2640 C   0  0  0  0  0  0  0  0  0  0  0  0
   -3.0980   23.0890  -30.6580 C   0  0  0  0  0  0  0  0  0  0  0  0
   -5.9080   19.2390  -33.1140 C   0  0  0  0  0  0  0  0  0  0  0  0
   -4.9530   18.6840  -34.1370 C   0  0  0  0  0  0  0  0  0  0  0  0
   -7.1920   18.6740  -33.0140 C   0  0  0  0  0  0  0  0  0  0  0  0
   -9.7280   18.4121  -30.9064 H   0  0  0  0  0  0  0  0  0  0  0  0
  -10.2336   19.1662  -32.4564 H   0  0  0  0  0  0  0  0  0  0  0  0
   -9.4622   17.5440  -32.4564 H   0  0  0  0  0  0  0  0  0  0  0  0
   -8.4885   20.6097  -30.5142 H   0  0  0  0  0  0  0  0  0  0  0  0
   -6.2390   21.6531  -30.6986 H   0  0  0  0  0  0  0  0  0  0  0  0
   -0.9555   25.0219  -28.1156 H   0  0  0  0  0  0  0  0  0  0  0  0
   -0.1551   22.8063  -28.9884 H   0  0  0  0  0  0  0  0  0  0  0  0
   -1.5672   21.5386  -30.6634 H   0  0  0  0  0  0  0  0  0  0  0  0
   -4.1111   18.1947  -33.6253 H   0  0  0  0  0  0  0  0  0  0  0  0
   -5.4763   17.9493  -34.7666 H   0  0  0  0  0  0  0  0  0  0  0  0
   -4.5738   19.5024  -34.7666 H   0  0  0  0  0  0  0  0  0  0  0  0
   -7.4650   17.8289  -33.6630 H   0  0  0  0  0  0  0  0  0  0  0  0
  1  2  1  0
  2  3  2  0
  3  4  1  0
  4  5  2  0
  5  6  1  0
  6  7  2  0
  6  8  2  0
  6  9  1  0
  9 10  1  0
 10 11  2  0
 10 12  1  0
 12 13  1  0
 13 14  2  0
 14 15  1  0
 15 16  2  0
 16 17  1  0
 17 18  2  0
  5 19  1  0
 19 20  1  0
 19 21  2  0
 21  2  1  0
 18  9  1  0
 18 13  1  0
  1 22  1  0
  1 23  1  0
  1 24  1  0
  3 25  1  0
  4 26  1  0
 15 27  1  0
 16 28  1  0
 17 29  1  0
 20 30  1  0
 20 31  1  0
 20 32  1  0
 21 33  1  0
M  CHG  1  12  -1
M  END
>  <UniqueID>  (1) 
1

>  <SMILES>  (1) 
Cc1ccc(S(=O)(=O)n2c(=S)[n-]c3ncccc32)c(C)c1

>  <Energy>  (1) 
78.96078070612248

>  <Genealogy>  (1) 
Cc1ccc(S(=O)(=O)n2c(=S)[n-]c3ncccc32)c(C)c1 (protonated)
Cc1ccc(S(=O)(=O)n2c(=S)[n-]c3ncccc32)c(C)c1 (3D coordinates assigned)
Cc1ccc(S(=O)(=O)n2c(=S)[n-]c3ncccc32)c(C)c1 (optimized conformer: 78.96078070612248 kcal/mol)

>  <smiles>  (1) 
Cc1ccc(S(=O)(=O)n2c(=S)[nH]c3ncccc32)c(C)c1

>  <score_type>  (1) 
oracle

>  <origin>  (1) 
adg

>  <m_score__min__energy>  (1) 
-8.9299999999999997

>  <m_primary>  (1) 
energy

$$$$
1:0
     RDKit          3D

 51 53  0  0  0  0  0  0  0  0999 V2000
   -3.4340   18.6420  -26.0060 C   0  0  0  0  0  0  0  0  0  0  0  0
   -1.8900   19.3120  -26.5750 S   0  0  0  0  0  0  0  0  0  0  0  0
   -1.1690   18.3100  -27.7130 O   0  0  0  0  0  0  0  0  0  0  0  0
   -2.0820   20.9350  -27.2110 C   0  0  0  0  0  0  0  0  0  0  0  0
   -0.9600   21.7430  -27.4330 C   0  0  0  0  0  0  0  0  0  0  0  0
   -1.1160   23.0360  -27.9390 C   0  0  0  0  0  0  0  0  0  0  0  0
   -2.3950   23.5300  -28.2370 C   0  0  0  0  0  0  0  0  0  0  0  0
   -2.5650   24.9330  -28.7460 C   0  0  0  0  0  0  0  0  0  0  0  0
   -3.1310   24.8920  -30.0890 N   0  0  0  0  0  0  0  0  0  0  0  0
   -3.5950   23.7050  -30.7450 C   0  0  0  0  0  0  0  0  0  0  0  0
   -2.7470   22.8760  -31.1660 O   0  0  0  0  0  0  0  0  0  0  0  0
   -5.0320   23.4060  -30.9050 C   0  0  0  0  0  0  0  0  0  0  0  0
   -6.0020   24.3930  -30.6680 C   0  0  0  0  0  0  0  0  0  0  0  0
   -7.3570   24.1030  -30.8420 C   0  0  0  0  0  0  0  0  0  0  0  0
   -7.7550   22.8330  -31.2630 C   0  0  0  0  0  0  0  0  0  0  0  0
   -6.7940   21.8430  -31.5180 C   0  0  0  0  0  0  0  0  0  0  0  0
   -7.2790   20.2460  -32.0830 S   0  0  0  0  0  0  0  0  0  0  0  0
   -8.3170   19.7080  -31.1380 O   0  0  0  0  0  0  0  0  0  0  0  0
   -7.9000   20.3620  -33.4480 O   0  0  0  0  0  0  0  0  0  0  0  0
   -5.8910   19.1760  -32.1050 N   0  0  0  0  0  0  0  0  0  0  0  0
   -6.2660   17.7740  -31.8250 C   0  0  0  0  0  0  0  0  0  0  0  0
   -6.8070   17.0540  -33.0700 C   0  0  0  0  0  0  0  0  0  0  0  0
   -5.8880   17.1380  -34.1400 O   0  0  0  0  0  0  0  0  0  0  0  0
   -5.7170   18.4900  -34.5080 C   0  0  0  0  0  0  0  0  0  0  0  0
   -5.1060   19.2980  -33.3520 C   0  0  0  0  0  0  0  0  0  0  0  0
   -5.4350   22.1370  -31.3500 C   0  0  0  0  0  0  0  0  0  0  0  0
   -3.5190   22.7220  -27.9970 C   0  0  0  0  0  0  0  0  0  0  0  0
   -3.3610   21.4290  -27.4910 C   0  0  0  0  0  0  0  0  0  0  0  0
   -3.4480   18.6359  -24.9061 H   0  0  0  0  0  0  0  0  0  0  0  0
   -4.2625   19.2615  -26.3798 H   0  0  0  0  0  0  0  0  0  0  0  0
   -3.5475   17.6137  -26.3798 H   0  0  0  0  0  0  0  0  0  0  0  0
   -0.8180   17.5490  -27.1860 H   0  0  0  0  0  0  0  0  0  0  0  0
    0.0461   21.3590  -27.2086 H   0  0  0  0  0  0  0  0  0  0  0  0
   -0.2321   23.6695  -28.1045 H   0  0  0  0  0  0  0  0  0  0  0  0
   -3.2417   25.4867  -28.0786 H   0  0  0  0  0  0  0  0  0  0  0  0
   -1.5875   25.4367  -28.7728 H   0  0  0  0  0  0  0  0  0  0  0  0
   -5.6937   25.3980  -30.3442 H   0  0  0  0  0  0  0  0  0  0  0  0
   -8.1130   24.8778  -30.6467 H   0  0  0  0  0  0  0  0  0  0  0  0
   -8.8236   22.6080  -31.3950 H   0  0  0  0  0  0  0  0  0  0  0  0
   -5.2770   19.4960  -31.3190 H   0  0  0  0  0  0  0  0  0  0  0  0
   -5.3773   17.2358  -31.4636 H   0  0  0  0  0  0  0  0  0  0  0  0
   -7.0651   17.7845  -31.0691 H   0  0  0  0  0  0  0  0  0  0  0  0
   -6.9809   15.9954  -32.8268 H   0  0  0  0  0  0  0  0  0  0  0  0
   -7.7468   17.5374  -33.3750 H   0  0  0  0  0  0  0  0  0  0  0  0
   -5.0477   18.5446  -35.3792 H   0  0  0  0  0  0  0  0  0  0  0  0
   -6.7012   18.9154  -34.7536 H   0  0  0  0  0  0  0  0  0  0  0  0
   -4.0858   18.9316  -33.1649 H   0  0  0  0  0  0  0  0  0  0  0  0
   -5.1049   20.3579  -33.6463 H   0  0  0  0  0  0  0  0  0  0  0  0
   -4.6786   21.3687  -31.5681 H   0  0  0  0  0  0  0  0  0  0  0  0
   -4.5270   23.1085  -28.2081 H   0  0  0  0  0  0  0  0  0  0  0  0
   -4.2441   20.7980  -27.3124 H   0  0  0  0  0  0  0  0  0  0  0  0
  1  2  1  0
  2  3  1  6
  2  4  1  0
  4  5  2  0
  5  6  1  0
  6  7  2  0
  7  8  1  0
  8  9  1  0
  9 10  1  0
 10 11  2  0
 10 12  1  0
 12 13  2  0
 13 14  1  0
 14 15  2  0
 15 16  1  0
 16 17  1  0
 17 18  2  0
 17 19  2  0
 17 20  1  0
 20 21  1  0
 21 22  1  0
 22 23  1  0
 23 24  1  0
 24 25  1  0
 16 26  2  0
  7 27  1  0
 27 28  2  0
 28  4  1  0
 26 12  1  0
 25 20  1  0
  1 29  1  0
  1 30  1  0
  1 31  1  0
  3 32  1  0
  5 33  1  0
  6 34  1  0
  8 35  1  0
  8 36  1  0
 13 37  1  0
 14 38  1  0
 15 39  1  0
 20 40  1  0
 21 41  1  0
 21 42  1  0
 22 43  1  0
 22 44  1  0
 24 45  1  0
 24 46  1  0
 25 47  1  0
 25 48  1  0
 26 49  1  0
 27 50  1  0
 28 51  1  0
M  CHG  3   2   1   9  -1  20   1
M  END
>  <UniqueID>  (2) 
2

>  <SMILES>  (2) 
C[S@@+](O)c1ccc(C[N-]C(=O)c2cccc(S(=O)(=O)[NH+]3CCOCC3)c2)cc1

>  <Energy>  (2) 
54.91647933361949

>  <Genealogy>  (2) 
C[S+](O)c1ccc(C[N-]C(=O)c2cccc(S(=O)(=O)[NH+]3CCOCC3)c2)cc1 (protonated)
C[S@@+](O)c1ccc(C[N-]C(=O)c2cccc(S(=O)(=O)[NH+]3CCOCC3)c2)cc1 (chirality)
C[S@@+](O)c1ccc(C[N-]C(=O)c2cccc(S(=O)(=O)[NH+]3CCOCC3)c2)cc1 (3D coordinates assigned)
C[S@@+](O)c1ccc(C[N-]C(=O)c2cccc(S(=O)(=O)[NH+]3CCOCC3)c2)cc1 (nonaromatic ring conformer: 54.91647933361949 kcal/mol)

>  <smiles>  (2) 
C[S+]([O-])c1ccc(CNC(=O)c2cccc(S(=O)(=O)N3CCOCC3)c2)cc1

>  <score_type>  (2) 
oracle

>  <origin>  (2) 
adg

>  <m_score__min__energy>  (2) 
-11.17

>  <m_primary>  (2) 
energy

$$$$
2:0
     RDKit          3D

 42 44  0  0  0  0  0  0  0  0999 V2000
   -6.1480   25.3780  -30.3190 C   0  0  0  0  0  0  0  0  0  0  0  0
   -5.7080   24.0520  -30.7690 N   0  0  0  0  0  0  0  0  0  0  0  0
   -6.6420   23.1350  -31.1710 C   0  0  0  0  0  0  0  0  0  0  0  0
   -6.2540   21.8640  -31.6220 C   0  0  0  0  0  0  0  0  0  0  0  0
   -7.2410   20.9060  -32.0550 N   0  0  0  0  0  0  0  0  0  0  0  0
   -8.2370   20.3940  -31.1090 C   0  0  0  0  0  0  0  0  0  0  0  0
   -8.7760   19.0320  -31.5790 C   0  0  0  0  0  0  0  0  0  0  0  0
   -7.7280   18.2240  -32.2460 N   0  0  0  0  0  0  0  0  0  0  0  0
   -6.6360   17.8110  -31.3330 C   0  0  0  0  0  0  0  0  0  0  0  0
   -5.3950   17.4280  -32.0980 C   0  0  0  0  0  0  0  0  0  0  0  0
   -4.4530   18.4110  -32.4440 C   0  0  0  0  0  0  0  0  0  0  0  0
   -3.3090   18.0640  -33.1690 C   0  0  0  0  0  0  0  0  0  0  0  0
   -3.0990   16.7370  -33.5540 C   0  0  0  0  0  0  0  0  0  0  0  0
   -4.0340   15.7550  -33.2170 C   0  0  0  0  0  0  0  0  0  0  0  0
   -5.1790   16.0960  -32.4910 C   0  0  0  0  0  0  0  0  0  0  0  0
   -7.2050   18.8810  -33.4730 C   0  0  0  0  0  0  0  0  0  0  0  0
   -7.2780   20.4220  -33.4380 C   0  0  0  0  0  0  0  0  0  0  0  0
   -4.8900   21.5570  -31.6780 C   0  0  0  0  0  0  0  0  0  0  0  0
   -3.9440   22.4990  -31.2780 C   0  0  0  0  0  0  0  0  0  0  0  0
   -2.2350   22.0950  -31.3550 Cl  0  0  0  0  0  0  0  0  0  0  0  0
   -4.3710   23.7540  -30.8240 C   0  0  0  0  0  0  0  0  0  0  0  0
   -3.5120   24.6090  -30.4700 O   0  0  0  0  0  0  0  0  0  0  0  0
   -6.1578   25.4075  -29.2194 H   0  0  0  0  0  0  0  0  0  0  0  0
   -5.4555   26.1430  -30.7002 H   0  0  0  0  0  0  0  0  0  0  0  0
   -7.1604   25.5773  -30.7002 H   0  0  0  0  0  0  0  0  0  0  0  0
   -7.7097   23.3978  -31.1401 H   0  0  0  0  0  0  0  0  0  0  0  0
   -7.7702   20.2768  -30.1199 H   0  0  0  0  0  0  0  0  0  0  0  0
   -9.0728   21.1069  -31.0517 H   0  0  0  0  0  0  0  0  0  0  0  0
   -9.1511   18.4775  -30.7062 H   0  0  0  0  0  0  0  0  0  0  0  0
   -9.5799   19.2160  -32.3069 H   0  0  0  0  0  0  0  0  0  0  0  0
   -6.3973   18.6471  -30.6592 H   0  0  0  0  0  0  0  0  0  0  0  0
   -6.9751   16.9341  -30.7619 H   0  0  0  0  0  0  0  0  0  0  0  0
   -4.6159   19.4566  -32.1437 H   0  0  0  0  0  0  0  0  0  0  0  0
   -2.5732   18.8366  -33.4368 H   0  0  0  0  0  0  0  0  0  0  0  0
   -2.1973   16.4656  -34.1225 H   0  0  0  0  0  0  0  0  0  0  0  0
   -3.8689   14.7116  -33.5235 H   0  0  0  0  0  0  0  0  0  0  0  0
   -5.9125   15.3201  -32.2267 H   0  0  0  0  0  0  0  0  0  0  0  0
   -6.1528   18.5871  -33.6013 H   0  0  0  0  0  0  0  0  0  0  0  0
   -7.8411   18.5506  -34.3074 H   0  0  0  0  0  0  0  0  0  0  0  0
   -6.4222   20.8376  -33.9901 H   0  0  0  0  0  0  0  0  0  0  0  0
   -8.2215   20.7443  -33.9028 H   0  0  0  0  0  0  0  0  0  0  0  0
   -4.5638   20.5703  -32.0384 H   0  0  0  0  0  0  0  0  0  0  0  0
  1  2  1  0
  2  3  1  0
  3  4  2  0
  4  5  1  0
  5  6  1  0
  6  7  1  0
  7  8  1  0
  8  9  1  0
  9 10  1  0
 10 11  2  0
 11 12  1  0
 12 13  2  0
 13 14  1  0
 14 15  2  0
  8 16  1  0
 16 17  1  0
  4 18  1  0
 18 19  2  0
 19 20  1  0
 19 21  1  0
 21 22  2  0
 21  2  1  0
 17  5  1  0
 15 10  1  0
  1 23  1  0
  1 24  1  0
  1 25  1  0
  3 26  1  0
  6 27  1  0
  6 28  1  0
  7 29  1  0
  7 30  1  0
  9 31  1  0
  9 32  1  0
 11 33  1  0
 12 34  1  0
 13 35  1  0
 14 36  1  0
 15 37  1  0
 16 38  1  0
 16 39  1  0
 17 40  1  0
 17 41  1  0
 18 42  1  0
M  END
>  <UniqueID>  (3) 
3

>  <SMILES>  (3) 
Cn1cc(N2CCN(Cc3ccccc3)CC2)cc(Cl)c1=O

>  <Energy>  (3) 
58.041276299224855

>  <Genealogy>  (3) 
Cn1cc(N2CCN(Cc3ccccc3)CC2)cc(Cl)c1=O (3D coordinates assigned)
Cn1cc(N2CCN(Cc3ccccc3)CC2)cc(Cl)c1=O (nonaromatic ring conformer: 58.041276299224855 kcal/mol)

>  <smiles>  (3) 
Cn1cc(N2CCN(Cc3ccccc3)CC2)cc(Cl)c1=O

>  <score_type>  (3) 
oracle

>  <origin>  (3) 
adg

>  <m_score__min__energy>  (3) 
-7.6299999999999999

>  <m_primary>  (3) 
energy

$$$$
3:0
     RDKit          3D

 25 27  0  0  0  0  0  0  0  0999 V2000
   -5.4850   19.2000  -34.0390 F   0  0  0  0  0  0  0  0  0  0  0  0
   -5.6000   20.2930  -33.2420 C   0  0  0  0  0  0  0  0  0  0  0  0
   -4.5080   21.1470  -33.0930 C   0  0  0  0  0  0  0  0  0  0  0  0
   -4.5990   22.2390  -32.2930 N   0  0  0  0  0  0  0  0  0  0  0  0
   -5.7340   22.5570  -31.6130 C   0  0  0  0  0  0  0  0  0  0  0  0
   -5.7140   23.7060  -30.7500 N   0  0  0  0  0  0  0  0  0  0  0  0
   -6.4790   24.8120  -30.8440 C   0  0  0  0  0  0  0  0  0  0  0  0
   -6.2440   25.5920  -29.7310 C   0  0  0  0  0  0  0  0  0  0  0  0
   -5.3540   24.9590  -28.9430 N   0  0  0  0  0  0  0  0  0  0  0  0
   -5.0600   23.8080  -29.5770 C   0  0  0  0  0  0  0  0  0  0  0  0
   -6.8860   21.7460  -31.7640 C   0  0  0  0  0  0  0  0  0  0  0  0
   -8.1210   22.0710  -31.1660 C   0  0  0  0  0  0  0  0  0  0  0  0
   -9.2300   21.2370  -31.3360 C   0  0  0  0  0  0  0  0  0  0  0  0
   -9.1310   20.0830  -32.1120 C   0  0  0  0  0  0  0  0  0  0  0  0
   -7.9260   19.7610  -32.7390 C   0  0  0  0  0  0  0  0  0  0  0  0
   -6.8010   20.5900  -32.5820 C   0  0  0  0  0  0  0  0  0  0  0  0
   -3.5694   20.9347  -33.6259 H   0  0  0  0  0  0  0  0  0  0  0  0
   -7.1704   25.0509  -31.6655 H   0  0  0  0  0  0  0  0  0  0  0  0
   -6.7063   26.5680  -29.5219 H   0  0  0  0  0  0  0  0  0  0  0  0
   -4.9890   25.2810  -28.0210 H   0  0  0  0  0  0  0  0  0  0  0  0
   -4.3709   23.0453  -29.1853 H   0  0  0  0  0  0  0  0  0  0  0  0
   -8.2123   22.9860  -30.5623 H   0  0  0  0  0  0  0  0  0  0  0  0
  -10.1857   21.4926  -30.8550 H   0  0  0  0  0  0  0  0  0  0  0  0
  -10.0043   19.4248  -32.2305 H   0  0  0  0  0  0  0  0  0  0  0  0
   -7.8562   18.8548  -33.3586 H   0  0  0  0  0  0  0  0  0  0  0  0
  1  2  1  0
  2  3  2  0
  3  4  1  0
  4  5  2  0
  5  6  1  0
  6  7  1  0
  7  8  2  0
  8  9  1  0
  9 10  2  0
  5 11  1  0
 11 12  2  0
 12 13  1  0
 13 14  2  0
 14 15  1  0
 15 16  2  0
 16  2  1  0
 10  6  1  0
 16 11  1  0
  3 17  1  0
  7 18  1  0
  8 19  1  0
  9 20  1  0
 10 21  1  0
 12 22  1  0
 13 23  1  0
 14 24  1  0
 15 25  1  0
M  CHG  1   9   1
M  END
>  <UniqueID>  (4) 
4

>  <SMILES>  (4) 
Fc1cnc(-n2cc[nH+]c2)c2ccccc12

>  <Energy>  (4) 
69.53311587415783

>  <Genealogy>  (4) 
Fc1cnc(-n2cc[nH+]c2)c2ccccc12 (protonated)
Fc1cnc(-n2cc[nH+]c2)c2ccccc12 (3D coordinates assigned)
Fc1cnc(-n2cc[nH+]c2)c2ccccc12 (optimized conformer: 69.53311587415783 kcal/mol)

>  <smiles>  (4) 
Fc1cnc(-n2ccnc2)c2ccccc12

>  <score_type>  (4) 
oracle

>  <origin>  (4) 
adg

>  <m_score__min__energy>  (4) 
-5.8899999999999997

>  <m_primary>  (4) 
energy

$$$$
4:0
     RDKit          3D

 35 37  0  0  0  0  0  0  0  0999 V2000
   -7.6840   20.5680  -31.3360 O   0  0  0  0  0  0  0  0  0  0  0  0
   -6.7910   20.5170  -32.2240 C   0  0  0  0  0  0  0  0  0  0  0  0
   -6.0200   21.6910  -32.5370 N   0  0  0  0  0  0  0  0  0  0  0  0
   -5.9710   22.8590  -31.6990 C   0  0  0  0  0  0  0  0  0  0  0  0
   -7.1650   23.4130  -31.2160 C   0  0  0  0  0  0  0  0  0  0  0  0
   -7.1400   24.5590  -30.4170 C   0  0  0  0  0  0  0  0  0  0  0  0
   -5.9220   25.1630  -30.0950 C   0  0  0  0  0  0  0  0  0  0  0  0
   -4.7200   24.6250  -30.5670 C   0  0  0  0  0  0  0  0  0  0  0  0
   -3.4880   25.2830  -30.2400 N   0  0  0  0  0  0  0  0  0  0  0  0
   -2.4950   24.8030  -29.3230 C   0  0  0  0  0  0  0  0  0  0  0  0
   -1.6050   25.5990  -28.9240 O   0  0  0  0  0  0  0  0  0  0  0  0
   -2.5160   23.4260  -28.7960 C   0  0  0  0  0  0  0  0  0  0  0  0
   -1.5390   22.4520  -28.9780 C   0  0  0  0  0  0  0  0  0  0  0  0
   -1.8560   21.2300  -28.3710 C   0  0  0  0  0  0  0  0  0  0  0  0
   -3.0830   21.2320  -27.7200 C   0  0  0  0  0  0  0  0  0  0  0  0
   -3.7730   22.7540  -27.9030 S   0  0  0  0  0  0  0  0  0  0  0  0
   -4.7510   23.4910  -31.3990 C   0  0  0  0  0  0  0  0  0  0  0  0
   -6.5660   19.2580  -32.9660 C   0  0  0  0  0  0  0  0  0  0  0  0
   -5.8750   19.2510  -34.1900 C   0  0  0  0  0  0  0  0  0  0  0  0
   -5.6860   18.0420  -34.8660 C   0  0  0  0  0  0  0  0  0  0  0  0
   -6.1860   16.8580  -34.3240 C   0  0  0  0  0  0  0  0  0  0  0  0
   -6.8700   16.8990  -33.1080 C   0  0  0  0  0  0  0  0  0  0  0  0
   -7.0430   18.0830  -32.4650 N   0  0  0  0  0  0  0  0  0  0  0  0
   -5.5450   21.7390  -33.4660 H   0  0  0  0  0  0  0  0  0  0  0  0
   -8.1270   22.9427  -31.4675 H   0  0  0  0  0  0  0  0  0  0  0  0
   -8.0811   24.9865  -30.0408 H   0  0  0  0  0  0  0  0  0  0  0  0
   -5.9081   26.0661  -29.4672 H   0  0  0  0  0  0  0  0  0  0  0  0
   -0.6106   22.6244  -29.5421 H   0  0  0  0  0  0  0  0  0  0  0  0
   -1.1952   20.3513  -28.4066 H   0  0  0  0  0  0  0  0  0  0  0  0
   -3.5268   20.3838  -27.1781 H   0  0  0  0  0  0  0  0  0  0  0  0
   -3.8139   23.0957  -31.8181 H   0  0  0  0  0  0  0  0  0  0  0  0
   -5.4861   20.1892  -34.6125 H   0  0  0  0  0  0  0  0  0  0  0  0
   -5.1442   18.0245  -35.8232 H   0  0  0  0  0  0  0  0  0  0  0  0
   -6.0428   15.9022  -34.8493 H   0  0  0  0  0  0  0  0  0  0  0  0
   -7.2691   15.9722  -32.6702 H   0  0  0  0  0  0  0  0  0  0  0  0
  1  2  2  0
  2  3  1  0
  3  4  1  0
  4  5  2  0
  5  6  1  0
  6  7  2  0
  7  8  1  0
  8  9  1  0
  9 10  1  0
 10 11  2  0
 10 12  1  0
 12 13  2  0
 13 14  1  0
 14 15  2  0
 15 16  1  0
  8 17  2  0
  2 18  1  0
 18 19  2  0
 19 20  1  0
 20 21  2  0
 21 22  1  0
 22 23  2  0
 17  4  1  0
 23 18  1  0
 16 12  1  0
  3 24  1  0
  5 25  1  0
  6 26  1  0
  7 27  1  0
 13 28  1  0
 14 29  1  0
 15 30  1  0
 17 31  1  0
 19 32  1  0
 20 33  1  0
 21 34  1  0
 22 35  1  0
M  CHG  1   9  -1
M  END
>  <UniqueID>  (5) 
5

>  <SMILES>  (5) 
O=C(Nc1cccc([N-]C(=O)c2cccs2)c1)c1ccccn1

>  <Energy>  (5) 
72.30486386549426

>  <Genealogy>  (5) 
O=C(Nc1cccc([N-]C(=O)c2cccs2)c1)c1ccccn1 (protonated)
O=C(Nc1cccc([N-]C(=O)c2cccs2)c1)c1ccccn1 (3D coordinates assigned)
O=C(Nc1cccc([N-]C(=O)c2cccs2)c1)c1ccccn1 (optimized conformer: 72.30486386549426 kcal/mol)

>  <smiles>  (5) 
O=C(Nc1cccc(NC(=O)c2cccs2)c1)c1ccccn1

>  <score_type>  (5) 
oracle

>  <origin>  (5) 
adg

>  <m_score__min__energy>  (5) 
-10.130000000000001

>  <m_primary>  (5) 
energy

$$$$
5:0
     RDKit          3D

 28 29  0  0  0  0  0  0  0  0999 V2000
   -9.4900   21.7840  -31.9360 C   0  0  0  0  0  0  0  0  0  0  0  0
   -8.2770   21.0180  -32.1220 N   0  0  0  0  0  0  0  0  0  0  0  0
   -8.3020   19.6690  -32.7090 C   0  0  0  0  0  0  0  0  0  0  0  0
   -7.0060   21.5360  -31.7460 C   0  0  0  0  0  0  0  0  0  0  0  0
   -5.8170   20.9280  -32.1190 C   0  0  0  0  0  0  0  0  0  0  0  0
   -4.5800   21.4230  -31.7590 C   0  0  0  0  0  0  0  0  0  0  0  0
   -4.5160   22.5570  -31.0060 C   0  0  0  0  0  0  0  0  0  0  0  0
   -3.2900   23.0350  -30.6560 N   0  0  0  0  0  0  0  0  0  0  0  0
   -3.2690   24.1440  -29.9220 C   0  0  0  0  0  0  0  0  0  0  0  0
   -2.1280   24.6480  -29.5580 N   0  0  0  0  0  0  0  0  0  0  0  0
   -4.3940   24.7710  -29.5360 N   0  0  0  0  0  0  0  0  0  0  0  0
   -5.6300   24.3300  -29.8600 C   0  0  0  0  0  0  0  0  0  0  0  0
   -6.6210   24.9920  -29.4480 N   0  0  0  0  0  0  0  0  0  0  0  0
   -5.6820   23.1810  -30.6220 C   0  0  0  0  0  0  0  0  0  0  0  0
   -6.9130   22.6800  -30.9860 C   0  0  0  0  0  0  0  0  0  0  0  0
   -9.6847   21.9070  -30.8604 H   0  0  0  0  0  0  0  0  0  0  0  0
   -9.3743   22.7732  -32.4031 H   0  0  0  0  0  0  0  0  0  0  0  0
  -10.3334   21.2544  -32.4031 H   0  0  0  0  0  0  0  0  0  0  0  0
   -8.3159   18.9192  -31.9043 H   0  0  0  0  0  0  0  0  0  0  0  0
   -9.2024   19.5563  -33.3308 H   0  0  0  0  0  0  0  0  0  0  0  0
   -7.4064   19.5230  -33.3308 H   0  0  0  0  0  0  0  0  0  0  0  0
   -5.8615   20.0127  -32.7274 H   0  0  0  0  0  0  0  0  0  0  0  0
   -3.6597   20.9100  -32.0751 H   0  0  0  0  0  0  0  0  0  0  0  0
   -2.4570   22.5220  -30.9750 H   0  0  0  0  0  0  0  0  0  0  0  0
   -2.0150   25.6800  -29.7490 H   0  0  0  0  0  0  0  0  0  0  0  0
   -4.2980   25.6410  -28.9570 H   0  0  0  0  0  0  0  0  0  0  0  0
   -6.9020   25.1830  -28.4760 H   0  0  0  0  0  0  0  0  0  0  0  0
   -7.8290   23.1986  -30.6666 H   0  0  0  0  0  0  0  0  0  0  0  0
  1  2  1  0
  2  3  1  0
  2  4  1  0
  4  5  2  0
  5  6  1  0
  6  7  2  0
  7  8  1  0
  8  9  1  0
  9 10  2  3
  9 11  1  0
 11 12  1  0
 12 13  2  3
 12 14  1  0
 14 15  2  0
 15  4  1  0
 14  7  1  0
  1 16  1  0
  1 17  1  0
  1 18  1  0
  3 19  1  0
  3 20  1  0
  3 21  1  0
  5 22  1  0
  6 23  1  0
  8 24  1  0
 10 25  1  0
 11 26  1  0
 13 27  1  0
 15 28  1  0
M  END
>  <smiles>  (6) 
CN(C)c1ccc2[nH]c(=N)[nH]c(=N)c2c1

>  <score_type>  (6) 
oracle

>  <origin>  (6) 
adg

>  <m_score__min__energy>  (6) 
-5.8300000000000001

>  <m_primary>  (6) 
energy

$$$$
6:0
     RDKit          3D

 21 22  0  0  0  0  0  0  0  0999 V2000
   -4.5960   25.6760  -30.8550 O   0  0  0  0  0  0  0  0  0  0  0  0
   -3.8270   24.7630  -30.4530 C   0  0  0  0  0  0  0  0  0  0  0  0
   -2.7500   25.0990  -29.6400 O   0  0  0  0  0  0  0  0  0  0  0  0
   -4.0660   23.3540  -30.8390 C   0  0  0  0  0  0  0  0  0  0  0  0
   -3.0160   22.4220  -30.7920 C   0  0  0  0  0  0  0  0  0  0  0  0
   -3.2360   21.0930  -31.1570 C   0  0  0  0  0  0  0  0  0  0  0  0
   -4.5020   20.6780  -31.5710 C   0  0  0  0  0  0  0  0  0  0  0  0
   -5.5720   21.5900  -31.6270 C   0  0  0  0  0  0  0  0  0  0  0  0
   -6.9200   21.1480  -32.0680 C   0  0  0  0  0  0  0  0  0  0  0  0
   -8.1520   21.6380  -31.6570 C   0  0  0  0  0  0  0  0  0  0  0  0
   -9.1340   20.9720  -32.2930 N   0  0  0  0  0  0  0  0  0  0  0  0
   -8.5680   20.0810  -33.0910 N   0  0  0  0  0  0  0  0  0  0  0  0
   -7.2310   20.1560  -32.9830 C   0  0  0  0  0  0  0  0  0  0  0  0
   -5.3410   22.9290  -31.2560 C   0  0  0  0  0  0  0  0  0  0  0  0
   -2.0152   22.7413  -30.4658 H   0  0  0  0  0  0  0  0  0  0  0  0
   -2.4080   20.3699  -31.1181 H   0  0  0  0  0  0  0  0  0  0  0  0
   -4.6652   19.6282  -31.8562 H   0  0  0  0  0  0  0  0  0  0  0  0
   -8.3026   22.4453  -30.9251 H   0  0  0  0  0  0  0  0  0  0  0  0
   -9.0970   19.4260  -33.7080 H   0  0  0  0  0  0  0  0  0  0  0  0
   -6.5059   19.5346  -33.5290 H   0  0  0  0  0  0  0  0  0  0  0  0
   -6.1688   23.6525  -31.2927 H   0  0  0  0  0  0  0  0  0  0  0  0
  1  2  2  0
  2  3  1  0
  2  4  1  0
  4  5  2  0
  5  6  1  0
  6  7  2  0
  7  8  1  0
  8  9  1  0
  9 10  1  0
 10 11  2  0
 11 12  1  0
 12 13  1  0
  8 14  2  0
 14  4  1  0
 13  9  2  0
  5 15  1  0
  6 16  1  0
  7 17  1  0
 10 18  1  0
 12 19  1  0
 13 20  1  0
 14 21  1  0
M  CHG  1   3  -1
M  END
>  <UniqueID>  (7) 
6

>  <SMILES>  (7) 
O=C([O-])c1cccc(-c2cn[nH]c2)c1

>  <Energy>  (7) 
54.30167696414028

>  <Genealogy>  (7) 
O=C([O-])c1cccc(-c2cn[nH]c2)c1 (protonated)
O=C([O-])c1cccc(-c2cn[nH]c2)c1 (3D coordinates assigned)
O=C([O-])c1cccc(-c2cn[nH]c2)c1 (optimized conformer: 54.30167696414028 kcal/mol)

>  <smiles>  (7) 
O=C(O)c1cccc(-c2cn[nH]c2)c1

>  <score_type>  (7) 
oracle

>  <origin>  (7) 
adg

>  <m_score__min__energy>  (7) 
-8.1099999999999994

>  <m_primary>  (7) 
energy

$$$$
7:0
     RDKit          3D

 33 34  0  0  0  0  0  0  0  0999 V2000
   -8.5250   18.9910  -32.3590 C   0  0  0  0  0  0  0  0  0  0  0  0
   -8.2590   20.4220  -32.0380 C   0  0  0  0  0  0  0  0  0  0  0  0
   -7.0780   20.8740  -31.5680 N   0  0  0  0  0  0  0  0  0  0  0  0
   -7.1080   22.2080  -31.2870 C   0  0  0  0  0  0  0  0  0  0  0  0
   -5.9070   22.9170  -30.7710 C   0  0  0  0  0  0  0  0  0  0  0  0
   -4.6940   22.2200  -30.6220 C   0  0  0  0  0  0  0  0  0  0  0  0
   -3.5530   22.8670  -30.1390 C   0  0  0  0  0  0  0  0  0  0  0  0
   -3.5980   24.2310  -29.8030 C   0  0  0  0  0  0  0  0  0  0  0  0
   -2.4450   24.9130  -29.2810 N   0  0  0  0  0  0  0  0  0  0  0  0
   -1.7620   24.5190  -28.0760 C   0  0  0  0  0  0  0  0  0  0  0  0
   -1.9240   23.3530  -27.6210 O   0  0  0  0  0  0  0  0  0  0  0  0
   -0.8680   25.4280  -27.3980 N   0  0  0  0  0  0  0  0  0  0  0  0
   -0.7340   26.8160  -27.8460 C   0  0  0  0  0  0  0  0  0  0  0  0
   -0.1230   24.9570  -26.2250 C   0  0  0  0  0  0  0  0  0  0  0  0
   -4.8110   24.9210  -29.9230 C   0  0  0  0  0  0  0  0  0  0  0  0
   -5.9530   24.2760  -30.4080 C   0  0  0  0  0  0  0  0  0  0  0  0
   -8.3430   22.8190  -31.5310 C   0  0  0  0  0  0  0  0  0  0  0  0
   -9.4050   21.6460  -32.1020 S   0  0  0  0  0  0  0  0  0  0  0  0
   -8.6313   18.4194  -31.4252 H   0  0  0  0  0  0  0  0  0  0  0  0
   -9.4530   18.9129  -32.9443 H   0  0  0  0  0  0  0  0  0  0  0  0
   -7.6870   18.5846  -32.9443 H   0  0  0  0  0  0  0  0  0  0  0  0
   -4.6430   21.1540  -30.8886 H   0  0  0  0  0  0  0  0  0  0  0  0
   -2.6145   22.3054  -30.0212 H   0  0  0  0  0  0  0  0  0  0  0  0
   -2.0270   25.6710  -29.8650 H   0  0  0  0  0  0  0  0  0  0  0  0
   -0.6700   27.4792  -26.9708 H   0  0  0  0  0  0  0  0  0  0  0  0
    0.1783   26.9193  -28.4518 H   0  0  0  0  0  0  0  0  0  0  0  0
   -1.6097   27.0919  -28.4518 H   0  0  0  0  0  0  0  0  0  0  0  0
   -0.6376   25.2824  -25.3089 H   0  0  0  0  0  0  0  0  0  0  0  0
   -0.0664   23.8586  -26.2434 H   0  0  0  0  0  0  0  0  0  0  0  0
    0.8935   25.3769  -26.2434 H   0  0  0  0  0  0  0  0  0  0  0  0
   -4.8658   25.9806  -29.6329 H   0  0  0  0  0  0  0  0  0  0  0  0
   -6.8950   24.8354  -30.5066 H   0  0  0  0  0  0  0  0  0  0  0  0
   -8.5786   23.8823  -31.3762 H   0  0  0  0  0  0  0  0  0  0  0  0
  1  2  1  0
  2  3  2  0
  3  4  1  0
  4  5  1  0
  5  6  2  0
  6  7  1  0
  7  8  2  0
  8  9  1  0
  9 10  1  0
 10 11  2  0
 10 12  1  0
 12 13  1  0
 12 14  1  0
  8 15  1  0
 15 16  2  0
  4 17  2  0
 17 18  1  0
 18  2  1  0
 16  5  1  0
  1 19  1  0
  1 20  1  0
  1 21  1  0
  6 22  1  0
  7 23  1  0
  9 24  1  0
 13 25  1  0
 13 26  1  0
 13 27  1  0
 14 28  1  0
 14 29  1  0
 14 30  1  0
 15 31  1  0
 16 32  1  0
 17 33  1  0
M  END
>  <UniqueID>  (8) 
7

>  <SMILES>  (8) 
Cc1nc(-c2ccc(NC(=O)N(C)C)cc2)cs1

>  <Energy>  (8) 
64.31426175552208

>  <Genealogy>  (8) 
Cc1nc(-c2ccc(NC(=O)N(C)C)cc2)cs1 (3D coordinates assigned)
Cc1nc(-c2ccc(NC(=O)N(C)C)cc2)cs1 (optimized conformer: 64.31426175552208 kcal/mol)

>  <smiles>  (8) 
Cc1nc(-c2ccc(NC(=O)N(C)C)cc2)cs1

>  <score_type>  (8) 
oracle

>  <origin>  (8) 
adg

>  <m_score__min__energy>  (8) 
-7.0899999999999999

>  <m_primary>  (8) 
energy

$$$$
8:0
     RDKit          3D

 45 47  0  0  0  0  0  0  0  0999 V2000
   -3.0910   26.0180  -29.3430 H   0  0  0  0  0  0  0  0  0  0  0  0
   -2.3440   25.3360  -29.3060 O   0  0  0  0  0  0  0  0  0  0  0  0
   -2.6040   23.9660  -29.2950 C   0  0  0  0  0  0  0  0  0  0  0  0
   -1.6370   23.0780  -28.7970 C   0  0  0  0  0  0  0  0  0  0  0  0
   -0.6745   23.4665  -28.4328 H   0  0  0  0  0  0  0  0  0  0  0  0
   -1.8890   21.7060  -28.7610 C   0  0  0  0  0  0  0  0  0  0  0  0
   -1.1241   21.0163  -28.3746 H   0  0  0  0  0  0  0  0  0  0  0  0
   -3.1110   21.2090  -29.2150 C   0  0  0  0  0  0  0  0  0  0  0  0
   -3.3127   20.1283  -29.1778 H   0  0  0  0  0  0  0  0  0  0  0  0
   -4.0790   22.0830  -29.7170 C   0  0  0  0  0  0  0  0  0  0  0  0
   -5.0381   21.6841  -30.0788 H   0  0  0  0  0  0  0  0  0  0  0  0
   -3.8380   23.4700  -29.7640 C   0  0  0  0  0  0  0  0  0  0  0  0
   -4.8690   24.3830  -30.3210 C   0  0  0  0  0  0  0  0  0  0  0  0
   -4.5150   25.4800  -30.8330 O   0  0  0  0  0  0  0  0  0  0  0  0
   -6.3010   24.0190  -30.3660 C   0  0  0  0  0  0  0  0  0  0  0  0
   -6.8608   24.0193  -29.4191 H   0  0  0  0  0  0  0  0  0  0  0  0
   -6.9640   23.6880  -31.4860 C   0  0  0  0  0  0  0  0  0  0  0  0
   -6.9272   24.3903  -32.3318 H   0  0  0  0  0  0  0  0  0  0  0  0
   -7.7390   22.4430  -31.6560 C   0  0  0  0  0  0  0  0  0  0  0  0
   -9.1220   22.4820  -31.9020 C   0  0  0  0  0  0  0  0  0  0  0  0
   -9.6419   23.4500  -31.9546 H   0  0  0  0  0  0  0  0  0  0  0  0
   -9.8390   21.2970  -32.0800 C   0  0  0  0  0  0  0  0  0  0  0  0
  -10.9212   21.3341  -32.2734 H   0  0  0  0  0  0  0  0  0  0  0  0
   -9.1850   20.0650  -32.0130 C   0  0  0  0  0  0  0  0  0  0  0  0
   -9.7510   19.1334  -32.1603 H   0  0  0  0  0  0  0  0  0  0  0  0
   -7.8070   20.0150  -31.7580 C   0  0  0  0  0  0  0  0  0  0  0  0
   -7.1090   18.7220  -31.6840 C   0  0  0  0  0  0  0  0  0  0  0  0
   -7.1259   18.1853  -30.7240 H   0  0  0  0  0  0  0  0  0  0  0  0
   -6.4530   18.1520  -32.7070 C   0  0  0  0  0  0  0  0  0  0  0  0
   -6.4811   17.0544  -32.7745 H   0  0  0  0  0  0  0  0  0  0  0  0
   -5.6920   18.8790  -33.7560 C   0  0  0  0  0  0  0  0  0  0  0  0
   -6.0640   18.8250  -34.9590 O   0  0  0  0  0  0  0  0  0  0  0  0
   -4.5150   19.7180  -33.4120 C   0  0  0  0  0  0  0  0  0  0  0  0
   -3.2820   19.1090  -33.1110 C   0  0  0  0  0  0  0  0  0  0  0  0
   -3.2000   18.0121  -33.1140 H   0  0  0  0  0  0  0  0  0  0  0  0
   -2.1600   19.8880  -32.8080 C   0  0  0  0  0  0  0  0  0  0  0  0
   -1.2000   19.4011  -32.5815 H   0  0  0  0  0  0  0  0  0  0  0  0
   -2.2540   21.2810  -32.7920 C   0  0  0  0  0  0  0  0  0  0  0  0
   -1.3669   21.8906  -32.5653 H   0  0  0  0  0  0  0  0  0  0  0  0
   -3.4750   21.8980  -33.0640 C   0  0  0  0  0  0  0  0  0  0  0  0
   -3.5520   22.9951  -33.0420 H   0  0  0  0  0  0  0  0  0  0  0  0
   -4.6030   21.1250  -33.3650 C   0  0  0  0  0  0  0  0  0  0  0  0
   -5.5651   21.6187  -33.5664 H   0  0  0  0  0  0  0  0  0  0  0  0
   -7.0810   21.2060  -31.6150 C   0  0  0  0  0  0  0  0  0  0  0  0
   -5.9912   21.1695  -31.4701 H   0  0  0  0  0  0  0  0  0  0  0  0
  1  2  1  0
  2  3  1  0
  3  4  2  0
  4  5  1  0
  4  6  1  0
  6  7  1  0
  6  8  2  0
  8  9  1  0
  8 10  1  0
 10 11  1  0
 10 12  2  0
 12 13  1  0
 13 14  2  0
 13 15  1  0
 15 16  1  0
 15 17  2  0
 17 18  1  0
 17 19  1  0
 19 20  2  0
 20 21  1  0
 20 22  1  0
 22 23  1  0
 22 24  2  0
 24 25  1  0
 24 26  1  0
 26 27  1  0
 27 28  1  0
 27 29  2  3
 29 30  1  0
 29 31  1  0
 31 32  2  0
 31 33  1  0
 33 34  2  0
 34 35  1  0
 34 36  1  0
 36 37  1  0
 36 38  2  0
 38 39  1  0
 38 40  1  0
 40 41  1  0
 40 42  2  0
 42 43  1  0
 26 44  2  0
 44 45  1  0
 12  3  1  0
 44 19  1  0
 42 33  1  0
M  END
>  <UniqueID>  (9) 
8

>  <SMILES>  (9) 
O=C(C=Cc1cccc(/C=C\C(=O)c2ccccc2O)c1)c1ccccc1

>  <Energy>  (9) 
68.8793134728613

>  <Genealogy>  (9) 
O=C(C=Cc1cccc(/C=C\C(=O)c2ccccc2O)c1)c1ccccc1 (cis-trans isomerization)
O=C(C=Cc1cccc(/C=C\C(=O)c2ccccc2O)c1)c1ccccc1 (3D coordinates assigned)
O=C(C=Cc1cccc(/C=C\C(=O)c2ccccc2O)c1)c1ccccc1 (optimized conformer: 68.8793134728613 kcal/mol)

>  <smiles>  (9) 
O=C(C=Cc1cccc(C=CC(=O)c2ccccc2O)c1)c1ccccc1

>  <score_type>  (9) 
oracle

>  <origin>  (9) 
adg

>  <m_score__min__energy>  (9) 
-11.130000000000001

>  <m_primary>  (9) 
energy

$$$$
9:0
     RDKit          3D

 37 39  0  0  0  0  0  0  0  0999 V2000
   -7.8340   20.0180  -32.7200 C   0  0  0  0  0  0  0  0  0  0  0  0
   -6.9160   20.1810  -33.8490 N   0  0  0  0  0  0  0  0  0  0  0  0
   -5.7440   19.2900  -33.7490 C   0  0  0  0  0  0  0  0  0  0  0  0
   -4.5240   19.9750  -33.1060 C   0  0  0  0  0  0  0  0  0  0  0  0
   -4.7600   21.4010  -32.8820 N   0  0  0  0  0  0  0  0  0  0  0  0
   -4.1440   22.1810  -31.8370 C   0  0  0  0  0  0  0  0  0  0  0  0
   -2.8310   21.9360  -31.3960 C   0  0  0  0  0  0  0  0  0  0  0  0
   -2.2670   22.7150  -30.3820 C   0  0  0  0  0  0  0  0  0  0  0  0
   -3.0030   23.7520  -29.7850 C   0  0  0  0  0  0  0  0  0  0  0  0
   -2.4040   24.5790  -28.7120 C   0  0  0  0  0  0  0  0  0  0  0  0
   -1.5850   25.6370  -28.9640 N   0  0  0  0  0  0  0  0  0  0  0  0
   -1.2860   26.0770  -27.7340 C   0  0  0  0  0  0  0  0  0  0  0  0
   -0.4740   27.1540  -27.3870 C   0  0  0  0  0  0  0  0  0  0  0  0
   -0.3050   27.4300  -26.0170 C   0  0  0  0  0  0  0  0  0  0  0  0
   -0.9470   26.6300  -25.0430 C   0  0  0  0  0  0  0  0  0  0  0  0
   -1.7610   25.5500  -25.4330 C   0  0  0  0  0  0  0  0  0  0  0  0
   -1.9040   25.3080  -26.7970 C   0  0  0  0  0  0  0  0  0  0  0  0
   -2.6230   24.3450  -27.3900 N   0  0  0  0  0  0  0  0  0  0  0  0
   -4.3160   23.9920  -30.2210 C   0  0  0  0  0  0  0  0  0  0  0  0
   -4.8790   23.2130  -31.2340 C   0  0  0  0  0  0  0  0  0  0  0  0
   -7.2765   20.1170  -31.7769 H   0  0  0  0  0  0  0  0  0  0  0  0
   -8.6146   20.7916  -32.7675 H   0  0  0  0  0  0  0  0  0  0  0  0
   -8.3005   19.0230  -32.7675 H   0  0  0  0  0  0  0  0  0  0  0  0
   -7.4420   20.0070  -34.7370 H   0  0  0  0  0  0  0  0  0  0  0  0
   -6.0181   18.4166  -33.1391 H   0  0  0  0  0  0  0  0  0  0  0  0
   -5.4599   19.0020  -34.7719 H   0  0  0  0  0  0  0  0  0  0  0  0
   -4.3122   19.4927  -32.1403 H   0  0  0  0  0  0  0  0  0  0  0  0
   -3.6713   19.8723  -33.7933 H   0  0  0  0  0  0  0  0  0  0  0  0
   -5.4240   21.8790  -33.5320 H   0  0  0  0  0  0  0  0  0  0  0  0
   -2.2439   21.1255  -31.8525 H   0  0  0  0  0  0  0  0  0  0  0  0
   -1.2381   22.5145  -30.0485 H   0  0  0  0  0  0  0  0  0  0  0  0
    0.0179   27.7673  -28.1563 H   0  0  0  0  0  0  0  0  0  0  0  0
    0.3293   28.2718  -25.7024 H   0  0  0  0  0  0  0  0  0  0  0  0
   -0.8093   26.8532  -23.9747 H   0  0  0  0  0  0  0  0  0  0  0  0
   -2.2664   24.9194  -24.6868 H   0  0  0  0  0  0  0  0  0  0  0  0
   -4.9052   24.7992  -29.7614 H   0  0  0  0  0  0  0  0  0  0  0  0
   -5.9099   23.4105  -31.5628 H   0  0  0  0  0  0  0  0  0  0  0  0
  1  2  1  0
  2  3  1  0
  3  4  1  0
  4  5  1  0
  5  6  1  0
  6  7  2  0
  7  8  1  0
  8  9  2  0
  9 10  1  0
 10 11  2  0
 11 12  1  0
 12 13  2  0
 13 14  1  0
 14 15  2  0
 15 16  1  0
 16 17  2  0
 17 18  1  0
  9 19  1  0
 19 20  2  0
 20  6  1  0
 18 10  1  0
 17 12  1  0
  1 21  1  0
  1 22  1  0
  1 23  1  0
  2 24  1  0
  3 25  1  0
  3 26  1  0
  4 27  1  0
  4 28  1  0
  5 29  1  0
  7 30  1  0
  8 31  1  0
 13 32  1  0
 14 33  1  0
 15 34  1  0
 16 35  1  0
 19 36  1  0
 20 37  1  0
M  CHG  1  18  -1
M  END
>  <UniqueID>  (10) 
9

>  <SMILES>  (10) 
CNCCNc1ccc(-c2nc3ccccc3[n-]2)cc1

>  <Energy>  (10) 
73.35204392842388

>  <Genealogy>  (10) 
CNCCNc1ccc(-c2nc3ccccc3[n-]2)cc1 (protonated)
CNCCNc1ccc(-c2nc3ccccc3[n-]2)cc1 (3D coordinates assigned)
CNCCNc1ccc(-c2nc3ccccc3[n-]2)cc1 (optimized conformer: 73.35204392842388 kcal/mol)

>  <smiles>  (10) 
CNCCNc1ccc(-c2nc3ccccc3[nH]2)cc1

>  <score_type>  (10) 
oracle

>  <origin>  (10) 
adg

>  <m_score__min__energy>  (10) 
-8.0399999999999991

>  <m_primary>  (10) 
energy

$$$$
10:0
     RDKit          3D

 35 37  0  0  0  0  0  0  0  0999 V2000
   -1.3650   24.5860  -25.8140 C   0  0  0  0  0  0  0  0  0  0  0  0
   -2.0030   24.7050  -27.1590 C   0  0  0  0  0  0  0  0  0  0  0  0
   -1.3840   25.0230  -28.3490 C   0  0  0  0  0  0  0  0  0  0  0  0
   -2.2810   24.9230  -29.3490 N   0  0  0  0  0  0  0  0  0  0  0  0
   -3.4410   24.5470  -28.8270 N   0  0  0  0  0  0  0  0  0  0  0  0
   -4.6310   24.3200  -29.6120 C   0  0  0  0  0  0  0  0  0  0  0  0
   -5.7450   25.1620  -29.4560 C   0  0  0  0  0  0  0  0  0  0  0  0
   -6.9070   24.9470  -30.2000 C   0  0  0  0  0  0  0  0  0  0  0  0
   -6.9730   23.8940  -31.1120 C   0  0  0  0  0  0  0  0  0  0  0  0
   -5.8680   23.0470  -31.2960 C   0  0  0  0  0  0  0  0  0  0  0  0
   -5.9210   21.9340  -32.2060 N   0  0  0  0  0  0  0  0  0  0  0  0
   -6.7620   20.7830  -32.0160 C   0  0  0  0  0  0  0  0  0  0  0  0
   -7.7060   20.8230  -31.1810 O   0  0  0  0  0  0  0  0  0  0  0  0
   -6.5510   19.5630  -32.8260 C   0  0  0  0  0  0  0  0  0  0  0  0
   -7.0730   18.3230  -32.4170 C   0  0  0  0  0  0  0  0  0  0  0  0
   -6.8490   17.1910  -33.2040 C   0  0  0  0  0  0  0  0  0  0  0  0
   -6.1110   17.2980  -34.3830 C   0  0  0  0  0  0  0  0  0  0  0  0
   -5.6050   18.5430  -34.7590 C   0  0  0  0  0  0  0  0  0  0  0  0
   -5.8320   19.6350  -33.9810 N   0  0  0  0  0  0  0  0  0  0  0  0
   -4.7090   23.2530  -30.5300 C   0  0  0  0  0  0  0  0  0  0  0  0
   -3.3020   24.3910  -27.4930 C   0  0  0  0  0  0  0  0  0  0  0  0
   -2.1266   24.7280  -25.0331 H   0  0  0  0  0  0  0  0  0  0  0  0
   -0.9139   23.5882  -25.7091 H   0  0  0  0  0  0  0  0  0  0  0  0
   -0.5846   25.3541  -25.7091 H   0  0  0  0  0  0  0  0  0  0  0  0
   -0.3287   25.3116  -28.4634 H   0  0  0  0  0  0  0  0  0  0  0  0
   -5.7014   25.9975  -28.7418 H   0  0  0  0  0  0  0  0  0  0  0  0
   -7.7738   25.6109  -30.0662 H   0  0  0  0  0  0  0  0  0  0  0  0
   -7.8941   23.7262  -31.6894 H   0  0  0  0  0  0  0  0  0  0  0  0
   -5.3840   22.0110  -33.0990 H   0  0  0  0  0  0  0  0  0  0  0  0
   -7.6527   18.2452  -31.4854 H   0  0  0  0  0  0  0  0  0  0  0  0
   -7.2541   16.2163  -32.8945 H   0  0  0  0  0  0  0  0  0  0  0  0
   -5.9301   16.4116  -35.0088 H   0  0  0  0  0  0  0  0  0  0  0  0
   -5.0215   18.6412  -35.6863 H   0  0  0  0  0  0  0  0  0  0  0  0
   -3.8519   22.5737  -30.6478 H   0  0  0  0  0  0  0  0  0  0  0  0
   -4.0888   24.0693  -26.7948 H   0  0  0  0  0  0  0  0  0  0  0  0
  1  2  1  0
  2  3  1  0
  3  4  2  0
  4  5  1  0
  5  6  1  0
  6  7  2  0
  7  8  1  0
  8  9  2  0
  9 10  1  0
 10 11  1  0
 11 12  1  0
 12 13  2  0
 12 14  1  0
 14 15  2  0
 15 16  1  0
 16 17  2  0
 17 18  1  0
 18 19  2  0
 10 20  2  0
  5 21  1  0
 21  2  2  0
 20  6  1  0
 19 14  1  0
  1 22  1  0
  1 23  1  0
  1 24  1  0
  3 25  1  0
  7 26  1  0
  8 27  1  0
  9 28  1  0
 11 29  1  0
 15 30  1  0
 16 31  1  0
 17 32  1  0
 18 33  1  0
 20 34  1  0
 21 35  1  0
M  END
>  <UniqueID>  (11) 
10

>  <SMILES>  (11) 
Cc1cnn(-c2cccc(NC(=O)c3ccccn3)c2)c1

>  <Energy>  (11) 
73.45380830328399

>  <Genealogy>  (11) 
Cc1cnn(-c2cccc(NC(=O)c3ccccn3)c2)c1 (3D coordinates assigned)
Cc1cnn(-c2cccc(NC(=O)c3ccccn3)c2)c1 (optimized conformer: 73.45380830328399 kcal/mol)

>  <smiles>  (11) 
Cc1cnn(-c2cccc(NC(=O)c3ccccn3)c2)c1

>  <score_type>  (11) 
oracle

>  <origin>  (11) 
adg

>  <m_score__min__energy>  (11) 
-8.1600000000000001

>  <m_primary>  (11) 
energy

$$$$
11:0
     RDKit          3D

 34 35  0  0  0  0  0  0  0  0999 V2000
   -1.2699   23.1742  -26.4857 H   0  0  0  0  0  0  0  0  0  0  0  0
   -1.8380   23.6170  -27.3170 C   0  0  0  0  0  0  0  0  0  0  0  0
   -1.3760   24.7760  -27.9530 C   0  0  0  0  0  0  0  0  0  0  0  0
   -0.0820   25.4040  -27.5440 C   0  0  0  0  0  0  0  0  0  0  0  0
   -0.0199   25.4341  -26.4462 H   0  0  0  0  0  0  0  0  0  0  0  0
    0.7550   24.8119  -27.9425 H   0  0  0  0  0  0  0  0  0  0  0  0
   -0.0293   26.4279  -27.9425 H   0  0  0  0  0  0  0  0  0  0  0  0
   -2.0790   25.2980  -28.9940 N   0  0  0  0  0  0  0  0  0  0  0  0
   -3.2300   24.7310  -29.4520 C   0  0  0  0  0  0  0  0  0  0  0  0
   -3.8780   25.2410  -30.4600 N   0  0  0  0  0  0  0  0  0  0  0  0
   -5.2320   24.9440  -30.8410 C   0  0  0  0  0  0  0  0  0  0  0  0
   -6.1730   25.4040  -30.1420 O   0  0  0  0  0  0  0  0  0  0  0  0
   -5.5510   24.1380  -31.9850 N   0  0  0  0  0  0  0  0  0  0  0  0
   -6.4450   23.0160  -32.0020 C   0  0  0  0  0  0  0  0  0  0  0  0
   -7.7900   23.1450  -31.6250 C   0  0  0  0  0  0  0  0  0  0  0  0
   -8.1871   24.1299  -31.3380 H   0  0  0  0  0  0  0  0  0  0  0  0
   -8.6260   22.0270  -31.6130 C   0  0  0  0  0  0  0  0  0  0  0  0
   -9.6772   22.1359  -31.3079 H   0  0  0  0  0  0  0  0  0  0  0  0
   -8.1370   20.7640  -31.9870 C   0  0  0  0  0  0  0  0  0  0  0  0
   -9.0610   19.5750  -31.9510 C   0  0  0  0  0  0  0  0  0  0  0  0
   -9.2707   19.3051  -30.9054 H   0  0  0  0  0  0  0  0  0  0  0  0
  -10.0027   19.8269  -32.4606 H   0  0  0  0  0  0  0  0  0  0  0  0
   -8.5844   18.7247  -32.4606 H   0  0  0  0  0  0  0  0  0  0  0  0
   -6.7880   20.6350  -32.3930 C   0  0  0  0  0  0  0  0  0  0  0  0
   -6.2190   19.3010  -32.8000 C   0  0  0  0  0  0  0  0  0  0  0  0
   -5.9706   18.7185  -31.9006 H   0  0  0  0  0  0  0  0  0  0  0  0
   -6.9616   18.7528  -33.3983 H   0  0  0  0  0  0  0  0  0  0  0  0
   -5.3093   19.4575  -33.3983 H   0  0  0  0  0  0  0  0  0  0  0  0
   -5.9590   21.7690  -32.4050 C   0  0  0  0  0  0  0  0  0  0  0  0
   -4.9142   21.6744  -32.7357 H   0  0  0  0  0  0  0  0  0  0  0  0
   -3.7340   23.5880  -28.8190 C   0  0  0  0  0  0  0  0  0  0  0  0
   -4.6762   23.1342  -29.1600 H   0  0  0  0  0  0  0  0  0  0  0  0
   -3.0290   23.0300  -27.7510 C   0  0  0  0  0  0  0  0  0  0  0  0
   -3.4115   22.1279  -27.2511 H   0  0  0  0  0  0  0  0  0  0  0  0
  1  2  1  0
  2  3  2  0
  3  4  1  0
  4  5  1  0
  4  6  1  0
  4  7  1  0
  3  8  1  0
  8  9  1  0
  9 10  2  0
 10 11  1  0
 11 12  2  0
 11 13  1  0
 13 14  1  0
 14 15  2  0
 15 16  1  0
 15 17  1  0
 17 18  1  0
 17 19  2  0
 19 20  1  0
 20 21  1  0
 20 22  1  0
 20 23  1  0
 19 24  1  0
 24 25  1  0
 25 26  1  0
 25 27  1  0
 25 28  1  0
 24 29  2  0
 29 30  1  0
  9 31  1  0
 31 32  1  0
 31 33  2  0
 33 34  1  0
 33  2  1  0
 29 14  1  0
M  CHG  2   8  -1  13  -1
M  END
>  <UniqueID>  (12) 
11

>  <SMILES>  (12) 
Cc1ccc/c(=N/C(=O)[N-]c2ccc(C)c(C)c2)[n-]1

>  <Energy>  (12) 
40.88354438636529

>  <Genealogy>  (12) 
Cc1cccc(=NC(=O)[N-]c2ccc(C)c(C)c2)[n-]1 (protonated)
Cc1ccc/c(=N/C(=O)[N-]c2ccc(C)c(C)c2)[n-]1 (cis-trans isomerization)
Cc1ccc/c(=N/C(=O)[N-]c2ccc(C)c(C)c2)[n-]1 (3D coordinates assigned)
Cc1ccc/c(=N/C(=O)[N-]c2ccc(C)c(C)c2)[n-]1 (optimized conformer: 40.88354438636529 kcal/mol)

>  <smiles>  (12) 
Cc1cccc(=NC(=O)Nc2ccc(C)c(C)c2)[nH]1

>  <score_type>  (12) 
oracle

>  <origin>  (12) 
adg

>  <m_score__min__energy>  (12) 
-9.8800000000000008

>  <m_primary>  (12) 
energy

$$$$
12:0
     RDKit          3D

 34 35  0  0  0  0  0  0  0  0999 V2000
   -5.2330   25.6590  -30.4760 C   0  0  0  0  0  0  0  0  0  0  0  0
   -3.8700   25.2940  -30.5060 O   0  0  0  0  0  0  0  0  0  0  0  0
   -3.6940   24.0130  -29.9310 C   0  0  0  0  0  0  0  0  0  0  0  0
   -4.0300   22.9340  -30.9280 C   0  0  0  0  0  0  0  0  0  0  0  0
   -3.0250   22.3570  -31.7140 C   0  0  0  0  0  0  0  0  0  0  0  0
   -3.3380   21.3480  -32.6340 C   0  0  0  0  0  0  0  0  0  0  0  0
   -2.2520   20.7040  -33.4460 C   0  0  0  0  0  0  0  0  0  0  0  0
   -4.6600   20.8900  -32.7380 C   0  0  0  0  0  0  0  0  0  0  0  0
   -5.6840   21.4540  -31.9530 C   0  0  0  0  0  0  0  0  0  0  0  0
   -7.0460   20.9820  -32.0640 N   0  0  0  0  0  0  0  0  0  0  0  0
   -8.2260   21.8360  -31.9500 C   0  0  0  0  0  0  0  0  0  0  0  0
   -9.4910   20.9480  -31.9670 C   0  0  0  0  0  0  0  0  0  0  0  0
   -9.2110   19.6520  -32.7320 C   0  0  0  0  0  0  0  0  0  0  0  0
   -7.4820   19.3890  -32.5350 S   0  0  0  0  0  0  0  0  0  0  0  0
   -7.1950   18.3940  -31.4470 O   0  0  0  0  0  0  0  0  0  0  0  0
   -6.8310   18.9950  -33.8320 O   0  0  0  0  0  0  0  0  0  0  0  0
   -5.3510   22.4790  -31.0470 C   0  0  0  0  0  0  0  0  0  0  0  0
   -5.5658   25.7481  -29.4313 H   0  0  0  0  0  0  0  0  0  0  0  0
   -5.3654   26.6243  -30.9866 H   0  0  0  0  0  0  0  0  0  0  0  0
   -5.8301   24.8891  -30.9866 H   0  0  0  0  0  0  0  0  0  0  0  0
   -2.6466   23.8995  -29.6145 H   0  0  0  0  0  0  0  0  0  0  0  0
   -4.3654   23.9175  -29.0649 H   0  0  0  0  0  0  0  0  0  0  0  0
   -1.9844   22.6978  -31.6085 H   0  0  0  0  0  0  0  0  0  0  0  0
   -1.5042   20.2606  -32.7721 H   0  0  0  0  0  0  0  0  0  0  0  0
   -2.6861   19.9172  -34.0805 H   0  0  0  0  0  0  0  0  0  0  0  0
   -1.7699   21.4623  -34.0805 H   0  0  0  0  0  0  0  0  0  0  0  0
   -4.8998   20.0796  -33.4421 H   0  0  0  0  0  0  0  0  0  0  0  0
   -8.1836   22.4001  -31.0066 H   0  0  0  0  0  0  0  0  0  0  0  0
   -8.2563   22.5436  -32.7917 H   0  0  0  0  0  0  0  0  0  0  0  0
   -9.7799   20.7058  -30.9336 H   0  0  0  0  0  0  0  0  0  0  0  0
  -10.3072   21.4919  -32.4650 H   0  0  0  0  0  0  0  0  0  0  0  0
   -9.7828   18.8160  -32.3030 H   0  0  0  0  0  0  0  0  0  0  0  0
   -9.5062   19.7183  -33.7896 H   0  0  0  0  0  0  0  0  0  0  0  0
   -6.1379   22.9291  -30.4240 H   0  0  0  0  0  0  0  0  0  0  0  0
  1  2  1  0
  2  3  1  0
  3  4  1  0
  4  5  2  0
  5  6  1  0
  6  7  1  0
  6  8  2  0
  8  9  1  0
  9 10  1  0
 10 11  1  0
 11 12  1  0
 12 13  1  0
 13 14  1  0
 14 15  2  0
 14 16  2  0
  9 17  2  0
 17  4  1  0
 14 10  1  0
  1 18  1  0
  1 19  1  0
  1 20  1  0
  3 21  1  0
  3 22  1  0
  5 23  1  0
  7 24  1  0
  7 25  1  0
  7 26  1  0
  8 27  1  0
 11 28  1  0
 11 29  1  0
 12 30  1  0
 12 31  1  0
 13 32  1  0
 13 33  1  0
 17 34  1  0
M  END
>  <UniqueID>  (13) 
12

>  <SMILES>  (13) 
COCc1cc(C)cc(N2CCCS2(=O)=O)c1

>  <Energy>  (13) 
40.05531974354543

>  <Genealogy>  (13) 
COCc1cc(C)cc(N2CCCS2(=O)=O)c1 (3D coordinates assigned)
COCc1cc(C)cc(N2CCCS2(=O)=O)c1 (nonaromatic ring conformer: 40.05531974354543 kcal/mol)

>  <smiles>  (13) 
COCc1cc(C)cc(N2CCCS2(=O)=O)c1

>  <score_type>  (13) 
oracle

>  <origin>  (13) 
adg

>  <m_score__min__energy>  (13) 
-7.3899999999999997

>  <m_primary>  (13) 
energy

$$$$
13:0
     RDKit          3D

 38 40  0  0  0  0  0  0  0  0999 V2000
   -2.3570   20.4160  -33.8950 C   0  0  0  0  0  0  0  0  0  0  0  0
   -3.6370   20.1000  -33.1290 C   0  0  0  0  0  0  0  0  0  0  0  0
   -4.2310   21.2940  -32.6190 O   0  0  0  0  0  0  0  0  0  0  0  0
   -5.5640   21.4410  -32.1920 C   0  0  0  0  0  0  0  0  0  0  0  0
   -6.5690   20.5310  -32.5820 C   0  0  0  0  0  0  0  0  0  0  0  0
   -7.8860   20.7050  -32.1580 C   0  0  0  0  0  0  0  0  0  0  0  0
   -8.2220   21.7800  -31.3400 C   0  0  0  0  0  0  0  0  0  0  0  0
   -9.5040   21.9420  -30.9270 F   0  0  0  0  0  0  0  0  0  0  0  0
   -7.2410   22.6870  -30.9390 C   0  0  0  0  0  0  0  0  0  0  0  0
   -5.9040   22.5320  -31.3530 C   0  0  0  0  0  0  0  0  0  0  0  0
   -4.8740   23.5080  -30.9080 C   0  0  0  0  0  0  0  0  0  0  0  0
   -3.7170   23.2240  -30.2030 C   0  0  0  0  0  0  0  0  0  0  0  0
   -3.1140   24.4520  -30.0340 C   0  0  0  0  0  0  0  0  0  0  0  0
   -1.8330   24.6980  -29.3420 C   0  0  0  0  0  0  0  0  0  0  0  0
   -1.5550   25.8650  -28.9620 O   0  0  0  0  0  0  0  0  0  0  0  0
   -0.9140   23.6380  -29.0470 N   0  0  0  0  0  0  0  0  0  0  0  0
   -1.2480   22.3860  -28.4330 C   0  0  0  0  0  0  0  0  0  0  0  0
   -1.3590   22.3330  -27.0370 C   0  0  0  0  0  0  0  0  0  0  0  0
   -1.6870   21.1340  -26.3990 C   0  0  0  0  0  0  0  0  0  0  0  0
   -1.8870   19.9730  -27.1500 C   0  0  0  0  0  0  0  0  0  0  0  0
   -2.2970   18.4690  -26.3480 Cl  0  0  0  0  0  0  0  0  0  0  0  0
   -1.7440   20.0080  -28.5410 C   0  0  0  0  0  0  0  0  0  0  0  0
   -1.4160   21.2050  -29.1890 C   0  0  0  0  0  0  0  0  0  0  0  0
   -1.1510   21.1690  -30.9280 Cl  0  0  0  0  0  0  0  0  0  0  0  0
   -3.8640   25.4080  -30.6150 N   0  0  0  0  0  0  0  0  0  0  0  0
   -4.9330   24.8350  -31.1430 N   0  0  0  0  0  0  0  0  0  0  0  0
   -1.5434   20.6169  -33.1825 H   0  0  0  0  0  0  0  0  0  0  0  0
   -2.0868   19.5576  -34.5276 H   0  0  0  0  0  0  0  0  0  0  0  0
   -2.5174   21.3015  -34.5276 H   0  0  0  0  0  0  0  0  0  0  0  0
   -4.3486   19.6036  -33.8052 H   0  0  0  0  0  0  0  0  0  0  0  0
   -3.3884   19.4413  -32.2839 H   0  0  0  0  0  0  0  0  0  0  0  0
   -6.3116   19.6771  -33.2259 H   0  0  0  0  0  0  0  0  0  0  0  0
   -8.6617   19.9906  -32.4709 H   0  0  0  0  0  0  0  0  0  0  0  0
   -7.5150   23.5332  -30.2918 H   0  0  0  0  0  0  0  0  0  0  0  0
   -3.3603   22.2427  -29.8568 H   0  0  0  0  0  0  0  0  0  0  0  0
   -1.1869   23.2407  -26.4400 H   0  0  0  0  0  0  0  0  0  0  0  0
   -1.7879   21.1041  -25.3040 H   0  0  0  0  0  0  0  0  0  0  0  0
   -1.8901   19.0899  -29.1291 H   0  0  0  0  0  0  0  0  0  0  0  0
  1  2  1  0
  2  3  1  0
  3  4  1  0
  4  5  2  0
  5  6  1  0
  6  7  2  0
  7  8  1  0
  7  9  1  0
  9 10  2  0
 10 11  1  0
 11 12  1  0
 12 13  2  0
 13 14  1  0
 14 15  2  0
 14 16  1  0
 16 17  1  0
 17 18  2  0
 18 19  1  0
 19 20  2  0
 20 21  1  0
 20 22  1  0
 22 23  2  0
 23 24  1  0
 13 25  1  0
 25 26  1  0
 10  4  1  0
 26 11  2  0
 23 17  1  0
  1 27  1  0
  1 28  1  0
  1 29  1  0
  2 30  1  0
  2 31  1  0
  5 32  1  0
  6 33  1  0
  9 34  1  0
 12 35  1  0
 18 36  1  0
 19 37  1  0
 22 38  1  0
M  CHG  2  16  -1  25  -1
M  END
>  <UniqueID>  (14) 
13

>  <SMILES>  (14) 
CCOc1ccc(F)cc1-c1cc(C(=O)[N-]c2ccc(Cl)cc2Cl)[n-]n1

>  <Energy>  (14) 
78.5487269055671

>  <Genealogy>  (14) 
CCOc1ccc(F)cc1-c1cc(C(=O)[N-]c2ccc(Cl)cc2Cl)[n-]n1 (protonated)
CCOc1ccc(F)cc1-c1cc(C(=O)[N-]c2ccc(Cl)cc2Cl)[n-]n1 (3D coordinates assigned)
CCOc1ccc(F)cc1-c1cc(C(=O)[N-]c2ccc(Cl)cc2Cl)[n-]n1 (optimized conformer: 78.5487269055671 kcal/mol)

>  <smiles>  (14) 
CCOc1ccc(F)cc1-c1cc(C(=O)Nc2ccc(Cl)cc2Cl)[nH]n1

>  <score_type>  (14) 
oracle

>  <origin>  (14) 
adg

>  <m_score__min__energy>  (14) 
-12.039999999999999

>  <m_primary>  (14) 
energy

$$$$
14:0
     RDKit          3D

 55 58  0  0  0  0  0  0  0  0999 V2000
   -1.7780   19.3020  -32.3660 N   0  0  0  0  0  0  0  0  0  0  0  0
   -1.8200   20.0060  -31.4480 C   0  0  0  0  0  0  0  0  0  0  0  0
   -1.8660   20.8820  -30.3060 C   0  0  0  0  0  0  0  0  0  0  0  0
   -1.6730   20.3650  -29.0200 C   0  0  0  0  0  0  0  0  0  0  0  0
   -1.7470   21.2060  -27.9100 C   0  0  0  0  0  0  0  0  0  0  0  0
   -2.0150   22.5680  -28.0770 C   0  0  0  0  0  0  0  0  0  0  0  0
   -2.2050   23.1070  -29.3630 C   0  0  0  0  0  0  0  0  0  0  0  0
   -2.5110   24.5470  -29.5510 C   0  0  0  0  0  0  0  0  0  0  0  0
   -1.9050   25.4140  -28.8650 O   0  0  0  0  0  0  0  0  0  0  0  0
   -3.4890   24.9840  -30.5010 N   0  0  0  0  0  0  0  0  0  0  0  0
   -4.8620   24.5680  -30.5090 C   0  0  0  0  0  0  0  0  0  0  0  0
   -5.8870   25.3980  -30.0250 C   0  0  0  0  0  0  0  0  0  0  0  0
   -7.2230   24.9920  -30.1150 C   0  0  0  0  0  0  0  0  0  0  0  0
   -7.5480   23.7670  -30.6990 C   0  0  0  0  0  0  0  0  0  0  0  0
   -6.5340   22.9300  -31.1900 C   0  0  0  0  0  0  0  0  0  0  0  0
   -6.8790   21.6450  -31.8350 C   0  0  0  0  0  0  0  0  0  0  0  0
   -5.9500   21.0080  -32.6740 C   0  0  0  0  0  0  0  0  0  0  0  0
   -6.2560   19.7750  -33.2720 C   0  0  0  0  0  0  0  0  0  0  0  0
   -5.2210   19.0610  -34.1140 C   0  0  0  0  0  0  0  0  0  0  0  0
   -4.3660   18.1650  -33.2930 N   0  0  0  0  0  0  0  0  0  0  0  0
   -5.1510   17.3820  -32.2870 C   0  0  0  0  0  0  0  0  0  0  0  0
   -5.3050   15.8840  -32.6210 C   0  0  0  0  0  0  0  0  0  0  0  0
   -5.5030   15.6720  -34.1200 C   0  0  0  0  0  0  0  0  0  0  0  0
   -4.3350   16.2580  -34.9360 C   0  0  0  0  0  0  0  0  0  0  0  0
   -3.5170   17.3040  -34.1490 C   0  0  0  0  0  0  0  0  0  0  0  0
   -7.5150   19.1950  -33.0460 C   0  0  0  0  0  0  0  0  0  0  0  0
   -8.4460   19.8300  -32.2200 C   0  0  0  0  0  0  0  0  0  0  0  0
   -8.1310   21.0460  -31.6090 C   0  0  0  0  0  0  0  0  0  0  0  0
   -9.0560   21.6490  -30.8180 F   0  0  0  0  0  0  0  0  0  0  0  0
   -5.1920   23.3340  -31.0840 C   0  0  0  0  0  0  0  0  0  0  0  0
   -2.1290   22.2470  -30.4770 C   0  0  0  0  0  0  0  0  0  0  0  0
   -1.4626   19.2938  -28.8845 H   0  0  0  0  0  0  0  0  0  0  0  0
   -1.5941   20.7967  -26.9005 H   0  0  0  0  0  0  0  0  0  0  0  0
   -2.0779   23.2236  -27.1960 H   0  0  0  0  0  0  0  0  0  0  0  0
   -5.6385   26.3700  -29.5739 H   0  0  0  0  0  0  0  0  0  0  0  0
   -8.0203   25.6411  -29.7238 H   0  0  0  0  0  0  0  0  0  0  0  0
   -8.6007   23.4569  -30.7747 H   0  0  0  0  0  0  0  0  0  0  0  0
   -4.9744   21.4791  -32.8642 H   0  0  0  0  0  0  0  0  0  0  0  0
   -5.7361   18.4602  -34.8780 H   0  0  0  0  0  0  0  0  0  0  0  0
   -4.5745   19.8202  -34.5784 H   0  0  0  0  0  0  0  0  0  0  0  0
   -3.6980   18.7740  -32.7610 H   0  0  0  0  0  0  0  0  0  0  0  0
   -4.6443   17.4668  -31.3143 H   0  0  0  0  0  0  0  0  0  0  0  0
   -6.1655   17.8073  -32.2821 H   0  0  0  0  0  0  0  0  0  0  0  0
   -4.3992   15.3493  -32.2992 H   0  0  0  0  0  0  0  0  0  0  0  0
   -6.1899   15.4980  -32.0939 H   0  0  0  0  0  0  0  0  0  0  0  0
   -5.5730   14.5929  -34.3215 H   0  0  0  0  0  0  0  0  0  0  0  0
   -6.4260   16.1891  -34.4211 H   0  0  0  0  0  0  0  0  0  0  0  0
   -3.6647   15.4365  -35.2290 H   0  0  0  0  0  0  0  0  0  0  0  0
   -4.7663   16.7667  -35.8108 H   0  0  0  0  0  0  0  0  0  0  0  0
   -2.7929   16.7770  -33.5103 H   0  0  0  0  0  0  0  0  0  0  0  0
   -3.0150   17.9537  -34.8811 H   0  0  0  0  0  0  0  0  0  0  0  0
   -7.7693   18.2363  -33.5215 H   0  0  0  0  0  0  0  0  0  0  0  0
   -9.4309   19.3705  -32.0502 H   0  0  0  0  0  0  0  0  0  0  0  0
   -4.3935   22.6752  -31.4560 H   0  0  0  0  0  0  0  0  0  0  0  0
   -2.2775   22.6512  -31.4892 H   0  0  0  0  0  0  0  0  0  0  0  0
  1  2  3  0
  2  3  1  0
  3  4  2  0
  4  5  1  0
  5  6  2  0
  6  7  1  0
  7  8  1  0
  8  9  2  0
  8 10  1  0
 10 11  1  0
 11 12  2  0
 12 13  1  0
 13 14  2  0
 14 15  1  0
 15 16  1  0
 16 17  2  0
 17 18  1  0
 18 19  1  0
 19 20  1  0
 20 21  1  0
 21 22  1  0
 22 23  1  0
 23 24  1  0
 24 25  1  0
 18 26  2  0
 26 27  1  0
 27 28  2  0
 28 29  1  0
 15 30  2  0
  7 31  2  0
 31  3  1  0
 30 11  1  0
 28 16  1  0
 25 20  1  0
  4 32  1  0
  5 33  1  0
  6 34  1  0
 12 35  1  0
 13 36  1  0
 14 37  1  0
 17 38  1  0
 19 39  1  0
 19 40  1  0
 20 41  1  0
 21 42  1  0
 21 43  1  0
 22 44  1  0
 22 45  1  0
 23 46  1  0
 23 47  1  0
 24 48  1  0
 24 49  1  0
 25 50  1  0
 25 51  1  0
 26 52  1  0
 27 53  1  0
 30 54  1  0
 31 55  1  0
M  CHG  2  10  -1  20   1
M  END
>  <UniqueID>  (15) 
14

>  <SMILES>  (15) 
N#Cc1cccc(C(=O)[N-]c2cccc(-c3cc(C[NH+]4CCCCC4)ccc3F)c2)c1

>  <Energy>  (15) 
81.51422620338667

>  <Genealogy>  (15) 
N#Cc1cccc(C(=O)[N-]c2cccc(-c3cc(C[NH+]4CCCCC4)ccc3F)c2)c1 (protonated)
N#Cc1cccc(C(=O)[N-]c2cccc(-c3cc(C[NH+]4CCCCC4)ccc3F)c2)c1 (3D coordinates assigned)
N#Cc1cccc(C(=O)[N-]c2cccc(-c3cc(C[NH+]4CCCCC4)ccc3F)c2)c1 (nonaromatic ring conformer: 81.51422620338667 kcal/mol)

>  <smiles>  (15) 
N#Cc1cccc(C(=O)Nc2cccc(-c3cc(CN4CCCCC4)ccc3F)c2)c1

>  <score_type>  (15) 
oracle

>  <origin>  (15) 
adg

>  <m_score__min__energy>  (15) 
-10.869999999999999

>  <m_primary>  (15) 
energy

$$$$
15:0
     RDKit          3D

 50 54  0  0  0  0  0  0  0  0999 V2000
   -3.6650   23.7800  -28.0320 O   0  0  0  0  0  0  0  0  0  0  0  0
   -3.6200   24.5770  -29.0060 C   0  0  0  0  0  0  0  0  0  0  0  0
   -4.8560   24.8260  -29.8040 C   0  0  0  0  0  0  0  0  0  0  0  0
   -4.6370   24.4110  -31.1490 O   0  0  0  0  0  0  0  0  0  0  0  0
   -4.8070   23.0980  -31.6120 C   0  0  0  0  0  0  0  0  0  0  0  0
   -6.0660   22.5720  -31.9430 C   0  0  0  0  0  0  0  0  0  0  0  0
   -6.1860   21.2570  -32.4010 C   0  0  0  0  0  0  0  0  0  0  0  0
   -5.0490   20.4270  -32.5410 C   0  0  0  0  0  0  0  0  0  0  0  0
   -5.1360   18.9680  -33.0360 C   0  0  2  0  0  0  0  0  0  0  0  0
   -5.8010   18.9330  -34.4460 C   0  0  0  0  0  0  0  0  0  0  0  0
   -5.9470   17.4770  -34.9410 C   0  0  1  0  0  0  0  0  0  0  0  0
   -4.5540   16.8240  -35.0420 C   0  0  0  0  0  0  0  0  0  0  0  0
   -3.8850   16.8240  -33.6520 C   0  0  2  0  0  0  0  0  0  0  0  0
   -4.7530   16.0230  -32.6600 C   0  0  0  0  0  0  0  0  0  0  0  0
   -6.1460   16.6750  -32.5550 C   0  0  2  0  0  0  0  0  0  0  0  0
   -6.8190   16.6800  -33.9450 C   0  0  0  0  0  0  0  0  0  0  0  0
   -6.0010   18.1280  -32.0480 C   0  0  0  0  0  0  0  0  0  0  0  0
   -3.7380   18.2770  -33.1530 C   0  0  0  0  0  0  0  0  0  0  0  0
   -3.7930   20.9750  -32.1990 C   0  0  0  0  0  0  0  0  0  0  0  0
   -3.6770   22.2900  -31.7450 C   0  0  0  0  0  0  0  0  0  0  0  0
   -2.4170   25.2910  -29.3410 N   0  0  0  0  0  0  0  0  0  0  0  0
   -1.2420   25.6380  -28.5290 C   0  0  0  0  0  0  0  0  0  0  0  0
   -0.6710   24.5280  -27.6630 C   0  0  0  0  0  0  0  0  0  0  0  0
   -1.4550   25.6760  -27.0240 C   0  0  0  0  0  0  0  0  0  0  0  0
   -5.6924   24.2551  -29.3745 H   0  0  0  0  0  0  0  0  0  0  0  0
   -5.0993   25.8986  -29.7833 H   0  0  0  0  0  0  0  0  0  0  0  0
   -6.9640   23.1991  -31.8412 H   0  0  0  0  0  0  0  0  0  0  0  0
   -7.1800   20.8613  -32.6566 H   0  0  0  0  0  0  0  0  0  0  0  0
   -6.7967   19.3969  -34.3879 H   0  0  0  0  0  0  0  0  0  0  0  0
   -5.1648   19.4862  -35.1525 H   0  0  0  0  0  0  0  0  0  0  0  0
   -6.4247   17.4735  -35.9318 H   0  0  0  0  0  0  0  0  0  0  0  0
   -4.6592   15.7887  -35.3985 H   0  0  0  0  0  0  0  0  0  0  0  0
   -3.9322   17.3933  -35.7486 H   0  0  0  0  0  0  0  0  0  0  0  0
   -2.8910   16.3584  -33.7241 H   0  0  0  0  0  0  0  0  0  0  0  0
   -4.8584   14.9881  -33.0175 H   0  0  0  0  0  0  0  0  0  0  0  0
   -4.2729   16.0215  -31.6703 H   0  0  0  0  0  0  0  0  0  0  0  0
   -6.7650   16.1015  -31.8494 H   0  0  0  0  0  0  0  0  0  0  0  0
   -6.9294   15.6454  -34.3019 H   0  0  0  0  0  0  0  0  0  0  0  0
   -7.8100   17.1514  -33.8691 H   0  0  0  0  0  0  0  0  0  0  0  0
   -6.9989   18.5831  -31.9638 H   0  0  0  0  0  0  0  0  0  0  0  0
   -5.5060   18.1140  -31.0657 H   0  0  0  0  0  0  0  0  0  0  0  0
   -3.2544   18.2718  -32.1650 H   0  0  0  0  0  0  0  0  0  0  0  0
   -3.1268   18.8378  -33.8755 H   0  0  0  0  0  0  0  0  0  0  0  0
   -2.8897   20.3543  -32.2921 H   0  0  0  0  0  0  0  0  0  0  0  0
   -2.6858   22.6930  -31.4898 H   0  0  0  0  0  0  0  0  0  0  0  0
   -0.8258   26.3333  -29.2728 H   0  0  0  0  0  0  0  0  0  0  0  0
   -1.1070   23.5189  -27.7032 H   0  0  0  0  0  0  0  0  0  0  0  0
    0.3273   24.0900  -27.5162 H   0  0  0  0  0  0  0  0  0  0  0  0
   -2.4554   25.4933  -26.6046 H   0  0  0  0  0  0  0  0  0  0  0  0
   -1.2554   26.4073  -26.2269 H   0  0  0  0  0  0  0  0  0  0  0  0
  1  2  2  0
  2  3  1  0
  3  4  1  0
  4  5  1  0
  5  6  2  0
  6  7  1  0
  7  8  2  0
  9  8  1  1
  9 10  1  0
 10 11  1  0
 11 12  1  0
 12 13  1  0
 13 14  1  0
 14 15  1  0
 15 16  1  0
 15 17  1  0
 13 18  1  0
  8 19  1  0
 19 20  2  0
  2 21  1  0
 21 22  1  0
 22 23  1  0
 23 24  1  0
 20  5  1  0
 24 22  1  0
 17  9  1  0
 18  9  1  0
 16 11  1  0
  3 25  1  0
  3 26  1  0
  6 27  1  0
  7 28  1  0
 10 29  1  0
 10 30  1  0
 11 31  1  6
 12 32  1  0
 12 33  1  0
 13 34  1  6
 14 35  1  0
 14 36  1  0
 15 37  1  1
 16 38  1  0
 16 39  1  0
 17 40  1  0
 17 41  1  0
 18 42  1  0
 18 43  1  0
 19 44  1  0
 20 45  1  0
 22 46  1  0
 23 47  1  0
 23 48  1  0
 24 49  1  0
 24 50  1  0
M  CHG  1  21  -1
M  END
>  <UniqueID>  (16) 
15

>  <SMILES>  (16) 
O=C(COc1ccc(C23CC4CC(CC(C4)C2)C3)cc1)[N-]C1CC1

>  <Energy>  (16) 
324.96331572843957

>  <Genealogy>  (16) 
O=C(COc1ccc(C23CC4CC(CC(C4)C2)C3)cc1)[N-]C1CC1 (protonated)
O=C(COc1ccc(C23CC4CC(CC(C4)C2)C3)cc1)[N-]C1CC1 (3D coordinates assigned)
O=C(COc1ccc(C23CC4CC(CC(C4)C2)C3)cc1)[N-]C1CC1 (nonaromatic ring conformer: 324.96331572843957 kcal/mol)

>  <smiles>  (16) 
O=C(COc1ccc(C23CC4CC(CC(C4)C2)C3)cc1)NC1CC1

>  <score_type>  (16) 
oracle

>  <origin>  (16) 
adg

>  <m_score__min__energy>  (16) 
-10.18

>  <m_primary>  (16) 
energy

$$$$
16:0
     RDKit          3D

 30 30  0  0  0  0  0  0  0  0999 V2000
   -9.0950   19.0960  -31.9400 C   0  0  0  0  0  0  0  0  0  0  0  0
   -8.2150   20.3100  -31.9730 C   0  0  0  0  0  0  0  0  0  0  0  0
   -6.8480   20.1930  -32.2720 C   0  0  0  0  0  0  0  0  0  0  0  0
   -6.0410   21.3320  -32.3430 C   0  0  0  0  0  0  0  0  0  0  0  0
   -6.5910   22.6040  -32.1180 C   0  0  0  0  0  0  0  0  0  0  0  0
   -5.7280   23.8330  -32.2260 C   0  0  0  0  0  0  0  0  0  0  0  0
   -5.4360   24.3900  -30.8580 C   0  0  0  0  0  0  0  0  0  0  0  0
   -6.3550   24.3950  -29.9960 O   0  0  0  0  0  0  0  0  0  0  0  0
   -4.1570   24.9320  -30.5050 N   0  0  0  0  0  0  0  0  0  0  0  0
   -3.1540   24.2550  -29.6870 C   0  0  0  0  0  0  0  0  0  0  0  0
   -3.6480   24.1260  -28.2440 C   0  0  0  0  0  0  0  0  0  0  0  0
   -4.8600   24.9150  -28.0150 N   0  0  0  0  0  0  0  0  0  0  0  0
   -7.9640   22.7220  -31.8380 C   0  0  0  0  0  0  0  0  0  0  0  0
   -8.7690   21.5810  -31.7660 C   0  0  0  0  0  0  0  0  0  0  0  0
   -9.2968   18.8177  -30.8951 H   0  0  0  0  0  0  0  0  0  0  0  0
  -10.0440   19.3171  -32.4504 H   0  0  0  0  0  0  0  0  0  0  0  0
   -8.5897   18.2628  -32.4504 H   0  0  0  0  0  0  0  0  0  0  0  0
   -6.4101   19.2000  -32.4512 H   0  0  0  0  0  0  0  0  0  0  0  0
   -4.9707   21.2314  -32.5761 H   0  0  0  0  0  0  0  0  0  0  0  0
   -4.7811   23.5690  -32.7197 H   0  0  0  0  0  0  0  0  0  0  0  0
   -6.2616   24.5936  -32.8149 H   0  0  0  0  0  0  0  0  0  0  0  0
   -2.9667   23.2520  -30.0980 H   0  0  0  0  0  0  0  0  0  0  0  0
   -2.2253   24.8444  -29.6971 H   0  0  0  0  0  0  0  0  0  0  0  0
   -3.8661   23.0683  -28.0349 H   0  0  0  0  0  0  0  0  0  0  0  0
   -2.8603   24.5050  -27.5762 H   0  0  0  0  0  0  0  0  0  0  0  0
   -5.6800   24.2710  -27.9410 H   0  0  0  0  0  0  0  0  0  0  0  0
   -4.7750   25.4490  -27.1220 H   0  0  0  0  0  0  0  0  0  0  0  0
   -5.0250   25.5780  -28.8080 H   0  0  0  0  0  0  0  0  0  0  0  0
   -8.4064   23.7158  -31.6750 H   0  0  0  0  0  0  0  0  0  0  0  0
   -9.8421   21.6812  -31.5459 H   0  0  0  0  0  0  0  0  0  0  0  0
  1  2  1  0
  2  3  2  0
  3  4  1  0
  4  5  2  0
  5  6  1  0
  6  7  1  0
  7  8  2  0
  7  9  1  0
  9 10  1  0
 10 11  1  0
 11 12  1  0
  5 13  1  0
 13 14  2  0
 14  2  1  0
  1 15  1  0
  1 16  1  0
  1 17  1  0
  3 18  1  0
  4 19  1  0
  6 20  1  0
  6 21  1  0
 10 22  1  0
 10 23  1  0
 11 24  1  0
 11 25  1  0
 12 26  1  0
 12 27  1  0
 12 28  1  0
 13 29  1  0
 14 30  1  0
M  CHG  2   9  -1  12   1
M  END
>  <UniqueID>  (17) 
16

>  <SMILES>  (17) 
Cc1ccc(CC(=O)[N-]CC[NH3+])cc1

>  <Energy>  (17) 
20.85420632371632

>  <Genealogy>  (17) 
Cc1ccc(CC(=O)[N-]CC[NH3+])cc1 (protonated)
Cc1ccc(CC(=O)[N-]CC[NH3+])cc1 (3D coordinates assigned)
Cc1ccc(CC(=O)[N-]CC[NH3+])cc1 (optimized conformer: 20.85420632371632 kcal/mol)

>  <smiles>  (17) 
Cc1ccc(CC(=O)NCCN)cc1

>  <score_type>  (17) 
oracle

>  <origin>  (17) 
adg

>  <m_score__min__energy>  (17) 
-6.8899999999999997

>  <m_primary>  (17) 
energy

$$$$
17:0
     RDKit          3D

 25 26  0  0  0  0  0  0  0  0999 V2000
   -3.8590   25.3430  -30.6790 N   0  0  0  0  0  0  0  0  0  0  0  0
   -4.1210   23.6380  -30.5670 S   0  0  0  0  0  0  0  0  0  0  0  0
   -3.1530   22.9190  -31.4620 O   0  0  0  0  0  0  0  0  0  0  0  0
   -3.8980   23.1930  -29.1500 O   0  0  0  0  0  0  0  0  0  0  0  0
   -5.7640   23.2610  -31.0560 C   0  0  0  0  0  0  0  0  0  0  0  0
   -6.5970   24.1740  -31.6960 C   0  0  0  0  0  0  0  0  0  0  0  0
   -8.0700   23.4190  -31.9980 S   0  0  0  0  0  0  0  0  0  0  0  0
   -7.6500   21.9390  -31.3230 C   0  0  0  0  0  0  0  0  0  0  0  0
   -8.7240   20.5130  -31.2240 S   0  0  0  0  0  0  0  0  0  0  0  0
   -7.5230   19.4480  -32.0220 C   0  0  0  0  0  0  0  0  0  0  0  0
   -6.8800   18.4430  -31.2890 C   0  0  0  0  0  0  0  0  0  0  0  0
   -5.9500   17.6080  -31.9130 C   0  0  0  0  0  0  0  0  0  0  0  0
   -5.6550   17.7770  -33.2710 C   0  0  0  0  0  0  0  0  0  0  0  0
   -6.2910   18.7820  -34.0080 C   0  0  0  0  0  0  0  0  0  0  0  0
   -5.9900   18.9410  -35.3590 O   0  0  0  0  0  0  0  0  0  0  0  0
   -7.2260   19.6200  -33.3810 C   0  0  0  0  0  0  0  0  0  0  0  0
   -6.3500   22.0060  -30.8490 C   0  0  0  0  0  0  0  0  0  0  0  0
   -3.5180   25.6600  -29.7440 H   0  0  0  0  0  0  0  0  0  0  0  0
   -6.3373   25.2101  -31.9589 H   0  0  0  0  0  0  0  0  0  0  0  0
   -7.1074   18.3109  -30.2209 H   0  0  0  0  0  0  0  0  0  0  0  0
   -5.4488   16.8166  -31.3365 H   0  0  0  0  0  0  0  0  0  0  0  0
   -4.9218   17.1184  -33.7596 H   0  0  0  0  0  0  0  0  0  0  0  0
   -6.7100   19.1500  -36.0400 H   0  0  0  0  0  0  0  0  0  0  0  0
   -7.7263   20.4126  -33.9567 H   0  0  0  0  0  0  0  0  0  0  0  0
   -5.8341   21.1649  -30.3629 H   0  0  0  0  0  0  0  0  0  0  0  0
  1  2  1  0
  2  3  2  0
  2  4  2  0
  2  5  1  0
  5  6  2  0
  6  7  1  0
  7  8  1  0
  8  9  1  0
  9 10  1  0
 10 11  2  0
 11 12  1  0
 12 13  2  0
 13 14  1  0
 14 15  1  0
 14 16  2  0
  8 17  2  0
 17  5  1  0
 16 10  1  0
  1 18  1  0
  6 19  1  0
 11 20  1  0
 12 21  1  0
 13 22  1  0
 15 23  1  0
 16 24  1  0
 17 25  1  0
M  CHG  1   1  -1
M  END
>  <UniqueID>  (18) 
17

>  <SMILES>  (18) 
[NH-]S(=O)(=O)c1csc(Sc2cccc(O)c2)c1

>  <Energy>  (18) 
46.07583768753006

>  <Genealogy>  (18) 
[NH-]S(=O)(=O)c1csc(Sc2cccc(O)c2)c1 (protonated)
[NH-]S(=O)(=O)c1csc(Sc2cccc(O)c2)c1 (3D coordinates assigned)
[NH-]S(=O)(=O)c1csc(Sc2cccc(O)c2)c1 (optimized conformer: 46.07583768753006 kcal/mol)

>  <smiles>  (18) 
NS(=O)(=O)c1csc(Sc2cccc(O)c2)c1

>  <score_type>  (18) 
oracle

>  <origin>  (18) 
adg

>  <m_score__min__energy>  (18) 
-9.5399999999999991

>  <m_primary>  (18) 
energy

$$$$
18:0
     RDKit          3D

 60 64  0  0  0  0  0  0  0  0999 V2000
    0.7400   17.3590  -28.9070 C   0  0  0  0  0  0  0  0  0  0  0  0
    0.1870   18.5840  -29.5720 C   0  0  0  0  0  0  0  0  0  0  0  0
    0.3420   18.7700  -30.9500 C   0  0  0  0  0  0  0  0  0  0  0  0
   -0.0870   19.9560  -31.5510 C   0  0  0  0  0  0  0  0  0  0  0  0
   -0.7160   20.9450  -30.7880 C   0  0  0  0  0  0  0  0  0  0  0  0
   -0.9290   20.7640  -29.4040 C   0  0  0  0  0  0  0  0  0  0  0  0
   -1.6540   21.7560  -28.6240 N   0  0  0  0  0  0  0  0  0  0  0  0
   -0.9450   22.7640  -27.8110 C   0  0  0  0  0  0  0  0  0  0  0  0
   -0.8360   24.1210  -28.5330 C   0  0  0  0  0  0  0  0  0  0  0  0
   -2.1500   24.9220  -28.5350 C   0  0  0  0  0  0  0  0  0  0  0  0
   -3.2830   24.0640  -28.9260 N   0  0  0  0  0  0  0  0  0  0  0  0
   -3.8620   24.2180  -30.2390 C   0  0  0  0  0  0  0  0  0  0  0  0
   -3.9140   25.3610  -30.7680 O   0  0  0  0  0  0  0  0  0  0  0  0
   -4.3460   23.0620  -31.0160 C   0  0  0  0  0  0  0  0  0  0  0  0
   -3.5060   22.1630  -31.5860 N   0  0  0  0  0  0  0  0  0  0  0  0
   -4.3350   21.2440  -32.1300 C   0  0  0  0  0  0  0  0  0  0  0  0
   -3.8990   20.1650  -32.9650 N   0  0  0  0  0  0  0  0  0  0  0  0
   -2.7030   20.3130  -33.7990 C   0  0  0  0  0  0  0  0  0  0  0  0
   -1.9330   18.9770  -33.9010 C   0  0  0  0  0  0  0  0  0  0  0  0
   -2.5750   17.9090  -33.2260 O   0  0  0  0  0  0  0  0  0  0  0  0
   -3.9150   17.8070  -33.6560 C   0  0  0  0  0  0  0  0  0  0  0  0
   -4.7330   18.9670  -33.0820 C   0  0  0  0  0  0  0  0  0  0  0  0
   -5.6430   21.6160  -31.9220 C   0  0  0  0  0  0  0  0  0  0  0  0
   -6.8280   21.0220  -32.3520 C   0  0  0  0  0  0  0  0  0  0  0  0
   -8.0300   21.6580  -32.0030 C   0  0  0  0  0  0  0  0  0  0  0  0
   -8.0140   22.8720  -31.2890 C   0  0  0  0  0  0  0  0  0  0  0  0
   -6.7830   23.4330  -30.9070 C   0  0  0  0  0  0  0  0  0  0  0  0
   -5.6440   22.7610  -31.2290 N   0  0  0  0  0  0  0  0  0  0  0  0
   -3.7170   22.9940  -28.0110 C   0  0  0  0  0  0  0  0  0  0  0  0
   -3.1060   21.6350  -28.3950 C   0  0  0  0  0  0  0  0  0  0  0  0
   -0.4230   19.5860  -28.8020 C   0  0  0  0  0  0  0  0  0  0  0  0
    0.6860   17.4787  -27.8149 H   0  0  0  0  0  0  0  0  0  0  0  0
    0.1512   16.4803  -29.2092 H   0  0  0  0  0  0  0  0  0  0  0  0
    1.7884   17.2194  -29.2092 H   0  0  0  0  0  0  0  0  0  0  0  0
    0.8028   17.9804  -31.5618 H   0  0  0  0  0  0  0  0  0  0  0  0
    0.0705   20.1125  -32.6284 H   0  0  0  0  0  0  0  0  0  0  0  0
   -1.0488   21.8751  -31.2719 H   0  0  0  0  0  0  0  0  0  0  0  0
   -1.4925   22.9074  -26.8678 H   0  0  0  0  0  0  0  0  0  0  0  0
    0.0752   22.3949  -27.6292 H   0  0  0  0  0  0  0  0  0  0  0  0
   -0.0629   24.7214  -28.0312 H   0  0  0  0  0  0  0  0  0  0  0  0
   -0.5839   23.9099  -29.5827 H   0  0  0  0  0  0  0  0  0  0  0  0
   -2.3309   25.3214  -27.5262 H   0  0  0  0  0  0  0  0  0  0  0  0
   -2.0619   25.7438  -29.2609 H   0  0  0  0  0  0  0  0  0  0  0  0
   -3.0044   20.6328  -34.8074 H   0  0  0  0  0  0  0  0  0  0  0  0
   -2.0442   21.0640  -33.3386 H   0  0  0  0  0  0  0  0  0  0  0  0
   -1.8351   18.7103  -34.9637 H   0  0  0  0  0  0  0  0  0  0  0  0
   -0.9549   19.1262  -33.4203 H   0  0  0  0  0  0  0  0  0  0  0  0
   -3.9498   17.8440  -34.7548 H   0  0  0  0  0  0  0  0  0  0  0  0
   -4.3382   16.8547  -33.3039 H   0  0  0  0  0  0  0  0  0  0  0  0
   -5.5813   19.1786  -33.7495 H   0  0  0  0  0  0  0  0  0  0  0  0
   -5.1011   18.6872  -32.0839 H   0  0  0  0  0  0  0  0  0  0  0  0
   -6.8219   20.0929  -32.9408 H   0  0  0  0  0  0  0  0  0  0  0  0
   -8.9908   21.2051  -32.2891 H   0  0  0  0  0  0  0  0  0  0  0  0
   -8.9570   23.3769  -31.0324 H   0  0  0  0  0  0  0  0  0  0  0  0
   -6.7414   24.3882  -30.3631 H   0  0  0  0  0  0  0  0  0  0  0  0
   -3.4028   23.2501  -26.9884 H   0  0  0  0  0  0  0  0  0  0  0  0
   -4.8117   22.9090  -28.0771 H   0  0  0  0  0  0  0  0  0  0  0  0
   -3.2835   20.9174  -27.5804 H   0  0  0  0  0  0  0  0  0  0  0  0
   -3.5803   21.2867  -29.3244 H   0  0  0  0  0  0  0  0  0  0  0  0
   -0.5096   19.4545  -27.7133 H   0  0  0  0  0  0  0  0  0  0  0  0
  1  2  1  0
  2  3  2  0
  3  4  1  0
  4  5  2  0
  5  6  1  0
  6  7  1  0
  7  8  1  0
  8  9  1  0
  9 10  1  0
 10 11  1  0
 11 12  1  0
 12 13  2  0
 12 14  1  0
 14 15  2  0
 15 16  1  0
 16 17  1  0
 17 18  1  0
 18 19  1  0
 19 20  1  0
 20 21  1  0
 21 22  1  0
 16 23  2  0
 23 24  1  0
 24 25  2  0
 25 26  1  0
 26 27  2  0
 27 28  1  0
 11 29  1  0
 29 30  1  0
  6 31  2  0
 31  2  1  0
 30  7  1  0
 28 14  1  0
 22 17  1  0
 28 23  1  0
  1 32  1  0
  1 33  1  0
  1 34  1  0
  3 35  1  0
  4 36  1  0
  5 37  1  0
  8 38  1  0
  8 39  1  0
  9 40  1  0
  9 41  1  0
 10 42  1  0
 10 43  1  0
 18 44  1  0
 18 45  1  0
 19 46  1  0
 19 47  1  0
 21 48  1  0
 21 49  1  0
 22 50  1  0
 22 51  1  0
 24 52  1  0
 25 53  1  0
 26 54  1  0
 27 55  1  0
 29 56  1  0
 29 57  1  0
 30 58  1  0
 30 59  1  0
 31 60  1  0
M  END
>  <UniqueID>  (19) 
18

>  <SMILES>  (19) 
Cc1cccc(N2CCCN(C(=O)c3nc(N4CCOCC4)c4ccccn34)CC2)c1

>  <Energy>  (19) 
122.90809111520694

>  <Genealogy>  (19) 
Cc1cccc(N2CCCN(C(=O)c3nc(N4CCOCC4)c4ccccn34)CC2)c1 (3D coordinates assigned)
Cc1cccc(N2CCCN(C(=O)c3nc(N4CCOCC4)c4ccccn34)CC2)c1 (nonaromatic ring conformer: 122.90809111520694 kcal/mol)

>  <smiles>  (19) 
Cc1cccc(N2CCCN(C(=O)c3nc(N4CCOCC4)c4ccccn34)CC2)c1

>  <score_type>  (19) 
oracle

>  <origin>  (19) 
adg

>  <m_score__min__energy>  (19) 
-7.8099999999999996

>  <m_primary>  (19) 
energy

$$$$
19:0
     RDKit          3D

 49 52  0  0  0  0  0  0  0  0999 V2000
   -9.0300   18.7650  -31.9410 C   0  0  0  0  0  0  0  0  0  0  0  0
   -8.3300   20.0900  -31.8820 C   0  0  0  0  0  0  0  0  0  0  0  0
   -8.8180   21.1070  -31.0470 C   0  0  0  0  0  0  0  0  0  0  0  0
   -8.1900   22.3560  -31.0160 C   0  0  0  0  0  0  0  0  0  0  0  0
   -7.0780   22.6110  -31.8360 C   0  0  0  0  0  0  0  0  0  0  0  0
   -6.3840   23.9450  -31.7790 C   0  0  0  0  0  0  0  0  0  0  0  0
   -6.6640   24.6440  -30.4450 C   0  0  0  0  0  0  0  0  0  0  0  0
   -5.6570   24.2700  -29.4540 N   0  0  0  0  0  0  0  0  0  0  0  0
   -4.2590   24.5390  -29.6440 C   0  0  0  0  0  0  0  0  0  0  0  0
   -3.8830   25.2520  -30.6110 O   0  0  0  0  0  0  0  0  0  0  0  0
   -3.2560   23.9840  -28.7120 C   0  0  0  0  0  0  0  0  0  0  0  0
   -2.6000   24.7350  -27.7240 C   0  0  0  0  0  0  0  0  0  0  0  0
   -1.8170   23.8090  -27.0850 C   0  0  0  0  0  0  0  0  0  0  0  0
   -0.7730   23.7200  -25.7800 S   0  0  0  0  0  0  0  0  0  0  0  0
   -0.5550   22.0320  -25.9640 C   0  0  0  0  0  0  0  0  0  0  0  0
   -1.3150   21.5570  -27.0430 C   0  0  0  0  0  0  0  0  0  0  0  0
   -2.0030   22.6080  -27.6440 C   0  0  0  0  0  0  0  0  0  0  0  0
   -2.8810   22.6690  -28.6600 N   0  0  0  0  0  0  0  0  0  0  0  0
   -3.4370   21.5340  -29.4060 C   0  0  0  0  0  0  0  0  0  0  0  0
   -2.7510   21.3960  -30.7410 C   0  0  0  0  0  0  0  0  0  0  0  0
   -1.3500   21.3230  -30.8230 C   0  0  0  0  0  0  0  0  0  0  0  0
   -0.7200   21.2280  -32.0680 C   0  0  0  0  0  0  0  0  0  0  0  0
   -1.4840   21.1950  -33.2390 C   0  0  0  0  0  0  0  0  0  0  0  0
   -0.8710   21.1040  -34.4450 F   0  0  0  0  0  0  0  0  0  0  0  0
   -2.8780   21.2570  -33.1650 C   0  0  0  0  0  0  0  0  0  0  0  0
   -3.5110   21.3550  -31.9230 C   0  0  0  0  0  0  0  0  0  0  0  0
   -6.5930   21.5940  -32.6730 C   0  0  0  0  0  0  0  0  0  0  0  0
   -7.2230   20.3450  -32.7050 C   0  0  0  0  0  0  0  0  0  0  0  0
   -9.2202   18.4050  -30.9191 H   0  0  0  0  0  0  0  0  0  0  0  0
   -9.9858   18.8786  -32.4736 H   0  0  0  0  0  0  0  0  0  0  0  0
   -8.3975   18.0395  -32.4736 H   0  0  0  0  0  0  0  0  0  0  0  0
   -9.6983   20.9208  -30.4142 H   0  0  0  0  0  0  0  0  0  0  0  0
   -8.5684   23.1425  -30.3465 H   0  0  0  0  0  0  0  0  0  0  0  0
   -5.2999   23.7930  -31.8865 H   0  0  0  0  0  0  0  0  0  0  0  0
   -6.7635   24.5765  -32.5958 H   0  0  0  0  0  0  0  0  0  0  0  0
   -6.6389   25.7335  -30.5942 H   0  0  0  0  0  0  0  0  0  0  0  0
   -7.6552   24.3357  -30.0811 H   0  0  0  0  0  0  0  0  0  0  0  0
   -5.9740   23.7580  -28.6010 H   0  0  0  0  0  0  0  0  0  0  0  0
   -2.6923   25.8106  -27.5128 H   0  0  0  0  0  0  0  0  0  0  0  0
    0.0894   21.4086  -25.3267 H   0  0  0  0  0  0  0  0  0  0  0  0
   -1.3609   20.5069  -27.3673 H   0  0  0  0  0  0  0  0  0  0  0  0
   -3.2892   20.6114  -28.8255 H   0  0  0  0  0  0  0  0  0  0  0  0
   -4.5103   21.7079  -29.5726 H   0  0  0  0  0  0  0  0  0  0  0  0
   -0.7461   21.3407  -29.9038 H   0  0  0  0  0  0  0  0  0  0  0  0
    0.3774   21.1792  -32.1263 H   0  0  0  0  0  0  0  0  0  0  0  0
   -3.4783   21.2286  -34.0863 H   0  0  0  0  0  0  0  0  0  0  0  0
   -4.6088   21.4003  -31.8700 H   0  0  0  0  0  0  0  0  0  0  0  0
   -5.7134   21.7798  -33.3069 H   0  0  0  0  0  0  0  0  0  0  0  0
   -6.8486   19.5598  -33.3783 H   0  0  0  0  0  0  0  0  0  0  0  0
  1  2  1  0
  2  3  2  0
  3  4  1  0
  4  5  2  0
  5  6  1  0
  6  7  1  0
  7  8  1  0
  8  9  1  0
  9 10  2  0
  9 11  1  0
 11 12  2  0
 12 13  1  0
 13 14  1  0
 14 15  1  0
 15 16  2  0
 16 17  1  0
 17 18  1  0
 18 19  1  0
 19 20  1  0
 20 21  2  0
 21 22  1  0
 22 23  2  0
 23 24  1  0
 23 25  1  0
 25 26  2  0
  5 27  1  0
 27 28  2  0
 28  2  1  0
 18 11  1  0
 26 20  1  0
 17 13  2  0
  1 29  1  0
  1 30  1  0
  1 31  1  0
  3 32  1  0
  4 33  1  0
  6 34  1  0
  6 35  1  0
  7 36  1  0
  7 37  1  0
  8 38  1  0
 12 39  1  0
 15 40  1  0
 16 41  1  0
 19 42  1  0
 19 43  1  0
 21 44  1  0
 22 45  1  0
 25 46  1  0
 26 47  1  0
 27 48  1  0
 28 49  1  0
M  END
>  <UniqueID>  (20) 
19

>  <SMILES>  (20) 
Cc1ccc(CCNC(=O)c2cc3sccc3n2Cc2ccc(F)cc2)cc1

>  <Energy>  (20) 
121.47462810308036

>  <Genealogy>  (20) 
Cc1ccc(CCNC(=O)c2cc3sccc3n2Cc2ccc(F)cc2)cc1 (3D coordinates assigned)
Cc1ccc(CCNC(=O)c2cc3sccc3n2Cc2ccc(F)cc2)cc1 (optimized conformer: 121.47462810308036 kcal/mol)

>  <smiles>  (20) 
Cc1ccc(CCNC(=O)c2cc3sccc3n2Cc2ccc(F)cc2)cc1

>  <score_type>  (20) 
oracle

>  <origin>  (20) 
adg

>  <m_score__min__energy>  (20) 
-9.5600000000000005

>  <m_primary>  (20) 
energy

$$$$
20:0
     RDKit          3D

 37 40  0  0  0  0  0  0  0  0999 V2000
   -2.2520   25.2500  -26.9240 O   0  0  0  0  0  0  0  0  0  0  0  0
   -1.4750   25.5840  -27.8600 C   0  0  0  0  0  0  0  0  0  0  0  0
   -0.1740   26.2450  -27.5400 C   0  0  0  0  0  0  0  0  0  0  0  0
   -0.4230   27.4890  -26.7460 C   0  0  0  0  0  0  0  0  0  0  0  0
   -0.7960   27.5380  -25.4090 C   0  0  0  0  0  0  0  0  0  0  0  0
   -0.8520   28.8410  -24.9000 C   0  0  0  0  0  0  0  0  0  0  0  0
   -0.5050   29.8170  -25.8270 C   0  0  0  0  0  0  0  0  0  0  0  0
   -0.1290   29.0560  -27.2800 S   0  0  0  0  0  0  0  0  0  0  0  0
   -1.8240   25.3330  -29.2270 N   0  0  0  0  0  0  0  0  0  0  0  0
   -2.8550   24.4450  -29.6790 C   0  0  0  0  0  0  0  0  0  0  0  0
   -4.1690   24.9180  -29.7550 C   0  0  0  0  0  0  0  0  0  0  0  0
   -5.1980   24.0880  -30.2080 C   0  0  0  0  0  0  0  0  0  0  0  0
   -4.9230   22.7750  -30.6270 C   0  0  0  0  0  0  0  0  0  0  0  0
   -6.0150   21.9060  -31.1210 C   0  0  0  0  0  0  0  0  0  0  0  0
   -5.8570   20.5780  -31.3610 N   0  0  0  0  0  0  0  0  0  0  0  0
   -7.0090   20.0130  -31.8030 C   0  0  0  0  0  0  0  0  0  0  0  0
   -7.1500   18.6620  -32.1280 C   0  0  0  0  0  0  0  0  0  0  0  0
   -8.4060   18.2020  -32.5650 C   0  0  0  0  0  0  0  0  0  0  0  0
   -9.4940   19.0900  -32.6720 C   0  0  0  0  0  0  0  0  0  0  0  0
   -9.3390   20.4460  -32.3460 C   0  0  0  0  0  0  0  0  0  0  0  0
   -8.0860   20.8770  -31.9160 C   0  0  0  0  0  0  0  0  0  0  0  0
   -7.6030   22.4140  -31.4550 S   0  0  0  0  0  0  0  0  0  0  0  0
   -3.5950   22.3120  -30.5820 C   0  0  0  0  0  0  0  0  0  0  0  0
   -2.5690   23.1400  -30.1150 C   0  0  0  0  0  0  0  0  0  0  0  0
    0.4519   25.5561  -26.9538 H   0  0  0  0  0  0  0  0  0  0  0  0
    0.3419   26.5067  -28.4756 H   0  0  0  0  0  0  0  0  0  0  0  0
   -1.0243   26.6436  -24.8107 H   0  0  0  0  0  0  0  0  0  0  0  0
   -1.1431   29.0707  -23.8644 H   0  0  0  0  0  0  0  0  0  0  0  0
   -0.4804   30.9011  -25.6424 H   0  0  0  0  0  0  0  0  0  0  0  0
   -4.3944   25.9522  -29.4556 H   0  0  0  0  0  0  0  0  0  0  0  0
   -6.2309   24.4652  -30.2368 H   0  0  0  0  0  0  0  0  0  0  0  0
   -6.2973   17.9722  -32.0441 H   0  0  0  0  0  0  0  0  0  0  0  0
   -8.5390   17.1414  -32.8249 H   0  0  0  0  0  0  0  0  0  0  0  0
  -10.4714   18.7182  -33.0133 H   0  0  0  0  0  0  0  0  0  0  0  0
  -10.1820   21.1479  -32.4276 H   0  0  0  0  0  0  0  0  0  0  0  0
   -3.3618   21.2905  -30.9168 H   0  0  0  0  0  0  0  0  0  0  0  0
   -1.5341   22.7682  -30.0889 H   0  0  0  0  0  0  0  0  0  0  0  0
  1  2  2  0
  2  3  1  0
  3  4  1  0
  4  5  2  0
  5  6  1  0
  6  7  2  0
  7  8  1  0
  2  9  1  0
  9 10  1  0
 10 11  2  0
 11 12  1  0
 12 13  2  0
 13 14  1  0
 14 15  2  0
 15 16  1  0
 16 17  2  0
 17 18  1  0
 18 19  2  0
 19 20  1  0
 20 21  2  0
 21 22  1  0
 13 23  1  0
 23 24  2  0
  8  4  1  0
 24 10  1  0
 22 14  1  0
 21 16  1  0
  3 25  1  0
  3 26  1  0
  5 27  1  0
  6 28  1  0
  7 29  1  0
 11 30  1  0
 12 31  1  0
 17 32  1  0
 18 33  1  0
 19 34  1  0
 20 35  1  0
 23 36  1  0
 24 37  1  0
M  CHG  1   9  -1
M  END
>  <UniqueID>  (21) 
20

>  <SMILES>  (21) 
O=C(Cc1cccs1)[N-]c1ccc(-c2nc3ccccc3s2)cc1

>  <Energy>  (21) 
103.8346191537558

>  <Genealogy>  (21) 
O=C(Cc1cccs1)[N-]c1ccc(-c2nc3ccccc3s2)cc1 (protonated)
O=C(Cc1cccs1)[N-]c1ccc(-c2nc3ccccc3s2)cc1 (3D coordinates assigned)
O=C(Cc1cccs1)[N-]c1ccc(-c2nc3ccccc3s2)cc1 (optimized conformer: 103.8346191537558 kcal/mol)

>  <smiles>  (21) 
O=C(Cc1cccs1)Nc1ccc(-c2nc3ccccc3s2)cc1

>  <score_type>  (21) 
oracle

>  <origin>  (21) 
adg

>  <m_score__min__energy>  (21) 
-10.5

>  <m_primary>  (21) 
energy

$$$$
21:0
     RDKit          3D

 53 56  0  0  0  0  0  0  0  0999 V2000
   -4.1810   23.8150  -30.9240 O   0  0  0  0  0  0  0  0  0  0  0  0
   -3.1980   23.0410  -30.7620 C   0  0  0  0  0  0  0  0  0  0  0  0
   -2.2280   23.3380  -29.7440 N   0  0  0  0  0  0  0  0  0  0  0  0
   -2.5470   24.0030  -28.5080 C   0  0  0  0  0  0  0  0  0  0  0  0
   -3.8280   23.9140  -27.9310 C   0  0  0  0  0  0  0  0  0  0  0  0
   -4.1050   24.5620  -26.7240 C   0  0  0  0  0  0  0  0  0  0  0  0
   -3.1070   25.2940  -26.0750 C   0  0  0  0  0  0  0  0  0  0  0  0
   -1.8280   25.3730  -26.6320 C   0  0  0  0  0  0  0  0  0  0  0  0
   -1.5470   24.7230  -27.8360 C   0  0  0  0  0  0  0  0  0  0  0  0
   -3.0440   21.8560  -31.6430 C   0  0  0  0  0  0  0  0  0  0  0  0
   -2.6080   20.6210  -31.1310 C   0  0  0  0  0  0  0  0  0  0  0  0
   -2.5270   19.4980  -31.9600 C   0  0  0  0  0  0  0  0  0  0  0  0
   -2.9240   19.5740  -33.3020 C   0  0  0  0  0  0  0  0  0  0  0  0
   -2.9320   18.3390  -34.1740 C   0  0  0  0  0  0  0  0  0  0  0  0
   -4.1580   17.5110  -34.0540 N   0  0  0  0  0  0  0  0  0  0  0  0
   -4.6180   17.1820  -32.7020 C   0  0  0  0  0  0  0  0  0  0  0  0
   -5.6160   18.1960  -32.1140 C   0  0  0  0  0  0  0  0  0  0  0  0
   -6.1830   19.1770  -33.0680 N   0  0  0  0  0  0  0  0  0  0  0  0
   -6.8700   20.3530  -32.5360 C   0  0  0  0  0  0  0  0  0  0  0  0
   -6.3080   21.6470  -32.6630 C   0  0  0  0  0  0  0  0  0  0  0  0
   -6.9960   22.7780  -32.2200 C   0  0  0  0  0  0  0  0  0  0  0  0
   -8.2440   22.6490  -31.6140 C   0  0  0  0  0  0  0  0  0  0  0  0
   -8.8050   21.3870  -31.4430 C   0  0  0  0  0  0  0  0  0  0  0  0
   -8.1300   20.2480  -31.8960 C   0  0  0  0  0  0  0  0  0  0  0  0
   -6.1220   18.9720  -34.5310 C   0  0  0  0  0  0  0  0  0  0  0  0
   -5.2630   17.7870  -34.9770 C   0  0  0  0  0  0  0  0  0  0  0  0
   -3.2950   20.8190  -33.8320 C   0  0  0  0  0  0  0  0  0  0  0  0
   -3.3690   21.9450  -33.0080 C   0  0  0  0  0  0  0  0  0  0  0  0
   -1.2250   23.1270  -29.9440 H   0  0  0  0  0  0  0  0  0  0  0  0
   -4.6149   23.3316  -28.4326 H   0  0  0  0  0  0  0  0  0  0  0  0
   -5.1109   24.4957  -26.2839 H   0  0  0  0  0  0  0  0  0  0  0  0
   -3.3280   25.8070  -25.1274 H   0  0  0  0  0  0  0  0  0  0  0  0
   -1.0412   25.9479  -26.1216 H   0  0  0  0  0  0  0  0  0  0  0  0
   -0.5338   24.7758  -28.2609 H   0  0  0  0  0  0  0  0  0  0  0  0
   -2.3286   20.5378  -30.0703 H   0  0  0  0  0  0  0  0  0  0  0  0
   -2.1487   18.5475  -31.5558 H   0  0  0  0  0  0  0  0  0  0  0  0
   -2.8333   18.6575  -35.2223 H   0  0  0  0  0  0  0  0  0  0  0  0
   -2.0948   17.7107  -33.8358 H   0  0  0  0  0  0  0  0  0  0  0  0
   -5.1050   16.1961  -32.7330 H   0  0  0  0  0  0  0  0  0  0  0  0
   -3.7305   17.1969  -32.0523 H   0  0  0  0  0  0  0  0  0  0  0  0
   -6.4518   17.6305  -31.6763 H   0  0  0  0  0  0  0  0  0  0  0  0
   -5.0426   18.7881  -31.3855 H   0  0  0  0  0  0  0  0  0  0  0  0
   -5.3132   21.7626  -33.1181 H   0  0  0  0  0  0  0  0  0  0  0  0
   -6.5509   23.7755  -32.3499 H   0  0  0  0  0  0  0  0  0  0  0  0
   -8.7850   23.5433  -31.2713 H   0  0  0  0  0  0  0  0  0  0  0  0
   -9.7829   21.2844  -30.9498 H   0  0  0  0  0  0  0  0  0  0  0  0
   -8.5842   19.2564  -31.7532 H   0  0  0  0  0  0  0  0  0  0  0  0
   -7.1465   18.8090  -34.8968 H   0  0  0  0  0  0  0  0  0  0  0  0
   -5.6497   19.8725  -34.9507 H   0  0  0  0  0  0  0  0  0  0  0  0
   -5.9012   16.8933  -35.0393 H   0  0  0  0  0  0  0  0  0  0  0  0
   -4.8250   18.0425  -35.9532 H   0  0  0  0  0  0  0  0  0  0  0  0
   -3.5291   20.9092  -34.9030 H   0  0  0  0  0  0  0  0  0  0  0  0
   -3.6845   22.9101  -33.4312 H   0  0  0  0  0  0  0  0  0  0  0  0
  1  2  2  0
  2  3  1  0
  3  4  1  0
  4  5  2  0
  5  6  1  0
  6  7  2  0
  7  8  1  0
  8  9  2  0
  2 10  1  0
 10 11  2  0
 11 12  1  0
 12 13  2  0
 13 14  1  0
 14 15  1  0
 15 16  1  0
 16 17  1  0
 17 18  1  0
 18 19  1  0
 19 20  2  0
 20 21  1  0
 21 22  2  0
 22 23  1  0
 23 24  2  0
 18 25  1  0
 25 26  1  0
 13 27  1  0
 27 28  2  0
  9  4  1  0
 28 10  1  0
 26 15  1  0
 24 19  1  0
  3 29  1  0
  5 30  1  0
  6 31  1  0
  7 32  1  0
  8 33  1  0
  9 34  1  0
 11 35  1  0
 12 36  1  0
 14 37  1  0
 14 38  1  0
 16 39  1  0
 16 40  1  0
 17 41  1  0
 17 42  1  0
 20 43  1  0
 21 44  1  0
 22 45  1  0
 23 46  1  0
 24 47  1  0
 25 48  1  0
 25 49  1  0
 26 50  1  0
 26 51  1  0
 27 52  1  0
 28 53  1  0
M  END
>  <UniqueID>  (22) 
21

>  <SMILES>  (22) 
O=C(Nc1ccccc1)c1ccc(CN2CCN(c3ccccc3)CC2)cc1

>  <Energy>  (22) 
77.48360310846725

>  <Genealogy>  (22) 
O=C(Nc1ccccc1)c1ccc(CN2CCN(c3ccccc3)CC2)cc1 (3D coordinates assigned)
O=C(Nc1ccccc1)c1ccc(CN2CCN(c3ccccc3)CC2)cc1 (nonaromatic ring conformer: 77.48360310846725 kcal/mol)

>  <smiles>  (22) 
O=C(Nc1ccccc1)c1ccc(CN2CCN(c3ccccc3)CC2)cc1

>  <score_type>  (22) 
oracle

>  <origin>  (22) 
adg

>  <m_score__min__energy>  (22) 
-9.2100000000000009

>  <m_primary>  (22) 
energy

$$$$
22:0
     RDKit          3D

 36 37  0  0  0  0  0  0  0  0999 V2000
   -1.7520   25.2980  -28.0780 C   0  0  0  0  0  0  0  0  0  0  0  0
   -2.3570   25.2920  -29.3670 O   0  0  0  0  0  0  0  0  0  0  0  0
   -3.4550   24.4930  -29.7230 C   0  0  0  0  0  0  0  0  0  0  0  0
   -4.6770   25.0390  -30.1590 C   0  0  0  0  0  0  0  0  0  0  0  0
   -5.7410   24.2000  -30.5010 C   0  0  0  0  0  0  0  0  0  0  0  0
   -5.6120   22.8080  -30.3980 C   0  0  0  0  0  0  0  0  0  0  0  0
   -6.7160   21.9670  -30.7770 N   0  0  0  0  0  0  0  0  0  0  0  0
   -7.6920   22.3200  -31.7720 C   0  0  0  0  0  0  0  0  0  0  0  0
   -7.5160   23.3190  -32.5190 O   0  0  0  0  0  0  0  0  0  0  0  0
   -8.9010   21.4560  -31.9790 C   0  0  0  0  0  0  0  0  0  0  0  0
   -8.6340   20.4180  -33.0010 N   0  0  0  0  0  0  0  0  0  0  0  0
   -9.1790   19.0950  -32.6160 C   0  0  0  0  0  0  0  0  0  0  0  0
   -8.1490   18.2150  -31.8780 C   0  0  0  0  0  0  0  0  0  0  0  0
   -7.1750   19.0150  -31.2430 O   0  0  0  0  0  0  0  0  0  0  0  0
   -6.3720   19.6620  -32.2150 C   0  0  0  0  0  0  0  0  0  0  0  0
   -7.2010   20.3140  -33.3480 C   0  0  0  0  0  0  0  0  0  0  0  0
   -4.3840   22.2630  -29.9820 C   0  0  0  0  0  0  0  0  0  0  0  0
   -3.3200   23.1030  -29.6410 C   0  0  0  0  0  0  0  0  0  0  0  0
   -2.5350   25.2902  -27.3054 H   0  0  0  0  0  0  0  0  0  0  0  0
   -1.1179   24.4061  -27.9664 H   0  0  0  0  0  0  0  0  0  0  0  0
   -1.1357   26.2023  -27.9664 H   0  0  0  0  0  0  0  0  0  0  0  0
   -4.7949   26.1303  -30.2308 H   0  0  0  0  0  0  0  0  0  0  0  0
   -6.6875   24.6355  -30.8539 H   0  0  0  0  0  0  0  0  0  0  0  0
   -6.7550   21.0030  -30.3770 H   0  0  0  0  0  0  0  0  0  0  0  0
   -9.1631   20.9680  -31.0286 H   0  0  0  0  0  0  0  0  0  0  0  0
   -9.7320   22.0879  -32.3255 H   0  0  0  0  0  0  0  0  0  0  0  0
  -10.0452   19.2504  -31.9561 H   0  0  0  0  0  0  0  0  0  0  0  0
   -9.4594   18.5707  -33.5414 H   0  0  0  0  0  0  0  0  0  0  0  0
   -8.6681   17.6088  -31.1210 H   0  0  0  0  0  0  0  0  0  0  0  0
   -7.6498   17.5640  -32.6107 H   0  0  0  0  0  0  0  0  0  0  0  0
   -5.7820   20.4455  -31.7170 H   0  0  0  0  0  0  0  0  0  0  0  0
   -5.7313   18.8955  -32.6755 H   0  0  0  0  0  0  0  0  0  0  0  0
   -6.8083   21.3237  -33.5386 H   0  0  0  0  0  0  0  0  0  0  0  0
   -7.1145   19.6764  -34.2402 H   0  0  0  0  0  0  0  0  0  0  0  0
   -4.2604   21.1715  -29.9248 H   0  0  0  0  0  0  0  0  0  0  0  0
   -2.3676   22.6670  -29.3050 H   0  0  0  0  0  0  0  0  0  0  0  0
  1  2  1  0
  2  3  1  0
  3  4  2  0
  4  5  1  0
  5  6  2  0
  6  7  1  0
  7  8  1  0
  8  9  2  0
  8 10  1  0
 10 11  1  0
 11 12  1  0
 12 13  1  0
 13 14  1  0
 14 15  1  0
 15 16  1  0
  6 17  1  0
 17 18  2  0
 18  3  1  0
 16 11  1  0
  1 19  1  0
  1 20  1  0
  1 21  1  0
  4 22  1  0
  5 23  1  0
  7 24  1  0
 10 25  1  0
 10 26  1  0
 12 27  1  0
 12 28  1  0
 13 29  1  0
 13 30  1  0
 15 31  1  0
 15 32  1  0
 16 33  1  0
 16 34  1  0
 17 35  1  0
 18 36  1  0
M  END
>  <UniqueID>  (23) 
22

>  <SMILES>  (23) 
COc1ccc(NC(=O)CN2CCOCC2)cc1

>  <Energy>  (23) 
49.18037635715754

>  <Genealogy>  (23) 
COc1ccc(NC(=O)CN2CCOCC2)cc1 (3D coordinates assigned)
COc1ccc(NC(=O)CN2CCOCC2)cc1 (nonaromatic ring conformer: 49.18037635715754 kcal/mol)

>  <smiles>  (23) 
COc1ccc(NC(=O)CN2CCOCC2)cc1

>  <score_type>  (23) 
oracle

>  <origin>  (23) 
adg

>  <m_score__min__energy>  (23) 
-6.4500000000000002

>  <m_primary>  (23) 
energy

$$$$
23:0
     RDKit          3D

 39 41  0  0  0  0  0  0  0  0999 V2000
   -6.7840   16.9340  -33.5440 C   0  0  0  0  0  0  0  0  0  0  0  0
   -6.1780   18.2420  -33.1570 C   0  0  0  0  0  0  0  0  0  0  0  0
   -4.8910   18.4740  -33.0990 O   0  0  0  0  0  0  0  0  0  0  0  0
   -4.7450   19.7280  -32.7310 C   0  0  0  0  0  0  0  0  0  0  0  0
   -3.4460   20.3750  -32.5430 C   0  0  0  0  0  0  0  0  0  0  0  0
   -2.8240   21.2150  -33.4440 C   0  0  0  0  0  0  0  0  0  0  0  0
   -1.6330   21.5750  -32.8520 C   0  0  0  0  0  0  0  0  0  0  0  0
   -1.6030   20.9320  -31.6300 C   0  0  0  0  0  0  0  0  0  0  0  0
   -2.6980   20.2250  -31.4750 O   0  0  0  0  0  0  0  0  0  0  0  0
   -5.9230   20.3600  -32.5370 N   0  0  0  0  0  0  0  0  0  0  0  0
   -6.8350   19.3980  -32.7840 C   0  0  0  0  0  0  0  0  0  0  0  0
   -8.3250   19.6080  -32.7460 C   0  0  0  0  0  0  0  0  0  0  0  0
   -8.7990   20.4100  -31.5210 C   0  0  0  0  0  0  0  0  0  0  0  0
   -8.7600   21.9430  -31.6860 C   0  0  0  0  0  0  0  0  0  0  0  0
   -7.6490   22.6450  -30.8730 C   0  0  0  0  0  0  0  0  0  0  0  0
   -7.0710   23.9030  -31.5450 C   0  0  0  0  0  0  0  0  0  0  0  0
   -5.6630   24.1890  -31.1130 C   0  0  0  0  0  0  0  0  0  0  0  0
   -5.1430   25.4200  -30.7960 C   0  0  0  0  0  0  0  0  0  0  0  0
   -3.8410   25.2780  -30.4960 N   0  0  0  0  0  0  0  0  0  0  0  0
   -3.6110   23.9550  -30.6450 C   0  0  0  0  0  0  0  0  0  0  0  0
   -4.7000   23.2550  -31.0240 N   0  0  0  0  0  0  0  0  0  0  0  0
   -7.0459   16.3687  -32.6374 H   0  0  0  0  0  0  0  0  0  0  0  0
   -7.6913   17.1122  -34.1399 H   0  0  0  0  0  0  0  0  0  0  0  0
   -6.0614   16.3571  -34.1399 H   0  0  0  0  0  0  0  0  0  0  0  0
   -3.2001   21.5309  -34.4283 H   0  0  0  0  0  0  0  0  0  0  0  0
   -0.8620   22.2400  -33.2684 H   0  0  0  0  0  0  0  0  0  0  0  0
   -0.7853   21.0018  -30.8976 H   0  0  0  0  0  0  0  0  0  0  0  0
   -8.6237   20.1509  -33.6549 H   0  0  0  0  0  0  0  0  0  0  0  0
   -8.7912   18.6137  -32.6829 H   0  0  0  0  0  0  0  0  0  0  0  0
   -9.8367   20.1173  -31.3031 H   0  0  0  0  0  0  0  0  0  0  0  0
   -8.0962   20.1719  -30.7090 H   0  0  0  0  0  0  0  0  0  0  0  0
   -8.6030   22.1704  -32.7507 H   0  0  0  0  0  0  0  0  0  0  0  0
   -9.7179   22.3243  -31.3025 H   0  0  0  0  0  0  0  0  0  0  0  0
   -8.0673   22.9365  -29.8983 H   0  0  0  0  0  0  0  0  0  0  0  0
   -6.8210   21.9262  -30.7853 H   0  0  0  0  0  0  0  0  0  0  0  0
   -7.0830   23.7577  -32.6353 H   0  0  0  0  0  0  0  0  0  0  0  0
   -7.6934   24.7587  -31.2444 H   0  0  0  0  0  0  0  0  0  0  0  0
   -5.7014   26.3677  -30.7889 H   0  0  0  0  0  0  0  0  0  0  0  0
   -2.6280   23.4922  -30.4734 H   0  0  0  0  0  0  0  0  0  0  0  0
  1  2  1  0
  2  3  1  0
  3  4  1  0
  4  5  1  0
  5  6  2  0
  6  7  1  0
  7  8  2  0
  8  9  1  0
  4 10  2  0
 10 11  1  0
 11 12  1  0
 12 13  1  0
 13 14  1  0
 14 15  1  0
 15 16  1  0
 16 17  1  0
 17 18  2  0
 18 19  1  0
 19 20  1  0
 20 21  2  0
 11  2  2  0
 21 17  1  0
  9  5  1  0
  1 22  1  0
  1 23  1  0
  1 24  1  0
  6 25  1  0
  7 26  1  0
  8 27  1  0
 12 28  1  0
 12 29  1  0
 13 30  1  0
 13 31  1  0
 14 32  1  0
 14 33  1  0
 15 34  1  0
 15 35  1  0
 16 36  1  0
 16 37  1  0
 18 38  1  0
 20 39  1  0
M  CHG  1  19  -1
M  END
>  <UniqueID>  (24) 
23

>  <SMILES>  (24) 
Cc1oc(-c2ccco2)nc1CCCCCc1c[n-]cn1

>  <Energy>  (24) 
114.72856671335859

>  <Genealogy>  (24) 
Cc1oc(-c2ccco2)nc1CCCCCc1c[n-]cn1 (protonated)
Cc1oc(-c2ccco2)nc1CCCCCc1c[n-]cn1 (3D coordinates assigned)
Cc1oc(-c2ccco2)nc1CCCCCc1c[n-]cn1 (optimized conformer: 114.72856671335859 kcal/mol)

>  <smiles>  (24) 
Cc1oc(-c2ccco2)nc1CCCCCc1c[nH]cn1

>  <score_type>  (24) 
oracle

>  <origin>  (24) 
adg

>  <m_score__min__energy>  (24) 
-8.0899999999999999

>  <m_primary>  (24) 
energy

$$$$
24:0
     RDKit          3D

 43 46  0  0  0  0  0  0  0  0999 V2000
    0.1475   24.6476  -28.8706 H   0  0  0  0  0  0  0  0  0  0  0  0
   -0.8610   24.3700  -29.2110 C   0  0  0  0  0  0  0  0  0  0  0  0
   -1.8940   25.2290  -29.0350 N   0  0  0  0  0  0  0  0  0  0  0  0
   -3.1530   24.9270  -29.4410 C   0  0  0  0  0  0  0  0  0  0  0  0
   -3.9654   25.6504  -29.2777 H   0  0  0  0  0  0  0  0  0  0  0  0
   -3.4310   23.6980  -30.0690 C   0  0  0  0  0  0  0  0  0  0  0  0
   -4.8280   23.4080  -30.4980 C   0  0  0  0  0  0  0  0  0  0  0  0
   -5.6740   22.6310  -29.7680 N   0  0  0  0  0  0  0  0  0  0  0  0
   -6.7930   22.6320  -30.5060 C   0  0  0  0  0  0  0  0  0  0  0  0
   -7.9960   21.9850  -30.2350 C   0  0  0  0  0  0  0  0  0  0  0  0
   -8.1271   21.3835  -29.3234 H   0  0  0  0  0  0  0  0  0  0  0  0
   -9.0390   22.1290  -31.1710 C   0  0  0  0  0  0  0  0  0  0  0  0
  -10.0045   21.6325  -30.9944 H   0  0  0  0  0  0  0  0  0  0  0  0
   -8.8520   22.9080  -32.3360 C   0  0  0  0  0  0  0  0  0  0  0  0
   -9.6731   23.0151  -33.0601 H   0  0  0  0  0  0  0  0  0  0  0  0
   -7.6210   23.5470  -32.5740 C   0  0  0  0  0  0  0  0  0  0  0  0
   -7.4598   24.1550  -33.4764 H   0  0  0  0  0  0  0  0  0  0  0  0
   -6.6140   23.3820  -31.6260 C   0  0  0  0  0  0  0  0  0  0  0  0
   -5.3750   23.8900  -31.6470 N   0  0  0  0  0  0  0  0  0  0  0  0
   -2.3650   22.7800  -30.2600 C   0  0  0  0  0  0  0  0  0  0  0  0
   -2.5990   21.6250  -30.8210 N   0  0  0  0  0  0  0  0  0  0  0  0
   -3.1670   21.3950  -32.1490 C   0  0  0  0  0  0  0  0  0  0  0  0
   -4.0205   22.0721  -32.3010 H   0  0  0  0  0  0  0  0  0  0  0  0
   -2.3939   21.5876  -32.9074 H   0  0  0  0  0  0  0  0  0  0  0  0
   -3.6460   19.9350  -32.2800 C   0  0  0  0  0  0  0  0  0  0  0  0
   -3.2554   19.5316  -33.2259 H   0  0  0  0  0  0  0  0  0  0  0  0
   -3.2697   19.4078  -31.3909 H   0  0  0  0  0  0  0  0  0  0  0  0
   -5.1170   19.7540  -32.2760 N   0  0  0  0  0  0  0  0  0  0  0  0
   -5.5600   18.3610  -32.1070 C   0  0  0  0  0  0  0  0  0  0  0  0
   -5.3004   17.7833  -33.0064 H   0  0  0  0  0  0  0  0  0  0  0  0
   -5.0603   17.9242  -31.2298 H   0  0  0  0  0  0  0  0  0  0  0  0
   -7.0880   18.3220  -31.8960 C   0  0  0  0  0  0  0  0  0  0  0  0
   -7.5116   17.5374  -32.5402 H   0  0  0  0  0  0  0  0  0  0  0  0
   -7.2695   18.1181  -30.8304 H   0  0  0  0  0  0  0  0  0  0  0  0
   -7.7190   19.5540  -32.2080 O   0  0  0  0  0  0  0  0  0  0  0  0
   -7.2790   20.0160  -33.4700 C   0  0  0  0  0  0  0  0  0  0  0  0
   -7.4116   19.2167  -34.2140 H   0  0  0  0  0  0  0  0  0  0  0  0
   -7.8716   20.8992  -33.7509 H   0  0  0  0  0  0  0  0  0  0  0  0
   -5.7920   20.4130  -33.4130 C   0  0  0  0  0  0  0  0  0  0  0  0
   -5.3013   20.1089  -34.3493 H   0  0  0  0  0  0  0  0  0  0  0  0
   -5.7225   21.5029  -33.2811 H   0  0  0  0  0  0  0  0  0  0  0  0
   -1.0730   23.1360  -29.8220 C   0  0  0  0  0  0  0  0  0  0  0  0
   -0.2329   22.4399  -29.9626 H   0  0  0  0  0  0  0  0  0  0  0  0
  1  2  1  0
  2  3  1  0
  3  4  1  0
  4  5  1  0
  4  6  2  0
  6  7  1  0
  7  8  2  0
  8  9  1  0
  9 10  2  0
 10 11  1  0
 10 12  1  0
 12 13  1  0
 12 14  2  0
 14 15  1  0
 14 16  1  0
 16 17  1  0
 16 18  2  0
 18 19  1  0
  6 20  1  0
 20 21  2  0
 21 22  1  0
 22 23  1  0
 22 24  1  0
 22 25  1  0
 25 26  1  0
 25 27  1  0
 25 28  1  0
 28 29  1  0
 29 30  1  0
 29 31  1  0
 29 32  1  0
 32 33  1  0
 32 34  1  0
 32 35  1  0
 35 36  1  0
 36 37  1  0
 36 38  1  0
 36 39  1  0
 39 40  1  0
 39 41  1  0
 20 42  1  0
 42 43  1  0
 42  2  2  0
 19  7  1  0
 39 28  1  0
 18  9  1  0
M  CHG  2   3  -1  19  -1
M  END
>  <UniqueID>  (25) 
24

>  <SMILES>  (25) 
c1ccc2[n-]c(-c3c[n-]cc/c3=N\CCN3CCOCC3)nc2c1

>  <Energy>  (25) 
97.61253674292837

>  <Genealogy>  (25) 
c1ccc2[n-]c(-c3c[n-]ccc3=NCCN3CCOCC3)nc2c1 (protonated)
c1ccc2[n-]c(-c3c[n-]cc/c3=N\CCN3CCOCC3)nc2c1 (cis-trans isomerization)
c1ccc2[n-]c(-c3c[n-]cc/c3=N\CCN3CCOCC3)nc2c1 (3D coordinates assigned)
c1ccc2[n-]c(-c3c[n-]cc/c3=N\CCN3CCOCC3)nc2c1 (nonaromatic ring conformer: 97.61253674292837 kcal/mol)

>  <smiles>  (25) 
c1ccc2[nH]c(-c3c[nH]ccc3=NCCN3CCOCC3)nc2c1

>  <score_type>  (25) 
oracle

>  <origin>  (25) 
adg

>  <m_score__min__energy>  (25) 
-9.1300000000000008

>  <m_primary>  (25) 
energy

$$$$
25:0
     RDKit          3D

 39 41  0  0  0  0  0  0  0  0999 V2000
   -9.2420   22.6250  -31.9220 C   0  0  0  0  0  0  0  0  0  0  0  0
   -7.9430   23.4380  -31.9650 C   0  0  0  0  0  0  0  0  0  0  0  0
   -6.7220   22.7440  -31.3000 C   0  0  0  0  0  0  0  0  0  0  0  0
   -6.7110   22.7670  -29.7430 C   0  0  0  0  0  0  0  0  0  0  0  0
   -5.3540   23.0530  -29.0910 C   0  0  0  0  0  0  0  0  0  0  0  0
   -5.4240   23.3170  -31.8090 C   0  0  0  0  0  0  0  0  0  0  0  0
   -5.0170   24.4890  -31.5940 O   0  0  0  0  0  0  0  0  0  0  0  0
   -4.6500   22.3600  -32.5210 N   0  0  0  0  0  0  0  0  0  0  0  0
   -5.3470   21.2740  -32.4980 C   0  0  0  0  0  0  0  0  0  0  0  0
   -4.9530   20.0170  -33.1450 C   0  0  0  0  0  0  0  0  0  0  0  0
   -3.6860   19.8320  -33.6150 N   0  0  0  0  0  0  0  0  0  0  0  0
   -3.3130   18.6660  -34.2020 C   0  0  0  0  0  0  0  0  0  0  0  0
   -4.2290   17.6270  -34.3500 C   0  0  0  0  0  0  0  0  0  0  0  0
   -5.5470   17.7840  -33.8960 C   0  0  0  0  0  0  0  0  0  0  0  0
   -6.5280   16.6600  -34.0970 C   0  0  0  0  0  0  0  0  0  0  0  0
   -5.9170   18.9880  -33.2520 C   0  0  0  0  0  0  0  0  0  0  0  0
   -7.3540   19.2540  -32.8110 C   0  0  0  0  0  0  0  0  0  0  0  0
   -7.4490   20.2150  -31.6120 C   0  0  0  0  0  0  0  0  0  0  0  0
   -6.5890   21.3800  -31.8190 N   0  0  0  0  0  0  0  0  0  0  0  0
   -9.5280   22.4460  -30.8750 H   0  0  0  0  0  0  0  0  0  0  0  0
  -10.0415   23.1842  -32.4301 H   0  0  0  0  0  0  0  0  0  0  0  0
   -9.0885   21.6615  -32.4301 H   0  0  0  0  0  0  0  0  0  0  0  0
   -7.6949   23.6325  -33.0189 H   0  0  0  0  0  0  0  0  0  0  0  0
   -8.1311   24.3560  -31.3890 H   0  0  0  0  0  0  0  0  0  0  0  0
   -7.4154   23.5443  -29.4117 H   0  0  0  0  0  0  0  0  0  0  0  0
   -6.9866   21.7502  -29.4267 H   0  0  0  0  0  0  0  0  0  0  0  0
   -5.4611   23.0304  -27.9965 H   0  0  0  0  0  0  0  0  0  0  0  0
   -4.6282   22.2881  -29.4043 H   0  0  0  0  0  0  0  0  0  0  0  0
   -4.9986   24.0458  -29.4043 H   0  0  0  0  0  0  0  0  0  0  0  0
   -2.9750   20.5930  -33.5240 H   0  0  0  0  0  0  0  0  0  0  0  0
   -2.2814   18.5410  -34.5628 H   0  0  0  0  0  0  0  0  0  0  0  0
   -3.9188   16.6835  -34.8228 H   0  0  0  0  0  0  0  0  0  0  0  0
   -6.8580   16.2819  -33.1182 H   0  0  0  0  0  0  0  0  0  0  0  0
   -7.3981   17.0290  -34.6599 H   0  0  0  0  0  0  0  0  0  0  0  0
   -6.0447   15.8478  -34.6599 H   0  0  0  0  0  0  0  0  0  0  0  0
   -7.9041   19.6932  -33.6563 H   0  0  0  0  0  0  0  0  0  0  0  0
   -7.7840   18.2919  -32.4955 H   0  0  0  0  0  0  0  0  0  0  0  0
   -8.4906   20.5498  -31.4982 H   0  0  0  0  0  0  0  0  0  0  0  0
   -7.1191   19.6862  -30.7056 H   0  0  0  0  0  0  0  0  0  0  0  0
  1  2  1  0
  2  3  1  0
  3  4  1  0
  4  5  1  0
  3  6  1  0
  6  7  2  0
  6  8  1  0
  8  9  2  0
  9 10  1  0
 10 11  2  0
 11 12  1  0
 12 13  2  0
 13 14  1  0
 14 15  1  0
 14 16  2  0
 16 17  1  0
 17 18  1  0
 18 19  1  0
 19  3  1  0
 19  9  1  0
 16 10  1  0
  1 20  1  0
  1 21  1  0
  1 22  1  0
  2 23  1  0
  2 24  1  0
  4 25  1  0
  4 26  1  0
  5 27  1  0
  5 28  1  0
  5 29  1  0
 11 30  1  0
 12 31  1  0
 13 32  1  0
 15 33  1  0
 15 34  1  0
 15 35  1  0
 17 36  1  0
 17 37  1  0
 18 38  1  0
 18 39  1  0
M  CHG  1  11   1
M  END
>  <UniqueID>  (26) 
25

>  <SMILES>  (26) 
CCC1(CC)C(=O)N=C2c3[nH+]ccc(C)c3CCN21

>  <Energy>  (26) 
59.44006229592424

>  <Genealogy>  (26) 
CCC1(CC)C(=O)N=C2c3[nH+]ccc(C)c3CCN21 (protonated)
CCC1(CC)C(=O)N=C2c3[nH+]ccc(C)c3CCN21 (3D coordinates assigned)
CCC1(CC)C(=O)N=C2c3[nH+]ccc(C)c3CCN21 (nonaromatic ring conformer: 59.44006229592424 kcal/mol)

>  <smiles>  (26) 
CCC1(CC)C(=O)N=C2c3nccc(C)c3CCN21

>  <score_type>  (26) 
oracle

>  <origin>  (26) 
adg

>  <m_score__min__energy>  (26) 
-6.9699999999999998

>  <m_primary>  (26) 
energy

$$$$
26:0
     RDKit          3D

 35 38  0  0  0  0  0  0  0  0999 V2000
   -3.8740   25.5810  -30.8500 O   0  0  0  0  0  0  0  0  0  0  0  0
   -4.8580   24.8470  -30.5740 C   0  0  0  0  0  0  0  0  0  0  0  0
   -5.1940   24.5830  -29.1320 C   0  0  0  0  0  0  0  0  0  0  0  0
   -4.8860   22.8360  -28.6980 S   0  0  0  0  0  0  0  0  0  0  0  0
   -3.1730   22.8480  -29.2290 C   0  0  0  0  0  0  0  0  0  0  0  0
   -2.6890   21.8570  -30.0350 N   0  0  0  0  0  0  0  0  0  0  0  0
   -1.3820   21.8510  -30.4510 C   0  0  0  0  0  0  0  0  0  0  0  0
   -0.5270   22.8470  -30.0630 N   0  0  0  0  0  0  0  0  0  0  0  0
   -1.0130   23.8300  -29.2670 C   0  0  0  0  0  0  0  0  0  0  0  0
   -0.3340   24.8800  -28.7880 N   0  0  0  0  0  0  0  0  0  0  0  0
   -1.2890   25.5250  -28.0630 C   0  0  0  0  0  0  0  0  0  0  0  0
   -2.5120   24.9270  -28.0740 N   0  0  0  0  0  0  0  0  0  0  0  0
   -2.2950   23.8550  -28.8500 C   0  0  0  0  0  0  0  0  0  0  0  0
   -5.6550   24.3250  -31.6450 N   0  0  0  0  0  0  0  0  0  0  0  0
   -5.6540   22.9520  -32.0530 C   0  0  0  0  0  0  0  0  0  0  0  0
   -4.4460   22.3780  -32.4650 C   0  0  0  0  0  0  0  0  0  0  0  0
   -4.4000   21.0500  -32.8900 C   0  0  0  0  0  0  0  0  0  0  0  0
   -5.5600   20.2730  -32.8980 C   0  0  0  0  0  0  0  0  0  0  0  0
   -6.7760   20.8180  -32.4620 C   0  0  0  0  0  0  0  0  0  0  0  0
   -7.9390   20.0320  -32.4510 C   0  0  0  0  0  0  0  0  0  0  0  0
   -9.1460   20.5680  -31.9990 C   0  0  0  0  0  0  0  0  0  0  0  0
   -9.2030   21.8890  -31.5510 C   0  0  0  0  0  0  0  0  0  0  0  0
   -8.0550   22.6860  -31.5580 C   0  0  0  0  0  0  0  0  0  0  0  0
   -6.8300   22.1680  -32.0250 C   0  0  0  0  0  0  0  0  0  0  0  0
   -4.5716   25.2274  -28.4937 H   0  0  0  0  0  0  0  0  0  0  0  0
   -6.2608   24.8004  -28.9751 H   0  0  0  0  0  0  0  0  0  0  0  0
   -1.0187   21.0409  -31.1004 H   0  0  0  0  0  0  0  0  0  0  0  0
   -1.0883   26.4556  -27.5120 H   0  0  0  0  0  0  0  0  0  0  0  0
   -3.5248   22.9791  -32.4536 H   0  0  0  0  0  0  0  0  0  0  0  0
   -3.4459   20.6133  -33.2201 H   0  0  0  0  0  0  0  0  0  0  0  0
   -5.5198   19.2307  -33.2472 H   0  0  0  0  0  0  0  0  0  0  0  0
   -7.8990   18.9896  -32.7999 H   0  0  0  0  0  0  0  0  0  0  0  0
  -10.0546   19.9479  -31.9958 H   0  0  0  0  0  0  0  0  0  0  0  0
  -10.1558   22.3044  -31.1909 H   0  0  0  0  0  0  0  0  0  0  0  0
   -8.1077   23.7237  -31.1969 H   0  0  0  0  0  0  0  0  0  0  0  0
  1  2  2  0
  2  3  1  0
  3  4  1  0
  4  5  1  0
  5  6  2  0
  6  7  1  0
  7  8  2  0
  8  9  1  0
  9 10  1  0
 10 11  2  0
 11 12  1  0
 12 13  1  0
  2 14  1  0
 14 15  1  0
 15 16  2  0
 16 17  1  0
 17 18  2  0
 18 19  1  0
 19 20  2  0
 20 21  1  0
 21 22  2  0
 22 23  1  0
 23 24  2  0
 13  5  1  0
 24 15  1  0
 13  9  2  0
 24 19  1  0
  3 25  1  0
  3 26  1  0
  7 27  1  0
 11 28  1  0
 16 29  1  0
 17 30  1  0
 18 31  1  0
 20 32  1  0
 21 33  1  0
 22 34  1  0
 23 35  1  0
M  CHG  2  12  -1  14  -1
M  END
>  <UniqueID>  (27) 
26

>  <SMILES>  (27) 
O=C(CSc1ncnc2nc[n-]c12)[N-]c1cccc2ccccc12

>  <Energy>  (27) 
84.37383312938387

>  <Genealogy>  (27) 
O=C(CSc1ncnc2nc[n-]c12)[N-]c1cccc2ccccc12 (protonated)
O=C(CSc1ncnc2nc[n-]c12)[N-]c1cccc2ccccc12 (3D coordinates assigned)
O=C(CSc1ncnc2nc[n-]c12)[N-]c1cccc2ccccc12 (optimized conformer: 84.37383312938387 kcal/mol)

>  <smiles>  (27) 
O=C(CSc1ncnc2nc[nH]c12)Nc1cccc2ccccc12

>  <score_type>  (27) 
oracle

>  <origin>  (27) 
adg

>  <m_score__min__energy>  (27) 
-10.529999999999999

>  <m_primary>  (27) 
energy

$$$$
27:0
     RDKit          3D

 26 26  0  0  0  0  0  0  0  0999 V2000
   -9.6040   21.5170  -31.3210 C   0  0  0  0  0  0  0  0  0  0  0  0
   -8.2730   21.1400  -31.9160 C   0  0  0  0  0  0  0  0  0  0  0  0
   -8.1850   19.9920  -32.7240 C   0  0  0  0  0  0  0  0  0  0  0  0
   -6.9670   19.6150  -33.2910 C   0  0  0  0  0  0  0  0  0  0  0  0
   -5.8220   20.3750  -33.0610 C   0  0  0  0  0  0  0  0  0  0  0  0
   -4.6390   20.0000  -33.6060 F   0  0  0  0  0  0  0  0  0  0  0  0
   -5.8920   21.5240  -32.2710 C   0  0  0  0  0  0  0  0  0  0  0  0
   -7.1140   21.9310  -31.7060 C   0  0  0  0  0  0  0  0  0  0  0  0
   -7.1400   23.1680  -30.8360 C   0  0  0  0  0  0  0  0  0  0  0  0
   -6.0170   24.0500  -31.1590 N   0  0  0  0  0  0  0  0  0  0  0  0
   -5.4280   24.9650  -30.2170 C   0  0  0  0  0  0  0  0  0  0  0  0
   -4.3140   25.7640  -30.6290 N   0  0  0  0  0  0  0  0  0  0  0  0
   -5.8880   25.0820  -29.0060 N   0  0  0  0  0  0  0  0  0  0  0  0
   -9.5338   21.4971  -30.2234 H   0  0  0  0  0  0  0  0  0  0  0  0
   -9.8804   22.5288  -31.6525 H   0  0  0  0  0  0  0  0  0  0  0  0
  -10.3700   20.8005  -31.6525 H   0  0  0  0  0  0  0  0  0  0  0  0
   -9.0840   19.3862  -32.9105 H   0  0  0  0  0  0  0  0  0  0  0  0
   -6.9106   18.7153  -33.9213 H   0  0  0  0  0  0  0  0  0  0  0  0
   -4.9832   22.1163  -32.0888 H   0  0  0  0  0  0  0  0  0  0  0  0
   -8.0835   23.7080  -31.0039 H   0  0  0  0  0  0  0  0  0  0  0  0
   -7.0584   22.8619  -29.7826 H   0  0  0  0  0  0  0  0  0  0  0  0
   -5.6070   24.0170  -32.1200 H   0  0  0  0  0  0  0  0  0  0  0  0
   -3.8650   26.4390  -29.9720 H   0  0  0  0  0  0  0  0  0  0  0  0
   -3.9340   25.6820  -31.5970 H   0  0  0  0  0  0  0  0  0  0  0  0
   -6.1400   24.2340  -28.4500 H   0  0  0  0  0  0  0  0  0  0  0  0
   -6.0220   26.0080  -28.5460 H   0  0  0  0  0  0  0  0  0  0  0  0
  1  2  1  0
  2  3  2  0
  3  4  1  0
  4  5  2  0
  5  6  1  0
  5  7  1  0
  7  8  2  0
  8  9  1  0
  9 10  1  0
 10 11  1  0
 11 12  1  0
 11 13  2  0
  8  2  1  0
  1 14  1  0
  1 15  1  0
  1 16  1  0
  3 17  1  0
  4 18  1  0
  7 19  1  0
  9 20  1  0
  9 21  1  0
 10 22  1  0
 12 23  1  0
 12 24  1  0
 13 25  1  0
 13 26  1  0
M  CHG  1  13   1
M  END
>  <UniqueID>  (28) 
27

>  <SMILES>  (28) 
Cc1ccc(F)cc1CNC(N)=[NH2+]

>  <Energy>  (28) 
21.59350186157165

>  <Genealogy>  (28) 
Cc1ccc(F)cc1CNC(N)=[NH2+] (protonated)
Cc1ccc(F)cc1CNC(N)=[NH2+] (3D coordinates assigned)
Cc1ccc(F)cc1CNC(N)=[NH2+] (optimized conformer: 21.59350186157165 kcal/mol)

>  <smiles>  (28) 
Cc1ccc(F)cc1CNC(=N)N

>  <score_type>  (28) 
oracle

>  <origin>  (28) 
adg

>  <m_score__min__energy>  (28) 
-5.8600000000000003

>  <m_primary>  (28) 
energy

$$$$
28:0
     RDKit          3D

 46 48  0  0  0  0  0  0  0  0999 V2000
   -6.4330   25.5760  -30.3330 O   0  0  0  0  0  0  0  0  0  0  0  0
   -5.8690   24.6380  -30.9610 C   0  0  0  0  0  0  0  0  0  0  0  0
   -6.6640   23.8140  -31.9270 C   0  0  0  0  0  0  0  0  0  0  0  0
   -6.8080   22.4260  -31.4410 N   0  0  0  0  0  0  0  0  0  0  0  0
   -5.6430   21.5900  -31.8310 C   0  0  0  0  0  0  0  0  0  0  0  0
   -5.9170   20.7670  -33.1020 C   0  0  0  0  0  0  0  0  0  0  0  0
   -7.0900   19.8670  -32.9550 N   0  0  0  0  0  0  0  0  0  0  0  0
   -6.5830   18.2250  -32.6350 S   0  0  0  0  0  0  0  0  0  0  0  0
   -7.6600   17.2610  -33.0510 O   0  0  0  0  0  0  0  0  0  0  0  0
   -6.3370   18.0530  -31.1620 O   0  0  0  0  0  0  0  0  0  0  0  0
   -5.0820   17.8790  -33.5000 C   0  0  0  0  0  0  0  0  0  0  0  0
   -5.1100   17.0110  -34.6010 C   0  0  0  0  0  0  0  0  0  0  0  0
   -3.9330   16.7060  -35.2900 C   0  0  0  0  0  0  0  0  0  0  0  0
   -2.7190   17.2630  -34.8810 C   0  0  0  0  0  0  0  0  0  0  0  0
   -2.6800   18.1220  -33.7800 C   0  0  0  0  0  0  0  0  0  0  0  0
   -3.8550   18.4300  -33.0850 C   0  0  0  0  0  0  0  0  0  0  0  0
   -3.7860   19.2540  -32.0100 F   0  0  0  0  0  0  0  0  0  0  0  0
   -8.0470   20.3100  -31.9150 C   0  0  0  0  0  0  0  0  0  0  0  0
   -8.1120   21.8400  -31.8460 C   0  0  0  0  0  0  0  0  0  0  0  0
   -4.4890   24.4220  -30.8490 O   0  0  0  0  0  0  0  0  0  0  0  0
   -3.8800   23.4950  -29.9910 C   0  0  0  0  0  0  0  0  0  0  0  0
   -4.3150   23.2960  -28.6670 C   0  0  0  0  0  0  0  0  0  0  0  0
   -3.6840   22.3490  -27.8540 C   0  0  0  0  0  0  0  0  0  0  0  0
   -2.6230   21.5890  -28.3550 C   0  0  0  0  0  0  0  0  0  0  0  0
   -1.7650   20.2940  -27.2430 Br  0  0  0  0  0  0  0  0  0  0  0  0
   -2.1970   21.7710  -29.6740 C   0  0  0  0  0  0  0  0  0  0  0  0
   -2.8290   22.7150  -30.4890 C   0  0  0  0  0  0  0  0  0  0  0  0
   -7.6626   24.2601  -32.0444 H   0  0  0  0  0  0  0  0  0  0  0  0
   -6.1359   23.7959  -32.8918 H   0  0  0  0  0  0  0  0  0  0  0  0
   -4.7805   22.2478  -32.0141 H   0  0  0  0  0  0  0  0  0  0  0  0
   -5.4428   20.8861  -31.0098 H   0  0  0  0  0  0  0  0  0  0  0  0
   -6.1054   21.4586  -33.9364 H   0  0  0  0  0  0  0  0  0  0  0  0
   -5.0344   20.1379  -33.2897 H   0  0  0  0  0  0  0  0  0  0  0  0
   -7.5970   19.8470  -33.8720 H   0  0  0  0  0  0  0  0  0  0  0  0
   -6.0635   16.5678  -34.9241 H   0  0  0  0  0  0  0  0  0  0  0  0
   -3.9626   16.0269  -36.1549 H   0  0  0  0  0  0  0  0  0  0  0  0
   -1.7936   17.0252  -35.4260 H   0  0  0  0  0  0  0  0  0  0  0  0
   -1.7226   18.5577  -33.4583 H   0  0  0  0  0  0  0  0  0  0  0  0
   -9.0463   19.9177  -32.1548 H   0  0  0  0  0  0  0  0  0  0  0  0
   -7.7077   19.9288  -30.9405 H   0  0  0  0  0  0  0  0  0  0  0  0
   -8.3863   22.2305  -32.8371 H   0  0  0  0  0  0  0  0  0  0  0  0
   -8.8629   22.1184  -31.0920 H   0  0  0  0  0  0  0  0  0  0  0  0
   -5.1537   23.8871  -28.2707 H   0  0  0  0  0  0  0  0  0  0  0  0
   -4.0233   22.2018  -26.8180 H   0  0  0  0  0  0  0  0  0  0  0  0
   -1.3645   21.1714  -30.0707 H   0  0  0  0  0  0  0  0  0  0  0  0
   -2.4980   22.8461  -31.5298 H   0  0  0  0  0  0  0  0  0  0  0  0
  1  2  2  0
  2  3  1  0
  3  4  1  0
  4  5  1  0
  5  6  1  0
  6  7  1  0
  7  8  1  0
  8  9  2  0
  8 10  2  0
  8 11  1  0
 11 12  2  0
 12 13  1  0
 13 14  2  0
 14 15  1  0
 15 16  2  0
 16 17  1  0
  7 18  1  0
 18 19  1  0
  2 20  1  0
 20 21  1  0
 21 22  2  0
 22 23  1  0
 23 24  2  0
 24 25  1  0
 24 26  1  0
 26 27  2  0
 19  4  1  0
 27 21  1  0
 16 11  1  0
  3 28  1  0
  3 29  1  0
  5 30  1  0
  5 31  1  0
  6 32  1  0
  6 33  1  0
  7 34  1  0
 12 35  1  0
 13 36  1  0
 14 37  1  0
 15 38  1  0
 18 39  1  0
 18 40  1  0
 19 41  1  0
 19 42  1  0
 22 43  1  0
 23 44  1  0
 26 45  1  0
 27 46  1  0
M  CHG  1   7   1
M  END
>  <UniqueID>  (29) 
28

>  <SMILES>  (29) 
O=C(CN1CC[NH+](S(=O)(=O)c2ccccc2F)CC1)Oc1ccc(Br)cc1

>  <Energy>  (29) 
62.97042644628304

>  <Genealogy>  (29) 
O=C(CN1CC[NH+](S(=O)(=O)c2ccccc2F)CC1)Oc1ccc(Br)cc1 (protonated)
O=C(CN1CC[NH+](S(=O)(=O)c2ccccc2F)CC1)Oc1ccc(Br)cc1 (3D coordinates assigned)
O=C(CN1CC[NH+](S(=O)(=O)c2ccccc2F)CC1)Oc1ccc(Br)cc1 (nonaromatic ring conformer: 62.97042644628304 kcal/mol)

>  <smiles>  (29) 
O=C(CN1CCN(S(=O)(=O)c2ccccc2F)CC1)Oc1ccc(Br)cc1

>  <score_type>  (29) 
oracle

>  <origin>  (29) 
adg

>  <m_score__min__energy>  (29) 
-8.9499999999999993

>  <m_primary>  (29) 
energy

$$$$
29:0
     RDKit          3D

 39 41  0  0  0  0  0  0  0  0999 V2000
    1.3520   24.5970  -26.8230 C   0  0  0  0  0  0  0  0  0  0  0  0
    0.7460   24.5510  -28.1090 O   0  0  0  0  0  0  0  0  0  0  0  0
   -0.5720   24.9580  -28.3400 C   0  0  0  0  0  0  0  0  0  0  0  0
   -0.8220   26.1680  -28.5980 O   0  0  0  0  0  0  0  0  0  0  0  0
   -1.6720   23.9680  -28.2790 C   0  0  0  0  0  0  0  0  0  0  0  0
   -1.4170   22.6540  -27.8560 C   0  0  0  0  0  0  0  0  0  0  0  0
   -2.4510   21.7170  -27.8020 C   0  0  0  0  0  0  0  0  0  0  0  0
   -3.7490   22.0790  -28.1650 C   0  0  0  0  0  0  0  0  0  0  0  0
   -4.0290   23.3920  -28.5870 C   0  0  0  0  0  0  0  0  0  0  0  0
   -5.3530   23.7990  -28.9810 N   0  0  0  0  0  0  0  0  0  0  0  0
   -5.8130   24.1630  -30.6160 S   0  0  0  0  0  0  0  0  0  0  0  0
   -4.7930   25.1010  -31.1980 O   0  0  0  0  0  0  0  0  0  0  0  0
   -7.1520   24.8470  -30.5990 O   0  0  0  0  0  0  0  0  0  0  0  0
   -5.8760   22.6950  -31.6110 C   0  0  0  0  0  0  0  0  0  0  0  0
   -4.7070   22.2840  -32.2710 C   0  0  0  0  0  0  0  0  0  0  0  0
   -4.6900   21.1240  -33.0430 C   0  0  0  0  0  0  0  0  0  0  0  0
   -5.8420   20.3540  -33.1790 C   0  0  0  0  0  0  0  0  0  0  0  0
   -7.0310   20.7450  -32.5500 C   0  0  0  0  0  0  0  0  0  0  0  0
   -8.1910   19.9700  -32.7050 C   0  0  0  0  0  0  0  0  0  0  0  0
   -9.3830   20.3580  -32.0950 C   0  0  0  0  0  0  0  0  0  0  0  0
   -9.4310   21.5220  -31.3300 C   0  0  0  0  0  0  0  0  0  0  0  0
   -8.2870   22.3050  -31.1640 C   0  0  0  0  0  0  0  0  0  0  0  0
   -7.0640   21.9290  -31.7620 C   0  0  0  0  0  0  0  0  0  0  0  0
   -2.9820   24.3260  -28.6450 C   0  0  0  0  0  0  0  0  0  0  0  0
    0.5732   24.5379  -26.0484 H   0  0  0  0  0  0  0  0  0  0  0  0
    2.0437   23.7488  -26.7130 H   0  0  0  0  0  0  0  0  0  0  0  0
    1.9077   25.5399  -26.7130 H   0  0  0  0  0  0  0  0  0  0  0  0
   -0.3973   22.3609  -27.5655 H   0  0  0  0  0  0  0  0  0  0  0  0
   -2.2414   20.6889  -27.4718 H   0  0  0  0  0  0  0  0  0  0  0  0
   -4.5573   21.3342  -28.1210 H   0  0  0  0  0  0  0  0  0  0  0  0
   -6.1100   23.8270  -28.2620 H   0  0  0  0  0  0  0  0  0  0  0  0
   -3.7913   22.8863  -32.1774 H   0  0  0  0  0  0  0  0  0  0  0  0
   -3.7624   20.8153  -33.5472 H   0  0  0  0  0  0  0  0  0  0  0  0
   -5.8184   19.4349  -33.7828 H   0  0  0  0  0  0  0  0  0  0  0  0
   -8.1594   19.0523  -33.3106 H   0  0  0  0  0  0  0  0  0  0  0  0
  -10.2875   19.7442  -32.2177 H   0  0  0  0  0  0  0  0  0  0  0  0
  -10.3753   21.8255  -30.8544 H   0  0  0  0  0  0  0  0  0  0  0  0
   -8.3387   23.2239  -30.5615 H   0  0  0  0  0  0  0  0  0  0  0  0
   -3.1894   25.3525  -28.9816 H   0  0  0  0  0  0  0  0  0  0  0  0
  1  2  1  0
  2  3  1  0
  3  4  2  0
  3  5  1  0
  5  6  2  0
  6  7  1  0
  7  8  2  0
  8  9  1  0
  9 10  1  0
 10 11  1  0
 11 12  2  0
 11 13  2  0
 11 14  1  0
 14 15  2  0
 15 16  1  0
 16 17  2  0
 17 18  1  0
 18 19  2  0
 19 20  1  0
 20 21  2  0
 21 22  1  0
 22 23  2  0
  9 24  2  0
 24  5  1  0
 23 14  1  0
 23 18  1  0
  1 25  1  0
  1 26  1  0
  1 27  1  0
  6 28  1  0
  7 29  1  0
  8 30  1  0
 10 31  1  0
 15 32  1  0
 16 33  1  0
 17 34  1  0
 19 35  1  0
 20 36  1  0
 21 37  1  0
 22 38  1  0
 24 39  1  0
M  END
>  <UniqueID>  (30) 
29

>  <SMILES>  (30) 
COC(=O)c1cccc(NS(=O)(=O)c2cccc3ccccc23)c1

>  <Energy>  (30) 
49.2829653210551

>  <Genealogy>  (30) 
COC(=O)c1cccc(NS(=O)(=O)c2cccc3ccccc23)c1 (3D coordinates assigned)
COC(=O)c1cccc(NS(=O)(=O)c2cccc3ccccc23)c1 (optimized conformer: 49.2829653210551 kcal/mol)

>  <smiles>  (30) 
COC(=O)c1cccc(NS(=O)(=O)c2cccc3ccccc23)c1

>  <score_type>  (30) 
oracle

>  <origin>  (30) 
adg

>  <m_score__min__energy>  (30) 
-9.9900000000000002

>  <m_primary>  (30) 
energy

$$$$
30:0
     RDKit          3D

 49 52  0  0  0  0  0  0  0  0999 V2000
   -1.1100   26.1150  -27.3780 C   0  0  0  0  0  0  0  0  0  0  0  0
   -1.4840   25.6770  -28.6800 O   0  0  0  0  0  0  0  0  0  0  0  0
   -2.0050   24.4060  -28.9690 C   0  0  0  0  0  0  0  0  0  0  0  0
   -1.2560   23.5510  -29.7870 C   0  0  0  0  0  0  0  0  0  0  0  0
   -1.7310   22.2760  -30.1030 C   0  0  0  0  0  0  0  0  0  0  0  0
   -2.9620   21.8320  -29.5940 C   0  0  0  0  0  0  0  0  0  0  0  0
   -3.4900   20.4770  -29.9680 C   0  0  0  0  0  0  0  0  0  0  0  0
   -2.9730   20.1000  -31.2860 N   0  0  0  0  0  0  0  0  0  0  0  0
   -3.7740   21.0200  -32.5260 S   0  0  0  0  0  0  0  0  0  0  0  0
   -2.8690   22.1360  -32.9670 O   0  0  0  0  0  0  0  0  0  0  0  0
   -4.0610   20.1160  -33.6910 O   0  0  0  0  0  0  0  0  0  0  0  0
   -5.2920   21.6790  -31.9050 C   0  0  0  0  0  0  0  0  0  0  0  0
   -5.2850   22.9410  -31.2780 C   0  0  0  0  0  0  0  0  0  0  0  0
   -6.4880   23.5620  -30.9000 C   0  0  0  0  0  0  0  0  0  0  0  0
   -6.4530   25.2860  -30.0800 Br  0  0  0  0  0  0  0  0  0  0  0  0
   -7.7130   22.9300  -31.1470 C   0  0  0  0  0  0  0  0  0  0  0  0
   -7.7060   21.6700  -31.7440 C   0  0  0  0  0  0  0  0  0  0  0  0
   -6.5380   21.0370  -32.0830 C   0  0  0  0  0  0  0  0  0  0  0  0
   -6.7920   19.7480  -32.6370 N   0  0  0  0  0  0  0  0  0  0  0  0
   -5.9620   18.6080  -32.3660 C   0  0  0  0  0  0  0  0  0  0  0  0
   -5.6850   18.3180  -31.1720 O   0  0  0  0  0  0  0  0  0  0  0  0
   -5.4160   17.7360  -33.4650 C   0  0  0  0  0  0  0  0  0  0  0  0
   -6.4730   16.9170  -34.1910 C   0  0  0  0  0  0  0  0  0  0  0  0
   -5.7880   18.0740  -34.9030 C   0  0  0  0  0  0  0  0  0  0  0  0
   -8.2500   19.5830  -32.7250 C   0  0  0  0  0  0  0  0  0  0  0  0
   -8.8820   20.8400  -32.0970 C   0  0  0  0  0  0  0  0  0  0  0  0
   -3.7220   22.6920  -28.7880 C   0  0  0  0  0  0  0  0  0  0  0  0
   -3.2460   23.9680  -28.4710 C   0  0  0  0  0  0  0  0  0  0  0  0
   -1.6296   25.5065  -26.6231 H   0  0  0  0  0  0  0  0  0  0  0  0
   -0.0227   26.0052  -27.2525 H   0  0  0  0  0  0  0  0  0  0  0  0
   -1.3888   27.1717  -27.2525 H   0  0  0  0  0  0  0  0  0  0  0  0
   -0.2863   23.8860  -30.1837 H   0  0  0  0  0  0  0  0  0  0  0  0
   -1.1379   21.6166  -30.7537 H   0  0  0  0  0  0  0  0  0  0  0  0
   -3.1652   19.7376  -29.2211 H   0  0  0  0  0  0  0  0  0  0  0  0
   -4.5892   20.5068  -29.9993 H   0  0  0  0  0  0  0  0  0  0  0  0
   -1.9580   20.3540  -31.3220 H   0  0  0  0  0  0  0  0  0  0  0  0
   -4.3274   23.4457  -31.0822 H   0  0  0  0  0  0  0  0  0  0  0  0
   -8.6610   23.4175  -30.8757 H   0  0  0  0  0  0  0  0  0  0  0  0
   -4.4596   17.5428  -32.9571 H   0  0  0  0  0  0  0  0  0  0  0  0
   -6.2559   15.8811  -34.4907 H   0  0  0  0  0  0  0  0  0  0  0  0
   -7.5174   16.6392  -33.9862 H   0  0  0  0  0  0  0  0  0  0  0  0
   -5.0754   17.8746  -35.7169 H   0  0  0  0  0  0  0  0  0  0  0  0
   -6.1316   18.9789  -35.4256 H   0  0  0  0  0  0  0  0  0  0  0  0
   -8.5573   19.4906  -33.7772 H   0  0  0  0  0  0  0  0  0  0  0  0
   -8.5756   18.6739  -32.1983 H   0  0  0  0  0  0  0  0  0  0  0  0
   -9.5287   21.3593  -32.8195 H   0  0  0  0  0  0  0  0  0  0  0  0
   -9.5253   20.6141  -31.2338 H   0  0  0  0  0  0  0  0  0  0  0  0
   -4.6978   22.3610  -28.4031 H   0  0  0  0  0  0  0  0  0  0  0  0
   -3.8441   24.6321  -27.8297 H   0  0  0  0  0  0  0  0  0  0  0  0
  1  2  1  0
  2  3  1  0
  3  4  2  0
  4  5  1  0
  5  6  2  0
  6  7  1  0
  7  8  1  0
  8  9  1  0
  9 10  2  0
  9 11  2  0
  9 12  1  0
 12 13  2  0
 13 14  1  0
 14 15  1  0
 14 16  2  0
 16 17  1  0
 17 18  2  0
 18 19  1  0
 19 20  1  0
 20 21  2  0
 20 22  1  0
 22 23  1  0
 23 24  1  0
 19 25  1  0
 25 26  1  0
  6 27  1  0
 27 28  2  0
 28  3  1  0
 18 12  1  0
 24 22  1  0
 26 17  1  0
  1 29  1  0
  1 30  1  0
  1 31  1  0
  4 32  1  0
  5 33  1  0
  7 34  1  0
  7 35  1  0
  8 36  1  0
 13 37  1  0
 16 38  1  0
 22 39  1  0
 23 40  1  0
 23 41  1  0
 24 42  1  0
 24 43  1  0
 25 44  1  0
 25 45  1  0
 26 46  1  0
 26 47  1  0
 27 48  1  0
 28 49  1  0
M  END
>  <UniqueID>  (31) 
30

>  <SMILES>  (31) 
COc1ccc(CNS(=O)(=O)c2cc(Br)cc3c2N(C(=O)C2CC2)CC3)cc1

>  <Energy>  (31) 
335.6149325097262

>  <Genealogy>  (31) 
COc1ccc(CNS(=O)(=O)c2cc(Br)cc3c2N(C(=O)C2CC2)CC3)cc1 (3D coordinates assigned)
COc1ccc(CNS(=O)(=O)c2cc(Br)cc3c2N(C(=O)C2CC2)CC3)cc1 (nonaromatic ring conformer: 335.6149325097262 kcal/mol)

>  <smiles>  (31) 
COc1ccc(CNS(=O)(=O)c2cc(Br)cc3c2N(C(=O)C2CC2)CC3)cc1

>  <score_type>  (31) 
oracle

>  <origin>  (31) 
adg

>  <m_score__min__energy>  (31) 
-9.2200000000000006

>  <m_primary>  (31) 
energy

$$$$
31:0
     RDKit          3D

 33 35  0  0  0  0  0  0  0  0999 V2000
   -0.0931   23.8233  -27.2180 H   0  0  0  0  0  0  0  0  0  0  0  0
   -1.0450   23.9390  -27.7570 C   0  0  0  0  0  0  0  0  0  0  0  0
   -2.5840   23.7960  -27.0870 S   0  0  0  0  0  0  0  0  0  0  0  0
   -3.3630   24.1090  -28.5510 C   0  0  0  0  0  0  0  0  0  0  0  0
   -4.6460   24.1440  -28.7430 N   0  0  0  0  0  0  0  0  0  0  0  0
   -5.4020   24.7370  -30.1880 S   0  0  0  0  0  0  0  0  0  0  0  0
   -4.4050   25.5420  -30.9700 O   0  0  0  0  0  0  0  0  0  0  0  0
   -6.5580   25.6220  -29.8090 O   0  0  0  0  0  0  0  0  0  0  0  0
   -5.9530   23.3900  -31.1790 C   0  0  0  0  0  0  0  0  0  0  0  0
   -7.3010   23.2910  -31.5580 C   0  0  0  0  0  0  0  0  0  0  0  0
   -8.0176   24.0630  -31.2408 H   0  0  0  0  0  0  0  0  0  0  0  0
   -7.7360   22.2150  -32.3370 C   0  0  0  0  0  0  0  0  0  0  0  0
   -8.7937   22.1390  -32.6292 H   0  0  0  0  0  0  0  0  0  0  0  0
   -6.8240   21.2340  -32.7450 C   0  0  0  0  0  0  0  0  0  0  0  0
   -5.4800   21.3210  -32.3540 C   0  0  0  0  0  0  0  0  0  0  0  0
   -5.0430   22.4050  -31.5890 C   0  0  0  0  0  0  0  0  0  0  0  0
   -3.9827   22.4861  -31.3076 H   0  0  0  0  0  0  0  0  0  0  0  0
   -4.5840   20.3160  -32.7360 O   0  0  0  0  0  0  0  0  0  0  0  0
   -5.0290   19.0660  -33.2760 C   0  0  1  0  0  0  0  0  0  0  0  0
   -4.2214   18.6177  -33.8733 H   0  0  0  0  0  0  0  0  0  0  0  0
   -5.3750   18.1060  -32.1350 C   0  0  0  0  0  0  0  0  0  0  0  0
   -5.1958   18.6033  -31.1703 H   0  0  0  0  0  0  0  0  0  0  0  0
   -6.4339   17.8170  -32.2074 H   0  0  0  0  0  0  0  0  0  0  0  0
   -4.7440   17.2079  -32.2074 H   0  0  0  0  0  0  0  0  0  0  0  0
   -6.2360   19.2850  -34.2110 C   0  0  0  0  0  0  0  0  0  0  0  0
   -5.8931   19.7695  -35.1371 H   0  0  0  0  0  0  0  0  0  0  0  0
   -6.6907   18.3096  -34.4388 H   0  0  0  0  0  0  0  0  0  0  0  0
   -7.2370   20.1340  -33.5660 N   0  0  0  0  0  0  0  0  0  0  0  0
   -8.2490   19.9860  -33.7800 H   0  0  0  0  0  0  0  0  0  0  0  0
   -2.4720   24.3210  -29.5420 N   0  0  0  0  0  0  0  0  0  0  0  0
   -2.7360   24.5310  -30.5310 H   0  0  0  0  0  0  0  0  0  0  0  0
   -1.1870   24.2290  -29.1110 C   0  0  0  0  0  0  0  0  0  0  0  0
   -0.3257   24.3725  -29.7800 H   0  0  0  0  0  0  0  0  0  0  0  0
  1  2  1  0
  2  3  1  0
  3  4  1  0
  4  5  2  0
  5  6  1  0
  6  7  2  0
  6  8  2  0
  6  9  1  0
  9 10  2  0
 10 11  1  0
 10 12  1  0
 12 13  1  0
 12 14  2  0
 14 15  1  0
 15 16  2  0
 16 17  1  0
 15 18  1  0
 18 19  1  0
 19 20  1  6
 19 21  1  0
 21 22  1  0
 21 23  1  0
 21 24  1  0
 19 25  1  0
 25 26  1  0
 25 27  1  0
 25 28  1  0
 28 29  1  0
  4 30  1  0
 30 31  1  0
 30 32  1  0
 32 33  1  0
 32  2  2  0
 16  9  1  0
 28 14  1  0
M  END
>  <UniqueID>  (32) 
31

>  <SMILES>  (32) 
C[C@H]1CNc2ccc(S(=O)(=O)/N=c3/[nH]ccs3)cc2O1

>  <Energy>  (32) 
65.79225529507939

>  <Genealogy>  (32) 
C[C@H]1CNc2ccc(S(=O)(=O)N=c3[nH]ccs3)cc2O1 (chirality)
C[C@H]1CNc2ccc(S(=O)(=O)/N=c3/[nH]ccs3)cc2O1 (cis-trans isomerization)
C[C@H]1CNc2ccc(S(=O)(=O)/N=c3/[nH]ccs3)cc2O1 (3D coordinates assigned)
C[C@H]1CNc2ccc(S(=O)(=O)/N=c3/[nH]ccs3)cc2O1 (nonaromatic ring conformer: 65.79225529507939 kcal/mol)

>  <smiles>  (32) 
CC1CNc2ccc(S(=O)(=O)N=c3[nH]ccs3)cc2O1

>  <score_type>  (32) 
oracle

>  <origin>  (32) 
adg

>  <m_score__min__energy>  (32) 
-8.1400000000000006

>  <m_primary>  (32) 
energy

$$$$
32:0
     RDKit          3D

 44 46  0  0  0  0  0  0  0  0999 V2000
   -0.8816   20.2250  -33.7654 H   0  0  0  0  0  0  0  0  0  0  0  0
   -1.8790   20.2720  -33.3040 C   0  0  0  0  0  0  0  0  0  0  0  0
   -2.0700   21.0000  -32.1740 N   0  0  0  0  0  0  0  0  0  0  0  0
   -3.2950   21.0730  -31.5860 C   0  0  0  0  0  0  0  0  0  0  0  0
   -3.4870   21.7690  -30.5050 N   0  0  0  0  0  0  0  0  0  0  0  0
   -3.9150   23.1380  -30.4320 C   0  0  0  0  0  0  0  0  0  0  0  0
   -3.1240   24.2110  -30.6280 N   0  0  0  0  0  0  0  0  0  0  0  0
   -3.8560   25.3020  -30.4510 N   0  0  0  0  0  0  0  0  0  0  0  0
   -5.1140   24.9260  -30.1410 C   0  0  0  0  0  0  0  0  0  0  0  0
   -6.2240   25.8850  -29.8560 C   0  0  0  0  0  0  0  0  0  0  0  0
   -6.3467   25.9910  -28.7680 H   0  0  0  0  0  0  0  0  0  0  0  0
   -5.9840   26.8646  -30.2951 H   0  0  0  0  0  0  0  0  0  0  0  0
   -7.1584   25.5053  -30.2951 H   0  0  0  0  0  0  0  0  0  0  0  0
   -5.1960   23.5470  -30.1320 C   0  0  0  0  0  0  0  0  0  0  0  0
   -6.3710   22.6870  -29.7670 C   0  0  0  0  0  0  0  0  0  0  0  0
   -6.7674   23.0112  -28.7935 H   0  0  0  0  0  0  0  0  0  0  0  0
   -6.0400   21.6393  -29.7141 H   0  0  0  0  0  0  0  0  0  0  0  0
   -7.4690   22.8020  -30.8180 C   0  0  0  0  0  0  0  0  0  0  0  0
   -8.4443   22.9042  -30.3197 H   0  0  0  0  0  0  0  0  0  0  0  0
   -7.2840   23.6857  -31.4464 H   0  0  0  0  0  0  0  0  0  0  0  0
   -7.4711   21.8992  -31.4464 H   0  0  0  0  0  0  0  0  0  0  0  0
   -4.3430   20.4060  -32.1360 N   0  0  0  0  0  0  0  0  0  0  0  0
   -4.2090   19.6590  -33.2680 C   0  0  0  0  0  0  0  0  0  0  0  0
   -5.3640   18.9710  -33.8060 N   0  0  0  0  0  0  0  0  0  0  0  0
   -6.6350   19.1030  -33.1350 C   0  0  0  0  0  0  0  0  0  0  0  0
   -7.1340   18.0480  -32.3510 C   0  0  0  0  0  0  0  0  0  0  0  0
   -6.5511   17.1210  -32.2471 H   0  0  0  0  0  0  0  0  0  0  0  0
   -8.3660   18.1700  -31.7030 C   0  0  0  0  0  0  0  0  0  0  0  0
   -8.7497   17.3390  -31.0929 H   0  0  0  0  0  0  0  0  0  0  0  0
   -9.1110   19.3440  -31.8280 C   0  0  0  0  0  0  0  0  0  0  0  0
  -10.0808   19.4376  -31.3175 H   0  0  0  0  0  0  0  0  0  0  0  0
   -8.6230   20.4010  -32.6030 C   0  0  0  0  0  0  0  0  0  0  0  0
   -9.2087   21.3270  -32.7003 H   0  0  0  0  0  0  0  0  0  0  0  0
   -7.3920   20.2820  -33.2540 C   0  0  0  0  0  0  0  0  0  0  0  0
   -7.0130   21.1158  -33.8632 H   0  0  0  0  0  0  0  0  0  0  0  0
   -5.2630   18.1000  -34.9910 C   0  0  0  0  0  0  0  0  0  0  0  0
   -6.2185   18.1221  -35.5356 H   0  0  0  0  0  0  0  0  0  0  0  0
   -4.4462   18.4701  -35.6281 H   0  0  0  0  0  0  0  0  0  0  0  0
   -4.9510   16.6610  -34.5900 C   0  0  0  0  0  0  0  0  0  0  0  0
   -4.9338   16.5816  -33.4930 H   0  0  0  0  0  0  0  0  0  0  0  0
   -5.7249   15.9918  -34.9940 H   0  0  0  0  0  0  0  0  0  0  0  0
   -3.9694   16.3724  -34.9940 H   0  0  0  0  0  0  0  0  0  0  0  0
   -2.9460   19.5840  -33.8800 C   0  0  0  0  0  0  0  0  0  0  0  0
   -2.8020   18.9933  -34.7967 H   0  0  0  0  0  0  0  0  0  0  0  0
  1  2  1  0
  2  3  1  0
  3  4  1  0
  4  5  2  0
  5  6  1  0
  6  7  2  0
  7  8  1  0
  8  9  1  0
  9 10  1  0
 10 11  1  0
 10 12  1  0
 10 13  1  0
  9 14  2  0
 14 15  1  0
 15 16  1  0
 15 17  1  0
 15 18  1  0
 18 19  1  0
 18 20  1  0
 18 21  1  0
  4 22  1  0
 22 23  2  0
 23 24  1  0
 24 25  1  0
 25 26  2  0
 26 27  1  0
 26 28  1  0
 28 29  1  0
 28 30  2  0
 30 31  1  0
 30 32  1  0
 32 33  1  0
 32 34  2  0
 34 35  1  0
 24 36  1  0
 36 37  1  0
 36 38  1  0
 36 39  1  0
 39 40  1  0
 39 41  1  0
 39 42  1  0
 23 43  1  0
 43 44  1  0
 43  2  2  0
 14  6  1  0
 34 25  1  0
M  CHG  2   3  -1   8  -1
M  END
>  <UniqueID>  (33) 
32

>  <SMILES>  (33) 
CCc1c(/N=c2/nc(N(CC)c3ccccc3)cc[n-]2)n[n-]c1C

>  <Energy>  (33) 
79.90989633377542

>  <Genealogy>  (33) 
CCc1c(N=c2nc(N(CC)c3ccccc3)cc[n-]2)n[n-]c1C (protonated)
CCc1c(/N=c2/nc(N(CC)c3ccccc3)cc[n-]2)n[n-]c1C (cis-trans isomerization)
CCc1c(/N=c2/nc(N(CC)c3ccccc3)cc[n-]2)n[n-]c1C (3D coordinates assigned)
CCc1c(/N=c2/nc(N(CC)c3ccccc3)cc[n-]2)n[n-]c1C (optimized conformer: 79.90989633377542 kcal/mol)

>  <smiles>  (33) 
CCc1c(N=c2nc(N(CC)c3ccccc3)cc[nH]2)n[nH]c1C

>  <score_type>  (33) 
oracle

>  <origin>  (33) 
adg

>  <m_score__min__energy>  (33) 
-10.32

>  <m_primary>  (33) 
energy

$$$$
33:0
     RDKit          3D

 28 30  0  0  1  0  0  0  0  0999 V2000
   -3.3320   24.7510  -30.2170 F   0  0  0  0  0  0  0  0  0  0  0  0
   -4.6300   24.4460  -30.4690 C   0  0  0  0  0  0  0  0  0  0  0  0
   -5.6700   25.1100  -29.8250 C   0  0  0  0  0  0  0  0  0  0  0  0
   -7.0040   24.7920  -30.0880 C   0  0  0  0  0  0  0  0  0  0  0  0
   -7.2330   23.8040  -31.0030 C   0  0  0  0  0  0  0  0  0  0  0  0
   -6.2320   23.1180  -31.6670 C   0  0  0  0  0  0  0  0  0  0  0  0
   -6.6140   22.1110  -32.5970 N   0  0  0  0  0  0  0  0  0  0  0  0
   -7.2950   21.0820  -32.3080 C   0  0  0  0  0  0  0  0  0  0  0  0
   -8.3680   21.1900  -31.5410 N   0  0  0  0  0  0  0  0  0  0  0  0
   -9.1020   20.1060  -31.2260 C   0  0  0  0  0  0  0  0  0  0  0  0
   -8.7440   18.8750  -31.6960 N   0  0  0  0  0  0  0  0  0  0  0  0
   -7.6760   18.7240  -32.4670 C   0  0  0  0  0  0  0  0  0  0  0  0
   -7.2380   17.5240  -32.9870 C   0  0  0  0  0  0  0  0  0  0  0  0
   -6.1190   17.4260  -33.7830 C   0  0  0  0  0  0  0  0  0  0  0  0
   -5.3740   18.5560  -34.0990 C   0  0  0  0  0  0  0  0  0  0  0  0
   -5.8050   19.7620  -33.5820 C   0  0  0  0  0  0  0  0  0  0  0  0
   -6.9350   19.8450  -32.7810 C   0  0  0  0  0  0  0  0  0  0  0  0
   -4.9170   23.4410  -31.3980 C   0  0  0  0  0  0  0  0  0  0  0  0
   -5.4368   25.8997  -29.0956 H   0  0  0  0  0  0  0  0  0  0  0  0
   -7.8309   25.3123  -29.5825 H   0  0  0  0  0  0  0  0  0  0  0  0
   -8.2769   23.5377  -31.2254 H   0  0  0  0  0  0  0  0  0  0  0  0
   -9.9921   20.2124  -30.5885 H   0  0  0  0  0  0  0  0  0  0  0  0
   -9.3030   18.0190  -31.4610 H   0  0  0  0  0  0  0  0  0  0  0  0
   -7.8047   16.6098  -32.7568 H   0  0  0  0  0  0  0  0  0  0  0  0
   -5.8117   16.4443  -34.1725 H   0  0  0  0  0  0  0  0  0  0  0  0
   -4.4784   18.4924  -34.7344 H   0  0  0  0  0  0  0  0  0  0  0  0
   -5.2396   20.6775  -33.8104 H   0  0  0  0  0  0  0  0  0  0  0  0
   -4.1006   22.9114  -31.9109 H   0  0  0  0  0  0  0  0  0  0  0  0
  1  2  1  0
  2  3  2  0
  3  4  1  0
  4  5  2  0
  5  6  1  0
  6  7  1  0
  7  8  2  0
  8  9  1  0
  9 10  2  0
 10 11  1  0
 11 12  1  0
 12 13  2  0
 13 14  1  0
 14 15  2  0
 15 16  1  0
 16 17  2  0
  6 18  2  0
 18  2  1  0
 17  8  1  0
 17 12  1  0
  3 19  1  0
  4 20  1  0
  5 21  1  0
 10 22  1  0
 11 23  1  0
 13 24  1  0
 14 25  1  0
 15 26  1  0
 16 27  1  0
 18 28  1  0
M  END
>  <smiles>  (34) 
Fc1cccc(N=c2nc[nH]c3ccccc23)c1

>  <score_type>  (34) 
oracle

>  <origin>  (34) 
adg

>  <m_score__min__energy>  (34) 
-7.1699999999999999

>  <m_primary>  (34) 
energy

$$$$
34:0
     RDKit          3D

 19 21  0  0  0  0  0  0  0  0999 V2000
   -6.1310   25.7440  -29.6750 C   0  0  0  0  0  0  0  0  0  0  0  0
   -6.0870   24.5280  -30.5360 C   0  0  0  0  0  0  0  0  0  0  0  0
   -7.1360   23.6650  -30.6570 N   0  0  0  0  0  0  0  0  0  0  0  0
   -6.5920   22.7420  -31.4670 C   0  0  0  0  0  0  0  0  0  0  0  0
   -5.3320   23.0150  -31.7960 N   0  0  0  0  0  0  0  0  0  0  0  0
   -4.5990   22.1960  -32.6030 C   0  0  0  0  0  0  0  0  0  0  0  0
   -5.1890   21.0560  -33.0880 N   0  0  0  0  0  0  0  0  0  0  0  0
   -6.4830   20.7990  -32.7350 C   0  0  0  0  0  0  0  0  0  0  0  0
   -7.2750   19.7350  -33.0890 C   0  0  0  0  0  0  0  0  0  0  0  0
   -8.4790   20.0060  -32.4350 C   0  0  0  0  0  0  0  0  0  0  0  0
   -8.3970   21.1670  -31.7370 N   0  0  0  0  0  0  0  0  0  0  0  0
   -7.1750   21.6220  -31.9390 N   0  0  0  0  0  0  0  0  0  0  0  0
   -4.9750   24.1410  -31.2160 N   0  0  0  0  0  0  0  0  0  0  0  0
   -6.1202   25.4445  -28.6166 H   0  0  0  0  0  0  0  0  0  0  0  0
   -5.2551   26.3749  -29.8865 H   0  0  0  0  0  0  0  0  0  0  0  0
   -7.0502   26.3100  -29.8865 H   0  0  0  0  0  0  0  0  0  0  0  0
   -3.5583   22.4435  -32.8594 H   0  0  0  0  0  0  0  0  0  0  0  0
   -7.0229   18.8781  -33.7310 H   0  0  0  0  0  0  0  0  0  0  0  0
   -9.3722   19.3655  -32.4796 H   0  0  0  0  0  0  0  0  0  0  0  0
  1  2  1  0
  2  3  1  0
  3  4  2  0
  4  5  1  0
  5  6  1  0
  6  7  2  0
  7  8  1  0
  8  9  2  0
  9 10  1  0
 10 11  2  0
 11 12  1  0
  5 13  1  0
 13  2  2  0
 12  4  1  0
 12  8  1  0
  1 14  1  0
  1 15  1  0
  1 16  1  0
  6 17  1  0
  9 18  1  0
 10 19  1  0
M  END
>  <UniqueID>  (35) 
33

>  <SMILES>  (35) 
Cc1nc2n(cnc3ccnn32)n1

>  <Energy>  (35) 
98.6233684361976

>  <Genealogy>  (35) 
Cc1nc2n(cnc3ccnn32)n1 (3D coordinates assigned)
Cc1nc2n(cnc3ccnn32)n1 (optimized conformer: 98.6233684361976 kcal/mol)

>  <smiles>  (35) 
Cc1nc2n(cnc3ccnn32)n1

>  <score_type>  (35) 
oracle

>  <origin>  (35) 
adg

>  <m_score__min__energy>  (35) 
-5.5300000000000002

>  <m_primary>  (35) 
energy

$$$$
35:0
     RDKit          3D

 27 29  0  0  0  0  0  0  0  0999 V2000
   -4.6190   14.6230  -32.5550 Br  0  0  0  0  0  0  0  0  0  0  0  0
   -5.4190   16.2950  -32.9740 C   0  0  0  0  0  0  0  0  0  0  0  0
   -5.7470   17.1750  -31.9600 C   0  0  0  0  0  0  0  0  0  0  0  0
   -6.3060   18.3390  -32.2730 N   0  0  0  0  0  0  0  0  0  0  0  0
   -6.5750   18.7190  -33.5410 C   0  0  0  0  0  0  0  0  0  0  0  0
   -7.1180   19.8760  -33.7020 N   0  0  0  0  0  0  0  0  0  0  0  0
   -7.3650   20.8170  -32.6850 C   0  0  0  0  0  0  0  0  0  0  0  0
   -8.5210   20.6630  -31.9380 C   0  0  0  0  0  0  0  0  0  0  0  0
   -8.8660   21.5240  -30.9150 C   0  0  0  0  0  0  0  0  0  0  0  0
   -8.0200   22.5770  -30.6340 C   0  0  0  0  0  0  0  0  0  0  0  0
   -6.8560   22.7470  -31.3730 C   0  0  0  0  0  0  0  0  0  0  0  0
   -6.0090   23.8820  -31.0200 C   0  0  0  0  0  0  0  0  0  0  0  0
   -4.7550   24.1370  -31.4030 N   0  0  0  0  0  0  0  0  0  0  0  0
   -4.3780   25.2820  -30.8380 N   0  0  0  0  0  0  0  0  0  0  0  0
   -5.3760   25.7640  -30.1000 N   0  0  0  0  0  0  0  0  0  0  0  0
   -6.3830   24.8960  -30.2130 N   0  0  0  0  0  0  0  0  0  0  0  0
   -6.5270   21.8750  -32.3930 C   0  0  0  0  0  0  0  0  0  0  0  0
   -6.2680   17.8900  -34.5520 N   0  0  0  0  0  0  0  0  0  0  0  0
   -5.6990   16.6950  -34.2660 C   0  0  0  0  0  0  0  0  0  0  0  0
   -5.5483   16.9156  -30.9097 H   0  0  0  0  0  0  0  0  0  0  0  0
   -9.1908   19.8215  -32.1687 H   0  0  0  0  0  0  0  0  0  0  0  0
   -9.7912   21.3742  -30.3392 H   0  0  0  0  0  0  0  0  0  0  0  0
   -8.2669   23.2811  -29.8258 H   0  0  0  0  0  0  0  0  0  0  0  0
   -5.3840   26.6560  -29.5280 H   0  0  0  0  0  0  0  0  0  0  0  0
   -5.6020   22.0228  -32.9697 H   0  0  0  0  0  0  0  0  0  0  0  0
   -6.4710   18.1740  -35.5210 H   0  0  0  0  0  0  0  0  0  0  0  0
   -5.4500   16.0163  -35.0951 H   0  0  0  0  0  0  0  0  0  0  0  0
  1  2  1  0
  2  3  1  0
  3  4  2  0
  4  5  1  0
  5  6  2  3
  6  7  1  0
  7  8  2  0
  8  9  1  0
  9 10  2  0
 10 11  1  0
 11 12  1  0
 12 13  1  0
 13 14  2  0
 14 15  1  0
 15 16  1  0
 11 17  2  0
  5 18  1  0
 18 19  1  0
 19  2  2  0
 17  7  1  0
 16 12  2  0
  3 20  1  0
  8 21  1  0
  9 22  1  0
 10 23  1  0
 15 24  1  0
 17 25  1  0
 18 26  1  0
 19 27  1  0
M  END
>  <smiles>  (36) 
Brc1cnc(=Nc2cccc(-c3nn[nH]n3)c2)[nH]c1

>  <score_type>  (36) 
oracle

>  <origin>  (36) 
adg

>  <m_score__min__energy>  (36) 
-8.8900000000000006

>  <m_primary>  (36) 
energy

$$$$
36:0
     RDKit          3D

 36 37  0  0  0  0  0  0  0  0999 V2000
   -4.2900   20.2750  -32.5810 C   0  0  0  0  0  0  0  0  0  0  0  0
   -5.3000   20.9950  -33.3600 N   0  0  0  0  0  0  0  0  0  0  0  0
   -6.5900   20.9240  -32.7090 C   0  0  0  0  0  0  0  0  0  0  0  0
   -7.1450   19.6630  -32.4190 C   0  0  0  0  0  0  0  0  0  0  0  0
   -8.3760   19.5580  -31.7680 C   0  0  0  0  0  0  0  0  0  0  0  0
   -9.0680   20.7080  -31.3970 C   0  0  0  0  0  0  0  0  0  0  0  0
   -8.5280   21.9680  -31.6620 C   0  0  0  0  0  0  0  0  0  0  0  0
   -7.2820   22.0940  -32.2980 C   0  0  0  0  0  0  0  0  0  0  0  0
   -6.7270   23.3980  -32.5450 N   0  0  0  0  0  0  0  0  0  0  0  0
   -5.8970   24.1690  -31.6030 C   0  0  0  0  0  0  0  0  0  0  0  0
   -6.7480   24.6790  -30.4230 C   0  0  0  0  0  0  0  0  0  0  0  0
   -5.8530   25.2790  -29.3340 C   0  0  0  0  0  0  0  0  0  0  0  0
   -4.8530   24.2510  -28.7600 C   0  0  0  0  0  0  0  0  0  0  0  0
   -4.6100   23.0370  -29.6780 C   0  0  0  0  0  0  0  0  0  0  0  0
   -4.6000   23.4290  -31.1610 C   0  0  0  0  0  0  0  0  0  0  0  0
   -4.4863   20.4149  -31.5077 H   0  0  0  0  0  0  0  0  0  0  0  0
   -4.3339   19.2033  -32.8251 H   0  0  0  0  0  0  0  0  0  0  0  0
   -3.2912   20.6660  -32.8251 H   0  0  0  0  0  0  0  0  0  0  0  0
   -5.3530   20.5680  -34.3140 H   0  0  0  0  0  0  0  0  0  0  0  0
   -5.0020   21.9880  -33.4890 H   0  0  0  0  0  0  0  0  0  0  0  0
   -6.6031   18.7505  -32.7084 H   0  0  0  0  0  0  0  0  0  0  0  0
   -8.7991   18.5667  -31.5483 H   0  0  0  0  0  0  0  0  0  0  0  0
  -10.0425   20.6236  -30.8939 H   0  0  0  0  0  0  0  0  0  0  0  0
   -9.0839   22.8711  -31.3698 H   0  0  0  0  0  0  0  0  0  0  0  0
   -6.8580   23.8120  -33.4950 H   0  0  0  0  0  0  0  0  0  0  0  0
   -5.5239   25.0509  -32.1444 H   0  0  0  0  0  0  0  0  0  0  0  0
   -7.4434   25.4504  -30.7853 H   0  0  0  0  0  0  0  0  0  0  0  0
   -7.3074   23.8331  -29.9968 H   0  0  0  0  0  0  0  0  0  0  0  0
   -5.2880   26.1189  -29.7644 H   0  0  0  0  0  0  0  0  0  0  0  0
   -6.5031   25.6098  -28.5106 H   0  0  0  0  0  0  0  0  0  0  0  0
   -3.8911   24.7584  -28.5948 H   0  0  0  0  0  0  0  0  0  0  0  0
   -5.2918   23.8643  -27.8284 H   0  0  0  0  0  0  0  0  0  0  0  0
   -3.6387   22.5881  -29.4230 H   0  0  0  0  0  0  0  0  0  0  0  0
   -5.4323   22.3234  -29.5214 H   0  0  0  0  0  0  0  0  0  0  0  0
   -3.7398   24.0900  -31.3432 H   0  0  0  0  0  0  0  0  0  0  0  0
   -4.5350   22.5001  -31.7467 H   0  0  0  0  0  0  0  0  0  0  0  0
  1  2  1  0
  2  3  1  0
  3  4  2  0
  4  5  1  0
  5  6  2  0
  6  7  1  0
  7  8  2  0
  8  9  1  0
  9 10  1  0
 10 11  1  0
 11 12  1  0
 12 13  1  0
 13 14  1  0
 14 15  1  0
  8  3  1  0
 15 10  1  0
  1 16  1  0
  1 17  1  0
  1 18  1  0
  2 19  1  0
  2 20  1  0
  4 21  1  0
  5 22  1  0
  6 23  1  0
  7 24  1  0
  9 25  1  0
 10 26  1  0
 11 27  1  0
 11 28  1  0
 12 29  1  0
 12 30  1  0
 13 31  1  0
 13 32  1  0
 14 33  1  0
 14 34  1  0
 15 35  1  0
 15 36  1  0
M  CHG  1   2   1
M  END
>  <UniqueID>  (37) 
34

>  <SMILES>  (37) 
C[NH2+]c1ccccc1NC1CCCCC1

>  <Energy>  (37) 
44.62431691023337

>  <Genealogy>  (37) 
C[NH2+]c1ccccc1NC1CCCCC1 (protonated)
C[NH2+]c1ccccc1NC1CCCCC1 (3D coordinates assigned)
C[NH2+]c1ccccc1NC1CCCCC1 (nonaromatic ring conformer: 44.62431691023337 kcal/mol)

>  <smiles>  (37) 
CNc1ccccc1NC1CCCCC1

>  <score_type>  (37) 
oracle

>  <origin>  (37) 
adg

>  <m_score__min__energy>  (37) 
-6.0599999999999996

>  <m_primary>  (37) 
energy

$$$$
37:0
     RDKit          3D

 30 31  0  0  0  0  0  0  0  0999 V2000
   -3.8915   22.2909  -31.8564 H   0  0  0  0  0  0  0  0  0  0  0  0
   -4.8560   22.7310  -31.5630 C   0  0  0  0  0  0  0  0  0  0  0  0
   -6.0480   22.0760  -31.8910 C   0  0  0  0  0  0  0  0  0  0  0  0
   -6.0142   21.1328  -32.4560 H   0  0  0  0  0  0  0  0  0  0  0  0
   -7.2910   22.6140  -31.5040 C   0  0  0  0  0  0  0  0  0  0  0  0
   -8.5690   21.9350  -31.8450 C   0  0  0  0  0  0  0  0  0  0  0  0
   -9.5410   22.6110  -32.2810 O   0  0  0  0  0  0  0  0  0  0  0  0
   -8.7460   20.4540  -31.6870 C   0  0  0  0  0  0  0  0  0  0  0  0
   -8.7763   20.2004  -30.6171 H   0  0  0  0  0  0  0  0  0  0  0  0
   -9.6876   20.1443  -32.1640 H   0  0  0  0  0  0  0  0  0  0  0  0
   -7.9040   19.9311  -32.1640 H   0  0  0  0  0  0  0  0  0  0  0  0
   -7.3060   23.8150  -30.7690 C   0  0  0  0  0  0  0  0  0  0  0  0
   -8.2660   24.2457  -30.4484 H   0  0  0  0  0  0  0  0  0  0  0  0
   -6.1120   24.4650  -30.4430 C   0  0  0  0  0  0  0  0  0  0  0  0
   -6.1393   25.3923  -29.8520 H   0  0  0  0  0  0  0  0  0  0  0  0
   -4.8840   23.9460  -30.8620 C   0  0  0  0  0  0  0  0  0  0  0  0
   -3.6750   24.6130  -30.4720 N   0  0  0  0  0  0  0  0  0  0  0  0
   -3.0390   24.4620  -29.3460 C   0  0  0  0  0  0  0  0  0  0  0  0
   -3.5390   23.2700  -28.0930 S   0  0  0  0  0  0  0  0  0  0  0  0
   -3.6290   24.5970  -26.8410 C   0  0  0  0  0  0  0  0  0  0  0  0
   -3.9843   24.1629  -25.8948 H   0  0  0  0  0  0  0  0  0  0  0  0
   -4.3172   25.3650  -27.2238 H   0  0  0  0  0  0  0  0  0  0  0  0
   -2.2640   25.2820  -26.5880 C   0  0  0  0  0  0  0  0  0  0  0  0
   -1.8060   24.8128  -25.7048 H   0  0  0  0  0  0  0  0  0  0  0  0
   -2.4791   26.3524  -26.4541 H   0  0  0  0  0  0  0  0  0  0  0  0
   -1.2570   25.1890  -27.7550 C   0  0  0  0  0  0  0  0  0  0  0  0
   -0.7381   24.2205  -27.7021 H   0  0  0  0  0  0  0  0  0  0  0  0
   -0.5452   26.0224  -27.6617 H   0  0  0  0  0  0  0  0  0  0  0  0
   -1.9220   25.3000  -29.0510 N   0  0  0  0  0  0  0  0  0  0  0  0
   -1.6170   26.0320  -29.7310 H   0  0  0  0  0  0  0  0  0  0  0  0
  1  2  1  0
  2  3  2  0
  3  4  1  0
  3  5  1  0
  5  6  1  0
  6  7  2  0
  6  8  1  0
  8  9  1  0
  8 10  1  0
  8 11  1  0
  5 12  2  0
 12 13  1  0
 12 14  1  0
 14 15  1  0
 14 16  2  0
 16 17  1  0
 17 18  2  0
 18 19  1  0
 19 20  1  0
 20 21  1  0
 20 22  1  0
 20 23  1  0
 23 24  1  0
 23 25  1  0
 23 26  1  0
 26 27  1  0
 26 28  1  0
 26 29  1  0
 29 30  1  0
 16  2  1  0
 29 18  1  0
M  END
>  <UniqueID>  (38) 
35

>  <SMILES>  (38) 
CC(=O)c1ccc(/N=C2/NCCCS2)cc1

>  <Energy>  (38) 
38.839291686662094

>  <Genealogy>  (38) 
CC(=O)c1ccc(/N=C2/NCCCS2)cc1 (cis-trans isomerization)
CC(=O)c1ccc(/N=C2/NCCCS2)cc1 (3D coordinates assigned)
CC(=O)c1ccc(/N=C2/NCCCS2)cc1 (nonaromatic ring conformer: 38.839291686662094 kcal/mol)

>  <smiles>  (38) 
CC(=O)c1ccc(N=C2NCCCS2)cc1

>  <score_type>  (38) 
oracle

>  <origin>  (38) 
adg

>  <m_score__min__energy>  (38) 
-7.9000000000000004

>  <m_primary>  (38) 
energy

$$$$
38:0
     RDKit          3D

 46 49  0  0  1  0  0  0  0  0999 V2000
    0.2080   22.6710  -35.3300 N   0  0  0  0  0  0  0  0  0  0  0  0
    0.4750   20.9640  -35.0580 S   0  0  0  0  0  0  0  0  0  0  0  0
    0.5620   20.2550  -36.3780 O   0  0  0  0  0  0  0  0  0  0  0  0
    1.6880   20.8270  -34.2150 O   0  0  0  0  0  0  0  0  0  0  0  0
   -0.9400   20.4080  -34.1670 C   0  0  0  0  0  0  0  0  0  0  0  0
   -1.3510   19.0940  -34.2220 C   0  0  0  0  0  0  0  0  0  0  0  0
   -2.4820   18.7400  -33.4850 C   0  0  0  0  0  0  0  0  0  0  0  0
   -3.1520   19.6980  -32.7320 C   0  0  0  0  0  0  0  0  0  0  0  0
   -2.7260   21.0100  -32.6900 C   0  0  0  0  0  0  0  0  0  0  0  0
   -3.4240   22.0250  -31.8990 C   0  0  0  0  0  0  0  0  0  0  0  0
   -2.6960   22.7570  -30.9790 C   0  0  0  0  0  0  0  0  0  0  0  0
   -3.2610   23.7350  -30.1830 C   0  0  0  0  0  0  0  0  0  0  0  0
   -4.6140   23.9850  -30.3200 C   0  0  0  0  0  0  0  0  0  0  0  0
   -5.1800   24.9260  -29.5600 N   0  0  0  0  0  0  0  0  0  0  0  0
   -6.4930   25.1830  -29.6790 C   0  0  0  0  0  0  0  0  0  0  0  0
   -7.2280   24.4800  -30.5720 N   0  0  0  0  0  0  0  0  0  0  0  0
   -6.6820   23.5170  -31.3590 C   0  0  0  0  0  0  0  0  0  0  0  0
   -7.4500   22.8820  -32.1910 N   0  0  0  0  0  0  0  0  0  0  0  0
   -7.8160   21.5390  -31.8410 C   0  0  0  0  0  0  0  0  0  0  0  0
   -7.2800   20.5230  -32.8600 C   0  0  0  0  0  0  0  0  0  0  0  0
   -8.0790   19.3030  -32.4500 C   0  0  0  0  0  0  0  0  0  0  0  0
   -9.4770   19.8610  -32.3380 C   0  0  0  0  0  0  0  0  0  0  0  0
   -9.3090   21.3110  -31.9450 C   0  0  0  0  0  0  0  0  0  0  0  0
   -5.3350   23.2480  -31.2420 C   0  0  0  0  0  0  0  0  0  0  0  0
   -4.7760   22.2750  -32.0360 C   0  0  0  0  0  0  0  0  0  0  0  0
   -1.6040   21.3580  -33.4210 C   0  0  0  0  0  0  0  0  0  0  0  0
    0.8790   23.0660  -36.0030 H   0  0  0  0  0  0  0  0  0  0  0  0
   -0.7480   22.8520  -35.6990 H   0  0  0  0  0  0  0  0  0  0  0  0
   -0.8076   18.3513  -34.8247 H   0  0  0  0  0  0  0  0  0  0  0  0
   -2.8441   17.7014  -33.4998 H   0  0  0  0  0  0  0  0  0  0  0  0
   -4.0420   19.4033  -32.1566 H   0  0  0  0  0  0  0  0  0  0  0  0
   -1.6202   22.5518  -30.8764 H   0  0  0  0  0  0  0  0  0  0  0  0
   -2.6518   24.2986  -29.4610 H   0  0  0  0  0  0  0  0  0  0  0  0
   -4.6260   25.4910  -28.8540 H   0  0  0  0  0  0  0  0  0  0  0  0
   -6.9662   25.9570  -29.0569 H   0  0  0  0  0  0  0  0  0  0  0  0
   -7.4178   21.4104  -30.8237 H   0  0  0  0  0  0  0  0  0  0  0  0
   -7.4984   20.8267  -33.8945 H   0  0  0  0  0  0  0  0  0  0  0  0
   -6.1883   20.3886  -32.8537 H   0  0  0  0  0  0  0  0  0  0  0  0
   -8.0243   18.5146  -33.2152 H   0  0  0  0  0  0  0  0  0  0  0  0
   -7.7175   18.8282  -31.5259 H   0  0  0  0  0  0  0  0  0  0  0  0
   -9.9993   19.7833  -33.3030 H   0  0  0  0  0  0  0  0  0  0  0  0
  -10.0769   19.3076  -31.6005 H   0  0  0  0  0  0  0  0  0  0  0  0
   -9.7446   21.9687  -32.7116 H   0  0  0  0  0  0  0  0  0  0  0  0
   -9.8202   21.5358  -30.9973 H   0  0  0  0  0  0  0  0  0  0  0  0
   -5.3862   21.7128  -32.7582 H   0  0  0  0  0  0  0  0  0  0  0  0
   -1.2407   22.3962  -33.4068 H   0  0  0  0  0  0  0  0  0  0  0  0
  1  2  1  0
  2  3  2  0
  2  4  2  0
  2  5  1  0
  5  6  2  0
  6  7  1  0
  7  8  2  0
  8  9  1  0
  9 10  1  0
 10 11  2  0
 11 12  1  0
 12 13  2  0
 13 14  1  0
 14 15  1  0
 15 16  2  0
 16 17  1  0
 17 18  2  0
 18 19  1  0
 19 20  1  0
 20 21  1  0
 21 22  1  0
 22 23  1  0
 17 24  1  0
 24 25  2  0
  9 26  2  0
 26  5  1  0
 25 10  1  0
 24 13  1  0
 23 19  1  0
  1 27  1  0
  1 28  1  0
  6 29  1  0
  7 30  1  0
  8 31  1  0
 11 32  1  0
 12 33  1  0
 14 34  1  0
 15 35  1  0
 19 36  1  0
 20 37  1  0
 20 38  1  0
 21 39  1  0
 21 40  1  0
 22 41  1  0
 22 42  1  0
 23 43  1  0
 23 44  1  0
 25 45  1  0
 26 46  1  0
M  END
>  <smiles>  (39) 
NS(=O)(=O)c1cccc(-c2ccc3[nH]cnc(=NC4CCCC4)c3c2)c1

>  <score_type>  (39) 
oracle

>  <origin>  (39) 
adg

>  <m_score__min__energy>  (39) 
-10.48

>  <m_primary>  (39) 
energy

$$$$
39:0
     RDKit          3D

 45 48  0  0  0  0  0  0  0  0999 V2000
   -6.4980   16.6040  -34.1540 C   0  0  0  0  0  0  0  0  0  0  0  0
   -6.4130   17.9380  -34.6450 O   0  0  0  0  0  0  0  0  0  0  0  0
   -5.9690   19.0350  -33.8910 C   0  0  0  0  0  0  0  0  0  0  0  0
   -6.9090   19.9810  -33.4850 C   0  0  0  0  0  0  0  0  0  0  0  0
   -6.5210   21.0890  -32.7360 C   0  0  0  0  0  0  0  0  0  0  0  0
   -5.1780   21.2780  -32.3670 C   0  0  0  0  0  0  0  0  0  0  0  0
   -4.2070   20.3210  -32.7720 C   0  0  0  0  0  0  0  0  0  0  0  0
   -4.6200   19.2130  -33.5380 C   0  0  0  0  0  0  0  0  0  0  0  0
   -2.7460   20.4710  -32.5000 C   0  0  0  0  0  0  0  0  0  0  0  0
   -1.9330   20.1100  -33.3950 O   0  0  0  0  0  0  0  0  0  0  0  0
   -2.2290   20.9710  -31.2460 N   0  0  0  0  0  0  0  0  0  0  0  0
   -0.7820   21.1420  -31.0830 C   0  0  0  0  0  0  0  0  0  0  0  0
   -3.1340   21.3280  -30.1550 C   0  0  0  0  0  0  0  0  0  0  0  0
   -3.9420   22.5060  -30.5860 C   0  0  0  0  0  0  0  0  0  0  0  0
   -3.9070   23.8180  -30.1310 C   0  0  0  0  0  0  0  0  0  0  0  0
   -3.0460   24.4120  -29.0940 C   0  0  0  0  0  0  0  0  0  0  0  0
   -3.0920   24.1130  -27.7830 N   0  0  0  0  0  0  0  0  0  0  0  0
   -2.1140   24.9010  -27.2930 C   0  0  0  0  0  0  0  0  0  0  0  0
   -1.7340   24.9430  -25.8390 C   0  0  0  0  0  0  0  0  0  0  0  0
   -0.4260   24.1800  -25.6090 C   0  0  0  0  0  0  0  0  0  0  0  0
   -1.6160   26.3920  -25.3570 C   0  0  0  0  0  0  0  0  0  0  0  0
   -1.5100   25.6300  -28.2520 N   0  0  0  0  0  0  0  0  0  0  0  0
   -2.1150   25.2990  -29.3510 O   0  0  0  0  0  0  0  0  0  0  0  0
   -4.7950   24.5520  -30.8330 N   0  0  0  0  0  0  0  0  0  0  0  0
   -5.3410   23.6830  -31.7090 C   0  0  0  0  0  0  0  0  0  0  0  0
   -4.8270   22.4410  -31.5940 N   0  0  0  0  0  0  0  0  0  0  0  0
   -6.4971   16.6174  -33.0541 H   0  0  0  0  0  0  0  0  0  0  0  0
   -7.4276   16.1392  -34.5143 H   0  0  0  0  0  0  0  0  0  0  0  0
   -5.6349   16.0250  -34.5143 H   0  0  0  0  0  0  0  0  0  0  0  0
   -7.9665   19.8511  -33.7587 H   0  0  0  0  0  0  0  0  0  0  0  0
   -7.2765   21.8270  -32.4287 H   0  0  0  0  0  0  0  0  0  0  0  0
   -3.8737   18.4742  -33.8656 H   0  0  0  0  0  0  0  0  0  0  0  0
   -0.5346   21.1712  -30.0116 H   0  0  0  0  0  0  0  0  0  0  0  0
   -0.2575   20.2996  -31.5576 H   0  0  0  0  0  0  0  0  0  0  0  0
   -0.4683   22.0835  -31.5576 H   0  0  0  0  0  0  0  0  0  0  0  0
   -3.7999   20.4814  -29.9314 H   0  0  0  0  0  0  0  0  0  0  0  0
   -2.5595   21.5722  -29.2493 H   0  0  0  0  0  0  0  0  0  0  0  0
   -2.5254   24.4530  -25.2529 H   0  0  0  0  0  0  0  0  0  0  0  0
   -0.2474   24.0758  -24.5286 H   0  0  0  0  0  0  0  0  0  0  0  0
   -0.4982   23.1823  -26.0666 H   0  0  0  0  0  0  0  0  0  0  0  0
    0.4069   24.7339  -26.0666 H   0  0  0  0  0  0  0  0  0  0  0  0
   -1.6142   26.4136  -24.2572 H   0  0  0  0  0  0  0  0  0  0  0  0
   -0.6793   26.8286  -25.7338 H   0  0  0  0  0  0  0  0  0  0  0  0
   -2.4697   26.9744  -25.7338 H   0  0  0  0  0  0  0  0  0  0  0  0
   -6.1192   23.9570  -32.4365 H   0  0  0  0  0  0  0  0  0  0  0  0
  1  2  1  0
  2  3  1  0
  3  4  2  0
  4  5  1  0
  5  6  2  0
  6  7  1  0
  7  8  2  0
  7  9  1  0
  9 10  2  0
  9 11  1  0
 11 12  1  0
 11 13  1  0
 13 14  1  0
 14 15  2  0
 15 16  1  0
 16 17  2  0
 17 18  1  0
 18 19  1  0
 19 20  1  0
 19 21  1  0
 18 22  2  0
 22 23  1  0
 15 24  1  0
 24 25  2  0
 25 26  1  0
  8  3  1  0
 26 14  1  0
 26  6  1  0
 23 16  1  0
  1 27  1  0
  1 28  1  0
  1 29  1  0
  4 30  1  0
  5 31  1  0
  8 32  1  0
 12 33  1  0
 12 34  1  0
 12 35  1  0
 13 36  1  0
 13 37  1  0
 19 38  1  0
 20 39  1  0
 20 40  1  0
 20 41  1  0
 21 42  1  0
 21 43  1  0
 21 44  1  0
 25 45  1  0
M  END
>  <UniqueID>  (40) 
36

>  <SMILES>  (40) 
COc1ccc2c(c1)C(=O)N(C)Cc1c(-c3nc(C(C)C)no3)ncn1-2

>  <Energy>  (40) 
116.67375779394338

>  <Genealogy>  (40) 
COc1ccc2c(c1)C(=O)N(C)Cc1c(-c3nc(C(C)C)no3)ncn1-2 (3D coordinates assigned)
COc1ccc2c(c1)C(=O)N(C)Cc1c(-c3nc(C(C)C)no3)ncn1-2 (nonaromatic ring conformer: 116.67375779394338 kcal/mol)

>  <smiles>  (40) 
COc1ccc2c(c1)C(=O)N(C)Cc1c(-c3nc(C(C)C)no3)ncn1-2

>  <score_type>  (40) 
oracle

>  <origin>  (40) 
adg

>  <m_score__min__energy>  (40) 
-8.5399999999999991

>  <m_primary>  (40) 
energy

$$$$
40:0
     RDKit          3D

 37 39  0  0  0  0  0  0  0  0999 V2000
   -4.7690   22.9960  -29.9810 C   0  0  0  0  0  0  0  0  0  0  0  0
   -4.9050   23.7700  -31.2290 N   0  0  0  0  0  0  0  0  0  0  0  0
   -5.7030   24.9780  -30.9400 C   0  0  0  0  0  0  0  0  0  0  0  0
   -5.5290   22.9990  -32.3430 C   0  0  1  0  0  0  0  0  0  0  0  0
   -4.8390   21.6120  -32.4720 C   0  0  0  0  0  0  0  0  0  0  0  0
   -5.7910   20.5650  -31.8520 C   0  0  2  0  0  0  0  0  0  0  0  0
   -5.8530   19.2910  -32.6710 C   0  0  0  0  0  0  0  0  0  0  0  0
   -5.6600   19.3430  -34.0630 C   0  0  0  0  0  0  0  0  0  0  0  0
   -5.7280   18.1760  -34.8310 C   0  0  0  0  0  0  0  0  0  0  0  0
   -5.9920   16.9480  -34.2180 C   0  0  0  0  0  0  0  0  0  0  0  0
   -6.1930   16.8850  -32.8370 C   0  0  0  0  0  0  0  0  0  0  0  0
   -6.1270   18.0490  -32.0660 C   0  0  0  0  0  0  0  0  0  0  0  0
   -7.0940   21.2750  -31.7920 C   0  0  0  0  0  0  0  0  0  0  0  0
   -8.3450   20.7160  -31.5120 C   0  0  0  0  0  0  0  0  0  0  0  0
   -9.4830   21.5310  -31.5950 C   0  0  0  0  0  0  0  0  0  0  0  0
   -9.3580   22.8800  -31.9660 C   0  0  0  0  0  0  0  0  0  0  0  0
   -8.0920   23.4240  -32.2290 C   0  0  0  0  0  0  0  0  0  0  0  0
   -6.9590   22.6120  -32.0900 C   0  0  0  0  0  0  0  0  0  0  0  0
   -4.8871   23.6679  -29.1181 H   0  0  0  0  0  0  0  0  0  0  0  0
   -5.5438   22.2160  -29.9470 H   0  0  0  0  0  0  0  0  0  0  0  0
   -3.7747   22.5268  -29.9470 H   0  0  0  0  0  0  0  0  0  0  0  0
   -5.7893   25.1086  -29.8512 H   0  0  0  0  0  0  0  0  0  0  0  0
   -5.2077   25.8578  -31.3767 H   0  0  0  0  0  0  0  0  0  0  0  0
   -6.7065   24.8677  -31.3767 H   0  0  0  0  0  0  0  0  0  0  0  0
   -5.4354   23.6624  -33.2154 H   0  0  0  0  0  0  0  0  0  0  0  0
   -4.6607   21.3775  -33.5318 H   0  0  0  0  0  0  0  0  0  0  0  0
   -3.8685   21.6105  -31.9541 H   0  0  0  0  0  0  0  0  0  0  0  0
   -5.4592   20.2187  -30.8621 H   0  0  0  0  0  0  0  0  0  0  0  0
   -5.4543   20.3073  -34.5508 H   0  0  0  0  0  0  0  0  0  0  0  0
   -5.5735   18.2248  -35.9190 H   0  0  0  0  0  0  0  0  0  0  0  0
   -6.0415   16.0308  -34.8232 H   0  0  0  0  0  0  0  0  0  0  0  0
   -6.4034   15.9184  -32.3559 H   0  0  0  0  0  0  0  0  0  0  0  0
   -6.2901   17.9947  -30.9795 H   0  0  0  0  0  0  0  0  0  0  0  0
   -8.4346   19.6561  -31.2317 H   0  0  0  0  0  0  0  0  0  0  0  0
  -10.4752   21.1133  -31.3692 H   0  0  0  0  0  0  0  0  0  0  0  0
  -10.2549   23.5113  -32.0505 H   0  0  0  0  0  0  0  0  0  0  0  0
   -7.9903   24.4741  -32.5402 H   0  0  0  0  0  0  0  0  0  0  0  0
  1  2  1  0
  2  3  1  0
  2  4  1  0
  4  5  1  0
  5  6  1  0
  6  7  1  0
  7  8  2  0
  8  9  1  0
  9 10  2  0
 10 11  1  0
 11 12  2  0
  6 13  1  0
 13 14  2  0
 14 15  1  0
 15 16  2  0
 16 17  1  0
 17 18  2  0
 18  4  1  0
 12  7  1  0
 18 13  1  0
  1 19  1  0
  1 20  1  0
  1 21  1  0
  3 22  1  0
  3 23  1  0
  3 24  1  0
  4 25  1  6
  5 26  1  0
  5 27  1  0
  6 28  1  1
  8 29  1  0
  9 30  1  0
 10 31  1  0
 11 32  1  0
 12 33  1  0
 14 34  1  0
 15 35  1  0
 16 36  1  0
 17 37  1  0
M  END
>  <UniqueID>  (41) 
37

>  <SMILES>  (41) 
CN(C)[C@H]1C[C@H](c2ccccc2)c2ccccc21

>  <Energy>  (41) 
54.27442945813881

>  <Genealogy>  (41) 
CN(C)[C@H]1C[C@H](c2ccccc2)c2ccccc21 (chirality)
CN(C)[C@H]1C[C@H](c2ccccc2)c2ccccc21 (3D coordinates assigned)
CN(C)[C@H]1C[C@H](c2ccccc2)c2ccccc21 (nonaromatic ring conformer: 54.27442945813881 kcal/mol)

>  <smiles>  (41) 
CN(C)C1CC(c2ccccc2)c2ccccc21

>  <score_type>  (41) 
oracle

>  <origin>  (41) 
adg

>  <m_score__min__energy>  (41) 
-8.0999999999999996

>  <m_primary>  (41) 
energy

$$$$
41:0
     RDKit          3D

 53 55  0  0  0  0  0  0  0  0999 V2000
   -6.1440   18.1200  -34.2130 C   0  0  0  0  0  0  0  0  0  0  0  0
   -5.9810   18.6640  -32.9080 O   0  0  0  0  0  0  0  0  0  0  0  0
   -5.9890   20.0360  -32.6130 C   0  0  0  0  0  0  0  0  0  0  0  0
   -4.8120   20.8090  -32.6110 C   0  0  0  0  0  0  0  0  0  0  0  0
   -4.8630   22.1740  -32.3140 C   0  0  0  0  0  0  0  0  0  0  0  0
   -6.0860   22.7820  -32.0170 C   0  0  0  0  0  0  0  0  0  0  0  0
   -6.1480   24.5360  -31.6410 S   0  0  0  0  0  0  0  0  0  0  0  0
   -6.2020   24.3230  -29.8280 C   0  0  0  0  0  0  0  0  0  0  0  0
   -4.8020   24.1930  -29.2970 C   0  0  0  0  0  0  0  0  0  0  0  0
   -3.9390   24.9460  -29.7270 O   0  0  0  0  0  0  0  0  0  0  0  0
   -4.4800   23.1890  -28.2910 N   0  0  1  0  0  0  0  0  0  0  0  0
   -3.7120   22.0640  -28.8630 C   0  0  0  0  0  0  0  0  0  0  0  0
   -2.3140   22.4780  -29.3390 C   0  0  0  0  0  0  0  0  0  0  0  0
   -1.6280   23.4260  -28.3900 C   0  0  0  0  0  0  0  0  0  0  0  0
   -0.2680   23.6990  -28.5960 C   0  0  0  0  0  0  0  0  0  0  0  0
    0.4270   24.5820  -27.7520 C   0  0  0  0  0  0  0  0  0  0  0  0
    1.7890   24.8720  -27.9340 O   0  0  0  0  0  0  0  0  0  0  0  0
    2.8240   24.4850  -27.0360 C   0  0  0  0  0  0  0  0  0  0  0  0
   -0.2470   25.1940  -26.6890 C   0  0  0  0  0  0  0  0  0  0  0  0
    0.4800   26.0560  -25.8520 O   0  0  0  0  0  0  0  0  0  0  0  0
    0.2270   26.2390  -24.4620 C   0  0  0  0  0  0  0  0  0  0  0  0
   -1.6150   24.9320  -26.4870 C   0  0  0  0  0  0  0  0  0  0  0  0
   -2.3300   24.0840  -27.3560 C   0  0  0  0  0  0  0  0  0  0  0  0
   -3.7990   23.7480  -27.0910 C   0  0  1  0  0  0  0  0  0  0  0  0
   -4.6060   24.9270  -26.4990 C   0  0  0  0  0  0  0  0  0  0  0  0
   -7.2580   22.0210  -32.0100 C   0  0  0  0  0  0  0  0  0  0  0  0
   -7.2130   20.6550  -32.3100 C   0  0  0  0  0  0  0  0  0  0  0  0
   -8.7050   19.7270  -32.3000 Cl  0  0  0  0  0  0  0  0  0  0  0  0
   -6.4589   17.0689  -34.1354 H   0  0  0  0  0  0  0  0  0  0  0  0
   -6.9099   18.6931  -34.7561 H   0  0  0  0  0  0  0  0  0  0  0  0
   -5.1892   18.1775  -34.7561 H   0  0  0  0  0  0  0  0  0  0  0  0
   -3.8468   20.3359  -32.8445 H   0  0  0  0  0  0  0  0  0  0  0  0
   -3.9389   22.7707  -32.3140 H   0  0  0  0  0  0  0  0  0  0  0  0
   -6.6880   25.1973  -29.3704 H   0  0  0  0  0  0  0  0  0  0  0  0
   -6.7731   23.4156  -29.5822 H   0  0  0  0  0  0  0  0  0  0  0  0
   -5.3810   22.7720  -27.9570 H   0  0  0  0  0  0  0  0  0  0  0  0
   -3.6047   21.2850  -28.0938 H   0  0  0  0  0  0  0  0  0  0  0  0
   -4.2652   21.6985  -29.7407 H   0  0  0  0  0  0  0  0  0  0  0  0
   -1.6956   21.5739  -29.4399 H   0  0  0  0  0  0  0  0  0  0  0  0
   -2.4339   23.0014  -30.2990 H   0  0  0  0  0  0  0  0  0  0  0  0
    0.2621   23.2153  -29.4297 H   0  0  0  0  0  0  0  0  0  0  0  0
    2.4779   24.6144  -25.9999 H   0  0  0  0  0  0  0  0  0  0  0  0
    3.0823   23.4295  -27.2072 H   0  0  0  0  0  0  0  0  0  0  0  0
    3.7114   25.1121  -27.2072 H   0  0  0  0  0  0  0  0  0  0  0  0
    0.9818   25.6931  -23.8769 H   0  0  0  0  0  0  0  0  0  0  0  0
    0.2783   27.3103  -24.2179 H   0  0  0  0  0  0  0  0  0  0  0  0
   -0.7744   25.8549  -24.2179 H   0  0  0  0  0  0  0  0  0  0  0  0
   -2.1348   25.3971  -25.6364 H   0  0  0  0  0  0  0  0  0  0  0  0
   -3.7742   22.9640  -26.3199 H   0  0  0  0  0  0  0  0  0  0  0  0
   -4.5731   24.8789  -25.4005 H   0  0  0  0  0  0  0  0  0  0  0  0
   -4.1683   25.8776  -26.8377 H   0  0  0  0  0  0  0  0  0  0  0  0
   -5.6506   24.8630  -26.8377 H   0  0  0  0  0  0  0  0  0  0  0  0
   -8.2194   22.4975  -31.7678 H   0  0  0  0  0  0  0  0  0  0  0  0
  1  2  1  0
  2  3  1  0
  3  4  2  0
  4  5  1  0
  5  6  2  0
  6  7  1  0
  7  8  1  0
  8  9  1  0
  9 10  2  0
  9 11  1  0
 11 12  1  0
 12 13  1  0
 13 14  1  0
 14 15  2  0
 15 16  1  0
 16 17  1  0
 17 18  1  0
 16 19  2  0
 19 20  1  0
 20 21  1  0
 19 22  1  0
 22 23  2  0
 23 24  1  0
 24 25  1  0
  6 26  1  0
 26 27  2  0
 27 28  1  0
 27  3  1  0
 24 11  1  0
 23 14  1  0
  1 29  1  0
  1 30  1  0
  1 31  1  0
  4 32  1  0
  5 33  1  0
  8 34  1  0
  8 35  1  0
 11 36  1  1
 12 37  1  0
 12 38  1  0
 13 39  1  0
 13 40  1  0
 15 41  1  0
 18 42  1  0
 18 43  1  0
 18 44  1  0
 21 45  1  0
 21 46  1  0
 21 47  1  0
 22 48  1  0
 24 49  1  1
 25 50  1  0
 25 51  1  0
 25 52  1  0
 26 53  1  0
M  CHG  1  11   1
M  END
>  <UniqueID>  (42) 
38

>  <SMILES>  (42) 
COc1ccc(SCC(=O)[N@H+]2CCc3cc(OC)c(OC)cc3[C@H]2C)cc1Cl

>  <Energy>  (42) 
58.51659555350595

>  <Genealogy>  (42) 
COc1ccc(SCC(=O)[NH+]2CCc3cc(OC)c(OC)cc3C2C)cc1Cl (protonated)
COc1ccc(SCC(=O)[N@H+]2CCc3cc(OC)c(OC)cc3[C@H]2C)cc1Cl (chirality)
COc1ccc(SCC(=O)[N@H+]2CCc3cc(OC)c(OC)cc3[C@H]2C)cc1Cl (3D coordinates assigned)
COc1ccc(SCC(=O)[N@H+]2CCc3cc(OC)c(OC)cc3[C@H]2C)cc1Cl (nonaromatic ring conformer: 58.51659555350595 kcal/mol)

>  <smiles>  (42) 
COc1ccc(SCC(=O)N2CCc3cc(OC)c(OC)cc3C2C)cc1Cl

>  <score_type>  (42) 
oracle

>  <origin>  (42) 
adg

>  <m_score__min__energy>  (42) 
-7.6799999999999997

>  <m_primary>  (42) 
energy

$$$$
42:0
     RDKit          3D

 29 29  0  0  0  0  0  0  0  0999 V2000
   -7.6670   22.3080  -30.1950 C   0  0  0  0  0  0  0  0  0  0  0  0
   -8.6880   21.5280  -31.0320 C   0  0  0  0  0  0  0  0  0  0  0  0
   -9.4690   22.4640  -31.9630 C   0  0  0  0  0  0  0  0  0  0  0  0
   -8.0180   20.4120  -31.8130 C   0  0  0  0  0  0  0  0  0  0  0  0
   -8.4090   19.0730  -31.6460 C   0  0  0  0  0  0  0  0  0  0  0  0
   -7.7860   18.0540  -32.3710 C   0  0  0  0  0  0  0  0  0  0  0  0
   -6.7520   18.3450  -33.2850 C   0  0  0  0  0  0  0  0  0  0  0  0
   -6.1030   17.2880  -34.0400 N   0  0  0  0  0  0  0  0  0  0  0  0
   -6.5180   15.8890  -33.8720 C   0  0  0  0  0  0  0  0  0  0  0  0
   -5.0210   17.5980  -34.9820 C   0  0  0  0  0  0  0  0  0  0  0  0
   -6.3670   19.6920  -33.4470 C   0  0  0  0  0  0  0  0  0  0  0  0
   -6.9920   20.7090  -32.7210 C   0  0  0  0  0  0  0  0  0  0  0  0
   -7.8727   22.1509  -29.1259 H   0  0  0  0  0  0  0  0  0  0  0  0
   -6.6527   21.9526  -30.4293 H   0  0  0  0  0  0  0  0  0  0  0  0
   -7.7432   23.3800  -30.4293 H   0  0  0  0  0  0  0  0  0  0  0  0
   -9.4074   21.0664  -30.3396 H   0  0  0  0  0  0  0  0  0  0  0  0
  -10.0590   23.1711  -31.3613 H   0  0  0  0  0  0  0  0  0  0  0  0
   -8.7644   23.0215  -32.5977 H   0  0  0  0  0  0  0  0  0  0  0  0
  -10.1437   21.8707  -32.5977 H   0  0  0  0  0  0  0  0  0  0  0  0
   -9.2132   18.8245  -30.9378 H   0  0  0  0  0  0  0  0  0  0  0  0
   -8.1060   17.0115  -32.2271 H   0  0  0  0  0  0  0  0  0  0  0  0
   -6.5879   15.6535  -32.7998 H   0  0  0  0  0  0  0  0  0  0  0  0
   -7.4995   15.7383  -34.3452 H   0  0  0  0  0  0  0  0  0  0  0  0
   -5.7774   15.2275  -34.3452 H   0  0  0  0  0  0  0  0  0  0  0  0
   -4.1108   17.8588  -34.4220 H   0  0  0  0  0  0  0  0  0  0  0  0
   -4.8233   16.7204  -35.6150 H   0  0  0  0  0  0  0  0  0  0  0  0
   -5.3180   18.4472  -35.6150 H   0  0  0  0  0  0  0  0  0  0  0  0
   -5.5638   19.9454  -34.1545 H   0  0  0  0  0  0  0  0  0  0  0  0
   -6.6759   21.7530  -32.8633 H   0  0  0  0  0  0  0  0  0  0  0  0
  1  2  1  0
  2  3  1  0
  2  4  1  0
  4  5  2  0
  5  6  1  0
  6  7  2  0
  7  8  1  0
  8  9  1  0
  8 10  1  0
  7 11  1  0
 11 12  2  0
 12  4  1  0
  1 13  1  0
  1 14  1  0
  1 15  1  0
  2 16  1  0
  3 17  1  0
  3 18  1  0
  3 19  1  0
  5 20  1  0
  6 21  1  0
  9 22  1  0
  9 23  1  0
  9 24  1  0
 10 25  1  0
 10 26  1  0
 10 27  1  0
 11 28  1  0
 12 29  1  0
M  END
>  <UniqueID>  (43) 
39

>  <SMILES>  (43) 
CC(C)c1ccc(N(C)C)cc1

>  <Energy>  (43) 
24.553844579096967

>  <Genealogy>  (43) 
CC(C)c1ccc(N(C)C)cc1 (3D coordinates assigned)
CC(C)c1ccc(N(C)C)cc1 (optimized conformer: 24.553844579096967 kcal/mol)

>  <smiles>  (43) 
CC(C)c1ccc(N(C)C)cc1

>  <score_type>  (43) 
oracle

>  <origin>  (43) 
adg

>  <m_score__min__energy>  (43) 
-5.3300000000000001

>  <m_primary>  (43) 
energy

$$$$
43:0
     RDKit          3D

 22 23  0  0  0  0  0  0  0  0999 V2000
   -7.7610   19.8440  -32.6420 C   0  0  0  0  0  0  0  0  0  0  0  0
   -7.9950   21.2680  -32.1810 C   0  0  0  0  0  0  0  0  0  0  0  0
   -6.6920   21.9770  -31.9940 C   0  0  0  0  0  0  0  0  0  0  0  0
   -5.4590   21.6690  -32.5380 C   0  0  0  0  0  0  0  0  0  0  0  0
   -4.5620   22.5720  -32.1030 N   0  0  0  0  0  0  0  0  0  0  0  0
   -5.2120   23.4470  -31.2930 C   0  0  0  0  0  0  0  0  0  0  0  0
   -4.7280   24.5440  -30.6090 C   0  0  0  0  0  0  0  0  0  0  0  0
   -3.4940   24.9150  -30.6540 N   0  0  0  0  0  0  0  0  0  0  0  0
   -5.6380   25.2280  -29.8710 N   0  0  0  0  0  0  0  0  0  0  0  0
   -6.9330   24.8680  -29.8030 C   0  0  0  0  0  0  0  0  0  0  0  0
   -7.4340   23.7990  -30.4610 N   0  0  0  0  0  0  0  0  0  0  0  0
   -6.5430   23.1010  -31.2050 C   0  0  0  0  0  0  0  0  0  0  0  0
   -7.6532   19.1879  -31.7657 H   0  0  0  0  0  0  0  0  0  0  0  0
   -8.6162   19.5094  -33.2475 H   0  0  0  0  0  0  0  0  0  0  0  0
   -6.8437   19.8007  -33.2475 H   0  0  0  0  0  0  0  0  0  0  0  0
   -8.5917   21.8000  -32.9366 H   0  0  0  0  0  0  0  0  0  0  0  0
   -8.5311   21.2482  -31.2207 H   0  0  0  0  0  0  0  0  0  0  0  0
   -5.2471   20.8269  -33.2132 H   0  0  0  0  0  0  0  0  0  0  0  0
   -3.5430   22.6060  -32.3410 H   0  0  0  0  0  0  0  0  0  0  0  0
   -3.1260   25.1860  -31.5930 H   0  0  0  0  0  0  0  0  0  0  0  0
   -5.3320   26.0640  -29.3340 H   0  0  0  0  0  0  0  0  0  0  0  0
   -7.6141   25.4707  -29.1843 H   0  0  0  0  0  0  0  0  0  0  0  0
  1  2  1  0
  2  3  1  0
  3  4  2  0
  4  5  1  0
  5  6  1  0
  6  7  1  0
  7  8  2  3
  7  9  1  0
  9 10  1  0
 10 11  2  0
 11 12  1  0
 12  3  1  0
 12  6  2  0
  1 13  1  0
  1 14  1  0
  1 15  1  0
  2 16  1  0
  2 17  1  0
  4 18  1  0
  5 19  1  0
  8 20  1  0
  9 21  1  0
 10 22  1  0
M  END
>  <smiles>  (44) 
CCc1c[nH]c2c(=N)[nH]cnc12

>  <score_type>  (44) 
oracle

>  <origin>  (44) 
adg

>  <m_score__min__energy>  (44) 
-5.46

>  <m_primary>  (44) 
energy

$$$$
44:0
     RDKit          3D

 40 42  0  0  0  0  0  0  0  0999 V2000
   -6.7610   17.5160  -33.4670 C   0  0  0  0  0  0  0  0  0  0  0  0
   -6.1430   18.8030  -34.0050 C   0  0  0  0  0  0  0  0  0  0  0  0
   -6.5580   19.9830  -33.1660 C   0  0  0  0  0  0  0  0  0  0  0  0
   -7.8710   20.0750  -32.6760 C   0  0  0  0  0  0  0  0  0  0  0  0
   -8.2520   21.1540  -31.8720 C   0  0  0  0  0  0  0  0  0  0  0  0
   -7.3250   22.1460  -31.5420 C   0  0  0  0  0  0  0  0  0  0  0  0
   -7.6900   23.1690  -30.7780 O   0  0  0  0  0  0  0  0  0  0  0  0
   -6.8560   24.1450  -30.4300 C   0  0  0  0  0  0  0  0  0  0  0  0
   -7.2860   25.0870  -29.7130 O   0  0  0  0  0  0  0  0  0  0  0  0
   -5.5150   24.1310  -30.8720 C   0  0  0  0  0  0  0  0  0  0  0  0
   -4.5610   25.2060  -30.4970 C   0  0  0  0  0  0  0  0  0  0  0  0
   -4.9540   26.4010  -30.4680 O   0  0  0  0  0  0  0  0  0  0  0  0
   -3.2120   24.9170  -30.1030 N   0  0  0  0  0  0  0  0  0  0  0  0
   -2.7510   23.7160  -29.4680 C   0  0  0  0  0  0  0  0  0  0  0  0
   -3.5480   23.1250  -28.4820 C   0  0  0  0  0  0  0  0  0  0  0  0
   -3.1260   21.9570  -27.8390 C   0  0  0  0  0  0  0  0  0  0  0  0
   -1.8960   21.3720  -28.1610 C   0  0  0  0  0  0  0  0  0  0  0  0
   -1.5200   20.1970  -27.4910 O   0  0  0  0  0  0  0  0  0  0  0  0
   -2.4060   19.3940  -26.7180 C   0  0  0  0  0  0  0  0  0  0  0  0
   -1.0810   21.9800  -29.1340 C   0  0  0  0  0  0  0  0  0  0  0  0
   -1.5020   23.1480  -29.7760 C   0  0  0  0  0  0  0  0  0  0  0  0
   -5.0950   23.0560  -31.6670 C   0  0  0  0  0  0  0  0  0  0  0  0
   -6.0010   22.0540  -32.0190 C   0  0  0  0  0  0  0  0  0  0  0  0
   -5.6200   20.9710  -32.8240 C   0  0  0  0  0  0  0  0  0  0  0  0
   -6.7512   17.5364  -32.3672 H   0  0  0  0  0  0  0  0  0  0  0  0
   -7.7983   17.4306  -33.8229 H   0  0  0  0  0  0  0  0  0  0  0  0
   -6.1790   16.6531  -33.8229 H   0  0  0  0  0  0  0  0  0  0  0  0
   -5.0468   18.7132  -33.9851 H   0  0  0  0  0  0  0  0  0  0  0  0
   -6.4939   18.9604  -35.0356 H   0  0  0  0  0  0  0  0  0  0  0  0
   -8.6040   19.2938  -32.9261 H   0  0  0  0  0  0  0  0  0  0  0  0
   -9.2844   21.2219  -31.4984 H   0  0  0  0  0  0  0  0  0  0  0  0
   -4.5115   23.5813  -28.2110 H   0  0  0  0  0  0  0  0  0  0  0  0
   -3.7663   21.4941  -27.0736 H   0  0  0  0  0  0  0  0  0  0  0  0
   -2.2170   19.5653  -25.6480 H   0  0  0  0  0  0  0  0  0  0  0  0
   -3.4459   19.6636  -26.9544 H   0  0  0  0  0  0  0  0  0  0  0  0
   -2.2396   18.3327  -26.9544 H   0  0  0  0  0  0  0  0  0  0  0  0
   -0.1086   21.5342  -29.3903 H   0  0  0  0  0  0  0  0  0  0  0  0
   -0.8534   23.6250  -30.5255 H   0  0  0  0  0  0  0  0  0  0  0  0
   -4.0523   23.0018  -32.0133 H   0  0  0  0  0  0  0  0  0  0  0  0
   -4.5849   20.8950  -33.1883 H   0  0  0  0  0  0  0  0  0  0  0  0
  1  2  1  0
  2  3  1  0
  3  4  2  0
  4  5  1  0
  5  6  2  0
  6  7  1  0
  7  8  1  0
  8  9  2  0
  8 10  1  0
 10 11  1  0
 11 12  2  0
 11 13  1  0
 13 14  1  0
 14 15  2  0
 15 16  1  0
 16 17  2  0
 17 18  1  0
 18 19  1  0
 17 20  1  0
 20 21  2  0
 10 22  2  0
 22 23  1  0
 23 24  2  0
 24  3  1  0
 23  6  1  0
 21 14  1  0
  1 25  1  0
  1 26  1  0
  1 27  1  0
  2 28  1  0
  2 29  1  0
  4 30  1  0
  5 31  1  0
 15 32  1  0
 16 33  1  0
 19 34  1  0
 19 35  1  0
 19 36  1  0
 20 37  1  0
 21 38  1  0
 22 39  1  0
 24 40  1  0
M  CHG  1  13  -1
M  END
>  <UniqueID>  (45) 
40

>  <SMILES>  (45) 
CCc1ccc2oc(=O)c(C(=O)[N-]c3ccc(OC)cc3)cc2c1

>  <Energy>  (45) 
50.20780411185976

>  <Genealogy>  (45) 
CCc1ccc2oc(=O)c(C(=O)[N-]c3ccc(OC)cc3)cc2c1 (protonated)
CCc1ccc2oc(=O)c(C(=O)[N-]c3ccc(OC)cc3)cc2c1 (3D coordinates assigned)
CCc1ccc2oc(=O)c(C(=O)[N-]c3ccc(OC)cc3)cc2c1 (optimized conformer: 50.20780411185976 kcal/mol)

>  <smiles>  (45) 
CCc1ccc2oc(=O)c(C(=O)Nc3ccc(OC)cc3)cc2c1

>  <score_type>  (45) 
oracle

>  <origin>  (45) 
adg

>  <m_score__min__energy>  (45) 
-9.6400000000000006

>  <m_primary>  (45) 
energy

$$$$
45:0
     RDKit          3D

 54 58  0  0  0  0  0  0  0  0999 V2000
    5.1040   25.4150  -26.2530 C   0  0  0  0  0  0  0  0  0  0  0  0
    4.2940   24.2460  -26.2730 O   0  0  0  0  0  0  0  0  0  0  0  0
    2.9050   24.2450  -26.4720 C   0  0  0  0  0  0  0  0  0  0  0  0
    2.3350   24.1900  -27.7560 C   0  0  0  0  0  0  0  0  0  0  0  0
    0.9490   24.1870  -27.9160 C   0  0  0  0  0  0  0  0  0  0  0  0
    0.1060   24.2500  -26.7980 C   0  0  0  0  0  0  0  0  0  0  0  0
   -1.3650   24.2320  -26.9530 C   0  0  0  0  0  0  0  0  0  0  0  0
   -2.1790   25.1050  -26.3260 N   0  0  0  0  0  0  0  0  0  0  0  0
   -3.4220   24.7950  -26.6640 N   0  0  0  0  0  0  0  0  0  0  0  0
   -3.3500   23.7380  -27.4940 C   0  0  0  0  0  0  0  0  0  0  0  0
   -4.7860   23.0220  -28.3030 S   0  0  0  0  0  0  0  0  0  0  0  0
   -5.3090   24.5840  -29.0880 C   0  0  0  0  0  0  0  0  0  0  0  0
   -4.6320   24.7570  -30.4100 C   0  0  0  0  0  0  0  0  0  0  0  0
   -3.4920   25.2950  -30.4630 O   0  0  0  0  0  0  0  0  0  0  0  0
   -5.3300   24.3960  -31.6080 N   0  0  0  0  0  0  0  0  0  0  0  0
   -5.8550   23.0990  -31.9280 C   0  0  0  0  0  0  0  0  0  0  0  0
   -7.2110   22.8120  -31.6670 C   0  0  0  0  0  0  0  0  0  0  0  0
   -7.7470   21.5350  -31.9540 C   0  0  0  0  0  0  0  0  0  0  0  0
   -6.9300   20.5210  -32.4900 C   0  0  0  0  0  0  0  0  0  0  0  0
   -5.5920   20.8300  -32.7100 C   0  0  0  0  0  0  0  0  0  0  0  0
   -4.6080   20.0330  -33.1480 N   0  0  0  0  0  0  0  0  0  0  0  0
   -3.5420   20.7930  -33.1260 O   0  0  0  0  0  0  0  0  0  0  0  0
   -3.7580   22.0130  -32.7020 N   0  0  0  0  0  0  0  0  0  0  0  0
   -5.0730   22.0560  -32.4430 C   0  0  0  0  0  0  0  0  0  0  0  0
   -2.0730   23.3520  -27.6960 N   0  0  0  0  0  0  0  0  0  0  0  0
   -1.5970   22.3670  -28.6280 C   0  0  0  0  0  0  0  0  0  0  0  0
   -1.1190   21.1290  -28.1690 C   0  0  0  0  0  0  0  0  0  0  0  0
   -0.6610   20.1700  -29.0770 C   0  0  0  0  0  0  0  0  0  0  0  0
   -0.6760   20.4400  -30.4500 C   0  0  0  0  0  0  0  0  0  0  0  0
   -0.1020   19.2360  -31.5890 Cl  0  0  0  0  0  0  0  0  0  0  0  0
   -1.1480   21.6740  -30.9130 C   0  0  0  0  0  0  0  0  0  0  0  0
   -1.6070   22.6340  -30.0060 C   0  0  0  0  0  0  0  0  0  0  0  0
    0.6720   24.2880  -25.5140 C   0  0  0  0  0  0  0  0  0  0  0  0
    2.0700   24.2940  -25.3450 C   0  0  0  0  0  0  0  0  0  0  0  0
    2.6660   24.3490  -24.0750 O   0  0  0  0  0  0  0  0  0  0  0  0
    2.9800   25.5520  -23.3810 C   0  0  0  0  0  0  0  0  0  0  0  0
    5.3045   25.7044  -25.2109 H   0  0  0  0  0  0  0  0  0  0  0  0
    6.0552   25.2108  -26.7663 H   0  0  0  0  0  0  0  0  0  0  0  0
    4.5787   26.2339  -26.7663 H   0  0  0  0  0  0  0  0  0  0  0  0
    2.9867   24.1490  -28.6412 H   0  0  0  0  0  0  0  0  0  0  0  0
    0.5153   24.1349  -28.9255 H   0  0  0  0  0  0  0  0  0  0  0  0
   -6.3985   24.5666  -29.2386 H   0  0  0  0  0  0  0  0  0  0  0  0
   -5.0305   25.4226  -28.4328 H   0  0  0  0  0  0  0  0  0  0  0  0
   -7.8586   23.5896  -31.2357 H   0  0  0  0  0  0  0  0  0  0  0  0
   -8.8101   21.3324  -31.7570 H   0  0  0  0  0  0  0  0  0  0  0  0
   -7.3336   19.5251  -32.7251 H   0  0  0  0  0  0  0  0  0  0  0  0
   -1.1049   20.9130  -27.0905 H   0  0  0  0  0  0  0  0  0  0  0  0
   -0.2882   19.2017  -28.7117 H   0  0  0  0  0  0  0  0  0  0  0  0
   -1.1578   21.8886  -31.9918 H   0  0  0  0  0  0  0  0  0  0  0  0
   -1.9774   23.6023  -30.3738 H   0  0  0  0  0  0  0  0  0  0  0  0
    0.0168   24.3134  -24.6308 H   0  0  0  0  0  0  0  0  0  0  0  0
    2.9332   25.3727  -22.2967 H   0  0  0  0  0  0  0  0  0  0  0  0
    3.9937   25.8795  -23.6551 H   0  0  0  0  0  0  0  0  0  0  0  0
    2.2557   26.3332  -23.6551 H   0  0  0  0  0  0  0  0  0  0  0  0
  1  2  1  0
  2  3  1  0
  3  4  2  0
  4  5  1  0
  5  6  2  0
  6  7  1  0
  7  8  2  0
  8  9  1  0
  9 10  2  0
 10 11  1  0
 11 12  1  0
 12 13  1  0
 13 14  2  0
 13 15  1  0
 15 16  1  0
 16 17  2  0
 17 18  1  0
 18 19  2  0
 19 20  1  0
 20 21  2  0
 21 22  1  0
 22 23  1  0
 23 24  2  0
 10 25  1  0
 25 26  1  0
 26 27  2  0
 27 28  1  0
 28 29  2  0
 29 30  1  0
 29 31  1  0
 31 32  2  0
  6 33  1  0
 33 34  2  0
 34 35  1  0
 35 36  1  0
 34  3  1  0
 25  7  1  0
 32 26  1  0
 24 16  1  0
 24 20  1  0
  1 37  1  0
  1 38  1  0
  1 39  1  0
  4 40  1  0
  5 41  1  0
 12 42  1  0
 12 43  1  0
 17 44  1  0
 18 45  1  0
 19 46  1  0
 27 47  1  0
 28 48  1  0
 31 49  1  0
 32 50  1  0
 33 51  1  0
 36 52  1  0
 36 53  1  0
 36 54  1  0
M  CHG  1  15  -1
M  END
>  <UniqueID>  (46) 
41

>  <SMILES>  (46) 
COc1ccc(-c2nnc(SCC(=O)[N-]c3cccc4nonc34)n2-c2ccc(Cl)cc2)cc1OC

>  <Energy>  (46) 
145.66140320256525

>  <Genealogy>  (46) 
COc1ccc(-c2nnc(SCC(=O)[N-]c3cccc4nonc34)n2-c2ccc(Cl)cc2)cc1OC (protonated)
COc1ccc(-c2nnc(SCC(=O)[N-]c3cccc4nonc34)n2-c2ccc(Cl)cc2)cc1OC (3D coordinates assigned)
COc1ccc(-c2nnc(SCC(=O)[N-]c3cccc4nonc34)n2-c2ccc(Cl)cc2)cc1OC (optimized conformer: 145.66140320256525 kcal/mol)

>  <smiles>  (46) 
COc1ccc(-c2nnc(SCC(=O)Nc3cccc4nonc34)n2-c2ccc(Cl)cc2)cc1OC

>  <score_type>  (46) 
oracle

>  <origin>  (46) 
adg

>  <m_score__min__energy>  (46) 
-12.52

>  <m_primary>  (46) 
energy

$$$$
46:0
     RDKit          3D

 27 29  0  0  0  0  0  0  0  0999 V2000
   -6.8450   20.1370  -33.6520 N   0  0  0  0  0  0  0  0  0  0  0  0
   -7.0030   21.0040  -32.5250 C   0  0  0  0  0  0  0  0  0  0  0  0
   -8.2600   21.1630  -31.9290 C   0  0  0  0  0  0  0  0  0  0  0  0
   -8.4110   22.0040  -30.8230 C   0  0  0  0  0  0  0  0  0  0  0  0
   -7.3110   22.6950  -30.3110 C   0  0  0  0  0  0  0  0  0  0  0  0
   -6.0450   22.5600  -30.9080 C   0  0  0  0  0  0  0  0  0  0  0  0
   -4.8590   23.2690  -30.3660 C   0  0  0  0  0  0  0  0  0  0  0  0
   -3.9780   22.5760  -29.5900 N   0  0  0  0  0  0  0  0  0  0  0  0
   -2.8770   23.1670  -29.0630 C   0  0  0  0  0  0  0  0  0  0  0  0
   -2.0160   22.4560  -28.2860 N   0  0  0  0  0  0  0  0  0  0  0  0
   -0.9090   23.0320  -27.7460 C   0  0  0  0  0  0  0  0  0  0  0  0
   -0.6290   24.3830  -27.9840 C   0  0  0  0  0  0  0  0  0  0  0  0
   -1.4980   25.1350  -28.7800 C   0  0  0  0  0  0  0  0  0  0  0  0
   -2.6300   24.5260  -29.3260 C   0  0  0  0  0  0  0  0  0  0  0  0
   -3.4920   25.2210  -30.1110 N   0  0  0  0  0  0  0  0  0  0  0  0
   -4.5950   24.6290  -30.6430 C   0  0  0  0  0  0  0  0  0  0  0  0
   -5.3500   25.3000  -31.3960 O   0  0  0  0  0  0  0  0  0  0  0  0
   -5.8980   21.6970  -32.0090 C   0  0  0  0  0  0  0  0  0  0  0  0
   -7.6150   20.0200  -34.3480 H   0  0  0  0  0  0  0  0  0  0  0  0
   -5.9570   19.6080  -33.7980 H   0  0  0  0  0  0  0  0  0  0  0  0
   -9.1305   20.6248  -32.3321 H   0  0  0  0  0  0  0  0  0  0  0  0
   -9.3993   22.1219  -30.3545 H   0  0  0  0  0  0  0  0  0  0  0  0
   -7.4355   23.3490  -29.4353 H   0  0  0  0  0  0  0  0  0  0  0  0
   -0.2307   22.4341  -27.1196 H   0  0  0  0  0  0  0  0  0  0  0  0
    0.2672   24.8488  -27.5483 H   0  0  0  0  0  0  0  0  0  0  0  0
   -1.2918   26.1978  -28.9747 H   0  0  0  0  0  0  0  0  0  0  0  0
   -4.9078   21.5644  -32.4694 H   0  0  0  0  0  0  0  0  0  0  0  0
  1  2  1  0
  2  3  2  0
  3  4  1  0
  4  5  2  0
  5  6  1  0
  6  7  1  0
  7  8  2  0
  8  9  1  0
  9 10  2  0
 10 11  1  0
 11 12  2  0
 12 13  1  0
 13 14  2  0
 14 15  1  0
 15 16  1  0
 16 17  2  0
  6 18  2  0
 18  2  1  0
 16  7  1  0
 14  9  1  0
  1 19  1  0
  1 20  1  0
  3 21  1  0
  4 22  1  0
  5 23  1  0
 11 24  1  0
 12 25  1  0
 13 26  1  0
 18 27  1  0
M  CHG  1  15  -1
M  END
>  <UniqueID>  (47) 
42

>  <SMILES>  (47) 
Nc1cccc(-c2nc3ncccc3[n-]c2=O)c1

>  <Energy>  (47) 
39.76255938412647

>  <Genealogy>  (47) 
Nc1cccc(-c2nc3ncccc3[n-]c2=O)c1 (protonated)
Nc1cccc(-c2nc3ncccc3[n-]c2=O)c1 (3D coordinates assigned)
Nc1cccc(-c2nc3ncccc3[n-]c2=O)c1 (optimized conformer: 39.76255938412647 kcal/mol)

>  <smiles>  (47) 
Nc1cccc(-c2nc3ncccc3[nH]c2=O)c1

>  <score_type>  (47) 
oracle

>  <origin>  (47) 
adg

>  <m_score__min__energy>  (47) 
-8.3499999999999996

>  <m_primary>  (47) 
energy

$$$$
47:0
     RDKit          3D

 47 50  0  0  0  0  0  0  0  0999 V2000
   -1.1592   20.3677  -30.8296 H   0  0  0  0  0  0  0  0  0  0  0  0
   -1.7080   21.3190  -30.8920 C   0  0  0  0  0  0  0  0  0  0  0  0
   -2.2860   21.6610  -32.0030 N   0  0  0  0  0  0  0  0  0  0  0  0
   -3.5860   21.2290  -32.4320 C   0  0  0  0  0  0  0  0  0  0  0  0
   -4.1400   21.8470  -33.3800 O   0  0  0  0  0  0  0  0  0  0  0  0
   -4.3020   20.0560  -31.8140 C   0  0  0  0  0  0  0  0  0  0  0  0
   -3.7978   19.1273  -32.1196 H   0  0  0  0  0  0  0  0  0  0  0  0
   -4.2768   20.1717  -30.7204 H   0  0  0  0  0  0  0  0  0  0  0  0
   -5.7450   19.9990  -32.2530 C   0  0  0  0  0  0  0  0  0  0  0  0
   -6.3880   18.9850  -32.9770 C   0  0  0  0  0  0  0  0  0  0  0  0
   -5.7730   17.7580  -33.5230 C   0  0  0  0  0  0  0  0  0  0  0  0
   -6.3530   16.5070  -33.2510 C   0  0  0  0  0  0  0  0  0  0  0  0
   -7.2598   16.4467  -32.6312 H   0  0  0  0  0  0  0  0  0  0  0  0
   -5.7820   15.3390  -33.7650 C   0  0  0  0  0  0  0  0  0  0  0  0
   -6.2316   14.3613  -33.5369 H   0  0  0  0  0  0  0  0  0  0  0  0
   -4.6410   15.4120  -34.5680 C   0  0  0  0  0  0  0  0  0  0  0  0
   -4.1899   14.4919  -34.9679 H   0  0  0  0  0  0  0  0  0  0  0  0
   -4.0730   16.6540  -34.8630 C   0  0  0  0  0  0  0  0  0  0  0  0
   -3.1784   16.7111  -35.5005 H   0  0  0  0  0  0  0  0  0  0  0  0
   -4.6400   17.8250  -34.3490 C   0  0  0  0  0  0  0  0  0  0  0  0
   -4.1965   18.8016  -34.5929 H   0  0  0  0  0  0  0  0  0  0  0  0
   -7.7110   19.2500  -33.0930 N   0  0  0  0  0  0  0  0  0  0  0  0
   -8.4320   18.6640  -33.5710 H   0  0  0  0  0  0  0  0  0  0  0  0
   -7.9130   20.4220  -32.4700 C   0  0  0  0  0  0  0  0  0  0  0  0
   -9.1250   21.0930  -32.3180 C   0  0  0  0  0  0  0  0  0  0  0  0
  -10.0556   20.6861  -32.7404 H   0  0  0  0  0  0  0  0  0  0  0  0
   -9.1210   22.3060  -31.6080 C   0  0  0  0  0  0  0  0  0  0  0  0
  -10.0604   22.8610  -31.4686 H   0  0  0  0  0  0  0  0  0  0  0  0
   -7.9190   22.8160  -31.0730 C   0  0  0  0  0  0  0  0  0  0  0  0
   -7.9283   23.7664  -30.5193 H   0  0  0  0  0  0  0  0  0  0  0  0
   -6.7090   22.1190  -31.2420 C   0  0  0  0  0  0  0  0  0  0  0  0
   -5.7665   22.5108  -30.8319 H   0  0  0  0  0  0  0  0  0  0  0  0
   -6.7420   20.9120  -31.9480 C   0  0  0  0  0  0  0  0  0  0  0  0
   -1.7860   22.2150  -29.6960 C   0  0  0  0  0  0  0  0  0  0  0  0
   -1.0741   21.8586  -28.9370 H   0  0  0  0  0  0  0  0  0  0  0  0
   -1.5410   23.2378  -30.0182 H   0  0  0  0  0  0  0  0  0  0  0  0
   -3.1930   22.2310  -29.0880 C   0  0  0  0  0  0  0  0  0  0  0  0
   -3.7193   21.3090  -29.3761 H   0  0  0  0  0  0  0  0  0  0  0  0
   -3.0999   22.2976  -27.9940 H   0  0  0  0  0  0  0  0  0  0  0  0
   -3.9580   23.3850  -29.5600 N   0  0  0  0  0  0  0  0  0  0  0  0
   -3.7860   24.0560  -30.7150 C   0  0  0  0  0  0  0  0  0  0  0  0
   -3.0091   23.8126  -31.4547 H   0  0  0  0  0  0  0  0  0  0  0  0
   -4.6750   25.0610  -30.8620 N   0  0  0  0  0  0  0  0  0  0  0  0
   -5.4310   25.0030  -29.7460 C   0  0  0  0  0  0  0  0  0  0  0  0
   -6.2659   25.6794  -29.5105 H   0  0  0  0  0  0  0  0  0  0  0  0
   -4.9990   23.9690  -28.9470 C   0  0  0  0  0  0  0  0  0  0  0  0
   -5.4301   23.6740  -27.9789 H   0  0  0  0  0  0  0  0  0  0  0  0
  1  2  1  0
  2  3  2  0
  3  4  1  0
  4  5  2  0
  4  6  1  0
  6  7  1  0
  6  8  1  0
  6  9  1  0
  9 10  2  0
 10 11  1  0
 11 12  2  0
 12 13  1  0
 12 14  1  0
 14 15  1  0
 14 16  2  0
 16 17  1  0
 16 18  1  0
 18 19  1  0
 18 20  2  0
 20 21  1  0
 10 22  1  0
 22 23  1  0
 22 24  1  0
 24 25  2  0
 25 26  1  0
 25 27  1  0
 27 28  1  0
 27 29  2  0
 29 30  1  0
 29 31  1  0
 31 32  1  0
 31 33  2  0
  2 34  1  0
 34 35  1  0
 34 36  1  0
 34 37  1  0
 37 38  1  0
 37 39  1  0
 37 40  1  0
 40 41  1  0
 41 42  1  0
 41 43  2  0
 43 44  1  0
 44 45  1  0
 44 46  2  0
 46 47  1  0
 33  9  1  0
 46 40  1  0
 20 11  1  0
 33 24  1  0
M  END
>  <UniqueID>  (48) 
43

>  <SMILES>  (48) 
O=C(Cc1c(-c2ccccc2)[nH]c2ccccc12)/N=C/CCn1ccnc1

>  <Energy>  (48) 
107.13581161860968

>  <Genealogy>  (48) 
O=C(Cc1c(-c2ccccc2)[nH]c2ccccc12)/N=C/CCn1ccnc1 (cis-trans isomerization)
O=C(Cc1c(-c2ccccc2)[nH]c2ccccc12)/N=C/CCn1ccnc1 (3D coordinates assigned)
O=C(Cc1c(-c2ccccc2)[nH]c2ccccc12)/N=C/CCn1ccnc1 (optimized conformer: 107.13581161860968 kcal/mol)

>  <smiles>  (48) 
O=C(Cc1c(-c2ccccc2)[nH]c2ccccc12)N=CCCn1ccnc1

>  <score_type>  (48) 
oracle

>  <origin>  (48) 
adg

>  <m_score__min__energy>  (48) 
-8.5299999999999994

>  <m_primary>  (48) 
energy

$$$$
