0:0
     RDKit          3D

 35 36  0  0  0  0  0  0  0  0999 V2000
   -5.0890   16.8400  -33.4750 C   0  0  0  0  0  0  0  0  0  0  0  0
   -6.1280   17.8520  -33.0890 C   0  0  0  0  0  0  0  0  0  0  0  0
   -7.3420   17.4380  -32.5260 C   0  0  0  0  0  0  0  0  0  0  0  0
   -8.3010   18.3790  -32.1390 C   0  0  0  0  0  0  0  0  0  0  0  0
   -9.4790   17.9530  -31.6180 F   0  0  0  0  0  0  0  0  0  0  0  0
   -8.0440   19.7500  -32.2940 C   0  0  0  0  0  0  0  0  0  0  0  0
   -9.0540   20.7100  -31.9200 C   0  0  0  0  0  0  0  0  0  0  0  0
   -9.8650   21.4810  -31.6230 N   0  0  0  0  0  0  0  0  0  0  0  0
   -6.8070   20.1730  -32.8200 C   0  0  0  0  0  0  0  0  0  0  0  0
   -6.5150   21.5660  -33.0040 N   0  0  0  0  0  0  0  0  0  0  0  0
   -6.2420   22.4180  -32.0560 C   0  0  0  0  0  0  0  0  0  0  0  0
   -7.2970   23.3980  -31.6470 C   0  0  0  0  0  0  0  0  0  0  0  0
   -7.2380   23.6530  -30.1330 C   0  0  0  0  0  0  0  0  0  0  0  0
   -5.8740   23.9720  -29.6510 N   0  0  0  0  0  0  0  0  0  0  0  0
   -5.4240   25.3090  -30.0830 C   0  0  0  0  0  0  0  0  0  0  0  0
   -4.9030   22.9100  -30.0010 C   0  0  0  0  0  0  0  0  0  0  0  0
   -4.8490   22.6150  -31.5080 C   0  0  0  0  0  0  0  0  0  0  0  0
   -5.8630   19.2230  -33.2260 C   0  0  0  0  0  0  0  0  0  0  0  0
   -4.6441   16.4067  -32.5671 H   0  0  0  0  0  0  0  0  0  0  0  0
   -5.5574   16.0424  -34.0704 H   0  0  0  0  0  0  0  0  0  0  0  0
   -4.3040   17.3292  -34.0704 H   0  0  0  0  0  0  0  0  0  0  0  0
   -7.5422   16.3653  -32.3874 H   0  0  0  0  0  0  0  0  0  0  0  0
   -7.1360   24.3465  -32.1802 H   0  0  0  0  0  0  0  0  0  0  0  0
   -8.2841   22.9834  -31.8993 H   0  0  0  0  0  0  0  0  0  0  0  0
   -7.9005   24.4980  -29.8941 H   0  0  0  0  0  0  0  0  0  0  0  0
   -7.5553   22.7269  -29.6314 H   0  0  0  0  0  0  0  0  0  0  0  0
   -5.9240   24.0020  -28.6040 H   0  0  0  0  0  0  0  0  0  0  0  0
   -5.2153   25.9291  -29.1987 H   0  0  0  0  0  0  0  0  0  0  0  0
   -4.5094   25.2109  -30.6862 H   0  0  0  0  0  0  0  0  0  0  0  0
   -6.2118   25.7839  -30.6862 H   0  0  0  0  0  0  0  0  0  0  0  0
   -3.9030   23.2273  -29.6704 H   0  0  0  0  0  0  0  0  0  0  0  0
   -5.2300   21.9880  -29.4980 H   0  0  0  0  0  0  0  0  0  0  0  0
   -4.3719   23.4601  -32.0259 H   0  0  0  0  0  0  0  0  0  0  0  0
   -4.2681   21.6952  -31.6709 H   0  0  0  0  0  0  0  0  0  0  0  0
   -4.9060   19.5536  -33.6558 H   0  0  0  0  0  0  0  0  0  0  0  0
  1  2  1  0
  2  3  2  0
  3  4  1  0
  4  5  1  0
  4  6  2  0
  6  7  1  0
  7  8  3  0
  6  9  1  0
  9 10  1  0
 10 11  2  3
 11 12  1  0
 12 13  1  0
 13 14  1  0
 14 15  1  0
 14 16  1  0
 16 17  1  0
  9 18  2  0
 18  2  1  0
 17 11  1  0
  1 19  1  0
  1 20  1  0
  1 21  1  0
  3 22  1  0
 12 23  1  0
 12 24  1  0
 13 25  1  0
 13 26  1  0
 14 27  1  0
 15 28  1  0
 15 29  1  0
 15 30  1  0
 16 31  1  0
 16 32  1  0
 17 33  1  0
 17 34  1  0
 18 35  1  0
M  CHG  1  14   1
M  END
>  <UniqueID>  (1) 
1

>  <SMILES>  (1) 
Cc1cc(F)c(C#N)c(N=C2CC[NH+](C)CC2)c1

>  <Energy>  (1) 
44.23551452323376

>  <Genealogy>  (1) 
Cc1cc(F)c(C#N)c(N=C2CC[NH+](C)CC2)c1 (protonated)
Cc1cc(F)c(C#N)c(N=C2CC[NH+](C)CC2)c1 (3D coordinates assigned)
Cc1cc(F)c(C#N)c(N=C2CC[NH+](C)CC2)c1 (nonaromatic ring conformer: 44.23551452323376 kcal/mol)

>  <smiles>  (1) 
Cc1cc(F)c(C#N)c(N=C2CCN(C)CC2)c1

>  <score_type>  (1) 
oracle

>  <origin>  (1) 
adg

>  <m_score__min__energy>  (1) 
-6.1900000000000004

>  <m_primary>  (1) 
energy

$$$$
1:0
     RDKit          3D

 57 59  0  0  0  0  0  0  0  0999 V2000
   -4.2150   24.4290  -27.0220 C   0  0  0  0  0  0  0  0  0  0  0  0
   -3.5640   25.3030  -25.9530 C   0  0  0  0  0  0  0  0  0  0  0  0
   -2.0340   25.1930  -25.9400 C   0  0  0  0  0  0  0  0  0  0  0  0
   -1.4340   26.3150  -25.1760 N   0  0  0  0  0  0  0  0  0  0  0  0
   -0.6190   25.8530  -24.0250 C   0  0  0  0  0  0  0  0  0  0  0  0
   -0.3760   26.9350  -22.9480 C   0  0  0  0  0  0  0  0  0  0  0  0
    0.9550   27.6520  -23.1750 C   0  0  0  0  0  0  0  0  0  0  0  0
   -0.7440   27.2870  -26.0550 C   0  0  0  0  0  0  0  0  0  0  0  0
   -0.3410   26.6490  -27.3920 C   0  0  0  0  0  0  0  0  0  0  0  0
    0.8710   25.7100  -27.2650 C   0  0  0  0  0  0  0  0  0  0  0  0
    0.8020   24.6270  -28.2040 O   0  0  0  0  0  0  0  0  0  0  0  0
   -0.3690   23.9910  -28.6500 C   0  0  0  0  0  0  0  0  0  0  0  0
   -0.4560   22.6010  -28.5070 C   0  0  0  0  0  0  0  0  0  0  0  0
   -1.5640   21.9000  -28.9910 C   0  0  0  0  0  0  0  0  0  0  0  0
   -2.6170   22.5890  -29.6180 C   0  0  0  0  0  0  0  0  0  0  0  0
   -3.7450   21.9260  -30.1330 C   0  0  0  0  0  0  0  0  0  0  0  0
   -3.8520   20.6730  -30.0250 O   0  0  0  0  0  0  0  0  0  0  0  0
   -4.7620   22.6770  -30.7580 C   0  0  0  0  0  0  0  0  0  0  0  0
   -5.9730   22.0370  -31.3330 C   0  0  0  0  0  0  0  0  0  0  0  0
   -5.8490   21.0500  -32.3280 C   0  0  0  0  0  0  0  0  0  0  0  0
   -6.9860   20.4420  -32.8680 C   0  0  0  0  0  0  0  0  0  0  0  0
   -8.2560   20.8080  -32.4200 C   0  0  0  0  0  0  0  0  0  0  0  0
   -9.3570   20.2190  -32.9480 F   0  0  0  0  0  0  0  0  0  0  0  0
   -8.3930   21.7870  -31.4290 C   0  0  0  0  0  0  0  0  0  0  0  0
   -7.2590   22.3970  -30.8850 C   0  0  0  0  0  0  0  0  0  0  0  0
   -4.6140   24.0720  -30.8170 C   0  0  0  0  0  0  0  0  0  0  0  0
   -3.5390   24.6670  -30.3140 O   0  0  0  0  0  0  0  0  0  0  0  0
   -2.5510   23.9940  -29.7340 C   0  0  0  0  0  0  0  0  0  0  0  0
   -1.4400   24.6870  -29.2460 C   0  0  0  0  0  0  0  0  0  0  0  0
   -4.8052   23.6367  -26.5384 H   0  0  0  0  0  0  0  0  0  0  0  0
   -4.8747   25.0468  -27.6489 H   0  0  0  0  0  0  0  0  0  0  0  0
   -3.4342   23.9738  -27.6489 H   0  0  0  0  0  0  0  0  0  0  0  0
   -3.8386   26.3513  -26.1420 H   0  0  0  0  0  0  0  0  0  0  0  0
   -3.9277   24.9535  -24.9754 H   0  0  0  0  0  0  0  0  0  0  0  0
   -1.7444   24.2411  -25.4710 H   0  0  0  0  0  0  0  0  0  0  0  0
   -1.6676   25.2348  -26.9763 H   0  0  0  0  0  0  0  0  0  0  0  0
   -1.1377   25.0059  -23.5525 H   0  0  0  0  0  0  0  0  0  0  0  0
    0.3677   25.5775  -24.4257 H   0  0  0  0  0  0  0  0  0  0  0  0
   -1.1919   27.6716  -22.9890 H   0  0  0  0  0  0  0  0  0  0  0  0
   -0.3444   26.4455  -21.9634 H   0  0  0  0  0  0  0  0  0  0  0  0
    1.4098   27.8970  -22.2038 H   0  0  0  0  0  0  0  0  0  0  0  0
    1.6324   26.9967  -23.7422 H   0  0  0  0  0  0  0  0  0  0  0  0
    0.7805   28.5782  -23.7422 H   0  0  0  0  0  0  0  0  0  0  0  0
   -1.4190   28.1330  -26.2517 H   0  0  0  0  0  0  0  0  0  0  0  0
    0.1698   27.6256  -25.5448 H   0  0  0  0  0  0  0  0  0  0  0  0
   -1.1942   26.0710  -27.7766 H   0  0  0  0  0  0  0  0  0  0  0  0
   -0.0579   27.4636  -28.0749 H   0  0  0  0  0  0  0  0  0  0  0  0
    1.7895   26.2858  -27.4513 H   0  0  0  0  0  0  0  0  0  0  0  0
    0.8720   25.2855  -26.2502 H   0  0  0  0  0  0  0  0  0  0  0  0
    0.3574   22.0541  -28.0078 H   0  0  0  0  0  0  0  0  0  0  0  0
   -1.6123   20.8066  -28.8811 H   0  0  0  0  0  0  0  0  0  0  0  0
   -4.8507   20.7548  -32.6833 H   0  0  0  0  0  0  0  0  0  0  0  0
   -6.8795   19.6734  -33.6477 H   0  0  0  0  0  0  0  0  0  0  0  0
   -9.3944   22.0767  -31.0778 H   0  0  0  0  0  0  0  0  0  0  0  0
   -7.3715   23.1623  -30.1029 H   0  0  0  0  0  0  0  0  0  0  0  0
   -5.4004   24.6809  -31.2869 H   0  0  0  0  0  0  0  0  0  0  0  0
   -1.4010   25.7833  -29.3276 H   0  0  0  0  0  0  0  0  0  0  0  0
  1  2  1  0
  2  3  1  0
  3  4  1  0
  4  5  1  0
  5  6  1  0
  6  7  1  0
  4  8  1  0
  8  9  1  0
  9 10  1  0
 10 11  1  0
 11 12  1  0
 12 13  2  0
 13 14  1  0
 14 15  2  0
 15 16  1  0
 16 17  2  0
 16 18  1  0
 18 19  1  0
 19 20  2  0
 20 21  1  0
 21 22  2  0
 22 23  1  0
 22 24  1  0
 24 25  2  0
 18 26  2  0
 26 27  1  0
 27 28  1  0
 28 29  2  0
 29 12  1  0
 28 15  1  0
 25 19  1  0
  1 30  1  0
  1 31  1  0
  1 32  1  0
  2 33  1  0
  2 34  1  0
  3 35  1  0
  3 36  1  0
  5 37  1  0
  5 38  1  0
  6 39  1  0
  6 40  1  0
  7 41  1  0
  7 42  1  0
  7 43  1  0
  8 44  1  0
  8 45  1  0
  9 46  1  0
  9 47  1  0
 10 48  1  0
 10 49  1  0
 13 50  1  0
 14 51  1  0
 20 52  1  0
 21 53  1  0
 24 54  1  0
 25 55  1  0
 26 56  1  0
 29 57  1  0
M  END
>  <UniqueID>  (2) 
2

>  <SMILES>  (2) 
CCCN(CCC)CCCOc1ccc2c(=O)c(-c3ccc(F)cc3)coc2c1

>  <Energy>  (2) 
68.2899641723994

>  <Genealogy>  (2) 
CCCN(CCC)CCCOc1ccc2c(=O)c(-c3ccc(F)cc3)coc2c1 (3D coordinates assigned)
CCCN(CCC)CCCOc1ccc2c(=O)c(-c3ccc(F)cc3)coc2c1 (optimized conformer: 68.2899641723994 kcal/mol)

>  <smiles>  (2) 
CCCN(CCC)CCCOc1ccc2c(=O)c(-c3ccc(F)cc3)coc2c1

>  <score_type>  (2) 
oracle

>  <origin>  (2) 
adg

>  <m_score__min__energy>  (2) 
-7.8499999999999996

>  <m_primary>  (2) 
energy

$$$$
2:0
     RDKit          3D

 34 35  0  0  0  0  0  0  0  0999 V2000
   -5.2760   24.7140  -29.0670 N   0  0  0  0  0  0  0  0  0  0  0  0
   -4.4980   24.3650  -30.2120 C   0  0  0  0  0  0  0  0  0  0  0  0
   -3.8670   25.2650  -30.8300 O   0  0  0  0  0  0  0  0  0  0  0  0
   -4.4580   22.9670  -30.7000 C   0  0  0  0  0  0  0  0  0  0  0  0
   -5.0180   22.6480  -32.0590 C   0  0  0  0  0  0  0  0  0  0  0  0
   -6.3840   22.0160  -31.9280 C   0  0  0  0  0  0  0  0  0  0  0  0
   -7.4200   22.7610  -31.3380 C   0  0  0  0  0  0  0  0  0  0  0  0
   -8.7070   22.2290  -31.2350 C   0  0  0  0  0  0  0  0  0  0  0  0
   -8.9770   20.9520  -31.7260 C   0  0  0  0  0  0  0  0  0  0  0  0
   -7.9620   20.2050  -32.3260 C   0  0  0  0  0  0  0  0  0  0  0  0
   -6.6660   20.7250  -32.4350 C   0  0  0  0  0  0  0  0  0  0  0  0
   -5.3360   19.6340  -33.2860 Br  0  0  0  0  0  0  0  0  0  0  0  0
   -3.8520   22.0130  -30.0470 N   0  0  0  0  0  0  0  0  0  0  0  0
   -3.5480   21.9580  -28.6440 C   0  0  0  0  0  0  0  0  0  0  0  0
   -4.0770   22.7770  -27.8440 O   0  0  0  0  0  0  0  0  0  0  0  0
   -2.6620   20.8890  -28.1260 C   0  0  0  0  0  0  0  0  0  0  0  0
   -3.1280   19.9800  -27.1570 C   0  0  0  0  0  0  0  0  0  0  0  0
   -2.2910   18.9710  -26.6720 C   0  0  0  0  0  0  0  0  0  0  0  0
   -0.9830   18.8550  -27.1480 C   0  0  0  0  0  0  0  0  0  0  0  0
   -0.5090   19.7470  -28.1120 C   0  0  0  0  0  0  0  0  0  0  0  0
    1.1340   19.5980  -28.7110 Cl  0  0  0  0  0  0  0  0  0  0  0  0
   -1.3430   20.7600  -28.6010 C   0  0  0  0  0  0  0  0  0  0  0  0
   -5.7570   23.9810  -28.5000 H   0  0  0  0  0  0  0  0  0  0  0  0
   -5.3340   25.7090  -28.7540 H   0  0  0  0  0  0  0  0  0  0  0  0
   -5.1020   23.5759  -32.6438 H   0  0  0  0  0  0  0  0  0  0  0  0
   -4.3444   21.9422  -32.5669 H   0  0  0  0  0  0  0  0  0  0  0  0
   -7.2151   23.7714  -30.9543 H   0  0  0  0  0  0  0  0  0  0  0  0
   -9.5089   22.8180  -30.7659 H   0  0  0  0  0  0  0  0  0  0  0  0
   -9.9905   20.5331  -31.6404 H   0  0  0  0  0  0  0  0  0  0  0  0
   -8.1816   19.2003  -32.7162 H   0  0  0  0  0  0  0  0  0  0  0  0
   -4.1576   20.0644  -26.7791 H   0  0  0  0  0  0  0  0  0  0  0  0
   -2.6634   18.2666  -25.9136 H   0  0  0  0  0  0  0  0  0  0  0  0
   -0.3262   18.0608  -26.7634 H   0  0  0  0  0  0  0  0  0  0  0  0
   -0.9651   21.4595  -29.3612 H   0  0  0  0  0  0  0  0  0  0  0  0
  1  2  1  0
  2  3  2  0
  2  4  1  0
  4  5  1  0
  5  6  1  0
  6  7  2  0
  7  8  1  0
  8  9  2  0
  9 10  1  0
 10 11  2  0
 11 12  1  0
  4 13  2  3
 13 14  1  0
 14 15  2  0
 14 16  1  0
 16 17  2  0
 17 18  1  0
 18 19  2  0
 19 20  1  0
 20 21  1  0
 20 22  2  0
 11  6  1  0
 22 16  1  0
  1 23  1  0
  1 24  1  0
  5 25  1  0
  5 26  1  0
  7 27  1  0
  8 28  1  0
  9 29  1  0
 10 30  1  0
 17 31  1  0
 18 32  1  0
 19 33  1  0
 22 34  1  0
M  END
>  <UniqueID>  (3) 
3

>  <SMILES>  (3) 
NC(=O)C(Cc1ccccc1Br)=NC(=O)c1cccc(Cl)c1

>  <Energy>  (3) 
41.97731158524024

>  <Genealogy>  (3) 
NC(=O)C(Cc1ccccc1Br)=NC(=O)c1cccc(Cl)c1 (3D coordinates assigned)
NC(=O)C(Cc1ccccc1Br)=NC(=O)c1cccc(Cl)c1 (optimized conformer: 41.97731158524024 kcal/mol)

>  <smiles>  (3) 
NC(=O)C(Cc1ccccc1Br)=NC(=O)c1cccc(Cl)c1

>  <score_type>  (3) 
oracle

>  <origin>  (3) 
adg

>  <m_score__min__energy>  (3) 
-9.6999999999999993

>  <m_primary>  (3) 
energy

$$$$
3:0
     RDKit          3D

 34 36  0  0  0  0  0  0  0  0999 V2000
   -2.9700   25.6620  -28.9690 H   0  0  0  0  0  0  0  0  0  0  0  0
   -2.8970   24.9210  -29.7010 N   0  0  0  0  0  0  0  0  0  0  0  0
   -3.9360   24.5310  -30.3640 C   0  0  0  0  0  0  0  0  0  0  0  0
   -4.0010   23.3370  -30.9850 N   0  0  0  0  0  0  0  0  0  0  0  0
   -5.1960   23.1710  -31.6190 C   0  0  0  0  0  0  0  0  0  0  0  0
   -5.5560   21.9170  -32.3190 C   0  0  0  0  0  0  0  0  0  0  0  0
   -4.6030   21.3450  -33.0870 N   0  0  0  0  0  0  0  0  0  0  0  0
   -4.8250   20.2510  -33.8060 N   0  0  0  0  0  0  0  0  0  0  0  0
   -4.0270   19.8670  -34.3620 H   0  0  0  0  0  0  0  0  0  0  0  0
   -6.0300   19.6160  -33.8370 C   0  0  0  0  0  0  0  0  0  0  0  0
   -6.0630   18.5150  -34.5520 N   0  0  0  0  0  0  0  0  0  0  0  0
   -6.0110   17.0740  -34.2980 C   0  0  0  0  0  0  0  0  0  0  0  0
   -6.7425   16.5601  -34.9389 H   0  0  0  0  0  0  0  0  0  0  0  0
   -4.5890   16.5920  -34.5930 C   0  0  0  0  0  0  0  0  0  0  0  0
   -4.0589   16.4123  -33.6461 H   0  0  0  0  0  0  0  0  0  0  0  0
   -4.6313   15.6580  -35.1725 H   0  0  0  0  0  0  0  0  0  0  0  0
   -4.0546   17.3592  -35.1725 H   0  0  0  0  0  0  0  0  0  0  0  0
   -6.3520   16.7710  -32.8300 C   0  0  0  0  0  0  0  0  0  0  0  0
   -5.6930   17.3566  -32.1721 H   0  0  0  0  0  0  0  0  0  0  0  0
   -7.4001   17.0412  -32.6337 H   0  0  0  0  0  0  0  0  0  0  0  0
   -6.2069   15.6984  -32.6337 H   0  0  0  0  0  0  0  0  0  0  0  0
   -7.1120   20.1760  -33.0720 C   0  0  0  0  0  0  0  0  0  0  0  0
   -8.4430   19.6900  -33.0730 C   0  0  0  0  0  0  0  0  0  0  0  0
   -8.7105   18.8589  -33.7422 H   0  0  0  0  0  0  0  0  0  0  0  0
   -9.4220   20.2400  -32.2460 C   0  0  0  0  0  0  0  0  0  0  0  0
  -10.4448   19.8357  -32.2660 H   0  0  0  0  0  0  0  0  0  0  0  0
   -9.1140   21.2930  -31.3990 C   0  0  0  0  0  0  0  0  0  0  0  0
   -9.8811   21.6999  -30.7237 H   0  0  0  0  0  0  0  0  0  0  0  0
   -7.8350   21.8330  -31.4050 C   0  0  0  0  0  0  0  0  0  0  0  0
   -7.5965   22.6684  -30.7303 H   0  0  0  0  0  0  0  0  0  0  0  0
   -6.8360   21.3260  -32.2640 C   0  0  0  0  0  0  0  0  0  0  0  0
   -6.0930   24.2300  -31.4660 C   0  0  0  0  0  0  0  0  0  0  0  0
   -7.1117   24.2763  -31.8784 H   0  0  0  0  0  0  0  0  0  0  0  0
   -5.3480   25.4240  -30.5420 S   0  0  0  0  0  0  0  0  0  0  0  0
  1  2  1  0
  2  3  2  0
  3  4  1  0
  4  5  1  0
  5  6  1  0
  6  7  2  0
  7  8  1  0
  8  9  1  0
  8 10  1  0
 10 11  2  0
 11 12  1  0
 12 13  1  0
 12 14  1  0
 14 15  1  0
 14 16  1  0
 14 17  1  0
 12 18  1  0
 18 19  1  0
 18 20  1  0
 18 21  1  0
 10 22  1  0
 22 23  2  0
 23 24  1  0
 23 25  1  0
 25 26  1  0
 25 27  2  0
 27 28  1  0
 27 29  1  0
 29 30  1  0
 29 31  2  0
  5 32  2  0
 32 33  1  0
 32 34  1  0
 34  3  1  0
 31  6  1  0
 31 22  1  0
M  CHG  1   4  -1
M  END
>  <UniqueID>  (4) 
4

>  <SMILES>  (4) 
[H]/N=c1/[n-]c(-c2n[nH]/c(=N/C(C)C)c3ccccc23)cs1

>  <Energy>  (4) 
92.39909366895691

>  <Genealogy>  (4) 
CC(C)N=c1[nH]nc(-c2csc(=N)[n-]2)c2ccccc12 (protonated)
[H]/N=c1/[n-]c(-c2n[nH]/c(=N/C(C)C)c3ccccc23)cs1 (cis-trans isomerization)
[H]/N=c1/[n-]c(-c2n[nH]/c(=N/C(C)C)c3ccccc23)cs1 (3D coordinates assigned)
[H]/N=c1/[n-]c(-c2n[nH]/c(=N/C(C)C)c3ccccc23)cs1 (optimized conformer: 92.39909366895691 kcal/mol)

>  <smiles>  (4) 
CC(C)N=c1[nH]nc(-c2csc(=N)[nH]2)c2ccccc12

>  <score_type>  (4) 
oracle

>  <origin>  (4) 
adg

>  <m_score__min__energy>  (4) 
-9.8100000000000005

>  <m_primary>  (4) 
energy

$$$$
4:0
     RDKit          3D

 24 26  0  0  0  0  0  0  0  0999 V2000
   -6.6080   18.7840  -33.4620 C   0  0  0  0  0  0  0  0  0  0  0  0
   -7.2430   19.9220  -32.7050 C   0  0  0  0  0  0  0  0  0  0  0  0
   -8.5990   19.8290  -32.3470 C   0  0  0  0  0  0  0  0  0  0  0  0
   -9.2270   20.8600  -31.6460 C   0  0  0  0  0  0  0  0  0  0  0  0
   -8.5160   22.0030  -31.2850 C   0  0  0  0  0  0  0  0  0  0  0  0
   -7.1600   22.1260  -31.6270 C   0  0  0  0  0  0  0  0  0  0  0  0
   -6.5090   21.0810  -32.3430 C   0  0  0  0  0  0  0  0  0  0  0  0
   -5.1350   21.2420  -32.6720 C   0  0  0  0  0  0  0  0  0  0  0  0
   -4.4380   22.4000  -32.3000 C   0  0  0  0  0  0  0  0  0  0  0  0
   -5.1360   23.3770  -31.6020 C   0  0  0  0  0  0  0  0  0  0  0  0
   -4.6610   24.5510  -31.1570 N   0  0  0  0  0  0  0  0  0  0  0  0
   -5.6610   25.1760  -30.5470 N   0  0  0  0  0  0  0  0  0  0  0  0
   -6.7400   24.3630  -30.6330 C   0  0  0  0  0  0  0  0  0  0  0  0
   -6.4300   23.2270  -31.2930 N   0  0  0  0  0  0  0  0  0  0  0  0
   -6.1997   18.0522  -32.7494 H   0  0  0  0  0  0  0  0  0  0  0  0
   -7.3647   18.2969  -34.0946 H   0  0  0  0  0  0  0  0  0  0  0  0
   -5.7961   19.1722  -34.0946 H   0  0  0  0  0  0  0  0  0  0  0  0
   -9.1729   18.9320  -32.6228 H   0  0  0  0  0  0  0  0  0  0  0  0
  -10.2897   20.7697  -31.3769 H   0  0  0  0  0  0  0  0  0  0  0  0
   -9.0181   22.8100  -30.7312 H   0  0  0  0  0  0  0  0  0  0  0  0
   -4.6124   20.4478  -33.2254 H   0  0  0  0  0  0  0  0  0  0  0  0
   -3.3752   22.5303  -32.5521 H   0  0  0  0  0  0  0  0  0  0  0  0
   -3.6920   24.9250  -31.2590 H   0  0  0  0  0  0  0  0  0  0  0  0
   -7.7331   24.5961  -30.2215 H   0  0  0  0  0  0  0  0  0  0  0  0
  1  2  1  0
  2  3  2  0
  3  4  1  0
  4  5  2  0
  5  6  1  0
  6  7  2  0
  7  8  1  0
  8  9  2  0
  9 10  1  0
 10 11  2  0
 11 12  1  0
 12 13  2  0
 13 14  1  0
  7  2  1  0
 14 10  1  0
 14  6  1  0
  1 15  1  0
  1 16  1  0
  1 17  1  0
  3 18  1  0
  4 19  1  0
  5 20  1  0
  8 21  1  0
  9 22  1  0
 11 23  1  0
 13 24  1  0
M  CHG  1  11   1
M  END
>  <UniqueID>  (5) 
5

>  <SMILES>  (5) 
Cc1cccc2c1ccc1[nH+]ncn12

>  <Energy>  (5) 
73.29057481308902

>  <Genealogy>  (5) 
Cc1cccc2c1ccc1[nH+]ncn12 (protonated)
Cc1cccc2c1ccc1[nH+]ncn12 (3D coordinates assigned)
Cc1cccc2c1ccc1[nH+]ncn12 (optimized conformer: 73.29057481308902 kcal/mol)

>  <smiles>  (5) 
Cc1cccc2c1ccc1nncn12

>  <score_type>  (5) 
oracle

>  <origin>  (5) 
adg

>  <m_score__min__energy>  (5) 
-6.0300000000000002

>  <m_primary>  (5) 
energy

$$$$
5:0
     RDKit          3D

 44 47  0  0  0  0  0  0  0  0999 V2000
   -3.4850   21.7990  -28.8490 C   0  0  0  0  0  0  0  0  0  0  0  0
   -2.8540   22.0080  -30.2340 C   0  0  2  0  0  0  0  0  0  0  0  0
   -2.8660   23.4290  -30.6220 N   0  0  0  0  0  0  0  0  0  0  0  0
   -4.3270   24.3040  -30.2240 S   0  0  0  0  0  0  0  0  0  0  0  0
   -4.2450   25.6800  -30.8230 O   0  0  0  0  0  0  0  0  0  0  0  0
   -4.4880   24.4400  -28.7370 O   0  0  0  0  0  0  0  0  0  0  0  0
   -5.7300   23.4920  -30.8960 C   0  0  0  0  0  0  0  0  0  0  0  0
   -6.0110   23.3380  -32.2470 C   0  0  0  0  0  0  0  0  0  0  0  0
   -7.2260   22.6870  -32.4810 C   0  0  0  0  0  0  0  0  0  0  0  0
   -7.8840   22.3280  -31.3130 C   0  0  0  0  0  0  0  0  0  0  0  0
   -9.4350   21.5240  -31.2230 Cl  0  0  0  0  0  0  0  0  0  0  0  0
   -6.9710   22.8120  -29.9870 S   0  0  0  0  0  0  0  0  0  0  0  0
   -3.4200   21.0890  -31.3090 C   0  0  0  0  0  0  0  0  0  0  0  0
   -4.6740   20.5770  -31.1140 N   0  0  0  0  0  0  0  0  0  0  0  0
   -5.2550   19.8060  -32.0580 C   0  0  0  0  0  0  0  0  0  0  0  0
   -6.5330   19.2520  -31.9710 C   0  0  0  0  0  0  0  0  0  0  0  0
   -6.8740   18.5300  -33.1140 C   0  0  0  0  0  0  0  0  0  0  0  0
   -5.5870   18.5940  -34.2130 S   0  0  0  0  0  0  0  0  0  0  0  0
   -4.6030   19.5360  -33.2310 C   0  0  0  0  0  0  0  0  0  0  0  0
   -3.3330   20.0420  -33.4610 C   0  0  0  0  0  0  0  0  0  0  0  0
   -2.7510   19.7840  -34.5510 O   0  0  0  0  0  0  0  0  0  0  0  0
   -2.7350   20.8210  -32.4920 N   0  0  0  0  0  0  0  0  0  0  0  0
   -1.3710   21.3470  -32.7270 C   0  0  0  0  0  0  0  0  0  0  0  0
   -0.3140   20.3830  -32.2390 C   0  0  0  0  0  0  0  0  0  0  0  0
   -0.3520   19.9070  -30.9170 C   0  0  0  0  0  0  0  0  0  0  0  0
    0.6360   19.0350  -30.4510 C   0  0  0  0  0  0  0  0  0  0  0  0
    1.6770   18.6400  -31.2950 C   0  0  0  0  0  0  0  0  0  0  0  0
    1.7350   19.1220  -32.6050 C   0  0  0  0  0  0  0  0  0  0  0  0
    0.7500   19.9960  -33.0750 C   0  0  0  0  0  0  0  0  0  0  0  0
   -2.7480   22.0431  -28.0697 H   0  0  0  0  0  0  0  0  0  0  0  0
   -4.3618   22.4547  -28.7428 H   0  0  0  0  0  0  0  0  0  0  0  0
   -3.7970   20.7495  -28.7428 H   0  0  0  0  0  0  0  0  0  0  0  0
   -1.7997   21.7075  -30.1439 H   0  0  0  0  0  0  0  0  0  0  0  0
   -5.3469   23.6914  -33.0496 H   0  0  0  0  0  0  0  0  0  0  0  0
   -7.6198   22.4806  -33.4872 H   0  0  0  0  0  0  0  0  0  0  0  0
   -7.1951   19.3713  -31.1007 H   0  0  0  0  0  0  0  0  0  0  0  0
   -7.8261   18.0034  -33.2759 H   0  0  0  0  0  0  0  0  0  0  0  0
   -1.2328   21.5130  -33.8056 H   0  0  0  0  0  0  0  0  0  0  0  0
   -1.2633   22.2888  -32.1690 H   0  0  0  0  0  0  0  0  0  0  0  0
   -1.1639   20.2225  -30.2453 H   0  0  0  0  0  0  0  0  0  0  0  0
    0.5939   18.6591  -29.4181 H   0  0  0  0  0  0  0  0  0  0  0  0
    2.4508   17.9496  -30.9281 H   0  0  0  0  0  0  0  0  0  0  0  0
    2.5569   18.8134  -33.2678 H   0  0  0  0  0  0  0  0  0  0  0  0
    0.8070   20.3830  -34.1031 H   0  0  0  0  0  0  0  0  0  0  0  0
  1  2  1  0
  2  3  1  0
  3  4  1  0
  4  5  2  0
  4  6  2  0
  4  7  1  0
  7  8  2  0
  8  9  1  0
  9 10  2  0
 10 11  1  0
 10 12  1  0
  2 13  1  0
 13 14  2  0
 14 15  1  0
 15 16  1  0
 16 17  2  0
 17 18  1  0
 18 19  1  0
 19 20  1  0
 20 21  2  0
 20 22  1  0
 22 23  1  0
 23 24  1  0
 24 25  2  0
 25 26  1  0
 26 27  2  0
 27 28  1  0
 28 29  2  0
 12  7  1  0
 22 13  1  0
 29 24  1  0
 19 15  2  0
  1 30  1  0
  1 31  1  0
  1 32  1  0
  2 33  1  1
  8 34  1  0
  9 35  1  0
 16 36  1  0
 17 37  1  0
 23 38  1  0
 23 39  1  0
 25 40  1  0
 26 41  1  0
 27 42  1  0
 28 43  1  0
 29 44  1  0
M  CHG  1   3  -1
M  END
>  <UniqueID>  (6) 
6

>  <SMILES>  (6) 
C[C@H]([N-]S(=O)(=O)c1ccc(Cl)s1)c1nc2ccsc2c(=O)n1Cc1ccccc1

>  <Energy>  (6) 
110.36696226941254

>  <Genealogy>  (6) 
CC([N-]S(=O)(=O)c1ccc(Cl)s1)c1nc2ccsc2c(=O)n1Cc1ccccc1 (protonated)
C[C@H]([N-]S(=O)(=O)c1ccc(Cl)s1)c1nc2ccsc2c(=O)n1Cc1ccccc1 (chirality)
C[C@H]([N-]S(=O)(=O)c1ccc(Cl)s1)c1nc2ccsc2c(=O)n1Cc1ccccc1 (3D coordinates assigned)
C[C@H]([N-]S(=O)(=O)c1ccc(Cl)s1)c1nc2ccsc2c(=O)n1Cc1ccccc1 (optimized conformer: 110.36696226941254 kcal/mol)

>  <smiles>  (6) 
CC(NS(=O)(=O)c1ccc(Cl)s1)c1nc2ccsc2c(=O)n1Cc1ccccc1

>  <score_type>  (6) 
oracle

>  <origin>  (6) 
adg

>  <m_score__min__energy>  (6) 
-10.6

>  <m_primary>  (6) 
energy

$$$$
6:0
     RDKit          3D

 50 53  0  0  0  0  0  0  0  0999 V2000
   -2.8330   21.4630  -33.3390 C   0  0  0  0  0  0  0  0  0  0  0  0
   -2.1070   21.9030  -32.2130 O   0  0  0  0  0  0  0  0  0  0  0  0
   -1.0500   21.0060  -31.9170 C   0  0  0  0  0  0  0  0  0  0  0  0
   -0.3700   21.4210  -30.6120 C   0  0  0  0  0  0  0  0  0  0  0  0
   -1.2920   22.0800  -29.7430 O   0  0  0  0  0  0  0  0  0  0  0  0
   -1.0220   23.2200  -28.9630 C   0  0  0  0  0  0  0  0  0  0  0  0
    0.1310   23.3090  -28.1540 C   0  0  0  0  0  0  0  0  0  0  0  0
    0.3770   24.4520  -27.3930 C   0  0  0  0  0  0  0  0  0  0  0  0
   -0.5160   25.5200  -27.4260 C   0  0  0  0  0  0  0  0  0  0  0  0
   -1.6610   25.4500  -28.2200 C   0  0  0  0  0  0  0  0  0  0  0  0
   -1.9280   24.3050  -28.9940 C   0  0  0  0  0  0  0  0  0  0  0  0
   -3.1610   24.2570  -29.8150 C   0  0  0  0  0  0  0  0  0  0  0  0
   -3.8830   23.1380  -30.0290 N   0  0  0  0  0  0  0  0  0  0  0  0
   -4.8770   23.5990  -30.8170 C   0  0  0  0  0  0  0  0  0  0  0  0
   -5.9680   22.7530  -31.3470 C   0  0  0  0  0  0  0  0  0  0  0  0
   -7.2920   23.2160  -31.3440 C   0  0  0  0  0  0  0  0  0  0  0  0
   -8.3080   22.3990  -31.8400 C   0  0  0  0  0  0  0  0  0  0  0  0
   -8.0150   21.1660  -32.3260 N   0  0  0  0  0  0  0  0  0  0  0  0
   -6.7430   20.6790  -32.3570 C   0  0  0  0  0  0  0  0  0  0  0  0
   -6.4990   19.3590  -32.8910 N   0  0  0  0  0  0  0  0  0  0  0  0
   -6.9860   18.1830  -32.1570 C   0  0  0  0  0  0  0  0  0  0  0  0
   -7.2380   17.0230  -33.1230 C   0  0  0  0  0  0  0  0  0  0  0  0
   -6.1020   16.7880  -33.9330 O   0  0  0  0  0  0  0  0  0  0  0  0
   -5.8850   17.9000  -34.7780 C   0  0  0  0  0  0  0  0  0  0  0  0
   -5.5170   19.1430  -33.9610 C   0  0  0  0  0  0  0  0  0  0  0  0
   -5.6950   21.4740  -31.8580 C   0  0  0  0  0  0  0  0  0  0  0  0
   -4.7620   24.9200  -31.0640 N   0  0  0  0  0  0  0  0  0  0  0  0
   -3.6920   25.2870  -30.4300 O   0  0  0  0  0  0  0  0  0  0  0  0
   -3.7300   20.9194  -33.0074 H   0  0  0  0  0  0  0  0  0  0  0  0
   -3.1332   22.3313  -33.9440 H   0  0  0  0  0  0  0  0  0  0  0  0
   -2.2022   20.7951  -33.9440 H   0  0  0  0  0  0  0  0  0  0  0  0
   -1.4534   19.9881  -31.8111 H   0  0  0  0  0  0  0  0  0  0  0  0
   -0.3138   21.0293  -32.7340 H   0  0  0  0  0  0  0  0  0  0  0  0
    0.0209   20.5243  -30.1088 H   0  0  0  0  0  0  0  0  0  0  0  0
    0.4483   22.1170  -30.8485 H   0  0  0  0  0  0  0  0  0  0  0  0
    0.8417   22.4700  -28.1233 H   0  0  0  0  0  0  0  0  0  0  0  0
    1.2785   24.5098  -26.7654 H   0  0  0  0  0  0  0  0  0  0  0  0
   -0.3184   26.4200  -26.8252 H   0  0  0  0  0  0  0  0  0  0  0  0
   -2.3618   26.2976  -28.2414 H   0  0  0  0  0  0  0  0  0  0  0  0
   -7.5276   24.2168  -30.9531 H   0  0  0  0  0  0  0  0  0  0  0  0
   -9.3489   22.7547  -31.8373 H   0  0  0  0  0  0  0  0  0  0  0  0
   -6.2326   17.8804  -31.4148 H   0  0  0  0  0  0  0  0  0  0  0  0
   -7.9288   18.4405  -31.6522 H   0  0  0  0  0  0  0  0  0  0  0  0
   -7.4629   16.1146  -32.5449 H   0  0  0  0  0  0  0  0  0  0  0  0
   -8.0866   17.2832  -33.7727 H   0  0  0  0  0  0  0  0  0  0  0  0
   -5.0641   17.6696  -35.4730 H   0  0  0  0  0  0  0  0  0  0  0  0
   -6.8118   18.1059  -35.3335 H   0  0  0  0  0  0  0  0  0  0  0  0
   -4.5207   19.0030  -33.5162 H   0  0  0  0  0  0  0  0  0  0  0  0
   -5.5134   20.0196  -34.6255 H   0  0  0  0  0  0  0  0  0  0  0  0
   -4.6628   21.0940  -31.8682 H   0  0  0  0  0  0  0  0  0  0  0  0
  1  2  1  0
  2  3  1  0
  3  4  1  0
  4  5  1  0
  5  6  1  0
  6  7  2  0
  7  8  1  0
  8  9  2  0
  9 10  1  0
 10 11  2  0
 11 12  1  0
 12 13  2  0
 13 14  1  0
 14 15  1  0
 15 16  2  0
 16 17  1  0
 17 18  2  0
 18 19  1  0
 19 20  1  0
 20 21  1  0
 21 22  1  0
 22 23  1  0
 23 24  1  0
 24 25  1  0
 19 26  2  0
 14 27  2  0
 27 28  1  0
 11  6  1  0
 28 12  1  0
 26 15  1  0
 25 20  1  0
  1 29  1  0
  1 30  1  0
  1 31  1  0
  3 32  1  0
  3 33  1  0
  4 34  1  0
  4 35  1  0
  7 36  1  0
  8 37  1  0
  9 38  1  0
 10 39  1  0
 16 40  1  0
 17 41  1  0
 21 42  1  0
 21 43  1  0
 22 44  1  0
 22 45  1  0
 24 46  1  0
 24 47  1  0
 25 48  1  0
 25 49  1  0
 26 50  1  0
M  END
>  <UniqueID>  (7) 
7

>  <SMILES>  (7) 
COCCOc1ccccc1-c1nc(-c2ccnc(N3CCOCC3)c2)no1

>  <Energy>  (7) 
93.22457335223942

>  <Genealogy>  (7) 
COCCOc1ccccc1-c1nc(-c2ccnc(N3CCOCC3)c2)no1 (3D coordinates assigned)
COCCOc1ccccc1-c1nc(-c2ccnc(N3CCOCC3)c2)no1 (nonaromatic ring conformer: 93.22457335223942 kcal/mol)

>  <smiles>  (7) 
COCCOc1ccccc1-c1nc(-c2ccnc(N3CCOCC3)c2)no1

>  <score_type>  (7) 
oracle

>  <origin>  (7) 
adg

>  <m_score__min__energy>  (7) 
-9.1999999999999993

>  <m_primary>  (7) 
energy

$$$$
7:0
     RDKit          3D

 50 53  0  0  0  0  0  0  0  0999 V2000
   -9.1160   18.1770  -31.4940 C   0  0  0  0  0  0  0  0  0  0  0  0
   -8.6540   18.7630  -32.7060 O   0  0  0  0  0  0  0  0  0  0  0  0
   -7.3020   18.9020  -33.0570 C   0  0  0  0  0  0  0  0  0  0  0  0
   -6.5190   17.8040  -33.4680 C   0  0  0  0  0  0  0  0  0  0  0  0
   -5.1700   17.9810  -33.7910 C   0  0  0  0  0  0  0  0  0  0  0  0
   -4.5910   19.2480  -33.7120 C   0  0  0  0  0  0  0  0  0  0  0  0
   -5.3570   20.3430  -33.3090 C   0  0  0  0  0  0  0  0  0  0  0  0
   -6.7100   20.1770  -32.9770 C   0  0  0  0  0  0  0  0  0  0  0  0
   -7.4890   21.3090  -32.5630 N   0  0  0  0  0  0  0  0  0  0  0  0
   -8.7860   21.2690  -32.3000 N   0  0  0  0  0  0  0  0  0  0  0  0
   -9.2330   22.4490  -31.9010 N   0  0  0  0  0  0  0  0  0  0  0  0
   -8.1730   23.2850  -31.9040 C   0  0  0  0  0  0  0  0  0  0  0  0
   -7.0700   22.5700  -32.3300 C   0  0  0  0  0  0  0  0  0  0  0  0
   -5.6450   23.0560  -32.3190 C   0  0  0  0  0  0  0  0  0  0  0  0
   -4.9740   22.6990  -31.0510 N   0  0  0  0  0  0  0  0  0  0  0  0
   -5.5850   23.4050  -29.8940 C   0  0  0  0  0  0  0  0  0  0  0  0
   -4.7350   24.5730  -29.3730 C   0  0  0  0  0  0  0  0  0  0  0  0
   -3.3840   24.1040  -29.0380 N   0  0  0  0  0  0  0  0  0  0  0  0
   -2.6030   24.7680  -28.0200 C   0  0  0  0  0  0  0  0  0  0  0  0
   -1.3340   25.3000  -28.3210 C   0  0  0  0  0  0  0  0  0  0  0  0
   -0.5800   25.9390  -27.3320 C   0  0  0  0  0  0  0  0  0  0  0  0
   -1.0820   26.0560  -26.0340 C   0  0  0  0  0  0  0  0  0  0  0  0
   -0.3490   26.6760  -25.0770 F   0  0  0  0  0  0  0  0  0  0  0  0
   -2.3390   25.5330  -25.7220 C   0  0  0  0  0  0  0  0  0  0  0  0
   -3.0970   24.8910  -26.7070 C   0  0  0  0  0  0  0  0  0  0  0  0
   -2.8280   22.9680  -29.7840 C   0  0  0  0  0  0  0  0  0  0  0  0
   -3.5000   22.8620  -31.1560 C   0  0  0  0  0  0  0  0  0  0  0  0
   -8.6883   18.7196  -30.6380 H   0  0  0  0  0  0  0  0  0  0  0  0
  -10.2137   18.2353  -31.4536 H   0  0  0  0  0  0  0  0  0  0  0  0
   -8.8031   17.1232  -31.4536 H   0  0  0  0  0  0  0  0  0  0  0  0
   -6.9713   16.8035  -33.5349 H   0  0  0  0  0  0  0  0  0  0  0  0
   -4.5640   17.1195  -34.1081 H   0  0  0  0  0  0  0  0  0  0  0  0
   -3.5298   19.3841  -33.9676 H   0  0  0  0  0  0  0  0  0  0  0  0
   -4.8977   21.3409  -33.2514 H   0  0  0  0  0  0  0  0  0  0  0  0
   -9.3850   20.4180  -32.3920 H   0  0  0  0  0  0  0  0  0  0  0  0
   -8.1852   24.3471  -31.6180 H   0  0  0  0  0  0  0  0  0  0  0  0
   -5.1010   22.5946  -33.1563 H   0  0  0  0  0  0  0  0  0  0  0  0
   -5.6472   24.1515  -32.4183 H   0  0  0  0  0  0  0  0  0  0  0  0
   -6.5648   23.7978  -30.2033 H   0  0  0  0  0  0  0  0  0  0  0  0
   -5.6688   22.6746  -29.0758 H   0  0  0  0  0  0  0  0  0  0  0  0
   -4.6685   25.3493  -30.1495 H   0  0  0  0  0  0  0  0  0  0  0  0
   -5.2068   24.9867  -28.4695 H   0  0  0  0  0  0  0  0  0  0  0  0
   -0.9332   25.2121  -29.3416 H   0  0  0  0  0  0  0  0  0  0  0  0
    0.4104   26.3503  -27.5767 H   0  0  0  0  0  0  0  0  0  0  0  0
   -2.7338   25.6261  -24.6995 H   0  0  0  0  0  0  0  0  0  0  0  0
   -4.0854   24.4796  -26.4543 H   0  0  0  0  0  0  0  0  0  0  0  0
   -1.7463   23.1153  -29.9188 H   0  0  0  0  0  0  0  0  0  0  0  0
   -3.0114   22.0416  -29.2200 H   0  0  0  0  0  0  0  0  0  0  0  0
   -3.2851   23.7774  -31.7269 H   0  0  0  0  0  0  0  0  0  0  0  0
   -3.0978   21.9707  -31.6598 H   0  0  0  0  0  0  0  0  0  0  0  0
  1  2  1  0
  2  3  1  0
  3  4  2  0
  4  5  1  0
  5  6  2  0
  6  7  1  0
  7  8  2  0
  8  9  1  0
  9 10  1  0
 10 11  2  0
 11 12  1  0
 12 13  2  0
 13 14  1  0
 14 15  1  0
 15 16  1  0
 16 17  1  0
 17 18  1  0
 18 19  1  0
 19 20  2  0
 20 21  1  0
 21 22  2  0
 22 23  1  0
 22 24  1  0
 24 25  2  0
 18 26  1  0
 26 27  1  0
  8  3  1  0
 13  9  1  0
 27 15  1  0
 25 19  1  0
  1 28  1  0
  1 29  1  0
  1 30  1  0
  4 31  1  0
  5 32  1  0
  6 33  1  0
  7 34  1  0
 10 35  1  0
 12 36  1  0
 14 37  1  0
 14 38  1  0
 16 39  1  0
 16 40  1  0
 17 41  1  0
 17 42  1  0
 20 43  1  0
 21 44  1  0
 24 45  1  0
 25 46  1  0
 26 47  1  0
 26 48  1  0
 27 49  1  0
 27 50  1  0
M  CHG  1  10   1
M  END
>  <UniqueID>  (8) 
8

>  <SMILES>  (8) 
COc1ccccc1-n1[nH+]ncc1CN1CCN(c2ccc(F)cc2)CC1

>  <Energy>  (8) 
103.0933800180578

>  <Genealogy>  (8) 
COc1ccccc1-n1[nH+]ncc1CN1CCN(c2ccc(F)cc2)CC1 (protonated)
COc1ccccc1-n1[nH+]ncc1CN1CCN(c2ccc(F)cc2)CC1 (3D coordinates assigned)
COc1ccccc1-n1[nH+]ncc1CN1CCN(c2ccc(F)cc2)CC1 (nonaromatic ring conformer: 103.0933800180578 kcal/mol)

>  <smiles>  (8) 
COc1ccccc1-n1nncc1CN1CCN(c2ccc(F)cc2)CC1

>  <score_type>  (8) 
oracle

>  <origin>  (8) 
adg

>  <m_score__min__energy>  (8) 
-7.9400000000000004

>  <m_primary>  (8) 
energy

$$$$
8:0
     RDKit          3D

 58 60  0  0  0  0  0  0  0  0999 V2000
   -1.1910   24.6130  -25.7290 C   0  0  0  0  0  0  0  0  0  0  0  0
   -1.6570   26.0020  -25.5980 N   0  0  0  0  0  0  0  0  0  0  0  0
   -1.1840   26.5660  -24.3210 C   0  0  0  0  0  0  0  0  0  0  0  0
   -1.1970   26.8200  -26.7410 C   0  0  0  0  0  0  0  0  0  0  0  0
   -0.6470   25.9350  -27.8650 C   0  0  0  0  0  0  0  0  0  0  0  0
   -1.6090   25.7820  -28.9100 O   0  0  0  0  0  0  0  0  0  0  0  0
   -2.2240   24.5810  -29.3030 C   0  0  0  0  0  0  0  0  0  0  0  0
   -1.3990   23.5280  -29.7140 C   0  0  0  0  0  0  0  0  0  0  0  0
   -1.9510   22.3190  -30.1470 C   0  0  0  0  0  0  0  0  0  0  0  0
   -3.3420   22.1460  -30.1770 C   0  0  0  0  0  0  0  0  0  0  0  0
   -3.9350   20.8710  -30.7080 C   0  0  0  0  0  0  0  0  0  0  0  0
   -4.3630   21.0590  -32.1020 N   0  0  0  0  0  0  0  0  0  0  0  0
   -3.5890   20.4720  -33.2010 C   0  0  0  0  0  0  0  0  0  0  0  0
   -5.4540   21.9520  -32.3970 C   0  0  0  0  0  0  0  0  0  0  0  0
   -5.2040   23.1460  -32.7150 O   0  0  0  0  0  0  0  0  0  0  0  0
   -6.8650   21.5050  -32.3460 C   0  0  0  0  0  0  0  0  0  0  0  0
   -7.7520   22.1270  -31.4540 C   0  0  0  0  0  0  0  0  0  0  0  0
   -9.0720   21.6940  -31.3600 C   0  0  0  0  0  0  0  0  0  0  0  0
   -9.5020   20.6330  -32.1550 C   0  0  0  0  0  0  0  0  0  0  0  0
   -8.6340   20.0210  -33.0050 N   0  0  0  0  0  0  0  0  0  0  0  0
   -7.3300   20.4130  -33.1080 C   0  0  0  0  0  0  0  0  0  0  0  0
   -6.4550   19.7490  -33.9810 O   0  0  0  0  0  0  0  0  0  0  0  0
   -5.9740   18.4480  -33.7940 C   0  0  0  0  0  0  0  0  0  0  0  0
   -6.2000   17.7450  -32.5960 C   0  0  0  0  0  0  0  0  0  0  0  0
   -5.6650   16.4650  -32.4210 C   0  0  0  0  0  0  0  0  0  0  0  0
   -4.9070   15.8790  -33.4390 C   0  0  0  0  0  0  0  0  0  0  0  0
   -4.6760   16.5750  -34.6290 C   0  0  0  0  0  0  0  0  0  0  0  0
   -5.2070   17.8560  -34.8050 C   0  0  0  0  0  0  0  0  0  0  0  0
   -4.1730   23.2000  -29.7710 C   0  0  0  0  0  0  0  0  0  0  0  0
   -3.6210   24.4060  -29.3280 C   0  0  0  0  0  0  0  0  0  0  0  0
   -1.0455   24.1792  -24.7287 H   0  0  0  0  0  0  0  0  0  0  0  0
   -1.9410   24.0249  -26.2781 H   0  0  0  0  0  0  0  0  0  0  0  0
   -0.2380   24.5962  -26.2781 H   0  0  0  0  0  0  0  0  0  0  0  0
   -1.6437   26.0179  -23.4854 H   0  0  0  0  0  0  0  0  0  0  0  0
   -0.0895   26.4734  -24.2623 H   0  0  0  0  0  0  0  0  0  0  0  0
   -1.4658   27.6277  -24.2623 H   0  0  0  0  0  0  0  0  0  0  0  0
   -2.0436   27.4068  -27.1270 H   0  0  0  0  0  0  0  0  0  0  0  0
   -0.3927   27.4854  -26.3940 H   0  0  0  0  0  0  0  0  0  0  0  0
    0.2615   26.3988  -28.2768 H   0  0  0  0  0  0  0  0  0  0  0  0
   -0.4173   24.9423  -27.4504 H   0  0  0  0  0  0  0  0  0  0  0  0
   -0.3063   23.6528  -29.6962 H   0  0  0  0  0  0  0  0  0  0  0  0
   -1.2906   21.4991  -30.4659 H   0  0  0  0  0  0  0  0  0  0  0  0
   -3.1806   20.0717  -30.6630 H   0  0  0  0  0  0  0  0  0  0  0  0
   -4.8067   20.5954  -30.0962 H   0  0  0  0  0  0  0  0  0  0  0  0
   -2.7764   19.8557  -32.7889 H   0  0  0  0  0  0  0  0  0  0  0  0
   -4.2478   19.8444  -33.8192 H   0  0  0  0  0  0  0  0  0  0  0  0
   -3.1624   21.2757  -33.8192 H   0  0  0  0  0  0  0  0  0  0  0  0
   -7.4030   22.9602  -30.8264 H   0  0  0  0  0  0  0  0  0  0  0  0
   -9.7690   22.1847  -30.6648 H   0  0  0  0  0  0  0  0  0  0  0  0
  -10.5454   20.2898  -32.0950 H   0  0  0  0  0  0  0  0  0  0  0  0
   -8.9960   19.2410  -33.5990 H   0  0  0  0  0  0  0  0  0  0  0  0
   -6.7989   18.2035  -31.7954 H   0  0  0  0  0  0  0  0  0  0  0  0
   -5.8406   15.9191  -31.4823 H   0  0  0  0  0  0  0  0  0  0  0  0
   -4.4920   14.8693  -33.3034 H   0  0  0  0  0  0  0  0  0  0  0  0
   -4.0759   16.1143  -35.4275 H   0  0  0  0  0  0  0  0  0  0  0  0
   -5.0215   18.4015  -35.7420 H   0  0  0  0  0  0  0  0  0  0  0  0
   -5.2657   23.0774  -29.8012 H   0  0  0  0  0  0  0  0  0  0  0  0
   -4.2810   25.2216  -28.9976 H   0  0  0  0  0  0  0  0  0  0  0  0
  1  2  1  0
  2  3  1  0
  2  4  1  0
  4  5  1  0
  5  6  1  0
  6  7  1  0
  7  8  2  0
  8  9  1  0
  9 10  2  0
 10 11  1  0
 11 12  1  0
 12 13  1  0
 12 14  1  0
 14 15  2  0
 14 16  1  0
 16 17  2  0
 17 18  1  0
 18 19  2  0
 19 20  1  0
 20 21  2  0
 21 22  1  0
 22 23  1  0
 23 24  2  0
 24 25  1  0
 25 26  2  0
 26 27  1  0
 27 28  2  0
 10 29  1  0
 29 30  2  0
 30  7  1  0
 21 16  1  0
 28 23  1  0
  1 31  1  0
  1 32  1  0
  1 33  1  0
  3 34  1  0
  3 35  1  0
  3 36  1  0
  4 37  1  0
  4 38  1  0
  5 39  1  0
  5 40  1  0
  8 41  1  0
  9 42  1  0
 11 43  1  0
 11 44  1  0
 13 45  1  0
 13 46  1  0
 13 47  1  0
 17 48  1  0
 18 49  1  0
 19 50  1  0
 20 51  1  0
 24 52  1  0
 25 53  1  0
 26 54  1  0
 27 55  1  0
 28 56  1  0
 29 57  1  0
 30 58  1  0
M  CHG  1  20   1
M  END
>  <UniqueID>  (9) 
9

>  <SMILES>  (9) 
CN(C)CCOc1ccc(CN(C)C(=O)c2ccc[nH+]c2Oc2ccccc2)cc1

>  <Energy>  (9) 
63.92493538178079

>  <Genealogy>  (9) 
CN(C)CCOc1ccc(CN(C)C(=O)c2ccc[nH+]c2Oc2ccccc2)cc1 (protonated)
CN(C)CCOc1ccc(CN(C)C(=O)c2ccc[nH+]c2Oc2ccccc2)cc1 (3D coordinates assigned)
CN(C)CCOc1ccc(CN(C)C(=O)c2ccc[nH+]c2Oc2ccccc2)cc1 (optimized conformer: 63.92493538178079 kcal/mol)

>  <smiles>  (9) 
CN(C)CCOc1ccc(CN(C)C(=O)c2cccnc2Oc2ccccc2)cc1

>  <score_type>  (9) 
oracle

>  <origin>  (9) 
adg

>  <m_score__min__energy>  (9) 
-8.2400000000000002

>  <m_primary>  (9) 
energy

$$$$
9:0
     RDKit          3D

 39 40  0  0  0  0  0  0  0  0999 V2000
   -0.6999   27.8636  -28.2192 H   0  0  0  0  0  0  0  0  0  0  0  0
   -0.8520   26.8030  -27.9700 C   0  0  0  0  0  0  0  0  0  0  0  0
   -1.1620   25.9150  -28.9490 N   0  0  0  0  0  0  0  0  0  0  0  0
   -1.3720   24.5930  -28.6990 C   0  0  0  0  0  0  0  0  0  0  0  0
   -1.6650   23.8190  -29.7070 N   0  0  0  0  0  0  0  0  0  0  0  0
   -2.8570   23.0530  -29.9480 C   0  0  0  0  0  0  0  0  0  0  0  0
   -2.9820   22.3400  -30.9810 O   0  0  0  0  0  0  0  0  0  0  0  0
   -3.9490   23.0600  -28.9250 C   0  0  0  0  0  0  0  0  0  0  0  0
   -4.4380   22.0748  -28.9100 H   0  0  0  0  0  0  0  0  0  0  0  0
   -3.5133   23.2807  -27.9394 H   0  0  0  0  0  0  0  0  0  0  0  0
   -4.9890   24.1350  -29.2610 C   0  0  0  0  0  0  0  0  0  0  0  0
   -5.9920   23.6865  -29.2079 H   0  0  0  0  0  0  0  0  0  0  0  0
   -4.8770   24.9524  -28.5334 H   0  0  0  0  0  0  0  0  0  0  0  0
   -4.7870   24.7120  -30.6410 C   0  0  0  0  0  0  0  0  0  0  0  0
   -3.8930   25.5810  -30.8310 O   0  0  0  0  0  0  0  0  0  0  0  0
   -5.5310   24.2380  -31.7690 N   0  0  0  0  0  0  0  0  0  0  0  0
   -5.4200   22.8990  -32.3320 C   0  0  0  0  0  0  0  0  0  0  0  0
   -5.1218   22.9689  -33.3885 H   0  0  0  0  0  0  0  0  0  0  0  0
   -4.6628   22.3282  -31.7745 H   0  0  0  0  0  0  0  0  0  0  0  0
   -6.7500   22.2010  -32.2310 C   0  0  0  0  0  0  0  0  0  0  0  0
   -7.8630   22.9000  -31.7290 C   0  0  0  0  0  0  0  0  0  0  0  0
   -7.7574   23.9541  -31.4328 H   0  0  0  0  0  0  0  0  0  0  0  0
   -9.1000   22.2660  -31.6040 C   0  0  0  0  0  0  0  0  0  0  0  0
   -9.9660   22.8232  -31.2172 H   0  0  0  0  0  0  0  0  0  0  0  0
   -9.2400   20.9260  -31.9690 C   0  0  0  0  0  0  0  0  0  0  0  0
  -10.2170   20.4297  -31.8737 H   0  0  0  0  0  0  0  0  0  0  0  0
   -8.1410   20.2150  -32.4550 C   0  0  0  0  0  0  0  0  0  0  0  0
   -8.2544   19.1579  -32.7372 H   0  0  0  0  0  0  0  0  0  0  0  0
   -6.8950   20.8410  -32.5850 C   0  0  0  0  0  0  0  0  0  0  0  0
   -5.5390   19.8900  -33.1810 Cl  0  0  0  0  0  0  0  0  0  0  0  0
   -1.2320   24.1210  -27.3760 C   0  0  0  0  0  0  0  0  0  0  0  0
   -1.3841   23.0551  -27.1510 H   0  0  0  0  0  0  0  0  0  0  0  0
   -0.8980   25.0170  -26.3490 C   0  0  0  0  0  0  0  0  0  0  0  0
   -0.7890   24.5410  -24.9310 C   0  0  0  0  0  0  0  0  0  0  0  0
   -0.9812   25.3805  -24.2466 H   0  0  0  0  0  0  0  0  0  0  0  0
   -1.5284   23.7462  -24.7532 H   0  0  0  0  0  0  0  0  0  0  0  0
    0.2226   24.1472  -24.7532 H   0  0  0  0  0  0  0  0  0  0  0  0
   -0.7260   26.3740  -26.6500 C   0  0  0  0  0  0  0  0  0  0  0  0
   -0.4936   27.0945  -25.8519 H   0  0  0  0  0  0  0  0  0  0  0  0
  1  2  1  0
  2  3  1  0
  3  4  1  0
  4  5  2  0
  5  6  1  0
  6  7  2  0
  6  8  1  0
  8  9  1  0
  8 10  1  0
  8 11  1  0
 11 12  1  0
 11 13  1  0
 11 14  1  0
 14 15  2  0
 14 16  1  0
 16 17  1  0
 17 18  1  0
 17 19  1  0
 17 20  1  0
 20 21  2  0
 21 22  1  0
 21 23  1  0
 23 24  1  0
 23 25  2  0
 25 26  1  0
 25 27  1  0
 27 28  1  0
 27 29  2  0
 29 30  1  0
  4 31  1  0
 31 32  1  0
 31 33  2  0
 33 34  1  0
 34 35  1  0
 34 36  1  0
 34 37  1  0
 33 38  1  0
 38 39  1  0
 38  2  2  0
 29 20  1  0
M  CHG  2   3  -1  16  -1
M  END
>  <UniqueID>  (10) 
10

>  <SMILES>  (10) 
Cc1cc[n-]/c(=N/C(=O)CCC(=O)[N-]Cc2ccccc2Cl)c1

>  <Energy>  (10) 
42.535176775788315

>  <Genealogy>  (10) 
Cc1cc[n-]c(=NC(=O)CCC(=O)[N-]Cc2ccccc2Cl)c1 (protonated)
Cc1cc[n-]/c(=N/C(=O)CCC(=O)[N-]Cc2ccccc2Cl)c1 (cis-trans isomerization)
Cc1cc[n-]/c(=N/C(=O)CCC(=O)[N-]Cc2ccccc2Cl)c1 (3D coordinates assigned)
Cc1cc[n-]/c(=N/C(=O)CCC(=O)[N-]Cc2ccccc2Cl)c1 (optimized conformer: 42.535176775788315 kcal/mol)

>  <smiles>  (10) 
Cc1cc[nH]c(=NC(=O)CCC(=O)NCc2ccccc2Cl)c1

>  <score_type>  (10) 
oracle

>  <origin>  (10) 
adg

>  <m_score__min__energy>  (10) 
-10.41

>  <m_primary>  (10) 
energy

$$$$
10:0
     RDKit          3D

 60 63  0  0  1  0  0  0  0  0999 V2000
   -2.4780   21.5460  -32.4070 C   0  0  0  0  0  0  0  0  0  0  0  0
   -3.2440   20.3250  -32.8790 C   0  0  0  0  0  0  0  0  0  0  0  0
   -4.7220   20.5250  -32.6790 C   0  0  0  0  0  0  0  0  0  0  0  0
   -5.5000   19.3920  -32.7690 C   0  0  0  0  0  0  0  0  0  0  0  0
   -6.8630   19.5070  -32.5960 C   0  0  0  0  0  0  0  0  0  0  0  0
   -7.7450   18.3000  -32.6850 C   0  0  0  0  0  0  0  0  0  0  0  0
   -7.4200   20.7490  -32.3380 C   0  0  0  0  0  0  0  0  0  0  0  0
   -8.7400   20.9180  -32.1610 N   0  0  0  0  0  0  0  0  0  0  0  0
   -9.2360   22.1420  -31.9130 C   0  0  0  0  0  0  0  0  0  0  0  0
   -8.4830   23.2480  -31.8250 N   0  0  0  0  0  0  0  0  0  0  0  0
   -7.1470   23.1270  -31.9970 C   0  0  0  0  0  0  0  0  0  0  0  0
   -6.3820   24.1780  -31.9190 N   0  0  0  0  0  0  0  0  0  0  0  0
   -6.2370   24.9570  -30.7260 C   0  0  0  0  0  0  0  0  0  0  0  0
   -4.9280   24.7450  -30.0570 C   0  0  0  0  0  0  0  0  0  0  0  0
   -3.8610   25.2840  -30.4520 O   0  0  0  0  0  0  0  0  0  0  0  0
   -4.9250   23.8790  -28.9180 N   0  0  0  0  0  0  0  0  0  0  0  0
   -3.6900   23.6440  -28.2420 C   0  0  1  0  0  0  0  0  0  0  0  0
   -2.5100   23.3810  -29.1450 C   0  0  0  0  0  0  0  0  0  0  0  0
   -1.3560   24.1680  -28.5140 C   0  0  0  0  0  0  0  0  0  0  0  0
   -1.9720   25.2320  -27.7680 N   0  0  0  0  0  0  0  0  0  0  0  0
   -1.1590   25.7950  -26.7590 C   0  0  1  0  0  0  0  0  0  0  0  0
   -1.9120   26.0760  -25.4890 C   0  0  0  0  0  0  0  0  0  0  0  0
   -0.7660   26.2070  -24.4940 C   0  0  0  0  0  0  0  0  0  0  0  0
    0.0210   24.9410  -24.8160 C   0  0  1  0  0  0  0  0  0  0  0  0
   -0.6470   23.8280  -24.3130 O   0  0  0  0  0  0  0  0  0  0  0  0
    0.0190   24.9640  -26.3390 C   0  0  0  0  0  0  0  0  0  0  0  0
   -3.2680   24.7910  -27.3540 C   0  0  0  0  0  0  0  0  0  0  0  0
   -6.6200   21.8830  -32.2510 C   0  0  0  0  0  0  0  0  0  0  0  0
   -5.2500   21.7820  -32.4230 C   0  0  0  0  0  0  0  0  0  0  0  0
   -2.4643   21.5678  -31.3073 H   0  0  0  0  0  0  0  0  0  0  0  0
   -1.4462   21.5006  -32.7857 H   0  0  0  0  0  0  0  0  0  0  0  0
   -2.9679   22.4552  -32.7857 H   0  0  0  0  0  0  0  0  0  0  0  0
   -3.0416   20.1606  -33.9476 H   0  0  0  0  0  0  0  0  0  0  0  0
   -2.9193   19.4514  -32.2947 H   0  0  0  0  0  0  0  0  0  0  0  0
   -5.0422   18.4132  -32.9751 H   0  0  0  0  0  0  0  0  0  0  0  0
   -7.9973   17.9547  -31.6715 H   0  0  0  0  0  0  0  0  0  0  0  0
   -8.6679   18.5593  -33.2244 H   0  0  0  0  0  0  0  0  0  0  0  0
   -7.2176   17.4994  -33.2244 H   0  0  0  0  0  0  0  0  0  0  0  0
  -10.3226   22.2425  -31.7742 H   0  0  0  0  0  0  0  0  0  0  0  0
   -8.8940   24.1970  -31.6310 H   0  0  0  0  0  0  0  0  0  0  0  0
   -6.3299   26.0214  -30.9876 H   0  0  0  0  0  0  0  0  0  0  0  0
   -7.0230   24.6395  -30.0250 H   0  0  0  0  0  0  0  0  0  0  0  0
   -5.8250   23.4310  -28.5930 H   0  0  0  0  0  0  0  0  0  0  0  0
   -3.9261   22.7415  -27.6590 H   0  0  0  0  0  0  0  0  0  0  0  0
   -2.2763   22.3065  -29.1752 H   0  0  0  0  0  0  0  0  0  0  0  0
   -2.7039   23.6865  -30.1838 H   0  0  0  0  0  0  0  0  0  0  0  0
   -0.7704   23.5200  -27.8453 H   0  0  0  0  0  0  0  0  0  0  0  0
   -0.6639   24.5548  -29.2765 H   0  0  0  0  0  0  0  0  0  0  0  0
   -0.8084   26.7137  -27.2520 H   0  0  0  0  0  0  0  0  0  0  0  0
   -2.4925   27.0075  -25.5613 H   0  0  0  0  0  0  0  0  0  0  0  0
   -2.6565   25.3106  -25.2247 H   0  0  0  0  0  0  0  0  0  0  0  0
   -0.1705   27.1137  -24.6763 H   0  0  0  0  0  0  0  0  0  0  0  0
   -1.0773   26.3007  -23.4431 H   0  0  0  0  0  0  0  0  0  0  0  0
    1.0311   24.8947  -24.3830 H   0  0  0  0  0  0  0  0  0  0  0  0
   -0.3740   23.7750  -23.3440 H   0  0  0  0  0  0  0  0  0  0  0  0
    0.9513   25.4129  -26.7121 H   0  0  0  0  0  0  0  0  0  0  0  0
   -0.0503   23.9456  -26.7489 H   0  0  0  0  0  0  0  0  0  0  0  0
   -3.2289   24.4550  -26.3073 H   0  0  0  0  0  0  0  0  0  0  0  0
   -3.9908   25.6162  -27.4350 H   0  0  0  0  0  0  0  0  0  0  0  0
   -4.6020   22.6686  -32.3588 H   0  0  0  0  0  0  0  0  0  0  0  0
  1  2  1  0
  2  3  1  0
  3  4  2  0
  4  5  1  0
  5  6  1  0
  5  7  2  0
  7  8  1  0
  8  9  2  0
  9 10  1  0
 10 11  1  0
 11 12  2  0
 12 13  1  0
 13 14  1  0
 14 15  2  0
 14 16  1  0
 16 17  1  0
 17 18  1  0
 18 19  1  0
 19 20  1  0
 20 21  1  0
 21 22  1  0
 22 23  1  0
 23 24  1  0
 24 25  1  0
 24 26  1  0
 20 27  1  0
 11 28  1  0
 28 29  2  0
 29  3  1  0
 28  7  1  0
 27 17  1  0
 26 21  1  0
  1 30  1  0
  1 31  1  0
  1 32  1  0
  2 33  1  0
  2 34  1  0
  4 35  1  0
  6 36  1  0
  6 37  1  0
  6 38  1  0
  9 39  1  0
 10 40  1  0
 13 41  1  0
 13 42  1  0
 16 43  1  0
 17 44  1  1
 18 45  1  0
 18 46  1  0
 19 47  1  0
 19 48  1  0
 21 49  1  6
 22 50  1  0
 22 51  1  0
 23 52  1  0
 23 53  1  0
 24 54  1  1
 25 55  1  0
 26 56  1  0
 26 57  1  0
 27 58  1  0
 27 59  1  0
 29 60  1  0
M  END
>  <smiles>  (11) 
CCc1cc(C)c2nc[nH]c(=NCC(=O)NC3CCN(C4CCC(O)C4)C3)c2c1

>  <score_type>  (11) 
oracle

>  <origin>  (11) 
adg

>  <m_score__min__energy>  (11) 
-10.529999999999999

>  <m_primary>  (11) 
energy

$$$$
11:0
     RDKit          3D

 51 53  0  0  0  0  0  0  0  0999 V2000
   -2.9760   17.3460  -33.5650 C   0  0  0  0  0  0  0  0  0  0  0  0
   -3.9550   16.1750  -33.7170 C   0  0  0  0  0  0  0  0  0  0  0  0
   -5.2240   16.5740  -34.3800 N   0  0  0  0  0  0  0  0  0  0  0  0
   -5.0720   17.7950  -35.2120 C   0  0  0  0  0  0  0  0  0  0  0  0
   -6.0520   18.9140  -34.8310 C   0  0  0  0  0  0  0  0  0  0  0  0
   -6.4040   16.6660  -33.4640 C   0  0  0  0  0  0  0  0  0  0  0  0
   -6.1930   17.2480  -32.0290 C   0  0  0  0  0  0  0  0  0  0  0  0
   -6.9050   18.5710  -31.6200 C   0  0  2  0  0  0  0  0  0  0  0  0
   -8.2200   18.8670  -32.3880 C   0  0  0  0  0  0  0  0  0  0  0  0
   -8.9900   20.0480  -31.7650 C   0  0  0  0  0  0  0  0  0  0  0  0
   -8.0660   21.1990  -31.5150 C   0  0  0  0  0  0  0  0  0  0  0  0
   -8.4470   22.4800  -31.3090 N   0  0  0  0  0  0  0  0  0  0  0  0
   -7.3070   23.1560  -31.0700 C   0  0  0  0  0  0  0  0  0  0  0  0
   -7.1720   24.5190  -30.8170 C   0  0  0  0  0  0  0  0  0  0  0  0
   -5.8770   25.0240  -30.6040 C   0  0  0  0  0  0  0  0  0  0  0  0
   -4.7470   24.1730  -30.6470 C   0  0  0  0  0  0  0  0  0  0  0  0
   -3.4820   24.7390  -30.4300 O   0  0  0  0  0  0  0  0  0  0  0  0
   -2.5790   24.3180  -29.4120 C   0  0  0  0  0  0  0  0  0  0  0  0
   -4.9200   22.7910  -30.9060 C   0  0  0  0  0  0  0  0  0  0  0  0
   -6.2160   22.3230  -31.1090 C   0  0  0  0  0  0  0  0  0  0  0  0
   -6.6950   21.0590  -31.3750 C   0  0  0  0  0  0  0  0  0  0  0  0
   -5.9390   19.7830  -31.5910 C   0  0  0  0  0  0  0  0  0  0  0  0
   -2.8079   17.5471  -32.4967 H   0  0  0  0  0  0  0  0  0  0  0  0
   -2.0200   17.0893  -34.0447 H   0  0  0  0  0  0  0  0  0  0  0  0
   -3.3981   18.2414  -34.0447 H   0  0  0  0  0  0  0  0  0  0  0  0
   -3.4745   15.3898  -34.3192 H   0  0  0  0  0  0  0  0  0  0  0  0
   -4.2047   15.8160  -32.7076 H   0  0  0  0  0  0  0  0  0  0  0  0
   -5.4610   15.8040  -35.0520 H   0  0  0  0  0  0  0  0  0  0  0  0
   -4.0461   18.1735  -35.0928 H   0  0  0  0  0  0  0  0  0  0  0  0
   -5.2899   17.5104  -36.2520 H   0  0  0  0  0  0  0  0  0  0  0  0
   -6.1165   18.9876  -33.7354 H   0  0  0  0  0  0  0  0  0  0  0  0
   -5.6951   19.8697  -35.2423 H   0  0  0  0  0  0  0  0  0  0  0  0
   -7.0465   18.6863  -35.2423 H   0  0  0  0  0  0  0  0  0  0  0  0
   -7.1536   17.2976  -33.9632 H   0  0  0  0  0  0  0  0  0  0  0  0
   -6.6904   15.6184  -33.2893 H   0  0  0  0  0  0  0  0  0  0  0  0
   -6.5241   16.4752  -31.3196 H   0  0  0  0  0  0  0  0  0  0  0  0
   -5.1265   17.5169  -32.0163 H   0  0  0  0  0  0  0  0  0  0  0  0
   -7.2314   18.3985  -30.5838 H   0  0  0  0  0  0  0  0  0  0  0  0
   -7.9757   19.1118  -33.4322 H   0  0  0  0  0  0  0  0  0  0  0  0
   -8.8587   17.9732  -32.3319 H   0  0  0  0  0  0  0  0  0  0  0  0
   -9.7864   20.3655  -32.4542 H   0  0  0  0  0  0  0  0  0  0  0  0
   -9.4253   19.7252  -30.8078 H   0  0  0  0  0  0  0  0  0  0  0  0
   -9.4190   22.8620  -31.3330 H   0  0  0  0  0  0  0  0  0  0  0  0
   -8.0509   25.1797  -30.7848 H   0  0  0  0  0  0  0  0  0  0  0  0
   -5.7402   26.0964  -30.4009 H   0  0  0  0  0  0  0  0  0  0  0  0
   -3.0183   24.5228  -28.4246 H   0  0  0  0  0  0  0  0  0  0  0  0
   -2.3902   23.2390  -29.5127 H   0  0  0  0  0  0  0  0  0  0  0  0
   -1.6312   24.8671  -29.5127 H   0  0  0  0  0  0  0  0  0  0  0  0
   -4.0579   22.1090  -30.9455 H   0  0  0  0  0  0  0  0  0  0  0  0
   -5.4019   19.8395  -32.5493 H   0  0  0  0  0  0  0  0  0  0  0  0
   -5.2284   19.6487  -30.7621 H   0  0  0  0  0  0  0  0  0  0  0  0
  1  2  1  0
  2  3  1  0
  3  4  1  0
  4  5  1  0
  3  6  1  0
  6  7  1  0
  7  8  1  0
  8  9  1  0
  9 10  1  0
 10 11  1  0
 11 12  1  0
 12 13  1  0
 13 14  2  0
 14 15  1  0
 15 16  2  0
 16 17  1  0
 17 18  1  0
 16 19  1  0
 19 20  2  0
 20 21  1  0
 21 22  1  0
 22  8  1  0
 21 11  2  0
 20 13  1  0
  1 23  1  0
  1 24  1  0
  1 25  1  0
  2 26  1  0
  2 27  1  0
  3 28  1  0
  4 29  1  0
  4 30  1  0
  5 31  1  0
  5 32  1  0
  5 33  1  0
  6 34  1  0
  6 35  1  0
  7 36  1  0
  7 37  1  0
  8 38  1  1
  9 39  1  0
  9 40  1  0
 10 41  1  0
 10 42  1  0
 12 43  1  0
 14 44  1  0
 15 45  1  0
 18 46  1  0
 18 47  1  0
 18 48  1  0
 19 49  1  0
 22 50  1  0
 22 51  1  0
M  CHG  1   3   1
M  END
>  <UniqueID>  (12) 
11

>  <SMILES>  (12) 
CC[NH+](CC)CC[C@@H]1CCc2[nH]c3ccc(OC)cc3c2C1

>  <Energy>  (12) 
98.19771191944452

>  <Genealogy>  (12) 
CC[NH+](CC)CCC1CCc2[nH]c3ccc(OC)cc3c2C1 (protonated)
CC[NH+](CC)CC[C@@H]1CCc2[nH]c3ccc(OC)cc3c2C1 (chirality)
CC[NH+](CC)CC[C@@H]1CCc2[nH]c3ccc(OC)cc3c2C1 (3D coordinates assigned)
CC[NH+](CC)CC[C@@H]1CCc2[nH]c3ccc(OC)cc3c2C1 (nonaromatic ring conformer: 98.19771191944452 kcal/mol)

>  <smiles>  (12) 
CCN(CC)CCC1CCc2[nH]c3ccc(OC)cc3c2C1

>  <score_type>  (12) 
oracle

>  <origin>  (12) 
adg

>  <m_score__min__energy>  (12) 
-7.5099999999999998

>  <m_primary>  (12) 
energy

$$$$
12:0
     RDKit          3D

 52 54  0  0  0  0  0  0  0  0999 V2000
   -3.7530   24.0370  -28.5320 C   0  0  0  0  0  0  0  0  0  0  0  0
   -4.6120   23.8470  -29.7550 C   0  0  0  0  0  0  0  0  0  0  0  0
   -5.9260   24.3470  -29.7520 C   0  0  0  0  0  0  0  0  0  0  0  0
   -6.7540   24.1780  -30.8630 C   0  0  0  0  0  0  0  0  0  0  0  0
   -6.2840   23.5040  -31.9890 C   0  0  0  0  0  0  0  0  0  0  0  0
   -4.9840   22.9960  -32.0090 C   0  0  0  0  0  0  0  0  0  0  0  0
   -4.1340   23.1600  -30.9000 C   0  0  0  0  0  0  0  0  0  0  0  0
   -2.7400   22.5740  -30.9540 C   0  0  0  0  0  0  0  0  0  0  0  0
   -2.7340   21.3200  -31.7340 N   0  0  0  0  0  0  0  0  0  0  0  0
   -1.8860   20.3050  -31.0750 C   0  0  0  0  0  0  0  0  0  0  0  0
   -1.6510   19.0810  -31.9830 C   0  0  0  0  0  0  0  0  0  0  0  0
   -2.6260   19.0720  -33.0930 N   0  0  0  0  0  0  0  0  0  0  0  0
   -2.5280   17.8300  -33.8890 C   0  0  0  0  0  0  0  0  0  0  0  0
   -3.6690   17.7580  -34.9100 C   0  0  0  0  0  0  0  0  0  0  0  0
   -4.9970   17.8490  -34.2220 C   0  0  0  0  0  0  0  0  0  0  0  0
   -5.8470   16.9350  -34.3990 O   0  0  0  0  0  0  0  0  0  0  0  0
   -5.2560   18.9210  -33.3020 N   0  0  0  0  0  0  0  0  0  0  0  0
   -6.5420   19.1930  -32.7190 C   0  0  0  0  0  0  0  0  0  0  0  0
   -7.3160   18.1720  -32.1360 C   0  0  0  0  0  0  0  0  0  0  0  0
   -8.5730   18.4610  -31.5970 C   0  0  0  0  0  0  0  0  0  0  0  0
   -9.0750   19.7640  -31.6450 C   0  0  0  0  0  0  0  0  0  0  0  0
   -8.3230   20.7800  -32.2420 C   0  0  0  0  0  0  0  0  0  0  0  0
   -8.8140   22.0420  -32.2990 F   0  0  0  0  0  0  0  0  0  0  0  0
   -7.0650   20.4950  -32.7830 C   0  0  0  0  0  0  0  0  0  0  0  0
   -2.4210   20.2600  -33.9510 C   0  0  0  0  0  0  0  0  0  0  0  0
   -2.2730   21.5490  -33.1170 C   0  0  0  0  0  0  0  0  0  0  0  0
   -4.3660   23.9014  -27.6287 H   0  0  0  0  0  0  0  0  0  0  0  0
   -2.9390   23.2972  -28.5372 H   0  0  0  0  0  0  0  0  0  0  0  0
   -3.3269   25.0511  -28.5372 H   0  0  0  0  0  0  0  0  0  0  0  0
   -6.3053   24.8765  -28.8656 H   0  0  0  0  0  0  0  0  0  0  0  0
   -7.7789   24.5773  -30.8499 H   0  0  0  0  0  0  0  0  0  0  0  0
   -6.9386   23.3722  -32.8632 H   0  0  0  0  0  0  0  0  0  0  0  0
   -4.6209   22.4626  -32.8999 H   0  0  0  0  0  0  0  0  0  0  0  0
   -2.0614   23.2982  -31.4283 H   0  0  0  0  0  0  0  0  0  0  0  0
   -2.4067   22.3559  -29.9287 H   0  0  0  0  0  0  0  0  0  0  0  0
   -0.9143   20.7579  -30.8287 H   0  0  0  0  0  0  0  0  0  0  0  0
   -2.4036   19.9635  -30.1664 H   0  0  0  0  0  0  0  0  0  0  0  0
   -0.6321   19.1251  -32.3952 H   0  0  0  0  0  0  0  0  0  0  0  0
   -1.7772   18.1644  -31.3881 H   0  0  0  0  0  0  0  0  0  0  0  0
   -1.5649   17.8150  -34.4202 H   0  0  0  0  0  0  0  0  0  0  0  0
   -2.5999   16.9659  -33.2121 H   0  0  0  0  0  0  0  0  0  0  0  0
   -3.5718   18.5920  -35.6206 H   0  0  0  0  0  0  0  0  0  0  0  0
   -3.6096   16.7970  -35.4419 H   0  0  0  0  0  0  0  0  0  0  0  0
   -4.4390   19.4840  -32.9710 H   0  0  0  0  0  0  0  0  0  0  0  0
   -6.9301   17.1424  -32.1044 H   0  0  0  0  0  0  0  0  0  0  0  0
   -9.1685   17.6604  -31.1338 H   0  0  0  0  0  0  0  0  0  0  0  0
  -10.0612   19.9902  -31.2134 H   0  0  0  0  0  0  0  0  0  0  0  0
   -6.4817   21.2955  -33.2615 H   0  0  0  0  0  0  0  0  0  0  0  0
   -1.5085   20.1152  -34.5479 H   0  0  0  0  0  0  0  0  0  0  0  0
   -3.3031   20.3708  -34.5988 H   0  0  0  0  0  0  0  0  0  0  0  0
   -1.2156   21.8518  -33.1016 H   0  0  0  0  0  0  0  0  0  0  0  0
   -2.8854   22.3416  -33.5717 H   0  0  0  0  0  0  0  0  0  0  0  0
  1  2  1  0
  2  3  2  0
  3  4  1  0
  4  5  2  0
  5  6  1  0
  6  7  2  0
  7  8  1  0
  8  9  1  0
  9 10  1  0
 10 11  1  0
 11 12  1  0
 12 13  1  0
 13 14  1  0
 14 15  1  0
 15 16  2  0
 15 17  1  0
 17 18  1  0
 18 19  2  0
 19 20  1  0
 20 21  2  0
 21 22  1  0
 22 23  1  0
 22 24  2  0
 12 25  1  0
 25 26  1  0
  7  2  1  0
 26  9  1  0
 24 18  1  0
  1 27  1  0
  1 28  1  0
  1 29  1  0
  3 30  1  0
  4 31  1  0
  5 32  1  0
  6 33  1  0
  8 34  1  0
  8 35  1  0
 10 36  1  0
 10 37  1  0
 11 38  1  0
 11 39  1  0
 13 40  1  0
 13 41  1  0
 14 42  1  0
 14 43  1  0
 17 44  1  0
 19 45  1  0
 20 46  1  0
 21 47  1  0
 24 48  1  0
 25 49  1  0
 25 50  1  0
 26 51  1  0
 26 52  1  0
M  END
>  <UniqueID>  (13) 
12

>  <SMILES>  (13) 
Cc1ccccc1CN1CCN(CCC(=O)Nc2cccc(F)c2)CC1

>  <Energy>  (13) 
62.64223019947183

>  <Genealogy>  (13) 
Cc1ccccc1CN1CCN(CCC(=O)Nc2cccc(F)c2)CC1 (3D coordinates assigned)
Cc1ccccc1CN1CCN(CCC(=O)Nc2cccc(F)c2)CC1 (nonaromatic ring conformer: 62.64223019947183 kcal/mol)

>  <smiles>  (13) 
Cc1ccccc1CN1CCN(CCC(=O)Nc2cccc(F)c2)CC1

>  <score_type>  (13) 
oracle

>  <origin>  (13) 
adg

>  <m_score__min__energy>  (13) 
-8.9800000000000004

>  <m_primary>  (13) 
energy

$$$$
13:0
     RDKit          3D

 50 52  0  0  0  0  0  0  0  0999 V2000
   -1.8940   19.6930  -26.7430 C   0  0  0  0  0  0  0  0  0  0  0  0
   -1.1530   20.7800  -27.5150 C   0  0  0  0  0  0  0  0  0  0  0  0
   -2.1240   21.7400  -28.1470 C   0  0  0  0  0  0  0  0  0  0  0  0
   -3.3210   22.0710  -27.4930 C   0  0  0  0  0  0  0  0  0  0  0  0
   -4.2340   22.9430  -28.0930 C   0  0  0  0  0  0  0  0  0  0  0  0
   -3.9650   23.4920  -29.3540 C   0  0  0  0  0  0  0  0  0  0  0  0
   -5.1050   24.6190  -30.0950 S   0  0  0  0  0  0  0  0  0  0  0  0
   -4.3390   25.6800  -30.8350 O   0  0  0  0  0  0  0  0  0  0  0  0
   -5.9060   25.2940  -29.0140 O   0  0  0  0  0  0  0  0  0  0  0  0
   -6.1880   23.8050  -31.2030 N   0  0  0  0  0  0  0  0  0  0  0  0
   -6.9700   22.7710  -30.4810 C   0  0  0  0  0  0  0  0  0  0  0  0
   -7.5320   21.7070  -31.4290 C   0  0  0  0  0  0  0  0  0  0  0  0
   -6.4360   21.0580  -32.1610 N   0  0  0  0  0  0  0  0  0  0  0  0
   -6.5800   19.7060  -32.6500 C   0  0  0  0  0  0  0  0  0  0  0  0
   -5.9200   19.2940  -33.8210 C   0  0  0  0  0  0  0  0  0  0  0  0
   -6.0610   17.9870  -34.2950 C   0  0  0  0  0  0  0  0  0  0  0  0
   -6.8680   17.0640  -33.6060 C   0  0  0  0  0  0  0  0  0  0  0  0
   -7.0430   15.7420  -34.0420 O   0  0  0  0  0  0  0  0  0  0  0  0
   -5.9880   14.7950  -34.1810 C   0  0  0  0  0  0  0  0  0  0  0  0
   -7.5260   17.4720  -32.4410 C   0  0  0  0  0  0  0  0  0  0  0  0
   -7.3860   18.7790  -31.9650 C   0  0  0  0  0  0  0  0  0  0  0  0
   -5.1800   21.7950  -32.3530 C   0  0  0  0  0  0  0  0  0  0  0  0
   -5.4550   23.3050  -32.3980 C   0  0  0  0  0  0  0  0  0  0  0  0
   -2.7820   23.1430  -30.0190 C   0  0  0  0  0  0  0  0  0  0  0  0
   -1.8670   22.2700  -29.4220 C   0  0  0  0  0  0  0  0  0  0  0  0
   -1.7765   19.8654  -25.6630 H   0  0  0  0  0  0  0  0  0  0  0  0
   -2.9621   19.7207  -27.0046 H   0  0  0  0  0  0  0  0  0  0  0  0
   -1.4778   18.7090  -27.0046 H   0  0  0  0  0  0  0  0  0  0  0  0
   -0.4985   21.3313  -26.8238 H   0  0  0  0  0  0  0  0  0  0  0  0
   -0.5572   20.3060  -28.3089 H   0  0  0  0  0  0  0  0  0  0  0  0
   -3.5415   21.6424  -26.5042 H   0  0  0  0  0  0  0  0  0  0  0  0
   -5.1685   23.1996  -27.5726 H   0  0  0  0  0  0  0  0  0  0  0  0
   -6.8640   24.5340  -31.5320 H   0  0  0  0  0  0  0  0  0  0  0  0
   -6.3154   22.2806  -29.7455 H   0  0  0  0  0  0  0  0  0  0  0  0
   -7.8188   23.2696  -29.9901 H   0  0  0  0  0  0  0  0  0  0  0  0
   -8.0784   20.9512  -30.8457 H   0  0  0  0  0  0  0  0  0  0  0  0
   -8.2126   22.1866  -32.1479 H   0  0  0  0  0  0  0  0  0  0  0  0
   -5.2867   20.0071  -34.3692 H   0  0  0  0  0  0  0  0  0  0  0  0
   -5.5379   17.6784  -35.2121 H   0  0  0  0  0  0  0  0  0  0  0  0
   -5.6411   14.4836  -33.1846 H   0  0  0  0  0  0  0  0  0  0  0  0
   -6.3540   13.9167  -34.7329 H   0  0  0  0  0  0  0  0  0  0  0  0
   -5.1541   15.2534  -34.7329 H   0  0  0  0  0  0  0  0  0  0  0  0
   -8.1594   16.7579  -31.8944 H   0  0  0  0  0  0  0  0  0  0  0  0
   -7.9103   19.0848  -31.0476 H   0  0  0  0  0  0  0  0  0  0  0  0
   -4.4977   21.5743  -31.5189 H   0  0  0  0  0  0  0  0  0  0  0  0
   -4.7223   21.4842  -33.3037 H   0  0  0  0  0  0  0  0  0  0  0  0
   -4.4925   23.8335  -32.4638 H   0  0  0  0  0  0  0  0  0  0  0  0
   -6.0922   23.4945  -33.2744 H   0  0  0  0  0  0  0  0  0  0  0  0
   -2.5719   23.5579  -31.0159 H   0  0  0  0  0  0  0  0  0  0  0  0
   -0.9429   21.9975  -29.9528 H   0  0  0  0  0  0  0  0  0  0  0  0
  1  2  1  0
  2  3  1  0
  3  4  2  0
  4  5  1  0
  5  6  2  0
  6  7  1  0
  7  8  2  0
  7  9  2  0
  7 10  1  0
 10 11  1  0
 11 12  1  0
 12 13  1  0
 13 14  1  0
 14 15  2  0
 15 16  1  0
 16 17  2  0
 17 18  1  0
 18 19  1  0
 17 20  1  0
 20 21  2  0
 13 22  1  0
 22 23  1  0
  6 24  1  0
 24 25  2  0
 25  3  1  0
 23 10  1  0
 21 14  1  0
  1 26  1  0
  1 27  1  0
  1 28  1  0
  2 29  1  0
  2 30  1  0
  4 31  1  0
  5 32  1  0
 10 33  1  0
 11 34  1  0
 11 35  1  0
 12 36  1  0
 12 37  1  0
 15 38  1  0
 16 39  1  0
 19 40  1  0
 19 41  1  0
 19 42  1  0
 20 43  1  0
 21 44  1  0
 22 45  1  0
 22 46  1  0
 23 47  1  0
 23 48  1  0
 24 49  1  0
 25 50  1  0
M  CHG  1  10   1
M  END
>  <UniqueID>  (14) 
13

>  <SMILES>  (14) 
CCc1ccc(S(=O)(=O)[NH+]2CCN(c3ccc(OC)cc3)CC2)cc1

>  <Energy>  (14) 
54.57385250361465

>  <Genealogy>  (14) 
CCc1ccc(S(=O)(=O)[NH+]2CCN(c3ccc(OC)cc3)CC2)cc1 (protonated)
CCc1ccc(S(=O)(=O)[NH+]2CCN(c3ccc(OC)cc3)CC2)cc1 (3D coordinates assigned)
CCc1ccc(S(=O)(=O)[NH+]2CCN(c3ccc(OC)cc3)CC2)cc1 (nonaromatic ring conformer: 54.57385250361465 kcal/mol)

>  <smiles>  (14) 
CCc1ccc(S(=O)(=O)N2CCN(c3ccc(OC)cc3)CC2)cc1

>  <score_type>  (14) 
oracle

>  <origin>  (14) 
adg

>  <m_score__min__energy>  (14) 
-8.2200000000000006

>  <m_primary>  (14) 
energy

$$$$
14:0
     RDKit          3D

 61 64  0  0  0  0  0  0  0  0999 V2000
   -5.0750   24.0970  -31.2170 C   0  0  0  0  0  0  0  0  0  0  0  0
   -3.8890   23.3120  -31.2410 O   0  0  0  0  0  0  0  0  0  0  0  0
   -3.4730   22.4630  -30.2040 C   0  0  0  0  0  0  0  0  0  0  0  0
   -3.8540   22.6790  -28.8640 C   0  0  0  0  0  0  0  0  0  0  0  0
   -3.4000   21.8280  -27.8540 C   0  0  0  0  0  0  0  0  0  0  0  0
   -2.5660   20.7530  -28.1660 C   0  0  0  0  0  0  0  0  0  0  0  0
   -2.1820   20.5270  -29.4890 C   0  0  0  0  0  0  0  0  0  0  0  0
   -2.6360   21.3710  -30.5150 C   0  0  0  0  0  0  0  0  0  0  0  0
   -2.2210   21.1330  -31.8710 N   0  0  0  0  0  0  0  0  0  0  0  0
   -3.2270   20.9410  -32.9210 C   0  0  0  0  0  0  0  0  0  0  0  0
   -2.5800   20.3620  -34.1880 C   0  0  0  0  0  0  0  0  0  0  0  0
   -1.5770   19.3270  -33.8570 N   0  0  0  0  0  0  0  0  0  0  0  0
   -2.2030   18.1170  -33.2730 C   0  0  0  0  0  0  0  0  0  0  0  0
   -3.2030   17.4760  -34.2580 C   0  0  0  0  0  0  0  0  0  0  0  0
   -4.6050   17.5260  -33.7710 N   0  0  0  0  0  0  0  0  0  0  0  0
   -4.6280   18.0450  -32.3780 C   0  0  0  0  0  0  0  0  0  0  0  0
   -6.0250   18.5130  -31.9600 C   0  0  0  0  0  0  0  0  0  0  0  0
   -6.4970   19.5660  -32.8660 N   0  0  0  0  0  0  0  0  0  0  0  0
   -7.5220   20.4860  -32.4400 C   0  0  0  0  0  0  0  0  0  0  0  0
   -7.1870   21.8120  -32.1120 C   0  0  0  0  0  0  0  0  0  0  0  0
   -8.1750   22.7160  -31.7160 C   0  0  0  0  0  0  0  0  0  0  0  0
   -9.5070   22.3120  -31.6440 C   0  0  0  0  0  0  0  0  0  0  0  0
   -9.8550   20.9990  -31.9630 C   0  0  0  0  0  0  0  0  0  0  0  0
   -8.8730   20.0880  -32.3590 C   0  0  0  0  0  0  0  0  0  0  0  0
   -9.2530   18.8320  -32.7070 F   0  0  0  0  0  0  0  0  0  0  0  0
   -5.8890   19.6750  -34.1970 C   0  0  0  0  0  0  0  0  0  0  0  0
   -5.4900   18.2830  -34.7090 C   0  0  0  0  0  0  0  0  0  0  0  0
   -0.4580   19.8520  -33.0260 C   0  0  0  0  0  0  0  0  0  0  0  0
   -0.8030   21.1290  -32.2350 C   0  0  0  0  0  0  0  0  0  0  0  0
   -5.3661   24.2897  -30.1739 H   0  0  0  0  0  0  0  0  0  0  0  0
   -4.8923   25.0531  -31.7293 H   0  0  0  0  0  0  0  0  0  0  0  0
   -5.8837   23.5552  -31.7293 H   0  0  0  0  0  0  0  0  0  0  0  0
   -4.5130   23.5231  -28.6124 H   0  0  0  0  0  0  0  0  0  0  0  0
   -3.7002   22.0052  -26.8107 H   0  0  0  0  0  0  0  0  0  0  0  0
   -2.2111   20.0834  -27.3687 H   0  0  0  0  0  0  0  0  0  0  0  0
   -1.5195   19.6823  -29.7291 H   0  0  0  0  0  0  0  0  0  0  0  0
   -3.9994   20.2463  -32.5594 H   0  0  0  0  0  0  0  0  0  0  0  0
   -3.6764   21.9150  -33.1649 H   0  0  0  0  0  0  0  0  0  0  0  0
   -3.3632   19.9133  -34.8167 H   0  0  0  0  0  0  0  0  0  0  0  0
   -2.0716   21.1788  -34.7213 H   0  0  0  0  0  0  0  0  0  0  0  0
   -1.4166   17.3861  -33.0335 H   0  0  0  0  0  0  0  0  0  0  0  0
   -2.7487   18.4110  -32.3643 H   0  0  0  0  0  0  0  0  0  0  0  0
   -3.1448   18.0127  -35.2164 H   0  0  0  0  0  0  0  0  0  0  0  0
   -2.9280   16.4164  -34.3654 H   0  0  0  0  0  0  0  0  0  0  0  0
   -4.9700   16.5460  -33.7210 H   0  0  0  0  0  0  0  0  0  0  0  0
   -4.3032   17.2452  -31.6962 H   0  0  0  0  0  0  0  0  0  0  0  0
   -3.9519   18.9112  -32.3283 H   0  0  0  0  0  0  0  0  0  0  0  0
   -6.7204   17.6616  -31.9984 H   0  0  0  0  0  0  0  0  0  0  0  0
   -5.9789   18.9133  -30.9364 H   0  0  0  0  0  0  0  0  0  0  0  0
   -6.1384   22.1396  -32.1678 H   0  0  0  0  0  0  0  0  0  0  0  0
   -7.9011   23.7502  -31.4601 H   0  0  0  0  0  0  0  0  0  0  0  0
  -10.2834   23.0278  -31.3359 H   0  0  0  0  0  0  0  0  0  0  0  0
  -10.9061   20.6803  -31.9024 H   0  0  0  0  0  0  0  0  0  0  0  0
   -6.6130   20.1249  -34.8923 H   0  0  0  0  0  0  0  0  0  0  0  0
   -4.9908   20.3067  -34.1325 H   0  0  0  0  0  0  0  0  0  0  0  0
   -6.4067   17.6968  -34.8701 H   0  0  0  0  0  0  0  0  0  0  0  0
   -4.9187   18.4344  -35.6367 H   0  0  0  0  0  0  0  0  0  0  0  0
   -0.1649   19.0709  -32.3091 H   0  0  0  0  0  0  0  0  0  0  0  0
    0.3523   20.1196  -33.7201 H   0  0  0  0  0  0  0  0  0  0  0  0
   -0.1933   21.1651  -31.3201 H   0  0  0  0  0  0  0  0  0  0  0  0
   -0.5921   22.0071  -32.8630 H   0  0  0  0  0  0  0  0  0  0  0  0
  1  2  1  0
  2  3  1  0
  3  4  2  0
  4  5  1  0
  5  6  2  0
  6  7  1  0
  7  8  2  0
  8  9  1  0
  9 10  1  0
 10 11  1  0
 11 12  1  0
 12 13  1  0
 13 14  1  0
 14 15  1  0
 15 16  1  0
 16 17  1  0
 17 18  1  0
 18 19  1  0
 19 20  2  0
 20 21  1  0
 21 22  2  0
 22 23  1  0
 23 24  2  0
 24 25  1  0
 18 26  1  0
 26 27  1  0
 12 28  1  0
 28 29  1  0
  8  3  1  0
 29  9  1  0
 27 15  1  0
 24 19  1  0
  1 30  1  0
  1 31  1  0
  1 32  1  0
  4 33  1  0
  5 34  1  0
  6 35  1  0
  7 36  1  0
 10 37  1  0
 10 38  1  0
 11 39  1  0
 11 40  1  0
 13 41  1  0
 13 42  1  0
 14 43  1  0
 14 44  1  0
 15 45  1  0
 16 46  1  0
 16 47  1  0
 17 48  1  0
 17 49  1  0
 20 50  1  0
 21 51  1  0
 22 52  1  0
 23 53  1  0
 26 54  1  0
 26 55  1  0
 27 56  1  0
 27 57  1  0
 28 58  1  0
 28 59  1  0
 29 60  1  0
 29 61  1  0
M  CHG  1  15   1
M  END
>  <UniqueID>  (15) 
14

>  <SMILES>  (15) 
COc1ccccc1N1CCN(CC[NH+]2CCN(c3ccccc3F)CC2)CC1

>  <Energy>  (15) 
87.49600496999929

>  <Genealogy>  (15) 
COc1ccccc1N1CCN(CC[NH+]2CCN(c3ccccc3F)CC2)CC1 (protonated)
COc1ccccc1N1CCN(CC[NH+]2CCN(c3ccccc3F)CC2)CC1 (3D coordinates assigned)
COc1ccccc1N1CCN(CC[NH+]2CCN(c3ccccc3F)CC2)CC1 (nonaromatic ring conformer: 87.49600496999929 kcal/mol)

>  <smiles>  (15) 
COc1ccccc1N1CCN(CCN2CCN(c3ccccc3F)CC2)CC1

>  <score_type>  (15) 
oracle

>  <origin>  (15) 
adg

>  <m_score__min__energy>  (15) 
-7.9000000000000004

>  <m_primary>  (15) 
energy

$$$$
15:0
     RDKit          3D

 57 59  0  0  0  0  0  0  0  0999 V2000
    2.2430   24.3870  -27.4970 C   0  0  0  0  0  0  0  0  0  0  0  0
    0.9930   24.7290  -28.0500 O   0  0  0  0  0  0  0  0  0  0  0  0
    0.2160   25.3980  -27.0790 C   0  0  0  0  0  0  0  0  0  0  0  0
   -1.1830   24.7930  -27.0620 C   0  0  0  0  0  0  0  0  0  0  0  0
   -2.0530   25.1870  -28.6190 S   0  0  0  0  0  0  0  0  0  0  0  0
   -2.4230   23.4770  -29.0620 C   0  0  0  0  0  0  0  0  0  0  0  0
   -1.6430   22.4560  -28.5000 C   0  0  0  0  0  0  0  0  0  0  0  0
   -1.9620   21.1140  -28.7310 C   0  0  0  0  0  0  0  0  0  0  0  0
   -3.0820   20.7830  -29.4980 C   0  0  0  0  0  0  0  0  0  0  0  0
   -3.8740   21.7920  -30.0580 C   0  0  0  0  0  0  0  0  0  0  0  0
   -3.5330   23.1420  -29.8700 C   0  0  0  0  0  0  0  0  0  0  0  0
   -4.3710   24.1860  -30.4810 C   0  0  0  0  0  0  0  0  0  0  0  0
   -3.8440   25.3010  -30.7580 O   0  0  0  0  0  0  0  0  0  0  0  0
   -5.7550   23.9400  -30.8000 N   0  0  0  0  0  0  0  0  0  0  0  0
   -6.7490   24.0410  -29.7280 C   0  0  0  0  0  0  0  0  0  0  0  0
   -6.1710   23.6420  -32.1810 C   0  0  0  0  0  0  0  0  0  0  0  0
   -6.5590   22.1950  -32.3260 C   0  0  0  0  0  0  0  0  0  0  0  0
   -7.7830   21.6070  -32.0270 C   0  0  0  0  0  0  0  0  0  0  0  0
   -8.9920   22.2690  -31.4390 C   0  0  0  0  0  0  0  0  0  0  0  0
   -7.6960   20.2830  -32.2510 N   0  0  0  0  0  0  0  0  0  0  0  0
   -6.4790   19.9970  -32.6920 N   0  0  0  0  0  0  0  0  0  0  0  0
   -6.0590   18.6700  -33.0510 C   0  0  0  0  0  0  0  0  0  0  0  0
   -5.7250   18.3560  -34.3800 C   0  0  0  0  0  0  0  0  0  0  0  0
   -5.3560   17.0520  -34.7250 C   0  0  0  0  0  0  0  0  0  0  0  0
   -5.3260   16.0500  -33.7510 C   0  0  0  0  0  0  0  0  0  0  0  0
   -5.6700   16.3510  -32.4300 C   0  0  0  0  0  0  0  0  0  0  0  0
   -6.0370   17.6540  -32.0800 C   0  0  0  0  0  0  0  0  0  0  0  0
   -5.7500   21.1390  -32.7300 C   0  0  0  0  0  0  0  0  0  0  0  0
   -4.3000   21.2330  -33.1030 C   0  0  0  0  0  0  0  0  0  0  0  0
    2.1757   24.4054  -26.3992 H   0  0  0  0  0  0  0  0  0  0  0  0
    2.5276   23.3780  -27.8300 H   0  0  0  0  0  0  0  0  0  0  0  0
    3.0016   25.1106  -27.8300 H   0  0  0  0  0  0  0  0  0  0  0  0
    0.6810   25.2803  -26.0891 H   0  0  0  0  0  0  0  0  0  0  0  0
    0.1556   26.4687  -27.3237 H   0  0  0  0  0  0  0  0  0  0  0  0
   -1.1064   23.7010  -26.9538 H   0  0  0  0  0  0  0  0  0  0  0  0
   -1.7477   25.2129  -26.2166 H   0  0  0  0  0  0  0  0  0  0  0  0
   -0.7755   22.7121  -27.8740 H   0  0  0  0  0  0  0  0  0  0  0  0
   -1.3306   20.3185  -28.3085 H   0  0  0  0  0  0  0  0  0  0  0  0
   -3.3419   19.7268  -29.6621 H   0  0  0  0  0  0  0  0  0  0  0  0
   -4.7650   21.5276  -30.6464 H   0  0  0  0  0  0  0  0  0  0  0  0
   -6.2429   23.9896  -28.7527 H   0  0  0  0  0  0  0  0  0  0  0  0
   -7.2843   24.9982  -29.8133 H   0  0  0  0  0  0  0  0  0  0  0  0
   -7.4659   23.2111  -29.8133 H   0  0  0  0  0  0  0  0  0  0  0  0
   -7.0331   24.2736  -32.4414 H   0  0  0  0  0  0  0  0  0  0  0  0
   -5.3258   23.8478  -32.8542 H   0  0  0  0  0  0  0  0  0  0  0  0
   -8.9309   22.2355  -30.3412 H   0  0  0  0  0  0  0  0  0  0  0  0
   -9.0349   23.3165  -31.7721 H   0  0  0  0  0  0  0  0  0  0  0  0
   -9.8976   21.7409  -31.7721 H   0  0  0  0  0  0  0  0  0  0  0  0
   -8.4610   19.5850  -32.1100 H   0  0  0  0  0  0  0  0  0  0  0  0
   -5.7540   19.1393  -35.1517 H   0  0  0  0  0  0  0  0  0  0  0  0
   -5.0888   16.8143  -35.7652 H   0  0  0  0  0  0  0  0  0  0  0  0
   -5.0320   15.0257  -34.0237 H   0  0  0  0  0  0  0  0  0  0  0  0
   -5.6519   15.5613  -31.6644 H   0  0  0  0  0  0  0  0  0  0  0  0
   -6.3098   17.8851  -31.0397 H   0  0  0  0  0  0  0  0  0  0  0  0
   -3.6883   21.2727  -32.1896 H   0  0  0  0  0  0  0  0  0  0  0  0
   -4.0161   20.3514  -33.6964 H   0  0  0  0  0  0  0  0  0  0  0  0
   -4.1324   22.1439  -33.6964 H   0  0  0  0  0  0  0  0  0  0  0  0
  1  2  1  0
  2  3  1  0
  3  4  1  0
  4  5  1  0
  5  6  1  0
  6  7  2  0
  7  8  1  0
  8  9  2  0
  9 10  1  0
 10 11  2  0
 11 12  1  0
 12 13  2  0
 12 14  1  0
 14 15  1  0
 14 16  1  0
 16 17  1  0
 17 18  1  0
 18 19  1  0
 18 20  2  0
 20 21  1  0
 21 22  1  0
 22 23  2  0
 23 24  1  0
 24 25  2  0
 25 26  1  0
 26 27  2  0
 21 28  1  0
 28 29  1  0
 11  6  1  0
 28 17  2  0
 27 22  1  0
  1 30  1  0
  1 31  1  0
  1 32  1  0
  3 33  1  0
  3 34  1  0
  4 35  1  0
  4 36  1  0
  7 37  1  0
  8 38  1  0
  9 39  1  0
 10 40  1  0
 15 41  1  0
 15 42  1  0
 15 43  1  0
 16 44  1  0
 16 45  1  0
 19 46  1  0
 19 47  1  0
 19 48  1  0
 20 49  1  0
 23 50  1  0
 24 51  1  0
 25 52  1  0
 26 53  1  0
 27 54  1  0
 29 55  1  0
 29 56  1  0
 29 57  1  0
M  CHG  1  20   1
M  END
>  <UniqueID>  (16) 
15

>  <SMILES>  (16) 
COCCSc1ccccc1C(=O)N(C)Cc1c(C)[nH+]n(-c2ccccc2)c1C

>  <Energy>  (16) 
91.38004166002567

>  <Genealogy>  (16) 
COCCSc1ccccc1C(=O)N(C)Cc1c(C)[nH+]n(-c2ccccc2)c1C (protonated)
COCCSc1ccccc1C(=O)N(C)Cc1c(C)[nH+]n(-c2ccccc2)c1C (3D coordinates assigned)
COCCSc1ccccc1C(=O)N(C)Cc1c(C)[nH+]n(-c2ccccc2)c1C (optimized conformer: 91.38004166002567 kcal/mol)

>  <smiles>  (16) 
COCCSc1ccccc1C(=O)N(C)Cc1c(C)nn(-c2ccccc2)c1C

>  <score_type>  (16) 
oracle

>  <origin>  (16) 
adg

>  <m_score__min__energy>  (16) 
-8.8900000000000006

>  <m_primary>  (16) 
energy

$$$$
16:0
     RDKit          3D

 39 39  0  0  0  0  0  0  0  0999 V2000
   -9.1608   18.4268  -31.5883 H   0  0  0  0  0  0  0  0  0  0  0  0
   -8.2780   18.9330  -32.0060 C   0  0  0  0  0  0  0  0  0  0  0  0
   -8.0720   20.2940  -31.7590 C   0  0  0  0  0  0  0  0  0  0  0  0
   -8.7978   20.8558  -31.1527 H   0  0  0  0  0  0  0  0  0  0  0  0
   -6.9410   20.9490  -32.2820 C   0  0  0  0  0  0  0  0  0  0  0  0
   -6.7190   22.3970  -32.0440 C   0  0  0  0  0  0  0  0  0  0  0  0
   -7.6230   23.2170  -32.3610 O   0  0  0  0  0  0  0  0  0  0  0  0
   -5.4600   22.9090  -31.4560 C   0  0  0  0  0  0  0  0  0  0  0  0
   -5.0860   24.1180  -31.7550 N   0  0  0  0  0  0  0  0  0  0  0  0
   -4.7350   25.0520  -30.8070 O   0  0  0  0  0  0  0  0  0  0  0  0
   -5.7360   25.7490  -30.0850 C   0  0  0  0  0  0  0  0  0  0  0  0
   -5.5614   25.6274  -29.0058 H   0  0  0  0  0  0  0  0  0  0  0  0
   -5.6985   26.8173  -30.3445 H   0  0  0  0  0  0  0  0  0  0  0  0
   -6.7249   25.3432  -30.3445 H   0  0  0  0  0  0  0  0  0  0  0  0
   -4.6870   22.0650  -30.4480 C   0  0  0  0  0  0  0  0  0  0  0  0
   -4.1626   21.2676  -30.9950 H   0  0  0  0  0  0  0  0  0  0  0  0
   -5.4233   21.6742  -29.7303 H   0  0  0  0  0  0  0  0  0  0  0  0
   -3.6820   22.8300  -29.6590 N   0  0  0  0  0  0  0  0  0  0  0  0
   -3.7970   23.8230  -29.9740 H   0  0  0  0  0  0  0  0  0  0  0  0
   -4.0000   22.7980  -28.2070 C   0  0  0  0  0  0  0  0  0  0  0  0
   -3.3051   22.1049  -27.7103 H   0  0  0  0  0  0  0  0  0  0  0  0
   -5.0454   22.4716  -28.1043 H   0  0  0  0  0  0  0  0  0  0  0  0
   -3.8790   24.1720  -27.5420 C   0  0  0  0  0  0  0  0  0  0  0  0
   -3.8895   24.0524  -26.4486 H   0  0  0  0  0  0  0  0  0  0  0  0
   -2.9356   24.6466  -27.8499 H   0  0  0  0  0  0  0  0  0  0  0  0
   -4.7250   24.8041  -27.8499 H   0  0  0  0  0  0  0  0  0  0  0  0
   -2.2860   22.3830  -29.9460 C   0  0  0  0  0  0  0  0  0  0  0  0
   -1.6287   23.2649  -29.9622 H   0  0  0  0  0  0  0  0  0  0  0  0
   -1.9908   21.6756  -29.1570 H   0  0  0  0  0  0  0  0  0  0  0  0
   -2.1710   21.6580  -31.2920 C   0  0  0  0  0  0  0  0  0  0  0  0
   -2.0009   20.5854  -31.1174 H   0  0  0  0  0  0  0  0  0  0  0  0
   -3.1019   21.7935  -31.8622 H   0  0  0  0  0  0  0  0  0  0  0  0
   -1.3278   22.0749  -31.8622 H   0  0  0  0  0  0  0  0  0  0  0  0
   -6.0380   20.2200  -33.0760 C   0  0  0  0  0  0  0  0  0  0  0  0
   -5.1612   20.7234  -33.5093 H   0  0  0  0  0  0  0  0  0  0  0  0
   -6.2480   18.8590  -33.3180 C   0  0  0  0  0  0  0  0  0  0  0  0
   -5.5314   18.2941  -33.9323 H   0  0  0  0  0  0  0  0  0  0  0  0
   -7.3650   18.2150  -32.7820 C   0  0  0  0  0  0  0  0  0  0  0  0
   -7.5680   16.8970  -33.0210 F   0  0  0  0  0  0  0  0  0  0  0  0
  1  2  1  0
  2  3  2  0
  3  4  1  0
  3  5  1  0
  5  6  1  0
  6  7  2  0
  6  8  1  0
  8  9  2  0
  9 10  1  0
 10 11  1  0
 11 12  1  0
 11 13  1  0
 11 14  1  0
  8 15  1  0
 15 16  1  0
 15 17  1  0
 15 18  1  0
 18 19  1  0
 18 20  1  0
 20 21  1  0
 20 22  1  0
 20 23  1  0
 23 24  1  0
 23 25  1  0
 23 26  1  0
 18 27  1  0
 27 28  1  0
 27 29  1  0
 27 30  1  0
 30 31  1  0
 30 32  1  0
 30 33  1  0
  5 34  2  0
 34 35  1  0
 34 36  1  0
 36 37  1  0
 36 38  2  0
 38 39  1  0
 38  2  1  0
M  CHG  1  18   1
M  END
>  <UniqueID>  (17) 
16

>  <SMILES>  (17) 
CC[NH+](CC)C/C(=N\OC)C(=O)c1ccc(F)cc1

>  <Energy>  (17) 
42.11807320357479

>  <Genealogy>  (17) 
CC[NH+](CC)CC(=NOC)C(=O)c1ccc(F)cc1 (protonated)
CC[NH+](CC)C/C(=N\OC)C(=O)c1ccc(F)cc1 (cis-trans isomerization)
CC[NH+](CC)C/C(=N\OC)C(=O)c1ccc(F)cc1 (3D coordinates assigned)
CC[NH+](CC)C/C(=N\OC)C(=O)c1ccc(F)cc1 (optimized conformer: 42.11807320357479 kcal/mol)

>  <smiles>  (17) 
CCN(CC)CC(=NOC)C(=O)c1ccc(F)cc1

>  <score_type>  (17) 
oracle

>  <origin>  (17) 
adg

>  <m_score__min__energy>  (17) 
-5.2599999999999998

>  <m_primary>  (17) 
energy

$$$$
17:0
     RDKit          3D

 48 49  0  0  0  0  0  0  0  0999 V2000
   -9.9048   19.0276  -31.6865 H   0  0  0  0  0  0  0  0  0  0  0  0
   -8.8790   19.2940  -31.9810 C   0  0  0  0  0  0  0  0  0  0  0  0
   -8.4920   20.6350  -32.0030 C   0  0  0  0  0  0  0  0  0  0  0  0
   -9.4800   21.7120  -31.6630 C   0  0  0  0  0  0  0  0  0  0  0  0
   -9.5626   21.8020  -30.5698 H   0  0  0  0  0  0  0  0  0  0  0  0
   -9.1390   22.6689  -32.0850 H   0  0  0  0  0  0  0  0  0  0  0  0
  -10.4627   21.4546  -32.0850 H   0  0  0  0  0  0  0  0  0  0  0  0
   -7.1990   20.9720  -32.4180 C   0  0  0  0  0  0  0  0  0  0  0  0
   -6.9031   22.0304  -32.4647 H   0  0  0  0  0  0  0  0  0  0  0  0
   -6.2680   19.9720  -32.7780 C   0  0  0  0  0  0  0  0  0  0  0  0
   -4.9650   20.3150  -33.2000 C   0  0  0  0  0  0  0  0  0  0  0  0
   -4.6120   21.5740  -33.2520 N   0  0  0  0  0  0  0  0  0  0  0  0
   -3.9640   22.3730  -32.2100 C   0  0  0  0  0  0  0  0  0  0  0  0
   -3.3058   23.1170  -32.6825 H   0  0  0  0  0  0  0  0  0  0  0  0
   -3.3796   21.7027  -31.5626 H   0  0  0  0  0  0  0  0  0  0  0  0
   -5.0100   23.0980  -31.3530 C   0  0  0  0  0  0  0  0  0  0  0  0
   -5.3034   22.4482  -30.5154 H   0  0  0  0  0  0  0  0  0  0  0  0
   -5.8826   23.3291  -31.9816 H   0  0  0  0  0  0  0  0  0  0  0  0
   -4.4630   24.3630  -30.8170 N   0  0  0  0  0  0  0  0  0  0  0  0
   -3.3770   24.1850  -29.8280 C   0  0  0  0  0  0  0  0  0  0  0  0
   -2.6719   25.0228  -29.9322 H   0  0  0  0  0  0  0  0  0  0  0  0
   -2.9079   23.2124  -30.0378 H   0  0  0  0  0  0  0  0  0  0  0  0
   -3.8650   24.1420  -28.3780 C   0  0  0  0  0  0  0  0  0  0  0  0
   -3.0032   24.2179  -27.6987 H   0  0  0  0  0  0  0  0  0  0  0  0
   -4.5501   24.9833  -28.1966 H   0  0  0  0  0  0  0  0  0  0  0  0
   -4.3924   23.1939  -28.1966 H   0  0  0  0  0  0  0  0  0  0  0  0
   -5.4400   25.4310  -30.4840 C   0  0  0  0  0  0  0  0  0  0  0  0
   -5.0303   26.0199  -29.6502 H   0  0  0  0  0  0  0  0  0  0  0  0
   -5.5810   26.0156  -31.4051 H   0  0  0  0  0  0  0  0  0  0  0  0
   -6.8350   24.9330  -30.0750 C   0  0  0  0  0  0  0  0  0  0  0  0
   -6.9079   24.9070  -28.9777 H   0  0  0  0  0  0  0  0  0  0  0  0
   -7.5998   25.6136  -30.4772 H   0  0  0  0  0  0  0  0  0  0  0  0
   -6.9959   23.9219  -30.4772 H   0  0  0  0  0  0  0  0  0  0  0  0
   -4.0840   19.2870  -33.5630 C   0  0  0  0  0  0  0  0  0  0  0  0
   -3.0685   19.5317  -33.9077 H   0  0  0  0  0  0  0  0  0  0  0  0
   -4.4890   17.9600  -33.4890 C   0  0  0  0  0  0  0  0  0  0  0  0
   -3.7858   17.1670  -33.7836 H   0  0  0  0  0  0  0  0  0  0  0  0
   -5.7400   17.6160  -33.0590 N   0  0  0  0  0  0  0  0  0  0  0  0
   -6.0600   16.1750  -33.0090 C   0  0  0  0  0  0  0  0  0  0  0  0
   -5.1240   15.5984  -32.9710 H   0  0  0  0  0  0  0  0  0  0  0  0
   -6.6662   15.9783  -32.1124 H   0  0  0  0  0  0  0  0  0  0  0  0
   -6.8570   15.7560  -34.2420 C   0  0  0  0  0  0  0  0  0  0  0  0
   -7.7897   15.2656  -33.9265 H   0  0  0  0  0  0  0  0  0  0  0  0
   -7.0957   16.6452  -34.8439 H   0  0  0  0  0  0  0  0  0  0  0  0
   -6.2598   15.0553  -34.8439 H   0  0  0  0  0  0  0  0  0  0  0  0
   -6.6520   18.6000  -32.7230 C   0  0  0  0  0  0  0  0  0  0  0  0
   -7.9770   18.2890  -32.3290 C   0  0  0  0  0  0  0  0  0  0  0  0
   -8.2994   17.2378  -32.2971 H   0  0  0  0  0  0  0  0  0  0  0  0
  1  2  1  0
  2  3  2  0
  3  4  1  0
  4  5  1  0
  4  6  1  0
  4  7  1  0
  3  8  1  0
  8  9  1  0
  8 10  2  0
 10 11  1  0
 11 12  2  0
 12 13  1  0
 13 14  1  0
 13 15  1  0
 13 16  1  0
 16 17  1  0
 16 18  1  0
 16 19  1  0
 19 20  1  0
 20 21  1  0
 20 22  1  0
 20 23  1  0
 23 24  1  0
 23 25  1  0
 23 26  1  0
 19 27  1  0
 27 28  1  0
 27 29  1  0
 27 30  1  0
 30 31  1  0
 30 32  1  0
 30 33  1  0
 11 34  1  0
 34 35  1  0
 34 36  2  0
 36 37  1  0
 36 38  1  0
 38 39  1  0
 39 40  1  0
 39 41  1  0
 39 42  1  0
 42 43  1  0
 42 44  1  0
 42 45  1  0
 38 46  1  0
 46 47  2  0
 47 48  1  0
 47  2  1  0
 46 10  1  0
M  END
>  <UniqueID>  (18) 
17

>  <SMILES>  (18) 
CCN(CC)CC/N=c1\ccn(CC)c2ccc(C)cc12

>  <Energy>  (18) 
60.92967080638159

>  <Genealogy>  (18) 
CCN(CC)CC/N=c1\ccn(CC)c2ccc(C)cc12 (cis-trans isomerization)
CCN(CC)CC/N=c1\ccn(CC)c2ccc(C)cc12 (3D coordinates assigned)
CCN(CC)CC/N=c1\ccn(CC)c2ccc(C)cc12 (optimized conformer: 60.92967080638159 kcal/mol)

>  <smiles>  (18) 
CCN(CC)CCN=c1ccn(CC)c2ccc(C)cc12

>  <score_type>  (18) 
oracle

>  <origin>  (18) 
adg

>  <m_score__min__energy>  (18) 
-7.8600000000000003

>  <m_primary>  (18) 
energy

$$$$
18:0
     RDKit          3D

 44 45  0  0  0  0  0  0  0  0999 V2000
   -7.0970   24.3880  -29.7260 C   0  0  0  0  0  0  0  0  0  0  0  0
   -6.0720   25.2430  -29.7680 C   0  0  0  0  0  0  0  0  0  0  0  0
   -5.2920   25.4680  -31.0290 C   0  0  0  0  0  0  0  0  0  0  0  0
   -3.8650   25.4300  -30.7390 N   0  0  0  0  0  0  0  0  0  0  0  0
   -3.2730   24.4380  -29.8960 C   0  0  0  0  0  0  0  0  0  0  0  0
   -2.5730   24.7790  -28.9050 O   0  0  0  0  0  0  0  0  0  0  0  0
   -3.4750   22.9810  -30.2030 C   0  0  0  0  0  0  0  0  0  0  0  0
   -4.0830   22.7740  -31.5410 N   0  0  0  0  0  0  0  0  0  0  0  0
   -3.1980   21.9040  -32.3680 C   0  0  0  0  0  0  0  0  0  0  0  0
   -3.9710   21.1030  -33.4180 C   0  0  0  0  0  0  0  0  0  0  0  0
   -4.9570   20.2620  -32.7370 N   0  0  0  0  0  0  0  0  0  0  0  0
   -5.2550   18.9460  -33.2250 C   0  0  0  0  0  0  0  0  0  0  0  0
   -4.2170   18.1280  -33.6930 C   0  0  0  0  0  0  0  0  0  0  0  0
   -4.4910   16.8430  -34.1680 C   0  0  0  0  0  0  0  0  0  0  0  0
   -5.8050   16.3690  -34.1810 C   0  0  0  0  0  0  0  0  0  0  0  0
   -6.8470   17.1790  -33.7230 C   0  0  0  0  0  0  0  0  0  0  0  0
   -6.5830   18.4780  -33.2450 C   0  0  0  0  0  0  0  0  0  0  0  0
   -7.6060   19.3290  -32.7980 O   0  0  0  0  0  0  0  0  0  0  0  0
   -8.6990   18.9190  -31.9840 C   0  0  0  0  0  0  0  0  0  0  0  0
   -5.6160   20.7590  -31.5260 C   0  0  0  0  0  0  0  0  0  0  0  0
   -5.4910   22.2880  -31.4370 C   0  0  0  0  0  0  0  0  0  0  0  0
   -7.6528   24.2413  -28.7881 H   0  0  0  0  0  0  0  0  0  0  0  0
   -7.3855   23.8304  -30.6293 H   0  0  0  0  0  0  0  0  0  0  0  0
   -5.7937   25.7943  -28.8577 H   0  0  0  0  0  0  0  0  0  0  0  0
   -5.5381   24.6803  -31.7563 H   0  0  0  0  0  0  0  0  0  0  0  0
   -5.5520   26.4518  -31.4466 H   0  0  0  0  0  0  0  0  0  0  0  0
   -2.4996   22.4733  -30.1737 H   0  0  0  0  0  0  0  0  0  0  0  0
   -4.1617   22.5670  -29.4499 H   0  0  0  0  0  0  0  0  0  0  0  0
   -4.1150   23.7050  -32.0220 H   0  0  0  0  0  0  0  0  0  0  0  0
   -2.4612   22.5389  -32.8819 H   0  0  0  0  0  0  0  0  0  0  0  0
   -2.7137   21.1844  -31.6916 H   0  0  0  0  0  0  0  0  0  0  0  0
   -4.4841   21.7921  -34.1049 H   0  0  0  0  0  0  0  0  0  0  0  0
   -3.2768   20.4737  -33.9942 H   0  0  0  0  0  0  0  0  0  0  0  0
   -3.1817   18.4998  -33.6862 H   0  0  0  0  0  0  0  0  0  0  0  0
   -3.6723   16.2047  -34.5316 H   0  0  0  0  0  0  0  0  0  0  0  0
   -6.0196   15.3561  -34.5525 H   0  0  0  0  0  0  0  0  0  0  0  0
   -7.8797   16.8005  -33.7356 H   0  0  0  0  0  0  0  0  0  0  0  0
   -8.4252   19.0217  -30.9236 H   0  0  0  0  0  0  0  0  0  0  0  0
   -9.5738   19.5501  -32.1996 H   0  0  0  0  0  0  0  0  0  0  0  0
   -8.9429   17.8683  -32.1996 H   0  0  0  0  0  0  0  0  0  0  0  0
   -6.6806   20.4834  -31.5536 H   0  0  0  0  0  0  0  0  0  0  0  0
   -5.1318   20.3097  -30.6464 H   0  0  0  0  0  0  0  0  0  0  0  0
   -6.0753   22.7340  -32.2553 H   0  0  0  0  0  0  0  0  0  0  0  0
   -5.8662   22.5878  -30.4474 H   0  0  0  0  0  0  0  0  0  0  0  0
  1  2  2  0
  2  3  1  0
  3  4  1  0
  4  5  1  0
  5  6  2  0
  5  7  1  0
  7  8  1  0
  8  9  1  0
  9 10  1  0
 10 11  1  0
 11 12  1  0
 12 13  2  0
 13 14  1  0
 14 15  2  0
 15 16  1  0
 16 17  2  0
 17 18  1  0
 18 19  1  0
 11 20  1  0
 20 21  1  0
 21  8  1  0
 17 12  1  0
  1 22  1  0
  1 23  1  0
  2 24  1  0
  3 25  1  0
  3 26  1  0
  7 27  1  0
  7 28  1  0
  8 29  1  0
  9 30  1  0
  9 31  1  0
 10 32  1  0
 10 33  1  0
 13 34  1  0
 14 35  1  0
 15 36  1  0
 16 37  1  0
 19 38  1  0
 19 39  1  0
 19 40  1  0
 20 41  1  0
 20 42  1  0
 21 43  1  0
 21 44  1  0
M  CHG  2   4  -1   8   1
M  END
>  <UniqueID>  (19) 
18

>  <SMILES>  (19) 
C=CC[N-]C(=O)C[NH+]1CCN(c2ccccc2OC)CC1

>  <Energy>  (19) 
50.10055795772613

>  <Genealogy>  (19) 
C=CC[N-]C(=O)C[NH+]1CCN(c2ccccc2OC)CC1 (protonated)
C=CC[N-]C(=O)C[NH+]1CCN(c2ccccc2OC)CC1 (3D coordinates assigned)
C=CC[N-]C(=O)C[NH+]1CCN(c2ccccc2OC)CC1 (nonaromatic ring conformer: 50.10055795772613 kcal/mol)

>  <smiles>  (19) 
C=CCNC(=O)CN1CCN(c2ccccc2OC)CC1

>  <score_type>  (19) 
oracle

>  <origin>  (19) 
adg

>  <m_score__min__energy>  (19) 
-7.5499999999999998

>  <m_primary>  (19) 
energy

$$$$
19:0
     RDKit          3D

 35 37  0  0  0  0  0  0  0  0999 V2000
   -1.2270   26.4110  -30.0920 H   0  0  0  0  0  0  0  0  0  0  0  0
   -1.2390   25.7200  -29.3090 N   0  0  0  0  0  0  0  0  0  0  0  0
   -2.0820   24.7390  -29.2860 C   0  0  0  0  0  0  0  0  0  0  0  0
   -3.3300   24.9110  -29.7890 N   0  0  0  0  0  0  0  0  0  0  0  0
   -4.2410   23.9010  -29.7810 C   0  0  0  0  0  0  0  0  0  0  0  0
   -5.5490   24.1170  -30.3460 N   0  0  0  0  0  0  0  0  0  0  0  0
   -6.2190   23.0300  -31.0210 C   0  0  0  0  0  0  0  0  0  0  0  0
   -7.5350   22.6610  -30.6760 C   0  0  0  0  0  0  0  0  0  0  0  0
   -8.0652   23.2066  -29.8815 H   0  0  0  0  0  0  0  0  0  0  0  0
   -8.1710   21.6050  -31.3380 C   0  0  0  0  0  0  0  0  0  0  0  0
   -9.1991   21.3257  -31.0643 H   0  0  0  0  0  0  0  0  0  0  0  0
   -7.5040   20.9050  -32.3450 C   0  0  0  0  0  0  0  0  0  0  0  0
   -8.0067   20.0754  -32.8637 H   0  0  0  0  0  0  0  0  0  0  0  0
   -6.1980   21.2580  -32.6940 C   0  0  0  0  0  0  0  0  0  0  0  0
   -5.6725   20.7048  -33.4864 H   0  0  0  0  0  0  0  0  0  0  0  0
   -5.5580   22.3140  -32.0370 C   0  0  0  0  0  0  0  0  0  0  0  0
   -4.5298   22.5872  -32.3165 H   0  0  0  0  0  0  0  0  0  0  0  0
   -6.0760   25.4830  -30.4450 C   0  0  0  0  0  0  0  0  0  0  0  0
   -6.2329   25.8896  -29.4350 H   0  0  0  0  0  0  0  0  0  0  0  0
   -5.3571   26.1150  -30.9871 H   0  0  0  0  0  0  0  0  0  0  0  0
   -7.0330   25.4684  -30.9871 H   0  0  0  0  0  0  0  0  0  0  0  0
   -3.8770   22.6530  -29.2570 C   0  0  0  0  0  0  0  0  0  0  0  0
   -4.5913   21.8165  -29.2592 H   0  0  0  0  0  0  0  0  0  0  0  0
   -2.5860   22.4870  -28.7290 C   0  0  0  0  0  0  0  0  0  0  0  0
   -2.1340   21.1920  -28.1590 C   0  0  0  0  0  0  0  0  0  0  0  0
   -0.8440   20.6840  -28.4070 C   0  0  0  0  0  0  0  0  0  0  0  0
   -0.1410   21.2552  -29.0311 H   0  0  0  0  0  0  0  0  0  0  0  0
   -0.4640   19.4900  -27.8780 N   0  0  0  0  0  0  0  0  0  0  0  0
   -1.2990   18.7490  -27.1040 C   0  0  0  0  0  0  0  0  0  0  0  0
   -0.9562   17.7912  -26.6856 H   0  0  0  0  0  0  0  0  0  0  0  0
   -2.5910   19.2030  -26.8400 C   0  0  0  0  0  0  0  0  0  0  0  0
   -3.2738   18.6049  -26.2187 H   0  0  0  0  0  0  0  0  0  0  0  0
   -3.0090   20.4240  -27.3720 C   0  0  0  0  0  0  0  0  0  0  0  0
   -4.0284   20.7868  -27.1742 H   0  0  0  0  0  0  0  0  0  0  0  0
   -1.7210   23.5380  -28.7640 N   0  0  0  0  0  0  0  0  0  0  0  0
  1  2  1  0
  2  3  2  0
  3  4  1  0
  4  5  2  0
  5  6  1  0
  6  7  1  0
  7  8  2  0
  8  9  1  0
  8 10  1  0
 10 11  1  0
 10 12  2  0
 12 13  1  0
 12 14  1  0
 14 15  1  0
 14 16  2  0
 16 17  1  0
  6 18  1  0
 18 19  1  0
 18 20  1  0
 18 21  1  0
  5 22  1  0
 22 23  1  0
 22 24  2  0
 24 25  1  0
 25 26  2  0
 26 27  1  0
 26 28  1  0
 28 29  2  0
 29 30  1  0
 29 31  1  0
 31 32  1  0
 31 33  2  0
 33 34  1  0
 24 35  1  0
 35  3  1  0
 16  7  1  0
 33 25  1  0
M  CHG  1  35  -1
M  END
>  <UniqueID>  (20) 
19

>  <SMILES>  (20) 
[H]/N=c1/nc(N(C)c2ccccc2)cc(-c2cccnc2)[n-]1

>  <Energy>  (20) 
50.925430279779064

>  <Genealogy>  (20) 
CN(c1ccccc1)c1cc(-c2cccnc2)[n-]c(=N)n1 (protonated)
[H]/N=c1/nc(N(C)c2ccccc2)cc(-c2cccnc2)[n-]1 (cis-trans isomerization)
[H]/N=c1/nc(N(C)c2ccccc2)cc(-c2cccnc2)[n-]1 (3D coordinates assigned)
[H]/N=c1/nc(N(C)c2ccccc2)cc(-c2cccnc2)[n-]1 (optimized conformer: 50.925430279779064 kcal/mol)

>  <smiles>  (20) 
CN(c1ccccc1)c1cc(-c2cccnc2)[nH]c(=N)n1

>  <score_type>  (20) 
oracle

>  <origin>  (20) 
adg

>  <m_score__min__energy>  (20) 
-9.0199999999999996

>  <m_primary>  (20) 
energy

$$$$
20:0
     RDKit          3D

 53 56  0  0  0  0  0  0  0  0999 V2000
   -8.9611   19.0436  -30.8249 H   0  0  0  0  0  0  0  0  0  0  0  0
   -8.2040   18.9650  -31.6190 C   0  0  0  0  0  0  0  0  0  0  0  0
   -8.0030   17.7440  -32.2680 C   0  0  0  0  0  0  0  0  0  0  0  0
   -8.5904   16.8619  -31.9732 H   0  0  0  0  0  0  0  0  0  0  0  0
   -7.0550   17.6420  -33.2930 C   0  0  0  0  0  0  0  0  0  0  0  0
   -6.8070   16.0780  -34.1360 S   0  0  0  0  0  0  0  0  0  0  0  0
   -4.9950   16.2470  -34.1760 C   0  0  0  0  0  0  0  0  0  0  0  0
   -4.6073   16.2832  -33.1472 H   0  0  0  0  0  0  0  0  0  0  0  0
   -4.5579   15.3857  -34.7025 H   0  0  0  0  0  0  0  0  0  0  0  0
   -4.7248   17.1742  -34.7025 H   0  0  0  0  0  0  0  0  0  0  0  0
   -6.3040   18.7650  -33.6620 C   0  0  0  0  0  0  0  0  0  0  0  0
   -5.5542   18.6855  -34.4630 H   0  0  0  0  0  0  0  0  0  0  0  0
   -6.5060   19.9860  -33.0140 C   0  0  0  0  0  0  0  0  0  0  0  0
   -5.9268   20.8703  -33.3183 H   0  0  0  0  0  0  0  0  0  0  0  0
   -7.4480   20.0890  -31.9730 C   0  0  0  0  0  0  0  0  0  0  0  0
   -7.6930   21.3010  -31.3070 O   0  0  0  0  0  0  0  0  0  0  0  0
   -6.7630   22.3360  -31.1370 C   0  0  0  0  0  0  0  0  0  0  0  0
   -6.8520   23.4690  -31.9800 C   0  0  0  0  0  0  0  0  0  0  0  0
   -7.6363   23.5125  -32.7500 H   0  0  0  0  0  0  0  0  0  0  0  0
   -5.9500   24.5410  -31.8460 C   0  0  0  0  0  0  0  0  0  0  0  0
   -6.0070   25.4181  -32.5074 H   0  0  0  0  0  0  0  0  0  0  0  0
   -4.9840   24.4540  -30.8490 C   0  0  0  0  0  0  0  0  0  0  0  0
   -4.0220   25.3520  -30.5610 N   0  0  0  0  0  0  0  0  0  0  0  0
   -3.3680   24.7630  -29.5240 C   0  0  0  0  0  0  0  0  0  0  0  0
   -2.3350   25.2950  -28.9370 N   0  0  0  0  0  0  0  0  0  0  0  0
   -1.0720   24.5980  -28.7070 C   0  0  0  0  0  0  0  0  0  0  0  0
   -1.2667   23.5200  -28.6066 H   0  0  0  0  0  0  0  0  0  0  0  0
   -0.4025   24.7850  -29.5595 H   0  0  0  0  0  0  0  0  0  0  0  0
   -0.3930   25.1160  -27.4140 C   0  0  0  0  0  0  0  0  0  0  0  0
   -0.1254   24.2459  -26.7965 H   0  0  0  0  0  0  0  0  0  0  0  0
    0.4779   25.7048  -27.7376 H   0  0  0  0  0  0  0  0  0  0  0  0
   -1.2280   26.0260  -26.5910 N   0  0  0  0  0  0  0  0  0  0  0  0
   -2.1400   26.1310  -27.0980 H   0  0  0  0  0  0  0  0  0  0  0  0
   -1.5300   25.4940  -25.2440 C   0  0  0  0  0  0  0  0  0  0  0  0
   -2.6181   25.4018  -25.1119 H   0  0  0  0  0  0  0  0  0  0  0  0
   -1.0825   24.4979  -25.1117 H   0  0  0  0  0  0  0  0  0  0  0  0
   -0.9650   26.4740  -24.2280 C   0  0  0  0  0  0  0  0  0  0  0  0
   -1.6326   26.5607  -23.3580 H   0  0  0  0  0  0  0  0  0  0  0  0
    0.0122   26.1549  -23.8365 H   0  0  0  0  0  0  0  0  0  0  0  0
   -0.8860   27.7840  -24.9730 C   0  0  0  0  0  0  0  0  0  0  0  0
   -1.8232   28.3500  -24.8663 H   0  0  0  0  0  0  0  0  0  0  0  0
   -0.0873   28.4370  -24.5912 H   0  0  0  0  0  0  0  0  0  0  0  0
   -0.6630   27.3800  -26.4210 C   0  0  0  0  0  0  0  0  0  0  0  0
   -1.1723   28.0874  -27.0919 H   0  0  0  0  0  0  0  0  0  0  0  0
    0.4091   27.3884  -26.6671 H   0  0  0  0  0  0  0  0  0  0  0  0
   -3.8890   23.5640  -29.1560 N   0  0  0  0  0  0  0  0  0  0  0  0
   -3.3910   22.6340  -28.1440 C   0  0  0  0  0  0  0  0  0  0  0  0
   -3.6050   23.0337  -27.1418 H   0  0  0  0  0  0  0  0  0  0  0  0
   -3.8884   21.6603  -28.2644 H   0  0  0  0  0  0  0  0  0  0  0  0
   -2.3049   22.5083  -28.2644 H   0  0  0  0  0  0  0  0  0  0  0  0
   -4.9030   23.3760  -30.0160 C   0  0  0  0  0  0  0  0  0  0  0  0
   -5.7770   22.2930  -30.1220 C   0  0  0  0  0  0  0  0  0  0  0  0
   -5.7021   21.4339  -29.4391 H   0  0  0  0  0  0  0  0  0  0  0  0
  1  2  1  0
  2  3  2  0
  3  4  1  0
  3  5  1  0
  5  6  1  0
  6  7  1  0
  7  8  1  0
  7  9  1  0
  7 10  1  0
  5 11  2  0
 11 12  1  0
 11 13  1  0
 13 14  1  0
 13 15  2  0
 15 16  1  0
 16 17  1  0
 17 18  2  0
 18 19  1  0
 18 20  1  0
 20 21  1  0
 20 22  2  0
 22 23  1  0
 23 24  1  0
 24 25  2  0
 25 26  1  0
 26 27  1  0
 26 28  1  0
 26 29  1  0
 29 30  1  0
 29 31  1  0
 29 32  1  0
 32 33  1  0
 32 34  1  0
 34 35  1  0
 34 36  1  0
 34 37  1  0
 37 38  1  0
 37 39  1  0
 37 40  1  0
 40 41  1  0
 40 42  1  0
 40 43  1  0
 43 44  1  0
 43 45  1  0
 24 46  1  0
 46 47  1  0
 47 48  1  0
 47 49  1  0
 47 50  1  0
 46 51  1  0
 51 52  2  0
 52 53  1  0
 15  2  1  0
 52 17  1  0
 51 22  1  0
 43 32  1  0
M  CHG  2  23  -1  32   1
M  END
>  <UniqueID>  (21) 
20

>  <SMILES>  (21) 
CSc1ccc(Oc2ccc3[n-]/c(=N\CC[NH+]4CCCC4)n(C)c3c2)cc1

>  <Energy>  (21) 
100.96002036213225

>  <Genealogy>  (21) 
CSc1ccc(Oc2ccc3[n-]c(=NCC[NH+]4CCCC4)n(C)c3c2)cc1 (protonated)
CSc1ccc(Oc2ccc3[n-]/c(=N\CC[NH+]4CCCC4)n(C)c3c2)cc1 (cis-trans isomerization)
CSc1ccc(Oc2ccc3[n-]/c(=N\CC[NH+]4CCCC4)n(C)c3c2)cc1 (3D coordinates assigned)
CSc1ccc(Oc2ccc3[n-]/c(=N\CC[NH+]4CCCC4)n(C)c3c2)cc1 (nonaromatic ring conformer: 100.96002036213225 kcal/mol)

>  <smiles>  (21) 
CSc1ccc(Oc2ccc3[nH]c(=NCCN4CCCC4)n(C)c3c2)cc1

>  <score_type>  (21) 
oracle

>  <origin>  (21) 
adg

>  <m_score__min__energy>  (21) 
-9.1899999999999995

>  <m_primary>  (21) 
energy

$$$$
21:0
     RDKit          3D

 52 55  0  0  0  0  0  0  0  0999 V2000
   -5.5449   25.8454  -31.6744 H   0  0  0  0  0  0  0  0  0  0  0  0
   -5.0120   25.0740  -31.0990 C   0  0  0  0  0  0  0  0  0  0  0  0
   -3.8560   25.3870  -30.4700 N   0  0  0  0  0  0  0  0  0  0  0  0
   -3.1900   24.4940  -29.6980 C   0  0  0  0  0  0  0  0  0  0  0  0
   -2.0380   24.9100  -29.0190 C   0  0  0  0  0  0  0  0  0  0  0  0
   -1.6283   25.9149  -29.1990 H   0  0  0  0  0  0  0  0  0  0  0  0
   -1.4090   24.0550  -28.1160 C   0  0  0  0  0  0  0  0  0  0  0  0
   -0.4863   24.3725  -27.6083 H   0  0  0  0  0  0  0  0  0  0  0  0
   -1.9500   22.7980  -27.8570 C   0  0  0  0  0  0  0  0  0  0  0  0
   -1.4769   22.1414  -27.1120 H   0  0  0  0  0  0  0  0  0  0  0  0
   -3.0910   22.3670  -28.5390 C   0  0  0  0  0  0  0  0  0  0  0  0
   -3.5308   21.3882  -28.2972 H   0  0  0  0  0  0  0  0  0  0  0  0
   -3.6880   23.1740  -29.5370 C   0  0  0  0  0  0  0  0  0  0  0  0
   -4.8250   22.7800  -30.3110 C   0  0  0  0  0  0  0  0  0  0  0  0
   -5.2210   21.5390  -30.4590 N   0  0  0  0  0  0  0  0  0  0  0  0
   -5.0730   20.6420  -31.5680 C   0  0  0  0  0  0  0  0  0  0  0  0
   -3.9960   20.7680  -32.4610 C   0  0  0  0  0  0  0  0  0  0  0  0
   -3.2262   21.5341  -32.2864 H   0  0  0  0  0  0  0  0  0  0  0  0
   -3.8990   19.9240  -33.5700 C   0  0  0  0  0  0  0  0  0  0  0  0
   -3.0344   20.0035  -34.2453 H   0  0  0  0  0  0  0  0  0  0  0  0
   -4.9030   18.9730  -33.8260 C   0  0  0  0  0  0  0  0  0  0  0  0
   -4.8360   18.0970  -34.9200 O   0  0  0  0  0  0  0  0  0  0  0  0
   -4.6760   16.7050  -34.8390 C   0  0  0  0  0  0  0  0  0  0  0  0
   -3.5030   16.1310  -35.3470 C   0  0  0  0  0  0  0  0  0  0  0  0
   -2.7344   16.7714  -35.8043 H   0  0  0  0  0  0  0  0  0  0  0  0
   -3.3040   14.7490  -35.2760 C   0  0  0  0  0  0  0  0  0  0  0  0
   -2.3864   14.3039  -35.6880 H   0  0  0  0  0  0  0  0  0  0  0  0
   -4.2700   13.9330  -34.6820 C   0  0  0  0  0  0  0  0  0  0  0  0
   -4.1150   12.8451  -34.6315 H   0  0  0  0  0  0  0  0  0  0  0  0
   -5.4330   14.4980  -34.1520 C   0  0  0  0  0  0  0  0  0  0  0  0
   -6.1905   13.8554  -33.6795 H   0  0  0  0  0  0  0  0  0  0  0  0
   -5.6340   15.8790  -34.2220 C   0  0  0  0  0  0  0  0  0  0  0  0
   -6.5447   16.3224  -33.7931 H   0  0  0  0  0  0  0  0  0  0  0  0
   -5.9840   18.8630  -32.9430 C   0  0  0  0  0  0  0  0  0  0  0  0
   -6.7629   18.1078  -33.1244 H   0  0  0  0  0  0  0  0  0  0  0  0
   -6.0800   19.7060  -31.8330 C   0  0  0  0  0  0  0  0  0  0  0  0
   -6.9505   19.6340  -31.1644 H   0  0  0  0  0  0  0  0  0  0  0  0
   -5.5380   23.7760  -31.0250 C   0  0  0  0  0  0  0  0  0  0  0  0
   -6.8010   23.4640  -31.7460 C   0  0  0  0  0  0  0  0  0  0  0  0
   -7.1320   24.1560  -32.7470 O   0  0  0  0  0  0  0  0  0  0  0  0
   -7.6500   22.3890  -31.3150 N   0  0  0  0  0  0  0  0  0  0  0  0
   -7.4210   21.8850  -30.4280 H   0  0  0  0  0  0  0  0  0  0  0  0
   -8.8390   22.0070  -32.0780 C   0  0  0  0  0  0  0  0  0  0  0  0
   -8.5743   21.9479  -33.1440 H   0  0  0  0  0  0  0  0  0  0  0  0
   -9.6152   22.7670  -31.9051 H   0  0  0  0  0  0  0  0  0  0  0  0
   -9.3920   20.6500  -31.6280 C   0  0  0  0  0  0  0  0  0  0  0  0
  -10.4536   20.7694  -31.3659 H   0  0  0  0  0  0  0  0  0  0  0  0
   -8.8013   20.3147  -30.7628 H   0  0  0  0  0  0  0  0  0  0  0  0
   -9.2710   19.5870  -32.7190 C   0  0  0  0  0  0  0  0  0  0  0  0
   -9.1582   18.5962  -32.2547 H   0  0  0  0  0  0  0  0  0  0  0  0
  -10.1762   19.5982  -33.3439 H   0  0  0  0  0  0  0  0  0  0  0  0
   -8.3915   19.8014  -33.3439 H   0  0  0  0  0  0  0  0  0  0  0  0
  1  2  1  0
  2  3  1  0
  3  4  1  0
  4  5  2  0
  5  6  1  0
  5  7  1  0
  7  8  1  0
  7  9  2  0
  9 10  1  0
  9 11  1  0
 11 12  1  0
 11 13  2  0
 13 14  1  0
 14 15  2  0
 15 16  1  0
 16 17  2  0
 17 18  1  0
 17 19  1  0
 19 20  1  0
 19 21  2  0
 21 22  1  0
 22 23  1  0
 23 24  2  0
 24 25  1  0
 24 26  1  0
 26 27  1  0
 26 28  2  0
 28 29  1  0
 28 30  1  0
 30 31  1  0
 30 32  2  0
 32 33  1  0
 21 34  1  0
 34 35  1  0
 34 36  2  0
 36 37  1  0
 14 38  1  0
 38 39  1  0
 39 40  2  0
 39 41  1  0
 41 42  1  0
 41 43  1  0
 43 44  1  0
 43 45  1  0
 43 46  1  0
 46 47  1  0
 46 48  1  0
 46 49  1  0
 49 50  1  0
 49 51  1  0
 49 52  1  0
 38  2  2  0
 13  4  1  0
 36 16  1  0
 32 23  1  0
M  CHG  1   3  -1
M  END
>  <UniqueID>  (22) 
21

>  <SMILES>  (22) 
CCCNC(=O)c1c[n-]c2ccccc2/c1=N\c1ccc(Oc2ccccc2)cc1

>  <Energy>  (22) 
85.37922808825243

>  <Genealogy>  (22) 
CCCNC(=O)c1c[n-]c2ccccc2c1=Nc1ccc(Oc2ccccc2)cc1 (protonated)
CCCNC(=O)c1c[n-]c2ccccc2/c1=N\c1ccc(Oc2ccccc2)cc1 (cis-trans isomerization)
CCCNC(=O)c1c[n-]c2ccccc2/c1=N\c1ccc(Oc2ccccc2)cc1 (3D coordinates assigned)
CCCNC(=O)c1c[n-]c2ccccc2/c1=N\c1ccc(Oc2ccccc2)cc1 (optimized conformer: 85.37922808825243 kcal/mol)

>  <smiles>  (22) 
CCCNC(=O)c1c[nH]c2ccccc2c1=Nc1ccc(Oc2ccccc2)cc1

>  <score_type>  (22) 
oracle

>  <origin>  (22) 
adg

>  <m_score__min__energy>  (22) 
-9.8599999999999994

>  <m_primary>  (22) 
energy

$$$$
22:0
     RDKit          3D

 52 55  0  0  0  0  0  0  0  0999 V2000
    1.7180   28.6670  -22.4880 C   0  0  0  0  0  0  0  0  0  0  0  0
    0.8610   29.0220  -23.5690 O   0  0  0  0  0  0  0  0  0  0  0  0
    0.4280   28.1310  -24.5620 C   0  0  0  0  0  0  0  0  0  0  0  0
    0.7250   28.4270  -25.8970 C   0  0  0  0  0  0  0  0  0  0  0  0
    0.3160   27.5710  -26.9230 C   0  0  0  0  0  0  0  0  0  0  0  0
   -0.3990   26.3990  -26.6270 C   0  0  0  0  0  0  0  0  0  0  0  0
   -0.8290   25.4980  -27.7150 C   0  0  0  0  0  0  0  0  0  0  0  0
    0.0010   24.7170  -28.4330 N   0  0  0  0  0  0  0  0  0  0  0  0
   -0.7560   24.0680  -29.3030 N   0  0  0  0  0  0  0  0  0  0  0  0
   -2.0220   24.4770  -29.0840 C   0  0  0  0  0  0  0  0  0  0  0  0
   -3.1970   24.0020  -29.8390 C   0  0  0  0  0  0  0  0  0  0  0  0
   -4.4730   24.5360  -29.5910 C   0  0  0  0  0  0  0  0  0  0  0  0
   -5.5810   24.0790  -30.3090 C   0  0  0  0  0  0  0  0  0  0  0  0
   -5.4330   23.0800  -31.2840 C   0  0  0  0  0  0  0  0  0  0  0  0
   -6.6370   22.5860  -32.0430 C   0  0  0  0  0  0  0  0  0  0  0  0
   -7.0620   21.2630  -31.5410 N   0  0  0  0  0  0  0  0  0  0  0  0
   -6.5510   20.0830  -32.2740 C   0  0  0  0  0  0  0  0  0  0  0  0
   -7.1040   18.7170  -31.8140 C   0  0  0  0  0  0  0  0  0  0  0  0
   -8.6330   18.5280  -31.8330 C   0  0  0  0  0  0  0  0  0  0  0  0
   -9.3950   19.4370  -32.8080 C   0  0  0  0  0  0  0  0  0  0  0  0
   -9.4310   20.8950  -32.3320 C   0  0  0  0  0  0  0  0  0  0  0  0
   -8.4840   21.1720  -31.1580 C   0  0  0  0  0  0  0  0  0  0  0  0
   -4.1590   22.5490  -31.5350 C   0  0  0  0  0  0  0  0  0  0  0  0
   -3.0500   23.0060  -30.8180 C   0  0  0  0  0  0  0  0  0  0  0  0
   -2.0720   25.3560  -28.1110 O   0  0  0  0  0  0  0  0  0  0  0  0
   -0.6970   26.1000  -25.2880 C   0  0  0  0  0  0  0  0  0  0  0  0
   -0.2880   26.9570  -24.2630 C   0  0  0  0  0  0  0  0  0  0  0  0
    1.2115   28.8768  -21.5344 H   0  0  0  0  0  0  0  0  0  0  0  0
    1.9584   27.5952  -22.5474 H   0  0  0  0  0  0  0  0  0  0  0  0
    2.6459   29.2548  -22.5474 H   0  0  0  0  0  0  0  0  0  0  0  0
    1.2854   29.3416  -26.1410 H   0  0  0  0  0  0  0  0  0  0  0  0
    0.5554   27.8165  -27.9682 H   0  0  0  0  0  0  0  0  0  0  0  0
   -4.6001   25.3178  -28.8277 H   0  0  0  0  0  0  0  0  0  0  0  0
   -6.5754   24.5046  -30.1090 H   0  0  0  0  0  0  0  0  0  0  0  0
   -7.4623   23.3024  -31.9175 H   0  0  0  0  0  0  0  0  0  0  0  0
   -6.3719   22.4931  -33.1065 H   0  0  0  0  0  0  0  0  0  0  0  0
   -6.8048   20.2096  -33.3368 H   0  0  0  0  0  0  0  0  0  0  0  0
   -5.4698   20.0512  -32.0738 H   0  0  0  0  0  0  0  0  0  0  0  0
   -6.6683   17.9475  -32.4682 H   0  0  0  0  0  0  0  0  0  0  0  0
   -6.8248   18.6436  -30.7526 H   0  0  0  0  0  0  0  0  0  0  0  0
   -8.8428   17.4837  -32.1076 H   0  0  0  0  0  0  0  0  0  0  0  0
   -8.9852   18.7987  -30.8267 H   0  0  0  0  0  0  0  0  0  0  0  0
   -8.9007   19.3969  -33.7898 H   0  0  0  0  0  0  0  0  0  0  0  0
  -10.4321   19.0751  -32.8672 H   0  0  0  0  0  0  0  0  0  0  0  0
   -9.1446   21.5441  -33.1726 H   0  0  0  0  0  0  0  0  0  0  0  0
  -10.4536   21.0988  -31.9816 H   0  0  0  0  0  0  0  0  0  0  0  0
   -8.7786   22.1247  -30.6937 H   0  0  0  0  0  0  0  0  0  0  0  0
   -8.5736   20.3188  -30.4694 H   0  0  0  0  0  0  0  0  0  0  0  0
   -4.0324   21.7689  -32.3001 H   0  0  0  0  0  0  0  0  0  0  0  0
   -2.0553   22.5828  -31.0218 H   0  0  0  0  0  0  0  0  0  0  0  0
   -1.2563   25.1847  -25.0442 H   0  0  0  0  0  0  0  0  0  0  0  0
   -0.5268   26.7128  -23.2174 H   0  0  0  0  0  0  0  0  0  0  0  0
  1  2  1  0
  2  3  1  0
  3  4  2  0
  4  5  1  0
  5  6  2  0
  6  7  1  0
  7  8  2  0
  8  9  1  0
  9 10  2  0
 10 11  1  0
 11 12  2  0
 12 13  1  0
 13 14  2  0
 14 15  1  0
 15 16  1  0
 16 17  1  0
 17 18  1  0
 18 19  1  0
 19 20  1  0
 20 21  1  0
 21 22  1  0
 14 23  1  0
 23 24  2  0
 10 25  1  0
  6 26  1  0
 26 27  2  0
 27  3  1  0
 25  7  1  0
 24 11  1  0
 22 16  1  0
  1 28  1  0
  1 29  1  0
  1 30  1  0
  4 31  1  0
  5 32  1  0
 12 33  1  0
 13 34  1  0
 15 35  1  0
 15 36  1  0
 17 37  1  0
 17 38  1  0
 18 39  1  0
 18 40  1  0
 19 41  1  0
 19 42  1  0
 20 43  1  0
 20 44  1  0
 21 45  1  0
 21 46  1  0
 22 47  1  0
 22 48  1  0
 23 49  1  0
 24 50  1  0
 26 51  1  0
 27 52  1  0
M  END
>  <UniqueID>  (23) 
22

>  <SMILES>  (23) 
COc1ccc(-c2nnc(-c3ccc(CN4CCCCCC4)cc3)o2)cc1

>  <Energy>  (23) 
98.89734632350554

>  <Genealogy>  (23) 
COc1ccc(-c2nnc(-c3ccc(CN4CCCCCC4)cc3)o2)cc1 (3D coordinates assigned)
COc1ccc(-c2nnc(-c3ccc(CN4CCCCCC4)cc3)o2)cc1 (nonaromatic ring conformer: 98.89734632350554 kcal/mol)

>  <smiles>  (23) 
COc1ccc(-c2nnc(-c3ccc(CN4CCCCCC4)cc3)o2)cc1

>  <score_type>  (23) 
oracle

>  <origin>  (23) 
adg

>  <m_score__min__energy>  (23) 
-6.6100000000000003

>  <m_primary>  (23) 
energy

$$$$
23:0
     RDKit          3D

 46 48  0  0  0  0  0  0  0  0999 V2000
   -0.8640   26.8370  -27.9240 C   0  0  0  0  0  0  0  0  0  0  0  0
   -1.5480   26.0550  -28.9000 O   0  0  0  0  0  0  0  0  0  0  0  0
   -1.7650   24.6710  -28.8040 C   0  0  0  0  0  0  0  0  0  0  0  0
   -1.0140   23.8630  -27.9250 C   0  0  0  0  0  0  0  0  0  0  0  0
   -1.2080   22.4810  -27.8970 C   0  0  0  0  0  0  0  0  0  0  0  0
   -2.1430   21.8880  -28.7450 C   0  0  0  0  0  0  0  0  0  0  0  0
   -2.8980   22.6770  -29.6140 C   0  0  0  0  0  0  0  0  0  0  0  0
   -2.7370   24.0670  -29.6330 C   0  0  0  0  0  0  0  0  0  0  0  0
   -3.5230   24.8320  -30.5550 N   0  0  0  0  0  0  0  0  0  0  0  0
   -4.9500   24.7740  -30.6780 C   0  0  0  0  0  0  0  0  0  0  0  0
   -5.5910   25.7370  -31.1790 O   0  0  0  0  0  0  0  0  0  0  0  0
   -5.6870   23.5860  -30.1440 C   0  0  0  0  0  0  0  0  0  0  0  0
   -6.1980   22.7710  -31.2440 N   0  0  0  0  0  0  0  0  0  0  0  0
   -7.5150   22.8160  -31.7620 C   0  0  0  0  0  0  0  0  0  0  0  0
   -8.2880   23.8000  -31.6110 O   0  0  0  0  0  0  0  0  0  0  0  0
   -7.9030   21.6290  -32.4430 N   0  0  0  0  0  0  0  0  0  0  0  0
   -6.7920   20.6790  -32.3410 C   0  0  2  0  0  0  0  0  0  0  0  0
   -6.2920   20.3110  -33.7640 C   0  0  0  0  0  0  0  0  0  0  0  0
   -5.7220   18.8900  -33.8120 C   0  0  0  0  0  0  0  0  0  0  0  0
   -6.7960   17.8330  -33.4500 C   0  0  1  0  0  0  0  0  0  0  0  0
   -6.1280   16.5400  -32.9700 C   0  0  0  0  0  0  0  0  0  0  0  0
   -7.8280   18.3530  -32.4120 C   0  0  0  0  0  0  0  0  0  0  0  0
   -7.2370   19.4450  -31.5130 C   0  0  0  0  0  0  0  0  0  0  0  0
   -5.7530   21.4650  -31.5830 C   0  0  0  0  0  0  0  0  0  0  0  0
   -4.6170   21.0210  -31.2610 O   0  0  0  0  0  0  0  0  0  0  0  0
   -1.1556   26.5037  -26.9171 H   0  0  0  0  0  0  0  0  0  0  0  0
    0.2217   26.7141  -28.0509 H   0  0  0  0  0  0  0  0  0  0  0  0
   -1.1303   27.8967  -28.0509 H   0  0  0  0  0  0  0  0  0  0  0  0
   -0.2712   24.3246  -27.2578 H   0  0  0  0  0  0  0  0  0  0  0  0
   -0.6223   21.8584  -27.2047 H   0  0  0  0  0  0  0  0  0  0  0  0
   -2.2855   20.7974  -28.7289 H   0  0  0  0  0  0  0  0  0  0  0  0
   -3.6253   22.2026  -30.2893 H   0  0  0  0  0  0  0  0  0  0  0  0
   -5.0037   22.9805  -29.5305 H   0  0  0  0  0  0  0  0  0  0  0  0
   -6.5329   23.9341  -29.5330 H   0  0  0  0  0  0  0  0  0  0  0  0
   -7.1346   20.3815  -34.4677 H   0  0  0  0  0  0  0  0  0  0  0  0
   -5.4905   21.0124  -34.0389 H   0  0  0  0  0  0  0  0  0  0  0  0
   -5.3505   18.6883  -34.8275 H   0  0  0  0  0  0  0  0  0  0  0  0
   -4.9081   18.8203  -33.0754 H   0  0  0  0  0  0  0  0  0  0  0  0
   -7.3655   17.6208  -34.3669 H   0  0  0  0  0  0  0  0  0  0  0  0
   -6.1173   16.5192  -31.8702 H   0  0  0  0  0  0  0  0  0  0  0  0
   -6.6916   15.6741  -33.3476 H   0  0  0  0  0  0  0  0  0  0  0  0
   -5.0957   16.4986  -33.3476 H   0  0  0  0  0  0  0  0  0  0  0  0
   -8.6949   18.7655  -32.9489 H   0  0  0  0  0  0  0  0  0  0  0  0
   -8.1220   17.5080  -31.7721 H   0  0  0  0  0  0  0  0  0  0  0  0
   -7.9980   19.7589  -30.7834 H   0  0  0  0  0  0  0  0  0  0  0  0
   -6.3539   19.0333  -31.0025 H   0  0  0  0  0  0  0  0  0  0  0  0
  1  2  1  0
  2  3  1  0
  3  4  2  0
  4  5  1  0
  5  6  2  0
  6  7  1  0
  7  8  2  0
  8  9  1  0
  9 10  1  0
 10 11  2  0
 10 12  1  0
 12 13  1  0
 13 14  1  0
 14 15  2  0
 14 16  1  0
 17 16  1  6
 17 18  1  0
 18 19  1  0
 19 20  1  0
 20 21  1  0
 20 22  1  0
 22 23  1  0
 17 24  1  0
 24 25  2  0
  8  3  1  0
 24 13  1  0
 23 17  1  0
  1 26  1  0
  1 27  1  0
  1 28  1  0
  4 29  1  0
  5 30  1  0
  6 31  1  0
  7 32  1  0
 12 33  1  0
 12 34  1  0
 18 35  1  0
 18 36  1  0
 19 37  1  0
 19 38  1  0
 20 39  1  6
 21 40  1  0
 21 41  1  0
 21 42  1  0
 22 43  1  0
 22 44  1  0
 23 45  1  0
 23 46  1  0
M  CHG  2   9  -1  16  -1
M  END
>  <UniqueID>  (24) 
23

>  <SMILES>  (24) 
COc1ccccc1[N-]C(=O)CN1C(=O)[N-]C2(CCC(C)CC2)C1=O

>  <Energy>  (24) 
69.87024985440318

>  <Genealogy>  (24) 
COc1ccccc1[N-]C(=O)CN1C(=O)[N-]C2(CCC(C)CC2)C1=O (protonated)
COc1ccccc1[N-]C(=O)CN1C(=O)[N-]C2(CCC(C)CC2)C1=O (3D coordinates assigned)
COc1ccccc1[N-]C(=O)CN1C(=O)[N-]C2(CCC(C)CC2)C1=O (nonaromatic ring conformer: 69.87024985440318 kcal/mol)

>  <smiles>  (24) 
COc1ccccc1NC(=O)CN1C(=O)NC2(CCC(C)CC2)C1=O

>  <score_type>  (24) 
oracle

>  <origin>  (24) 
adg

>  <m_score__min__energy>  (24) 
-11.16

>  <m_primary>  (24) 
energy

$$$$
24:0
     RDKit          3D

 54 54  0  0  0  0  0  0  0  0999 V2000
   -7.9660   22.8680  -31.5330 C   0  0  0  0  0  0  0  0  0  0  0  0
   -6.8470   23.7680  -32.0780 C   0  0  0  0  0  0  0  0  0  0  0  0
   -6.0440   24.4570  -31.0360 N   0  0  0  0  0  0  0  0  0  0  0  0
   -6.8870   25.1690  -30.0620 C   0  0  0  0  0  0  0  0  0  0  0  0
   -5.0510   23.6010  -30.3500 C   0  0  0  0  0  0  0  0  0  0  0  0
   -4.3120   24.3510  -29.2390 C   0  0  0  0  0  0  0  0  0  0  0  0
   -3.0630   24.9030  -29.7540 N   0  0  0  0  0  0  0  0  0  0  0  0
   -1.8720   24.9990  -28.9710 C   0  0  0  0  0  0  0  0  0  0  0  0
   -1.1760   26.0500  -29.0020 O   0  0  0  0  0  0  0  0  0  0  0  0
   -1.4830   23.8810  -28.0910 C   0  0  0  0  0  0  0  0  0  0  0  0
   -0.8840   24.1890  -26.8580 C   0  0  0  0  0  0  0  0  0  0  0  0
   -0.4340   23.1750  -26.0130 C   0  0  0  0  0  0  0  0  0  0  0  0
    0.3400   23.5810  -24.4890 Cl  0  0  0  0  0  0  0  0  0  0  0  0
   -0.5810   21.8410  -26.3890 C   0  0  0  0  0  0  0  0  0  0  0  0
   -1.2000   21.5140  -27.5950 C   0  0  0  0  0  0  0  0  0  0  0  0
   -1.6700   22.5220  -28.4610 C   0  0  0  0  0  0  0  0  0  0  0  0
   -2.3960   22.1780  -29.6630 N   0  0  0  0  0  0  0  0  0  0  0  0
   -3.0580   20.8860  -29.8600 C   0  0  0  0  0  0  0  0  0  0  0  0
   -3.1240   20.5210  -31.3520 C   0  0  0  0  0  0  0  0  0  0  0  0
   -2.8450   21.7030  -32.2000 N   0  0  0  0  0  0  0  0  0  0  0  0
   -1.5800   21.5460  -32.9630 C   0  0  0  0  0  0  0  0  0  0  0  0
   -0.4480   21.1920  -32.0070 C   0  0  0  0  0  0  0  0  0  0  0  0
   -3.9930   21.9850  -33.0920 C   0  0  0  0  0  0  0  0  0  0  0  0
   -5.0260   20.8600  -33.0360 C   0  0  0  0  0  0  0  0  0  0  0  0
   -7.9464   22.8838  -30.4333 H   0  0  0  0  0  0  0  0  0  0  0  0
   -8.9394   23.2377  -31.8877 H   0  0  0  0  0  0  0  0  0  0  0  0
   -7.8136   21.8380  -31.8877 H   0  0  0  0  0  0  0  0  0  0  0  0
   -6.1677   23.1451  -32.6784 H   0  0  0  0  0  0  0  0  0  0  0  0
   -7.3401   24.5577  -32.6639 H   0  0  0  0  0  0  0  0  0  0  0  0
   -6.5727   24.9035  -29.0418 H   0  0  0  0  0  0  0  0  0  0  0  0
   -6.7796   26.2540  -30.2081 H   0  0  0  0  0  0  0  0  0  0  0  0
   -7.9387   24.8816  -30.2081 H   0  0  0  0  0  0  0  0  0  0  0  0
   -5.5713   22.7378  -29.9095 H   0  0  0  0  0  0  0  0  0  0  0  0
   -4.3074   23.2820  -31.0951 H   0  0  0  0  0  0  0  0  0  0  0  0
   -4.9463   25.1695  -28.8679 H   0  0  0  0  0  0  0  0  0  0  0  0
   -4.0870   23.6522  -28.4198 H   0  0  0  0  0  0  0  0  0  0  0  0
   -0.7688   25.2405  -26.5562 H   0  0  0  0  0  0  0  0  0  0  0  0
   -0.2070   21.0424  -25.7314 H   0  0  0  0  0  0  0  0  0  0  0  0
   -1.3230   20.4570  -27.8738 H   0  0  0  0  0  0  0  0  0  0  0  0
   -2.5190   22.9040  -30.4050 H   0  0  0  0  0  0  0  0  0  0  0  0
   -2.4945   20.1080  -29.3242 H   0  0  0  0  0  0  0  0  0  0  0  0
   -4.0846   20.9560  -29.4712 H   0  0  0  0  0  0  0  0  0  0  0  0
   -2.3780   19.7412  -31.5650 H   0  0  0  0  0  0  0  0  0  0  0  0
   -4.1369   20.1574  -31.5796 H   0  0  0  0  0  0  0  0  0  0  0  0
   -1.6973   20.7426  -33.7052 H   0  0  0  0  0  0  0  0  0  0  0  0
   -1.3433   22.4895  -33.4765 H   0  0  0  0  0  0  0  0  0  0  0  0
   -0.7967   21.3010  -30.9694 H   0  0  0  0  0  0  0  0  0  0  0  0
   -0.1330   20.1525  -32.1806 H   0  0  0  0  0  0  0  0  0  0  0  0
    0.4031   21.8669  -32.1806 H   0  0  0  0  0  0  0  0  0  0  0  0
   -4.4692   22.9254  -32.7775 H   0  0  0  0  0  0  0  0  0  0  0  0
   -3.6207   22.0649  -34.1240 H   0  0  0  0  0  0  0  0  0  0  0  0
   -5.2481   20.6181  -31.9862 H   0  0  0  0  0  0  0  0  0  0  0  0
   -5.9482   21.1836  -33.5408 H   0  0  0  0  0  0  0  0  0  0  0  0
   -4.6251   19.9686  -33.5408 H   0  0  0  0  0  0  0  0  0  0  0  0
  1  2  1  0
  2  3  1  0
  3  4  1  0
  3  5  1  0
  5  6  1  0
  6  7  1  0
  7  8  1  0
  8  9  2  0
  8 10  1  0
 10 11  2  0
 11 12  1  0
 12 13  1  0
 12 14  2  0
 14 15  1  0
 15 16  2  0
 16 17  1  0
 17 18  1  0
 18 19  1  0
 19 20  1  0
 20 21  1  0
 21 22  1  0
 20 23  1  0
 23 24  1  0
 16 10  1  0
  1 25  1  0
  1 26  1  0
  1 27  1  0
  2 28  1  0
  2 29  1  0
  4 30  1  0
  4 31  1  0
  4 32  1  0
  5 33  1  0
  5 34  1  0
  6 35  1  0
  6 36  1  0
 11 37  1  0
 14 38  1  0
 15 39  1  0
 17 40  1  0
 18 41  1  0
 18 42  1  0
 19 43  1  0
 19 44  1  0
 21 45  1  0
 21 46  1  0
 22 47  1  0
 22 48  1  0
 22 49  1  0
 23 50  1  0
 23 51  1  0
 24 52  1  0
 24 53  1  0
 24 54  1  0
M  CHG  1   7  -1
M  END
>  <UniqueID>  (25) 
24

>  <SMILES>  (25) 
CCN(C)CC[N-]C(=O)c1cc(Cl)ccc1NCCN(CC)CC

>  <Energy>  (25) 
54.041342419903316

>  <Genealogy>  (25) 
CCN(C)CC[N-]C(=O)c1cc(Cl)ccc1NCCN(CC)CC (protonated)
CCN(C)CC[N-]C(=O)c1cc(Cl)ccc1NCCN(CC)CC (3D coordinates assigned)
CCN(C)CC[N-]C(=O)c1cc(Cl)ccc1NCCN(CC)CC (optimized conformer: 54.041342419903316 kcal/mol)

>  <smiles>  (25) 
CCN(C)CCNC(=O)c1cc(Cl)ccc1NCCN(CC)CC

>  <score_type>  (25) 
oracle

>  <origin>  (25) 
adg

>  <m_score__min__energy>  (25) 
-8.4399999999999995

>  <m_primary>  (25) 
energy

$$$$
25:0
     RDKit          3D

 30 32  0  0  0  0  0  0  0  0999 V2000
   -2.4380   24.6830  -28.4760 C   0  0  0  0  0  0  0  0  0  0  0  0
   -3.6840   24.1270  -29.0060 N   0  0  0  0  0  0  0  0  0  0  0  0
   -4.3210   24.5960  -30.1210 C   0  0  0  0  0  0  0  0  0  0  0  0
   -3.8410   25.6640  -30.8790 O   0  0  0  0  0  0  0  0  0  0  0  0
   -5.4950   23.9200  -30.4500 C   0  0  0  0  0  0  0  0  0  0  0  0
   -6.3540   24.1630  -31.6510 C   0  0  0  0  0  0  0  0  0  0  0  0
   -7.2210   22.9680  -31.9140 C   0  0  0  0  0  0  0  0  0  0  0  0
   -8.5970   22.8920  -31.7230 C   0  0  0  0  0  0  0  0  0  0  0  0
   -9.0400   21.6400  -31.9780 N   0  0  0  0  0  0  0  0  0  0  0  0
   -7.9550   20.9240  -32.3180 C   0  0  0  0  0  0  0  0  0  0  0  0
   -7.9090   19.5710  -32.6530 C   0  0  0  0  0  0  0  0  0  0  0  0
   -6.6540   19.0120  -32.9640 C   0  0  0  0  0  0  0  0  0  0  0  0
   -6.5280   17.1650  -33.4300 Br  0  0  0  0  0  0  0  0  0  0  0  0
   -5.4890   19.8110  -32.9320 C   0  0  0  0  0  0  0  0  0  0  0  0
   -5.5670   21.1730  -32.5890 C   0  0  0  0  0  0  0  0  0  0  0  0
   -6.8230   21.6980  -32.2860 C   0  0  0  0  0  0  0  0  0  0  0  0
   -5.7290   22.6790  -29.3330 S   0  0  0  0  0  0  0  0  0  0  0  0
   -4.3440   23.0720  -28.4660 C   0  0  0  0  0  0  0  0  0  0  0  0
   -3.9600   22.4530  -27.4370 O   0  0  0  0  0  0  0  0  0  0  0  0
   -2.4688   24.6693  -27.3765 H   0  0  0  0  0  0  0  0  0  0  0  0
   -1.5884   24.0786  -28.8266 H   0  0  0  0  0  0  0  0  0  0  0  0
   -2.3204   25.7190  -28.8266 H   0  0  0  0  0  0  0  0  0  0  0  0
   -3.1400   25.5440  -31.6000 H   0  0  0  0  0  0  0  0  0  0  0  0
   -6.9905   25.0420  -31.4714 H   0  0  0  0  0  0  0  0  0  0  0  0
   -5.7098   24.3401  -32.5249 H   0  0  0  0  0  0  0  0  0  0  0  0
   -9.2345   23.7316  -31.4090 H   0  0  0  0  0  0  0  0  0  0  0  0
  -10.0250   21.3000  -31.9090 H   0  0  0  0  0  0  0  0  0  0  0  0
   -8.8234   18.9599  -32.6737 H   0  0  0  0  0  0  0  0  0  0  0  0
   -4.5140   19.3647  -33.1771 H   0  0  0  0  0  0  0  0  0  0  0  0
   -4.6662   21.8037  -32.5607 H   0  0  0  0  0  0  0  0  0  0  0  0
  1  2  1  0
  2  3  1  0
  3  4  1  0
  3  5  2  0
  5  6  1  0
  6  7  1  0
  7  8  2  0
  8  9  1  0
  9 10  1  0
 10 11  2  0
 11 12  1  0
 12 13  1  0
 12 14  2  0
 14 15  1  0
 15 16  2  0
  5 17  1  0
 17 18  1  0
 18 19  2  0
 18  2  1  0
 16  7  1  0
 16 10  1  0
  1 20  1  0
  1 21  1  0
  1 22  1  0
  4 23  1  0
  6 24  1  0
  6 25  1  0
  8 26  1  0
  9 27  1  0
 11 28  1  0
 14 29  1  0
 15 30  1  0
M  END
>  <UniqueID>  (26) 
25

>  <SMILES>  (26) 
Cn1c(O)c(Cc2c[nH]c3cc(Br)ccc23)sc1=O

>  <Energy>  (26) 
93.67127577366641

>  <Genealogy>  (26) 
Cn1c(O)c(Cc2c[nH]c3cc(Br)ccc23)sc1=O (3D coordinates assigned)
Cn1c(O)c(Cc2c[nH]c3cc(Br)ccc23)sc1=O (optimized conformer: 93.67127577366641 kcal/mol)

>  <smiles>  (26) 
Cn1c(O)c(Cc2c[nH]c3cc(Br)ccc23)sc1=O

>  <score_type>  (26) 
oracle

>  <origin>  (26) 
adg

>  <m_score__min__energy>  (26) 
-8.8200000000000003

>  <m_primary>  (26) 
energy

$$$$
26:0
     RDKit          3D

 44 46  0  0  0  0  0  0  0  0999 V2000
   -6.4880   25.7460  -29.3360 C   0  0  0  0  0  0  0  0  0  0  0  0
   -5.2750   25.2880  -30.1380 C   0  0  0  0  0  0  0  0  0  0  0  0
   -5.0610   23.8460  -29.9740 N   0  0  0  0  0  0  0  0  0  0  0  0
   -3.9140   23.3390  -29.2130 C   0  0  0  0  0  0  0  0  0  0  0  0
   -3.9460   23.8510  -27.7760 C   0  0  0  0  0  0  0  0  0  0  0  0
   -6.0360   22.9280  -30.4850 C   0  0  0  0  0  0  0  0  0  0  0  0
   -7.2850   22.8460  -29.9300 N   0  0  0  0  0  0  0  0  0  0  0  0
   -8.2180   21.9590  -30.4100 C   0  0  0  0  0  0  0  0  0  0  0  0
   -7.9210   21.1350  -31.4610 N   0  0  0  0  0  0  0  0  0  0  0  0
   -6.6860   21.2270  -32.0120 C   0  0  0  0  0  0  0  0  0  0  0  0
   -5.7480   22.0880  -31.5530 C   0  0  0  0  0  0  0  0  0  0  0  0
   -4.6280   21.8570  -32.3200 C   0  0  0  0  0  0  0  0  0  0  0  0
   -4.9190   20.8720  -33.2070 N   0  0  0  0  0  0  0  0  0  0  0  0
   -6.1840   20.5000  -33.0250 N   0  0  0  0  0  0  0  0  0  0  0  0
   -6.8520   19.3960  -33.7280 C   0  0  0  0  0  0  0  0  0  0  0  0
   -5.8340   18.5070  -34.4970 C   0  0  0  0  0  0  0  0  0  0  0  0
   -5.6420   17.1080  -33.8830 C   0  0  0  0  0  0  0  0  0  0  0  0
   -5.5890   17.1670  -32.3530 C   0  0  0  0  0  0  0  0  0  0  0  0
   -6.8620   17.7870  -31.7370 C   0  0  0  0  0  0  0  0  0  0  0  0
   -7.7130   18.5850  -32.7430 C   0  0  0  0  0  0  0  0  0  0  0  0
   -6.2693   25.6634  -28.2611 H   0  0  0  0  0  0  0  0  0  0  0  0
   -6.7177   26.7928  -29.5841 H   0  0  0  0  0  0  0  0  0  0  0  0
   -7.3522   25.1123  -29.5841 H   0  0  0  0  0  0  0  0  0  0  0  0
   -5.4409   25.5099  -31.2025 H   0  0  0  0  0  0  0  0  0  0  0  0
   -4.3859   25.8220  -29.7716 H   0  0  0  0  0  0  0  0  0  0  0  0
   -3.9448   22.2395  -29.2045 H   0  0  0  0  0  0  0  0  0  0  0  0
   -2.9894   23.6933  -29.6922 H   0  0  0  0  0  0  0  0  0  0  0  0
   -3.8928   22.9992  -27.0820 H   0  0  0  0  0  0  0  0  0  0  0  0
   -3.0878   24.5175  -27.6050 H   0  0  0  0  0  0  0  0  0  0  0  0
   -4.8805   24.4054  -27.6050 H   0  0  0  0  0  0  0  0  0  0  0  0
   -7.5410   23.4690  -29.1320 H   0  0  0  0  0  0  0  0  0  0  0  0
   -9.2136   21.9109  -29.9447 H   0  0  0  0  0  0  0  0  0  0  0  0
   -3.6646   22.3801  -32.2295 H   0  0  0  0  0  0  0  0  0  0  0  0
   -7.5232   19.8199  -34.4894 H   0  0  0  0  0  0  0  0  0  0  0  0
   -6.1907   18.3861  -35.5305 H   0  0  0  0  0  0  0  0  0  0  0  0
   -4.8604   19.0162  -34.4443 H   0  0  0  0  0  0  0  0  0  0  0  0
   -6.4822   16.4663  -34.1868 H   0  0  0  0  0  0  0  0  0  0  0  0
   -4.6864   16.7010  -34.2453 H   0  0  0  0  0  0  0  0  0  0  0  0
   -5.4723   16.1443  -31.9651 H   0  0  0  0  0  0  0  0  0  0  0  0
   -4.7389   17.8069  -32.0740 H   0  0  0  0  0  0  0  0  0  0  0  0
   -7.4802   16.9747  -31.3271 H   0  0  0  0  0  0  0  0  0  0  0  0
   -6.5316   18.4955  -30.9631 H   0  0  0  0  0  0  0  0  0  0  0  0
   -8.3358   17.8814  -33.3149 H   0  0  0  0  0  0  0  0  0  0  0  0
   -8.3280   19.2960  -32.1717 H   0  0  0  0  0  0  0  0  0  0  0  0
  1  2  1  0
  2  3  1  0
  3  4  1  0
  4  5  1  0
  3  6  1  0
  6  7  2  0
  7  8  1  0
  8  9  2  0
  9 10  1  0
 10 11  2  0
 11 12  1  0
 12 13  2  0
 13 14  1  0
 14 15  1  0
 15 16  1  0
 16 17  1  0
 17 18  1  0
 18 19  1  0
 19 20  1  0
 11  6  1  0
 20 15  1  0
 14 10  1  0
  1 21  1  0
  1 22  1  0
  1 23  1  0
  2 24  1  0
  2 25  1  0
  4 26  1  0
  4 27  1  0
  5 28  1  0
  5 29  1  0
  5 30  1  0
  7 31  1  0
  8 32  1  0
 12 33  1  0
 15 34  1  0
 16 35  1  0
 16 36  1  0
 17 37  1  0
 17 38  1  0
 18 39  1  0
 18 40  1  0
 19 41  1  0
 19 42  1  0
 20 43  1  0
 20 44  1  0
M  CHG  1   7   1
M  END
>  <UniqueID>  (27) 
26

>  <SMILES>  (27) 
CCN(CC)c1[nH+]cnc2c1cnn2C1CCCCC1

>  <Energy>  (27) 
87.31595114246723

>  <Genealogy>  (27) 
CCN(CC)c1[nH+]cnc2c1cnn2C1CCCCC1 (protonated)
CCN(CC)c1[nH+]cnc2c1cnn2C1CCCCC1 (3D coordinates assigned)
CCN(CC)c1[nH+]cnc2c1cnn2C1CCCCC1 (nonaromatic ring conformer: 87.31595114246723 kcal/mol)

>  <smiles>  (27) 
CCN(CC)c1ncnc2c1cnn2C1CCCCC1

>  <score_type>  (27) 
oracle

>  <origin>  (27) 
adg

>  <m_score__min__energy>  (27) 
-6.5700000000000003

>  <m_primary>  (27) 
energy

$$$$
27:0
     RDKit          3D

 43 46  0  0  0  0  0  0  0  0999 V2000
   -0.2230   21.6069  -29.8465 H   0  0  0  0  0  0  0  0  0  0  0  0
   -0.9330   21.7830  -29.0250 C   0  0  0  0  0  0  0  0  0  0  0  0
   -1.3950   23.0330  -28.8670 C   0  0  0  0  0  0  0  0  0  0  0  0
   -0.8614   23.6850  -28.1598 H   0  0  0  0  0  0  0  0  0  0  0  0
   -2.5600   23.6000  -29.5660 C   0  0  0  0  0  0  0  0  0  0  0  0
   -2.7640   24.9300  -29.7190 N   0  0  0  0  0  0  0  0  0  0  0  0
   -3.8600   25.1220  -30.4460 N   0  0  0  0  0  0  0  0  0  0  0  0
   -4.3440   23.9090  -30.7700 C   0  0  0  0  0  0  0  0  0  0  0  0
   -5.4590   23.6200  -31.5490 C   0  0  0  0  0  0  0  0  0  0  0  0
   -6.0878   24.4250  -31.9571 H   0  0  0  0  0  0  0  0  0  0  0  0
   -5.7620   22.2610  -31.8020 C   0  0  0  0  0  0  0  0  0  0  0  0
   -6.8880   21.9090  -32.6290 N   0  0  0  0  0  0  0  0  0  0  0  0
   -6.8510   22.4390  -33.5310 H   0  0  0  0  0  0  0  0  0  0  0  0
   -7.7810   22.1820  -32.1540 H   0  0  0  0  0  0  0  0  0  0  0  0
   -6.8750   20.4910  -32.8840 C   0  0  0  0  0  0  0  0  0  0  0  0
   -7.6990   19.6250  -32.1440 C   0  0  0  0  0  0  0  0  0  0  0  0
   -8.3768   20.0354  -31.3810 H   0  0  0  0  0  0  0  0  0  0  0  0
   -7.6630   18.2460  -32.3710 C   0  0  0  0  0  0  0  0  0  0  0  0
   -8.3234   17.5789  -31.7976 H   0  0  0  0  0  0  0  0  0  0  0  0
   -6.7880   17.7100  -33.3270 C   0  0  0  0  0  0  0  0  0  0  0  0
   -6.7780   16.2340  -33.5970 C   0  0  0  0  0  0  0  0  0  0  0  0
   -6.7743   15.6867  -32.6428 H   0  0  0  0  0  0  0  0  0  0  0  0
   -7.6743   15.9605  -34.1731 H   0  0  0  0  0  0  0  0  0  0  0  0
   -5.8781   15.9727  -34.1731 H   0  0  0  0  0  0  0  0  0  0  0  0
   -5.9710   18.5710  -34.0740 C   0  0  0  0  0  0  0  0  0  0  0  0
   -5.2988   18.1593  -34.8412 H   0  0  0  0  0  0  0  0  0  0  0  0
   -6.0070   19.9500  -33.8480 C   0  0  0  0  0  0  0  0  0  0  0  0
   -5.3517   20.6161  -34.4284 H   0  0  0  0  0  0  0  0  0  0  0  0
   -4.9120   21.2460  -31.2800 C   0  0  0  0  0  0  0  0  0  0  0  0
   -5.1365   20.1894  -31.4879 H   0  0  0  0  0  0  0  0  0  0  0  0
   -3.7890   21.5770  -30.5020 C   0  0  0  0  0  0  0  0  0  0  0  0
   -3.1218   20.7979  -30.1046 H   0  0  0  0  0  0  0  0  0  0  0  0
   -3.5510   22.9270  -30.2520 C   0  0  0  0  0  0  0  0  0  0  0  0
   -1.3010   20.6220  -28.1840 C   0  0  0  0  0  0  0  0  0  0  0  0
   -0.4870   19.5320  -28.1010 N   0  0  0  0  0  0  0  0  0  0  0  0
   -0.8110   18.4450  -27.3510 C   0  0  0  0  0  0  0  0  0  0  0  0
   -0.1244   17.5871  -27.3004 H   0  0  0  0  0  0  0  0  0  0  0  0
   -2.0140   18.4180  -26.6460 C   0  0  0  0  0  0  0  0  0  0  0  0
   -2.2787   17.5447  -26.0317 H   0  0  0  0  0  0  0  0  0  0  0  0
   -2.8780   19.5100  -26.7280 C   0  0  0  0  0  0  0  0  0  0  0  0
   -3.8334   19.4993  -26.1829 H   0  0  0  0  0  0  0  0  0  0  0  0
   -2.5270   20.6170  -27.5040 C   0  0  0  0  0  0  0  0  0  0  0  0
   -3.2071   21.4781  -27.5810 H   0  0  0  0  0  0  0  0  0  0  0  0
  1  2  1  0
  2  3  2  0
  3  4  1  0
  3  5  1  0
  5  6  1  0
  6  7  1  0
  7  8  2  0
  8  9  1  0
  9 10  1  0
  9 11  2  0
 11 12  1  0
 12 13  1  0
 12 14  1  0
 12 15  1  0
 15 16  2  0
 16 17  1  0
 16 18  1  0
 18 19  1  0
 18 20  2  0
 20 21  1  0
 21 22  1  0
 21 23  1  0
 21 24  1  0
 20 25  1  0
 25 26  1  0
 25 27  2  0
 27 28  1  0
 11 29  1  0
 29 30  1  0
 29 31  2  0
 31 32  1  0
 31 33  1  0
  2 34  1  0
 34 35  2  0
 35 36  1  0
 36 37  1  0
 36 38  2  0
 38 39  1  0
 38 40  1  0
 40 41  1  0
 40 42  2  0
 42 43  1  0
 33  5  2  0
 42 34  1  0
 33  8  1  0
 27 15  1  0
M  CHG  2   6  -1  12   1
M  END
>  <UniqueID>  (28) 
27

>  <SMILES>  (28) 
Cc1ccc([NH2+]c2ccc3c(/C=C\c4ccccn4)[n-]nc3c2)cc1

>  <Energy>  (28) 
94.40628252990173

>  <Genealogy>  (28) 
Cc1ccc([NH2+]c2ccc3c(C=Cc4ccccn4)[n-]nc3c2)cc1 (protonated)
Cc1ccc([NH2+]c2ccc3c(/C=C\c4ccccn4)[n-]nc3c2)cc1 (cis-trans isomerization)
Cc1ccc([NH2+]c2ccc3c(/C=C\c4ccccn4)[n-]nc3c2)cc1 (3D coordinates assigned)
Cc1ccc([NH2+]c2ccc3c(/C=C\c4ccccn4)[n-]nc3c2)cc1 (optimized conformer: 94.40628252990173 kcal/mol)

>  <smiles>  (28) 
Cc1ccc(Nc2ccc3c(C=Cc4ccccn4)[nH]nc3c2)cc1

>  <score_type>  (28) 
oracle

>  <origin>  (28) 
adg

>  <m_score__min__energy>  (28) 
-10.57

>  <m_primary>  (28) 
energy

$$$$
28:0
     RDKit          3D

 37 39  0  0  0  0  0  0  0  0999 V2000
   -6.5830   16.9730  -34.3060 C   0  0  0  0  0  0  0  0  0  0  0  0
   -7.0010   17.0110  -32.5360 S   0  0  0  0  0  0  0  0  0  0  0  0
   -6.7440   18.7870  -32.3910 C   0  0  0  0  0  0  0  0  0  0  0  0
   -7.8190   19.5880  -32.0090 C   0  0  0  0  0  0  0  0  0  0  0  0
   -7.6690   20.9710  -31.8830 C   0  0  0  0  0  0  0  0  0  0  0  0
   -8.7640   21.7460  -31.4960 O   0  0  0  0  0  0  0  0  0  0  0  0
   -6.4200   21.5780  -32.1360 C   0  0  0  0  0  0  0  0  0  0  0  0
   -5.3250   20.7680  -32.5120 C   0  0  0  0  0  0  0  0  0  0  0  0
   -5.4890   19.3690  -32.6350 C   0  0  0  0  0  0  0  0  0  0  0  0
   -4.1130   18.3330  -33.0410 Cl  0  0  0  0  0  0  0  0  0  0  0  0
   -4.0010   21.3700  -32.7350 C   0  0  0  0  0  0  0  0  0  0  0  0
   -3.3900   21.1820  -33.8230 O   0  0  0  0  0  0  0  0  0  0  0  0
   -3.3400   22.0790  -31.6340 C   0  0  0  0  0  0  0  0  0  0  0  0
   -2.0980   21.6080  -31.1930 C   0  0  0  0  0  0  0  0  0  0  0  0
   -1.4530   22.1880  -30.0930 C   0  0  0  0  0  0  0  0  0  0  0  0
   -0.1230   21.6320  -29.6520 C   0  0  0  0  0  0  0  0  0  0  0  0
   -2.0470   23.2930  -29.4420 C   0  0  0  0  0  0  0  0  0  0  0  0
   -1.3870   23.9290  -28.2410 C   0  0  0  0  0  0  0  0  0  0  0  0
   -3.3000   23.7670  -29.8860 C   0  0  0  0  0  0  0  0  0  0  0  0
   -3.9110   24.8240  -29.2140 O   0  0  0  0  0  0  0  0  0  0  0  0
   -3.9480   23.1770  -30.9950 C   0  0  0  0  0  0  0  0  0  0  0  0
   -5.1760   23.8110  -31.5470 C   0  0  0  0  0  0  0  0  0  0  0  0
   -5.2570   25.0700  -31.5290 O   0  0  0  0  0  0  0  0  0  0  0  0
   -6.3190   23.0610  -32.1190 C   0  0  0  0  0  0  0  0  0  0  0  0
   -7.2770   23.7290  -32.5970 O   0  0  0  0  0  0  0  0  0  0  0  0
   -5.4938   16.8740  -34.4235 H   0  0  0  0  0  0  0  0  0  0  0  0
   -7.0825   16.1166  -34.7824 H   0  0  0  0  0  0  0  0  0  0  0  0
   -6.9199   17.9055  -34.7824 H   0  0  0  0  0  0  0  0  0  0  0  0
   -8.7961   19.1259  -31.8046 H   0  0  0  0  0  0  0  0  0  0  0  0
   -8.7650   22.7550  -31.5970 H   0  0  0  0  0  0  0  0  0  0  0  0
   -1.6203   20.7683  -31.7190 H   0  0  0  0  0  0  0  0  0  0  0  0
   -0.0794   21.6138  -28.5530 H   0  0  0  0  0  0  0  0  0  0  0  0
   -0.0060   20.6096  -30.0406 H   0  0  0  0  0  0  0  0  0  0  0  0
    0.6869   22.2669  -30.0406 H   0  0  0  0  0  0  0  0  0  0  0  0
   -1.8205   23.5113  -27.3203 H   0  0  0  0  0  0  0  0  0  0  0  0
   -0.3068   23.7227  -28.2641 H   0  0  0  0  0  0  0  0  0  0  0  0
   -1.5532   25.0161  -28.2641 H   0  0  0  0  0  0  0  0  0  0  0  0
  1  2  1  0
  2  3  1  0
  3  4  2  0
  4  5  1  0
  5  6  1  0
  5  7  2  0
  7  8  1  0
  8  9  2  0
  9 10  1  0
  8 11  1  0
 11 12  2  0
 11 13  1  0
 13 14  2  0
 14 15  1  0
 15 16  1  0
 15 17  2  0
 17 18  1  0
 17 19  1  0
 19 20  1  0
 19 21  2  0
 21 22  1  0
 22 23  2  0
 22 24  1  0
 24 25  2  0
  9  3  1  0
 21 13  1  0
 24  7  1  0
  1 26  1  0
  1 27  1  0
  1 28  1  0
  4 29  1  0
  6 30  1  0
 14 31  1  0
 16 32  1  0
 16 33  1  0
 16 34  1  0
 18 35  1  0
 18 36  1  0
 18 37  1  0
M  CHG  1  20  -1
M  END
>  <UniqueID>  (29) 
28

>  <SMILES>  (29) 
CSc1cc(O)c2c(c1Cl)C(=O)c1cc(C)c(C)c([O-])c1C(=O)C2=O

>  <Energy>  (29) 
67.00765806448592

>  <Genealogy>  (29) 
CSc1cc(O)c2c(c1Cl)C(=O)c1cc(C)c(C)c([O-])c1C(=O)C2=O (protonated)
CSc1cc(O)c2c(c1Cl)C(=O)c1cc(C)c(C)c([O-])c1C(=O)C2=O (3D coordinates assigned)
CSc1cc(O)c2c(c1Cl)C(=O)c1cc(C)c(C)c([O-])c1C(=O)C2=O (nonaromatic ring conformer: 67.00765806448592 kcal/mol)

>  <smiles>  (29) 
CSc1cc(O)c2c(c1Cl)C(=O)c1cc(C)c(C)c(O)c1C(=O)C2=O

>  <score_type>  (29) 
oracle

>  <origin>  (29) 
adg

>  <m_score__min__energy>  (29) 
-8

>  <m_primary>  (29) 
energy

$$$$
29:0
     RDKit          3D

 41 43  0  0  0  0  0  0  0  0999 V2000
   -2.4950   24.5500  -28.9070 C   0  0  0  0  0  0  0  0  0  0  0  0
   -3.4920   25.0590  -29.7860 O   0  0  0  0  0  0  0  0  0  0  0  0
   -4.6810   24.3860  -30.1080 C   0  0  0  0  0  0  0  0  0  0  0  0
   -5.1710   23.3100  -29.3430 C   0  0  0  0  0  0  0  0  0  0  0  0
   -6.3620   22.6720  -29.7050 C   0  0  0  0  0  0  0  0  0  0  0  0
   -7.0770   23.1010  -30.8310 C   0  0  0  0  0  0  0  0  0  0  0  0
   -8.5660   22.2910  -31.3130 S   0  0  0  0  0  0  0  0  0  0  0  0
   -9.3850   23.2460  -32.1370 O   0  0  0  0  0  0  0  0  0  0  0  0
   -9.3610   21.9050  -30.0950 O   0  0  0  0  0  0  0  0  0  0  0  0
   -8.1870   20.8710  -32.2550 N   0  0  0  0  0  0  0  0  0  0  0  0
   -6.7300   20.7890  -32.4520 C   0  0  0  0  0  0  0  0  0  0  0  0
   -6.3820   19.5870  -33.3320 C   0  0  0  0  0  0  0  0  0  0  0  0
   -6.9920   18.3600  -32.7970 N   0  0  0  0  0  0  0  0  0  0  0  0
   -6.3640   17.0810  -33.0350 C   0  0  0  0  0  0  0  0  0  0  0  0
   -5.2760   16.7000  -32.3070 N   0  0  0  0  0  0  0  0  0  0  0  0
   -4.6710   15.5020  -32.5160 C   0  0  0  0  0  0  0  0  0  0  0  0
   -5.1620   14.6370  -33.4910 C   0  0  0  0  0  0  0  0  0  0  0  0
   -6.2740   15.0330  -34.2310 C   0  0  0  0  0  0  0  0  0  0  0  0
   -6.8500   16.2400  -33.9910 N   0  0  0  0  0  0  0  0  0  0  0  0
   -8.4010   18.4210  -32.3820 C   0  0  0  0  0  0  0  0  0  0  0  0
   -8.6630   19.6740  -31.5430 C   0  0  0  0  0  0  0  0  0  0  0  0
   -6.5890   24.1660  -31.5960 C   0  0  0  0  0  0  0  0  0  0  0  0
   -5.3990   24.8050  -31.2340 C   0  0  0  0  0  0  0  0  0  0  0  0
   -2.8086   24.7101  -27.8649 H   0  0  0  0  0  0  0  0  0  0  0  0
   -2.3613   23.4733  -29.0884 H   0  0  0  0  0  0  0  0  0  0  0  0
   -1.5445   25.0732  -29.0884 H   0  0  0  0  0  0  0  0  0  0  0  0
   -4.6148   22.9698  -28.4570 H   0  0  0  0  0  0  0  0  0  0  0  0
   -6.7383   21.8311  -29.1040 H   0  0  0  0  0  0  0  0  0  0  0  0
   -6.3769   21.7100  -32.9389 H   0  0  0  0  0  0  0  0  0  0  0  0
   -6.2419   20.6703  -31.4734 H   0  0  0  0  0  0  0  0  0  0  0  0
   -6.7584   19.7635  -34.3504 H   0  0  0  0  0  0  0  0  0  0  0  0
   -5.2892   19.4626  -33.3465 H   0  0  0  0  0  0  0  0  0  0  0  0
   -3.7946   15.2154  -31.9162 H   0  0  0  0  0  0  0  0  0  0  0  0
   -4.6828   13.6636  -33.6726 H   0  0  0  0  0  0  0  0  0  0  0  0
   -6.6845   14.3705  -35.0073 H   0  0  0  0  0  0  0  0  0  0  0  0
   -9.0404   18.4451  -33.2767 H   0  0  0  0  0  0  0  0  0  0  0  0
   -8.6298   17.5334  -31.7738 H   0  0  0  0  0  0  0  0  0  0  0  0
   -9.7431   19.7674  -31.3569 H   0  0  0  0  0  0  0  0  0  0  0  0
   -8.1237   19.5860  -30.5883 H   0  0  0  0  0  0  0  0  0  0  0  0
   -7.1431   24.5017  -32.4850 H   0  0  0  0  0  0  0  0  0  0  0  0
   -5.0242   25.6437  -31.8391 H   0  0  0  0  0  0  0  0  0  0  0  0
  1  2  1  0
  2  3  1  0
  3  4  2  0
  4  5  1  0
  5  6  2  0
  6  7  1  0
  7  8  2  0
  7  9  2  0
  7 10  1  0
 10 11  1  0
 11 12  1  0
 12 13  1  0
 13 14  1  0
 14 15  2  0
 15 16  1  0
 16 17  2  0
 17 18  1  0
 18 19  2  0
 13 20  1  0
 20 21  1  0
  6 22  1  0
 22 23  2  0
 23  3  1  0
 21 10  1  0
 19 14  1  0
  1 24  1  0
  1 25  1  0
  1 26  1  0
  4 27  1  0
  5 28  1  0
 11 29  1  0
 11 30  1  0
 12 31  1  0
 12 32  1  0
 16 33  1  0
 17 34  1  0
 18 35  1  0
 20 36  1  0
 20 37  1  0
 21 38  1  0
 21 39  1  0
 22 40  1  0
 23 41  1  0
M  END
>  <UniqueID>  (30) 
29

>  <SMILES>  (30) 
COc1ccc(S(=O)(=O)N2CCN(c3ncccn3)CC2)cc1

>  <Energy>  (30) 
41.69265827190465

>  <Genealogy>  (30) 
COc1ccc(S(=O)(=O)N2CCN(c3ncccn3)CC2)cc1 (3D coordinates assigned)
COc1ccc(S(=O)(=O)N2CCN(c3ncccn3)CC2)cc1 (nonaromatic ring conformer: 41.69265827190465 kcal/mol)

>  <smiles>  (30) 
COc1ccc(S(=O)(=O)N2CCN(c3ncccn3)CC2)cc1

>  <score_type>  (30) 
oracle

>  <origin>  (30) 
adg

>  <m_score__min__energy>  (30) 
-8.3300000000000001

>  <m_primary>  (30) 
energy

$$$$
30:0
     RDKit          3D

 49 51  0  0  0  0  0  0  0  0999 V2000
   -5.5200   18.1250  -34.7040 C   0  0  0  0  0  0  0  0  0  0  0  0
   -6.0600   18.1810  -33.3880 O   0  0  0  0  0  0  0  0  0  0  0  0
   -6.8960   19.2040  -32.9160 C   0  0  0  0  0  0  0  0  0  0  0  0
   -8.2410   18.9790  -32.5680 C   0  0  0  0  0  0  0  0  0  0  0  0
   -9.0330   20.0330  -32.1060 C   0  0  0  0  0  0  0  0  0  0  0  0
   -8.4950   21.3160  -31.9840 C   0  0  0  0  0  0  0  0  0  0  0  0
   -7.1530   21.5540  -32.3200 C   0  0  0  0  0  0  0  0  0  0  0  0
   -6.5680   22.9420  -32.1700 C   0  0  0  0  0  0  0  0  0  0  0  0
   -7.0540   23.6390  -30.9490 N   0  0  0  0  0  0  0  0  0  0  0  0
   -6.4900   25.0130  -30.8560 C   0  0  0  0  0  0  0  0  0  0  0  0
   -5.2530   25.1410  -29.9370 C   0  0  0  0  0  0  0  0  0  0  0  0
   -4.5480   23.8610  -29.7780 N   0  0  0  0  0  0  0  0  0  0  0  0
   -3.1050   23.8290  -29.7150 C   0  0  0  0  0  0  0  0  0  0  0  0
   -2.4570   24.9130  -29.6880 O   0  0  0  0  0  0  0  0  0  0  0  0
   -2.3590   22.5150  -29.6750 C   0  0  0  0  0  0  0  0  0  0  0  0
   -2.4120   21.7770  -30.9880 C   0  0  0  0  0  0  0  0  0  0  0  0
   -1.5550   20.6900  -31.2270 C   0  0  0  0  0  0  0  0  0  0  0  0
   -1.5840   20.0280  -32.4580 C   0  0  0  0  0  0  0  0  0  0  0  0
   -2.4610   20.4500  -33.4610 C   0  0  0  0  0  0  0  0  0  0  0  0
   -3.3080   21.5400  -33.2360 C   0  0  0  0  0  0  0  0  0  0  0  0
   -3.2820   22.2050  -32.0060 C   0  0  0  0  0  0  0  0  0  0  0  0
   -5.3260   22.6630  -29.4310 C   0  0  0  0  0  0  0  0  0  0  0  0
   -6.8230   22.8720  -29.7030 C   0  0  0  0  0  0  0  0  0  0  0  0
   -6.3630   20.4920  -32.7910 C   0  0  0  0  0  0  0  0  0  0  0  0
   -4.4273   18.0117  -34.6474 H   0  0  0  0  0  0  0  0  0  0  0  0
   -5.9504   17.2667  -35.2407 H   0  0  0  0  0  0  0  0  0  0  0  0
   -5.7651   19.0534  -35.2407 H   0  0  0  0  0  0  0  0  0  0  0  0
   -8.6699   17.9702  -32.6601 H   0  0  0  0  0  0  0  0  0  0  0  0
  -10.0842   19.8517  -31.8373 H   0  0  0  0  0  0  0  0  0  0  0  0
   -9.1248   22.1426  -31.6235 H   0  0  0  0  0  0  0  0  0  0  0  0
   -5.4725   22.8586  -32.1155 H   0  0  0  0  0  0  0  0  0  0  0  0
   -6.8871   23.5338  -33.0406 H   0  0  0  0  0  0  0  0  0  0  0  0
   -8.0920   23.7460  -31.0490 H   0  0  0  0  0  0  0  0  0  0  0  0
   -6.2005   25.3341  -31.8675 H   0  0  0  0  0  0  0  0  0  0  0  0
   -7.2749   25.6424  -30.4112 H   0  0  0  0  0  0  0  0  0  0  0  0
   -4.5606   25.8754  -30.3743 H   0  0  0  0  0  0  0  0  0  0  0  0
   -5.6003   25.4623  -28.9440 H   0  0  0  0  0  0  0  0  0  0  0  0
   -1.3065   22.7151  -29.4258 H   0  0  0  0  0  0  0  0  0  0  0  0
   -2.8424   21.8809  -28.9172 H   0  0  0  0  0  0  0  0  0  0  0  0
   -0.8586   20.3585  -30.4427 H   0  0  0  0  0  0  0  0  0  0  0  0
   -0.9152   19.1733  -32.6375 H   0  0  0  0  0  0  0  0  0  0  0  0
   -2.4851   19.9249  -34.4273 H   0  0  0  0  0  0  0  0  0  0  0  0
   -3.9952   21.8745  -34.0272 H   0  0  0  0  0  0  0  0  0  0  0  0
   -3.9447   23.0661  -31.8344 H   0  0  0  0  0  0  0  0  0  0  0  0
   -4.9671   21.8157  -30.0337 H   0  0  0  0  0  0  0  0  0  0  0  0
   -5.1928   22.4612  -28.3579 H   0  0  0  0  0  0  0  0  0  0  0  0
   -7.3088   21.8893  -29.7946 H   0  0  0  0  0  0  0  0  0  0  0  0
   -7.2459   23.4456  -28.8651 H   0  0  0  0  0  0  0  0  0  0  0  0
   -5.3134   20.6749  -33.0647 H   0  0  0  0  0  0  0  0  0  0  0  0
  1  2  1  0
  2  3  1  0
  3  4  2  0
  4  5  1  0
  5  6  2  0
  6  7  1  0
  7  8  1  0
  8  9  1  0
  9 10  1  0
 10 11  1  0
 11 12  1  0
 12 13  1  0
 13 14  2  0
 13 15  1  0
 15 16  1  0
 16 17  2  0
 17 18  1  0
 18 19  2  0
 19 20  1  0
 20 21  2  0
 12 22  1  0
 22 23  1  0
  7 24  2  0
 24  3  1  0
 23  9  1  0
 21 16  1  0
  1 25  1  0
  1 26  1  0
  1 27  1  0
  4 28  1  0
  5 29  1  0
  6 30  1  0
  8 31  1  0
  8 32  1  0
  9 33  1  0
 10 34  1  0
 10 35  1  0
 11 36  1  0
 11 37  1  0
 15 38  1  0
 15 39  1  0
 17 40  1  0
 18 41  1  0
 19 42  1  0
 20 43  1  0
 21 44  1  0
 22 45  1  0
 22 46  1  0
 23 47  1  0
 23 48  1  0
 24 49  1  0
M  CHG  1   9   1
M  END
>  <UniqueID>  (31) 
30

>  <SMILES>  (31) 
COc1cccc(C[NH+]2CCN(C(=O)Cc3ccccc3)CC2)c1

>  <Energy>  (31) 
59.384542716806834

>  <Genealogy>  (31) 
COc1cccc(C[NH+]2CCN(C(=O)Cc3ccccc3)CC2)c1 (protonated)
COc1cccc(C[NH+]2CCN(C(=O)Cc3ccccc3)CC2)c1 (3D coordinates assigned)
COc1cccc(C[NH+]2CCN(C(=O)Cc3ccccc3)CC2)c1 (nonaromatic ring conformer: 59.384542716806834 kcal/mol)

>  <smiles>  (31) 
COc1cccc(CN2CCN(C(=O)Cc3ccccc3)CC2)c1

>  <score_type>  (31) 
oracle

>  <origin>  (31) 
adg

>  <m_score__min__energy>  (31) 
-7.8200000000000003

>  <m_primary>  (31) 
energy

$$$$
31:0
     RDKit          3D

 29 30  0  0  0  0  0  0  0  0999 V2000
   -7.4350   23.7980  -31.2120 C   0  0  0  0  0  0  0  0  0  0  0  0
   -7.8820   22.4330  -31.6110 C   0  0  0  0  0  0  0  0  0  0  0  0
   -7.0490   21.4850  -32.0870 N   0  0  0  0  0  0  0  0  0  0  0  0
   -7.7090   20.3460  -32.4450 C   0  0  0  0  0  0  0  0  0  0  0  0
   -6.9800   19.1670  -32.9810 C   0  0  0  0  0  0  0  0  0  0  0  0
   -7.1400   17.9110  -32.3720 C   0  0  0  0  0  0  0  0  0  0  0  0
   -6.4630   16.7890  -32.8580 C   0  0  0  0  0  0  0  0  0  0  0  0
   -5.6030   16.8880  -33.9690 C   0  0  0  0  0  0  0  0  0  0  0  0
   -4.8990   15.7230  -34.4750 N   0  0  0  0  0  0  0  0  0  0  0  0
   -3.6530   15.8750  -35.2360 C   0  0  0  0  0  0  0  0  0  0  0  0
   -5.4220   14.3720  -34.2360 C   0  0  0  0  0  0  0  0  0  0  0  0
   -5.4400   18.1510  -34.5730 C   0  0  0  0  0  0  0  0  0  0  0  0
   -6.1170   19.2730  -34.0860 C   0  0  0  0  0  0  0  0  0  0  0  0
   -9.0940   20.4010  -32.2560 C   0  0  0  0  0  0  0  0  0  0  0  0
   -9.4790   21.9160  -31.6360 S   0  0  0  0  0  0  0  0  0  0  0  0
   -7.4114   23.8699  -30.1146 H   0  0  0  0  0  0  0  0  0  0  0  0
   -6.4283   23.9861  -31.6135 H   0  0  0  0  0  0  0  0  0  0  0  0
   -8.1354   24.5452  -31.6135 H   0  0  0  0  0  0  0  0  0  0  0  0
   -7.8060   17.8095  -31.5024 H   0  0  0  0  0  0  0  0  0  0  0  0
   -6.6038   15.8153  -32.3661 H   0  0  0  0  0  0  0  0  0  0  0  0
   -2.8081   15.9781  -34.5392 H   0  0  0  0  0  0  0  0  0  0  0  0
   -3.4999   14.9889  -35.8695 H   0  0  0  0  0  0  0  0  0  0  0  0
   -3.7174   16.7720  -35.8695 H   0  0  0  0  0  0  0  0  0  0  0  0
   -5.4917   14.1921  -33.1531 H   0  0  0  0  0  0  0  0  0  0  0  0
   -6.4207   14.2801  -34.6879 H   0  0  0  0  0  0  0  0  0  0  0  0
   -4.7455   13.6317  -34.6879 H   0  0  0  0  0  0  0  0  0  0  0  0
   -4.7707   18.2553  -35.4397 H   0  0  0  0  0  0  0  0  0  0  0  0
   -5.9730   20.2491  -34.5724 H   0  0  0  0  0  0  0  0  0  0  0  0
   -9.8077   19.5931  -32.4750 H   0  0  0  0  0  0  0  0  0  0  0  0
  1  2  1  0
  2  3  2  0
  3  4  1  0
  4  5  1  0
  5  6  2  0
  6  7  1  0
  7  8  2  0
  8  9  1  0
  9 10  1  0
  9 11  1  0
  8 12  1  0
 12 13  2  0
  4 14  2  0
 14 15  1  0
 15  2  1  0
 13  5  1  0
  1 16  1  0
  1 17  1  0
  1 18  1  0
  6 19  1  0
  7 20  1  0
 10 21  1  0
 10 22  1  0
 10 23  1  0
 11 24  1  0
 11 25  1  0
 11 26  1  0
 12 27  1  0
 13 28  1  0
 14 29  1  0
M  END
>  <UniqueID>  (32) 
31

>  <SMILES>  (32) 
Cc1nc(-c2ccc(N(C)C)cc2)cs1

>  <Energy>  (32) 
60.72771055248433

>  <Genealogy>  (32) 
Cc1nc(-c2ccc(N(C)C)cc2)cs1 (3D coordinates assigned)
Cc1nc(-c2ccc(N(C)C)cc2)cs1 (optimized conformer: 60.72771055248433 kcal/mol)

>  <smiles>  (32) 
Cc1nc(-c2ccc(N(C)C)cc2)cs1

>  <score_type>  (32) 
oracle

>  <origin>  (32) 
adg

>  <m_score__min__energy>  (32) 
-5.7999999999999998

>  <m_primary>  (32) 
energy

$$$$
32:0
     RDKit          3D

 55 57  0  0  0  0  0  0  0  0999 V2000
   -1.2037   21.3314  -30.0679 H   0  0  0  0  0  0  0  0  0  0  0  0
   -1.8550   22.1480  -29.7230 C   0  0  0  0  0  0  0  0  0  0  0  0
   -2.4080   23.0490  -30.5770 N   0  0  0  0  0  0  0  0  0  0  0  0
   -3.1670   23.9520  -29.9170 C   0  0  0  0  0  0  0  0  0  0  0  0
   -3.8090   24.9270  -30.4870 N   0  0  0  0  0  0  0  0  0  0  0  0
   -5.2060   25.2230  -30.3340 C   0  0  0  0  0  0  0  0  0  0  0  0
   -5.6440   26.3990  -30.4700 O   0  0  0  0  0  0  0  0  0  0  0  0
   -6.1530   24.1210  -29.9800 C   0  0  0  0  0  0  0  0  0  0  0  0
   -6.7195   24.4062  -29.0813 H   0  0  0  0  0  0  0  0  0  0  0  0
   -5.5750   23.2043  -29.7912 H   0  0  0  0  0  0  0  0  0  0  0  0
   -7.3190   23.8090  -31.3500 S   0  0  0  0  0  0  0  0  0  0  0  0
   -6.3770   22.4400  -32.0390 C   0  0  0  0  0  0  0  0  0  0  0  0
   -5.0610   22.6340  -32.2760 N   0  0  0  0  0  0  0  0  0  0  0  0
   -4.2750   21.6700  -32.8100 C   0  0  0  0  0  0  0  0  0  0  0  0
   -3.0550   21.9300  -32.9980 O   0  0  0  0  0  0  0  0  0  0  0  0
   -4.7960   20.4410  -33.1470 N   0  0  0  0  0  0  0  0  0  0  0  0
   -3.8860   19.4650  -33.7970 C   0  0  0  0  0  0  0  0  0  0  0  0
   -3.3345   19.9739  -34.6013 H   0  0  0  0  0  0  0  0  0  0  0  0
   -4.4971   18.6415  -34.1950 H   0  0  0  0  0  0  0  0  0  0  0  0
   -2.8710   18.8680  -32.7950 C   0  0  0  0  0  0  0  0  0  0  0  0
   -2.5616   17.8767  -33.1577 H   0  0  0  0  0  0  0  0  0  0  0  0
   -3.3697   18.8092  -31.8163 H   0  0  0  0  0  0  0  0  0  0  0  0
   -1.6510   19.7160  -32.6260 N   0  0  0  0  0  0  0  0  0  0  0  0
   -1.9110   20.7020  -32.4100 H   0  0  0  0  0  0  0  0  0  0  0  0
   -0.8090   19.2300  -31.5000 C   0  0  0  0  0  0  0  0  0  0  0  0
   -0.4343   18.2256  -31.7467 H   0  0  0  0  0  0  0  0  0  0  0  0
   -1.4342   19.2154  -30.5951 H   0  0  0  0  0  0  0  0  0  0  0  0
    0.3890   20.1500  -31.2270 C   0  0  0  0  0  0  0  0  0  0  0  0
    0.5289   20.2574  -30.1412 H   0  0  0  0  0  0  0  0  0  0  0  0
    1.2954   19.7136  -31.6721 H   0  0  0  0  0  0  0  0  0  0  0  0
    0.2013   21.1383  -31.6721 H   0  0  0  0  0  0  0  0  0  0  0  0
   -0.8340   19.7480  -33.8670 C   0  0  0  0  0  0  0  0  0  0  0  0
    0.0928   19.1815  -33.6937 H   0  0  0  0  0  0  0  0  0  0  0  0
   -1.4352   19.3038  -34.6740 H   0  0  0  0  0  0  0  0  0  0  0  0
   -0.4660   21.1740  -34.2920 C   0  0  0  0  0  0  0  0  0  0  0  0
   -0.3061   21.7935  -33.3972 H   0  0  0  0  0  0  0  0  0  0  0  0
    0.4558   21.1515  -34.8919 H   0  0  0  0  0  0  0  0  0  0  0  0
   -1.2835   21.6003  -34.8919 H   0  0  0  0  0  0  0  0  0  0  0  0
   -6.1350   20.1870  -32.8900 C   0  0  0  0  0  0  0  0  0  0  0  0
   -6.9520   21.1980  -32.3380 C   0  0  0  0  0  0  0  0  0  0  0  0
   -8.4270   20.9170  -32.1440 C   0  0  0  0  0  0  0  0  0  0  0  0
   -8.8608   21.6990  -31.5035 H   0  0  0  0  0  0  0  0  0  0  0  0
   -8.9150   20.9112  -33.1298 H   0  0  0  0  0  0  0  0  0  0  0  0
   -8.6450   19.5470  -31.4820 C   0  0  0  0  0  0  0  0  0  0  0  0
   -8.4837   19.6570  -30.3995 H   0  0  0  0  0  0  0  0  0  0  0  0
   -9.6704   19.2350  -31.7295 H   0  0  0  0  0  0  0  0  0  0  0  0
   -7.7030   18.4360  -32.0030 C   0  0  0  0  0  0  0  0  0  0  0  0
   -7.0368   18.1324  -31.1820 H   0  0  0  0  0  0  0  0  0  0  0  0
   -8.3415   17.6113  -32.3526 H   0  0  0  0  0  0  0  0  0  0  0  0
   -6.8370   18.8690  -33.1950 C   0  0  0  0  0  0  0  0  0  0  0  0
   -6.0823   18.0942  -33.3953 H   0  0  0  0  0  0  0  0  0  0  0  0
   -7.4828   19.0038  -34.0752 H   0  0  0  0  0  0  0  0  0  0  0  0
   -3.1820   23.6740  -28.2620 S   0  0  0  0  0  0  0  0  0  0  0  0
   -2.1720   22.3330  -28.3810 C   0  0  0  0  0  0  0  0  0  0  0  0
   -1.8232   21.7110  -27.5435 H   0  0  0  0  0  0  0  0  0  0  0  0
  1  2  1  0
  2  3  1  0
  3  4  1  0
  4  5  2  0
  5  6  1  0
  6  7  2  0
  6  8  1  0
  8  9  1  0
  8 10  1  0
  8 11  1  0
 11 12  1  0
 12 13  2  0
 13 14  1  0
 14 15  2  0
 14 16  1  0
 16 17  1  0
 17 18  1  0
 17 19  1  0
 17 20  1  0
 20 21  1  0
 20 22  1  0
 20 23  1  0
 23 24  1  0
 23 25  1  0
 25 26  1  0
 25 27  1  0
 25 28  1  0
 28 29  1  0
 28 30  1  0
 28 31  1  0
 23 32  1  0
 32 33  1  0
 32 34  1  0
 32 35  1  0
 35 36  1  0
 35 37  1  0
 35 38  1  0
 16 39  1  0
 39 40  2  0
 40 41  1  0
 41 42  1  0
 41 43  1  0
 41 44  1  0
 44 45  1  0
 44 46  1  0
 44 47  1  0
 47 48  1  0
 47 49  1  0
 47 50  1  0
 50 51  1  0
 50 52  1  0
  4 53  1  0
 53 54  1  0
 54 55  1  0
 54  2  2  0
 40 12  1  0
 50 39  1  0
M  CHG  2   3  -1  23   1
M  END
>  <UniqueID>  (33) 
32

>  <SMILES>  (33) 
CC[NH+](CC)CCn1c2c(c(SCC(=O)/N=c3\[n-]ccs3)nc1=O)CCCC2

>  <Energy>  (33) 
97.64268874925538

>  <Genealogy>  (33) 
CC[NH+](CC)CCn1c2c(c(SCC(=O)N=c3[n-]ccs3)nc1=O)CCCC2 (protonated)
CC[NH+](CC)CCn1c2c(c(SCC(=O)/N=c3\[n-]ccs3)nc1=O)CCCC2 (cis-trans isomerization)
CC[NH+](CC)CCn1c2c(c(SCC(=O)/N=c3\[n-]ccs3)nc1=O)CCCC2 (3D coordinates assigned)
CC[NH+](CC)CCn1c2c(c(SCC(=O)/N=c3\[n-]ccs3)nc1=O)CCCC2 (nonaromatic ring conformer: 97.64268874925538 kcal/mol)

>  <smiles>  (33) 
CCN(CC)CCn1c2c(c(SCC(=O)N=c3[nH]ccs3)nc1=O)CCCC2

>  <score_type>  (33) 
oracle

>  <origin>  (33) 
adg

>  <m_score__min__energy>  (33) 
-9.8800000000000008

>  <m_primary>  (33) 
energy

$$$$
33:0
     RDKit          3D

 55 58  0  0  0  0  0  0  0  0999 V2000
   -5.1710   25.5910  -30.3840 C   0  0  0  0  0  0  0  0  0  0  0  0
   -3.8360   25.1910  -30.4700 O   0  0  0  0  0  0  0  0  0  0  0  0
   -3.2910   24.4370  -29.4410 C   0  0  0  0  0  0  0  0  0  0  0  0
   -2.3040   24.9580  -28.6100 C   0  0  0  0  0  0  0  0  0  0  0  0
   -1.7420   24.2360  -27.5810 C   0  0  0  0  0  0  0  0  0  0  0  0
   -0.7090   24.7890  -26.7170 C   0  0  0  0  0  0  0  0  0  0  0  0
   -1.0300   25.1610  -25.4590 N   0  0  0  0  0  0  0  0  0  0  0  0
   -0.1370   25.6760  -24.6070 C   0  0  0  0  0  0  0  0  0  0  0  0
   -0.4090   26.0420  -23.4010 N   0  0  0  0  0  0  0  0  0  0  0  0
    1.1300   25.8260  -25.0320 N   0  0  0  0  0  0  0  0  0  0  0  0
    1.5140   25.4770  -26.2680 C   0  0  0  0  0  0  0  0  0  0  0  0
    2.9150   25.6330  -26.7610 C   0  0  0  0  0  0  0  0  0  0  0  0
    0.5620   24.9580  -27.0900 N   0  0  0  0  0  0  0  0  0  0  0  0
   -2.1940   22.9550  -27.3890 C   0  0  0  0  0  0  0  0  0  0  0  0
   -1.6570   22.2070  -26.3730 F   0  0  0  0  0  0  0  0  0  0  0  0
   -3.1770   22.4320  -28.2140 C   0  0  0  0  0  0  0  0  0  0  0  0
   -3.7430   23.1410  -29.2400 C   0  0  0  0  0  0  0  0  0  0  0  0
   -4.7570   22.5900  -30.0850 N   0  0  0  0  0  0  0  0  0  0  0  0
   -6.1490   22.6910  -29.7160 C   0  0  0  0  0  0  0  0  0  0  0  0
   -7.0660   22.8330  -30.8950 C   0  0  0  0  0  0  0  0  0  0  0  0
   -6.6090   22.0890  -32.1120 C   0  0  0  0  0  0  0  0  0  0  0  0
   -7.6790   21.3020  -32.7130 N   0  0  0  0  0  0  0  0  0  0  0  0
   -8.7460   21.2200  -31.7460 C   0  0  0  0  0  0  0  0  0  0  0  0
   -9.4850   19.9820  -32.2120 C   0  0  0  0  0  0  0  0  0  0  0  0
   -8.3460   19.0380  -32.5190 C   0  0  0  0  0  0  0  0  0  0  0  0
   -7.2450   19.9540  -33.0060 C   0  0  0  0  0  0  0  0  0  0  0  0
   -5.4550   21.1620  -31.8530 C   0  0  0  0  0  0  0  0  0  0  0  0
   -4.3080   21.9420  -31.2990 C   0  0  0  0  0  0  0  0  0  0  0  0
   -5.4604   25.6777  -29.3263 H   0  0  0  0  0  0  0  0  0  0  0  0
   -5.2944   26.5656  -30.8790 H   0  0  0  0  0  0  0  0  0  0  0  0
   -5.8100   24.8449  -30.8790 H   0  0  0  0  0  0  0  0  0  0  0  0
   -1.9588   25.9882  -28.7820 H   0  0  0  0  0  0  0  0  0  0  0  0
    0.1660   25.8070  -22.5760 H   0  0  0  0  0  0  0  0  0  0  0  0
    3.5992   25.7092  -25.9031 H   0  0  0  0  0  0  0  0  0  0  0  0
    3.1882   24.7597  -27.3715 H   0  0  0  0  0  0  0  0  0  0  0  0
    2.9895   26.5450  -27.3715 H   0  0  0  0  0  0  0  0  0  0  0  0
    0.8720   24.6960  -28.0320 H   0  0  0  0  0  0  0  0  0  0  0  0
   -3.5179   21.4013  -28.0369 H   0  0  0  0  0  0  0  0  0  0  0  0
   -6.4303   21.7832  -29.1621 H   0  0  0  0  0  0  0  0  0  0  0  0
   -6.2595   23.5994  -29.1057 H   0  0  0  0  0  0  0  0  0  0  0  0
   -8.0584   22.4540  -30.6096 H   0  0  0  0  0  0  0  0  0  0  0  0
   -7.0821   23.9004  -31.1604 H   0  0  0  0  0  0  0  0  0  0  0  0
   -6.2830   22.8825  -32.8005 H   0  0  0  0  0  0  0  0  0  0  0  0
   -8.3544   21.0935  -30.7259 H   0  0  0  0  0  0  0  0  0  0  0  0
   -9.3730   22.1223  -31.6938 H   0  0  0  0  0  0  0  0  0  0  0  0
  -10.1344   19.5815  -31.4197 H   0  0  0  0  0  0  0  0  0  0  0  0
  -10.1578   20.1596  -33.0640 H   0  0  0  0  0  0  0  0  0  0  0  0
   -8.0330   18.4936  -31.6159 H   0  0  0  0  0  0  0  0  0  0  0  0
   -8.6170   18.2670  -33.2553 H   0  0  0  0  0  0  0  0  0  0  0  0
   -6.3051   19.7335  -32.4788 H   0  0  0  0  0  0  0  0  0  0  0  0
   -7.0591   19.8188  -34.0817 H   0  0  0  0  0  0  0  0  0  0  0  0
   -5.7585   20.3912  -31.1293 H   0  0  0  0  0  0  0  0  0  0  0  0
   -5.1518   20.6802  -32.7942 H   0  0  0  0  0  0  0  0  0  0  0  0
   -3.4700   21.2659  -31.0740 H   0  0  0  0  0  0  0  0  0  0  0  0
   -3.9647   22.6901  -32.0287 H   0  0  0  0  0  0  0  0  0  0  0  0
  1  2  1  0
  2  3  1  0
  3  4  2  0
  4  5  1  0
  5  6  1  0
  6  7  2  0
  7  8  1  0
  8  9  2  3
  8 10  1  0
 10 11  2  0
 11 12  1  0
 11 13  1  0
  5 14  2  0
 14 15  1  0
 14 16  1  0
 16 17  2  0
 17 18  1  0
 18 19  1  0
 19 20  1  0
 20 21  1  0
 21 22  1  0
 22 23  1  0
 23 24  1  0
 24 25  1  0
 25 26  1  0
 21 27  1  0
 27 28  1  0
 17  3  1  0
 28 18  1  0
 13  6  1  0
 26 22  1  0
  1 29  1  0
  1 30  1  0
  1 31  1  0
  4 32  1  0
  9 33  1  0
 12 34  1  0
 12 35  1  0
 12 36  1  0
 13 37  1  0
 16 38  1  0
 19 39  1  0
 19 40  1  0
 20 41  1  0
 20 42  1  0
 21 43  1  0
 23 44  1  0
 23 45  1  0
 24 46  1  0
 24 47  1  0
 25 48  1  0
 25 49  1  0
 26 50  1  0
 26 51  1  0
 27 52  1  0
 27 53  1  0
 28 54  1  0
 28 55  1  0
M  END
>  <smiles>  (34) 
COc1cc(-c2nc(=N)nc(C)[nH]2)c(F)cc1N1CCC(N2CCCC2)CC1

>  <score_type>  (34) 
oracle

>  <origin>  (34) 
adg

>  <m_score__min__energy>  (34) 
-8.5899999999999999

>  <m_primary>  (34) 
energy

$$$$
34:0
     RDKit          3D

 35 37  0  0  0  0  0  0  0  0999 V2000
   -3.4980   25.2950  -30.4690 O   0  0  0  0  0  0  0  0  0  0  0  0
   -3.2730   23.9250  -30.4080 C   0  0  0  0  0  0  0  0  0  0  0  0
   -2.2250   23.4450  -29.6140 C   0  0  0  0  0  0  0  0  0  0  0  0
   -1.9390   22.0790  -29.5750 C   0  0  0  0  0  0  0  0  0  0  0  0
   -2.6960   21.1850  -30.3340 C   0  0  0  0  0  0  0  0  0  0  0  0
   -3.7480   21.6550  -31.1260 C   0  0  0  0  0  0  0  0  0  0  0  0
   -4.0610   23.0230  -31.1550 C   0  0  0  0  0  0  0  0  0  0  0  0
   -5.1410   23.4750  -31.9880 N   0  0  0  0  0  0  0  0  0  0  0  0
   -6.0500   24.5470  -31.5790 C   0  0  0  0  0  0  0  0  0  0  0  0
   -7.2840   23.9820  -30.8620 C   0  0  0  0  0  0  0  0  0  0  0  0
   -8.3350   23.4120  -31.8250 C   0  0  0  0  0  0  0  0  0  0  0  0
   -8.2080   21.9640  -31.9570 N   0  0  0  0  0  0  0  0  0  0  0  0
   -9.0830   21.0920  -31.4840 N   0  0  0  0  0  0  0  0  0  0  0  0
   -8.6700   19.8700  -31.7760 N   0  0  0  0  0  0  0  0  0  0  0  0
   -7.5100   20.0460  -32.4390 C   0  0  0  0  0  0  0  0  0  0  0  0
   -6.6880   18.9550  -32.9750 C   0  0  0  0  0  0  0  0  0  0  0  0
   -6.9950   17.6010  -32.9160 C   0  0  0  0  0  0  0  0  0  0  0  0
   -6.0240   16.7910  -33.5170 C   0  0  0  0  0  0  0  0  0  0  0  0
   -4.9620   17.5100  -34.0440 C   0  0  0  0  0  0  0  0  0  0  0  0
   -3.4490   16.7710  -34.9400 Br  0  0  0  0  0  0  0  0  0  0  0  0
   -5.2180   19.1480  -33.7710 S   0  0  0  0  0  0  0  0  0  0  0  0
   -7.2010   21.3520  -32.5570 N   0  0  0  0  0  0  0  0  0  0  0  0
   -1.6239   24.1474  -29.0179 H   0  0  0  0  0  0  0  0  0  0  0  0
   -1.1168   21.7072  -28.9459 H   0  0  0  0  0  0  0  0  0  0  0  0
   -2.4647   20.1099  -30.3090 H   0  0  0  0  0  0  0  0  0  0  0  0
   -4.3345   20.9477  -31.7307 H   0  0  0  0  0  0  0  0  0  0  0  0
   -5.5080   22.8010  -32.6980 H   0  0  0  0  0  0  0  0  0  0  0  0
   -5.5189   25.2278  -30.8975 H   0  0  0  0  0  0  0  0  0  0  0  0
   -6.3843   25.0838  -32.4790 H   0  0  0  0  0  0  0  0  0  0  0  0
   -6.9577   23.1786  -30.1852 H   0  0  0  0  0  0  0  0  0  0  0  0
   -7.7557   24.8140  -30.3186 H   0  0  0  0  0  0  0  0  0  0  0  0
   -9.3381   23.6496  -31.4411 H   0  0  0  0  0  0  0  0  0  0  0  0
   -8.1782   23.8646  -32.8153 H   0  0  0  0  0  0  0  0  0  0  0  0
   -7.9074   17.2061  -32.4453 H   0  0  0  0  0  0  0  0  0  0  0  0
   -6.0963   15.6945  -33.5662 H   0  0  0  0  0  0  0  0  0  0  0  0
  1  2  1  0
  2  3  2  0
  3  4  1  0
  4  5  2  0
  5  6  1  0
  6  7  2  0
  7  8  1  0
  8  9  1  0
  9 10  1  0
 10 11  1  0
 11 12  1  0
 12 13  1  0
 13 14  2  0
 14 15  1  0
 15 16  1  0
 16 17  2  0
 17 18  1  0
 18 19  2  0
 19 20  1  0
 19 21  1  0
 15 22  2  0
  7  2  1  0
 22 12  1  0
 21 16  1  0
  3 23  1  0
  4 24  1  0
  5 25  1  0
  6 26  1  0
  8 27  1  0
  9 28  1  0
  9 29  1  0
 10 30  1  0
 10 31  1  0
 11 32  1  0
 11 33  1  0
 17 34  1  0
 18 35  1  0
M  CHG  1   1  -1
M  END
>  <UniqueID>  (35) 
33

>  <SMILES>  (35) 
[O-]c1ccccc1NCCCn1nnc(-c2ccc(Br)s2)n1

>  <Energy>  (35) 
99.75828394558958

>  <Genealogy>  (35) 
[O-]c1ccccc1NCCCn1nnc(-c2ccc(Br)s2)n1 (protonated)
[O-]c1ccccc1NCCCn1nnc(-c2ccc(Br)s2)n1 (3D coordinates assigned)
[O-]c1ccccc1NCCCn1nnc(-c2ccc(Br)s2)n1 (optimized conformer: 99.75828394558958 kcal/mol)

>  <smiles>  (35) 
Oc1ccccc1NCCCn1nnc(-c2ccc(Br)s2)n1

>  <score_type>  (35) 
oracle

>  <origin>  (35) 
adg

>  <m_score__min__energy>  (35) 
-11.960000000000001

>  <m_primary>  (35) 
energy

$$$$
35:0
     RDKit          3D

 48 51  0  0  0  0  0  0  0  0999 V2000
   -6.4880   14.9020  -34.2200 C   0  0  0  0  0  0  0  0  0  0  0  0
   -6.2540   16.3360  -33.8220 C   0  0  0  0  0  0  0  0  0  0  0  0
   -7.2290   17.0080  -33.0680 C   0  0  0  0  0  0  0  0  0  0  0  0
   -7.0420   18.3370  -32.6860 C   0  0  0  0  0  0  0  0  0  0  0  0
   -5.8760   19.0270  -33.0510 C   0  0  0  0  0  0  0  0  0  0  0  0
   -5.6800   20.4420  -32.6450 C   0  0  0  0  0  0  0  0  0  0  0  0
   -6.7840   21.2550  -32.3280 C   0  0  0  0  0  0  0  0  0  0  0  0
   -6.5980   22.5860  -31.9430 C   0  0  0  0  0  0  0  0  0  0  0  0
   -5.3030   23.1220  -31.8480 C   0  0  0  0  0  0  0  0  0  0  0  0
   -5.0820   24.4900  -31.4790 N   0  0  0  0  0  0  0  0  0  0  0  0
   -5.0380   25.0130  -30.1440 C   0  0  0  0  0  0  0  0  0  0  0  0
   -5.8630   25.9080  -29.8170 O   0  0  0  0  0  0  0  0  0  0  0  0
   -3.9960   24.5680  -29.1460 C   0  0  2  0  0  0  0  0  0  0  0  0
   -2.6760   24.9240  -29.6690 N   0  0  0  0  0  0  0  0  0  0  0  0
   -1.4810   24.6250  -28.4520 S   0  0  0  0  0  0  0  0  0  0  0  0
   -1.5700   25.6700  -27.3770 O   0  0  0  0  0  0  0  0  0  0  0  0
   -0.1180   24.6530  -29.0820 O   0  0  0  0  0  0  0  0  0  0  0  0
   -1.8040   23.0370  -27.7830 C   0  0  0  0  0  0  0  0  0  0  0  0
   -0.8300   22.3960  -27.0060 C   0  0  0  0  0  0  0  0  0  0  0  0
   -1.0660   21.1150  -26.5030 C   0  0  0  0  0  0  0  0  0  0  0  0
   -2.2710   20.4670  -26.7790 C   0  0  0  0  0  0  0  0  0  0  0  0
   -3.2480   21.1020  -27.5520 C   0  0  0  0  0  0  0  0  0  0  0  0
   -3.0290   22.3970  -28.0580 C   0  0  0  0  0  0  0  0  0  0  0  0
   -4.0820   23.0790  -28.8580 C   0  0  0  0  0  0  0  0  0  0  0  0
   -5.0970   22.4260  -29.2300 O   0  0  0  0  0  0  0  0  0  0  0  0
   -4.2060   22.3260  -32.1910 C   0  0  0  0  0  0  0  0  0  0  0  0
   -4.3880   20.9940  -32.5770 C   0  0  0  0  0  0  0  0  0  0  0  0
   -4.8970   18.3580  -33.8060 C   0  0  0  0  0  0  0  0  0  0  0  0
   -5.0750   17.0200  -34.1980 C   0  0  0  0  0  0  0  0  0  0  0  0
   -3.9990   16.3380  -35.0030 C   0  0  0  0  0  0  0  0  0  0  0  0
   -6.5891   14.2826  -33.3166 H   0  0  0  0  0  0  0  0  0  0  0  0
   -7.4093   14.8328  -34.8170 H   0  0  0  0  0  0  0  0  0  0  0  0
   -5.6365   14.5435  -34.8170 H   0  0  0  0  0  0  0  0  0  0  0  0
   -8.1495   16.4817  -32.7754 H   0  0  0  0  0  0  0  0  0  0  0  0
   -7.8153   18.8481  -32.0937 H   0  0  0  0  0  0  0  0  0  0  0  0
   -7.8012   20.8400  -32.3836 H   0  0  0  0  0  0  0  0  0  0  0  0
   -7.4697   23.2164  -31.7134 H   0  0  0  0  0  0  0  0  0  0  0  0
   -4.1751   25.0790  -28.1885 H   0  0  0  0  0  0  0  0  0  0  0  0
    0.1224   22.9029  -26.7918 H   0  0  0  0  0  0  0  0  0  0  0  0
   -0.3018   20.6162  -25.8888 H   0  0  0  0  0  0  0  0  0  0  0  0
   -2.4524   19.4551  -26.3878 H   0  0  0  0  0  0  0  0  0  0  0  0
   -4.1952   20.5854  -27.7663 H   0  0  0  0  0  0  0  0  0  0  0  0
   -3.1918   22.7506  -32.1570 H   0  0  0  0  0  0  0  0  0  0  0  0
   -3.5150   20.3740  -32.8291 H   0  0  0  0  0  0  0  0  0  0  0  0
   -3.9781   18.8895  -34.0943 H   0  0  0  0  0  0  0  0  0  0  0  0
   -3.2693   15.8755  -34.3221 H   0  0  0  0  0  0  0  0  0  0  0  0
   -4.4520   15.5617  -35.6372 H   0  0  0  0  0  0  0  0  0  0  0  0
   -3.4903   17.0789  -35.6372 H   0  0  0  0  0  0  0  0  0  0  0  0
  1  2  1  0
  2  3  2  0
  3  4  1  0
  4  5  2  0
  5  6  1  0
  6  7  2  0
  7  8  1  0
  8  9  2  0
  9 10  1  0
 10 11  1  0
 11 12  2  0
 11 13  1  0
 13 14  1  0
 14 15  1  0
 15 16  2  0
 15 17  2  0
 15 18  1  0
 18 19  2  0
 19 20  1  0
 20 21  2  0
 21 22  1  0
 22 23  2  0
 23 24  1  0
 24 25  2  0
  9 26  1  0
 26 27  2  0
  5 28  1  0
 28 29  2  0
 29 30  1  0
 29  2  1  0
 27  6  1  0
 24 13  1  0
 23 18  1  0
  1 31  1  0
  1 32  1  0
  1 33  1  0
  3 34  1  0
  4 35  1  0
  7 36  1  0
  8 37  1  0
 13 38  1  1
 19 39  1  0
 20 40  1  0
 21 41  1  0
 22 42  1  0
 26 43  1  0
 27 44  1  0
 28 45  1  0
 30 46  1  0
 30 47  1  0
 30 48  1  0
M  CHG  2  10  -1  14  -1
M  END
>  <UniqueID>  (36) 
34

>  <SMILES>  (36) 
Cc1ccc(-c2ccc([N-]C(=O)[C@@H]3[N-]S(=O)(=O)c4ccccc4C3=O)cc2)cc1C

>  <Energy>  (36) 
66.45205074462034

>  <Genealogy>  (36) 
Cc1ccc(-c2ccc([N-]C(=O)C3[N-]S(=O)(=O)c4ccccc4C3=O)cc2)cc1C (protonated)
Cc1ccc(-c2ccc([N-]C(=O)[C@@H]3[N-]S(=O)(=O)c4ccccc4C3=O)cc2)cc1C (chirality)
Cc1ccc(-c2ccc([N-]C(=O)[C@@H]3[N-]S(=O)(=O)c4ccccc4C3=O)cc2)cc1C (3D coordinates assigned)
Cc1ccc(-c2ccc([N-]C(=O)[C@@H]3[N-]S(=O)(=O)c4ccccc4C3=O)cc2)cc1C (nonaromatic ring conformer: 66.45205074462034 kcal/mol)

>  <smiles>  (36) 
Cc1ccc(-c2ccc(NC(=O)C3NS(=O)(=O)c4ccccc4C3=O)cc2)cc1C

>  <score_type>  (36) 
oracle

>  <origin>  (36) 
adg

>  <m_score__min__energy>  (36) 
-12.710000000000001

>  <m_primary>  (36) 
energy

$$$$
36:0
     RDKit          3D

 54 56  0  0  0  0  0  0  0  0999 V2000
   -3.4110   21.5170  -32.4460 C   0  0  0  0  0  0  0  0  0  0  0  0
   -4.3960   21.8630  -31.4780 O   0  0  0  0  0  0  0  0  0  0  0  0
   -5.7760   21.6550  -31.6330 C   0  0  0  0  0  0  0  0  0  0  0  0
   -6.3350   20.3610  -31.6270 C   0  0  0  0  0  0  0  0  0  0  0  0
   -7.7120   20.1850  -31.7820 C   0  0  0  0  0  0  0  0  0  0  0  0
   -8.5470   21.2910  -31.9390 C   0  0  0  0  0  0  0  0  0  0  0  0
   -8.0070   22.5790  -31.9470 C   0  0  0  0  0  0  0  0  0  0  0  0
   -6.6220   22.7720  -31.7940 C   0  0  0  0  0  0  0  0  0  0  0  0
   -6.0530   24.1700  -31.8320 C   0  0  0  0  0  0  0  0  0  0  0  0
   -5.7970   24.6590  -30.4680 N   0  0  0  0  0  0  0  0  0  0  0  0
   -6.8790   25.2940  -29.7050 C   0  0  0  0  0  0  0  0  0  0  0  0
   -4.4750   24.5310  -29.8940 C   0  0  0  0  0  0  0  0  0  0  0  0
   -3.4930   25.0540  -30.4890 O   0  0  0  0  0  0  0  0  0  0  0  0
   -4.2560   23.7270  -28.6200 C   0  0  0  0  0  0  0  0  0  0  0  0
   -3.3540   22.5550  -28.7440 N   0  0  0  0  0  0  0  0  0  0  0  0
   -3.4970   21.6120  -27.6070 C   0  0  0  0  0  0  0  0  0  0  0  0
   -2.6810   20.3360  -27.8610 C   0  0  0  0  0  0  0  0  0  0  0  0
   -1.3370   20.6640  -28.3510 N   0  0  0  0  0  0  0  0  0  0  0  0
   -0.5200   19.6380  -28.9440 C   0  0  0  0  0  0  0  0  0  0  0  0
   -0.0860   18.5510  -28.1670 C   0  0  0  0  0  0  0  0  0  0  0  0
    0.7200   17.5570  -28.7310 C   0  0  0  0  0  0  0  0  0  0  0  0
    1.0970   17.6400  -30.0730 C   0  0  0  0  0  0  0  0  0  0  0  0
    0.6680   18.7150  -30.8540 C   0  0  0  0  0  0  0  0  0  0  0  0
   -0.1390   19.7140  -30.2960 C   0  0  0  0  0  0  0  0  0  0  0  0
   -0.5690   20.7310  -31.0810 F   0  0  0  0  0  0  0  0  0  0  0  0
   -0.8980   22.0630  -28.3560 C   0  0  0  0  0  0  0  0  0  0  0  0
   -1.9450   22.9420  -29.0590 C   0  0  0  0  0  0  0  0  0  0  0  0
   -2.4920   21.1942  -31.9348 H   0  0  0  0  0  0  0  0  0  0  0  0
   -3.7876   20.6974  -33.0755 H   0  0  0  0  0  0  0  0  0  0  0  0
   -3.1923   22.3921  -33.0755 H   0  0  0  0  0  0  0  0  0  0  0  0
   -5.6828   19.4844  -31.4995 H   0  0  0  0  0  0  0  0  0  0  0  0
   -8.1390   19.1713  -31.7802 H   0  0  0  0  0  0  0  0  0  0  0  0
   -9.6314   21.1488  -32.0566 H   0  0  0  0  0  0  0  0  0  0  0  0
   -8.6691   23.4482  -32.0738 H   0  0  0  0  0  0  0  0  0  0  0  0
   -5.1091   24.1615  -32.3967 H   0  0  0  0  0  0  0  0  0  0  0  0
   -6.7798   24.8370  -32.3187 H   0  0  0  0  0  0  0  0  0  0  0  0
   -6.6844   25.1798  -28.6284 H   0  0  0  0  0  0  0  0  0  0  0  0
   -6.9270   26.3635  -29.9575 H   0  0  0  0  0  0  0  0  0  0  0  0
   -7.8362   24.8143  -29.9575 H   0  0  0  0  0  0  0  0  0  0  0  0
   -3.8300   24.4024  -27.8635 H   0  0  0  0  0  0  0  0  0  0  0  0
   -5.2414   23.3190  -28.3506 H   0  0  0  0  0  0  0  0  0  0  0  0
   -3.7070   22.0330  -29.5830 H   0  0  0  0  0  0  0  0  0  0  0  0
   -3.1355   22.0959  -26.6877 H   0  0  0  0  0  0  0  0  0  0  0  0
   -4.5578   21.3408  -27.5008 H   0  0  0  0  0  0  0  0  0  0  0  0
   -2.5940   19.7709  -26.9213 H   0  0  0  0  0  0  0  0  0  0  0  0
   -3.1967   19.7345  -28.6241 H   0  0  0  0  0  0  0  0  0  0  0  0
   -0.3816   18.4814  -27.1098 H   0  0  0  0  0  0  0  0  0  0  0  0
    1.0573   16.7090  -28.1169 H   0  0  0  0  0  0  0  0  0  0  0  0
    1.7322   16.8582  -30.5150 H   0  0  0  0  0  0  0  0  0  0  0  0
    0.9650   18.7773  -31.9113 H   0  0  0  0  0  0  0  0  0  0  0  0
   -0.7701   22.4080  -27.3194 H   0  0  0  0  0  0  0  0  0  0  0  0
    0.0573   22.1389  -28.8960 H   0  0  0  0  0  0  0  0  0  0  0  0
   -1.7916   23.9851  -28.7453 H   0  0  0  0  0  0  0  0  0  0  0  0
   -1.8063   22.8084  -30.1420 H   0  0  0  0  0  0  0  0  0  0  0  0
  1  2  1  0
  2  3  1  0
  3  4  2  0
  4  5  1  0
  5  6  2  0
  6  7  1  0
  7  8  2  0
  8  9  1  0
  9 10  1  0
 10 11  1  0
 10 12  1  0
 12 13  2  0
 12 14  1  0
 14 15  1  0
 15 16  1  0
 16 17  1  0
 17 18  1  0
 18 19  1  0
 19 20  2  0
 20 21  1  0
 21 22  2  0
 22 23  1  0
 23 24  2  0
 24 25  1  0
 18 26  1  0
 26 27  1  0
  8  3  1  0
 27 15  1  0
 24 19  1  0
  1 28  1  0
  1 29  1  0
  1 30  1  0
  4 31  1  0
  5 32  1  0
  6 33  1  0
  7 34  1  0
  9 35  1  0
  9 36  1  0
 11 37  1  0
 11 38  1  0
 11 39  1  0
 14 40  1  0
 14 41  1  0
 15 42  1  0
 16 43  1  0
 16 44  1  0
 17 45  1  0
 17 46  1  0
 20 47  1  0
 21 48  1  0
 22 49  1  0
 23 50  1  0
 26 51  1  0
 26 52  1  0
 27 53  1  0
 27 54  1  0
M  CHG  1  15   1
M  END
>  <UniqueID>  (37) 
35

>  <SMILES>  (37) 
COc1ccccc1CN(C)C(=O)C[NH+]1CCN(c2ccccc2F)CC1

>  <Energy>  (37) 
69.28357020985766

>  <Genealogy>  (37) 
COc1ccccc1CN(C)C(=O)C[NH+]1CCN(c2ccccc2F)CC1 (protonated)
COc1ccccc1CN(C)C(=O)C[NH+]1CCN(c2ccccc2F)CC1 (3D coordinates assigned)
COc1ccccc1CN(C)C(=O)C[NH+]1CCN(c2ccccc2F)CC1 (nonaromatic ring conformer: 69.28357020985766 kcal/mol)

>  <smiles>  (37) 
COc1ccccc1CN(C)C(=O)CN1CCN(c2ccccc2F)CC1

>  <score_type>  (37) 
oracle

>  <origin>  (37) 
adg

>  <m_score__min__energy>  (37) 
-7.1100000000000003

>  <m_primary>  (37) 
energy

$$$$
37:0
     RDKit          3D

 29 30  0  0  0  0  0  0  0  0999 V2000
   -3.9340   18.1680  -33.8780 C   0  0  0  0  0  0  0  0  0  0  0  0
   -5.0080   19.0770  -33.3580 C   0  0  0  0  0  0  0  0  0  0  0  0
   -4.8790   20.4670  -33.4680 C   0  0  0  0  0  0  0  0  0  0  0  0
   -5.8750   21.2850  -33.0310 N   0  0  0  0  0  0  0  0  0  0  0  0
   -7.0270   20.7900  -32.4980 C   0  0  0  0  0  0  0  0  0  0  0  0
   -8.3130   21.9380  -31.9720 S   0  0  0  0  0  0  0  0  0  0  0  0
   -7.6240   22.2000  -30.2980 C   0  0  0  0  0  0  0  0  0  0  0  0
   -6.5120   23.2140  -30.3210 C   0  0  0  0  0  0  0  0  0  0  0  0
   -6.8190   24.5840  -30.2770 C   0  0  0  0  0  0  0  0  0  0  0  0
   -5.7990   25.5380  -30.3310 C   0  0  0  0  0  0  0  0  0  0  0  0
   -4.4660   25.1340  -30.4320 C   0  0  0  0  0  0  0  0  0  0  0  0
   -4.1490   23.7740  -30.4780 C   0  0  0  0  0  0  0  0  0  0  0  0
   -5.1650   22.8130  -30.4220 C   0  0  0  0  0  0  0  0  0  0  0  0
   -4.8330   21.4990  -30.4780 F   0  0  0  0  0  0  0  0  0  0  0  0
   -7.1960   19.4010  -32.3670 C   0  0  0  0  0  0  0  0  0  0  0  0
   -8.7680   18.6300  -31.5840 Br  0  0  0  0  0  0  0  0  0  0  0  0
   -6.1830   18.5490  -32.8120 C   0  0  0  0  0  0  0  0  0  0  0  0
   -3.3971   17.7136  -33.0323 H   0  0  0  0  0  0  0  0  0  0  0  0
   -4.3889   17.3764  -34.4915 H   0  0  0  0  0  0  0  0  0  0  0  0
   -3.2284   18.7475  -34.4915 H   0  0  0  0  0  0  0  0  0  0  0  0
   -3.9690   20.8995  -33.9094 H   0  0  0  0  0  0  0  0  0  0  0  0
   -5.7520   22.3180  -33.1230 H   0  0  0  0  0  0  0  0  0  0  0  0
   -8.4233   22.5587  -29.6329 H   0  0  0  0  0  0  0  0  0  0  0  0
   -7.2175   21.2446  -29.9346 H   0  0  0  0  0  0  0  0  0  0  0  0
   -7.8675   24.9076  -30.1997 H   0  0  0  0  0  0  0  0  0  0  0  0
   -6.0467   26.6091  -30.2939 H   0  0  0  0  0  0  0  0  0  0  0  0
   -3.6652   25.8869  -30.4754 H   0  0  0  0  0  0  0  0  0  0  0  0
   -3.0985   23.4578  -30.5584 H   0  0  0  0  0  0  0  0  0  0  0  0
   -6.3093   17.4591  -32.7330 H   0  0  0  0  0  0  0  0  0  0  0  0
  1  2  1  0
  2  3  2  0
  3  4  1  0
  4  5  2  0
  5  6  1  0
  6  7  1  0
  7  8  1  0
  8  9  2  0
  9 10  1  0
 10 11  2  0
 11 12  1  0
 12 13  2  0
 13 14  1  0
  5 15  1  0
 15 16  1  0
 15 17  2  0
 17  2  1  0
 13  8  1  0
  1 18  1  0
  1 19  1  0
  1 20  1  0
  3 21  1  0
  4 22  1  0
  7 23  1  0
  7 24  1  0
  9 25  1  0
 10 26  1  0
 11 27  1  0
 12 28  1  0
 17 29  1  0
M  CHG  1   4   1
M  END
>  <UniqueID>  (38) 
36

>  <SMILES>  (38) 
Cc1c[nH+]c(SCc2ccccc2F)c(Br)c1

>  <Energy>  (38) 
24.460180586072124

>  <Genealogy>  (38) 
Cc1c[nH+]c(SCc2ccccc2F)c(Br)c1 (protonated)
Cc1c[nH+]c(SCc2ccccc2F)c(Br)c1 (3D coordinates assigned)
Cc1c[nH+]c(SCc2ccccc2F)c(Br)c1 (optimized conformer: 24.460180586072124 kcal/mol)

>  <smiles>  (38) 
Cc1cnc(SCc2ccccc2F)c(Br)c1

>  <score_type>  (38) 
oracle

>  <origin>  (38) 
adg

>  <m_score__min__energy>  (38) 
-6.5700000000000003

>  <m_primary>  (38) 
energy

$$$$
38:0
     RDKit          3D

 54 57  0  0  1  0  0  0  0  0999 V2000
   -9.2200   22.2970  -31.6090 C   0  0  0  0  0  0  0  0  0  0  0  0
   -7.9690   22.3360  -30.7070 C   0  0  0  0  0  0  0  0  0  0  0  0
   -6.8530   22.3600  -31.5650 N   0  0  0  0  0  0  0  0  0  0  0  0
   -6.5350   23.7230  -31.9210 C   0  0  0  0  0  0  0  0  0  0  0  0
   -5.9870   24.5440  -30.7710 C   0  0  0  0  0  0  0  0  0  0  0  0
   -4.5600   24.6830  -30.9240 N   0  0  0  0  0  0  0  0  0  0  0  0
   -3.7840   23.7540  -30.4960 C   0  0  0  0  0  0  0  0  0  0  0  0
   -3.9410   22.4590  -30.7920 N   0  0  0  0  0  0  0  0  0  0  0  0
   -3.1100   21.4860  -30.3390 C   0  0  0  0  0  0  0  0  0  0  0  0
   -2.0680   21.8380  -29.5500 N   0  0  0  0  0  0  0  0  0  0  0  0
   -1.8910   23.1460  -29.2400 C   0  0  0  0  0  0  0  0  0  0  0  0
   -2.7300   24.1410  -29.6930 C   0  0  0  0  0  0  0  0  0  0  0  0
   -2.3360   25.3020  -29.2480 O   0  0  0  0  0  0  0  0  0  0  0  0
   -1.2620   25.1270  -28.5090 C   0  0  0  0  0  0  0  0  0  0  0  0
   -0.4260   25.9840  -27.7930 C   0  0  0  0  0  0  0  0  0  0  0  0
    0.6600   25.4570  -27.0970 C   0  0  0  0  0  0  0  0  0  0  0  0
    0.9540   24.1130  -27.0800 C   0  0  0  0  0  0  0  0  0  0  0  0
    0.1310   23.2710  -27.7850 C   0  0  0  0  0  0  0  0  0  0  0  0
   -0.9440   23.7720  -28.4780 C   0  0  0  0  0  0  0  0  0  0  0  0
   -6.8190   21.5690  -32.7230 C   0  0  0  0  0  0  0  0  0  0  0  0
   -6.7990   20.1010  -32.6390 C   0  0  0  0  0  0  0  0  0  0  0  0
   -8.1300   19.4120  -32.4730 C   0  0  0  0  0  0  0  0  0  0  0  0
   -7.8470   18.0160  -31.9610 C   0  0  0  0  0  0  0  0  0  0  0  0
   -6.8050   17.2750  -32.7390 C   0  0  0  0  0  0  0  0  0  0  0  0
   -5.5250   18.0560  -32.9570 C   0  0  0  0  0  0  0  0  0  0  0  0
   -5.9400   19.3770  -33.6420 C   0  0  0  0  0  0  0  0  0  0  0  0
  -10.1234   22.2688  -30.9820 H   0  0  0  0  0  0  0  0  0  0  0  0
   -9.2423   23.1949  -32.2441 H   0  0  0  0  0  0  0  0  0  0  0  0
   -9.1863   21.3995  -32.2441 H   0  0  0  0  0  0  0  0  0  0  0  0
   -7.9831   23.2382  -30.0778 H   0  0  0  0  0  0  0  0  0  0  0  0
   -7.9356   21.4632  -30.0383 H   0  0  0  0  0  0  0  0  0  0  0  0
   -5.7830   23.7053  -32.7236 H   0  0  0  0  0  0  0  0  0  0  0  0
   -7.4753   24.1996  -32.2352 H   0  0  0  0  0  0  0  0  0  0  0  0
   -6.4557   25.5391  -30.7735 H   0  0  0  0  0  0  0  0  0  0  0  0
   -6.2087   24.0397  -29.8189 H   0  0  0  0  0  0  0  0  0  0  0  0
   -4.7220   22.1500  -31.3870 H   0  0  0  0  0  0  0  0  0  0  0  0
   -3.2799   20.4329  -30.6076 H   0  0  0  0  0  0  0  0  0  0  0  0
   -0.6224   27.0662  -27.7780 H   0  0  0  0  0  0  0  0  0  0  0  0
    1.3103   26.1451  -26.5370 H   0  0  0  0  0  0  0  0  0  0  0  0
    1.8188   23.7267  -26.5206 H   0  0  0  0  0  0  0  0  0  0  0  0
    0.3331   22.1898  -27.7952 H   0  0  0  0  0  0  0  0  0  0  0  0
   -7.7100   21.8362  -33.3101 H   0  0  0  0  0  0  0  0  0  0  0  0
   -5.8292   21.7999  -33.1438 H   0  0  0  0  0  0  0  0  0  0  0  0
   -6.2846   20.0053  -31.6714 H   0  0  0  0  0  0  0  0  0  0  0  0
   -8.7513   19.9605  -31.7498 H   0  0  0  0  0  0  0  0  0  0  0  0
   -8.6744   19.3761  -33.4282 H   0  0  0  0  0  0  0  0  0  0  0  0
   -7.5077   18.0938  -30.9175 H   0  0  0  0  0  0  0  0  0  0  0  0
   -8.7824   17.4464  -32.0646 H   0  0  0  0  0  0  0  0  0  0  0  0
   -6.5581   16.3519  -32.1940 H   0  0  0  0  0  0  0  0  0  0  0  0
   -7.2310   17.0793  -33.7341 H   0  0  0  0  0  0  0  0  0  0  0  0
   -5.0354   18.2629  -31.9939 H   0  0  0  0  0  0  0  0  0  0  0  0
   -4.8099   17.4913  -33.5733 H   0  0  0  0  0  0  0  0  0  0  0  0
   -5.0517   19.9763  -33.8903 H   0  0  0  0  0  0  0  0  0  0  0  0
   -6.4790   19.1954  -34.5835 H   0  0  0  0  0  0  0  0  0  0  0  0
  1  2  1  0
  2  3  1  0
  3  4  1  0
  4  5  1  0
  5  6  1  0
  6  7  2  0
  7  8  1  0
  8  9  1  0
  9 10  2  0
 10 11  1  0
 11 12  2  0
 12 13  1  0
 13 14  1  0
 14 15  2  0
 15 16  1  0
 16 17  2  0
 17 18  1  0
 18 19  2  0
  3 20  1  0
 20 21  1  0
 21 22  1  0
 22 23  1  0
 23 24  1  0
 24 25  1  0
 25 26  1  0
 12  7  1  0
 19 14  1  0
 26 21  1  0
 19 11  1  0
  1 27  1  0
  1 28  1  0
  1 29  1  0
  2 30  1  0
  2 31  1  0
  4 32  1  0
  4 33  1  0
  5 34  1  0
  5 35  1  0
  8 36  1  0
  9 37  1  0
 15 38  1  0
 16 39  1  0
 17 40  1  0
 18 41  1  0
 20 42  1  0
 20 43  1  0
 21 44  1  0
 22 45  1  0
 22 46  1  0
 23 47  1  0
 23 48  1  0
 24 49  1  0
 24 50  1  0
 25 51  1  0
 25 52  1  0
 26 53  1  0
 26 54  1  0
M  END
>  <smiles>  (39) 
CCN(CCN=c1[nH]cnc2c1oc1ccccc12)CC1CCCCC1

>  <score_type>  (39) 
oracle

>  <origin>  (39) 
adg

>  <m_score__min__energy>  (39) 
-9.25

>  <m_primary>  (39) 
energy

$$$$
39:0
     RDKit          3D

 48 50  0  0  0  0  0  0  0  0999 V2000
   -2.6400   24.5350  -29.3330 C   0  0  0  0  0  0  0  0  0  0  0  0
   -3.5100   25.0110  -30.3540 O   0  0  0  0  0  0  0  0  0  0  0  0
   -4.7780   24.4770  -30.6280 C   0  0  0  0  0  0  0  0  0  0  0  0
   -4.8730   23.4250  -31.5460 C   0  0  0  0  0  0  0  0  0  0  0  0
   -6.1130   22.8570  -31.8510 C   0  0  0  0  0  0  0  0  0  0  0  0
   -7.2800   23.3300  -31.2310 C   0  0  0  0  0  0  0  0  0  0  0  0
   -8.6190   22.7420  -31.5870 C   0  0  0  0  0  0  0  0  0  0  0  0
   -8.7360   21.3110  -31.0570 C   0  0  0  0  0  0  0  0  0  0  0  0
   -7.6990   20.4650  -31.6430 N   0  0  0  0  0  0  0  0  0  0  0  0
   -7.9950   19.4340  -32.5980 C   0  0  0  0  0  0  0  0  0  0  0  0
   -9.1520   19.3420  -33.0890 O   0  0  0  0  0  0  0  0  0  0  0  0
   -6.9500   18.5080  -33.0640 C   0  0  0  0  0  0  0  0  0  0  0  0
   -7.1800   17.1980  -33.2990 N   0  0  0  0  0  0  0  0  0  0  0  0
   -5.9930   16.6970  -33.7170 C   0  0  0  0  0  0  0  0  0  0  0  0
   -5.8380   15.2370  -34.0850 C   0  0  0  0  0  0  0  0  0  0  0  0
   -7.1880   14.5650  -34.3590 C   0  0  0  0  0  0  0  0  0  0  0  0
   -5.0030   14.4680  -33.0570 C   0  0  0  0  0  0  0  0  0  0  0  0
   -5.0240   17.6470  -33.7380 N   0  0  0  0  0  0  0  0  0  0  0  0
   -3.7000   17.5870  -34.0580 C   0  0  0  0  0  0  0  0  0  0  0  0
   -2.9270   18.7490  -33.9330 C   0  0  0  0  0  0  0  0  0  0  0  0
   -3.5240   19.9330  -33.4710 C   0  0  0  0  0  0  0  0  0  0  0  0
   -4.8870   19.9580  -33.1500 C   0  0  0  0  0  0  0  0  0  0  0  0
   -5.6180   18.7790  -33.3220 C   0  0  0  0  0  0  0  0  0  0  0  0
   -7.1920   24.3930  -30.3210 C   0  0  0  0  0  0  0  0  0  0  0  0
   -5.9510   24.9610  -30.0150 C   0  0  0  0  0  0  0  0  0  0  0  0
   -3.0685   24.7695  -28.3474 H   0  0  0  0  0  0  0  0  0  0  0  0
   -2.5207   23.4459  -29.4313 H   0  0  0  0  0  0  0  0  0  0  0  0
   -1.6585   25.0218  -29.4313 H   0  0  0  0  0  0  0  0  0  0  0  0
   -3.9636   23.0417  -32.0319 H   0  0  0  0  0  0  0  0  0  0  0  0
   -6.1746   22.0357  -32.5801 H   0  0  0  0  0  0  0  0  0  0  0  0
   -9.4144   23.3584  -31.1427 H   0  0  0  0  0  0  0  0  0  0  0  0
   -8.7190   22.7242  -32.6823 H   0  0  0  0  0  0  0  0  0  0  0  0
   -8.6219   21.3191  -29.9630 H   0  0  0  0  0  0  0  0  0  0  0  0
   -9.7223   20.9083  -31.3309 H   0  0  0  0  0  0  0  0  0  0  0  0
   -6.7050   20.6620  -31.3920 H   0  0  0  0  0  0  0  0  0  0  0  0
   -5.2755   15.2062  -35.0298 H   0  0  0  0  0  0  0  0  0  0  0  0
   -7.6769   14.3216  -33.4042 H   0  0  0  0  0  0  0  0  0  0  0  0
   -7.8282   15.2496  -34.9347 H   0  0  0  0  0  0  0  0  0  0  0  0
   -7.0277   13.6415  -34.9347 H   0  0  0  0  0  0  0  0  0  0  0  0
   -5.3152   14.7555  -32.0422 H   0  0  0  0  0  0  0  0  0  0  0  0
   -5.1555   13.3874  -33.1952 H   0  0  0  0  0  0  0  0  0  0  0  0
   -3.9386   14.7087  -33.1952 H   0  0  0  0  0  0  0  0  0  0  0  0
   -3.2484   16.6466  -34.4068 H   0  0  0  0  0  0  0  0  0  0  0  0
   -1.8588   18.7338  -34.1952 H   0  0  0  0  0  0  0  0  0  0  0  0
   -2.9186   20.8448  -33.3607 H   0  0  0  0  0  0  0  0  0  0  0  0
   -5.3661   20.8745  -32.7752 H   0  0  0  0  0  0  0  0  0  0  0  0
   -8.1040   24.7824  -29.8451 H   0  0  0  0  0  0  0  0  0  0  0  0
   -5.8904   25.7887  -29.2931 H   0  0  0  0  0  0  0  0  0  0  0  0
  1  2  1  0
  2  3  1  0
  3  4  2  0
  4  5  1  0
  5  6  2  0
  6  7  1  0
  7  8  1  0
  8  9  1  0
  9 10  1  0
 10 11  2  0
 10 12  1  0
 12 13  1  0
 13 14  2  0
 14 15  1  0
 15 16  1  0
 15 17  1  0
 14 18  1  0
 18 19  1  0
 19 20  2  0
 20 21  1  0
 21 22  2  0
 22 23  1  0
  6 24  1  0
 24 25  2  0
 25  3  1  0
 23 12  2  0
 23 18  1  0
  1 26  1  0
  1 27  1  0
  1 28  1  0
  4 29  1  0
  5 30  1  0
  7 31  1  0
  7 32  1  0
  8 33  1  0
  8 34  1  0
  9 35  1  0
 15 36  1  0
 16 37  1  0
 16 38  1  0
 16 39  1  0
 17 40  1  0
 17 41  1  0
 17 42  1  0
 19 43  1  0
 20 44  1  0
 21 45  1  0
 22 46  1  0
 24 47  1  0
 25 48  1  0
M  END
>  <UniqueID>  (40) 
37

>  <SMILES>  (40) 
COc1ccc(CCNC(=O)c2nc(C(C)C)n3ccccc23)cc1

>  <Energy>  (40) 
81.1169574087425

>  <Genealogy>  (40) 
COc1ccc(CCNC(=O)c2nc(C(C)C)n3ccccc23)cc1 (3D coordinates assigned)
COc1ccc(CCNC(=O)c2nc(C(C)C)n3ccccc23)cc1 (optimized conformer: 81.1169574087425 kcal/mol)

>  <smiles>  (40) 
COc1ccc(CCNC(=O)c2nc(C(C)C)n3ccccc23)cc1

>  <score_type>  (40) 
oracle

>  <origin>  (40) 
adg

>  <m_score__min__energy>  (40) 
-8.6600000000000001

>  <m_primary>  (40) 
energy

$$$$
40:0
     RDKit          3D

 60 65  0  0  0  0  0  0  0  0999 V2000
    0.9330   23.8280  -25.2220 C   0  0  0  0  0  0  0  0  0  0  0  0
    1.3330   23.2200  -26.4320 O   0  0  0  0  0  0  0  0  0  0  0  0
    0.2060   22.8880  -27.2290 C   0  0  2  0  0  0  0  0  0  0  0  0
    0.1340   23.8430  -28.4270 C   0  0  0  0  0  0  0  0  0  0  0  0
   -1.1050   23.6160  -29.3210 C   0  0  0  0  0  0  0  0  0  0  0  0
   -2.3920   23.1040  -28.5740 C   0  0  1  0  0  0  0  0  0  0  0  0
   -2.3020   23.5380  -27.0810 C   0  0  0  0  0  0  0  0  0  0  0  0
   -1.0620   22.9860  -26.3510 C   0  0  0  0  0  0  0  0  0  0  0  0
   -3.6440   23.7800  -29.2240 C   0  0  0  0  0  0  0  0  0  0  0  0
   -4.1050   22.7900  -30.2290 C   0  0  0  0  0  0  0  0  0  0  0  0
   -5.0220   23.0070  -31.2570 C   0  0  0  0  0  0  0  0  0  0  0  0
   -5.4000   21.9260  -32.0660 C   0  0  0  0  0  0  0  0  0  0  0  0
   -4.8820   20.6320  -31.8280 C   0  0  0  0  0  0  0  0  0  0  0  0
   -5.2980   19.4850  -32.6750 C   0  0  0  0  0  0  0  0  0  0  0  0
   -6.6300   19.0320  -32.6580 C   0  0  0  0  0  0  0  0  0  0  0  0
   -7.0210   17.9540  -33.4570 C   0  0  0  0  0  0  0  0  0  0  0  0
   -6.0900   17.3160  -34.2790 C   0  0  0  0  0  0  0  0  0  0  0  0
   -4.7630   17.7550  -34.3050 C   0  0  0  0  0  0  0  0  0  0  0  0
   -3.5930   16.9500  -35.3340 Cl  0  0  0  0  0  0  0  0  0  0  0  0
   -4.3680   18.8350  -33.5070 C   0  0  0  0  0  0  0  0  0  0  0  0
   -3.9710   20.4430  -30.7660 C   0  0  0  0  0  0  0  0  0  0  0  0
   -3.5830   21.5440  -29.9940 C   0  0  0  0  0  0  0  0  0  0  0  0
   -2.7010   21.5530  -28.7910 C   0  0  2  0  0  0  0  0  0  0  0  0
   -3.4510   21.0000  -27.6510 N   0  0  0  0  0  0  0  0  0  0  0  0
   -2.8280   19.9970  -27.1240 C   0  0  0  0  0  0  0  0  0  0  0  0
   -3.3330   19.2640  -26.0070 N   0  0  0  0  0  0  0  0  0  0  0  0
   -1.6200   19.6870  -27.8560 C   0  0  0  0  0  0  0  0  0  0  0  0
   -0.7350   18.6180  -27.7180 C   0  0  0  0  0  0  0  0  0  0  0  0
    0.2520   18.4470  -28.6990 C   0  0  0  0  0  0  0  0  0  0  0  0
    0.2970   19.3040  -29.8150 C   0  0  0  0  0  0  0  0  0  0  0  0
   -0.6220   20.3580  -29.9410 C   0  0  0  0  0  0  0  0  0  0  0  0
   -1.5400   20.5800  -28.9030 C   0  0  0  0  0  0  0  0  0  0  0  0
    1.3176   23.2434  -24.3733 H   0  0  0  0  0  0  0  0  0  0  0  0
    1.3352   24.8507  -25.1751 H   0  0  0  0  0  0  0  0  0  0  0  0
   -0.1654   23.8635  -25.1751 H   0  0  0  0  0  0  0  0  0  0  0  0
    0.2881   21.8622  -27.6175 H   0  0  0  0  0  0  0  0  0  0  0  0
    0.1059   24.8754  -28.0483 H   0  0  0  0  0  0  0  0  0  0  0  0
    1.0213   23.6510  -29.0482 H   0  0  0  0  0  0  0  0  0  0  0  0
   -1.3523   24.5713  -29.8071 H   0  0  0  0  0  0  0  0  0  0  0  0
   -0.8274   22.8194  -30.0270 H   0  0  0  0  0  0  0  0  0  0  0  0
   -2.2692   24.6367  -27.0397 H   0  0  0  0  0  0  0  0  0  0  0  0
   -3.1857   23.1260  -26.5718 H   0  0  0  0  0  0  0  0  0  0  0  0
   -0.8409   23.6475  -25.5004 H   0  0  0  0  0  0  0  0  0  0  0  0
   -1.3104   21.9595  -26.0434 H   0  0  0  0  0  0  0  0  0  0  0  0
   -4.4240   23.9647  -28.4707 H   0  0  0  0  0  0  0  0  0  0  0  0
   -3.4134   24.7592  -29.6690 H   0  0  0  0  0  0  0  0  0  0  0  0
   -5.4415   24.0090  -31.4302 H   0  0  0  0  0  0  0  0  0  0  0  0
   -6.1064   22.0861  -32.8939 H   0  0  0  0  0  0  0  0  0  0  0  0
   -7.3682   19.5294  -32.0118 H   0  0  0  0  0  0  0  0  0  0  0  0
   -8.0648   17.6073  -33.4382 H   0  0  0  0  0  0  0  0  0  0  0  0
   -6.4008   16.4676  -34.9064 H   0  0  0  0  0  0  0  0  0  0  0  0
   -3.3231   19.1780  -33.5305 H   0  0  0  0  0  0  0  0  0  0  0  0
   -3.5708   19.4419  -30.5479 H   0  0  0  0  0  0  0  0  0  0  0  0
   -4.3740   21.3560  -27.3120 H   0  0  0  0  0  0  0  0  0  0  0  0
   -4.2310   19.5450  -25.5540 H   0  0  0  0  0  0  0  0  0  0  0  0
   -2.8090   18.4470  -25.6240 H   0  0  0  0  0  0  0  0  0  0  0  0
   -0.8092   17.9287  -26.8639 H   0  0  0  0  0  0  0  0  0  0  0  0
    0.9934   17.6409  -28.5964 H   0  0  0  0  0  0  0  0  0  0  0  0
    1.0576   19.1467  -30.5939 H   0  0  0  0  0  0  0  0  0  0  0  0
   -0.6224   20.9974  -30.8361 H   0  0  0  0  0  0  0  0  0  0  0  0
  1  2  1  0
  2  3  1  0
  3  4  1  0
  4  5  1  0
  6  5  1  6
  6  7  1  0
  7  8  1  0
  6  9  1  0
  9 10  1  0
 10 11  2  0
 11 12  1  0
 12 13  2  0
 13 14  1  0
 14 15  2  0
 15 16  1  0
 16 17  2  0
 17 18  1  0
 18 19  1  0
 18 20  2  0
 13 21  1  0
 21 22  2  0
 22 23  1  0
 23 24  1  1
 24 25  2  0
 25 26  1  0
 25 27  1  0
 27 28  2  0
 28 29  1  0
 29 30  2  0
 30 31  1  0
 31 32  2  0
  8  3  1  0
 22 10  1  0
 32 23  1  0
 23  6  1  0
 32 27  1  0
 20 14  1  0
  1 33  1  0
  1 34  1  0
  1 35  1  0
  3 36  1  6
  4 37  1  0
  4 38  1  0
  5 39  1  0
  5 40  1  0
  7 41  1  0
  7 42  1  0
  8 43  1  0
  8 44  1  0
  9 45  1  0
  9 46  1  0
 11 47  1  0
 12 48  1  0
 15 49  1  0
 16 50  1  0
 17 51  1  0
 20 52  1  0
 21 53  1  0
 24 54  1  0
 26 55  1  0
 26 56  1  0
 28 57  1  0
 29 58  1  0
 30 59  1  0
 31 60  1  0
M  CHG  1  24   1
M  END
>  <UniqueID>  (41) 
38

>  <SMILES>  (41) 
COC1CCC2(CC1)Cc1ccc(-c3cccc(Cl)c3)cc1[C@]21[NH+]=C(N)c2ccccc21

>  <Energy>  (41) 
121.38147263154285

>  <Genealogy>  (41) 
COC1CCC2(CC1)Cc1ccc(-c3cccc(Cl)c3)cc1C21[NH+]=C(N)c2ccccc21 (protonated)
COC1CCC2(CC1)Cc1ccc(-c3cccc(Cl)c3)cc1[C@]21[NH+]=C(N)c2ccccc21 (chirality)
COC1CCC2(CC1)Cc1ccc(-c3cccc(Cl)c3)cc1[C@]21[NH+]=C(N)c2ccccc21 (3D coordinates assigned)
COC1CCC2(CC1)Cc1ccc(-c3cccc(Cl)c3)cc1[C@]21[NH+]=C(N)c2ccccc21 (nonaromatic ring conformer: 121.38147263154285 kcal/mol)

>  <smiles>  (41) 
COC1CCC2(CC1)Cc1ccc(-c3cccc(Cl)c3)cc1C21N=C(N)c2ccccc21

>  <score_type>  (41) 
oracle

>  <origin>  (41) 
adg

>  <m_score__min__energy>  (41) 
-9.6199999999999992

>  <m_primary>  (41) 
energy

$$$$
41:0
     RDKit          3D

 54 57  0  0  0  0  0  0  0  0999 V2000
   -0.0730   23.4110  -24.9970 C   0  0  0  0  0  0  0  0  0  0  0  0
   -0.8270   23.8200  -26.2280 C   0  0  0  0  0  0  0  0  0  0  0  0
   -0.9360   25.1690  -26.5690 C   0  0  0  0  0  0  0  0  0  0  0  0
   -1.6110   25.5430  -27.7280 C   0  0  0  0  0  0  0  0  0  0  0  0
   -2.1930   24.5850  -28.5680 C   0  0  0  0  0  0  0  0  0  0  0  0
   -2.0240   23.2040  -28.2780 C   0  0  0  0  0  0  0  0  0  0  0  0
   -1.3420   22.8460  -27.0940 C   0  0  0  0  0  0  0  0  0  0  0  0
   -2.4150   22.1120  -29.2150 C   0  0  0  0  0  0  0  0  0  0  0  0
   -2.0810   20.9240  -28.9440 O   0  0  0  0  0  0  0  0  0  0  0  0
   -3.1070   22.3590  -30.4470 N   0  0  0  0  0  0  0  0  0  0  0  0
   -2.7660   21.5710  -31.6430 C   0  0  0  0  0  0  0  0  0  0  0  0
   -3.4160   20.1800  -31.5960 C   0  0  0  0  0  0  0  0  0  0  0  0
   -3.1370   19.3770  -32.8780 C   0  0  0  0  0  0  0  0  0  0  0  0
   -4.3560   19.2170  -33.7020 N   0  0  0  0  0  0  0  0  0  0  0  0
   -5.3010   20.3440  -33.4870 C   0  0  0  0  0  0  0  0  0  0  0  0
   -6.4220   19.9800  -32.5020 C   0  0  0  0  0  0  0  0  0  0  0  0
   -7.2450   18.8620  -33.0140 N   0  0  0  0  0  0  0  0  0  0  0  0
   -7.9350   18.1840  -31.9060 C   0  0  0  0  0  0  0  0  0  0  0  0
   -6.4820   17.8990  -33.8490 C   0  0  0  0  0  0  0  0  0  0  0  0
   -4.9850   17.8860  -33.4990 C   0  0  0  0  0  0  0  0  0  0  0  0
   -4.2590   23.2080  -30.4570 C   0  0  0  0  0  0  0  0  0  0  0  0
   -5.4960   22.7220  -30.9110 C   0  0  0  0  0  0  0  0  0  0  0  0
   -6.5920   23.5820  -31.0340 C   0  0  0  0  0  0  0  0  0  0  0  0
   -8.1290   22.9700  -31.6190 Cl  0  0  0  0  0  0  0  0  0  0  0  0
   -6.4550   24.9320  -30.7040 C   0  0  0  0  0  0  0  0  0  0  0  0
   -5.2300   25.4160  -30.2440 C   0  0  0  0  0  0  0  0  0  0  0  0
   -4.1340   24.5550  -30.1030 C   0  0  0  0  0  0  0  0  0  0  0  0
   -2.9260   25.0830  -29.6510 O   0  0  0  0  0  0  0  0  0  0  0  0
   -0.6367   23.7168  -24.1033 H   0  0  0  0  0  0  0  0  0  0  0  0
    0.0570   22.3187  -24.9926 H   0  0  0  0  0  0  0  0  0  0  0  0
    0.9135   23.8977  -24.9926 H   0  0  0  0  0  0  0  0  0  0  0  0
   -0.4883   25.9374  -25.9216 H   0  0  0  0  0  0  0  0  0  0  0  0
   -1.6885   26.6089  -27.9884 H   0  0  0  0  0  0  0  0  0  0  0  0
   -1.2126   21.7820  -26.8469 H   0  0  0  0  0  0  0  0  0  0  0  0
   -3.1224   22.1035  -32.5371 H   0  0  0  0  0  0  0  0  0  0  0  0
   -1.6739   21.4440  -31.6766 H   0  0  0  0  0  0  0  0  0  0  0  0
   -3.0130   19.6273  -30.7346 H   0  0  0  0  0  0  0  0  0  0  0  0
   -4.5041   20.3133  -31.5053 H   0  0  0  0  0  0  0  0  0  0  0  0
   -2.3740   19.9042  -33.4695 H   0  0  0  0  0  0  0  0  0  0  0  0
   -2.7880   18.3757  -32.5854 H   0  0  0  0  0  0  0  0  0  0  0  0
   -4.7428   21.2032  -33.0869 H   0  0  0  0  0  0  0  0  0  0  0  0
   -5.7659   20.5847  -34.4544 H   0  0  0  0  0  0  0  0  0  0  0  0
   -5.9736   19.6846  -31.5420 H   0  0  0  0  0  0  0  0  0  0  0  0
   -7.0710   20.8589  -32.3741 H   0  0  0  0  0  0  0  0  0  0  0  0
   -7.5498   18.5625  -30.9477 H   0  0  0  0  0  0  0  0  0  0  0  0
   -9.0151   18.3818  -31.9708 H   0  0  0  0  0  0  0  0  0  0  0  0
   -7.7561   17.1006  -31.9708 H   0  0  0  0  0  0  0  0  0  0  0  0
   -6.8917   16.8905  -33.6905 H   0  0  0  0  0  0  0  0  0  0  0  0
   -6.5806   18.2106  -34.8993 H   0  0  0  0  0  0  0  0  0  0  0  0
   -4.8690   17.5951  -32.4445 H   0  0  0  0  0  0  0  0  0  0  0  0
   -4.4855   17.1680  -34.1661 H   0  0  0  0  0  0  0  0  0  0  0  0
   -5.6034   21.6587  -31.1714 H   0  0  0  0  0  0  0  0  0  0  0  0
   -7.3124   25.6134  -30.8067 H   0  0  0  0  0  0  0  0  0  0  0  0
   -5.1240   26.4811  -29.9903 H   0  0  0  0  0  0  0  0  0  0  0  0
  1  2  1  0
  2  3  2  0
  3  4  1  0
  4  5  2  0
  5  6  1  0
  6  7  2  0
  6  8  1  0
  8  9  2  0
  8 10  1  0
 10 11  1  0
 11 12  1  0
 12 13  1  0
 13 14  1  0
 14 15  1  0
 15 16  1  0
 16 17  1  0
 17 18  1  0
 17 19  1  0
 19 20  1  0
 10 21  1  0
 21 22  2  0
 22 23  1  0
 23 24  1  0
 23 25  2  0
 25 26  1  0
 26 27  2  0
 27 28  1  0
  7  2  1  0
 20 14  1  0
 27 21  1  0
 28  5  1  0
  1 29  1  0
  1 30  1  0
  1 31  1  0
  3 32  1  0
  4 33  1  0
  7 34  1  0
 11 35  1  0
 11 36  1  0
 12 37  1  0
 12 38  1  0
 13 39  1  0
 13 40  1  0
 15 41  1  0
 15 42  1  0
 16 43  1  0
 16 44  1  0
 18 45  1  0
 18 46  1  0
 18 47  1  0
 19 48  1  0
 19 49  1  0
 20 50  1  0
 20 51  1  0
 22 52  1  0
 25 53  1  0
 26 54  1  0
M  END
>  <UniqueID>  (42) 
39

>  <SMILES>  (42) 
Cc1ccc2c(c1)C(=O)N(CCCN1CCN(C)CC1)c1cc(Cl)ccc1O2

>  <Energy>  (42) 
90.11314791133096

>  <Genealogy>  (42) 
Cc1ccc2c(c1)C(=O)N(CCCN1CCN(C)CC1)c1cc(Cl)ccc1O2 (3D coordinates assigned)
Cc1ccc2c(c1)C(=O)N(CCCN1CCN(C)CC1)c1cc(Cl)ccc1O2 (nonaromatic ring conformer: 90.11314791133096 kcal/mol)

>  <smiles>  (42) 
Cc1ccc2c(c1)C(=O)N(CCCN1CCN(C)CC1)c1cc(Cl)ccc1O2

>  <score_type>  (42) 
oracle

>  <origin>  (42) 
adg

>  <m_score__min__energy>  (42) 
-9.9299999999999997

>  <m_primary>  (42) 
energy

$$$$
42:0
     RDKit          3D

 53 56  0  0  0  0  0  0  0  0999 V2000
   -5.1940   13.1810  -34.6960 C   0  0  0  0  0  0  0  0  0  0  0  0
   -4.8240   13.9940  -33.4910 C   0  0  0  0  0  0  0  0  0  0  0  0
   -3.9670   13.5260  -32.6940 O   0  0  0  0  0  0  0  0  0  0  0  0
   -5.4380   15.3220  -33.2200 C   0  0  0  0  0  0  0  0  0  0  0  0
   -6.2060   15.9590  -34.2110 C   0  0  0  0  0  0  0  0  0  0  0  0
   -6.7870   17.2070  -33.9700 C   0  0  0  0  0  0  0  0  0  0  0  0
   -6.6250   17.8440  -32.7300 C   0  0  0  0  0  0  0  0  0  0  0  0
   -7.2160   19.1360  -32.4910 N   0  0  0  0  0  0  0  0  0  0  0  0
   -6.5320   20.4100  -32.6610 C   0  0  0  0  0  0  0  0  0  0  0  0
   -7.4400   21.4700  -31.9620 C   0  0  0  0  0  0  0  0  0  0  0  0
   -6.9730   21.6580  -30.4800 C   0  0  0  0  0  0  0  0  0  0  0  0
   -7.3510   23.0470  -29.9450 C   0  0  0  0  0  0  0  0  0  0  0  0
   -6.7440   24.1510  -30.7320 N   0  0  0  0  0  0  0  0  0  0  0  0
   -5.3390   24.8050  -29.9240 S   0  0  0  0  0  0  0  0  0  0  0  0
   -5.7660   25.6190  -28.7340 O   0  0  0  0  0  0  0  0  0  0  0  0
   -4.5760   25.6840  -30.8760 O   0  0  0  0  0  0  0  0  0  0  0  0
   -4.3080   23.4900  -29.3660 C   0  0  0  0  0  0  0  0  0  0  0  0
   -4.0810   23.2960  -27.9960 C   0  0  0  0  0  0  0  0  0  0  0  0
   -3.2610   22.2490  -27.5620 C   0  0  0  0  0  0  0  0  0  0  0  0
   -2.6700   21.3910  -28.4930 C   0  0  0  0  0  0  0  0  0  0  0  0
   -2.8980   21.5760  -29.8590 C   0  0  0  0  0  0  0  0  0  0  0  0
   -3.7180   22.6230  -30.2960 C   0  0  0  0  0  0  0  0  0  0  0  0
   -6.4000   23.7910  -32.1250 C   0  0  0  0  0  0  0  0  0  0  0  0
   -7.4350   22.8330  -32.7200 C   0  0  0  0  0  0  0  0  0  0  0  0
   -8.8570   20.8340  -31.9930 C   0  0  0  0  0  0  0  0  0  0  0  0
   -8.5720   19.3940  -32.1610 C   0  0  0  0  0  0  0  0  0  0  0  0
   -9.4570   18.4990  -32.1090 O   0  0  0  0  0  0  0  0  0  0  0  0
   -5.8470   17.2180  -31.7430 C   0  0  0  0  0  0  0  0  0  0  0  0
   -5.2640   15.9700  -31.9820 C   0  0  0  0  0  0  0  0  0  0  0  0
   -5.6296   12.2240  -34.3730 H   0  0  0  0  0  0  0  0  0  0  0  0
   -5.9294   13.7334  -35.2994 H   0  0  0  0  0  0  0  0  0  0  0  0
   -4.2944   12.9894  -35.2994 H   0  0  0  0  0  0  0  0  0  0  0  0
   -6.3509   15.4700  -35.1856 H   0  0  0  0  0  0  0  0  0  0  0  0
   -7.3770   17.6948  -34.7599 H   0  0  0  0  0  0  0  0  0  0  0  0
   -5.5406   20.3801  -32.1854 H   0  0  0  0  0  0  0  0  0  0  0  0
   -6.3720   20.6477  -33.7230 H   0  0  0  0  0  0  0  0  0  0  0  0
   -7.4520   20.8908  -29.8538 H   0  0  0  0  0  0  0  0  0  0  0  0
   -5.8778   21.5608  -30.4473 H   0  0  0  0  0  0  0  0  0  0  0  0
   -8.4455   23.1511  -29.9795 H   0  0  0  0  0  0  0  0  0  0  0  0
   -6.9665   23.1223  -28.9171 H   0  0  0  0  0  0  0  0  0  0  0  0
   -4.5484   23.9681  -27.2613 H   0  0  0  0  0  0  0  0  0  0  0  0
   -3.0814   22.1011  -26.4869 H   0  0  0  0  0  0  0  0  0  0  0  0
   -2.0245   20.5689  -28.1501 H   0  0  0  0  0  0  0  0  0  0  0  0
   -2.4332   20.8990  -30.5909 H   0  0  0  0  0  0  0  0  0  0  0  0
   -3.8997   22.7656  -31.3715 H   0  0  0  0  0  0  0  0  0  0  0  0
   -6.3660   24.7062  -32.7343 H   0  0  0  0  0  0  0  0  0  0  0  0
   -5.4209   23.2896  -32.1239 H   0  0  0  0  0  0  0  0  0  0  0  0
   -8.4327   23.2899  -32.6441 H   0  0  0  0  0  0  0  0  0  0  0  0
   -7.1740   22.6465  -33.7722 H   0  0  0  0  0  0  0  0  0  0  0  0
   -9.3958   21.0232  -31.0529 H   0  0  0  0  0  0  0  0  0  0  0  0
   -9.4987   21.2441  -32.7867 H   0  0  0  0  0  0  0  0  0  0  0  0
   -5.6948   17.7139  -30.7730 H   0  0  0  0  0  0  0  0  0  0  0  0
   -4.6636   15.4896  -31.1954 H   0  0  0  0  0  0  0  0  0  0  0  0
  1  2  1  0
  2  3  2  0
  2  4  1  0
  4  5  2  0
  5  6  1  0
  6  7  2  0
  7  8  1  0
  8  9  1  0
  9 10  1  0
 10 11  1  0
 11 12  1  0
 12 13  1  0
 13 14  1  0
 14 15  2  0
 14 16  2  0
 14 17  1  0
 17 18  2  0
 18 19  1  0
 19 20  2  0
 20 21  1  0
 21 22  2  0
 13 23  1  0
 23 24  1  0
 10 25  1  0
 25 26  1  0
 26 27  2  0
  7 28  1  0
 28 29  2  0
 29  4  1  0
 26  8  1  0
 24 10  1  0
 22 17  1  0
  1 30  1  0
  1 31  1  0
  1 32  1  0
  5 33  1  0
  6 34  1  0
  9 35  1  0
  9 36  1  0
 11 37  1  0
 11 38  1  0
 12 39  1  0
 12 40  1  0
 18 41  1  0
 19 42  1  0
 20 43  1  0
 21 44  1  0
 22 45  1  0
 23 46  1  0
 23 47  1  0
 24 48  1  0
 24 49  1  0
 25 50  1  0
 25 51  1  0
 28 52  1  0
 29 53  1  0
M  END
>  <UniqueID>  (43) 
40

>  <SMILES>  (43) 
CC(=O)c1ccc(N2CC3(CCN(S(=O)(=O)c4ccccc4)CC3)CC2=O)cc1

>  <Energy>  (43) 
78.20041426822556

>  <Genealogy>  (43) 
CC(=O)c1ccc(N2CC3(CCN(S(=O)(=O)c4ccccc4)CC3)CC2=O)cc1 (3D coordinates assigned)
CC(=O)c1ccc(N2CC3(CCN(S(=O)(=O)c4ccccc4)CC3)CC2=O)cc1 (nonaromatic ring conformer: 78.20041426822556 kcal/mol)

>  <smiles>  (43) 
CC(=O)c1ccc(N2CC3(CCN(S(=O)(=O)c4ccccc4)CC3)CC2=O)cc1

>  <score_type>  (43) 
oracle

>  <origin>  (43) 
adg

>  <m_score__min__energy>  (43) 
-10.92

>  <m_primary>  (43) 
energy

$$$$
43:0
     RDKit          3D

 42 44  0  0  0  0  0  0  0  0999 V2000
   -3.4650   26.0620  -29.7110 H   0  0  0  0  0  0  0  0  0  0  0  0
   -3.9600   25.6350  -30.4820 O   0  0  0  0  0  0  0  0  0  0  0  0
   -4.0560   24.2490  -30.6570 C   0  0  0  0  0  0  0  0  0  0  0  0
   -2.9560   23.3880  -30.3970 C   0  0  0  0  0  0  0  0  0  0  0  0
   -1.8180   23.8070  -29.6460 C   0  0  0  0  0  0  0  0  0  0  0  0
   -1.8040   25.0670  -29.0270 O   0  0  0  0  0  0  0  0  0  0  0  0
   -1.5330   25.3020  -27.6480 C   0  0  0  0  0  0  0  0  0  0  0  0
   -2.2216   24.7049  -27.0321 H   0  0  0  0  0  0  0  0  0  0  0  0
   -0.4957   25.0127  -27.4237 H   0  0  0  0  0  0  0  0  0  0  0  0
   -1.6725   26.3698  -27.4237 H   0  0  0  0  0  0  0  0  0  0  0  0
   -0.7350   22.9250  -29.4820 C   0  0  0  0  0  0  0  0  0  0  0  0
    0.1720   23.2687  -28.9632 H   0  0  0  0  0  0  0  0  0  0  0  0
   -0.7970   21.6260  -29.9670 C   0  0  0  0  0  0  0  0  0  0  0  0
    0.0603   20.9497  -29.8339 H   0  0  0  0  0  0  0  0  0  0  0  0
   -1.9380   21.1770  -30.6200 C   0  0  0  0  0  0  0  0  0  0  0  0
   -1.9940   20.1312  -30.9563 H   0  0  0  0  0  0  0  0  0  0  0  0
   -3.0260   22.0430  -30.8580 C   0  0  0  0  0  0  0  0  0  0  0  0
   -4.2020   21.5880  -31.5030 C   0  0  0  0  0  0  0  0  0  0  0  0
   -4.3160   20.2380  -32.1070 C   0  0  0  0  0  0  0  0  0  0  0  0
   -4.1117   20.1033  -33.1794 H   0  0  0  0  0  0  0  0  0  0  0  0
   -4.6540   19.2140  -31.3850 N   0  0  0  0  0  0  0  0  0  0  0  0
   -5.9010   18.4800  -31.5850 C   0  0  2  0  0  0  0  0  0  0  0  0
   -5.8956   17.6261  -30.8916 H   0  0  0  0  0  0  0  0  0  0  0  0
   -5.9990   17.9970  -33.0400 C   0  0  0  0  0  0  0  0  0  0  0  0
   -5.6757   18.7986  -33.7204 H   0  0  0  0  0  0  0  0  0  0  0  0
   -5.3509   17.1214  -33.1926 H   0  0  0  0  0  0  0  0  0  0  0  0
   -7.4530   17.6310  -33.3280 C   0  0  0  0  0  0  0  0  0  0  0  0
   -7.6896   17.7965  -34.3894 H   0  0  0  0  0  0  0  0  0  0  0  0
   -7.6596   16.5710  -33.1189 H   0  0  0  0  0  0  0  0  0  0  0  0
   -8.4120   18.7060  -32.3040 S   0  0  0  0  0  0  0  0  0  0  0  0
   -9.0850   19.7830  -33.1090 O   0  0  0  0  0  0  0  0  0  0  0  0
   -9.4170   17.9420  -31.4890 O   0  0  0  0  0  0  0  0  0  0  0  0
   -7.1190   19.3640  -31.2950 C   0  0  0  0  0  0  0  0  0  0  0  0
   -6.9112   20.4096  -31.5660 H   0  0  0  0  0  0  0  0  0  0  0  0
   -7.3861   19.3625  -30.2279 H   0  0  0  0  0  0  0  0  0  0  0  0
   -5.3120   22.4450  -31.5820 C   0  0  0  0  0  0  0  0  0  0  0  0
   -6.3820   22.0230  -32.1060 O   0  0  0  0  0  0  0  0  0  0  0  0
   -5.2340   23.7370  -31.1340 N   0  0  0  0  0  0  0  0  0  0  0  0
   -6.3930   24.6340  -31.2930 C   0  0  0  0  0  0  0  0  0  0  0  0
   -6.7697   24.9256  -30.3015 H   0  0  0  0  0  0  0  0  0  0  0  0
   -6.0873   25.5332  -31.8481 H   0  0  0  0  0  0  0  0  0  0  0  0
   -7.1868   24.1126  -31.8481 H   0  0  0  0  0  0  0  0  0  0  0  0
  1  2  1  0
  2  3  1  0
  3  4  2  0
  4  5  1  0
  5  6  1  0
  6  7  1  0
  7  8  1  0
  7  9  1  0
  7 10  1  0
  5 11  2  0
 11 12  1  0
 11 13  1  0
 13 14  1  0
 13 15  2  0
 15 16  1  0
 15 17  1  0
 17 18  2  0
 18 19  1  0
 19 20  1  0
 19 21  2  0
 21 22  1  0
 22 23  1  1
 22 24  1  0
 24 25  1  0
 24 26  1  0
 24 27  1  0
 27 28  1  0
 27 29  1  0
 27 30  1  0
 30 31  2  0
 30 32  2  0
 30 33  1  0
 33 34  1  0
 33 35  1  0
 18 36  1  0
 36 37  2  0
 36 38  1  0
 38 39  1  0
 39 40  1  0
 39 41  1  0
 39 42  1  0
 38  3  1  0
 17  4  1  0
 33 22  1  0
M  END
>  <UniqueID>  (44) 
41

>  <SMILES>  (44) 
COc1cccc2c(/C=N/[C@@H]3CCS(=O)(=O)C3)c(=O)n(C)c(O)c12

>  <Energy>  (44) 
62.60939819340273

>  <Genealogy>  (44) 
COc1cccc2c(C=N[C@@H]3CCS(=O)(=O)C3)c(=O)n(C)c(O)c12 (chirality)
COc1cccc2c(/C=N/[C@@H]3CCS(=O)(=O)C3)c(=O)n(C)c(O)c12 (cis-trans isomerization)
COc1cccc2c(/C=N/[C@@H]3CCS(=O)(=O)C3)c(=O)n(C)c(O)c12 (3D coordinates assigned)
COc1cccc2c(/C=N/[C@@H]3CCS(=O)(=O)C3)c(=O)n(C)c(O)c12 (nonaromatic ring conformer: 62.60939819340273 kcal/mol)

>  <smiles>  (44) 
COc1cccc2c(C=NC3CCS(=O)(=O)C3)c(=O)n(C)c(O)c12

>  <score_type>  (44) 
oracle

>  <origin>  (44) 
adg

>  <m_score__min__energy>  (44) 
-8.4499999999999993

>  <m_primary>  (44) 
energy

$$$$
44:0
     RDKit          3D

 46 46  0  0  0  0  0  0  0  0999 V2000
   -3.0060   19.6830  -33.7860 C   0  0  0  0  0  0  0  0  0  0  0  0
   -3.7150   20.8820  -33.1560 C   0  0  0  0  0  0  0  0  0  0  0  0
   -3.2630   21.0930  -31.7630 N   0  0  0  0  0  0  0  0  0  0  0  0
   -2.0270   20.3340  -31.4590 C   0  0  0  0  0  0  0  0  0  0  0  0
   -0.9920   21.2110  -30.7580 C   0  0  0  0  0  0  0  0  0  0  0  0
   -3.1910   22.5340  -31.4050 C   0  0  0  0  0  0  0  0  0  0  0  0
   -4.5060   23.1280  -30.9210 C   0  0  0  0  0  0  0  0  0  0  0  0
   -5.6750   22.3470  -30.9600 C   0  0  0  0  0  0  0  0  0  0  0  0
   -6.9000   22.8560  -30.4960 C   0  0  0  0  0  0  0  0  0  0  0  0
   -8.0730   22.0160  -30.4750 N   0  0  0  0  0  0  0  0  0  0  0  0
   -8.7900   22.1230  -31.7540 C   0  0  0  0  0  0  0  0  0  0  0  0
   -9.0660   20.7210  -32.3390 C   0  0  0  0  0  0  0  0  0  0  0  0
   -8.0490   19.7010  -31.9930 N   0  0  0  0  0  0  0  0  0  0  0  0
   -8.6330   18.3830  -31.7000 C   0  0  0  0  0  0  0  0  0  0  0  0
   -6.9750   19.5980  -32.9940 C   0  0  0  0  0  0  0  0  0  0  0  0
   -6.9530   24.1660  -29.9980 C   0  0  0  0  0  0  0  0  0  0  0  0
   -5.8080   24.9650  -29.9970 C   0  0  0  0  0  0  0  0  0  0  0  0
   -4.5920   24.4600  -30.4660 C   0  0  0  0  0  0  0  0  0  0  0  0
   -3.4840   25.2990  -30.4890 O   0  0  0  0  0  0  0  0  0  0  0  0
   -2.6184   19.0276  -32.9922 H   0  0  0  0  0  0  0  0  0  0  0  0
   -3.7178   19.1222  -34.4096 H   0  0  0  0  0  0  0  0  0  0  0  0
   -2.1716   20.0365  -34.4096 H   0  0  0  0  0  0  0  0  0  0  0  0
   -3.4924   21.7828  -33.7468 H   0  0  0  0  0  0  0  0  0  0  0  0
   -4.7971   20.6846  -33.1474 H   0  0  0  0  0  0  0  0  0  0  0  0
   -2.2795   19.4863  -30.8050 H   0  0  0  0  0  0  0  0  0  0  0  0
   -1.5958   19.9809  -32.4074 H   0  0  0  0  0  0  0  0  0  0  0  0
   -1.1067   21.1138  -29.6683 H   0  0  0  0  0  0  0  0  0  0  0  0
    0.0188   20.8902  -31.0504 H   0  0  0  0  0  0  0  0  0  0  0  0
   -1.1425   22.2607  -31.0504 H   0  0  0  0  0  0  0  0  0  0  0  0
   -2.4448   22.6530  -30.6056 H   0  0  0  0  0  0  0  0  0  0  0  0
   -2.9229   23.0732  -32.3256 H   0  0  0  0  0  0  0  0  0  0  0  0
   -5.6298   21.3231  -31.3594 H   0  0  0  0  0  0  0  0  0  0  0  0
   -8.7000   22.3120  -29.6900 H   0  0  0  0  0  0  0  0  0  0  0  0
   -7.7930   21.0210  -30.3080 H   0  0  0  0  0  0  0  0  0  0  0  0
   -9.7462   22.6415  -31.5905 H   0  0  0  0  0  0  0  0  0  0  0  0
   -8.1682   22.6882  -32.4639 H   0  0  0  0  0  0  0  0  0  0  0  0
  -10.0403   20.3768  -31.9618 H   0  0  0  0  0  0  0  0  0  0  0  0
   -9.0426   20.8281  -33.4335 H   0  0  0  0  0  0  0  0  0  0  0  0
   -8.6949   18.2433  -30.6107 H   0  0  0  0  0  0  0  0  0  0  0  0
   -9.6416   18.3239  -32.1351 H   0  0  0  0  0  0  0  0  0  0  0  0
   -7.9993   17.5962  -32.1351 H   0  0  0  0  0  0  0  0  0  0  0  0
   -6.0053   19.5050  -32.4831 H   0  0  0  0  0  0  0  0  0  0  0  0
   -7.1442   18.7120  -33.6235 H   0  0  0  0  0  0  0  0  0  0  0  0
   -6.9728   20.5001  -33.6235 H   0  0  0  0  0  0  0  0  0  0  0  0
   -7.9002   24.5655  -29.6067 H   0  0  0  0  0  0  0  0  0  0  0  0
   -5.8633   25.9986  -29.6247 H   0  0  0  0  0  0  0  0  0  0  0  0
  1  2  1  0
  2  3  1  0
  3  4  1  0
  4  5  1  0
  3  6  1  0
  6  7  1  0
  7  8  2  0
  8  9  1  0
  9 10  1  0
 10 11  1  0
 11 12  1  0
 12 13  1  0
 13 14  1  0
 13 15  1  0
  9 16  2  0
 16 17  1  0
 17 18  2  0
 18 19  1  0
 18  7  1  0
  1 20  1  0
  1 21  1  0
  1 22  1  0
  2 23  1  0
  2 24  1  0
  4 25  1  0
  4 26  1  0
  5 27  1  0
  5 28  1  0
  5 29  1  0
  6 30  1  0
  6 31  1  0
  8 32  1  0
 10 33  1  0
 10 34  1  0
 11 35  1  0
 11 36  1  0
 12 37  1  0
 12 38  1  0
 14 39  1  0
 14 40  1  0
 14 41  1  0
 15 42  1  0
 15 43  1  0
 15 44  1  0
 16 45  1  0
 17 46  1  0
M  CHG  2  10   1  19  -1
M  END
>  <UniqueID>  (45) 
42

>  <SMILES>  (45) 
CCN(CC)Cc1cc([NH2+]CCN(C)C)ccc1[O-]

>  <Energy>  (45) 
47.328150443254195

>  <Genealogy>  (45) 
CCN(CC)Cc1cc([NH2+]CCN(C)C)ccc1[O-] (protonated)
CCN(CC)Cc1cc([NH2+]CCN(C)C)ccc1[O-] (3D coordinates assigned)
CCN(CC)Cc1cc([NH2+]CCN(C)C)ccc1[O-] (optimized conformer: 47.328150443254195 kcal/mol)

>  <smiles>  (45) 
CCN(CC)Cc1cc(NCCN(C)C)ccc1O

>  <score_type>  (45) 
oracle

>  <origin>  (45) 
adg

>  <m_score__min__energy>  (45) 
-8.4100000000000001

>  <m_primary>  (45) 
energy

$$$$
45:0
     RDKit          3D

 43 45  0  0  0  0  0  0  0  0999 V2000
   -3.3410   19.2840  -33.8170 C   0  0  0  0  0  0  0  0  0  0  0  0
   -3.8530   20.5210  -33.1500 C   0  0  0  0  0  0  0  0  0  0  0  0
   -3.4470   21.7610  -33.4770 N   0  0  0  0  0  0  0  0  0  0  0  0
   -4.1330   22.6260  -32.7510 N   0  0  0  0  0  0  0  0  0  0  0  0
   -4.9430   21.8940  -31.9610 C   0  0  0  0  0  0  0  0  0  0  0  0
   -6.1790   22.6380  -30.8860 S   0  0  0  0  0  0  0  0  0  0  0  0
   -6.0460   24.3160  -31.5930 C   0  0  0  0  0  0  0  0  0  0  0  0
   -5.1840   25.2070  -30.7390 C   0  0  0  0  0  0  0  0  0  0  0  0
   -5.7170   26.1780  -30.1400 O   0  0  0  0  0  0  0  0  0  0  0  0
   -3.7920   24.9430  -30.5200 N   0  0  0  0  0  0  0  0  0  0  0  0
   -3.2510   23.8860  -29.7190 C   0  0  0  0  0  0  0  0  0  0  0  0
   -3.6840   23.7430  -28.3950 C   0  0  0  0  0  0  0  0  0  0  0  0
   -3.1580   22.7300  -27.5860 C   0  0  0  0  0  0  0  0  0  0  0  0
   -2.1790   21.8680  -28.0900 C   0  0  0  0  0  0  0  0  0  0  0  0
   -1.4600   20.4870  -26.9850 Br  0  0  0  0  0  0  0  0  0  0  0  0
   -1.7190   22.0270  -29.4010 C   0  0  0  0  0  0  0  0  0  0  0  0
   -2.2450   23.0380  -30.2120 C   0  0  0  0  0  0  0  0  0  0  0  0
   -4.7840   20.5660  -32.1680 N   0  0  0  0  0  0  0  0  0  0  0  0
   -5.5730   19.4660  -31.5940 C   0  0  0  0  0  0  0  0  0  0  0  0
   -6.7860   19.0760  -32.4680 C   0  0  1  0  0  0  0  0  0  0  0  0
   -7.9690   18.5580  -31.6600 C   0  0  0  0  0  0  0  0  0  0  0  0
   -8.8070   19.7820  -31.4690 C   0  0  0  0  0  0  0  0  0  0  0  0
   -8.4530   20.6220  -32.6790 C   0  0  0  0  0  0  0  0  0  0  0  0
   -7.2040   20.2130  -33.1920 O   0  0  0  0  0  0  0  0  0  0  0  0
   -3.0386   18.5534  -33.0522 H   0  0  0  0  0  0  0  0  0  0  0  0
   -4.1338   18.8509  -34.4446 H   0  0  0  0  0  0  0  0  0  0  0  0
   -2.4741   19.5379  -34.4446 H   0  0  0  0  0  0  0  0  0  0  0  0
   -2.7400   22.0210  -34.1990 H   0  0  0  0  0  0  0  0  0  0  0  0
   -5.6035   24.2467  -32.5977 H   0  0  0  0  0  0  0  0  0  0  0  0
   -7.0547   24.7524  -31.6391 H   0  0  0  0  0  0  0  0  0  0  0  0
   -4.4411   24.4302  -27.9892 H   0  0  0  0  0  0  0  0  0  0  0  0
   -3.5149   22.6115  -26.5523 H   0  0  0  0  0  0  0  0  0  0  0  0
   -0.9419   21.3556  -29.7952 H   0  0  0  0  0  0  0  0  0  0  0  0
   -1.8703   23.1694  -31.2378 H   0  0  0  0  0  0  0  0  0  0  0  0
   -4.9215   18.5864  -31.4852 H   0  0  0  0  0  0  0  0  0  0  0  0
   -5.9620   19.8099  -30.6242 H   0  0  0  0  0  0  0  0  0  0  0  0
   -6.4593   18.2606  -33.1301 H   0  0  0  0  0  0  0  0  0  0  0  0
   -8.5194   17.7847  -32.2160 H   0  0  0  0  0  0  0  0  0  0  0  0
   -7.6728   18.0831  -30.7131 H   0  0  0  0  0  0  0  0  0  0  0  0
   -9.8781   19.5316  -31.4599 H   0  0  0  0  0  0  0  0  0  0  0  0
   -8.6199   20.2936  -30.5134 H   0  0  0  0  0  0  0  0  0  0  0  0
   -9.2254   20.4942  -33.4517 H   0  0  0  0  0  0  0  0  0  0  0  0
   -8.3973   21.6804  -32.3845 H   0  0  0  0  0  0  0  0  0  0  0  0
  1  2  1  0
  2  3  2  0
  3  4  1  0
  4  5  2  0
  5  6  1  0
  6  7  1  0
  7  8  1  0
  8  9  2  0
  8 10  1  0
 10 11  1  0
 11 12  2  0
 12 13  1  0
 13 14  2  0
 14 15  1  0
 14 16  1  0
 16 17  2  0
  5 18  1  0
 18 19  1  0
 19 20  1  0
 20 21  1  0
 21 22  1  0
 22 23  1  0
 23 24  1  0
 18  2  1  0
 24 20  1  0
 17 11  1  0
  1 25  1  0
  1 26  1  0
  1 27  1  0
  3 28  1  0
  7 29  1  0
  7 30  1  0
 12 31  1  0
 13 32  1  0
 16 33  1  0
 17 34  1  0
 19 35  1  0
 19 36  1  0
 20 37  1  6
 21 38  1  0
 21 39  1  0
 22 40  1  0
 22 41  1  0
 23 42  1  0
 23 43  1  0
M  CHG  2   3   1  10  -1
M  END
>  <UniqueID>  (46) 
43

>  <SMILES>  (46) 
Cc1[nH+]nc(SCC(=O)[N-]c2ccc(Br)cc2)n1C[C@H]1CCCO1

>  <Energy>  (46) 
78.4958719136658

>  <Genealogy>  (46) 
Cc1[nH+]nc(SCC(=O)[N-]c2ccc(Br)cc2)n1CC1CCCO1 (protonated)
Cc1[nH+]nc(SCC(=O)[N-]c2ccc(Br)cc2)n1C[C@H]1CCCO1 (chirality)
Cc1[nH+]nc(SCC(=O)[N-]c2ccc(Br)cc2)n1C[C@H]1CCCO1 (3D coordinates assigned)
Cc1[nH+]nc(SCC(=O)[N-]c2ccc(Br)cc2)n1C[C@H]1CCCO1 (nonaromatic ring conformer: 78.4958719136658 kcal/mol)

>  <smiles>  (46) 
Cc1nnc(SCC(=O)Nc2ccc(Br)cc2)n1CC1CCCO1

>  <score_type>  (46) 
oracle

>  <origin>  (46) 
adg

>  <m_score__min__energy>  (46) 
-10.57

>  <m_primary>  (46) 
energy

$$$$
46:0
     RDKit          3D

 41 42  0  0  0  0  0  0  0  0999 V2000
   -3.4830   15.7640  -35.2850 C   0  0  0  0  0  0  0  0  0  0  0  0
   -4.3010   16.5450  -34.3430 N   0  0  0  0  0  0  0  0  0  0  0  0
   -5.3130   15.6980  -33.6870 C   0  0  0  0  0  0  0  0  0  0  0  0
   -3.4900   17.3360  -33.3830 C   0  0  0  0  0  0  0  0  0  0  0  0
   -3.3000   18.8360  -33.7200 C   0  0  0  0  0  0  0  0  0  0  0  0
   -4.5030   19.6480  -33.4740 N   0  0  0  0  0  0  0  0  0  0  0  0
   -4.5320   20.5510  -32.3200 C   0  0  0  0  0  0  0  0  0  0  0  0
   -5.5650   21.6540  -32.5500 C   0  0  0  0  0  0  0  0  0  0  0  0
   -6.9950   21.0840  -32.6990 C   0  0  2  0  0  0  0  0  0  0  0  0
   -7.7050   21.0370  -31.3260 C   0  0  0  0  0  0  0  0  0  0  0  0
   -9.0580   20.3290  -31.4380 C   0  0  0  0  0  0  0  0  0  0  0  0
   -8.9260   18.8740  -31.9330 C   0  0  0  0  0  0  0  0  0  0  0  0
   -7.5610   18.5620  -32.5720 C   0  0  0  0  0  0  0  0  0  0  0  0
   -7.0670   19.7150  -33.4680 C   0  0  2  0  0  0  0  0  0  0  0  0
   -5.7570   19.3060  -34.0980 C   0  0  0  0  0  0  0  0  0  0  0  0
   -5.7790   18.5840  -35.1320 O   0  0  0  0  0  0  0  0  0  0  0  0
   -2.7992   15.1111  -34.7228 H   0  0  0  0  0  0  0  0  0  0  0  0
   -4.1395   15.1490  -35.9181 H   0  0  0  0  0  0  0  0  0  0  0  0
   -2.8990   16.4482  -35.9181 H   0  0  0  0  0  0  0  0  0  0  0  0
   -4.8280   17.2450  -34.9200 H   0  0  0  0  0  0  0  0  0  0  0  0
   -5.2108   15.7836  -32.5951 H   0  0  0  0  0  0  0  0  0  0  0  0
   -6.3182   16.0279  -33.9881 H   0  0  0  0  0  0  0  0  0  0  0  0
   -5.1653   14.6504  -33.9881 H   0  0  0  0  0  0  0  0  0  0  0  0
   -3.9783   17.2725  -32.3994 H   0  0  0  0  0  0  0  0  0  0  0  0
   -2.4820   16.8969  -33.4181 H   0  0  0  0  0  0  0  0  0  0  0  0
   -2.4804   19.2310  -33.1018 H   0  0  0  0  0  0  0  0  0  0  0  0
   -3.0787   18.9014  -34.7955 H   0  0  0  0  0  0  0  0  0  0  0  0
   -4.8006   19.9818  -31.4178 H   0  0  0  0  0  0  0  0  0  0  0  0
   -3.5388   21.0056  -32.1901 H   0  0  0  0  0  0  0  0  0  0  0  0
   -5.5448   22.3441  -31.6936 H   0  0  0  0  0  0  0  0  0  0  0  0
   -5.3063   22.1734  -33.4845 H   0  0  0  0  0  0  0  0  0  0  0  0
   -7.5448   21.7820  -33.3474 H   0  0  0  0  0  0  0  0  0  0  0  0
   -7.0711   20.4926  -30.6106 H   0  0  0  0  0  0  0  0  0  0  0  0
   -7.8737   22.0677  -30.9806 H   0  0  0  0  0  0  0  0  0  0  0  0
   -9.5353   20.3222  -30.4470 H   0  0  0  0  0  0  0  0  0  0  0  0
   -9.6620   20.8785  -32.1750 H   0  0  0  0  0  0  0  0  0  0  0  0
   -9.0706   18.2004  -31.0754 H   0  0  0  0  0  0  0  0  0  0  0  0
   -9.6881   18.7281  -32.7127 H   0  0  0  0  0  0  0  0  0  0  0  0
   -6.8247   18.3928  -31.7725 H   0  0  0  0  0  0  0  0  0  0  0  0
   -7.6766   17.6674  -33.2016 H   0  0  0  0  0  0  0  0  0  0  0  0
   -7.7961   19.8968  -34.2714 H   0  0  0  0  0  0  0  0  0  0  0  0
  1  2  1  0
  2  3  1  0
  2  4  1  0
  4  5  1  0
  5  6  1  0
  6  7  1  0
  7  8  1  0
  8  9  1  0
  9 10  1  0
 10 11  1  0
 11 12  1  0
 12 13  1  0
 13 14  1  0
 14 15  1  0
 15 16  2  0
 15  6  1  0
 14  9  1  0
  1 17  1  0
  1 18  1  0
  1 19  1  0
  2 20  1  0
  3 21  1  0
  3 22  1  0
  3 23  1  0
  4 24  1  0
  4 25  1  0
  5 26  1  0
  5 27  1  0
  7 28  1  0
  7 29  1  0
  8 30  1  0
  8 31  1  0
  9 32  1  6
 10 33  1  0
 10 34  1  0
 11 35  1  0
 11 36  1  0
 12 37  1  0
 12 38  1  0
 13 39  1  0
 13 40  1  0
 14 41  1  6
M  CHG  1   2   1
M  END
>  <UniqueID>  (47) 
44

>  <SMILES>  (47) 
C[NH+](C)CCN1CC[C@@H]2CCCC[C@@H]2C1=O

>  <Energy>  (47) 
46.66418949419588

>  <Genealogy>  (47) 
C[NH+](C)CCN1CCC2CCCCC2C1=O (protonated)
C[NH+](C)CCN1CC[C@@H]2CCCC[C@@H]2C1=O (chirality)
C[NH+](C)CCN1CC[C@@H]2CCCC[C@@H]2C1=O (3D coordinates assigned)
C[NH+](C)CCN1CC[C@@H]2CCCC[C@@H]2C1=O (nonaromatic ring conformer: 46.66418949419588 kcal/mol)

>  <smiles>  (47) 
CN(C)CCN1CCC2CCCCC2C1=O

>  <score_type>  (47) 
oracle

>  <origin>  (47) 
adg

>  <m_score__min__energy>  (47) 
-5.2599999999999998

>  <m_primary>  (47) 
energy

$$$$
47:0
     RDKit          3D

 45 46  0  0  0  0  0  0  0  0999 V2000
   -3.0430   24.0930  -29.1010 C   0  0  0  0  0  0  0  0  0  0  0  0
   -3.6110   24.5380  -30.4450 C   0  0  0  0  0  0  0  0  0  0  0  0
   -4.4720   23.4770  -31.0180 N   0  0  0  0  0  0  0  0  0  0  0  0
   -5.5840   23.1410  -30.0980 C   0  0  0  0  0  0  0  0  0  0  0  0
   -6.4170   24.3850  -29.8010 C   0  0  0  0  0  0  0  0  0  0  0  0
   -3.6810   22.2730  -31.3600 C   0  0  0  0  0  0  0  0  0  0  0  0
   -4.5870   21.2060  -31.9950 C   0  0  0  0  0  0  0  0  0  0  0  0
   -5.5470   21.7860  -32.9490 N   0  0  0  0  0  0  0  0  0  0  0  0
   -6.9190   21.5000  -32.5790 C   0  0  0  0  0  0  0  0  0  0  0  0
   -7.7530   22.5630  -32.1820 C   0  0  0  0  0  0  0  0  0  0  0  0
   -9.0980   22.3460  -31.8840 C   0  0  0  0  0  0  0  0  0  0  0  0
   -9.6370   21.0640  -31.9810 C   0  0  0  0  0  0  0  0  0  0  0  0
   -8.8300   19.9930  -32.3660 C   0  0  0  0  0  0  0  0  0  0  0  0
   -7.4700   20.1900  -32.6580 C   0  0  0  0  0  0  0  0  0  0  0  0
   -6.6640   19.0100  -33.0380 C   0  0  0  0  0  0  0  0  0  0  0  0
   -6.5000   17.9410  -32.1430 C   0  0  0  0  0  0  0  0  0  0  0  0
   -5.7520   16.8200  -32.5140 C   0  0  0  0  0  0  0  0  0  0  0  0
   -5.1770   16.7520  -33.7860 C   0  0  0  0  0  0  0  0  0  0  0  0
   -5.3540   17.8030  -34.6910 C   0  0  0  0  0  0  0  0  0  0  0  0
   -6.1030   18.9250  -34.3230 C   0  0  0  0  0  0  0  0  0  0  0  0
   -3.6257   24.5496  -28.2874 H   0  0  0  0  0  0  0  0  0  0  0  0
   -3.1007   22.9973  -29.0232 H   0  0  0  0  0  0  0  0  0  0  0  0
   -1.9929   24.4113  -29.0232 H   0  0  0  0  0  0  0  0  0  0  0  0
   -4.2074   25.4511  -30.3021 H   0  0  0  0  0  0  0  0  0  0  0  0
   -2.7788   24.7349  -31.1368 H   0  0  0  0  0  0  0  0  0  0  0  0
   -6.2241   22.3782  -30.5652 H   0  0  0  0  0  0  0  0  0  0  0  0
   -5.1664   22.7555  -29.1562 H   0  0  0  0  0  0  0  0  0  0  0  0
   -6.5048   24.5162  -28.7124 H   0  0  0  0  0  0  0  0  0  0  0  0
   -5.9270   25.2674  -30.2383 H   0  0  0  0  0  0  0  0  0  0  0  0
   -7.4195   24.2680  -30.2383 H   0  0  0  0  0  0  0  0  0  0  0  0
   -2.8895   22.5485  -32.0725 H   0  0  0  0  0  0  0  0  0  0  0  0
   -3.2339   21.8643  -30.4418 H   0  0  0  0  0  0  0  0  0  0  0  0
   -3.9570   20.4770  -32.5257 H   0  0  0  0  0  0  0  0  0  0  0  0
   -5.1611   20.7274  -31.1879 H   0  0  0  0  0  0  0  0  0  0  0  0
   -5.3650   22.8090  -33.0490 H   0  0  0  0  0  0  0  0  0  0  0  0
   -5.3660   21.3670  -33.8920 H   0  0  0  0  0  0  0  0  0  0  0  0
   -7.3377   23.5788  -32.1059 H   0  0  0  0  0  0  0  0  0  0  0  0
   -9.7343   23.1873  -31.5721 H   0  0  0  0  0  0  0  0  0  0  0  0
  -10.7002   20.8966  -31.7537 H   0  0  0  0  0  0  0  0  0  0  0  0
   -9.2628   18.9846  -32.4416 H   0  0  0  0  0  0  0  0  0  0  0  0
   -6.9620   17.9857  -31.1457 H   0  0  0  0  0  0  0  0  0  0  0  0
   -5.6158   15.9907  -31.8043 H   0  0  0  0  0  0  0  0  0  0  0  0
   -4.5849   15.8712  -34.0753 H   0  0  0  0  0  0  0  0  0  0  0  0
   -4.9038   17.7472  -35.6931 H   0  0  0  0  0  0  0  0  0  0  0  0
   -6.2534   19.7437  -35.0421 H   0  0  0  0  0  0  0  0  0  0  0  0
  1  2  1  0
  2  3  1  0
  3  4  1  0
  4  5  1  0
  3  6  1  0
  6  7  1  0
  7  8  1  0
  8  9  1  0
  9 10  2  0
 10 11  1  0
 11 12  2  0
 12 13  1  0
 13 14  2  0
 14 15  1  0
 15 16  2  0
 16 17  1  0
 17 18  2  0
 18 19  1  0
 19 20  2  0
 14  9  1  0
 20 15  1  0
  1 21  1  0
  1 22  1  0
  1 23  1  0
  2 24  1  0
  2 25  1  0
  4 26  1  0
  4 27  1  0
  5 28  1  0
  5 29  1  0
  5 30  1  0
  6 31  1  0
  6 32  1  0
  7 33  1  0
  7 34  1  0
  8 35  1  0
  8 36  1  0
 10 37  1  0
 11 38  1  0
 12 39  1  0
 13 40  1  0
 16 41  1  0
 17 42  1  0
 18 43  1  0
 19 44  1  0
 20 45  1  0
M  CHG  1   8   1
M  END
>  <UniqueID>  (48) 
45

>  <SMILES>  (48) 
CCN(CC)CC[NH2+]c1ccccc1-c1ccccc1

>  <Energy>  (48) 
51.03708704179555

>  <Genealogy>  (48) 
CCN(CC)CC[NH2+]c1ccccc1-c1ccccc1 (protonated)
CCN(CC)CC[NH2+]c1ccccc1-c1ccccc1 (3D coordinates assigned)
CCN(CC)CC[NH2+]c1ccccc1-c1ccccc1 (optimized conformer: 51.03708704179555 kcal/mol)

>  <smiles>  (48) 
CCN(CC)CCNc1ccccc1-c1ccccc1

>  <score_type>  (48) 
oracle

>  <origin>  (48) 
adg

>  <m_score__min__energy>  (48) 
-7.6299999999999999

>  <m_primary>  (48) 
energy

$$$$
48:0
     RDKit          3D

 38 39  0  0  0  0  0  0  0  0999 V2000
   -1.9580   24.0580  -28.2760 C   0  0  0  0  0  0  0  0  0  0  0  0
   -1.7950   23.4910  -29.6830 C   0  0  0  0  0  0  0  0  0  0  0  0
   -3.0970   23.0950  -30.2380 N   0  0  0  0  0  0  0  0  0  0  0  0
   -3.2630   21.7410  -30.7860 C   0  0  0  0  0  0  0  0  0  0  0  0
   -3.3990   21.7830  -32.3040 C   0  0  0  0  0  0  0  0  0  0  0  0
   -4.1570   24.0710  -30.3260 C   0  0  0  0  0  0  0  0  0  0  0  0
   -3.8690   25.2890  -30.4840 O   0  0  0  0  0  0  0  0  0  0  0  0
   -5.6010   23.6950  -30.1420 C   0  0  0  0  0  0  0  0  0  0  0  0
   -6.5840   24.2310  -31.5840 S   0  0  0  0  0  0  0  0  0  0  0  0
   -7.2980   22.6170  -31.8880 C   0  0  0  0  0  0  0  0  0  0  0  0
   -6.6300   21.5710  -32.4170 N   0  0  0  0  0  0  0  0  0  0  0  0
   -7.4280   20.4620  -32.5310 C   0  0  0  0  0  0  0  0  0  0  0  0
   -6.8950   19.1860  -33.0700 C   0  0  0  0  0  0  0  0  0  0  0  0
   -5.9440   19.1690  -34.1080 C   0  0  0  0  0  0  0  0  0  0  0  0
   -5.4520   17.9560  -34.6000 C   0  0  0  0  0  0  0  0  0  0  0  0
   -5.8990   16.7470  -34.0610 C   0  0  0  0  0  0  0  0  0  0  0  0
   -5.4210   15.5730  -34.5400 F   0  0  0  0  0  0  0  0  0  0  0  0
   -6.8380   16.7500  -33.0270 C   0  0  0  0  0  0  0  0  0  0  0  0
   -7.3320   17.9610  -32.5310 C   0  0  0  0  0  0  0  0  0  0  0  0
   -8.7150   20.6030  -32.1050 N   0  0  0  0  0  0  0  0  0  0  0  0
   -8.8640   22.1660  -31.5660 S   0  0  0  0  0  0  0  0  0  0  0  0
   -1.7329   23.2751  -27.5368 H   0  0  0  0  0  0  0  0  0  0  0  0
   -1.2661   24.9020  -28.1384 H   0  0  0  0  0  0  0  0  0  0  0  0
   -2.9925   24.4057  -28.1384 H   0  0  0  0  0  0  0  0  0  0  0  0
   -1.3443   24.2571  -30.3310 H   0  0  0  0  0  0  0  0  0  0  0  0
   -1.1471   22.6034  -29.6335 H   0  0  0  0  0  0  0  0  0  0  0  0
   -2.3851   21.1342  -30.5194 H   0  0  0  0  0  0  0  0  0  0  0  0
   -4.1772   21.2995  -30.3627 H   0  0  0  0  0  0  0  0  0  0  0  0
   -4.4183   22.0978  -32.5722 H   0  0  0  0  0  0  0  0  0  0  0  0
   -2.6734   22.4989  -32.7175 H   0  0  0  0  0  0  0  0  0  0  0  0
   -3.2034   20.7826  -32.7175 H   0  0  0  0  0  0  0  0  0  0  0  0
   -5.6808   22.6032  -30.0340 H   0  0  0  0  0  0  0  0  0  0  0  0
   -5.9881   24.1921  -29.2403 H   0  0  0  0  0  0  0  0  0  0  0  0
   -5.5853   20.1171  -34.5352 H   0  0  0  0  0  0  0  0  0  0  0  0
   -4.7113   17.9537  -35.4133 H   0  0  0  0  0  0  0  0  0  0  0  0
   -7.1897   15.7983  -32.6020 H   0  0  0  0  0  0  0  0  0  0  0  0
   -8.0678   17.9562  -31.7133 H   0  0  0  0  0  0  0  0  0  0  0  0
   -9.4660   19.8780  -32.0790 H   0  0  0  0  0  0  0  0  0  0  0  0
  1  2  1  0
  2  3  1  0
  3  4  1  0
  4  5  1  0
  3  6  1  0
  6  7  2  0
  6  8  1  0
  8  9  1  0
  9 10  1  0
 10 11  2  0
 11 12  1  0
 12 13  1  0
 13 14  2  0
 14 15  1  0
 15 16  2  0
 16 17  1  0
 16 18  1  0
 18 19  2  0
 12 20  2  0
 20 21  1  0
 21 10  1  0
 19 13  1  0
  1 22  1  0
  1 23  1  0
  1 24  1  0
  2 25  1  0
  2 26  1  0
  4 27  1  0
  4 28  1  0
  5 29  1  0
  5 30  1  0
  5 31  1  0
  8 32  1  0
  8 33  1  0
 14 34  1  0
 15 35  1  0
 18 36  1  0
 19 37  1  0
 20 38  1  0
M  CHG  1  20   1
M  END
>  <UniqueID>  (49) 
46

>  <SMILES>  (49) 
CCN(CC)C(=O)CSc1nc(-c2ccc(F)cc2)[nH+]s1

>  <Energy>  (49) 
67.437490340807

>  <Genealogy>  (49) 
CCN(CC)C(=O)CSc1nc(-c2ccc(F)cc2)[nH+]s1 (protonated)
CCN(CC)C(=O)CSc1nc(-c2ccc(F)cc2)[nH+]s1 (3D coordinates assigned)
CCN(CC)C(=O)CSc1nc(-c2ccc(F)cc2)[nH+]s1 (optimized conformer: 67.437490340807 kcal/mol)

>  <smiles>  (49) 
CCN(CC)C(=O)CSc1nc(-c2ccc(F)cc2)ns1

>  <score_type>  (49) 
oracle

>  <origin>  (49) 
adg

>  <m_score__min__energy>  (49) 
-7.6399999999999997

>  <m_primary>  (49) 
energy

$$$$
