0:0
     RDKit          3D

 53 56  0  0  0  0  0  0  0  0999 V2000
   -6.8430   25.3000  -29.7380 C   0  0  0  0  0  0  0  0  0  0  0  0
   -5.5980   25.7610  -30.5040 C   0  0  0  0  0  0  0  0  0  0  0  0
   -4.6280   24.8240  -30.2440 O   0  0  0  0  0  0  0  0  0  0  0  0
   -4.5520   24.3790  -28.9600 C   0  0  0  0  0  0  0  0  0  0  0  0
   -3.1620   24.5520  -28.3500 C   0  0  0  0  0  0  0  0  0  0  0  0
   -2.2280   24.8430  -29.3120 O   0  0  0  0  0  0  0  0  0  0  0  0
   -1.2640   23.8720  -29.5060 C   0  0  0  0  0  0  0  0  0  0  0  0
   -1.7580   22.6310  -30.2040 C   0  0  0  0  0  0  0  0  0  0  0  0
   -2.7940   22.9110  -31.1770 N   0  0  0  0  0  0  0  0  0  0  0  0
   -3.4810   21.9020  -31.9000 C   0  0  0  0  0  0  0  0  0  0  0  0
   -2.7650   21.0230  -32.7100 C   0  0  0  0  0  0  0  0  0  0  0  0
   -1.4030   21.2090  -32.7440 C   0  0  0  0  0  0  0  0  0  0  0  0
   -0.6320   20.3830  -33.5190 C   0  0  0  0  0  0  0  0  0  0  0  0
   -1.2310   19.3960  -34.2410 C   0  0  0  0  0  0  0  0  0  0  0  0
   -2.6060   19.2160  -34.2000 C   0  0  0  0  0  0  0  0  0  0  0  0
   -3.4240   20.0400  -33.4200 C   0  0  0  0  0  0  0  0  0  0  0  0
   -4.7540   19.8580  -33.3860 N   0  0  0  0  0  0  0  0  0  0  0  0
   -5.4310   18.8270  -34.1270 C   0  0  0  0  0  0  0  0  0  0  0  0
   -5.4710   20.7020  -32.6060 C   0  0  0  0  0  0  0  0  0  0  0  0
   -4.8440   21.7150  -31.8680 C   0  0  0  0  0  0  0  0  0  0  0  0
   -5.7710   22.3990  -31.1930 N   0  0  0  0  0  0  0  0  0  0  0  0
   -6.9960   21.9100  -31.4280 C   0  0  0  0  0  0  0  0  0  0  0  0
   -8.2470   22.2870  -30.9600 C   0  0  0  0  0  0  0  0  0  0  0  0
   -9.3800   21.5980  -31.3700 C   0  0  0  0  0  0  0  0  0  0  0  0
   -9.1800   20.5540  -32.2400 C   0  0  0  0  0  0  0  0  0  0  0  0
   -7.9310   20.1800  -32.7060 C   0  0  0  0  0  0  0  0  0  0  0  0
   -6.8100   20.8590  -32.3030 C   0  0  0  0  0  0  0  0  0  0  0  0
   -6.6548   25.3697  -28.6565 H   0  0  0  0  0  0  0  0  0  0  0  0
   -7.6957   25.9420  -30.0039 H   0  0  0  0  0  0  0  0  0  0  0  0
   -7.0720   24.2575  -30.0039 H   0  0  0  0  0  0  0  0  0  0  0  0
   -5.8073   25.8058  -31.5830 H   0  0  0  0  0  0  0  0  0  0  0  0
   -5.2815   26.7673  -30.1923 H   0  0  0  0  0  0  0  0  0  0  0  0
   -5.2748   24.9414  -28.3507 H   0  0  0  0  0  0  0  0  0  0  0  0
   -4.7749   23.3019  -28.9711 H   0  0  0  0  0  0  0  0  0  0  0  0
   -3.1912   25.3734  -27.6189 H   0  0  0  0  0  0  0  0  0  0  0  0
   -2.8765   23.6077  -27.8633 H   0  0  0  0  0  0  0  0  0  0  0  0
   -0.4549   24.3073  -30.1109 H   0  0  0  0  0  0  0  0  0  0  0  0
   -0.9319   23.5569  -28.5058 H   0  0  0  0  0  0  0  0  0  0  0  0
   -0.9102   22.1563  -30.7196 H   0  0  0  0  0  0  0  0  0  0  0  0
   -2.1911   21.9699  -29.4389 H   0  0  0  0  0  0  0  0  0  0  0  0
   -3.0900   23.9050  -31.3960 H   0  0  0  0  0  0  0  0  0  0  0  0
   -0.9372   22.0128  -32.1550 H   0  0  0  0  0  0  0  0  0  0  0  0
    0.4593   20.5158  -33.5575 H   0  0  0  0  0  0  0  0  0  0  0  0
   -0.6158   18.7318  -34.8658 H   0  0  0  0  0  0  0  0  0  0  0  0
   -3.0620   18.4093  -34.7927 H   0  0  0  0  0  0  0  0  0  0  0  0
   -5.8967   18.1178  -33.4268 H   0  0  0  0  0  0  0  0  0  0  0  0
   -6.2077   19.2805  -34.7603 H   0  0  0  0  0  0  0  0  0  0  0  0
   -4.7062   18.2945  -34.7603 H   0  0  0  0  0  0  0  0  0  0  0  0
   -5.6190   23.2190  -30.5560 H   0  0  0  0  0  0  0  0  0  0  0  0
   -8.3407   23.1330  -30.2632 H   0  0  0  0  0  0  0  0  0  0  0  0
  -10.3848   21.8734  -31.0170 H   0  0  0  0  0  0  0  0  0  0  0  0
  -10.0570   19.9861  -32.5841 H   0  0  0  0  0  0  0  0  0  0  0  0
   -7.8376   19.3341  -33.4029 H   0  0  0  0  0  0  0  0  0  0  0  0
  1  2  1  0
  2  3  1  0
  3  4  1  0
  4  5  1  0
  5  6  1  0
  6  7  1  0
  7  8  1  0
  8  9  1  0
  9 10  1  0
 10 11  2  0
 11 12  1  0
 12 13  2  0
 13 14  1  0
 14 15  2  0
 15 16  1  0
 16 17  2  0
 17 18  1  0
 17 19  1  0
 19 20  2  0
 20 21  1  0
 21 22  1  0
 22 23  2  0
 23 24  1  0
 24 25  2  0
 25 26  1  0
 26 27  2  0
 20 10  1  0
 27 22  1  0
 16 11  1  0
 27 19  1  0
  1 28  1  0
  1 29  1  0
  1 30  1  0
  2 31  1  0
  2 32  1  0
  4 33  1  0
  4 34  1  0
  5 35  1  0
  5 36  1  0
  7 37  1  0
  7 38  1  0
  8 39  1  0
  8 40  1  0
  9 41  1  0
 12 42  1  0
 13 43  1  0
 14 44  1  0
 15 45  1  0
 18 46  1  0
 18 47  1  0
 18 48  1  0
 21 49  1  0
 23 50  1  0
 24 51  1  0
 25 52  1  0
 26 53  1  0
M  CHG  1  17   1
M  END
>  <smiles>  (1) 
CCOCCOCCNc1c2ccccc2[n+](C)c2c1[nH]c1ccccc12

>  <score_type>  (1) 
oracle

>  <origin>  (1) 
adg

>  <m_score__min__energy>  (1) 
-8.9399999999999995

>  <m_primary>  (1) 
energy

$$$$
1:0
     RDKit          3D

 69 71  0  0  0  0  0  0  0  0999 V2000
   -0.4050   26.8930  -23.3210 C   0  0  0  0  0  0  0  0  0  0  0  0
   -0.9420   27.0280  -24.7460 C   0  0  0  0  0  0  0  0  0  0  0  0
   -0.8960   25.8230  -25.4810 N   0  0  0  0  0  0  0  0  0  0  0  0
    0.1670   24.9410  -25.2570 C   0  0  0  0  0  0  0  0  0  0  0  0
   -0.4140   23.5170  -25.2190 C   0  0  0  0  0  0  0  0  0  0  0  0
   -1.7840   25.6380  -26.5420 C   0  0  0  0  0  0  0  0  0  0  0  0
   -1.1520   25.9960  -27.8880 C   0  0  0  0  0  0  0  0  0  0  0  0
   -1.8480   25.3780  -28.8940 O   0  0  0  0  0  0  0  0  0  0  0  0
   -2.5950   24.2750  -28.5430 C   0  0  0  0  0  0  0  0  0  0  0  0
   -3.0960   23.6000  -29.8080 C   0  0  0  0  0  0  0  0  0  0  0  0
   -3.5050   24.4840  -30.7550 O   0  0  0  0  0  0  0  0  0  0  0  0
   -4.2300   25.5090  -30.4830 N   0  0  0  0  0  0  0  0  0  0  0  0
   -5.6230   25.4770  -30.3420 C   0  0  0  0  0  0  0  0  0  0  0  0
   -6.4060   24.4980  -31.1420 C   0  0  0  0  0  0  0  0  0  0  0  0
   -5.6230   23.6010  -31.9650 N   0  0  0  0  0  0  0  0  0  0  0  0
   -6.0000   22.2770  -32.2800 C   0  0  0  0  0  0  0  0  0  0  0  0
   -7.2800   21.7820  -32.2180 C   0  0  0  0  0  0  0  0  0  0  0  0
   -7.5410   20.4470  -32.5580 C   0  0  0  0  0  0  0  0  0  0  0  0
   -6.5530   19.6150  -32.9540 N   0  0  0  0  0  0  0  0  0  0  0  0
   -6.9010   18.2700  -33.2850 C   0  0  0  0  0  0  0  0  0  0  0  0
   -6.8920   17.4190  -32.0180 C   0  0  0  0  0  0  0  0  0  0  0  0
   -5.3080   20.1150  -33.0100 C   0  0  0  0  0  0  0  0  0  0  0  0
   -4.2680   19.3050  -33.4130 C   0  0  0  0  0  0  0  0  0  0  0  0
   -2.9590   19.7620  -33.4950 C   0  0  0  0  0  0  0  0  0  0  0  0
   -2.6580   21.0790  -33.1650 C   0  0  0  0  0  0  0  0  0  0  0  0
   -3.6840   21.8770  -32.7690 C   0  0  0  0  0  0  0  0  0  0  0  0
   -4.9920   21.4180  -32.6880 C   0  0  0  0  0  0  0  0  0  0  0  0
   -9.0200   20.2150  -32.3880 C   0  0  0  0  0  0  0  0  0  0  0  0
   -9.2940   21.2130  -31.2550 C   0  0  0  0  0  0  0  0  0  0  0  0
   -8.5600   22.4260  -31.8210 C   0  0  0  0  0  0  0  0  0  0  0  0
   -1.2137   27.0963  -22.6036 H   0  0  0  0  0  0  0  0  0  0  0  0
   -0.0264   25.8717  -23.1670 H   0  0  0  0  0  0  0  0  0  0  0  0
    0.4115   27.6138  -23.1670 H   0  0  0  0  0  0  0  0  0  0  0  0
   -1.9880   27.3644  -24.6937 H   0  0  0  0  0  0  0  0  0  0  0  0
   -0.2975   27.7506  -25.2679 H   0  0  0  0  0  0  0  0  0  0  0  0
    0.9025   25.0250  -26.0706 H   0  0  0  0  0  0  0  0  0  0  0  0
    0.6742   25.1780  -24.3101 H   0  0  0  0  0  0  0  0  0  0  0  0
   -0.5428   23.2013  -24.1732 H   0  0  0  0  0  0  0  0  0  0  0  0
   -1.3889   23.5050  -25.7283 H   0  0  0  0  0  0  0  0  0  0  0  0
    0.2743   22.8265  -25.7283 H   0  0  0  0  0  0  0  0  0  0  0  0
   -2.0947   24.5831  -26.5651 H   0  0  0  0  0  0  0  0  0  0  0  0
   -2.6454   26.3035  -26.3837 H   0  0  0  0  0  0  0  0  0  0  0  0
   -1.1876   27.0859  -28.0323 H   0  0  0  0  0  0  0  0  0  0  0  0
   -0.1047   25.6600  -27.9043 H   0  0  0  0  0  0  0  0  0  0  0  0
   -1.9707   23.5724  -27.9715 H   0  0  0  0  0  0  0  0  0  0  0  0
   -3.4483   24.5841  -27.9214 H   0  0  0  0  0  0  0  0  0  0  0  0
   -2.2815   22.9903  -30.2261 H   0  0  0  0  0  0  0  0  0  0  0  0
   -3.9669   22.9877  -29.5314 H   0  0  0  0  0  0  0  0  0  0  0  0
   -3.8680   26.4370  -30.8390 H   0  0  0  0  0  0  0  0  0  0  0  0
   -5.8352   25.2707  -29.2826 H   0  0  0  0  0  0  0  0  0  0  0  0
   -5.9498   26.4541  -30.7273 H   0  0  0  0  0  0  0  0  0  0  0  0
   -6.9997   23.8880  -30.4453 H   0  0  0  0  0  0  0  0  0  0  0  0
   -7.0152   25.0936  -31.8378 H   0  0  0  0  0  0  0  0  0  0  0  0
   -4.7090   23.9300  -32.3690 H   0  0  0  0  0  0  0  0  0  0  0  0
   -7.9052   18.2503  -33.7335 H   0  0  0  0  0  0  0  0  0  0  0  0
   -6.1721   17.8675  -34.0038 H   0  0  0  0  0  0  0  0  0  0  0  0
   -6.8989   18.0754  -31.1354 H   0  0  0  0  0  0  0  0  0  0  0  0
   -7.7834   16.7746  -32.0028 H   0  0  0  0  0  0  0  0  0  0  0  0
   -5.9872   16.7936  -32.0028 H   0  0  0  0  0  0  0  0  0  0  0  0
   -4.4824   18.2594  -33.6791 H   0  0  0  0  0  0  0  0  0  0  0  0
   -2.1591   19.0811  -33.8215 H   0  0  0  0  0  0  0  0  0  0  0  0
   -1.6278   21.4604  -33.2224 H   0  0  0  0  0  0  0  0  0  0  0  0
   -3.4710   22.9230  -32.5034 H   0  0  0  0  0  0  0  0  0  0  0  0
   -9.5833   20.4622  -33.2999 H   0  0  0  0  0  0  0  0  0  0  0  0
   -9.3140   19.1752  -32.1824 H   0  0  0  0  0  0  0  0  0  0  0  0
  -10.3694   21.4051  -31.1259 H   0  0  0  0  0  0  0  0  0  0  0  0
   -8.9726   20.8910  -30.2535 H   0  0  0  0  0  0  0  0  0  0  0  0
   -9.0869   22.8569  -32.6852 H   0  0  0  0  0  0  0  0  0  0  0  0
   -8.4596   23.2749  -31.1287 H   0  0  0  0  0  0  0  0  0  0  0  0
  1  2  1  0
  2  3  1  0
  3  4  1  0
  4  5  1  0
  3  6  1  0
  6  7  1  0
  7  8  1  0
  8  9  1  0
  9 10  1  0
 10 11  1  0
 11 12  1  0
 12 13  1  0
 13 14  1  0
 14 15  1  0
 15 16  1  0
 16 17  2  0
 17 18  1  0
 18 19  2  0
 19 20  1  0
 20 21  1  0
 19 22  1  0
 22 23  2  0
 23 24  1  0
 24 25  2  0
 25 26  1  0
 26 27  2  0
 18 28  1  0
 28 29  1  0
 29 30  1  0
 27 16  1  0
 30 17  1  0
 27 22  1  0
  1 31  1  0
  1 32  1  0
  1 33  1  0
  2 34  1  0
  2 35  1  0
  4 36  1  0
  4 37  1  0
  5 38  1  0
  5 39  1  0
  5 40  1  0
  6 41  1  0
  6 42  1  0
  7 43  1  0
  7 44  1  0
  9 45  1  0
  9 46  1  0
 10 47  1  0
 10 48  1  0
 12 49  1  0
 13 50  1  0
 13 51  1  0
 14 52  1  0
 14 53  1  0
 15 54  1  0
 20 55  1  0
 20 56  1  0
 21 57  1  0
 21 58  1  0
 21 59  1  0
 23 60  1  0
 24 61  1  0
 25 62  1  0
 26 63  1  0
 28 64  1  0
 28 65  1  0
 29 66  1  0
 29 67  1  0
 30 68  1  0
 30 69  1  0
M  CHG  1  19   1
M  END
>  <smiles>  (2) 
CCN(CC)CCOCCONCCNc1c2c([n+](CC)c3ccccc13)CCC2

>  <score_type>  (2) 
oracle

>  <origin>  (2) 
adg

>  <m_score__min__energy>  (2) 
-10.18

>  <m_primary>  (2) 
energy

$$$$
3:0
     RDKit          3D

 28 29  0  0  0  0  0  0  0  0999 V2000
   -6.8640   16.9120  -33.4710 C   0  0  0  0  0  0  0  0  0  0  0  0
   -6.2630   18.2670  -33.3170 C   0  0  0  0  0  0  0  0  0  0  0  0
   -4.9960   18.5580  -33.7580 C   0  0  0  0  0  0  0  0  0  0  0  0
   -4.4430   19.7770  -33.6560 N   0  0  0  0  0  0  0  0  0  0  0  0
   -5.1730   20.7670  -33.0910 C   0  0  0  0  0  0  0  0  0  0  0  0
   -4.5240   22.0530  -33.0680 N   0  0  0  0  0  0  0  0  0  0  0  0
   -4.0130   22.4260  -31.7350 C   0  0  0  0  0  0  0  0  0  0  0  0
   -4.8370   23.4540  -31.0850 C   0  0  0  0  0  0  0  0  0  0  0  0
   -6.0650   23.0240  -30.5470 C   0  0  0  0  0  0  0  0  0  0  0  0
   -6.8770   23.9520  -29.9450 C   0  0  0  0  0  0  0  0  0  0  0  0
   -6.5510   25.2920  -29.8380 C   0  0  0  0  0  0  0  0  0  0  0  0
   -5.3290   25.6680  -30.3840 C   0  0  0  0  0  0  0  0  0  0  0  0
   -4.5630   24.7340  -30.9640 N   0  0  0  0  0  0  0  0  0  0  0  0
   -6.4510   20.5790  -32.6130 C   0  0  0  0  0  0  0  0  0  0  0  0
   -6.9790   19.3000  -32.7420 C   0  0  0  0  0  0  0  0  0  0  0  0
   -8.7370   18.9550  -32.1080 Br  0  0  0  0  0  0  0  0  0  0  0  0
   -7.0553   16.4807  -32.4774 H   0  0  0  0  0  0  0  0  0  0  0  0
   -7.8112   16.9918  -34.0247 H   0  0  0  0  0  0  0  0  0  0  0  0
   -6.1691   16.2634  -34.0247 H   0  0  0  0  0  0  0  0  0  0  0  0
   -4.4046   17.7525  -34.2177 H   0  0  0  0  0  0  0  0  0  0  0  0
   -4.4080   22.6600  -33.8860 H   0  0  0  0  0  0  0  0  0  0  0  0
   -4.0004   21.5291  -31.0982 H   0  0  0  0  0  0  0  0  0  0  0  0
   -3.0031   22.8413  -31.8679 H   0  0  0  0  0  0  0  0  0  0  0  0
   -6.3667   21.9679  -30.6079 H   0  0  0  0  0  0  0  0  0  0  0  0
   -7.8360   23.6130  -29.5262 H   0  0  0  0  0  0  0  0  0  0  0  0
   -7.2189   26.0170  -29.3499 H   0  0  0  0  0  0  0  0  0  0  0  0
   -4.9962   26.7156  -30.3406 H   0  0  0  0  0  0  0  0  0  0  0  0
   -7.0236   21.3981  -32.1534 H   0  0  0  0  0  0  0  0  0  0  0  0
  1  2  1  0
  2  3  2  0
  3  4  1  0
  4  5  2  0
  5  6  1  0
  6  7  1  0
  7  8  1  0
  8  9  2  0
  9 10  1  0
 10 11  2  0
 11 12  1  0
 12 13  2  0
  5 14  1  0
 14 15  2  0
 15 16  1  0
 15  2  1  0
 13  8  1  0
  1 17  1  0
  1 18  1  0
  1 19  1  0
  3 20  1  0
  6 21  1  0
  7 22  1  0
  7 23  1  0
  9 24  1  0
 10 25  1  0
 11 26  1  0
 12 27  1  0
 14 28  1  0
M  END
>  <smiles>  (3) 
Cc1cnc(NCc2ccccn2)cc1Br

>  <score_type>  (3) 
oracle

>  <origin>  (3) 
adg

>  <m_score__min__energy>  (3) 
-7.5700000000000003

>  <m_primary>  (3) 
energy

$$$$
4:0
     RDKit          3D

 65 68  0  0  1  0  0  0  0  0999 V2000
   -0.4630   22.3610  -25.4150 C   0  0  0  0  0  0  0  0  0  0  0  0
   -1.3690   22.8880  -26.5070 C   0  0  0  0  0  0  0  0  0  0  0  0
   -1.9720   24.0720  -26.0880 O   0  0  0  0  0  0  0  0  0  0  0  0
   -2.5810   24.6290  -27.2100 C   0  0  2  0  0  0  0  0  0  0  0  0
   -3.2980   23.5910  -28.0480 C   0  0  0  0  0  0  0  0  0  0  0  0
   -3.1710   24.1710  -29.4320 C   0  0  0  0  0  0  0  0  0  0  0  0
   -2.4780   23.2160  -30.3800 C   0  0  0  0  0  0  0  0  0  0  0  0
   -3.3400   22.0060  -30.6780 C   0  0  0  0  0  0  0  0  0  0  0  0
   -4.7060   22.3960  -30.9740 N   0  0  0  0  0  0  0  0  0  0  0  0
   -5.2240   21.5670  -32.0130 C   0  0  0  0  0  0  0  0  0  0  0  0
   -6.7020   21.3410  -31.9000 C   0  0  0  0  0  0  0  0  0  0  0  0
   -7.4810   22.1600  -31.0900 C   0  0  0  0  0  0  0  0  0  0  0  0
   -8.8440   21.9090  -31.0190 C   0  0  0  0  0  0  0  0  0  0  0  0
   -9.4210   20.8640  -31.7380 C   0  0  0  0  0  0  0  0  0  0  0  0
   -8.6280   20.0460  -32.5480 C   0  0  0  0  0  0  0  0  0  0  0  0
   -7.2730   20.2900  -32.6240 C   0  0  0  0  0  0  0  0  0  0  0  0
   -4.8200   23.8160  -31.2050 C   0  0  0  0  0  0  0  0  0  0  0  0
   -4.5510   24.5400  -29.9180 C   0  0  0  0  0  0  0  0  0  0  0  0
   -2.3530   25.2960  -29.3520 O   0  0  0  0  0  0  0  0  0  0  0  0
   -1.5370   25.0800  -28.2440 C   0  0  1  0  0  0  0  0  0  0  0  0
   -0.8790   26.3560  -27.7750 C   0  0  0  0  0  0  0  0  0  0  0  0
    0.4990   26.1590  -27.4530 N   0  0  0  0  0  0  0  0  0  0  0  0
    0.9170   24.7930  -27.4720 C   0  0  0  0  0  0  0  0  0  0  0  0
    2.2020   24.7020  -26.6500 C   0  0  0  0  0  0  0  0  0  0  0  0
    1.7880   24.7330  -25.2630 N   0  0  0  0  0  0  0  0  0  0  0  0
    2.9130   24.6510  -24.3590 C   0  0  0  0  0  0  0  0  0  0  0  0
    0.9630   25.8850  -25.0440 C   0  0  0  0  0  0  0  0  0  0  0  0
    0.9060   26.8060  -26.2370 C   0  0  0  0  0  0  0  0  0  0  0  0
   -0.8903   22.6095  -24.4323 H   0  0  0  0  0  0  0  0  0  0  0  0
   -0.3717   21.2689  -25.5095 H   0  0  0  0  0  0  0  0  0  0  0  0
    0.5314   22.8216  -25.5095 H   0  0  0  0  0  0  0  0  0  0  0  0
   -0.7755   23.0809  -27.4128 H   0  0  0  0  0  0  0  0  0  0  0  0
   -2.1467   22.1415  -26.7261 H   0  0  0  0  0  0  0  0  0  0  0  0
   -3.2221   25.4185  -26.7908 H   0  0  0  0  0  0  0  0  0  0  0  0
   -2.8054   22.6100  -27.9781 H   0  0  0  0  0  0  0  0  0  0  0  0
   -4.3365   23.4065  -27.7359 H   0  0  0  0  0  0  0  0  0  0  0  0
   -2.2617   23.7415  -31.3219 H   0  0  0  0  0  0  0  0  0  0  0  0
   -1.5495   22.8692  -29.9029 H   0  0  0  0  0  0  0  0  0  0  0  0
   -2.9230   21.4729  -31.5451 H   0  0  0  0  0  0  0  0  0  0  0  0
   -3.3474   21.3561  -29.7906 H   0  0  0  0  0  0  0  0  0  0  0  0
   -5.0157   22.0465  -32.9808 H   0  0  0  0  0  0  0  0  0  0  0  0
   -4.7335   20.5862  -31.9268 H   0  0  0  0  0  0  0  0  0  0  0  0
   -7.0287   22.9852  -30.5204 H   0  0  0  0  0  0  0  0  0  0  0  0
   -9.4791   22.5451  -30.3850 H   0  0  0  0  0  0  0  0  0  0  0  0
  -10.5036   20.6823  -31.6680 H   0  0  0  0  0  0  0  0  0  0  0  0
   -9.0786   19.2193  -33.1168 H   0  0  0  0  0  0  0  0  0  0  0  0
   -6.6376   19.6541  -33.2579 H   0  0  0  0  0  0  0  0  0  0  0  0
   -4.0870   24.1269  -31.9640 H   0  0  0  0  0  0  0  0  0  0  0  0
   -5.8319   24.0557  -31.5635 H   0  0  0  0  0  0  0  0  0  0  0  0
   -4.6058   25.6257  -30.0861 H   0  0  0  0  0  0  0  0  0  0  0  0
   -5.3009   24.2555  -29.1652 H   0  0  0  0  0  0  0  0  0  0  0  0
   -0.7118   24.3771  -28.4308 H   0  0  0  0  0  0  0  0  0  0  0  0
   -0.9532   27.1086  -28.5738 H   0  0  0  0  0  0  0  0  0  0  0  0
   -1.3968   26.6912  -26.8642 H   0  0  0  0  0  0  0  0  0  0  0  0
    0.1392   24.1547  -27.0274 H   0  0  0  0  0  0  0  0  0  0  0  0
    1.0884   24.4515  -28.5035 H   0  0  0  0  0  0  0  0  0  0  0  0
    2.7317   23.7635  -26.8704 H   0  0  0  0  0  0  0  0  0  0  0  0
    2.8911   25.5267  -26.8846 H   0  0  0  0  0  0  0  0  0  0  0  0
    2.5515   24.6773  -23.3204 H   0  0  0  0  0  0  0  0  0  0  0  0
    3.4565   23.7109  -24.5343 H   0  0  0  0  0  0  0  0  0  0  0  0
    3.5871   25.5024  -24.5343 H   0  0  0  0  0  0  0  0  0  0  0  0
   -0.0579   25.5461  -24.8140 H   0  0  0  0  0  0  0  0  0  0  0  0
    1.4053   26.4524  -24.2119 H   0  0  0  0  0  0  0  0  0  0  0  0
    0.1910   27.6127  -26.0179 H   0  0  0  0  0  0  0  0  0  0  0  0
    1.9275   27.1798  -26.4008 H   0  0  0  0  0  0  0  0  0  0  0  0
  1  2  1  0
  2  3  1  0
  3  4  1  0
  4  5  1  0
  5  6  1  0
  6  7  1  0
  7  8  1  0
  8  9  1  0
  9 10  1  0
 10 11  1  0
 11 12  2  0
 12 13  1  0
 13 14  2  0
 14 15  1  0
 15 16  2  0
  9 17  1  0
 17 18  1  0
  6 19  1  0
 19 20  1  0
 20 21  1  0
 21 22  1  0
 22 23  1  0
 23 24  1  0
 24 25  1  0
 25 26  1  0
 25 27  1  0
 27 28  1  0
 20  4  1  0
 28 22  1  0
 18  6  1  0
 16 11  1  0
  1 29  1  0
  1 30  1  0
  1 31  1  0
  2 32  1  0
  2 33  1  0
  4 34  1  1
  5 35  1  0
  5 36  1  0
  7 37  1  0
  7 38  1  0
  8 39  1  0
  8 40  1  0
 10 41  1  0
 10 42  1  0
 12 43  1  0
 13 44  1  0
 14 45  1  0
 15 46  1  0
 16 47  1  0
 17 48  1  0
 17 49  1  0
 18 50  1  0
 18 51  1  0
 20 52  1  6
 21 53  1  0
 21 54  1  0
 23 55  1  0
 23 56  1  0
 24 57  1  0
 24 58  1  0
 26 59  1  0
 26 60  1  0
 26 61  1  0
 27 62  1  0
 27 63  1  0
 28 64  1  0
 28 65  1  0
M  END
>  <smiles>  (4) 
CCOC1CC2(CCN(Cc3ccccc3)CC2)OC1CN1CCN(C)CC1

>  <score_type>  (4) 
oracle

>  <origin>  (4) 
adg

>  <m_score__min__energy>  (4) 
-9.6600000000000001

>  <m_primary>  (4) 
energy

$$$$
5:0
     RDKit          3D

 82 85  0  0  0  0  0  0  0  0999 V2000
   -4.0880   23.5510  -28.6330 C   0  0  0  0  0  0  0  0  0  0  0  0
   -3.5250   24.5090  -29.6460 C   0  0  0  0  0  0  0  0  0  0  0  0
   -4.4320   24.6940  -30.8020 N   0  0  0  0  0  0  0  0  0  0  0  0
   -5.3660   25.6990  -30.4720 C   0  0  0  0  0  0  0  0  0  0  0  0
   -6.6120   25.2770  -29.7630 C   0  0  0  0  0  0  0  0  0  0  0  0
   -4.8860   23.3890  -31.1120 C   0  0  0  0  0  0  0  0  0  0  0  0
   -3.9580   22.4400  -31.7650 C   0  0  0  0  0  0  0  0  0  0  0  0
   -4.6430   22.0100  -33.0160 N   0  0  0  0  0  0  0  0  0  0  0  0
   -5.0920   20.6810  -33.0730 C   0  0  0  0  0  0  0  0  0  0  0  0
   -6.4360   20.4940  -32.7210 C   0  0  0  0  0  0  0  0  0  0  0  0
   -7.1900   21.5940  -32.3120 C   0  0  0  0  0  0  0  0  0  0  0  0
   -8.5130   21.5090  -31.9470 C   0  0  0  0  0  0  0  0  0  0  0  0
   -9.1200   20.2800  -31.9870 C   0  0  0  0  0  0  0  0  0  0  0  0
   -8.3740   19.1760  -32.3940 C   0  0  0  0  0  0  0  0  0  0  0  0
   -7.0510   19.2700  -32.7580 C   0  0  0  0  0  0  0  0  0  0  0  0
   -6.3490   18.2010  -33.1430 N   0  0  0  0  0  0  0  0  0  0  0  0
   -6.9090   16.8880  -33.2040 C   0  0  0  0  0  0  0  0  0  0  0  0
   -5.0420   18.3360  -33.4920 C   0  0  0  0  0  0  0  0  0  0  0  0
   -4.3660   17.2000  -33.8850 C   0  0  0  0  0  0  0  0  0  0  0  0
   -3.0440   17.2980  -34.2470 C   0  0  0  0  0  0  0  0  0  0  0  0
   -2.2920   16.0760  -34.6780 C   0  0  0  0  0  0  0  0  0  0  0  0
   -2.4400   18.5320  -34.2020 C   0  0  0  0  0  0  0  0  0  0  0  0
   -3.0800   19.7000  -33.8120 C   0  0  0  0  0  0  0  0  0  0  0  0
   -2.3160   20.8770  -33.7490 N   0  0  0  0  0  0  0  0  0  0  0  0
   -1.1850   20.8890  -32.7850 C   0  0  0  0  0  0  0  0  0  0  0  0
   -1.5550   20.2380  -31.4840 C   0  0  0  0  0  0  0  0  0  0  0  0
   -0.8920   20.9930  -30.3560 C   0  0  0  0  0  0  0  0  0  0  0  0
   -0.7370   20.2260  -29.1600 N   0  0  0  0  0  0  0  0  0  0  0  0
   -0.1900   18.9150  -29.4200 C   0  0  0  0  0  0  0  0  0  0  0  0
   -2.0150   20.0500  -28.4890 C   0  0  0  0  0  0  0  0  0  0  0  0
   -1.9110   20.4030  -27.0120 C   0  0  0  0  0  0  0  0  0  0  0  0
   -1.6150   21.8820  -26.9290 C   0  0  0  0  0  0  0  0  0  0  0  0
   -0.3570   22.1880  -27.7110 C   0  0  0  0  0  0  0  0  0  0  0  0
    0.2130   20.9230  -28.3130 C   0  0  0  0  0  0  0  0  0  0  0  0
   -4.4030   19.5810  -33.4580 C   0  0  0  0  0  0  0  0  0  0  0  0
   -3.8713   23.9198  -27.6196 H   0  0  0  0  0  0  0  0  0  0  0  0
   -5.1766   23.4713  -28.7692 H   0  0  0  0  0  0  0  0  0  0  0  0
   -3.6280   22.5611  -28.7692 H   0  0  0  0  0  0  0  0  0  0  0  0
   -3.3644   25.4835  -29.1617 H   0  0  0  0  0  0  0  0  0  0  0  0
   -2.5799   24.0890  -30.0208 H   0  0  0  0  0  0  0  0  0  0  0  0
   -4.8518   26.4283  -29.8288 H   0  0  0  0  0  0  0  0  0  0  0  0
   -5.7129   26.0882  -31.4406 H   0  0  0  0  0  0  0  0  0  0  0  0
   -6.4517   25.3313  -28.6761 H   0  0  0  0  0  0  0  0  0  0  0  0
   -7.4388   25.9452  -30.0455 H   0  0  0  0  0  0  0  0  0  0  0  0
   -6.8626   24.2439  -30.0455 H   0  0  0  0  0  0  0  0  0  0  0  0
   -5.2063   22.9268  -30.1666 H   0  0  0  0  0  0  0  0  0  0  0  0
   -5.6665   23.5556  -31.8690 H   0  0  0  0  0  0  0  0  0  0  0  0
   -3.0042   22.9351  -31.9998 H   0  0  0  0  0  0  0  0  0  0  0  0
   -3.7237   21.5851  -31.1137 H   0  0  0  0  0  0  0  0  0  0  0  0
   -4.7600   22.6400  -33.8230 H   0  0  0  0  0  0  0  0  0  0  0  0
   -6.7016   22.5791  -32.2798 H   0  0  0  0  0  0  0  0  0  0  0  0
   -9.0699   22.4035  -31.6312 H   0  0  0  0  0  0  0  0  0  0  0  0
  -10.1767   20.1679  -31.7029 H   0  0  0  0  0  0  0  0  0  0  0  0
   -8.8621   18.1907  -32.4255 H   0  0  0  0  0  0  0  0  0  0  0  0
   -7.0701   16.5103  -32.1835 H   0  0  0  0  0  0  0  0  0  0  0  0
   -7.8702   16.9238  -33.7377 H   0  0  0  0  0  0  0  0  0  0  0  0
   -6.2179   16.2190  -33.7377 H   0  0  0  0  0  0  0  0  0  0  0  0
   -4.8789   16.2272  -33.9084 H   0  0  0  0  0  0  0  0  0  0  0  0
   -1.9516   15.5228  -33.7902 H   0  0  0  0  0  0  0  0  0  0  0  0
   -2.9510   15.4333  -35.2801 H   0  0  0  0  0  0  0  0  0  0  0  0
   -1.4212   16.3747  -35.2801 H   0  0  0  0  0  0  0  0  0  0  0  0
   -1.3815   18.5979  -34.4938 H   0  0  0  0  0  0  0  0  0  0  0  0
   -2.4000   21.7610  -34.2310 H   0  0  0  0  0  0  0  0  0  0  0  0
   -0.3356   20.3466  -33.2258 H   0  0  0  0  0  0  0  0  0  0  0  0
   -0.9212   21.9371  -32.5802 H   0  0  0  0  0  0  0  0  0  0  0  0
   -2.6471   20.2643  -31.3548 H   0  0  0  0  0  0  0  0  0  0  0  0
   -1.2187   19.1907  -31.4812 H   0  0  0  0  0  0  0  0  0  0  0  0
    0.1044   21.3149  -30.6929 H   0  0  0  0  0  0  0  0  0  0  0  0
   -1.5479   21.8409  -30.1095 H   0  0  0  0  0  0  0  0  0  0  0  0
    0.0208   18.4098  -28.4659 H   0  0  0  0  0  0  0  0  0  0  0  0
   -0.9160   18.3225  -29.9961 H   0  0  0  0  0  0  0  0  0  0  0  0
    0.7418   19.0141  -29.9961 H   0  0  0  0  0  0  0  0  0  0  0  0
   -2.7626   20.7031  -28.9628 H   0  0  0  0  0  0  0  0  0  0  0  0
   -2.3132   18.9948  -28.5761 H   0  0  0  0  0  0  0  0  0  0  0  0
   -2.8599   20.1789  -26.5027 H   0  0  0  0  0  0  0  0  0  0  0  0
   -1.1183   19.8169  -26.5241 H   0  0  0  0  0  0  0  0  0  0  0  0
   -2.4572   22.4490  -27.3524 H   0  0  0  0  0  0  0  0  0  0  0  0
   -1.4722   22.1693  -25.8768 H   0  0  0  0  0  0  0  0  0  0  0  0
   -0.5955   22.8972  -28.5174 H   0  0  0  0  0  0  0  0  0  0  0  0
    0.3880   22.6250  -27.0298 H   0  0  0  0  0  0  0  0  0  0  0  0
    1.0942   21.1869  -28.9163 H   0  0  0  0  0  0  0  0  0  0  0  0
    0.4735   20.2494  -27.4833 H   0  0  0  0  0  0  0  0  0  0  0  0
  1  2  1  0
  2  3  1  0
  3  4  1  0
  4  5  1  0
  3  6  1  0
  6  7  1  0
  7  8  1  0
  8  9  1  0
  9 10  2  0
 10 11  1  0
 11 12  2  0
 12 13  1  0
 13 14  2  0
 14 15  1  0
 15 16  2  0
 16 17  1  0
 16 18  1  0
 18 19  2  0
 19 20  1  0
 20 21  1  0
 20 22  2  0
 22 23  1  0
 23 24  1  0
 24 25  1  0
 25 26  1  0
 26 27  1  0
 27 28  1  0
 28 29  1  0
 28 30  1  0
 30 31  1  0
 31 32  1  0
 32 33  1  0
 33 34  1  0
 23 35  2  0
 35  9  1  0
 15 10  1  0
 35 18  1  0
 34 28  1  0
  1 36  1  0
  1 37  1  0
  1 38  1  0
  2 39  1  0
  2 40  1  0
  4 41  1  0
  4 42  1  0
  5 43  1  0
  5 44  1  0
  5 45  1  0
  6 46  1  0
  6 47  1  0
  7 48  1  0
  7 49  1  0
  8 50  1  0
 11 51  1  0
 12 52  1  0
 13 53  1  0
 14 54  1  0
 17 55  1  0
 17 56  1  0
 17 57  1  0
 19 58  1  0
 21 59  1  0
 21 60  1  0
 21 61  1  0
 22 62  1  0
 24 63  1  0
 25 64  1  0
 25 65  1  0
 26 66  1  0
 26 67  1  0
 27 68  1  0
 27 69  1  0
 29 70  1  0
 29 71  1  0
 29 72  1  0
 30 73  1  0
 30 74  1  0
 31 75  1  0
 31 76  1  0
 32 77  1  0
 32 78  1  0
 33 79  1  0
 33 80  1  0
 34 81  1  0
 34 82  1  0
M  CHG  2  16   1  28   1
M  END
>  <smiles>  (5) 
CCN(CC)CCNc1c2ccccc2[n+](C)c2cc(C)cc(NCCC[N+]3(C)CCCCC3)c12

>  <score_type>  (5) 
oracle

>  <origin>  (5) 
adg

>  <m_score__min__energy>  (5) 
-10.039999999999999

>  <m_primary>  (5) 
energy

$$$$
6:0
     RDKit          3D

 34 36  0  0  0  0  0  0  0  0999 V2000
   -9.4770   23.4420  -32.3400 C   0  0  0  0  0  0  0  0  0  0  0  0
   -8.2760   22.9820  -31.6700 N   0  0  0  0  0  0  0  0  0  0  0  0
   -7.2970   23.7890  -31.2310 C   0  0  0  0  0  0  0  0  0  0  0  0
   -6.3510   22.9590  -30.6620 C   0  0  0  0  0  0  0  0  0  0  0  0
   -5.1120   23.3340  -30.0470 C   0  0  0  0  0  0  0  0  0  0  0  0
   -4.3060   22.6210  -29.1460 C   0  0  0  0  0  0  0  0  0  0  0  0
   -3.1930   23.1840  -28.7120 C   0  0  0  0  0  0  0  0  0  0  0  0
   -2.8380   24.4430  -29.1390 C   0  0  0  0  0  0  0  0  0  0  0  0
   -4.2460   24.9190  -30.3100 S   0  0  0  0  0  0  0  0  0  0  0  0
   -6.7870   21.6910  -30.7770 N   0  0  0  0  0  0  0  0  0  0  0  0
   -7.9890   21.6990  -31.4060 C   0  0  0  0  0  0  0  0  0  0  0  0
   -8.8610   20.5520  -31.7600 C   0  0  0  0  0  0  0  0  0  0  0  0
   -8.4690   19.8960  -32.9690 N   0  0  0  0  0  0  0  0  0  0  0  0
   -7.2890   19.1060  -33.0360 C   0  0  0  0  0  0  0  0  0  0  0  0
   -7.2080   17.8940  -32.3840 C   0  0  0  0  0  0  0  0  0  0  0  0
   -6.0680   17.0980  -32.4300 C   0  0  0  0  0  0  0  0  0  0  0  0
   -4.9670   17.5240  -33.1530 C   0  0  0  0  0  0  0  0  0  0  0  0
   -3.8280   16.7720  -33.2230 F   0  0  0  0  0  0  0  0  0  0  0  0
   -5.0670   18.7470  -33.8020 C   0  0  0  0  0  0  0  0  0  0  0  0
   -6.1920   19.5330  -33.7560 C   0  0  0  0  0  0  0  0  0  0  0  0
  -10.2281   23.7297  -31.5896 H   0  0  0  0  0  0  0  0  0  0  0  0
   -9.2357   24.3113  -32.9693 H   0  0  0  0  0  0  0  0  0  0  0  0
   -9.8782   22.6339  -32.9693 H   0  0  0  0  0  0  0  0  0  0  0  0
   -7.2566   24.8855  -31.3085 H   0  0  0  0  0  0  0  0  0  0  0  0
   -4.5952   21.6148  -28.8085 H   0  0  0  0  0  0  0  0  0  0  0  0
   -2.5462   22.6435  -28.0053 H   0  0  0  0  0  0  0  0  0  0  0  0
   -1.9496   25.0311  -28.8655 H   0  0  0  0  0  0  0  0  0  0  0  0
   -8.8267   19.8208  -30.9390 H   0  0  0  0  0  0  0  0  0  0  0  0
   -9.8743   20.9495  -31.9185 H   0  0  0  0  0  0  0  0  0  0  0  0
   -9.0590   20.0000  -33.8200 H   0  0  0  0  0  0  0  0  0  0  0  0
   -8.0762   17.5437  -31.8065 H   0  0  0  0  0  0  0  0  0  0  0  0
   -6.0416   16.1369  -31.8956 H   0  0  0  0  0  0  0  0  0  0  0  0
   -4.2028   19.1039  -34.3814 H   0  0  0  0  0  0  0  0  0  0  0  0
   -6.2185   20.4951  -34.2887 H   0  0  0  0  0  0  0  0  0  0  0  0
  1  2  1  0
  2  3  1  0
  3  4  2  0
  4  5  1  0
  5  6  2  0
  6  7  1  0
  7  8  2  0
  8  9  1  0
  4 10  1  0
 10 11  2  0
 11 12  1  0
 12 13  1  0
 13 14  1  0
 14 15  2  0
 15 16  1  0
 16 17  2  0
 17 18  1  0
 17 19  1  0
 19 20  2  0
 11  2  1  0
 20 14  1  0
  9  5  1  0
  1 21  1  0
  1 22  1  0
  1 23  1  0
  3 24  1  0
  6 25  1  0
  7 26  1  0
  8 27  1  0
 12 28  1  0
 12 29  1  0
 13 30  1  0
 15 31  1  0
 16 32  1  0
 19 33  1  0
 20 34  1  0
M  END
>  <smiles>  (6) 
Cn1cc(-c2cccs2)nc1CNc1ccc(F)cc1

>  <score_type>  (6) 
oracle

>  <origin>  (6) 
adg

>  <m_score__min__energy>  (6) 
-6.7999999999999998

>  <m_primary>  (6) 
energy

$$$$
7:0
     RDKit          3D

 42 43  0  0  0  0  0  0  0  0999 V2000
   -2.2930   23.7240  -29.1920 C   0  0  0  0  0  0  0  0  0  0  0  0
   -3.7320   24.2140  -29.2620 C   0  0  0  0  0  0  0  0  0  0  0  0
   -4.1030   24.2850  -30.6590 N   0  0  0  0  0  0  0  0  0  0  0  0
   -5.4180   24.8460  -30.8520 C   0  0  0  0  0  0  0  0  0  0  0  0
   -6.5080   23.8930  -30.4050 C   0  0  0  0  0  0  0  0  0  0  0  0
   -6.3530   22.6830  -31.2610 C   0  0  0  0  0  0  0  0  0  0  0  0
   -7.2760   21.8170  -31.7450 C   0  0  0  0  0  0  0  0  0  0  0  0
   -8.6650   21.8810  -31.5210 C   0  0  0  0  0  0  0  0  0  0  0  0
   -9.8590   21.9260  -31.3080 N   0  0  0  0  0  0  0  0  0  0  0  0
   -6.5550   20.8630  -32.5130 C   0  0  0  0  0  0  0  0  0  0  0  0
   -7.2650   19.7560  -33.1550 C   0  0  0  0  0  0  0  0  0  0  0  0
   -8.0650   18.8460  -32.2990 C   0  0  0  0  0  0  0  0  0  0  0  0
   -7.6440   17.5220  -32.3120 O   0  0  0  0  0  0  0  0  0  0  0  0
   -6.3110   17.4060  -32.6060 C   0  0  0  0  0  0  0  0  0  0  0  0
   -6.1040   16.7390  -33.9540 C   0  0  0  0  0  0  0  0  0  0  0  0
   -7.2060   15.9800  -34.2360 F   0  0  0  0  0  0  0  0  0  0  0  0
   -4.9490   15.9860  -33.8960 F   0  0  0  0  0  0  0  0  0  0  0  0
   -5.9300   17.6680  -34.9610 F   0  0  0  0  0  0  0  0  0  0  0  0
   -5.2620   21.2100  -32.4490 N   0  0  0  0  0  0  0  0  0  0  0  0
   -4.1790   20.5100  -33.1200 C   0  0  0  0  0  0  0  0  0  0  0  0
   -5.1190   22.3280  -31.6800 C   0  0  0  0  0  0  0  0  0  0  0  0
   -3.8740   23.0580  -31.3270 C   0  0  0  0  0  0  0  0  0  0  0  0
   -1.9914   23.6213  -28.1391 H   0  0  0  0  0  0  0  0  0  0  0  0
   -2.2132   22.7480  -29.6931 H   0  0  0  0  0  0  0  0  0  0  0  0
   -1.6342   24.4485  -29.6931 H   0  0  0  0  0  0  0  0  0  0  0  0
   -4.3934   23.5117  -28.7336 H   0  0  0  0  0  0  0  0  0  0  0  0
   -3.8273   25.2013  -28.7865 H   0  0  0  0  0  0  0  0  0  0  0  0
   -5.4973   25.7758  -30.2697 H   0  0  0  0  0  0  0  0  0  0  0  0
   -5.5527   25.0394  -31.9265 H   0  0  0  0  0  0  0  0  0  0  0  0
   -6.3799   23.6325  -29.3440 H   0  0  0  0  0  0  0  0  0  0  0  0
   -7.5081   24.3397  -30.5063 H   0  0  0  0  0  0  0  0  0  0  0  0
   -7.9506   20.1939  -33.8954 H   0  0  0  0  0  0  0  0  0  0  0  0
   -6.4657   19.1175  -33.5592 H   0  0  0  0  0  0  0  0  0  0  0  0
   -8.0112   19.2132  -31.2635 H   0  0  0  0  0  0  0  0  0  0  0  0
   -9.0869   18.8526  -32.7061 H   0  0  0  0  0  0  0  0  0  0  0  0
   -5.8596   18.4089  -32.6284 H   0  0  0  0  0  0  0  0  0  0  0  0
   -5.8357   16.7849  -31.8325 H   0  0  0  0  0  0  0  0  0  0  0  0
   -3.5038   20.0736  -32.3693 H   0  0  0  0  0  0  0  0  0  0  0  0
   -4.5944   19.7091  -33.7492 H   0  0  0  0  0  0  0  0  0  0  0  0
   -3.6193   21.2177  -33.7492 H   0  0  0  0  0  0  0  0  0  0  0  0
   -3.2678   22.4143  -30.6726 H   0  0  0  0  0  0  0  0  0  0  0  0
   -3.3630   23.2969  -32.2714 H   0  0  0  0  0  0  0  0  0  0  0  0
  1  2  1  0
  2  3  1  0
  3  4  1  0
  4  5  1  0
  5  6  1  0
  6  7  1  0
  7  8  1  0
  8  9  3  0
  7 10  2  0
 10 11  1  0
 11 12  1  0
 12 13  1  0
 13 14  1  0
 14 15  1  0
 15 16  1  0
 15 17  1  0
 15 18  1  0
 10 19  1  0
 19 20  1  0
 19 21  1  0
 21 22  1  0
 22  3  1  0
 21  6  2  0
  1 23  1  0
  1 24  1  0
  1 25  1  0
  2 26  1  0
  2 27  1  0
  4 28  1  0
  4 29  1  0
  5 30  1  0
  5 31  1  0
 11 32  1  0
 11 33  1  0
 12 34  1  0
 12 35  1  0
 14 36  1  0
 14 37  1  0
 20 38  1  0
 20 39  1  0
 20 40  1  0
 22 41  1  0
 22 42  1  0
M  END
>  <smiles>  (7) 
CCN1CCc2c(C#N)c(CCOCC(F)(F)F)n(C)c2C1

>  <score_type>  (7) 
oracle

>  <origin>  (7) 
adg

>  <m_score__min__energy>  (7) 
-6.9500000000000002

>  <m_primary>  (7) 
energy

$$$$
8:0
     RDKit          3D

 40 42  0  0  0  0  0  0  0  0999 V2000
   -9.3290   22.1600  -31.5520 C   0  0  0  0  0  0  0  0  0  0  0  0
   -8.2630   21.6930  -30.5410 C   0  0  0  0  0  0  0  0  0  0  0  0
   -6.9410   21.8430  -31.0730 N   0  0  0  0  0  0  0  0  0  0  0  0
   -6.4360   20.7350  -31.8570 C   0  0  0  0  0  0  0  0  0  0  0  0
   -7.4790   20.0220  -32.4340 C   0  0  0  0  0  0  0  0  0  0  0  0
   -7.2120   18.9380  -33.2100 C   0  0  0  0  0  0  0  0  0  0  0  0
   -5.8990   18.5650  -33.4090 C   0  0  0  0  0  0  0  0  0  0  0  0
   -5.5690   17.4260  -34.2220 N   0  0  0  0  0  0  0  0  0  0  0  0
   -4.3720   17.4260  -35.0490 C   0  0  0  0  0  0  0  0  0  0  0  0
   -6.4790   16.2700  -34.1880 C   0  0  0  0  0  0  0  0  0  0  0  0
   -4.8730   19.2800  -32.8320 C   0  0  0  0  0  0  0  0  0  0  0  0
   -5.1130   20.4020  -32.0270 C   0  0  0  0  0  0  0  0  0  0  0  0
   -3.8280   20.9280  -31.5670 C   0  0  0  0  0  0  0  0  0  0  0  0
   -3.8660   22.1880  -30.8770 N   0  0  0  0  0  0  0  0  0  0  0  0
   -4.8610   23.1930  -30.7340 C   0  0  0  0  0  0  0  0  0  0  0  0
   -6.2070   23.0410  -30.8290 C   0  0  0  0  0  0  0  0  0  0  0  0
   -7.0940   24.0720  -30.6910 N   0  0  0  0  0  0  0  0  0  0  0  0
   -6.5790   25.2840  -30.4480 C   0  0  0  0  0  0  0  0  0  0  0  0
   -5.2270   25.4580  -30.3470 N   0  0  0  0  0  0  0  0  0  0  0  0
   -4.3500   24.4490  -30.4820 C   0  0  0  0  0  0  0  0  0  0  0  0
   -3.1150   24.5630  -30.3990 O   0  0  0  0  0  0  0  0  0  0  0  0
  -10.2055   22.5440  -31.0095 H   0  0  0  0  0  0  0  0  0  0  0  0
   -8.9107   22.9573  -32.1839 H   0  0  0  0  0  0  0  0  0  0  0  0
   -9.6315   21.3120  -32.1839 H   0  0  0  0  0  0  0  0  0  0  0  0
   -8.3508   22.2943  -29.6241 H   0  0  0  0  0  0  0  0  0  0  0  0
   -8.4319   20.6277  -30.3250 H   0  0  0  0  0  0  0  0  0  0  0  0
   -8.5199   20.3340  -32.2633 H   0  0  0  0  0  0  0  0  0  0  0  0
   -8.0307   18.3670  -33.6722 H   0  0  0  0  0  0  0  0  0  0  0  0
   -4.0703   16.3889  -35.2574 H   0  0  0  0  0  0  0  0  0  0  0  0
   -4.5809   17.9445  -35.9964 H   0  0  0  0  0  0  0  0  0  0  0  0
   -3.5598   17.9445  -34.5185 H   0  0  0  0  0  0  0  0  0  0  0  0
   -6.6909   16.0008  -33.1427 H   0  0  0  0  0  0  0  0  0  0  0  0
   -7.4189   16.5281  -34.6979 H   0  0  0  0  0  0  0  0  0  0  0  0
   -6.0074   15.4170  -34.6979 H   0  0  0  0  0  0  0  0  0  0  0  0
   -3.8350   18.9612  -33.0080 H   0  0  0  0  0  0  0  0  0  0  0  0
   -3.3867   20.1859  -30.8855 H   0  0  0  0  0  0  0  0  0  0  0  0
   -3.2423   21.1111  -32.4799 H   0  0  0  0  0  0  0  0  0  0  0  0
   -2.9640   22.4060  -30.3760 H   0  0  0  0  0  0  0  0  0  0  0  0
   -8.1320   23.8880  -30.7890 H   0  0  0  0  0  0  0  0  0  0  0  0
   -7.2501   26.1474  -30.3286 H   0  0  0  0  0  0  0  0  0  0  0  0
  1  2  1  0
  2  3  1  0
  3  4  1  0
  4  5  2  0
  5  6  1  0
  6  7  2  0
  7  8  1  0
  8  9  1  0
  8 10  1  0
  7 11  1  0
 11 12  2  0
 12 13  1  0
 13 14  1  0
 14 15  1  0
 15 16  2  0
 16 17  1  0
 17 18  1  0
 18 19  2  0
 19 20  1  0
 20 21  2  0
 16  3  1  0
 12  4  1  0
 20 15  1  0
  1 22  1  0
  1 23  1  0
  1 24  1  0
  2 25  1  0
  2 26  1  0
  5 27  1  0
  6 28  1  0
  9 29  1  0
  9 30  1  0
  9 31  1  0
 10 32  1  0
 10 33  1  0
 10 34  1  0
 11 35  1  0
 13 36  1  0
 13 37  1  0
 14 38  1  0
 17 39  1  0
 18 40  1  0
M  END
>  <smiles>  (8) 
CCN1c2ccc(N(C)C)cc2CNc2c1[nH]cnc2=O

>  <score_type>  (8) 
oracle

>  <origin>  (8) 
adg

>  <m_score__min__energy>  (8) 
-6.8700000000000001

>  <m_primary>  (8) 
energy

$$$$
9:0
     RDKit          3D

 55 57  0  0  0  0  0  0  0  0999 V2000
   -1.1850   27.2370  -25.1200 C   0  0  0  0  0  0  0  0  0  0  0  0
   -1.2520   26.8050  -26.5720 C   0  0  0  0  0  0  0  0  0  0  0  0
   -1.6410   25.4070  -26.6960 N   0  0  0  0  0  0  0  0  0  0  0  0
   -1.8190   24.8890  -28.0290 C   0  0  0  0  0  0  0  0  0  0  0  0
   -1.6230   25.6890  -28.9550 O   0  0  0  0  0  0  0  0  0  0  0  0
   -2.1880   23.5620  -28.1890 N   0  0  0  0  0  0  0  0  0  0  0  0
   -2.4110   22.8300  -29.4060 C   0  0  0  0  0  0  0  0  0  0  0  0
   -3.1930   23.5520  -30.4470 C   0  0  0  0  0  0  0  0  0  0  0  0
   -3.9830   24.6430  -30.0710 N   0  0  0  0  0  0  0  0  0  0  0  0
   -5.1020   24.9930  -30.8600 C   0  0  0  0  0  0  0  0  0  0  0  0
   -6.0700   23.8790  -31.1220 C   0  0  0  0  0  0  0  0  0  0  0  0
   -5.9060   23.3430  -32.4840 N   0  0  0  0  0  0  0  0  0  0  0  0
   -5.9490   21.9140  -32.5720 C   0  0  0  0  0  0  0  0  0  0  0  0
   -7.1030   21.1880  -32.3750 C   0  0  0  0  0  0  0  0  0  0  0  0
   -8.2450   21.9150  -32.0860 C   0  0  0  0  0  0  0  0  0  0  0  0
   -9.4360   21.2730  -31.8770 C   0  0  0  0  0  0  0  0  0  0  0  0
   -9.4880   19.8960  -31.9580 C   0  0  0  0  0  0  0  0  0  0  0  0
   -8.3240   19.1880  -32.2500 C   0  0  0  0  0  0  0  0  0  0  0  0
   -7.1130   19.7950  -32.4640 C   0  0  0  0  0  0  0  0  0  0  0  0
   -5.9820   19.0980  -32.7520 N   0  0  0  0  0  0  0  0  0  0  0  0
   -6.0820   17.6790  -32.8120 C   0  0  0  0  0  0  0  0  0  0  0  0
   -4.8640   19.8140  -32.9430 C   0  0  0  0  0  0  0  0  0  0  0  0
   -3.6970   19.1550  -33.2440 C   0  0  0  0  0  0  0  0  0  0  0  0
   -2.5060   19.8570  -33.4590 C   0  0  0  0  0  0  0  0  0  0  0  0
   -2.4750   21.2310  -33.3750 C   0  0  0  0  0  0  0  0  0  0  0  0
   -3.6470   21.8860  -33.0750 C   0  0  0  0  0  0  0  0  0  0  0  0
   -4.8080   21.1890  -32.8650 C   0  0  0  0  0  0  0  0  0  0  0  0
   -1.3210   26.3601  -24.4699 H   0  0  0  0  0  0  0  0  0  0  0  0
   -0.2052   27.6945  -24.9184 H   0  0  0  0  0  0  0  0  0  0  0  0
   -1.9802   27.9698  -24.9184 H   0  0  0  0  0  0  0  0  0  0  0  0
   -1.9902   27.4292  -27.0969 H   0  0  0  0  0  0  0  0  0  0  0  0
   -0.2520   26.9253  -27.0142 H   0  0  0  0  0  0  0  0  0  0  0  0
   -1.7870   24.7960  -25.8470 H   0  0  0  0  0  0  0  0  0  0  0  0
   -2.3310   22.9900  -27.2910 H   0  0  0  0  0  0  0  0  0  0  0  0
   -1.4303   22.5743  -29.8336 H   0  0  0  0  0  0  0  0  0  0  0  0
   -3.0121   21.9518  -29.1277 H   0  0  0  0  0  0  0  0  0  0  0  0
   -2.4731   23.9183  -31.1937 H   0  0  0  0  0  0  0  0  0  0  0  0
   -3.9238   22.8052  -30.7909 H   0  0  0  0  0  0  0  0  0  0  0  0
   -3.7360   25.2750  -29.3380 H   0  0  0  0  0  0  0  0  0  0  0  0
   -5.6431   25.8002  -30.3445 H   0  0  0  0  0  0  0  0  0  0  0  0
   -4.7035   25.2892  -31.8416 H   0  0  0  0  0  0  0  0  0  0  0  0
   -5.8946   23.0723  -30.3950 H   0  0  0  0  0  0  0  0  0  0  0  0
   -7.0919   24.2737  -31.0227 H   0  0  0  0  0  0  0  0  0  0  0  0
   -5.7730   23.9560  -33.2980 H   0  0  0  0  0  0  0  0  0  0  0  0
   -8.1954   23.0121  -32.0241 H   0  0  0  0  0  0  0  0  0  0  0  0
  -10.3439   21.8497  -31.6465 H   0  0  0  0  0  0  0  0  0  0  0  0
  -10.4368   19.3641  -31.7940 H   0  0  0  0  0  0  0  0  0  0  0  0
   -8.3790   18.0911  -32.3118 H   0  0  0  0  0  0  0  0  0  0  0  0
   -6.1108   17.2700  -31.7913 H   0  0  0  0  0  0  0  0  0  0  0  0
   -7.0021   17.3985  -33.3455 H   0  0  0  0  0  0  0  0  0  0  0  0
   -5.2103   17.2722  -33.3455 H   0  0  0  0  0  0  0  0  0  0  0  0
   -3.6989   18.0574  -33.3172 H   0  0  0  0  0  0  0  0  0  0  0  0
   -1.5847   19.3054  -33.6977 H   0  0  0  0  0  0  0  0  0  0  0  0
   -1.5414   21.7881  -33.5427 H   0  0  0  0  0  0  0  0  0  0  0  0
   -3.6522   22.9836  -33.0028 H   0  0  0  0  0  0  0  0  0  0  0  0
  1  2  1  0
  2  3  1  0
  3  4  1  0
  4  5  2  0
  4  6  1  0
  6  7  1  0
  7  8  1  0
  8  9  1  0
  9 10  1  0
 10 11  1  0
 11 12  1  0
 12 13  1  0
 13 14  2  0
 14 15  1  0
 15 16  2  0
 16 17  1  0
 17 18  2  0
 18 19  1  0
 19 20  2  0
 20 21  1  0
 20 22  1  0
 22 23  2  0
 23 24  1  0
 24 25  2  0
 25 26  1  0
 26 27  2  0
 27 13  1  0
 19 14  1  0
 27 22  1  0
  1 28  1  0
  1 29  1  0
  1 30  1  0
  2 31  1  0
  2 32  1  0
  3 33  1  0
  6 34  1  0
  7 35  1  0
  7 36  1  0
  8 37  1  0
  8 38  1  0
  9 39  1  0
 10 40  1  0
 10 41  1  0
 11 42  1  0
 11 43  1  0
 12 44  1  0
 15 45  1  0
 16 46  1  0
 17 47  1  0
 18 48  1  0
 21 49  1  0
 21 50  1  0
 21 51  1  0
 23 52  1  0
 24 53  1  0
 25 54  1  0
 26 55  1  0
M  CHG  1  20   1
M  END
>  <smiles>  (9) 
CCNC(=O)NCCNCCNc1c2ccccc2[n+](C)c2ccccc12

>  <score_type>  (9) 
oracle

>  <origin>  (9) 
adg

>  <m_score__min__energy>  (9) 
-9.8399999999999999

>  <m_primary>  (9) 
energy

$$$$
10:0
     RDKit          3D

 59 61  0  0  0  0  0  0  0  0999 V2000
   -8.3630   17.9220  -31.9390 C   0  0  0  0  0  0  0  0  0  0  0  0
   -8.7300   19.2330  -32.6040 C   0  0  0  0  0  0  0  0  0  0  0  0
   -7.9370   20.3160  -32.2080 N   0  0  0  0  0  0  0  0  0  0  0  0
   -8.5280   21.5550  -31.9640 C   0  0  0  0  0  0  0  0  0  0  0  0
   -9.1960   21.7440  -30.6350 C   0  0  0  0  0  0  0  0  0  0  0  0
   -6.5950   20.0590  -31.9660 C   0  0  0  0  0  0  0  0  0  0  0  0
   -5.7930   19.8790  -33.2560 C   0  0  0  0  0  0  0  0  0  0  0  0
   -4.9780   21.0480  -33.4710 N   0  0  0  0  0  0  0  0  0  0  0  0
   -4.0970   21.5850  -32.4540 C   0  0  0  0  0  0  0  0  0  0  0  0
   -2.9140   20.9150  -32.1800 C   0  0  0  0  0  0  0  0  0  0  0  0
   -2.1740   21.9110  -30.7700 S   0  0  0  0  0  0  0  0  0  0  0  0
   -3.5060   23.0420  -30.7490 C   0  0  0  0  0  0  0  0  0  0  0  0
   -3.6550   24.1270  -29.9090 C   0  0  0  0  0  0  0  0  0  0  0  0
   -2.7380   24.4890  -28.8650 C   0  0  0  0  0  0  0  0  0  0  0  0
   -2.8280   23.8150  -27.7730 O   0  0  0  0  0  0  0  0  0  0  0  0
   -1.7530   25.4860  -28.8790 N   0  0  0  0  0  0  0  0  0  0  0  0
   -0.9910   25.6170  -27.6570 C   0  0  0  0  0  0  0  0  0  0  0  0
   -1.4100   26.3630  -26.5860 C   0  0  0  0  0  0  0  0  0  0  0  0
   -0.5650   26.4280  -25.4890 C   0  0  0  0  0  0  0  0  0  0  0  0
   -0.9120   27.1500  -24.3810 O   0  0  0  0  0  0  0  0  0  0  0  0
   -0.4450   26.8090  -23.0700 C   0  0  0  0  0  0  0  0  0  0  0  0
    0.6420   25.7690  -25.4800 C   0  0  0  0  0  0  0  0  0  0  0  0
    1.0850   25.0050  -26.5660 C   0  0  0  0  0  0  0  0  0  0  0  0
    2.3010   24.3770  -26.4810 O   0  0  0  0  0  0  0  0  0  0  0  0
    3.3760   24.5500  -27.3710 C   0  0  0  0  0  0  0  0  0  0  0  0
    0.2390   24.9500  -27.6430 C   0  0  0  0  0  0  0  0  0  0  0  0
   -4.7940   24.9510  -30.0240 C   0  0  0  0  0  0  0  0  0  0  0  0
   -5.6900   24.5860  -30.9980 C   0  0  0  0  0  0  0  0  0  0  0  0
   -5.5200   23.5050  -31.8160 C   0  0  0  0  0  0  0  0  0  0  0  0
   -4.3740   22.6690  -31.7070 C   0  0  0  0  0  0  0  0  0  0  0  0
   -8.3969   18.0431  -30.8462 H   0  0  0  0  0  0  0  0  0  0  0  0
   -9.0777   17.1434  -32.2440 H   0  0  0  0  0  0  0  0  0  0  0  0
   -7.3479   17.6277  -32.2440 H   0  0  0  0  0  0  0  0  0  0  0  0
   -8.6271   19.1091  -33.6921 H   0  0  0  0  0  0  0  0  0  0  0  0
   -9.7607   19.4661  -32.2986 H   0  0  0  0  0  0  0  0  0  0  0  0
   -7.7422   22.3198  -32.0515 H   0  0  0  0  0  0  0  0  0  0  0  0
   -9.3386   21.6338  -32.7034 H   0  0  0  0  0  0  0  0  0  0  0  0
   -8.4748   21.5400  -29.8298 H   0  0  0  0  0  0  0  0  0  0  0  0
   -9.5571   22.7796  -30.5501 H   0  0  0  0  0  0  0  0  0  0  0  0
  -10.0461   21.0511  -30.5501 H   0  0  0  0  0  0  0  0  0  0  0  0
   -6.1704   20.9019  -31.4009 H   0  0  0  0  0  0  0  0  0  0  0  0
   -6.5310   19.1193  -31.3979 H   0  0  0  0  0  0  0  0  0  0  0  0
   -5.1488   18.9917  -33.1685 H   0  0  0  0  0  0  0  0  0  0  0  0
   -6.4803   19.7450  -34.1043 H   0  0  0  0  0  0  0  0  0  0  0  0
   -5.0510   21.5040  -34.4140 H   0  0  0  0  0  0  0  0  0  0  0  0
   -2.5076   20.0178  -32.6697 H   0  0  0  0  0  0  0  0  0  0  0  0
   -1.6130   26.0570  -29.7120 H   0  0  0  0  0  0  0  0  0  0  0  0
   -2.3765   26.8882  -26.5966 H   0  0  0  0  0  0  0  0  0  0  0  0
   -1.0918   27.2813  -22.3160 H   0  0  0  0  0  0  0  0  0  0  0  0
   -0.4720   25.7166  -22.9438 H   0  0  0  0  0  0  0  0  0  0  0  0
    0.5873   27.1673  -22.9438 H   0  0  0  0  0  0  0  0  0  0  0  0
    1.2816   25.8449  -24.5883 H   0  0  0  0  0  0  0  0  0  0  0  0
    4.3043   24.6994  -26.8001 H   0  0  0  0  0  0  0  0  0  0  0  0
    3.4750   23.6562  -28.0045 H   0  0  0  0  0  0  0  0  0  0  0  0
    3.1896   25.4297  -28.0045 H   0  0  0  0  0  0  0  0  0  0  0  0
    0.5364   24.3629  -28.5244 H   0  0  0  0  0  0  0  0  0  0  0  0
   -4.9535   25.8264  -29.3773 H   0  0  0  0  0  0  0  0  0  0  0  0
   -6.5950   25.1978  -31.1270 H   0  0  0  0  0  0  0  0  0  0  0  0
   -6.2841   23.2766  -32.5736 H   0  0  0  0  0  0  0  0  0  0  0  0
  1  2  1  0
  2  3  1  0
  3  4  1  0
  4  5  1  0
  3  6  1  0
  6  7  1  0
  7  8  1  0
  8  9  1  0
  9 10  2  0
 10 11  1  0
 11 12  1  0
 12 13  2  0
 13 14  1  0
 14 15  2  0
 14 16  1  0
 16 17  1  0
 17 18  2  0
 18 19  1  0
 19 20  1  0
 20 21  1  0
 19 22  2  0
 22 23  1  0
 23 24  1  0
 24 25  1  0
 23 26  2  0
 13 27  1  0
 27 28  2  0
 28 29  1  0
 29 30  2  0
 30  9  1  0
 30 12  1  0
 26 17  1  0
  1 31  1  0
  1 32  1  0
  1 33  1  0
  2 34  1  0
  2 35  1  0
  4 36  1  0
  4 37  1  0
  5 38  1  0
  5 39  1  0
  5 40  1  0
  6 41  1  0
  6 42  1  0
  7 43  1  0
  7 44  1  0
  8 45  1  0
 10 46  1  0
 16 47  1  0
 18 48  1  0
 21 49  1  0
 21 50  1  0
 21 51  1  0
 22 52  1  0
 25 53  1  0
 25 54  1  0
 25 55  1  0
 26 56  1  0
 27 57  1  0
 28 58  1  0
 29 59  1  0
M  END
>  <smiles>  (10) 
CCN(CC)CCNc1csc2c(C(=O)Nc3cc(OC)cc(OC)c3)cccc12

>  <score_type>  (10) 
oracle

>  <origin>  (10) 
adg

>  <m_score__min__energy>  (10) 
-9.3000000000000007

>  <m_primary>  (10) 
energy

$$$$
11:0
     RDKit          3D

 34 36  0  0  0  0  0  0  0  0999 V2000
   -4.7030   21.5080  -30.8990 C   0  0  0  0  0  0  0  0  0  0  0  0
   -4.5970   22.9500  -30.8710 N   0  0  0  0  0  0  0  0  0  0  0  0
   -5.4340   23.8180  -31.4770 C   0  0  0  0  0  0  0  0  0  0  0  0
   -6.8560   23.3340  -32.4450 S   0  0  0  0  0  0  0  0  0  0  0  0
   -7.9970   22.3110  -31.4450 C   0  0  0  0  0  0  0  0  0  0  0  0
   -7.8830   20.9080  -31.9050 C   0  0  0  0  0  0  0  0  0  0  0  0
   -8.7450   19.9910  -31.2950 C   0  0  0  0  0  0  0  0  0  0  0  0
   -8.7400   18.6590  -31.6310 C   0  0  0  0  0  0  0  0  0  0  0  0
   -7.8480   18.2480  -32.6010 C   0  0  0  0  0  0  0  0  0  0  0  0
   -6.9820   19.1560  -33.2170 C   0  0  0  0  0  0  0  0  0  0  0  0
   -6.1440   18.6750  -34.1520 F   0  0  0  0  0  0  0  0  0  0  0  0
   -6.9930   20.4920  -32.8740 C   0  0  0  0  0  0  0  0  0  0  0  0
   -4.9970   25.0850  -31.2140 N   0  0  0  0  0  0  0  0  0  0  0  0
   -3.9030   24.9930  -30.4560 N   0  0  0  0  0  0  0  0  0  0  0  0
   -3.6490   23.6860  -30.2380 C   0  0  0  0  0  0  0  0  0  0  0  0
   -2.5590   23.1000  -29.4660 C   0  0  0  0  0  0  0  0  0  0  0  0
   -2.6990   23.0940  -28.0860 C   0  0  0  0  0  0  0  0  0  0  0  0
   -1.7050   22.5550  -27.2850 C   0  0  0  0  0  0  0  0  0  0  0  0
   -0.5980   22.0340  -27.8530 N   0  0  0  0  0  0  0  0  0  0  0  0
   -0.4720   22.0440  -29.1830 C   0  0  0  0  0  0  0  0  0  0  0  0
   -1.4260   22.5670  -30.0390 C   0  0  0  0  0  0  0  0  0  0  0  0
   -4.7313   21.1224  -29.8692 H   0  0  0  0  0  0  0  0  0  0  0  0
   -5.6249   21.2182  -31.4245 H   0  0  0  0  0  0  0  0  0  0  0  0
   -3.8334   21.0866  -31.4245 H   0  0  0  0  0  0  0  0  0  0  0  0
   -7.7227   22.3779  -30.3819 H   0  0  0  0  0  0  0  0  0  0  0  0
   -9.0308   22.6674  -31.5640 H   0  0  0  0  0  0  0  0  0  0  0  0
   -9.4460   20.3460  -30.5252 H   0  0  0  0  0  0  0  0  0  0  0  0
   -9.4220   17.9459  -31.1448 H   0  0  0  0  0  0  0  0  0  0  0  0
   -7.8182   17.1882  -32.8941 H   0  0  0  0  0  0  0  0  0  0  0  0
   -6.3113   21.2059  -33.3594 H   0  0  0  0  0  0  0  0  0  0  0  0
   -3.6030   23.5190  -27.6255 H   0  0  0  0  0  0  0  0  0  0  0  0
   -1.8182   22.5520  -26.1908 H   0  0  0  0  0  0  0  0  0  0  0  0
    0.4399   21.6130  -29.6220 H   0  0  0  0  0  0  0  0  0  0  0  0
   -1.2850   22.5572  -31.1299 H   0  0  0  0  0  0  0  0  0  0  0  0
  1  2  1  0
  2  3  1  0
  3  4  1  0
  4  5  1  0
  5  6  1  0
  6  7  2  0
  7  8  1  0
  8  9  2  0
  9 10  1  0
 10 11  1  0
 10 12  2  0
  3 13  2  0
 13 14  1  0
 14 15  2  0
 15 16  1  0
 16 17  2  0
 17 18  1  0
 18 19  2  0
 19 20  1  0
 20 21  2  0
 15  2  1  0
 21 16  1  0
 12  6  1  0
  1 22  1  0
  1 23  1  0
  1 24  1  0
  5 25  1  0
  5 26  1  0
  7 27  1  0
  8 28  1  0
  9 29  1  0
 12 30  1  0
 17 31  1  0
 18 32  1  0
 20 33  1  0
 21 34  1  0
M  END
>  <smiles>  (11) 
Cn1c(SCc2cccc(F)c2)nnc1-c1ccncc1

>  <score_type>  (11) 
oracle

>  <origin>  (11) 
adg

>  <m_score__min__energy>  (11) 
-8.2200000000000006

>  <m_primary>  (11) 
energy

$$$$
12:0
     RDKit          3D

 39 41  0  0  0  0  0  0  0  0999 V2000
   -0.9510   23.1320  -26.9860 C   0  0  0  0  0  0  0  0  0  0  0  0
   -2.2140   23.6400  -27.4890 N   0  0  0  0  0  0  0  0  0  0  0  0
   -2.6160   23.6760  -28.7730 C   0  0  0  0  0  0  0  0  0  0  0  0
   -3.8760   24.2410  -28.7530 C   0  0  0  0  0  0  0  0  0  0  0  0
   -4.9580   24.5750  -30.0850 S   0  0  0  0  0  0  0  0  0  0  0  0
   -6.2580   25.1850  -29.6080 O   0  0  0  0  0  0  0  0  0  0  0  0
   -4.3000   25.6300  -30.9510 O   0  0  0  0  0  0  0  0  0  0  0  0
   -5.3050   23.2550  -31.0510 N   0  0  0  0  0  0  0  0  0  0  0  0
   -6.4630   22.5030  -30.7540 C   0  0  0  0  0  0  0  0  0  0  0  0
   -6.9000   21.6760  -31.9640 C   0  0  0  0  0  0  0  0  0  0  0  0
   -5.8330   20.8210  -32.3350 N   0  0  0  0  0  0  0  0  0  0  0  0
   -6.0620   19.5550  -32.9440 C   0  0  0  0  0  0  0  0  0  0  0  0
   -5.4610   19.2310  -34.1620 C   0  0  0  0  0  0  0  0  0  0  0  0
   -5.6760   18.0010  -34.7650 C   0  0  0  0  0  0  0  0  0  0  0  0
   -6.4880   17.0620  -34.1830 C   0  0  0  0  0  0  0  0  0  0  0  0
   -7.0900   17.3600  -32.9840 C   0  0  0  0  0  0  0  0  0  0  0  0
   -6.8680   18.5890  -32.3940 C   0  0  0  0  0  0  0  0  0  0  0  0
   -4.4510   21.1990  -32.1110 C   0  0  0  0  0  0  0  0  0  0  0  0
   -4.2140   22.5640  -31.6260 C   0  0  0  0  0  0  0  0  0  0  0  0
   -4.2140   24.5390  -27.4320 C   0  0  0  0  0  0  0  0  0  0  0  0
   -3.1540   24.1470  -26.7020 N   0  0  0  0  0  0  0  0  0  0  0  0
   -0.9654   23.1378  -25.8861 H   0  0  0  0  0  0  0  0  0  0  0  0
   -0.8003   22.1033  -27.3453 H   0  0  0  0  0  0  0  0  0  0  0  0
   -0.1300   23.7699  -27.3453 H   0  0  0  0  0  0  0  0  0  0  0  0
   -2.0575   23.3280  -29.6544 H   0  0  0  0  0  0  0  0  0  0  0  0
   -6.2478   21.8265  -29.9138 H   0  0  0  0  0  0  0  0  0  0  0  0
   -7.2750   23.1964  -30.4896 H   0  0  0  0  0  0  0  0  0  0  0  0
   -7.7833   21.0747  -31.7027 H   0  0  0  0  0  0  0  0  0  0  0  0
   -7.1576   22.3413  -32.8013 H   0  0  0  0  0  0  0  0  0  0  0  0
   -4.8048   19.9652  -34.6523 H   0  0  0  0  0  0  0  0  0  0  0  0
   -5.1878   17.7753  -35.7245 H   0  0  0  0  0  0  0  0  0  0  0  0
   -6.6545   16.0882  -34.6667 H   0  0  0  0  0  0  0  0  0  0  0  0
   -7.7455   16.6233  -32.4965 H   0  0  0  0  0  0  0  0  0  0  0  0
   -7.3619   18.8048  -31.4351 H   0  0  0  0  0  0  0  0  0  0  0  0
   -4.0306   20.5036  -31.3696 H   0  0  0  0  0  0  0  0  0  0  0  0
   -3.9740   21.1558  -33.1013 H   0  0  0  0  0  0  0  0  0  0  0  0
   -3.4216   22.5095  -30.8650 H   0  0  0  0  0  0  0  0  0  0  0  0
   -3.9639   23.1407  -32.5287 H   0  0  0  0  0  0  0  0  0  0  0  0
   -5.1457   24.9957  -27.0667 H   0  0  0  0  0  0  0  0  0  0  0  0
  1  2  1  0
  2  3  1  0
  3  4  2  0
  4  5  1  0
  5  6  2  0
  5  7  2  0
  5  8  1  0
  8  9  1  0
  9 10  1  0
 10 11  1  0
 11 12  1  0
 12 13  2  0
 13 14  1  0
 14 15  2  0
 15 16  1  0
 16 17  2  0
 11 18  1  0
 18 19  1  0
  4 20  1  0
 20 21  2  0
 21  2  1  0
 19  8  1  0
 17 12  1  0
  1 22  1  0
  1 23  1  0
  1 24  1  0
  3 25  1  0
  9 26  1  0
  9 27  1  0
 10 28  1  0
 10 29  1  0
 13 30  1  0
 14 31  1  0
 15 32  1  0
 16 33  1  0
 17 34  1  0
 18 35  1  0
 18 36  1  0
 19 37  1  0
 19 38  1  0
 20 39  1  0
M  END
>  <smiles>  (12) 
Cn1cc(S(=O)(=O)N2CCN(c3ccccc3)CC2)cn1

>  <score_type>  (12) 
oracle

>  <origin>  (12) 
adg

>  <m_score__min__energy>  (12) 
-7.6900000000000004

>  <m_primary>  (12) 
energy

$$$$
13:0
     RDKit          3D

 51 54  0  0  0  0  0  0  0  0999 V2000
    0.3140   19.9790  -35.0000 C   0  0  0  0  0  0  0  0  0  0  0  0
   -0.9090   20.1130  -34.2200 N   0  0  0  0  0  0  0  0  0  0  0  0
   -1.9450   19.2400  -34.2090 C   0  0  0  0  0  0  0  0  0  0  0  0
   -2.8890   19.7470  -33.3420 C   0  0  0  0  0  0  0  0  0  0  0  0
   -4.1310   19.1530  -33.0250 N   0  0  0  0  0  0  0  0  0  0  0  0
   -5.0580   18.7940  -34.0720 C   0  0  0  0  0  0  0  0  0  0  0  0
   -6.4900   18.8130  -33.5940 C   0  0  0  0  0  0  0  0  0  0  0  0
   -6.6580   18.9380  -32.1850 N   0  0  0  0  0  0  0  0  0  0  0  0
   -6.8140   20.3510  -31.8910 C   0  0  0  0  0  0  0  0  0  0  0  0
   -8.2150   20.7670  -31.5910 C   0  0  0  0  0  0  0  0  0  0  0  0
   -9.2720   20.0560  -32.3760 C   0  0  0  0  0  0  0  0  0  0  0  0
   -9.0910   18.5780  -32.2250 C   0  0  0  0  0  0  0  0  0  0  0  0
   -7.7600   18.2330  -31.6180 C   0  0  0  0  0  0  0  0  0  0  0  0
   -2.4230   20.9180  -32.8360 C   0  0  0  0  0  0  0  0  0  0  0  0
   -3.0020   21.8600  -31.8870 C   0  0  0  0  0  0  0  0  0  0  0  0
   -2.3420   22.3200  -30.7700 C   0  0  0  0  0  0  0  0  0  0  0  0
   -2.9890   23.2180  -29.9360 C   0  0  0  0  0  0  0  0  0  0  0  0
   -4.2790   23.6630  -30.1980 C   0  0  0  0  0  0  0  0  0  0  0  0
   -4.9090   24.5560  -29.3570 C   0  0  0  0  0  0  0  0  0  0  0  0
   -6.2000   24.9700  -29.6620 C   0  0  0  0  0  0  0  0  0  0  0  0
   -6.8770   24.5200  -30.7760 C   0  0  0  0  0  0  0  0  0  0  0  0
   -6.2210   23.6280  -31.5970 C   0  0  0  0  0  0  0  0  0  0  0  0
   -4.9260   23.1900  -31.3240 C   0  0  0  0  0  0  0  0  0  0  0  0
   -4.2940   22.2940  -32.1650 C   0  0  0  0  0  0  0  0  0  0  0  0
   -1.2100   21.1100  -33.3940 N   0  0  0  0  0  0  0  0  0  0  0  0
    1.1738   19.8848  -34.3204 H   0  0  0  0  0  0  0  0  0  0  0  0
    0.2480   19.0827  -35.6343 H   0  0  0  0  0  0  0  0  0  0  0  0
    0.4437   20.8683  -35.6343 H   0  0  0  0  0  0  0  0  0  0  0  0
   -2.0188   18.3045  -34.7829 H   0  0  0  0  0  0  0  0  0  0  0  0
   -4.4240   18.9530  -32.0450 H   0  0  0  0  0  0  0  0  0  0  0  0
   -4.9512   19.5093  -34.9008 H   0  0  0  0  0  0  0  0  0  0  0  0
   -4.8227   17.7695  -34.3960 H   0  0  0  0  0  0  0  0  0  0  0  0
   -6.9976   19.6628  -34.0738 H   0  0  0  0  0  0  0  0  0  0  0  0
   -6.9155   17.8359  -33.8664 H   0  0  0  0  0  0  0  0  0  0  0  0
   -6.1892   20.5919  -31.0183 H   0  0  0  0  0  0  0  0  0  0  0  0
   -6.5121   20.8956  -32.7978 H   0  0  0  0  0  0  0  0  0  0  0  0
   -8.4032   20.5838  -30.5228 H   0  0  0  0  0  0  0  0  0  0  0  0
   -8.2860   21.8277  -31.8737 H   0  0  0  0  0  0  0  0  0  0  0  0
  -10.2649   20.3447  -32.0008 H   0  0  0  0  0  0  0  0  0  0  0  0
   -9.1893   20.3305  -33.4380 H   0  0  0  0  0  0  0  0  0  0  0  0
   -9.8890   18.1868  -31.5768 H   0  0  0  0  0  0  0  0  0  0  0  0
   -9.1349   18.1261  -33.2269 H   0  0  0  0  0  0  0  0  0  0  0  0
   -7.8009   18.4639  -30.5433 H   0  0  0  0  0  0  0  0  0  0  0  0
   -7.5887   17.1651  -31.8187 H   0  0  0  0  0  0  0  0  0  0  0  0
   -1.3203   21.9812  -30.5436 H   0  0  0  0  0  0  0  0  0  0  0  0
   -2.4668   23.5888  -29.0417 H   0  0  0  0  0  0  0  0  0  0  0  0
   -4.3980   24.9344  -28.4594 H   0  0  0  0  0  0  0  0  0  0  0  0
   -6.7003   25.6829  -28.9901 H   0  0  0  0  0  0  0  0  0  0  0  0
   -7.8991   24.8591  -31.0003 H   0  0  0  0  0  0  0  0  0  0  0  0
   -6.7343   23.2508  -32.4938 H   0  0  0  0  0  0  0  0  0  0  0  0
   -4.8155   21.9219  -33.0592 H   0  0  0  0  0  0  0  0  0  0  0  0
  1  2  1  0
  2  3  1  0
  3  4  2  0
  4  5  1  0
  5  6  1  0
  6  7  1  0
  7  8  1  0
  8  9  1  0
  9 10  1  0
 10 11  1  0
 11 12  1  0
 12 13  1  0
  4 14  1  0
 14 15  1  0
 15 16  2  0
 16 17  1  0
 17 18  2  0
 18 19  1  0
 19 20  2  0
 20 21  1  0
 21 22  2  0
 22 23  1  0
 23 24  2  0
 14 25  2  0
 25  2  1  0
 13  8  1  0
 24 15  1  0
 23 18  1  0
  1 26  1  0
  1 27  1  0
  1 28  1  0
  3 29  1  0
  5 30  1  0
  6 31  1  0
  6 32  1  0
  7 33  1  0
  7 34  1  0
  9 35  1  0
  9 36  1  0
 10 37  1  0
 10 38  1  0
 11 39  1  0
 11 40  1  0
 12 41  1  0
 12 42  1  0
 13 43  1  0
 13 44  1  0
 16 45  1  0
 17 46  1  0
 19 47  1  0
 20 48  1  0
 21 49  1  0
 22 50  1  0
 24 51  1  0
M  END
>  <smiles>  (13) 
Cn1cc(NCCN2CCCCC2)c(-c2ccc3ccccc3c2)n1

>  <score_type>  (13) 
oracle

>  <origin>  (13) 
adg

>  <m_score__min__energy>  (13) 
-9.1500000000000004

>  <m_primary>  (13) 
energy

$$$$
14:0
     RDKit          3D

 73 76  0  0  0  0  0  0  0  0999 V2000
    0.2890   21.9470  -35.6530 C   0  0  0  0  0  0  0  0  0  0  0  0
   -0.1560   20.6630  -35.0170 C   0  0  0  0  0  0  0  0  0  0  0  0
   -1.3350   20.7890  -34.2140 N   0  0  0  0  0  0  0  0  0  0  0  0
   -1.1250   21.1570  -32.8500 C   0  0  0  0  0  0  0  0  0  0  0  0
   -1.7560   20.1650  -31.8820 C   0  0  0  0  0  0  0  0  0  0  0  0
   -3.1280   20.6540  -31.5600 C   0  0  0  0  0  0  0  0  0  0  0  0
   -3.6100   21.8310  -32.3280 C   0  0  0  0  0  0  0  0  0  0  0  0
   -4.5850   21.5280  -33.3720 N   0  0  0  0  0  0  0  0  0  0  0  0
   -5.7190   20.7950  -32.9700 C   0  0  0  0  0  0  0  0  0  0  0  0
   -5.6330   19.4140  -33.2340 C   0  0  0  0  0  0  0  0  0  0  0  0
   -4.4880   18.8890  -33.8080 C   0  0  0  0  0  0  0  0  0  0  0  0
   -4.3170   17.5560  -34.1010 C   0  0  0  0  0  0  0  0  0  0  0  0
   -5.3470   16.6980  -33.8040 C   0  0  0  0  0  0  0  0  0  0  0  0
   -6.5130   17.2110  -33.2230 C   0  0  0  0  0  0  0  0  0  0  0  0
   -6.6590   18.5510  -32.9380 C   0  0  0  0  0  0  0  0  0  0  0  0
   -7.7760   19.0210  -32.3850 N   0  0  0  0  0  0  0  0  0  0  0  0
   -8.8990   18.1810  -32.0340 C   0  0  0  0  0  0  0  0  0  0  0  0
   -7.8890   20.3380  -32.1200 C   0  0  0  0  0  0  0  0  0  0  0  0
   -9.0670   20.7690  -31.5490 C   0  0  0  0  0  0  0  0  0  0  0  0
   -9.2110   22.1040  -31.2650 C   0  0  0  0  0  0  0  0  0  0  0  0
   -8.1980   22.9680  -31.5490 C   0  0  0  0  0  0  0  0  0  0  0  0
   -6.9810   22.5870  -32.1290 C   0  0  0  0  0  0  0  0  0  0  0  0
   -5.9970   23.5620  -32.3130 N   0  0  0  0  0  0  0  0  0  0  0  0
   -5.8610   24.5580  -31.2220 C   0  0  0  0  0  0  0  0  0  0  0  0
   -4.5800   24.3840  -30.4520 C   0  0  0  0  0  0  0  0  0  0  0  0
   -4.7090   23.4450  -29.3070 C   0  0  0  0  0  0  0  0  0  0  0  0
   -3.4830   22.7640  -28.9610 N   0  0  0  0  0  0  0  0  0  0  0  0
   -2.2760   23.1920  -29.4110 C   0  0  0  0  0  0  0  0  0  0  0  0
   -1.0990   22.5760  -29.1100 C   0  0  0  0  0  0  0  0  0  0  0  0
   -1.1360   21.4540  -28.3030 C   0  0  0  0  0  0  0  0  0  0  0  0
   -2.3400   20.9890  -27.8260 C   0  0  0  0  0  0  0  0  0  0  0  0
   -2.3320   19.7810  -26.9630 C   0  0  0  0  0  0  0  0  0  0  0  0
   -3.4810   21.6680  -28.1770 C   0  0  0  0  0  0  0  0  0  0  0  0
   -6.8620   21.2480  -32.4070 C   0  0  0  0  0  0  0  0  0  0  0  0
    0.5417   22.6762  -34.8691 H   0  0  0  0  0  0  0  0  0  0  0  0
    1.1744   21.7590  -36.2781 H   0  0  0  0  0  0  0  0  0  0  0  0
   -0.5229   22.3472  -36.2781 H   0  0  0  0  0  0  0  0  0  0  0  0
   -0.3574   19.9332  -35.8151 H   0  0  0  0  0  0  0  0  0  0  0  0
    0.6541   20.3430  -34.3451 H   0  0  0  0  0  0  0  0  0  0  0  0
   -1.9950   21.4720  -34.6730 H   0  0  0  0  0  0  0  0  0  0  0  0
   -0.0428   21.2001  -32.6575 H   0  0  0  0  0  0  0  0  0  0  0  0
   -1.6003   22.1356  -32.6876 H   0  0  0  0  0  0  0  0  0  0  0  0
   -1.8129   19.1707  -32.3490 H   0  0  0  0  0  0  0  0  0  0  0  0
   -1.1518   20.0834  -30.9664 H   0  0  0  0  0  0  0  0  0  0  0  0
   -3.8291   19.8262  -31.7423 H   0  0  0  0  0  0  0  0  0  0  0  0
   -3.0791   20.9896  -30.5136 H   0  0  0  0  0  0  0  0  0  0  0  0
   -4.0745   22.5335  -31.6204 H   0  0  0  0  0  0  0  0  0  0  0  0
   -2.7295   22.2462  -32.8401 H   0  0  0  0  0  0  0  0  0  0  0  0
   -4.4580   21.8720  -34.3700 H   0  0  0  0  0  0  0  0  0  0  0  0
   -3.6650   19.5796  -34.0441 H   0  0  0  0  0  0  0  0  0  0  0  0
   -3.3860   17.1895  -34.5581 H   0  0  0  0  0  0  0  0  0  0  0  0
   -5.2574   15.6230  -34.0194 H   0  0  0  0  0  0  0  0  0  0  0  0
   -7.3380   16.5229  -32.9868 H   0  0  0  0  0  0  0  0  0  0  0  0
   -8.9822   18.1188  -30.9389 H   0  0  0  0  0  0  0  0  0  0  0  0
   -9.8226   18.6117  -32.4480 H   0  0  0  0  0  0  0  0  0  0  0  0
   -8.7467   17.1733  -32.4480 H   0  0  0  0  0  0  0  0  0  0  0  0
   -9.8755   20.0574  -31.3254 H   0  0  0  0  0  0  0  0  0  0  0  0
  -10.1413   22.4744  -30.8097 H   0  0  0  0  0  0  0  0  0  0  0  0
   -8.3441   24.0313  -31.3081 H   0  0  0  0  0  0  0  0  0  0  0  0
   -5.3220   23.7230  -33.0550 H   0  0  0  0  0  0  0  0  0  0  0  0
   -5.8775   25.5672  -31.6592 H   0  0  0  0  0  0  0  0  0  0  0  0
   -6.6981   24.4113  -30.5237 H   0  0  0  0  0  0  0  0  0  0  0  0
   -3.8103   23.9975  -31.1363 H   0  0  0  0  0  0  0  0  0  0  0  0
   -4.3097   25.3674  -30.0399 H   0  0  0  0  0  0  0  0  0  0  0  0
   -5.0469   24.0152  -28.4291 H   0  0  0  0  0  0  0  0  0  0  0  0
   -5.4269   22.6696  -29.6124 H   0  0  0  0  0  0  0  0  0  0  0  0
   -2.2468   24.0844  -30.0534 H   0  0  0  0  0  0  0  0  0  0  0  0
   -0.1446   22.9609  -29.4986 H   0  0  0  0  0  0  0  0  0  0  0  0
   -0.2029   20.9330  -28.0423 H   0  0  0  0  0  0  0  0  0  0  0  0
   -2.3340   20.0855  -25.9060 H   0  0  0  0  0  0  0  0  0  0  0  0
   -3.2262   19.1753  -27.1718 H   0  0  0  0  0  0  0  0  0  0  0  0
   -1.4299   19.1872  -27.1718 H   0  0  0  0  0  0  0  0  0  0  0  0
   -4.4448   21.2974  -27.7979 H   0  0  0  0  0  0  0  0  0  0  0  0
  1  2  1  0
  2  3  1  0
  3  4  1  0
  4  5  1  0
  5  6  1  0
  6  7  1  0
  7  8  1  0
  8  9  1  0
  9 10  2  0
 10 11  1  0
 11 12  2  0
 12 13  1  0
 13 14  2  0
 14 15  1  0
 15 16  2  0
 16 17  1  0
 16 18  1  0
 18 19  2  0
 19 20  1  0
 20 21  2  0
 21 22  1  0
 22 23  1  0
 23 24  1  0
 24 25  1  0
 25 26  1  0
 26 27  1  0
 27 28  2  0
 28 29  1  0
 29 30  2  0
 30 31  1  0
 31 32  1  0
 31 33  2  0
 22 34  2  0
 34  9  1  0
 15 10  1  0
 34 18  1  0
 33 27  1  0
  1 35  1  0
  1 36  1  0
  1 37  1  0
  2 38  1  0
  2 39  1  0
  3 40  1  0
  4 41  1  0
  4 42  1  0
  5 43  1  0
  5 44  1  0
  6 45  1  0
  6 46  1  0
  7 47  1  0
  7 48  1  0
  8 49  1  0
 11 50  1  0
 12 51  1  0
 13 52  1  0
 14 53  1  0
 17 54  1  0
 17 55  1  0
 17 56  1  0
 19 57  1  0
 20 58  1  0
 21 59  1  0
 23 60  1  0
 24 61  1  0
 24 62  1  0
 25 63  1  0
 25 64  1  0
 26 65  1  0
 26 66  1  0
 28 67  1  0
 29 68  1  0
 30 69  1  0
 32 70  1  0
 32 71  1  0
 32 72  1  0
 33 73  1  0
M  CHG  2  16   1  27   1
M  END
>  <smiles>  (14) 
CCNCCCCNc1c2ccccc2[n+](C)c2cccc(NCCC[n+]3cccc(C)c3)c12

>  <score_type>  (14) 
oracle

>  <origin>  (14) 
adg

>  <m_score__min__energy>  (14) 
-10.42

>  <m_primary>  (14) 
energy

$$$$
15:0
     RDKit          3D

 53 55  0  0  1  0  0  0  0  0999 V2000
   -5.2710   18.4110  -34.4520 C   0  0  0  0  0  0  0  0  0  0  0  0
   -4.7970   18.3730  -33.0410 C   0  0  0  0  0  0  0  0  0  0  0  0
   -5.4720   19.2440  -32.1910 O   0  0  0  0  0  0  0  0  0  0  0  0
   -6.7730   19.6030  -32.1650 C   0  0  0  0  0  0  0  0  0  0  0  0
   -7.7210   18.5750  -32.3020 C   0  0  0  0  0  0  0  0  0  0  0  0
   -9.0570   18.8190  -32.2930 C   0  0  0  0  0  0  0  0  0  0  0  0
   -9.4810   20.1180  -32.1460 C   0  0  0  0  0  0  0  0  0  0  0  0
   -8.5480   21.1210  -32.0110 C   0  0  0  0  0  0  0  0  0  0  0  0
   -9.0100   22.3990  -31.8830 C   0  0  0  0  0  0  0  0  0  0  0  0
   -8.0820   23.4000  -31.7630 C   0  0  0  0  0  0  0  0  0  0  0  0
   -6.7310   23.2310  -31.7590 C   0  0  0  0  0  0  0  0  0  0  0  0
   -5.7370   24.2550  -31.5560 C   0  0  0  0  0  0  0  0  0  0  0  0
   -5.2810   24.7260  -30.4490 C   0  0  0  0  0  0  0  0  0  0  0  0
   -4.4400   24.0910  -29.4690 C   0  0  0  0  0  0  0  0  0  0  0  0
   -3.1330   24.5170  -29.3800 C   0  0  0  0  0  0  0  0  0  0  0  0
   -2.2280   23.8970  -28.5550 C   0  0  0  0  0  0  0  0  0  0  0  0
   -2.5540   22.8150  -27.7650 C   0  0  0  0  0  0  0  0  0  0  0  0
   -1.5710   22.2160  -26.9290 N   0  0  0  0  0  0  0  0  0  0  0  0
   -1.6140   20.7710  -26.7850 C   0  0  0  0  0  0  0  0  0  0  0  0
   -0.5810   23.0430  -26.2640 C   0  0  0  0  0  0  0  0  0  0  0  0
   -3.8570   22.3740  -27.8420 C   0  0  0  0  0  0  0  0  0  0  0  0
   -4.7810   23.0070  -28.6860 C   0  0  0  0  0  0  0  0  0  0  0  0
   -6.2880   21.9400  -31.8890 N   0  0  0  0  0  0  0  0  0  0  0  0
   -4.8780   21.6190  -31.8480 C   0  0  0  0  0  0  0  0  0  0  0  0
   -4.1180   21.8640  -33.0930 C   0  0  0  0  0  0  0  0  0  0  0  0
   -7.1860   20.9170  -32.0140 C   0  0  0  0  0  0  0  0  0  0  0  0
   -6.3674   18.4989  -34.4683 H   0  0  0  0  0  0  0  0  0  0  0  0
   -4.8261   19.2764  -34.9651 H   0  0  0  0  0  0  0  0  0  0  0  0
   -4.9697   17.4858  -34.9651 H   0  0  0  0  0  0  0  0  0  0  0  0
   -4.9269   17.3491  -32.6605 H   0  0  0  0  0  0  0  0  0  0  0  0
   -3.7444   18.6922  -33.0514 H   0  0  0  0  0  0  0  0  0  0  0  0
   -7.3698   17.5393  -32.4203 H   0  0  0  0  0  0  0  0  0  0  0  0
   -9.7811   17.9980  -32.4006 H   0  0  0  0  0  0  0  0  0  0  0  0
  -10.5554   20.3539  -32.1363 H   0  0  0  0  0  0  0  0  0  0  0  0
  -10.0881   22.6174  -31.8764 H   0  0  0  0  0  0  0  0  0  0  0  0
   -8.4608   24.4277  -31.6612 H   0  0  0  0  0  0  0  0  0  0  0  0
   -5.3109   24.6927  -32.4708 H   0  0  0  0  0  0  0  0  0  0  0  0
   -5.5757   25.7605  -30.2191 H   0  0  0  0  0  0  0  0  0  0  0  0
   -2.8064   25.3755  -29.9852 H   0  0  0  0  0  0  0  0  0  0  0  0
   -1.1974   24.2802  -28.5227 H   0  0  0  0  0  0  0  0  0  0  0  0
   -1.6218   20.5091  -25.7167 H   0  0  0  0  0  0  0  0  0  0  0  0
   -2.5241   20.3816  -27.2646 H   0  0  0  0  0  0  0  0  0  0  0  0
   -0.7286   20.3282  -27.2646 H   0  0  0  0  0  0  0  0  0  0  0  0
   -0.6956   22.9473  -25.1742 H   0  0  0  0  0  0  0  0  0  0  0  0
    0.4273   22.7150  -26.5569 H   0  0  0  0  0  0  0  0  0  0  0  0
   -0.7243   24.0936  -26.5569 H   0  0  0  0  0  0  0  0  0  0  0  0
   -4.1765   21.5148  -27.2340 H   0  0  0  0  0  0  0  0  0  0  0  0
   -5.8124   22.6266  -28.7252 H   0  0  0  0  0  0  0  0  0  0  0  0
   -4.4193   22.2216  -31.0502 H   0  0  0  0  0  0  0  0  0  0  0  0
   -4.8271   20.5331  -31.6799 H   0  0  0  0  0  0  0  0  0  0  0  0
   -3.0987   22.1926  -32.8417 H   0  0  0  0  0  0  0  0  0  0  0  0
   -4.0695   20.9360  -33.6816 H   0  0  0  0  0  0  0  0  0  0  0  0
   -4.6206   22.6456  -33.6816 H   0  0  0  0  0  0  0  0  0  0  0  0
  1  2  1  0
  2  3  1  0
  3  4  1  0
  4  5  2  0
  5  6  1  0
  6  7  2  0
  7  8  1  0
  8  9  2  0
  9 10  1  0
 10 11  2  0
 11 12  1  0
 12 13  2  0
 13 14  1  0
 14 15  2  0
 15 16  1  0
 16 17  2  0
 17 18  1  0
 18 19  1  0
 18 20  1  0
 17 21  1  0
 21 22  2  0
 11 23  1  0
 23 24  1  0
 24 25  1  0
 23 26  2  0
 26  4  1  0
 26  8  1  0
 22 14  1  0
  1 27  1  0
  1 28  1  0
  1 29  1  0
  2 30  1  0
  2 31  1  0
  5 32  1  0
  6 33  1  0
  7 34  1  0
  9 35  1  0
 10 36  1  0
 12 37  1  0
 13 38  1  0
 15 39  1  0
 16 40  1  0
 19 41  1  0
 19 42  1  0
 19 43  1  0
 20 44  1  0
 20 45  1  0
 20 46  1  0
 21 47  1  0
 22 48  1  0
 24 49  1  0
 24 50  1  0
 25 51  1  0
 25 52  1  0
 25 53  1  0
M  CHG  1  23   1
M  END
>  <smiles>  (15) 
CCOc1cccc2ccc(C=Cc3ccc(N(C)C)cc3)[n+](CC)c12

>  <score_type>  (15) 
oracle

>  <origin>  (15) 
adg

>  <m_score__min__energy>  (15) 
-7.6799999999999997

>  <m_primary>  (15) 
energy

$$$$
16:0
     RDKit          3D

 78 82  0  0  0  0  0  0  0  0999 V2000
   -2.4620   19.7440  -27.0020 C   0  0  0  0  0  0  0  0  0  0  0  0
   -2.5130   20.8910  -28.0200 C   0  0  0  0  0  0  0  0  0  0  0  0
   -1.5900   20.4560  -29.1690 C   0  0  0  0  0  0  0  0  0  0  0  0
   -1.9300   22.1190  -27.4480 C   0  0  0  0  0  0  0  0  0  0  0  0
   -1.0320   22.0140  -26.3910 C   0  0  0  0  0  0  0  0  0  0  0  0
   -0.4600   23.1140  -25.7880 C   0  0  0  0  0  0  0  0  0  0  0  0
   -0.7890   24.3740  -26.2480 C   0  0  0  0  0  0  0  0  0  0  0  0
   -1.6790   24.4700  -27.2950 C   0  0  0  0  0  0  0  0  0  0  0  0
   -2.2580   23.3730  -27.9080 C   0  0  0  0  0  0  0  0  0  0  0  0
   -3.1370   23.6280  -28.9820 N   0  0  0  0  0  0  0  0  0  0  0  0
   -2.8230   23.3840  -30.3780 C   0  0  0  0  0  0  0  0  0  0  0  0
   -4.0850   22.9870  -31.1200 C   0  0  0  0  0  0  0  0  0  0  0  0
   -4.9880   24.1250  -31.1710 N   0  0  0  0  0  0  0  0  0  0  0  0
   -6.2560   23.7700  -31.6990 C   0  0  0  0  0  0  0  0  0  0  0  0
   -7.3280   23.5020  -30.6750 C   0  0  0  0  0  0  0  0  0  0  0  0
   -7.8630   22.0910  -30.7930 C   0  0  0  0  0  0  0  0  0  0  0  0
   -8.6510   21.8800  -32.0560 C   0  0  0  0  0  0  0  0  0  0  0  0
   -8.3670   20.5530  -32.7160 C   0  0  0  0  0  0  0  0  0  0  0  0
   -8.0930   19.4650  -31.7670 C   0  0  0  0  0  0  0  0  0  0  0  0
   -8.9240   18.9580  -30.9760 O   0  0  0  0  0  0  0  0  0  0  0  0
   -6.7650   18.9020  -31.7080 N   0  0  0  0  0  0  0  0  0  0  0  0
   -6.6050   17.4480  -31.7090 C   0  0  0  0  0  0  0  0  0  0  0  0
   -5.8010   17.0170  -32.9160 C   0  0  0  0  0  0  0  0  0  0  0  0
   -4.6580   17.9400  -33.1590 C   0  0  0  0  0  0  0  0  0  0  0  0
   -4.5820   19.1660  -32.5730 C   0  0  0  0  0  0  0  0  0  0  0  0
   -3.3870   19.7230  -33.0370 C   0  0  0  0  0  0  0  0  0  0  0  0
   -2.7360   20.9220  -32.8270 C   0  0  0  0  0  0  0  0  0  0  0  0
   -1.5270   21.1640  -33.4600 C   0  0  0  0  0  0  0  0  0  0  0  0
   -0.9300   20.2510  -34.3060 C   0  0  0  0  0  0  0  0  0  0  0  0
   -1.5810   19.0510  -34.5170 C   0  0  0  0  0  0  0  0  0  0  0  0
   -2.7800   18.8150  -33.8860 C   0  0  0  0  0  0  0  0  0  0  0  0
   -3.5830   17.7330  -33.9410 N   0  0  0  0  0  0  0  0  0  0  0  0
   -3.3050   16.5310  -34.7350 C   0  0  0  0  0  0  0  0  0  0  0  0
   -5.5820   19.7390  -31.6510 C   0  0  0  0  0  0  0  0  0  0  0  0
   -4.9570   24.9240  -29.9990 C   0  0  0  0  0  0  0  0  0  0  0  0
   -4.4880   24.1720  -28.7440 C   0  0  0  0  0  0  0  0  0  0  0  0
   -2.4804   20.1573  -25.9828 H   0  0  0  0  0  0  0  0  0  0  0  0
   -3.3318   19.0863  -27.1467 H   0  0  0  0  0  0  0  0  0  0  0  0
   -1.5373   19.1661  -27.1467 H   0  0  0  0  0  0  0  0  0  0  0  0
   -3.5506   21.0905  -28.3260 H   0  0  0  0  0  0  0  0  0  0  0  0
   -0.6683   20.0216  -28.7545 H   0  0  0  0  0  0  0  0  0  0  0  0
   -2.1034   19.7051  -29.7875 H   0  0  0  0  0  0  0  0  0  0  0  0
   -1.3376   21.3299  -29.7875 H   0  0  0  0  0  0  0  0  0  0  0  0
   -0.7674   21.0124  -26.0211 H   0  0  0  0  0  0  0  0  0  0  0  0
    0.2468   22.9901  -24.9543 H   0  0  0  0  0  0  0  0  0  0  0  0
   -0.3530   25.2748  -25.7915 H   0  0  0  0  0  0  0  0  0  0  0  0
   -1.9435   25.4722  -27.6634 H   0  0  0  0  0  0  0  0  0  0  0  0
   -2.4075   24.2990  -30.8254 H   0  0  0  0  0  0  0  0  0  0  0  0
   -2.0850   22.5716  -30.4505 H   0  0  0  0  0  0  0  0  0  0  0  0
   -3.8276   22.6755  -32.1431 H   0  0  0  0  0  0  0  0  0  0  0  0
   -4.5732   22.1512  -30.5975 H   0  0  0  0  0  0  0  0  0  0  0  0
   -6.5989   24.5938  -32.3423 H   0  0  0  0  0  0  0  0  0  0  0  0
   -6.1066   22.8227  -32.2378 H   0  0  0  0  0  0  0  0  0  0  0  0
   -6.9052   23.6417  -29.6691 H   0  0  0  0  0  0  0  0  0  0  0  0
   -8.1575   24.2029  -30.8501 H   0  0  0  0  0  0  0  0  0  0  0  0
   -7.0153   21.3900  -30.7843 H   0  0  0  0  0  0  0  0  0  0  0  0
   -8.5392   21.9168  -29.9430 H   0  0  0  0  0  0  0  0  0  0  0  0
   -9.7226   21.9275  -31.8122 H   0  0  0  0  0  0  0  0  0  0  0  0
   -8.3543   22.6684  -32.7634 H   0  0  0  0  0  0  0  0  0  0  0  0
   -9.2414   20.2728  -33.3217 H   0  0  0  0  0  0  0  0  0  0  0  0
   -7.4591   20.6849  -33.3229 H   0  0  0  0  0  0  0  0  0  0  0  0
   -6.0809   17.1385  -30.7927 H   0  0  0  0  0  0  0  0  0  0  0  0
   -7.5975   16.9754  -31.7486 H   0  0  0  0  0  0  0  0  0  0  0  0
   -5.4126   16.0022  -32.7447 H   0  0  0  0  0  0  0  0  0  0  0  0
   -6.4584   17.0369  -33.7977 H   0  0  0  0  0  0  0  0  0  0  0  0
   -3.1740   21.6805  -32.1615 H   0  0  0  0  0  0  0  0  0  0  0  0
   -1.0217   22.1244  -33.2806 H   0  0  0  0  0  0  0  0  0  0  0  0
    0.0304   20.4713  -34.7950 H   0  0  0  0  0  0  0  0  0  0  0  0
   -1.1448   18.2919  -35.1830 H   0  0  0  0  0  0  0  0  0  0  0  0
   -3.1091   15.6838  -34.0613 H   0  0  0  0  0  0  0  0  0  0  0  0
   -4.1738   16.3016  -35.3695 H   0  0  0  0  0  0  0  0  0  0  0  0
   -2.4237   16.7064  -35.3695 H   0  0  0  0  0  0  0  0  0  0  0  0
   -5.1821   19.7532  -30.6264 H   0  0  0  0  0  0  0  0  0  0  0  0
   -5.8263   20.7716  -31.9410 H   0  0  0  0  0  0  0  0  0  0  0  0
   -4.2727   25.7675  -30.1731 H   0  0  0  0  0  0  0  0  0  0  0  0
   -5.9900   25.2501  -29.8079 H   0  0  0  0  0  0  0  0  0  0  0  0
   -4.4610   24.8636  -27.8891 H   0  0  0  0  0  0  0  0  0  0  0  0
   -5.1845   23.3496  -28.5236 H   0  0  0  0  0  0  0  0  0  0  0  0
  1  2  1  0
  2  3  1  0
  2  4  1  0
  4  5  2  0
  5  6  1  0
  6  7  2  0
  7  8  1  0
  8  9  2  0
  9 10  1  0
 10 11  1  0
 11 12  1  0
 12 13  1  0
 13 14  1  0
 14 15  1  0
 15 16  1  0
 16 17  1  0
 17 18  1  0
 18 19  1  0
 19 20  2  0
 19 21  1  0
 21 22  1  0
 22 23  1  0
 23 24  1  0
 24 25  2  0
 25 26  1  0
 26 27  2  0
 27 28  1  0
 28 29  2  0
 29 30  1  0
 30 31  2  0
 31 32  1  0
 32 33  1  0
 25 34  1  0
 13 35  1  0
 35 36  1  0
  9  4  1  0
 36 10  1  0
 34 21  1  0
 32 24  1  0
 31 26  1  0
  1 37  1  0
  1 38  1  0
  1 39  1  0
  2 40  1  0
  3 41  1  0
  3 42  1  0
  3 43  1  0
  5 44  1  0
  6 45  1  0
  7 46  1  0
  8 47  1  0
 11 48  1  0
 11 49  1  0
 12 50  1  0
 12 51  1  0
 14 52  1  0
 14 53  1  0
 15 54  1  0
 15 55  1  0
 16 56  1  0
 16 57  1  0
 17 58  1  0
 17 59  1  0
 18 60  1  0
 18 61  1  0
 22 62  1  0
 22 63  1  0
 23 64  1  0
 23 65  1  0
 27 66  1  0
 28 67  1  0
 29 68  1  0
 30 69  1  0
 33 70  1  0
 33 71  1  0
 33 72  1  0
 34 73  1  0
 34 74  1  0
 35 75  1  0
 35 76  1  0
 36 77  1  0
 36 78  1  0
M  END
>  <smiles>  (16) 
CC(C)c1ccccc1N1CCN(CCCCCC(=O)N2CCc3c(c4ccccc4n3C)C2)CC1

>  <score_type>  (16) 
oracle

>  <origin>  (16) 
adg

>  <m_score__min__energy>  (16) 
-10.83

>  <m_primary>  (16) 
energy

$$$$
17:0
     RDKit          3D

 50 52  0  0  0  0  0  0  0  0999 V2000
   -4.1610   24.1720  -27.9500 C   0  0  0  0  0  0  0  0  0  0  0  0
   -4.1990   22.6830  -28.0850 C   0  0  0  0  0  0  0  0  0  0  0  0
   -3.1560   22.1400  -28.9390 N   0  0  0  0  0  0  0  0  0  0  0  0
   -2.7690   20.8040  -28.5070 C   0  0  0  0  0  0  0  0  0  0  0  0
   -2.0040   23.0200  -29.0020 C   0  0  0  0  0  0  0  0  0  0  0  0
   -0.8650   22.1680  -29.5420 C   0  0  0  0  0  0  0  0  0  0  0  0
   -0.7630   22.2930  -30.9180 O   0  0  0  0  0  0  0  0  0  0  0  0
   -0.5430   21.0860  -31.5750 C   0  0  0  0  0  0  0  0  0  0  0  0
   -1.0590   21.1460  -33.0030 C   0  0  0  0  0  0  0  0  0  0  0  0
   -2.5320   20.8920  -33.0690 C   0  0  0  0  0  0  0  0  0  0  0  0
   -3.2310   21.2880  -31.8590 N   0  0  0  0  0  0  0  0  0  0  0  0
   -4.6260   21.5540  -31.8560 C   0  0  0  0  0  0  0  0  0  0  0  0
   -5.5990   20.6360  -32.1410 C   0  0  0  0  0  0  0  0  0  0  0  0
   -5.2260   19.3390  -32.4550 C   0  0  0  0  0  0  0  0  0  0  0  0
   -6.2200   18.4030  -32.7420 C   0  0  0  0  0  0  0  0  0  0  0  0
   -7.5620   18.7890  -32.7080 C   0  0  0  0  0  0  0  0  0  0  0  0
   -7.9170   20.0930  -32.3930 C   0  0  0  0  0  0  0  0  0  0  0  0
   -6.9250   21.0050  -32.1110 C   0  0  0  0  0  0  0  0  0  0  0  0
   -7.2840   22.2990  -31.7950 C   0  0  0  0  0  0  0  0  0  0  0  0
   -8.6540   22.7290  -31.7550 N   0  0  0  0  0  0  0  0  0  0  0  0
   -9.0010   23.7340  -32.4320 O   0  0  0  0  0  0  0  0  0  0  0  0
   -9.5930   22.0530  -30.9790 O   0  0  0  0  0  0  0  0  0  0  0  0
   -6.3210   23.2400  -31.5050 C   0  0  0  0  0  0  0  0  0  0  0  0
   -6.3090   24.5470  -31.1670 N   0  0  0  0  0  0  0  0  0  0  0  0
   -5.0800   24.9380  -31.0060 O   0  0  0  0  0  0  0  0  0  0  0  0
   -4.2480   23.9560  -31.2180 N   0  0  0  0  0  0  0  0  0  0  0  0
   -4.9870   22.8660  -31.5360 C   0  0  0  0  0  0  0  0  0  0  0  0
   -4.1541   24.4435  -26.8840 H   0  0  0  0  0  0  0  0  0  0  0  0
   -3.2526   24.5609  -28.4333 H   0  0  0  0  0  0  0  0  0  0  0  0
   -5.0483   24.6068  -28.4333 H   0  0  0  0  0  0  0  0  0  0  0  0
   -4.0902   22.2420  -27.0832 H   0  0  0  0  0  0  0  0  0  0  0  0
   -5.1601   22.4307  -28.5569 H   0  0  0  0  0  0  0  0  0  0  0  0
   -2.7572   20.7631  -27.4078 H   0  0  0  0  0  0  0  0  0  0  0  0
   -3.4915   20.0700  -28.8935 H   0  0  0  0  0  0  0  0  0  0  0  0
   -1.7661   20.5698  -28.8935 H   0  0  0  0  0  0  0  0  0  0  0  0
   -2.2037   23.8657  -29.6765 H   0  0  0  0  0  0  0  0  0  0  0  0
   -1.7622   23.4439  -28.0162 H   0  0  0  0  0  0  0  0  0  0  0  0
    0.0786   22.4936  -29.0799 H   0  0  0  0  0  0  0  0  0  0  0  0
   -1.0685   21.1146  -29.2991 H   0  0  0  0  0  0  0  0  0  0  0  0
    0.5366   20.8755  -31.5904 H   0  0  0  0  0  0  0  0  0  0  0  0
   -1.0812   20.2902  -31.0392 H   0  0  0  0  0  0  0  0  0  0  0  0
   -0.8502   22.1439  -33.4161 H   0  0  0  0  0  0  0  0  0  0  0  0
   -0.5493   20.3644  -33.5855 H   0  0  0  0  0  0  0  0  0  0  0  0
   -2.9478   21.4584  -33.9153 H   0  0  0  0  0  0  0  0  0  0  0  0
   -2.6738   19.8080  -33.1911 H   0  0  0  0  0  0  0  0  0  0  0  0
   -2.7440   21.3990  -30.9280 H   0  0  0  0  0  0  0  0  0  0  0  0
   -4.1643   19.0522  -32.4776 H   0  0  0  0  0  0  0  0  0  0  0  0
   -5.9485   17.3671  -32.9936 H   0  0  0  0  0  0  0  0  0  0  0  0
   -8.3461   18.0512  -32.9334 H   0  0  0  0  0  0  0  0  0  0  0  0
   -8.9749   20.3934  -32.3690 H   0  0  0  0  0  0  0  0  0  0  0  0
  1  2  1  0
  2  3  1  0
  3  4  1  0
  3  5  1  0
  5  6  1  0
  6  7  1  0
  7  8  1  0
  8  9  1  0
  9 10  1  0
 10 11  1  0
 11 12  1  0
 12 13  2  0
 13 14  1  0
 14 15  2  0
 15 16  1  0
 16 17  2  0
 17 18  1  0
 18 19  2  0
 19 20  1  0
 20 21  2  0
 20 22  1  0
 19 23  1  0
 23 24  2  0
 24 25  1  0
 25 26  1  0
 26 27  2  0
 27 12  1  0
 18 13  1  0
 27 23  1  0
  1 28  1  0
  1 29  1  0
  1 30  1  0
  2 31  1  0
  2 32  1  0
  4 33  1  0
  4 34  1  0
  4 35  1  0
  5 36  1  0
  5 37  1  0
  6 38  1  0
  6 39  1  0
  8 40  1  0
  8 41  1  0
  9 42  1  0
  9 43  1  0
 10 44  1  0
 10 45  1  0
 11 46  1  0
 14 47  1  0
 15 48  1  0
 16 49  1  0
 17 50  1  0
M  CHG  2  20   1  22  -1
M  END
>  <smiles>  (17) 
CCN(C)CCOCCCNc1c2ccccc2c([N+](=O)[O-])c2nonc12

>  <score_type>  (17) 
oracle

>  <origin>  (17) 
adg

>  <m_score__min__energy>  (17) 
-9.5399999999999991

>  <m_primary>  (17) 
energy

$$$$
19:0
     RDKit          3D

 52 54  0  0  0  0  0  0  0  0999 V2000
   -8.2430   18.3820  -31.5910 C   0  0  0  0  0  0  0  0  0  0  0  0
   -9.1150   19.5860  -31.8140 C   0  0  0  0  0  0  0  0  0  0  0  0
   -8.6300   20.7650  -31.0970 N   0  0  0  0  0  0  0  0  0  0  0  0
   -8.8670   21.8890  -31.9650 C   0  0  0  0  0  0  0  0  0  0  0  0
   -8.0940   23.1180  -31.6680 C   0  0  0  0  0  0  0  0  0  0  0  0
   -6.6820   22.9710  -31.7720 N   0  0  0  0  0  0  0  0  0  0  0  0
   -5.7450   23.8130  -31.3220 C   0  0  0  0  0  0  0  0  0  0  0  0
   -5.8540   25.1070  -30.6160 C   0  0  0  0  0  0  0  0  0  0  0  0
   -5.3110   25.1150  -29.2810 N   0  0  0  0  0  0  0  0  0  0  0  0
   -4.2480   24.1810  -28.9830 C   0  0  0  0  0  0  0  0  0  0  0  0
   -4.5150   22.9640  -28.3920 C   0  0  0  0  0  0  0  0  0  0  0  0
   -3.4950   22.0660  -28.1110 C   0  0  0  0  0  0  0  0  0  0  0  0
   -2.1960   22.3720  -28.4170 C   0  0  0  0  0  0  0  0  0  0  0  0
   -1.1340   21.3810  -28.1000 C   0  0  0  0  0  0  0  0  0  0  0  0
   -1.9110   23.5960  -29.0130 C   0  0  0  0  0  0  0  0  0  0  0  0
   -2.9310   24.4940  -29.2940 C   0  0  0  0  0  0  0  0  0  0  0  0
   -4.5260   23.2750  -31.6380 N   0  0  0  0  0  0  0  0  0  0  0  0
   -4.6890   22.1020  -32.2820 C   0  0  0  0  0  0  0  0  0  0  0  0
   -3.7680   21.2200  -32.7840 C   0  0  0  0  0  0  0  0  0  0  0  0
   -2.3280   21.5430  -32.6320 C   0  0  0  0  0  0  0  0  0  0  0  0
   -4.2210   20.0790  -33.4070 C   0  0  0  0  0  0  0  0  0  0  0  0
   -5.5900   19.9010  -33.4840 C   0  0  0  0  0  0  0  0  0  0  0  0
   -6.0940   18.6700  -34.1560 C   0  0  0  0  0  0  0  0  0  0  0  0
   -6.4720   20.7930  -32.9780 N   0  0  0  0  0  0  0  0  0  0  0  0
   -6.0540   21.9240  -32.3590 C   0  0  0  0  0  0  0  0  0  0  0  0
   -8.1205   18.2129  -30.5110 H   0  0  0  0  0  0  0  0  0  0  0  0
   -8.7126   17.4992  -32.0494 H   0  0  0  0  0  0  0  0  0  0  0  0
   -7.2578   18.5528  -32.0494 H   0  0  0  0  0  0  0  0  0  0  0  0
   -9.1377   19.8115  -32.8904 H   0  0  0  0  0  0  0  0  0  0  0  0
  -10.1187   19.3493  -31.4310 H   0  0  0  0  0  0  0  0  0  0  0  0
   -7.5670   20.6310  -31.1240 H   0  0  0  0  0  0  0  0  0  0  0  0
   -8.6223   21.5782  -32.9914 H   0  0  0  0  0  0  0  0  0  0  0  0
   -9.9222   22.1607  -31.8143 H   0  0  0  0  0  0  0  0  0  0  0  0
   -8.4101   23.9007  -32.3733 H   0  0  0  0  0  0  0  0  0  0  0  0
   -8.3040   23.3717  -30.6184 H   0  0  0  0  0  0  0  0  0  0  0  0
   -5.3198   25.8654  -31.2072 H   0  0  0  0  0  0  0  0  0  0  0  0
   -6.9295   25.3143  -30.5140 H   0  0  0  0  0  0  0  0  0  0  0  0
   -5.6230   25.7330  -28.5060 H   0  0  0  0  0  0  0  0  0  0  0  0
   -5.5528   22.7009  -28.1394 H   0  0  0  0  0  0  0  0  0  0  0  0
   -3.7319   21.1011  -27.6389 H   0  0  0  0  0  0  0  0  0  0  0  0
   -1.0338   21.2875  -27.0086 H   0  0  0  0  0  0  0  0  0  0  0  0
   -1.4040   20.4045  -28.5284 H   0  0  0  0  0  0  0  0  0  0  0  0
   -0.1785   21.7178  -28.5284 H   0  0  0  0  0  0  0  0  0  0  0  0
   -0.8712   23.8536  -29.2630 H   0  0  0  0  0  0  0  0  0  0  0  0
   -2.6951   25.4593  -29.7658 H   0  0  0  0  0  0  0  0  0  0  0  0
   -2.0758   21.5996  -31.5628 H   0  0  0  0  0  0  0  0  0  0  0  0
   -1.7237   20.7581  -33.1102 H   0  0  0  0  0  0  0  0  0  0  0  0
   -2.1168   22.5108  -33.1102 H   0  0  0  0  0  0  0  0  0  0  0  0
   -3.5228   19.3396  -33.8262 H   0  0  0  0  0  0  0  0  0  0  0  0
   -6.3952   17.9344  -33.3957 H   0  0  0  0  0  0  0  0  0  0  0  0
   -6.9606   18.9238  -34.7842 H   0  0  0  0  0  0  0  0  0  0  0  0
   -5.2982   18.2432  -34.7842 H   0  0  0  0  0  0  0  0  0  0  0  0
  1  2  1  0
  2  3  1  0
  3  4  1  0
  4  5  1  0
  5  6  1  0
  6  7  1  0
  7  8  1  0
  8  9  1  0
  9 10  1  0
 10 11  2  0
 11 12  1  0
 12 13  2  0
 13 14  1  0
 13 15  1  0
 15 16  2  0
  7 17  2  0
 17 18  1  0
 18 19  2  0
 19 20  1  0
 19 21  1  0
 21 22  2  0
 22 23  1  0
 22 24  1  0
 24 25  2  0
 25  6  1  0
 16 10  1  0
 25 18  1  0
  1 26  1  0
  1 27  1  0
  1 28  1  0
  2 29  1  0
  2 30  1  0
  3 31  1  0
  4 32  1  0
  4 33  1  0
  5 34  1  0
  5 35  1  0
  8 36  1  0
  8 37  1  0
  9 38  1  0
 11 39  1  0
 12 40  1  0
 14 41  1  0
 14 42  1  0
 14 43  1  0
 15 44  1  0
 16 45  1  0
 20 46  1  0
 20 47  1  0
 20 48  1  0
 21 49  1  0
 23 50  1  0
 23 51  1  0
 23 52  1  0
M  END
>  <smiles>  (18) 
CCNCCn1c(CNc2ccc(C)cc2)nc2c(C)cc(C)nc21

>  <score_type>  (18) 
oracle

>  <origin>  (18) 
adg

>  <m_score__min__energy>  (18) 
-8.4399999999999995

>  <m_primary>  (18) 
energy

$$$$
20:0
     RDKit          3D

 73 75  0  0  0  0  0  0  0  0999 V2000
   -2.6550   20.8140  -27.9850 C   0  0  0  0  0  0  0  0  0  0  0  0
   -2.7410   20.8560  -29.4850 C   0  0  0  0  0  0  0  0  0  0  0  0
   -1.5780   21.0060  -30.2110 N   0  0  0  0  0  0  0  0  0  0  0  0
   -0.7740   19.8250  -30.4080 C   0  0  0  0  0  0  0  0  0  0  0  0
    0.0470   19.3710  -29.2680 C   0  0  0  0  0  0  0  0  0  0  0  0
   -0.9090   22.2100  -30.4490 C   0  0  0  0  0  0  0  0  0  0  0  0
   -0.1420   22.7650  -29.3120 C   0  0  0  0  0  0  0  0  0  0  0  0
   -0.0510   24.0190  -28.9890 O   0  0  0  0  0  0  0  0  0  0  0  0
   -0.6300   24.7120  -28.0150 C   0  0  0  0  0  0  0  0  0  0  0  0
   -1.9780   25.2980  -28.0970 C   0  0  0  0  0  0  0  0  0  0  0  0
   -3.0380   24.2410  -28.2240 C   0  0  0  0  0  0  0  0  0  0  0  0
   -3.6430   23.9880  -29.5540 C   0  0  0  0  0  0  0  0  0  0  0  0
   -3.8020   25.0770  -30.4360 N   0  0  0  0  0  0  0  0  0  0  0  0
   -5.1030   25.6750  -30.4740 C   0  0  0  0  0  0  0  0  0  0  0  0
   -6.2470   24.7400  -30.6810 C   0  0  0  0  0  0  0  0  0  0  0  0
   -6.1930   23.8970  -31.8780 C   0  0  0  0  0  0  0  0  0  0  0  0
   -5.1630   22.8530  -31.8700 N   0  0  0  0  0  0  0  0  0  0  0  0
   -5.3220   21.5400  -32.3200 C   0  0  0  0  0  0  0  0  0  0  0  0
   -4.2160   20.8920  -32.8820 C   0  0  0  0  0  0  0  0  0  0  0  0
   -3.0220   21.5650  -32.9560 C   0  0  0  0  0  0  0  0  0  0  0  0
   -1.8690   21.0010  -33.5010 C   0  0  0  0  0  0  0  0  0  0  0  0
   -1.9720   19.7180  -33.9710 C   0  0  0  0  0  0  0  0  0  0  0  0
   -3.1600   19.0450  -33.8980 C   0  0  0  0  0  0  0  0  0  0  0  0
   -4.3160   19.5940  -33.3610 C   0  0  0  0  0  0  0  0  0  0  0  0
   -5.4860   18.8930  -33.3090 N   0  0  0  0  0  0  0  0  0  0  0  0
   -5.5570   17.5700  -33.8290 C   0  0  0  0  0  0  0  0  0  0  0  0
   -6.5830   19.5120  -32.7640 C   0  0  0  0  0  0  0  0  0  0  0  0
   -7.7910   18.8810  -32.6810 C   0  0  0  0  0  0  0  0  0  0  0  0
   -8.9360   19.4640  -32.1460 C   0  0  0  0  0  0  0  0  0  0  0  0
   -8.8360   20.7470  -31.6770 C   0  0  0  0  0  0  0  0  0  0  0  0
   -7.6220   21.3820  -31.7580 C   0  0  0  0  0  0  0  0  0  0  0  0
   -6.4850   20.8040  -32.2870 C   0  0  0  0  0  0  0  0  0  0  0  0
   -3.5640   21.2580  -27.5530 H   0  0  0  0  0  0  0  0  0  0  0  0
   -2.5632   19.7696  -27.6521 H   0  0  0  0  0  0  0  0  0  0  0  0
   -1.7749   21.3837  -27.6521 H   0  0  0  0  0  0  0  0  0  0  0  0
   -3.2058   19.9132  -29.8092 H   0  0  0  0  0  0  0  0  0  0  0  0
   -3.3072   21.7756  -29.6945 H   0  0  0  0  0  0  0  0  0  0  0  0
   -1.4538   19.0024  -30.6749 H   0  0  0  0  0  0  0  0  0  0  0  0
   -0.0491   20.1018  -31.1877 H   0  0  0  0  0  0  0  0  0  0  0  0
   -0.4499   19.6458  -28.3259 H   0  0  0  0  0  0  0  0  0  0  0  0
    0.1667   18.2785  -29.3144 H   0  0  0  0  0  0  0  0  0  0  0  0
    1.0359   19.8505  -29.3144 H   0  0  0  0  0  0  0  0  0  0  0  0
   -0.2068   22.0457  -31.2796 H   0  0  0  0  0  0  0  0  0  0  0  0
   -1.6963   22.9480  -30.6622 H   0  0  0  0  0  0  0  0  0  0  0  0
   -0.5495   22.2671  -28.4198 H   0  0  0  0  0  0  0  0  0  0  0  0
    0.8815   22.5922  -29.6763 H   0  0  0  0  0  0  0  0  0  0  0  0
   -0.6526   24.0383  -27.1457 H   0  0  0  0  0  0  0  0  0  0  0  0
   -0.0117   25.6217  -28.0165 H   0  0  0  0  0  0  0  0  0  0  0  0
   -2.1674   25.8848  -27.1861 H   0  0  0  0  0  0  0  0  0  0  0  0
   -2.0205   25.9349  -28.9929 H   0  0  0  0  0  0  0  0  0  0  0  0
   -2.5912   23.2939  -27.8873 H   0  0  0  0  0  0  0  0  0  0  0  0
   -3.8731   24.6303  -27.6232 H   0  0  0  0  0  0  0  0  0  0  0  0
   -3.0102   23.2464  -30.0635 H   0  0  0  0  0  0  0  0  0  0  0  0
   -4.6716   23.6707  -29.3275 H   0  0  0  0  0  0  0  0  0  0  0  0
   -3.4890   24.8340  -31.4340 H   0  0  0  0  0  0  0  0  0  0  0  0
   -5.2623   26.1952  -29.5180 H   0  0  0  0  0  0  0  0  0  0  0  0
   -5.0991   26.3377  -31.3520 H   0  0  0  0  0  0  0  0  0  0  0  0
   -6.2981   24.0753  -29.8060 H   0  0  0  0  0  0  0  0  0  0  0  0
   -7.1285   25.3837  -30.8174 H   0  0  0  0  0  0  0  0  0  0  0  0
   -7.1712   23.4069  -31.9916 H   0  0  0  0  0  0  0  0  0  0  0  0
   -5.9343   24.5695  -32.7091 H   0  0  0  0  0  0  0  0  0  0  0  0
   -4.1900   23.0880  -31.4890 H   0  0  0  0  0  0  0  0  0  0  0  0
   -2.9725   22.5934  -32.5688 H   0  0  0  0  0  0  0  0  0  0  0  0
   -0.9224   21.5591  -33.5512 H   0  0  0  0  0  0  0  0  0  0  0  0
   -1.0920   19.2256  -34.4105 H   0  0  0  0  0  0  0  0  0  0  0  0
   -3.2016   18.0160  -34.2846 H   0  0  0  0  0  0  0  0  0  0  0  0
   -5.5956   16.8508  -32.9976 H   0  0  0  0  0  0  0  0  0  0  0  0
   -6.4620   17.4665  -34.4457 H   0  0  0  0  0  0  0  0  0  0  0  0
   -4.6683   17.3702  -34.4457 H   0  0  0  0  0  0  0  0  0  0  0  0
   -7.8636   17.8507  -33.0594 H   0  0  0  0  0  0  0  0  0  0  0  0
   -9.8875   18.9139  -32.1014 H   0  0  0  0  0  0  0  0  0  0  0  0
   -9.7095   21.2572  -31.2449 H   0  0  0  0  0  0  0  0  0  0  0  0
   -7.5505   22.4122  -31.3791 H   0  0  0  0  0  0  0  0  0  0  0  0
  1  2  1  0
  2  3  1  0
  3  4  1  0
  4  5  1  0
  3  6  1  0
  6  7  1  0
  7  8  1  0
  8  9  1  0
  9 10  1  0
 10 11  1  0
 11 12  1  0
 12 13  1  0
 13 14  1  0
 14 15  1  0
 15 16  1  0
 16 17  1  0
 17 18  1  0
 18 19  2  0
 19 20  1  0
 20 21  2  0
 21 22  1  0
 22 23  2  0
 23 24  1  0
 24 25  2  0
 25 26  1  0
 25 27  1  0
 27 28  2  0
 28 29  1  0
 29 30  2  0
 30 31  1  0
 31 32  2  0
 32 18  1  0
 24 19  1  0
 32 27  1  0
  1 33  1  0
  1 34  1  0
  1 35  1  0
  2 36  1  0
  2 37  1  0
  4 38  1  0
  4 39  1  0
  5 40  1  0
  5 41  1  0
  5 42  1  0
  6 43  1  0
  6 44  1  0
  7 45  1  0
  7 46  1  0
  9 47  1  0
  9 48  1  0
 10 49  1  0
 10 50  1  0
 11 51  1  0
 11 52  1  0
 12 53  1  0
 12 54  1  0
 13 55  1  0
 14 56  1  0
 14 57  1  0
 15 58  1  0
 15 59  1  0
 16 60  1  0
 16 61  1  0
 17 62  1  0
 20 63  1  0
 21 64  1  0
 22 65  1  0
 23 66  1  0
 26 67  1  0
 26 68  1  0
 26 69  1  0
 28 70  1  0
 29 71  1  0
 30 72  1  0
 31 73  1  0
M  CHG  1  25   1
M  END
>  <smiles>  (19) 
CCN(CC)CCOCCCCNCCCNc1c2ccccc2[n+](C)c2ccccc12

>  <score_type>  (19) 
oracle

>  <origin>  (19) 
adg

>  <m_score__min__energy>  (19) 
-9.4299999999999997

>  <m_primary>  (19) 
energy

$$$$
21:0
     RDKit          3D

 55 56  0  0  0  0  0  0  0  0999 V2000
   -8.6960   18.5920  -31.2680 C   0  0  0  0  0  0  0  0  0  0  0  0
   -9.2550   19.0410  -32.6080 C   0  0  0  0  0  0  0  0  0  0  0  0
   -8.4750   20.0650  -33.1950 O   0  0  0  0  0  0  0  0  0  0  0  0
   -7.0770   19.9830  -33.1410 C   0  0  0  0  0  0  0  0  0  0  0  0
   -6.4510   18.7820  -33.4420 C   0  0  0  0  0  0  0  0  0  0  0  0
   -5.0780   18.6560  -33.4020 C   0  0  0  0  0  0  0  0  0  0  0  0
   -4.3510   19.7760  -33.0510 C   0  0  0  0  0  0  0  0  0  0  0  0
   -2.9800   19.6380  -33.0140 C   0  0  0  0  0  0  0  0  0  0  0  0
   -2.1890   20.7160  -32.6700 C   0  0  0  0  0  0  0  0  0  0  0  0
   -2.8410   21.8950  -32.3760 C   0  0  0  0  0  0  0  0  0  0  0  0
   -4.2030   22.0500  -32.4080 C   0  0  0  0  0  0  0  0  0  0  0  0
   -4.9820   20.9680  -32.7530 C   0  0  0  0  0  0  0  0  0  0  0  0
   -6.3330   21.1170  -32.7850 C   0  0  0  0  0  0  0  0  0  0  0  0
   -7.0930   22.3340  -32.4860 C   0  0  0  0  0  0  0  0  0  0  0  0
   -6.6910   22.9390  -31.2390 N   0  0  0  0  0  0  0  0  0  0  0  0
   -7.5620   22.6180  -30.1450 C   0  0  0  0  0  0  0  0  0  0  0  0
   -8.8160   21.9090  -30.5180 C   0  0  0  0  0  0  0  0  0  0  0  0
   -6.5260   24.3500  -31.4390 C   0  0  0  0  0  0  0  0  0  0  0  0
   -6.2630   25.1280  -30.1680 C   0  0  0  0  0  0  0  0  0  0  0  0
   -4.8440   24.9110  -29.7100 C   0  0  0  0  0  0  0  0  0  0  0  0
   -3.8750   25.2660  -30.4610 O   0  0  0  0  0  0  0  0  0  0  0  0
   -4.5850   24.3140  -28.4480 N   0  0  0  0  0  0  0  0  0  0  0  0
   -3.2170   24.1280  -28.0560 C   0  0  0  0  0  0  0  0  0  0  0  0
   -2.8180   22.6600  -27.9840 C   0  0  0  0  0  0  0  0  0  0  0  0
   -2.9110   24.7680  -26.7170 C   0  0  0  0  0  0  0  0  0  0  0  0
   -9.2741   19.0563  -30.4554 H   0  0  0  0  0  0  0  0  0  0  0  0
   -8.7671   17.4971  -31.1893 H   0  0  0  0  0  0  0  0  0  0  0  0
   -7.6422   18.8976  -31.1893 H   0  0  0  0  0  0  0  0  0  0  0  0
   -9.2779   18.1780  -33.2897 H   0  0  0  0  0  0  0  0  0  0  0  0
  -10.2650   19.4415  -32.4361 H   0  0  0  0  0  0  0  0  0  0  0  0
   -7.0632   17.9110  -33.7187 H   0  0  0  0  0  0  0  0  0  0  0  0
   -4.5829   17.7029  -33.6398 H   0  0  0  0  0  0  0  0  0  0  0  0
   -2.5169   18.6706  -33.2582 H   0  0  0  0  0  0  0  0  0  0  0  0
   -1.0924   20.6382  -32.6323 H   0  0  0  0  0  0  0  0  0  0  0  0
   -2.2297   22.7663  -32.0982 H   0  0  0  0  0  0  0  0  0  0  0  0
   -4.6638   23.0184  -32.1632 H   0  0  0  0  0  0  0  0  0  0  0  0
   -6.9340   23.0587  -33.2981 H   0  0  0  0  0  0  0  0  0  0  0  0
   -8.1534   22.0551  -32.3979 H   0  0  0  0  0  0  0  0  0  0  0  0
   -7.0056   21.9785  -29.4439 H   0  0  0  0  0  0  0  0  0  0  0  0
   -7.8735   23.5798  -29.7116 H   0  0  0  0  0  0  0  0  0  0  0  0
   -9.3513   21.6064  -29.6059 H   0  0  0  0  0  0  0  0  0  0  0  0
   -9.4539   22.5801  -31.1119 H   0  0  0  0  0  0  0  0  0  0  0  0
   -8.5698   21.0164  -31.1119 H   0  0  0  0  0  0  0  0  0  0  0  0
   -5.6769   24.5052  -32.1209 H   0  0  0  0  0  0  0  0  0  0  0  0
   -7.4750   24.7251  -31.8496 H   0  0  0  0  0  0  0  0  0  0  0  0
   -6.4238   26.1995  -30.3579 H   0  0  0  0  0  0  0  0  0  0  0  0
   -6.9509   24.7784  -29.3840 H   0  0  0  0  0  0  0  0  0  0  0  0
   -5.3630   24.0200  -27.8260 H   0  0  0  0  0  0  0  0  0  0  0  0
   -2.6304   24.6219  -28.8446 H   0  0  0  0  0  0  0  0  0  0  0  0
   -2.7348   22.3539  -26.9307 H   0  0  0  0  0  0  0  0  0  0  0  0
   -3.5822   22.0473  -28.4846 H   0  0  0  0  0  0  0  0  0  0  0  0
   -1.8488   22.5185  -28.4846 H   0  0  0  0  0  0  0  0  0  0  0  0
   -3.2323   24.0961  -25.9075 H   0  0  0  0  0  0  0  0  0  0  0  0
   -1.8290   24.9488  -26.6357 H   0  0  0  0  0  0  0  0  0  0  0  0
   -3.4496   25.7237  -26.6357 H   0  0  0  0  0  0  0  0  0  0  0  0
  1  2  1  0
  2  3  1  0
  3  4  1  0
  4  5  2  0
  5  6  1  0
  6  7  2  0
  7  8  1  0
  8  9  2  0
  9 10  1  0
 10 11  2  0
 11 12  1  0
 12 13  2  0
 13 14  1  0
 14 15  1  0
 15 16  1  0
 16 17  1  0
 15 18  1  0
 18 19  1  0
 19 20  1  0
 20 21  2  0
 20 22  1  0
 22 23  1  0
 23 24  1  0
 23 25  1  0
 13  4  1  0
 12  7  1  0
  1 26  1  0
  1 27  1  0
  1 28  1  0
  2 29  1  0
  2 30  1  0
  5 31  1  0
  6 32  1  0
  8 33  1  0
  9 34  1  0
 10 35  1  0
 11 36  1  0
 14 37  1  0
 14 38  1  0
 16 39  1  0
 16 40  1  0
 17 41  1  0
 17 42  1  0
 17 43  1  0
 18 44  1  0
 18 45  1  0
 19 46  1  0
 19 47  1  0
 22 48  1  0
 23 49  1  0
 24 50  1  0
 24 51  1  0
 24 52  1  0
 25 53  1  0
 25 54  1  0
 25 55  1  0
M  END
>  <smiles>  (20) 
CCOc1ccc2ccccc2c1CN(CC)CCC(=O)NC(C)C

>  <score_type>  (20) 
oracle

>  <origin>  (20) 
adg

>  <m_score__min__energy>  (20) 
-8.7799999999999994

>  <m_primary>  (20) 
energy

$$$$
