0:0
     RDKit          3D

 36 38  0  0  0  0  0  0  0  0999 V2000
   -5.7719   26.0194  -30.8799 H   0  0  0  0  0  0  0  0  0  0  0  0
   -5.0900   25.1950  -30.6240 C   0  0  0  0  0  0  0  0  0  0  0  0
   -3.8710   25.4720  -30.1030 N   0  0  0  0  0  0  0  0  0  0  0  0
   -2.9930   24.4960  -29.7670 C   0  0  0  0  0  0  0  0  0  0  0  0
   -1.7380   24.8460  -29.2580 C   0  0  0  0  0  0  0  0  0  0  0  0
   -1.4742   25.9073  -29.1397 H   0  0  0  0  0  0  0  0  0  0  0  0
   -0.8100   23.8520  -28.8960 C   0  0  0  0  0  0  0  0  0  0  0  0
    0.4590   24.1670  -28.3850 O   0  0  0  0  0  0  0  0  0  0  0  0
    0.7270   24.4620  -27.0180 C   0  0  0  0  0  0  0  0  0  0  0  0
    0.1265   23.8010  -26.3757 H   0  0  0  0  0  0  0  0  0  0  0  0
    1.7955   24.3025  -26.8111 H   0  0  0  0  0  0  0  0  0  0  0  0
    0.4660   25.5104  -26.8111 H   0  0  0  0  0  0  0  0  0  0  0  0
   -1.1590   22.5030  -29.0490 C   0  0  0  0  0  0  0  0  0  0  0  0
   -0.0250   21.2370  -28.6050 Cl  0  0  0  0  0  0  0  0  0  0  0  0
   -2.4140   22.1480  -29.5540 C   0  0  0  0  0  0  0  0  0  0  0  0
   -2.6753   21.0851  -29.6633 H   0  0  0  0  0  0  0  0  0  0  0  0
   -3.3490   23.1380  -29.9250 C   0  0  0  0  0  0  0  0  0  0  0  0
   -4.6390   22.8090  -30.4100 C   0  0  0  0  0  0  0  0  0  0  0  0
   -4.9930   21.5470  -30.4090 N   0  0  0  0  0  0  0  0  0  0  0  0
   -5.1020   20.6220  -31.5010 C   0  0  0  0  0  0  0  0  0  0  0  0
   -3.9530   20.2750  -32.2230 C   0  0  0  0  0  0  0  0  0  0  0  0
   -2.9887   20.7440  -31.9776 H   0  0  0  0  0  0  0  0  0  0  0  0
   -4.0280   19.3340  -33.2550 C   0  0  0  0  0  0  0  0  0  0  0  0
   -3.1283   19.0830  -33.8360 H   0  0  0  0  0  0  0  0  0  0  0  0
   -5.2450   18.7120  -33.5490 C   0  0  0  0  0  0  0  0  0  0  0  0
   -5.3470   17.4260  -34.9580 Br  0  0  0  0  0  0  0  0  0  0  0  0
   -6.3870   19.0220  -32.8010 C   0  0  0  0  0  0  0  0  0  0  0  0
   -7.3426   18.5251  -33.0246 H   0  0  0  0  0  0  0  0  0  0  0  0
   -6.3130   19.9630  -31.7700 C   0  0  0  0  0  0  0  0  0  0  0  0
   -7.2055   20.1881  -31.1677 H   0  0  0  0  0  0  0  0  0  0  0  0
   -5.4930   23.8700  -30.8410 C   0  0  0  0  0  0  0  0  0  0  0  0
   -6.7060   23.6710  -31.6630 C   0  0  0  0  0  0  0  0  0  0  0  0
   -7.8210   23.4950  -31.1030 O   0  0  0  0  0  0  0  0  0  0  0  0
   -6.6410   23.7480  -33.0880 N   0  0  0  0  0  0  0  0  0  0  0  0
   -5.7430   23.9770  -33.5700 H   0  0  0  0  0  0  0  0  0  0  0  0
   -7.4980   23.5940  -33.6640 H   0  0  0  0  0  0  0  0  0  0  0  0
  1  2  1  0
  2  3  1  0
  3  4  1  0
  4  5  2  0
  5  6  1  0
  5  7  1  0
  7  8  1  0
  8  9  1  0
  9 10  1  0
  9 11  1  0
  9 12  1  0
  7 13  2  0
 13 14  1  0
 13 15  1  0
 15 16  1  0
 15 17  2  0
 17 18  1  0
 18 19  2  0
 19 20  1  0
 20 21  2  0
 21 22  1  0
 21 23  1  0
 23 24  1  0
 23 25  2  0
 25 26  1  0
 25 27  1  0
 27 28  1  0
 27 29  2  0
 29 30  1  0
 18 31  1  0
 31 32  1  0
 32 33  2  0
 32 34  1  0
 34 35  1  0
 34 36  1  0
 31  2  2  0
 17  4  1  0
 29 20  1  0
M  CHG  1   3  -1
M  END
>  <UniqueID>  (1) 
1

>  <SMILES>  (1) 
COc1cc2[n-]cc(C(N)=O)/c(=N\c3ccc(Br)cc3)c2cc1Cl

>  <Energy>  (1) 
63.28598265557984

>  <Genealogy>  (1) 
COc1cc2[n-]cc(C(N)=O)c(=Nc3ccc(Br)cc3)c2cc1Cl (protonated)
COc1cc2[n-]cc(C(N)=O)/c(=N\c3ccc(Br)cc3)c2cc1Cl (cis-trans isomerization)
COc1cc2[n-]cc(C(N)=O)/c(=N\c3ccc(Br)cc3)c2cc1Cl (3D coordinates assigned)
COc1cc2[n-]cc(C(N)=O)/c(=N\c3ccc(Br)cc3)c2cc1Cl (optimized conformer: 63.28598265557984 kcal/mol)

>  <smiles>  (1) 
COc1cc2[nH]cc(C(N)=O)c(=Nc3ccc(Br)cc3)c2cc1Cl

>  <score_type>  (1) 
oracle

>  <origin>  (1) 
adg

>  <m_score__min__energy>  (1) 
-9.0199999999999996

>  <m_primary>  (1) 
energy

$$$$
1:0
     RDKit          3D

 43 45  0  0  0  0  0  0  0  0999 V2000
   -8.2610   22.2990  -30.5990 C   0  0  0  0  0  0  0  0  0  0  0  0
   -6.9950   21.8370  -31.2480 C   0  0  0  0  0  0  0  0  0  0  0  0
   -6.9370   20.7530  -32.0450 N   0  0  0  0  0  0  0  0  0  0  0  0
   -5.7070   20.6680  -32.5250 N   0  0  0  0  0  0  0  0  0  0  0  0
   -5.2880   19.6090  -33.3960 C   0  0  0  0  0  0  0  0  0  0  0  0
   -4.0690   18.9590  -33.1630 C   0  0  0  0  0  0  0  0  0  0  0  0
   -3.6780   17.9160  -34.0040 C   0  0  0  0  0  0  0  0  0  0  0  0
   -4.5070   17.5240  -35.0550 C   0  0  0  0  0  0  0  0  0  0  0  0
   -5.7250   18.1800  -35.2460 C   0  0  0  0  0  0  0  0  0  0  0  0
   -6.0930   19.1940  -34.4170 N   0  0  0  0  0  0  0  0  0  0  0  0
   -4.9570   21.6950  -32.0600 C   0  0  0  0  0  0  0  0  0  0  0  0
   -3.4790   21.8450  -32.2840 C   0  0  0  0  0  0  0  0  0  0  0  0
   -5.7530   22.4600  -31.2140 C   0  0  0  0  0  0  0  0  0  0  0  0
   -5.3080   23.9100  -30.2930 S   0  0  0  0  0  0  0  0  0  0  0  0
   -4.6160   24.8830  -31.2090 O   0  0  0  0  0  0  0  0  0  0  0  0
   -6.5600   24.5730  -29.7960 O   0  0  0  0  0  0  0  0  0  0  0  0
   -4.2920   23.5580  -28.9090 N   0  0  0  0  0  0  0  0  0  0  0  0
   -2.8750   23.3410  -29.2860 C   0  0  0  0  0  0  0  0  0  0  0  0
   -1.9850   24.5540  -28.9780 C   0  0  0  0  0  0  0  0  0  0  0  0
   -2.0290   24.9180  -27.4830 C   0  0  0  0  0  0  0  0  0  0  0  0
   -3.3550   24.5210  -26.8100 C   0  0  0  0  0  0  0  0  0  0  0  0
   -4.5090   24.5350  -27.8190 C   0  0  0  0  0  0  0  0  0  0  0  0
   -8.1486   22.2580  -29.5055 H   0  0  0  0  0  0  0  0  0  0  0  0
   -8.4748   23.3331  -30.9071 H   0  0  0  0  0  0  0  0  0  0  0  0
   -9.0906   21.6457  -30.9071 H   0  0  0  0  0  0  0  0  0  0  0  0
   -3.4263   19.2677  -32.3254 H   0  0  0  0  0  0  0  0  0  0  0  0
   -2.7184   17.4044  -33.8384 H   0  0  0  0  0  0  0  0  0  0  0  0
   -4.2046   16.7068  -35.7263 H   0  0  0  0  0  0  0  0  0  0  0  0
   -6.3886   17.8760  -36.0689 H   0  0  0  0  0  0  0  0  0  0  0  0
   -7.0250   19.6460  -34.5600 H   0  0  0  0  0  0  0  0  0  0  0  0
   -2.9645   21.8972  -31.3132 H   0  0  0  0  0  0  0  0  0  0  0  0
   -3.1045   20.9802  -32.8514 H   0  0  0  0  0  0  0  0  0  0  0  0
   -3.2859   22.7674  -32.8514 H   0  0  0  0  0  0  0  0  0  0  0  0
   -2.4919   22.4734  -28.7287 H   0  0  0  0  0  0  0  0  0  0  0  0
   -2.8432   23.1742  -30.3728 H   0  0  0  0  0  0  0  0  0  0  0  0
   -0.9480   24.3173  -29.2583 H   0  0  0  0  0  0  0  0  0  0  0  0
   -2.3590   25.4129  -29.5545 H   0  0  0  0  0  0  0  0  0  0  0  0
   -1.2058   24.3985  -26.9707 H   0  0  0  0  0  0  0  0  0  0  0  0
   -1.9334   26.0111  -27.4059 H   0  0  0  0  0  0  0  0  0  0  0  0
   -3.2565   23.5090  -26.3902 H   0  0  0  0  0  0  0  0  0  0  0  0
   -3.5759   25.2483  -26.0148 H   0  0  0  0  0  0  0  0  0  0  0  0
   -5.4436   24.2843  -27.2958 H   0  0  0  0  0  0  0  0  0  0  0  0
   -4.5648   25.5396  -28.2637 H   0  0  0  0  0  0  0  0  0  0  0  0
  1  2  1  0
  2  3  2  0
  3  4  1  0
  4  5  1  0
  5  6  2  0
  6  7  1  0
  7  8  2  0
  8  9  1  0
  9 10  2  0
  4 11  1  0
 11 12  1  0
 11 13  2  0
 13 14  1  0
 14 15  2  0
 14 16  2  0
 14 17  1  0
 17 18  1  0
 18 19  1  0
 19 20  1  0
 20 21  1  0
 21 22  1  0
 13  2  1  0
 22 17  1  0
 10  5  1  0
  1 23  1  0
  1 24  1  0
  1 25  1  0
  6 26  1  0
  7 27  1  0
  8 28  1  0
  9 29  1  0
 10 30  1  0
 12 31  1  0
 12 32  1  0
 12 33  1  0
 18 34  1  0
 18 35  1  0
 19 36  1  0
 19 37  1  0
 20 38  1  0
 20 39  1  0
 21 40  1  0
 21 41  1  0
 22 42  1  0
 22 43  1  0
M  CHG  1  10   1
M  END
>  <UniqueID>  (2) 
2

>  <SMILES>  (2) 
Cc1nn(-c2cccc[nH+]2)c(C)c1S(=O)(=O)N1CCCCC1

>  <Energy>  (2) 
85.66761078827095

>  <Genealogy>  (2) 
Cc1nn(-c2cccc[nH+]2)c(C)c1S(=O)(=O)N1CCCCC1 (protonated)
Cc1nn(-c2cccc[nH+]2)c(C)c1S(=O)(=O)N1CCCCC1 (3D coordinates assigned)
Cc1nn(-c2cccc[nH+]2)c(C)c1S(=O)(=O)N1CCCCC1 (nonaromatic ring conformer: 85.66761078827095 kcal/mol)

>  <smiles>  (2) 
Cc1nn(-c2ccccn2)c(C)c1S(=O)(=O)N1CCCCC1

>  <score_type>  (2) 
oracle

>  <origin>  (2) 
adg

>  <m_score__min__energy>  (2) 
-8.2400000000000002

>  <m_primary>  (2) 
energy

$$$$
2:0
     RDKit          3D

 53 57  0  0  0  0  0  0  0  0999 V2000
   -3.9380   17.4960  -34.4540 C   0  0  0  0  0  0  0  0  0  0  0  0
   -4.9970   18.4070  -34.7290 O   0  0  0  0  0  0  0  0  0  0  0  0
   -5.5830   19.2500  -33.7730 C   0  0  0  0  0  0  0  0  0  0  0  0
   -4.8540   20.2710  -33.1150 C   0  0  0  0  0  0  0  0  0  0  0  0
   -5.4740   21.1000  -32.1660 C   0  0  0  0  0  0  0  0  0  0  0  0
   -6.8340   20.9090  -31.8730 C   0  0  0  0  0  0  0  0  0  0  0  0
   -7.5340   19.8970  -32.5220 C   0  0  0  0  0  0  0  0  0  0  0  0
   -6.9390   19.0650  -33.4660 C   0  0  0  0  0  0  0  0  0  0  0  0
   -9.1260   19.8750  -31.9900 S   0  0  0  0  0  0  0  0  0  0  0  0
   -8.8620   21.1700  -30.9430 C   0  0  0  0  0  0  0  0  0  0  0  0
   -9.7580   21.6610  -30.2040 O   0  0  0  0  0  0  0  0  0  0  0  0
   -7.5820   21.6320  -30.9810 N   0  0  0  0  0  0  0  0  0  0  0  0
   -7.1230   22.7840  -30.1880 C   0  0  0  0  0  0  0  0  0  0  0  0
   -7.1400   24.0720  -31.0210 C   0  0  0  0  0  0  0  0  0  0  0  0
   -5.8470   25.2490  -30.4880 S   0  0  0  0  0  0  0  0  0  0  0  0
   -4.6060   23.9910  -30.1990 C   0  0  0  0  0  0  0  0  0  0  0  0
   -3.7510   23.5640  -31.1490 N   0  0  0  0  0  0  0  0  0  0  0  0
   -2.9910   22.6430  -30.5220 C   0  0  0  0  0  0  0  0  0  0  0  0
   -1.9570   21.8530  -31.2240 C   0  0  0  0  0  0  0  0  0  0  0  0
   -0.8610   21.3120  -30.5290 C   0  0  0  0  0  0  0  0  0  0  0  0
    0.0940   20.5490  -31.2070 C   0  0  0  0  0  0  0  0  0  0  0  0
   -0.0430   20.3060  -32.5750 C   0  0  0  0  0  0  0  0  0  0  0  0
   -1.1420   20.8200  -33.2690 C   0  0  0  0  0  0  0  0  0  0  0  0
   -2.0990   21.5840  -32.5960 C   0  0  0  0  0  0  0  0  0  0  0  0
   -3.3960   22.5430  -29.1960 C   0  0  0  0  0  0  0  0  0  0  0  0
   -2.7880   21.7490  -28.1070 C   0  0  0  0  0  0  0  0  0  0  0  0
   -1.8360   22.3380  -27.2570 C   0  0  0  0  0  0  0  0  0  0  0  0
   -1.2450   21.5900  -26.2330 C   0  0  0  0  0  0  0  0  0  0  0  0
   -1.5910   20.2480  -26.0570 C   0  0  0  0  0  0  0  0  0  0  0  0
   -2.5230   19.6490  -26.9080 C   0  0  0  0  0  0  0  0  0  0  0  0
   -3.1160   20.3930  -27.9320 C   0  0  0  0  0  0  0  0  0  0  0  0
   -4.4200   23.3940  -29.0080 N   0  0  0  0  0  0  0  0  0  0  0  0
   -3.8171   17.3920  -33.3656 H   0  0  0  0  0  0  0  0  0  0  0  0
   -4.1751   16.5152  -34.8920 H   0  0  0  0  0  0  0  0  0  0  0  0
   -3.0036   17.8769  -34.8920 H   0  0  0  0  0  0  0  0  0  0  0  0
   -3.7893   20.4162  -33.3503 H   0  0  0  0  0  0  0  0  0  0  0  0
   -4.9010   21.8897  -31.6581 H   0  0  0  0  0  0  0  0  0  0  0  0
   -7.5224   18.2758  -33.9628 H   0  0  0  0  0  0  0  0  0  0  0  0
   -7.7866   22.9093  -29.3197 H   0  0  0  0  0  0  0  0  0  0  0  0
   -6.0899   22.5933  -29.8618 H   0  0  0  0  0  0  0  0  0  0  0  0
   -6.9721   23.8142  -32.0771 H   0  0  0  0  0  0  0  0  0  0  0  0
   -8.1182   24.5550  -30.8801 H   0  0  0  0  0  0  0  0  0  0  0  0
   -0.7548   21.4897  -29.4487 H   0  0  0  0  0  0  0  0  0  0  0  0
    0.9563   20.1387  -30.6610 H   0  0  0  0  0  0  0  0  0  0  0  0
    0.7137   19.7102  -33.1065 H   0  0  0  0  0  0  0  0  0  0  0  0
   -1.2536   20.6230  -34.3454 H   0  0  0  0  0  0  0  0  0  0  0  0
   -2.9685   21.9771  -33.1432 H   0  0  0  0  0  0  0  0  0  0  0  0
   -1.5543   23.3920  -27.3976 H   0  0  0  0  0  0  0  0  0  0  0  0
   -0.5070   22.0591  -25.5657 H   0  0  0  0  0  0  0  0  0  0  0  0
   -1.1294   19.6628  -25.2480 H   0  0  0  0  0  0  0  0  0  0  0  0
   -2.7905   18.5907  -26.7721 H   0  0  0  0  0  0  0  0  0  0  0  0
   -3.8433   19.9150  -28.6047 H   0  0  0  0  0  0  0  0  0  0  0  0
   -4.9390   23.5830  -28.1210 H   0  0  0  0  0  0  0  0  0  0  0  0
  1  2  1  0
  2  3  1  0
  3  4  2  0
  4  5  1  0
  5  6  2  0
  6  7  1  0
  7  8  2  0
  7  9  1  0
  9 10  1  0
 10 11  2  0
 10 12  1  0
 12 13  1  0
 13 14  1  0
 14 15  1  0
 15 16  1  0
 16 17  2  0
 17 18  1  0
 18 19  1  0
 19 20  2  0
 20 21  1  0
 21 22  2  0
 22 23  1  0
 23 24  2  0
 18 25  2  0
 25 26  1  0
 26 27  2  0
 27 28  1  0
 28 29  2  0
 29 30  1  0
 30 31  2  0
 25 32  1  0
  8  3  1  0
 32 16  1  0
 12  6  1  0
 24 19  1  0
 31 26  1  0
  1 33  1  0
  1 34  1  0
  1 35  1  0
  4 36  1  0
  5 37  1  0
  8 38  1  0
 13 39  1  0
 13 40  1  0
 14 41  1  0
 14 42  1  0
 20 43  1  0
 21 44  1  0
 22 45  1  0
 23 46  1  0
 24 47  1  0
 27 48  1  0
 28 49  1  0
 29 50  1  0
 30 51  1  0
 31 52  1  0
 32 53  1  0
M  END
>  <UniqueID>  (3) 
3

>  <SMILES>  (3) 
COc1ccc2c(c1)sc(=O)n2CCSc1nc(-c2ccccc2)c(-c2ccccc2)[nH]1

>  <Energy>  (3) 
126.71377789258456

>  <Genealogy>  (3) 
COc1ccc2c(c1)sc(=O)n2CCSc1nc(-c2ccccc2)c(-c2ccccc2)[nH]1 (3D coordinates assigned)
COc1ccc2c(c1)sc(=O)n2CCSc1nc(-c2ccccc2)c(-c2ccccc2)[nH]1 (optimized conformer: 126.71377789258456 kcal/mol)

>  <smiles>  (3) 
COc1ccc2c(c1)sc(=O)n2CCSc1nc(-c2ccccc2)c(-c2ccccc2)[nH]1

>  <score_type>  (3) 
oracle

>  <origin>  (3) 
adg

>  <m_score__min__energy>  (3) 
-10.32

>  <m_primary>  (3) 
energy

$$$$
3:0
     RDKit          3D

 42 44  0  0  0  0  0  0  0  0999 V2000
   -6.8560   25.3760  -29.5720 C   0  0  0  0  0  0  0  0  0  0  0  0
   -6.1050   24.2760  -30.2580 C   0  0  0  0  0  0  0  0  0  0  0  0
   -4.7450   24.4120  -30.5570 C   0  0  0  0  0  0  0  0  0  0  0  0
   -4.0940   23.4230  -31.2190 N   0  0  0  0  0  0  0  0  0  0  0  0
   -4.7440   22.2970  -31.6190 C   0  0  0  0  0  0  0  0  0  0  0  0
   -4.0230   21.2750  -32.3210 N   0  0  0  0  0  0  0  0  0  0  0  0
   -3.0170   21.5000  -33.1880 C   0  0  0  0  0  0  0  0  0  0  0  0
   -2.5690   20.3030  -33.7110 C   0  0  0  0  0  0  0  0  0  0  0  0
   -3.3480   19.3090  -33.1500 C   0  0  0  0  0  0  0  0  0  0  0  0
   -4.2370   19.9390  -32.2990 C   0  0  0  0  0  0  0  0  0  0  0  0
   -5.3800   19.2410  -31.6090 C   0  0  0  0  0  0  0  0  0  0  0  0
   -6.3300   18.7050  -32.6080 N   0  0  0  0  0  0  0  0  0  0  0  0
   -7.4500   17.9820  -31.9730 C   0  0  0  0  0  0  0  0  0  0  0  0
   -8.4020   18.9270  -31.2020 C   0  0  0  0  0  0  0  0  0  0  0  0
   -8.2740   20.3310  -31.6480 N   0  0  0  0  0  0  0  0  0  0  0  0
   -9.4280   21.1210  -31.1960 C   0  0  0  0  0  0  0  0  0  0  0  0
   -8.1370   20.4040  -33.1100 C   0  0  0  0  0  0  0  0  0  0  0  0
   -6.8180   19.7370  -33.5560 C   0  0  0  0  0  0  0  0  0  0  0  0
   -6.0650   22.1400  -31.3290 N   0  0  0  0  0  0  0  0  0  0  0  0
   -6.7550   23.1110  -30.6730 C   0  0  0  0  0  0  0  0  0  0  0  0
   -6.7720   25.2530  -28.4821 H   0  0  0  0  0  0  0  0  0  0  0  0
   -6.4319   26.3477  -29.8651 H   0  0  0  0  0  0  0  0  0  0  0  0
   -7.9154   25.3349  -29.8651 H   0  0  0  0  0  0  0  0  0  0  0  0
   -4.2037   25.3208  -30.2553 H   0  0  0  0  0  0  0  0  0  0  0  0
   -2.6122   22.4908  -33.4419 H   0  0  0  0  0  0  0  0  0  0  0  0
   -1.7510   20.1672  -34.4337 H   0  0  0  0  0  0  0  0  0  0  0  0
   -3.2751   18.2285  -33.3427 H   0  0  0  0  0  0  0  0  0  0  0  0
   -4.9862   18.4129  -31.0014 H   0  0  0  0  0  0  0  0  0  0  0  0
   -5.9051   19.9626  -30.9659 H   0  0  0  0  0  0  0  0  0  0  0  0
   -8.0242   17.4636  -32.7550 H   0  0  0  0  0  0  0  0  0  0  0  0
   -7.0230   17.2728  -31.2486 H   0  0  0  0  0  0  0  0  0  0  0  0
   -9.4384   18.5963  -31.3647 H   0  0  0  0  0  0  0  0  0  0  0  0
   -8.1319   18.8842  -30.1365 H   0  0  0  0  0  0  0  0  0  0  0  0
   -9.4527   21.1379  -30.0964 H   0  0  0  0  0  0  0  0  0  0  0  0
   -9.3401   22.1493  -31.5766 H   0  0  0  0  0  0  0  0  0  0  0  0
  -10.3548   20.6671  -31.5766 H   0  0  0  0  0  0  0  0  0  0  0  0
   -8.9844   19.8840  -33.5807 H   0  0  0  0  0  0  0  0  0  0  0  0
   -8.1268   21.4602  -33.4172 H   0  0  0  0  0  0  0  0  0  0  0  0
   -6.9808   19.2623  -34.5348 H   0  0  0  0  0  0  0  0  0  0  0  0
   -6.0531   20.5263  -33.5990 H   0  0  0  0  0  0  0  0  0  0  0  0
   -6.5610   21.2600  -31.5970 H   0  0  0  0  0  0  0  0  0  0  0  0
   -7.8277   22.9788  -30.4686 H   0  0  0  0  0  0  0  0  0  0  0  0
  1  2  1  0
  2  3  2  0
  3  4  1  0
  4  5  2  0
  5  6  1  0
  6  7  1  0
  7  8  2  0
  8  9  1  0
  9 10  2  0
 10 11  1  0
 11 12  1  0
 12 13  1  0
 13 14  1  0
 14 15  1  0
 15 16  1  0
 15 17  1  0
 17 18  1  0
  5 19  1  0
 19 20  2  0
 20  2  1  0
 10  6  1  0
 18 12  1  0
  1 21  1  0
  1 22  1  0
  1 23  1  0
  3 24  1  0
  7 25  1  0
  8 26  1  0
  9 27  1  0
 11 28  1  0
 11 29  1  0
 13 30  1  0
 13 31  1  0
 14 32  1  0
 14 33  1  0
 16 34  1  0
 16 35  1  0
 16 36  1  0
 17 37  1  0
 17 38  1  0
 18 39  1  0
 18 40  1  0
 19 41  1  0
 20 42  1  0
M  CHG  1  19   1
M  END
>  <UniqueID>  (4) 
4

>  <SMILES>  (4) 
Cc1cnc(-n2cccc2CN2CCN(C)CC2)[nH+]c1

>  <Energy>  (4) 
82.71369448281646

>  <Genealogy>  (4) 
Cc1cnc(-n2cccc2CN2CCN(C)CC2)[nH+]c1 (protonated)
Cc1cnc(-n2cccc2CN2CCN(C)CC2)[nH+]c1 (3D coordinates assigned)
Cc1cnc(-n2cccc2CN2CCN(C)CC2)[nH+]c1 (nonaromatic ring conformer: 82.71369448281646 kcal/mol)

>  <smiles>  (4) 
Cc1cnc(-n2cccc2CN2CCN(C)CC2)nc1

>  <score_type>  (4) 
oracle

>  <origin>  (4) 
adg

>  <m_score__min__energy>  (4) 
-6.3700000000000001

>  <m_primary>  (4) 
energy

$$$$
4:0
     RDKit          3D

 39 42  0  0  0  0  0  0  0  0999 V2000
   -6.4700   16.4050  -34.1930 C   0  0  0  0  0  0  0  0  0  0  0  0
   -6.4880   17.7690  -34.5980 O   0  0  0  0  0  0  0  0  0  0  0  0
   -6.0740   18.8400  -33.7910 C   0  0  0  0  0  0  0  0  0  0  0  0
   -4.7060   19.1070  -33.6930 C   0  0  0  0  0  0  0  0  0  0  0  0
   -4.2420   20.1620  -32.9020 C   0  0  0  0  0  0  0  0  0  0  0  0
   -5.1430   20.9680  -32.1840 C   0  0  0  0  0  0  0  0  0  0  0  0
   -4.6320   22.0900  -31.3550 C   0  0  0  0  0  0  0  0  0  0  0  0
   -5.0270   23.4320  -31.5980 C   0  0  0  0  0  0  0  0  0  0  0  0
   -4.5170   24.4490  -30.7790 C   0  0  0  0  0  0  0  0  0  0  0  0
   -4.8440   25.6530  -30.9610 O   0  0  0  0  0  0  0  0  0  0  0  0
   -3.6670   24.1020  -29.7830 N   0  0  0  0  0  0  0  0  0  0  0  0
   -3.0840   24.9000  -28.9070 N   0  0  0  0  0  0  0  0  0  0  0  0
   -2.3290   24.1100  -28.1010 C   0  0  0  0  0  0  0  0  0  0  0  0
   -1.5120   24.6340  -26.9800 C   0  0  0  0  0  0  0  0  0  0  0  0
   -2.0330   25.5750  -26.0710 C   0  0  0  0  0  0  0  0  0  0  0  0
   -1.2460   26.0580  -25.0200 C   0  0  0  0  0  0  0  0  0  0  0  0
    0.0700   25.6090  -24.8610 C   0  0  0  0  0  0  0  0  0  0  0  0
    0.8620   26.0830  -23.8180 O   0  0  0  0  0  0  0  0  0  0  0  0
    0.5960   24.6760  -25.7590 C   0  0  0  0  0  0  0  0  0  0  0  0
   -0.1870   24.1910  -26.8100 C   0  0  0  0  0  0  0  0  0  0  0  0
   -2.4500   22.7710  -28.4900 C   0  0  0  0  0  0  0  0  0  0  0  0
   -3.3100   22.8360  -29.5600 C   0  0  0  0  0  0  0  0  0  0  0  0
   -3.7760   21.8180  -30.3220 N   0  0  0  0  0  0  0  0  0  0  0  0
   -6.5210   20.7050  -32.2940 C   0  0  0  0  0  0  0  0  0  0  0  0
   -6.9830   19.6500  -33.0870 C   0  0  0  0  0  0  0  0  0  0  0  0
   -6.4693   16.3487  -33.0944 H   0  0  0  0  0  0  0  0  0  0  0  0
   -7.3615   15.8941  -34.5857 H   0  0  0  0  0  0  0  0  0  0  0  0
   -5.5653   15.9178  -34.5857 H   0  0  0  0  0  0  0  0  0  0  0  0
   -3.9877   18.4814  -34.2432 H   0  0  0  0  0  0  0  0  0  0  0  0
   -3.1623   20.3634  -32.8407 H   0  0  0  0  0  0  0  0  0  0  0  0
   -5.7225   23.6700  -32.4163 H   0  0  0  0  0  0  0  0  0  0  0  0
   -3.0665   25.9329  -26.1882 H   0  0  0  0  0  0  0  0  0  0  0  0
   -1.6630   26.7933  -24.3161 H   0  0  0  0  0  0  0  0  0  0  0  0
    1.0020   25.5420  -22.9720 H   0  0  0  0  0  0  0  0  0  0  0  0
    1.6304   24.3221  -25.6380 H   0  0  0  0  0  0  0  0  0  0  0  0
    0.2361   23.4563  -27.5108 H   0  0  0  0  0  0  0  0  0  0  0  0
   -1.9734   21.8838  -28.0476 H   0  0  0  0  0  0  0  0  0  0  0  0
   -7.2412   21.3350  -31.7513 H   0  0  0  0  0  0  0  0  0  0  0  0
   -8.0626   19.4526  -33.1606 H   0  0  0  0  0  0  0  0  0  0  0  0
  1  2  1  0
  2  3  1  0
  3  4  2  0
  4  5  1  0
  5  6  2  0
  6  7  1  0
  7  8  2  0
  8  9  1  0
  9 10  2  0
  9 11  1  0
 11 12  1  0
 12 13  2  0
 13 14  1  0
 14 15  2  0
 15 16  1  0
 16 17  2  0
 17 18  1  0
 17 19  1  0
 19 20  2  0
 13 21  1  0
 21 22  2  0
 22 23  1  0
  6 24  1  0
 24 25  2  0
 25  3  1  0
 23  7  1  0
 22 11  1  0
 20 14  1  0
  1 26  1  0
  1 27  1  0
  1 28  1  0
  4 29  1  0
  5 30  1  0
  8 31  1  0
 15 32  1  0
 16 33  1  0
 18 34  1  0
 19 35  1  0
 20 36  1  0
 21 37  1  0
 24 38  1  0
 25 39  1  0
M  CHG  1  23  -1
M  END
>  <UniqueID>  (5) 
5

>  <SMILES>  (5) 
COc1ccc(-c2cc(=O)n3nc(-c4ccc(O)cc4)cc3[n-]2)cc1

>  <Energy>  (5) 
85.63176536104234

>  <Genealogy>  (5) 
COc1ccc(-c2cc(=O)n3nc(-c4ccc(O)cc4)cc3[n-]2)cc1 (protonated)
COc1ccc(-c2cc(=O)n3nc(-c4ccc(O)cc4)cc3[n-]2)cc1 (3D coordinates assigned)
COc1ccc(-c2cc(=O)n3nc(-c4ccc(O)cc4)cc3[n-]2)cc1 (optimized conformer: 85.63176536104234 kcal/mol)

>  <smiles>  (5) 
COc1ccc(-c2cc(=O)n3nc(-c4ccc(O)cc4)cc3[nH]2)cc1

>  <score_type>  (5) 
oracle

>  <origin>  (5) 
adg

>  <m_score__min__energy>  (5) 
-8.4100000000000001

>  <m_primary>  (5) 
energy

$$$$
5:0
     RDKit          3D

 56 59  0  0  0  0  0  0  0  0999 V2000
   -9.1680   20.3710  -32.3240 C   0  0  0  0  0  0  0  0  0  0  0  0
   -7.6750   20.0280  -32.1740 C   0  0  0  0  0  0  0  0  0  0  0  0
   -7.0750   19.2180  -33.2760 N   0  0  0  0  0  0  0  0  0  0  0  0
   -6.9730   17.7570  -33.0160 C   0  0  0  0  0  0  0  0  0  0  0  0
   -6.4970   17.4540  -31.5900 C   0  0  0  0  0  0  0  0  0  0  0  0
   -5.8060   19.7890  -33.8030 C   0  0  0  0  0  0  0  0  0  0  0  0
   -4.7400   20.0840  -32.7330 C   0  0  0  0  0  0  0  0  0  0  0  0
   -3.9070   21.3180  -33.1150 C   0  0  0  0  0  0  0  0  0  0  0  0
   -3.7050   22.2070  -31.9470 N   0  0  0  0  0  0  0  0  0  0  0  0
   -4.8320   23.0590  -31.5250 C   0  0  0  0  0  0  0  0  0  0  0  0
   -6.1060   22.9920  -32.1540 C   0  0  0  0  0  0  0  0  0  0  0  0
   -7.2100   23.6700  -31.6330 C   0  0  0  0  0  0  0  0  0  0  0  0
   -7.0840   24.4320  -30.4770 C   0  0  0  0  0  0  0  0  0  0  0  0
   -5.8430   24.5560  -29.8620 C   0  0  0  0  0  0  0  0  0  0  0  0
   -4.7220   23.9060  -30.3930 C   0  0  0  0  0  0  0  0  0  0  0  0
   -3.1380   24.2940  -29.6880 S   0  0  0  0  0  0  0  0  0  0  0  0
   -2.6090   22.6030  -29.7700 C   0  0  0  0  0  0  0  0  0  0  0  0
   -2.0280   21.9990  -28.6610 C   0  0  0  0  0  0  0  0  0  0  0  0
   -1.3440   20.7940  -28.8200 C   0  0  0  0  0  0  0  0  0  0  0  0
   -0.8020   20.1310  -27.7090 C   0  0  0  0  0  0  0  0  0  0  0  0
   -0.0500   18.9690  -27.8860 C   0  0  0  0  0  0  0  0  0  0  0  0
    0.1790   18.4710  -29.1690 C   0  0  0  0  0  0  0  0  0  0  0  0
   -0.3440   19.1320  -30.2840 C   0  0  0  0  0  0  0  0  0  0  0  0
   -1.1210   20.3020  -30.1300 C   0  0  0  0  0  0  0  0  0  0  0  0
   -1.6340   20.9840  -31.2150 N   0  0  0  0  0  0  0  0  0  0  0  0
   -0.8990   20.9200  -32.4930 C   0  0  0  0  0  0  0  0  0  0  0  0
   -2.5900   21.9650  -31.0140 C   0  0  0  0  0  0  0  0  0  0  0  0
   -9.6222   20.4753  -31.3276 H   0  0  0  0  0  0  0  0  0  0  0  0
   -9.2733   21.3167  -32.8758 H   0  0  0  0  0  0  0  0  0  0  0  0
   -9.6755   19.5661  -32.8758 H   0  0  0  0  0  0  0  0  0  0  0  0
   -7.1173   20.9739  -32.1096 H   0  0  0  0  0  0  0  0  0  0  0  0
   -7.6040   19.4011  -31.2729 H   0  0  0  0  0  0  0  0  0  0  0  0
   -7.7380   19.3180  -34.0820 H   0  0  0  0  0  0  0  0  0  0  0  0
   -7.9632   17.3010  -33.1633 H   0  0  0  0  0  0  0  0  0  0  0  0
   -6.2324   17.3406  -33.7147 H   0  0  0  0  0  0  0  0  0  0  0  0
   -7.1967   17.8994  -30.8675 H   0  0  0  0  0  0  0  0  0  0  0  0
   -6.4587   16.3650  -31.4398 H   0  0  0  0  0  0  0  0  0  0  0  0
   -5.4941   17.8803  -31.4398 H   0  0  0  0  0  0  0  0  0  0  0  0
   -5.3808   19.0732  -34.5220 H   0  0  0  0  0  0  0  0  0  0  0  0
   -6.0659   20.7564  -34.2574 H   0  0  0  0  0  0  0  0  0  0  0  0
   -5.2380   20.2696  -31.7699 H   0  0  0  0  0  0  0  0  0  0  0  0
   -4.0684   19.2161  -32.6570 H   0  0  0  0  0  0  0  0  0  0  0  0
   -2.9267   20.9880  -33.4892 H   0  0  0  0  0  0  0  0  0  0  0  0
   -4.4483   21.8785  -33.8915 H   0  0  0  0  0  0  0  0  0  0  0  0
   -6.2240   22.3939  -33.0696 H   0  0  0  0  0  0  0  0  0  0  0  0
   -8.1839   23.6009  -32.1396 H   0  0  0  0  0  0  0  0  0  0  0  0
   -7.9638   24.9356  -30.0499 H   0  0  0  0  0  0  0  0  0  0  0  0
   -5.7413   25.1679  -28.9536 H   0  0  0  0  0  0  0  0  0  0  0  0
   -2.1069   22.4665  -27.6684 H   0  0  0  0  0  0  0  0  0  0  0  0
   -0.9700   20.5277  -26.6969 H   0  0  0  0  0  0  0  0  0  0  0  0
    0.3632   18.4444  -27.0119 H   0  0  0  0  0  0  0  0  0  0  0  0
    0.7731   17.5551  -29.3035 H   0  0  0  0  0  0  0  0  0  0  0  0
   -0.1486   18.7372  -31.2919 H   0  0  0  0  0  0  0  0  0  0  0  0
    0.1784   20.8262  -32.2920 H   0  0  0  0  0  0  0  0  0  0  0  0
   -1.2417   20.0483  -33.0698 H   0  0  0  0  0  0  0  0  0  0  0  0
   -1.0859   21.8378  -33.0698 H   0  0  0  0  0  0  0  0  0  0  0  0
  1  2  1  0
  2  3  1  0
  3  4  1  0
  4  5  1  0
  3  6  1  0
  6  7  1  0
  7  8  1  0
  8  9  1  0
  9 10  1  0
 10 11  2  0
 11 12  1  0
 12 13  2  0
 13 14  1  0
 14 15  2  0
 15 16  1  0
 16 17  1  0
 17 18  2  0
 18 19  1  0
 19 20  2  0
 20 21  1  0
 21 22  2  0
 22 23  1  0
 23 24  2  0
 24 25  1  0
 25 26  1  0
 25 27  2  0
 27  9  1  0
 15 10  1  0
 27 17  1  0
 24 19  1  0
  1 28  1  0
  1 29  1  0
  1 30  1  0
  2 31  1  0
  2 32  1  0
  3 33  1  0
  4 34  1  0
  4 35  1  0
  5 36  1  0
  5 37  1  0
  5 38  1  0
  6 39  1  0
  6 40  1  0
  7 41  1  0
  7 42  1  0
  8 43  1  0
  8 44  1  0
 11 45  1  0
 12 46  1  0
 13 47  1  0
 14 48  1  0
 18 49  1  0
 20 50  1  0
 21 51  1  0
 22 52  1  0
 23 53  1  0
 26 54  1  0
 26 55  1  0
 26 56  1  0
M  CHG  2   3   1  25   1
M  END
>  <UniqueID>  (6) 
6

>  <SMILES>  (6) 
CC[NH+](CC)CCCN1c2ccccc2Sc2cc3ccccc3[n+](C)c21

>  <Energy>  (6) 
115.98730583042554

>  <Genealogy>  (6) 
CC[NH+](CC)CCCN1c2ccccc2Sc2cc3ccccc3[n+](C)c21 (protonated)
CC[NH+](CC)CCCN1c2ccccc2Sc2cc3ccccc3[n+](C)c21 (3D coordinates assigned)
CC[NH+](CC)CCCN1c2ccccc2Sc2cc3ccccc3[n+](C)c21 (nonaromatic ring conformer: 115.98730583042554 kcal/mol)

>  <smiles>  (6) 
CCN(CC)CCCN1c2ccccc2Sc2cc3ccccc3[n+](C)c21

>  <score_type>  (6) 
oracle

>  <origin>  (6) 
adg

>  <m_score__min__energy>  (6) 
-7.4900000000000002

>  <m_primary>  (6) 
energy

$$$$
6:0
     RDKit          3D

 53 55  0  0  0  0  0  0  0  0999 V2000
   -3.8920   25.3920  -30.8620 O   0  0  0  0  0  0  0  0  0  0  0  0
   -4.2140   24.5600  -29.9710 C   0  0  0  0  0  0  0  0  0  0  0  0
   -5.2900   24.9020  -28.9850 C   0  0  0  0  0  0  0  0  0  0  0  0
   -6.6620   24.9700  -29.6610 C   0  0  0  0  0  0  0  0  0  0  0  0
   -6.9830   23.6630  -30.2480 N   0  0  0  0  0  0  0  0  0  0  0  0
   -7.3910   23.7610  -31.6580 C   0  0  0  0  0  0  0  0  0  0  0  0
   -6.2540   23.3880  -32.6330 C   0  0  0  0  0  0  0  0  0  0  0  0
   -5.0780   22.8490  -31.9290 N   0  0  0  0  0  0  0  0  0  0  0  0
   -4.6010   21.6500  -32.5600 C   0  0  0  0  0  0  0  0  0  0  0  0
   -5.1070   20.3810  -32.8370 C   0  0  0  0  0  0  0  0  0  0  0  0
   -6.3380   19.6700  -32.6010 N   0  0  0  0  0  0  0  0  0  0  0  0
   -7.5900   20.4100  -32.4070 C   0  0  0  0  0  0  0  0  0  0  0  0
   -8.8080   19.4970  -32.5960 C   0  0  0  0  0  0  0  0  0  0  0  0
   -8.6590   18.2960  -31.8660 O   0  0  0  0  0  0  0  0  0  0  0  0
   -7.5960   17.5490  -32.4170 C   0  0  0  0  0  0  0  0  0  0  0  0
   -6.2590   18.2620  -32.1880 C   0  0  0  0  0  0  0  0  0  0  0  0
   -3.9040   20.0490  -33.4420 C   0  0  0  0  0  0  0  0  0  0  0  0
   -3.4440   19.0230  -34.0090 O   0  0  0  0  0  0  0  0  0  0  0  0
   -3.4130   21.3080  -33.1780 C   0  0  0  0  0  0  0  0  0  0  0  0
   -2.3260   21.9020  -33.4060 O   0  0  0  0  0  0  0  0  0  0  0  0
   -3.5880   23.2730  -29.9180 N   0  0  0  0  0  0  0  0  0  0  0  0
   -2.5710   22.9070  -28.9400 C   0  0  0  0  0  0  0  0  0  0  0  0
   -2.0490   24.1390  -28.2520 C   0  0  0  0  0  0  0  0  0  0  0  0
   -2.5600   24.5450  -27.0080 C   0  0  0  0  0  0  0  0  0  0  0  0
   -2.0340   25.6740  -26.3720 C   0  0  0  0  0  0  0  0  0  0  0  0
   -0.9980   26.3860  -26.9830 C   0  0  0  0  0  0  0  0  0  0  0  0
   -0.5080   25.9780  -28.1860 N   0  0  0  0  0  0  0  0  0  0  0  0
   -0.9990   24.8780  -28.8230 C   0  0  0  0  0  0  0  0  0  0  0  0
   -5.3149   24.1317  -28.2001 H   0  0  0  0  0  0  0  0  0  0  0  0
   -5.0656   25.8890  -28.5543 H   0  0  0  0  0  0  0  0  0  0  0  0
   -7.4258   25.2346  -28.9149 H   0  0  0  0  0  0  0  0  0  0  0  0
   -6.6435   25.7333  -30.4528 H   0  0  0  0  0  0  0  0  0  0  0  0
   -7.7550   23.2210  -29.6970 H   0  0  0  0  0  0  0  0  0  0  0  0
   -8.2380   23.0800  -31.8277 H   0  0  0  0  0  0  0  0  0  0  0  0
   -7.6664   24.8080  -31.8528 H   0  0  0  0  0  0  0  0  0  0  0  0
   -6.6250   22.6289  -33.3374 H   0  0  0  0  0  0  0  0  0  0  0  0
   -5.9447   24.3026  -33.1601 H   0  0  0  0  0  0  0  0  0  0  0  0
   -5.2910   22.6790  -30.9200 H   0  0  0  0  0  0  0  0  0  0  0  0
   -4.3090   23.5580  -31.9750 H   0  0  0  0  0  0  0  0  0  0  0  0
   -7.6073   20.8254  -31.3886 H   0  0  0  0  0  0  0  0  0  0  0  0
   -7.6385   21.2153  -33.1548 H   0  0  0  0  0  0  0  0  0  0  0  0
   -9.7088   20.0218  -32.2451 H   0  0  0  0  0  0  0  0  0  0  0  0
   -8.8977   19.2491  -33.6639 H   0  0  0  0  0  0  0  0  0  0  0  0
   -7.5641   16.5589  -31.9387 H   0  0  0  0  0  0  0  0  0  0  0  0
   -7.7606   17.4440  -33.4995 H   0  0  0  0  0  0  0  0  0  0  0  0
   -6.0037   18.2140  -31.1191 H   0  0  0  0  0  0  0  0  0  0  0  0
   -5.4864   17.7619  -32.7904 H   0  0  0  0  0  0  0  0  0  0  0  0
   -3.0118   22.2316  -28.1920 H   0  0  0  0  0  0  0  0  0  0  0  0
   -1.7403   22.4030  -29.4556 H   0  0  0  0  0  0  0  0  0  0  0  0
   -3.3732   23.9753  -26.5345 H   0  0  0  0  0  0  0  0  0  0  0  0
   -2.4321   25.9988  -25.3994 H   0  0  0  0  0  0  0  0  0  0  0  0
   -0.5784   27.2763  -26.4918 H   0  0  0  0  0  0  0  0  0  0  0  0
   -0.5718   24.5673  -29.7879 H   0  0  0  0  0  0  0  0  0  0  0  0
  1  2  2  0
  2  3  1  0
  3  4  1  0
  4  5  1  0
  5  6  1  0
  6  7  1  0
  7  8  1  0
  8  9  1  0
  9 10  2  0
 10 11  1  0
 11 12  1  0
 12 13  1  0
 13 14  1  0
 14 15  1  0
 15 16  1  0
 10 17  1  0
 17 18  2  0
 17 19  1  0
 19 20  2  0
  2 21  1  0
 21 22  1  0
 22 23  1  0
 23 24  2  0
 24 25  1  0
 25 26  2  0
 26 27  1  0
 27 28  2  0
 19  9  1  0
 28 23  1  0
 16 11  1  0
  3 29  1  0
  3 30  1  0
  4 31  1  0
  4 32  1  0
  5 33  1  0
  6 34  1  0
  6 35  1  0
  7 36  1  0
  7 37  1  0
  8 38  1  0
  8 39  1  0
 12 40  1  0
 12 41  1  0
 13 42  1  0
 13 43  1  0
 15 44  1  0
 15 45  1  0
 16 46  1  0
 16 47  1  0
 22 48  1  0
 22 49  1  0
 24 50  1  0
 25 51  1  0
 26 52  1  0
 28 53  1  0
M  CHG  2   8   1  21  -1
M  END
>  <UniqueID>  (7) 
7

>  <SMILES>  (7) 
O=C(CCNCC[NH2+]c1c(N2CCOCC2)c(=O)c1=O)[N-]Cc1cccnc1

>  <Energy>  (7) 
39.72868271351004

>  <Genealogy>  (7) 
O=C(CCNCC[NH2+]c1c(N2CCOCC2)c(=O)c1=O)[N-]Cc1cccnc1 (protonated)
O=C(CCNCC[NH2+]c1c(N2CCOCC2)c(=O)c1=O)[N-]Cc1cccnc1 (3D coordinates assigned)
O=C(CCNCC[NH2+]c1c(N2CCOCC2)c(=O)c1=O)[N-]Cc1cccnc1 (nonaromatic ring conformer: 39.72868271351004 kcal/mol)

>  <smiles>  (7) 
O=C(CCNCCNc1c(N2CCOCC2)c(=O)c1=O)NCc1cccnc1

>  <score_type>  (7) 
oracle

>  <origin>  (7) 
adg

>  <m_score__min__energy>  (7) 
-9.1699999999999999

>  <m_primary>  (7) 
energy

$$$$
7:0
     RDKit          3D

 54 55  0  0  0  0  0  0  0  0999 V2000
   -5.6940   23.9440  -30.7250 C   0  0  0  0  0  0  0  0  0  0  0  0
   -5.0310   25.3110  -30.7390 C   0  0  0  0  0  0  0  0  0  0  0  0
   -3.6420   25.1660  -30.4670 O   0  0  0  0  0  0  0  0  0  0  0  0
   -3.1530   24.3990  -29.4050 C   0  0  0  0  0  0  0  0  0  0  0  0
   -3.8180   24.2940  -28.3390 O   0  0  0  0  0  0  0  0  0  0  0  0
   -1.8850   23.6560  -29.5300 C   0  0  0  0  0  0  0  0  0  0  0  0
   -1.6320   22.6920  -30.4280 C   0  0  0  0  0  0  0  0  0  0  0  0
   -2.6540   21.9000  -31.1470 C   0  0  0  0  0  0  0  0  0  0  0  0
   -3.4970   21.0490  -30.4190 C   0  0  0  0  0  0  0  0  0  0  0  0
   -4.4480   20.2630  -31.0760 C   0  0  0  0  0  0  0  0  0  0  0  0
   -4.5550   20.2980  -32.4770 C   0  0  0  0  0  0  0  0  0  0  0  0
   -5.6180   19.4670  -33.1820 C   0  0  2  0  0  0  0  0  0  0  0  0
   -7.0130   19.7080  -32.6100 C   0  0  0  0  0  0  0  0  0  0  0  0
   -7.3780   21.0860  -32.1840 C   0  0  0  0  0  0  0  0  0  0  0  0
   -6.9430   22.0890  -32.8130 O   0  0  0  0  0  0  0  0  0  0  0  0
   -8.2480   21.2600  -31.1030 O   0  0  0  0  0  0  0  0  0  0  0  0
   -9.4880   21.9480  -31.2170 C   0  0  0  0  0  0  0  0  0  0  0  0
   -7.9370   18.7200  -32.6940 C   0  0  0  0  0  0  0  0  0  0  0  0
   -9.3770   18.9190  -32.3110 C   0  0  0  0  0  0  0  0  0  0  0  0
   -7.5740   17.4250  -33.1930 N   0  0  0  0  0  0  0  0  0  0  0  0
   -6.3610   17.0510  -33.4600 C   0  0  0  0  0  0  0  0  0  0  0  0
   -6.1430   15.6210  -33.8630 C   0  0  0  0  0  0  0  0  0  0  0  0
   -5.1970   17.9720  -33.1540 C   0  0  1  0  0  0  0  0  0  0  0  0
   -4.0510   17.7560  -34.1110 C   0  0  0  0  0  0  0  0  0  0  0  0
   -4.2600   17.7490  -35.3560 O   0  0  0  0  0  0  0  0  0  0  0  0
   -2.7560   17.6090  -33.6090 O   0  0  0  0  0  0  0  0  0  0  0  0
   -1.6900   18.4740  -33.9800 C   0  0  0  0  0  0  0  0  0  0  0  0
   -3.6970   21.1410  -33.2050 C   0  0  0  0  0  0  0  0  0  0  0  0
   -2.7380   21.9150  -32.5490 C   0  0  0  0  0  0  0  0  0  0  0  0
   -5.8498   23.6227  -29.6846 H   0  0  0  0  0  0  0  0  0  0  0  0
   -6.6642   24.0017  -31.2401 H   0  0  0  0  0  0  0  0  0  0  0  0
   -5.0480   23.2179  -31.2401 H   0  0  0  0  0  0  0  0  0  0  0  0
   -5.1648   25.7736  -31.7280 H   0  0  0  0  0  0  0  0  0  0  0  0
   -5.4908   25.9500  -29.9707 H   0  0  0  0  0  0  0  0  0  0  0  0
   -1.0787   23.9141  -28.8276 H   0  0  0  0  0  0  0  0  0  0  0  0
   -0.5769   22.4721  -30.6480 H   0  0  0  0  0  0  0  0  0  0  0  0
   -3.4096   20.9994  -29.3236 H   0  0  0  0  0  0  0  0  0  0  0  0
   -5.1169   19.6130  -30.4929 H   0  0  0  0  0  0  0  0  0  0  0  0
   -5.6863   19.7847  -34.2329 H   0  0  0  0  0  0  0  0  0  0  0  0
   -9.8803   22.1656  -30.2126 H   0  0  0  0  0  0  0  0  0  0  0  0
   -9.3355   22.8905  -31.7633 H   0  0  0  0  0  0  0  0  0  0  0  0
  -10.2070   21.3198  -31.7633 H   0  0  0  0  0  0  0  0  0  0  0  0
   -9.4665   18.9314  -31.2147 H   0  0  0  0  0  0  0  0  0  0  0  0
   -9.7361   19.8753  -32.7190 H   0  0  0  0  0  0  0  0  0  0  0  0
   -9.9820   18.0959  -32.7190 H   0  0  0  0  0  0  0  0  0  0  0  0
   -6.0478   14.9967  -32.9624 H   0  0  0  0  0  0  0  0  0  0  0  0
   -6.9986   15.2740  -34.4609 H   0  0  0  0  0  0  0  0  0  0  0  0
   -5.2229   15.5448  -34.4609 H   0  0  0  0  0  0  0  0  0  0  0  0
   -4.8641   17.7200  -32.1363 H   0  0  0  0  0  0  0  0  0  0  0  0
   -1.2050   18.8675  -33.0745 H   0  0  0  0  0  0  0  0  0  0  0  0
   -0.9543   17.9144  -34.5762 H   0  0  0  0  0  0  0  0  0  0  0  0
   -2.0861   19.3092  -34.5762 H   0  0  0  0  0  0  0  0  0  0  0  0
   -3.7820   21.1911  -34.3006 H   0  0  0  0  0  0  0  0  0  0  0  0
   -2.0453   22.5392  -33.1325 H   0  0  0  0  0  0  0  0  0  0  0  0
  1  2  1  0
  2  3  1  0
  3  4  1  0
  4  5  2  0
  4  6  1  0
  6  7  2  3
  7  8  1  0
  8  9  2  0
  9 10  1  0
 10 11  2  0
 11 12  1  0
 12 13  1  0
 13 14  1  0
 14 15  2  0
 14 16  1  0
 16 17  1  0
 13 18  2  0
 18 19  1  0
 18 20  1  0
 20 21  2  0
 21 22  1  0
 21 23  1  0
 23 24  1  0
 24 25  2  0
 24 26  1  0
 26 27  1  0
 11 28  1  0
 28 29  2  0
 29  8  1  0
 23 12  1  0
  1 30  1  0
  1 31  1  0
  1 32  1  0
  2 33  1  0
  2 34  1  0
  6 35  1  0
  7 36  1  0
  9 37  1  0
 10 38  1  0
 12 39  1  6
 17 40  1  0
 17 41  1  0
 17 42  1  0
 19 43  1  0
 19 44  1  0
 19 45  1  0
 22 46  1  0
 22 47  1  0
 22 48  1  0
 23 49  1  1
 27 50  1  0
 27 51  1  0
 27 52  1  0
 28 53  1  0
 29 54  1  0
M  END
>  <UniqueID>  (8) 
8

>  <SMILES>  (8) 
CCOC(=O)C=Cc1ccc([C@@H]2C(C(=O)OC)=C(C)N=C(C)[C@H]2C(=O)OC)cc1

>  <Energy>  (8) 
54.03857043737389

>  <Genealogy>  (8) 
CCOC(=O)C=Cc1ccc([C@@H]2C(C(=O)OC)=C(C)N=C(C)[C@H]2C(=O)OC)cc1 (chirality)
CCOC(=O)C=Cc1ccc([C@@H]2C(C(=O)OC)=C(C)N=C(C)[C@H]2C(=O)OC)cc1 (3D coordinates assigned)
CCOC(=O)C=Cc1ccc([C@@H]2C(C(=O)OC)=C(C)N=C(C)[C@H]2C(=O)OC)cc1 (nonaromatic ring conformer: 54.03857043737389 kcal/mol)

>  <smiles>  (8) 
CCOC(=O)C=Cc1ccc(C2C(C(=O)OC)=C(C)N=C(C)C2C(=O)OC)cc1

>  <score_type>  (8) 
oracle

>  <origin>  (8) 
adg

>  <m_score__min__energy>  (8) 
-8.3200000000000003

>  <m_primary>  (8) 
energy

$$$$
8:0
     RDKit          3D

 24 25  0  0  0  0  0  0  0  0999 V2000
   -6.4800   24.0770  -31.0360 C   0  0  0  0  0  0  0  0  0  0  0  0
   -6.8700   23.3980  -32.3420 C   0  0  0  0  0  0  0  0  0  0  0  0
   -7.7780   22.2820  -32.0860 N   0  0  0  0  0  0  0  0  0  0  0  0
   -9.0500   22.3530  -31.6220 C   0  0  0  0  0  0  0  0  0  0  0  0
   -9.6670   21.1420  -31.5600 N   0  0  0  0  0  0  0  0  0  0  0  0
   -8.7210   20.2990  -32.0160 C   0  0  0  0  0  0  0  0  0  0  0  0
   -8.8190   18.9250  -32.1910 C   0  0  0  0  0  0  0  0  0  0  0  0
   -7.6930   18.2630  -32.7170 C   0  0  0  0  0  0  0  0  0  0  0  0
   -6.5450   18.9600  -33.0300 N   0  0  0  0  0  0  0  0  0  0  0  0
   -5.4070   18.2490  -33.6160 C   0  0  0  0  0  0  0  0  0  0  0  0
   -6.4800   20.3210  -32.8650 C   0  0  0  0  0  0  0  0  0  0  0  0
   -7.5900   20.9770  -32.3390 C   0  0  0  0  0  0  0  0  0  0  0  0
   -6.8291   23.4692  -30.1882 H   0  0  0  0  0  0  0  0  0  0  0  0
   -5.3858   24.1788  -30.9882 H   0  0  0  0  0  0  0  0  0  0  0  0
   -6.9434   25.0735  -30.9882 H   0  0  0  0  0  0  0  0  0  0  0  0
   -7.3694   24.1288  -32.9951 H   0  0  0  0  0  0  0  0  0  0  0  0
   -5.9616   23.0137  -32.8289 H   0  0  0  0  0  0  0  0  0  0  0  0
   -9.5344   23.2950  -31.3255 H   0  0  0  0  0  0  0  0  0  0  0  0
   -9.7366   18.3774  -31.9300 H   0  0  0  0  0  0  0  0  0  0  0  0
   -7.7296   17.1758  -32.8803 H   0  0  0  0  0  0  0  0  0  0  0  0
   -4.7700   17.8510  -32.8123 H   0  0  0  0  0  0  0  0  0  0  0  0
   -5.7739   17.4192  -34.2380 H   0  0  0  0  0  0  0  0  0  0  0  0
   -4.8221   18.9426  -34.2380 H   0  0  0  0  0  0  0  0  0  0  0  0
   -5.5736   20.8797  -33.1414 H   0  0  0  0  0  0  0  0  0  0  0  0
  1  2  1  0
  2  3  1  0
  3  4  1  0
  4  5  2  0
  5  6  1  0
  6  7  2  0
  7  8  1  0
  8  9  2  0
  9 10  1  0
  9 11  1  0
 11 12  2  0
 12  3  1  0
 12  6  1  0
  1 13  1  0
  1 14  1  0
  1 15  1  0
  2 16  1  0
  2 17  1  0
  4 18  1  0
  7 19  1  0
  8 20  1  0
 10 21  1  0
 10 22  1  0
 10 23  1  0
 11 24  1  0
M  CHG  1   9   1
M  END
>  <UniqueID>  (9) 
9

>  <SMILES>  (9) 
CCn1cnc2cc[n+](C)cc21

>  <Energy>  (9) 
58.813326486915074

>  <Genealogy>  (9) 
CCn1cnc2cc[n+](C)cc21 (3D coordinates assigned)
CCn1cnc2cc[n+](C)cc21 (optimized conformer: 58.813326486915074 kcal/mol)

>  <smiles>  (9) 
CCn1cnc2cc[n+](C)cc21

>  <score_type>  (9) 
oracle

>  <origin>  (9) 
adg

>  <m_score__min__energy>  (9) 
-4.3600000000000003

>  <m_primary>  (9) 
energy

$$$$
9:0
     RDKit          3D

 31 32  0  0  0  0  0  0  0  0999 V2000
   -6.0810   17.2370  -34.5880 C   0  0  0  0  0  0  0  0  0  0  0  0
   -5.5790   18.4740  -34.6490 C   0  0  0  0  0  0  0  0  0  0  0  0
   -4.7760   19.0540  -33.5180 C   0  0  0  0  0  0  0  0  0  0  0  0
   -5.4550   20.2220  -32.9550 N   0  0  0  0  0  0  0  0  0  0  0  0
   -4.9820   21.4910  -32.8450 C   0  0  0  0  0  0  0  0  0  0  0  0
   -3.7870   21.8330  -33.2170 N   0  0  0  0  0  0  0  0  0  0  0  0
   -5.9000   22.3590  -32.3330 N   0  0  0  0  0  0  0  0  0  0  0  0
   -5.7590   23.8040  -32.1280 C   0  0  0  0  0  0  0  0  0  0  0  0
   -5.6110   24.1160  -30.6650 C   0  0  0  0  0  0  0  0  0  0  0  0
   -6.0820   25.2480  -30.1380 C   0  0  0  0  0  0  0  0  0  0  0  0
   -6.9970   21.5960  -32.1380 C   0  0  0  0  0  0  0  0  0  0  0  0
   -8.2590   21.9690  -31.6660 C   0  0  0  0  0  0  0  0  0  0  0  0
   -9.2500   20.9740  -31.5820 C   0  0  0  0  0  0  0  0  0  0  0  0
   -8.9690   19.6460  -31.9690 C   0  0  0  0  0  0  0  0  0  0  0  0
   -7.6920   19.2980  -32.4460 C   0  0  0  0  0  0  0  0  0  0  0  0
   -6.7270   20.3050  -32.5130 C   0  0  0  0  0  0  0  0  0  0  0  0
   -6.6649   16.8382  -35.4306 H   0  0  0  0  0  0  0  0  0  0  0  0
   -5.9103   16.6176  -33.6952 H   0  0  0  0  0  0  0  0  0  0  0  0
   -5.7575   19.0822  -35.5480 H   0  0  0  0  0  0  0  0  0  0  0  0
   -4.6535   18.2930  -32.7332 H   0  0  0  0  0  0  0  0  0  0  0  0
   -3.7927   19.3640  -33.9015 H   0  0  0  0  0  0  0  0  0  0  0  0
   -3.5090   21.9200  -34.2190 H   0  0  0  0  0  0  0  0  0  0  0  0
   -4.8685   24.1608  -32.6662 H   0  0  0  0  0  0  0  0  0  0  0  0
   -6.6596   24.3071  -32.5098 H   0  0  0  0  0  0  0  0  0  0  0  0
   -5.1012   23.3925  -30.0118 H   0  0  0  0  0  0  0  0  0  0  0  0
   -5.9581   25.4477  -29.0634 H   0  0  0  0  0  0  0  0  0  0  0  0
   -6.5941   25.9814  -30.7782 H   0  0  0  0  0  0  0  0  0  0  0  0
   -8.4703   23.0071  -31.3698 H   0  0  0  0  0  0  0  0  0  0  0  0
  -10.2527   21.2332  -31.2114 H   0  0  0  0  0  0  0  0  0  0  0  0
   -9.7535   18.8782  -31.8972 H   0  0  0  0  0  0  0  0  0  0  0  0
   -7.4617   18.2679  -32.7556 H   0  0  0  0  0  0  0  0  0  0  0  0
  1  2  2  0
  2  3  1  0
  3  4  1  0
  4  5  1  0
  5  6  2  3
  5  7  1  0
  7  8  1  0
  8  9  1  0
  9 10  2  0
  7 11  1  0
 11 12  2  0
 12 13  1  0
 13 14  2  0
 14 15  1  0
 15 16  2  0
 16  4  1  0
 16 11  1  0
  1 17  1  0
  1 18  1  0
  2 19  1  0
  3 20  1  0
  3 21  1  0
  6 22  1  0
  8 23  1  0
  8 24  1  0
  9 25  1  0
 10 26  1  0
 10 27  1  0
 12 28  1  0
 13 29  1  0
 14 30  1  0
 15 31  1  0
M  END
>  <UniqueID>  (10) 
10

>  <SMILES>  (10) 
C=CCn1c(=N)n(CC=C)c2ccccc21

>  <Energy>  (10) 
65.74862950617201

>  <Genealogy>  (10) 
C=CCn1c(=N)n(CC=C)c2ccccc21 (3D coordinates assigned)
C=CCn1c(=N)n(CC=C)c2ccccc21 (optimized conformer: 65.74862950617201 kcal/mol)

>  <smiles>  (10) 
C=CCn1c(=N)n(CC=C)c2ccccc21

>  <score_type>  (10) 
oracle

>  <origin>  (10) 
adg

>  <m_score__min__energy>  (10) 
-6.1799999999999997

>  <m_primary>  (10) 
energy

$$$$
10:0
     RDKit          3D

 39 42  0  0  0  0  0  0  0  0999 V2000
   -8.8270   21.6860  -32.0670 C   0  0  0  0  0  0  0  0  0  0  0  0
   -8.6000   20.2480  -32.0090 N   0  0  0  0  0  0  0  0  0  0  0  0
   -9.1130   19.4570  -31.0740 N   0  0  0  0  0  0  0  0  0  0  0  0
   -8.6000   18.2190  -31.2510 C   0  0  0  0  0  0  0  0  0  0  0  0
   -7.7220   18.2540  -32.3150 C   0  0  0  0  0  0  0  0  0  0  0  0
   -7.7560   19.5360  -32.7800 C   0  0  0  0  0  0  0  0  0  0  0  0
   -6.8460   20.0520  -33.8480 C   0  0  0  0  0  0  0  0  0  0  0  0
   -6.0860   18.8930  -34.5390 C   0  0  0  0  0  0  0  0  0  0  0  0
   -5.7080   17.7820  -33.6280 N   0  0  0  0  0  0  0  0  0  0  0  0
   -4.4720   17.9990  -32.8420 C   0  0  0  0  0  0  0  0  0  0  0  0
   -4.1240   19.4470  -32.6550 C   0  0  0  0  0  0  0  0  0  0  0  0
   -4.7950   20.3030  -31.8670 N   0  0  0  0  0  0  0  0  0  0  0  0
   -4.1480   21.4680  -32.0740 C   0  0  0  0  0  0  0  0  0  0  0  0
   -4.5340   22.7710  -31.4810 C   0  0  0  0  0  0  0  0  0  0  0  0
   -5.8560   23.2430  -31.5440 C   0  0  0  0  0  0  0  0  0  0  0  0
   -6.1850   24.4820  -30.9900 C   0  0  0  0  0  0  0  0  0  0  0  0
   -5.1900   25.2430  -30.3760 C   0  0  0  0  0  0  0  0  0  0  0  0
   -3.9150   24.7790  -30.3240 N   0  0  0  0  0  0  0  0  0  0  0  0
   -3.5670   23.5780  -30.8560 C   0  0  0  0  0  0  0  0  0  0  0  0
   -3.1150   21.3120  -32.9280 N   0  0  0  0  0  0  0  0  0  0  0  0
   -3.1320   20.0540  -33.2620 O   0  0  0  0  0  0  0  0  0  0  0  0
   -6.8390   17.1890  -32.8740 C   0  0  0  0  0  0  0  0  0  0  0  0
   -8.8906   22.0887  -31.0453 H   0  0  0  0  0  0  0  0  0  0  0  0
   -7.9937   22.1676  -32.5997 H   0  0  0  0  0  0  0  0  0  0  0  0
   -9.7681   21.8875  -32.5997 H   0  0  0  0  0  0  0  0  0  0  0  0
   -8.8420   17.3317  -30.6476 H   0  0  0  0  0  0  0  0  0  0  0  0
   -7.4426   20.5894  -34.5999 H   0  0  0  0  0  0  0  0  0  0  0  0
   -6.1102   20.7261  -33.3852 H   0  0  0  0  0  0  0  0  0  0  0  0
   -6.7286   18.4844  -35.3328 H   0  0  0  0  0  0  0  0  0  0  0  0
   -5.1475   19.3173  -34.9253 H   0  0  0  0  0  0  0  0  0  0  0  0
   -4.6064   17.5429  -31.8501 H   0  0  0  0  0  0  0  0  0  0  0  0
   -3.6468   17.5397  -33.4060 H   0  0  0  0  0  0  0  0  0  0  0  0
   -5.6140   20.1000  -31.2540 H   0  0  0  0  0  0  0  0  0  0  0  0
   -6.6332   22.6354  -32.0306 H   0  0  0  0  0  0  0  0  0  0  0  0
   -7.2190   24.8544  -31.0373 H   0  0  0  0  0  0  0  0  0  0  0  0
   -5.4384   26.2191  -29.9339 H   0  0  0  0  0  0  0  0  0  0  0  0
   -2.5234   23.2354  -30.7974 H   0  0  0  0  0  0  0  0  0  0  0  0
   -7.4275   16.5511  -33.5498 H   0  0  0  0  0  0  0  0  0  0  0  0
   -6.4338   16.5951  -32.0414 H   0  0  0  0  0  0  0  0  0  0  0  0
  1  2  1  0
  2  3  1  0
  3  4  2  0
  4  5  1  0
  5  6  2  0
  6  7  1  0
  7  8  1  0
  8  9  1  0
  9 10  1  0
 10 11  1  0
 11 12  2  0
 12 13  1  0
 13 14  1  0
 14 15  2  0
 15 16  1  0
 16 17  2  0
 17 18  1  0
 18 19  2  0
 13 20  2  0
 20 21  1  0
  9 22  1  0
  6  2  1  0
 21 11  1  0
 22  5  1  0
 19 14  1  0
  1 23  1  0
  1 24  1  0
  1 25  1  0
  4 26  1  0
  7 27  1  0
  7 28  1  0
  8 29  1  0
  8 30  1  0
 10 31  1  0
 10 32  1  0
 12 33  1  0
 15 34  1  0
 16 35  1  0
 17 36  1  0
 19 37  1  0
 22 38  1  0
 22 39  1  0
M  CHG  1  12   1
M  END
>  <UniqueID>  (11) 
11

>  <SMILES>  (11) 
Cn1ncc2c1CCN(Cc1[nH+]c(-c3cccnc3)no1)C2

>  <Energy>  (11) 
117.22228830730215

>  <Genealogy>  (11) 
Cn1ncc2c1CCN(Cc1[nH+]c(-c3cccnc3)no1)C2 (protonated)
Cn1ncc2c1CCN(Cc1[nH+]c(-c3cccnc3)no1)C2 (3D coordinates assigned)
Cn1ncc2c1CCN(Cc1[nH+]c(-c3cccnc3)no1)C2 (nonaromatic ring conformer: 117.22228830730215 kcal/mol)

>  <smiles>  (11) 
Cn1ncc2c1CCN(Cc1nc(-c3cccnc3)no1)C2

>  <score_type>  (11) 
oracle

>  <origin>  (11) 
adg

>  <m_score__min__energy>  (11) 
-7.75

>  <m_primary>  (11) 
energy

$$$$
11:0
     RDKit          3D

 30 32  0  0  0  0  0  0  0  0999 V2000
   -6.5010   16.0160  -33.8940 C   0  0  0  0  0  0  0  0  0  0  0  0
   -5.3140   16.8770  -33.9670 N   0  0  0  0  0  0  0  0  0  0  0  0
   -4.0570   16.3100  -34.4700 C   0  0  0  0  0  0  0  0  0  0  0  0
   -5.3830   18.2660  -33.5510 C   0  0  0  0  0  0  0  0  0  0  0  0
   -6.4640   19.0820  -33.9410 C   0  0  0  0  0  0  0  0  0  0  0  0
   -6.5340   20.4170  -33.5410 C   0  0  0  0  0  0  0  0  0  0  0  0
   -5.5290   20.9730  -32.7430 C   0  0  0  0  0  0  0  0  0  0  0  0
   -4.4340   20.1720  -32.3400 C   0  0  0  0  0  0  0  0  0  0  0  0
   -4.3720   18.8310  -32.7470 C   0  0  0  0  0  0  0  0  0  0  0  0
   -3.3140   20.7300  -31.4760 C   0  0  0  0  0  0  0  0  0  0  0  0
   -3.5330   22.1360  -31.1390 N   0  0  0  0  0  0  0  0  0  0  0  0
   -2.7620   22.9460  -30.3990 C   0  0  0  0  0  0  0  0  0  0  0  0
   -3.3870   24.1750  -30.3720 C   0  0  0  0  0  0  0  0  0  0  0  0
   -2.9120   25.2980  -29.7080 O   0  0  0  0  0  0  0  0  0  0  0  0
   -4.5370   24.1560  -31.0800 N   0  0  0  0  0  0  0  0  0  0  0  0
   -4.5770   22.8830  -31.5280 C   0  0  0  0  0  0  0  0  0  0  0  0
   -5.6150   22.3480  -32.3400 N   0  0  0  0  0  0  0  0  0  0  0  0
   -6.7557   15.8313  -32.8400 H   0  0  0  0  0  0  0  0  0  0  0  0
   -7.3457   16.5129  -34.3937 H   0  0  0  0  0  0  0  0  0  0  0  0
   -6.2910   15.0588  -34.3937 H   0  0  0  0  0  0  0  0  0  0  0  0
   -3.4190   16.0222  -33.6214 H   0  0  0  0  0  0  0  0  0  0  0  0
   -4.2743   15.4227  -35.0828 H   0  0  0  0  0  0  0  0  0  0  0  0
   -3.5357   17.0601  -35.0828 H   0  0  0  0  0  0  0  0  0  0  0  0
   -7.2630   18.6609  -34.5690 H   0  0  0  0  0  0  0  0  0  0  0  0
   -7.3864   21.0370  -33.8558 H   0  0  0  0  0  0  0  0  0  0  0  0
   -3.5201   18.2097  -32.4335 H   0  0  0  0  0  0  0  0  0  0  0  0
   -3.2582   20.1460  -30.5455 H   0  0  0  0  0  0  0  0  0  0  0  0
   -2.3761   20.6586  -32.0464 H   0  0  0  0  0  0  0  0  0  0  0  0
   -1.8139   22.6812  -29.9082 H   0  0  0  0  0  0  0  0  0  0  0  0
   -6.4180   22.9500  -32.6310 H   0  0  0  0  0  0  0  0  0  0  0  0
  1  2  1  0
  2  3  1  0
  2  4  1  0
  4  5  2  0
  5  6  1  0
  6  7  2  0
  7  8  1  0
  8  9  2  0
  8 10  1  0
 10 11  1  0
 11 12  1  0
 12 13  2  0
 13 14  1  0
 13 15  1  0
 15 16  2  0
 16 17  1  0
  9  4  1  0
 16 11  1  0
 17  7  1  0
  1 18  1  0
  1 19  1  0
  1 20  1  0
  3 21  1  0
  3 22  1  0
  3 23  1  0
  5 24  1  0
  6 25  1  0
  9 26  1  0
 10 27  1  0
 10 28  1  0
 12 29  1  0
 17 30  1  0
M  CHG  1  14  -1
M  END
>  <UniqueID>  (12) 
12

>  <SMILES>  (12) 
CN(C)c1ccc2c(c1)Cn1cc([O-])nc1N2

>  <Energy>  (12) 
66.5253841690787

>  <Genealogy>  (12) 
CN(C)c1ccc2c(c1)Cn1cc([O-])nc1N2 (protonated)
CN(C)c1ccc2c(c1)Cn1cc([O-])nc1N2 (3D coordinates assigned)
CN(C)c1ccc2c(c1)Cn1cc([O-])nc1N2 (nonaromatic ring conformer: 66.5253841690787 kcal/mol)

>  <smiles>  (12) 
CN(C)c1ccc2c(c1)Cn1cc(O)nc1N2

>  <score_type>  (12) 
oracle

>  <origin>  (12) 
adg

>  <m_score__min__energy>  (12) 
-8.9499999999999993

>  <m_primary>  (12) 
energy

$$$$
12:0
     RDKit          3D

 37 39  0  0  0  0  0  0  0  0999 V2000
   -0.5030   26.2540  -23.6790 C   0  0  0  0  0  0  0  0  0  0  0  0
   -1.1540   26.7950  -24.8240 O   0  0  0  0  0  0  0  0  0  0  0  0
   -1.4750   26.0580  -25.9740 C   0  0  0  0  0  0  0  0  0  0  0  0
   -0.6440   26.0360  -27.1110 C   0  0  0  0  0  0  0  0  0  0  0  0
   -1.0050   25.2880  -28.2350 C   0  0  0  0  0  0  0  0  0  0  0  0
   -2.1980   24.5510  -28.2420 C   0  0  0  0  0  0  0  0  0  0  0  0
   -2.5650   23.7970  -29.3660 C   0  0  0  0  0  0  0  0  0  0  0  0
   -3.7560   23.0470  -29.3640 C   0  0  0  0  0  0  0  0  0  0  0  0
   -4.1450   22.2480  -30.4930 N   0  0  0  0  0  0  0  0  0  0  0  0
   -5.1000   22.8540  -31.8090 S   0  0  0  0  0  0  0  0  0  0  0  0
   -4.3380   22.6760  -33.0920 O   0  0  0  0  0  0  0  0  0  0  0  0
   -5.3580   24.3210  -31.6040 O   0  0  0  0  0  0  0  0  0  0  0  0
   -6.6530   22.0090  -31.8750 C   0  0  0  0  0  0  0  0  0  0  0  0
   -7.8180   22.6730  -31.4570 C   0  0  0  0  0  0  0  0  0  0  0  0
   -9.0600   22.0370  -31.5250 C   0  0  0  0  0  0  0  0  0  0  0  0
   -9.1510   20.7310  -32.0080 C   0  0  0  0  0  0  0  0  0  0  0  0
   -8.0000   20.0590  -32.4230 C   0  0  0  0  0  0  0  0  0  0  0  0
   -6.7500   20.6860  -32.3610 C   0  0  0  0  0  0  0  0  0  0  0  0
   -5.2190   19.6900  -32.9470 Br  0  0  0  0  0  0  0  0  0  0  0  0
   -4.5870   23.0850  -28.2350 C   0  0  0  0  0  0  0  0  0  0  0  0
   -4.2320   23.8370  -27.1120 C   0  0  0  0  0  0  0  0  0  0  0  0
   -3.0370   24.5700  -27.1040 C   0  0  0  0  0  0  0  0  0  0  0  0
   -2.6670   25.3250  -25.9800 C   0  0  0  0  0  0  0  0  0  0  0  0
   -0.9767   26.6477  -22.7676 H   0  0  0  0  0  0  0  0  0  0  0  0
   -0.5887   25.1574  -23.6924 H   0  0  0  0  0  0  0  0  0  0  0  0
    0.5594   26.5389  -23.6924 H   0  0  0  0  0  0  0  0  0  0  0  0
    0.2940   26.6105  -27.1143 H   0  0  0  0  0  0  0  0  0  0  0  0
   -0.3500   25.2773  -29.1187 H   0  0  0  0  0  0  0  0  0  0  0  0
   -1.9176   23.7917  -30.2553 H   0  0  0  0  0  0  0  0  0  0  0  0
   -3.7230   21.2990  -30.6140 H   0  0  0  0  0  0  0  0  0  0  0  0
   -7.7519   23.7017  -31.0731 H   0  0  0  0  0  0  0  0  0  0  0  0
   -9.9670   22.5662  -31.1975 H   0  0  0  0  0  0  0  0  0  0  0  0
  -10.1294   20.2312  -32.0617 H   0  0  0  0  0  0  0  0  0  0  0  0
   -8.0758   19.0290  -32.8016 H   0  0  0  0  0  0  0  0  0  0  0  0
   -5.5287   22.5165  -28.2334 H   0  0  0  0  0  0  0  0  0  0  0  0
   -4.8919   23.8539  -26.2320 H   0  0  0  0  0  0  0  0  0  0  0  0
   -3.3204   25.3406  -25.0952 H   0  0  0  0  0  0  0  0  0  0  0  0
  1  2  1  0
  2  3  1  0
  3  4  2  0
  4  5  1  0
  5  6  2  0
  6  7  1  0
  7  8  2  0
  8  9  1  0
  9 10  1  0
 10 11  2  0
 10 12  2  0
 10 13  1  0
 13 14  2  0
 14 15  1  0
 15 16  2  0
 16 17  1  0
 17 18  2  0
 18 19  1  0
  8 20  1  0
 20 21  2  0
 21 22  1  0
 22 23  2  0
 23  3  1  0
 22  6  1  0
 18 13  1  0
  1 24  1  0
  1 25  1  0
  1 26  1  0
  4 27  1  0
  5 28  1  0
  7 29  1  0
  9 30  1  0
 14 31  1  0
 15 32  1  0
 16 33  1  0
 17 34  1  0
 20 35  1  0
 21 36  1  0
 23 37  1  0
M  END
>  <UniqueID>  (13) 
13

>  <SMILES>  (13) 
COc1ccc2cc(NS(=O)(=O)c3ccccc3Br)ccc2c1

>  <Energy>  (13) 
45.88242893241324

>  <Genealogy>  (13) 
COc1ccc2cc(NS(=O)(=O)c3ccccc3Br)ccc2c1 (3D coordinates assigned)
COc1ccc2cc(NS(=O)(=O)c3ccccc3Br)ccc2c1 (optimized conformer: 45.88242893241324 kcal/mol)

>  <smiles>  (13) 
COc1ccc2cc(NS(=O)(=O)c3ccccc3Br)ccc2c1

>  <score_type>  (13) 
oracle

>  <origin>  (13) 
adg

>  <m_score__min__energy>  (13) 
-8.8900000000000006

>  <m_primary>  (13) 
energy

$$$$
13:0
     RDKit          3D

 37 39  0  0  0  0  0  0  0  0999 V2000
   -8.7200   22.4440  -31.9540 C   0  0  0  0  0  0  0  0  0  0  0  0
   -8.4320   20.9680  -32.0310 C   0  0  0  0  0  0  0  0  0  0  0  0
   -9.4940   20.0880  -32.3020 C   0  0  0  0  0  0  0  0  0  0  0  0
   -9.2850   18.7090  -32.3450 C   0  0  0  0  0  0  0  0  0  0  0  0
   -8.0110   18.1890  -32.1190 C   0  0  0  0  0  0  0  0  0  0  0  0
   -6.9400   19.0460  -31.8660 C   0  0  0  0  0  0  0  0  0  0  0  0
   -7.1270   20.4410  -31.8350 C   0  0  0  0  0  0  0  0  0  0  0  0
   -5.9460   21.3050  -31.5980 C   0  0  0  0  0  0  0  0  0  0  0  0
   -4.7860   21.3220  -32.3660 C   0  0  0  0  0  0  0  0  0  0  0  0
   -3.8600   22.2920  -31.9630 C   0  0  0  0  0  0  0  0  0  0  0  0
   -4.2860   23.0470  -30.8740 C   0  0  0  0  0  0  0  0  0  0  0  0
   -3.5420   24.1730  -30.2720 C   0  0  0  0  0  0  0  0  0  0  0  0
   -3.8720   25.3510  -30.5800 O   0  0  0  0  0  0  0  0  0  0  0  0
   -2.4620   23.9650  -29.3440 N   0  0  0  0  0  0  0  0  0  0  0  0
   -1.5230   22.8490  -29.4940 C   0  0  0  0  0  0  0  0  0  0  0  0
   -0.1160   23.3050  -29.0980 C   0  0  0  0  0  0  0  0  0  0  0  0
   -0.1230   23.9020  -27.8160 O   0  0  0  0  0  0  0  0  0  0  0  0
   -0.8850   25.0930  -27.8460 C   0  0  0  0  0  0  0  0  0  0  0  0
   -2.3570   24.7920  -28.1380 C   0  0  0  0  0  0  0  0  0  0  0  0
   -5.8260   22.5240  -30.4400 S   0  0  0  0  0  0  0  0  0  0  0  0
   -8.7800   22.7514  -30.8995 H   0  0  0  0  0  0  0  0  0  0  0  0
   -7.9137   23.0014  -32.4531 H   0  0  0  0  0  0  0  0  0  0  0  0
   -9.6767   22.6574  -32.4531 H   0  0  0  0  0  0  0  0  0  0  0  0
  -10.5015   20.4910  -32.4823 H   0  0  0  0  0  0  0  0  0  0  0  0
  -10.1255   18.0319  -32.5573 H   0  0  0  0  0  0  0  0  0  0  0  0
   -7.8504   17.1010  -32.1403 H   0  0  0  0  0  0  0  0  0  0  0  0
   -5.9384   18.6273  -31.6888 H   0  0  0  0  0  0  0  0  0  0  0  0
   -4.6127   20.6381  -33.2100 H   0  0  0  0  0  0  0  0  0  0  0  0
   -2.8898   22.4427  -32.4590 H   0  0  0  0  0  0  0  0  0  0  0  0
   -1.8350   22.0181  -28.8442 H   0  0  0  0  0  0  0  0  0  0  0  0
   -1.5173   22.5147  -30.5419 H   0  0  0  0  0  0  0  0  0  0  0  0
    0.5554   22.4337  -29.0863 H   0  0  0  0  0  0  0  0  0  0  0  0
    0.2328   24.0478  -29.8306 H   0  0  0  0  0  0  0  0  0  0  0  0
   -0.8067   25.5954  -26.8706 H   0  0  0  0  0  0  0  0  0  0  0  0
   -0.4936   25.7408  -28.6442 H   0  0  0  0  0  0  0  0  0  0  0  0
   -2.7962   24.2530  -27.2856 H   0  0  0  0  0  0  0  0  0  0  0  0
   -2.8979   25.7368  -28.2957 H   0  0  0  0  0  0  0  0  0  0  0  0
  1  2  1  0
  2  3  2  0
  3  4  1  0
  4  5  2  0
  5  6  1  0
  6  7  2  0
  7  8  1  0
  8  9  2  0
  9 10  1  0
 10 11  2  0
 11 12  1  0
 12 13  2  0
 12 14  1  0
 14 15  1  0
 15 16  1  0
 16 17  1  0
 17 18  1  0
 18 19  1  0
 11 20  1  0
  7  2  1  0
 20  8  1  0
 19 14  1  0
  1 21  1  0
  1 22  1  0
  1 23  1  0
  3 24  1  0
  4 25  1  0
  5 26  1  0
  6 27  1  0
  9 28  1  0
 10 29  1  0
 15 30  1  0
 15 31  1  0
 16 32  1  0
 16 33  1  0
 18 34  1  0
 18 35  1  0
 19 36  1  0
 19 37  1  0
M  END
>  <UniqueID>  (14) 
14

>  <SMILES>  (14) 
Cc1ccccc1-c1ccc(C(=O)N2CCOCC2)s1

>  <Energy>  (14) 
75.07202677060056

>  <Genealogy>  (14) 
Cc1ccccc1-c1ccc(C(=O)N2CCOCC2)s1 (3D coordinates assigned)
Cc1ccccc1-c1ccc(C(=O)N2CCOCC2)s1 (nonaromatic ring conformer: 75.07202677060056 kcal/mol)

>  <smiles>  (14) 
Cc1ccccc1-c1ccc(C(=O)N2CCOCC2)s1

>  <score_type>  (14) 
oracle

>  <origin>  (14) 
adg

>  <m_score__min__energy>  (14) 
-8.1600000000000001

>  <m_primary>  (14) 
energy

$$$$
14:0
     RDKit          3D

 25 26  0  0  0  0  0  0  0  0999 V2000
   -1.8770   24.6590  -28.6020 C   0  0  0  0  0  0  0  0  0  0  0  0
   -2.7300   24.9160  -29.7150 O   0  0  0  0  0  0  0  0  0  0  0  0
   -3.6440   23.9960  -30.2540 C   0  0  0  0  0  0  0  0  0  0  0  0
   -3.2540   23.0540  -31.2190 C   0  0  0  0  0  0  0  0  0  0  0  0
   -4.1720   22.1450  -31.7400 C   0  0  0  0  0  0  0  0  0  0  0  0
   -3.7650   21.2490  -32.6790 N   0  0  0  0  0  0  0  0  0  0  0  0
   -4.6200   20.3570  -33.2390 C   0  0  0  0  0  0  0  0  0  0  0  0
   -5.9620   20.3470  -32.8660 C   0  0  0  0  0  0  0  0  0  0  0  0
   -6.4150   21.2530  -31.9060 C   0  0  0  0  0  0  0  0  0  0  0  0
   -5.5190   22.1640  -31.3070 C   0  0  0  0  0  0  0  0  0  0  0  0
   -5.9260   23.1050  -30.3280 C   0  0  0  0  0  0  0  0  0  0  0  0
   -7.2900   23.1510  -29.8810 N   0  0  0  0  0  0  0  0  0  0  0  0
   -4.9770   24.0170  -29.7990 C   0  0  0  0  0  0  0  0  0  0  0  0
   -5.3470   24.9430  -28.7630 N   0  0  0  0  0  0  0  0  0  0  0  0
   -2.4329   24.8265  -27.6677 H   0  0  0  0  0  0  0  0  0  0  0  0
   -1.5291   23.6162  -28.6398 H   0  0  0  0  0  0  0  0  0  0  0  0
   -1.0109   25.3361  -28.6398 H   0  0  0  0  0  0  0  0  0  0  0  0
   -2.2110   23.0334  -31.5679 H   0  0  0  0  0  0  0  0  0  0  0  0
   -4.2530   19.6406  -33.9887 H   0  0  0  0  0  0  0  0  0  0  0  0
   -6.6594   19.6305  -33.3246 H   0  0  0  0  0  0  0  0  0  0  0  0
   -7.4757   21.2570  -31.6148 H   0  0  0  0  0  0  0  0  0  0  0  0
   -8.0670   22.7830  -30.4720 H   0  0  0  0  0  0  0  0  0  0  0  0
   -7.5500   23.5650  -28.9600 H   0  0  0  0  0  0  0  0  0  0  0  0
   -6.2580   24.8790  -28.2610 H   0  0  0  0  0  0  0  0  0  0  0  0
   -4.6750   25.6620  -28.4150 H   0  0  0  0  0  0  0  0  0  0  0  0
  1  2  1  0
  2  3  1  0
  3  4  2  0
  4  5  1  0
  5  6  2  0
  6  7  1  0
  7  8  2  0
  8  9  1  0
  9 10  2  0
 10 11  1  0
 11 12  1  0
 11 13  2  0
 13 14  1  0
 13  3  1  0
 10  5  1  0
  1 15  1  0
  1 16  1  0
  1 17  1  0
  4 18  1  0
  7 19  1  0
  8 20  1  0
  9 21  1  0
 12 22  1  0
 12 23  1  0
 14 24  1  0
 14 25  1  0
M  END
>  <UniqueID>  (15) 
15

>  <SMILES>  (15) 
COc1cc2ncccc2c(N)c1N

>  <Energy>  (15) 
34.719682179653276

>  <Genealogy>  (15) 
COc1cc2ncccc2c(N)c1N (3D coordinates assigned)
COc1cc2ncccc2c(N)c1N (optimized conformer: 34.719682179653276 kcal/mol)

>  <smiles>  (15) 
COc1cc2ncccc2c(N)c1N

>  <score_type>  (15) 
oracle

>  <origin>  (15) 
adg

>  <m_score__min__energy>  (15) 
-5.1299999999999999

>  <m_primary>  (15) 
energy

$$$$
15:0
     RDKit          3D

 57 61  0  0  0  0  0  0  0  0999 V2000
   -4.1890   15.6660  -34.5780 C   0  0  0  0  0  0  0  0  0  0  0  0
   -5.2590   16.5730  -34.8280 O   0  0  0  0  0  0  0  0  0  0  0  0
   -5.5290   17.7100  -34.0530 C   0  0  0  0  0  0  0  0  0  0  0  0
   -5.3390   17.6330  -32.6680 C   0  0  0  0  0  0  0  0  0  0  0  0
   -5.6230   18.7290  -31.8490 C   0  0  0  0  0  0  0  0  0  0  0  0
   -6.0790   19.9320  -32.4110 C   0  0  0  0  0  0  0  0  0  0  0  0
   -6.4770   21.0540  -31.5420 C   0  0  0  0  0  0  0  0  0  0  0  0
   -7.7730   21.1360  -31.0280 C   0  0  0  0  0  0  0  0  0  0  0  0
   -7.9960   22.6460  -30.3150 S   0  0  0  0  0  0  0  0  0  0  0  0
   -6.4420   23.1990  -30.6310 C   0  0  0  0  0  0  0  0  0  0  0  0
   -5.8870   24.4430  -30.3360 C   0  0  0  0  0  0  0  0  0  0  0  0
   -6.6760   25.5220  -29.6640 C   0  0  0  0  0  0  0  0  0  0  0  0
   -4.5910   24.6570  -30.6870 N   0  0  0  0  0  0  0  0  0  0  0  0
   -3.8530   23.7060  -31.2700 N   0  0  0  0  0  0  0  0  0  0  0  0
   -4.3580   22.4740  -31.5750 C   0  0  0  0  0  0  0  0  0  0  0  0
   -3.4590   21.4510  -32.0330 N   0  0  0  0  0  0  0  0  0  0  0  0
   -2.5460   20.8530  -31.0480 C   0  0  0  0  0  0  0  0  0  0  0  0
   -1.9420   19.5520  -31.5810 C   0  0  0  0  0  0  0  0  0  0  0  0
   -1.3900   19.7310  -32.9300 N   0  0  0  0  0  0  0  0  0  0  0  0
   -0.3300   18.8680  -33.3710 C   0  0  0  0  0  0  0  0  0  0  0  0
   -0.5390   18.0360  -34.4820 C   0  0  0  0  0  0  0  0  0  0  0  0
    0.4830   17.2070  -34.9490 C   0  0  0  0  0  0  0  0  0  0  0  0
    1.7240   17.2020  -34.3120 C   0  0  0  0  0  0  0  0  0  0  0  0
    1.9450   18.0180  -33.2000 C   0  0  0  0  0  0  0  0  0  0  0  0
    0.9190   18.8440  -32.7080 C   0  0  0  0  0  0  0  0  0  0  0  0
    1.1860   19.7070  -31.5080 C   0  0  0  0  0  0  0  0  0  0  0  0
   -1.7060   20.9290  -33.7140 C   0  0  0  0  0  0  0  0  0  0  0  0
   -3.1530   21.3690  -33.4700 C   0  0  0  0  0  0  0  0  0  0  0  0
   -5.7120   22.2160  -31.2810 C   0  0  0  0  0  0  0  0  0  0  0  0
   -6.2690   20.0130  -33.7980 C   0  0  0  0  0  0  0  0  0  0  0  0
   -5.9900   18.9150  -34.6160 C   0  0  0  0  0  0  0  0  0  0  0  0
   -4.0525   15.5503  -33.4927 H   0  0  0  0  0  0  0  0  0  0  0  0
   -4.4250   14.6886  -35.0242 H   0  0  0  0  0  0  0  0  0  0  0  0
   -3.2635   16.0589  -35.0242 H   0  0  0  0  0  0  0  0  0  0  0  0
   -4.9627   16.7012  -32.2205 H   0  0  0  0  0  0  0  0  0  0  0  0
   -5.4888   18.6489  -30.7602 H   0  0  0  0  0  0  0  0  0  0  0  0
   -8.5297   20.3394  -31.0805 H   0  0  0  0  0  0  0  0  0  0  0  0
   -6.5944   25.4104  -28.5727 H   0  0  0  0  0  0  0  0  0  0  0  0
   -6.2819   26.5046  -29.9626 H   0  0  0  0  0  0  0  0  0  0  0  0
   -7.7318   25.4443  -29.9626 H   0  0  0  0  0  0  0  0  0  0  0  0
   -1.7351   21.5638  -30.8308 H   0  0  0  0  0  0  0  0  0  0  0  0
   -3.1148   20.6272  -30.1340 H   0  0  0  0  0  0  0  0  0  0  0  0
   -1.1371   19.2278  -30.9050 H   0  0  0  0  0  0  0  0  0  0  0  0
   -2.7387   18.7951  -31.6304 H   0  0  0  0  0  0  0  0  0  0  0  0
   -1.5154   18.0370  -34.9887 H   0  0  0  0  0  0  0  0  0  0  0  0
    0.3094   16.5575  -35.8197 H   0  0  0  0  0  0  0  0  0  0  0  0
    2.5303   16.5541  -34.6862 H   0  0  0  0  0  0  0  0  0  0  0  0
    2.9279   18.0144  -32.7061 H   0  0  0  0  0  0  0  0  0  0  0  0
    1.0063   19.1261  -30.5913 H   0  0  0  0  0  0  0  0  0  0  0  0
    2.2316   20.0480  -31.5269 H   0  0  0  0  0  0  0  0  0  0  0  0
    0.5156   20.5789  -31.5269 H   0  0  0  0  0  0  0  0  0  0  0  0
   -1.0266   21.7426  -33.4200 H   0  0  0  0  0  0  0  0  0  0  0  0
   -1.5823   20.6959  -34.7819 H   0  0  0  0  0  0  0  0  0  0  0  0
   -3.3067   22.3587  -33.9248 H   0  0  0  0  0  0  0  0  0  0  0  0
   -3.8210   20.6210  -33.9220 H   0  0  0  0  0  0  0  0  0  0  0  0
   -6.6401   20.9471  -34.2450 H   0  0  0  0  0  0  0  0  0  0  0  0
   -6.1312   18.9926  -35.7041 H   0  0  0  0  0  0  0  0  0  0  0  0
  1  2  1  0
  2  3  1  0
  3  4  2  0
  4  5  1  0
  5  6  2  0
  6  7  1  0
  7  8  2  0
  8  9  1  0
  9 10  1  0
 10 11  2  0
 11 12  1  0
 11 13  1  0
 13 14  2  0
 14 15  1  0
 15 16  1  0
 16 17  1  0
 17 18  1  0
 18 19  1  0
 19 20  1  0
 20 21  2  0
 21 22  1  0
 22 23  2  0
 23 24  1  0
 24 25  2  0
 25 26  1  0
 19 27  1  0
 27 28  1  0
 15 29  2  0
  6 30  1  0
 30 31  2  0
 31  3  1  0
 29  7  1  0
 29 10  1  0
 28 16  1  0
 25 20  1  0
  1 32  1  0
  1 33  1  0
  1 34  1  0
  4 35  1  0
  5 36  1  0
  8 37  1  0
 12 38  1  0
 12 39  1  0
 12 40  1  0
 17 41  1  0
 17 42  1  0
 18 43  1  0
 18 44  1  0
 21 45  1  0
 22 46  1  0
 23 47  1  0
 24 48  1  0
 26 49  1  0
 26 50  1  0
 26 51  1  0
 27 52  1  0
 27 53  1  0
 28 54  1  0
 28 55  1  0
 30 56  1  0
 31 57  1  0
M  END
>  <UniqueID>  (16) 
16

>  <SMILES>  (16) 
COc1ccc(-c2csc3c(C)nnc(N4CCN(c5ccccc5C)CC4)c23)cc1

>  <Energy>  (16) 
108.5130046663186

>  <Genealogy>  (16) 
COc1ccc(-c2csc3c(C)nnc(N4CCN(c5ccccc5C)CC4)c23)cc1 (3D coordinates assigned)
COc1ccc(-c2csc3c(C)nnc(N4CCN(c5ccccc5C)CC4)c23)cc1 (nonaromatic ring conformer: 108.5130046663186 kcal/mol)

>  <smiles>  (16) 
COc1ccc(-c2csc3c(C)nnc(N4CCN(c5ccccc5C)CC4)c23)cc1

>  <score_type>  (16) 
oracle

>  <origin>  (16) 
adg

>  <m_score__min__energy>  (16) 
-8.8599999999999994

>  <m_primary>  (16) 
energy

$$$$
16:0
     RDKit          3D

 86 90  0  0  0  0  0  0  0  0999 V2000
    0.5650   23.2180  -27.7650 C   0  0  0  0  0  0  0  0  0  0  0  0
    1.0100   24.6000  -28.0300 N   0  0  0  0  0  0  0  0  0  0  0  0
    2.4320   24.7260  -27.6680 C   0  0  0  0  0  0  0  0  0  0  0  0
    0.2000   25.5840  -27.2750 C   0  0  0  0  0  0  0  0  0  0  0  0
   -1.2140   25.7110  -27.8630 C   0  0  0  0  0  0  0  0  0  0  0  0
   -2.2470   25.6260  -26.8010 N   0  0  0  0  0  0  0  0  0  0  0  0
   -1.6930   25.0020  -25.5880 C   0  0  0  0  0  0  0  0  0  0  0  0
   -3.4480   24.8820  -27.2400 C   0  0  0  0  0  0  0  0  0  0  0  0
   -3.0840   23.7930  -28.2170 C   0  0  0  0  0  0  0  0  0  0  0  0
   -2.7000   22.5280  -27.7490 C   0  0  0  0  0  0  0  0  0  0  0  0
   -2.3230   21.5250  -28.6450 C   0  0  0  0  0  0  0  0  0  0  0  0
   -2.3220   21.7700  -30.0300 C   0  0  0  0  0  0  0  0  0  0  0  0
   -1.9270   20.7040  -30.9850 C   0  0  0  0  0  0  0  0  0  0  0  0
   -2.6770   20.4720  -32.1490 C   0  0  0  0  0  0  0  0  0  0  0  0
   -2.3010   19.4720  -33.0490 C   0  0  0  0  0  0  0  0  0  0  0  0
   -1.1630   18.6850  -32.8080 C   0  0  0  0  0  0  0  0  0  0  0  0
   -0.7640   17.6200  -33.7630 C   0  0  0  0  0  0  0  0  0  0  0  0
   -0.4400   17.9380  -35.0950 C   0  0  0  0  0  0  0  0  0  0  0  0
   -0.1000   16.9300  -36.0020 C   0  0  0  0  0  0  0  0  0  0  0  0
   -0.0860   15.5890  -35.5980 C   0  0  0  0  0  0  0  0  0  0  0  0
    0.1730   14.5040  -36.6090 C   0  0  0  0  0  0  0  0  0  0  0  0
   -0.6260   14.7480  -37.8160 N   0  0  0  0  0  0  0  0  0  0  0  0
   -1.4400   13.5780  -38.1700 C   0  0  0  0  0  0  0  0  0  0  0  0
   -2.1850   13.0500  -36.9390 C   0  0  0  0  0  0  0  0  0  0  0  0
   -3.4470   13.8800  -36.6080 C   0  0  0  0  0  0  0  0  0  0  0  0
   -3.1330   15.3110  -36.4850 N   0  0  0  0  0  0  0  0  0  0  0  0
   -3.8090   15.8720  -35.3420 C   0  0  0  0  0  0  0  0  0  0  0  0
   -3.8730   15.1690  -34.1280 C   0  0  0  0  0  0  0  0  0  0  0  0
   -4.5370   15.7280  -33.0330 C   0  0  0  0  0  0  0  0  0  0  0  0
   -4.5820   15.0910  -31.9440 O   0  0  0  0  0  0  0  0  0  0  0  0
   -5.1440   16.9910  -33.1560 C   0  0  0  0  0  0  0  0  0  0  0  0
   -5.8220   17.5990  -32.0840 C   0  0  0  0  0  0  0  0  0  0  0  0
   -6.4110   18.8570  -32.2480 C   0  0  0  0  0  0  0  0  0  0  0  0
   -6.3330   19.5150  -33.4800 C   0  0  0  0  0  0  0  0  0  0  0  0
   -5.6600   18.9230  -34.5510 C   0  0  0  0  0  0  0  0  0  0  0  0
   -5.0630   17.6650  -34.3970 C   0  0  0  0  0  0  0  0  0  0  0  0
   -4.4050   17.0950  -35.4400 N   0  0  0  0  0  0  0  0  0  0  0  0
   -0.3880   15.2680  -34.2670 C   0  0  0  0  0  0  0  0  0  0  0  0
   -0.7220   16.2740  -33.3560 C   0  0  0  0  0  0  0  0  0  0  0  0
   -0.4110   18.9160  -31.6430 C   0  0  0  0  0  0  0  0  0  0  0  0
   -0.7900   19.9130  -30.7410 C   0  0  0  0  0  0  0  0  0  0  0  0
   -2.7020   23.0410  -30.4960 C   0  0  0  0  0  0  0  0  0  0  0  0
   -3.0760   24.0470  -29.6000 C   0  0  0  0  0  0  0  0  0  0  0  0
   -3.4330   25.2990  -30.0920 O   0  0  0  0  0  0  0  0  0  0  0  0
    0.5115   23.0519  -26.6789 H   0  0  0  0  0  0  0  0  0  0  0  0
   -0.4290   23.0613  -28.2093 H   0  0  0  0  0  0  0  0  0  0  0  0
    1.2808   22.5107  -28.2093 H   0  0  0  0  0  0  0  0  0  0  0  0
    2.5321   24.7349  -26.5726 H   0  0  0  0  0  0  0  0  0  0  0  0
    2.9923   23.8740  -28.0805 H   0  0  0  0  0  0  0  0  0  0  0  0
    2.8337   25.6633  -28.0805 H   0  0  0  0  0  0  0  0  0  0  0  0
    0.1245   25.2575  -26.2273 H   0  0  0  0  0  0  0  0  0  0  0  0
    0.6935   26.5648  -27.3421 H   0  0  0  0  0  0  0  0  0  0  0  0
   -1.3041   26.6808  -28.3743 H   0  0  0  0  0  0  0  0  0  0  0  0
   -1.3726   24.8833  -28.5700 H   0  0  0  0  0  0  0  0  0  0  0  0
   -2.1223   25.4856  -24.6981 H   0  0  0  0  0  0  0  0  0  0  0  0
   -1.9430   23.9308  -25.5798 H   0  0  0  0  0  0  0  0  0  0  0  0
   -0.5998   25.1234  -25.5798 H   0  0  0  0  0  0  0  0  0  0  0  0
   -3.9317   24.4298  -26.3616 H   0  0  0  0  0  0  0  0  0  0  0  0
   -4.1319   25.5847  -27.7385 H   0  0  0  0  0  0  0  0  0  0  0  0
   -2.6957   22.3241  -26.6681 H   0  0  0  0  0  0  0  0  0  0  0  0
   -2.0249   20.5368  -28.2649 H   0  0  0  0  0  0  0  0  0  0  0  0
   -3.5684   21.0830  -32.3540 H   0  0  0  0  0  0  0  0  0  0  0  0
   -2.9015   19.2994  -33.9544 H   0  0  0  0  0  0  0  0  0  0  0  0
   -0.4544   18.9873  -35.4249 H   0  0  0  0  0  0  0  0  0  0  0  0
    0.1580   17.1915  -37.0388 H   0  0  0  0  0  0  0  0  0  0  0  0
    1.2408   14.4982  -36.8729 H   0  0  0  0  0  0  0  0  0  0  0  0
   -0.1076   13.5316  -36.1781 H   0  0  0  0  0  0  0  0  0  0  0  0
    0.0300   14.9350  -38.6100 H   0  0  0  0  0  0  0  0  0  0  0  0
   -2.1712   13.8653  -38.9400 H   0  0  0  0  0  0  0  0  0  0  0  0
   -0.7783   12.7866  -38.5519 H   0  0  0  0  0  0  0  0  0  0  0  0
   -2.4872   12.0096  -37.1292 H   0  0  0  0  0  0  0  0  0  0  0  0
   -1.5027   13.1229  -36.0793 H   0  0  0  0  0  0  0  0  0  0  0  0
   -4.1855   13.7438  -37.4118 H   0  0  0  0  0  0  0  0  0  0  0  0
   -3.8477   13.5303  -35.6451 H   0  0  0  0  0  0  0  0  0  0  0  0
   -2.1000   15.4460  -36.3990 H   0  0  0  0  0  0  0  0  0  0  0  0
   -3.4590   15.8140  -37.3430 H   0  0  0  0  0  0  0  0  0  0  0  0
   -3.4009   14.1794  -34.0392 H   0  0  0  0  0  0  0  0  0  0  0  0
   -5.8892   17.0839  -31.1144 H   0  0  0  0  0  0  0  0  0  0  0  0
   -6.9370   19.3303  -31.4058 H   0  0  0  0  0  0  0  0  0  0  0  0
   -6.8031   20.5015  -33.6056 H   0  0  0  0  0  0  0  0  0  0  0  0
   -5.5986   19.4454  -35.5171 H   0  0  0  0  0  0  0  0  0  0  0  0
   -0.3619   14.2187  -33.9379 H   0  0  0  0  0  0  0  0  0  0  0  0
   -0.9537   16.0114  -32.3132 H   0  0  0  0  0  0  0  0  0  0  0  0
    0.4824   18.3072  -31.4402 H   0  0  0  0  0  0  0  0  0  0  0  0
   -0.1939   20.0809  -29.8319 H   0  0  0  0  0  0  0  0  0  0  0  0
   -2.7051   23.2460  -31.5767 H   0  0  0  0  0  0  0  0  0  0  0  0
  1  2  1  0
  2  3  1  0
  2  4  1  0
  4  5  1  0
  5  6  1  0
  6  7  1  0
  6  8  1  0
  8  9  1  0
  9 10  2  0
 10 11  1  0
 11 12  2  0
 12 13  1  0
 13 14  2  0
 14 15  1  0
 15 16  2  0
 16 17  1  0
 17 18  2  0
 18 19  1  0
 19 20  2  0
 20 21  1  0
 21 22  1  0
 22 23  1  0
 23 24  1  0
 24 25  1  0
 25 26  1  0
 26 27  1  0
 27 28  2  0
 28 29  1  0
 29 30  2  0
 29 31  1  0
 31 32  2  0
 32 33  1  0
 33 34  2  0
 34 35  1  0
 35 36  2  0
 36 37  1  0
 20 38  1  0
 38 39  2  0
 16 40  1  0
 40 41  2  0
 12 42  1  0
 42 43  2  0
 43 44  1  0
 43  9  1  0
 41 13  1  0
 39 17  1  0
 37 27  1  0
 36 31  1  0
  1 45  1  0
  1 46  1  0
  1 47  1  0
  3 48  1  0
  3 49  1  0
  3 50  1  0
  4 51  1  0
  4 52  1  0
  5 53  1  0
  5 54  1  0
  7 55  1  0
  7 56  1  0
  7 57  1  0
  8 58  1  0
  8 59  1  0
 10 60  1  0
 11 61  1  0
 14 62  1  0
 15 63  1  0
 18 64  1  0
 19 65  1  0
 21 66  1  0
 21 67  1  0
 22 68  1  0
 23 69  1  0
 23 70  1  0
 24 71  1  0
 24 72  1  0
 25 73  1  0
 25 74  1  0
 26 75  1  0
 26 76  1  0
 28 77  1  0
 32 78  1  0
 33 79  1  0
 34 80  1  0
 35 81  1  0
 38 82  1  0
 39 83  1  0
 40 84  1  0
 41 85  1  0
 42 86  1  0
M  CHG  3  26   1  37  -1  44  -1
M  END
>  <UniqueID>  (17) 
17

>  <SMILES>  (17) 
CN(C)CCN(C)Cc1ccc(-c2ccc(-c3ccc(CNCCC[NH2+]c4cc(=O)c5ccccc5[n-]4)cc3)cc2)cc1[O-]

>  <Energy>  (17) 
103.69575983480671

>  <Genealogy>  (17) 
CN(C)CCN(C)Cc1ccc(-c2ccc(-c3ccc(CNCCC[NH2+]c4cc(=O)c5ccccc5[n-]4)cc3)cc2)cc1[O-] (protonated)
CN(C)CCN(C)Cc1ccc(-c2ccc(-c3ccc(CNCCC[NH2+]c4cc(=O)c5ccccc5[n-]4)cc3)cc2)cc1[O-] (3D coordinates assigned)
CN(C)CCN(C)Cc1ccc(-c2ccc(-c3ccc(CNCCC[NH2+]c4cc(=O)c5ccccc5[n-]4)cc3)cc2)cc1[O-] (optimized conformer: 103.69575983480671 kcal/mol)

>  <smiles>  (17) 
CN(C)CCN(C)Cc1ccc(-c2ccc(-c3ccc(CNCCCNc4cc(=O)c5ccccc5[nH]4)cc3)cc2)cc1O

>  <score_type>  (17) 
oracle

>  <origin>  (17) 
adg

>  <m_score__min__energy>  (17) 
-11.859999999999999

>  <m_primary>  (17) 
energy

$$$$
17:0
     RDKit          3D

 31 32  0  0  0  0  0  0  0  0999 V2000
   -1.9200   24.9680  -28.1890 C   0  0  0  0  0  0  0  0  0  0  0  0
   -2.6970   25.2990  -29.3350 O   0  0  0  0  0  0  0  0  0  0  0  0
   -3.7690   24.5300  -29.8150 C   0  0  0  0  0  0  0  0  0  0  0  0
   -3.5010   23.5300  -30.7560 C   0  0  0  0  0  0  0  0  0  0  0  0
   -4.5330   22.7360  -31.2640 C   0  0  0  0  0  0  0  0  0  0  0  0
   -5.8580   22.9350  -30.8390 C   0  0  0  0  0  0  0  0  0  0  0  0
   -6.9270   22.1150  -31.3490 N   0  0  0  0  0  0  0  0  0  0  0  0
   -6.8340   20.7860  -31.4240 N   0  0  0  0  0  0  0  0  0  0  0  0
   -7.9460   20.1890  -31.9250 C   0  0  0  0  0  0  0  0  0  0  0  0
   -8.0870   18.7670  -32.1120 N   0  0  0  0  0  0  0  0  0  0  0  0
   -7.0500   18.0110  -32.8220 C   0  0  0  0  0  0  0  0  0  0  0  0
   -9.2700   18.0810  -31.5850 C   0  0  0  0  0  0  0  0  0  0  0  0
   -9.1310   21.3390  -32.2980 S   0  0  0  0  0  0  0  0  0  0  0  0
   -8.1240   22.5830  -31.7830 C   0  0  0  0  0  0  0  0  0  0  0  0
   -8.4550   23.7990  -31.7720 O   0  0  0  0  0  0  0  0  0  0  0  0
   -6.1270   23.9320  -29.8890 C   0  0  0  0  0  0  0  0  0  0  0  0
   -5.0940   24.7260  -29.3810 C   0  0  0  0  0  0  0  0  0  0  0  0
   -2.4880   25.2099  -27.2786 H   0  0  0  0  0  0  0  0  0  0  0  0
   -1.6878   23.8929  -28.2015 H   0  0  0  0  0  0  0  0  0  0  0  0
   -0.9838   25.5454  -28.2015 H   0  0  0  0  0  0  0  0  0  0  0  0
   -2.4687   23.3672  -31.0992 H   0  0  0  0  0  0  0  0  0  0  0  0
   -4.3070   21.9509  -32.0006 H   0  0  0  0  0  0  0  0  0  0  0  0
   -5.9730   20.2660  -31.1410 H   0  0  0  0  0  0  0  0  0  0  0  0
   -6.3851   17.5262  -32.0920 H   0  0  0  0  0  0  0  0  0  0  0  0
   -7.5227   17.2441  -33.4532 H   0  0  0  0  0  0  0  0  0  0  0  0
   -6.4645   18.6956  -33.4532 H   0  0  0  0  0  0  0  0  0  0  0  0
   -9.2434   18.0964  -30.4854 H   0  0  0  0  0  0  0  0  0  0  0  0
  -10.1778   18.5928  -31.9370 H   0  0  0  0  0  0  0  0  0  0  0  0
   -9.2767   17.0389  -31.9370 H   0  0  0  0  0  0  0  0  0  0  0  0
   -7.1585   24.0903  -29.5411 H   0  0  0  0  0  0  0  0  0  0  0  0
   -5.3175   25.5069  -28.6393 H   0  0  0  0  0  0  0  0  0  0  0  0
  1  2  1  0
  2  3  1  0
  3  4  2  0
  4  5  1  0
  5  6  2  0
  6  7  1  0
  7  8  1  0
  8  9  2  0
  9 10  1  0
 10 11  1  0
 10 12  1  0
  9 13  1  0
 13 14  1  0
 14 15  2  0
  6 16  1  0
 16 17  2  0
 17  3  1  0
 14  7  1  0
  1 18  1  0
  1 19  1  0
  1 20  1  0
  4 21  1  0
  5 22  1  0
  8 23  1  0
 11 24  1  0
 11 25  1  0
 11 26  1  0
 12 27  1  0
 12 28  1  0
 12 29  1  0
 16 30  1  0
 17 31  1  0
M  CHG  1   8   1
M  END
>  <UniqueID>  (18) 
18

>  <SMILES>  (18) 
COc1ccc(-n2[nH+]c(N(C)C)sc2=O)cc1

>  <Energy>  (18) 
67.84266358560413

>  <Genealogy>  (18) 
COc1ccc(-n2[nH+]c(N(C)C)sc2=O)cc1 (protonated)
COc1ccc(-n2[nH+]c(N(C)C)sc2=O)cc1 (3D coordinates assigned)
COc1ccc(-n2[nH+]c(N(C)C)sc2=O)cc1 (optimized conformer: 67.84266358560413 kcal/mol)

>  <smiles>  (18) 
COc1ccc(-n2nc(N(C)C)sc2=O)cc1

>  <score_type>  (18) 
oracle

>  <origin>  (18) 
adg

>  <m_score__min__energy>  (18) 
-5.9900000000000002

>  <m_primary>  (18) 
energy

$$$$
18:0
     RDKit          3D

 44 45  0  0  0  0  0  0  0  0999 V2000
   -1.1840   21.0570  -30.2340 C   0  0  0  0  0  0  0  0  0  0  0  0
   -2.5450   21.4110  -29.8160 N   0  0  0  0  0  0  0  0  0  0  0  0
   -2.9500   21.2120  -28.4200 C   0  0  0  0  0  0  0  0  0  0  0  0
   -3.4610   21.9470  -30.8010 C   0  0  0  0  0  0  0  0  0  0  0  0
   -3.0850   22.0600  -32.0000 O   0  0  0  0  0  0  0  0  0  0  0  0
   -4.8600   22.4000  -30.4550 C   0  0  0  0  0  0  0  0  0  0  0  0
   -5.3240   23.5550  -31.3690 C   0  0  1  0  0  0  0  0  0  0  0  0
   -6.8570   23.5580  -31.5590 C   0  0  0  0  0  0  0  0  0  0  0  0
   -7.3950   22.1810  -31.8710 C   0  0  0  0  0  0  0  0  0  0  0  0
   -8.5650   21.7170  -31.2450 C   0  0  0  0  0  0  0  0  0  0  0  0
   -9.0450   20.4310  -31.5170 C   0  0  0  0  0  0  0  0  0  0  0  0
   -8.3600   19.5990  -32.4090 C   0  0  0  0  0  0  0  0  0  0  0  0
   -7.1960   20.0530  -33.0340 C   0  0  0  0  0  0  0  0  0  0  0  0
   -6.7130   21.3400  -32.7670 C   0  0  0  0  0  0  0  0  0  0  0  0
   -4.8660   24.8790  -30.8120 C   0  0  0  0  0  0  0  0  0  0  0  0
   -5.7090   25.7880  -30.5690 O   0  0  0  0  0  0  0  0  0  0  0  0
   -3.4860   25.0530  -30.4680 N   0  0  0  0  0  0  0  0  0  0  0  0
   -2.8960   24.8770  -29.1740 C   0  0  0  0  0  0  0  0  0  0  0  0
   -1.5090   24.9960  -28.9600 C   0  0  0  0  0  0  0  0  0  0  0  0
   -0.9760   24.7880  -27.6830 C   0  0  0  0  0  0  0  0  0  0  0  0
   -1.8160   24.4510  -26.6170 C   0  0  0  0  0  0  0  0  0  0  0  0
   -3.1930   24.3200  -26.8260 C   0  0  0  0  0  0  0  0  0  0  0  0
   -3.7270   24.5170  -28.1020 C   0  0  0  0  0  0  0  0  0  0  0  0
   -0.5579   20.8941  -29.3444 H   0  0  0  0  0  0  0  0  0  0  0  0
   -1.2129   20.1365  -30.8355 H   0  0  0  0  0  0  0  0  0  0  0  0
   -0.7607   21.8749  -30.8355 H   0  0  0  0  0  0  0  0  0  0  0  0
   -2.1655   21.5974  -27.7521 H   0  0  0  0  0  0  0  0  0  0  0  0
   -3.8901   21.7508  -28.2306 H   0  0  0  0  0  0  0  0  0  0  0  0
   -3.0980   20.1386  -28.2306 H   0  0  0  0  0  0  0  0  0  0  0  0
   -5.5499   21.5514  -30.5734 H   0  0  0  0  0  0  0  0  0  0  0  0
   -4.8583   22.7617  -29.4162 H   0  0  0  0  0  0  0  0  0  0  0  0
   -4.8665   23.3992  -32.3571 H   0  0  0  0  0  0  0  0  0  0  0  0
   -7.3281   23.9214  -30.6338 H   0  0  0  0  0  0  0  0  0  0  0  0
   -7.0909   24.2135  -32.4108 H   0  0  0  0  0  0  0  0  0  0  0  0
   -9.1045   22.3663  -30.5397 H   0  0  0  0  0  0  0  0  0  0  0  0
   -9.9633   20.0734  -31.0282 H   0  0  0  0  0  0  0  0  0  0  0  0
   -8.7379   18.5874  -32.6182 H   0  0  0  0  0  0  0  0  0  0  0  0
   -6.6585   19.3990  -33.7364 H   0  0  0  0  0  0  0  0  0  0  0  0
   -5.7960   21.6942  -33.2606 H   0  0  0  0  0  0  0  0  0  0  0  0
   -0.8439   25.2528  -29.7977 H   0  0  0  0  0  0  0  0  0  0  0  0
    0.1067   24.8899  -27.5172 H   0  0  0  0  0  0  0  0  0  0  0  0
   -1.3940   24.2889  -25.6142 H   0  0  0  0  0  0  0  0  0  0  0  0
   -3.8550   24.0620  -25.9862 H   0  0  0  0  0  0  0  0  0  0  0  0
   -4.8069   24.3889  -28.2675 H   0  0  0  0  0  0  0  0  0  0  0  0
  1  2  1  0
  2  3  1  0
  2  4  1  0
  4  5  2  0
  4  6  1  0
  6  7  1  0
  7  8  1  0
  8  9  1  0
  9 10  2  0
 10 11  1  0
 11 12  2  0
 12 13  1  0
 13 14  2  0
  7 15  1  0
 15 16  2  0
 15 17  1  0
 17 18  1  0
 18 19  2  0
 19 20  1  0
 20 21  2  0
 21 22  1  0
 22 23  2  0
 14  9  1  0
 23 18  1  0
  1 24  1  0
  1 25  1  0
  1 26  1  0
  3 27  1  0
  3 28  1  0
  3 29  1  0
  6 30  1  0
  6 31  1  0
  7 32  1  6
  8 33  1  0
  8 34  1  0
 10 35  1  0
 11 36  1  0
 12 37  1  0
 13 38  1  0
 14 39  1  0
 19 40  1  0
 20 41  1  0
 21 42  1  0
 22 43  1  0
 23 44  1  0
M  CHG  1  17  -1
M  END
>  <UniqueID>  (19) 
19

>  <SMILES>  (19) 
CN(C)C(=O)C[C@@H](Cc1ccccc1)C(=O)[N-]c1ccccc1

>  <Energy>  (19) 
40.90334614059318

>  <Genealogy>  (19) 
CN(C)C(=O)CC(Cc1ccccc1)C(=O)[N-]c1ccccc1 (protonated)
CN(C)C(=O)C[C@@H](Cc1ccccc1)C(=O)[N-]c1ccccc1 (chirality)
CN(C)C(=O)C[C@@H](Cc1ccccc1)C(=O)[N-]c1ccccc1 (3D coordinates assigned)
CN(C)C(=O)C[C@@H](Cc1ccccc1)C(=O)[N-]c1ccccc1 (optimized conformer: 40.90334614059318 kcal/mol)

>  <smiles>  (19) 
CN(C)C(=O)CC(Cc1ccccc1)C(=O)Nc1ccccc1

>  <score_type>  (19) 
oracle

>  <origin>  (19) 
adg

>  <m_score__min__energy>  (19) 
-9.4900000000000002

>  <m_primary>  (19) 
energy

$$$$
19:0
     RDKit          3D

 73 75  0  0  0  0  0  0  0  0999 V2000
   -3.2330   23.2880  -30.0780 C   0  0  0  0  0  0  0  0  0  0  0  0
   -4.4100   22.6020  -29.3730 C   0  0  0  0  0  0  0  0  0  0  0  0
   -5.6690   23.3830  -29.4890 N   0  0  0  0  0  0  0  0  0  0  0  0
   -5.3820   24.8000  -29.8530 C   0  0  0  0  0  0  0  0  0  0  0  0
   -6.5120   25.7550  -29.4580 C   0  0  0  0  0  0  0  0  0  0  0  0
   -6.6270   22.7190  -30.4160 C   0  0  0  0  0  0  0  0  0  0  0  0
   -6.0890   22.5280  -31.8560 C   0  0  0  0  0  0  0  0  0  0  0  0
   -6.9870   21.6180  -32.7040 C   0  0  0  0  0  0  0  0  0  0  0  0
   -8.3840   21.4360  -32.0860 C   0  0  0  0  0  0  0  0  0  0  0  0
   -8.4710   20.1850  -31.1950 C   0  0  0  0  0  0  0  0  0  0  0  0
   -9.1180   18.9790  -31.8940 C   0  0  0  0  0  0  0  0  0  0  0  0
   -8.1250   18.0500  -32.3480 O   0  0  0  0  0  0  0  0  0  0  0  0
   -6.8090   18.3500  -32.7310 C   0  0  0  0  0  0  0  0  0  0  0  0
   -6.4690   18.1830  -34.0790 C   0  0  0  0  0  0  0  0  0  0  0  0
   -5.1540   18.3780  -34.5150 C   0  0  0  0  0  0  0  0  0  0  0  0
   -4.1550   18.7760  -33.6110 C   0  0  0  0  0  0  0  0  0  0  0  0
   -2.7440   18.8570  -34.0670 C   0  0  0  0  0  0  0  0  0  0  0  0
   -2.0040   17.7190  -34.4210 C   0  0  0  0  0  0  0  0  0  0  0  0
   -0.7060   17.8710  -34.9070 C   0  0  0  0  0  0  0  0  0  0  0  0
   -0.0580   16.8390  -35.2280 O   0  0  0  0  0  0  0  0  0  0  0  0
   -0.1490   19.1630  -35.0350 C   0  0  0  0  0  0  0  0  0  0  0  0
    1.1450   19.4060  -35.5680 C   0  0  0  0  0  0  0  0  0  0  0  0
    1.9080   18.2960  -35.9900 O   0  0  0  0  0  0  0  0  0  0  0  0
    3.1000   17.8010  -35.3860 C   0  0  0  0  0  0  0  0  0  0  0  0
    1.6210   20.7430  -35.6640 C   0  0  0  0  0  0  0  0  0  0  0  0
    2.9020   20.9890  -36.1790 O   0  0  0  0  0  0  0  0  0  0  0  0
    4.0310   21.3360  -35.3810 C   0  0  0  0  0  0  0  0  0  0  0  0
    0.8260   21.8110  -35.1990 C   0  0  0  0  0  0  0  0  0  0  0  0
    1.3450   23.1140  -35.2210 O   0  0  0  0  0  0  0  0  0  0  0  0
    0.8940   24.1600  -36.0770 C   0  0  0  0  0  0  0  0  0  0  0  0
   -0.4540   21.5520  -34.6950 C   0  0  0  0  0  0  0  0  0  0  0  0
   -0.9460   20.2520  -34.6200 C   0  0  0  0  0  0  0  0  0  0  0  0
   -2.1780   20.0560  -34.1630 O   0  0  0  0  0  0  0  0  0  0  0  0
   -4.5050   18.9900  -32.2630 C   0  0  0  0  0  0  0  0  0  0  0  0
   -5.8160   18.7750  -31.8270 C   0  0  0  0  0  0  0  0  0  0  0  0
   -2.5398   23.6920  -29.3255 H   0  0  0  0  0  0  0  0  0  0  0  0
   -2.7053   22.5560  -30.7071 H   0  0  0  0  0  0  0  0  0  0  0  0
   -3.6098   24.1079  -30.7071 H   0  0  0  0  0  0  0  0  0  0  0  0
   -4.5650   21.6115  -29.8257 H   0  0  0  0  0  0  0  0  0  0  0  0
   -4.1614   22.5206  -28.3045 H   0  0  0  0  0  0  0  0  0  0  0  0
   -6.1350   23.3850  -28.5500 H   0  0  0  0  0  0  0  0  0  0  0  0
   -4.4608   25.1147  -29.3408 H   0  0  0  0  0  0  0  0  0  0  0  0
   -5.2769   24.8460  -30.9470 H   0  0  0  0  0  0  0  0  0  0  0  0
   -6.5782   25.8110  -28.3614 H   0  0  0  0  0  0  0  0  0  0  0  0
   -6.3050   26.7560  -29.8644 H   0  0  0  0  0  0  0  0  0  0  0  0
   -7.4645   25.3840  -29.8644 H   0  0  0  0  0  0  0  0  0  0  0  0
   -6.8736   21.7286  -30.0058 H   0  0  0  0  0  0  0  0  0  0  0  0
   -7.5033   23.3797  -30.4912 H   0  0  0  0  0  0  0  0  0  0  0  0
   -6.0255   23.5127  -32.3421 H   0  0  0  0  0  0  0  0  0  0  0  0
   -5.1019   22.0481  -31.7826 H   0  0  0  0  0  0  0  0  0  0  0  0
   -7.0978   22.0628  -33.7039 H   0  0  0  0  0  0  0  0  0  0  0  0
   -6.5102   20.6280  -32.7552 H   0  0  0  0  0  0  0  0  0  0  0  0
   -8.6190   22.3211  -31.4766 H   0  0  0  0  0  0  0  0  0  0  0  0
   -9.1024   21.3124  -32.9098 H   0  0  0  0  0  0  0  0  0  0  0  0
   -7.4526   19.9045  -30.8881 H   0  0  0  0  0  0  0  0  0  0  0  0
   -9.1091   20.4425  -30.3368 H   0  0  0  0  0  0  0  0  0  0  0  0
   -9.7881   18.4703  -31.1854 H   0  0  0  0  0  0  0  0  0  0  0  0
   -9.6806   19.3422  -32.7666 H   0  0  0  0  0  0  0  0  0  0  0  0
   -7.2449   17.8951  -34.8037 H   0  0  0  0  0  0  0  0  0  0  0  0
   -4.9004   18.2185  -35.5734 H   0  0  0  0  0  0  0  0  0  0  0  0
   -2.4436   16.7161  -34.3161 H   0  0  0  0  0  0  0  0  0  0  0  0
    3.0007   17.8422  -34.2913 H   0  0  0  0  0  0  0  0  0  0  0  0
    3.2652   16.7599  -35.7003 H   0  0  0  0  0  0  0  0  0  0  0  0
    3.9541   18.4188  -35.7003 H   0  0  0  0  0  0  0  0  0  0  0  0
    3.7664   21.2547  -34.3164 H   0  0  0  0  0  0  0  0  0  0  0  0
    4.8628   20.6520  -35.6054 H   0  0  0  0  0  0  0  0  0  0  0  0
    4.3350   22.3691  -35.6054 H   0  0  0  0  0  0  0  0  0  0  0  0
    0.5313   25.0013  -35.4682 H   0  0  0  0  0  0  0  0  0  0  0  0
    1.7260   24.4987  -36.7118 H   0  0  0  0  0  0  0  0  0  0  0  0
    0.0765   23.7875  -36.7118 H   0  0  0  0  0  0  0  0  0  0  0  0
   -1.0808   22.3887  -34.3529 H   0  0  0  0  0  0  0  0  0  0  0  0
   -3.7408   19.3289  -31.5480 H   0  0  0  0  0  0  0  0  0  0  0  0
   -6.0738   18.9390  -30.7703 H   0  0  0  0  0  0  0  0  0  0  0  0
  1  2  1  0
  2  3  1  0
  3  4  1  0
  4  5  1  0
  3  6  1  0
  6  7  1  0
  7  8  1  0
  8  9  1  0
  9 10  1  0
 10 11  1  0
 11 12  1  0
 12 13  1  0
 13 14  2  0
 14 15  1  0
 15 16  2  0
 16 17  1  0
 17 18  2  0
 18 19  1  0
 19 20  2  0
 19 21  1  0
 21 22  2  0
 22 23  1  0
 23 24  1  0
 22 25  1  0
 25 26  1  0
 26 27  1  0
 25 28  2  0
 28 29  1  0
 29 30  1  0
 28 31  1  0
 31 32  2  0
 32 33  1  0
 16 34  1  0
 34 35  2  0
 35 13  1  0
 33 17  1  0
 32 21  1  0
  1 36  1  0
  1 37  1  0
  1 38  1  0
  2 39  1  0
  2 40  1  0
  3 41  1  0
  4 42  1  0
  4 43  1  0
  5 44  1  0
  5 45  1  0
  5 46  1  0
  6 47  1  0
  6 48  1  0
  7 49  1  0
  7 50  1  0
  8 51  1  0
  8 52  1  0
  9 53  1  0
  9 54  1  0
 10 55  1  0
 10 56  1  0
 11 57  1  0
 11 58  1  0
 14 59  1  0
 15 60  1  0
 18 61  1  0
 24 62  1  0
 24 63  1  0
 24 64  1  0
 27 65  1  0
 27 66  1  0
 27 67  1  0
 30 68  1  0
 30 69  1  0
 30 70  1  0
 31 71  1  0
 34 72  1  0
 35 73  1  0
M  CHG  1   3   1
M  END
>  <UniqueID>  (20) 
20

>  <SMILES>  (20) 
CC[NH+](CC)CCCCCCOc1ccc(-c2cc(=O)c3c(OC)c(OC)c(OC)cc3o2)cc1

>  <Energy>  (20) 
90.74815537818498

>  <Genealogy>  (20) 
CC[NH+](CC)CCCCCCOc1ccc(-c2cc(=O)c3c(OC)c(OC)c(OC)cc3o2)cc1 (protonated)
CC[NH+](CC)CCCCCCOc1ccc(-c2cc(=O)c3c(OC)c(OC)c(OC)cc3o2)cc1 (3D coordinates assigned)
CC[NH+](CC)CCCCCCOc1ccc(-c2cc(=O)c3c(OC)c(OC)c(OC)cc3o2)cc1 (optimized conformer: 90.74815537818498 kcal/mol)

>  <smiles>  (20) 
CCN(CC)CCCCCCOc1ccc(-c2cc(=O)c3c(OC)c(OC)c(OC)cc3o2)cc1

>  <score_type>  (20) 
oracle

>  <origin>  (20) 
adg

>  <m_score__min__energy>  (20) 
-7.5899999999999999

>  <m_primary>  (20) 
energy

$$$$
20:0
     RDKit          3D

 37 39  0  0  0  0  0  0  0  0999 V2000
   -2.6200   24.7100  -28.2660 C   0  0  0  0  0  0  0  0  0  0  0  0
   -3.1110   24.9260  -29.5850 O   0  0  0  0  0  0  0  0  0  0  0  0
   -3.5730   23.9110  -30.4390 C   0  0  0  0  0  0  0  0  0  0  0  0
   -4.8980   23.8770  -30.9100 C   0  0  0  0  0  0  0  0  0  0  0  0
   -5.3310   22.8430  -31.7520 C   0  0  0  0  0  0  0  0  0  0  0  0
   -4.4270   21.8470  -32.1520 C   0  0  0  0  0  0  0  0  0  0  0  0
   -3.1030   21.8810  -31.6890 C   0  0  0  0  0  0  0  0  0  0  0  0
   -2.6720   22.9100  -30.8290 C   0  0  0  0  0  0  0  0  0  0  0  0
   -1.3560   22.9720  -30.3420 O   0  0  0  0  0  0  0  0  0  0  0  0
   -0.6790   21.8930  -29.7030 C   0  0  0  0  0  0  0  0  0  0  0  0
   -4.9020   20.7560  -33.0300 C   0  0  0  0  0  0  0  0  0  0  0  0
   -4.0720   19.9580  -33.5460 O   0  0  0  0  0  0  0  0  0  0  0  0
   -6.3140   20.5980  -33.2780 N   0  0  0  0  0  0  0  0  0  0  0  0
   -6.8380   19.3020  -33.7290 C   0  0  0  0  0  0  0  0  0  0  0  0
   -7.2990   18.4890  -32.5120 C   0  0  0  0  0  0  0  0  0  0  0  0
   -8.1460   19.3390  -31.5940 C   0  0  0  0  0  0  0  0  0  0  0  0
   -9.1100   18.8470  -31.0280 O   0  0  0  0  0  0  0  0  0  0  0  0
   -7.7400   20.7610  -31.2910 C   0  0  0  0  0  0  0  0  0  0  0  0
   -7.2850   21.4600  -32.5850 C   0  0  1  0  0  0  0  0  0  0  0  0
   -6.7240   22.8720  -32.3250 C   0  0  0  0  0  0  0  0  0  0  0  0
   -3.3729   25.0412  -27.5357 H   0  0  0  0  0  0  0  0  0  0  0  0
   -2.4155   23.6388  -28.1217 H   0  0  0  0  0  0  0  0  0  0  0  0
   -1.6922   25.2831  -28.1217 H   0  0  0  0  0  0  0  0  0  0  0  0
   -5.6014   24.6695  -30.6148 H   0  0  0  0  0  0  0  0  0  0  0  0
   -2.3959   21.0979  -32.0001 H   0  0  0  0  0  0  0  0  0  0  0  0
   -0.7520   22.0093  -28.6116 H   0  0  0  0  0  0  0  0  0  0  0  0
   -1.1420   20.9411  -30.0021 H   0  0  0  0  0  0  0  0  0  0  0  0
    0.3796   21.8958  -30.0021 H   0  0  0  0  0  0  0  0  0  0  0  0
   -7.6898   19.4656  -34.4055 H   0  0  0  0  0  0  0  0  0  0  0  0
   -6.0490   18.7513  -34.2621 H   0  0  0  0  0  0  0  0  0  0  0  0
   -7.8910   17.6279  -32.8557 H   0  0  0  0  0  0  0  0  0  0  0  0
   -6.4125   18.1451  -31.9590 H   0  0  0  0  0  0  0  0  0  0  0  0
   -8.5974   21.3028  -30.8653 H   0  0  0  0  0  0  0  0  0  0  0  0
   -6.9097   20.7559  -30.5695 H   0  0  0  0  0  0  0  0  0  0  0  0
   -8.1614   21.6089  -33.2329 H   0  0  0  0  0  0  0  0  0  0  0  0
   -6.7027   23.4238  -33.2764 H   0  0  0  0  0  0  0  0  0  0  0  0
   -7.3783   23.3611  -31.5883 H   0  0  0  0  0  0  0  0  0  0  0  0
  1  2  1  0
  2  3  1  0
  3  4  2  0
  4  5  1  0
  5  6  2  0
  6  7  1  0
  7  8  2  0
  8  9  1  0
  9 10  1  0
  6 11  1  0
 11 12  2  0
 11 13  1  0
 13 14  1  0
 14 15  1  0
 15 16  1  0
 16 17  2  0
 16 18  1  0
 18 19  1  0
 19 20  1  0
  8  3  1  0
 19 13  1  0
 20  5  1  0
  1 21  1  0
  1 22  1  0
  1 23  1  0
  4 24  1  0
  7 25  1  0
 10 26  1  0
 10 27  1  0
 10 28  1  0
 14 29  1  0
 14 30  1  0
 15 31  1  0
 15 32  1  0
 18 33  1  0
 18 34  1  0
 19 35  1  6
 20 36  1  0
 20 37  1  0
M  END
>  <UniqueID>  (21) 
21

>  <SMILES>  (21) 
COc1cc2c(cc1OC)C(=O)N1CCC(=O)C[C@H]1C2

>  <Energy>  (21) 
39.678336353140935

>  <Genealogy>  (21) 
COc1cc2c(cc1OC)C(=O)N1CCC(=O)C[C@H]1C2 (chirality)
COc1cc2c(cc1OC)C(=O)N1CCC(=O)C[C@H]1C2 (3D coordinates assigned)
COc1cc2c(cc1OC)C(=O)N1CCC(=O)C[C@H]1C2 (nonaromatic ring conformer: 39.678336353140935 kcal/mol)

>  <smiles>  (21) 
COc1cc2c(cc1OC)C(=O)N1CCC(=O)CC1C2

>  <score_type>  (21) 
oracle

>  <origin>  (21) 
adg

>  <m_score__min__energy>  (21) 
-7.0899999999999999

>  <m_primary>  (21) 
energy

$$$$
21:0
     RDKit          3D

 37 39  0  0  0  0  0  0  0  0999 V2000
   -9.1430   19.7390  -32.0510 C   0  0  0  0  0  0  0  0  0  0  0  0
   -7.7670   20.2860  -32.2770 C   0  0  0  0  0  0  0  0  0  0  0  0
   -6.8940   19.6640  -33.2080 C   0  0  0  0  0  0  0  0  0  0  0  0
   -5.6130   20.1940  -33.4580 C   0  0  0  0  0  0  0  0  0  0  0  0
   -5.2460   21.3450  -32.7700 C   0  0  0  0  0  0  0  0  0  0  0  0
   -4.1330   22.0320  -32.8590 O   0  0  0  0  0  0  0  0  0  0  0  0
   -4.1940   23.0690  -32.0660 N   0  0  0  0  0  0  0  0  0  0  0  0
   -5.3880   23.0540  -31.4290 C   0  0  0  0  0  0  0  0  0  0  0  0
   -5.8910   24.1430  -30.5330 C   0  0  0  0  0  0  0  0  0  0  0  0
   -4.8740   25.2330  -30.4540 C   0  0  0  0  0  0  0  0  0  0  0  0
   -5.2430   26.4390  -30.4800 O   0  0  0  0  0  0  0  0  0  0  0  0
   -3.4890   24.9020  -30.3140 N   0  0  0  0  0  0  0  0  0  0  0  0
   -2.9760   24.0860  -29.2540 C   0  0  0  0  0  0  0  0  0  0  0  0
   -3.5790   22.8450  -29.0120 C   0  0  0  0  0  0  0  0  0  0  0  0
   -3.0960   22.0070  -28.0040 C   0  0  0  0  0  0  0  0  0  0  0  0
   -2.0130   22.4090  -27.2220 C   0  0  0  0  0  0  0  0  0  0  0  0
   -1.4210   23.6570  -27.4320 C   0  0  0  0  0  0  0  0  0  0  0  0
   -1.9070   24.5180  -28.4310 C   0  0  0  0  0  0  0  0  0  0  0  0
   -1.2820   25.8760  -28.6000 C   0  0  0  0  0  0  0  0  0  0  0  0
   -6.0850   21.9510  -31.8750 C   0  0  0  0  0  0  0  0  0  0  0  0
   -7.3610   21.4620  -31.6070 C   0  0  0  0  0  0  0  0  0  0  0  0
   -9.3344   19.6629  -30.9705 H   0  0  0  0  0  0  0  0  0  0  0  0
   -9.8843   20.4108  -32.5083 H   0  0  0  0  0  0  0  0  0  0  0  0
   -9.2208   18.7416  -32.5083 H   0  0  0  0  0  0  0  0  0  0  0  0
   -7.2215   18.7585  -33.7398 H   0  0  0  0  0  0  0  0  0  0  0  0
   -4.9275   19.7143  -34.1721 H   0  0  0  0  0  0  0  0  0  0  0  0
   -3.4460   23.7910  -31.9700 H   0  0  0  0  0  0  0  0  0  0  0  0
   -6.8303   24.5468  -30.9387 H   0  0  0  0  0  0  0  0  0  0  0  0
   -6.0706   23.7360  -29.5270 H   0  0  0  0  0  0  0  0  0  0  0  0
   -4.4391   22.5280  -29.6201 H   0  0  0  0  0  0  0  0  0  0  0  0
   -3.5697   21.0301  -27.8269 H   0  0  0  0  0  0  0  0  0  0  0  0
   -1.6243   21.7420  -26.4384 H   0  0  0  0  0  0  0  0  0  0  0  0
   -0.5681   23.9681  -26.8108 H   0  0  0  0  0  0  0  0  0  0  0  0
   -1.0810   26.3128  -27.6107 H   0  0  0  0  0  0  0  0  0  0  0  0
   -0.3381   25.7786  -29.1565 H   0  0  0  0  0  0  0  0  0  0  0  0
   -1.9699   26.5296  -29.1565 H   0  0  0  0  0  0  0  0  0  0  0  0
   -8.0294   21.9732  -30.8986 H   0  0  0  0  0  0  0  0  0  0  0  0
  1  2  1  0
  2  3  2  0
  3  4  1  0
  4  5  2  0
  5  6  1  0
  6  7  1  0
  7  8  2  0
  8  9  1  0
  9 10  1  0
 10 11  2  0
 10 12  1  0
 12 13  1  0
 13 14  2  0
 14 15  1  0
 15 16  2  0
 16 17  1  0
 17 18  2  0
 18 19  1  0
  8 20  1  0
 20 21  2  0
 21  2  1  0
 20  5  1  0
 18 13  1  0
  1 22  1  0
  1 23  1  0
  1 24  1  0
  3 25  1  0
  4 26  1  0
  7 27  1  0
  9 28  1  0
  9 29  1  0
 14 30  1  0
 15 31  1  0
 16 32  1  0
 17 33  1  0
 19 34  1  0
 19 35  1  0
 19 36  1  0
 21 37  1  0
M  CHG  2   7   1  12  -1
M  END
>  <UniqueID>  (22) 
22

>  <SMILES>  (22) 
Cc1ccc2o[nH+]c(CC(=O)[N-]c3ccccc3C)c2c1

>  <Energy>  (22) 
80.68261742534123

>  <Genealogy>  (22) 
Cc1ccc2o[nH+]c(CC(=O)[N-]c3ccccc3C)c2c1 (protonated)
Cc1ccc2o[nH+]c(CC(=O)[N-]c3ccccc3C)c2c1 (3D coordinates assigned)
Cc1ccc2o[nH+]c(CC(=O)[N-]c3ccccc3C)c2c1 (optimized conformer: 80.68261742534123 kcal/mol)

>  <smiles>  (22) 
Cc1ccc2onc(CC(=O)Nc3ccccc3C)c2c1

>  <score_type>  (22) 
oracle

>  <origin>  (22) 
adg

>  <m_score__min__energy>  (22) 
-8.9299999999999997

>  <m_primary>  (22) 
energy

$$$$
22:0
     RDKit          3D

 42 44  0  0  0  0  0  0  0  0999 V2000
   -2.1310   21.5770  -32.2490 C   0  0  0  0  0  0  0  0  0  0  0  0
   -3.3530   22.0620  -32.7980 O   0  0  0  0  0  0  0  0  0  0  0  0
   -4.5900   21.4060  -32.7180 C   0  0  0  0  0  0  0  0  0  0  0  0
   -4.6970   20.0360  -33.0250 C   0  0  0  0  0  0  0  0  0  0  0  0
   -5.9260   19.3850  -32.9830 C   0  0  0  0  0  0  0  0  0  0  0  0
   -7.0830   20.0860  -32.6380 C   0  0  0  0  0  0  0  0  0  0  0  0
   -8.3240   19.4290  -32.6090 C   0  0  0  0  0  0  0  0  0  0  0  0
   -9.4810   20.1270  -32.2610 C   0  0  0  0  0  0  0  0  0  0  0  0
   -9.4110   21.4830  -31.9380 C   0  0  0  0  0  0  0  0  0  0  0  0
   -8.1840   22.1490  -31.9640 C   0  0  0  0  0  0  0  0  0  0  0  0
   -7.0040   21.4640  -32.3170 C   0  0  0  0  0  0  0  0  0  0  0  0
   -5.7550   22.1290  -32.3410 C   0  0  0  0  0  0  0  0  0  0  0  0
   -5.7400   23.4960  -31.9890 O   0  0  0  0  0  0  0  0  0  0  0  0
   -5.8770   24.0700  -30.6870 C   0  0  1  0  0  0  0  0  0  0  0  0
   -5.5650   23.0010  -29.6440 C   0  0  0  0  0  0  0  0  0  0  0  0
   -4.9350   25.2290  -30.5150 C   0  0  0  0  0  0  0  0  0  0  0  0
   -5.3940   26.3970  -30.3870 O   0  0  0  0  0  0  0  0  0  0  0  0
   -3.5230   24.9850  -30.4650 N   0  0  0  0  0  0  0  0  0  0  0  0
   -2.7960   24.3950  -29.3800 C   0  0  0  0  0  0  0  0  0  0  0  0
   -3.2340   24.4940  -28.0450 C   0  0  0  0  0  0  0  0  0  0  0  0
   -2.4840   23.9170  -27.0150 C   0  0  0  0  0  0  0  0  0  0  0  0
   -1.2880   23.2530  -27.3050 C   0  0  0  0  0  0  0  0  0  0  0  0
   -0.8360   23.1730  -28.6250 C   0  0  0  0  0  0  0  0  0  0  0  0
   -1.5840   23.7480  -29.6570 C   0  0  0  0  0  0  0  0  0  0  0  0
   -2.1880   21.5996  -31.1507 H   0  0  0  0  0  0  0  0  0  0  0  0
   -1.9621   20.5437  -32.5862 H   0  0  0  0  0  0  0  0  0  0  0  0
   -1.2995   22.2133  -32.5862 H   0  0  0  0  0  0  0  0  0  0  0  0
   -3.7946   19.4714  -33.3025 H   0  0  0  0  0  0  0  0  0  0  0  0
   -5.9863   18.3131  -33.2227 H   0  0  0  0  0  0  0  0  0  0  0  0
   -8.3841   18.3601  -32.8616 H   0  0  0  0  0  0  0  0  0  0  0  0
  -10.4504   19.6074  -32.2412 H   0  0  0  0  0  0  0  0  0  0  0  0
  -10.3253   22.0288  -31.6621 H   0  0  0  0  0  0  0  0  0  0  0  0
   -8.1380   23.2175  -31.7067 H   0  0  0  0  0  0  0  0  0  0  0  0
   -6.9061   24.4378  -30.5617 H   0  0  0  0  0  0  0  0  0  0  0  0
   -5.6886   23.4247  -28.6364 H   0  0  0  0  0  0  0  0  0  0  0  0
   -6.2529   22.1522  -29.7718 H   0  0  0  0  0  0  0  0  0  0  0  0
   -4.5285   22.6555  -29.7718 H   0  0  0  0  0  0  0  0  0  0  0  0
   -4.1680   25.0263  -27.8119 H   0  0  0  0  0  0  0  0  0  0  0  0
   -2.8356   23.9857  -25.9750 H   0  0  0  0  0  0  0  0  0  0  0  0
   -0.7031   22.7938  -26.4944 H   0  0  0  0  0  0  0  0  0  0  0  0
    0.1087   22.6574  -28.8522 H   0  0  0  0  0  0  0  0  0  0  0  0
   -1.2188   23.6922  -30.6931 H   0  0  0  0  0  0  0  0  0  0  0  0
  1  2  1  0
  2  3  1  0
  3  4  2  0
  4  5  1  0
  5  6  2  0
  6  7  1  0
  7  8  2  0
  8  9  1  0
  9 10  2  0
 10 11  1  0
 11 12  2  0
 12 13  1  0
 13 14  1  0
 14 15  1  0
 14 16  1  0
 16 17  2  0
 16 18  1  0
 18 19  1  0
 19 20  2  0
 20 21  1  0
 21 22  2  0
 22 23  1  0
 23 24  2  0
 12  3  1  0
 24 19  1  0
 11  6  1  0
  1 25  1  0
  1 26  1  0
  1 27  1  0
  4 28  1  0
  5 29  1  0
  7 30  1  0
  8 31  1  0
  9 32  1  0
 10 33  1  0
 14 34  1  1
 15 35  1  0
 15 36  1  0
 15 37  1  0
 20 38  1  0
 21 39  1  0
 22 40  1  0
 23 41  1  0
 24 42  1  0
M  CHG  1  18  -1
M  END
>  <UniqueID>  (23) 
23

>  <SMILES>  (23) 
COc1ccc2ccccc2c1O[C@@H](C)C(=O)[N-]c1ccccc1

>  <Energy>  (23) 
51.24833727347937

>  <Genealogy>  (23) 
COc1ccc2ccccc2c1OC(C)C(=O)[N-]c1ccccc1 (protonated)
COc1ccc2ccccc2c1O[C@@H](C)C(=O)[N-]c1ccccc1 (chirality)
COc1ccc2ccccc2c1O[C@@H](C)C(=O)[N-]c1ccccc1 (3D coordinates assigned)
COc1ccc2ccccc2c1O[C@@H](C)C(=O)[N-]c1ccccc1 (optimized conformer: 51.24833727347937 kcal/mol)

>  <smiles>  (23) 
COc1ccc2ccccc2c1OC(C)C(=O)Nc1ccccc1

>  <score_type>  (23) 
oracle

>  <origin>  (23) 
adg

>  <m_score__min__energy>  (23) 
-10.279999999999999

>  <m_primary>  (23) 
energy

$$$$
23:0
     RDKit          3D

 47 48  0  0  0  0  0  0  0  0999 V2000
   -2.3870   19.7040  -26.7160 C   0  0  0  0  0  0  0  0  0  0  0  0
   -2.3630   20.6480  -27.9160 C   0  0  0  0  0  0  0  0  0  0  0  0
   -2.5820   22.1080  -27.4940 C   0  0  0  0  0  0  0  0  0  0  0  0
   -3.6380   22.7390  -28.3220 N   0  0  0  0  0  0  0  0  0  0  0  0
   -4.2010   23.9350  -27.6560 C   0  0  0  0  0  0  0  0  0  0  0  0
   -3.1640   24.5520  -26.7200 C   0  0  0  0  0  0  0  0  0  0  0  0
   -3.1260   23.0700  -29.6700 C   0  0  0  0  0  0  0  0  0  0  0  0
   -3.1440   24.5520  -29.9030 C   0  0  0  0  0  0  0  0  0  0  0  0
   -2.2810   25.2790  -29.3410 O   0  0  0  0  0  0  0  0  0  0  0  0
   -4.1010   25.1290  -30.7970 N   0  0  0  0  0  0  0  0  0  0  0  0
   -5.4390   24.5810  -30.9810 C   0  0  0  0  0  0  0  0  0  0  0  0
   -5.4100   23.4410  -32.0020 C   0  0  0  0  0  0  0  0  0  0  0  0
   -6.7160   22.6690  -32.0220 C   0  0  0  0  0  0  0  0  0  0  0  0
   -7.9130   23.4000  -31.9410 C   0  0  0  0  0  0  0  0  0  0  0  0
   -9.1490   22.7530  -31.9290 C   0  0  0  0  0  0  0  0  0  0  0  0
   -9.2150   21.3650  -31.9900 C   0  0  0  0  0  0  0  0  0  0  0  0
   -8.0410   20.6030  -32.0650 C   0  0  0  0  0  0  0  0  0  0  0  0
   -8.1210   19.2030  -32.1230 C   0  0  0  0  0  0  0  0  0  0  0  0
   -6.9590   18.4340  -32.1950 C   0  0  0  0  0  0  0  0  0  0  0  0
   -5.7110   19.0540  -32.2110 C   0  0  0  0  0  0  0  0  0  0  0  0
   -5.6130   20.4460  -32.1550 C   0  0  0  0  0  0  0  0  0  0  0  0
   -6.7730   21.2480  -32.0820 C   0  0  0  0  0  0  0  0  0  0  0  0
   -2.3720   20.2921  -25.7865 H   0  0  0  0  0  0  0  0  0  0  0  0
   -3.3010   19.0928  -26.7485 H   0  0  0  0  0  0  0  0  0  0  0  0
   -1.5053   19.0471  -26.7485 H   0  0  0  0  0  0  0  0  0  0  0  0
   -1.3869   20.5640  -28.4163 H   0  0  0  0  0  0  0  0  0  0  0  0
   -3.1796   20.3609  -28.5948 H   0  0  0  0  0  0  0  0  0  0  0  0
   -2.8860   22.1369  -26.4372 H   0  0  0  0  0  0  0  0  0  0  0  0
   -1.6425   22.6623  -27.6356 H   0  0  0  0  0  0  0  0  0  0  0  0
   -4.4886   24.6742  -28.4182 H   0  0  0  0  0  0  0  0  0  0  0  0
   -5.0835   23.6386  -27.0700 H   0  0  0  0  0  0  0  0  0  0  0  0
   -3.4613   24.3751  -25.6758 H   0  0  0  0  0  0  0  0  0  0  0  0
   -2.1826   24.0908  -26.9050 H   0  0  0  0  0  0  0  0  0  0  0  0
   -3.1011   25.6345  -26.9050 H   0  0  0  0  0  0  0  0  0  0  0  0
   -2.0928   22.7039  -29.7623 H   0  0  0  0  0  0  0  0  0  0  0  0
   -3.7734   22.5897  -30.4185 H   0  0  0  0  0  0  0  0  0  0  0  0
   -5.8095   24.1973  -30.0190 H   0  0  0  0  0  0  0  0  0  0  0  0
   -6.1036   25.3758  -31.3506 H   0  0  0  0  0  0  0  0  0  0  0  0
   -5.2305   23.8630  -33.0018 H   0  0  0  0  0  0  0  0  0  0  0  0
   -4.6066   22.7463  -31.7160 H   0  0  0  0  0  0  0  0  0  0  0  0
   -7.8752   24.4980  -31.8863 H   0  0  0  0  0  0  0  0  0  0  0  0
  -10.0754   23.3432  -31.8710 H   0  0  0  0  0  0  0  0  0  0  0  0
  -10.1936   20.8627  -31.9793 H   0  0  0  0  0  0  0  0  0  0  0  0
   -9.1042   18.7098  -32.1116 H   0  0  0  0  0  0  0  0  0  0  0  0
   -7.0281   17.3371  -32.2392 H   0  0  0  0  0  0  0  0  0  0  0  0
   -4.7978   18.4434  -32.2681 H   0  0  0  0  0  0  0  0  0  0  0  0
   -4.6217   20.9227  -32.1679 H   0  0  0  0  0  0  0  0  0  0  0  0
  1  2  1  0
  2  3  1  0
  3  4  1  0
  4  5  1  0
  5  6  1  0
  4  7  1  0
  7  8  1  0
  8  9  2  0
  8 10  1  0
 10 11  1  0
 11 12  1  0
 12 13  1  0
 13 14  2  0
 14 15  1  0
 15 16  2  0
 16 17  1  0
 17 18  2  0
 18 19  1  0
 19 20  2  0
 20 21  1  0
 21 22  2  0
 22 13  1  0
 22 17  1  0
  1 23  1  0
  1 24  1  0
  1 25  1  0
  2 26  1  0
  2 27  1  0
  3 28  1  0
  3 29  1  0
  5 30  1  0
  5 31  1  0
  6 32  1  0
  6 33  1  0
  6 34  1  0
  7 35  1  0
  7 36  1  0
 11 37  1  0
 11 38  1  0
 12 39  1  0
 12 40  1  0
 14 41  1  0
 15 42  1  0
 16 43  1  0
 18 44  1  0
 19 45  1  0
 20 46  1  0
 21 47  1  0
M  CHG  1  10  -1
M  END
>  <UniqueID>  (24) 
24

>  <SMILES>  (24) 
CCCN(CC)CC(=O)[N-]CCc1cccc2ccccc12

>  <Energy>  (24) 
40.90627110049407

>  <Genealogy>  (24) 
CCCN(CC)CC(=O)[N-]CCc1cccc2ccccc12 (protonated)
CCCN(CC)CC(=O)[N-]CCc1cccc2ccccc12 (3D coordinates assigned)
CCCN(CC)CC(=O)[N-]CCc1cccc2ccccc12 (optimized conformer: 40.90627110049407 kcal/mol)

>  <smiles>  (24) 
CCCN(CC)CC(=O)NCCc1cccc2ccccc12

>  <score_type>  (24) 
oracle

>  <origin>  (24) 
adg

>  <m_score__min__energy>  (24) 
-9.8699999999999992

>  <m_primary>  (24) 
energy

$$$$
24:0
     RDKit          3D

 49 49  0  0  0  0  0  0  0  0999 V2000
   -6.4310   17.4520  -31.2250 C   0  0  0  0  0  0  0  0  0  0  0  0
   -6.1150   16.6880  -32.5110 C   0  0  0  0  0  0  0  0  0  0  0  0
   -4.6430   16.8350  -32.9590 C   0  0  0  0  0  0  0  0  0  0  0  0
   -4.2850   18.1910  -33.4530 N   0  0  0  0  0  0  0  0  0  0  0  0
   -2.8370   18.3500  -33.7770 C   0  0  0  0  0  0  0  0  0  0  0  0
   -2.3970   19.7900  -34.1290 C   0  0  0  0  0  0  0  0  0  0  0  0
   -0.9120   19.8330  -34.4800 C   0  0  0  0  0  0  0  0  0  0  0  0
   -5.1670   18.5740  -34.5880 C   0  0  0  0  0  0  0  0  0  0  0  0
   -6.2980   19.5510  -34.2030 C   0  0  0  0  0  0  0  0  0  0  0  0
   -6.2550   19.8720  -32.8090 O   0  0  0  0  0  0  0  0  0  0  0  0
   -6.0540   21.1460  -32.2450 C   0  0  0  0  0  0  0  0  0  0  0  0
   -7.0240   22.1620  -32.2970 C   0  0  0  0  0  0  0  0  0  0  0  0
   -6.7680   23.4160  -31.7400 C   0  0  0  0  0  0  0  0  0  0  0  0
   -5.5420   23.6840  -31.1080 C   0  0  0  0  0  0  0  0  0  0  0  0
   -5.2870   25.0300  -30.5240 C   0  0  0  0  0  0  0  0  0  0  0  0
   -6.2490   25.6790  -29.5750 C   0  0  0  0  0  0  0  0  0  0  0  0
   -4.2340   25.6530  -30.8270 O   0  0  0  0  0  0  0  0  0  0  0  0
   -4.5800   22.6600  -31.0400 C   0  0  0  0  0  0  0  0  0  0  0  0
   -4.8310   21.3930  -31.6040 C   0  0  0  0  0  0  0  0  0  0  0  0
   -3.8860   20.3550  -31.5560 O   0  0  0  0  0  0  0  0  0  0  0  0
   -2.6110   20.4500  -30.9290 C   0  0  0  0  0  0  0  0  0  0  0  0
   -6.1734   16.8291  -30.3557 H   0  0  0  0  0  0  0  0  0  0  0  0
   -5.8435   18.3816  -31.1970 H   0  0  0  0  0  0  0  0  0  0  0  0
   -7.5035   17.6950  -31.1970 H   0  0  0  0  0  0  0  0  0  0  0  0
   -6.3252   15.6211  -32.3448 H   0  0  0  0  0  0  0  0  0  0  0  0
   -6.7436   17.1131  -33.3073 H   0  0  0  0  0  0  0  0  0  0  0  0
   -3.9967   16.5996  -32.1006 H   0  0  0  0  0  0  0  0  0  0  0  0
   -4.5010   16.1449  -33.8038 H   0  0  0  0  0  0  0  0  0  0  0  0
   -4.4950   18.8460  -32.6700 H   0  0  0  0  0  0  0  0  0  0  0  0
   -2.2544   18.0195  -32.9044 H   0  0  0  0  0  0  0  0  0  0  0  0
   -2.6571   17.7461  -34.6786 H   0  0  0  0  0  0  0  0  0  0  0  0
   -2.9815   20.1452  -34.9905 H   0  0  0  0  0  0  0  0  0  0  0  0
   -2.5715   20.4353  -33.2554 H   0  0  0  0  0  0  0  0  0  0  0  0
   -0.3169   19.8502  -33.5550 H   0  0  0  0  0  0  0  0  0  0  0  0
   -0.6485   18.9421  -35.0690 H   0  0  0  0  0  0  0  0  0  0  0  0
   -0.7005   20.7376  -35.0690 H   0  0  0  0  0  0  0  0  0  0  0  0
   -4.5473   19.0502  -35.3621 H   0  0  0  0  0  0  0  0  0  0  0  0
   -5.6505   17.6510  -34.9405 H   0  0  0  0  0  0  0  0  0  0  0  0
   -6.1868   20.4762  -34.7875 H   0  0  0  0  0  0  0  0  0  0  0  0
   -7.2626   19.0683  -34.4188 H   0  0  0  0  0  0  0  0  0  0  0  0
   -7.9926   21.9673  -32.7806 H   0  0  0  0  0  0  0  0  0  0  0  0
   -7.5344   24.2030  -31.7964 H   0  0  0  0  0  0  0  0  0  0  0  0
   -5.9400   25.4706  -28.5401 H   0  0  0  0  0  0  0  0  0  0  0  0
   -6.2541   26.7659  -29.7443 H   0  0  0  0  0  0  0  0  0  0  0  0
   -7.2587   25.2768  -29.7443 H   0  0  0  0  0  0  0  0  0  0  0  0
   -3.6190   22.8506  -30.5399 H   0  0  0  0  0  0  0  0  0  0  0  0
   -2.7381   20.4405  -29.8364 H   0  0  0  0  0  0  0  0  0  0  0  0
   -1.9883   19.5958  -31.2331 H   0  0  0  0  0  0  0  0  0  0  0  0
   -2.1217   21.3871  -31.2331 H   0  0  0  0  0  0  0  0  0  0  0  0
  1  2  1  0
  2  3  1  0
  3  4  1  0
  4  5  1  0
  5  6  1  0
  6  7  1  0
  4  8  1  0
  8  9  1  0
  9 10  1  0
 10 11  1  0
 11 12  2  0
 12 13  1  0
 13 14  2  0
 14 15  1  0
 15 16  1  0
 15 17  2  0
 14 18  1  0
 18 19  2  0
 19 20  1  0
 20 21  1  0
 19 11  1  0
  1 22  1  0
  1 23  1  0
  1 24  1  0
  2 25  1  0
  2 26  1  0
  3 27  1  0
  3 28  1  0
  4 29  1  0
  5 30  1  0
  5 31  1  0
  6 32  1  0
  6 33  1  0
  7 34  1  0
  7 35  1  0
  7 36  1  0
  8 37  1  0
  8 38  1  0
  9 39  1  0
  9 40  1  0
 12 41  1  0
 13 42  1  0
 16 43  1  0
 16 44  1  0
 16 45  1  0
 18 46  1  0
 21 47  1  0
 21 48  1  0
 21 49  1  0
M  CHG  1   4   1
M  END
>  <UniqueID>  (25) 
25

>  <SMILES>  (25) 
CCC[NH+](CCC)CCOc1ccc(C(C)=O)cc1OC

>  <Energy>  (25) 
48.05300338685705

>  <Genealogy>  (25) 
CCC[NH+](CCC)CCOc1ccc(C(C)=O)cc1OC (protonated)
CCC[NH+](CCC)CCOc1ccc(C(C)=O)cc1OC (3D coordinates assigned)
CCC[NH+](CCC)CCOc1ccc(C(C)=O)cc1OC (optimized conformer: 48.05300338685705 kcal/mol)

>  <smiles>  (25) 
CCCN(CCC)CCOc1ccc(C(C)=O)cc1OC

>  <score_type>  (25) 
oracle

>  <origin>  (25) 
adg

>  <m_score__min__energy>  (25) 
-5.75

>  <m_primary>  (25) 
energy

$$$$
25:0
     RDKit          3D

 36 38  0  0  0  0  0  0  0  0999 V2000
   -3.6420   23.9380  -28.3940 C   0  0  0  0  0  0  0  0  0  0  0  0
   -2.9380   24.2840  -29.7030 C   0  0  0  0  0  0  0  0  0  0  0  0
   -3.6950   25.2760  -30.4610 N   0  0  0  0  0  0  0  0  0  0  0  0
   -5.1030   25.2830  -30.7420 C   0  0  0  0  0  0  0  0  0  0  0  0
   -5.7380   26.3550  -30.5600 O   0  0  0  0  0  0  0  0  0  0  0  0
   -5.8450   24.1030  -31.2380 C   0  0  0  0  0  0  0  0  0  0  0  0
   -7.1690   23.8040  -30.9240 C   0  0  0  0  0  0  0  0  0  0  0  0
   -7.6400   22.6440  -31.4560 N   0  0  0  0  0  0  0  0  0  0  0  0
   -6.7010   21.9860  -32.1710 C   0  0  0  0  0  0  0  0  0  0  0  0
   -7.0020   20.7130  -32.9270 C   0  0  2  0  0  0  0  0  0  0  0  0
   -7.9710   19.7440  -32.1810 C   0  0  0  0  0  0  0  0  0  0  0  0
   -7.3910   18.3820  -32.0820 N   0  0  0  0  0  0  0  0  0  0  0  0
   -7.1180   17.8580  -33.4440 C   0  0  0  0  0  0  0  0  0  0  0  0
   -6.1160   18.7660  -34.2070 C   0  0  0  0  0  0  0  0  0  0  0  0
   -5.7090   19.9430  -33.3000 C   0  0  0  0  0  0  0  0  0  0  0  0
   -5.0770   19.3390  -32.0280 C   0  0  0  0  0  0  0  0  0  0  0  0
   -6.1220   18.4460  -31.3140 C   0  0  0  0  0  0  0  0  0  0  0  0
   -5.2500   22.8450  -32.1820 S   0  0  0  0  0  0  0  0  0  0  0  0
   -3.0128   24.2473  -27.5464 H   0  0  0  0  0  0  0  0  0  0  0  0
   -4.6065   24.4647  -28.3460 H   0  0  0  0  0  0  0  0  0  0  0  0
   -3.8142   22.8526  -28.3460 H   0  0  0  0  0  0  0  0  0  0  0  0
   -1.9401   24.6886  -29.4782 H   0  0  0  0  0  0  0  0  0  0  0  0
   -2.8570   23.3692  -30.3084 H   0  0  0  0  0  0  0  0  0  0  0  0
   -7.7881   24.4579  -30.2923 H   0  0  0  0  0  0  0  0  0  0  0  0
   -7.5120   21.0535  -33.8402 H   0  0  0  0  0  0  0  0  0  0  0  0
   -8.1562   20.1304  -31.1679 H   0  0  0  0  0  0  0  0  0  0  0  0
   -8.9111   19.6835  -32.7489 H   0  0  0  0  0  0  0  0  0  0  0  0
   -6.6933   16.8467  -33.3605 H   0  0  0  0  0  0  0  0  0  0  0  0
   -8.0643   17.8374  -34.0044 H   0  0  0  0  0  0  0  0  0  0  0  0
   -5.2229   18.1832  -34.4768 H   0  0  0  0  0  0  0  0  0  0  0  0
   -6.5885   19.1507  -35.1228 H   0  0  0  0  0  0  0  0  0  0  0  0
   -4.9978   20.6232  -33.7915 H   0  0  0  0  0  0  0  0  0  0  0  0
   -4.2022   18.7322  -32.3045 H   0  0  0  0  0  0  0  0  0  0  0  0
   -4.7599   20.1479  -31.3534 H   0  0  0  0  0  0  0  0  0  0  0  0
   -5.7141   17.4297  -31.2105 H   0  0  0  0  0  0  0  0  0  0  0  0
   -6.3350   18.8820  -30.3268 H   0  0  0  0  0  0  0  0  0  0  0  0
  1  2  1  0
  2  3  1  0
  3  4  1  0
  4  5  2  0
  4  6  1  0
  6  7  2  0
  7  8  1  0
  8  9  2  0
  9 10  1  0
 10 11  1  0
 11 12  1  0
 12 13  1  0
 13 14  1  0
 14 15  1  0
 15 16  1  0
 16 17  1  0
  9 18  1  0
 18  6  1  0
 15 10  1  0
 17 12  1  0
  1 19  1  0
  1 20  1  0
  1 21  1  0
  2 22  1  0
  2 23  1  0
  7 24  1  0
 10 25  1  6
 11 26  1  0
 11 27  1  0
 13 28  1  0
 13 29  1  0
 14 30  1  0
 14 31  1  0
 15 32  1  0
 16 33  1  0
 16 34  1  0
 17 35  1  0
 17 36  1  0
M  CHG  1   3  -1
M  END
>  <UniqueID>  (26) 
26

>  <SMILES>  (26) 
CC[N-]C(=O)c1cnc([C@@H]2CN3CCC2CC3)s1

>  <Energy>  (26) 
80.56457462661524

>  <Genealogy>  (26) 
CC[N-]C(=O)c1cnc(C2CN3CCC2CC3)s1 (protonated)
CC[N-]C(=O)c1cnc([C@@H]2CN3CCC2CC3)s1 (chirality)
CC[N-]C(=O)c1cnc([C@@H]2CN3CCC2CC3)s1 (3D coordinates assigned)
CC[N-]C(=O)c1cnc([C@@H]2CN3CCC2CC3)s1 (nonaromatic ring conformer: 80.56457462661524 kcal/mol)

>  <smiles>  (26) 
CCNC(=O)c1cnc(C2CN3CCC2CC3)s1

>  <score_type>  (26) 
oracle

>  <origin>  (26) 
adg

>  <m_score__min__energy>  (26) 
-9.2799999999999994

>  <m_primary>  (26) 
energy

$$$$
26:0
     RDKit          3D

 55 58  0  0  0  0  0  0  0  0999 V2000
   -2.5660   20.0790  -27.1700 C   0  0  0  0  0  0  0  0  0  0  0  0
   -1.3540   20.7910  -27.0780 O   0  0  0  0  0  0  0  0  0  0  0  0
   -1.5700   22.1730  -27.3070 C   0  0  0  0  0  0  0  0  0  0  0  0
   -2.9140   22.3890  -28.0020 C   0  0  0  0  0  0  0  0  0  0  0  0
   -3.2100   23.8260  -28.1300 N   0  0  0  0  0  0  0  0  0  0  0  0
   -3.8150   24.5400  -26.9980 C   0  0  0  0  0  0  0  0  0  0  0  0
   -2.7690   24.5530  -29.3000 C   0  0  0  0  0  0  0  0  0  0  0  0
   -1.7510   25.2940  -29.2330 O   0  0  0  0  0  0  0  0  0  0  0  0
   -3.5150   24.5270  -30.5230 N   0  0  0  0  0  0  0  0  0  0  0  0
   -4.9360   24.4030  -30.5910 C   0  0  0  0  0  0  0  0  0  0  0  0
   -5.8700   25.3420  -30.1730 C   0  0  0  0  0  0  0  0  0  0  0  0
   -7.1100   24.8490  -30.4100 N   0  0  0  0  0  0  0  0  0  0  0  0
   -6.9780   23.6600  -30.9740 N   0  0  0  0  0  0  0  0  0  0  0  0
   -7.9600   22.8370  -31.4120 C   0  0  0  0  0  0  0  0  0  0  0  0
   -7.5810   21.6460  -32.0460 C   0  0  0  0  0  0  0  0  0  0  0  0
   -6.2020   21.3640  -32.2180 C   0  0  0  0  0  0  0  0  0  0  0  0
   -5.7790   20.1960  -32.9460 N   0  0  0  0  0  0  0  0  0  0  0  0
   -6.4750   19.6710  -34.1090 C   0  0  0  0  0  0  0  0  0  0  0  0
   -5.8720   18.2960  -34.3640 C   0  0  0  0  0  0  0  0  0  0  0  0
   -4.5340   18.2850  -33.6300 C   0  0  0  0  0  0  0  0  0  0  0  0
   -4.6650   19.3490  -32.5380 C   0  0  1  0  0  0  0  0  0  0  0  0
   -3.3890   20.1490  -32.3510 C   0  0  0  0  0  0  0  0  0  0  0  0
   -2.5900   20.4510  -33.4680 C   0  0  0  0  0  0  0  0  0  0  0  0
   -1.4010   21.1730  -33.3160 C   0  0  0  0  0  0  0  0  0  0  0  0
   -0.6340   21.4480  -34.3980 F   0  0  0  0  0  0  0  0  0  0  0  0
   -1.0020   21.6040  -32.0490 C   0  0  0  0  0  0  0  0  0  0  0  0
   -1.7880   21.3130  -30.9310 C   0  0  0  0  0  0  0  0  0  0  0  0
   -2.9770   20.5900  -31.0750 C   0  0  0  0  0  0  0  0  0  0  0  0
   -3.7200   20.3210  -29.9720 F   0  0  0  0  0  0  0  0  0  0  0  0
   -5.2660   22.2410  -31.7370 N   0  0  0  0  0  0  0  0  0  0  0  0
   -5.6820   23.3650  -31.1050 C   0  0  0  0  0  0  0  0  0  0  0  0
   -2.9399   19.8594  -26.1591 H   0  0  0  0  0  0  0  0  0  0  0  0
   -3.3072   20.6852  -27.7114 H   0  0  0  0  0  0  0  0  0  0  0  0
   -2.3973   19.1364  -27.7114 H   0  0  0  0  0  0  0  0  0  0  0  0
   -1.5690   22.7053  -26.3444 H   0  0  0  0  0  0  0  0  0  0  0  0
   -0.7666   22.5600  -27.9510 H   0  0  0  0  0  0  0  0  0  0  0  0
   -2.8787   21.9371  -29.0043 H   0  0  0  0  0  0  0  0  0  0  0  0
   -3.7036   21.9182  -27.3980 H   0  0  0  0  0  0  0  0  0  0  0  0
   -3.4493   24.1084  -26.0546 H   0  0  0  0  0  0  0  0  0  0  0  0
   -3.5392   25.6038  -27.0458 H   0  0  0  0  0  0  0  0  0  0  0  0
   -4.9096   24.4425  -27.0458 H   0  0  0  0  0  0  0  0  0  0  0  0
   -5.6419   26.3205  -29.7252 H   0  0  0  0  0  0  0  0  0  0  0  0
   -8.0190   25.3230  -30.2040 H   0  0  0  0  0  0  0  0  0  0  0  0
   -9.0205   23.0948  -31.2747 H   0  0  0  0  0  0  0  0  0  0  0  0
   -8.3433   20.9392  -32.4055 H   0  0  0  0  0  0  0  0  0  0  0  0
   -7.5525   19.5854  -33.9049 H   0  0  0  0  0  0  0  0  0  0  0  0
   -6.3633   20.3315  -34.9815 H   0  0  0  0  0  0  0  0  0  0  0  0
   -6.5318   17.5094  -33.9691 H   0  0  0  0  0  0  0  0  0  0  0  0
   -5.7449   18.1032  -35.4395 H   0  0  0  0  0  0  0  0  0  0  0  0
   -4.3467   17.2967  -33.1848 H   0  0  0  0  0  0  0  0  0  0  0  0
   -3.6925   18.4932  -34.3072 H   0  0  0  0  0  0  0  0  0  0  0  0
   -4.8476   18.8840  -31.5580 H   0  0  0  0  0  0  0  0  0  0  0  0
   -2.9019   20.1172  -34.4686 H   0  0  0  0  0  0  0  0  0  0  0  0
   -0.0681   22.1731  -31.9310 H   0  0  0  0  0  0  0  0  0  0  0  0
   -1.4708   21.6535  -29.9343 H   0  0  0  0  0  0  0  0  0  0  0  0
  1  2  1  0
  2  3  1  0
  3  4  1  0
  4  5  1  0
  5  6  1  0
  5  7  1  0
  7  8  2  0
  7  9  1  0
  9 10  1  0
 10 11  1  0
 11 12  2  0
 12 13  1  0
 13 14  1  0
 14 15  2  0
 15 16  1  0
 16 17  1  0
 17 18  1  0
 18 19  1  0
 19 20  1  0
 20 21  1  0
 21 22  1  0
 22 23  2  0
 23 24  1  0
 24 25  1  0
 24 26  2  0
 26 27  1  0
 27 28  2  0
 28 29  1  0
 16 30  2  0
 30 31  1  0
 31 10  2  0
 31 13  1  0
 21 17  1  0
 28 22  1  0
  1 32  1  0
  1 33  1  0
  1 34  1  0
  3 35  1  0
  3 36  1  0
  4 37  1  0
  4 38  1  0
  6 39  1  0
  6 40  1  0
  6 41  1  0
 11 42  1  0
 12 43  1  0
 14 44  1  0
 15 45  1  0
 18 46  1  0
 18 47  1  0
 19 48  1  0
 19 49  1  0
 20 50  1  0
 20 51  1  0
 21 52  1  1
 23 53  1  0
 26 54  1  0
 27 55  1  0
M  CHG  2   9  -1  12   1
M  END
>  <UniqueID>  (27) 
27

>  <SMILES>  (27) 
COCCN(C)C(=O)[N-]c1c[nH+]n2ccc(N3CCC[C@H]3c3cc(F)ccc3F)nc12

>  <Energy>  (27) 
100.9879716483626

>  <Genealogy>  (27) 
COCCN(C)C(=O)[N-]c1c[nH+]n2ccc(N3CCCC3c3cc(F)ccc3F)nc12 (protonated)
COCCN(C)C(=O)[N-]c1c[nH+]n2ccc(N3CCC[C@H]3c3cc(F)ccc3F)nc12 (chirality)
COCCN(C)C(=O)[N-]c1c[nH+]n2ccc(N3CCC[C@H]3c3cc(F)ccc3F)nc12 (3D coordinates assigned)
COCCN(C)C(=O)[N-]c1c[nH+]n2ccc(N3CCC[C@H]3c3cc(F)ccc3F)nc12 (nonaromatic ring conformer: 100.9879716483626 kcal/mol)

>  <smiles>  (27) 
COCCN(C)C(=O)Nc1cnn2ccc(N3CCCC3c3cc(F)ccc3F)nc12

>  <score_type>  (27) 
oracle

>  <origin>  (27) 
adg

>  <m_score__min__energy>  (27) 
-9.3900000000000006

>  <m_primary>  (27) 
energy

$$$$
27:0
     RDKit          3D

 40 41  0  0  0  0  0  0  0  0999 V2000
   -9.8026   18.8874  -32.6258 H   0  0  0  0  0  0  0  0  0  0  0  0
   -8.9560   19.5230  -32.3270 C   0  0  0  0  0  0  0  0  0  0  0  0
   -7.6060   18.9120  -32.3550 C   0  0  0  0  0  0  0  0  0  0  0  0
   -7.2230   18.1850  -31.3950 O   0  0  0  0  0  0  0  0  0  0  0  0
   -6.7270   19.1600  -33.4810 N   0  0  0  0  0  0  0  0  0  0  0  0
   -7.3170   19.2330  -34.3440 H   0  0  0  0  0  0  0  0  0  0  0  0
   -5.8260   18.0040  -33.7080 C   0  0  0  0  0  0  0  0  0  0  0  0
   -5.2977   17.7900  -32.7672 H   0  0  0  0  0  0  0  0  0  0  0  0
   -5.1482   18.2908  -34.5256 H   0  0  0  0  0  0  0  0  0  0  0  0
   -6.5400   16.7200  -34.1610 C   0  0  0  0  0  0  0  0  0  0  0  0
   -6.8588   16.1467  -33.2780 H   0  0  0  0  0  0  0  0  0  0  0  0
   -7.4210   16.9838  -34.7646 H   0  0  0  0  0  0  0  0  0  0  0  0
   -5.8511   16.1108  -34.7646 H   0  0  0  0  0  0  0  0  0  0  0  0
   -5.9840   20.4390  -33.3590 C   0  0  0  0  0  0  0  0  0  0  0  0
   -6.1213   21.0192  -34.2834 H   0  0  0  0  0  0  0  0  0  0  0  0
   -6.3800   20.9806  -32.4873 H   0  0  0  0  0  0  0  0  0  0  0  0
   -4.4850   20.2120  -33.1350 C   0  0  0  0  0  0  0  0  0  0  0  0
   -4.2762   20.1804  -32.0555 H   0  0  0  0  0  0  0  0  0  0  0  0
   -4.1859   19.2583  -33.5944 H   0  0  0  0  0  0  0  0  0  0  0  0
   -3.9169   21.0344  -33.5944 H   0  0  0  0  0  0  0  0  0  0  0  0
   -9.2330   20.7860  -31.9680 C   0  0  0  0  0  0  0  0  0  0  0  0
  -10.1667   21.2306  -32.3429 H   0  0  0  0  0  0  0  0  0  0  0  0
   -8.3730   21.6220  -31.1050 C   0  0  0  0  0  0  0  0  0  0  0  0
   -8.1618   21.3043  -30.0733 H   0  0  0  0  0  0  0  0  0  0  0  0
   -7.8490   22.7630  -31.5690 C   0  0  0  0  0  0  0  0  0  0  0  0
   -8.3894   23.2948  -32.3660 H   0  0  0  0  0  0  0  0  0  0  0  0
   -6.5820   23.3520  -31.0710 C   0  0  0  0  0  0  0  0  0  0  0  0
   -6.5200   24.7570  -30.8750 C   0  0  0  0  0  0  0  0  0  0  0  0
   -7.4057   25.3744  -31.0855 H   0  0  0  0  0  0  0  0  0  0  0  0
   -5.3400   25.3690  -30.4150 C   0  0  0  0  0  0  0  0  0  0  0  0
   -5.2891   26.4563  -30.2560 H   0  0  0  0  0  0  0  0  0  0  0  0
   -4.2410   24.5560  -30.1680 C   0  0  0  0  0  0  0  0  0  0  0  0
   -4.2820   23.2150  -30.3610 C   0  0  0  0  0  0  0  0  0  0  0  0
   -5.4270   22.5680  -30.8160 C   0  0  0  0  0  0  0  0  0  0  0  0
   -5.4365   21.4794  -30.9736 H   0  0  0  0  0  0  0  0  0  0  0  0
   -3.0520   22.6680  -30.0480 O   0  0  0  0  0  0  0  0  0  0  0  0
   -2.1870   23.7320  -29.6290 C   0  0  0  0  0  0  0  0  0  0  0  0
   -1.8503   23.5713  -28.5942 H   0  0  0  0  0  0  0  0  0  0  0  0
   -1.2810   23.7956  -30.2496 H   0  0  0  0  0  0  0  0  0  0  0  0
   -2.9850   24.9190  -29.7200 O   0  0  0  0  0  0  0  0  0  0  0  0
  1  2  1  0
  2  3  1  0
  3  4  2  0
  3  5  1  0
  5  6  1  0
  5  7  1  0
  7  8  1  0
  7  9  1  0
  7 10  1  0
 10 11  1  0
 10 12  1  0
 10 13  1  0
  5 14  1  0
 14 15  1  0
 14 16  1  0
 14 17  1  0
 17 18  1  0
 17 19  1  0
 17 20  1  0
  2 21  2  0
 21 22  1  0
 21 23  1  0
 23 24  1  0
 23 25  2  0
 25 26  1  0
 25 27  1  0
 27 28  2  0
 28 29  1  0
 28 30  1  0
 30 31  1  0
 30 32  2  0
 32 33  1  0
 33 34  2  0
 34 35  1  0
 33 36  1  0
 36 37  1  0
 37 38  1  0
 37 39  1  0
 37 40  1  0
 34 27  1  0
 40 32  1  0
M  CHG  1   5   1
M  END
>  <UniqueID>  (28) 
28

>  <SMILES>  (28) 
CC[NH+](CC)C(=O)C=C/C=C/c1ccc2c(c1)OCO2

>  <Energy>  (28) 
73.51680827024508

>  <Genealogy>  (28) 
CC[NH+](CC)C(=O)C=CC=Cc1ccc2c(c1)OCO2 (protonated)
CC[NH+](CC)C(=O)C=C/C=C/c1ccc2c(c1)OCO2 (cis-trans isomerization)
CC[NH+](CC)C(=O)C=C/C=C/c1ccc2c(c1)OCO2 (3D coordinates assigned)
CC[NH+](CC)C(=O)C=C/C=C/c1ccc2c(c1)OCO2 (nonaromatic ring conformer: 73.51680827024508 kcal/mol)

>  <smiles>  (28) 
CCN(CC)C(=O)C=CC=Cc1ccc2c(c1)OCO2

>  <score_type>  (28) 
oracle

>  <origin>  (28) 
adg

>  <m_score__min__energy>  (28) 
-6.9000000000000004

>  <m_primary>  (28) 
energy

$$$$
28:0
     RDKit          3D

 50 52  0  0  0  0  0  0  0  0999 V2000
   -9.0950   19.9140  -33.0770 C   0  0  0  0  0  0  0  0  0  0  0  0
   -8.1880   19.1680  -32.1900 N   0  0  0  0  0  0  0  0  0  0  0  0
   -8.8000   19.0550  -30.8540 C   0  0  0  0  0  0  0  0  0  0  0  0
   -7.9010   17.8330  -32.7600 C   0  0  0  0  0  0  0  0  0  0  0  0
   -6.3900   17.5600  -32.7760 C   0  0  0  0  0  0  0  0  0  0  0  0
   -5.7610   17.8190  -34.1540 C   0  0  0  0  0  0  0  0  0  0  0  0
   -4.5540   18.6540  -34.0720 N   0  0  0  0  0  0  0  0  0  0  0  0
   -3.2480   18.1260  -34.4980 C   0  0  0  0  0  0  0  0  0  0  0  0
   -3.2220   16.6250  -34.3710 C   0  0  0  0  0  0  0  0  0  0  0  0
   -3.1770   15.8120  -35.5160 C   0  0  0  0  0  0  0  0  0  0  0  0
   -3.1210   14.4210  -35.3920 C   0  0  0  0  0  0  0  0  0  0  0  0
   -3.1110   13.8300  -34.1270 C   0  0  0  0  0  0  0  0  0  0  0  0
   -3.1650   14.6290  -32.9820 C   0  0  0  0  0  0  0  0  0  0  0  0
   -3.2230   16.0210  -33.1010 C   0  0  0  0  0  0  0  0  0  0  0  0
   -4.6040   19.8710  -33.3060 C   0  0  0  0  0  0  0  0  0  0  0  0
   -3.4290   20.4400  -32.8180 C   0  0  0  0  0  0  0  0  0  0  0  0
   -3.5040   21.6070  -32.0600 C   0  0  0  0  0  0  0  0  0  0  0  0
   -2.4340   22.1100  -31.6170 O   0  0  0  0  0  0  0  0  0  0  0  0
   -4.7200   22.1900  -31.8050 N   0  0  0  0  0  0  0  0  0  0  0  0
   -4.8000   23.3400  -31.0590 C   0  0  0  0  0  0  0  0  0  0  0  0
   -6.0330   23.9410  -30.7980 C   0  0  0  0  0  0  0  0  0  0  0  0
   -6.1260   25.5400  -29.7580 Br  0  0  0  0  0  0  0  0  0  0  0  0
   -7.1960   23.3670  -31.3040 C   0  0  0  0  0  0  0  0  0  0  0  0
   -7.1180   22.2010  -32.0600 C   0  0  0  0  0  0  0  0  0  0  0  0
   -5.8680   21.6130  -32.3070 C   0  0  0  0  0  0  0  0  0  0  0  0
   -5.7970   20.4700  -33.0490 N   0  0  0  0  0  0  0  0  0  0  0  0
   -9.8037   20.4969  -32.4704 H   0  0  0  0  0  0  0  0  0  0  0  0
   -8.5091   20.5950  -33.7118 H   0  0  0  0  0  0  0  0  0  0  0  0
   -9.6501   19.2077  -33.7118 H   0  0  0  0  0  0  0  0  0  0  0  0
   -8.0278   19.1976  -30.0837 H   0  0  0  0  0  0  0  0  0  0  0  0
   -9.5776   19.8248  -30.7406 H   0  0  0  0  0  0  0  0  0  0  0  0
   -9.2514   18.0583  -30.7406 H   0  0  0  0  0  0  0  0  0  0  0  0
   -8.3996   17.0656  -32.1497 H   0  0  0  0  0  0  0  0  0  0  0  0
   -8.2755   17.8032  -33.7938 H   0  0  0  0  0  0  0  0  0  0  0  0
   -5.9050   18.2156  -32.0378 H   0  0  0  0  0  0  0  0  0  0  0  0
   -6.2392   16.4977  -32.5335 H   0  0  0  0  0  0  0  0  0  0  0  0
   -5.4921   16.8531  -34.6066 H   0  0  0  0  0  0  0  0  0  0  0  0
   -6.5007   18.3584  -34.7638 H   0  0  0  0  0  0  0  0  0  0  0  0
   -3.0692   18.4042  -35.5471 H   0  0  0  0  0  0  0  0  0  0  0  0
   -2.4637   18.5523  -33.8552 H   0  0  0  0  0  0  0  0  0  0  0  0
   -3.1859   16.2725  -36.5149 H   0  0  0  0  0  0  0  0  0  0  0  0
   -3.0847   13.7906  -36.2927 H   0  0  0  0  0  0  0  0  0  0  0  0
   -3.0606   12.7353  -34.0318 H   0  0  0  0  0  0  0  0  0  0  0  0
   -3.1619   14.1624  -31.9859 H   0  0  0  0  0  0  0  0  0  0  0  0
   -3.2696   16.6464  -32.1973 H   0  0  0  0  0  0  0  0  0  0  0  0
   -2.4551   19.9740  -33.0284 H   0  0  0  0  0  0  0  0  0  0  0  0
   -3.8802   23.7940  -30.6616 H   0  0  0  0  0  0  0  0  0  0  0  0
   -8.1727   23.8331  -31.1071 H   0  0  0  0  0  0  0  0  0  0  0  0
   -8.0330   21.7420  -32.4625 H   0  0  0  0  0  0  0  0  0  0  0  0
   -6.6700   20.0510  -33.4400 H   0  0  0  0  0  0  0  0  0  0  0  0
  1  2  1  0
  2  3  1  0
  2  4  1  0
  4  5  1  0
  5  6  1  0
  6  7  1  0
  7  8  1  0
  8  9  1  0
  9 10  2  0
 10 11  1  0
 11 12  2  0
 12 13  1  0
 13 14  2  0
  7 15  1  0
 15 16  2  0
 16 17  1  0
 17 18  2  0
 17 19  1  0
 19 20  1  0
 20 21  2  0
 21 22  1  0
 21 23  1  0
 23 24  2  0
 24 25  1  0
 25 26  2  0
 14  9  1  0
 26 15  1  0
 25 19  1  0
  1 27  1  0
  1 28  1  0
  1 29  1  0
  3 30  1  0
  3 31  1  0
  3 32  1  0
  4 33  1  0
  4 34  1  0
  5 35  1  0
  5 36  1  0
  6 37  1  0
  6 38  1  0
  8 39  1  0
  8 40  1  0
 10 41  1  0
 11 42  1  0
 12 43  1  0
 13 44  1  0
 14 45  1  0
 16 46  1  0
 20 47  1  0
 23 48  1  0
 24 49  1  0
 26 50  1  0
M  CHG  1  26   1
M  END
>  <UniqueID>  (29) 
29

>  <SMILES>  (29) 
CN(C)CCCN(Cc1ccccc1)c1cc(=O)n2cc(Br)ccc2[nH+]1

>  <Energy>  (29) 
55.386278448253016

>  <Genealogy>  (29) 
CN(C)CCCN(Cc1ccccc1)c1cc(=O)n2cc(Br)ccc2[nH+]1 (protonated)
CN(C)CCCN(Cc1ccccc1)c1cc(=O)n2cc(Br)ccc2[nH+]1 (3D coordinates assigned)
CN(C)CCCN(Cc1ccccc1)c1cc(=O)n2cc(Br)ccc2[nH+]1 (optimized conformer: 55.386278448253016 kcal/mol)

>  <smiles>  (29) 
CN(C)CCCN(Cc1ccccc1)c1cc(=O)n2cc(Br)ccc2n1

>  <score_type>  (29) 
oracle

>  <origin>  (29) 
adg

>  <m_score__min__energy>  (29) 
-7.3300000000000001

>  <m_primary>  (29) 
energy

$$$$
29:0
     RDKit          3D

 24 26  0  0  0  0  0  0  0  0999 V2000
   -3.9810   17.8370  -34.8870 F   0  0  0  0  0  0  0  0  0  0  0  0
   -5.1180   18.0530  -34.1820 C   0  0  0  0  0  0  0  0  0  0  0  0
   -5.9330   16.9670  -33.8190 C   0  0  0  0  0  0  0  0  0  0  0  0
   -7.1120   17.1820  -33.0900 C   0  0  0  0  0  0  0  0  0  0  0  0
   -7.4620   18.4840  -32.7320 C   0  0  0  0  0  0  0  0  0  0  0  0
   -6.6590   19.5560  -33.0930 C   0  0  0  0  0  0  0  0  0  0  0  0
   -5.4780   19.3590  -33.8200 C   0  0  0  0  0  0  0  0  0  0  0  0
   -7.2230   20.8090  -32.6150 C   0  0  0  0  0  0  0  0  0  0  0  0
   -6.6650   21.9820  -32.7200 N   0  0  0  0  0  0  0  0  0  0  0  0
   -7.2320   23.1650  -32.0590 C   0  0  0  0  0  0  0  0  0  0  0  0
   -8.7530   23.0490  -31.8660 C   0  0  0  0  0  0  0  0  0  0  0  0
   -9.1100   21.7080  -31.2180 C   0  0  0  0  0  0  0  0  0  0  0  0
   -8.4750   20.6290  -31.9640 N   0  0  0  0  0  0  0  0  0  0  0  0
   -8.9390   18.9250  -31.8020 S   0  0  0  0  0  0  0  0  0  0  0  0
   -5.6454   15.9452  -34.1075 H   0  0  0  0  0  0  0  0  0  0  0  0
   -7.7525   16.3346  -32.8042 H   0  0  0  0  0  0  0  0  0  0  0  0
   -4.8446   20.2131  -34.1018 H   0  0  0  0  0  0  0  0  0  0  0  0
   -5.7350   22.0840  -33.1810 H   0  0  0  0  0  0  0  0  0  0  0  0
   -6.7577   23.2816  -31.0734 H   0  0  0  0  0  0  0  0  0  0  0  0
   -7.0385   24.0364  -32.7018 H   0  0  0  0  0  0  0  0  0  0  0  0
   -9.0993   23.8678  -31.2182 H   0  0  0  0  0  0  0  0  0  0  0  0
   -9.2424   23.1109  -32.8492 H   0  0  0  0  0  0  0  0  0  0  0  0
   -8.7525   21.6957  -30.1778 H   0  0  0  0  0  0  0  0  0  0  0  0
  -10.2015   21.5718  -31.2297 H   0  0  0  0  0  0  0  0  0  0  0  0
  1  2  1  0
  2  3  2  0
  3  4  1  0
  4  5  2  0
  5  6  1  0
  6  7  2  0
  6  8  1  0
  8  9  2  0
  9 10  1  0
 10 11  1  0
 11 12  1  0
 12 13  1  0
 13 14  1  0
  7  2  1  0
 13  8  1  0
 14  5  1  0
  3 15  1  0
  4 16  1  0
  7 17  1  0
  9 18  1  0
 10 19  1  0
 10 20  1  0
 11 21  1  0
 11 22  1  0
 12 23  1  0
 12 24  1  0
M  CHG  1   9   1
M  END
>  <UniqueID>  (30) 
30

>  <SMILES>  (30) 
Fc1ccc2c(c1)C1=[NH+]CCCN1S2

>  <Energy>  (30) 
47.12695096274145

>  <Genealogy>  (30) 
Fc1ccc2c(c1)C1=[NH+]CCCN1S2 (protonated)
Fc1ccc2c(c1)C1=[NH+]CCCN1S2 (3D coordinates assigned)
Fc1ccc2c(c1)C1=[NH+]CCCN1S2 (nonaromatic ring conformer: 47.12695096274145 kcal/mol)

>  <smiles>  (30) 
Fc1ccc2c(c1)C1=NCCCN1S2

>  <score_type>  (30) 
oracle

>  <origin>  (30) 
adg

>  <m_score__min__energy>  (30) 
-6.0499999999999998

>  <m_primary>  (30) 
energy

$$$$
30:0
     RDKit          3D

 43 46  0  0  0  0  0  0  0  0999 V2000
   -3.5120   23.7590  -30.9220 O   0  0  0  0  0  0  0  0  0  0  0  0
   -4.0270   23.8190  -29.7730 C   0  0  0  0  0  0  0  0  0  0  0  0
   -5.3410   23.2760  -29.5390 N   0  0  0  0  0  0  0  0  0  0  0  0
   -6.1180   22.5750  -30.5220 C   0  0  0  0  0  0  0  0  0  0  0  0
   -5.8160   21.3540  -31.1170 C   0  0  0  0  0  0  0  0  0  0  0  0
   -6.8200   20.9000  -31.9940 C   0  0  0  0  0  0  0  0  0  0  0  0
   -6.7100   19.6170  -32.7340 C   0  0  0  0  0  0  0  0  0  0  0  0
   -7.3670   18.4460  -32.3060 C   0  0  0  0  0  0  0  0  0  0  0  0
   -7.2270   17.2690  -33.0440 C   0  0  0  0  0  0  0  0  0  0  0  0
   -6.4450   17.2580  -34.1980 C   0  0  0  0  0  0  0  0  0  0  0  0
   -5.8100   18.4330  -34.6010 C   0  0  0  0  0  0  0  0  0  0  0  0
   -5.9560   19.5700  -33.8690 N   0  0  0  0  0  0  0  0  0  0  0  0
   -7.9170   21.7670  -32.0600 C   0  0  0  0  0  0  0  0  0  0  0  0
   -7.6340   23.0730  -31.0400 S   0  0  0  0  0  0  0  0  0  0  0  0
   -3.2590   24.4630  -28.6790 C   0  0  0  0  0  0  0  0  0  0  0  0
   -3.8140   24.5430  -27.3910 C   0  0  0  0  0  0  0  0  0  0  0  0
   -3.1050   25.1420  -26.3460 C   0  0  0  0  0  0  0  0  0  0  0  0
   -1.8240   25.6760  -26.5660 C   0  0  0  0  0  0  0  0  0  0  0  0
   -1.0920   26.2830  -25.4830 N   0  0  0  0  0  0  0  0  0  0  0  0
   -0.6410   27.6670  -25.4610 C   0  0  0  0  0  0  0  0  0  0  0  0
   -0.1240   27.9250  -24.0340 C   0  0  0  0  0  0  0  0  0  0  0  0
   -0.0030   26.5590  -23.3450 C   0  0  0  0  0  0  0  0  0  0  0  0
   -0.6760   25.6440  -24.2870 C   0  0  0  0  0  0  0  0  0  0  0  0
   -0.8030   24.4080  -24.0790 O   0  0  0  0  0  0  0  0  0  0  0  0
   -1.2570   25.5690  -27.8470 C   0  0  0  0  0  0  0  0  0  0  0  0
   -1.9660   24.9700  -28.8930 C   0  0  0  0  0  0  0  0  0  0  0  0
   -5.7870   23.4070  -28.6060 H   0  0  0  0  0  0  0  0  0  0  0  0
   -4.8865   20.7991  -30.9220 H   0  0  0  0  0  0  0  0  0  0  0  0
   -7.9859   18.4592  -31.3967 H   0  0  0  0  0  0  0  0  0  0  0  0
   -7.7340   16.3500  -32.7147 H   0  0  0  0  0  0  0  0  0  0  0  0
   -6.3300   16.3340  -34.7837 H   0  0  0  0  0  0  0  0  0  0  0  0
   -5.1914   18.4399  -35.5105 H   0  0  0  0  0  0  0  0  0  0  0  0
   -8.8154   21.6184  -32.6771 H   0  0  0  0  0  0  0  0  0  0  0  0
   -4.8162   24.1303  -27.2031 H   0  0  0  0  0  0  0  0  0  0  0  0
   -3.5535   25.1958  -25.3430 H   0  0  0  0  0  0  0  0  0  0  0  0
    0.1666   27.8170  -26.1926 H   0  0  0  0  0  0  0  0  0  0  0  0
   -1.4544   28.3589  -25.7250 H   0  0  0  0  0  0  0  0  0  0  0  0
    0.8591   28.4171  -24.0719 H   0  0  0  0  0  0  0  0  0  0  0  0
   -0.8106   28.5832  -23.4814 H   0  0  0  0  0  0  0  0  0  0  0  0
    1.0518   26.2784  -23.2085 H   0  0  0  0  0  0  0  0  0  0  0  0
   -0.4461   26.5434  -22.3383 H   0  0  0  0  0  0  0  0  0  0  0  0
   -0.2452   25.9603  -28.0290 H   0  0  0  0  0  0  0  0  0  0  0  0
   -1.5083   24.8952  -29.8904 H   0  0  0  0  0  0  0  0  0  0  0  0
  1  2  2  0
  2  3  1  0
  3  4  1  0
  4  5  2  0
  5  6  1  0
  6  7  1  0
  7  8  2  0
  8  9  1  0
  9 10  2  0
 10 11  1  0
 11 12  2  0
  6 13  2  0
 13 14  1  0
  2 15  1  0
 15 16  2  0
 16 17  1  0
 17 18  2  0
 18 19  1  0
 19 20  1  0
 20 21  1  0
 21 22  1  0
 22 23  1  0
 23 24  2  0
 18 25  1  0
 25 26  2  0
 14  4  1  0
 26 15  1  0
 12  7  1  0
 23 19  1  0
  3 27  1  0
  5 28  1  0
  8 29  1  0
  9 30  1  0
 10 31  1  0
 11 32  1  0
 13 33  1  0
 16 34  1  0
 17 35  1  0
 20 36  1  0
 20 37  1  0
 21 38  1  0
 21 39  1  0
 22 40  1  0
 22 41  1  0
 25 42  1  0
 26 43  1  0
M  END
>  <UniqueID>  (31) 
31

>  <SMILES>  (31) 
O=C(Nc1cc(-c2ccccn2)cs1)c1ccc(N2CCCC2=O)cc1

>  <Energy>  (31) 
91.51135709343468

>  <Genealogy>  (31) 
O=C(Nc1cc(-c2ccccn2)cs1)c1ccc(N2CCCC2=O)cc1 (3D coordinates assigned)
O=C(Nc1cc(-c2ccccn2)cs1)c1ccc(N2CCCC2=O)cc1 (nonaromatic ring conformer: 91.51135709343468 kcal/mol)

>  <smiles>  (31) 
O=C(Nc1cc(-c2ccccn2)cs1)c1ccc(N2CCCC2=O)cc1

>  <score_type>  (31) 
oracle

>  <origin>  (31) 
adg

>  <m_score__min__energy>  (31) 
-8.9499999999999993

>  <m_primary>  (31) 
energy

$$$$
31:0
     RDKit          3D

 50 52  0  0  0  0  0  0  0  0999 V2000
   -2.1330   17.3060  -34.2710 C   0  0  0  0  0  0  0  0  0  0  0  0
   -2.9820   18.4760  -33.8750 C   0  0  0  0  0  0  0  0  0  0  0  0
   -4.3780   18.3560  -33.8370 C   0  0  0  0  0  0  0  0  0  0  0  0
   -5.1680   19.4350  -33.4320 C   0  0  0  0  0  0  0  0  0  0  0  0
   -4.5760   20.6500  -33.0440 C   0  0  0  0  0  0  0  0  0  0  0  0
   -5.4350   21.7720  -32.6010 C   0  0  0  0  0  0  0  0  0  0  0  0
   -4.9890   22.9350  -32.0770 N   0  0  0  0  0  0  0  0  0  0  0  0
   -6.1020   23.6290  -31.7850 C   0  0  0  0  0  0  0  0  0  0  0  0
   -6.1140   24.9370  -31.0460 C   0  0  0  0  0  0  0  0  0  0  0  0
   -5.1000   24.9290  -29.9010 C   0  0  0  0  0  0  0  0  0  0  0  0
   -3.7460   24.7840  -30.4330 N   0  0  0  0  0  0  0  0  0  0  0  0
   -2.7750   23.7850  -30.0880 C   0  0  0  0  0  0  0  0  0  0  0  0
   -2.4870   22.9150  -30.9530 O   0  0  0  0  0  0  0  0  0  0  0  0
   -2.1300   23.7120  -28.7180 C   0  0  0  0  0  0  0  0  0  0  0  0
   -3.1380   23.2460  -27.6300 C   0  0  0  0  0  0  0  0  0  0  0  0
   -3.7840   24.4300  -26.9000 C   0  0  0  0  0  0  0  0  0  0  0  0
   -2.7340   25.2990  -26.1810 C   0  0  0  0  0  0  0  0  0  0  0  0
   -1.3510   25.2790  -26.8620 C   0  0  0  0  0  0  0  0  0  0  0  0
   -1.4700   25.0720  -28.3740 C   0  0  0  0  0  0  0  0  0  0  0  0
   -7.1930   22.8610  -32.1370 C   0  0  0  0  0  0  0  0  0  0  0  0
   -8.6360   23.2020  -31.9630 C   0  0  0  0  0  0  0  0  0  0  0  0
   -6.7520   21.7330  -32.6420 O   0  0  0  0  0  0  0  0  0  0  0  0
   -3.1740   20.7600  -33.0670 C   0  0  0  0  0  0  0  0  0  0  0  0
   -2.3840   19.6790  -33.4740 C   0  0  0  0  0  0  0  0  0  0  0  0
   -1.7644   16.7980  -33.3676 H   0  0  0  0  0  0  0  0  0  0  0  0
   -2.7327   16.6032  -34.8680 H   0  0  0  0  0  0  0  0  0  0  0  0
   -1.2788   17.6581  -34.8680 H   0  0  0  0  0  0  0  0  0  0  0  0
   -4.8539   17.4078  -34.1274 H   0  0  0  0  0  0  0  0  0  0  0  0
   -6.2632   19.3330  -33.4165 H   0  0  0  0  0  0  0  0  0  0  0  0
   -4.0060   23.2330  -31.8890 H   0  0  0  0  0  0  0  0  0  0  0  0
   -5.8607   25.7475  -31.7452 H   0  0  0  0  0  0  0  0  0  0  0  0
   -7.1179   25.0918  -30.6239 H   0  0  0  0  0  0  0  0  0  0  0  0
   -5.1729   25.8743  -29.3433 H   0  0  0  0  0  0  0  0  0  0  0  0
   -5.3175   24.0833  -29.2320 H   0  0  0  0  0  0  0  0  0  0  0  0
   -1.3387   22.9482  -28.7400 H   0  0  0  0  0  0  0  0  0  0  0  0
   -3.9286   22.6507  -28.1101 H   0  0  0  0  0  0  0  0  0  0  0  0
   -2.5858   22.6501  -26.8884 H   0  0  0  0  0  0  0  0  0  0  0  0
   -4.3193   25.0514  -27.6330 H   0  0  0  0  0  0  0  0  0  0  0  0
   -4.4743   24.0301  -26.1427 H   0  0  0  0  0  0  0  0  0  0  0  0
   -3.0967   26.3372  -26.1592 H   0  0  0  0  0  0  0  0  0  0  0  0
   -2.6044   24.8820  -25.1714 H   0  0  0  0  0  0  0  0  0  0  0  0
   -0.8455   26.2373  -26.6716 H   0  0  0  0  0  0  0  0  0  0  0  0
   -0.7741   24.4406  -26.4444 H   0  0  0  0  0  0  0  0  0  0  0  0
   -2.0820   25.8821  -28.7973 H   0  0  0  0  0  0  0  0  0  0  0  0
   -0.4563   25.0782  -28.8011 H   0  0  0  0  0  0  0  0  0  0  0  0
   -8.8728   23.2580  -30.8902 H   0  0  0  0  0  0  0  0  0  0  0  0
   -8.8427   24.1737  -32.4353 H   0  0  0  0  0  0  0  0  0  0  0  0
   -9.2558   22.4256  -32.4353 H   0  0  0  0  0  0  0  0  0  0  0  0
   -2.6951   21.7024  -32.7629 H   0  0  0  0  0  0  0  0  0  0  0  0
   -1.2881   19.7736  -33.4793 H   0  0  0  0  0  0  0  0  0  0  0  0
  1  2  1  0
  2  3  2  0
  3  4  1  0
  4  5  2  0
  5  6  1  0
  6  7  2  0
  7  8  1  0
  8  9  1  0
  9 10  1  0
 10 11  1  0
 11 12  1  0
 12 13  2  0
 12 14  1  0
 14 15  1  0
 15 16  1  0
 16 17  1  0
 17 18  1  0
 18 19  1  0
  8 20  2  0
 20 21  1  0
 20 22  1  0
  5 23  1  0
 23 24  2  0
 24  2  1  0
 22  6  1  0
 19 14  1  0
  1 25  1  0
  1 26  1  0
  1 27  1  0
  3 28  1  0
  4 29  1  0
  7 30  1  0
  9 31  1  0
  9 32  1  0
 10 33  1  0
 10 34  1  0
 14 35  1  0
 15 36  1  0
 15 37  1  0
 16 38  1  0
 16 39  1  0
 17 40  1  0
 17 41  1  0
 18 42  1  0
 18 43  1  0
 19 44  1  0
 19 45  1  0
 21 46  1  0
 21 47  1  0
 21 48  1  0
 23 49  1  0
 24 50  1  0
M  CHG  2   7   1  11  -1
M  END
>  <UniqueID>  (32) 
32

>  <SMILES>  (32) 
Cc1ccc(-c2[nH+]c(CC[N-]C(=O)C3CCCCC3)c(C)o2)cc1

>  <Energy>  (32) 
78.23711691154092

>  <Genealogy>  (32) 
Cc1ccc(-c2[nH+]c(CC[N-]C(=O)C3CCCCC3)c(C)o2)cc1 (protonated)
Cc1ccc(-c2[nH+]c(CC[N-]C(=O)C3CCCCC3)c(C)o2)cc1 (3D coordinates assigned)
Cc1ccc(-c2[nH+]c(CC[N-]C(=O)C3CCCCC3)c(C)o2)cc1 (nonaromatic ring conformer: 78.23711691154092 kcal/mol)

>  <smiles>  (32) 
Cc1ccc(-c2nc(CCNC(=O)C3CCCCC3)c(C)o2)cc1

>  <score_type>  (32) 
oracle

>  <origin>  (32) 
adg

>  <m_score__min__energy>  (32) 
-9.4000000000000004

>  <m_primary>  (32) 
energy

$$$$
32:0
     RDKit          3D

 29 31  0  0  0  0  0  0  0  0999 V2000
   -5.0680   23.7340  -31.8370 N   0  0  0  0  0  0  0  0  0  0  0  0
   -5.9610   23.4600  -30.9310 C   0  0  0  0  0  0  0  0  0  0  0  0
   -5.6560   23.6320  -29.5340 N   0  0  0  0  0  0  0  0  0  0  0  0
   -4.3570   23.3980  -28.9580 C   0  0  0  0  0  0  0  0  0  0  0  0
   -4.1590   22.3580  -28.0330 C   0  0  0  0  0  0  0  0  0  0  0  0
   -2.9060   22.1520  -27.4530 C   0  0  0  0  0  0  0  0  0  0  0  0
   -1.8310   22.9900  -27.7770 C   0  0  0  0  0  0  0  0  0  0  0  0
   -0.5720   22.7900  -27.1980 C   0  0  0  0  0  0  0  0  0  0  0  0
    0.4800   23.6450  -27.5360 C   0  0  0  0  0  0  0  0  0  0  0  0
    0.2810   24.6600  -28.4160 N   0  0  0  0  0  0  0  0  0  0  0  0
   -0.9280   24.8820  -28.9950 C   0  0  0  0  0  0  0  0  0  0  0  0
   -2.0220   24.0520  -28.6910 C   0  0  0  0  0  0  0  0  0  0  0  0
   -3.2870   24.2550  -29.2750 C   0  0  0  0  0  0  0  0  0  0  0  0
   -3.4850   25.2980  -30.1780 O   0  0  0  0  0  0  0  0  0  0  0  0
   -7.3220   23.0310  -31.3170 C   0  0  0  0  0  0  0  0  0  0  0  0
   -8.1280   23.7650  -32.1170 N   0  0  0  0  0  0  0  0  0  0  0  0
   -9.3320   23.1660  -32.3240 C   0  0  0  0  0  0  0  0  0  0  0  0
   -9.5010   21.9440  -31.6850 C   0  0  0  0  0  0  0  0  0  0  0  0
   -8.0900   21.6100  -30.8360 S   0  0  0  0  0  0  0  0  0  0  0  0
   -4.1690   24.2110  -31.6010 H   0  0  0  0  0  0  0  0  0  0  0  0
   -5.2080   23.4600  -32.8350 H   0  0  0  0  0  0  0  0  0  0  0  0
   -6.4310   23.9260  -28.8990 H   0  0  0  0  0  0  0  0  0  0  0  0
   -4.9989   21.7007  -27.7638 H   0  0  0  0  0  0  0  0  0  0  0  0
   -2.7621   21.3281  -26.7385 H   0  0  0  0  0  0  0  0  0  0  0  0
   -0.4128   21.9682  -26.4844 H   0  0  0  0  0  0  0  0  0  0  0  0
    1.4733   23.4954  -27.0876 H   0  0  0  0  0  0  0  0  0  0  0  0
   -1.0516   25.7139  -29.7040 H   0  0  0  0  0  0  0  0  0  0  0  0
  -10.1148   23.6166  -32.9518 H   0  0  0  0  0  0  0  0  0  0  0  0
  -10.3980   21.3088  -31.7273 H   0  0  0  0  0  0  0  0  0  0  0  0
  1  2  2  0
  2  3  1  0
  3  4  1  0
  4  5  2  0
  5  6  1  0
  6  7  2  0
  7  8  1  0
  8  9  2  0
  9 10  1  0
 10 11  2  0
 11 12  1  0
 12 13  2  0
 13 14  1  0
  2 15  1  0
 15 16  2  0
 16 17  1  0
 17 18  2  0
 18 19  1  0
 13  4  1  0
 19 15  1  0
 12  7  1  0
  1 20  1  0
  1 21  1  0
  3 22  1  0
  5 23  1  0
  6 24  1  0
  8 25  1  0
  9 26  1  0
 11 27  1  0
 17 28  1  0
 18 29  1  0
M  CHG  2   1   1  14  -1
M  END
>  <UniqueID>  (33) 
33

>  <SMILES>  (33) 
[NH2+]=C(Nc1ccc2ccncc2c1[O-])c1nccs1

>  <Energy>  (33) 
71.07027171719827

>  <Genealogy>  (33) 
[NH2+]=C(Nc1ccc2ccncc2c1[O-])c1nccs1 (protonated)
[NH2+]=C(Nc1ccc2ccncc2c1[O-])c1nccs1 (3D coordinates assigned)
[NH2+]=C(Nc1ccc2ccncc2c1[O-])c1nccs1 (optimized conformer: 71.07027171719827 kcal/mol)

>  <smiles>  (33) 
N=C(Nc1ccc2ccncc2c1O)c1nccs1

>  <score_type>  (33) 
oracle

>  <origin>  (33) 
adg

>  <m_score__min__energy>  (33) 
-8.8399999999999999

>  <m_primary>  (33) 
energy

$$$$
33:0
     RDKit          3D

 35 37  0  0  0  0  0  0  0  0999 V2000
   -6.3890   24.8810  -30.3300 C   0  0  0  0  0  0  0  0  0  0  0  0
   -5.4960   23.9200  -31.0490 C   0  0  0  0  0  0  0  0  0  0  0  0
   -4.2870   24.2350  -31.2170 O   0  0  0  0  0  0  0  0  0  0  0  0
   -5.9740   22.6170  -31.5690 C   0  0  0  0  0  0  0  0  0  0  0  0
   -5.1380   21.5880  -32.0010 C   0  0  0  0  0  0  0  0  0  0  0  0
   -5.8530   20.5090  -32.4230 N   0  0  0  0  0  0  0  0  0  0  0  0
   -5.3270   19.2230  -32.9500 C   0  0  0  0  0  0  0  0  0  0  0  0
   -5.7580   18.0930  -32.0870 C   0  0  0  0  0  0  0  0  0  0  0  0
   -6.0920   17.2110  -31.4150 N   0  0  0  0  0  0  0  0  0  0  0  0
   -5.8830   18.9640  -34.3710 C   0  0  0  0  0  0  0  0  0  0  0  0
   -5.2320   17.7240  -35.0360 C   0  0  0  0  0  0  0  0  0  0  0  0
   -4.0580   17.2770  -34.3750 O   0  0  0  0  0  0  0  0  0  0  0  0
   -3.2010   18.3670  -34.1090 C   0  0  0  0  0  0  0  0  0  0  0  0
   -3.7720   19.2480  -32.9830 C   0  0  0  0  0  0  0  0  0  0  0  0
   -7.1460   20.8690  -32.2560 C   0  0  0  0  0  0  0  0  0  0  0  0
   -8.2330   20.1110  -32.5560 N   0  0  0  0  0  0  0  0  0  0  0  0
   -9.4850   20.6110  -32.3430 C   0  0  0  0  0  0  0  0  0  0  0  0
   -9.6550   21.9060  -31.8190 C   0  0  0  0  0  0  0  0  0  0  0  0
   -8.5300   22.6880  -31.5130 C   0  0  0  0  0  0  0  0  0  0  0  0
   -7.2660   22.1360  -31.7430 C   0  0  0  0  0  0  0  0  0  0  0  0
   -6.2686   24.7514  -29.2443 H   0  0  0  0  0  0  0  0  0  0  0  0
   -6.1196   25.9105  -30.6085 H   0  0  0  0  0  0  0  0  0  0  0  0
   -7.4355   24.6877  -30.6085 H   0  0  0  0  0  0  0  0  0  0  0  0
   -4.0393   21.6413  -32.0008 H   0  0  0  0  0  0  0  0  0  0  0  0
   -6.9686   18.8006  -34.3026 H   0  0  0  0  0  0  0  0  0  0  0  0
   -5.6494   19.8421  -34.9909 H   0  0  0  0  0  0  0  0  0  0  0  0
   -5.9651   16.9039  -35.0359 H   0  0  0  0  0  0  0  0  0  0  0  0
   -4.9371   18.0204  -36.0534 H   0  0  0  0  0  0  0  0  0  0  0  0
   -2.2156   17.9851  -33.8038 H   0  0  0  0  0  0  0  0  0  0  0  0
   -3.1097   18.9751  -35.0211 H   0  0  0  0  0  0  0  0  0  0  0  0
   -3.3911   18.8814  -32.0184 H   0  0  0  0  0  0  0  0  0  0  0  0
   -3.4544   20.2843  -33.1705 H   0  0  0  0  0  0  0  0  0  0  0  0
  -10.3665   19.9980  -32.5824 H   0  0  0  0  0  0  0  0  0  0  0  0
  -10.6663   22.3043  -31.6497 H   0  0  0  0  0  0  0  0  0  0  0  0
   -8.6394   23.7036  -31.1049 H   0  0  0  0  0  0  0  0  0  0  0  0
  1  2  1  0
  2  3  2  0
  2  4  1  0
  4  5  2  0
  5  6  1  0
  6  7  1  0
  7  8  1  0
  8  9  3  0
  7 10  1  0
 10 11  1  0
 11 12  1  0
 12 13  1  0
 13 14  1  0
  6 15  1  0
 15 16  2  0
 16 17  1  0
 17 18  2  0
 18 19  1  0
 19 20  2  0
 20  4  1  0
 14  7  1  0
 20 15  1  0
  1 21  1  0
  1 22  1  0
  1 23  1  0
  5 24  1  0
 10 25  1  0
 10 26  1  0
 11 27  1  0
 11 28  1  0
 13 29  1  0
 13 30  1  0
 14 31  1  0
 14 32  1  0
 17 33  1  0
 18 34  1  0
 19 35  1  0
M  END
>  <UniqueID>  (34) 
34

>  <SMILES>  (34) 
CC(=O)c1cn(C2(C#N)CCOCC2)c2ncccc12

>  <Energy>  (34) 
85.03954087248268

>  <Genealogy>  (34) 
CC(=O)c1cn(C2(C#N)CCOCC2)c2ncccc12 (3D coordinates assigned)
CC(=O)c1cn(C2(C#N)CCOCC2)c2ncccc12 (nonaromatic ring conformer: 85.03954087248268 kcal/mol)

>  <smiles>  (34) 
CC(=O)c1cn(C2(C#N)CCOCC2)c2ncccc12

>  <score_type>  (34) 
oracle

>  <origin>  (34) 
adg

>  <m_score__min__energy>  (34) 
-7.7300000000000004

>  <m_primary>  (34) 
energy

$$$$
34:0
     RDKit          3D

 34 36  0  0  0  0  0  0  0  0999 V2000
   -6.4655   25.7612  -30.7275 H   0  0  0  0  0  0  0  0  0  0  0  0
   -6.0970   24.7550  -30.9760 C   0  0  0  0  0  0  0  0  0  0  0  0
   -6.6040   24.1610  -32.0180 N   0  0  0  0  0  0  0  0  0  0  0  0
   -7.1300   22.8280  -32.0910 C   0  0  0  0  0  0  0  0  0  0  0  0
   -8.5180   22.2750  -31.2850 S   0  0  0  0  0  0  0  0  0  0  0  0
   -8.2550   20.6890  -31.7720 C   0  0  0  0  0  0  0  0  0  0  0  0
   -9.0230   19.5660  -31.4850 C   0  0  0  0  0  0  0  0  0  0  0  0
   -9.9440   19.6483  -30.8892 H   0  0  0  0  0  0  0  0  0  0  0  0
   -8.5910   18.3260  -31.9760 C   0  0  0  0  0  0  0  0  0  0  0  0
   -9.1778   17.4200  -31.7645 H   0  0  0  0  0  0  0  0  0  0  0  0
   -7.4110   18.2330  -32.7380 C   0  0  0  0  0  0  0  0  0  0  0  0
   -7.0806   17.2514  -33.1086 H   0  0  0  0  0  0  0  0  0  0  0  0
   -6.6460   19.3820  -33.0330 C   0  0  0  0  0  0  0  0  0  0  0  0
   -5.3720   19.2490  -33.8290 C   0  0  0  0  0  0  0  0  0  0  0  0
   -4.5396   19.0328  -33.1432 H   0  0  0  0  0  0  0  0  0  0  0  0
   -5.1923   20.1924  -34.3654 H   0  0  0  0  0  0  0  0  0  0  0  0
   -5.4840   18.1220  -34.8490 C   0  0  0  0  0  0  0  0  0  0  0  0
   -5.5796   17.1602  -34.3238 H   0  0  0  0  0  0  0  0  0  0  0  0
   -6.3704   18.2850  -35.4797 H   0  0  0  0  0  0  0  0  0  0  0  0
   -4.5829   18.1074  -35.4797 H   0  0  0  0  0  0  0  0  0  0  0  0
   -7.0880   20.6200  -32.5230 C   0  0  0  0  0  0  0  0  0  0  0  0
   -6.4550   21.8150  -32.6820 N   0  0  0  0  0  0  0  0  0  0  0  0
   -5.5510   21.9550  -33.1860 H   0  0  0  0  0  0  0  0  0  0  0  0
   -5.0590   24.1650  -30.1060 C   0  0  0  0  0  0  0  0  0  0  0  0
   -4.9700   24.5200  -28.7470 C   0  0  0  0  0  0  0  0  0  0  0  0
   -5.6987   25.2218  -28.3151 H   0  0  0  0  0  0  0  0  0  0  0  0
   -3.9590   23.9840  -27.9440 C   0  0  0  0  0  0  0  0  0  0  0  0
   -3.9047   24.2513  -26.8784 H   0  0  0  0  0  0  0  0  0  0  0  0
   -3.0180   23.1100  -28.4920 C   0  0  0  0  0  0  0  0  0  0  0  0
   -2.2272   22.6843  -27.8568 H   0  0  0  0  0  0  0  0  0  0  0  0
   -3.0810   22.7760  -29.8480 C   0  0  0  0  0  0  0  0  0  0  0  0
   -2.3346   22.0932  -30.2801 H   0  0  0  0  0  0  0  0  0  0  0  0
   -4.0910   23.3080  -30.6570 C   0  0  0  0  0  0  0  0  0  0  0  0
   -4.1340   22.9750  -31.9720 F   0  0  0  0  0  0  0  0  0  0  0  0
  1  2  1  0
  2  3  2  0
  3  4  1  0
  4  5  1  0
  5  6  1  0
  6  7  2  0
  7  8  1  0
  7  9  1  0
  9 10  1  0
  9 11  2  0
 11 12  1  0
 11 13  1  0
 13 14  1  0
 14 15  1  0
 14 16  1  0
 14 17  1  0
 17 18  1  0
 17 19  1  0
 17 20  1  0
 13 21  2  0
 21 22  1  0
 22 23  1  0
  2 24  1  0
 24 25  2  0
 25 26  1  0
 25 27  1  0
 27 28  1  0
 27 29  2  0
 29 30  1  0
 29 31  1  0
 31 32  1  0
 31 33  2  0
 33 34  1  0
 22  4  2  0
 33 24  1  0
 21  6  1  0
M  CHG  1  22   1
M  END
>  <UniqueID>  (35) 
35

>  <SMILES>  (35) 
CCc1cccc2sc(/N=C\c3ccccc3F)[nH+]c12

>  <Energy>  (35) 
79.0756259688657

>  <Genealogy>  (35) 
CCc1cccc2sc(N=Cc3ccccc3F)[nH+]c12 (protonated)
CCc1cccc2sc(/N=C\c3ccccc3F)[nH+]c12 (cis-trans isomerization)
CCc1cccc2sc(/N=C\c3ccccc3F)[nH+]c12 (3D coordinates assigned)
CCc1cccc2sc(/N=C\c3ccccc3F)[nH+]c12 (optimized conformer: 79.0756259688657 kcal/mol)

>  <smiles>  (35) 
CCc1cccc2sc(N=Cc3ccccc3F)nc12

>  <score_type>  (35) 
oracle

>  <origin>  (35) 
adg

>  <m_score__min__energy>  (35) 
-7.4400000000000004

>  <m_primary>  (35) 
energy

$$$$
35:0
     RDKit          3D

 42 45  0  0  0  0  0  0  0  0999 V2000
   -7.2640   17.9490  -32.6310 C   0  0  0  0  0  0  0  0  0  0  0  0
   -7.6530   19.3690  -32.3480 C   0  0  0  0  0  0  0  0  0  0  0  0
   -8.9440   19.6690  -31.8890 C   0  0  0  0  0  0  0  0  0  0  0  0
   -9.2960   20.9860  -31.5920 C   0  0  0  0  0  0  0  0  0  0  0  0
   -8.3600   22.0130  -31.7360 C   0  0  0  0  0  0  0  0  0  0  0  0
   -7.0520   21.7290  -32.1730 C   0  0  0  0  0  0  0  0  0  0  0  0
   -6.0230   22.8360  -32.3360 C   0  0  1  0  0  0  0  0  0  0  0  0
   -6.5380   24.1750  -31.7880 C   0  0  0  0  0  0  0  0  0  0  0  0
   -5.8180   24.4040  -30.4640 C   0  0  0  0  0  0  0  0  0  0  0  0
   -4.7200   23.4530  -30.4350 N   0  0  0  0  0  0  0  0  0  0  0  0
   -3.7430   23.4300  -29.3750 C   0  0  0  0  0  0  0  0  0  0  0  0
   -3.6360   22.3330  -28.5020 C   0  0  0  0  0  0  0  0  0  0  0  0
   -2.6770   22.3460  -27.4860 C   0  0  0  0  0  0  0  0  0  0  0  0
   -1.8280   23.4480  -27.3430 C   0  0  0  0  0  0  0  0  0  0  0  0
   -0.8560   23.4930  -26.3330 C   0  0  0  0  0  0  0  0  0  0  0  0
   -0.0220   24.6100  -26.2150 C   0  0  0  0  0  0  0  0  0  0  0  0
   -0.1530   25.6830  -27.1030 C   0  0  0  0  0  0  0  0  0  0  0  0
   -1.1210   25.6470  -28.1130 C   0  0  0  0  0  0  0  0  0  0  0  0
   -1.2390   26.6950  -28.9660 F   0  0  0  0  0  0  0  0  0  0  0  0
   -1.9600   24.5330  -28.2370 C   0  0  0  0  0  0  0  0  0  0  0  0
   -2.9030   24.4910  -29.2170 N   0  0  0  0  0  0  0  0  0  0  0  0
   -4.7280   22.5400  -31.5670 C   0  0  0  0  0  0  0  0  0  0  0  0
   -6.7080   20.3990  -32.4740 C   0  0  0  0  0  0  0  0  0  0  0  0
   -7.1171   17.4129  -31.6818 H   0  0  0  0  0  0  0  0  0  0  0  0
   -8.0610   17.4588  -33.2094 H   0  0  0  0  0  0  0  0  0  0  0  0
   -6.3285   17.9334  -33.2094 H   0  0  0  0  0  0  0  0  0  0  0  0
   -9.6817   18.8629  -31.7627 H   0  0  0  0  0  0  0  0  0  0  0  0
  -10.3136   21.2164  -31.2434 H   0  0  0  0  0  0  0  0  0  0  0  0
   -8.6466   23.0499  -31.5066 H   0  0  0  0  0  0  0  0  0  0  0  0
   -5.8340   22.8911  -33.4182 H   0  0  0  0  0  0  0  0  0  0  0  0
   -6.3074   24.9881  -32.4920 H   0  0  0  0  0  0  0  0  0  0  0  0
   -7.6292   24.1562  -31.6504 H   0  0  0  0  0  0  0  0  0  0  0  0
   -5.4335   25.4333  -30.4111 H   0  0  0  0  0  0  0  0  0  0  0  0
   -6.4947   24.2640  -29.6081 H   0  0  0  0  0  0  0  0  0  0  0  0
   -4.3050   21.4676  -28.6185 H   0  0  0  0  0  0  0  0  0  0  0  0
   -2.5899   21.4908  -26.7997 H   0  0  0  0  0  0  0  0  0  0  0  0
   -0.7494   22.6504  -25.6339 H   0  0  0  0  0  0  0  0  0  0  0  0
    0.7391   24.6447  -25.4216 H   0  0  0  0  0  0  0  0  0  0  0  0
    0.5070   26.5578  -27.0070 H   0  0  0  0  0  0  0  0  0  0  0  0
   -3.8525   22.7183  -32.2087 H   0  0  0  0  0  0  0  0  0  0  0  0
   -4.6828   21.4906  -31.2402 H   0  0  0  0  0  0  0  0  0  0  0  0
   -5.6879   20.1636  -32.8116 H   0  0  0  0  0  0  0  0  0  0  0  0
  1  2  1  0
  2  3  2  0
  3  4  1  0
  4  5  2  0
  5  6  1  0
  6  7  1  0
  7  8  1  0
  8  9  1  0
  9 10  1  0
 10 11  1  0
 11 12  2  0
 12 13  1  0
 13 14  2  0
 14 15  1  0
 15 16  2  0
 16 17  1  0
 17 18  2  0
 18 19  1  0
 18 20  1  0
 20 21  2  0
 10 22  1  0
  6 23  2  0
 23  2  1  0
 22  7  1  0
 21 11  1  0
 20 14  1  0
  1 24  1  0
  1 25  1  0
  1 26  1  0
  3 27  1  0
  4 28  1  0
  5 29  1  0
  7 30  1  6
  8 31  1  0
  8 32  1  0
  9 33  1  0
  9 34  1  0
 12 35  1  0
 13 36  1  0
 15 37  1  0
 16 38  1  0
 17 39  1  0
 22 40  1  0
 22 41  1  0
 23 42  1  0
M  END
>  <UniqueID>  (36) 
36

>  <SMILES>  (36) 
Cc1cccc([C@H]2CCN(c3ccc4cccc(F)c4n3)C2)c1

>  <Energy>  (36) 
50.224607034016636

>  <Genealogy>  (36) 
Cc1cccc([C@H]2CCN(c3ccc4cccc(F)c4n3)C2)c1 (chirality)
Cc1cccc([C@H]2CCN(c3ccc4cccc(F)c4n3)C2)c1 (3D coordinates assigned)
Cc1cccc([C@H]2CCN(c3ccc4cccc(F)c4n3)C2)c1 (nonaromatic ring conformer: 50.224607034016636 kcal/mol)

>  <smiles>  (36) 
Cc1cccc(C2CCN(c3ccc4cccc(F)c4n3)C2)c1

>  <score_type>  (36) 
oracle

>  <origin>  (36) 
adg

>  <m_score__min__energy>  (36) 
-8.9199999999999999

>  <m_primary>  (36) 
energy

$$$$
36:0
     RDKit          3D

 21 20  0  0  0  0  0  0  0  0999 V2000
   -4.2010   22.6640  -28.6550 C   0  0  0  0  0  0  0  0  0  0  0  0
   -3.8380   23.9200  -28.3670 C   0  0  0  0  0  0  0  0  0  0  0  0
   -4.1980   24.5160  -27.0340 C   0  0  0  0  0  0  0  0  0  0  0  0
   -3.1460   24.7610  -29.3680 C   0  0  0  0  0  0  0  0  0  0  0  0
   -1.9170   25.0240  -29.2450 O   0  0  0  0  0  0  0  0  0  0  0  0
   -3.8680   25.2670  -30.4560 O   0  0  0  0  0  0  0  0  0  0  0  0
   -5.2940   25.3000  -30.5110 C   0  0  0  0  0  0  0  0  0  0  0  0
   -5.8400   24.1810  -31.4050 C   0  0  0  0  0  0  0  0  0  0  0  0
   -7.0770   23.5230  -30.7970 C   0  0  0  0  0  0  0  0  0  0  0  0
   -3.9391   22.2254  -29.6292 H   0  0  0  0  0  0  0  0  0  0  0  0
   -4.7612   22.0705  -27.9174 H   0  0  0  0  0  0  0  0  0  0  0  0
   -3.8105   23.8745  -26.2288 H   0  0  0  0  0  0  0  0  0  0  0  0
   -3.7546   25.5191  -26.9491 H   0  0  0  0  0  0  0  0  0  0  0  0
   -5.2922   24.5904  -26.9491 H   0  0  0  0  0  0  0  0  0  0  0  0
   -5.6953   25.1752  -29.4944 H   0  0  0  0  0  0  0  0  0  0  0  0
   -5.6041   26.2668  -30.9343 H   0  0  0  0  0  0  0  0  0  0  0  0
   -6.1072   24.6056  -32.3840 H   0  0  0  0  0  0  0  0  0  0  0  0
   -5.0592   23.4130  -31.5074 H   0  0  0  0  0  0  0  0  0  0  0  0
   -7.0095   23.5589  -29.6997 H   0  0  0  0  0  0  0  0  0  0  0  0
   -7.9780   24.0610  -31.1267 H   0  0  0  0  0  0  0  0  0  0  0  0
   -7.1344   22.4752  -31.1267 H   0  0  0  0  0  0  0  0  0  0  0  0
  1  2  2  0
  2  3  1  0
  2  4  1  0
  4  5  2  0
  4  6  1  0
  6  7  1  0
  7  8  1  0
  8  9  1  0
  1 10  1  0
  1 11  1  0
  3 12  1  0
  3 13  1  0
  3 14  1  0
  7 15  1  0
  7 16  1  0
  8 17  1  0
  8 18  1  0
  9 19  1  0
  9 20  1  0
  9 21  1  0
M  END
>  <UniqueID>  (37) 
37

>  <SMILES>  (37) 
C=C(C)C(=O)OCCC

>  <Energy>  (37) 
8.649711669963372

>  <Genealogy>  (37) 
C=C(C)C(=O)OCCC (3D coordinates assigned)
C=C(C)C(=O)OCCC (optimized conformer: 8.649711669963372 kcal/mol)

>  <smiles>  (37) 
C=C(C)C(=O)OCCC

>  <score_type>  (37) 
oracle

>  <origin>  (37) 
adg

>  <m_score__min__energy>  (37) 
-4.1699999999999999

>  <m_primary>  (37) 
energy

$$$$
37:0
     RDKit          3D

 48 48  0  0  0  0  0  0  0  0999 V2000
   -4.0140   24.5750  -27.2930 N   0  0  0  0  0  0  0  0  0  0  0  0
   -3.7810   25.2500  -26.0190 C   0  0  0  0  0  0  0  0  0  0  0  0
   -2.2780   25.4570  -25.7990 C   0  0  0  0  0  0  0  0  0  0  0  0
   -1.6100   26.2880  -26.9090 C   0  0  0  0  0  0  0  0  0  0  0  0
   -0.9260   25.4420  -27.9940 C   0  0  0  0  0  0  0  0  0  0  0  0
   -1.9150   24.9400  -28.9640 N   0  0  0  0  0  0  0  0  0  0  0  0
   -1.6600   23.5520  -29.3820 C   0  0  0  0  0  0  0  0  0  0  0  0
   -2.6680   23.0850  -30.4420 C   0  0  0  0  0  0  0  0  0  0  0  0
   -4.1070   23.5060  -30.0860 C   0  0  0  0  0  0  0  0  0  0  0  0
   -4.3030   24.9610  -30.1810 N   0  0  0  0  0  0  0  0  0  0  0  0
   -5.6960   25.3400  -30.4780 C   0  0  0  0  0  0  0  0  0  0  0  0
   -6.6040   24.1060  -30.4490 C   0  0  0  0  0  0  0  0  0  0  0  0
   -7.2220   23.8120  -31.8220 C   0  0  0  0  0  0  0  0  0  0  0  0
   -7.5410   22.3470  -31.9560 C   0  0  0  0  0  0  0  0  0  0  0  0
   -6.5420   21.4360  -32.3330 C   0  0  0  0  0  0  0  0  0  0  0  0
   -6.8350   20.0710  -32.4310 C   0  0  0  0  0  0  0  0  0  0  0  0
   -8.1220   19.6090  -32.1440 C   0  0  0  0  0  0  0  0  0  0  0  0
   -9.1180   20.5080  -31.7570 C   0  0  0  0  0  0  0  0  0  0  0  0
   -8.8300   21.8730  -31.6580 C   0  0  0  0  0  0  0  0  0  0  0  0
   -3.1830   23.9720  -27.4890 H   0  0  0  0  0  0  0  0  0  0  0  0
   -4.0380   25.2990  -28.0480 H   0  0  0  0  0  0  0  0  0  0  0  0
   -4.2854   26.2275  -26.0277 H   0  0  0  0  0  0  0  0  0  0  0  0
   -4.1817   24.6290  -25.2042 H   0  0  0  0  0  0  0  0  0  0  0  0
   -2.1335   25.9754  -24.8396 H   0  0  0  0  0  0  0  0  0  0  0  0
   -1.8071   24.4629  -25.8075 H   0  0  0  0  0  0  0  0  0  0  0  0
   -2.3812   26.9087  -27.3887 H   0  0  0  0  0  0  0  0  0  0  0  0
   -0.8231   26.8882  -26.4288 H   0  0  0  0  0  0  0  0  0  0  0  0
   -0.1854   26.0613  -28.5212 H   0  0  0  0  0  0  0  0  0  0  0  0
   -0.4336   24.5831  -27.5145 H   0  0  0  0  0  0  0  0  0  0  0  0
   -2.8580   24.9600  -28.5090 H   0  0  0  0  0  0  0  0  0  0  0  0
   -0.6452   23.4865  -29.8015 H   0  0  0  0  0  0  0  0  0  0  0  0
   -1.7639   22.9031  -28.4999 H   0  0  0  0  0  0  0  0  0  0  0  0
   -2.3966   23.5282  -31.4115 H   0  0  0  0  0  0  0  0  0  0  0  0
   -2.6337   21.9864  -30.4868 H   0  0  0  0  0  0  0  0  0  0  0  0
   -4.8024   23.0095  -30.7787 H   0  0  0  0  0  0  0  0  0  0  0  0
   -4.2966   23.2083  -29.0442 H   0  0  0  0  0  0  0  0  0  0  0  0
   -3.9960   25.4130  -29.2880 H   0  0  0  0  0  0  0  0  0  0  0  0
   -6.0431   26.0630  -29.7252 H   0  0  0  0  0  0  0  0  0  0  0  0
   -5.7370   25.7892  -31.4812 H   0  0  0  0  0  0  0  0  0  0  0  0
   -6.0097   23.2357  -30.1338 H   0  0  0  0  0  0  0  0  0  0  0  0
   -7.4244   24.3055  -29.7439 H   0  0  0  0  0  0  0  0  0  0  0  0
   -8.1477   24.3954  -31.9343 H   0  0  0  0  0  0  0  0  0  0  0  0
   -6.4997   24.0909  -32.6034 H   0  0  0  0  0  0  0  0  0  0  0  0
   -5.5259   21.7959  -32.5521 H   0  0  0  0  0  0  0  0  0  0  0  0
   -6.0513   19.3612  -32.7343 H   0  0  0  0  0  0  0  0  0  0  0  0
   -8.3509   18.5360  -32.2230 H   0  0  0  0  0  0  0  0  0  0  0  0
  -10.1302   20.1422  -31.5298 H   0  0  0  0  0  0  0  0  0  0  0  0
   -9.6148   22.5777  -31.3459 H   0  0  0  0  0  0  0  0  0  0  0  0
  1  2  1  0
  2  3  1  0
  3  4  1  0
  4  5  1  0
  5  6  1  0
  6  7  1  0
  7  8  1  0
  8  9  1  0
  9 10  1  0
 10 11  1  0
 11 12  1  0
 12 13  1  0
 13 14  1  0
 14 15  2  0
 15 16  1  0
 16 17  2  0
 17 18  1  0
 18 19  2  0
 19 14  1  0
  1 20  1  0
  1 21  1  0
  2 22  1  0
  2 23  1  0
  3 24  1  0
  3 25  1  0
  4 26  1  0
  4 27  1  0
  5 28  1  0
  5 29  1  0
  6 30  1  0
  7 31  1  0
  7 32  1  0
  8 33  1  0
  8 34  1  0
  9 35  1  0
  9 36  1  0
 10 37  1  0
 11 38  1  0
 11 39  1  0
 12 40  1  0
 12 41  1  0
 13 42  1  0
 13 43  1  0
 15 44  1  0
 16 45  1  0
 17 46  1  0
 18 47  1  0
 19 48  1  0
M  END
>  <UniqueID>  (38) 
38

>  <SMILES>  (38) 
NCCCCNCCCNCCCc1ccccc1

>  <Energy>  (38) 
32.680255532530936

>  <Genealogy>  (38) 
NCCCCNCCCNCCCc1ccccc1 (3D coordinates assigned)
NCCCCNCCCNCCCc1ccccc1 (optimized conformer: 32.680255532530936 kcal/mol)

>  <smiles>  (38) 
NCCCCNCCCNCCCc1ccccc1

>  <score_type>  (38) 
oracle

>  <origin>  (38) 
adg

>  <m_score__min__energy>  (38) 
-6.5899999999999999

>  <m_primary>  (38) 
energy

$$$$
38:0
     RDKit          3D

 45 48  0  0  0  0  0  0  0  0999 V2000
   -5.4040   25.2940  -30.1100 C   0  0  0  0  0  0  0  0  0  0  0  0
   -4.2270   24.7220  -30.6740 O   0  0  0  0  0  0  0  0  0  0  0  0
   -4.1480   23.4180  -31.1840 C   0  0  0  0  0  0  0  0  0  0  0  0
   -5.0320   23.0470  -32.2020 C   0  0  0  0  0  0  0  0  0  0  0  0
   -4.9950   21.7580  -32.7420 C   0  0  0  0  0  0  0  0  0  0  0  0
   -4.0760   20.8130  -32.2580 C   0  0  0  0  0  0  0  0  0  0  0  0
   -4.0200   19.4860  -32.8110 N   0  0  0  0  0  0  0  0  0  0  0  0
   -2.8780   18.9130  -33.1800 N   0  0  0  0  0  0  0  0  0  0  0  0
   -3.1950   17.7010  -33.6720 C   0  0  0  0  0  0  0  0  0  0  0  0
   -4.5350   17.4910  -33.6120 C   0  0  0  0  0  0  0  0  0  0  0  0
   -5.0610   18.6430  -33.0560 C   0  0  0  0  0  0  0  0  0  0  0  0
   -6.4710   18.8830  -32.6860 C   0  0  0  0  0  0  0  0  0  0  0  0
   -7.2350   19.8350  -33.3790 C   0  0  0  0  0  0  0  0  0  0  0  0
   -8.5640   20.0720  -33.0140 C   0  0  0  0  0  0  0  0  0  0  0  0
   -9.1360   19.3640  -31.9530 C   0  0  0  0  0  0  0  0  0  0  0  0
   -8.3780   18.4180  -31.2560 C   0  0  0  0  0  0  0  0  0  0  0  0
   -7.0510   18.1770  -31.6190 C   0  0  0  0  0  0  0  0  0  0  0  0
   -5.0670   16.2700  -34.0060 C   0  0  0  0  0  0  0  0  0  0  0  0
   -6.3020   16.0410  -33.8830 O   0  0  0  0  0  0  0  0  0  0  0  0
   -4.2140   15.3200  -34.5200 N   0  0  0  0  0  0  0  0  0  0  0  0
   -4.7440   14.0140  -34.9470 C   0  0  0  0  0  0  0  0  0  0  0  0
   -2.8500   15.5590  -34.5680 C   0  0  0  0  0  0  0  0  0  0  0  0
   -2.0730   14.6700  -35.0170 O   0  0  0  0  0  0  0  0  0  0  0  0
   -2.3280   16.7560  -34.1260 N   0  0  0  0  0  0  0  0  0  0  0  0
   -0.8860   17.0240  -34.1960 C   0  0  0  0  0  0  0  0  0  0  0  0
   -3.1750   21.1890  -31.2510 C   0  0  0  0  0  0  0  0  0  0  0  0
   -3.2120   22.4780  -30.7120 C   0  0  0  0  0  0  0  0  0  0  0  0
   -5.3377   25.2618  -29.0125 H   0  0  0  0  0  0  0  0  0  0  0  0
   -5.4989   26.3387  -30.4411 H   0  0  0  0  0  0  0  0  0  0  0  0
   -6.2840   24.7231  -30.4411 H   0  0  0  0  0  0  0  0  0  0  0  0
   -5.7632   23.7760  -32.5814 H   0  0  0  0  0  0  0  0  0  0  0  0
   -5.6890   21.4828  -33.5498 H   0  0  0  0  0  0  0  0  0  0  0  0
   -6.7868   20.3965  -34.2120 H   0  0  0  0  0  0  0  0  0  0  0  0
   -9.1600   20.8164  -33.5624 H   0  0  0  0  0  0  0  0  0  0  0  0
  -10.1815   19.5509  -31.6667 H   0  0  0  0  0  0  0  0  0  0  0  0
   -8.8278   17.8624  -30.4200 H   0  0  0  0  0  0  0  0  0  0  0  0
   -6.4583   17.4321  -31.0677 H   0  0  0  0  0  0  0  0  0  0  0  0
   -4.9890   13.4102  -34.0608 H   0  0  0  0  0  0  0  0  0  0  0  0
   -5.6516   14.1659  -35.5496 H   0  0  0  0  0  0  0  0  0  0  0  0
   -3.9872   13.4904  -35.5496 H   0  0  0  0  0  0  0  0  0  0  0  0
   -0.4773   17.1000  -33.1776 H   0  0  0  0  0  0  0  0  0  0  0  0
   -0.3861   16.2034  -34.7314 H   0  0  0  0  0  0  0  0  0  0  0  0
   -0.7143   17.9694  -34.7314 H   0  0  0  0  0  0  0  0  0  0  0  0
   -2.4340   20.4642  -30.8828 H   0  0  0  0  0  0  0  0  0  0  0  0
   -2.5070   22.7593  -29.9158 H   0  0  0  0  0  0  0  0  0  0  0  0
  1  2  1  0
  2  3  1  0
  3  4  2  0
  4  5  1  0
  5  6  2  0
  6  7  1  0
  7  8  1  0
  8  9  2  0
  9 10  1  0
 10 11  2  0
 11 12  1  0
 12 13  2  0
 13 14  1  0
 14 15  2  0
 15 16  1  0
 16 17  2  0
 10 18  1  0
 18 19  2  0
 18 20  1  0
 20 21  1  0
 20 22  1  0
 22 23  2  0
 22 24  1  0
 24 25  1  0
  6 26  1  0
 26 27  2  0
 27  3  1  0
 11  7  1  0
 17 12  1  0
 24  9  1  0
  1 28  1  0
  1 29  1  0
  1 30  1  0
  4 31  1  0
  5 32  1  0
 13 33  1  0
 14 34  1  0
 15 35  1  0
 16 36  1  0
 17 37  1  0
 21 38  1  0
 21 39  1  0
 21 40  1  0
 25 41  1  0
 25 42  1  0
 25 43  1  0
 26 44  1  0
 27 45  1  0
M  END
>  <UniqueID>  (39) 
39

>  <SMILES>  (39) 
COc1ccc(-n2nc3c(c2-c2ccccc2)c(=O)n(C)c(=O)n3C)cc1

>  <Energy>  (39) 
105.19191235819228

>  <Genealogy>  (39) 
COc1ccc(-n2nc3c(c2-c2ccccc2)c(=O)n(C)c(=O)n3C)cc1 (3D coordinates assigned)
COc1ccc(-n2nc3c(c2-c2ccccc2)c(=O)n(C)c(=O)n3C)cc1 (optimized conformer: 105.19191235819228 kcal/mol)

>  <smiles>  (39) 
COc1ccc(-n2nc3c(c2-c2ccccc2)c(=O)n(C)c(=O)n3C)cc1

>  <score_type>  (39) 
oracle

>  <origin>  (39) 
adg

>  <m_score__min__energy>  (39) 
-8.1999999999999993

>  <m_primary>  (39) 
energy

$$$$
39:0
     RDKit          3D

 60 61  0  0  0  0  0  0  0  0999 V2000
   -1.5140   20.5230  -26.6760 C   0  0  0  0  0  0  0  0  0  0  0  0
   -2.7800   20.3990  -27.5200 C   0  0  0  0  0  0  0  0  0  0  0  0
   -3.4060   21.7730  -27.8350 C   0  0  0  0  0  0  0  0  0  0  0  0
   -2.4510   22.9590  -27.6040 C   0  0  0  0  0  0  0  0  0  0  0  0
   -3.0860   24.3370  -27.8790 C   0  0  0  0  0  0  0  0  0  0  0  0
   -2.6860   24.9170  -29.2140 C   0  0  0  0  0  0  0  0  0  0  0  0
   -1.6130   25.5710  -29.3100 O   0  0  0  0  0  0  0  0  0  0  0  0
   -3.4870   24.7390  -30.3900 N   0  0  0  0  0  0  0  0  0  0  0  0
   -3.9940   23.4970  -30.8950 C   0  0  0  0  0  0  0  0  0  0  0  0
   -5.2990   23.3870  -31.4000 C   0  0  0  0  0  0  0  0  0  0  0  0
   -5.7560   22.1710  -31.9150 C   0  0  0  0  0  0  0  0  0  0  0  0
   -4.9100   21.0490  -31.9500 C   0  0  0  0  0  0  0  0  0  0  0  0
   -5.3800   19.7920  -32.4840 N   0  0  0  0  0  0  0  0  0  0  0  0
   -5.9300   19.7120  -33.8430 C   0  0  0  0  0  0  0  0  0  0  0  0
   -5.6120   18.3440  -34.4690 C   0  0  0  0  0  0  0  0  0  0  0  0
   -5.9190   17.1710  -33.5890 N   0  0  0  0  0  0  0  0  0  0  0  0
   -6.9200   16.2660  -34.2070 C   0  0  0  0  0  0  0  0  0  0  0  0
   -6.4680   14.8280  -34.2730 C   0  0  0  0  0  0  0  0  0  0  0  0
   -7.2830   13.9020  -34.5340 O   0  0  0  0  0  0  0  0  0  0  0  0
   -5.1150   14.5430  -34.0570 O   0  0  0  0  0  0  0  0  0  0  0  0
   -4.6470   13.6870  -33.0160 C   0  0  0  0  0  0  0  0  0  0  0  0
   -4.6620   14.4580  -31.6970 C   0  0  0  0  0  0  0  0  0  0  0  0
   -5.5330   12.4400  -32.9200 C   0  0  0  0  0  0  0  0  0  0  0  0
   -6.3780   17.5510  -32.2310 C   0  0  0  0  0  0  0  0  0  0  0  0
   -5.4640   18.6140  -31.6130 C   0  0  0  0  0  0  0  0  0  0  0  0
   -3.5920   21.1760  -31.4710 C   0  0  0  0  0  0  0  0  0  0  0  0
   -3.1390   22.3960  -30.9600 C   0  0  0  0  0  0  0  0  0  0  0  0
   -1.7806   20.4969  -25.6091 H   0  0  0  0  0  0  0  0  0  0  0  0
   -0.8370   19.6869  -26.9054 H   0  0  0  0  0  0  0  0  0  0  0  0
   -1.0122   21.4746  -26.9054 H   0  0  0  0  0  0  0  0  0  0  0  0
   -2.5272   19.8993  -28.4668 H   0  0  0  0  0  0  0  0  0  0  0  0
   -3.5145   19.8168  -26.9442 H   0  0  0  0  0  0  0  0  0  0  0  0
   -3.7171   21.7787  -28.8901 H   0  0  0  0  0  0  0  0  0  0  0  0
   -4.2529   21.9048  -27.1456 H   0  0  0  0  0  0  0  0  0  0  0  0
   -2.1164   22.9350  -26.5564 H   0  0  0  0  0  0  0  0  0  0  0  0
   -1.6206   22.8429  -28.3161 H   0  0  0  0  0  0  0  0  0  0  0  0
   -4.1805   24.2287  -27.8580 H   0  0  0  0  0  0  0  0  0  0  0  0
   -2.7255   25.0257  -27.1007 H   0  0  0  0  0  0  0  0  0  0  0  0
   -5.9652   24.2623  -31.3903 H   0  0  0  0  0  0  0  0  0  0  0  0
   -6.7850   22.0913  -32.2957 H   0  0  0  0  0  0  0  0  0  0  0  0
   -7.0209   19.8470  -33.8013 H   0  0  0  0  0  0  0  0  0  0  0  0
   -5.4754   20.5014  -34.4595 H   0  0  0  0  0  0  0  0  0  0  0  0
   -6.2008   18.2438  -35.3927 H   0  0  0  0  0  0  0  0  0  0  0  0
   -4.5265   18.3261  -34.6464 H   0  0  0  0  0  0  0  0  0  0  0  0
   -5.0360   16.6220  -33.4540 H   0  0  0  0  0  0  0  0  0  0  0  0
   -7.8457   16.3136  -33.6147 H   0  0  0  0  0  0  0  0  0  0  0  0
   -7.0705   16.6068  -35.2420 H   0  0  0  0  0  0  0  0  0  0  0  0
   -3.6198   13.3606  -33.2361 H   0  0  0  0  0  0  0  0  0  0  0  0
   -4.6482   13.7479  -30.8570 H   0  0  0  0  0  0  0  0  0  0  0  0
   -3.7763   15.1081  -31.6422 H   0  0  0  0  0  0  0  0  0  0  0  0
   -5.5723   15.0731  -31.6422 H   0  0  0  0  0  0  0  0  0  0  0  0
   -5.7073   12.1946  -31.8620 H   0  0  0  0  0  0  0  0  0  0  0  0
   -6.4959   12.6354  -33.4146 H   0  0  0  0  0  0  0  0  0  0  0  0
   -5.0316   11.5950  -33.4146 H   0  0  0  0  0  0  0  0  0  0  0  0
   -7.4003   17.9517  -32.2971 H   0  0  0  0  0  0  0  0  0  0  0  0
   -6.3520   16.6560  -31.5920 H   0  0  0  0  0  0  0  0  0  0  0  0
   -5.8690   18.9151  -30.6356 H   0  0  0  0  0  0  0  0  0  0  0  0
   -4.4565   18.1891  -31.4927 H   0  0  0  0  0  0  0  0  0  0  0  0
   -2.9145   20.3099  -31.4990 H   0  0  0  0  0  0  0  0  0  0  0  0
   -2.1014   22.4887  -30.6067 H   0  0  0  0  0  0  0  0  0  0  0  0
  1  2  1  0
  2  3  1  0
  3  4  1  0
  4  5  1  0
  5  6  1  0
  6  7  2  0
  6  8  1  0
  8  9  1  0
  9 10  2  0
 10 11  1  0
 11 12  2  0
 12 13  1  0
 13 14  1  0
 14 15  1  0
 15 16  1  0
 16 17  1  0
 17 18  1  0
 18 19  2  0
 18 20  1  0
 20 21  1  0
 21 22  1  0
 21 23  1  0
 16 24  1  0
 24 25  1  0
 12 26  1  0
 26 27  2  0
 27  9  1  0
 25 13  1  0
  1 28  1  0
  1 29  1  0
  1 30  1  0
  2 31  1  0
  2 32  1  0
  3 33  1  0
  3 34  1  0
  4 35  1  0
  4 36  1  0
  5 37  1  0
  5 38  1  0
 10 39  1  0
 11 40  1  0
 14 41  1  0
 14 42  1  0
 15 43  1  0
 15 44  1  0
 16 45  1  0
 17 46  1  0
 17 47  1  0
 21 48  1  0
 22 49  1  0
 22 50  1  0
 22 51  1  0
 23 52  1  0
 23 53  1  0
 23 54  1  0
 24 55  1  0
 24 56  1  0
 25 57  1  0
 25 58  1  0
 26 59  1  0
 27 60  1  0
M  CHG  2   8  -1  16   1
M  END
>  <UniqueID>  (40) 
40

>  <SMILES>  (40) 
CCCCCC(=O)[N-]c1ccc(N2CC[NH+](CC(=O)OC(C)C)CC2)cc1

>  <Energy>  (40) 
64.83659652859032

>  <Genealogy>  (40) 
CCCCCC(=O)[N-]c1ccc(N2CC[NH+](CC(=O)OC(C)C)CC2)cc1 (protonated)
CCCCCC(=O)[N-]c1ccc(N2CC[NH+](CC(=O)OC(C)C)CC2)cc1 (3D coordinates assigned)
CCCCCC(=O)[N-]c1ccc(N2CC[NH+](CC(=O)OC(C)C)CC2)cc1 (nonaromatic ring conformer: 64.83659652859032 kcal/mol)

>  <smiles>  (40) 
CCCCCC(=O)Nc1ccc(N2CCN(CC(=O)OC(C)C)CC2)cc1

>  <score_type>  (40) 
oracle

>  <origin>  (40) 
adg

>  <m_score__min__energy>  (40) 
-8.2899999999999991

>  <m_primary>  (40) 
energy

$$$$
40:0
     RDKit          3D

 45 47  0  0  0  0  0  0  0  0999 V2000
   -9.7330   20.6230  -32.3470 C   0  0  0  0  0  0  0  0  0  0  0  0
   -8.4320   21.2930  -31.9970 C   0  0  0  0  0  0  0  0  0  0  0  0
   -8.4410   22.6270  -31.5540 C   0  0  0  0  0  0  0  0  0  0  0  0
   -7.2480   23.2740  -31.2300 C   0  0  0  0  0  0  0  0  0  0  0  0
   -6.0250   22.6070  -31.3580 C   0  0  0  0  0  0  0  0  0  0  0  0
   -4.5140   23.4420  -30.9880 S   0  0  0  0  0  0  0  0  0  0  0  0
   -3.4400   22.9630  -31.9260 O   0  0  0  0  0  0  0  0  0  0  0  0
   -4.6970   24.9180  -31.2100 O   0  0  0  0  0  0  0  0  0  0  0  0
   -4.0110   23.1620  -29.3370 N   0  0  0  0  0  0  0  0  0  0  0  0
   -2.5360   23.0420  -29.2270 C   0  0  0  0  0  0  0  0  0  0  0  0
   -1.8720   24.3060  -28.6610 C   0  0  0  0  0  0  0  0  0  0  0  0
   -2.4270   24.6470  -27.2670 C   0  0  0  0  0  0  0  0  0  0  0  0
   -3.8940   24.2200  -27.0890 C   0  0  0  0  0  0  0  0  0  0  0  0
   -4.6200   24.1650  -28.4370 C   0  0  0  0  0  0  0  0  0  0  0  0
   -6.0060   21.2780  -31.8000 C   0  0  0  0  0  0  0  0  0  0  0  0
   -7.2010   20.6090  -32.1190 C   0  0  0  0  0  0  0  0  0  0  0  0
   -7.1600   19.2590  -32.6190 N   0  0  0  0  0  0  0  0  0  0  0  0
   -6.3700   18.2200  -32.0180 C   0  0  0  0  0  0  0  0  0  0  0  0
   -5.8630   18.3940  -30.8760 O   0  0  0  0  0  0  0  0  0  0  0  0
   -6.1730   16.9300  -32.7160 C   0  0  0  0  0  0  0  0  0  0  0  0
   -5.1100   16.0750  -32.3850 C   0  0  0  0  0  0  0  0  0  0  0  0
   -4.9610   14.9010  -33.0530 N   0  0  0  0  0  0  0  0  0  0  0  0
   -5.8210   14.5360  -34.0400 C   0  0  0  0  0  0  0  0  0  0  0  0
   -6.8780   15.3820  -34.3740 C   0  0  0  0  0  0  0  0  0  0  0  0
   -7.0290   16.5570  -33.7070 N   0  0  0  0  0  0  0  0  0  0  0  0
  -10.2645   20.3493  -31.4236 H   0  0  0  0  0  0  0  0  0  0  0  0
  -10.3540   21.3134  -32.9366 H   0  0  0  0  0  0  0  0  0  0  0  0
   -9.5316   19.7165  -32.9366 H   0  0  0  0  0  0  0  0  0  0  0  0
   -9.3960   23.1650  -31.4620 H   0  0  0  0  0  0  0  0  0  0  0  0
   -7.2693   24.3139  -30.8721 H   0  0  0  0  0  0  0  0  0  0  0  0
   -2.3015   22.1960  -28.5642 H   0  0  0  0  0  0  0  0  0  0  0  0
   -2.1415   22.8894  -30.2424 H   0  0  0  0  0  0  0  0  0  0  0  0
   -0.7875   24.1386  -28.5847 H   0  0  0  0  0  0  0  0  0  0  0  0
   -2.0871   25.1462  -29.3376 H   0  0  0  0  0  0  0  0  0  0  0  0
   -1.8168   24.1323  -26.5102 H   0  0  0  0  0  0  0  0  0  0  0  0
   -2.3837   25.7401  -27.1515 H   0  0  0  0  0  0  0  0  0  0  0  0
   -3.9242   23.2237  -26.6238 H   0  0  0  0  0  0  0  0  0  0  0  0
   -4.3983   24.9603  -26.4506 H   0  0  0  0  0  0  0  0  0  0  0  0
   -5.6736   23.8992  -28.2656 H   0  0  0  0  0  0  0  0  0  0  0  0
   -4.5394   25.1528  -28.9143 H   0  0  0  0  0  0  0  0  0  0  0  0
   -5.0452   20.7516  -31.8987 H   0  0  0  0  0  0  0  0  0  0  0  0
   -7.7770   19.0120  -33.4250 H   0  0  0  0  0  0  0  0  0  0  0  0
   -4.4024   16.3535  -31.5902 H   0  0  0  0  0  0  0  0  0  0  0  0
   -5.6845   13.5821  -34.5705 H   0  0  0  0  0  0  0  0  0  0  0  0
   -7.5833   15.1012  -35.1700 H   0  0  0  0  0  0  0  0  0  0  0  0
  1  2  1  0
  2  3  2  0
  3  4  1  0
  4  5  2  0
  5  6  1  0
  6  7  2  0
  6  8  2  0
  6  9  1  0
  9 10  1  0
 10 11  1  0
 11 12  1  0
 12 13  1  0
 13 14  1  0
  5 15  1  0
 15 16  2  0
 16 17  1  0
 17 18  1  0
 18 19  2  0
 18 20  1  0
 20 21  2  0
 21 22  1  0
 22 23  2  0
 23 24  1  0
 24 25  2  0
 16  2  1  0
 25 20  1  0
 14  9  1  0
  1 26  1  0
  1 27  1  0
  1 28  1  0
  3 29  1  0
  4 30  1  0
 10 31  1  0
 10 32  1  0
 11 33  1  0
 11 34  1  0
 12 35  1  0
 12 36  1  0
 13 37  1  0
 13 38  1  0
 14 39  1  0
 14 40  1  0
 15 41  1  0
 17 42  1  0
 21 43  1  0
 23 44  1  0
 24 45  1  0
M  END
>  <UniqueID>  (41) 
41

>  <SMILES>  (41) 
Cc1ccc(S(=O)(=O)N2CCCCC2)cc1NC(=O)c1cnccn1

>  <Energy>  (41) 
56.73785531247038

>  <Genealogy>  (41) 
Cc1ccc(S(=O)(=O)N2CCCCC2)cc1NC(=O)c1cnccn1 (3D coordinates assigned)
Cc1ccc(S(=O)(=O)N2CCCCC2)cc1NC(=O)c1cnccn1 (nonaromatic ring conformer: 56.73785531247038 kcal/mol)

>  <smiles>  (41) 
Cc1ccc(S(=O)(=O)N2CCCCC2)cc1NC(=O)c1cnccn1

>  <score_type>  (41) 
oracle

>  <origin>  (41) 
adg

>  <m_score__min__energy>  (41) 
-9.0199999999999996

>  <m_primary>  (41) 
energy

$$$$
41:0
     RDKit          3D

 62 65  0  0  0  0  0  0  0  0999 V2000
   -3.0410   19.2960  -26.6940 C   0  0  0  0  0  0  0  0  0  0  0  0
   -2.6690   20.2480  -27.8280 C   0  0  0  0  0  0  0  0  0  0  0  0
   -1.5110   19.7310  -28.5880 N   0  0  0  0  0  0  0  0  0  0  0  0
   -0.3320   19.4740  -27.7260 C   0  0  0  0  0  0  0  0  0  0  0  0
    0.2250   18.0470  -27.8490 C   0  0  0  0  0  0  0  0  0  0  0  0
   -1.1820   20.5420  -29.7850 C   0  0  0  0  0  0  0  0  0  0  0  0
   -2.4560   20.7760  -30.6050 C   0  0  0  0  0  0  0  0  0  0  0  0
   -2.6330   22.2410  -31.0320 C   0  0  0  0  0  0  0  0  0  0  0  0
   -3.1860   23.0730  -29.9540 N   0  0  0  0  0  0  0  0  0  0  0  0
   -4.4540   23.5560  -29.8120 C   0  0  0  0  0  0  0  0  0  0  0  0
   -5.5730   23.3660  -30.8030 C   0  0  0  0  0  0  0  0  0  0  0  0
   -6.8090   22.7140  -30.1640 C   0  0  0  0  0  0  0  0  0  0  0  0
   -7.4670   21.7090  -31.0760 C   0  0  0  0  0  0  0  0  0  0  0  0
   -6.6840   20.8190  -31.8300 C   0  0  0  0  0  0  0  0  0  0  0  0
   -7.2960   19.8650  -32.6510 C   0  0  0  0  0  0  0  0  0  0  0  0
   -8.6910   19.7930  -32.7220 C   0  0  0  0  0  0  0  0  0  0  0  0
   -9.4760   20.6730  -31.9710 C   0  0  0  0  0  0  0  0  0  0  0  0
   -8.8690   21.6280  -31.1500 C   0  0  0  0  0  0  0  0  0  0  0  0
   -4.6220   24.2980  -28.6860 N   0  0  0  0  0  0  0  0  0  0  0  0
   -3.4040   24.2790  -28.1190 C   0  0  0  0  0  0  0  0  0  0  0  0
   -3.0120   24.9170  -26.9460 C   0  0  0  0  0  0  0  0  0  0  0  0
   -1.6630   24.7960  -26.5360 C   0  0  0  0  0  0  0  0  0  0  0  0
   -1.2080   25.4400  -25.3280 N   0  0  0  0  0  0  0  0  0  0  0  0
   -1.5940   26.6420  -24.8450 C   0  0  0  0  0  0  0  0  0  0  0  0
   -0.9190   26.8760  -23.6660 C   0  0  0  0  0  0  0  0  0  0  0  0
   -0.1150   25.8260  -23.4190 N   0  0  0  0  0  0  0  0  0  0  0  0
   -0.3080   24.9690  -24.4380 C   0  0  0  0  0  0  0  0  0  0  0  0
   -0.7630   24.0360  -27.3320 C   0  0  0  0  0  0  0  0  0  0  0  0
   -1.1950   23.4080  -28.5120 C   0  0  0  0  0  0  0  0  0  0  0  0
   -2.5360   23.5510  -28.8750 C   0  0  0  0  0  0  0  0  0  0  0  0
   -2.8500   19.7849  -25.7273 H   0  0  0  0  0  0  0  0  0  0  0  0
   -4.1071   19.0355  -26.7688 H   0  0  0  0  0  0  0  0  0  0  0  0
   -2.4340   18.3817  -26.7688 H   0  0  0  0  0  0  0  0  0  0  0  0
   -3.5280   20.3535  -28.5069 H   0  0  0  0  0  0  0  0  0  0  0  0
   -2.4006   21.2234  -27.3962 H   0  0  0  0  0  0  0  0  0  0  0  0
    0.4625   20.1819  -28.0045 H   0  0  0  0  0  0  0  0  0  0  0  0
   -0.6620   19.6012  -26.6844 H   0  0  0  0  0  0  0  0  0  0  0  0
    0.3881   17.6292  -26.8446 H   0  0  0  0  0  0  0  0  0  0  0  0
   -0.4939   17.4186  -28.3952 H   0  0  0  0  0  0  0  0  0  0  0  0
    1.1795   18.0718  -28.3952 H   0  0  0  0  0  0  0  0  0  0  0  0
   -0.7651   21.5099  -29.4697 H   0  0  0  0  0  0  0  0  0  0  0  0
   -0.4416   20.0085  -30.3991 H   0  0  0  0  0  0  0  0  0  0  0  0
   -2.4114   20.1502  -31.5086 H   0  0  0  0  0  0  0  0  0  0  0  0
   -3.3120   20.5133  -29.9661 H   0  0  0  0  0  0  0  0  0  0  0  0
   -1.6525   22.6455  -31.3235 H   0  0  0  0  0  0  0  0  0  0  0  0
   -3.3426   22.2634  -31.8722 H   0  0  0  0  0  0  0  0  0  0  0  0
   -5.8594   24.3483  -31.2067 H   0  0  0  0  0  0  0  0  0  0  0  0
   -5.2108   22.6971  -31.5976 H   0  0  0  0  0  0  0  0  0  0  0  0
   -6.5006   22.2032  -29.2399 H   0  0  0  0  0  0  0  0  0  0  0  0
   -7.5400   23.5104  -29.9606 H   0  0  0  0  0  0  0  0  0  0  0  0
   -5.5867   20.8721  -31.7749 H   0  0  0  0  0  0  0  0  0  0  0  0
   -6.6793   19.1711  -33.2410 H   0  0  0  0  0  0  0  0  0  0  0  0
   -9.1707   19.0437  -33.3689 H   0  0  0  0  0  0  0  0  0  0  0  0
  -10.5730   20.6139  -32.0262 H   0  0  0  0  0  0  0  0  0  0  0  0
   -9.4900   22.3182  -30.5601 H   0  0  0  0  0  0  0  0  0  0  0  0
   -3.7319   25.5001  -26.3530 H   0  0  0  0  0  0  0  0  0  0  0  0
   -2.3235   27.3190  -25.3135 H   0  0  0  0  0  0  0  0  0  0  0  0
   -1.0206   27.7704  -23.0338 H   0  0  0  0  0  0  0  0  0  0  0  0
    0.5280   25.7030  -22.6050 H   0  0  0  0  0  0  0  0  0  0  0  0
    0.2055   24.0010  -24.5346 H   0  0  0  0  0  0  0  0  0  0  0  0
    0.2871   23.9383  -27.0193 H   0  0  0  0  0  0  0  0  0  0  0  0
   -0.4991   22.8222  -29.1305 H   0  0  0  0  0  0  0  0  0  0  0  0
  1  2  1  0
  2  3  1  0
  3  4  1  0
  4  5  1  0
  3  6  1  0
  6  7  1  0
  7  8  1  0
  8  9  1  0
  9 10  1  0
 10 11  1  0
 11 12  1  0
 12 13  1  0
 13 14  2  0
 14 15  1  0
 15 16  2  0
 16 17  1  0
 17 18  2  0
 10 19  2  0
 19 20  1  0
 20 21  2  0
 21 22  1  0
 22 23  1  0
 23 24  1  0
 24 25  2  0
 25 26  1  0
 26 27  2  0
 22 28  2  0
 28 29  1  0
 29 30  2  0
 30  9  1  0
 18 13  1  0
 30 20  1  0
 27 23  1  0
  1 31  1  0
  1 32  1  0
  1 33  1  0
  2 34  1  0
  2 35  1  0
  4 36  1  0
  4 37  1  0
  5 38  1  0
  5 39  1  0
  5 40  1  0
  6 41  1  0
  6 42  1  0
  7 43  1  0
  7 44  1  0
  8 45  1  0
  8 46  1  0
 11 47  1  0
 11 48  1  0
 12 49  1  0
 12 50  1  0
 14 51  1  0
 15 52  1  0
 16 53  1  0
 17 54  1  0
 18 55  1  0
 21 56  1  0
 24 57  1  0
 25 58  1  0
 26 59  1  0
 27 60  1  0
 28 61  1  0
 29 62  1  0
M  CHG  1  26   1
M  END
>  <UniqueID>  (42) 
42

>  <SMILES>  (42) 
CCN(CC)CCCn1c(CCc2ccccc2)nc2cc(-n3cc[nH+]c3)ccc21

>  <Energy>  (42) 
128.47214904077623

>  <Genealogy>  (42) 
CCN(CC)CCCn1c(CCc2ccccc2)nc2cc(-n3cc[nH+]c3)ccc21 (protonated)
CCN(CC)CCCn1c(CCc2ccccc2)nc2cc(-n3cc[nH+]c3)ccc21 (3D coordinates assigned)
CCN(CC)CCCn1c(CCc2ccccc2)nc2cc(-n3cc[nH+]c3)ccc21 (optimized conformer: 128.47214904077623 kcal/mol)

>  <smiles>  (42) 
CCN(CC)CCCn1c(CCc2ccccc2)nc2cc(-n3ccnc3)ccc21

>  <score_type>  (42) 
oracle

>  <origin>  (42) 
adg

>  <m_score__min__energy>  (42) 
-8.5099999999999998

>  <m_primary>  (42) 
energy

$$$$
42:0
     RDKit          3D

 42 44  0  0  0  0  0  0  0  0999 V2000
   -8.8560   18.9580  -31.9770 C   0  0  0  0  0  0  0  0  0  0  0  0
   -8.4710   20.4080  -31.9990 C   0  0  0  0  0  0  0  0  0  0  0  0
   -9.4580   21.4010  -31.9770 C   0  0  0  0  0  0  0  0  0  0  0  0
   -9.0980   22.7500  -31.9590 C   0  0  0  0  0  0  0  0  0  0  0  0
   -7.7510   23.1180  -31.9550 C   0  0  0  0  0  0  0  0  0  0  0  0
   -6.7430   22.1330  -31.9650 C   0  0  0  0  0  0  0  0  0  0  0  0
   -5.3400   22.4720  -31.9560 N   0  0  0  0  0  0  0  0  0  0  0  0
   -4.2460   21.4950  -31.8360 C   0  0  1  0  0  0  0  0  0  0  0  0
   -3.1660   21.7570  -32.9040 C   0  0  0  0  0  0  0  0  0  0  0  0
   -1.8320   21.1660  -32.4730 C   0  0  0  0  0  0  0  0  0  0  0  0
   -1.3240   21.9140  -31.2400 C   0  0  0  0  0  0  0  0  0  0  0  0
   -2.3690   22.1230  -30.2110 N   0  0  0  0  0  0  0  0  0  0  0  0
   -2.4050   23.4670  -29.6000 C   0  0  0  0  0  0  0  0  0  0  0  0
   -3.7200   24.1640  -29.7910 C   0  0  0  0  0  0  0  0  0  0  0  0
   -4.8050   24.1080  -28.9400 C   0  0  0  0  0  0  0  0  0  0  0  0
   -5.7830   24.8750  -29.5340 C   0  0  0  0  0  0  0  0  0  0  0  0
   -5.2380   25.3480  -30.7100 C   0  0  0  0  0  0  0  0  0  0  0  0
   -4.0060   24.9100  -30.8330 O   0  0  0  0  0  0  0  0  0  0  0  0
   -3.6790   21.4540  -30.3860 C   0  0  0  0  0  0  0  0  0  0  0  0
   -7.1170   20.7790  -31.9740 C   0  0  0  0  0  0  0  0  0  0  0  0
   -8.9462   18.6184  -30.9346 H   0  0  0  0  0  0  0  0  0  0  0  0
   -9.8201   18.8268  -32.4901 H   0  0  0  0  0  0  0  0  0  0  0  0
   -8.0840   18.3658  -32.4901 H   0  0  0  0  0  0  0  0  0  0  0  0
  -10.5208   21.1173  -31.9739 H   0  0  0  0  0  0  0  0  0  0  0  0
   -9.8781   23.5254  -31.9479 H   0  0  0  0  0  0  0  0  0  0  0  0
   -7.4750   24.1828  -31.9440 H   0  0  0  0  0  0  0  0  0  0  0  0
   -5.0940   23.4780  -32.1010 H   0  0  0  0  0  0  0  0  0  0  0  0
   -4.6463   20.4891  -32.0310 H   0  0  0  0  0  0  0  0  0  0  0  0
   -3.4763   21.2951  -33.8528 H   0  0  0  0  0  0  0  0  0  0  0  0
   -3.0483   22.8434  -33.0302 H   0  0  0  0  0  0  0  0  0  0  0  0
   -1.9631   20.1014  -32.2291 H   0  0  0  0  0  0  0  0  0  0  0  0
   -1.1031   21.2650  -33.2909 H   0  0  0  0  0  0  0  0  0  0  0  0
   -0.5040   21.3333  -30.7923 H   0  0  0  0  0  0  0  0  0  0  0  0
   -0.9924   22.9079  -31.5749 H   0  0  0  0  0  0  0  0  0  0  0  0
   -2.2152   23.3666  -28.5212 H   0  0  0  0  0  0  0  0  0  0  0  0
   -1.6355   24.0751  -30.0981 H   0  0  0  0  0  0  0  0  0  0  0  0
   -4.8744   23.5643  -27.9863 H   0  0  0  0  0  0  0  0  0  0  0  0
   -6.7945   25.0709  -29.1485 H   0  0  0  0  0  0  0  0  0  0  0  0
   -5.7564   25.9936  -31.4342 H   0  0  0  0  0  0  0  0  0  0  0  0
   -3.5666   20.3999  -30.0924 H   0  0  0  0  0  0  0  0  0  0  0  0
   -4.3943   22.0060  -29.7586 H   0  0  0  0  0  0  0  0  0  0  0  0
   -6.3401   20.0003  -31.9613 H   0  0  0  0  0  0  0  0  0  0  0  0
  1  2  1  0
  2  3  2  0
  3  4  1  0
  4  5  2  0
  5  6  1  0
  6  7  1  0
  7  8  1  0
  8  9  1  0
  9 10  1  0
 10 11  1  0
 11 12  1  0
 12 13  1  0
 13 14  1  0
 14 15  2  0
 15 16  1  0
 16 17  2  0
 17 18  1  0
 12 19  1  0
  6 20  2  0
 20  2  1  0
 19  8  1  0
 18 14  1  0
  1 21  1  0
  1 22  1  0
  1 23  1  0
  3 24  1  0
  4 25  1  0
  5 26  1  0
  7 27  1  0
  8 28  1  6
  9 29  1  0
  9 30  1  0
 10 31  1  0
 10 32  1  0
 11 33  1  0
 11 34  1  0
 13 35  1  0
 13 36  1  0
 15 37  1  0
 16 38  1  0
 17 39  1  0
 19 40  1  0
 19 41  1  0
 20 42  1  0
M  END
>  <UniqueID>  (43) 
43

>  <SMILES>  (43) 
Cc1cccc(N[C@H]2CCCN(Cc3ccco3)C2)c1

>  <Energy>  (43) 
80.1746993394709

>  <Genealogy>  (43) 
Cc1cccc(N[C@H]2CCCN(Cc3ccco3)C2)c1 (chirality)
Cc1cccc(N[C@H]2CCCN(Cc3ccco3)C2)c1 (3D coordinates assigned)
Cc1cccc(N[C@H]2CCCN(Cc3ccco3)C2)c1 (nonaromatic ring conformer: 80.1746993394709 kcal/mol)

>  <smiles>  (43) 
Cc1cccc(NC2CCCN(Cc3ccco3)C2)c1

>  <score_type>  (43) 
oracle

>  <origin>  (43) 
adg

>  <m_score__min__energy>  (43) 
-7.8499999999999996

>  <m_primary>  (43) 
energy

$$$$
43:0
     RDKit          3D

 36 38  0  0  0  0  0  0  0  0999 V2000
   -0.0860   23.1850  -25.0120 C   0  0  0  0  0  0  0  0  0  0  0  0
    0.0620   22.9750  -26.4110 O   0  0  0  0  0  0  0  0  0  0  0  0
   -0.8520   23.4170  -27.3790 C   0  0  0  0  0  0  0  0  0  0  0  0
   -0.6420   24.6670  -27.9710 C   0  0  0  0  0  0  0  0  0  0  0  0
   -1.5210   25.1490  -28.9440 C   0  0  0  0  0  0  0  0  0  0  0  0
   -2.6270   24.3880  -29.3410 C   0  0  0  0  0  0  0  0  0  0  0  0
   -3.4940   24.9150  -30.3540 N   0  0  0  0  0  0  0  0  0  0  0  0
   -5.2180   25.0410  -30.2310 S   0  0  0  0  0  0  0  0  0  0  0  0
   -5.6100   25.0910  -28.7810 O   0  0  0  0  0  0  0  0  0  0  0  0
   -5.6680   26.3060  -30.9080 O   0  0  0  0  0  0  0  0  0  0  0  0
   -5.9790   23.6720  -31.0190 C   0  0  0  0  0  0  0  0  0  0  0  0
   -7.3210   23.5710  -31.3490 C   0  0  0  0  0  0  0  0  0  0  0  0
   -7.6480   22.3510  -31.9540 C   0  0  0  0  0  0  0  0  0  0  0  0
   -6.5560   21.4930  -32.1010 C   0  0  0  0  0  0  0  0  0  0  0  0
   -6.5580   20.1290  -32.6690 C   0  0  0  0  0  0  0  0  0  0  0  0
   -7.3040   19.0860  -32.0950 C   0  0  0  0  0  0  0  0  0  0  0  0
   -7.2610   17.8130  -32.6680 C   0  0  0  0  0  0  0  0  0  0  0  0
   -6.4790   17.5860  -33.8020 C   0  0  0  0  0  0  0  0  0  0  0  0
   -5.7530   18.6430  -34.3510 C   0  0  0  0  0  0  0  0  0  0  0  0
   -5.8080   19.8760  -33.7800 N   0  0  0  0  0  0  0  0  0  0  0  0
   -5.1930   22.2590  -31.4700 S   0  0  0  0  0  0  0  0  0  0  0  0
   -2.8460   23.1340  -28.7450 C   0  0  0  0  0  0  0  0  0  0  0  0
   -1.9650   22.6510  -27.7730 C   0  0  0  0  0  0  0  0  0  0  0  0
    0.4635   22.4054  -24.4640 H   0  0  0  0  0  0  0  0  0  0  0  0
    0.3162   24.1734  -24.7450 H   0  0  0  0  0  0  0  0  0  0  0  0
   -1.1521   23.1386  -24.7450 H   0  0  0  0  0  0  0  0  0  0  0  0
    0.2227   25.2756  -27.6678 H   0  0  0  0  0  0  0  0  0  0  0  0
   -1.3428   26.1334  -29.4014 H   0  0  0  0  0  0  0  0  0  0  0  0
   -8.0545   24.3676  -31.1556 H   0  0  0  0  0  0  0  0  0  0  0  0
   -8.6661   22.0936  -32.2816 H   0  0  0  0  0  0  0  0  0  0  0  0
   -7.9175   19.2706  -31.2008 H   0  0  0  0  0  0  0  0  0  0  0  0
   -7.8425   16.9903  -32.2264 H   0  0  0  0  0  0  0  0  0  0  0  0
   -6.4359   16.5855  -34.2571 H   0  0  0  0  0  0  0  0  0  0  0  0
   -5.1355   18.4791  -35.2465 H   0  0  0  0  0  0  0  0  0  0  0  0
   -3.7149   22.5297  -29.0449 H   0  0  0  0  0  0  0  0  0  0  0  0
   -2.1426   21.6673  -27.3138 H   0  0  0  0  0  0  0  0  0  0  0  0
  1  2  1  0
  2  3  1  0
  3  4  2  0
  4  5  1  0
  5  6  2  0
  6  7  1  0
  7  8  1  0
  8  9  2  0
  8 10  2  0
  8 11  1  0
 11 12  2  0
 12 13  1  0
 13 14  2  0
 14 15  1  0
 15 16  2  0
 16 17  1  0
 17 18  2  0
 18 19  1  0
 19 20  2  0
 14 21  1  0
  6 22  1  0
 22 23  2  0
 23  3  1  0
 21 11  1  0
 20 15  1  0
  1 24  1  0
  1 25  1  0
  1 26  1  0
  4 27  1  0
  5 28  1  0
 12 29  1  0
 13 30  1  0
 16 31  1  0
 17 32  1  0
 18 33  1  0
 19 34  1  0
 22 35  1  0
 23 36  1  0
M  CHG  1   7  -1
M  END
>  <UniqueID>  (44) 
44

>  <SMILES>  (44) 
COc1ccc([N-]S(=O)(=O)c2ccc(-c3ccccn3)s2)cc1

>  <Energy>  (44) 
68.90537932211332

>  <Genealogy>  (44) 
COc1ccc([N-]S(=O)(=O)c2ccc(-c3ccccn3)s2)cc1 (protonated)
COc1ccc([N-]S(=O)(=O)c2ccc(-c3ccccn3)s2)cc1 (3D coordinates assigned)
COc1ccc([N-]S(=O)(=O)c2ccc(-c3ccccn3)s2)cc1 (optimized conformer: 68.90537932211332 kcal/mol)

>  <smiles>  (44) 
COc1ccc(NS(=O)(=O)c2ccc(-c3ccccn3)s2)cc1

>  <score_type>  (44) 
oracle

>  <origin>  (44) 
adg

>  <m_score__min__energy>  (44) 
-9.4199999999999999

>  <m_primary>  (44) 
energy

$$$$
44:0
     RDKit          3D

 53 55  0  0  0  0  0  0  0  0999 V2000
   -2.1780   21.0600  -27.4620 C   0  0  0  0  0  0  0  0  0  0  0  0
   -1.2140   22.2200  -27.2180 C   0  0  0  0  0  0  0  0  0  0  0  0
   -1.8680   23.5920  -27.4280 C   0  0  0  0  0  0  0  0  0  0  0  0
   -2.4660   23.8260  -29.1030 S   0  0  0  0  0  0  0  0  0  0  0  0
   -1.4690   23.2900  -30.0920 O   0  0  0  0  0  0  0  0  0  0  0  0
   -2.6580   25.2980  -29.3450 O   0  0  0  0  0  0  0  0  0  0  0  0
   -3.9940   22.9960  -29.2940 N   0  0  0  0  0  0  0  0  0  0  0  0
   -3.9190   21.9790  -30.3750 C   0  0  0  0  0  0  0  0  0  0  0  0
   -4.7770   22.3300  -31.6000 C   0  0  0  0  0  0  0  0  0  0  0  0
   -6.2790   22.5000  -31.2130 C   0  0  0  0  0  0  0  0  0  0  0  0
   -6.9770   23.2750  -32.3610 C   0  0  0  0  0  0  0  0  0  0  0  0
   -8.5050   23.3770  -32.1960 C   0  0  0  0  0  0  0  0  0  0  0  0
   -9.0860   22.2960  -31.2710 C   0  0  0  0  0  0  0  0  0  0  0  0
   -8.3860   21.0080  -31.4090 N   0  0  0  0  0  0  0  0  0  0  0  0
   -8.6470   20.3630  -32.7160 C   0  0  0  0  0  0  0  0  0  0  0  0
   -7.5750   19.3500  -33.0180 C   0  0  0  0  0  0  0  0  0  0  0  0
   -7.6200   18.0820  -32.4210 C   0  0  0  0  0  0  0  0  0  0  0  0
   -6.6130   17.1550  -32.6980 C   0  0  0  0  0  0  0  0  0  0  0  0
   -5.5960   17.4830  -33.5390 N   0  0  0  0  0  0  0  0  0  0  0  0
   -5.5260   18.7050  -34.1290 C   0  0  0  0  0  0  0  0  0  0  0  0
   -6.5130   19.6620  -33.8790 C   0  0  0  0  0  0  0  0  0  0  0  0
   -6.9390   21.0760  -31.0690 C   0  0  0  0  0  0  0  0  0  0  0  0
   -6.3900   23.3080  -29.8670 C   0  0  0  0  0  0  0  0  0  0  0  0
   -5.0740   23.9880  -29.4660 C   0  0  0  0  0  0  0  0  0  0  0  0
   -2.5152   20.6542  -26.4968 H   0  0  0  0  0  0  0  0  0  0  0  0
   -3.0472   21.4193  -28.0324 H   0  0  0  0  0  0  0  0  0  0  0  0
   -1.6657   20.2713  -28.0324 H   0  0  0  0  0  0  0  0  0  0  0  0
   -0.8475   22.1603  -26.1826 H   0  0  0  0  0  0  0  0  0  0  0  0
   -0.3953   22.1287  -27.9470 H   0  0  0  0  0  0  0  0  0  0  0  0
   -2.7170   23.6867  -26.7350 H   0  0  0  0  0  0  0  0  0  0  0  0
   -1.1010   24.3576  -27.2395 H   0  0  0  0  0  0  0  0  0  0  0  0
   -2.8711   21.8884  -30.6971 H   0  0  0  0  0  0  0  0  0  0  0  0
   -4.3090   21.0365  -29.9633 H   0  0  0  0  0  0  0  0  0  0  0  0
   -4.4109   23.2714  -32.0356 H   0  0  0  0  0  0  0  0  0  0  0  0
   -4.6974   21.5072  -32.3257 H   0  0  0  0  0  0  0  0  0  0  0  0
   -6.5622   24.2932  -32.3957 H   0  0  0  0  0  0  0  0  0  0  0  0
   -6.7894   22.7150  -33.2890 H   0  0  0  0  0  0  0  0  0  0  0  0
   -8.7464   24.3642  -31.7752 H   0  0  0  0  0  0  0  0  0  0  0  0
   -8.9522   23.2321  -33.1905 H   0  0  0  0  0  0  0  0  0  0  0  0
   -8.9974   22.6370  -30.2290 H   0  0  0  0  0  0  0  0  0  0  0  0
  -10.1374   22.1399  -31.5543 H   0  0  0  0  0  0  0  0  0  0  0  0
   -9.6244   19.8594  -32.6841 H   0  0  0  0  0  0  0  0  0  0  0  0
   -8.6467   21.1319  -33.5026 H   0  0  0  0  0  0  0  0  0  0  0  0
   -8.4425   17.8194  -31.7395 H   0  0  0  0  0  0  0  0  0  0  0  0
   -6.6425   16.1576  -32.2350 H   0  0  0  0  0  0  0  0  0  0  0  0
   -4.6908   18.9413  -34.8047 H   0  0  0  0  0  0  0  0  0  0  0  0
   -6.4574   20.6526  -34.3540 H   0  0  0  0  0  0  0  0  0  0  0  0
   -6.8196   20.7502  -30.0252 H   0  0  0  0  0  0  0  0  0  0  0  0
   -6.4255   20.4282  -31.7947 H   0  0  0  0  0  0  0  0  0  0  0  0
   -7.1627   24.0819  -29.9854 H   0  0  0  0  0  0  0  0  0  0  0  0
   -6.6454   22.5911  -29.0728 H   0  0  0  0  0  0  0  0  0  0  0  0
   -4.7845   24.7017  -30.2514 H   0  0  0  0  0  0  0  0  0  0  0  0
   -5.2268   24.5077  -28.5086 H   0  0  0  0  0  0  0  0  0  0  0  0
  1  2  1  0
  2  3  1  0
  3  4  1  0
  4  5  2  0
  4  6  2  0
  4  7  1  0
  7  8  1  0
  8  9  1  0
  9 10  1  0
 10 11  1  0
 11 12  1  0
 12 13  1  0
 13 14  1  0
 14 15  1  0
 15 16  1  0
 16 17  2  0
 17 18  1  0
 18 19  2  0
 19 20  1  0
 20 21  2  0
 14 22  1  0
 10 23  1  0
 23 24  1  0
 24  7  1  0
 22 10  1  0
 21 16  1  0
  1 25  1  0
  1 26  1  0
  1 27  1  0
  2 28  1  0
  2 29  1  0
  3 30  1  0
  3 31  1  0
  8 32  1  0
  8 33  1  0
  9 34  1  0
  9 35  1  0
 11 36  1  0
 11 37  1  0
 12 38  1  0
 12 39  1  0
 13 40  1  0
 13 41  1  0
 15 42  1  0
 15 43  1  0
 17 44  1  0
 18 45  1  0
 20 46  1  0
 21 47  1  0
 22 48  1  0
 22 49  1  0
 23 50  1  0
 23 51  1  0
 24 52  1  0
 24 53  1  0
M  END
>  <UniqueID>  (45) 
45

>  <SMILES>  (45) 
CCCS(=O)(=O)N1CCC2(CCCN(Cc3ccncc3)C2)CC1

>  <Energy>  (45) 
68.01237618266329

>  <Genealogy>  (45) 
CCCS(=O)(=O)N1CCC2(CCCN(Cc3ccncc3)C2)CC1 (3D coordinates assigned)
CCCS(=O)(=O)N1CCC2(CCCN(Cc3ccncc3)C2)CC1 (nonaromatic ring conformer: 68.01237618266329 kcal/mol)

>  <smiles>  (45) 
CCCS(=O)(=O)N1CCC2(CCCN(Cc3ccncc3)C2)CC1

>  <score_type>  (45) 
oracle

>  <origin>  (45) 
adg

>  <m_score__min__energy>  (45) 
-8.9399999999999995

>  <m_primary>  (45) 
energy

$$$$
45:0
     RDKit          3D

 50 50  0  0  0  0  0  0  0  0999 V2000
    0.6370   26.7800  -21.9240 H   0  0  0  0  0  0  0  0  0  0  0  0
   -0.1990   26.8370  -22.4520 O   0  0  0  0  0  0  0  0  0  0  0  0
    0.2650   26.5440  -24.0420 S   0  0  0  0  0  0  0  0  0  0  0  0
   -0.5360   27.6840  -25.1330 C   0  0  0  0  0  0  0  0  0  0  0  0
    0.2029   28.3467  -25.6072 H   0  0  0  0  0  0  0  0  0  0  0  0
   -1.2481   28.3299  -24.5984 H   0  0  0  0  0  0  0  0  0  0  0  0
   -1.2300   26.8220  -26.1820 C   0  0  0  0  0  0  0  0  0  0  0  0
   -0.5440   26.6308  -27.0204 H   0  0  0  0  0  0  0  0  0  0  0  0
   -2.1216   27.3372  -26.5687 H   0  0  0  0  0  0  0  0  0  0  0  0
   -1.6290   25.4910  -25.5210 C   0  0  1  0  0  0  0  0  0  0  0  0
   -2.5381   25.6296  -24.9175 H   0  0  0  0  0  0  0  0  0  0  0  0
   -1.9480   24.4700  -26.5230 N   0  0  0  0  0  0  0  0  0  0  0  0
   -1.1800   23.8900  -26.9330 H   0  0  0  0  0  0  0  0  0  0  0  0
   -3.2790   24.2840  -27.0250 C   0  0  0  0  0  0  0  0  0  0  0  0
   -4.2210   25.0200  -26.6250 O   0  0  0  0  0  0  0  0  0  0  0  0
   -3.5480   23.2470  -28.0750 C   0  0  0  0  0  0  0  0  0  0  0  0
   -4.5968   22.9229  -28.0040 H   0  0  0  0  0  0  0  0  0  0  0  0
   -2.8761   22.3914  -27.9119 H   0  0  0  0  0  0  0  0  0  0  0  0
   -3.2950   23.8120  -29.4480 C   0  0  0  0  0  0  0  0  0  0  0  0
   -2.2848   23.6871  -29.8649 H   0  0  0  0  0  0  0  0  0  0  0  0
   -4.2010   24.4580  -30.2100 C   0  0  0  0  0  0  0  0  0  0  0  0
   -3.8126   25.2755  -30.8351 H   0  0  0  0  0  0  0  0  0  0  0  0
   -5.6960   24.1920  -30.3090 C   0  0  1  0  0  0  0  0  0  0  0  0
   -5.8640   23.3066  -29.6783 H   0  0  0  0  0  0  0  0  0  0  0  0
   -6.5550   25.3200  -29.7200 C   0  0  0  0  0  0  0  0  0  0  0  0
   -6.5191   25.2729  -28.6216 H   0  0  0  0  0  0  0  0  0  0  0  0
   -6.1661   26.2918  -30.0582 H   0  0  0  0  0  0  0  0  0  0  0  0
   -7.5952   25.2035  -30.0582 H   0  0  0  0  0  0  0  0  0  0  0  0
   -6.1540   23.8170  -31.7360 C   0  0  0  0  0  0  0  0  0  0  0  0
   -5.5276   22.9902  -32.1022 H   0  0  0  0  0  0  0  0  0  0  0  0
   -6.0502   24.7118  -32.3674 H   0  0  0  0  0  0  0  0  0  0  0  0
   -7.6290   23.3780  -31.7830 C   0  0  0  0  0  0  0  0  0  0  0  0
   -7.8593   23.0175  -32.7964 H   0  0  0  0  0  0  0  0  0  0  0  0
   -8.2488   24.2470  -31.5170 H   0  0  0  0  0  0  0  0  0  0  0  0
   -7.9340   22.2510  -30.7730 C   0  0  0  0  0  0  0  0  0  0  0  0
   -8.1857   22.7094  -29.8053 H   0  0  0  0  0  0  0  0  0  0  0  0
   -7.0364   21.6179  -30.7137 H   0  0  0  0  0  0  0  0  0  0  0  0
   -9.1000   21.3440  -31.2000 C   0  0  0  0  0  0  0  0  0  0  0  0
   -9.9351   21.9785  -31.5317 H   0  0  0  0  0  0  0  0  0  0  0  0
   -9.3745   20.7278  -30.3311 H   0  0  0  0  0  0  0  0  0  0  0  0
   -8.7260   20.3890  -32.3430 C   0  0  0  0  0  0  0  0  0  0  0  0
   -7.7225   20.6469  -32.7124 H   0  0  0  0  0  0  0  0  0  0  0  0
   -9.4727   20.4945  -33.1439 H   0  0  0  0  0  0  0  0  0  0  0  0
   -8.7250   18.9390  -31.8710 C   0  0  0  0  0  0  0  0  0  0  0  0
   -8.7250   18.9114  -30.7713 H   0  0  0  0  0  0  0  0  0  0  0  0
   -9.6228   18.4292  -32.2506 H   0  0  0  0  0  0  0  0  0  0  0  0
   -7.8265   18.4305  -32.2506 H   0  0  0  0  0  0  0  0  0  0  0  0
   -0.4650   25.0460  -24.6320 C   0  0  0  0  0  0  0  0  0  0  0  0
    0.2648   24.4643  -25.2142 H   0  0  0  0  0  0  0  0  0  0  0  0
   -0.8005   24.3992  -23.8079 H   0  0  0  0  0  0  0  0  0  0  0  0
  1  2  1  0
  3  2  1  1
  3  4  1  0
  4  5  1  0
  4  6  1  0
  4  7  1  0
  7  8  1  0
  7  9  1  0
  7 10  1  0
 10 11  1  1
 10 12  1  0
 12 13  1  0
 12 14  1  0
 14 15  2  0
 14 16  1  0
 16 17  1  0
 16 18  1  0
 16 19  1  0
 19 20  1  0
 19 21  2  0
 21 22  1  0
 21 23  1  0
 23 24  1  1
 23 25  1  0
 25 26  1  0
 25 27  1  0
 25 28  1  0
 23 29  1  0
 29 30  1  0
 29 31  1  0
 29 32  1  0
 32 33  1  0
 32 34  1  0
 32 35  1  0
 35 36  1  0
 35 37  1  0
 35 38  1  0
 38 39  1  0
 38 40  1  0
 38 41  1  0
 41 42  1  0
 41 43  1  0
 41 44  1  0
 44 45  1  0
 44 46  1  0
 44 47  1  0
 10 48  1  0
 48 49  1  0
 48 50  1  0
 48  3  1  0
M  CHG  1   3   1
M  END
>  <UniqueID>  (46) 
46

>  <SMILES>  (46) 
CCCCCC[C@H](C)/C=C\CC(=O)N[C@@H]1CC[S+](O)C1

>  <Energy>  (46) 
32.193109343159016

>  <Genealogy>  (46) 
CCCCCCC(C)C=CCC(=O)NC1CC[S+](O)C1 (protonated)
CCCCCC[C@H](C)C=CCC(=O)N[C@@H]1CC[S+](O)C1 (chirality)
CCCCCC[C@H](C)/C=C\CC(=O)N[C@@H]1CC[S+](O)C1 (cis-trans isomerization)
CCCCCC[C@H](C)/C=C\CC(=O)N[C@@H]1CC[S+](O)C1 (3D coordinates assigned)
CCCCCC[C@H](C)/C=C\CC(=O)N[C@@H]1CC[S+](O)C1 (nonaromatic ring conformer: 32.193109343159016 kcal/mol)

>  <smiles>  (46) 
CCCCCCC(C)C=CCC(=O)NC1CC[S+]([O-])C1

>  <score_type>  (46) 
oracle

>  <origin>  (46) 
adg

>  <m_score__min__energy>  (46) 
-7.2999999999999998

>  <m_primary>  (46) 
energy

$$$$
46:0
     RDKit          3D

 44 46  0  0  0  0  0  0  0  0999 V2000
   -3.9350   22.2540  -30.4400 C   0  0  0  0  0  0  0  0  0  0  0  0
   -4.2590   23.3950  -31.2260 O   0  0  0  0  0  0  0  0  0  0  0  0
   -4.8100   24.5560  -30.6760 C   0  0  0  0  0  0  0  0  0  0  0  0
   -4.2460   25.6730  -30.8300 O   0  0  0  0  0  0  0  0  0  0  0  0
   -6.1060   24.4770  -29.9310 C   0  0  0  0  0  0  0  0  0  0  0  0
   -7.1840   24.1940  -30.8220 O   0  0  0  0  0  0  0  0  0  0  0  0
   -7.5470   22.9140  -31.2740 C   0  0  0  0  0  0  0  0  0  0  0  0
   -8.6270   22.1940  -30.7290 C   0  0  0  0  0  0  0  0  0  0  0  0
   -8.9380   20.9200  -31.2110 C   0  0  0  0  0  0  0  0  0  0  0  0
   -8.1840   20.3420  -32.2370 C   0  0  0  0  0  0  0  0  0  0  0  0
   -8.5320   19.0520  -32.6730 O   0  0  0  0  0  0  0  0  0  0  0  0
   -7.8360   17.8540  -32.3300 C   0  0  0  0  0  0  0  0  0  0  0  0
   -6.4750   17.8300  -32.9620 C   0  0  0  0  0  0  0  0  0  0  0  0
   -5.5440   18.7840  -32.7630 N   0  0  0  0  0  0  0  0  0  0  0  0
   -4.5010   18.3260  -33.4940 C   0  0  0  0  0  0  0  0  0  0  0  0
   -3.2120   19.0400  -33.6190 C   0  0  0  0  0  0  0  0  0  0  0  0
   -2.0640   18.3670  -34.0690 C   0  0  0  0  0  0  0  0  0  0  0  0
   -0.8570   19.0620  -34.1820 C   0  0  0  0  0  0  0  0  0  0  0  0
   -0.7950   20.3810  -33.8600 N   0  0  0  0  0  0  0  0  0  0  0  0
   -1.8900   21.0590  -33.4230 C   0  0  0  0  0  0  0  0  0  0  0  0
   -3.1170   20.4030  -33.2940 C   0  0  0  0  0  0  0  0  0  0  0  0
   -4.7690   17.1510  -34.0990 N   0  0  0  0  0  0  0  0  0  0  0  0
   -6.0050   16.8430  -33.7500 N   0  0  0  0  0  0  0  0  0  0  0  0
   -6.7120   15.6530  -34.2040 C   0  0  0  0  0  0  0  0  0  0  0  0
   -7.1100   21.0660  -32.7890 C   0  0  0  0  0  0  0  0  0  0  0  0
   -6.8000   22.3410  -32.3080 C   0  0  0  0  0  0  0  0  0  0  0  0
   -4.0080   22.5111  -29.3730 H   0  0  0  0  0  0  0  0  0  0  0  0
   -4.6373   21.4391  -30.6697 H   0  0  0  0  0  0  0  0  0  0  0  0
   -2.9093   21.9298  -30.6697 H   0  0  0  0  0  0  0  0  0  0  0  0
   -6.0412   23.6782  -29.1776 H   0  0  0  0  0  0  0  0  0  0  0  0
   -6.2940   25.4458  -29.4452 H   0  0  0  0  0  0  0  0  0  0  0  0
   -9.2282   22.6360  -29.9208 H   0  0  0  0  0  0  0  0  0  0  0  0
   -9.7845   20.3661  -30.7790 H   0  0  0  0  0  0  0  0  0  0  0  0
   -7.7271   17.8004  -31.2367 H   0  0  0  0  0  0  0  0  0  0  0  0
   -8.4121   16.9929  -32.6996 H   0  0  0  0  0  0  0  0  0  0  0  0
   -2.1149   17.2998  -34.3307 H   0  0  0  0  0  0  0  0  0  0  0  0
    0.0456   18.5401  -34.5326 H   0  0  0  0  0  0  0  0  0  0  0  0
   -1.8095   22.1266  -33.1704 H   0  0  0  0  0  0  0  0  0  0  0  0
   -4.0029   20.9507  -32.9401 H   0  0  0  0  0  0  0  0  0  0  0  0
   -7.0550   15.0756  -33.3328 H   0  0  0  0  0  0  0  0  0  0  0  0
   -7.5796   15.9512  -34.8110 H   0  0  0  0  0  0  0  0  0  0  0  0
   -6.0353   15.0337  -34.8110 H   0  0  0  0  0  0  0  0  0  0  0  0
   -6.5129   20.6266  -33.6016 H   0  0  0  0  0  0  0  0  0  0  0  0
   -5.9601   22.8993  -32.7471 H   0  0  0  0  0  0  0  0  0  0  0  0
  1  2  1  0
  2  3  1  0
  3  4  2  0
  3  5  1  0
  5  6  1  0
  6  7  1  0
  7  8  2  0
  8  9  1  0
  9 10  2  0
 10 11  1  0
 11 12  1  0
 12 13  1  0
 13 14  2  0
 14 15  1  0
 15 16  1  0
 16 17  2  0
 17 18  1  0
 18 19  2  0
 19 20  1  0
 20 21  2  0
 15 22  2  0
 22 23  1  0
 23 24  1  0
 10 25  1  0
 25 26  2  0
 26  7  1  0
 23 13  1  0
 21 16  1  0
  1 27  1  0
  1 28  1  0
  1 29  1  0
  5 30  1  0
  5 31  1  0
  8 32  1  0
  9 33  1  0
 12 34  1  0
 12 35  1  0
 17 36  1  0
 18 37  1  0
 20 38  1  0
 21 39  1  0
 24 40  1  0
 24 41  1  0
 24 42  1  0
 25 43  1  0
 26 44  1  0
M  END
>  <UniqueID>  (47) 
47

>  <SMILES>  (47) 
COC(=O)COc1ccc(OCc2nc(-c3ccncc3)nn2C)cc1

>  <Energy>  (47) 
75.5721528768477

>  <Genealogy>  (47) 
COC(=O)COc1ccc(OCc2nc(-c3ccncc3)nn2C)cc1 (3D coordinates assigned)
COC(=O)COc1ccc(OCc2nc(-c3ccncc3)nn2C)cc1 (optimized conformer: 75.5721528768477 kcal/mol)

>  <smiles>  (47) 
COC(=O)COc1ccc(OCc2nc(-c3ccncc3)nn2C)cc1

>  <score_type>  (47) 
oracle

>  <origin>  (47) 
adg

>  <m_score__min__energy>  (47) 
-7.9800000000000004

>  <m_primary>  (47) 
energy

$$$$
47:0
     RDKit          3D

 21 22  0  0  0  0  0  0  0  0999 V2000
   -5.3740   25.6700  -30.4680 C   0  0  0  0  0  0  0  0  0  0  0  0
   -4.7900   24.6070  -31.2140 O   0  0  0  0  0  0  0  0  0  0  0  0
   -5.4770   23.4530  -31.6210 C   0  0  0  0  0  0  0  0  0  0  0  0
   -4.7570   22.4500  -32.2810 C   0  0  0  0  0  0  0  0  0  0  0  0
   -5.3900   21.2790  -32.7100 C   0  0  0  0  0  0  0  0  0  0  0  0
   -6.7600   21.1000  -32.4800 C   0  0  0  0  0  0  0  0  0  0  0  0
   -7.4220   19.9380  -32.8970 C   0  0  0  0  0  0  0  0  0  0  0  0
   -8.7900   19.7940  -32.6520 C   0  0  0  0  0  0  0  0  0  0  0  0
   -9.4810   20.8120  -31.9900 C   0  0  0  0  0  0  0  0  0  0  0  0
   -8.8270   21.9350  -31.5900 N   0  0  0  0  0  0  0  0  0  0  0  0
   -7.4960   22.1060  -31.8160 C   0  0  0  0  0  0  0  0  0  0  0  0
   -6.8560   23.2750  -31.3890 C   0  0  0  0  0  0  0  0  0  0  0  0
   -5.2628   25.4675  -29.3925 H   0  0  0  0  0  0  0  0  0  0  0  0
   -4.8680   26.6143  -30.7176 H   0  0  0  0  0  0  0  0  0  0  0  0
   -6.4424   25.7494  -30.7176 H   0  0  0  0  0  0  0  0  0  0  0  0
   -3.6808   22.5845  -32.4643 H   0  0  0  0  0  0  0  0  0  0  0  0
   -4.8123   20.4991  -33.2277 H   0  0  0  0  0  0  0  0  0  0  0  0
   -6.8670   19.1421  -33.4153 H   0  0  0  0  0  0  0  0  0  0  0  0
   -9.3189   18.8862  -32.9778 H   0  0  0  0  0  0  0  0  0  0  0  0
  -10.5576   20.7046  -31.7917 H   0  0  0  0  0  0  0  0  0  0  0  0
   -7.4305   24.0570  -30.8710 H   0  0  0  0  0  0  0  0  0  0  0  0
  1  2  1  0
  2  3  1  0
  3  4  2  0
  4  5  1  0
  5  6  2  0
  6  7  1  0
  7  8  2  0
  8  9  1  0
  9 10  2  0
 10 11  1  0
 11 12  2  0
 12  3  1  0
 11  6  1  0
  1 13  1  0
  1 14  1  0
  1 15  1  0
  4 16  1  0
  5 17  1  0
  7 18  1  0
  8 19  1  0
  9 20  1  0
 12 21  1  0
M  END
>  <UniqueID>  (48) 
48

>  <SMILES>  (48) 
COc1ccc2cccnc2c1

>  <Energy>  (48) 
24.230761353300743

>  <Genealogy>  (48) 
COc1ccc2cccnc2c1 (3D coordinates assigned)
COc1ccc2cccnc2c1 (optimized conformer: 24.230761353300743 kcal/mol)

>  <smiles>  (48) 
COc1ccc2cccnc2c1

>  <score_type>  (48) 
oracle

>  <origin>  (48) 
adg

>  <m_score__min__energy>  (48) 
-5.7199999999999998

>  <m_primary>  (48) 
energy

$$$$
48:0
     RDKit          3D

 53 56  0  0  0  0  0  0  0  0999 V2000
   -1.0100   26.0530  -29.5920 H   0  0  0  0  0  0  0  0  0  0  0  0
   -1.7010   25.5930  -28.9570 N   0  0  0  0  0  0  0  0  0  0  0  0
   -2.6210   24.7930  -29.3930 C   0  0  0  0  0  0  0  0  0  0  0  0
   -3.6370   25.2930  -30.1470 N   0  0  0  0  0  0  0  0  0  0  0  0
   -4.6300   24.5000  -30.6350 C   0  0  0  0  0  0  0  0  0  0  0  0
   -5.4363   24.9379  -31.2417 H   0  0  0  0  0  0  0  0  0  0  0  0
   -4.6240   23.1270  -30.3640 C   0  0  0  0  0  0  0  0  0  0  0  0
   -5.6640   22.2770  -30.8770 C   0  0  0  0  0  0  0  0  0  0  0  0
   -6.5250   21.5600  -31.3210 C   0  0  0  0  0  0  0  0  0  0  0  0
   -7.5420   20.6850  -31.8610 C   0  0  0  0  0  0  0  0  0  0  0  0
   -8.9060   20.9410  -31.6240 C   0  0  0  0  0  0  0  0  0  0  0  0
   -9.3600   22.1420  -30.8470 C   0  0  0  0  0  0  0  0  0  0  0  0
   -9.2811   21.9332  -29.7699 H   0  0  0  0  0  0  0  0  0  0  0  0
   -8.7257   23.0041  -31.1008 H   0  0  0  0  0  0  0  0  0  0  0  0
  -10.4060   22.3690  -31.1008 H   0  0  0  0  0  0  0  0  0  0  0  0
   -9.8410   20.0760  -32.0980 N   0  0  0  0  0  0  0  0  0  0  0  0
   -9.4890   18.9670  -32.7940 C   0  0  0  0  0  0  0  0  0  0  0  0
  -10.2667   18.2824  -33.1633 H   0  0  0  0  0  0  0  0  0  0  0  0
   -8.1810   18.6980  -33.0370 N   0  0  0  0  0  0  0  0  0  0  0  0
   -7.9400   17.8400  -33.5840 H   0  0  0  0  0  0  0  0  0  0  0  0
   -7.1940   19.5320  -32.5990 C   0  0  0  0  0  0  0  0  0  0  0  0
   -5.7810   19.1900  -32.8920 C   0  0  0  0  0  0  0  0  0  0  0  0
   -5.3410   17.8650  -32.7660 C   0  0  0  0  0  0  0  0  0  0  0  0
   -6.0485   17.0813  -32.4573 H   0  0  0  0  0  0  0  0  0  0  0  0
   -4.0090   17.5330  -33.0300 C   0  0  0  0  0  0  0  0  0  0  0  0
   -3.6712   16.4931  -32.9100 H   0  0  0  0  0  0  0  0  0  0  0  0
   -3.1000   18.5170  -33.4470 C   0  0  0  0  0  0  0  0  0  0  0  0
   -1.6920   18.1520  -33.7100 C   0  0  0  0  0  0  0  0  0  0  0  0
   -1.3640   17.7650  -34.8650 O   0  0  0  0  0  0  0  0  0  0  0  0
   -0.6900   18.2550  -32.6830 N   0  0  0  0  0  0  0  0  0  0  0  0
   -0.6650   19.4350  -31.8040 C   0  0  0  0  0  0  0  0  0  0  0  0
   -0.7659   20.3408  -32.4199 H   0  0  0  0  0  0  0  0  0  0  0  0
   -1.4978   19.3495  -31.0905 H   0  0  0  0  0  0  0  0  0  0  0  0
    0.6430   19.5190  -31.0060 C   0  0  0  0  0  0  0  0  0  0  0  0
    0.7219   20.5146  -30.5450 H   0  0  0  0  0  0  0  0  0  0  0  0
    0.6353   18.7396  -30.2298 H   0  0  0  0  0  0  0  0  0  0  0  0
    1.8520   19.2910  -31.9240 C   0  0  0  0  0  0  0  0  0  0  0  0
    1.9225   20.1357  -32.6251 H   0  0  0  0  0  0  0  0  0  0  0  0
    2.7403   19.2122  -31.2801 H   0  0  0  0  0  0  0  0  0  0  0  0
    1.7600   17.9810  -32.7410 C   0  0  0  0  0  0  0  0  0  0  0  0
    1.9328   18.2191  -33.8009 H   0  0  0  0  0  0  0  0  0  0  0  0
    2.5193   17.2948  -32.3378 H   0  0  0  0  0  0  0  0  0  0  0  0
    0.4030   17.2750  -32.6170 C   0  0  0  0  0  0  0  0  0  0  0  0
    0.2931   16.5530  -33.4396 H   0  0  0  0  0  0  0  0  0  0  0  0
    0.3581   16.7537  -31.6494 H   0  0  0  0  0  0  0  0  0  0  0  0
   -3.5390   19.8490  -33.5720 C   0  0  0  0  0  0  0  0  0  0  0  0
   -2.6700   20.8360  -33.9090 F   0  0  0  0  0  0  0  0  0  0  0  0
   -4.8720   20.1770  -33.3090 C   0  0  0  0  0  0  0  0  0  0  0  0
   -5.2122   21.2161  -33.4294 H   0  0  0  0  0  0  0  0  0  0  0  0
   -3.5920   22.5880  -29.5880 C   0  0  0  0  0  0  0  0  0  0  0  0
   -3.5753   21.5112  -29.3640 H   0  0  0  0  0  0  0  0  0  0  0  0
   -2.5840   23.4200  -29.0990 C   0  0  0  0  0  0  0  0  0  0  0  0
   -1.7683   23.0045  -28.4891 H   0  0  0  0  0  0  0  0  0  0  0  0
  1  2  1  0
  2  3  2  0
  3  4  1  0
  4  5  1  0
  5  6  1  0
  5  7  2  0
  7  8  1  0
  8  9  3  0
  9 10  1  0
 10 11  2  0
 11 12  1  0
 12 13  1  0
 12 14  1  0
 12 15  1  0
 11 16  1  0
 16 17  2  0
 17 18  1  0
 17 19  1  0
 19 20  1  0
 19 21  2  0
 21 22  1  0
 22 23  2  0
 23 24  1  0
 23 25  1  0
 25 26  1  0
 25 27  2  0
 27 28  1  0
 28 29  2  0
 28 30  1  0
 30 31  1  0
 31 32  1  0
 31 33  1  0
 31 34  1  0
 34 35  1  0
 34 36  1  0
 34 37  1  0
 37 38  1  0
 37 39  1  0
 37 40  1  0
 40 41  1  0
 40 42  1  0
 40 43  1  0
 43 44  1  0
 43 45  1  0
 27 46  1  0
 46 47  1  0
 46 48  2  0
 48 49  1  0
  7 50  1  0
 50 51  1  0
 50 52  2  0
 52 53  1  0
 52  3  1  0
 21 10  1  0
 48 22  1  0
 43 30  1  0
M  CHG  2   4  -1  19   1
M  END
>  <UniqueID>  (49) 
49

>  <SMILES>  (49) 
[H]/N=c1\ccc(C#Cc2c(C)nc[nH+]c2-c2ccc(C(=O)N3CCCCC3)c(F)c2)c[n-]1

>  <Energy>  (49) 
67.62204695604868

>  <Genealogy>  (49) 
Cc1nc[nH+]c(-c2ccc(C(=O)N3CCCCC3)c(F)c2)c1C#Cc1ccc(=N)[n-]c1 (protonated)
[H]/N=c1\ccc(C#Cc2c(C)nc[nH+]c2-c2ccc(C(=O)N3CCCCC3)c(F)c2)c[n-]1 (cis-trans isomerization)
[H]/N=c1\ccc(C#Cc2c(C)nc[nH+]c2-c2ccc(C(=O)N3CCCCC3)c(F)c2)c[n-]1 (3D coordinates assigned)
[H]/N=c1\ccc(C#Cc2c(C)nc[nH+]c2-c2ccc(C(=O)N3CCCCC3)c(F)c2)c[n-]1 (nonaromatic ring conformer: 67.62204695604868 kcal/mol)

>  <smiles>  (49) 
Cc1ncnc(-c2ccc(C(=O)N3CCCCC3)c(F)c2)c1C#Cc1ccc(=N)[nH]c1

>  <score_type>  (49) 
oracle

>  <origin>  (49) 
adg

>  <m_score__min__energy>  (49) 
-10.15

>  <m_primary>  (49) 
energy

$$$$
