0:0
     RDKit          3D

 34 36  0  0  0  0  0  0  0  0999 V2000
   -9.6950   21.2350  -31.7980 C   0  0  0  0  0  0  0  0  0  0  0  0
   -8.3620   20.8220  -32.3300 C   0  0  0  0  0  0  0  0  0  0  0  0
   -8.1630   19.7520  -33.1360 N   0  0  0  0  0  0  0  0  0  0  0  0
   -6.8260   19.6890  -33.2980 C   0  0  0  0  0  0  0  0  0  0  0  0
   -6.1270   18.7210  -34.0170 C   0  0  0  0  0  0  0  0  0  0  0  0
   -4.7250   18.7960  -34.0170 C   0  0  0  0  0  0  0  0  0  0  0  0
   -4.0650   19.8140  -33.3010 C   0  0  0  0  0  0  0  0  0  0  0  0
   -2.7120   19.8760  -33.2900 F   0  0  0  0  0  0  0  0  0  0  0  0
   -4.8200   20.7600  -32.5910 C   0  0  0  0  0  0  0  0  0  0  0  0
   -6.1740   20.6610  -32.6330 N   0  0  0  0  0  0  0  0  0  0  0  0
   -7.1300   21.3830  -32.0220 C   0  0  0  0  0  0  0  0  0  0  0  0
   -6.8830   22.4520  -31.0960 N   0  0  0  0  0  0  0  0  0  0  0  0
   -7.6120   22.5010  -29.8300 C   0  0  0  0  0  0  0  0  0  0  0  0
   -6.0510   23.5890  -31.5020 C   0  0  0  0  0  0  0  0  0  0  0  0
   -4.8140   23.6430  -30.6620 C   0  0  0  0  0  0  0  0  0  0  0  0
   -4.1060   24.7920  -30.3360 C   0  0  0  0  0  0  0  0  0  0  0  0
   -3.0730   24.5540  -29.4230 C   0  0  0  0  0  0  0  0  0  0  0  0
   -2.2580   25.5310  -28.9610 F   0  0  0  0  0  0  0  0  0  0  0  0
   -2.9700   23.2300  -29.0150 C   0  0  0  0  0  0  0  0  0  0  0  0
   -4.1790   22.3520  -29.7900 S   0  0  0  0  0  0  0  0  0  0  0  0
   -9.6694   21.2271  -30.6983 H   0  0  0  0  0  0  0  0  0  0  0  0
   -9.9329   22.2490  -32.1519 H   0  0  0  0  0  0  0  0  0  0  0  0
  -10.4645   20.5332  -32.1519 H   0  0  0  0  0  0  0  0  0  0  0  0
   -8.8830   19.1010  -33.5180 H   0  0  0  0  0  0  0  0  0  0  0  0
   -6.6549   17.9266  -34.5649 H   0  0  0  0  0  0  0  0  0  0  0  0
   -4.1381   18.0551  -34.5797 H   0  0  0  0  0  0  0  0  0  0  0  0
   -4.3291   21.5593  -32.0165 H   0  0  0  0  0  0  0  0  0  0  0  0
   -6.8987   22.4531  -28.9940 H   0  0  0  0  0  0  0  0  0  0  0  0
   -8.1827   23.4395  -29.7716 H   0  0  0  0  0  0  0  0  0  0  0  0
   -8.3032   21.6473  -29.7716 H   0  0  0  0  0  0  0  0  0  0  0  0
   -5.7689   23.4750  -32.5591 H   0  0  0  0  0  0  0  0  0  0  0  0
   -6.6207   24.5202  -31.3665 H   0  0  0  0  0  0  0  0  0  0  0  0
   -4.3333   25.7847  -30.7517 H   0  0  0  0  0  0  0  0  0  0  0  0
   -2.2287   22.8264  -28.3096 H   0  0  0  0  0  0  0  0  0  0  0  0
  1  2  1  0
  2  3  1  0
  3  4  2  0
  4  5  1  0
  5  6  2  0
  6  7  1  0
  7  8  1  0
  7  9  2  0
  9 10  1  0
 10 11  1  0
 11 12  1  0
 12 13  1  0
 12 14  1  0
 14 15  1  0
 15 16  2  0
 16 17  1  0
 17 18  1  0
 17 19  2  0
 19 20  1  0
 11  2  2  0
 20 15  1  0
 10  4  1  0
  1 21  1  0
  1 22  1  0
  1 23  1  0
  3 24  1  0
  5 25  1  0
  6 26  1  0
  9 27  1  0
 13 28  1  0
 13 29  1  0
 13 30  1  0
 14 31  1  0
 14 32  1  0
 16 33  1  0
 19 34  1  0
M  CHG  1   3   1
M  END
>  <UniqueID>  (1) 
1

>  <SMILES>  (1) 
Cc1[nH+]c2ccc(F)cn2c1N(C)Cc1cc(F)cs1

>  <Energy>  (1) 
98.40536082437524

>  <Genealogy>  (1) 
Cc1[nH+]c2ccc(F)cn2c1N(C)Cc1cc(F)cs1 (protonated)
Cc1[nH+]c2ccc(F)cn2c1N(C)Cc1cc(F)cs1 (3D coordinates assigned)
Cc1[nH+]c2ccc(F)cn2c1N(C)Cc1cc(F)cs1 (optimized conformer: 98.40536082437524 kcal/mol)

>  <smiles>  (1) 
Cc1nc2ccc(F)cn2c1N(C)Cc1cc(F)cs1

>  <score_type>  (1) 
oracle

>  <origin>  (1) 
adg

>  <m_score__min__energy>  (1) 
-6.4299999999999997

>  <m_primary>  (1) 
energy

$$$$
1:0
     RDKit          3D

 43 45  0  0  0  0  0  0  0  0999 V2000
   -1.9140   25.2340  -27.9880 C   0  0  0  0  0  0  0  0  0  0  0  0
   -2.3660   25.2960  -29.3380 O   0  0  0  0  0  0  0  0  0  0  0  0
   -3.4160   24.5250  -29.8600 C   0  0  0  0  0  0  0  0  0  0  0  0
   -4.6820   25.0740  -30.1350 C   0  0  0  0  0  0  0  0  0  0  0  0
   -5.7040   24.2730  -30.6540 C   0  0  0  0  0  0  0  0  0  0  0  0
   -5.4820   22.9080  -30.9080 C   0  0  0  0  0  0  0  0  0  0  0  0
   -6.5620   22.0490  -31.4410 C   0  0  0  0  0  0  0  0  0  0  0  0
   -6.3240   20.9840  -32.2610 N   0  0  0  0  0  0  0  0  0  0  0  0
   -7.4650   20.3800  -32.5490 N   0  0  0  0  0  0  0  0  0  0  0  0
   -7.7810   19.1530  -32.9730 C   0  0  0  0  0  0  0  0  0  0  0  0
   -6.8130   18.1540  -33.5210 C   0  0  0  0  0  0  0  0  0  0  0  0
   -5.4430   18.6050  -33.2940 N   0  0  0  0  0  0  0  0  0  0  0  0
   -4.3810   18.3460  -34.2230 C   0  0  0  0  0  0  0  0  0  0  0  0
   -4.6240   17.7870  -35.3270 O   0  0  0  0  0  0  0  0  0  0  0  0
   -2.9660   18.7150  -33.8760 C   0  0  0  0  0  0  0  0  0  0  0  0
   -2.9020   19.8720  -32.8560 C   0  0  0  0  0  0  0  0  0  0  0  0
   -3.3130   21.2110  -33.4860 C   0  0  0  0  0  0  0  0  0  0  0  0
   -1.4890   19.9770  -32.2710 C   0  0  0  0  0  0  0  0  0  0  0  0
   -9.0740   18.8880  -32.6510 N   0  0  0  0  0  0  0  0  0  0  0  0
   -9.5580   19.9490  -31.9950 N   0  0  0  0  0  0  0  0  0  0  0  0
   -8.5460   20.8330  -31.9690 C   0  0  0  0  0  0  0  0  0  0  0  0
   -8.2270   22.1550  -30.9940 S   0  0  0  0  0  0  0  0  0  0  0  0
   -4.2160   22.3640  -30.6340 C   0  0  0  0  0  0  0  0  0  0  0  0
   -3.1930   23.1640  -30.1130 C   0  0  0  0  0  0  0  0  0  0  0  0
   -1.6270   22.4410  -29.7780 Cl  0  0  0  0  0  0  0  0  0  0  0  0
   -2.7711   25.3516  -27.3086 H   0  0  0  0  0  0  0  0  0  0  0  0
   -1.4331   24.2615  -27.8067 H   0  0  0  0  0  0  0  0  0  0  0  0
   -1.1889   26.0411  -27.8067 H   0  0  0  0  0  0  0  0  0  0  0  0
   -4.8690   26.1404  -29.9404 H   0  0  0  0  0  0  0  0  0  0  0  0
   -6.6893   24.7142  -30.8652 H   0  0  0  0  0  0  0  0  0  0  0  0
   -6.9654   17.1869  -33.0194 H   0  0  0  0  0  0  0  0  0  0  0  0
   -6.9815   18.0457  -34.6026 H   0  0  0  0  0  0  0  0  0  0  0  0
   -5.2300   19.1110  -32.4040 H   0  0  0  0  0  0  0  0  0  0  0  0
   -2.4650   17.8350  -33.4463 H   0  0  0  0  0  0  0  0  0  0  0  0
   -2.4665   19.0476  -34.7979 H   0  0  0  0  0  0  0  0  0  0  0  0
   -3.6176   19.6491  -32.0509 H   0  0  0  0  0  0  0  0  0  0  0  0
   -3.5360   21.9374  -32.6906 H   0  0  0  0  0  0  0  0  0  0  0  0
   -2.4901   21.5909  -34.1093 H   0  0  0  0  0  0  0  0  0  0  0  0
   -4.2073   21.0638  -34.1093 H   0  0  0  0  0  0  0  0  0  0  0  0
   -1.5457   19.9728  -31.1725 H   0  0  0  0  0  0  0  0  0  0  0  0
   -0.8871   19.1211  -32.6104 H   0  0  0  0  0  0  0  0  0  0  0  0
   -1.0202   20.9125  -32.6104 H   0  0  0  0  0  0  0  0  0  0  0  0
   -4.0271   21.2984  -30.8310 H   0  0  0  0  0  0  0  0  0  0  0  0
  1  2  1  0
  2  3  1  0
  3  4  2  0
  4  5  1  0
  5  6  2  0
  6  7  1  0
  7  8  2  0
  8  9  1  0
  9 10  1  0
 10 11  1  0
 11 12  1  0
 12 13  1  0
 13 14  2  0
 13 15  1  0
 15 16  1  0
 16 17  1  0
 16 18  1  0
 10 19  2  0
 19 20  1  0
 20 21  2  0
 21 22  1  0
  6 23  1  0
 23 24  2  0
 24 25  1  0
 24  3  1  0
 22  7  1  0
 21  9  1  0
  1 26  1  0
  1 27  1  0
  1 28  1  0
  4 29  1  0
  5 30  1  0
 11 31  1  0
 11 32  1  0
 12 33  1  0
 15 34  1  0
 15 35  1  0
 16 36  1  0
 17 37  1  0
 17 38  1  0
 17 39  1  0
 18 40  1  0
 18 41  1  0
 18 42  1  0
 23 43  1  0
M  END
>  <UniqueID>  (2) 
2

>  <SMILES>  (2) 
COc1ccc(-c2nn3c(CNC(=O)CC(C)C)nnc3s2)cc1Cl

>  <Energy>  (2) 
126.32353130408684

>  <Genealogy>  (2) 
COc1ccc(-c2nn3c(CNC(=O)CC(C)C)nnc3s2)cc1Cl (3D coordinates assigned)
COc1ccc(-c2nn3c(CNC(=O)CC(C)C)nnc3s2)cc1Cl (optimized conformer: 126.32353130408684 kcal/mol)

>  <smiles>  (2) 
COc1ccc(-c2nn3c(CNC(=O)CC(C)C)nnc3s2)cc1Cl

>  <score_type>  (2) 
oracle

>  <origin>  (2) 
adg

>  <m_score__min__energy>  (2) 
-8.6600000000000001

>  <m_primary>  (2) 
energy

$$$$
2:0
     RDKit          3D

 47 50  0  0  0  0  0  0  0  0999 V2000
   -8.2824   21.4251  -32.7150 H   0  0  0  0  0  0  0  0  0  0  0  0
   -7.6100   22.1370  -32.2140 C   0  0  0  0  0  0  0  0  0  0  0  0
   -8.0140   23.2330  -31.5210 N   0  0  0  0  0  0  0  0  0  0  0  0
   -6.8560   23.7810  -31.0990 C   0  0  0  0  0  0  0  0  0  0  0  0
   -6.7160   24.9280  -30.3280 C   0  0  0  0  0  0  0  0  0  0  0  0
   -7.5916   25.5080  -30.0011 H   0  0  0  0  0  0  0  0  0  0  0  0
   -5.4130   25.3170  -29.9830 C   0  0  0  0  0  0  0  0  0  0  0  0
   -5.2515   26.2190  -29.3745 H   0  0  0  0  0  0  0  0  0  0  0  0
   -4.3100   24.5520  -30.4160 C   0  0  0  0  0  0  0  0  0  0  0  0
   -3.1060   24.9200  -30.0820 N   0  0  0  0  0  0  0  0  0  0  0  0
   -2.3900   24.6350  -28.8300 C   0  0  0  0  0  0  0  0  0  0  0  0
   -1.9392   23.6382  -28.9445 H   0  0  0  0  0  0  0  0  0  0  0  0
   -3.3470   24.5550  -27.6190 C   0  0  0  0  0  0  0  0  0  0  0  0
   -3.8311   23.5672  -27.6146 H   0  0  0  0  0  0  0  0  0  0  0  0
   -4.0869   25.3628  -27.7192 H   0  0  0  0  0  0  0  0  0  0  0  0
   -2.6100   24.7520  -26.2820 C   0  0  0  0  0  0  0  0  0  0  0  0
   -3.0904   24.1338  -25.5093 H   0  0  0  0  0  0  0  0  0  0  0  0
   -2.6589   25.8147  -26.0021 H   0  0  0  0  0  0  0  0  0  0  0  0
   -1.1950   24.3570  -26.4090 N   0  0  0  0  0  0  0  0  0  0  0  0
   -0.5210   24.1450  -25.1090 C   0  0  0  0  0  0  0  0  0  0  0  0
   -1.1958   24.4906  -24.3120 H   0  0  0  0  0  0  0  0  0  0  0  0
    0.4219   24.7101  -25.1501 H   0  0  0  0  0  0  0  0  0  0  0  0
   -0.1420   22.6840  -24.8170 C   0  0  0  0  0  0  0  0  0  0  0  0
   -0.1011   22.5262  -23.7291 H   0  0  0  0  0  0  0  0  0  0  0  0
   -0.8962   22.0147  -25.2565 H   0  0  0  0  0  0  0  0  0  0  0  0
    0.8425   22.4657  -25.2565 H   0  0  0  0  0  0  0  0  0  0  0  0
   -0.4380   25.2560  -27.3110 C   0  0  0  0  0  0  0  0  0  0  0  0
    0.4957   24.7548  -27.6061 H   0  0  0  0  0  0  0  0  0  0  0  0
   -0.2408   26.1895  -26.7635 H   0  0  0  0  0  0  0  0  0  0  0  0
   -1.2300   25.6190  -28.5870 C   0  0  0  0  0  0  0  0  0  0  0  0
   -0.5494   25.5896  -29.4507 H   0  0  0  0  0  0  0  0  0  0  0  0
   -1.6530   26.6259  -28.4561 H   0  0  0  0  0  0  0  0  0  0  0  0
   -4.5300   23.4360  -31.1740 N   0  0  0  0  0  0  0  0  0  0  0  0
   -5.7770   23.0920  -31.4890 N   0  0  0  0  0  0  0  0  0  0  0  0
   -6.2240   22.0460  -32.1980 C   0  0  0  0  0  0  0  0  0  0  0  0
   -5.4010   20.9960  -32.8290 C   0  0  0  0  0  0  0  0  0  0  0  0
   -5.8290   19.8280  -33.4350 C   0  0  0  0  0  0  0  0  0  0  0  0
   -6.8739   19.4991  -33.5355 H   0  0  0  0  0  0  0  0  0  0  0  0
   -4.7470   19.1640  -33.8800 N   0  0  0  0  0  0  0  0  0  0  0  0
   -4.7630   17.9220  -34.6420 C   0  0  0  0  0  0  0  0  0  0  0  0
   -4.7740   17.0672  -33.9497 H   0  0  0  0  0  0  0  0  0  0  0  0
   -5.6616   17.8922  -35.2757 H   0  0  0  0  0  0  0  0  0  0  0  0
   -3.8655   17.8690  -35.2757 H   0  0  0  0  0  0  0  0  0  0  0  0
   -3.6580   19.8610  -33.5990 N   0  0  0  0  0  0  0  0  0  0  0  0
   -2.6840   19.5830  -33.8540 H   0  0  0  0  0  0  0  0  0  0  0  0
   -4.0200   20.9820  -32.9490 C   0  0  0  0  0  0  0  0  0  0  0  0
   -3.3350   21.7574  -32.5754 H   0  0  0  0  0  0  0  0  0  0  0  0
  1  2  1  0
  2  3  1  0
  3  4  2  0
  4  5  1  0
  5  6  1  0
  5  7  2  0
  7  8  1  0
  7  9  1  0
  9 10  2  0
 10 11  1  0
 11 12  1  0
 11 13  1  0
 13 14  1  0
 13 15  1  0
 13 16  1  0
 16 17  1  0
 16 18  1  0
 16 19  1  0
 19 20  1  0
 20 21  1  0
 20 22  1  0
 20 23  1  0
 23 24  1  0
 23 25  1  0
 23 26  1  0
 19 27  1  0
 27 28  1  0
 27 29  1  0
 27 30  1  0
 30 31  1  0
 30 32  1  0
  9 33  1  0
 33 34  1  0
 34 35  1  0
 35 36  1  0
 36 37  2  0
 37 38  1  0
 37 39  1  0
 39 40  1  0
 40 41  1  0
 40 42  1  0
 40 43  1  0
 39 44  1  0
 44 45  1  0
 44 46  2  0
 46 47  1  0
 35  2  2  0
 46 36  1  0
 34  4  1  0
 30 11  1  0
M  CHG  2  33  -1  44   1
M  END
>  <UniqueID>  (3) 
3

>  <SMILES>  (3) 
CCN1CCC(/N=c2/ccc3ncc(-c4c[nH+]n(C)c4)n3[n-]2)CC1

>  <Energy>  (3) 
123.00531126971553

>  <Genealogy>  (3) 
CCN1CCC(N=c2ccc3ncc(-c4c[nH+]n(C)c4)n3[n-]2)CC1 (protonated)
CCN1CCC(/N=c2/ccc3ncc(-c4c[nH+]n(C)c4)n3[n-]2)CC1 (cis-trans isomerization)
CCN1CCC(/N=c2/ccc3ncc(-c4c[nH+]n(C)c4)n3[n-]2)CC1 (3D coordinates assigned)
CCN1CCC(/N=c2/ccc3ncc(-c4c[nH+]n(C)c4)n3[n-]2)CC1 (nonaromatic ring conformer: 123.00531126971553 kcal/mol)

>  <smiles>  (3) 
CCN1CCC(N=c2ccc3ncc(-c4cnn(C)c4)n3[nH]2)CC1

>  <score_type>  (3) 
oracle

>  <origin>  (3) 
adg

>  <m_score__min__energy>  (3) 
-9.6099999999999994

>  <m_primary>  (3) 
energy

$$$$
3:0
     RDKit          3D

 48 50  0  0  0  0  0  0  0  0999 V2000
   -1.1390   23.4730  -29.2950 C   0  0  0  0  0  0  0  0  0  0  0  0
   -1.8940   22.1610  -29.2430 C   0  0  0  0  0  0  0  0  0  0  0  0
   -2.0310   21.7000  -27.8050 C   0  0  0  0  0  0  0  0  0  0  0  0
   -3.1300   22.1920  -29.9300 N   0  0  0  0  0  0  0  0  0  0  0  0
   -4.2740   22.5020  -29.1800 C   0  0  0  0  0  0  0  0  0  0  0  0
   -4.2950   23.9540  -28.7830 C   0  0  0  0  0  0  0  0  0  0  0  0
   -5.2950   24.9170  -29.9100 S   0  0  0  0  0  0  0  0  0  0  0  0
   -4.4090   25.6830  -30.8430 O   0  0  0  0  0  0  0  0  0  0  0  0
   -6.1490   25.8950  -29.1720 O   0  0  0  0  0  0  0  0  0  0  0  0
   -6.3290   23.7780  -30.7400 C   0  0  0  0  0  0  0  0  0  0  0  0
   -6.3290   23.5670  -32.0810 C   0  0  0  0  0  0  0  0  0  0  0  0
   -7.1900   22.6460  -32.6540 C   0  0  0  0  0  0  0  0  0  0  0  0
   -8.0600   21.9330  -31.8560 C   0  0  0  0  0  0  0  0  0  0  0  0
   -8.0880   22.1250  -30.4720 C   0  0  0  0  0  0  0  0  0  0  0  0
   -7.2120   23.0530  -29.9390 C   0  0  0  0  0  0  0  0  0  0  0  0
   -3.1290   22.2850  -31.3290 C   0  0  0  0  0  0  0  0  0  0  0  0
   -3.9920   21.1750  -31.8880 C   0  0  0  0  0  0  0  0  0  0  0  0
   -3.8650   20.5740  -33.0930 N   0  0  0  0  0  0  0  0  0  0  0  0
   -4.8030   19.6300  -33.2620 C   0  0  0  0  0  0  0  0  0  0  0  0
   -5.0400   18.7880  -34.3250 C   0  0  0  0  0  0  0  0  0  0  0  0
   -6.1110   17.9050  -34.1940 C   0  0  0  0  0  0  0  0  0  0  0  0
   -6.8890   17.8830  -33.0540 C   0  0  0  0  0  0  0  0  0  0  0  0
   -6.6110   18.7560  -31.9990 C   0  0  0  0  0  0  0  0  0  0  0  0
   -5.5510   19.6420  -32.1080 C   0  0  0  0  0  0  0  0  0  0  0  0
   -5.0540   20.5920  -31.2630 N   0  0  0  0  0  0  0  0  0  0  0  0
   -0.9385   23.8215  -28.2711 H   0  0  0  0  0  0  0  0  0  0  0  0
   -0.1867   23.3272  -29.8258 H   0  0  0  0  0  0  0  0  0  0  0  0
   -1.7436   24.2232  -29.8258 H   0  0  0  0  0  0  0  0  0  0  0  0
   -1.2991   21.4149  -29.7901 H   0  0  0  0  0  0  0  0  0  0  0  0
   -1.7839   22.5313  -27.1283 H   0  0  0  0  0  0  0  0  0  0  0  0
   -3.0652   21.3730  -27.6217 H   0  0  0  0  0  0  0  0  0  0  0  0
   -1.3433   20.8613  -27.6217 H   0  0  0  0  0  0  0  0  0  0  0  0
   -5.1674   22.2832  -29.7833 H   0  0  0  0  0  0  0  0  0  0  0  0
   -4.2623   21.8932  -28.2639 H   0  0  0  0  0  0  0  0  0  0  0  0
   -4.7109   24.0428  -27.7685 H   0  0  0  0  0  0  0  0  0  0  0  0
   -3.2651   24.3391  -28.8145 H   0  0  0  0  0  0  0  0  0  0  0  0
   -5.6367   24.1345  -32.7203 H   0  0  0  0  0  0  0  0  0  0  0  0
   -7.1800   22.4837  -33.7419 H   0  0  0  0  0  0  0  0  0  0  0  0
   -8.7419   21.2024  -32.3156 H   0  0  0  0  0  0  0  0  0  0  0  0
   -8.7804   21.5596  -29.8310 H   0  0  0  0  0  0  0  0  0  0  0  0
   -7.2113   23.2245  -28.8524 H   0  0  0  0  0  0  0  0  0  0  0  0
   -3.5351   23.2602  -31.6357 H   0  0  0  0  0  0  0  0  0  0  0  0
   -2.1017   22.1904  -31.7108 H   0  0  0  0  0  0  0  0  0  0  0  0
   -4.4166   18.8107  -35.2310 H   0  0  0  0  0  0  0  0  0  0  0  0
   -6.3408   17.2114  -35.0163 H   0  0  0  0  0  0  0  0  0  0  0  0
   -7.7291   17.1772  -32.9760 H   0  0  0  0  0  0  0  0  0  0  0  0
   -7.2288   18.7401  -31.0890 H   0  0  0  0  0  0  0  0  0  0  0  0
   -5.4090   20.8390  -30.3080 H   0  0  0  0  0  0  0  0  0  0  0  0
  1  2  1  0
  2  3  1  0
  2  4  1  0
  4  5  1  0
  5  6  1  0
  6  7  1  0
  7  8  2  0
  7  9  2  0
  7 10  1  0
 10 11  2  0
 11 12  1  0
 12 13  2  0
 13 14  1  0
 14 15  2  0
  4 16  1  0
 16 17  1  0
 17 18  2  0
 18 19  1  0
 19 20  2  0
 20 21  1  0
 21 22  2  0
 22 23  1  0
 23 24  2  0
 24 25  1  0
 15 10  1  0
 25 17  1  0
 24 19  1  0
  1 26  1  0
  1 27  1  0
  1 28  1  0
  2 29  1  0
  3 30  1  0
  3 31  1  0
  3 32  1  0
  5 33  1  0
  5 34  1  0
  6 35  1  0
  6 36  1  0
 11 37  1  0
 12 38  1  0
 13 39  1  0
 14 40  1  0
 15 41  1  0
 16 42  1  0
 16 43  1  0
 20 44  1  0
 21 45  1  0
 22 46  1  0
 23 47  1  0
 25 48  1  0
M  END
>  <smiles>  (4) 
CC(C)N(CCS(=O)(=O)c1ccccc1)Cc1nc2ccccc2[nH]1

>  <score_type>  (4) 
oracle

>  <origin>  (4) 
adg

>  <m_score__min__energy>  (4) 
-8.4600000000000009

>  <m_primary>  (4) 
energy

$$$$
4:0
     RDKit          3D

 43 45  0  0  0  0  0  0  0  0999 V2000
    0.8530   20.2940  -28.0460 C   0  0  0  0  0  0  0  0  0  0  0  0
    0.5570   21.6870  -28.0530 O   0  0  0  0  0  0  0  0  0  0  0  0
   -0.5470   22.2580  -28.7030 C   0  0  0  0  0  0  0  0  0  0  0  0
   -0.6610   23.6520  -28.7130 C   0  0  0  0  0  0  0  0  0  0  0  0
   -1.7390   24.2800  -29.3450 C   0  0  0  0  0  0  0  0  0  0  0  0
   -1.8000   25.6700  -29.3240 O   0  0  0  0  0  0  0  0  0  0  0  0
   -2.7340   23.5060  -29.9860 C   0  0  0  0  0  0  0  0  0  0  0  0
   -3.8530   24.0710  -30.6350 C   0  0  0  0  0  0  0  0  0  0  0  0
   -3.9960   25.3220  -30.6680 O   0  0  0  0  0  0  0  0  0  0  0  0
   -4.8070   23.2250  -31.2450 C   0  0  0  0  0  0  0  0  0  0  0  0
   -5.9780   23.6930  -31.8750 O   0  0  0  0  0  0  0  0  0  0  0  0
   -7.2560   23.8570  -31.2680 C   0  0  0  0  0  0  0  0  0  0  0  0
   -4.5860   21.8340  -31.2020 C   0  0  0  0  0  0  0  0  0  0  0  0
   -5.5300   20.8810  -31.8250 C   0  0  0  0  0  0  0  0  0  0  0  0
   -6.8100   20.7070  -31.2740 C   0  0  0  0  0  0  0  0  0  0  0  0
   -7.7440   19.8830  -31.9010 C   0  0  0  0  0  0  0  0  0  0  0  0
   -7.4200   19.2370  -33.0940 C   0  0  0  0  0  0  0  0  0  0  0  0
   -6.1460   19.4010  -33.6670 C   0  0  0  0  0  0  0  0  0  0  0  0
   -5.7810   18.7690  -34.8660 O   0  0  0  0  0  0  0  0  0  0  0  0
   -5.1280   17.5050  -34.9450 C   0  0  0  0  0  0  0  0  0  0  0  0
   -5.1960   20.2130  -33.0250 C   0  0  0  0  0  0  0  0  0  0  0  0
   -3.9270   20.3390  -33.6010 O   0  0  0  0  0  0  0  0  0  0  0  0
   -2.8140   19.5700  -33.1590 C   0  0  0  0  0  0  0  0  0  0  0  0
   -3.5240   21.3420  -30.5730 O   0  0  0  0  0  0  0  0  0  0  0  0
   -2.6140   22.0990  -29.9770 C   0  0  0  0  0  0  0  0  0  0  0  0
   -1.5310   21.4840  -29.3390 C   0  0  0  0  0  0  0  0  0  0  0  0
    0.9282   19.9403  -27.0071 H   0  0  0  0  0  0  0  0  0  0  0  0
    0.0512   19.7462  -28.5627 H   0  0  0  0  0  0  0  0  0  0  0  0
    1.8083   20.1195  -28.5627 H   0  0  0  0  0  0  0  0  0  0  0  0
    0.1078   24.2627  -28.2170 H   0  0  0  0  0  0  0  0  0  0  0  0
   -7.1466   23.8430  -30.1735 H   0  0  0  0  0  0  0  0  0  0  0  0
   -7.6899   24.8182  -31.5808 H   0  0  0  0  0  0  0  0  0  0  0  0
   -7.9185   23.0365  -31.5808 H   0  0  0  0  0  0  0  0  0  0  0  0
   -7.0778   21.2245  -30.3410 H   0  0  0  0  0  0  0  0  0  0  0  0
   -8.7390   19.7421  -31.4536 H   0  0  0  0  0  0  0  0  0  0  0  0
   -8.1645   18.5962  -33.5891 H   0  0  0  0  0  0  0  0  0  0  0  0
   -4.9336   17.1287  -33.9298 H   0  0  0  0  0  0  0  0  0  0  0  0
   -5.7711   16.7930  -35.4831 H   0  0  0  0  0  0  0  0  0  0  0  0
   -4.1752   17.6175  -35.4831 H   0  0  0  0  0  0  0  0  0  0  0  0
   -2.7922   19.5550  -32.0593 H   0  0  0  0  0  0  0  0  0  0  0  0
   -2.9053   18.5414  -33.5380 H   0  0  0  0  0  0  0  0  0  0  0  0
   -1.8842   20.0193  -33.5380 H   0  0  0  0  0  0  0  0  0  0  0  0
   -1.4500   20.3870  -29.3357 H   0  0  0  0  0  0  0  0  0  0  0  0
  1  2  1  0
  2  3  1  0
  3  4  2  0
  4  5  1  0
  5  6  1  0
  5  7  2  0
  7  8  1  0
  8  9  2  0
  8 10  1  0
 10 11  1  0
 11 12  1  0
 10 13  2  0
 13 14  1  0
 14 15  2  0
 15 16  1  0
 16 17  2  0
 17 18  1  0
 18 19  1  0
 19 20  1  0
 18 21  2  0
 21 22  1  0
 22 23  1  0
 13 24  1  0
 24 25  1  0
 25 26  2  0
 26  3  1  0
 25  7  1  0
 21 14  1  0
  1 27  1  0
  1 28  1  0
  1 29  1  0
  4 30  1  0
 12 31  1  0
 12 32  1  0
 12 33  1  0
 15 34  1  0
 16 35  1  0
 17 36  1  0
 20 37  1  0
 20 38  1  0
 20 39  1  0
 23 40  1  0
 23 41  1  0
 23 42  1  0
 26 43  1  0
M  CHG  1   6  -1
M  END
>  <UniqueID>  (5) 
4

>  <SMILES>  (5) 
COc1cc([O-])c2c(=O)c(OC)c(-c3cccc(OC)c3OC)oc2c1

>  <Energy>  (5) 
64.76446713926417

>  <Genealogy>  (5) 
COc1cc([O-])c2c(=O)c(OC)c(-c3cccc(OC)c3OC)oc2c1 (protonated)
COc1cc([O-])c2c(=O)c(OC)c(-c3cccc(OC)c3OC)oc2c1 (3D coordinates assigned)
COc1cc([O-])c2c(=O)c(OC)c(-c3cccc(OC)c3OC)oc2c1 (optimized conformer: 64.76446713926417 kcal/mol)

>  <smiles>  (5) 
COc1cc(O)c2c(=O)c(OC)c(-c3cccc(OC)c3OC)oc2c1

>  <score_type>  (5) 
oracle

>  <origin>  (5) 
adg

>  <m_score__min__energy>  (5) 
-10.039999999999999

>  <m_primary>  (5) 
energy

$$$$
5:0
     RDKit          3D

 34 36  0  0  0  0  0  0  0  0999 V2000
   -2.3680   25.1540  -29.2060 O   0  0  0  0  0  0  0  0  0  0  0  0
   -3.4620   24.9030  -29.7770 C   0  0  0  0  0  0  0  0  0  0  0  0
   -3.8630   25.6680  -30.8650 O   0  0  0  0  0  0  0  0  0  0  0  0
   -4.3400   23.8040  -29.2730 C   0  0  0  0  0  0  0  0  0  0  0  0
   -5.6920   23.9320  -29.8070 N   0  0  0  0  0  0  0  0  0  0  0  0
   -6.1160   23.4780  -31.0990 C   0  0  0  0  0  0  0  0  0  0  0  0
   -5.9450   24.2280  -32.0940 O   0  0  0  0  0  0  0  0  0  0  0  0
   -6.7220   22.1470  -31.2900 C   0  0  0  0  0  0  0  0  0  0  0  0
   -8.0770   21.9660  -30.9710 C   0  0  0  0  0  0  0  0  0  0  0  0
   -8.6950   20.7320  -31.1800 C   0  0  0  0  0  0  0  0  0  0  0  0
   -7.9670   19.6660  -31.7120 C   0  0  0  0  0  0  0  0  0  0  0  0
   -6.6180   19.8320  -32.0330 C   0  0  0  0  0  0  0  0  0  0  0  0
   -5.9820   21.0660  -31.8220 C   0  0  0  0  0  0  0  0  0  0  0  0
   -4.6000   21.2120  -32.1840 N   0  0  0  0  0  0  0  0  0  0  0  0
   -4.1000   21.5340  -33.4050 C   0  0  0  0  0  0  0  0  0  0  0  0
   -2.7510   21.6560  -33.3950 N   0  0  0  0  0  0  0  0  0  0  0  0
   -2.4020   21.4160  -32.1200 C   0  0  0  0  0  0  0  0  0  0  0  0
   -1.1280   21.4260  -31.5580 C   0  0  0  0  0  0  0  0  0  0  0  0
   -1.0210   21.1520  -30.1810 C   0  0  0  0  0  0  0  0  0  0  0  0
   -2.1770   20.8840  -29.4110 C   0  0  0  0  0  0  0  0  0  0  0  0
   -3.4500   20.8860  -30.0110 C   0  0  0  0  0  0  0  0  0  0  0  0
   -3.5210   21.1570  -31.3790 C   0  0  0  0  0  0  0  0  0  0  0  0
   -3.9200   22.8361  -29.5839 H   0  0  0  0  0  0  0  0  0  0  0  0
   -4.3878   23.8671  -28.1759 H   0  0  0  0  0  0  0  0  0  0  0  0
   -8.6560   22.8028  -30.5533 H   0  0  0  0  0  0  0  0  0  0  0  0
   -9.7568   20.5992  -30.9253 H   0  0  0  0  0  0  0  0  0  0  0  0
   -8.4562   18.6949  -31.8784 H   0  0  0  0  0  0  0  0  0  0  0  0
   -6.0495   18.9898  -32.4543 H   0  0  0  0  0  0  0  0  0  0  0  0
   -4.7208   21.6794  -34.3014 H   0  0  0  0  0  0  0  0  0  0  0  0
   -2.1280   21.9020  -34.1960 H   0  0  0  0  0  0  0  0  0  0  0  0
   -0.2377   21.6401  -32.1675 H   0  0  0  0  0  0  0  0  0  0  0  0
   -0.0315   21.1463  -29.7006 H   0  0  0  0  0  0  0  0  0  0  0  0
   -2.0802   20.6726  -28.3359 H   0  0  0  0  0  0  0  0  0  0  0  0
   -4.3570   20.6813  -29.4232 H   0  0  0  0  0  0  0  0  0  0  0  0
  1  2  2  0
  2  3  1  0
  2  4  1  0
  4  5  1  0
  5  6  1  0
  6  7  2  0
  6  8  1  0
  8  9  2  0
  9 10  1  0
 10 11  2  0
 11 12  1  0
 12 13  2  0
 13 14  1  0
 14 15  1  0
 15 16  2  0
 16 17  1  0
 17 18  2  0
 18 19  1  0
 19 20  2  0
 20 21  1  0
 21 22  2  0
 13  8  1  0
 22 14  1  0
 22 17  1  0
  4 23  1  0
  4 24  1  0
  9 25  1  0
 10 26  1  0
 11 27  1  0
 12 28  1  0
 15 29  1  0
 16 30  1  0
 18 31  1  0
 19 32  1  0
 20 33  1  0
 21 34  1  0
M  CHG  3   3  -1   5  -1  16   1
M  END
>  <UniqueID>  (6) 
5

>  <SMILES>  (6) 
O=C([O-])C[N-]C(=O)c1ccccc1-n1c[nH+]c2ccccc21

>  <Energy>  (6) 
85.34529515447369

>  <Genealogy>  (6) 
O=C([O-])C[N-]C(=O)c1ccccc1-n1c[nH+]c2ccccc21 (protonated)
O=C([O-])C[N-]C(=O)c1ccccc1-n1c[nH+]c2ccccc21 (3D coordinates assigned)
O=C([O-])C[N-]C(=O)c1ccccc1-n1c[nH+]c2ccccc21 (optimized conformer: 85.34529515447369 kcal/mol)

>  <smiles>  (6) 
O=C(O)CNC(=O)c1ccccc1-n1cnc2ccccc21

>  <score_type>  (6) 
oracle

>  <origin>  (6) 
adg

>  <m_score__min__energy>  (6) 
-10.83

>  <m_primary>  (6) 
energy

$$$$
6:0
     RDKit          3D

 50 53  0  0  0  0  0  0  0  0999 V2000
   -1.8100   21.5260  -32.3930 C   0  0  0  0  0  0  0  0  0  0  0  0
   -2.4330   20.7590  -33.4180 O   0  0  0  0  0  0  0  0  0  0  0  0
   -1.9940   19.4960  -33.8500 C   0  0  0  0  0  0  0  0  0  0  0  0
   -0.6280   19.2070  -34.0270 C   0  0  0  0  0  0  0  0  0  0  0  0
   -0.2250   17.9550  -34.4880 C   0  0  0  0  0  0  0  0  0  0  0  0
   -1.1740   16.9740  -34.7800 C   0  0  0  0  0  0  0  0  0  0  0  0
   -2.5450   17.2360  -34.6030 C   0  0  0  0  0  0  0  0  0  0  0  0
   -3.5240   16.2670  -34.8790 O   0  0  0  0  0  0  0  0  0  0  0  0
   -4.0280   15.3320  -33.9290 C   0  0  0  0  0  0  0  0  0  0  0  0
   -2.9510   18.4980  -34.1250 C   0  0  0  0  0  0  0  0  0  0  0  0
   -4.3910   18.7840  -33.9470 C   0  0  0  0  0  0  0  0  0  0  0  0
   -5.3120   18.5310  -34.8890 N   0  0  0  0  0  0  0  0  0  0  0  0
   -6.4830   18.9410  -34.4370 N   0  0  0  0  0  0  0  0  0  0  0  0
   -6.2770   19.4440  -33.1980 C   0  0  0  0  0  0  0  0  0  0  0  0
   -7.4300   20.0380  -32.3790 C   0  0  0  0  0  0  0  0  0  0  0  0
   -7.0650   21.4280  -31.8480 C   0  0  0  0  0  0  0  0  0  0  0  0
   -6.0600   22.1940  -32.4730 C   0  0  0  0  0  0  0  0  0  0  0  0
   -5.6700   23.4280  -31.9430 C   0  0  0  0  0  0  0  0  0  0  0  0
   -6.2490   23.8970  -30.7610 C   0  0  0  0  0  0  0  0  0  0  0  0
   -5.7530   25.4410  -30.0930 Cl  0  0  0  0  0  0  0  0  0  0  0  0
   -7.2040   23.1220  -30.0990 C   0  0  0  0  0  0  0  0  0  0  0  0
   -7.5960   21.8880  -30.6250 C   0  0  0  0  0  0  0  0  0  0  0  0
   -7.9920   19.1040  -31.2900 C   0  0  0  0  0  0  0  0  0  0  0  0
   -9.3260   19.0390  -32.0200 C   0  0  0  0  0  0  0  0  0  0  0  0
   -8.8000   19.9960  -33.0830 C   0  0  0  0  0  0  0  0  0  0  0  0
   -4.9580   19.3450  -32.8530 N   0  0  0  0  0  0  0  0  0  0  0  0
   -4.2690   19.7000  -31.6060 C   0  0  0  0  0  0  0  0  0  0  0  0
   -2.1203   21.1440  -31.4092 H   0  0  0  0  0  0  0  0  0  0  0  0
   -0.7170   21.4470  -32.4889 H   0  0  0  0  0  0  0  0  0  0  0  0
   -2.1113   22.5796  -32.4889 H   0  0  0  0  0  0  0  0  0  0  0  0
    0.1266   19.9744  -33.8000 H   0  0  0  0  0  0  0  0  0  0  0  0
    0.8452   17.7391  -34.6223 H   0  0  0  0  0  0  0  0  0  0  0  0
   -0.8483   15.9908  -35.1505 H   0  0  0  0  0  0  0  0  0  0  0  0
   -3.8296   15.7000  -32.9115 H   0  0  0  0  0  0  0  0  0  0  0  0
   -5.1123   15.2133  -34.0711 H   0  0  0  0  0  0  0  0  0  0  0  0
   -3.5311   14.3610  -34.0711 H   0  0  0  0  0  0  0  0  0  0  0  0
   -5.1530   18.1080  -35.8300 H   0  0  0  0  0  0  0  0  0  0  0  0
   -5.5776   21.8172  -33.3870 H   0  0  0  0  0  0  0  0  0  0  0  0
   -4.9065   24.0301  -32.4573 H   0  0  0  0  0  0  0  0  0  0  0  0
   -7.6490   23.4841  -29.1605 H   0  0  0  0  0  0  0  0  0  0  0  0
   -8.3251   21.2700  -30.0804 H   0  0  0  0  0  0  0  0  0  0  0  0
   -7.4732   18.1366  -31.2186 H   0  0  0  0  0  0  0  0  0  0  0  0
   -7.9542   19.4021  -30.2318 H   0  0  0  0  0  0  0  0  0  0  0  0
   -9.5788   18.0393  -32.4030 H   0  0  0  0  0  0  0  0  0  0  0  0
  -10.2612   19.2636  -31.4862 H   0  0  0  0  0  0  0  0  0  0  0  0
   -8.7702   19.5678  -34.0958 H   0  0  0  0  0  0  0  0  0  0  0  0
   -9.3385   20.9295  -33.3033 H   0  0  0  0  0  0  0  0  0  0  0  0
   -4.8799   19.3852  -30.7471 H   0  0  0  0  0  0  0  0  0  0  0  0
   -3.2941   19.1920  -31.5683 H   0  0  0  0  0  0  0  0  0  0  0  0
   -4.1168   20.7888  -31.5683 H   0  0  0  0  0  0  0  0  0  0  0  0
  1  2  1  0
  2  3  1  0
  3  4  2  0
  4  5  1  0
  5  6  2  0
  6  7  1  0
  7  8  1  0
  8  9  1  0
  7 10  2  0
 10 11  1  0
 11 12  2  0
 12 13  1  0
 13 14  2  0
 14 15  1  0
 15 16  1  0
 16 17  2  0
 17 18  1  0
 18 19  2  0
 19 20  1  0
 19 21  1  0
 21 22  2  0
 15 23  1  0
 23 24  1  0
 24 25  1  0
 14 26  1  0
 26 27  1  0
 10  3  1  0
 26 11  1  0
 25 15  1  0
 22 16  1  0
  1 28  1  0
  1 29  1  0
  1 30  1  0
  4 31  1  0
  5 32  1  0
  6 33  1  0
  9 34  1  0
  9 35  1  0
  9 36  1  0
 12 37  1  0
 17 38  1  0
 18 39  1  0
 21 40  1  0
 22 41  1  0
 23 42  1  0
 23 43  1  0
 24 44  1  0
 24 45  1  0
 25 46  1  0
 25 47  1  0
 27 48  1  0
 27 49  1  0
 27 50  1  0
M  CHG  1  12   1
M  END
>  <UniqueID>  (7) 
6

>  <SMILES>  (7) 
COc1cccc(OC)c1-c1[nH+]nc(C2(c3ccc(Cl)cc3)CCC2)n1C

>  <Energy>  (7) 
163.13448278256246

>  <Genealogy>  (7) 
COc1cccc(OC)c1-c1[nH+]nc(C2(c3ccc(Cl)cc3)CCC2)n1C (protonated)
COc1cccc(OC)c1-c1[nH+]nc(C2(c3ccc(Cl)cc3)CCC2)n1C (3D coordinates assigned)
COc1cccc(OC)c1-c1[nH+]nc(C2(c3ccc(Cl)cc3)CCC2)n1C (nonaromatic ring conformer: 163.13448278256246 kcal/mol)

>  <smiles>  (7) 
COc1cccc(OC)c1-c1nnc(C2(c3ccc(Cl)cc3)CCC2)n1C

>  <score_type>  (7) 
oracle

>  <origin>  (7) 
adg

>  <m_score__min__energy>  (7) 
-8.0399999999999991

>  <m_primary>  (7) 
energy

$$$$
7:0
     RDKit          3D

 55 58  0  0  0  0  0  0  0  0999 V2000
   -4.2560   13.6450  -31.1910 C   0  0  0  0  0  0  0  0  0  0  0  0
   -3.6520   13.9420  -32.4450 O   0  0  0  0  0  0  0  0  0  0  0  0
   -3.8790   13.2250  -33.6320 C   0  0  0  0  0  0  0  0  0  0  0  0
   -2.9780   12.2390  -34.0830 C   0  0  0  0  0  0  0  0  0  0  0  0
   -3.2280   11.5390  -35.2650 C   0  0  0  0  0  0  0  0  0  0  0  0
   -4.3750   11.8090  -36.0110 C   0  0  0  0  0  0  0  0  0  0  0  0
   -5.2760   12.7820  -35.5770 C   0  0  0  0  0  0  0  0  0  0  0  0
   -5.0380   13.4990  -34.3930 C   0  0  0  0  0  0  0  0  0  0  0  0
   -6.0470   14.5290  -33.9500 C   0  0  0  0  0  0  0  0  0  0  0  0
   -5.3800   15.7930  -33.6450 N   0  0  0  0  0  0  0  0  0  0  0  0
   -6.0580   17.0590  -33.7280 C   0  0  0  0  0  0  0  0  0  0  0  0
   -7.2390   17.1050  -34.1690 O   0  0  0  0  0  0  0  0  0  0  0  0
   -5.3890   18.3170  -33.3160 C   0  0  0  0  0  0  0  0  0  0  0  0
   -5.9440   19.1500  -32.3270 C   0  0  0  0  0  0  0  0  0  0  0  0
   -5.3050   20.3350  -31.9570 C   0  0  0  0  0  0  0  0  0  0  0  0
   -4.1020   20.7170  -32.5710 C   0  0  0  0  0  0  0  0  0  0  0  0
   -3.4370   22.0170  -32.1970 C   0  0  0  0  0  0  0  0  0  0  0  0
   -3.0190   21.9950  -30.7800 N   0  0  0  0  0  0  0  0  0  0  0  0
   -2.3240   20.9150  -30.2970 C   0  0  0  0  0  0  0  0  0  0  0  0
   -2.0680   19.9190  -31.0290 O   0  0  0  0  0  0  0  0  0  0  0  0
   -1.8930   20.9300  -28.9830 C   0  0  0  0  0  0  0  0  0  0  0  0
   -1.0070   19.7720  -28.1490 S   0  0  0  0  0  0  0  0  0  0  0  0
   -0.9430   20.6460  -26.7070 C   0  0  0  0  0  0  0  0  0  0  0  0
   -1.6160   21.8550  -26.8750 C   0  0  0  0  0  0  0  0  0  0  0  0
   -2.1570   22.0060  -28.1670 C   0  0  0  0  0  0  0  0  0  0  0  0
   -2.8670   23.0790  -28.6380 N   0  0  0  0  0  0  0  0  0  0  0  0
   -3.1420   24.2450  -27.7740 C   0  0  0  0  0  0  0  0  0  0  0  0
   -2.0770   25.2830  -27.9490 C   0  0  0  0  0  0  0  0  0  0  0  0
   -1.6080   25.6070  -29.2550 N   0  0  0  0  0  0  0  0  0  0  0  0
   -1.5810   25.8570  -26.9440 O   0  0  0  0  0  0  0  0  0  0  0  0
   -3.2800   23.0750  -29.9550 C   0  0  0  0  0  0  0  0  0  0  0  0
   -3.9050   24.0720  -30.4150 O   0  0  0  0  0  0  0  0  0  0  0  0
   -3.5530   19.8970  -33.5680 C   0  0  0  0  0  0  0  0  0  0  0  0
   -4.1910   18.7100  -33.9380 C   0  0  0  0  0  0  0  0  0  0  0  0
   -3.5916   13.9717  -30.3775 H   0  0  0  0  0  0  0  0  0  0  0  0
   -5.2179   14.1729  -31.1132 H   0  0  0  0  0  0  0  0  0  0  0  0
   -4.4253   12.5609  -31.1132 H   0  0  0  0  0  0  0  0  0  0  0  0
   -2.0716   12.0196  -33.4996 H   0  0  0  0  0  0  0  0  0  0  0  0
   -2.5181   10.7723  -35.6088 H   0  0  0  0  0  0  0  0  0  0  0  0
   -4.5693   11.2551  -36.9413 H   0  0  0  0  0  0  0  0  0  0  0  0
   -6.1807   12.9893  -36.1674 H   0  0  0  0  0  0  0  0  0  0  0  0
   -6.7790   14.6899  -34.7552 H   0  0  0  0  0  0  0  0  0  0  0  0
   -6.5563   14.1654  -33.0453 H   0  0  0  0  0  0  0  0  0  0  0  0
   -4.3600   15.7620  -33.4300 H   0  0  0  0  0  0  0  0  0  0  0  0
   -6.8890   18.8653  -31.8414 H   0  0  0  0  0  0  0  0  0  0  0  0
   -5.7476   20.9739  -31.1786 H   0  0  0  0  0  0  0  0  0  0  0  0
   -2.5523   22.1673  -32.8332 H   0  0  0  0  0  0  0  0  0  0  0  0
   -4.1535   22.8386  -32.3440 H   0  0  0  0  0  0  0  0  0  0  0  0
   -0.4489   20.3145  -25.7818 H   0  0  0  0  0  0  0  0  0  0  0  0
   -1.7143   22.6114  -26.0824 H   0  0  0  0  0  0  0  0  0  0  0  0
   -4.1170   24.6759  -28.0453 H   0  0  0  0  0  0  0  0  0  0  0  0
   -3.1542   23.9178  -26.7239 H   0  0  0  0  0  0  0  0  0  0  0  0
   -2.1290   25.2940  -30.1040 H   0  0  0  0  0  0  0  0  0  0  0  0
   -2.6146   20.1901  -34.0615 H   0  0  0  0  0  0  0  0  0  0  0  0
   -3.7517   18.0772  -34.7233 H   0  0  0  0  0  0  0  0  0  0  0  0
  1  2  1  0
  2  3  1  0
  3  4  2  0
  4  5  1  0
  5  6  2  0
  6  7  1  0
  7  8  2  0
  8  9  1  0
  9 10  1  0
 10 11  1  0
 11 12  2  0
 11 13  1  0
 13 14  2  0
 14 15  1  0
 15 16  2  0
 16 17  1  0
 17 18  1  0
 18 19  1  0
 19 20  2  0
 19 21  1  0
 21 22  1  0
 22 23  1  0
 23 24  2  0
 24 25  1  0
 25 26  1  0
 26 27  1  0
 27 28  1  0
 28 29  1  0
 28 30  2  0
 26 31  1  0
 31 32  2  0
 16 33  1  0
 33 34  2  0
  8  3  1  0
 34 13  1  0
 31 18  1  0
 25 21  2  0
  1 35  1  0
  1 36  1  0
  1 37  1  0
  4 38  1  0
  5 39  1  0
  6 40  1  0
  7 41  1  0
  9 42  1  0
  9 43  1  0
 10 44  1  0
 14 45  1  0
 15 46  1  0
 17 47  1  0
 17 48  1  0
 23 49  1  0
 24 50  1  0
 27 51  1  0
 27 52  1  0
 29 53  1  0
 33 54  1  0
 34 55  1  0
M  CHG  1  29  -1
M  END
>  <UniqueID>  (8) 
7

>  <SMILES>  (8) 
COc1ccccc1CNC(=O)c1ccc(Cn2c(=O)c3sccc3n(CC([NH-])=O)c2=O)cc1

>  <Energy>  (8) 
97.29546054910246

>  <Genealogy>  (8) 
COc1ccccc1CNC(=O)c1ccc(Cn2c(=O)c3sccc3n(CC([NH-])=O)c2=O)cc1 (protonated)
COc1ccccc1CNC(=O)c1ccc(Cn2c(=O)c3sccc3n(CC([NH-])=O)c2=O)cc1 (3D coordinates assigned)
COc1ccccc1CNC(=O)c1ccc(Cn2c(=O)c3sccc3n(CC([NH-])=O)c2=O)cc1 (optimized conformer: 97.29546054910246 kcal/mol)

>  <smiles>  (8) 
COc1ccccc1CNC(=O)c1ccc(Cn2c(=O)c3sccc3n(CC(N)=O)c2=O)cc1

>  <score_type>  (8) 
oracle

>  <origin>  (8) 
adg

>  <m_score__min__energy>  (8) 
-11.57

>  <m_primary>  (8) 
energy

$$$$
8:0
     RDKit          3D

 46 47  0  0  0  0  0  0  0  0999 V2000
   -5.7480   17.8210  -35.0130 C   0  0  0  0  0  0  0  0  0  0  0  0
   -5.1170   16.8480  -34.0170 C   0  0  0  0  0  0  0  0  0  0  0  0
   -5.8140   16.8760  -32.6500 C   0  0  0  0  0  0  0  0  0  0  0  0
   -6.2660   18.2590  -32.2860 C   0  0  0  0  0  0  0  0  0  0  0  0
   -7.5160   18.5740  -31.8680 N   0  0  0  0  0  0  0  0  0  0  0  0
   -7.5720   19.8910  -31.6800 N   0  0  0  0  0  0  0  0  0  0  0  0
   -8.7600   20.5790  -31.1920 C   0  0  0  0  0  0  0  0  0  0  0  0
   -6.3700   20.4240  -31.9940 C   0  0  0  0  0  0  0  0  0  0  0  0
   -5.8960   21.7380  -31.9670 C   0  0  0  0  0  0  0  0  0  0  0  0
   -6.7310   22.8520  -31.6210 N   0  0  0  0  0  0  0  0  0  0  0  0
   -7.5580   23.4330  -32.6900 C   0  0  0  0  0  0  0  0  0  0  0  0
   -9.0380   23.4130  -32.3170 C   0  0  0  0  0  0  0  0  0  0  0  0
   -6.3480   23.6390  -30.4380 C   0  0  0  0  0  0  0  0  0  0  0  0
   -5.7640   25.0040  -30.8100 C   0  0  0  0  0  0  0  0  0  0  0  0
   -4.3560   24.9070  -30.8430 O   0  0  0  0  0  0  0  0  0  0  0  0
   -3.9310   23.9510  -29.8980 C   0  0  0  0  0  0  0  0  0  0  0  0
   -4.5920   21.9440  -32.3180 N   0  0  0  0  0  0  0  0  0  0  0  0
   -3.7740   20.9120  -32.7010 C   0  0  0  0  0  0  0  0  0  0  0  0
   -2.3470   21.1830  -33.0440 C   0  0  0  0  0  0  0  0  0  0  0  0
   -4.2460   19.6290  -32.7210 N   0  0  0  0  0  0  0  0  0  0  0  0
   -5.5360   19.4220  -32.3700 C   0  0  0  0  0  0  0  0  0  0  0  0
   -6.2670   18.6213  -34.4651 H   0  0  0  0  0  0  0  0  0  0  0  0
   -4.9620   18.2596  -35.6453 H   0  0  0  0  0  0  0  0  0  0  0  0
   -6.4691   17.2822  -35.6453 H   0  0  0  0  0  0  0  0  0  0  0  0
   -5.1844   15.8295  -34.4271 H   0  0  0  0  0  0  0  0  0  0  0  0
   -4.0711   17.1535  -33.8664 H   0  0  0  0  0  0  0  0  0  0  0  0
   -6.6902   16.2117  -32.6829 H   0  0  0  0  0  0  0  0  0  0  0  0
   -5.0928   16.5399  -31.8904 H   0  0  0  0  0  0  0  0  0  0  0  0
   -8.7584   20.5781  -30.0920 H   0  0  0  0  0  0  0  0  0  0  0  0
   -8.7592   21.6164  -31.5578 H   0  0  0  0  0  0  0  0  0  0  0  0
   -9.6594   20.0620  -31.5578 H   0  0  0  0  0  0  0  0  0  0  0  0
   -7.2450   24.4738  -32.8600 H   0  0  0  0  0  0  0  0  0  0  0  0
   -7.4208   22.8324  -33.6013 H   0  0  0  0  0  0  0  0  0  0  0  0
   -9.1401   23.4116  -31.2218 H   0  0  0  0  0  0  0  0  0  0  0  0
   -9.5324   24.3045  -32.7302 H   0  0  0  0  0  0  0  0  0  0  0  0
   -9.5081   22.5084  -32.7302 H   0  0  0  0  0  0  0  0  0  0  0  0
   -7.2399   23.7946  -29.8132 H   0  0  0  0  0  0  0  0  0  0  0  0
   -5.5712   23.0774  -29.8984 H   0  0  0  0  0  0  0  0  0  0  0  0
   -6.1362   25.3073  -31.7997 H   0  0  0  0  0  0  0  0  0  0  0  0
   -6.0679   25.7542  -30.0651 H   0  0  0  0  0  0  0  0  0  0  0  0
   -4.1029   24.3376  -28.8826 H   0  0  0  0  0  0  0  0  0  0  0  0
   -4.5000   23.0199  -30.0370 H   0  0  0  0  0  0  0  0  0  0  0  0
   -2.8586   23.7496  -30.0370 H   0  0  0  0  0  0  0  0  0  0  0  0
   -1.7623   21.2940  -32.1189 H   0  0  0  0  0  0  0  0  0  0  0  0
   -1.9459   20.3450  -33.6329 H   0  0  0  0  0  0  0  0  0  0  0  0
   -2.2811   22.1097  -33.6329 H   0  0  0  0  0  0  0  0  0  0  0  0
  1  2  1  0
  2  3  1  0
  3  4  1  0
  4  5  2  0
  5  6  1  0
  6  7  1  0
  6  8  1  0
  8  9  2  0
  9 10  1  0
 10 11  1  0
 11 12  1  0
 10 13  1  0
 13 14  1  0
 14 15  1  0
 15 16  1  0
  9 17  1  0
 17 18  2  0
 18 19  1  0
 18 20  1  0
 20 21  2  0
 21  4  1  0
 21  8  1  0
  1 22  1  0
  1 23  1  0
  1 24  1  0
  2 25  1  0
  2 26  1  0
  3 27  1  0
  3 28  1  0
  7 29  1  0
  7 30  1  0
  7 31  1  0
 11 32  1  0
 11 33  1  0
 12 34  1  0
 12 35  1  0
 12 36  1  0
 13 37  1  0
 13 38  1  0
 14 39  1  0
 14 40  1  0
 16 41  1  0
 16 42  1  0
 16 43  1  0
 19 44  1  0
 19 45  1  0
 19 46  1  0
M  END
>  <UniqueID>  (9) 
8

>  <SMILES>  (9) 
CCCc1nn(C)c2c(N(CC)CCOC)nc(C)nc12

>  <Energy>  (9) 
82.06380385006639

>  <Genealogy>  (9) 
CCCc1nn(C)c2c(N(CC)CCOC)nc(C)nc12 (3D coordinates assigned)
CCCc1nn(C)c2c(N(CC)CCOC)nc(C)nc12 (optimized conformer: 82.06380385006639 kcal/mol)

>  <smiles>  (9) 
CCCc1nn(C)c2c(N(CC)CCOC)nc(C)nc12

>  <score_type>  (9) 
oracle

>  <origin>  (9) 
adg

>  <m_score__min__energy>  (9) 
-6.7699999999999996

>  <m_primary>  (9) 
energy

$$$$
9:0
     RDKit          3D

 52 55  0  0  0  0  0  0  0  0999 V2000
   -5.6170   25.9570  -30.7500 O   0  0  0  0  0  0  0  0  0  0  0  0
   -4.8350   24.9760  -30.8450 C   0  0  0  0  0  0  0  0  0  0  0  0
   -3.4900   25.1150  -30.3600 N   0  0  0  0  0  0  0  0  0  0  0  0
   -3.0500   24.9110  -28.9820 C   0  0  0  0  0  0  0  0  0  0  0  0
   -3.0470   23.4070  -28.6260 C   0  0  0  0  0  0  0  0  0  0  0  0
   -2.5060   22.5250  -29.6910 N   0  0  0  0  0  0  0  0  0  0  0  0
   -3.0540   21.1510  -29.6300 C   0  0  0  0  0  0  0  0  0  0  0  0
   -2.7050   20.3880  -30.9180 C   0  0  0  0  0  0  0  0  0  0  0  0
   -1.3480   20.7210  -31.3670 N   0  0  0  0  0  0  0  0  0  0  0  0
   -0.9490   20.4520  -32.7250 C   0  0  0  0  0  0  0  0  0  0  0  0
   -1.2790   19.2310  -33.3350 C   0  0  0  0  0  0  0  0  0  0  0  0
   -0.8840   18.9680  -34.6480 C   0  0  0  0  0  0  0  0  0  0  0  0
   -0.1690   19.9250  -35.3710 C   0  0  0  0  0  0  0  0  0  0  0  0
    0.1390   21.1690  -34.7940 C   0  0  0  0  0  0  0  0  0  0  0  0
    0.9430   22.1910  -35.5590 C   0  0  0  0  0  0  0  0  0  0  0  0
    0.1360   23.2420  -35.9590 F   0  0  0  0  0  0  0  0  0  0  0  0
    1.9490   22.6780  -34.7450 F   0  0  0  0  0  0  0  0  0  0  0  0
    1.5110   21.6280  -36.6880 F   0  0  0  0  0  0  0  0  0  0  0  0
   -0.2390   21.4160  -33.4630 C   0  0  0  0  0  0  0  0  0  0  0  0
   -0.4070   21.3030  -30.4040 C   0  0  0  0  0  0  0  0  0  0  0  0
   -1.0180   22.5500  -29.7330 C   0  0  0  0  0  0  0  0  0  0  0  0
   -5.3460   23.7170  -31.4090 C   0  0  0  0  0  0  0  0  0  0  0  0
   -6.6720   23.2850  -31.3950 C   0  0  0  0  0  0  0  0  0  0  0  0
   -6.6380   22.0690  -32.0360 C   0  0  0  0  0  0  0  0  0  0  0  0
   -7.6560   21.1650  -32.3310 C   0  0  0  0  0  0  0  0  0  0  0  0
   -7.3050   19.9820  -33.0060 C   0  0  0  0  0  0  0  0  0  0  0  0
   -5.9580   19.7340  -33.3610 C   0  0  0  0  0  0  0  0  0  0  0  0
   -4.9540   20.6670  -33.0450 C   0  0  0  0  0  0  0  0  0  0  0  0
   -5.3340   21.8300  -32.3780 C   0  0  0  0  0  0  0  0  0  0  0  0
   -4.5700   22.8200  -31.9900 O   0  0  0  0  0  0  0  0  0  0  0  0
   -2.0323   25.3117  -28.8649 H   0  0  0  0  0  0  0  0  0  0  0  0
   -3.7456   25.4324  -28.3080 H   0  0  0  0  0  0  0  0  0  0  0  0
   -2.4361   23.2688  -27.7217 H   0  0  0  0  0  0  0  0  0  0  0  0
   -4.0982   23.1166  -28.4822 H   0  0  0  0  0  0  0  0  0  0  0  0
   -2.8390   22.9440  -30.5950 H   0  0  0  0  0  0  0  0  0  0  0  0
   -2.6218   20.6245  -28.7663 H   0  0  0  0  0  0  0  0  0  0  0  0
   -4.1479   21.2029  -29.5263 H   0  0  0  0  0  0  0  0  0  0  0  0
   -2.7663   19.3068  -30.7250 H   0  0  0  0  0  0  0  0  0  0  0  0
   -3.4183   20.6765  -31.7041 H   0  0  0  0  0  0  0  0  0  0  0  0
   -1.8521   18.4773  -32.7751 H   0  0  0  0  0  0  0  0  0  0  0  0
   -1.1367   18.0043  -35.1142 H   0  0  0  0  0  0  0  0  0  0  0  0
    0.1552   19.7039  -36.3986 H   0  0  0  0  0  0  0  0  0  0  0  0
    0.0237   22.3751  -32.9927 H   0  0  0  0  0  0  0  0  0  0  0  0
   -0.1717   20.5558  -29.6318 H   0  0  0  0  0  0  0  0  0  0  0  0
    0.5078   21.6001  -30.9377 H   0  0  0  0  0  0  0  0  0  0  0  0
   -0.6404   22.6123  -28.7017 H   0  0  0  0  0  0  0  0  0  0  0  0
   -0.7231   23.4221  -30.3350 H   0  0  0  0  0  0  0  0  0  0  0  0
   -7.5457   23.7996  -30.9685 H   0  0  0  0  0  0  0  0  0  0  0  0
   -8.6986   21.3693  -32.0458 H   0  0  0  0  0  0  0  0  0  0  0  0
   -8.0819   19.2456  -33.2593 H   0  0  0  0  0  0  0  0  0  0  0  0
   -5.6941   18.8051  -33.8878 H   0  0  0  0  0  0  0  0  0  0  0  0
   -3.9035   20.4846  -33.3155 H   0  0  0  0  0  0  0  0  0  0  0  0
  1  2  2  0
  2  3  1  0
  3  4  1  0
  4  5  1  0
  5  6  1  0
  6  7  1  0
  7  8  1  0
  8  9  1  0
  9 10  1  0
 10 11  2  0
 11 12  1  0
 12 13  2  0
 13 14  1  0
 14 15  1  0
 15 16  1  0
 15 17  1  0
 15 18  1  0
 14 19  2  0
  9 20  1  0
 20 21  1  0
  2 22  1  0
 22 23  2  0
 23 24  1  0
 24 25  2  0
 25 26  1  0
 26 27  2  0
 27 28  1  0
 28 29  2  0
 29 30  1  0
 21  6  1  0
 30 22  1  0
 19 10  1  0
 29 24  1  0
  4 31  1  0
  4 32  1  0
  5 33  1  0
  5 34  1  0
  6 35  1  0
  7 36  1  0
  7 37  1  0
  8 38  1  0
  8 39  1  0
 11 40  1  0
 12 41  1  0
 13 42  1  0
 19 43  1  0
 20 44  1  0
 20 45  1  0
 21 46  1  0
 21 47  1  0
 23 48  1  0
 25 49  1  0
 26 50  1  0
 27 51  1  0
 28 52  1  0
M  CHG  2   3  -1   6   1
M  END
>  <UniqueID>  (10) 
9

>  <SMILES>  (10) 
O=C([N-]CC[NH+]1CCN(c2cccc(C(F)(F)F)c2)CC1)c1cc2ccccc2o1

>  <Energy>  (10) 
103.4741599683136

>  <Genealogy>  (10) 
O=C([N-]CC[NH+]1CCN(c2cccc(C(F)(F)F)c2)CC1)c1cc2ccccc2o1 (protonated)
O=C([N-]CC[NH+]1CCN(c2cccc(C(F)(F)F)c2)CC1)c1cc2ccccc2o1 (3D coordinates assigned)
O=C([N-]CC[NH+]1CCN(c2cccc(C(F)(F)F)c2)CC1)c1cc2ccccc2o1 (nonaromatic ring conformer: 103.4741599683136 kcal/mol)

>  <smiles>  (10) 
O=C(NCCN1CCN(c2cccc(C(F)(F)F)c2)CC1)c1cc2ccccc2o1

>  <score_type>  (10) 
oracle

>  <origin>  (10) 
adg

>  <m_score__min__energy>  (10) 
-10.33

>  <m_primary>  (10) 
energy

$$$$
10:0
     RDKit          3D

 49 51  0  0  0  0  0  0  0  0999 V2000
   -0.9030   27.5010  -25.1740 C   0  0  0  0  0  0  0  0  0  0  0  0
   -1.9570   26.4280  -24.9030 C   0  0  0  0  0  0  0  0  0  0  0  0
   -2.4550   25.8150  -26.1600 N   0  0  0  0  0  0  0  0  0  0  0  0
   -3.8330   25.3000  -25.9740 C   0  0  0  0  0  0  0  0  0  0  0  0
   -4.1930   24.3090  -27.0810 C   0  0  0  0  0  0  0  0  0  0  0  0
   -1.5390   24.7520  -26.6490 C   0  0  0  0  0  0  0  0  0  0  0  0
   -1.0190   25.1080  -28.0160 C   0  0  0  0  0  0  0  0  0  0  0  0
    0.2150   25.3060  -28.1690 O   0  0  0  0  0  0  0  0  0  0  0  0
   -1.8790   25.1880  -29.1600 N   0  0  0  0  0  0  0  0  0  0  0  0
   -2.4780   24.0830  -29.8510 C   0  0  0  0  0  0  0  0  0  0  0  0
   -1.8910   22.8090  -29.8240 C   0  0  0  0  0  0  0  0  0  0  0  0
   -2.4980   21.7360  -30.4790 C   0  0  0  0  0  0  0  0  0  0  0  0
   -3.7120   21.9120  -31.1630 C   0  0  0  0  0  0  0  0  0  0  0  0
   -4.3480   20.7690  -31.8620 C   0  0  0  0  0  0  0  0  0  0  0  0
   -5.4910   20.1570  -31.4490 N   0  0  0  0  0  0  0  0  0  0  0  0
   -5.8550   19.1430  -32.2770 C   0  0  0  0  0  0  0  0  0  0  0  0
   -6.9880   18.3430  -32.1090 C   0  0  0  0  0  0  0  0  0  0  0  0
   -7.2450   17.3320  -33.0500 C   0  0  0  0  0  0  0  0  0  0  0  0
   -6.3760   17.1340  -34.1420 C   0  0  0  0  0  0  0  0  0  0  0  0
   -5.2430   17.9470  -34.3030 C   0  0  0  0  0  0  0  0  0  0  0  0
   -5.0100   18.9410  -33.3570 C   0  0  0  0  0  0  0  0  0  0  0  0
   -3.7610   20.0590  -33.2910 S   0  0  0  0  0  0  0  0  0  0  0  0
   -4.3160   23.1810  -31.1570 C   0  0  0  0  0  0  0  0  0  0  0  0
   -3.7070   24.2680  -30.4990 C   0  0  0  0  0  0  0  0  0  0  0  0
   -4.2890   25.5470  -30.4750 O   0  0  0  0  0  0  0  0  0  0  0  0
   -5.6680   25.8030  -30.2290 C   0  0  0  0  0  0  0  0  0  0  0  0
   -0.5213   27.8896  -24.2184 H   0  0  0  0  0  0  0  0  0  0  0  0
   -0.0738   27.0635  -25.7493 H   0  0  0  0  0  0  0  0  0  0  0  0
   -1.3553   28.3222  -25.7493 H   0  0  0  0  0  0  0  0  0  0  0  0
   -1.5118   25.6419  -24.2755 H   0  0  0  0  0  0  0  0  0  0  0  0
   -2.8078   26.9050  -24.3945 H   0  0  0  0  0  0  0  0  0  0  0  0
   -3.9009   24.7936  -24.9998 H   0  0  0  0  0  0  0  0  0  0  0  0
   -4.5352   26.1457  -26.0141 H   0  0  0  0  0  0  0  0  0  0  0  0
   -4.5358   23.3655  -26.6312 H   0  0  0  0  0  0  0  0  0  0  0  0
   -4.9953   24.7309  -27.7041 H   0  0  0  0  0  0  0  0  0  0  0  0
   -3.3070   24.1176  -27.7041 H   0  0  0  0  0  0  0  0  0  0  0  0
   -0.6935   24.6513  -25.9526 H   0  0  0  0  0  0  0  0  0  0  0  0
   -2.0890   23.8013  -26.7087 H   0  0  0  0  0  0  0  0  0  0  0  0
   -0.9458   22.6545  -29.2829 H   0  0  0  0  0  0  0  0  0  0  0  0
   -2.0217   20.7447  -30.4593 H   0  0  0  0  0  0  0  0  0  0  0  0
   -6.0480   20.4380  -30.6120 H   0  0  0  0  0  0  0  0  0  0  0  0
   -7.6653   18.5016  -31.2569 H   0  0  0  0  0  0  0  0  0  0  0  0
   -8.1308   16.6903  -32.9338 H   0  0  0  0  0  0  0  0  0  0  0  0
   -6.5867   16.3384  -34.8717 H   0  0  0  0  0  0  0  0  0  0  0  0
   -4.5590   17.8027  -35.1523 H   0  0  0  0  0  0  0  0  0  0  0  0
   -5.2765   23.3275  -31.6726 H   0  0  0  0  0  0  0  0  0  0  0  0
   -5.8469   25.8362  -29.1442 H   0  0  0  0  0  0  0  0  0  0  0  0
   -5.9472   26.7683  -30.6764 H   0  0  0  0  0  0  0  0  0  0  0  0
   -6.2751   25.0022  -30.6764 H   0  0  0  0  0  0  0  0  0  0  0  0
  1  2  1  0
  2  3  1  0
  3  4  1  0
  4  5  1  0
  3  6  1  0
  6  7  1  0
  7  8  2  0
  7  9  1  0
  9 10  1  0
 10 11  2  0
 11 12  1  0
 12 13  2  0
 13 14  1  0
 14 15  2  0
 15 16  1  0
 16 17  2  0
 17 18  1  0
 18 19  2  0
 19 20  1  0
 20 21  2  0
 21 22  1  0
 13 23  1  0
 23 24  2  0
 24 25  1  0
 25 26  1  0
 24 10  1  0
 22 14  1  0
 21 16  1  0
  1 27  1  0
  1 28  1  0
  1 29  1  0
  2 30  1  0
  2 31  1  0
  4 32  1  0
  4 33  1  0
  5 34  1  0
  5 35  1  0
  5 36  1  0
  6 37  1  0
  6 38  1  0
 11 39  1  0
 12 40  1  0
 15 41  1  0
 17 42  1  0
 18 43  1  0
 19 44  1  0
 20 45  1  0
 23 46  1  0
 26 47  1  0
 26 48  1  0
 26 49  1  0
M  CHG  2   9  -1  15   1
M  END
>  <UniqueID>  (11) 
10

>  <SMILES>  (11) 
CCN(CC)CC(=O)[N-]c1ccc(-c2[nH+]c3ccccc3s2)cc1OC

>  <Energy>  (11) 
91.98663943168408

>  <Genealogy>  (11) 
CCN(CC)CC(=O)[N-]c1ccc(-c2[nH+]c3ccccc3s2)cc1OC (protonated)
CCN(CC)CC(=O)[N-]c1ccc(-c2[nH+]c3ccccc3s2)cc1OC (3D coordinates assigned)
CCN(CC)CC(=O)[N-]c1ccc(-c2[nH+]c3ccccc3s2)cc1OC (optimized conformer: 91.98663943168408 kcal/mol)

>  <smiles>  (11) 
CCN(CC)CC(=O)Nc1ccc(-c2nc3ccccc3s2)cc1OC

>  <score_type>  (11) 
oracle

>  <origin>  (11) 
adg

>  <m_score__min__energy>  (11) 
-9.8200000000000003

>  <m_primary>  (11) 
energy

$$$$
11:0
     RDKit          3D

 55 57  0  0  0  0  0  0  0  0999 V2000
   -6.9760   17.7090  -32.7190 C   0  0  0  0  0  0  0  0  0  0  0  0
   -7.2920   19.1410  -32.4250 C   0  0  0  0  0  0  0  0  0  0  0  0
   -8.3950   19.5290  -31.7560 N   0  0  0  0  0  0  0  0  0  0  0  0
   -8.3570   20.8480  -31.6460 N   0  0  0  0  0  0  0  0  0  0  0  0
   -9.3960   21.6280  -30.9830 C   0  0  0  0  0  0  0  0  0  0  0  0
   -7.2480   21.3270  -32.2480 C   0  0  0  0  0  0  0  0  0  0  0  0
   -6.8590   22.7760  -32.2940 C   0  0  0  0  0  0  0  0  0  0  0  0
   -6.5130   20.2530  -32.7300 C   0  0  0  0  0  0  0  0  0  0  0  0
   -5.1900   20.2880  -33.4490 C   0  0  0  0  0  0  0  0  0  0  0  0
   -4.1000   21.1100  -32.7200 C   0  0  0  0  0  0  0  0  0  0  0  0
   -2.9970   20.3270  -32.1030 N   0  0  0  0  0  0  0  0  0  0  0  0
   -2.2510   19.4870  -33.0630 C   0  0  0  0  0  0  0  0  0  0  0  0
   -0.7650   19.4560  -32.6890 C   0  0  0  0  0  0  0  0  0  0  0  0
    0.1090   19.2250  -33.9250 C   0  0  0  0  0  0  0  0  0  0  0  0
    0.6060   20.5000  -34.4340 N   0  0  0  0  0  0  0  0  0  0  0  0
    1.8720   20.7970  -34.7690 C   0  0  0  0  0  0  0  0  0  0  0  0
    1.8830   22.0780  -35.2740 C   0  0  0  0  0  0  0  0  0  0  0  0
    0.6280   22.5780  -35.2700 N   0  0  0  0  0  0  0  0  0  0  0  0
   -0.1250   21.5840  -34.7550 C   0  0  0  0  0  0  0  0  0  0  0  0
   -2.1100   21.1070  -31.2120 C   0  0  0  0  0  0  0  0  0  0  0  0
   -2.9010   22.1000  -30.4020 C   0  0  0  0  0  0  0  0  0  0  0  0
   -3.4910   21.7210  -29.1850 C   0  0  0  0  0  0  0  0  0  0  0  0
   -4.2030   22.6570  -28.4270 C   0  0  0  0  0  0  0  0  0  0  0  0
   -4.3290   23.9730  -28.8780 C   0  0  0  0  0  0  0  0  0  0  0  0
   -3.7400   24.3590  -30.0870 C   0  0  0  0  0  0  0  0  0  0  0  0
   -3.8630   25.6690  -30.5330 O   0  0  0  0  0  0  0  0  0  0  0  0
   -3.0270   23.4250  -30.8470 C   0  0  0  0  0  0  0  0  0  0  0  0
   -6.8546   17.1589  -31.7742 H   0  0  0  0  0  0  0  0  0  0  0  0
   -7.7975   17.2639  -33.2995 H   0  0  0  0  0  0  0  0  0  0  0  0
   -6.0434   17.6510  -33.2995 H   0  0  0  0  0  0  0  0  0  0  0  0
   -9.2802   21.5411  -29.8926 H   0  0  0  0  0  0  0  0  0  0  0  0
   -9.3065   22.6839  -31.2782 H   0  0  0  0  0  0  0  0  0  0  0  0
  -10.3849   21.2473  -31.2782 H   0  0  0  0  0  0  0  0  0  0  0  0
   -6.7557   23.1607  -31.2686 H   0  0  0  0  0  0  0  0  0  0  0  0
   -5.9007   22.8817  -32.8235 H   0  0  0  0  0  0  0  0  0  0  0  0
   -7.6355   23.3475  -32.8235 H   0  0  0  0  0  0  0  0  0  0  0  0
   -4.8286   19.2549  -33.5592 H   0  0  0  0  0  0  0  0  0  0  0  0
   -5.3662   20.7801  -34.4169 H   0  0  0  0  0  0  0  0  0  0  0  0
   -3.6544   21.8009  -33.4508 H   0  0  0  0  0  0  0  0  0  0  0  0
   -4.6134   21.6083  -31.8845 H   0  0  0  0  0  0  0  0  0  0  0  0
   -2.6535   18.4635  -33.0408 H   0  0  0  0  0  0  0  0  0  0  0  0
   -2.3602   19.9094  -34.0728 H   0  0  0  0  0  0  0  0  0  0  0  0
   -0.4901   20.4166  -32.2288 H   0  0  0  0  0  0  0  0  0  0  0  0
   -0.5991   18.6283  -31.9837 H   0  0  0  0  0  0  0  0  0  0  0  0
    0.9612   18.5847  -33.6534 H   0  0  0  0  0  0  0  0  0  0  0  0
   -0.4930   18.7362  -34.7051 H   0  0  0  0  0  0  0  0  0  0  0  0
    2.7440   20.1355  -34.6596 H   0  0  0  0  0  0  0  0  0  0  0  0
    2.7772   22.6126  -35.6268 H   0  0  0  0  0  0  0  0  0  0  0  0
   -1.2137   21.6517  -34.6133 H   0  0  0  0  0  0  0  0  0  0  0  0
   -1.5894   20.4189  -30.5297 H   0  0  0  0  0  0  0  0  0  0  0  0
   -1.3849   21.6561  -31.8307 H   0  0  0  0  0  0  0  0  0  0  0  0
   -3.3930   20.6856  -28.8269 H   0  0  0  0  0  0  0  0  0  0  0  0
   -4.6641   22.3562  -27.4747 H   0  0  0  0  0  0  0  0  0  0  0  0
   -4.8918   24.7066  -28.2821 H   0  0  0  0  0  0  0  0  0  0  0  0
   -2.5636   23.7305  -31.7967 H   0  0  0  0  0  0  0  0  0  0  0  0
  1  2  1  0
  2  3  2  0
  3  4  1  0
  4  5  1  0
  4  6  1  0
  6  7  1  0
  6  8  2  0
  8  9  1  0
  9 10  1  0
 10 11  1  0
 11 12  1  0
 12 13  1  0
 13 14  1  0
 14 15  1  0
 15 16  1  0
 16 17  2  0
 17 18  1  0
 18 19  2  0
 11 20  1  0
 20 21  1  0
 21 22  2  0
 22 23  1  0
 23 24  2  0
 24 25  1  0
 25 26  1  0
 25 27  2  0
  8  2  1  0
 19 15  1  0
 27 21  1  0
  1 28  1  0
  1 29  1  0
  1 30  1  0
  5 31  1  0
  5 32  1  0
  5 33  1  0
  7 34  1  0
  7 35  1  0
  7 36  1  0
  9 37  1  0
  9 38  1  0
 10 39  1  0
 10 40  1  0
 12 41  1  0
 12 42  1  0
 13 43  1  0
 13 44  1  0
 14 45  1  0
 14 46  1  0
 16 47  1  0
 17 48  1  0
 19 49  1  0
 20 50  1  0
 20 51  1  0
 22 52  1  0
 23 53  1  0
 24 54  1  0
 27 55  1  0
M  CHG  1  26  -1
M  END
>  <UniqueID>  (12) 
11

>  <SMILES>  (12) 
Cc1nn(C)c(C)c1CCN(CCCn1ccnc1)Cc1cccc([O-])c1

>  <Energy>  (12) 
111.3731431548717

>  <Genealogy>  (12) 
Cc1nn(C)c(C)c1CCN(CCCn1ccnc1)Cc1cccc([O-])c1 (protonated)
Cc1nn(C)c(C)c1CCN(CCCn1ccnc1)Cc1cccc([O-])c1 (3D coordinates assigned)
Cc1nn(C)c(C)c1CCN(CCCn1ccnc1)Cc1cccc([O-])c1 (optimized conformer: 111.3731431548717 kcal/mol)

>  <smiles>  (12) 
Cc1nn(C)c(C)c1CCN(CCCn1ccnc1)Cc1cccc(O)c1

>  <score_type>  (12) 
oracle

>  <origin>  (12) 
adg

>  <m_score__min__energy>  (12) 
-11.06

>  <m_primary>  (12) 
energy

$$$$
12:0
     RDKit          3D

 36 36  0  0  0  0  0  0  0  0999 V2000
   -8.1042   22.8898  -31.7440 H   0  0  0  0  0  0  0  0  0  0  0  0
   -7.1700   23.3200  -31.3540 C   0  0  0  0  0  0  0  0  0  0  0  0
   -5.9380   22.7950  -31.7550 C   0  0  0  0  0  0  0  0  0  0  0  0
   -5.9029   21.9561  -32.4656 H   0  0  0  0  0  0  0  0  0  0  0  0
   -4.7500   23.3360  -31.2530 C   0  0  0  0  0  0  0  0  0  0  0  0
   -3.7825   22.9290  -31.5820 H   0  0  0  0  0  0  0  0  0  0  0  0
   -4.7840   24.3950  -30.3320 C   0  0  0  0  0  0  0  0  0  0  0  0
   -3.5480   24.9510  -29.8510 N   0  0  0  0  0  0  0  0  0  0  0  0
   -3.0720   25.6730  -30.4370 H   0  0  0  0  0  0  0  0  0  0  0  0
   -2.8830   24.5290  -28.6510 C   0  0  0  0  0  0  0  0  0  0  0  0
   -3.1860   23.3900  -28.0990 N   0  0  0  0  0  0  0  0  0  0  0  0
   -2.2220   22.3570  -27.7400 C   0  0  0  0  0  0  0  0  0  0  0  0
   -2.1538   22.2839  -26.6446 H   0  0  0  0  0  0  0  0  0  0  0  0
   -2.5491   21.3910  -28.1523 H   0  0  0  0  0  0  0  0  0  0  0  0
   -1.2358   22.6166  -28.1523 H   0  0  0  0  0  0  0  0  0  0  0  0
   -1.5700   25.5710  -27.9880 S   0  0  0  0  0  0  0  0  0  0  0  0
   -2.3410   25.6950  -26.3400 C   0  0  0  0  0  0  0  0  0  0  0  0
   -2.9388   26.6167  -26.2832 H   0  0  0  0  0  0  0  0  0  0  0  0
   -2.9927   24.8246  -26.1735 H   0  0  0  0  0  0  0  0  0  0  0  0
   -1.2450   25.7280  -25.2630 C   0  0  0  0  0  0  0  0  0  0  0  0
   -1.3793   24.8533  -24.6096 H   0  0  0  0  0  0  0  0  0  0  0  0
   -0.2829   25.7237  -25.7962 H   0  0  0  0  0  0  0  0  0  0  0  0
   -1.2510   26.9460  -24.4140 N   0  0  0  0  0  0  0  0  0  0  0  0
   -2.2460   27.0980  -24.1180 H   0  0  0  0  0  0  0  0  0  0  0  0
   -0.8350   28.1520  -25.1500 C   0  0  0  0  0  0  0  0  0  0  0  0
   -0.5624   28.9422  -24.4349 H   0  0  0  0  0  0  0  0  0  0  0  0
    0.0331   27.9144  -25.7824 H   0  0  0  0  0  0  0  0  0  0  0  0
   -1.6650   28.5002  -25.7824 H   0  0  0  0  0  0  0  0  0  0  0  0
   -0.4590   26.7820  -23.1820 C   0  0  0  0  0  0  0  0  0  0  0  0
   -1.1109   26.9170  -22.3063 H   0  0  0  0  0  0  0  0  0  0  0  0
   -0.0196   25.7738  -23.1601 H   0  0  0  0  0  0  0  0  0  0  0  0
    0.3446   27.5328  -23.1601 H   0  0  0  0  0  0  0  0  0  0  0  0
   -6.0280   24.9330  -29.9530 C   0  0  0  0  0  0  0  0  0  0  0  0
   -6.0673   25.7835  -29.2565 H   0  0  0  0  0  0  0  0  0  0  0  0
   -7.2150   24.3910  -30.4580 C   0  0  0  0  0  0  0  0  0  0  0  0
   -8.1847   24.8086  -30.1492 H   0  0  0  0  0  0  0  0  0  0  0  0
  1  2  1  0
  2  3  2  0
  3  4  1  0
  3  5  1  0
  5  6  1  0
  5  7  2  0
  7  8  1  0
  8  9  1  0
  8 10  1  0
 10 11  2  0
 11 12  1  0
 12 13  1  0
 12 14  1  0
 12 15  1  0
 10 16  1  0
 16 17  1  0
 17 18  1  0
 17 19  1  0
 17 20  1  0
 20 21  1  0
 20 22  1  0
 20 23  1  0
 23 24  1  0
 23 25  1  0
 25 26  1  0
 25 27  1  0
 25 28  1  0
 23 29  1  0
 29 30  1  0
 29 31  1  0
 29 32  1  0
  7 33  1  0
 33 34  1  0
 33 35  2  0
 35 36  1  0
 35  2  1  0
M  CHG  1  23   1
M  END
>  <UniqueID>  (13) 
12

>  <SMILES>  (13) 
C/N=C(/Nc1ccccc1)SCC[NH+](C)C

>  <Energy>  (13) 
32.51102227336062

>  <Genealogy>  (13) 
CN=C(Nc1ccccc1)SCC[NH+](C)C (protonated)
C/N=C(/Nc1ccccc1)SCC[NH+](C)C (cis-trans isomerization)
C/N=C(/Nc1ccccc1)SCC[NH+](C)C (3D coordinates assigned)
C/N=C(/Nc1ccccc1)SCC[NH+](C)C (optimized conformer: 32.51102227336062 kcal/mol)

>  <smiles>  (13) 
CN=C(Nc1ccccc1)SCCN(C)C

>  <score_type>  (13) 
oracle

>  <origin>  (13) 
adg

>  <m_score__min__energy>  (13) 
-5.8099999999999996

>  <m_primary>  (13) 
energy

$$$$
13:0
     RDKit          3D

 51 54  0  0  0  0  0  0  0  0999 V2000
    0.4560   18.3110  -34.4970 C   0  0  0  0  0  0  0  0  0  0  0  0
    0.5100   19.6650  -34.0600 O   0  0  0  0  0  0  0  0  0  0  0  0
   -0.5440   20.3340  -33.4210 C   0  0  0  0  0  0  0  0  0  0  0  0
   -1.7780   20.4060  -34.0740 C   0  0  0  0  0  0  0  0  0  0  0  0
   -2.8600   21.0620  -33.4810 C   0  0  0  0  0  0  0  0  0  0  0  0
   -2.7240   21.6650  -32.2160 C   0  0  0  0  0  0  0  0  0  0  0  0
   -3.8330   22.3400  -31.5900 N   0  0  0  0  0  0  0  0  0  0  0  0
   -5.0700   21.8250  -31.3620 C   0  0  0  0  0  0  0  0  0  0  0  0
   -5.8150   22.8240  -30.7830 C   0  0  0  0  0  0  0  0  0  0  0  0
   -5.0120   23.8790  -30.6970 C   0  0  0  0  0  0  0  0  0  0  0  0
   -3.8020   23.6200  -31.2190 N   0  0  0  0  0  0  0  0  0  0  0  0
   -5.7080   25.1390  -30.4020 C   0  0  0  0  0  0  0  0  0  0  0  0
   -7.1610   24.6490  -30.1400 C   0  0  0  0  0  0  0  0  0  0  0  0
   -7.2410   23.1370  -30.5350 C   0  0  1  0  0  0  0  0  0  0  0  0
   -8.1150   22.9180  -31.7820 C   0  0  0  0  0  0  0  0  0  0  0  0
   -8.0120   21.5290  -32.2660 N   0  0  0  0  0  0  0  0  0  0  0  0
   -9.1660   20.6870  -31.9040 C   0  0  0  0  0  0  0  0  0  0  0  0
   -8.7380   19.2680  -31.4980 C   0  0  0  0  0  0  0  0  0  0  0  0
   -7.5040   18.7960  -32.2320 C   0  0  0  0  0  0  0  0  0  0  0  0
   -6.6460   17.8510  -31.6440 C   0  0  0  0  0  0  0  0  0  0  0  0
   -5.5190   17.4160  -32.3430 C   0  0  0  0  0  0  0  0  0  0  0  0
   -5.2440   17.9330  -33.6080 C   0  0  0  0  0  0  0  0  0  0  0  0
   -6.1010   18.8890  -34.1550 C   0  0  0  0  0  0  0  0  0  0  0  0
   -7.1990   19.3030  -33.4630 N   0  0  0  0  0  0  0  0  0  0  0  0
   -1.4840   21.5850  -31.5590 C   0  0  0  0  0  0  0  0  0  0  0  0
   -0.4030   20.9300  -32.1540 C   0  0  0  0  0  0  0  0  0  0  0  0
    0.4294   17.6443  -33.6225 H   0  0  0  0  0  0  0  0  0  0  0  0
   -0.4490   18.1571  -35.1031 H   0  0  0  0  0  0  0  0  0  0  0  0
    1.3459   18.0855  -35.1031 H   0  0  0  0  0  0  0  0  0  0  0  0
   -1.8984   19.9419  -35.0640 H   0  0  0  0  0  0  0  0  0  0  0  0
   -3.8253   21.1076  -34.0065 H   0  0  0  0  0  0  0  0  0  0  0  0
   -5.4093   20.8051  -31.5959 H   0  0  0  0  0  0  0  0  0  0  0  0
   -5.2854   25.6311  -29.5136 H   0  0  0  0  0  0  0  0  0  0  0  0
   -5.6293   25.8885  -31.2033 H   0  0  0  0  0  0  0  0  0  0  0  0
   -7.4094   24.7702  -29.0753 H   0  0  0  0  0  0  0  0  0  0  0  0
   -7.8753   25.2373  -30.7347 H   0  0  0  0  0  0  0  0  0  0  0  0
   -7.7086   22.4947  -29.7742 H   0  0  0  0  0  0  0  0  0  0  0  0
   -9.1635   23.1330  -31.5280 H   0  0  0  0  0  0  0  0  0  0  0  0
   -7.7635   23.5918  -32.5773 H   0  0  0  0  0  0  0  0  0  0  0  0
   -7.9650   21.5580  -33.3120 H   0  0  0  0  0  0  0  0  0  0  0  0
   -9.6952   21.1535  -31.0600 H   0  0  0  0  0  0  0  0  0  0  0  0
   -9.8178   20.6061  -32.7864 H   0  0  0  0  0  0  0  0  0  0  0  0
   -8.5294   19.2593  -30.4180 H   0  0  0  0  0  0  0  0  0  0  0  0
   -9.5604   18.5862  -31.7602 H   0  0  0  0  0  0  0  0  0  0  0  0
   -6.8611   17.4569  -30.6398 H   0  0  0  0  0  0  0  0  0  0  0  0
   -4.8490   16.6665  -31.8965 H   0  0  0  0  0  0  0  0  0  0  0  0
   -4.3615   17.5913  -34.1687 H   0  0  0  0  0  0  0  0  0  0  0  0
   -5.8891   19.3099  -35.1489 H   0  0  0  0  0  0  0  0  0  0  0  0
   -7.8110   20.0290  -33.9000 H   0  0  0  0  0  0  0  0  0  0  0  0
   -1.3635   22.0429  -30.5661 H   0  0  0  0  0  0  0  0  0  0  0  0
    0.5628   20.8799  -31.6298 H   0  0  0  0  0  0  0  0  0  0  0  0
  1  2  1  0
  2  3  1  0
  3  4  2  0
  4  5  1  0
  5  6  2  0
  6  7  1  0
  7  8  1  0
  8  9  2  0
  9 10  1  0
 10 11  2  0
 10 12  1  0
 12 13  1  0
 13 14  1  0
 14 15  1  0
 15 16  1  0
 16 17  1  0
 17 18  1  0
 18 19  1  0
 19 20  2  0
 20 21  1  0
 21 22  2  0
 22 23  1  0
 23 24  2  0
  6 25  1  0
 25 26  2  0
 26  3  1  0
 11  7  1  0
 24 19  1  0
 14  9  1  0
  1 27  1  0
  1 28  1  0
  1 29  1  0
  4 30  1  0
  5 31  1  0
  8 32  1  0
 12 33  1  0
 12 34  1  0
 13 35  1  0
 13 36  1  0
 14 37  1  1
 15 38  1  0
 15 39  1  0
 16 40  1  0
 17 41  1  0
 17 42  1  0
 18 43  1  0
 18 44  1  0
 20 45  1  0
 21 46  1  0
 22 47  1  0
 23 48  1  0
 24 49  1  0
 25 50  1  0
 26 51  1  0
M  CHG  1  24   1
M  END
>  <UniqueID>  (14) 
13

>  <SMILES>  (14) 
COc1ccc(-n2cc3c(n2)CC[C@H]3CNCCc2cccc[nH+]2)cc1

>  <Energy>  (14) 
105.86874897782529

>  <Genealogy>  (14) 
COc1ccc(-n2cc3c(n2)CCC3CNCCc2cccc[nH+]2)cc1 (protonated)
COc1ccc(-n2cc3c(n2)CC[C@H]3CNCCc2cccc[nH+]2)cc1 (chirality)
COc1ccc(-n2cc3c(n2)CC[C@H]3CNCCc2cccc[nH+]2)cc1 (3D coordinates assigned)
COc1ccc(-n2cc3c(n2)CC[C@H]3CNCCc2cccc[nH+]2)cc1 (nonaromatic ring conformer: 105.86874897782529 kcal/mol)

>  <smiles>  (14) 
COc1ccc(-n2cc3c(n2)CCC3CNCCc2ccccn2)cc1

>  <score_type>  (14) 
oracle

>  <origin>  (14) 
adg

>  <m_score__min__energy>  (14) 
-8.0199999999999996

>  <m_primary>  (14) 
energy

$$$$
14:0
     RDKit          3D

 63 66  0  0  0  0  0  0  0  0999 V2000
   -3.2310   18.5540  -25.9520 C   0  0  0  0  0  0  0  0  0  0  0  0
   -3.0870   19.6440  -27.0160 C   0  0  0  0  0  0  0  0  0  0  0  0
   -1.6830   19.9380  -27.3770 N   0  0  0  0  0  0  0  0  0  0  0  0
   -0.7790   18.7590  -27.3880 C   0  0  0  0  0  0  0  0  0  0  0  0
   -0.0060   18.5460  -28.6970 C   0  0  0  0  0  0  0  0  0  0  0  0
   -1.5350   20.9080  -28.4870 C   0  0  0  0  0  0  0  0  0  0  0  0
   -0.4140   21.9160  -28.1990 C   0  0  0  0  0  0  0  0  0  0  0  0
   -0.9560   23.2430  -27.8950 N   0  0  0  0  0  0  0  0  0  0  0  0
   -2.2460   23.6880  -28.3510 C   0  0  0  0  0  0  0  0  0  0  0  0
   -2.4760   24.0380  -29.6960 C   0  0  0  0  0  0  0  0  0  0  0  0
   -3.7480   24.4350  -30.1160 C   0  0  0  0  0  0  0  0  0  0  0  0
   -4.8130   24.4940  -29.2020 C   0  0  0  0  0  0  0  0  0  0  0  0
   -6.2100   24.8150  -29.6780 C   0  0  0  0  0  0  0  0  0  0  0  0
   -6.3390   24.6630  -31.1390 N   0  0  0  0  0  0  0  0  0  0  0  0
   -6.5240   23.2800  -31.5120 C   0  0  0  0  0  0  0  0  0  0  0  0
   -5.4190   22.5070  -31.9590 C   0  0  0  0  0  0  0  0  0  0  0  0
   -5.5980   21.1880  -32.4120 C   0  0  0  0  0  0  0  0  0  0  0  0
   -6.8910   20.6620  -32.3840 C   0  0  0  0  0  0  0  0  0  0  0  0
   -7.9600   21.4020  -31.9690 C   0  0  0  0  0  0  0  0  0  0  0  0
   -7.8200   22.7130  -31.5220 C   0  0  0  0  0  0  0  0  0  0  0  0
   -9.1050   20.7120  -32.1280 N   0  0  0  0  0  0  0  0  0  0  0  0
   -8.6830   19.5320  -32.6520 C   0  0  0  0  0  0  0  0  0  0  0  0
   -7.3370   19.4680  -32.8170 N   0  0  0  0  0  0  0  0  0  0  0  0
   -6.5940   18.3690  -33.3730 C   0  0  0  0  0  0  0  0  0  0  0  0
   -6.7820   17.0620  -32.8910 C   0  0  0  0  0  0  0  0  0  0  0  0
   -6.0670   15.9960  -33.4470 C   0  0  0  0  0  0  0  0  0  0  0  0
   -5.1680   16.2250  -34.4920 C   0  0  0  0  0  0  0  0  0  0  0  0
   -4.9890   17.5180  -34.9900 C   0  0  0  0  0  0  0  0  0  0  0  0
   -5.7040   18.5860  -34.4380 C   0  0  0  0  0  0  0  0  0  0  0  0
   -4.5840   24.1540  -27.8600 C   0  0  0  0  0  0  0  0  0  0  0  0
   -3.3110   23.7610  -27.4390 C   0  0  0  0  0  0  0  0  0  0  0  0
   -3.1710   19.0078  -24.9518 H   0  0  0  0  0  0  0  0  0  0  0  0
   -4.2031   18.0529  -26.0696 H   0  0  0  0  0  0  0  0  0  0  0  0
   -2.4223   17.8176  -26.0696 H   0  0  0  0  0  0  0  0  0  0  0  0
   -3.6179   19.3174  -27.9223 H   0  0  0  0  0  0  0  0  0  0  0  0
   -3.5107   20.5663  -26.5920 H   0  0  0  0  0  0  0  0  0  0  0  0
   -0.0473   18.8825  -26.5759 H   0  0  0  0  0  0  0  0  0  0  0  0
   -1.4237   17.8763  -27.2647 H   0  0  0  0  0  0  0  0  0  0  0  0
    1.0312   18.2602  -28.4680 H   0  0  0  0  0  0  0  0  0  0  0  0
   -0.4862   17.7467  -29.2805 H   0  0  0  0  0  0  0  0  0  0  0  0
   -0.0091   19.4785  -29.2805 H   0  0  0  0  0  0  0  0  0  0  0  0
   -1.2970   20.3615  -29.4115 H   0  0  0  0  0  0  0  0  0  0  0  0
   -2.4802   21.4603  -28.5946 H   0  0  0  0  0  0  0  0  0  0  0  0
    0.1729   21.5629  -27.3382 H   0  0  0  0  0  0  0  0  0  0  0  0
    0.2189   21.9966  -29.0950 H   0  0  0  0  0  0  0  0  0  0  0  0
   -0.4150   23.8780  -27.2620 H   0  0  0  0  0  0  0  0  0  0  0  0
   -1.6489   23.9985  -30.4201 H   0  0  0  0  0  0  0  0  0  0  0  0
   -3.9166   24.7031  -31.1694 H   0  0  0  0  0  0  0  0  0  0  0  0
   -6.9194   24.1340  -29.1851 H   0  0  0  0  0  0  0  0  0  0  0  0
   -6.4259   25.8630  -29.4228 H   0  0  0  0  0  0  0  0  0  0  0  0
   -5.4690   25.0270  -31.5950 H   0  0  0  0  0  0  0  0  0  0  0  0
   -7.1360   25.2460  -31.4880 H   0  0  0  0  0  0  0  0  0  0  0  0
   -4.4104   22.9460  -31.9506 H   0  0  0  0  0  0  0  0  0  0  0  0
   -4.7487   20.5911  -32.7759 H   0  0  0  0  0  0  0  0  0  0  0  0
   -8.6929   23.2919  -31.1859 H   0  0  0  0  0  0  0  0  0  0  0  0
   -9.3643   18.7098  -32.9164 H   0  0  0  0  0  0  0  0  0  0  0  0
   -7.4942   16.8768  -32.0734 H   0  0  0  0  0  0  0  0  0  0  0  0
   -6.2126   14.9762  -33.0611 H   0  0  0  0  0  0  0  0  0  0  0  0
   -4.6009   15.3867  -34.9228 H   0  0  0  0  0  0  0  0  0  0  0  0
   -4.2855   17.6962  -35.8166 H   0  0  0  0  0  0  0  0  0  0  0  0
   -5.5687   19.6010  -34.8399 H   0  0  0  0  0  0  0  0  0  0  0  0
   -5.4108   24.1971  -27.1358 H   0  0  0  0  0  0  0  0  0  0  0  0
   -3.1415   23.5062  -26.3824 H   0  0  0  0  0  0  0  0  0  0  0  0
  1  2  1  0
  2  3  1  0
  3  4  1  0
  4  5  1  0
  3  6  1  0
  6  7  1  0
  7  8  1  0
  8  9  1  0
  9 10  2  0
 10 11  1  0
 11 12  2  0
 12 13  1  0
 13 14  1  0
 14 15  1  0
 15 16  2  0
 16 17  1  0
 17 18  2  0
 18 19  1  0
 19 20  2  0
 19 21  1  0
 21 22  2  0
 22 23  1  0
 23 24  1  0
 24 25  2  0
 25 26  1  0
 26 27  2  0
 27 28  1  0
 28 29  2  0
 12 30  1  0
 30 31  2  0
 31  9  1  0
 20 15  1  0
 29 24  1  0
 23 18  1  0
  1 32  1  0
  1 33  1  0
  1 34  1  0
  2 35  1  0
  2 36  1  0
  4 37  1  0
  4 38  1  0
  5 39  1  0
  5 40  1  0
  5 41  1  0
  6 42  1  0
  6 43  1  0
  7 44  1  0
  7 45  1  0
  8 46  1  0
 10 47  1  0
 11 48  1  0
 13 49  1  0
 13 50  1  0
 14 51  1  0
 14 52  1  0
 16 53  1  0
 17 54  1  0
 20 55  1  0
 22 56  1  0
 25 57  1  0
 26 58  1  0
 27 59  1  0
 28 60  1  0
 29 61  1  0
 30 62  1  0
 31 63  1  0
M  CHG  1  14   1
M  END
>  <UniqueID>  (15) 
14

>  <SMILES>  (15) 
CCN(CC)CCNc1ccc(C[NH2+]c2ccc3c(c2)ncn3-c2ccccc2)cc1

>  <Energy>  (15) 
113.06388339586974

>  <Genealogy>  (15) 
CCN(CC)CCNc1ccc(C[NH2+]c2ccc3c(c2)ncn3-c2ccccc2)cc1 (protonated)
CCN(CC)CCNc1ccc(C[NH2+]c2ccc3c(c2)ncn3-c2ccccc2)cc1 (3D coordinates assigned)
CCN(CC)CCNc1ccc(C[NH2+]c2ccc3c(c2)ncn3-c2ccccc2)cc1 (optimized conformer: 113.06388339586974 kcal/mol)

>  <smiles>  (15) 
CCN(CC)CCNc1ccc(CNc2ccc3c(c2)ncn3-c2ccccc2)cc1

>  <score_type>  (15) 
oracle

>  <origin>  (15) 
adg

>  <m_score__min__energy>  (15) 
-8.5899999999999999

>  <m_primary>  (15) 
energy

$$$$
15:0
     RDKit          3D

 43 45  0  0  0  0  0  0  0  0999 V2000
   -3.6850   24.1720  -28.1310 C   0  0  0  0  0  0  0  0  0  0  0  0
   -4.5240   24.0660  -29.3630 C   0  0  0  0  0  0  0  0  0  0  0  0
   -5.7150   24.7950  -29.4730 C   0  0  0  0  0  0  0  0  0  0  0  0
   -6.4680   24.7030  -30.6450 C   0  0  0  0  0  0  0  0  0  0  0  0
   -6.0320   23.8870  -31.6900 C   0  0  0  0  0  0  0  0  0  0  0  0
   -4.8370   23.1670  -31.5470 C   0  0  0  0  0  0  0  0  0  0  0  0
   -4.3180   22.3020  -32.6630 C   0  0  0  0  0  0  0  0  0  0  0  0
   -2.9310   21.9010  -32.3970 N   0  0  0  0  0  0  0  0  0  0  0  0
   -2.6930   20.5070  -32.7950 C   0  0  0  0  0  0  0  0  0  0  0  0
   -3.8740   19.6390  -32.3620 C   0  0  0  0  0  0  0  0  0  0  0  0
   -4.4890   18.9940  -33.5250 N   0  0  0  0  0  0  0  0  0  0  0  0
   -3.8370   18.2670  -34.4540 C   0  0  0  0  0  0  0  0  0  0  0  0
   -4.7700   17.6880  -35.2890 C   0  0  0  0  0  0  0  0  0  0  0  0
   -5.9990   18.0400  -34.8720 N   0  0  0  0  0  0  0  0  0  0  0  0
   -5.8060   18.8350  -33.8010 C   0  0  0  0  0  0  0  0  0  0  0  0
   -6.9140   19.3920  -32.9990 C   0  0  0  0  0  0  0  0  0  0  0  0
   -7.0790   20.7820  -32.8860 C   0  0  0  0  0  0  0  0  0  0  0  0
   -8.1240   21.3080  -32.1210 C   0  0  0  0  0  0  0  0  0  0  0  0
   -9.0180   20.4510  -31.4730 C   0  0  0  0  0  0  0  0  0  0  0  0
   -8.8670   19.0670  -31.5890 C   0  0  0  0  0  0  0  0  0  0  0  0
   -7.8220   18.5360  -32.3530 C   0  0  0  0  0  0  0  0  0  0  0  0
   -7.6810   17.1880  -32.4370 F   0  0  0  0  0  0  0  0  0  0  0  0
   -4.1170   23.2800  -30.3970 N   0  0  0  0  0  0  0  0  0  0  0  0
   -4.3274   24.0908  -27.2418 H   0  0  0  0  0  0  0  0  0  0  0  0
   -2.9424   23.3605  -28.1222 H   0  0  0  0  0  0  0  0  0  0  0  0
   -3.1676   25.1427  -28.1222 H   0  0  0  0  0  0  0  0  0  0  0  0
   -6.0537   25.4338  -28.6440 H   0  0  0  0  0  0  0  0  0  0  0  0
   -7.4036   25.2728  -30.7447 H   0  0  0  0  0  0  0  0  0  0  0  0
   -6.6198   23.8094  -32.6165 H   0  0  0  0  0  0  0  0  0  0  0  0
   -4.9457   21.4025  -32.7463 H   0  0  0  0  0  0  0  0  0  0  0  0
   -4.3503   22.8738  -33.6022 H   0  0  0  0  0  0  0  0  0  0  0  0
   -2.7730   21.9680  -31.3640 H   0  0  0  0  0  0  0  0  0  0  0  0
   -2.5807   20.4528  -33.8879 H   0  0  0  0  0  0  0  0  0  0  0  0
   -1.7754   20.1415  -32.3109 H   0  0  0  0  0  0  0  0  0  0  0  0
   -3.5189   18.8659  -31.6647 H   0  0  0  0  0  0  0  0  0  0  0  0
   -4.6235   20.2767  -31.8705 H   0  0  0  0  0  0  0  0  0  0  0  0
   -2.7456   18.1544  -34.5330 H   0  0  0  0  0  0  0  0  0  0  0  0
   -4.5458   17.0449  -36.1528 H   0  0  0  0  0  0  0  0  0  0  0  0
   -6.9120   17.7460  -35.2890 H   0  0  0  0  0  0  0  0  0  0  0  0
   -6.3829   21.4598  -33.4017 H   0  0  0  0  0  0  0  0  0  0  0  0
   -8.2429   22.3977  -32.0289 H   0  0  0  0  0  0  0  0  0  0  0  0
   -9.8403   20.8662  -30.8718 H   0  0  0  0  0  0  0  0  0  0  0  0
   -9.5711   18.3934  -31.0787 H   0  0  0  0  0  0  0  0  0  0  0  0
  1  2  1  0
  2  3  2  0
  3  4  1  0
  4  5  2  0
  5  6  1  0
  6  7  1  0
  7  8  1  0
  8  9  1  0
  9 10  1  0
 10 11  1  0
 11 12  1  0
 12 13  2  0
 13 14  1  0
 14 15  2  0
 15 16  1  0
 16 17  2  0
 17 18  1  0
 18 19  2  0
 19 20  1  0
 20 21  2  0
 21 22  1  0
  6 23  2  0
 23  2  1  0
 15 11  1  0
 21 16  1  0
  1 24  1  0
  1 25  1  0
  1 26  1  0
  3 27  1  0
  4 28  1  0
  5 29  1  0
  7 30  1  0
  7 31  1  0
  8 32  1  0
  9 33  1  0
  9 34  1  0
 10 35  1  0
 10 36  1  0
 12 37  1  0
 13 38  1  0
 14 39  1  0
 17 40  1  0
 18 41  1  0
 19 42  1  0
 20 43  1  0
M  CHG  1  14   1
M  END
>  <UniqueID>  (16) 
15

>  <SMILES>  (16) 
Cc1cccc(CNCCn2cc[nH+]c2-c2ccccc2F)n1

>  <Energy>  (16) 
72.51935899024589

>  <Genealogy>  (16) 
Cc1cccc(CNCCn2cc[nH+]c2-c2ccccc2F)n1 (protonated)
Cc1cccc(CNCCn2cc[nH+]c2-c2ccccc2F)n1 (3D coordinates assigned)
Cc1cccc(CNCCn2cc[nH+]c2-c2ccccc2F)n1 (optimized conformer: 72.51935899024589 kcal/mol)

>  <smiles>  (16) 
Cc1cccc(CNCCn2ccnc2-c2ccccc2F)n1

>  <score_type>  (16) 
oracle

>  <origin>  (16) 
adg

>  <m_score__min__energy>  (16) 
-7.3799999999999999

>  <m_primary>  (16) 
energy

$$$$
16:0
     RDKit          3D

 35 37  0  0  0  0  0  0  0  0999 V2000
   -6.2740   14.7510  -34.2230 C   0  0  0  0  0  0  0  0  0  0  0  0
   -6.8470   16.0480  -34.3480 O   0  0  0  0  0  0  0  0  0  0  0  0
   -6.2800   17.2180  -33.8200 C   0  0  0  0  0  0  0  0  0  0  0  0
   -6.6820   17.6360  -32.5460 C   0  0  0  0  0  0  0  0  0  0  0  0
   -6.1470   18.7940  -31.9760 C   0  0  0  0  0  0  0  0  0  0  0  0
   -5.1850   19.5470  -32.6690 C   0  0  0  0  0  0  0  0  0  0  0  0
   -4.6440   20.7510  -32.1010 N   0  0  0  0  0  0  0  0  0  0  0  0
   -3.4070   20.8470  -31.6290 N   0  0  0  0  0  0  0  0  0  0  0  0
   -3.2390   22.1000  -31.1490 C   0  0  0  0  0  0  0  0  0  0  0  0
   -2.0150   22.5570  -30.4280 C   0  0  0  0  0  0  0  0  0  0  0  0
   -4.4070   22.8220  -31.3300 C   0  0  0  0  0  0  0  0  0  0  0  0
   -5.2670   21.9340  -31.9140 C   0  0  0  0  0  0  0  0  0  0  0  0
   -6.6700   22.1860  -32.0160 N   0  0  0  0  0  0  0  0  0  0  0  0
   -7.1490   23.4920  -31.6590 C   0  0  0  0  0  0  0  0  0  0  0  0
   -8.3870   23.7170  -31.6220 O   0  0  0  0  0  0  0  0  0  0  0  0
   -6.1690   24.6190  -31.3990 C   0  0  0  0  0  0  0  0  0  0  0  0
   -4.8620   24.1230  -30.7240 C   0  0  2  0  0  0  0  0  0  0  0  0
   -3.8590   25.1040  -30.8080 O   0  0  0  0  0  0  0  0  0  0  0  0
   -4.7940   19.1410  -33.9540 C   0  0  0  0  0  0  0  0  0  0  0  0
   -5.3310   17.9830  -34.5250 C   0  0  0  0  0  0  0  0  0  0  0  0
   -6.1632   14.5002  -33.1577 H   0  0  0  0  0  0  0  0  0  0  0  0
   -6.9295   14.0123  -34.7073 H   0  0  0  0  0  0  0  0  0  0  0  0
   -5.2865   14.7382  -34.7073 H   0  0  0  0  0  0  0  0  0  0  0  0
   -7.4257   17.0476  -31.9887 H   0  0  0  0  0  0  0  0  0  0  0  0
   -6.4810   19.1177  -30.9792 H   0  0  0  0  0  0  0  0  0  0  0  0
   -2.1837   22.4940  -29.3428 H   0  0  0  0  0  0  0  0  0  0  0  0
   -1.1654   21.9155  -30.7048 H   0  0  0  0  0  0  0  0  0  0  0  0
   -1.7937   23.5983  -30.7048 H   0  0  0  0  0  0  0  0  0  0  0  0
   -7.3450   21.4230  -32.2380 H   0  0  0  0  0  0  0  0  0  0  0  0
   -5.9133   25.0931  -32.3581 H   0  0  0  0  0  0  0  0  0  0  0  0
   -6.6512   25.3311  -30.7132 H   0  0  0  0  0  0  0  0  0  0  0  0
   -5.0684   23.9409  -29.6590 H   0  0  0  0  0  0  0  0  0  0  0  0
   -4.0550   25.6660  -31.6030 H   0  0  0  0  0  0  0  0  0  0  0  0
   -4.0602   19.7376  -34.5159 H   0  0  0  0  0  0  0  0  0  0  0  0
   -5.0107   17.6683  -35.5292 H   0  0  0  0  0  0  0  0  0  0  0  0
  1  2  1  0
  2  3  1  0
  3  4  2  0
  4  5  1  0
  5  6  2  0
  6  7  1  0
  7  8  1  0
  8  9  2  0
  9 10  1  0
  9 11  1  0
 11 12  2  0
 12 13  1  0
 13 14  1  0
 14 15  2  0
 14 16  1  0
 16 17  1  0
 17 18  1  0
  6 19  1  0
 19 20  2  0
 20  3  1  0
 12  7  1  0
 17 11  1  0
  1 21  1  0
  1 22  1  0
  1 23  1  0
  4 24  1  0
  5 25  1  0
 10 26  1  0
 10 27  1  0
 10 28  1  0
 13 29  1  0
 16 30  1  0
 16 31  1  0
 17 32  1  1
 18 33  1  0
 19 34  1  0
 20 35  1  0
M  END
>  <UniqueID>  (17) 
16

>  <SMILES>  (17) 
COc1ccc(-n2nc(C)c3c2NC(=O)C[C@@H]3O)cc1

>  <Energy>  (17) 
74.99193064492438

>  <Genealogy>  (17) 
COc1ccc(-n2nc(C)c3c2NC(=O)C[C@@H]3O)cc1 (chirality)
COc1ccc(-n2nc(C)c3c2NC(=O)C[C@@H]3O)cc1 (3D coordinates assigned)
COc1ccc(-n2nc(C)c3c2NC(=O)C[C@@H]3O)cc1 (nonaromatic ring conformer: 74.99193064492438 kcal/mol)

>  <smiles>  (17) 
COc1ccc(-n2nc(C)c3c2NC(=O)CC3O)cc1

>  <score_type>  (17) 
oracle

>  <origin>  (17) 
adg

>  <m_score__min__energy>  (17) 
-7.3200000000000003

>  <m_primary>  (17) 
energy

$$$$
17:0
     RDKit          3D

 35 36  0  0  0  0  0  0  0  0999 V2000
   -2.1320   24.9010  -28.1220 C   0  0  0  0  0  0  0  0  0  0  0  0
   -2.7260   25.2970  -29.3530 O   0  0  0  0  0  0  0  0  0  0  0  0
   -3.5740   24.4850  -30.1210 C   0  0  0  0  0  0  0  0  0  0  0  0
   -4.9230   24.8440  -30.2250 C   0  0  0  0  0  0  0  0  0  0  0  0
   -5.8100   24.0630  -30.9710 C   0  0  0  0  0  0  0  0  0  0  0  0
   -5.3540   22.9170  -31.6260 C   0  0  0  0  0  0  0  0  0  0  0  0
   -4.0030   22.5500  -31.5490 C   0  0  0  0  0  0  0  0  0  0  0  0
   -3.5160   21.2930  -32.2230 C   0  0  0  0  0  0  0  0  0  0  0  0
   -4.1320   21.1530  -33.5530 N   0  0  0  0  0  0  0  0  0  0  0  0
   -4.5260   19.7610  -33.8360 C   0  0  0  0  0  0  0  0  0  0  0  0
   -5.8450   19.4080  -33.1930 C   0  0  0  0  0  0  0  0  0  0  0  0
   -6.0180   18.1560  -32.5780 C   0  0  0  0  0  0  0  0  0  0  0  0
   -7.2470   17.8170  -32.0030 C   0  0  0  0  0  0  0  0  0  0  0  0
   -8.3110   18.7230  -32.0390 C   0  0  0  0  0  0  0  0  0  0  0  0
   -9.5020   18.3930  -31.4800 F   0  0  0  0  0  0  0  0  0  0  0  0
   -8.1480   19.9690  -32.6510 C   0  0  0  0  0  0  0  0  0  0  0  0
   -6.9210   20.3110  -33.2280 C   0  0  0  0  0  0  0  0  0  0  0  0
   -3.1170   23.3290  -30.7840 C   0  0  0  0  0  0  0  0  0  0  0  0
   -2.7254   25.2966  -27.2845 H   0  0  0  0  0  0  0  0  0  0  0  0
   -2.1039   23.8028  -28.0650 H   0  0  0  0  0  0  0  0  0  0  0  0
   -1.1075   25.2974  -28.0650 H   0  0  0  0  0  0  0  0  0  0  0  0
   -5.2878   25.7480  -29.7155 H   0  0  0  0  0  0  0  0  0  0  0  0
   -6.8691   24.3515  -31.0424 H   0  0  0  0  0  0  0  0  0  0  0  0
   -6.0573   22.3000  -32.2045 H   0  0  0  0  0  0  0  0  0  0  0  0
   -2.4226   21.3409  -32.3331 H   0  0  0  0  0  0  0  0  0  0  0  0
   -3.7958   20.4259  -31.6067 H   0  0  0  0  0  0  0  0  0  0  0  0
   -3.4360   21.4450  -34.2800 H   0  0  0  0  0  0  0  0  0  0  0  0
   -4.9670   21.7810  -33.6280 H   0  0  0  0  0  0  0  0  0  0  0  0
   -4.6149   19.6308  -34.9246 H   0  0  0  0  0  0  0  0  0  0  0  0
   -3.7547   19.0967  -33.4190 H   0  0  0  0  0  0  0  0  0  0  0  0
   -5.1835   17.4400  -32.5488 H   0  0  0  0  0  0  0  0  0  0  0  0
   -7.3765   16.8363  -31.5219 H   0  0  0  0  0  0  0  0  0  0  0  0
   -8.9858   20.6813  -32.6788 H   0  0  0  0  0  0  0  0  0  0  0  0
   -6.7976   21.2913  -33.7115 H   0  0  0  0  0  0  0  0  0  0  0  0
   -2.0604   23.0340  -30.7027 H   0  0  0  0  0  0  0  0  0  0  0  0
  1  2  1  0
  2  3  1  0
  3  4  2  0
  4  5  1  0
  5  6  2  0
  6  7  1  0
  7  8  1  0
  8  9  1  0
  9 10  1  0
 10 11  1  0
 11 12  2  0
 12 13  1  0
 13 14  2  0
 14 15  1  0
 14 16  1  0
 16 17  2  0
  7 18  2  0
 18  3  1  0
 17 11  1  0
  1 19  1  0
  1 20  1  0
  1 21  1  0
  4 22  1  0
  5 23  1  0
  6 24  1  0
  8 25  1  0
  8 26  1  0
  9 27  1  0
  9 28  1  0
 10 29  1  0
 10 30  1  0
 12 31  1  0
 13 32  1  0
 16 33  1  0
 17 34  1  0
 18 35  1  0
M  CHG  1   9   1
M  END
>  <UniqueID>  (18) 
17

>  <SMILES>  (18) 
COc1cccc(C[NH2+]Cc2ccc(F)cc2)c1

>  <Energy>  (18) 
33.460583879549965

>  <Genealogy>  (18) 
COc1cccc(C[NH2+]Cc2ccc(F)cc2)c1 (protonated)
COc1cccc(C[NH2+]Cc2ccc(F)cc2)c1 (3D coordinates assigned)
COc1cccc(C[NH2+]Cc2ccc(F)cc2)c1 (optimized conformer: 33.460583879549965 kcal/mol)

>  <smiles>  (18) 
COc1cccc(CNCc2ccc(F)cc2)c1

>  <score_type>  (18) 
oracle

>  <origin>  (18) 
adg

>  <m_score__min__energy>  (18) 
-6.5999999999999996

>  <m_primary>  (18) 
energy

$$$$
18:0
     RDKit          3D

 47 49  0  0  0  0  0  0  0  0999 V2000
   -6.0880   18.9020  -34.9830 C   0  0  0  0  0  0  0  0  0  0  0  0
   -5.8650   18.0280  -33.7750 C   0  0  0  0  0  0  0  0  0  0  0  0
   -4.9670   16.9500  -33.8760 C   0  0  0  0  0  0  0  0  0  0  0  0
   -4.7550   16.0980  -32.7900 C   0  0  0  0  0  0  0  0  0  0  0  0
   -5.4320   16.3110  -31.5900 C   0  0  0  0  0  0  0  0  0  0  0  0
   -6.3120   17.3880  -31.4650 C   0  0  0  0  0  0  0  0  0  0  0  0
   -6.5250   18.2680  -32.5400 C   0  0  0  0  0  0  0  0  0  0  0  0
   -7.4360   19.4200  -32.3460 C   0  0  0  0  0  0  0  0  0  0  0  0
   -8.8260   19.2560  -32.4640 C   0  0  0  0  0  0  0  0  0  0  0  0
   -9.6810   20.3490  -32.2970 C   0  0  0  0  0  0  0  0  0  0  0  0
   -9.1560   21.6150  -32.0290 C   0  0  0  0  0  0  0  0  0  0  0  0
   -7.7680   21.8000  -31.9350 C   0  0  0  0  0  0  0  0  0  0  0  0
   -7.1930   23.1780  -31.7330 C   0  0  0  0  0  0  0  0  0  0  0  0
   -6.0350   23.1480  -30.8100 N   0  0  0  0  0  0  0  0  0  0  0  0
   -6.2480   24.1200  -29.7240 C   0  0  0  0  0  0  0  0  0  0  0  0
   -4.7590   23.4380  -31.5090 C   0  0  0  0  0  0  0  0  0  0  0  0
   -4.1550   22.1710  -32.0520 C   0  0  0  0  0  0  0  0  0  0  0  0
   -4.1180   21.8710  -33.3670 N   0  0  0  0  0  0  0  0  0  0  0  0
   -3.5160   20.6700  -33.4480 C   0  0  0  0  0  0  0  0  0  0  0  0
   -3.2060   20.2440  -32.1740 C   0  0  0  0  0  0  0  0  0  0  0  0
   -3.6310   21.1770  -31.3000 N   0  0  0  0  0  0  0  0  0  0  0  0
   -3.4730   21.1290  -29.8490 C   0  0  0  0  0  0  0  0  0  0  0  0
   -6.9120   20.6980  -32.0920 C   0  0  0  0  0  0  0  0  0  0  0  0
   -6.3477   19.9198  -34.6563 H   0  0  0  0  0  0  0  0  0  0  0  0
   -5.1692   18.9340  -35.5870 H   0  0  0  0  0  0  0  0  0  0  0  0
   -6.9098   18.4899  -35.5870 H   0  0  0  0  0  0  0  0  0  0  0  0
   -4.4271   16.7766  -34.8186 H   0  0  0  0  0  0  0  0  0  0  0  0
   -4.0522   15.2568  -32.8816 H   0  0  0  0  0  0  0  0  0  0  0  0
   -5.2728   15.6301  -30.7409 H   0  0  0  0  0  0  0  0  0  0  0  0
   -6.8438   17.5493  -30.5157 H   0  0  0  0  0  0  0  0  0  0  0  0
   -9.2433   18.2634  -32.6887 H   0  0  0  0  0  0  0  0  0  0  0  0
  -10.7695   20.2117  -32.3768 H   0  0  0  0  0  0  0  0  0  0  0  0
   -9.8332   22.4708  -31.8910 H   0  0  0  0  0  0  0  0  0  0  0  0
   -6.8662   23.5759  -32.7050 H   0  0  0  0  0  0  0  0  0  0  0  0
   -7.9717   23.8179  -31.2924 H   0  0  0  0  0  0  0  0  0  0  0  0
   -6.1373   23.6150  -28.7530 H   0  0  0  0  0  0  0  0  0  0  0  0
   -5.5055   24.9277  -29.8040 H   0  0  0  0  0  0  0  0  0  0  0  0
   -7.2602   24.5432  -29.8040 H   0  0  0  0  0  0  0  0  0  0  0  0
   -4.9514   24.1324  -32.3402 H   0  0  0  0  0  0  0  0  0  0  0  0
   -4.0559   23.8886  -30.7931 H   0  0  0  0  0  0  0  0  0  0  0  0
   -4.4710   22.4500  -34.1620 H   0  0  0  0  0  0  0  0  0  0  0  0
   -3.3061   20.1195  -34.3769 H   0  0  0  0  0  0  0  0  0  0  0  0
   -2.6984   19.3031  -31.9153 H   0  0  0  0  0  0  0  0  0  0  0  0
   -4.4193   21.4165  -29.3674 H   0  0  0  0  0  0  0  0  0  0  0  0
   -3.2014   20.1078  -29.5433 H   0  0  0  0  0  0  0  0  0  0  0  0
   -2.6793   21.8265  -29.5433 H   0  0  0  0  0  0  0  0  0  0  0  0
   -5.8235   20.8367  -32.0155 H   0  0  0  0  0  0  0  0  0  0  0  0
  1  2  1  0
  2  3  2  0
  3  4  1  0
  4  5  2  0
  5  6  1  0
  6  7  2  0
  7  8  1  0
  8  9  2  0
  9 10  1  0
 10 11  2  0
 11 12  1  0
 12 13  1  0
 13 14  1  0
 14 15  1  0
 14 16  1  0
 16 17  1  0
 17 18  2  0
 18 19  1  0
 19 20  2  0
 20 21  1  0
 21 22  1  0
 12 23  2  0
  7  2  1  0
 23  8  1  0
 21 17  1  0
  1 24  1  0
  1 25  1  0
  1 26  1  0
  3 27  1  0
  4 28  1  0
  5 29  1  0
  6 30  1  0
  9 31  1  0
 10 32  1  0
 11 33  1  0
 13 34  1  0
 13 35  1  0
 15 36  1  0
 15 37  1  0
 15 38  1  0
 16 39  1  0
 16 40  1  0
 18 41  1  0
 19 42  1  0
 20 43  1  0
 22 44  1  0
 22 45  1  0
 22 46  1  0
 23 47  1  0
M  CHG  1  18   1
M  END
>  <UniqueID>  (19) 
18

>  <SMILES>  (19) 
Cc1ccccc1-c1cccc(CN(C)Cc2[nH+]ccn2C)c1

>  <Energy>  (19) 
82.95212772005503

>  <Genealogy>  (19) 
Cc1ccccc1-c1cccc(CN(C)Cc2[nH+]ccn2C)c1 (protonated)
Cc1ccccc1-c1cccc(CN(C)Cc2[nH+]ccn2C)c1 (3D coordinates assigned)
Cc1ccccc1-c1cccc(CN(C)Cc2[nH+]ccn2C)c1 (optimized conformer: 82.95212772005503 kcal/mol)

>  <smiles>  (19) 
Cc1ccccc1-c1cccc(CN(C)Cc2nccn2C)c1

>  <score_type>  (19) 
oracle

>  <origin>  (19) 
adg

>  <m_score__min__energy>  (19) 
-7.6799999999999997

>  <m_primary>  (19) 
energy

$$$$
19:0
     RDKit          3D

 31 33  0  0  0  0  0  0  0  0999 V2000
   -3.7270   22.0410  -32.6550 C   0  0  0  0  0  0  0  0  0  0  0  0
   -5.1740   21.7580  -32.4050 C   0  0  0  0  0  0  0  0  0  0  0  0
   -5.8500   20.7940  -33.0890 N   0  0  0  0  0  0  0  0  0  0  0  0
   -7.0910   20.8930  -32.5820 C   0  0  0  0  0  0  0  0  0  0  0  0
   -8.1730   20.1580  -32.9450 N   0  0  0  0  0  0  0  0  0  0  0  0
   -9.3760   20.4090  -32.3420 C   0  0  0  0  0  0  0  0  0  0  0  0
   -9.4900   21.4230  -31.3620 C   0  0  0  0  0  0  0  0  0  0  0  0
   -8.3600   22.1770  -31.0010 C   0  0  0  0  0  0  0  0  0  0  0  0
   -7.1610   21.8710  -31.6410 C   0  0  0  0  0  0  0  0  0  0  0  0
   -5.9490   22.4290  -31.5090 N   0  0  0  0  0  0  0  0  0  0  0  0
   -5.5300   23.7600  -30.4700 S   0  0  0  0  0  0  0  0  0  0  0  0
   -6.7340   24.2590  -29.7220 O   0  0  0  0  0  0  0  0  0  0  0  0
   -4.9890   24.8790  -31.3150 O   0  0  0  0  0  0  0  0  0  0  0  0
   -4.3180   23.2260  -29.3130 C   0  0  0  0  0  0  0  0  0  0  0  0
   -3.8470   24.0980  -28.3190 C   0  0  0  0  0  0  0  0  0  0  0  0
   -2.8780   23.6660  -27.4090 C   0  0  0  0  0  0  0  0  0  0  0  0
   -2.3740   22.3620  -27.4850 C   0  0  0  0  0  0  0  0  0  0  0  0
   -1.1580   21.8230  -26.3430 Cl  0  0  0  0  0  0  0  0  0  0  0  0
   -2.8450   21.4900  -28.4720 C   0  0  0  0  0  0  0  0  0  0  0  0
   -3.8150   21.9190  -29.3830 C   0  0  0  0  0  0  0  0  0  0  0  0
   -3.2021   22.1437  -31.6938 H   0  0  0  0  0  0  0  0  0  0  0  0
   -3.2849   21.2123  -33.2275 H   0  0  0  0  0  0  0  0  0  0  0  0
   -3.6297   22.9752  -33.2275 H   0  0  0  0  0  0  0  0  0  0  0  0
   -8.0910   19.4150  -33.6740 H   0  0  0  0  0  0  0  0  0  0  0  0
  -10.2606   19.8179  -32.6215 H   0  0  0  0  0  0  0  0  0  0  0  0
  -10.4606   21.6209  -30.8837 H   0  0  0  0  0  0  0  0  0  0  0  0
   -8.4198   22.9744  -30.2456 H   0  0  0  0  0  0  0  0  0  0  0  0
   -4.2411   25.1230  -28.2561 H   0  0  0  0  0  0  0  0  0  0  0  0
   -2.5106   24.3520  -26.6315 H   0  0  0  0  0  0  0  0  0  0  0  0
   -2.4514   20.4645  -28.5316 H   0  0  0  0  0  0  0  0  0  0  0  0
   -4.1844   21.2296  -30.1565 H   0  0  0  0  0  0  0  0  0  0  0  0
  1  2  1  0
  2  3  2  0
  3  4  1  0
  4  5  2  0
  5  6  1  0
  6  7  2  0
  7  8  1  0
  8  9  2  0
  9 10  1  0
 10 11  1  0
 11 12  2  0
 11 13  2  0
 11 14  1  0
 14 15  2  0
 15 16  1  0
 16 17  2  0
 17 18  1  0
 17 19  1  0
 19 20  2  0
 10  2  1  0
 20 14  1  0
  9  4  1  0
  1 21  1  0
  1 22  1  0
  1 23  1  0
  5 24  1  0
  6 25  1  0
  7 26  1  0
  8 27  1  0
 15 28  1  0
 16 29  1  0
 19 30  1  0
 20 31  1  0
M  CHG  1   5   1
M  END
>  <UniqueID>  (20) 
19

>  <SMILES>  (20) 
Cc1nc2[nH+]cccc2n1S(=O)(=O)c1ccc(Cl)cc1

>  <Energy>  (20) 
73.54655452089666

>  <Genealogy>  (20) 
Cc1nc2[nH+]cccc2n1S(=O)(=O)c1ccc(Cl)cc1 (protonated)
Cc1nc2[nH+]cccc2n1S(=O)(=O)c1ccc(Cl)cc1 (3D coordinates assigned)
Cc1nc2[nH+]cccc2n1S(=O)(=O)c1ccc(Cl)cc1 (optimized conformer: 73.54655452089666 kcal/mol)

>  <smiles>  (20) 
Cc1nc2ncccc2n1S(=O)(=O)c1ccc(Cl)cc1

>  <score_type>  (20) 
oracle

>  <origin>  (20) 
adg

>  <m_score__min__energy>  (20) 
-7.5199999999999996

>  <m_primary>  (20) 
energy

$$$$
20:0
     RDKit          3D

 44 47  0  0  0  0  0  0  0  0999 V2000
   -2.2950   24.6360  -28.8770 C   0  0  0  0  0  0  0  0  0  0  0  0
   -3.2490   25.2760  -29.7180 O   0  0  0  0  0  0  0  0  0  0  0  0
   -4.4270   24.6700  -30.1830 C   0  0  0  0  0  0  0  0  0  0  0  0
   -5.6930   25.2660  -30.0280 C   0  0  0  0  0  0  0  0  0  0  0  0
   -6.8340   24.6230  -30.5130 C   0  0  0  0  0  0  0  0  0  0  0  0
   -6.7270   23.3870  -31.1520 C   0  0  0  0  0  0  0  0  0  0  0  0
   -5.4710   22.7750  -31.3150 C   0  0  0  0  0  0  0  0  0  0  0  0
   -5.3560   21.4590  -31.9940 C   0  0  0  0  0  0  0  0  0  0  0  0
   -6.5090   20.7490  -32.3740 C   0  0  0  0  0  0  0  0  0  0  0  0
   -6.4050   19.5120  -33.0150 C   0  0  0  0  0  0  0  0  0  0  0  0
   -5.1490   18.9630  -33.2830 C   0  0  0  0  0  0  0  0  0  0  0  0
   -5.0580   17.7870  -33.8900 O   0  0  0  0  0  0  0  0  0  0  0  0
   -3.8870   17.2150  -34.1640 C   0  0  0  0  0  0  0  0  0  0  0  0
   -3.8620   15.9380  -34.8240 N   0  0  0  0  0  0  0  0  0  0  0  0
   -3.1350   15.8100  -36.0890 C   0  0  0  0  0  0  0  0  0  0  0  0
   -2.7510   14.3460  -36.3220 C   0  0  0  0  0  0  0  0  0  0  0  0
   -3.8820   13.5040  -36.2110 O   0  0  0  0  0  0  0  0  0  0  0  0
   -4.3740   13.5390  -34.8850 C   0  0  0  0  0  0  0  0  0  0  0  0
   -4.8960   14.9370  -34.5360 C   0  0  0  0  0  0  0  0  0  0  0  0
   -2.7270   17.8540  -33.8340 N   0  0  0  0  0  0  0  0  0  0  0  0
   -2.7530   19.0620  -33.2110 C   0  0  0  0  0  0  0  0  0  0  0  0
   -1.6680   19.6350  -32.9150 O   0  0  0  0  0  0  0  0  0  0  0  0
   -3.9840   19.6590  -32.9100 C   0  0  0  0  0  0  0  0  0  0  0  0
   -4.0900   20.9040  -32.2670 C   0  0  0  0  0  0  0  0  0  0  0  0
   -4.3260   23.4300  -30.8240 C   0  0  0  0  0  0  0  0  0  0  0  0
   -2.5580   24.8125  -27.8236 H   0  0  0  0  0  0  0  0  0  0  0  0
   -2.2953   23.5547  -29.0788 H   0  0  0  0  0  0  0  0  0  0  0  0
   -1.2946   25.0464  -29.0788 H   0  0  0  0  0  0  0  0  0  0  0  0
   -5.7836   26.2396  -29.5241 H   0  0  0  0  0  0  0  0  0  0  0  0
   -7.8211   25.0928  -30.3908 H   0  0  0  0  0  0  0  0  0  0  0  0
   -7.6311   22.8879  -31.5308 H   0  0  0  0  0  0  0  0  0  0  0  0
   -7.5026   21.1718  -32.1644 H   0  0  0  0  0  0  0  0  0  0  0  0
   -7.3150   18.9688  -33.3095 H   0  0  0  0  0  0  0  0  0  0  0  0
   -3.7750   16.1553  -36.9143 H   0  0  0  0  0  0  0  0  0  0  0  0
   -2.2220   16.4221  -36.0462 H   0  0  0  0  0  0  0  0  0  0  0  0
   -2.3221   14.2421  -37.3296 H   0  0  0  0  0  0  0  0  0  0  0  0
   -2.0159   14.0497  -35.5592 H   0  0  0  0  0  0  0  0  0  0  0  0
   -5.1938   12.8124  -34.7850 H   0  0  0  0  0  0  0  0  0  0  0  0
   -3.5534   13.2867  -34.1972 H   0  0  0  0  0  0  0  0  0  0  0  0
   -5.7916   15.1533  -35.1369 H   0  0  0  0  0  0  0  0  0  0  0  0
   -5.1506   14.9740  -33.4665 H   0  0  0  0  0  0  0  0  0  0  0  0
   -1.8040   17.4350  -34.0870 H   0  0  0  0  0  0  0  0  0  0  0  0
   -3.1797   21.4482  -31.9752 H   0  0  0  0  0  0  0  0  0  0  0  0
   -3.3385   22.9610  -30.9457 H   0  0  0  0  0  0  0  0  0  0  0  0
  1  2  1  0
  2  3  1  0
  3  4  2  0
  4  5  1  0
  5  6  2  0
  6  7  1  0
  7  8  1  0
  8  9  2  0
  9 10  1  0
 10 11  2  0
 11 12  1  0
 12 13  1  0
 13 14  1  0
 14 15  1  0
 15 16  1  0
 16 17  1  0
 17 18  1  0
 18 19  1  0
 13 20  2  0
 20 21  1  0
 21 22  2  0
 21 23  1  0
 23 24  2  0
  7 25  2  0
 25  3  1  0
 24  8  1  0
 23 11  1  0
 19 14  1  0
  1 26  1  0
  1 27  1  0
  1 28  1  0
  4 29  1  0
  5 30  1  0
  6 31  1  0
  9 32  1  0
 10 33  1  0
 15 34  1  0
 15 35  1  0
 16 36  1  0
 16 37  1  0
 18 38  1  0
 18 39  1  0
 19 40  1  0
 19 41  1  0
 20 42  1  0
 24 43  1  0
 25 44  1  0
M  CHG  1  20   1
M  END
>  <UniqueID>  (21) 
20

>  <SMILES>  (21) 
COc1cccc(-c2ccc3oc(N4CCOCC4)[nH+]c(=O)c3c2)c1

>  <Energy>  (21) 
60.5563617093072

>  <Genealogy>  (21) 
COc1cccc(-c2ccc3oc(N4CCOCC4)[nH+]c(=O)c3c2)c1 (protonated)
COc1cccc(-c2ccc3oc(N4CCOCC4)[nH+]c(=O)c3c2)c1 (3D coordinates assigned)
COc1cccc(-c2ccc3oc(N4CCOCC4)[nH+]c(=O)c3c2)c1 (nonaromatic ring conformer: 60.5563617093072 kcal/mol)

>  <smiles>  (21) 
COc1cccc(-c2ccc3oc(N4CCOCC4)nc(=O)c3c2)c1

>  <score_type>  (21) 
oracle

>  <origin>  (21) 
adg

>  <m_score__min__energy>  (21) 
-7.6100000000000003

>  <m_primary>  (21) 
energy

$$$$
21:0
     RDKit          3D

 48 51  0  0  0  0  0  0  0  0999 V2000
   -9.1870   23.4320  -32.3420 C   0  0  0  0  0  0  0  0  0  0  0  0
   -8.5320   22.2010  -31.9040 N   0  0  0  0  0  0  0  0  0  0  0  0
   -9.3000   20.9620  -31.8030 C   0  0  0  0  0  0  0  0  0  0  0  0
   -7.1600   22.2150  -31.4860 C   0  0  0  0  0  0  0  0  0  0  0  0
   -6.6130   23.1110  -30.5930 C   0  0  0  0  0  0  0  0  0  0  0  0
   -5.3070   22.6680  -30.4320 C   0  0  0  0  0  0  0  0  0  0  0  0
   -4.2650   23.2640  -29.5600 C   0  0  0  0  0  0  0  0  0  0  0  0
   -4.6400   23.9160  -28.3700 C   0  0  0  0  0  0  0  0  0  0  0  0
   -3.6760   24.4850  -27.5330 C   0  0  0  0  0  0  0  0  0  0  0  0
   -2.3190   24.4100  -27.8690 C   0  0  0  0  0  0  0  0  0  0  0  0
   -1.3400   24.9750  -27.0400 C   0  0  0  0  0  0  0  0  0  0  0  0
    0.0040   24.8810  -27.4050 C   0  0  0  0  0  0  0  0  0  0  0  0
    0.3590   24.2460  -28.5530 N   0  0  0  0  0  0  0  0  0  0  0  0
   -0.5650   23.6870  -29.3790 C   0  0  0  0  0  0  0  0  0  0  0  0
   -1.9290   23.7560  -29.0580 C   0  0  0  0  0  0  0  0  0  0  0  0
   -2.9000   23.1870  -29.8950 C   0  0  0  0  0  0  0  0  0  0  0  0
   -5.1120   21.5580  -31.1750 N   0  0  0  0  0  0  0  0  0  0  0  0
   -6.2330   21.2950  -31.8290 N   0  0  0  0  0  0  0  0  0  0  0  0
   -6.4580   20.0630  -32.5970 C   0  0  0  0  0  0  0  0  0  0  0  0
   -5.2830   19.7870  -33.5530 C   0  0  0  0  0  0  0  0  0  0  0  0
   -5.5530   18.5550  -34.4410 C   0  0  0  0  0  0  0  0  0  0  0  0
   -6.4650   17.5040  -33.7730 C   0  0  0  0  0  0  0  0  0  0  0  0
   -6.3110   17.5080  -32.2480 C   0  0  0  0  0  0  0  0  0  0  0  0
   -6.6880   18.8730  -31.6360 C   0  0  0  0  0  0  0  0  0  0  0  0
   -9.4973   24.0152  -31.4625 H   0  0  0  0  0  0  0  0  0  0  0  0
   -8.4854   24.0255  -32.9466 H   0  0  0  0  0  0  0  0  0  0  0  0
  -10.0712   23.1817  -32.9466 H   0  0  0  0  0  0  0  0  0  0  0  0
   -9.4549   20.7120  -30.7430 H   0  0  0  0  0  0  0  0  0  0  0  0
  -10.2750   21.0938  -32.2950 H   0  0  0  0  0  0  0  0  0  0  0  0
   -8.7482   20.1474  -32.2950 H   0  0  0  0  0  0  0  0  0  0  0  0
   -7.0984   23.9763  -30.1180 H   0  0  0  0  0  0  0  0  0  0  0  0
   -5.7035   23.9783  -28.0958 H   0  0  0  0  0  0  0  0  0  0  0  0
   -3.9845   24.9933  -26.6075 H   0  0  0  0  0  0  0  0  0  0  0  0
   -1.6282   25.4877  -26.1104 H   0  0  0  0  0  0  0  0  0  0  0  0
    0.7788   25.3226  -26.7610 H   0  0  0  0  0  0  0  0  0  0  0  0
   -0.2426   23.1799  -30.3004 H   0  0  0  0  0  0  0  0  0  0  0  0
   -2.5926   22.6769  -30.8199 H   0  0  0  0  0  0  0  0  0  0  0  0
   -7.3606   20.1923  -33.2122 H   0  0  0  0  0  0  0  0  0  0  0  0
   -5.1326   20.6658  -34.1973 H   0  0  0  0  0  0  0  0  0  0  0  0
   -4.3863   19.5863  -32.9483 H   0  0  0  0  0  0  0  0  0  0  0  0
   -6.0345   18.8940  -35.3701 H   0  0  0  0  0  0  0  0  0  0  0  0
   -4.5830   18.0709  -34.6272 H   0  0  0  0  0  0  0  0  0  0  0  0
   -7.5118   17.7277  -34.0263 H   0  0  0  0  0  0  0  0  0  0  0  0
   -6.1734   16.5106  -34.1448 H   0  0  0  0  0  0  0  0  0  0  0  0
   -6.9665   16.7340  -31.8222 H   0  0  0  0  0  0  0  0  0  0  0  0
   -5.2557   17.3077  -32.0111 H   0  0  0  0  0  0  0  0  0  0  0  0
   -7.7525   18.8489  -31.3597 H   0  0  0  0  0  0  0  0  0  0  0  0
   -6.0350   19.0291  -30.7646 H   0  0  0  0  0  0  0  0  0  0  0  0
  1  2  1  0
  2  3  1  0
  2  4  1  0
  4  5  2  0
  5  6  1  0
  6  7  1  0
  7  8  2  0
  8  9  1  0
  9 10  2  0
 10 11  1  0
 11 12  2  0
 12 13  1  0
 13 14  2  0
 14 15  1  0
 15 16  2  0
  6 17  2  0
 17 18  1  0
 18 19  1  0
 19 20  1  0
 20 21  1  0
 21 22  1  0
 22 23  1  0
 23 24  1  0
 18  4  1  0
 24 19  1  0
 16  7  1  0
 15 10  1  0
  1 25  1  0
  1 26  1  0
  1 27  1  0
  3 28  1  0
  3 29  1  0
  3 30  1  0
  5 31  1  0
  8 32  1  0
  9 33  1  0
 11 34  1  0
 12 35  1  0
 14 36  1  0
 16 37  1  0
 19 38  1  0
 20 39  1  0
 20 40  1  0
 21 41  1  0
 21 42  1  0
 22 43  1  0
 22 44  1  0
 23 45  1  0
 23 46  1  0
 24 47  1  0
 24 48  1  0
M  END
>  <UniqueID>  (22) 
21

>  <SMILES>  (22) 
CN(C)c1cc(-c2ccc3ccncc3c2)nn1C1CCCCC1

>  <Energy>  (22) 
90.60079653139424

>  <Genealogy>  (22) 
CN(C)c1cc(-c2ccc3ccncc3c2)nn1C1CCCCC1 (3D coordinates assigned)
CN(C)c1cc(-c2ccc3ccncc3c2)nn1C1CCCCC1 (nonaromatic ring conformer: 90.60079653139424 kcal/mol)

>  <smiles>  (22) 
CN(C)c1cc(-c2ccc3ccncc3c2)nn1C1CCCCC1

>  <score_type>  (22) 
oracle

>  <origin>  (22) 
adg

>  <m_score__min__energy>  (22) 
-8.4399999999999995

>  <m_primary>  (22) 
energy

$$$$
22:0
     RDKit          3D

 44 47  0  0  0  0  0  0  0  0999 V2000
   -0.7630   26.2760  -24.1220 C   0  0  0  0  0  0  0  0  0  0  0  0
   -2.0070   26.3940  -24.8760 N   0  0  0  0  0  0  0  0  0  0  0  0
   -2.2640   25.6850  -26.1020 C   0  0  0  0  0  0  0  0  0  0  0  0
   -1.3320   25.6650  -27.1570 C   0  0  0  0  0  0  0  0  0  0  0  0
   -1.6100   24.9660  -28.3350 C   0  0  0  0  0  0  0  0  0  0  0  0
   -2.8210   24.2660  -28.4800 C   0  0  0  0  0  0  0  0  0  0  0  0
   -3.1410   23.5370  -29.7310 C   0  0  0  0  0  0  0  0  0  0  0  0
   -2.2550   22.6220  -30.1900 N   0  0  0  0  0  0  0  0  0  0  0  0
   -2.4780   21.9190  -31.3230 C   0  0  0  0  0  0  0  0  0  0  0  0
   -1.5310   20.9850  -31.7510 C   0  0  0  0  0  0  0  0  0  0  0  0
   -1.7410   20.2700  -32.8840 N   0  0  0  0  0  0  0  0  0  0  0  0
   -2.8630   20.4370  -33.6300 C   0  0  0  0  0  0  0  0  0  0  0  0
   -3.8390   21.3580  -33.2430 C   0  0  0  0  0  0  0  0  0  0  0  0
   -3.6640   22.1280  -32.0660 C   0  0  0  0  0  0  0  0  0  0  0  0
   -4.5830   23.0640  -31.6180 N   0  0  0  0  0  0  0  0  0  0  0  0
   -5.8390   23.3680  -32.3450 C   0  0  0  0  0  0  0  0  0  0  0  0
   -6.8940   22.3280  -32.0570 C   0  0  0  0  0  0  0  0  0  0  0  0
   -7.9250   22.5880  -31.1370 C   0  0  0  0  0  0  0  0  0  0  0  0
   -8.8870   21.6120  -30.8590 C   0  0  0  0  0  0  0  0  0  0  0  0
   -8.8290   20.3690  -31.4930 C   0  0  0  0  0  0  0  0  0  0  0  0
   -7.8070   20.0990  -32.4070 C   0  0  0  0  0  0  0  0  0  0  0  0
   -7.7500   18.8920  -33.0220 F   0  0  0  0  0  0  0  0  0  0  0  0
   -6.8430   21.0720  -32.6890 C   0  0  0  0  0  0  0  0  0  0  0  0
   -4.3170   23.7780  -30.4690 C   0  0  0  0  0  0  0  0  0  0  0  0
   -5.1160   24.6750  -30.0790 O   0  0  0  0  0  0  0  0  0  0  0  0
   -3.7580   24.3040  -27.4370 C   0  0  0  0  0  0  0  0  0  0  0  0
   -3.4790   25.0010  -26.2580 C   0  0  0  0  0  0  0  0  0  0  0  0
   -0.9839   26.2969  -23.0446 H   0  0  0  0  0  0  0  0  0  0  0  0
   -0.2686   25.3269  -24.3765 H   0  0  0  0  0  0  0  0  0  0  0  0
   -0.0989   27.1152  -24.3765 H   0  0  0  0  0  0  0  0  0  0  0  0
   -2.7450   27.0300  -24.4950 H   0  0  0  0  0  0  0  0  0  0  0  0
   -0.3783   26.2033  -27.0535 H   0  0  0  0  0  0  0  0  0  0  0  0
   -0.8763   24.9634  -29.1545 H   0  0  0  0  0  0  0  0  0  0  0  0
   -0.6120   20.8291  -31.1669 H   0  0  0  0  0  0  0  0  0  0  0  0
   -3.0042   19.8431  -34.5451 H   0  0  0  0  0  0  0  0  0  0  0  0
   -4.7454   21.4861  -33.8529 H   0  0  0  0  0  0  0  0  0  0  0  0
   -6.2092   24.3539  -32.0274 H   0  0  0  0  0  0  0  0  0  0  0  0
   -5.6291   23.3656  -33.4248 H   0  0  0  0  0  0  0  0  0  0  0  0
   -7.9751   23.5645  -30.6332 H   0  0  0  0  0  0  0  0  0  0  0  0
   -9.6914   21.8238  -30.1392 H   0  0  0  0  0  0  0  0  0  0  0  0
   -9.5872   19.6030  -31.2731 H   0  0  0  0  0  0  0  0  0  0  0  0
   -6.0404   20.8542  -33.4089 H   0  0  0  0  0  0  0  0  0  0  0  0
   -4.7196   23.7814  -27.5477 H   0  0  0  0  0  0  0  0  0  0  0  0
   -4.2193   25.0134  -25.4445 H   0  0  0  0  0  0  0  0  0  0  0  0
  1  2  1  0
  2  3  1  0
  3  4  2  0
  4  5  1  0
  5  6  2  0
  6  7  1  0
  7  8  2  0
  8  9  1  0
  9 10  2  0
 10 11  1  0
 11 12  2  0
 12 13  1  0
 13 14  2  0
 14 15  1  0
 15 16  1  0
 16 17  1  0
 17 18  2  0
 18 19  1  0
 19 20  2  0
 20 21  1  0
 21 22  1  0
 21 23  2  0
 15 24  1  0
 24 25  2  0
  6 26  1  0
 26 27  2  0
 27  3  1  0
 24  7  1  0
 14  9  1  0
 23 17  1  0
  1 28  1  0
  1 29  1  0
  1 30  1  0
  2 31  1  0
  4 32  1  0
  5 33  1  0
 10 34  1  0
 12 35  1  0
 13 36  1  0
 16 37  1  0
 16 38  1  0
 18 39  1  0
 19 40  1  0
 20 41  1  0
 23 42  1  0
 26 43  1  0
 27 44  1  0
M  END
>  <UniqueID>  (23) 
22

>  <SMILES>  (23) 
CNc1ccc(-c2nc3cnccc3n(Cc3cccc(F)c3)c2=O)cc1

>  <Energy>  (23) 
65.91892676697397

>  <Genealogy>  (23) 
CNc1ccc(-c2nc3cnccc3n(Cc3cccc(F)c3)c2=O)cc1 (3D coordinates assigned)
CNc1ccc(-c2nc3cnccc3n(Cc3cccc(F)c3)c2=O)cc1 (optimized conformer: 65.91892676697397 kcal/mol)

>  <smiles>  (23) 
CNc1ccc(-c2nc3cnccc3n(Cc3cccc(F)c3)c2=O)cc1

>  <score_type>  (23) 
oracle

>  <origin>  (23) 
adg

>  <m_score__min__energy>  (23) 
-8.6199999999999992

>  <m_primary>  (23) 
energy

$$$$
23:0
     RDKit          3D

 55 58  0  0  0  0  0  0  0  0999 V2000
   -3.1970   23.4270  -28.5760 C   0  0  0  0  0  0  0  0  0  0  0  0
   -3.3860   24.4930  -29.6580 C   0  0  0  0  0  0  0  0  0  0  0  0
   -4.1730   24.0340  -30.8240 N   0  0  0  0  0  0  0  0  0  0  0  0
   -5.4300   24.7500  -31.1270 C   0  0  0  0  0  0  0  0  0  0  0  0
   -6.2290   25.1630  -29.8820 C   0  0  0  0  0  0  0  0  0  0  0  0
   -4.1580   22.5820  -31.0900 C   0  0  0  0  0  0  0  0  0  0  0  0
   -3.5510   22.3110  -32.4670 C   0  0  0  0  0  0  0  0  0  0  0  0
   -3.0690   20.9290  -32.5620 N   0  0  0  0  0  0  0  0  0  0  0  0
   -3.6870   19.8470  -33.1160 C   0  0  0  0  0  0  0  0  0  0  0  0
   -5.0060   19.8900  -33.8420 C   0  0  0  0  0  0  0  0  0  0  0  0
   -6.1110   19.4650  -32.9630 N   0  0  0  0  0  0  0  0  0  0  0  0
   -6.2440   18.0730  -32.6200 C   0  0  0  0  0  0  0  0  0  0  0  0
   -5.2350   17.3160  -32.5940 O   0  0  0  0  0  0  0  0  0  0  0  0
   -7.6090   17.5020  -32.3840 C   0  0  0  0  0  0  0  0  0  0  0  0
   -8.4660   18.4590  -31.7600 O   0  0  0  0  0  0  0  0  0  0  0  0
   -8.2910   19.8440  -31.8740 C   0  0  0  0  0  0  0  0  0  0  0  0
   -9.2840   20.6950  -31.3770 C   0  0  0  0  0  0  0  0  0  0  0  0
   -9.1130   22.0800  -31.4250 C   0  0  0  0  0  0  0  0  0  0  0  0
   -7.9390   22.6190  -31.9490 C   0  0  0  0  0  0  0  0  0  0  0  0
   -6.9370   21.7790  -32.4450 C   0  0  0  0  0  0  0  0  0  0  0  0
   -7.1150   20.3770  -32.4490 C   0  0  0  0  0  0  0  0  0  0  0  0
   -2.9630   18.7080  -32.9800 N   0  0  0  0  0  0  0  0  0  0  0  0
   -1.8630   19.0900  -32.3120 C   0  0  0  0  0  0  0  0  0  0  0  0
   -0.7870   18.3040  -31.9080 C   0  0  0  0  0  0  0  0  0  0  0  0
    0.2570   18.9380  -31.2090 C   0  0  0  0  0  0  0  0  0  0  0  0
    0.1960   20.3240  -30.9340 C   0  0  0  0  0  0  0  0  0  0  0  0
   -0.9060   21.0900  -31.3600 C   0  0  0  0  0  0  0  0  0  0  0  0
   -1.9230   20.4300  -32.0540 C   0  0  0  0  0  0  0  0  0  0  0  0
   -3.2797   23.8935  -27.5833 H   0  0  0  0  0  0  0  0  0  0  0  0
   -3.9721   22.6539  -28.6836 H   0  0  0  0  0  0  0  0  0  0  0  0
   -2.2034   22.9675  -28.6836 H   0  0  0  0  0  0  0  0  0  0  0  0
   -3.9030   25.3538  -29.2089 H   0  0  0  0  0  0  0  0  0  0  0  0
   -2.3834   24.7487  -30.0314 H   0  0  0  0  0  0  0  0  0  0  0  0
   -5.1823   25.6582  -31.6961 H   0  0  0  0  0  0  0  0  0  0  0  0
   -6.0639   24.0537  -31.6956 H   0  0  0  0  0  0  0  0  0  0  0  0
   -5.6729   24.8756  -28.9775 H   0  0  0  0  0  0  0  0  0  0  0  0
   -6.3807   26.2525  -29.8884 H   0  0  0  0  0  0  0  0  0  0  0  0
   -7.2056   24.6567  -29.8884 H   0  0  0  0  0  0  0  0  0  0  0  0
   -3.5563   22.0765  -30.3203 H   0  0  0  0  0  0  0  0  0  0  0  0
   -5.1890   22.1992  -31.0672 H   0  0  0  0  0  0  0  0  0  0  0  0
   -4.3172   22.4793  -33.2381 H   0  0  0  0  0  0  0  0  0  0  0  0
   -2.7001   22.9918  -32.6169 H   0  0  0  0  0  0  0  0  0  0  0  0
   -5.1943   20.9184  -34.1839 H   0  0  0  0  0  0  0  0  0  0  0  0
   -4.9559   19.2006  -34.6977 H   0  0  0  0  0  0  0  0  0  0  0  0
   -8.0455   17.2041  -33.3487 H   0  0  0  0  0  0  0  0  0  0  0  0
   -7.5133   16.6320  -31.7177 H   0  0  0  0  0  0  0  0  0  0  0  0
  -10.2033   20.2713  -30.9466 H   0  0  0  0  0  0  0  0  0  0  0  0
   -9.9043   22.7455  -31.0495 H   0  0  0  0  0  0  0  0  0  0  0  0
   -7.8002   23.7100  -31.9724 H   0  0  0  0  0  0  0  0  0  0  0  0
   -6.0041   22.2124  -32.8346 H   0  0  0  0  0  0  0  0  0  0  0  0
   -3.2030   17.7510  -33.3180 H   0  0  0  0  0  0  0  0  0  0  0  0
   -0.7542   17.2266  -32.1273 H   0  0  0  0  0  0  0  0  0  0  0  0
    1.1258   18.3520  -30.8745 H   0  0  0  0  0  0  0  0  0  0  0  0
    1.0161   20.8075  -30.3829 H   0  0  0  0  0  0  0  0  0  0  0  0
   -0.9640   22.1689  -31.1538 H   0  0  0  0  0  0  0  0  0  0  0  0
  1  2  1  0
  2  3  1  0
  3  4  1  0
  4  5  1  0
  3  6  1  0
  6  7  1  0
  7  8  1  0
  8  9  1  0
  9 10  1  0
 10 11  1  0
 11 12  1  0
 12 13  2  0
 12 14  1  0
 14 15  1  0
 15 16  1  0
 16 17  2  0
 17 18  1  0
 18 19  2  0
 19 20  1  0
 20 21  2  0
  9 22  2  0
 22 23  1  0
 23 24  2  0
 24 25  1  0
 25 26  2  0
 26 27  1  0
 27 28  2  0
 28  8  1  0
 21 11  1  0
 28 23  1  0
 21 16  1  0
  1 29  1  0
  1 30  1  0
  1 31  1  0
  2 32  1  0
  2 33  1  0
  4 34  1  0
  4 35  1  0
  5 36  1  0
  5 37  1  0
  5 38  1  0
  6 39  1  0
  6 40  1  0
  7 41  1  0
  7 42  1  0
 10 43  1  0
 10 44  1  0
 14 45  1  0
 14 46  1  0
 17 47  1  0
 18 48  1  0
 19 49  1  0
 20 50  1  0
 22 51  1  0
 24 52  1  0
 25 53  1  0
 26 54  1  0
 27 55  1  0
M  CHG  1  22   1
M  END
>  <UniqueID>  (24) 
23

>  <SMILES>  (24) 
CCN(CC)CCn1c(CN2C(=O)COc3ccccc32)[nH+]c2ccccc21

>  <Energy>  (24) 
106.55800654956268

>  <Genealogy>  (24) 
CCN(CC)CCn1c(CN2C(=O)COc3ccccc32)[nH+]c2ccccc21 (protonated)
CCN(CC)CCn1c(CN2C(=O)COc3ccccc32)[nH+]c2ccccc21 (3D coordinates assigned)
CCN(CC)CCn1c(CN2C(=O)COc3ccccc32)[nH+]c2ccccc21 (nonaromatic ring conformer: 106.55800654956268 kcal/mol)

>  <smiles>  (24) 
CCN(CC)CCn1c(CN2C(=O)COc3ccccc32)nc2ccccc21

>  <score_type>  (24) 
oracle

>  <origin>  (24) 
adg

>  <m_score__min__energy>  (24) 
-7.9500000000000002

>  <m_primary>  (24) 
energy

$$$$
24:0
     RDKit          3D

 61 64  0  0  0  0  0  0  0  0999 V2000
   -3.0600   11.9230  -34.7870 C   0  0  0  0  0  0  0  0  0  0  0  0
   -4.3500   12.6760  -34.6980 C   0  0  0  0  0  0  0  0  0  0  0  0
   -4.3690   13.9860  -34.1990 C   0  0  0  0  0  0  0  0  0  0  0  0
   -5.5850   14.6790  -34.1160 C   0  0  0  0  0  0  0  0  0  0  0  0
   -5.6140   16.0470  -33.6630 N   0  0  0  0  0  0  0  0  0  0  0  0
   -5.3010   16.3910  -32.2720 C   0  0  0  0  0  0  0  0  0  0  0  0
   -6.4870   17.1320  -31.6580 C   0  0  0  0  0  0  0  0  0  0  0  0
   -6.9760   18.2100  -32.5380 N   0  0  0  0  0  0  0  0  0  0  0  0
   -8.0160   19.0790  -32.0290 C   0  0  0  0  0  0  0  0  0  0  0  0
   -8.6910   18.7050  -31.0310 O   0  0  0  0  0  0  0  0  0  0  0  0
   -8.3730   20.4000  -32.6930 C   0  0  1  0  0  0  0  0  0  0  0  0
   -9.6200   21.0090  -32.0140 C   0  0  0  0  0  0  0  0  0  0  0  0
   -9.2980   21.6130  -30.6350 C   0  0  0  0  0  0  0  0  0  0  0  0
   -7.9570   22.3730  -30.6180 C   0  0  0  0  0  0  0  0  0  0  0  0
   -7.5070   22.6560  -31.9930 N   0  0  0  0  0  0  0  0  0  0  0  0
   -6.4380   23.6780  -32.0620 C   0  0  0  0  0  0  0  0  0  0  0  0
   -5.4490   23.6120  -30.9180 C   0  0  0  0  0  0  0  0  0  0  0  0
   -5.5340   24.5340  -29.8550 C   0  0  0  0  0  0  0  0  0  0  0  0
   -4.6280   24.4680  -28.7920 C   0  0  0  0  0  0  0  0  0  0  0  0
   -3.6350   23.4850  -28.7800 C   0  0  0  0  0  0  0  0  0  0  0  0
   -3.5480   22.5620  -29.8260 C   0  0  0  0  0  0  0  0  0  0  0  0
   -4.4540   22.6180  -30.8900 C   0  0  0  0  0  0  0  0  0  0  0  0
   -7.1790   21.4050  -32.7120 C   0  0  0  0  0  0  0  0  0  0  0  0
   -6.3340   18.4270  -33.8490 C   0  0  0  0  0  0  0  0  0  0  0  0
   -6.0960   17.0950  -34.5740 C   0  0  0  0  0  0  0  0  0  0  0  0
   -6.7600   14.0450  -34.5470 C   0  0  0  0  0  0  0  0  0  0  0  0
   -6.7010   12.7390  -35.0490 C   0  0  0  0  0  0  0  0  0  0  0  0
   -7.9440   12.0530  -35.5200 C   0  0  0  0  0  0  0  0  0  0  0  0
   -5.5050   12.0910  -35.1140 N   0  0  0  0  0  0  0  0  0  0  0  0
   -2.6906   11.7074  -33.7736 H   0  0  0  0  0  0  0  0  0  0  0  0
   -3.2233   10.9784  -35.3264 H   0  0  0  0  0  0  0  0  0  0  0  0
   -2.3178   12.5297  -35.3264 H   0  0  0  0  0  0  0  0  0  0  0  0
   -3.4348   14.4676  -33.8743 H   0  0  0  0  0  0  0  0  0  0  0  0
   -5.1061   15.4714  -31.7007 H   0  0  0  0  0  0  0  0  0  0  0  0
   -4.4087   17.0336  -32.2424 H   0  0  0  0  0  0  0  0  0  0  0  0
   -7.3036   16.4155  -31.4855 H   0  0  0  0  0  0  0  0  0  0  0  0
   -6.1534   17.5871  -30.7137 H   0  0  0  0  0  0  0  0  0  0  0  0
   -8.6081   20.1930  -33.7475 H   0  0  0  0  0  0  0  0  0  0  0  0
  -10.0240   21.8011  -32.6615 H   0  0  0  0  0  0  0  0  0  0  0  0
  -10.3507   20.2004  -31.8649 H   0  0  0  0  0  0  0  0  0  0  0  0
  -10.1021   22.3115  -30.3601 H   0  0  0  0  0  0  0  0  0  0  0  0
   -9.2187   20.7823  -29.9183 H   0  0  0  0  0  0  0  0  0  0  0  0
   -8.0854   23.3219  -30.0765 H   0  0  0  0  0  0  0  0  0  0  0  0
   -7.2012   21.7502  -30.1172 H   0  0  0  0  0  0  0  0  0  0  0  0
   -5.8871   23.5394  -33.0040 H   0  0  0  0  0  0  0  0  0  0  0  0
   -6.9312   24.6593  -32.0004 H   0  0  0  0  0  0  0  0  0  0  0  0
   -6.3157   25.3079  -29.8618 H   0  0  0  0  0  0  0  0  0  0  0  0
   -4.6970   25.1901  -27.9650 H   0  0  0  0  0  0  0  0  0  0  0  0
   -2.9201   23.4374  -27.9454 H   0  0  0  0  0  0  0  0  0  0  0  0
   -2.7649   21.7896  -29.8123 H   0  0  0  0  0  0  0  0  0  0  0  0
   -4.3884   21.8836  -31.7063 H   0  0  0  0  0  0  0  0  0  0  0  0
   -6.9335   21.6477  -33.7564 H   0  0  0  0  0  0  0  0  0  0  0  0
   -6.3240   20.9323  -32.2065 H   0  0  0  0  0  0  0  0  0  0  0  0
   -6.9856   19.0615  -34.4677 H   0  0  0  0  0  0  0  0  0  0  0  0
   -5.3618   18.9150  -33.6859 H   0  0  0  0  0  0  0  0  0  0  0  0
   -7.0423   16.7637  -35.0265 H   0  0  0  0  0  0  0  0  0  0  0  0
   -5.3232   17.2597  -35.3393 H   0  0  0  0  0  0  0  0  0  0  0  0
   -7.7240   14.5718  -34.4908 H   0  0  0  0  0  0  0  0  0  0  0  0
   -8.5346   11.7271  -34.6511 H   0  0  0  0  0  0  0  0  0  0  0  0
   -8.5397   12.7501  -36.1276 H   0  0  0  0  0  0  0  0  0  0  0  0
   -7.6718   11.1774  -36.1276 H   0  0  0  0  0  0  0  0  0  0  0  0
  1  2  1  0
  2  3  2  0
  3  4  1  0
  4  5  1  0
  5  6  1  0
  6  7  1  0
  7  8  1  0
  8  9  1  0
  9 10  2  0
  9 11  1  0
 11 12  1  0
 12 13  1  0
 13 14  1  0
 14 15  1  0
 15 16  1  0
 16 17  1  0
 17 18  2  0
 18 19  1  0
 19 20  2  0
 20 21  1  0
 21 22  2  0
 15 23  1  0
  8 24  1  0
 24 25  1  0
  4 26  2  0
 26 27  1  0
 27 28  1  0
 27 29  2  0
 29  2  1  0
 25  5  1  0
 23 11  1  0
 22 17  1  0
  1 30  1  0
  1 31  1  0
  1 32  1  0
  3 33  1  0
  6 34  1  0
  6 35  1  0
  7 36  1  0
  7 37  1  0
 11 38  1  6
 12 39  1  0
 12 40  1  0
 13 41  1  0
 13 42  1  0
 14 43  1  0
 14 44  1  0
 16 45  1  0
 16 46  1  0
 18 47  1  0
 19 48  1  0
 20 49  1  0
 21 50  1  0
 22 51  1  0
 23 52  1  0
 23 53  1  0
 24 54  1  0
 24 55  1  0
 25 56  1  0
 25 57  1  0
 26 58  1  0
 28 59  1  0
 28 60  1  0
 28 61  1  0
M  END
>  <UniqueID>  (25) 
24

>  <SMILES>  (25) 
Cc1cc(N2CCN(C(=O)[C@H]3CCCN(Cc4ccccc4)C3)CC2)cc(C)n1

>  <Energy>  (25) 
76.9202806409872

>  <Genealogy>  (25) 
Cc1cc(N2CCN(C(=O)[C@H]3CCCN(Cc4ccccc4)C3)CC2)cc(C)n1 (chirality)
Cc1cc(N2CCN(C(=O)[C@H]3CCCN(Cc4ccccc4)C3)CC2)cc(C)n1 (3D coordinates assigned)
Cc1cc(N2CCN(C(=O)[C@H]3CCCN(Cc4ccccc4)C3)CC2)cc(C)n1 (nonaromatic ring conformer: 76.9202806409872 kcal/mol)

>  <smiles>  (25) 
Cc1cc(N2CCN(C(=O)C3CCCN(Cc4ccccc4)C3)CC2)cc(C)n1

>  <score_type>  (25) 
oracle

>  <origin>  (25) 
adg

>  <m_score__min__energy>  (25) 
-9.7200000000000006

>  <m_primary>  (25) 
energy

$$$$
25:0
     RDKit          3D

 50 53  0  0  0  0  0  0  0  0999 V2000
    2.3010   24.5570  -27.4820 C   0  0  0  0  0  0  0  0  0  0  0  0
    1.3640   25.6290  -27.4470 O   0  0  0  0  0  0  0  0  0  0  0  0
    0.7330   26.1040  -26.2840 C   0  0  0  0  0  0  0  0  0  0  0  0
    1.4820   26.6060  -25.2000 C   0  0  0  0  0  0  0  0  0  0  0  0
    0.8430   27.0740  -24.0510 C   0  0  0  0  0  0  0  0  0  0  0  0
   -0.5480   27.0500  -23.9660 C   0  0  0  0  0  0  0  0  0  0  0  0
   -1.3050   26.5560  -25.0290 C   0  0  0  0  0  0  0  0  0  0  0  0
   -0.6810   26.0790  -26.1980 C   0  0  0  0  0  0  0  0  0  0  0  0
   -1.5260   25.5640  -27.3070 C   0  0  0  0  0  0  0  0  0  0  0  0
   -1.3410   25.8940  -28.6010 N   0  0  0  0  0  0  0  0  0  0  0  0
   -2.2640   25.2540  -29.2510 O   0  0  0  0  0  0  0  0  0  0  0  0
   -2.9870   24.5570  -28.4110 C   0  0  0  0  0  0  0  0  0  0  0  0
   -4.1560   23.6980  -28.8070 C   0  0  0  0  0  0  0  0  0  0  0  0
   -4.7760   24.2370  -30.1130 C   0  0  0  0  0  0  0  0  0  0  0  0
   -5.6890   23.2010  -30.7760 C   0  0  0  0  0  0  0  0  0  0  0  0
   -4.9840   21.9280  -31.0000 N   0  0  0  0  0  0  0  0  0  0  0  0
   -5.4980   20.9680  -31.9460 C   0  0  0  0  0  0  0  0  0  0  0  0
   -4.7310   20.0820  -32.4160 O   0  0  0  0  0  0  0  0  0  0  0  0
   -6.8750   21.0030  -32.3620 N   0  0  0  0  0  0  0  0  0  0  0  0
   -7.4220   20.0660  -33.3400 C   0  0  0  0  0  0  0  0  0  0  0  0
   -8.5670   19.2590  -32.7140 C   0  0  0  0  0  0  0  0  0  0  0  0
   -8.7730   19.4700  -31.2220 C   0  0  0  0  0  0  0  0  0  0  0  0
   -8.1390   18.1830  -31.7280 C   0  0  0  0  0  0  0  0  0  0  0  0
   -3.6950   21.6830  -30.3330 C   0  0  0  0  0  0  0  0  0  0  0  0
   -3.7420   22.2050  -28.8930 C   0  0  0  0  0  0  0  0  0  0  0  0
   -2.5650   24.7160  -27.1430 N   0  0  0  0  0  0  0  0  0  0  0  0
    2.5590   24.2618  -26.4542 H   0  0  0  0  0  0  0  0  0  0  0  0
    1.8576   23.6995  -28.0094 H   0  0  0  0  0  0  0  0  0  0  0  0
    3.2101   24.8817  -28.0094 H   0  0  0  0  0  0  0  0  0  0  0  0
    2.5801   26.6290  -25.2605 H   0  0  0  0  0  0  0  0  0  0  0  0
    1.4379   27.4624  -23.2112 H   0  0  0  0  0  0  0  0  0  0  0  0
   -1.0496   27.4209  -23.0600 H   0  0  0  0  0  0  0  0  0  0  0  0
   -2.4022   26.5389  -24.9530 H   0  0  0  0  0  0  0  0  0  0  0  0
   -4.9353   23.7484  -28.0323 H   0  0  0  0  0  0  0  0  0  0  0  0
   -5.3657   25.1367  -29.8830 H   0  0  0  0  0  0  0  0  0  0  0  0
   -3.9580   24.4698  -30.8106 H   0  0  0  0  0  0  0  0  0  0  0  0
   -6.5566   23.0197  -30.1246 H   0  0  0  0  0  0  0  0  0  0  0  0
   -6.0088   23.5957  -31.7517 H   0  0  0  0  0  0  0  0  0  0  0  0
   -7.5210   21.7250  -31.9720 H   0  0  0  0  0  0  0  0  0  0  0  0
   -7.8030   20.6260  -34.2068 H   0  0  0  0  0  0  0  0  0  0  0  0
   -6.6279   19.3754  -33.6602 H   0  0  0  0  0  0  0  0  0  0  0  0
   -9.2156   19.2901  -33.6019 H   0  0  0  0  0  0  0  0  0  0  0  0
   -8.1625   20.2084  -30.6815 H   0  0  0  0  0  0  0  0  0  0  0  0
   -9.6341   19.7138  -30.5825 H   0  0  0  0  0  0  0  0  0  0  0  0
   -7.0701   17.9907  -31.5534 H   0  0  0  0  0  0  0  0  0  0  0  0
   -8.3518   17.1107  -31.6059 H   0  0  0  0  0  0  0  0  0  0  0  0
   -3.4902   20.6023  -30.3221 H   0  0  0  0  0  0  0  0  0  0  0  0
   -2.8992   22.2083  -30.8815 H   0  0  0  0  0  0  0  0  0  0  0  0
   -4.4691   21.6056  -28.3256 H   0  0  0  0  0  0  0  0  0  0  0  0
   -2.7276   22.1184  -28.4764 H   0  0  0  0  0  0  0  0  0  0  0  0
  1  2  1  0
  2  3  1  0
  3  4  2  0
  4  5  1  0
  5  6  2  0
  6  7  1  0
  7  8  2  0
  8  9  1  0
  9 10  2  0
 10 11  1  0
 11 12  1  0
 12 13  1  0
 13 14  1  0
 14 15  1  0
 15 16  1  0
 16 17  1  0
 17 18  2  0
 17 19  1  0
 19 20  1  0
 20 21  1  0
 21 22  1  0
 22 23  1  0
 16 24  1  0
 24 25  1  0
 12 26  2  0
  8  3  1  0
 26  9  1  0
 25 13  1  0
 23 21  1  0
  1 27  1  0
  1 28  1  0
  1 29  1  0
  4 30  1  0
  5 31  1  0
  6 32  1  0
  7 33  1  0
 13 34  1  0
 14 35  1  0
 14 36  1  0
 15 37  1  0
 15 38  1  0
 19 39  1  0
 20 40  1  0
 20 41  1  0
 21 42  1  0
 22 43  1  0
 22 44  1  0
 23 45  1  0
 23 46  1  0
 24 47  1  0
 24 48  1  0
 25 49  1  0
 25 50  1  0
M  END
>  <UniqueID>  (26) 
25

>  <SMILES>  (26) 
COc1ccccc1-c1noc(C2CCN(C(=O)NCC3CC3)CC2)n1

>  <Energy>  (26) 
348.8370959125459

>  <Genealogy>  (26) 
COc1ccccc1-c1noc(C2CCN(C(=O)NCC3CC3)CC2)n1 (3D coordinates assigned)
COc1ccccc1-c1noc(C2CCN(C(=O)NCC3CC3)CC2)n1 (nonaromatic ring conformer: 348.8370959125459 kcal/mol)

>  <smiles>  (26) 
COc1ccccc1-c1noc(C2CCN(C(=O)NCC3CC3)CC2)n1

>  <score_type>  (26) 
oracle

>  <origin>  (26) 
adg

>  <m_score__min__energy>  (26) 
-8.1999999999999993

>  <m_primary>  (26) 
energy

$$$$
26:0
     RDKit          3D

 38 38  0  0  0  0  0  0  0  0999 V2000
   -5.5970   17.7690  -34.5760 C   0  0  0  0  0  0  0  0  0  0  0  0
   -6.3990   16.9630  -33.5580 C   0  0  0  0  0  0  0  0  0  0  0  0
   -6.7520   17.8180  -32.3310 C   0  0  0  0  0  0  0  0  0  0  0  0
   -8.0580   18.6090  -32.5200 C   0  0  0  0  0  0  0  0  0  0  0  0
   -7.8780   19.7590  -33.4210 N   0  0  0  0  0  0  0  0  0  0  0  0
   -7.2810   20.8640  -32.7010 C   0  0  0  0  0  0  0  0  0  0  0  0
   -5.8920   21.0570  -32.7750 C   0  0  0  0  0  0  0  0  0  0  0  0
   -5.2740   22.0970  -32.0810 C   0  0  0  0  0  0  0  0  0  0  0  0
   -6.0250   22.9790  -31.2860 C   0  0  0  0  0  0  0  0  0  0  0  0
   -5.3810   24.0650  -30.5690 N   0  0  0  0  0  0  0  0  0  0  0  0
   -6.1320   25.2750  -30.2130 C   0  0  0  0  0  0  0  0  0  0  0  0
   -3.9650   23.9720  -30.1920 C   0  0  0  0  0  0  0  0  0  0  0  0
   -7.4180   22.7830  -31.2000 C   0  0  0  0  0  0  0  0  0  0  0  0
   -8.0530   21.7320  -31.8840 C   0  0  0  0  0  0  0  0  0  0  0  0
   -9.5480   21.5830  -31.7650 C   0  0  0  0  0  0  0  0  0  0  0  0
   -4.9164   18.4530  -34.0479 H   0  0  0  0  0  0  0  0  0  0  0  0
   -5.0116   17.0840  -35.2069 H   0  0  0  0  0  0  0  0  0  0  0  0
   -6.2849   18.3510  -35.2069 H   0  0  0  0  0  0  0  0  0  0  0  0
   -7.3281   16.6108  -34.0300 H   0  0  0  0  0  0  0  0  0  0  0  0
   -5.7873   16.1111  -33.2263 H   0  0  0  0  0  0  0  0  0  0  0  0
   -6.8637   17.1557  -31.4599 H   0  0  0  0  0  0  0  0  0  0  0  0
   -5.9393   18.5447  -32.1851 H   0  0  0  0  0  0  0  0  0  0  0  0
   -8.8205   17.9400  -32.9454 H   0  0  0  0  0  0  0  0  0  0  0  0
   -8.3699   18.9917  -31.5370 H   0  0  0  0  0  0  0  0  0  0  0  0
   -7.2510   19.4840  -34.2120 H   0  0  0  0  0  0  0  0  0  0  0  0
   -8.7890   20.0480  -33.8420 H   0  0  0  0  0  0  0  0  0  0  0  0
   -5.2825   20.3780  -33.3893 H   0  0  0  0  0  0  0  0  0  0  0  0
   -4.1845   22.2284  -32.1571 H   0  0  0  0  0  0  0  0  0  0  0  0
   -6.1870   25.3635  -29.1179 H   0  0  0  0  0  0  0  0  0  0  0  0
   -5.6228   26.1577  -30.6271 H   0  0  0  0  0  0  0  0  0  0  0  0
   -7.1490   25.2105  -30.6271 H   0  0  0  0  0  0  0  0  0  0  0  0
   -3.8771   23.9662  -29.0955 H   0  0  0  0  0  0  0  0  0  0  0  0
   -3.5374   23.0438  -30.5990 H   0  0  0  0  0  0  0  0  0  0  0  0
   -3.4197   24.8363  -30.5990 H   0  0  0  0  0  0  0  0  0  0  0  0
   -8.0210   23.4669  -30.5846 H   0  0  0  0  0  0  0  0  0  0  0  0
   -9.8302   21.5549  -30.7022 H   0  0  0  0  0  0  0  0  0  0  0  0
  -10.0415   22.4364  -32.2530 H   0  0  0  0  0  0  0  0  0  0  0  0
   -9.8634   20.6490  -32.2530 H   0  0  0  0  0  0  0  0  0  0  0  0
  1  2  1  0
  2  3  1  0
  3  4  1  0
  4  5  1  0
  5  6  1  0
  6  7  2  0
  7  8  1  0
  8  9  2  0
  9 10  1  0
 10 11  1  0
 10 12  1  0
  9 13  1  0
 13 14  2  0
 14 15  1  0
 14  6  1  0
  1 16  1  0
  1 17  1  0
  1 18  1  0
  2 19  1  0
  2 20  1  0
  3 21  1  0
  3 22  1  0
  4 23  1  0
  4 24  1  0
  5 25  1  0
  5 26  1  0
  7 27  1  0
  8 28  1  0
 11 29  1  0
 11 30  1  0
 11 31  1  0
 12 32  1  0
 12 33  1  0
 12 34  1  0
 13 35  1  0
 15 36  1  0
 15 37  1  0
 15 38  1  0
M  CHG  1   5   1
M  END
>  <UniqueID>  (27) 
26

>  <SMILES>  (27) 
CCCC[NH2+]c1ccc(N(C)C)cc1C

>  <Energy>  (27) 
32.40682799067099

>  <Genealogy>  (27) 
CCCC[NH2+]c1ccc(N(C)C)cc1C (protonated)
CCCC[NH2+]c1ccc(N(C)C)cc1C (3D coordinates assigned)
CCCC[NH2+]c1ccc(N(C)C)cc1C (optimized conformer: 32.40682799067099 kcal/mol)

>  <smiles>  (27) 
CCCCNc1ccc(N(C)C)cc1C

>  <score_type>  (27) 
oracle

>  <origin>  (27) 
adg

>  <m_score__min__energy>  (27) 
-5.7000000000000002

>  <m_primary>  (27) 
energy

$$$$
27:0
     RDKit          3D

 38 40  0  0  0  0  0  0  0  0999 V2000
   -9.4980   22.0670  -31.9460 C   0  0  0  0  0  0  0  0  0  0  0  0
   -9.0050   20.8200  -31.2180 C   0  0  0  0  0  0  0  0  0  0  0  0
   -9.1080   19.5830  -32.1140 C   0  0  0  0  0  0  0  0  0  0  0  0
   -7.7270   18.9720  -32.3720 C   0  0  0  0  0  0  0  0  0  0  0  0
   -7.0450   19.6860  -33.4490 N   0  0  0  0  0  0  0  0  0  0  0  0
   -5.6190   19.6820  -33.5520 C   0  0  0  0  0  0  0  0  0  0  0  0
   -4.7320   20.5660  -32.9450 C   0  0  0  0  0  0  0  0  0  0  0  0
   -5.0630   21.7760  -32.1600 C   0  0  0  0  0  0  0  0  0  0  0  0
   -6.2810   22.4420  -32.3840 C   0  0  0  0  0  0  0  0  0  0  0  0
   -6.6020   23.5950  -31.6620 C   0  0  0  0  0  0  0  0  0  0  0  0
   -5.7160   24.0890  -30.7000 C   0  0  0  0  0  0  0  0  0  0  0  0
   -6.1560   25.6660  -29.7160 Br  0  0  0  0  0  0  0  0  0  0  0  0
   -4.5120   23.4240  -30.4560 C   0  0  0  0  0  0  0  0  0  0  0  0
   -4.1870   22.2710  -31.1760 C   0  0  0  0  0  0  0  0  0  0  0  0
   -3.4630   20.1190  -33.1250 N   0  0  0  0  0  0  0  0  0  0  0  0
   -3.6220   18.9820  -33.8350 C   0  0  0  0  0  0  0  0  0  0  0  0
   -2.6110   18.1280  -34.2620 C   0  0  0  0  0  0  0  0  0  0  0  0
   -2.9690   17.0010  -34.9450 N   0  0  0  0  0  0  0  0  0  0  0  0
   -4.2790   16.7040  -35.2050 C   0  0  0  0  0  0  0  0  0  0  0  0
   -5.2890   17.5740  -34.7660 C   0  0  0  0  0  0  0  0  0  0  0  0
   -4.9040   18.6900  -34.0970 N   0  0  0  0  0  0  0  0  0  0  0  0
   -9.7984   22.8268  -31.2095 H   0  0  0  0  0  0  0  0  0  0  0  0
   -8.6903   22.4668  -32.5767 H   0  0  0  0  0  0  0  0  0  0  0  0
  -10.3608   21.8064  -32.5767 H   0  0  0  0  0  0  0  0  0  0  0  0
   -7.9545   20.9659  -30.9261 H   0  0  0  0  0  0  0  0  0  0  0  0
   -9.6342   20.6618  -30.3297 H   0  0  0  0  0  0  0  0  0  0  0  0
   -9.7456   18.8344  -31.6209 H   0  0  0  0  0  0  0  0  0  0  0  0
   -9.5418   19.8855  -33.0785 H   0  0  0  0  0  0  0  0  0  0  0  0
   -7.1241   19.0394  -31.4544 H   0  0  0  0  0  0  0  0  0  0  0  0
   -7.8528   17.9196  -32.6665 H   0  0  0  0  0  0  0  0  0  0  0  0
   -7.6020   20.0290  -34.2630 H   0  0  0  0  0  0  0  0  0  0  0  0
   -6.9864   22.0527  -33.1329 H   0  0  0  0  0  0  0  0  0  0  0  0
   -7.5531   24.1144  -31.8510 H   0  0  0  0  0  0  0  0  0  0  0  0
   -3.8175   23.8090  -29.6948 H   0  0  0  0  0  0  0  0  0  0  0  0
   -3.2412   21.7475  -30.9724 H   0  0  0  0  0  0  0  0  0  0  0  0
   -1.5543   18.3536  -34.0557 H   0  0  0  0  0  0  0  0  0  0  0  0
   -4.5393   15.7879  -35.7554 H   0  0  0  0  0  0  0  0  0  0  0  0
   -6.3509   17.3596  -34.9567 H   0  0  0  0  0  0  0  0  0  0  0  0
  1  2  1  0
  2  3  1  0
  3  4  1  0
  4  5  1  0
  5  6  1  0
  6  7  2  0
  7  8  1  0
  8  9  2  0
  9 10  1  0
 10 11  2  0
 11 12  1  0
 11 13  1  0
 13 14  2  0
  7 15  1  0
 15 16  2  0
 16 17  1  0
 17 18  2  0
 18 19  1  0
 19 20  2  0
 20 21  1  0
 21  6  1  0
 14  8  1  0
 21 16  1  0
  1 22  1  0
  1 23  1  0
  1 24  1  0
  2 25  1  0
  2 26  1  0
  3 27  1  0
  3 28  1  0
  4 29  1  0
  4 30  1  0
  5 31  1  0
  9 32  1  0
 10 33  1  0
 13 34  1  0
 14 35  1  0
 17 36  1  0
 19 37  1  0
 20 38  1  0
M  END
>  <UniqueID>  (28) 
27

>  <SMILES>  (28) 
CCCCNc1c(-c2ccc(Br)cc2)nc2cnccn12

>  <Energy>  (28) 
78.1621007336484

>  <Genealogy>  (28) 
CCCCNc1c(-c2ccc(Br)cc2)nc2cnccn12 (3D coordinates assigned)
CCCCNc1c(-c2ccc(Br)cc2)nc2cnccn12 (optimized conformer: 78.1621007336484 kcal/mol)

>  <smiles>  (28) 
CCCCNc1c(-c2ccc(Br)cc2)nc2cnccn12

>  <score_type>  (28) 
oracle

>  <origin>  (28) 
adg

>  <m_score__min__energy>  (28) 
-7.79

>  <m_primary>  (28) 
energy

$$$$
28:0
     RDKit          3D

 40 41  0  0  0  0  0  0  0  0999 V2000
   -7.9940   18.1350  -31.9500 C   0  0  0  0  0  0  0  0  0  0  0  0
   -8.8240   19.3890  -31.6810 C   0  0  0  0  0  0  0  0  0  0  0  0
   -8.5410   20.5070  -32.6940 C   0  0  0  0  0  0  0  0  0  0  0  0
   -7.2440   21.1650  -32.4280 N   0  0  0  0  0  0  0  0  0  0  0  0
   -7.1780   22.2400  -31.5670 C   0  0  0  0  0  0  0  0  0  0  0  0
   -8.2100   22.6910  -31.0000 O   0  0  0  0  0  0  0  0  0  0  0  0
   -5.9380   22.8200  -31.3350 C   0  0  0  0  0  0  0  0  0  0  0  0
   -4.8290   22.3320  -31.9370 C   0  0  0  0  0  0  0  0  0  0  0  0
   -3.7390   23.0470  -31.5880 N   0  0  0  0  0  0  0  0  0  0  0  0
   -4.2550   23.9810  -30.7470 C   0  0  0  0  0  0  0  0  0  0  0  0
   -3.4840   24.9640  -30.1240 O   0  0  0  0  0  0  0  0  0  0  0  0
   -2.6970   24.6960  -28.9710 C   0  0  0  0  0  0  0  0  0  0  0  0
   -5.5960   23.8700  -30.5680 N   0  0  0  0  0  0  0  0  0  0  0  0
   -6.4580   24.7120  -29.7430 C   0  0  0  0  0  0  0  0  0  0  0  0
   -4.8660   21.2640  -32.7780 N   0  0  0  0  0  0  0  0  0  0  0  0
   -3.6380   20.7870  -33.4350 C   0  0  0  0  0  0  0  0  0  0  0  0
   -2.6530   20.2490  -32.3920 C   0  0  0  0  0  0  0  0  0  0  0  0
   -1.3630   21.0630  -32.3780 C   0  0  0  0  0  0  0  0  0  0  0  0
   -6.0930   20.6850  -33.0330 C   0  0  0  0  0  0  0  0  0  0  0  0
   -6.1650   19.7090  -33.8310 O   0  0  0  0  0  0  0  0  0  0  0  0
   -7.6940   17.6817  -30.9937 H   0  0  0  0  0  0  0  0  0  0  0  0
   -8.5941   17.4144  -32.5250 H   0  0  0  0  0  0  0  0  0  0  0  0
   -7.0962   18.4059  -32.5250 H   0  0  0  0  0  0  0  0  0  0  0  0
   -9.8905   19.1250  -31.7352 H   0  0  0  0  0  0  0  0  0  0  0  0
   -8.5515   19.7637  -30.6834 H   0  0  0  0  0  0  0  0  0  0  0  0
   -8.5220   20.0759  -33.7058 H   0  0  0  0  0  0  0  0  0  0  0  0
   -9.3355   21.2625  -32.6045 H   0  0  0  0  0  0  0  0  0  0  0  0
   -3.2903   24.8980  -28.0670 H   0  0  0  0  0  0  0  0  0  0  0  0
   -2.3854   23.6411  -28.9769 H   0  0  0  0  0  0  0  0  0  0  0  0
   -1.8063   25.3415  -28.9769 H   0  0  0  0  0  0  0  0  0  0  0  0
   -6.2553   24.5140  -28.6801 H   0  0  0  0  0  0  0  0  0  0  0  0
   -6.2564   25.7706  -29.9637 H   0  0  0  0  0  0  0  0  0  0  0  0
   -7.5116   24.4856  -29.9637 H   0  0  0  0  0  0  0  0  0  0  0  0
   -3.8930   19.9837  -34.1420 H   0  0  0  0  0  0  0  0  0  0  0  0
   -3.1696   21.6255  -33.9712 H   0  0  0  0  0  0  0  0  0  0  0  0
   -3.1202   20.3005  -31.3975 H   0  0  0  0  0  0  0  0  0  0  0  0
   -2.4052   19.2092  -32.6516 H   0  0  0  0  0  0  0  0  0  0  0  0
   -1.0610   21.2536  -31.3376 H   0  0  0  0  0  0  0  0  0  0  0  0
   -0.5696   20.5016  -32.8932 H   0  0  0  0  0  0  0  0  0  0  0  0
   -1.5282   22.0208  -32.8932 H   0  0  0  0  0  0  0  0  0  0  0  0
  1  2  1  0
  2  3  1  0
  3  4  1  0
  4  5  1  0
  5  6  2  0
  5  7  1  0
  7  8  2  0
  8  9  1  0
  9 10  2  0
 10 11  1  0
 11 12  1  0
 10 13  1  0
 13 14  1  0
  8 15  1  0
 15 16  1  0
 16 17  1  0
 17 18  1  0
 15 19  1  0
 19 20  2  0
 19  4  1  0
 13  7  1  0
  1 21  1  0
  1 22  1  0
  1 23  1  0
  2 24  1  0
  2 25  1  0
  3 26  1  0
  3 27  1  0
 12 28  1  0
 12 29  1  0
 12 30  1  0
 14 31  1  0
 14 32  1  0
 14 33  1  0
 16 34  1  0
 16 35  1  0
 17 36  1  0
 17 37  1  0
 18 38  1  0
 18 39  1  0
 18 40  1  0
M  END
>  <UniqueID>  (29) 
28

>  <SMILES>  (29) 
CCCn1c(=O)c2c(nc(OC)n2C)n(CCC)c1=O

>  <Energy>  (29) 
72.80670424348584

>  <Genealogy>  (29) 
CCCn1c(=O)c2c(nc(OC)n2C)n(CCC)c1=O (3D coordinates assigned)
CCCn1c(=O)c2c(nc(OC)n2C)n(CCC)c1=O (optimized conformer: 72.80670424348584 kcal/mol)

>  <smiles>  (29) 
CCCn1c(=O)c2c(nc(OC)n2C)n(CCC)c1=O

>  <score_type>  (29) 
oracle

>  <origin>  (29) 
adg

>  <m_score__min__energy>  (29) 
-6.4800000000000004

>  <m_primary>  (29) 
energy

$$$$
29:0
     RDKit          3D

 54 56  0  0  0  0  0  0  0  0999 V2000
   -3.8800   21.4220  -31.7990 C   0  0  0  0  0  0  0  0  0  0  0  0
   -3.4510   22.5210  -30.8670 C   0  0  0  0  0  0  0  0  0  0  0  0
   -2.1150   22.5740  -30.4350 C   0  0  0  0  0  0  0  0  0  0  0  0
   -1.6920   23.5740  -29.5560 C   0  0  0  0  0  0  0  0  0  0  0  0
   -2.6010   24.5260  -29.0900 C   0  0  0  0  0  0  0  0  0  0  0  0
   -3.9350   24.4760  -29.4970 C   0  0  0  0  0  0  0  0  0  0  0  0
   -4.3730   23.4720  -30.3730 C   0  0  0  0  0  0  0  0  0  0  0  0
   -5.7550   23.4440  -30.7580 N   0  0  0  0  0  0  0  0  0  0  0  0
   -6.7880   23.2390  -29.7360 C   0  0  0  0  0  0  0  0  0  0  0  0
   -7.9050   22.2910  -30.2290 C   0  0  0  0  0  0  0  0  0  0  0  0
   -7.8690   22.0540  -31.6900 N   0  0  0  0  0  0  0  0  0  0  0  0
   -9.1300   21.4390  -32.1580 C   0  0  0  0  0  0  0  0  0  0  0  0
   -8.8550   20.0090  -32.6850 C   0  0  0  0  0  0  0  0  0  0  0  0
   -7.4910   19.4870  -32.4050 N   0  0  2  0  0  0  0  0  0  0  0  0
   -6.4930   19.8400  -33.4570 C   0  0  0  0  0  0  0  0  0  0  0  0
   -6.1130   18.6430  -34.3440 C   0  0  0  0  0  0  0  0  0  0  0  0
   -5.5330   17.4740  -33.5090 C   0  0  1  0  0  0  0  0  0  0  0  0
   -3.9990   17.5100  -33.4860 C   0  0  0  0  0  0  0  0  0  0  0  0
   -6.0970   17.4480  -32.0700 C   0  0  0  0  0  0  0  0  0  0  0  0
   -7.5050   18.0490  -32.0240 C   0  0  0  0  0  0  0  0  0  0  0  0
   -7.5750   23.3060  -32.4110 C   0  0  0  0  0  0  0  0  0  0  0  0
   -6.1160   23.6810  -32.1590 C   0  0  0  0  0  0  0  0  0  0  0  0
   -4.2184   20.5551  -31.2125 H   0  0  0  0  0  0  0  0  0  0  0  0
   -4.7044   21.7800  -32.4332 H   0  0  0  0  0  0  0  0  0  0  0  0
   -3.0311   21.1268  -32.4332 H   0  0  0  0  0  0  0  0  0  0  0  0
   -1.3961   21.8218  -30.7919 H   0  0  0  0  0  0  0  0  0  0  0  0
   -0.6419   23.6115  -29.2307 H   0  0  0  0  0  0  0  0  0  0  0  0
   -2.2655   25.3158  -28.4018 H   0  0  0  0  0  0  0  0  0  0  0  0
   -4.6474   25.2287  -29.1285 H   0  0  0  0  0  0  0  0  0  0  0  0
   -6.3210   22.8032  -28.8405 H   0  0  0  0  0  0  0  0  0  0  0  0
   -7.2432   24.2146  -29.5103 H   0  0  0  0  0  0  0  0  0  0  0  0
   -7.7945   21.3244  -29.7156 H   0  0  0  0  0  0  0  0  0  0  0  0
   -8.8666   22.7739  -30.0007 H   0  0  0  0  0  0  0  0  0  0  0  0
   -9.8435   21.3888  -31.3223 H   0  0  0  0  0  0  0  0  0  0  0  0
   -9.5512   22.0496  -32.9703 H   0  0  0  0  0  0  0  0  0  0  0  0
   -9.5830   19.3281  -32.2198 H   0  0  0  0  0  0  0  0  0  0  0  0
   -8.9446   20.0626  -33.7800 H   0  0  0  0  0  0  0  0  0  0  0  0
   -7.1830   19.9970  -31.5420 H   0  0  0  0  0  0  0  0  0  0  0  0
   -6.9187   20.6287  -34.0947 H   0  0  0  0  0  0  0  0  0  0  0  0
   -5.5789   20.1769  -32.9463 H   0  0  0  0  0  0  0  0  0  0  0  0
   -7.0111   18.2920  -34.8734 H   0  0  0  0  0  0  0  0  0  0  0  0
   -5.3412   18.9735  -35.0547 H   0  0  0  0  0  0  0  0  0  0  0  0
   -5.8507   16.5453  -34.0055 H   0  0  0  0  0  0  0  0  0  0  0  0
   -3.6480   17.5182  -32.4435 H   0  0  0  0  0  0  0  0  0  0  0  0
   -3.6036   16.6209  -33.9990 H   0  0  0  0  0  0  0  0  0  0  0  0
   -3.6458   18.4167  -33.9990 H   0  0  0  0  0  0  0  0  0  0  0  0
   -6.1382   16.4066  -31.7181 H   0  0  0  0  0  0  0  0  0  0  0  0
   -5.4382   18.0462  -31.4234 H   0  0  0  0  0  0  0  0  0  0  0  0
   -8.1524   17.4993  -32.7231 H   0  0  0  0  0  0  0  0  0  0  0  0
   -7.8848   17.9659  -30.9950 H   0  0  0  0  0  0  0  0  0  0  0  0
   -7.7396   23.1606  -33.4888 H   0  0  0  0  0  0  0  0  0  0  0  0
   -8.2368   24.1094  -32.0552 H   0  0  0  0  0  0  0  0  0  0  0  0
   -5.4692   23.0710  -32.8068 H   0  0  0  0  0  0  0  0  0  0  0  0
   -5.9815   24.7495  -32.3832 H   0  0  0  0  0  0  0  0  0  0  0  0
  1  2  1  0
  2  3  2  0
  3  4  1  0
  4  5  2  0
  5  6  1  0
  6  7  2  0
  7  8  1  0
  8  9  1  0
  9 10  1  0
 10 11  1  0
 11 12  1  0
 12 13  1  0
 13 14  1  0
 14 15  1  0
 15 16  1  0
 16 17  1  0
 17 18  1  0
 17 19  1  0
 19 20  1  0
 11 21  1  0
 21 22  1  0
  7  2  1  0
 22  8  1  0
 20 14  1  0
  1 23  1  0
  1 24  1  0
  1 25  1  0
  3 26  1  0
  4 27  1  0
  5 28  1  0
  6 29  1  0
  9 30  1  0
  9 31  1  0
 10 32  1  0
 10 33  1  0
 12 34  1  0
 12 35  1  0
 13 36  1  0
 13 37  1  0
 14 38  1  1
 15 39  1  0
 15 40  1  0
 16 41  1  0
 16 42  1  0
 17 43  1  6
 18 44  1  0
 18 45  1  0
 18 46  1  0
 19 47  1  0
 19 48  1  0
 20 49  1  0
 20 50  1  0
 21 51  1  0
 21 52  1  0
 22 53  1  0
 22 54  1  0
M  CHG  1  14   1
M  END
>  <UniqueID>  (30) 
29

>  <SMILES>  (30) 
Cc1ccccc1N1CCN(CC[NH+]2CCC(C)CC2)CC1

>  <Energy>  (30) 
74.44310306566103

>  <Genealogy>  (30) 
Cc1ccccc1N1CCN(CC[NH+]2CCC(C)CC2)CC1 (protonated)
Cc1ccccc1N1CCN(CC[NH+]2CCC(C)CC2)CC1 (3D coordinates assigned)
Cc1ccccc1N1CCN(CC[NH+]2CCC(C)CC2)CC1 (nonaromatic ring conformer: 74.44310306566103 kcal/mol)

>  <smiles>  (30) 
Cc1ccccc1N1CCN(CCN2CCC(C)CC2)CC1

>  <score_type>  (30) 
oracle

>  <origin>  (30) 
adg

>  <m_score__min__energy>  (30) 
-7.6100000000000003

>  <m_primary>  (30) 
energy

$$$$
30:0
     RDKit          3D

 32 33  0  0  0  0  0  0  0  0999 V2000
   -1.9500   25.0350  -27.9540 C   0  0  0  0  0  0  0  0  0  0  0  0
   -2.3560   25.2930  -29.3270 N   0  0  0  0  0  0  0  0  0  0  0  0
   -3.1090   24.3540  -30.1030 C   0  0  0  0  0  0  0  0  0  0  0  0
   -4.2260   24.6930  -30.5800 O   0  0  0  0  0  0  0  0  0  0  0  0
   -2.5560   23.0030  -30.3720 C   0  0  0  0  0  0  0  0  0  0  0  0
   -1.1960   22.7620  -30.1000 C   0  0  0  0  0  0  0  0  0  0  0  0
   -0.6180   21.5260  -30.3920 C   0  0  0  0  0  0  0  0  0  0  0  0
   -1.3880   20.5100  -30.9550 C   0  0  0  0  0  0  0  0  0  0  0  0
   -2.7410   20.7230  -31.2190 C   0  0  0  0  0  0  0  0  0  0  0  0
   -3.3410   21.9630  -30.9340 C   0  0  0  0  0  0  0  0  0  0  0  0
   -4.7570   22.1220  -31.1280 N   0  0  0  0  0  0  0  0  0  0  0  0
   -5.4760   21.4610  -32.1830 C   0  0  0  0  0  0  0  0  0  0  0  0
   -4.8410   20.9730  -33.1590 O   0  0  0  0  0  0  0  0  0  0  0  0
   -6.9570   21.3780  -32.1630 C   0  0  0  0  0  0  0  0  0  0  0  0
   -7.7450   22.5200  -31.9180 C   0  0  0  0  0  0  0  0  0  0  0  0
   -9.1400   22.4260  -31.8960 C   0  0  0  0  0  0  0  0  0  0  0  0
   -9.7630   21.1950  -32.1100 C   0  0  0  0  0  0  0  0  0  0  0  0
   -8.9930   20.0530  -32.3430 C   0  0  0  0  0  0  0  0  0  0  0  0
   -9.6000   18.8580  -32.5470 F   0  0  0  0  0  0  0  0  0  0  0  0
   -7.5980   20.1420  -32.3660 C   0  0  0  0  0  0  0  0  0  0  0  0
   -2.6738   25.4949  -27.2650 H   0  0  0  0  0  0  0  0  0  0  0  0
   -1.9163   23.9495  -27.7794 H   0  0  0  0  0  0  0  0  0  0  0  0
   -0.9529   25.4655  -27.7794 H   0  0  0  0  0  0  0  0  0  0  0  0
   -0.5819   23.5572  -29.6521 H   0  0  0  0  0  0  0  0  0  0  0  0
    0.4470   21.3533  -30.1775 H   0  0  0  0  0  0  0  0  0  0  0  0
   -0.9283   19.5390  -31.1915 H   0  0  0  0  0  0  0  0  0  0  0  0
   -3.3449   19.9132  -31.6544 H   0  0  0  0  0  0  0  0  0  0  0  0
   -5.2700   22.7880  -30.5080 H   0  0  0  0  0  0  0  0  0  0  0  0
   -7.2598   23.4916  -31.7429 H   0  0  0  0  0  0  0  0  0  0  0  0
   -9.7478   23.3237  -31.7097 H   0  0  0  0  0  0  0  0  0  0  0  0
  -10.8606   21.1244  -32.0951 H   0  0  0  0  0  0  0  0  0  0  0  0
   -6.9966   19.2384  -32.5443 H   0  0  0  0  0  0  0  0  0  0  0  0
  1  2  1  0
  2  3  1  0
  3  4  2  0
  3  5  1  0
  5  6  2  0
  6  7  1  0
  7  8  2  0
  8  9  1  0
  9 10  2  0
 10 11  1  0
 11 12  1  0
 12 13  2  0
 12 14  1  0
 14 15  2  0
 15 16  1  0
 16 17  2  0
 17 18  1  0
 18 19  1  0
 18 20  2  0
 10  5  1  0
 20 14  1  0
  1 21  1  0
  1 22  1  0
  1 23  1  0
  6 24  1  0
  7 25  1  0
  8 26  1  0
  9 27  1  0
 11 28  1  0
 15 29  1  0
 16 30  1  0
 17 31  1  0
 20 32  1  0
M  CHG  1   2  -1
M  END
>  <UniqueID>  (31) 
30

>  <SMILES>  (31) 
C[N-]C(=O)c1ccccc1NC(=O)c1cccc(F)c1

>  <Energy>  (31) 
40.37938730813766

>  <Genealogy>  (31) 
C[N-]C(=O)c1ccccc1NC(=O)c1cccc(F)c1 (protonated)
C[N-]C(=O)c1ccccc1NC(=O)c1cccc(F)c1 (3D coordinates assigned)
C[N-]C(=O)c1ccccc1NC(=O)c1cccc(F)c1 (optimized conformer: 40.37938730813766 kcal/mol)

>  <smiles>  (31) 
CNC(=O)c1ccccc1NC(=O)c1cccc(F)c1

>  <score_type>  (31) 
oracle

>  <origin>  (31) 
adg

>  <m_score__min__energy>  (31) 
-8.4199999999999999

>  <m_primary>  (31) 
energy

$$$$
31:0
     RDKit          3D

 45 46  0  0  0  0  0  0  0  0999 V2000
   -0.7610   23.7790  -26.4860 C   0  0  0  0  0  0  0  0  0  0  0  0
   -0.5140   23.1050  -28.1210 S   0  0  0  0  0  0  0  0  0  0  0  0
    0.3530   21.8840  -27.9910 O   0  0  0  0  0  0  0  0  0  0  0  0
    0.2330   24.1210  -28.9390 O   0  0  0  0  0  0  0  0  0  0  0  0
   -2.0200   22.6380  -28.9130 N   0  0  0  0  0  0  0  0  0  0  0  0
   -3.1070   23.5960  -28.6280 C   0  0  0  0  0  0  0  0  0  0  0  0
   -2.8680   24.8940  -29.3350 C   0  0  0  0  0  0  0  0  0  0  0  0
   -1.9670   25.6730  -28.9210 O   0  0  0  0  0  0  0  0  0  0  0  0
   -3.6610   25.2420  -30.4740 N   0  0  0  0  0  0  0  0  0  0  0  0
   -5.0810   25.5630  -30.4010 C   0  0  0  0  0  0  0  0  0  0  0  0
   -5.9080   24.3530  -30.7340 C   0  0  0  0  0  0  0  0  0  0  0  0
   -5.8890   23.8050  -32.0280 C   0  0  0  0  0  0  0  0  0  0  0  0
   -6.6780   22.6920  -32.3320 C   0  0  0  0  0  0  0  0  0  0  0  0
   -7.4920   22.1200  -31.3520 C   0  0  0  0  0  0  0  0  0  0  0  0
   -7.5210   22.6620  -30.0640 C   0  0  0  0  0  0  0  0  0  0  0  0
   -6.7340   23.7760  -29.7540 C   0  0  0  0  0  0  0  0  0  0  0  0
   -1.9020   22.3200  -30.3620 C   0  0  0  0  0  0  0  0  0  0  0  0
   -3.2940   22.0100  -30.9760 C   0  0  0  0  0  0  0  0  0  0  0  0
   -3.2370   20.9800  -32.1170 C   0  0  0  0  0  0  0  0  0  0  0  0
   -2.0020   21.1970  -32.9970 C   0  0  0  0  0  0  0  0  0  0  0  0
   -0.6840   21.0480  -32.2070 C   0  0  0  0  0  0  0  0  0  0  0  0
   -0.8500   21.2320  -30.6860 C   0  0  0  0  0  0  0  0  0  0  0  0
   -0.4850   23.0258  -25.7334 H   0  0  0  0  0  0  0  0  0  0  0  0
   -0.1318   24.6723  -26.3587 H   0  0  0  0  0  0  0  0  0  0  0  0
   -1.8184   24.0542  -26.3587 H   0  0  0  0  0  0  0  0  0  0  0  0
   -4.0622   23.1699  -28.9686 H   0  0  0  0  0  0  0  0  0  0  0  0
   -3.1374   23.7840  -27.5446 H   0  0  0  0  0  0  0  0  0  0  0  0
   -5.3248   25.8999  -29.3826 H   0  0  0  0  0  0  0  0  0  0  0  0
   -5.3051   26.3596  -31.1257 H   0  0  0  0  0  0  0  0  0  0  0  0
   -5.2512   24.2534  -32.8040 H   0  0  0  0  0  0  0  0  0  0  0  0
   -6.6577   22.2656  -33.3458 H   0  0  0  0  0  0  0  0  0  0  0  0
   -8.1103   21.2429  -31.5937 H   0  0  0  0  0  0  0  0  0  0  0  0
   -8.1636   22.2119  -29.2930 H   0  0  0  0  0  0  0  0  0  0  0  0
   -6.7616   24.2018  -28.7401 H   0  0  0  0  0  0  0  0  0  0  0  0
   -1.5122   23.2268  -30.8476 H   0  0  0  0  0  0  0  0  0  0  0  0
   -3.9465   21.6170  -30.1824 H   0  0  0  0  0  0  0  0  0  0  0  0
   -3.6800   22.9481  -31.4014 H   0  0  0  0  0  0  0  0  0  0  0  0
   -3.1974   19.9687  -31.6860 H   0  0  0  0  0  0  0  0  0  0  0  0
   -4.1350   21.1005  -32.7407 H   0  0  0  0  0  0  0  0  0  0  0  0
   -2.0126   20.4559  -33.8098 H   0  0  0  0  0  0  0  0  0  0  0  0
   -2.0447   22.2242  -33.3882 H   0  0  0  0  0  0  0  0  0  0  0  0
   -0.2792   20.0423  -32.3931 H   0  0  0  0  0  0  0  0  0  0  0  0
   -0.0084   21.8431  -32.5554 H   0  0  0  0  0  0  0  0  0  0  0  0
   -1.1729   20.2783  -30.2429 H   0  0  0  0  0  0  0  0  0  0  0  0
    0.1167   21.5485  -30.2673 H   0  0  0  0  0  0  0  0  0  0  0  0
  1  2  1  0
  2  3  2  0
  2  4  2  0
  2  5  1  0
  5  6  1  0
  6  7  1  0
  7  8  2  0
  7  9  1  0
  9 10  1  0
 10 11  1  0
 11 12  2  0
 12 13  1  0
 13 14  2  0
 14 15  1  0
 15 16  2  0
  5 17  1  0
 17 18  1  0
 18 19  1  0
 19 20  1  0
 20 21  1  0
 21 22  1  0
 16 11  1  0
 22 17  1  0
  1 23  1  0
  1 24  1  0
  1 25  1  0
  6 26  1  0
  6 27  1  0
 10 28  1  0
 10 29  1  0
 12 30  1  0
 13 31  1  0
 14 32  1  0
 15 33  1  0
 16 34  1  0
 17 35  1  0
 18 36  1  0
 18 37  1  0
 19 38  1  0
 19 39  1  0
 20 40  1  0
 20 41  1  0
 21 42  1  0
 21 43  1  0
 22 44  1  0
 22 45  1  0
M  CHG  1   9  -1
M  END
>  <UniqueID>  (32) 
31

>  <SMILES>  (32) 
CS(=O)(=O)N(CC(=O)[N-]Cc1ccccc1)C1CCCCC1

>  <Energy>  (32) 
45.53838916408817

>  <Genealogy>  (32) 
CS(=O)(=O)N(CC(=O)[N-]Cc1ccccc1)C1CCCCC1 (protonated)
CS(=O)(=O)N(CC(=O)[N-]Cc1ccccc1)C1CCCCC1 (3D coordinates assigned)
CS(=O)(=O)N(CC(=O)[N-]Cc1ccccc1)C1CCCCC1 (nonaromatic ring conformer: 45.53838916408817 kcal/mol)

>  <smiles>  (32) 
CS(=O)(=O)N(CC(=O)NCc1ccccc1)C1CCCCC1

>  <score_type>  (32) 
oracle

>  <origin>  (32) 
adg

>  <m_score__min__energy>  (32) 
-10.109999999999999

>  <m_primary>  (32) 
energy

$$$$
32:0
     RDKit          3D

 49 51  0  0  0  0  0  0  0  0999 V2000
    1.4660   17.7910  -27.7070 C   0  0  0  0  0  0  0  0  0  0  0  0
    0.5350   18.9600  -27.8350 C   0  0  0  0  0  0  0  0  0  0  0  0
   -0.8130   18.7550  -28.1600 C   0  0  0  0  0  0  0  0  0  0  0  0
   -1.6710   19.8440  -28.3220 C   0  0  0  0  0  0  0  0  0  0  0  0
   -1.1930   21.1520  -28.1730 C   0  0  0  0  0  0  0  0  0  0  0  0
   -2.0920   22.2530  -28.3650 N   0  0  0  0  0  0  0  0  0  0  0  0
   -3.2680   22.4000  -27.5080 C   0  0  0  0  0  0  0  0  0  0  0  0
   -4.4060   23.0060  -28.3320 C   0  0  0  0  0  0  0  0  0  0  0  0
   -4.0480   24.3290  -28.9150 N   0  0  0  0  0  0  0  0  0  0  0  0
   -4.7590   24.5230  -30.1650 C   0  0  0  0  0  0  0  0  0  0  0  0
   -4.5490   25.5680  -30.8430 O   0  0  0  0  0  0  0  0  0  0  0  0
   -5.7110   23.5090  -30.6950 C   0  0  0  0  0  0  0  0  0  0  0  0
   -5.2640   22.3040  -31.2710 C   0  0  0  0  0  0  0  0  0  0  0  0
   -6.1800   21.3740  -31.7700 C   0  0  0  0  0  0  0  0  0  0  0  0
   -7.5520   21.6350  -31.7130 C   0  0  0  0  0  0  0  0  0  0  0  0
   -8.7260   20.4310  -32.3440 S   0  0  0  0  0  0  0  0  0  0  0  0
   -7.5670   19.0250  -32.2690 C   0  0  0  0  0  0  0  0  0  0  0  0
   -8.2530   17.8510  -32.0160 F   0  0  0  0  0  0  0  0  0  0  0  0
   -6.8730   18.9120  -33.4590 F   0  0  0  0  0  0  0  0  0  0  0  0
   -8.0070   22.8280  -31.1450 C   0  0  0  0  0  0  0  0  0  0  0  0
   -7.0950   23.7620  -30.6450 C   0  0  0  0  0  0  0  0  0  0  0  0
   -2.5850   24.5580  -29.0960 C   0  0  0  0  0  0  0  0  0  0  0  0
   -1.7930   23.2690  -29.3760 C   0  0  0  0  0  0  0  0  0  0  0  0
    0.1620   21.3710  -27.8450 C   0  0  0  0  0  0  0  0  0  0  0  0
    0.7080   22.7650  -27.6960 C   0  0  0  0  0  0  0  0  0  0  0  0
    1.0210   20.2690  -27.6980 C   0  0  0  0  0  0  0  0  0  0  0  0
    1.6385   17.5745  -26.6424 H   0  0  0  0  0  0  0  0  0  0  0  0
    1.0186   16.9111  -28.1924 H   0  0  0  0  0  0  0  0  0  0  0  0
    2.4237   18.0301  -28.1924 H   0  0  0  0  0  0  0  0  0  0  0  0
   -1.1962   17.7319  -28.2879 H   0  0  0  0  0  0  0  0  0  0  0  0
   -2.7295   19.6738  -28.5683 H   0  0  0  0  0  0  0  0  0  0  0  0
   -3.5725   21.4145  -27.1258 H   0  0  0  0  0  0  0  0  0  0  0  0
   -3.0312   23.0568  -26.6580 H   0  0  0  0  0  0  0  0  0  0  0  0
   -4.6545   22.3154  -29.1513 H   0  0  0  0  0  0  0  0  0  0  0  0
   -5.2614   23.1590  -27.6576 H   0  0  0  0  0  0  0  0  0  0  0  0
   -4.3590   25.0660  -28.2410 H   0  0  0  0  0  0  0  0  0  0  0  0
   -4.1859   22.0933  -31.3285 H   0  0  0  0  0  0  0  0  0  0  0  0
   -5.8196   20.4323  -32.2096 H   0  0  0  0  0  0  0  0  0  0  0  0
   -6.8524   19.2062  -31.4526 H   0  0  0  0  0  0  0  0  0  0  0  0
   -9.0864   23.0328  -31.0912 H   0  0  0  0  0  0  0  0  0  0  0  0
   -7.4619   24.7028  -30.2087 H   0  0  0  0  0  0  0  0  0  0  0  0
   -2.4422   25.2455  -29.9427 H   0  0  0  0  0  0  0  0  0  0  0  0
   -2.2031   24.9743  -28.1522 H   0  0  0  0  0  0  0  0  0  0  0  0
   -2.0682   22.8836  -30.3688 H   0  0  0  0  0  0  0  0  0  0  0  0
   -0.7176   23.4981  -29.3426 H   0  0  0  0  0  0  0  0  0  0  0  0
    0.8036   23.0091  -26.6277 H   0  0  0  0  0  0  0  0  0  0  0  0
    1.6961   22.8250  -28.1757 H   0  0  0  0  0  0  0  0  0  0  0  0
    0.0235   23.4801  -28.1757 H   0  0  0  0  0  0  0  0  0  0  0  0
    2.0851   20.4341  -27.4733 H   0  0  0  0  0  0  0  0  0  0  0  0
  1  2  1  0
  2  3  2  0
  3  4  1  0
  4  5  2  0
  5  6  1  0
  6  7  1  0
  7  8  1  0
  8  9  1  0
  9 10  1  0
 10 11  2  0
 10 12  1  0
 12 13  2  0
 13 14  1  0
 14 15  2  0
 15 16  1  0
 16 17  1  0
 17 18  1  0
 17 19  1  0
 15 20  1  0
 20 21  2  0
  9 22  1  0
 22 23  1  0
  5 24  1  0
 24 25  1  0
 24 26  2  0
 26  2  1  0
 23  6  1  0
 21 12  1  0
  1 27  1  0
  1 28  1  0
  1 29  1  0
  3 30  1  0
  4 31  1  0
  7 32  1  0
  7 33  1  0
  8 34  1  0
  8 35  1  0
  9 36  1  0
 13 37  1  0
 14 38  1  0
 17 39  1  0
 20 40  1  0
 21 41  1  0
 22 42  1  0
 22 43  1  0
 23 44  1  0
 23 45  1  0
 25 46  1  0
 25 47  1  0
 25 48  1  0
 26 49  1  0
M  CHG  1   9   1
M  END
>  <UniqueID>  (33) 
32

>  <SMILES>  (33) 
Cc1ccc(N2CC[NH+](C(=O)c3ccc(SC(F)F)cc3)CC2)c(C)c1

>  <Energy>  (33) 
62.855682349545525

>  <Genealogy>  (33) 
Cc1ccc(N2CC[NH+](C(=O)c3ccc(SC(F)F)cc3)CC2)c(C)c1 (protonated)
Cc1ccc(N2CC[NH+](C(=O)c3ccc(SC(F)F)cc3)CC2)c(C)c1 (3D coordinates assigned)
Cc1ccc(N2CC[NH+](C(=O)c3ccc(SC(F)F)cc3)CC2)c(C)c1 (nonaromatic ring conformer: 62.855682349545525 kcal/mol)

>  <smiles>  (33) 
Cc1ccc(N2CCN(C(=O)c3ccc(SC(F)F)cc3)CC2)c(C)c1

>  <score_type>  (33) 
oracle

>  <origin>  (33) 
adg

>  <m_score__min__energy>  (33) 
-7.5499999999999998

>  <m_primary>  (33) 
energy

$$$$
33:0
     RDKit          3D

 36 38  0  0  0  0  0  0  0  0999 V2000
   -2.9030   20.7560  -30.3070 C   0  0  0  0  0  0  0  0  0  0  0  0
   -2.9120   22.2280  -30.2470 N   0  0  0  0  0  0  0  0  0  0  0  0
   -3.7530   22.6930  -29.1230 C   0  0  0  0  0  0  0  0  0  0  0  0
   -3.0250   23.7480  -28.3440 C   0  0  0  0  0  0  0  0  0  0  0  0
   -3.5270   24.2980  -27.1540 C   0  0  0  0  0  0  0  0  0  0  0  0
   -2.7080   25.2750  -26.6080 C   0  0  0  0  0  0  0  0  0  0  0  0
   -1.3680   25.4520  -27.6070 S   0  0  0  0  0  0  0  0  0  0  0  0
   -1.8100   24.2940  -28.7430 C   0  0  0  0  0  0  0  0  0  0  0  0
   -3.3820   22.7820  -31.5330 C   0  0  0  0  0  0  0  0  0  0  0  0
   -4.8850   22.8890  -31.5380 C   0  0  0  0  0  0  0  0  0  0  0  0
   -5.6710   23.9800  -31.1410 C   0  0  0  0  0  0  0  0  0  0  0  0
   -5.1920   25.2910  -30.6620 C   0  0  0  0  0  0  0  0  0  0  0  0
   -5.9710   26.0960  -30.0880 O   0  0  0  0  0  0  0  0  0  0  0  0
   -3.8600   25.6460  -30.8390 O   0  0  0  0  0  0  0  0  0  0  0  0
   -6.9870   23.6740  -31.2360 N   0  0  0  0  0  0  0  0  0  0  0  0
   -7.0450   22.4080  -31.6820 C   0  0  0  0  0  0  0  0  0  0  0  0
   -8.1920   21.6530  -31.9220 C   0  0  0  0  0  0  0  0  0  0  0  0
   -8.0290   20.3310  -32.3720 C   0  0  0  0  0  0  0  0  0  0  0  0
   -9.4400   19.3370  -32.6870 Cl  0  0  0  0  0  0  0  0  0  0  0  0
   -6.7350   19.7980  -32.5680 C   0  0  0  0  0  0  0  0  0  0  0  0
   -5.5960   20.5830  -32.3180 C   0  0  0  0  0  0  0  0  0  0  0  0
   -5.7880   21.8950  -31.8760 C   0  0  0  0  0  0  0  0  0  0  0  0
   -2.9005   20.3474  -29.2857 H   0  0  0  0  0  0  0  0  0  0  0  0
   -3.7990   20.4053  -30.8400 H   0  0  0  0  0  0  0  0  0  0  0  0
   -2.0028   20.4163  -30.8400 H   0  0  0  0  0  0  0  0  0  0  0  0
   -4.6902   23.1124  -29.5177 H   0  0  0  0  0  0  0  0  0  0  0  0
   -3.9760   21.8430  -28.4613 H   0  0  0  0  0  0  0  0  0  0  0  0
   -4.4780   23.9844  -26.6986 H   0  0  0  0  0  0  0  0  0  0  0  0
   -2.9017   25.8364  -25.6821 H   0  0  0  0  0  0  0  0  0  0  0  0
   -1.2395   24.0175  -29.6419 H   0  0  0  0  0  0  0  0  0  0  0  0
   -2.9465   23.7816  -31.6783 H   0  0  0  0  0  0  0  0  0  0  0  0
   -3.0682   22.1123  -32.3473 H   0  0  0  0  0  0  0  0  0  0  0  0
   -7.7970   24.2910  -31.0030 H   0  0  0  0  0  0  0  0  0  0  0  0
   -9.1940   22.0785  -31.7641 H   0  0  0  0  0  0  0  0  0  0  0  0
   -6.6182   18.7619  -32.9185 H   0  0  0  0  0  0  0  0  0  0  0  0
   -4.5844   20.1771  -32.4657 H   0  0  0  0  0  0  0  0  0  0  0  0
  1  2  1  0
  2  3  1  0
  3  4  1  0
  4  5  1  0
  5  6  2  0
  6  7  1  0
  7  8  1  0
  2  9  1  0
  9 10  1  0
 10 11  2  0
 11 12  1  0
 12 13  2  0
 12 14  1  0
 11 15  1  0
 15 16  1  0
 16 17  2  0
 17 18  1  0
 18 19  1  0
 18 20  2  0
 20 21  1  0
 21 22  2  0
  8  4  2  0
 22 10  1  0
 22 16  1  0
  1 23  1  0
  1 24  1  0
  1 25  1  0
  3 26  1  0
  3 27  1  0
  5 28  1  0
  6 29  1  0
  8 30  1  0
  9 31  1  0
  9 32  1  0
 15 33  1  0
 17 34  1  0
 20 35  1  0
 21 36  1  0
M  CHG  1  14  -1
M  END
>  <UniqueID>  (34) 
33

>  <SMILES>  (34) 
CN(Cc1ccsc1)Cc1c(C(=O)[O-])[nH]c2cc(Cl)ccc12

>  <Energy>  (34) 
95.75144907175675

>  <Genealogy>  (34) 
CN(Cc1ccsc1)Cc1c(C(=O)[O-])[nH]c2cc(Cl)ccc12 (protonated)
CN(Cc1ccsc1)Cc1c(C(=O)[O-])[nH]c2cc(Cl)ccc12 (3D coordinates assigned)
CN(Cc1ccsc1)Cc1c(C(=O)[O-])[nH]c2cc(Cl)ccc12 (optimized conformer: 95.75144907175675 kcal/mol)

>  <smiles>  (34) 
CN(Cc1ccsc1)Cc1c(C(=O)O)[nH]c2cc(Cl)ccc12

>  <score_type>  (34) 
oracle

>  <origin>  (34) 
adg

>  <m_score__min__energy>  (34) 
-9.6300000000000008

>  <m_primary>  (34) 
energy

$$$$
34:0
     RDKit          3D

 31 33  0  0  0  0  0  0  0  0999 V2000
   -2.2030   22.5950  -29.2800 O   0  0  0  0  0  0  0  0  0  0  0  0
   -2.1950   23.8440  -29.2970 C   0  0  0  0  0  0  0  0  0  0  0  0
   -0.9410   24.4960  -28.7710 C   0  0  0  0  0  0  0  0  0  0  0  0
   -1.3580   25.5940  -27.4610 Cl  0  0  0  0  0  0  0  0  0  0  0  0
   -3.2650   24.6430  -29.7660 N   0  0  0  0  0  0  0  0  0  0  0  0
   -4.4870   24.1650  -30.2800 C   0  0  0  0  0  0  0  0  0  0  0  0
   -5.5990   24.9680  -30.1400 C   0  0  0  0  0  0  0  0  0  0  0  0
   -6.8260   24.5660  -30.6170 C   0  0  0  0  0  0  0  0  0  0  0  0
   -7.0320   23.3620  -31.2560 C   0  0  0  0  0  0  0  0  0  0  0  0
   -5.9160   22.5490  -31.3990 C   0  0  0  0  0  0  0  0  0  0  0  0
   -6.0340   21.2410  -32.0680 C   0  0  0  0  0  0  0  0  0  0  0  0
   -6.6730   20.1820  -31.5690 N   0  0  0  0  0  0  0  0  0  0  0  0
   -6.5920   19.1380  -32.4370 C   0  0  0  0  0  0  0  0  0  0  0  0
   -7.0880   17.8910  -32.3400 N   0  0  0  0  0  0  0  0  0  0  0  0
   -6.8610   17.0260  -33.3650 C   0  0  0  0  0  0  0  0  0  0  0  0
   -6.1370   17.4530  -34.4590 C   0  0  0  0  0  0  0  0  0  0  0  0
   -5.6230   18.7380  -34.5630 C   0  0  0  0  0  0  0  0  0  0  0  0
   -5.8710   19.6020  -33.5000 C   0  0  0  0  0  0  0  0  0  0  0  0
   -5.5320   20.8940  -33.2660 N   0  0  0  0  0  0  0  0  0  0  0  0
   -4.6700   22.9610  -30.9130 C   0  0  0  0  0  0  0  0  0  0  0  0
   -0.2544   23.7223  -28.3968 H   0  0  0  0  0  0  0  0  0  0  0  0
   -0.4524   25.0585  -29.5802 H   0  0  0  0  0  0  0  0  0  0  0  0
   -3.1080   25.6820  -29.7160 H   0  0  0  0  0  0  0  0  0  0  0  0
   -5.5043   25.9433  -29.6402 H   0  0  0  0  0  0  0  0  0  0  0  0
   -7.6853   25.2392  -30.4815 H   0  0  0  0  0  0  0  0  0  0  0  0
   -8.0222   23.0632  -31.6304 H   0  0  0  0  0  0  0  0  0  0  0  0
   -7.2502   15.9980  -33.3221 H   0  0  0  0  0  0  0  0  0  0  0  0
   -5.9598   16.7459  -35.2828 H   0  0  0  0  0  0  0  0  0  0  0  0
   -5.0470   19.0585  -35.4436 H   0  0  0  0  0  0  0  0  0  0  0  0
   -4.9910   21.5170  -33.8740 H   0  0  0  0  0  0  0  0  0  0  0  0
   -3.8045   22.2947  -31.0432 H   0  0  0  0  0  0  0  0  0  0  0  0
  1  2  2  0
  2  3  1  0
  3  4  1  0
  2  5  1  0
  5  6  1  0
  6  7  2  0
  7  8  1  0
  8  9  2  0
  9 10  1  0
 10 11  1  0
 11 12  2  0
 12 13  1  0
 13 14  2  0
 14 15  1  0
 15 16  2  0
 16 17  1  0
 17 18  2  0
 18 19  1  0
 10 20  2  0
 20  6  1  0
 19 11  1  0
 18 13  1  0
  3 21  1  0
  3 22  1  0
  5 23  1  0
  7 24  1  0
  8 25  1  0
  9 26  1  0
 15 27  1  0
 16 28  1  0
 17 29  1  0
 19 30  1  0
 20 31  1  0
M  END
>  <smiles>  (35) 
O=C(CCl)Nc1cccc(-c2nc3ncccc3[nH]2)c1

>  <score_type>  (35) 
oracle

>  <origin>  (35) 
adg

>  <m_score__min__energy>  (35) 
-7.5099999999999998

>  <m_primary>  (35) 
energy

$$$$
35:0
     RDKit          3D

 36 37  0  0  0  0  0  0  0  0999 V2000
   -7.2250   23.9040  -30.8690 C   0  0  0  0  0  0  0  0  0  0  0  0
   -5.7790   24.0830  -30.5500 C   0  0  0  0  0  0  0  0  0  0  0  0
   -5.0000   25.1980  -30.7990 C   0  0  0  0  0  0  0  0  0  0  0  0
   -3.7220   24.9260  -30.4680 N   0  0  0  0  0  0  0  0  0  0  0  0
   -3.6820   23.6800  -30.0200 N   0  0  0  0  0  0  0  0  0  0  0  0
   -2.4550   22.9930  -29.6330 C   0  0  0  0  0  0  0  0  0  0  0  0
   -1.4130   24.0050  -29.1550 C   0  0  0  0  0  0  0  0  0  0  0  0
   -1.9900   24.8600  -28.1030 N   0  0  0  0  0  0  0  0  0  0  0  0
   -1.0840   25.9440  -27.6930 C   0  0  0  0  0  0  0  0  0  0  0  0
   -0.9010   25.9670  -26.1920 C   0  0  0  0  0  0  0  0  0  0  0  0
   -1.2950   27.1050  -25.4720 C   0  0  0  0  0  0  0  0  0  0  0  0
   -1.0960   27.1720  -24.0950 C   0  0  0  0  0  0  0  0  0  0  0  0
   -0.5020   26.0980  -23.4390 C   0  0  0  0  0  0  0  0  0  0  0  0
   -0.1160   24.9950  -24.1370 N   0  0  0  0  0  0  0  0  0  0  0  0
   -0.2910   24.8990  -25.4890 C   0  0  0  0  0  0  0  0  0  0  0  0
    0.1660   23.6550  -26.2030 C   0  0  0  0  0  0  0  0  0  0  0  0
   -4.9080   23.1270  -30.0750 C   0  0  0  0  0  0  0  0  0  0  0  0
   -7.8006   23.8327  -29.9343 H   0  0  0  0  0  0  0  0  0  0  0  0
   -7.5807   24.7650  -31.4540 H   0  0  0  0  0  0  0  0  0  0  0  0
   -7.3601   22.9823  -31.4540 H   0  0  0  0  0  0  0  0  0  0  0  0
   -5.3649   26.1540  -31.2026 H   0  0  0  0  0  0  0  0  0  0  0  0
   -2.6752   22.2861  -28.8195 H   0  0  0  0  0  0  0  0  0  0  0  0
   -2.0568   22.4508  -30.5033 H   0  0  0  0  0  0  0  0  0  0  0  0
   -0.5416   23.4684  -28.7517 H   0  0  0  0  0  0  0  0  0  0  0  0
   -1.1030   24.6335  -30.0029 H   0  0  0  0  0  0  0  0  0  0  0  0
   -2.8550   25.3100  -28.4860 H   0  0  0  0  0  0  0  0  0  0  0  0
   -0.1050   25.7933  -28.1713 H   0  0  0  0  0  0  0  0  0  0  0  0
   -1.5250   26.9024  -28.0044 H   0  0  0  0  0  0  0  0  0  0  0  0
   -1.7639   27.9495  -25.9982 H   0  0  0  0  0  0  0  0  0  0  0  0
   -1.4052   28.0648  -23.5318 H   0  0  0  0  0  0  0  0  0  0  0  0
   -0.3437   26.1406  -22.3513 H   0  0  0  0  0  0  0  0  0  0  0  0
    0.3280   24.2110  -23.6080 H   0  0  0  0  0  0  0  0  0  0  0  0
    0.4469   22.8903  -25.4639 H   0  0  0  0  0  0  0  0  0  0  0  0
   -0.6506   23.2731  -26.8334 H   0  0  0  0  0  0  0  0  0  0  0  0
    1.0356   23.8926  -26.8334 H   0  0  0  0  0  0  0  0  0  0  0  0
   -5.1679   22.0964  -29.7915 H   0  0  0  0  0  0  0  0  0  0  0  0
  1  2  1  0
  2  3  1  0
  3  4  2  0
  4  5  1  0
  5  6  1  0
  6  7  1  0
  7  8  1  0
  8  9  1  0
  9 10  1  0
 10 11  2  0
 11 12  1  0
 12 13  2  0
 13 14  1  0
 14 15  2  0
 15 16  1  0
  5 17  1  0
 17  2  2  0
 15 10  1  0
  1 18  1  0
  1 19  1  0
  1 20  1  0
  3 21  1  0
  6 22  1  0
  6 23  1  0
  7 24  1  0
  7 25  1  0
  8 26  1  0
  9 27  1  0
  9 28  1  0
 11 29  1  0
 12 30  1  0
 13 31  1  0
 14 32  1  0
 16 33  1  0
 16 34  1  0
 16 35  1  0
 17 36  1  0
M  CHG  1  14   1
M  END
>  <UniqueID>  (36) 
34

>  <SMILES>  (36) 
Cc1cnn(CCNCc2ccc[nH+]c2C)c1

>  <Energy>  (36) 
61.36224975925735

>  <Genealogy>  (36) 
Cc1cnn(CCNCc2ccc[nH+]c2C)c1 (protonated)
Cc1cnn(CCNCc2ccc[nH+]c2C)c1 (3D coordinates assigned)
Cc1cnn(CCNCc2ccc[nH+]c2C)c1 (optimized conformer: 61.36224975925735 kcal/mol)

>  <smiles>  (36) 
Cc1cnn(CCNCc2cccnc2C)c1

>  <score_type>  (36) 
oracle

>  <origin>  (36) 
adg

>  <m_score__min__energy>  (36) 
-7.0099999999999998

>  <m_primary>  (36) 
energy

$$$$
36:0
     RDKit          3D

 43 45  0  0  0  0  0  0  0  0999 V2000
   -8.6791   23.5410  -31.2237 H   0  0  0  0  0  0  0  0  0  0  0  0
   -8.4770   22.5330  -31.6150 C   0  0  0  0  0  0  0  0  0  0  0  0
   -9.4930   21.5790  -31.6310 C   0  0  0  0  0  0  0  0  0  0  0  0
  -10.4933   21.8363  -31.2527 H   0  0  0  0  0  0  0  0  0  0  0  0
   -9.2440   20.2980  -32.1260 C   0  0  0  0  0  0  0  0  0  0  0  0
  -10.0496   19.5491  -32.1356 H   0  0  0  0  0  0  0  0  0  0  0  0
   -7.9700   19.9600  -32.6120 C   0  0  0  0  0  0  0  0  0  0  0  0
   -6.9260   20.9260  -32.5990 C   0  0  0  0  0  0  0  0  0  0  0  0
   -7.2040   22.2160  -32.0930 C   0  0  0  0  0  0  0  0  0  0  0  0
   -6.4102   22.9773  -32.0756 H   0  0  0  0  0  0  0  0  0  0  0  0
   -5.6410   20.5800  -33.0970 C   0  0  0  0  0  0  0  0  0  0  0  0
   -4.7080   21.5010  -33.0910 N   0  0  0  0  0  0  0  0  0  0  0  0
   -3.3220   21.4750  -32.6300 C   0  0  0  0  0  0  0  0  0  0  0  0
   -2.6592   21.7745  -33.4552 H   0  0  0  0  0  0  0  0  0  0  0  0
   -3.0737   20.4559  -32.2988 H   0  0  0  0  0  0  0  0  0  0  0  0
   -3.1350   22.4420  -31.4540 C   0  0  0  0  0  0  0  0  0  0  0  0
   -2.3534   23.1721  -31.7111 H   0  0  0  0  0  0  0  0  0  0  0  0
   -2.8459   21.8589  -30.5672 H   0  0  0  0  0  0  0  0  0  0  0  0
   -4.4350   23.1920  -31.1380 C   0  0  0  0  0  0  0  0  0  0  0  0
   -4.9790   22.6551  -30.3469 H   0  0  0  0  0  0  0  0  0  0  0  0
   -5.0455   23.2440  -32.0516 H   0  0  0  0  0  0  0  0  0  0  0  0
   -4.1440   24.5680  -30.6800 N   0  0  0  0  0  0  0  0  0  0  0  0
   -3.4130   24.5360  -29.4030 C   0  0  0  0  0  0  0  0  0  0  0  0
   -4.1299   24.5674  -28.5693 H   0  0  0  0  0  0  0  0  0  0  0  0
   -2.8207   23.6111  -29.3427 H   0  0  0  0  0  0  0  0  0  0  0  0
   -2.7421   25.4056  -29.3427 H   0  0  0  0  0  0  0  0  0  0  0  0
   -5.3840   25.3450  -30.5130 C   0  0  0  0  0  0  0  0  0  0  0  0
   -5.5931   25.4760  -29.4410 H   0  0  0  0  0  0  0  0  0  0  0  0
   -5.2656   26.3307  -30.9866 H   0  0  0  0  0  0  0  0  0  0  0  0
   -6.2194   24.8086  -30.9866 H   0  0  0  0  0  0  0  0  0  0  0  0
   -5.4590   19.2520  -33.5760 C   0  0  0  0  0  0  0  0  0  0  0  0
   -6.5120   18.3640  -33.5560 C   0  0  0  0  0  0  0  0  0  0  0  0
   -7.7380   18.7060  -33.0900 N   0  0  0  0  0  0  0  0  0  0  0  0
   -8.4990   17.9890  -33.0900 H   0  0  0  0  0  0  0  0  0  0  0  0
   -6.1510   17.0060  -34.0200 C   0  0  0  0  0  0  0  0  0  0  0  0
   -6.2489   16.2745  -33.2043 H   0  0  0  0  0  0  0  0  0  0  0  0
   -6.8036   16.6459  -34.8290 H   0  0  0  0  0  0  0  0  0  0  0  0
   -4.6900   17.1440  -34.4560 C   0  0  0  0  0  0  0  0  0  0  0  0
   -4.0757   16.3736  -33.9669 H   0  0  0  0  0  0  0  0  0  0  0  0
   -4.5918   17.0146  -35.5439 H   0  0  0  0  0  0  0  0  0  0  0  0
   -4.2210   18.5450  -34.0260 C   0  0  0  0  0  0  0  0  0  0  0  0
   -3.4966   18.4730  -33.2014 H   0  0  0  0  0  0  0  0  0  0  0  0
   -3.7172   19.0792  -34.8451 H   0  0  0  0  0  0  0  0  0  0  0  0
  1  2  1  0
  2  3  2  0
  3  4  1  0
  3  5  1  0
  5  6  1  0
  5  7  2  0
  7  8  1  0
  8  9  2  0
  9 10  1  0
  8 11  1  0
 11 12  2  0
 12 13  1  0
 13 14  1  0
 13 15  1  0
 13 16  1  0
 16 17  1  0
 16 18  1  0
 16 19  1  0
 19 20  1  0
 19 21  1  0
 19 22  1  0
 22 23  1  0
 23 24  1  0
 23 25  1  0
 23 26  1  0
 22 27  1  0
 27 28  1  0
 27 29  1  0
 27 30  1  0
 11 31  1  0
 31 32  2  0
 32 33  1  0
 33 34  1  0
 32 35  1  0
 35 36  1  0
 35 37  1  0
 35 38  1  0
 38 39  1  0
 38 40  1  0
 38 41  1  0
 41 42  1  0
 41 43  1  0
  9  2  1  0
 41 31  1  0
 33  7  1  0
M  END
>  <UniqueID>  (37) 
35

>  <SMILES>  (37) 
CN(C)CCC/N=c1\c2c([nH]c3ccccc13)CCC2

>  <Energy>  (37) 
61.70700853603837

>  <Genealogy>  (37) 
CN(C)CCC/N=c1\c2c([nH]c3ccccc13)CCC2 (cis-trans isomerization)
CN(C)CCC/N=c1\c2c([nH]c3ccccc13)CCC2 (3D coordinates assigned)
CN(C)CCC/N=c1\c2c([nH]c3ccccc13)CCC2 (nonaromatic ring conformer: 61.70700853603837 kcal/mol)

>  <smiles>  (37) 
CN(C)CCCN=c1c2c([nH]c3ccccc13)CCC2

>  <score_type>  (37) 
oracle

>  <origin>  (37) 
adg

>  <m_score__min__energy>  (37) 
-7.9199999999999999

>  <m_primary>  (37) 
energy

$$$$
37:0
     RDKit          3D

 32 33  0  0  0  0  0  0  0  0999 V2000
   -2.4430   22.4070  -30.8490 C   0  0  0  0  0  0  0  0  0  0  0  0
   -3.2060   23.0330  -29.9500 C   0  0  0  0  0  0  0  0  0  0  0  0
   -2.7790   23.0180  -28.5290 C   0  0  0  0  0  0  0  0  0  0  0  0
   -2.9090   24.0380  -27.6640 C   0  0  0  0  0  0  0  0  0  0  0  0
   -1.9100   25.1030  -27.4430 C   0  0  0  0  0  0  0  0  0  0  0  0
   -1.6150   25.8470  -28.4160 O   0  0  0  0  0  0  0  0  0  0  0  0
   -1.2080   25.2850  -26.1490 C   0  0  0  0  0  0  0  0  0  0  0  0
   -1.5300   26.3720  -25.3200 C   0  0  0  0  0  0  0  0  0  0  0  0
   -0.8630   26.5360  -24.1040 C   0  0  0  0  0  0  0  0  0  0  0  0
    0.1030   25.6560  -23.7290 N   0  0  0  0  0  0  0  0  0  0  0  0
    0.4480   24.6030  -24.5180 C   0  0  0  0  0  0  0  0  0  0  0  0
   -0.1990   24.3990  -25.7390 C   0  0  0  0  0  0  0  0  0  0  0  0
   -4.3350   23.8850  -30.3930 C   0  0  0  0  0  0  0  0  0  0  0  0
   -4.2480   25.2330  -30.4270 N   0  0  0  0  0  0  0  0  0  0  0  0
   -5.4580   25.6390  -30.8570 C   0  0  0  0  0  0  0  0  0  0  0  0
   -6.2640   24.5440  -31.0720 C   0  0  0  0  0  0  0  0  0  0  0  0
   -5.5600   23.4410  -30.7690 N   0  0  0  0  0  0  0  0  0  0  0  0
   -6.0630   22.0720  -30.8390 C   0  0  0  0  0  0  0  0  0  0  0  0
   -2.7347   22.4016  -31.9096 H   0  0  0  0  0  0  0  0  0  0  0  0
   -1.5226   21.8966  -30.5292 H   0  0  0  0  0  0  0  0  0  0  0  0
   -2.3170   22.0937  -28.1518 H   0  0  0  0  0  0  0  0  0  0  0  0
   -3.8351   24.0835  -27.0722 H   0  0  0  0  0  0  0  0  0  0  0  0
   -2.3039   27.0908  -25.6270 H   0  0  0  0  0  0  0  0  0  0  0  0
   -1.1202   27.3802  -23.4473 H   0  0  0  0  0  0  0  0  0  0  0  0
    0.5930   25.7930  -22.8160 H   0  0  0  0  0  0  0  0  0  0  0  0
    1.2386   23.9103  -24.1936 H   0  0  0  0  0  0  0  0  0  0  0  0
    0.0809   23.5476  -26.3768 H   0  0  0  0  0  0  0  0  0  0  0  0
   -5.7567   26.6862  -31.0127 H   0  0  0  0  0  0  0  0  0  0  0  0
   -7.3039   24.5681  -31.4298 H   0  0  0  0  0  0  0  0  0  0  0  0
   -6.2065   21.6816  -29.8207 H   0  0  0  0  0  0  0  0  0  0  0  0
   -7.0238   22.0613  -31.3745 H   0  0  0  0  0  0  0  0  0  0  0  0
   -5.3377   21.4418  -31.3745 H   0  0  0  0  0  0  0  0  0  0  0  0
  1  2  2  0
  2  3  1  0
  3  4  2  3
  4  5  1  0
  5  6  2  0
  5  7  1  0
  7  8  2  0
  8  9  1  0
  9 10  2  0
 10 11  1  0
 11 12  2  0
  2 13  1  0
 13 14  2  0
 14 15  1  0
 15 16  2  0
 16 17  1  0
 17 18  1  0
 12  7  1  0
 17 13  1  0
  1 19  1  0
  1 20  1  0
  3 21  1  0
  4 22  1  0
  8 23  1  0
  9 24  1  0
 10 25  1  0
 11 26  1  0
 12 27  1  0
 15 28  1  0
 16 29  1  0
 18 30  1  0
 18 31  1  0
 18 32  1  0
M  CHG  1  10   1
M  END
>  <UniqueID>  (38) 
36

>  <SMILES>  (38) 
C=C(C=CC(=O)c1cc[nH+]cc1)c1nccn1C

>  <Energy>  (38) 
71.51557280433593

>  <Genealogy>  (38) 
C=C(C=CC(=O)c1cc[nH+]cc1)c1nccn1C (protonated)
C=C(C=CC(=O)c1cc[nH+]cc1)c1nccn1C (3D coordinates assigned)
C=C(C=CC(=O)c1cc[nH+]cc1)c1nccn1C (optimized conformer: 71.51557280433593 kcal/mol)

>  <smiles>  (38) 
C=C(C=CC(=O)c1ccncc1)c1nccn1C

>  <score_type>  (38) 
oracle

>  <origin>  (38) 
adg

>  <m_score__min__energy>  (38) 
-7.04

>  <m_primary>  (38) 
energy

$$$$
38:0
     RDKit          3D

 44 46  0  0  0  0  0  0  0  0999 V2000
   -7.5774   23.4439  -32.9418 H   0  0  0  0  0  0  0  0  0  0  0  0
   -6.9710   23.4460  -32.0240 C   0  0  0  0  0  0  0  0  0  0  0  0
   -7.4000   22.7020  -30.9040 C   0  0  0  0  0  0  0  0  0  0  0  0
   -8.5980   21.9790  -31.0060 O   0  0  0  0  0  0  0  0  0  0  0  0
   -8.7600   20.8000  -31.7890 C   0  0  0  0  0  0  0  0  0  0  0  0
   -8.8793   19.9318  -31.1241 H   0  0  0  0  0  0  0  0  0  0  0  0
   -9.6527   20.9012  -32.4237 H   0  0  0  0  0  0  0  0  0  0  0  0
   -7.8731   20.6566  -32.4237 H   0  0  0  0  0  0  0  0  0  0  0  0
   -6.6200   22.7050  -29.7240 C   0  0  0  0  0  0  0  0  0  0  0  0
   -6.9338   22.1329  -28.8384 H   0  0  0  0  0  0  0  0  0  0  0  0
   -5.4450   23.4510  -29.7130 C   0  0  0  0  0  0  0  0  0  0  0  0
   -4.3360   23.6380  -28.4690 S   0  0  0  0  0  0  0  0  0  0  0  0
   -3.3490   24.6560  -29.4070 C   0  0  0  0  0  0  0  0  0  0  0  0
   -2.2320   25.2070  -29.0320 N   0  0  0  0  0  0  0  0  0  0  0  0
   -0.9620   24.5670  -28.8450 C   0  0  0  0  0  0  0  0  0  0  0  0
   -0.0600   25.1800  -28.2140 O   0  0  0  0  0  0  0  0  0  0  0  0
   -0.7130   23.2880  -29.3530 O   0  0  0  0  0  0  0  0  0  0  0  0
   -1.2940   22.1100  -28.8040 C   0  0  0  0  0  0  0  0  0  0  0  0
   -0.4943   21.4322  -28.4707 H   0  0  0  0  0  0  0  0  0  0  0  0
   -1.9310   22.3885  -27.9515 H   0  0  0  0  0  0  0  0  0  0  0  0
   -2.1540   21.3990  -29.8600 C   0  0  0  0  0  0  0  0  0  0  0  0
   -2.0097   20.3150  -29.7413 H   0  0  0  0  0  0  0  0  0  0  0  0
   -3.1878   21.7297  -29.6815 H   0  0  0  0  0  0  0  0  0  0  0  0
   -1.8370   21.7650  -31.3320 C   0  0  0  0  0  0  0  0  0  0  0  0
   -1.4753   22.8033  -31.2994 H   0  0  0  0  0  0  0  0  0  0  0  0
   -0.6880   20.9260  -31.9290 C   0  0  0  0  0  0  0  0  0  0  0  0
    0.2598   21.2115  -31.4493 H   0  0  0  0  0  0  0  0  0  0  0  0
   -0.8875   19.8590  -31.7509 H   0  0  0  0  0  0  0  0  0  0  0  0
   -0.5900   21.1770  -33.4390 C   0  0  0  0  0  0  0  0  0  0  0  0
   -0.3936   22.2465  -33.6053 H   0  0  0  0  0  0  0  0  0  0  0  0
    0.2240   20.5471  -33.8270 H   0  0  0  0  0  0  0  0  0  0  0  0
   -1.8280   20.8040  -34.1660 N   0  0  0  0  0  0  0  0  0  0  0  0
   -2.0080   21.5200  -34.9100 H   0  0  0  0  0  0  0  0  0  0  0  0
   -1.6760   19.8880  -34.6480 H   0  0  0  0  0  0  0  0  0  0  0  0
   -3.0350   20.6850  -33.3240 C   0  0  0  0  0  0  0  0  0  0  0  0
   -3.9248   20.7714  -33.9649 H   0  0  0  0  0  0  0  0  0  0  0  0
   -3.0014   19.7085  -32.8186 H   0  0  0  0  0  0  0  0  0  0  0  0
   -3.0940   21.7760  -32.2440 C   0  0  0  0  0  0  0  0  0  0  0  0
   -3.1671   22.7575  -32.7352 H   0  0  0  0  0  0  0  0  0  0  0  0
   -3.9724   21.5792  -31.6118 H   0  0  0  0  0  0  0  0  0  0  0  0
   -3.8560   24.8550  -30.6480 N   0  0  0  0  0  0  0  0  0  0  0  0
   -5.0230   24.1810  -30.8110 C   0  0  0  0  0  0  0  0  0  0  0  0
   -5.7800   24.1890  -31.9820 C   0  0  0  0  0  0  0  0  0  0  0  0
   -5.4500   24.7672  -32.8577 H   0  0  0  0  0  0  0  0  0  0  0  0
  1  2  1  0
  2  3  2  0
  3  4  1  0
  4  5  1  0
  5  6  1  0
  5  7  1  0
  5  8  1  0
  3  9  1  0
  9 10  1  0
  9 11  2  0
 11 12  1  0
 12 13  1  0
 13 14  2  0
 14 15  1  0
 15 16  2  0
 15 17  1  0
 17 18  1  0
 18 19  1  0
 18 20  1  0
 18 21  1  0
 21 22  1  0
 21 23  1  0
 21 24  1  0
 24 25  1  0
 24 26  1  0
 26 27  1  0
 26 28  1  0
 26 29  1  0
 29 30  1  0
 29 31  1  0
 29 32  1  0
 32 33  1  0
 32 34  1  0
 32 35  1  0
 35 36  1  0
 35 37  1  0
 35 38  1  0
 38 39  1  0
 38 40  1  0
 13 41  1  0
 41 42  1  0
 42 43  2  0
 43 44  1  0
 43  2  1  0
 42 11  1  0
 38 24  1  0
M  CHG  2  32   1  41  -1
M  END
>  <UniqueID>  (39) 
37

>  <SMILES>  (39) 
COc1ccc2[n-]/c(=N/C(=O)OCCC3CC[NH2+]CC3)sc2c1

>  <Energy>  (39) 
83.93865053939413

>  <Genealogy>  (39) 
COc1ccc2[n-]c(=NC(=O)OCCC3CC[NH2+]CC3)sc2c1 (protonated)
COc1ccc2[n-]/c(=N/C(=O)OCCC3CC[NH2+]CC3)sc2c1 (cis-trans isomerization)
COc1ccc2[n-]/c(=N/C(=O)OCCC3CC[NH2+]CC3)sc2c1 (3D coordinates assigned)
COc1ccc2[n-]/c(=N/C(=O)OCCC3CC[NH2+]CC3)sc2c1 (nonaromatic ring conformer: 83.93865053939413 kcal/mol)

>  <smiles>  (39) 
COc1ccc2[nH]c(=NC(=O)OCCC3CCNCC3)sc2c1

>  <score_type>  (39) 
oracle

>  <origin>  (39) 
adg

>  <m_score__min__energy>  (39) 
-9.8399999999999999

>  <m_primary>  (39) 
energy

$$$$
39:0
     RDKit          3D

 48 50  0  0  0  0  0  0  0  0999 V2000
   -5.4470   25.2640  -30.0740 C   0  0  0  0  0  0  0  0  0  0  0  0
   -4.6480   24.3910  -30.8650 O   0  0  0  0  0  0  0  0  0  0  0  0
   -5.1240   23.2390  -31.5110 C   0  0  0  0  0  0  0  0  0  0  0  0
   -6.4990   22.9610  -31.6250 C   0  0  0  0  0  0  0  0  0  0  0  0
   -6.9500   21.8040  -32.2820 C   0  0  0  0  0  0  0  0  0  0  0  0
   -6.0040   20.8970  -32.8050 C   0  0  0  0  0  0  0  0  0  0  0  0
   -4.6340   21.1810  -32.7000 C   0  0  0  0  0  0  0  0  0  0  0  0
   -4.1900   22.3470  -32.0530 C   0  0  0  0  0  0  0  0  0  0  0  0
   -2.8260   22.6580  -31.9290 O   0  0  0  0  0  0  0  0  0  0  0  0
   -1.8480   21.7940  -31.3550 C   0  0  0  0  0  0  0  0  0  0  0  0
   -1.7160   22.0970  -29.8670 C   0  0  0  0  0  0  0  0  0  0  0  0
   -2.9970   22.5820  -29.3390 N   0  0  0  0  0  0  0  0  0  0  0  0
   -2.9120   22.9110  -27.9090 C   0  0  0  0  0  0  0  0  0  0  0  0
   -2.2720   24.2490  -27.6740 C   0  0  0  0  0  0  0  0  0  0  0  0
   -2.2720   24.9540  -26.4780 C   0  0  0  0  0  0  0  0  0  0  0  0
   -1.5480   26.1500  -26.5440 C   0  0  0  0  0  0  0  0  0  0  0  0
   -0.9720   26.3850  -27.7860 C   0  0  0  0  0  0  0  0  0  0  0  0
   -1.3610   25.1010  -28.8010 S   0  0  0  0  0  0  0  0  0  0  0  0
   -6.4590   19.6620  -33.5390 C   0  0  0  0  0  0  0  0  0  0  0  0
   -7.2110   18.6990  -32.6040 C   0  0  0  0  0  0  0  0  0  0  0  0
   -8.6540   18.9900  -32.4780 N   0  0  0  0  0  0  0  0  0  0  0  0
   -8.9360   20.2120  -31.7000 C   0  0  0  0  0  0  0  0  0  0  0  0
   -8.4420   21.5290  -32.3650 C   0  0  0  0  0  0  0  0  0  0  0  0
   -5.2637   25.0637  -29.0080 H   0  0  0  0  0  0  0  0  0  0  0  0
   -5.1848   26.3078  -30.3014 H   0  0  0  0  0  0  0  0  0  0  0  0
   -6.5099   25.0951  -30.3014 H   0  0  0  0  0  0  0  0  0  0  0  0
   -7.2310   23.6596  -31.1935 H   0  0  0  0  0  0  0  0  0  0  0  0
   -3.8994   20.4835  -33.1287 H   0  0  0  0  0  0  0  0  0  0  0  0
   -2.1582   20.7474  -31.4903 H   0  0  0  0  0  0  0  0  0  0  0  0
   -0.8791   21.9552  -31.8503 H   0  0  0  0  0  0  0  0  0  0  0  0
   -1.4251   21.1805  -29.3328 H   0  0  0  0  0  0  0  0  0  0  0  0
   -0.9487   22.8718  -29.7224 H   0  0  0  0  0  0  0  0  0  0  0  0
   -3.2820   23.4400  -29.8700 H   0  0  0  0  0  0  0  0  0  0  0  0
   -3.9279   22.9248  -27.4873 H   0  0  0  0  0  0  0  0  0  0  0  0
   -2.2880   22.1470  -27.4223 H   0  0  0  0  0  0  0  0  0  0  0  0
   -2.7886   24.6078  -25.5706 H   0  0  0  0  0  0  0  0  0  0  0  0
   -1.4448   26.8389  -25.6927 H   0  0  0  0  0  0  0  0  0  0  0  0
   -0.3652   27.2609  -28.0592 H   0  0  0  0  0  0  0  0  0  0  0  0
   -7.1281   19.9595  -34.3598 H   0  0  0  0  0  0  0  0  0  0  0  0
   -5.5705   19.1435  -33.9285 H   0  0  0  0  0  0  0  0  0  0  0  0
   -7.0968   17.6772  -32.9950 H   0  0  0  0  0  0  0  0  0  0  0  0
   -6.7727   18.8200  -31.6024 H   0  0  0  0  0  0  0  0  0  0  0  0
   -9.0910   18.1820  -31.9750 H   0  0  0  0  0  0  0  0  0  0  0  0
   -9.1090   19.0300  -33.4190 H   0  0  0  0  0  0  0  0  0  0  0  0
  -10.0244   20.2858  -31.5588 H   0  0  0  0  0  0  0  0  0  0  0  0
   -8.3849   20.1140  -30.7531 H   0  0  0  0  0  0  0  0  0  0  0  0
   -8.7176   21.4914  -33.4293 H   0  0  0  0  0  0  0  0  0  0  0  0
   -8.9229   22.3418  -31.8010 H   0  0  0  0  0  0  0  0  0  0  0  0
  1  2  1  0
  2  3  1  0
  3  4  2  0
  4  5  1  0
  5  6  2  0
  6  7  1  0
  7  8  2  0
  8  9  1  0
  9 10  1  0
 10 11  1  0
 11 12  1  0
 12 13  1  0
 13 14  1  0
 14 15  2  0
 15 16  1  0
 16 17  2  0
 17 18  1  0
  6 19  1  0
 19 20  1  0
 20 21  1  0
 21 22  1  0
 22 23  1  0
  8  3  1  0
 18 14  1  0
 23  5  1  0
  1 24  1  0
  1 25  1  0
  1 26  1  0
  4 27  1  0
  7 28  1  0
 10 29  1  0
 10 30  1  0
 11 31  1  0
 11 32  1  0
 12 33  1  0
 13 34  1  0
 13 35  1  0
 15 36  1  0
 16 37  1  0
 17 38  1  0
 19 39  1  0
 19 40  1  0
 20 41  1  0
 20 42  1  0
 21 43  1  0
 21 44  1  0
 22 45  1  0
 22 46  1  0
 23 47  1  0
 23 48  1  0
M  CHG  1  21   1
M  END
>  <UniqueID>  (40) 
38

>  <SMILES>  (40) 
COc1cc2c(cc1OCCNCc1cccs1)CC[NH2+]CC2

>  <Energy>  (40) 
81.01931576486105

>  <Genealogy>  (40) 
COc1cc2c(cc1OCCNCc1cccs1)CC[NH2+]CC2 (protonated)
COc1cc2c(cc1OCCNCc1cccs1)CC[NH2+]CC2 (3D coordinates assigned)
COc1cc2c(cc1OCCNCc1cccs1)CC[NH2+]CC2 (nonaromatic ring conformer: 81.01931576486105 kcal/mol)

>  <smiles>  (40) 
COc1cc2c(cc1OCCNCc1cccs1)CCNCC2

>  <score_type>  (40) 
oracle

>  <origin>  (40) 
adg

>  <m_score__min__energy>  (40) 
-6.8200000000000003

>  <m_primary>  (40) 
energy

$$$$
40:0
     RDKit          3D

 26 28  0  0  0  0  0  0  0  0999 V2000
   -3.7080   21.9220  -32.7350 C   0  0  0  0  0  0  0  0  0  0  0  0
   -5.0640   22.0050  -32.1480 N   0  0  0  0  0  0  0  0  0  0  0  0
   -5.9640   20.9730  -32.3390 C   0  0  0  0  0  0  0  0  0  0  0  0
   -5.6280   19.8180  -33.0920 C   0  0  0  0  0  0  0  0  0  0  0  0
   -6.5480   18.7850  -33.2750 C   0  0  0  0  0  0  0  0  0  0  0  0
   -7.8200   18.8710  -32.7190 C   0  0  0  0  0  0  0  0  0  0  0  0
   -8.1820   19.9920  -31.9740 C   0  0  0  0  0  0  0  0  0  0  0  0
   -7.2670   21.0470  -31.7760 C   0  0  0  0  0  0  0  0  0  0  0  0
   -7.6340   22.1750  -31.0260 C   0  0  0  0  0  0  0  0  0  0  0  0
   -8.7890   22.2550  -30.5210 O   0  0  0  0  0  0  0  0  0  0  0  0
   -6.7140   23.2130  -30.8400 C   0  0  0  0  0  0  0  0  0  0  0  0
   -7.0440   24.3600  -30.0950 C   0  0  0  0  0  0  0  0  0  0  0  0
   -6.1080   25.3790  -29.9250 C   0  0  0  0  0  0  0  0  0  0  0  0
   -4.8470   25.2480  -30.5010 C   0  0  0  0  0  0  0  0  0  0  0  0
   -4.5410   24.1370  -31.2170 N   0  0  0  0  0  0  0  0  0  0  0  0
   -5.4230   23.1130  -31.4110 C   0  0  0  0  0  0  0  0  0  0  0  0
   -2.9615   21.8763  -31.9284 H   0  0  0  0  0  0  0  0  0  0  0  0
   -3.6322   21.0175  -33.3564 H   0  0  0  0  0  0  0  0  0  0  0  0
   -3.5225   22.8105  -33.3564 H   0  0  0  0  0  0  0  0  0  0  0  0
   -4.6261   19.7358  -33.5386 H   0  0  0  0  0  0  0  0  0  0  0  0
   -6.2659   17.8984  -33.8618 H   0  0  0  0  0  0  0  0  0  0  0  0
   -8.5410   18.0536  -32.8674 H   0  0  0  0  0  0  0  0  0  0  0  0
   -9.1895   20.0544  -31.5369 H   0  0  0  0  0  0  0  0  0  0  0  0
   -8.0436   24.4530  -29.6453 H   0  0  0  0  0  0  0  0  0  0  0  0
   -6.3627   26.2766  -29.3423 H   0  0  0  0  0  0  0  0  0  0  0  0
   -4.0993   26.0450  -30.3755 H   0  0  0  0  0  0  0  0  0  0  0  0
  1  2  1  0
  2  3  1  0
  3  4  2  0
  4  5  1  0
  5  6  2  0
  6  7  1  0
  7  8  2  0
  8  9  1  0
  9 10  2  0
  9 11  1  0
 11 12  2  0
 12 13  1  0
 13 14  2  0
 14 15  1  0
 15 16  2  0
 16  2  1  0
  8  3  1  0
 16 11  1  0
  1 17  1  0
  1 18  1  0
  1 19  1  0
  4 20  1  0
  5 21  1  0
  6 22  1  0
  7 23  1  0
 12 24  1  0
 13 25  1  0
 14 26  1  0
M  END
>  <UniqueID>  (41) 
39

>  <SMILES>  (41) 
Cn1c2ccccc2c(=O)c2cccnc21

>  <Energy>  (41) 
45.31456628765024

>  <Genealogy>  (41) 
Cn1c2ccccc2c(=O)c2cccnc21 (3D coordinates assigned)
Cn1c2ccccc2c(=O)c2cccnc21 (optimized conformer: 45.31456628765024 kcal/mol)

>  <smiles>  (41) 
Cn1c2ccccc2c(=O)c2cccnc21

>  <score_type>  (41) 
oracle

>  <origin>  (41) 
adg

>  <m_score__min__energy>  (41) 
-7.2000000000000002

>  <m_primary>  (41) 
energy

$$$$
41:0
     RDKit          3D

 40 42  0  0  0  0  0  0  0  0999 V2000
   -0.6650   20.7840  -29.6620 C   0  0  0  0  0  0  0  0  0  0  0  0
   -1.7420   21.5990  -30.2500 N   0  0  0  0  0  0  0  0  0  0  0  0
   -1.4610   23.0450  -30.0790 C   0  0  0  0  0  0  0  0  0  0  0  0
   -2.3800   23.6420  -29.0080 C   0  0  0  0  0  0  0  0  0  0  0  0
   -3.7500   23.9200  -29.5600 C   0  0  0  0  0  0  0  0  0  0  0  0
   -4.8410   23.1120  -29.2070 C   0  0  0  0  0  0  0  0  0  0  0  0
   -6.1070   23.4090  -29.7180 C   0  0  0  0  0  0  0  0  0  0  0  0
   -6.2740   24.5050  -30.5650 C   0  0  0  0  0  0  0  0  0  0  0  0
   -5.1690   25.2990  -30.8810 C   0  0  0  0  0  0  0  0  0  0  0  0
   -3.9440   24.9940  -30.3760 N   0  0  0  0  0  0  0  0  0  0  0  0
   -1.9300   21.2450  -31.6710 C   0  0  0  0  0  0  0  0  0  0  0  0
   -3.3690   21.4050  -32.0450 C   0  0  0  0  0  0  0  0  0  0  0  0
   -3.9120   22.5440  -32.5130 N   0  0  0  0  0  0  0  0  0  0  0  0
   -5.2000   22.2930  -32.6880 N   0  0  0  0  0  0  0  0  0  0  0  0
   -5.3920   21.0100  -32.3190 C   0  0  0  0  0  0  0  0  0  0  0  0
   -6.6960   20.3210  -32.3400 C   0  0  0  0  0  0  0  0  0  0  0  0
   -7.8950   21.0530  -32.3120 C   0  0  0  0  0  0  0  0  0  0  0  0
   -9.1260   20.3890  -32.3040 C   0  0  0  0  0  0  0  0  0  0  0  0
   -9.1690   18.9930  -32.3250 C   0  0  0  0  0  0  0  0  0  0  0  0
   -7.9820   18.2580  -32.3540 C   0  0  0  0  0  0  0  0  0  0  0  0
   -6.7490   18.9160  -32.3630 C   0  0  0  0  0  0  0  0  0  0  0  0
   -4.2700   20.4600  -31.9240 O   0  0  0  0  0  0  0  0  0  0  0  0
   -0.7270   20.8309  -28.5648 H   0  0  0  0  0  0  0  0  0  0  0  0
   -0.7738   19.7400  -29.9911 H   0  0  0  0  0  0  0  0  0  0  0  0
    0.3101   21.1724  -29.9911 H   0  0  0  0  0  0  0  0  0  0  0  0
   -0.4128   23.1773  -29.7726 H   0  0  0  0  0  0  0  0  0  0  0  0
   -1.6422   23.5602  -31.0338 H   0  0  0  0  0  0  0  0  0  0  0  0
   -2.4671   22.9310  -28.1732 H   0  0  0  0  0  0  0  0  0  0  0  0
   -1.9437   24.5917  -28.6650 H   0  0  0  0  0  0  0  0  0  0  0  0
   -4.7012   22.2529  -28.5344 H   0  0  0  0  0  0  0  0  0  0  0  0
   -6.9699   22.7803  -29.4532 H   0  0  0  0  0  0  0  0  0  0  0  0
   -7.2651   24.7413  -30.9795 H   0  0  0  0  0  0  0  0  0  0  0  0
   -5.2901   26.1720  -31.5392 H   0  0  0  0  0  0  0  0  0  0  0  0
   -1.3138   21.9070  -32.2972 H   0  0  0  0  0  0  0  0  0  0  0  0
   -1.6271   20.1994  -31.8287 H   0  0  0  0  0  0  0  0  0  0  0  0
   -7.8654   22.1525  -32.2963 H   0  0  0  0  0  0  0  0  0  0  0  0
  -10.0616   20.9670  -32.2811 H   0  0  0  0  0  0  0  0  0  0  0  0
  -10.1381   18.4725  -32.3187 H   0  0  0  0  0  0  0  0  0  0  0  0
   -8.0175   17.1587  -32.3698 H   0  0  0  0  0  0  0  0  0  0  0  0
   -5.8167   18.3327  -32.3882 H   0  0  0  0  0  0  0  0  0  0  0  0
  1  2  1  0
  2  3  1  0
  3  4  1  0
  4  5  1  0
  5  6  2  0
  6  7  1  0
  7  8  2  0
  8  9  1  0
  9 10  2  0
  2 11  1  0
 11 12  1  0
 12 13  2  0
 13 14  1  0
 14 15  2  0
 15 16  1  0
 16 17  2  0
 17 18  1  0
 18 19  2  0
 19 20  1  0
 20 21  2  0
 15 22  1  0
 10  5  1  0
 22 12  1  0
 21 16  1  0
  1 23  1  0
  1 24  1  0
  1 25  1  0
  3 26  1  0
  3 27  1  0
  4 28  1  0
  4 29  1  0
  6 30  1  0
  7 31  1  0
  8 32  1  0
  9 33  1  0
 11 34  1  0
 11 35  1  0
 17 36  1  0
 18 37  1  0
 19 38  1  0
 20 39  1  0
 21 40  1  0
M  END
>  <UniqueID>  (42) 
40

>  <SMILES>  (42) 
CN(CCc1ccccn1)Cc1nnc(-c2ccccc2)o1

>  <Energy>  (42) 
71.12434095237121

>  <Genealogy>  (42) 
CN(CCc1ccccn1)Cc1nnc(-c2ccccc2)o1 (3D coordinates assigned)
CN(CCc1ccccn1)Cc1nnc(-c2ccccc2)o1 (optimized conformer: 71.12434095237121 kcal/mol)

>  <smiles>  (42) 
CN(CCc1ccccn1)Cc1nnc(-c2ccccc2)o1

>  <score_type>  (42) 
oracle

>  <origin>  (42) 
adg

>  <m_score__min__energy>  (42) 
-7.5499999999999998

>  <m_primary>  (42) 
energy

$$$$
42:0
     RDKit          3D

 50 52  0  0  0  0  0  0  0  0999 V2000
   -5.7210   19.0990  -33.9460 C   0  0  0  0  0  0  0  0  0  0  0  0
   -6.9140   20.0430  -33.7330 C   0  0  0  0  0  0  0  0  0  0  0  0
   -7.3370   20.1920  -32.3130 N   0  0  0  0  0  0  0  0  0  0  0  0
   -7.4490   18.8950  -31.5920 C   0  0  0  0  0  0  0  0  0  0  0  0
   -8.8560   18.2890  -31.6610 C   0  0  0  0  0  0  0  0  0  0  0  0
   -8.6030   20.9700  -32.2130 C   0  0  0  0  0  0  0  0  0  0  0  0
   -8.3560   22.4680  -31.9660 C   0  0  0  0  0  0  0  0  0  0  0  0
   -6.9940   22.8250  -32.3800 N   0  0  0  0  0  0  0  0  0  0  0  0
   -6.4770   23.9890  -31.6430 C   0  0  0  0  0  0  0  0  0  0  0  0
   -5.1840   23.6740  -30.9000 C   0  0  0  0  0  0  0  0  0  0  0  0
   -5.0630   24.1980  -29.6100 C   0  0  0  0  0  0  0  0  0  0  0  0
   -3.9330   23.9640  -28.8280 C   0  0  0  0  0  0  0  0  0  0  0  0
   -3.8660   24.5230  -27.5410 C   0  0  0  0  0  0  0  0  0  0  0  0
   -2.7500   24.3120  -26.7360 C   0  0  0  0  0  0  0  0  0  0  0  0
   -1.6910   23.5410  -27.2040 C   0  0  0  0  0  0  0  0  0  0  0  0
   -0.1630   23.2580  -26.0920 Br  0  0  0  0  0  0  0  0  0  0  0  0
   -1.7410   22.9750  -28.4810 C   0  0  0  0  0  0  0  0  0  0  0  0
   -2.8660   23.1720  -29.3250 C   0  0  0  0  0  0  0  0  0  0  0  0
   -2.9690   22.6100  -30.6360 C   0  0  0  0  0  0  0  0  0  0  0  0
   -1.9470   21.7960  -31.1890 C   0  0  0  0  0  0  0  0  0  0  0  0
   -2.0690   21.2510  -32.4660 C   0  0  0  0  0  0  0  0  0  0  0  0
   -0.6730   20.1550  -33.1750 Br  0  0  0  0  0  0  0  0  0  0  0  0
   -3.2050   21.4970  -33.2240 C   0  0  0  0  0  0  0  0  0  0  0  0
   -4.2260   22.2920  -32.7170 C   0  0  0  0  0  0  0  0  0  0  0  0
   -4.1380   22.8640  -31.4240 C   0  0  0  0  0  0  0  0  0  0  0  0
   -5.3235   18.7844  -32.9698 H   0  0  0  0  0  0  0  0  0  0  0  0
   -6.0499   18.2140  -34.5104 H   0  0  0  0  0  0  0  0  0  0  0  0
   -4.9353   19.6226  -34.5104 H   0  0  0  0  0  0  0  0  0  0  0  0
   -6.6385   21.0368  -34.1156 H   0  0  0  0  0  0  0  0  0  0  0  0
   -7.7654   19.5973  -34.2682 H   0  0  0  0  0  0  0  0  0  0  0  0
   -6.5800   20.7470  -31.8470 H   0  0  0  0  0  0  0  0  0  0  0  0
   -6.7389   18.1835  -32.0387 H   0  0  0  0  0  0  0  0  0  0  0  0
   -7.2262   19.0881  -30.5322 H   0  0  0  0  0  0  0  0  0  0  0  0
   -9.2353   18.1256  -30.6415 H   0  0  0  0  0  0  0  0  0  0  0  0
   -9.5263   18.9782  -32.1955 H   0  0  0  0  0  0  0  0  0  0  0  0
   -8.8157   17.3284  -32.1955 H   0  0  0  0  0  0  0  0  0  0  0  0
   -9.1628   20.8551  -33.1529 H   0  0  0  0  0  0  0  0  0  0  0  0
   -9.1688   20.5786  -31.3547 H   0  0  0  0  0  0  0  0  0  0  0  0
   -9.0802   23.0577  -32.5472 H   0  0  0  0  0  0  0  0  0  0  0  0
   -8.4765   22.6828  -30.8939 H   0  0  0  0  0  0  0  0  0  0  0  0
   -6.9960   23.0410  -33.4060 H   0  0  0  0  0  0  0  0  0  0  0  0
   -6.2855   24.8035  -32.3570 H   0  0  0  0  0  0  0  0  0  0  0  0
   -7.2322   24.2785  -30.8974 H   0  0  0  0  0  0  0  0  0  0  0  0
   -5.8802   24.8106  -29.2014 H   0  0  0  0  0  0  0  0  0  0  0  0
   -4.7018   25.1322  -27.1664 H   0  0  0  0  0  0  0  0  0  0  0  0
   -2.7056   24.7549  -25.7301 H   0  0  0  0  0  0  0  0  0  0  0  0
   -0.8961   22.3677  -28.8377 H   0  0  0  0  0  0  0  0  0  0  0  0
   -1.0415   21.5912  -30.5990 H   0  0  0  0  0  0  0  0  0  0  0  0
   -3.2977   21.0612  -34.2297 H   0  0  0  0  0  0  0  0  0  0  0  0
   -5.1189   22.4806  -33.3311 H   0  0  0  0  0  0  0  0  0  0  0  0
  1  2  1  0
  2  3  1  0
  3  4  1  0
  4  5  1  0
  3  6  1  0
  6  7  1  0
  7  8  1  0
  8  9  1  0
  9 10  1  0
 10 11  2  0
 11 12  1  0
 12 13  2  0
 13 14  1  0
 14 15  2  0
 15 16  1  0
 15 17  1  0
 17 18  2  0
 18 19  1  0
 19 20  2  0
 20 21  1  0
 21 22  1  0
 21 23  2  0
 23 24  1  0
 24 25  2  0
 25 10  1  0
 18 12  1  0
 25 19  1  0
  1 26  1  0
  1 27  1  0
  1 28  1  0
  2 29  1  0
  2 30  1  0
  3 31  1  0
  4 32  1  0
  4 33  1  0
  5 34  1  0
  5 35  1  0
  5 36  1  0
  6 37  1  0
  6 38  1  0
  7 39  1  0
  7 40  1  0
  8 41  1  0
  9 42  1  0
  9 43  1  0
 11 44  1  0
 13 45  1  0
 14 46  1  0
 17 47  1  0
 20 48  1  0
 23 49  1  0
 24 50  1  0
M  CHG  1   3   1
M  END
>  <UniqueID>  (43) 
41

>  <SMILES>  (43) 
CC[NH+](CC)CCNCc1cc2ccc(Br)cc2c2cc(Br)ccc12

>  <Energy>  (43) 
68.36745523194814

>  <Genealogy>  (43) 
CC[NH+](CC)CCNCc1cc2ccc(Br)cc2c2cc(Br)ccc12 (protonated)
CC[NH+](CC)CCNCc1cc2ccc(Br)cc2c2cc(Br)ccc12 (3D coordinates assigned)
CC[NH+](CC)CCNCc1cc2ccc(Br)cc2c2cc(Br)ccc12 (optimized conformer: 68.36745523194814 kcal/mol)

>  <smiles>  (43) 
CCN(CC)CCNCc1cc2ccc(Br)cc2c2cc(Br)ccc12

>  <score_type>  (43) 
oracle

>  <origin>  (43) 
adg

>  <m_score__min__energy>  (43) 
-8.1099999999999994

>  <m_primary>  (43) 
energy

$$$$
43:0
     RDKit          3D

 72 76  0  0  0  0  0  0  0  0999 V2000
    1.7070   23.7970  -27.4340 C   0  0  0  0  0  0  0  0  0  0  0  0
    0.8910   24.8850  -27.8540 O   0  0  0  0  0  0  0  0  0  0  0  0
    0.3720   25.8710  -26.9980 C   0  0  0  0  0  0  0  0  0  0  0  0
    1.2090   26.7770  -26.3160 C   0  0  0  0  0  0  0  0  0  0  0  0
    0.6650   27.7260  -25.4490 C   0  0  0  0  0  0  0  0  0  0  0  0
   -0.7150   27.7850  -25.2510 C   0  0  0  0  0  0  0  0  0  0  0  0
   -1.5550   26.8960  -25.9240 C   0  0  0  0  0  0  0  0  0  0  0  0
   -1.0240   25.9410  -26.8070 C   0  0  0  0  0  0  0  0  0  0  0  0
   -1.9090   25.0410  -27.5020 N   0  0  0  0  0  0  0  0  0  0  0  0
   -1.5570   24.5400  -28.8350 C   0  0  0  0  0  0  0  0  0  0  0  0
   -2.8080   24.4650  -29.7140 C   0  0  0  0  0  0  0  0  0  0  0  0
   -3.9060   23.7560  -29.0340 N   0  0  0  0  0  0  0  0  0  0  0  0
   -5.0350   23.2830  -29.8030 C   0  0  0  0  0  0  0  0  0  0  0  0
   -6.1240   24.1290  -30.0640 C   0  0  0  0  0  0  0  0  0  0  0  0
   -7.2230   23.6690  -30.7900 C   0  0  0  0  0  0  0  0  0  0  0  0
   -7.2580   22.3520  -31.2750 C   0  0  0  0  0  0  0  0  0  0  0  0
   -6.1650   21.4940  -31.0350 C   0  0  0  0  0  0  0  0  0  0  0  0
   -5.0610   21.9700  -30.3040 C   0  0  0  0  0  0  0  0  0  0  0  0
   -6.1890   20.0990  -31.5430 C   0  0  0  0  0  0  0  0  0  0  0  0
   -5.2070   19.3370  -31.3220 O   0  0  0  0  0  0  0  0  0  0  0  0
   -7.3290   19.6050  -32.2780 N   0  0  0  0  0  0  0  0  0  0  0  0
   -7.3900   18.1930  -32.6840 C   0  0  0  0  0  0  0  0  0  0  0  0
   -6.4970   17.9590  -33.9090 C   0  0  0  0  0  0  0  0  0  0  0  0
   -5.2620   17.1150  -33.5660 C   0  0  0  0  0  0  0  0  0  0  0  0
   -4.0830   17.9770  -33.3270 N   0  0  0  0  0  0  0  0  0  0  0  0
   -4.2460   19.3020  -33.9540 C   0  0  0  0  0  0  0  0  0  0  0  0
   -3.0900   20.2350  -33.5410 C   0  0  0  0  0  0  0  0  0  0  0  0
   -1.9370   19.4770  -33.0090 N   0  0  0  0  0  0  0  0  0  0  0  0
   -0.7520   20.3450  -32.9250 C   0  0  0  0  0  0  0  0  0  0  0  0
   -1.6550   18.3010  -33.8490 C   0  0  0  0  0  0  0  0  0  0  0  0
   -2.8510   17.3260  -33.8250 C   0  0  0  0  0  0  0  0  0  0  0  0
   -8.4620   20.4680  -32.4970 C   0  0  0  0  0  0  0  0  0  0  0  0
   -9.4880   20.0390  -33.0930 O   0  0  0  0  0  0  0  0  0  0  0  0
   -8.4350   21.8580  -32.0210 C   0  0  0  0  0  0  0  0  0  0  0  0
   -9.4180   22.6150  -32.2440 O   0  0  0  0  0  0  0  0  0  0  0  0
   -3.7980   23.4310  -27.6040 C   0  0  0  0  0  0  0  0  0  0  0  0
   -3.1360   24.5800  -26.8350 C   0  0  0  0  0  0  0  0  0  0  0  0
    1.7336   23.7615  -26.3349 H   0  0  0  0  0  0  0  0  0  0  0  0
    1.2905   22.8554  -27.8213 H   0  0  0  0  0  0  0  0  0  0  0  0
    2.7275   23.9332  -27.8213 H   0  0  0  0  0  0  0  0  0  0  0  0
    2.2977   26.7359  -26.4679 H   0  0  0  0  0  0  0  0  0  0  0  0
    1.3257   28.4290  -24.9206 H   0  0  0  0  0  0  0  0  0  0  0  0
   -1.1409   28.5318  -24.5648 H   0  0  0  0  0  0  0  0  0  0  0  0
   -2.6419   26.9437  -25.7615 H   0  0  0  0  0  0  0  0  0  0  0  0
   -0.8266   25.2196  -29.2983 H   0  0  0  0  0  0  0  0  0  0  0  0
   -1.1225   23.5340  -28.7392 H   0  0  0  0  0  0  0  0  0  0  0  0
   -3.1374   25.4866  -29.9544 H   0  0  0  0  0  0  0  0  0  0  0  0
   -2.5535   23.9093  -30.6286 H   0  0  0  0  0  0  0  0  0  0  0  0
   -6.1109   25.1644  -29.6927 H   0  0  0  0  0  0  0  0  0  0  0  0
   -8.0695   24.3441  -30.9841 H   0  0  0  0  0  0  0  0  0  0  0  0
   -4.2047   21.3040  -30.1217 H   0  0  0  0  0  0  0  0  0  0  0  0
   -7.0426   17.5602  -31.8540 H   0  0  0  0  0  0  0  0  0  0  0  0
   -8.4284   17.9361  -32.9404 H   0  0  0  0  0  0  0  0  0  0  0  0
   -7.0816   17.4362  -34.6803 H   0  0  0  0  0  0  0  0  0  0  0  0
   -6.1502   18.9387  -34.2693 H   0  0  0  0  0  0  0  0  0  0  0  0
   -5.4680   16.5271  -32.6594 H   0  0  0  0  0  0  0  0  0  0  0  0
   -5.0445   16.4494  -34.4144 H   0  0  0  0  0  0  0  0  0  0  0  0
   -4.2473   19.1881  -35.0481 H   0  0  0  0  0  0  0  0  0  0  0  0
   -5.1975   19.7415  -33.6199 H   0  0  0  0  0  0  0  0  0  0  0  0
   -2.7637   20.8089  -34.4209 H   0  0  0  0  0  0  0  0  0  0  0  0
   -3.4561   20.9030  -32.7474 H   0  0  0  0  0  0  0  0  0  0  0  0
   -0.5045   20.5263  -31.8687 H   0  0  0  0  0  0  0  0  0  0  0  0
    0.0979   19.8543  -33.4218 H   0  0  0  0  0  0  0  0  0  0  0  0
   -0.9635   21.3034  -33.4218 H   0  0  0  0  0  0  0  0  0  0  0  0
   -1.4749   18.6288  -34.8834 H   0  0  0  0  0  0  0  0  0  0  0  0
   -0.7658   17.7860  -33.4564 H   0  0  0  0  0  0  0  0  0  0  0  0
   -3.0308   16.9583  -34.8460 H   0  0  0  0  0  0  0  0  0  0  0  0
   -2.6031   16.4987  -33.1438 H   0  0  0  0  0  0  0  0  0  0  0  0
   -4.8047   23.2567  -27.1964 H   0  0  0  0  0  0  0  0  0  0  0  0
   -3.1792   22.5284  -27.4925 H   0  0  0  0  0  0  0  0  0  0  0  0
   -3.8435   25.4197  -26.7688 H   0  0  0  0  0  0  0  0  0  0  0  0
   -2.8666   24.2137  -25.8334 H   0  0  0  0  0  0  0  0  0  0  0  0
  1  2  1  0
  2  3  1  0
  3  4  2  0
  4  5  1  0
  5  6  2  0
  6  7  1  0
  7  8  2  0
  8  9  1  0
  9 10  1  0
 10 11  1  0
 11 12  1  0
 12 13  1  0
 13 14  2  0
 14 15  1  0
 15 16  2  0
 16 17  1  0
 17 18  2  0
 17 19  1  0
 19 20  2  0
 19 21  1  0
 21 22  1  0
 22 23  1  0
 23 24  1  0
 24 25  1  0
 25 26  1  0
 26 27  1  0
 27 28  1  0
 28 29  1  0
 28 30  1  0
 30 31  1  0
 21 32  1  0
 32 33  2  0
 32 34  1  0
 34 35  2  0
 12 36  1  0
 36 37  1  0
  8  3  1  0
 37  9  1  0
 18 13  1  0
 31 25  1  0
 34 16  1  0
  1 38  1  0
  1 39  1  0
  1 40  1  0
  4 41  1  0
  5 42  1  0
  6 43  1  0
  7 44  1  0
 10 45  1  0
 10 46  1  0
 11 47  1  0
 11 48  1  0
 14 49  1  0
 15 50  1  0
 18 51  1  0
 22 52  1  0
 22 53  1  0
 23 54  1  0
 23 55  1  0
 24 56  1  0
 24 57  1  0
 26 58  1  0
 26 59  1  0
 27 60  1  0
 27 61  1  0
 29 62  1  0
 29 63  1  0
 29 64  1  0
 30 65  1  0
 30 66  1  0
 31 67  1  0
 31 68  1  0
 36 69  1  0
 36 70  1  0
 37 71  1  0
 37 72  1  0
M  END
>  <UniqueID>  (44) 
42

>  <SMILES>  (44) 
COc1ccccc1N1CCN(c2ccc3c(c2)C(=O)N(CCCN2CCN(C)CC2)C(=O)C3=O)CC1

>  <Energy>  (44) 
89.45017292489264

>  <Genealogy>  (44) 
COc1ccccc1N1CCN(c2ccc3c(c2)C(=O)N(CCCN2CCN(C)CC2)C(=O)C3=O)CC1 (3D coordinates assigned)
COc1ccccc1N1CCN(c2ccc3c(c2)C(=O)N(CCCN2CCN(C)CC2)C(=O)C3=O)CC1 (nonaromatic ring conformer: 89.45017292489264 kcal/mol)

>  <smiles>  (44) 
COc1ccccc1N1CCN(c2ccc3c(c2)C(=O)N(CCCN2CCN(C)CC2)C(=O)C3=O)CC1

>  <score_type>  (44) 
oracle

>  <origin>  (44) 
adg

>  <m_score__min__energy>  (44) 
-9.4299999999999997

>  <m_primary>  (44) 
energy

$$$$
44:0
     RDKit          3D

 34 36  0  0  0  0  0  0  0  0999 V2000
   -6.4690   15.6820  -34.2200 C   0  0  0  0  0  0  0  0  0  0  0  0
   -7.2380   16.3030  -33.1950 O   0  0  0  0  0  0  0  0  0  0  0  0
   -7.0500   17.6200  -32.7440 C   0  0  0  0  0  0  0  0  0  0  0  0
   -8.1260   18.4870  -32.5000 C   0  0  0  0  0  0  0  0  0  0  0  0
   -7.9040   19.8010  -32.0660 C   0  0  0  0  0  0  0  0  0  0  0  0
   -8.9960   20.5980  -31.7090 C   0  0  0  0  0  0  0  0  0  0  0  0
   -8.7960   21.8720  -31.1920 C   0  0  0  0  0  0  0  0  0  0  0  0
   -7.5140   22.4130  -31.1210 C   0  0  0  0  0  0  0  0  0  0  0  0
   -7.3660   23.6750  -30.6370 N   0  0  0  0  0  0  0  0  0  0  0  0
   -6.1650   24.3010  -30.5990 C   0  0  0  0  0  0  0  0  0  0  0  0
   -6.0750   25.6990  -30.0790 C   0  0  0  0  0  0  0  0  0  0  0  0
   -5.0490   23.6790  -31.1600 C   0  0  0  0  0  0  0  0  0  0  0  0
   -5.1530   22.3880  -31.6840 C   0  0  0  0  0  0  0  0  0  0  0  0
   -3.7890   21.8770  -32.6820 Cl  0  0  0  0  0  0  0  0  0  0  0  0
   -6.3860   21.6760  -31.5790 C   0  0  0  0  0  0  0  0  0  0  0  0
   -6.5790   20.3040  -31.9410 C   0  0  0  0  0  0  0  0  0  0  0  0
   -5.5170   19.3840  -32.0830 C   0  0  0  0  0  0  0  0  0  0  0  0
   -5.7430   18.0610  -32.5100 C   0  0  0  0  0  0  0  0  0  0  0  0
   -4.6920   17.1500  -32.7030 O   0  0  0  0  0  0  0  0  0  0  0  0
   -3.5240   17.4100  -33.4750 C   0  0  0  0  0  0  0  0  0  0  0  0
   -5.6902   15.0531  -33.7640 H   0  0  0  0  0  0  0  0  0  0  0  0
   -7.1257   15.0578  -34.8439 H   0  0  0  0  0  0  0  0  0  0  0  0
   -5.9971   16.4554  -34.8439 H   0  0  0  0  0  0  0  0  0  0  0  0
   -9.1558   18.1312  -32.6511 H   0  0  0  0  0  0  0  0  0  0  0  0
  -10.0188   20.2143  -31.8381 H   0  0  0  0  0  0  0  0  0  0  0  0
   -9.6562   22.4579  -30.8361 H   0  0  0  0  0  0  0  0  0  0  0  0
   -6.0761   25.6819  -28.9791 H   0  0  0  0  0  0  0  0  0  0  0  0
   -5.1450   26.1644  -30.4375 H   0  0  0  0  0  0  0  0  0  0  0  0
   -6.9376   26.2798  -30.4375 H   0  0  0  0  0  0  0  0  0  0  0  0
   -4.0843   24.2067  -31.1898 H   0  0  0  0  0  0  0  0  0  0  0  0
   -4.4907   19.7078  -31.8551 H   0  0  0  0  0  0  0  0  0  0  0  0
   -2.6745   17.5991  -32.8023 H   0  0  0  0  0  0  0  0  0  0  0  0
   -3.3025   16.5392  -34.1095 H   0  0  0  0  0  0  0  0  0  0  0  0
   -3.6928   18.2926  -34.1095 H   0  0  0  0  0  0  0  0  0  0  0  0
  1  2  1  0
  2  3  1  0
  3  4  2  0
  4  5  1  0
  5  6  2  0
  6  7  1  0
  7  8  2  0
  8  9  1  0
  9 10  2  0
 10 11  1  0
 10 12  1  0
 12 13  2  0
 13 14  1  0
 13 15  1  0
 15 16  2  0
 16 17  1  0
 17 18  2  0
 18 19  1  0
 19 20  1  0
 18  3  1  0
 16  5  1  0
 15  8  1  0
  1 21  1  0
  1 22  1  0
  1 23  1  0
  4 24  1  0
  6 25  1  0
  7 26  1  0
 11 27  1  0
 11 28  1  0
 11 29  1  0
 12 30  1  0
 17 31  1  0
 20 32  1  0
 20 33  1  0
 20 34  1  0
M  END
>  <UniqueID>  (45) 
43

>  <SMILES>  (45) 
COc1cc2ccc3nc(C)cc(Cl)c3c2cc1OC

>  <Energy>  (45) 
55.694384216660204

>  <Genealogy>  (45) 
COc1cc2ccc3nc(C)cc(Cl)c3c2cc1OC (3D coordinates assigned)
COc1cc2ccc3nc(C)cc(Cl)c3c2cc1OC (optimized conformer: 55.694384216660204 kcal/mol)

>  <smiles>  (45) 
COc1cc2ccc3nc(C)cc(Cl)c3c2cc1OC

>  <score_type>  (45) 
oracle

>  <origin>  (45) 
adg

>  <m_score__min__energy>  (45) 
-7.3200000000000003

>  <m_primary>  (45) 
energy

$$$$
45:0
     RDKit          3D

 56 60  0  0  0  0  0  0  0  0999 V2000
   -0.4790   27.1450  -27.3570 C   0  0  0  0  0  0  0  0  0  0  0  0
   -0.7850   25.6800  -27.4380 C   0  0  0  0  0  0  0  0  0  0  0  0
   -0.5530   24.8470  -26.3330 C   0  0  0  0  0  0  0  0  0  0  0  0
   -0.8610   23.4850  -26.4020 C   0  0  0  0  0  0  0  0  0  0  0  0
   -1.4190   22.9500  -27.5660 C   0  0  0  0  0  0  0  0  0  0  0  0
   -1.6860   23.7780  -28.6660 C   0  0  0  0  0  0  0  0  0  0  0  0
   -2.2450   23.2220  -29.8670 N   0  0  0  0  0  0  0  0  0  0  0  0
   -1.7180   22.2750  -30.6850 C   0  0  0  0  0  0  0  0  0  0  0  0
   -0.4520   21.6850  -30.6170 C   0  0  0  0  0  0  0  0  0  0  0  0
   -0.1300   20.6970  -31.5660 C   0  0  0  0  0  0  0  0  0  0  0  0
   -1.0630   20.3220  -32.5560 C   0  0  0  0  0  0  0  0  0  0  0  0
   -2.3270   20.9330  -32.6180 C   0  0  0  0  0  0  0  0  0  0  0  0
   -2.6180   21.9170  -31.6730 C   0  0  0  0  0  0  0  0  0  0  0  0
   -3.7520   22.6740  -31.4520 C   0  0  0  0  0  0  0  0  0  0  0  0
   -5.0180   22.6870  -32.0220 C   0  0  0  0  0  0  0  0  0  0  0  0
   -5.2660   21.9470  -33.0120 O   0  0  0  0  0  0  0  0  0  0  0  0
   -5.9940   23.4860  -31.4550 N   0  0  0  0  0  0  0  0  0  0  0  0
   -7.3810   23.3960  -31.9660 C   0  0  0  0  0  0  0  0  0  0  0  0
   -8.2360   22.3670  -31.1960 C   0  0  0  0  0  0  0  0  0  0  0  0
   -8.9000   21.2850  -32.0730 C   0  0  0  0  0  0  0  0  0  0  0  0
   -8.0320   20.0720  -32.3370 C   0  0  0  0  0  0  0  0  0  0  0  0
   -7.1900   20.0430  -33.4640 C   0  0  0  0  0  0  0  0  0  0  0  0
   -6.3740   18.9350  -33.7120 C   0  0  0  0  0  0  0  0  0  0  0  0
   -6.4070   17.8350  -32.8520 C   0  0  0  0  0  0  0  0  0  0  0  0
   -7.2760   17.8310  -31.7580 C   0  0  0  0  0  0  0  0  0  0  0  0
   -8.0980   18.9340  -31.5110 C   0  0  0  0  0  0  0  0  0  0  0  0
   -5.6650   24.3160  -30.3850 C   0  0  0  0  0  0  0  0  0  0  0  0
   -6.6470   25.2650  -29.7540 C   0  0  0  0  0  0  0  0  0  0  0  0
   -4.4180   24.2630  -29.8280 N   0  0  0  0  0  0  0  0  0  0  0  0
   -3.4830   23.4480  -30.3610 C   0  0  0  0  0  0  0  0  0  0  0  0
   -1.3640   25.1430  -28.5980 C   0  0  0  0  0  0  0  0  0  0  0  0
   -0.4156   27.4485  -26.3016 H   0  0  0  0  0  0  0  0  0  0  0  0
    0.4808   27.3472  -27.8550 H   0  0  0  0  0  0  0  0  0  0  0  0
   -1.2776   27.7145  -27.8550 H   0  0  0  0  0  0  0  0  0  0  0  0
   -0.1275   25.2668  -25.4096 H   0  0  0  0  0  0  0  0  0  0  0  0
   -0.6636   22.8332  -25.5382 H   0  0  0  0  0  0  0  0  0  0  0  0
   -1.6496   21.8758  -27.6197 H   0  0  0  0  0  0  0  0  0  0  0  0
    0.2712   21.9845  -29.8441 H   0  0  0  0  0  0  0  0  0  0  0  0
    0.8573   20.2130  -31.5358 H   0  0  0  0  0  0  0  0  0  0  0  0
   -0.7982   19.5435  -33.2866 H   0  0  0  0  0  0  0  0  0  0  0  0
   -3.0613   20.6454  -33.3849 H   0  0  0  0  0  0  0  0  0  0  0  0
   -7.8541   24.3848  -31.8747 H   0  0  0  0  0  0  0  0  0  0  0  0
   -7.3274   23.0647  -33.0136 H   0  0  0  0  0  0  0  0  0  0  0  0
   -7.5870   21.8628  -30.4648 H   0  0  0  0  0  0  0  0  0  0  0  0
   -9.0569   22.9341  -30.7329 H   0  0  0  0  0  0  0  0  0  0  0  0
   -9.8171   20.9480  -31.5677 H   0  0  0  0  0  0  0  0  0  0  0  0
   -9.0943   21.7500  -33.0508 H   0  0  0  0  0  0  0  0  0  0  0  0
   -7.1736   20.8985  -34.1552 H   0  0  0  0  0  0  0  0  0  0  0  0
   -5.7053   18.9297  -34.5854 H   0  0  0  0  0  0  0  0  0  0  0  0
   -5.7494   16.9726  -33.0358 H   0  0  0  0  0  0  0  0  0  0  0  0
   -7.3133   16.9580  -31.0898 H   0  0  0  0  0  0  0  0  0  0  0  0
   -8.8013   18.9127  -30.6655 H   0  0  0  0  0  0  0  0  0  0  0  0
   -6.5735   25.1940  -28.6588 H   0  0  0  0  0  0  0  0  0  0  0  0
   -6.4186   26.2933  -30.0709 H   0  0  0  0  0  0  0  0  0  0  0  0
   -7.6669   25.0016  -30.0709 H   0  0  0  0  0  0  0  0  0  0  0  0
   -1.5670   25.7958  -29.4598 H   0  0  0  0  0  0  0  0  0  0  0  0
  1  2  1  0
  2  3  2  0
  3  4  1  0
  4  5  2  0
  5  6  1  0
  6  7  1  0
  7  8  1  0
  8  9  2  0
  9 10  1  0
 10 11  2  0
 11 12  1  0
 12 13  2  0
 13 14  1  0
 14 15  1  0
 15 16  2  0
 15 17  1  0
 17 18  1  0
 18 19  1  0
 19 20  1  0
 20 21  1  0
 21 22  2  0
 22 23  1  0
 23 24  2  0
 24 25  1  0
 25 26  2  0
 17 27  1  0
 27 28  1  0
 27 29  2  0
 29 30  1  0
  6 31  2  0
 31  2  1  0
 30  7  1  0
 13  8  1  0
 30 14  2  0
 26 21  1  0
  1 32  1  0
  1 33  1  0
  1 34  1  0
  3 35  1  0
  4 36  1  0
  5 37  1  0
  9 38  1  0
 10 39  1  0
 11 40  1  0
 12 41  1  0
 18 42  1  0
 18 43  1  0
 19 44  1  0
 19 45  1  0
 20 46  1  0
 20 47  1  0
 22 48  1  0
 23 49  1  0
 24 50  1  0
 25 51  1  0
 26 52  1  0
 28 53  1  0
 28 54  1  0
 28 55  1  0
 31 56  1  0
M  END
>  <UniqueID>  (46) 
44

>  <SMILES>  (46) 
Cc1cccc(-n2c3ccccc3c3c(=O)n(CCCc4ccccc4)c(C)nc32)c1

>  <Energy>  (46) 
109.74164349106496

>  <Genealogy>  (46) 
Cc1cccc(-n2c3ccccc3c3c(=O)n(CCCc4ccccc4)c(C)nc32)c1 (3D coordinates assigned)
Cc1cccc(-n2c3ccccc3c3c(=O)n(CCCc4ccccc4)c(C)nc32)c1 (optimized conformer: 109.74164349106496 kcal/mol)

>  <smiles>  (46) 
Cc1cccc(-n2c3ccccc3c3c(=O)n(CCCc4ccccc4)c(C)nc32)c1

>  <score_type>  (46) 
oracle

>  <origin>  (46) 
adg

>  <m_score__min__energy>  (46) 
-10.279999999999999

>  <m_primary>  (46) 
energy

$$$$
46:0
     RDKit          3D

 63 68  0  0  0  0  0  0  0  0999 V2000
   -0.5330   26.0960  -24.1690 C   0  0  0  0  0  0  0  0  0  0  0  0
   -0.2940   25.8720  -25.5550 O   0  0  0  0  0  0  0  0  0  0  0  0
   -1.2650   25.4300  -26.4660 C   0  0  0  0  0  0  0  0  0  0  0  0
   -0.9900   25.2410  -27.8290 C   0  0  0  0  0  0  0  0  0  0  0  0
   -1.9920   24.8040  -28.7010 C   0  0  0  0  0  0  0  0  0  0  0  0
   -3.3060   24.5490  -28.2410 C   0  0  0  0  0  0  0  0  0  0  0  0
   -4.3610   24.0990  -29.1530 N   0  0  0  0  0  0  0  0  0  0  0  0
   -4.9870   22.7740  -28.9100 C   0  0  0  0  0  0  0  0  0  0  0  0
   -6.1440   22.4210  -29.8480 C   0  0  0  0  0  0  0  0  0  0  0  0
   -5.8850   22.9630  -31.1730 N   0  0  0  0  0  0  0  0  0  0  0  0
   -5.2600   22.1600  -32.1940 C   0  0  0  0  0  0  0  0  0  0  0  0
   -4.2660   22.6180  -32.8210 O   0  0  0  0  0  0  0  0  0  0  0  0
   -5.7690   20.8090  -32.5270 C   0  0  0  0  0  0  0  0  0  0  0  0
   -7.1440   20.5250  -32.4490 C   0  0  0  0  0  0  0  0  0  0  0  0
   -7.6290   19.2510  -32.7610 C   0  0  0  0  0  0  0  0  0  0  0  0
   -6.7470   18.2420  -33.1630 C   0  0  0  0  0  0  0  0  0  0  0  0
   -7.2180   16.9510  -33.4800 C   0  0  0  0  0  0  0  0  0  0  0  0
   -6.2710   16.0080  -33.8650 C   0  0  0  0  0  0  0  0  0  0  0  0
   -6.3570   14.7000  -34.2940 C   0  0  0  0  0  0  0  0  0  0  0  0
   -7.6050   13.9060  -34.5000 C   0  0  0  0  0  0  0  0  0  0  0  0
   -5.1170   14.2690  -34.6340 N   0  0  0  0  0  0  0  0  0  0  0  0
   -4.2520   15.2540  -34.3990 N   0  0  0  0  0  0  0  0  0  0  0  0
   -2.8420   15.1590  -34.6730 C   0  0  0  0  0  0  0  0  0  0  0  0
   -1.9030   15.0230  -33.6320 C   0  0  0  0  0  0  0  0  0  0  0  0
   -0.5380   14.9250  -33.9200 C   0  0  0  0  0  0  0  0  0  0  0  0
   -0.0970   14.9560  -35.2430 C   0  0  0  0  0  0  0  0  0  0  0  0
   -1.0200   15.0750  -36.2850 C   0  0  0  0  0  0  0  0  0  0  0  0
   -2.3860   15.1700  -36.0020 C   0  0  0  0  0  0  0  0  0  0  0  0
   -4.9460   16.3140  -33.9370 C   0  0  0  0  0  0  0  0  0  0  0  0
   -4.4730   17.5560  -33.6600 N   0  0  0  0  0  0  0  0  0  0  0  0
   -5.3510   18.5260  -33.2610 C   0  0  0  0  0  0  0  0  0  0  0  0
   -4.8790   19.8060  -32.9500 C   0  0  0  0  0  0  0  0  0  0  0  0
   -5.8130   24.4140  -31.2190 C   0  0  0  0  0  0  0  0  0  0  0  0
   -4.6380   24.9060  -30.3690 C   0  0  0  0  0  0  0  0  0  0  0  0
   -3.5570   24.7350  -26.8580 C   0  0  0  0  0  0  0  0  0  0  0  0
   -2.5510   25.1700  -25.9930 C   0  0  0  0  0  0  0  0  0  0  0  0
    0.1419   25.4635  -23.5736 H   0  0  0  0  0  0  0  0  0  0  0  0
   -0.3485   27.1541  -23.9314 H   0  0  0  0  0  0  0  0  0  0  0  0
   -1.5769   25.8435  -23.9314 H   0  0  0  0  0  0  0  0  0  0  0  0
    0.0213   25.4381  -28.2143 H   0  0  0  0  0  0  0  0  0  0  0  0
   -1.7545   24.6556  -29.7647 H   0  0  0  0  0  0  0  0  0  0  0  0
   -4.2096   22.0039  -29.0229 H   0  0  0  0  0  0  0  0  0  0  0  0
   -5.4156   22.8185  -27.8979 H   0  0  0  0  0  0  0  0  0  0  0  0
   -6.2411   21.3272  -29.9131 H   0  0  0  0  0  0  0  0  0  0  0  0
   -7.0762   22.8522  -29.4543 H   0  0  0  0  0  0  0  0  0  0  0  0
   -7.8457   21.3135  -32.1392 H   0  0  0  0  0  0  0  0  0  0  0  0
   -8.7066   19.0416  -32.6902 H   0  0  0  0  0  0  0  0  0  0  0  0
   -8.2878   16.7008  -33.4251 H   0  0  0  0  0  0  0  0  0  0  0  0
   -8.0321   13.6343  -33.5234 H   0  0  0  0  0  0  0  0  0  0  0  0
   -8.3332   14.5072  -35.0642 H   0  0  0  0  0  0  0  0  0  0  0  0
   -7.3689   12.9917  -35.0642 H   0  0  0  0  0  0  0  0  0  0  0  0
   -2.2451   14.9937  -32.5870 H   0  0  0  0  0  0  0  0  0  0  0  0
    0.1896   14.8232  -33.1013 H   0  0  0  0  0  0  0  0  0  0  0  0
    0.9779   14.8867  -35.4660 H   0  0  0  0  0  0  0  0  0  0  0  0
   -0.6720   15.0940  -37.3283 H   0  0  0  0  0  0  0  0  0  0  0  0
   -3.1094   15.2540  -36.8264 H   0  0  0  0  0  0  0  0  0  0  0  0
   -3.8053   20.0289  -33.0369 H   0  0  0  0  0  0  0  0  0  0  0  0
   -5.6710   24.7391  -32.2602 H   0  0  0  0  0  0  0  0  0  0  0  0
   -6.7482   24.8353  -30.8216 H   0  0  0  0  0  0  0  0  0  0  0  0
   -3.7351   24.8971  -30.9973 H   0  0  0  0  0  0  0  0  0  0  0  0
   -4.9142   25.9102  -30.0150 H   0  0  0  0  0  0  0  0  0  0  0  0
   -4.5622   24.5330  -26.4594 H   0  0  0  0  0  0  0  0  0  0  0  0
   -2.7755   25.3094  -24.9252 H   0  0  0  0  0  0  0  0  0  0  0  0
  1  2  1  0
  2  3  1  0
  3  4  2  0
  4  5  1  0
  5  6  2  0
  6  7  1  0
  7  8  1  0
  8  9  1  0
  9 10  1  0
 10 11  1  0
 11 12  2  0
 11 13  1  0
 13 14  2  0
 14 15  1  0
 15 16  2  0
 16 17  1  0
 17 18  2  0
 18 19  1  0
 19 20  1  0
 19 21  2  0
 21 22  1  0
 22 23  1  0
 23 24  2  0
 24 25  1  0
 25 26  2  0
 26 27  1  0
 27 28  2  0
 22 29  1  0
 29 30  2  0
 30 31  1  0
 31 32  2  0
 10 33  1  0
 33 34  1  0
  6 35  1  0
 35 36  2  0
 36  3  1  0
 34  7  1  0
 32 13  1  0
 31 16  1  0
 29 18  1  0
 28 23  1  0
  1 37  1  0
  1 38  1  0
  1 39  1  0
  4 40  1  0
  5 41  1  0
  8 42  1  0
  8 43  1  0
  9 44  1  0
  9 45  1  0
 14 46  1  0
 15 47  1  0
 17 48  1  0
 20 49  1  0
 20 50  1  0
 20 51  1  0
 24 52  1  0
 25 53  1  0
 26 54  1  0
 27 55  1  0
 28 56  1  0
 32 57  1  0
 33 58  1  0
 33 59  1  0
 34 60  1  0
 34 61  1  0
 35 62  1  0
 36 63  1  0
M  END
>  <UniqueID>  (47) 
45

>  <SMILES>  (47) 
COc1ccc(N2CCN(C(=O)c3ccc4cc5c(C)nn(-c6ccccc6)c5nc4c3)CC2)cc1

>  <Energy>  (47) 
129.88975121893927

>  <Genealogy>  (47) 
COc1ccc(N2CCN(C(=O)c3ccc4cc5c(C)nn(-c6ccccc6)c5nc4c3)CC2)cc1 (3D coordinates assigned)
COc1ccc(N2CCN(C(=O)c3ccc4cc5c(C)nn(-c6ccccc6)c5nc4c3)CC2)cc1 (nonaromatic ring conformer: 129.88975121893927 kcal/mol)

>  <smiles>  (47) 
COc1ccc(N2CCN(C(=O)c3ccc4cc5c(C)nn(-c6ccccc6)c5nc4c3)CC2)cc1

>  <score_type>  (47) 
oracle

>  <origin>  (47) 
adg

>  <m_score__min__energy>  (47) 
-9.9800000000000004

>  <m_primary>  (47) 
energy

$$$$
