0:0
     RDKit          3D

 36 36  0  0  0  0  0  0  0  0999 V2000
   -9.0580   18.4870  -31.5730 C   0  0  0  0  0  0  0  0  0  0  0  0
   -8.8580   19.8210  -32.3030 C   0  0  0  0  0  0  0  0  0  0  0  0
   -7.6060   19.8440  -33.0970 N   0  0  0  0  0  0  0  0  0  0  0  0
   -6.7790   18.6340  -32.8550 C   0  0  0  0  0  0  0  0  0  0  0  0
   -6.0830   18.1360  -34.1270 C   0  0  0  0  0  0  0  0  0  0  0  0
   -6.8270   21.0420  -32.8170 C   0  0  0  0  0  0  0  0  0  0  0  0
   -5.7020   21.1470  -33.2850 O   0  0  0  0  0  0  0  0  0  0  0  0
   -7.3480   22.1570  -31.9330 C   0  0  0  0  0  0  0  0  0  0  0  0
   -6.2140   22.9660  -31.3630 C   0  0  0  0  0  0  0  0  0  0  0  0
   -5.0890   22.3300  -30.8130 C   0  0  0  0  0  0  0  0  0  0  0  0
   -4.0520   23.0840  -30.2560 C   0  0  0  0  0  0  0  0  0  0  0  0
   -4.1260   24.4900  -30.2390 C   0  0  0  0  0  0  0  0  0  0  0  0
   -3.1110   25.2900  -29.6910 O   0  0  0  0  0  0  0  0  0  0  0  0
   -2.2910   24.9070  -28.5920 C   0  0  0  0  0  0  0  0  0  0  0  0
   -5.2480   25.1200  -30.7870 C   0  0  0  0  0  0  0  0  0  0  0  0
   -6.2850   24.3680  -31.3430 C   0  0  0  0  0  0  0  0  0  0  0  0
   -9.0326   18.6562  -30.4864 H   0  0  0  0  0  0  0  0  0  0  0  0
  -10.0306   18.0572  -31.8545 H   0  0  0  0  0  0  0  0  0  0  0  0
   -8.2542   17.7908  -31.8545 H   0  0  0  0  0  0  0  0  0  0  0  0
   -9.7095   19.9854  -32.9797 H   0  0  0  0  0  0  0  0  0  0  0  0
   -8.7904   20.6141  -31.5437 H   0  0  0  0  0  0  0  0  0  0  0  0
   -7.8690   19.8610  -34.1120 H   0  0  0  0  0  0  0  0  0  0  0  0
   -6.0120   18.8750  -32.1043 H   0  0  0  0  0  0  0  0  0  0  0  0
   -7.4492   17.8349  -32.5054 H   0  0  0  0  0  0  0  0  0  0  0  0
   -5.2168   17.5162  -33.8523 H   0  0  0  0  0  0  0  0  0  0  0  0
   -6.7891   17.5368  -34.7207 H   0  0  0  0  0  0  0  0  0  0  0  0
   -5.7438   18.9977  -34.7207 H   0  0  0  0  0  0  0  0  0  0  0  0
   -7.9963   22.8160  -32.5292 H   0  0  0  0  0  0  0  0  0  0  0  0
   -7.9135   21.7108  -31.1017 H   0  0  0  0  0  0  0  0  0  0  0  0
   -5.0235   21.2320  -30.8206 H   0  0  0  0  0  0  0  0  0  0  0  0
   -3.1743   22.5767  -29.8291 H   0  0  0  0  0  0  0  0  0  0  0  0
   -2.8052   25.1472  -27.6497 H   0  0  0  0  0  0  0  0  0  0  0  0
   -2.0972   23.8252  -28.6386 H   0  0  0  0  0  0  0  0  0  0  0  0
   -1.3371   25.4527  -28.6386 H   0  0  0  0  0  0  0  0  0  0  0  0
   -5.3142   26.2180  -30.7800 H   0  0  0  0  0  0  0  0  0  0  0  0
   -7.1627   24.8771  -31.7678 H   0  0  0  0  0  0  0  0  0  0  0  0
  1  2  1  0
  2  3  1  0
  3  4  1  0
  4  5  1  0
  3  6  1  0
  6  7  2  0
  6  8  1  0
  8  9  1  0
  9 10  2  0
 10 11  1  0
 11 12  2  0
 12 13  1  0
 13 14  1  0
 12 15  1  0
 15 16  2  0
 16  9  1  0
  1 17  1  0
  1 18  1  0
  1 19  1  0
  2 20  1  0
  2 21  1  0
  3 22  1  0
  4 23  1  0
  4 24  1  0
  5 25  1  0
  5 26  1  0
  5 27  1  0
  8 28  1  0
  8 29  1  0
 10 30  1  0
 11 31  1  0
 14 32  1  0
 14 33  1  0
 14 34  1  0
 15 35  1  0
 16 36  1  0
M  CHG  1   3   1
M  END
>  <UniqueID>  (1) 
1

>  <SMILES>  (1) 
CC[NH+](CC)C(=O)Cc1ccc(OC)cc1

>  <Energy>  (1) 
31.10790179886642

>  <Genealogy>  (1) 
CC[NH+](CC)C(=O)Cc1ccc(OC)cc1 (protonated)
CC[NH+](CC)C(=O)Cc1ccc(OC)cc1 (3D coordinates assigned)
CC[NH+](CC)C(=O)Cc1ccc(OC)cc1 (optimized conformer: 31.10790179886642 kcal/mol)

>  <smiles>  (1) 
CCN(CC)C(=O)Cc1ccc(OC)cc1

>  <score_type>  (1) 
oracle

>  <origin>  (1) 
adg

>  <m_score__min__energy>  (1) 
-6.1200000000000001

>  <m_primary>  (1) 
energy

$$$$
1:0
     RDKit          3D

 32 34  0  0  0  0  0  0  0  0999 V2000
   -3.4810   21.5270  -33.0960 C   0  0  0  0  0  0  0  0  0  0  0  0
   -4.3820   21.2900  -32.0200 O   0  0  0  0  0  0  0  0  0  0  0  0
   -5.4650   22.1210  -31.6870 C   0  0  0  0  0  0  0  0  0  0  0  0
   -6.7110   22.0100  -32.3370 C   0  0  0  0  0  0  0  0  0  0  0  0
   -7.7730   22.8440  -31.9810 C   0  0  0  0  0  0  0  0  0  0  0  0
   -7.6060   23.8000  -30.9800 C   0  0  0  0  0  0  0  0  0  0  0  0
   -6.3770   23.9240  -30.3290 C   0  0  0  0  0  0  0  0  0  0  0  0
   -5.3010   23.0840  -30.6660 C   0  0  0  0  0  0  0  0  0  0  0  0
   -3.9920   23.2410  -29.9910 C   0  0  0  0  0  0  0  0  0  0  0  0
   -3.4690   22.1910  -29.3690 O   0  0  0  0  0  0  0  0  0  0  0  0
   -2.2940   22.2190  -28.7500 C   0  0  0  0  0  0  0  0  0  0  0  0
   -1.8520   21.0620  -28.1030 C   0  0  0  0  0  0  0  0  0  0  0  0
   -0.6350   21.0550  -27.4300 C   0  0  0  0  0  0  0  0  0  0  0  0
    0.1680   22.1940  -27.4250 C   0  0  0  0  0  0  0  0  0  0  0  0
   -0.2310   23.3590  -28.0930 C   0  0  0  0  0  0  0  0  0  0  0  0
    0.6840   24.4160  -28.1020 O   0  0  0  0  0  0  0  0  0  0  0  0
   -1.5040   23.3990  -28.7370 C   0  0  0  0  0  0  0  0  0  0  0  0
   -2.0660   24.5500  -29.3400 C   0  0  0  0  0  0  0  0  0  0  0  0
   -1.4920   25.6710  -29.2910 O   0  0  0  0  0  0  0  0  0  0  0  0
   -3.3080   24.4670  -29.9770 C   0  0  0  0  0  0  0  0  0  0  0  0
   -3.8660   25.6040  -30.5550 O   0  0  0  0  0  0  0  0  0  0  0  0
   -2.4906   21.7875  -32.6943 H   0  0  0  0  0  0  0  0  0  0  0  0
   -3.3995   20.6197  -33.7126 H   0  0  0  0  0  0  0  0  0  0  0  0
   -3.8565   22.3569  -33.7126 H   0  0  0  0  0  0  0  0  0  0  0  0
   -6.8477   21.2607  -33.1307 H   0  0  0  0  0  0  0  0  0  0  0  0
   -8.7427   22.7465  -32.4911 H   0  0  0  0  0  0  0  0  0  0  0  0
   -8.4433   24.4573  -30.7028 H   0  0  0  0  0  0  0  0  0  0  0  0
   -6.2495   24.6856  -29.5456 H   0  0  0  0  0  0  0  0  0  0  0  0
   -2.4698   20.1522  -28.1261 H   0  0  0  0  0  0  0  0  0  0  0  0
   -0.3056   20.1488  -26.9006 H   0  0  0  0  0  0  0  0  0  0  0  0
    1.1285   22.1781  -26.8891 H   0  0  0  0  0  0  0  0  0  0  0  0
    0.5500   25.2890  -28.5890 H   0  0  0  0  0  0  0  0  0  0  0  0
  1  2  1  0
  2  3  1  0
  3  4  2  0
  4  5  1  0
  5  6  2  0
  6  7  1  0
  7  8  2  0
  8  9  1  0
  9 10  1  0
 10 11  1  0
 11 12  2  0
 12 13  1  0
 13 14  2  0
 14 15  1  0
 15 16  1  0
 15 17  2  0
 17 18  1  0
 18 19  2  0
 18 20  1  0
 20 21  1  0
  8  3  1  0
 20  9  2  0
 17 11  1  0
  1 22  1  0
  1 23  1  0
  1 24  1  0
  4 25  1  0
  5 26  1  0
  6 27  1  0
  7 28  1  0
 12 29  1  0
 13 30  1  0
 14 31  1  0
 16 32  1  0
M  CHG  1  21  -1
M  END
>  <UniqueID>  (2) 
2

>  <SMILES>  (2) 
COc1ccccc1-c1oc2cccc(O)c2c(=O)c1[O-]

>  <Energy>  (2) 
52.30488793692888

>  <Genealogy>  (2) 
COc1ccccc1-c1oc2cccc(O)c2c(=O)c1[O-] (protonated)
COc1ccccc1-c1oc2cccc(O)c2c(=O)c1[O-] (3D coordinates assigned)
COc1ccccc1-c1oc2cccc(O)c2c(=O)c1[O-] (optimized conformer: 52.30488793692888 kcal/mol)

>  <smiles>  (2) 
COc1ccccc1-c1oc2cccc(O)c2c(=O)c1O

>  <score_type>  (2) 
oracle

>  <origin>  (2) 
adg

>  <m_score__min__energy>  (2) 
-9.7899999999999991

>  <m_primary>  (2) 
energy

$$$$
2:0
     RDKit          3D

 50 52  0  0  0  0  0  0  0  0999 V2000
   -9.1050   18.8980  -31.1830 C   0  0  0  0  0  0  0  0  0  0  0  0
   -7.9510   19.2350  -32.0930 C   0  0  0  0  0  0  0  0  0  0  0  0
   -7.3520   18.1870  -32.8180 C   0  0  0  0  0  0  0  0  0  0  0  0
   -6.3190   18.4400  -33.7350 C   0  0  0  0  0  0  0  0  0  0  0  0
   -5.6600   17.4140  -34.4320 O   0  0  0  0  0  0  0  0  0  0  0  0
   -4.5370   16.6790  -33.9420 C   0  0  0  0  0  0  0  0  0  0  0  0
   -4.9150   15.8670  -32.7340 C   0  0  0  0  0  0  0  0  0  0  0  0
   -5.2300   16.4700  -31.6730 O   0  0  0  0  0  0  0  0  0  0  0  0
   -4.8820   14.4260  -32.7520 N   0  0  0  0  0  0  0  0  0  0  0  0
   -5.2500   13.6610  -33.9530 C   0  0  0  0  0  0  0  0  0  0  0  0
   -4.3580   12.4060  -34.1060 C   0  0  0  0  0  0  0  0  0  0  0  0
   -3.6150   12.0720  -32.9430 O   0  0  0  0  0  0  0  0  0  0  0  0
   -4.4110   12.2140  -31.7860 C   0  0  0  0  0  0  0  0  0  0  0  0
   -4.6230   13.7020  -31.5020 C   0  0  0  0  0  0  0  0  0  0  0  0
   -5.9190   19.7550  -33.9640 C   0  0  0  0  0  0  0  0  0  0  0  0
   -6.4960   20.8040  -33.2530 C   0  0  0  0  0  0  0  0  0  0  0  0
   -7.4890   20.5650  -32.2900 C   0  0  0  0  0  0  0  0  0  0  0  0
   -8.0780   21.9650  -31.3580 S   0  0  0  0  0  0  0  0  0  0  0  0
   -8.6250   22.9790  -32.3270 O   0  0  0  0  0  0  0  0  0  0  0  0
   -9.1990   21.5780  -30.4380 O   0  0  0  0  0  0  0  0  0  0  0  0
   -6.8040   22.6990  -30.4040 N   0  0  0  0  0  0  0  0  0  0  0  0
   -5.4670   22.1570  -30.7330 C   0  0  0  0  0  0  0  0  0  0  0  0
   -4.6280   23.1460  -31.5610 C   0  0  0  0  0  0  0  0  0  0  0  0
   -4.4340   24.4010  -30.9230 O   0  0  0  0  0  0  0  0  0  0  0  0
   -5.5130   24.7910  -30.0820 C   0  0  0  0  0  0  0  0  0  0  0  0
   -6.8640   24.1720  -30.4770 C   0  0  0  0  0  0  0  0  0  0  0  0
   -8.7848   18.9915  -30.1348 H   0  0  0  0  0  0  0  0  0  0  0  0
   -9.9378   19.5905  -31.3752 H   0  0  0  0  0  0  0  0  0  0  0  0
   -9.4343   17.8662  -31.3752 H   0  0  0  0  0  0  0  0  0  0  0  0
   -7.6985   17.1545  -32.6637 H   0  0  0  0  0  0  0  0  0  0  0  0
   -4.1758   16.0037  -34.7316 H   0  0  0  0  0  0  0  0  0  0  0  0
   -3.7483   17.3903  -33.6555 H   0  0  0  0  0  0  0  0  0  0  0  0
   -6.3012   13.3474  -33.8716 H   0  0  0  0  0  0  0  0  0  0  0  0
   -5.1064   14.3026  -34.8349 H   0  0  0  0  0  0  0  0  0  0  0  0
   -5.0044   11.5526  -34.3587 H   0  0  0  0  0  0  0  0  0  0  0  0
   -3.6247   12.6348  -34.8934 H   0  0  0  0  0  0  0  0  0  0  0  0
   -5.3844   11.7277  -31.9470 H   0  0  0  0  0  0  0  0  0  0  0  0
   -3.9067   11.7421  -30.9298 H   0  0  0  0  0  0  0  0  0  0  0  0
   -5.4829   13.8239  -30.8269 H   0  0  0  0  0  0  0  0  0  0  0  0
   -3.7156   14.1101  -31.0329 H   0  0  0  0  0  0  0  0  0  0  0  0
   -5.1411   19.9661  -34.7125 H   0  0  0  0  0  0  0  0  0  0  0  0
   -6.1687   21.8357  -33.4489 H   0  0  0  0  0  0  0  0  0  0  0  0
   -4.9335   21.9369  -29.7966 H   0  0  0  0  0  0  0  0  0  0  0  0
   -5.6095   21.2475  -31.3351 H   0  0  0  0  0  0  0  0  0  0  0  0
   -3.6423   22.6947  -31.7475 H   0  0  0  0  0  0  0  0  0  0  0  0
   -5.1825   23.3394  -32.4912 H   0  0  0  0  0  0  0  0  0  0  0  0
   -5.2786   24.4833  -29.0522 H   0  0  0  0  0  0  0  0  0  0  0  0
   -5.6190   25.8813  -30.1824 H   0  0  0  0  0  0  0  0  0  0  0  0
   -7.6426   24.5362  -29.7906 H   0  0  0  0  0  0  0  0  0  0  0  0
   -7.0989   24.4657  -31.5107 H   0  0  0  0  0  0  0  0  0  0  0  0
  1  2  1  0
  2  3  2  0
  3  4  1  0
  4  5  1  0
  5  6  1  0
  6  7  1  0
  7  8  2  0
  7  9  1  0
  9 10  1  0
 10 11  1  0
 11 12  1  0
 12 13  1  0
 13 14  1  0
  4 15  2  0
 15 16  1  0
 16 17  2  0
 17 18  1  0
 18 19  2  0
 18 20  2  0
 18 21  1  0
 21 22  1  0
 22 23  1  0
 23 24  1  0
 24 25  1  0
 25 26  1  0
 17  2  1  0
 26 21  1  0
 14  9  1  0
  1 27  1  0
  1 28  1  0
  1 29  1  0
  3 30  1  0
  6 31  1  0
  6 32  1  0
 10 33  1  0
 10 34  1  0
 11 35  1  0
 11 36  1  0
 13 37  1  0
 13 38  1  0
 14 39  1  0
 14 40  1  0
 15 41  1  0
 16 42  1  0
 22 43  1  0
 22 44  1  0
 23 45  1  0
 23 46  1  0
 25 47  1  0
 25 48  1  0
 26 49  1  0
 26 50  1  0
M  END
>  <UniqueID>  (3) 
3

>  <SMILES>  (3) 
Cc1cc(OCC(=O)N2CCOCC2)ccc1S(=O)(=O)N1CCOCC1

>  <Energy>  (3) 
71.18173238171521

>  <Genealogy>  (3) 
Cc1cc(OCC(=O)N2CCOCC2)ccc1S(=O)(=O)N1CCOCC1 (3D coordinates assigned)
Cc1cc(OCC(=O)N2CCOCC2)ccc1S(=O)(=O)N1CCOCC1 (nonaromatic ring conformer: 71.18173238171521 kcal/mol)

>  <smiles>  (3) 
Cc1cc(OCC(=O)N2CCOCC2)ccc1S(=O)(=O)N1CCOCC1

>  <score_type>  (3) 
oracle

>  <origin>  (3) 
adg

>  <m_score__min__energy>  (3) 
-8.6899999999999995

>  <m_primary>  (3) 
energy

$$$$
3:0
     RDKit          3D

 28 29  0  0  0  0  0  0  0  0999 V2000
   -4.3150   25.6690  -30.5360 N   0  0  0  0  0  0  0  0  0  0  0  0
   -3.9870   24.5190  -29.7420 C   0  0  0  0  0  0  0  0  0  0  0  0
   -2.6490   24.3160  -29.3680 C   0  0  0  0  0  0  0  0  0  0  0  0
   -2.2810   23.1970  -28.6200 C   0  0  0  0  0  0  0  0  0  0  0  0
   -3.2450   22.2660  -28.2360 C   0  0  0  0  0  0  0  0  0  0  0  0
   -4.5810   22.4530  -28.5950 C   0  0  0  0  0  0  0  0  0  0  0  0
   -4.9720   23.5820  -29.3370 C   0  0  0  0  0  0  0  0  0  0  0  0
   -6.4260   23.7370  -29.7060 C   0  0  0  0  0  0  0  0  0  0  0  0
   -6.6340   23.5350  -31.4640 S   0  0  0  0  0  0  0  0  0  0  0  0
   -5.1980   23.7970  -32.2950 O   0  0  0  0  0  0  0  0  0  0  0  0
   -7.3070   21.9680  -31.8550 C   0  0  0  0  0  0  0  0  0  0  0  0
   -8.4870   21.5780  -31.3030 N   0  0  0  0  0  0  0  0  0  0  0  0
   -9.0260   20.3670  -31.5960 C   0  0  0  0  0  0  0  0  0  0  0  0
   -8.3660   19.5070  -32.4740 C   0  0  0  0  0  0  0  0  0  0  0  0
   -7.1580   19.9240  -33.0310 C   0  0  0  0  0  0  0  0  0  0  0  0
   -6.6510   21.1430  -32.7130 N   0  0  0  0  0  0  0  0  0  0  0  0
   -4.2150   25.6390  -31.5750 H   0  0  0  0  0  0  0  0  0  0  0  0
   -4.6930   26.5480  -30.1200 H   0  0  0  0  0  0  0  0  0  0  0  0
   -1.8831   25.0465  -29.6677 H   0  0  0  0  0  0  0  0  0  0  0  0
   -1.2294   23.0493  -28.3331 H   0  0  0  0  0  0  0  0  0  0  0  0
   -2.9525   21.3827  -27.6493 H   0  0  0  0  0  0  0  0  0  0  0  0
   -5.3350   21.7104  -28.2948 H   0  0  0  0  0  0  0  0  0  0  0  0
   -7.0187   22.9747  -29.1792 H   0  0  0  0  0  0  0  0  0  0  0  0
   -6.7670   24.7416  -29.4153 H   0  0  0  0  0  0  0  0  0  0  0  0
   -5.2340   23.1760  -33.0660 H   0  0  0  0  0  0  0  0  0  0  0  0
   -9.9812   20.0645  -31.1420 H   0  0  0  0  0  0  0  0  0  0  0  0
   -8.7892   18.5222  -32.7212 H   0  0  0  0  0  0  0  0  0  0  0  0
   -6.6163   19.2666  -33.7270 H   0  0  0  0  0  0  0  0  0  0  0  0
  1  2  1  0
  2  3  2  0
  3  4  1  0
  4  5  2  0
  5  6  1  0
  6  7  2  0
  7  8  1  0
  8  9  1  0
  9 10  1  6
  9 11  1  0
 11 12  2  0
 12 13  1  0
 13 14  2  0
 14 15  1  0
 15 16  2  0
  7  2  1  0
 16 11  1  0
  1 17  1  0
  1 18  1  0
  3 19  1  0
  4 20  1  0
  5 21  1  0
  6 22  1  0
  8 23  1  0
  8 24  1  0
 10 25  1  0
 13 26  1  0
 14 27  1  0
 15 28  1  0
M  CHG  1   9   1
M  END
>  <UniqueID>  (4) 
4

>  <SMILES>  (4) 
Nc1ccccc1C[S@@+](O)c1ncccn1

>  <Energy>  (4) 
25.961919332946312

>  <Genealogy>  (4) 
Nc1ccccc1C[S+](O)c1ncccn1 (protonated)
Nc1ccccc1C[S@@+](O)c1ncccn1 (chirality)
Nc1ccccc1C[S@@+](O)c1ncccn1 (3D coordinates assigned)
Nc1ccccc1C[S@@+](O)c1ncccn1 (optimized conformer: 25.961919332946312 kcal/mol)

>  <smiles>  (4) 
Nc1ccccc1C[S+]([O-])c1ncccn1

>  <score_type>  (4) 
oracle

>  <origin>  (4) 
adg

>  <m_score__min__energy>  (4) 
-6.1299999999999999

>  <m_primary>  (4) 
energy

$$$$
4:0
     RDKit          3D

 49 51  0  0  0  0  0  0  0  0999 V2000
   -8.1930   18.1730  -31.9860 C   0  0  0  0  0  0  0  0  0  0  0  0
   -7.1050   17.8810  -32.9860 C   0  0  0  0  0  0  0  0  0  0  0  0
   -6.8390   16.5470  -33.3300 C   0  0  0  0  0  0  0  0  0  0  0  0
   -5.8310   16.2530  -34.2470 C   0  0  0  0  0  0  0  0  0  0  0  0
   -5.1050   17.2530  -34.8100 N   0  0  0  0  0  0  0  0  0  0  0  0
   -5.3340   18.5570  -34.5010 C   0  0  0  0  0  0  0  0  0  0  0  0
   -6.3380   18.9120  -33.5840 C   0  0  0  0  0  0  0  0  0  0  0  0
   -6.5500   20.3810  -33.2890 C   0  0  0  0  0  0  0  0  0  0  0  0
   -6.3260   20.6540  -31.8510 N   0  0  0  0  0  0  0  0  0  0  0  0
   -7.4260   21.4270  -31.2410 C   0  0  0  0  0  0  0  0  0  0  0  0
   -7.3740   22.9080  -31.6350 C   0  0  0  0  0  0  0  0  0  0  0  0
   -6.0760   23.4900  -31.2370 N   0  0  0  0  0  0  0  0  0  0  0  0
   -6.0260   24.9340  -31.5550 C   0  0  0  0  0  0  0  0  0  0  0  0
   -5.2600   25.6980  -30.4680 C   0  0  0  0  0  0  0  0  0  0  0  0
   -3.8940   25.2830  -30.4320 O   0  0  0  0  0  0  0  0  0  0  0  0
   -3.3440   24.3720  -29.5140 C   0  0  0  0  0  0  0  0  0  0  0  0
   -4.2230   23.6050  -28.7390 C   0  0  0  0  0  0  0  0  0  0  0  0
   -3.7300   22.6830  -27.8100 C   0  0  0  0  0  0  0  0  0  0  0  0
   -2.3520   22.5230  -27.6460 C   0  0  0  0  0  0  0  0  0  0  0  0
   -1.4650   23.2870  -28.4100 C   0  0  0  0  0  0  0  0  0  0  0  0
   -1.9540   24.2100  -29.3410 C   0  0  0  0  0  0  0  0  0  0  0  0
   -4.9830   22.7750  -31.9220 C   0  0  0  0  0  0  0  0  0  0  0  0
   -5.0130   21.2770  -31.5730 C   0  0  0  0  0  0  0  0  0  0  0  0
   -7.7929   18.0656  -30.9670 H   0  0  0  0  0  0  0  0  0  0  0  0
   -8.5575   19.2008  -32.1304 H   0  0  0  0  0  0  0  0  0  0  0  0
   -9.0231   17.4659  -32.1304 H   0  0  0  0  0  0  0  0  0  0  0  0
   -7.4252   15.7341  -32.8766 H   0  0  0  0  0  0  0  0  0  0  0  0
   -5.6229   15.2068  -34.5156 H   0  0  0  0  0  0  0  0  0  0  0  0
   -4.3540   17.0150  -35.4950 H   0  0  0  0  0  0  0  0  0  0  0  0
   -4.7267   19.3428  -34.9740 H   0  0  0  0  0  0  0  0  0  0  0  0
   -5.8435   20.9766  -33.8858 H   0  0  0  0  0  0  0  0  0  0  0  0
   -7.5841   20.6523  -33.5478 H   0  0  0  0  0  0  0  0  0  0  0  0
   -8.3850   21.0041  -31.5747 H   0  0  0  0  0  0  0  0  0  0  0  0
   -7.3217   21.3621  -30.1479 H   0  0  0  0  0  0  0  0  0  0  0  0
   -7.4960   22.9999  -32.7243 H   0  0  0  0  0  0  0  0  0  0  0  0
   -8.1844   23.4472  -31.1227 H   0  0  0  0  0  0  0  0  0  0  0  0
   -5.5194   25.0744  -32.5212 H   0  0  0  0  0  0  0  0  0  0  0  0
   -7.0538   25.3226  -31.6053 H   0  0  0  0  0  0  0  0  0  0  0  0
   -5.3052   26.7758  -30.6832 H   0  0  0  0  0  0  0  0  0  0  0  0
   -5.7216   25.4860  -29.4923 H   0  0  0  0  0  0  0  0  0  0  0  0
   -5.3091   23.7286  -28.8619 H   0  0  0  0  0  0  0  0  0  0  0  0
   -4.4282   22.0831  -27.2078 H   0  0  0  0  0  0  0  0  0  0  0  0
   -1.9652   21.7964  -26.9163 H   0  0  0  0  0  0  0  0  0  0  0  0
   -0.3800   23.1623  -28.2790 H   0  0  0  0  0  0  0  0  0  0  0  0
   -1.2527   24.8104  -29.9391 H   0  0  0  0  0  0  0  0  0  0  0  0
   -5.0982   22.8952  -33.0093 H   0  0  0  0  0  0  0  0  0  0  0  0
   -4.0221   23.1966  -31.5920 H   0  0  0  0  0  0  0  0  0  0  0  0
   -4.2452   20.7612  -32.1683 H   0  0  0  0  0  0  0  0  0  0  0  0
   -4.8212   21.1825  -30.4940 H   0  0  0  0  0  0  0  0  0  0  0  0
  1  2  1  0
  2  3  2  0
  3  4  1  0
  4  5  2  0
  5  6  1  0
  6  7  2  0
  7  8  1  0
  8  9  1  0
  9 10  1  0
 10 11  1  0
 11 12  1  0
 12 13  1  0
 13 14  1  0
 14 15  1  0
 15 16  1  0
 16 17  2  0
 17 18  1  0
 18 19  2  0
 19 20  1  0
 20 21  2  0
 12 22  1  0
 22 23  1  0
  7  2  1  0
 23  9  1  0
 21 16  1  0
  1 24  1  0
  1 25  1  0
  1 26  1  0
  3 27  1  0
  4 28  1  0
  5 29  1  0
  6 30  1  0
  8 31  1  0
  8 32  1  0
 10 33  1  0
 10 34  1  0
 11 35  1  0
 11 36  1  0
 13 37  1  0
 13 38  1  0
 14 39  1  0
 14 40  1  0
 17 41  1  0
 18 42  1  0
 19 43  1  0
 20 44  1  0
 21 45  1  0
 22 46  1  0
 22 47  1  0
 23 48  1  0
 23 49  1  0
M  CHG  1   5   1
M  END
>  <UniqueID>  (5) 
5

>  <SMILES>  (5) 
Cc1cc[nH+]cc1CN1CCN(CCOc2ccccc2)CC1

>  <Energy>  (5) 
54.62177810843485

>  <Genealogy>  (5) 
Cc1cc[nH+]cc1CN1CCN(CCOc2ccccc2)CC1 (protonated)
Cc1cc[nH+]cc1CN1CCN(CCOc2ccccc2)CC1 (3D coordinates assigned)
Cc1cc[nH+]cc1CN1CCN(CCOc2ccccc2)CC1 (nonaromatic ring conformer: 54.62177810843485 kcal/mol)

>  <smiles>  (5) 
Cc1ccncc1CN1CCN(CCOc2ccccc2)CC1

>  <score_type>  (5) 
oracle

>  <origin>  (5) 
adg

>  <m_score__min__energy>  (5) 
-7.9000000000000004

>  <m_primary>  (5) 
energy

$$$$
5:0
     RDKit          3D

 31 33  0  0  0  0  0  0  0  0999 V2000
   -2.6320   21.3230  -29.7330 F   0  0  0  0  0  0  0  0  0  0  0  0
   -2.3100   22.3460  -30.6060 C   0  0  0  0  0  0  0  0  0  0  0  0
   -1.9120   21.8020  -31.8130 F   0  0  0  0  0  0  0  0  0  0  0  0
   -1.2720   23.0860  -30.0730 F   0  0  0  0  0  0  0  0  0  0  0  0
   -3.4960   23.2310  -30.8240 C   0  0  0  0  0  0  0  0  0  0  0  0
   -3.5500   24.5480  -30.5100 N   0  0  0  0  0  0  0  0  0  0  0  0
   -4.7650   24.9910  -30.8400 N   0  0  0  0  0  0  0  0  0  0  0  0
   -5.4230   23.9320  -31.3470 C   0  0  0  0  0  0  0  0  0  0  0  0
   -6.7270   23.8840  -31.8170 C   0  0  0  0  0  0  0  0  0  0  0  0
   -7.1900   22.6440  -32.2880 C   0  0  0  0  0  0  0  0  0  0  0  0
   -6.3310   21.5130  -32.2790 C   0  0  0  0  0  0  0  0  0  0  0  0
   -6.7850   20.2250  -32.7340 N   0  0  0  0  0  0  0  0  0  0  0  0
   -8.1910   19.8140  -32.6020 C   0  0  0  0  0  0  0  0  0  0  0  0
   -8.2840   18.4110  -31.9850 C   0  0  0  0  0  0  0  0  0  0  0  0
   -7.1710   17.4520  -32.4640 C   0  0  0  0  0  0  0  0  0  0  0  0
   -6.4460   17.9630  -33.7130 C   0  0  0  0  0  0  0  0  0  0  0  0
   -5.8440   19.3510  -33.4520 C   0  0  0  0  0  0  0  0  0  0  0  0
   -5.0640   21.6470  -31.7830 N   0  0  0  0  0  0  0  0  0  0  0  0
   -4.6650   22.8390  -31.3470 N   0  0  0  0  0  0  0  0  0  0  0  0
   -7.3698   24.7766  -31.8208 H   0  0  0  0  0  0  0  0  0  0  0  0
   -8.2193   22.5490  -32.6643 H   0  0  0  0  0  0  0  0  0  0  0  0
   -8.7185   20.5301  -31.9547 H   0  0  0  0  0  0  0  0  0  0  0  0
   -8.6521   19.7955  -33.6005 H   0  0  0  0  0  0  0  0  0  0  0  0
   -8.2146   18.5063  -30.8913 H   0  0  0  0  0  0  0  0  0  0  0  0
   -9.2434   17.9793  -32.3061 H   0  0  0  0  0  0  0  0  0  0  0  0
   -6.4359   17.3339  -31.6542 H   0  0  0  0  0  0  0  0  0  0  0  0
   -7.6470   16.4952  -32.7248 H   0  0  0  0  0  0  0  0  0  0  0  0
   -5.6402   17.2621  -33.9766 H   0  0  0  0  0  0  0  0  0  0  0  0
   -7.1680   18.0369  -34.5396 H   0  0  0  0  0  0  0  0  0  0  0  0
   -4.9319   19.2363  -32.8479 H   0  0  0  0  0  0  0  0  0  0  0  0
   -5.6172   19.8150  -34.4232 H   0  0  0  0  0  0  0  0  0  0  0  0
  1  2  1  0
  2  3  1  0
  2  4  1  0
  2  5  1  0
  5  6  2  0
  6  7  1  0
  7  8  2  0
  8  9  1  0
  9 10  2  0
 10 11  1  0
 11 12  1  0
 12 13  1  0
 13 14  1  0
 14 15  1  0
 15 16  1  0
 16 17  1  0
 11 18  2  0
 18 19  1  0
 19  5  1  0
 19  8  1  0
 17 12  1  0
  9 20  1  0
 10 21  1  0
 13 22  1  0
 13 23  1  0
 14 24  1  0
 14 25  1  0
 15 26  1  0
 15 27  1  0
 16 28  1  0
 16 29  1  0
 17 30  1  0
 17 31  1  0
M  END
>  <UniqueID>  (6) 
6

>  <SMILES>  (6) 
FC(F)(F)c1nnc2ccc(N3CCCCC3)nn12

>  <Energy>  (6) 
78.49390710466758

>  <Genealogy>  (6) 
FC(F)(F)c1nnc2ccc(N3CCCCC3)nn12 (3D coordinates assigned)
FC(F)(F)c1nnc2ccc(N3CCCCC3)nn12 (nonaromatic ring conformer: 78.49390710466758 kcal/mol)

>  <smiles>  (6) 
FC(F)(F)c1nnc2ccc(N3CCCCC3)nn12

>  <score_type>  (6) 
oracle

>  <origin>  (6) 
adg

>  <m_score__min__energy>  (6) 
-7.1799999999999997

>  <m_primary>  (6) 
energy

$$$$
6:0
     RDKit          3D

 53 54  0  0  0  0  0  0  0  0999 V2000
   -2.1420   21.3610  -31.8970 C   0  0  0  0  0  0  0  0  0  0  0  0
   -2.0520   20.5490  -30.6090 C   0  0  0  0  0  0  0  0  0  0  0  0
   -1.8210   21.4440  -29.4520 N   0  0  0  0  0  0  0  0  0  0  0  0
   -2.8130   21.2020  -28.3780 C   0  0  0  0  0  0  0  0  0  0  0  0
   -2.3540   20.0490  -27.4910 C   0  0  0  0  0  0  0  0  0  0  0  0
   -1.8160   22.8650  -29.8680 C   0  0  0  0  0  0  0  0  0  0  0  0
   -2.3350   23.7490  -28.7280 C   0  0  0  0  0  0  0  0  0  0  0  0
   -3.1140   24.8260  -29.2470 O   0  0  0  0  0  0  0  0  0  0  0  0
   -4.1800   24.6460  -30.1360 C   0  0  0  0  0  0  0  0  0  0  0  0
   -4.2390   25.3160  -31.2040 O   0  0  0  0  0  0  0  0  0  0  0  0
   -5.2780   23.6770  -29.7670 C   0  0  1  0  0  0  0  0  0  0  0  0
   -6.6770   24.3240  -29.9520 C   0  0  0  0  0  0  0  0  0  0  0  0
   -7.4610   23.7410  -31.1390 C   0  0  0  0  0  0  0  0  0  0  0  0
   -6.5280   23.4620  -32.3220 C   0  0  0  0  0  0  0  0  0  0  0  0
   -5.4370   22.5170  -31.9800 N   0  0  0  0  0  0  0  0  0  0  0  0
   -5.4460   21.2490  -32.7450 C   0  0  0  0  0  0  0  0  0  0  0  0
   -6.5600   20.2970  -32.3500 C   0  0  0  0  0  0  0  0  0  0  0  0
   -7.8950   20.7460  -32.3360 C   0  0  0  0  0  0  0  0  0  0  0  0
   -8.9300   19.8790  -31.9770 C   0  0  0  0  0  0  0  0  0  0  0  0
   -8.6460   18.5650  -31.6040 C   0  0  0  0  0  0  0  0  0  0  0  0
   -7.3240   18.1190  -31.5750 C   0  0  0  0  0  0  0  0  0  0  0  0
   -6.2820   18.9790  -31.9360 C   0  0  0  0  0  0  0  0  0  0  0  0
   -5.0060   18.5310  -31.8430 F   0  0  0  0  0  0  0  0  0  0  0  0
   -5.1690   22.3430  -30.5320 C   0  0  0  0  0  0  0  0  0  0  0  0
   -2.2601   22.4266  -31.6511 H   0  0  0  0  0  0  0  0  0  0  0  0
   -1.2227   21.2199  -32.4844 H   0  0  0  0  0  0  0  0  0  0  0  0
   -3.0081   21.0220  -32.4844 H   0  0  0  0  0  0  0  0  0  0  0  0
   -2.9930   19.9992  -30.4602 H   0  0  0  0  0  0  0  0  0  0  0  0
   -1.2118   19.8435  -30.6889 H   0  0  0  0  0  0  0  0  0  0  0  0
   -2.9177   22.1112  -27.7678 H   0  0  0  0  0  0  0  0  0  0  0  0
   -3.7805   20.9433  -28.8330 H   0  0  0  0  0  0  0  0  0  0  0  0
   -2.4667   20.3321  -26.4341 H   0  0  0  0  0  0  0  0  0  0  0  0
   -2.9666   19.1595  -27.6997 H   0  0  0  0  0  0  0  0  0  0  0  0
   -1.2977   19.8239  -27.6997 H   0  0  0  0  0  0  0  0  0  0  0  0
   -0.7892   23.1659  -30.1232 H   0  0  0  0  0  0  0  0  0  0  0  0
   -2.4700   22.9862  -30.7441 H   0  0  0  0  0  0  0  0  0  0  0  0
   -2.9586   23.1426  -28.0546 H   0  0  0  0  0  0  0  0  0  0  0  0
   -1.4763   24.1628  -28.1789 H   0  0  0  0  0  0  0  0  0  0  0  0
   -5.1498   23.4376  -28.7011 H   0  0  0  0  0  0  0  0  0  0  0  0
   -7.2611   24.1626  -29.0340 H   0  0  0  0  0  0  0  0  0  0  0  0
   -6.5185   25.3929  -30.1579 H   0  0  0  0  0  0  0  0  0  0  0  0
   -7.9403   22.8010  -30.8280 H   0  0  0  0  0  0  0  0  0  0  0  0
   -8.2206   24.4719  -31.4534 H   0  0  0  0  0  0  0  0  0  0  0  0
   -7.1203   23.0332  -33.1438 H   0  0  0  0  0  0  0  0  0  0  0  0
   -6.0629   24.4161  -32.6106 H   0  0  0  0  0  0  0  0  0  0  0  0
   -5.5592   21.4899  -33.8123 H   0  0  0  0  0  0  0  0  0  0  0  0
   -4.4975   20.7376  -32.5242 H   0  0  0  0  0  0  0  0  0  0  0  0
   -8.1242   21.7865  -32.6096 H   0  0  0  0  0  0  0  0  0  0  0  0
   -9.9713   20.2332  -31.9885 H   0  0  0  0  0  0  0  0  0  0  0  0
   -9.4637   17.8809  -31.3329 H   0  0  0  0  0  0  0  0  0  0  0  0
   -7.1007   17.0869  -31.2670 H   0  0  0  0  0  0  0  0  0  0  0  0
   -5.9000   21.6335  -30.1170 H   0  0  0  0  0  0  0  0  0  0  0  0
   -4.1426   21.9647  -30.4165 H   0  0  0  0  0  0  0  0  0  0  0  0
  1  2  1  0
  2  3  1  0
  3  4  1  0
  4  5  1  0
  3  6  1  0
  6  7  1  0
  7  8  1  0
  8  9  1  0
  9 10  2  0
  9 11  1  0
 11 12  1  0
 12 13  1  0
 13 14  1  0
 14 15  1  0
 15 16  1  0
 16 17  1  0
 17 18  2  0
 18 19  1  0
 19 20  2  0
 20 21  1  0
 21 22  2  0
 22 23  1  0
 15 24  1  0
 24 11  1  0
 22 17  1  0
  1 25  1  0
  1 26  1  0
  1 27  1  0
  2 28  1  0
  2 29  1  0
  4 30  1  0
  4 31  1  0
  5 32  1  0
  5 33  1  0
  5 34  1  0
  6 35  1  0
  6 36  1  0
  7 37  1  0
  7 38  1  0
 11 39  1  1
 12 40  1  0
 12 41  1  0
 13 42  1  0
 13 43  1  0
 14 44  1  0
 14 45  1  0
 16 46  1  0
 16 47  1  0
 18 48  1  0
 19 49  1  0
 20 50  1  0
 21 51  1  0
 24 52  1  0
 24 53  1  0
M  END
>  <UniqueID>  (7) 
7

>  <SMILES>  (7) 
CCN(CC)CCOC(=O)[C@H]1CCCN(Cc2ccccc2F)C1

>  <Energy>  (7) 
60.2214475039467

>  <Genealogy>  (7) 
CCN(CC)CCOC(=O)[C@H]1CCCN(Cc2ccccc2F)C1 (chirality)
CCN(CC)CCOC(=O)[C@H]1CCCN(Cc2ccccc2F)C1 (3D coordinates assigned)
CCN(CC)CCOC(=O)[C@H]1CCCN(Cc2ccccc2F)C1 (nonaromatic ring conformer: 60.2214475039467 kcal/mol)

>  <smiles>  (7) 
CCN(CC)CCOC(=O)C1CCCN(Cc2ccccc2F)C1

>  <score_type>  (7) 
oracle

>  <origin>  (7) 
adg

>  <m_score__min__energy>  (7) 
-8.2699999999999996

>  <m_primary>  (7) 
energy

$$$$
7:0
     RDKit          3D

 66 70  0  0  0  0  0  0  0  0999 V2000
    2.0770   26.6270  -23.9040 C   0  0  0  0  0  0  0  0  0  0  0  0
    1.1200   27.7170  -23.5780 N   0  0  0  0  0  0  0  0  0  0  0  0
    1.7910   28.6350  -22.6250 C   0  0  0  0  0  0  0  0  0  0  0  0
   -0.0920   27.1600  -22.9090 C   0  0  0  0  0  0  0  0  0  0  0  0
   -0.8610   26.1760  -23.8120 C   0  0  0  0  0  0  0  0  0  0  0  0
   -0.8130   26.6090  -25.2110 N   0  0  0  0  0  0  0  0  0  0  0  0
   -1.0400   25.6630  -26.2750 C   0  0  0  0  0  0  0  0  0  0  0  0
   -1.0150   26.0810  -27.6160 C   0  0  0  0  0  0  0  0  0  0  0  0
   -1.2460   25.1660  -28.6470 C   0  0  0  0  0  0  0  0  0  0  0  0
   -1.4980   23.8190  -28.3520 C   0  0  0  0  0  0  0  0  0  0  0  0
   -1.7510   22.8510  -29.4360 C   0  0  0  0  0  0  0  0  0  0  0  0
   -0.7540   21.9110  -29.7270 C   0  0  0  0  0  0  0  0  0  0  0  0
   -0.9390   20.9620  -30.7320 C   0  0  0  0  0  0  0  0  0  0  0  0
   -2.1280   20.9360  -31.4750 C   0  0  0  0  0  0  0  0  0  0  0  0
   -2.3320   19.9280  -32.5440 C   0  0  0  0  0  0  0  0  0  0  0  0
   -3.3120   18.9910  -32.5420 N   0  0  0  0  0  0  0  0  0  0  0  0
   -3.2750   18.1760  -33.6370 C   0  0  0  0  0  0  0  0  0  0  0  0
   -4.2490   17.0760  -33.8430 C   0  0  0  0  0  0  0  0  0  0  0  0
   -5.6240   17.3490  -33.9730 C   0  0  0  0  0  0  0  0  0  0  0  0
   -6.5380   16.3090  -34.1700 C   0  0  0  0  0  0  0  0  0  0  0  0
   -6.0920   14.9850  -34.2390 C   0  0  0  0  0  0  0  0  0  0  0  0
   -7.2410   13.6840  -34.4870 Cl  0  0  0  0  0  0  0  0  0  0  0  0
   -4.7300   14.7030  -34.1080 C   0  0  0  0  0  0  0  0  0  0  0  0
   -3.8130   15.7390  -33.9100 C   0  0  0  0  0  0  0  0  0  0  0  0
   -2.2450   18.4650  -34.5330 C   0  0  0  0  0  0  0  0  0  0  0  0
   -1.3780   19.7680  -33.9220 S   0  0  0  0  0  0  0  0  0  0  0  0
   -3.1300   21.8800  -31.1880 C   0  0  0  0  0  0  0  0  0  0  0  0
   -2.9530   22.8460  -30.1830 C   0  0  0  0  0  0  0  0  0  0  0  0
   -4.2340   24.0500  -29.9230 S   0  0  0  0  0  0  0  0  0  0  0  0
   -5.8150   23.4310  -30.4610 C   0  0  0  0  0  0  0  0  0  0  0  0
   -3.9020   25.3150  -30.6610 O   0  0  0  0  0  0  0  0  0  0  0  0
   -4.3440   24.3660  -28.4570 O   0  0  0  0  0  0  0  0  0  0  0  0
   -1.5590   23.4050  -27.0130 C   0  0  0  0  0  0  0  0  0  0  0  0
   -1.3270   24.3190  -25.9840 C   0  0  0  0  0  0  0  0  0  0  0  0
   -0.5480   28.0220  -25.4950 C   0  0  0  0  0  0  0  0  0  0  0  0
    0.7630   28.4800  -24.8220 C   0  0  0  0  0  0  0  0  0  0  0  0
    2.4631   26.1873  -22.9726 H   0  0  0  0  0  0  0  0  0  0  0  0
    1.5631   25.8510  -24.4903 H   0  0  0  0  0  0  0  0  0  0  0  0
    2.9129   27.0362  -24.4903 H   0  0  0  0  0  0  0  0  0  0  0  0
    1.5637   28.3241  -21.5946 H   0  0  0  0  0  0  0  0  0  0  0  0
    2.8785   28.6008  -22.7869 H   0  0  0  0  0  0  0  0  0  0  0  0
    1.4283   29.6608  -22.7869 H   0  0  0  0  0  0  0  0  0  0  0  0
    0.2197   26.6318  -21.9959 H   0  0  0  0  0  0  0  0  0  0  0  0
   -0.7642   27.9998  -22.6790 H   0  0  0  0  0  0  0  0  0  0  0  0
   -0.4063   25.1779  -23.7274 H   0  0  0  0  0  0  0  0  0  0  0  0
   -1.9116   26.1463  -23.4875 H   0  0  0  0  0  0  0  0  0  0  0  0
   -0.8123   27.1352  -27.8561 H   0  0  0  0  0  0  0  0  0  0  0  0
   -1.2300   25.5041  -29.6936 H   0  0  0  0  0  0  0  0  0  0  0  0
    0.1861   21.9215  -29.1559 H   0  0  0  0  0  0  0  0  0  0  0  0
   -0.1467   20.2288  -30.9434 H   0  0  0  0  0  0  0  0  0  0  0  0
   -3.9910   18.8680  -31.7590 H   0  0  0  0  0  0  0  0  0  0  0  0
   -5.9820   18.3877  -33.9192 H   0  0  0  0  0  0  0  0  0  0  0  0
   -7.6103   16.5327  -34.2709 H   0  0  0  0  0  0  0  0  0  0  0  0
   -4.3781   13.6621  -34.1609 H   0  0  0  0  0  0  0  0  0  0  0  0
   -2.7426   15.5080  -33.8057 H   0  0  0  0  0  0  0  0  0  0  0  0
   -2.0373   17.9335  -35.4734 H   0  0  0  0  0  0  0  0  0  0  0  0
   -4.0691   21.8619  -31.7605 H   0  0  0  0  0  0  0  0  0  0  0  0
   -6.4322   23.1894  -29.5831 H   0  0  0  0  0  0  0  0  0  0  0  0
   -6.3221   24.1970  -31.0661 H   0  0  0  0  0  0  0  0  0  0  0  0
   -5.6672   22.5243  -31.0661 H   0  0  0  0  0  0  0  0  0  0  0  0
   -1.7904   22.3567  -26.7733 H   0  0  0  0  0  0  0  0  0  0  0  0
   -1.3692   23.9843  -24.9370 H   0  0  0  0  0  0  0  0  0  0  0  0
   -0.4627   28.1613  -26.5828 H   0  0  0  0  0  0  0  0  0  0  0  0
   -1.3780   28.6234  -25.0957 H   0  0  0  0  0  0  0  0  0  0  0  0
    1.5820   28.3600  -25.5464 H   0  0  0  0  0  0  0  0  0  0  0  0
    0.6112   29.5258  -24.5168 H   0  0  0  0  0  0  0  0  0  0  0  0
  1  2  1  0
  2  3  1  0
  2  4  1  0
  4  5  1  0
  5  6  1  0
  6  7  1  0
  7  8  2  0
  8  9  1  0
  9 10  2  0
 10 11  1  0
 11 12  2  0
 12 13  1  0
 13 14  2  0
 14 15  1  0
 15 16  2  0
 16 17  1  0
 17 18  1  0
 18 19  2  0
 19 20  1  0
 20 21  2  0
 21 22  1  0
 21 23  1  0
 23 24  2  0
 17 25  2  0
 25 26  1  0
 14 27  1  0
 27 28  2  0
 28 29  1  0
 29 30  1  0
 29 31  2  0
 29 32  2  0
 10 33  1  0
 33 34  2  0
  6 35  1  0
 35 36  1  0
 36  2  1  0
 34  7  1  0
 28 11  1  0
 26 15  1  0
 24 18  1  0
  1 37  1  0
  1 38  1  0
  1 39  1  0
  3 40  1  0
  3 41  1  0
  3 42  1  0
  4 43  1  0
  4 44  1  0
  5 45  1  0
  5 46  1  0
  8 47  1  0
  9 48  1  0
 12 49  1  0
 13 50  1  0
 16 51  1  0
 19 52  1  0
 20 53  1  0
 23 54  1  0
 24 55  1  0
 25 56  1  0
 27 57  1  0
 30 58  1  0
 30 59  1  0
 30 60  1  0
 33 61  1  0
 34 62  1  0
 35 63  1  0
 35 64  1  0
 36 65  1  0
 36 66  1  0
M  CHG  2   2   1  16   1
M  END
>  <UniqueID>  (8) 
8

>  <SMILES>  (8) 
C[N+]1(C)CCN(c2ccc(-c3ccc(-c4[nH+]c(-c5ccc(Cl)cc5)cs4)cc3S(C)(=O)=O)cc2)CC1

>  <Energy>  (8) 
127.80829673207238

>  <Genealogy>  (8) 
C[N+]1(C)CCN(c2ccc(-c3ccc(-c4[nH+]c(-c5ccc(Cl)cc5)cs4)cc3S(C)(=O)=O)cc2)CC1 (protonated)
C[N+]1(C)CCN(c2ccc(-c3ccc(-c4[nH+]c(-c5ccc(Cl)cc5)cs4)cc3S(C)(=O)=O)cc2)CC1 (3D coordinates assigned)
C[N+]1(C)CCN(c2ccc(-c3ccc(-c4[nH+]c(-c5ccc(Cl)cc5)cs4)cc3S(C)(=O)=O)cc2)CC1 (nonaromatic ring conformer: 127.80829673207238 kcal/mol)

>  <smiles>  (8) 
C[N+]1(C)CCN(c2ccc(-c3ccc(-c4nc(-c5ccc(Cl)cc5)cs4)cc3S(C)(=O)=O)cc2)CC1

>  <score_type>  (8) 
oracle

>  <origin>  (8) 
adg

>  <m_score__min__energy>  (8) 
-10.119999999999999

>  <m_primary>  (8) 
energy

$$$$
8:0
     RDKit          3D

 59 61  0  0  0  0  0  0  0  0999 V2000
   -9.3910   22.2300  -31.9380 C   0  0  0  0  0  0  0  0  0  0  0  0
   -8.9030   21.2560  -30.8690 C   0  0  0  0  0  0  0  0  0  0  0  0
   -8.0160   20.2070  -31.4310 N   0  0  0  0  0  0  0  0  0  0  0  0
   -8.6340   18.8740  -31.2280 C   0  0  0  0  0  0  0  0  0  0  0  0
   -7.9500   17.8120  -32.0870 C   0  0  0  0  0  0  0  0  0  0  0  0
   -7.7080   20.4480  -32.8660 C   0  0  0  0  0  0  0  0  0  0  0  0
   -6.4320   21.2920  -33.0240 C   0  0  0  0  0  0  0  0  0  0  0  0
   -5.5080   21.0990  -31.8970 N   0  0  0  0  0  0  0  0  0  0  0  0
   -4.1900   20.7720  -32.3900 C   0  0  0  0  0  0  0  0  0  0  0  0
   -3.0800   21.6090  -32.1160 C   0  0  0  0  0  0  0  0  0  0  0  0
   -3.2970   22.7900  -31.3860 O   0  0  0  0  0  0  0  0  0  0  0  0
   -2.7330   23.1020  -30.1120 C   0  0  0  0  0  0  0  0  0  0  0  0
   -3.4900   24.2550  -29.4420 C   0  0  0  0  0  0  0  0  0  0  0  0
   -3.8630   25.2830  -30.4240 N   0  0  0  0  0  0  0  0  0  0  0  0
   -5.3110   25.5380  -30.4160 C   0  0  0  0  0  0  0  0  0  0  0  0
   -6.0570   24.3750  -31.0650 C   0  0  0  0  0  0  0  0  0  0  0  0
   -5.3630   23.9380  -32.2000 O   0  0  0  0  0  0  0  0  0  0  0  0
   -1.7920   21.2420  -32.5850 C   0  0  0  0  0  0  0  0  0  0  0  0
   -1.5950   20.0490  -33.2950 C   0  0  0  0  0  0  0  0  0  0  0  0
   -2.6890   19.2200  -33.5370 C   0  0  0  0  0  0  0  0  0  0  0  0
   -3.9590   19.5770  -33.0900 C   0  0  0  0  0  0  0  0  0  0  0  0
   -5.0730   18.3700  -33.5150 S   0  0  0  0  0  0  0  0  0  0  0  0
   -3.9280   17.3970  -34.2750 C   0  0  0  0  0  0  0  0  0  0  0  0
   -4.1020   16.1690  -34.9010 C   0  0  0  0  0  0  0  0  0  0  0  0
   -2.9730   15.5530  -35.4630 C   0  0  0  0  0  0  0  0  0  0  0  0
   -1.7160   16.1830  -35.3740 C   0  0  0  0  0  0  0  0  0  0  0  0
   -1.5870   17.3910  -34.7480 N   0  0  0  0  0  0  0  0  0  0  0  0
   -2.6780   17.9930  -34.2050 C   0  0  0  0  0  0  0  0  0  0  0  0
   -9.8336   23.1134  -31.4546 H   0  0  0  0  0  0  0  0  0  0  0  0
   -8.5426   22.5416  -32.5649 H   0  0  0  0  0  0  0  0  0  0  0  0
  -10.1485   21.7370  -32.5649 H   0  0  0  0  0  0  0  0  0  0  0  0
   -8.3468   21.8183  -30.1045 H   0  0  0  0  0  0  0  0  0  0  0  0
   -9.7839   20.7584  -30.4373 H   0  0  0  0  0  0  0  0  0  0  0  0
   -8.5413   18.5930  -30.1685 H   0  0  0  0  0  0  0  0  0  0  0  0
   -9.6923   18.9319  -31.5225 H   0  0  0  0  0  0  0  0  0  0  0  0
   -7.4700   17.0668  -31.4356 H   0  0  0  0  0  0  0  0  0  0  0  0
   -8.6988   17.3159  -32.7220 H   0  0  0  0  0  0  0  0  0  0  0  0
   -7.1886   18.2886  -32.7220 H   0  0  0  0  0  0  0  0  0  0  0  0
   -7.5638   19.4809  -33.3699 H   0  0  0  0  0  0  0  0  0  0  0  0
   -8.5481   20.9970  -33.3164 H   0  0  0  0  0  0  0  0  0  0  0  0
   -5.9244   20.9995  -33.9550 H   0  0  0  0  0  0  0  0  0  0  0  0
   -6.7238   22.3523  -33.0498 H   0  0  0  0  0  0  0  0  0  0  0  0
   -5.4590   21.9700  -31.3190 H   0  0  0  0  0  0  0  0  0  0  0  0
   -5.8580   20.3330  -31.2780 H   0  0  0  0  0  0  0  0  0  0  0  0
   -2.7883   22.2127  -29.4669 H   0  0  0  0  0  0  0  0  0  0  0  0
   -1.6867   23.4085  -30.2581 H   0  0  0  0  0  0  0  0  0  0  0  0
   -4.4022   23.8603  -28.9707 H   0  0  0  0  0  0  0  0  0  0  0  0
   -2.8332   24.7134  -28.6880 H   0  0  0  0  0  0  0  0  0  0  0  0
   -3.6120   24.9180  -31.3740 H   0  0  0  0  0  0  0  0  0  0  0  0
   -5.6533   25.6542  -29.3771 H   0  0  0  0  0  0  0  0  0  0  0  0
   -5.5158   26.4568  -30.9851 H   0  0  0  0  0  0  0  0  0  0  0  0
   -6.1381   23.5468  -30.3456 H   0  0  0  0  0  0  0  0  0  0  0  0
   -7.0621   24.7096  -31.3614 H   0  0  0  0  0  0  0  0  0  0  0  0
   -4.4090   23.8770  -31.9350 H   0  0  0  0  0  0  0  0  0  0  0  0
   -0.9352   21.9033  -32.3886 H   0  0  0  0  0  0  0  0  0  0  0  0
   -0.5933   19.7719  -33.6552 H   0  0  0  0  0  0  0  0  0  0  0  0
   -5.0930   15.6946  -34.9545 H   0  0  0  0  0  0  0  0  0  0  0  0
   -3.0692   14.5821  -35.9710 H   0  0  0  0  0  0  0  0  0  0  0  0
   -0.8309   15.6985  -35.8121 H   0  0  0  0  0  0  0  0  0  0  0  0
  1  2  1  0
  2  3  1  0
  3  4  1  0
  4  5  1  0
  3  6  1  0
  6  7  1  0
  7  8  1  0
  8  9  1  0
  9 10  2  0
 10 11  1  0
 11 12  1  0
 12 13  1  0
 13 14  1  0
 14 15  1  0
 15 16  1  0
 16 17  1  0
 10 18  1  0
 18 19  2  0
 19 20  1  0
 20 21  2  0
 21 22  1  0
 22 23  1  0
 23 24  2  0
 24 25  1  0
 25 26  2  0
 26 27  1  0
 27 28  2  0
 21  9  1  0
 28 23  1  0
 28 20  1  0
  1 29  1  0
  1 30  1  0
  1 31  1  0
  2 32  1  0
  2 33  1  0
  4 34  1  0
  4 35  1  0
  5 36  1  0
  5 37  1  0
  5 38  1  0
  6 39  1  0
  6 40  1  0
  7 41  1  0
  7 42  1  0
  8 43  1  0
  8 44  1  0
 12 45  1  0
 12 46  1  0
 13 47  1  0
 13 48  1  0
 14 49  1  0
 15 50  1  0
 15 51  1  0
 16 52  1  0
 16 53  1  0
 17 54  1  0
 18 55  1  0
 19 56  1  0
 24 57  1  0
 25 58  1  0
 26 59  1  0
M  CHG  1   8   1
M  END
>  <UniqueID>  (9) 
9

>  <SMILES>  (9) 
CCN(CC)CC[NH2+]c1c(OCCNCCO)ccc2c1sc1cccnc12

>  <Energy>  (9) 
90.13593051605247

>  <Genealogy>  (9) 
CCN(CC)CC[NH2+]c1c(OCCNCCO)ccc2c1sc1cccnc12 (protonated)
CCN(CC)CC[NH2+]c1c(OCCNCCO)ccc2c1sc1cccnc12 (3D coordinates assigned)
CCN(CC)CC[NH2+]c1c(OCCNCCO)ccc2c1sc1cccnc12 (optimized conformer: 90.13593051605247 kcal/mol)

>  <smiles>  (9) 
CCN(CC)CCNc1c(OCCNCCO)ccc2c1sc1cccnc12

>  <score_type>  (9) 
oracle

>  <origin>  (9) 
adg

>  <m_score__min__energy>  (9) 
-6.0700000000000003

>  <m_primary>  (9) 
energy

$$$$
9:0
     RDKit          3D

 31 32  0  0  0  0  0  0  0  0999 V2000
   -3.0710   24.8760  -29.3040 C   0  0  0  0  0  0  0  0  0  0  0  0
   -3.8380   25.2830  -30.4710 N   0  0  0  0  0  0  0  0  0  0  0  0
   -5.2390   25.0260  -30.6020 C   0  0  0  0  0  0  0  0  0  0  0  0
   -6.0770   25.8660  -30.1740 O   0  0  0  0  0  0  0  0  0  0  0  0
   -5.6930   23.7490  -31.1880 C   0  0  0  0  0  0  0  0  0  0  0  0
   -7.0620   23.4510  -31.1120 C   0  0  0  0  0  0  0  0  0  0  0  0
   -7.5620   22.2590  -31.6330 C   0  0  0  0  0  0  0  0  0  0  0  0
   -9.4330   21.8830  -31.5300 Br  0  0  0  0  0  0  0  0  0  0  0  0
   -6.6980   21.3380  -32.2180 C   0  0  0  0  0  0  0  0  0  0  0  0
   -5.3260   21.5960  -32.2880 C   0  0  0  0  0  0  0  0  0  0  0  0
   -4.2170   20.2230  -33.0470 Br  0  0  0  0  0  0  0  0  0  0  0  0
   -4.7990   22.8140  -31.7870 C   0  0  0  0  0  0  0  0  0  0  0  0
   -3.3670   23.0370  -31.7780 N   0  0  0  0  0  0  0  0  0  0  0  0
   -2.7300   22.1890  -30.7590 C   0  0  0  0  0  0  0  0  0  0  0  0
   -1.5380   21.4860  -31.3320 C   0  0  0  0  0  0  0  0  0  0  0  0
   -0.6680   20.6750  -30.6330 C   0  0  0  0  0  0  0  0  0  0  0  0
    0.2790   20.2720  -31.5490 C   0  0  0  0  0  0  0  0  0  0  0  0
   -0.0690   20.8680  -32.7460 C   0  0  0  0  0  0  0  0  0  0  0  0
   -1.1560   21.5870  -32.5840 O   0  0  0  0  0  0  0  0  0  0  0  0
   -3.6126   25.1634  -28.3908 H   0  0  0  0  0  0  0  0  0  0  0  0
   -2.9312   23.7850  -29.3194 H   0  0  0  0  0  0  0  0  0  0  0  0
   -2.0892   25.3718  -29.3194 H   0  0  0  0  0  0  0  0  0  0  0  0
   -7.7485   24.1664  -30.6357 H   0  0  0  0  0  0  0  0  0  0  0  0
   -7.0981   20.3993  -32.6287 H   0  0  0  0  0  0  0  0  0  0  0  0
   -3.1460   24.0390  -31.5940 H   0  0  0  0  0  0  0  0  0  0  0  0
   -2.9540   22.8280  -32.7150 H   0  0  0  0  0  0  0  0  0  0  0  0
   -2.4088   22.8168  -29.9148 H   0  0  0  0  0  0  0  0  0  0  0  0
   -3.4564   21.4369  -30.4174 H   0  0  0  0  0  0  0  0  0  0  0  0
   -0.7196   20.4064  -29.5675 H   0  0  0  0  0  0  0  0  0  0  0  0
    1.1380   19.6100  -31.3647 H   0  0  0  0  0  0  0  0  0  0  0  0
    0.4814   20.7570  -33.6919 H   0  0  0  0  0  0  0  0  0  0  0  0
  1  2  1  0
  2  3  1  0
  3  4  2  0
  3  5  1  0
  5  6  2  0
  6  7  1  0
  7  8  1  0
  7  9  2  0
  9 10  1  0
 10 11  1  0
 10 12  2  0
 12 13  1  0
 13 14  1  0
 14 15  1  0
 15 16  2  0
 16 17  1  0
 17 18  2  0
 18 19  1  0
 12  5  1  0
 19 15  1  0
  1 20  1  0
  1 21  1  0
  1 22  1  0
  6 23  1  0
  9 24  1  0
 13 25  1  0
 13 26  1  0
 14 27  1  0
 14 28  1  0
 16 29  1  0
 17 30  1  0
 18 31  1  0
M  CHG  2   2  -1  13   1
M  END
>  <UniqueID>  (10) 
10

>  <SMILES>  (10) 
C[N-]C(=O)c1cc(Br)cc(Br)c1[NH2+]Cc1ccco1

>  <Energy>  (10) 
62.569789061581005

>  <Genealogy>  (10) 
C[N-]C(=O)c1cc(Br)cc(Br)c1[NH2+]Cc1ccco1 (protonated)
C[N-]C(=O)c1cc(Br)cc(Br)c1[NH2+]Cc1ccco1 (3D coordinates assigned)
C[N-]C(=O)c1cc(Br)cc(Br)c1[NH2+]Cc1ccco1 (optimized conformer: 62.569789061581005 kcal/mol)

>  <smiles>  (10) 
CNC(=O)c1cc(Br)cc(Br)c1NCc1ccco1

>  <score_type>  (10) 
oracle

>  <origin>  (10) 
adg

>  <m_score__min__energy>  (10) 
-7.6299999999999999

>  <m_primary>  (10) 
energy

$$$$
10:0
     RDKit          3D

 62 65  0  0  0  0  0  0  0  0999 V2000
   -6.4520   25.7070  -29.4950 C   0  0  0  0  0  0  0  0  0  0  0  0
   -5.1740   24.9090  -29.7450 C   0  0  0  0  0  0  0  0  0  0  0  0
   -4.5710   24.6330  -28.5280 F   0  0  0  0  0  0  0  0  0  0  0  0
   -4.2960   25.6790  -30.4880 F   0  0  0  0  0  0  0  0  0  0  0  0
   -5.4910   23.6270  -30.4830 C   0  0  0  0  0  0  0  0  0  0  0  0
   -4.5090   22.9790  -31.2510 C   0  0  0  0  0  0  0  0  0  0  0  0
   -4.7930   21.7720  -31.8950 C   0  0  0  0  0  0  0  0  0  0  0  0
   -6.0620   21.1750  -31.7710 C   0  0  0  0  0  0  0  0  0  0  0  0
   -6.3520   19.9190  -32.4260 N   0  0  0  0  0  0  0  0  0  0  0  0
   -6.4730   18.6790  -31.6460 C   0  0  0  0  0  0  0  0  0  0  0  0
   -7.3470   17.6640  -32.3950 C   0  0  0  0  0  0  0  0  0  0  0  0
   -6.8560   17.3670  -33.7680 N   0  0  0  0  0  0  0  0  0  0  0  0
   -6.1270   16.0780  -33.8310 C   0  0  0  0  0  0  0  0  0  0  0  0
   -4.8180   16.1220  -33.0030 C   0  0  0  0  0  0  0  0  0  0  0  0
   -3.6070   15.8160  -33.8090 N   0  0  0  0  0  0  0  0  0  0  0  0
   -3.4370   16.7730  -34.8910 C   0  0  0  0  0  0  0  0  0  0  0  0
   -4.2180   16.7600  -35.8310 O   0  0  0  0  0  0  0  0  0  0  0  0
   -2.2880   17.7480  -34.9500 C   0  0  0  0  0  0  0  0  0  0  0  0
   -1.7340   18.0800  -33.5490 C   0  0  0  0  0  0  0  0  0  0  0  0
   -2.7440   18.9250  -32.7260 C   0  0  0  0  0  0  0  0  0  0  0  0
   -2.0520   20.2320  -32.3720 C   0  0  0  0  0  0  0  0  0  0  0  0
   -0.9350   20.3890  -33.3830 C   0  0  0  0  0  0  0  0  0  0  0  0
   -0.4790   18.9740  -33.6770 C   0  0  0  0  0  0  0  0  0  0  0  0
   -1.3720   16.7600  -32.8370 C   0  0  0  0  0  0  0  0  0  0  0  0
   -2.4420   15.7000  -32.9440 C   0  0  0  0  0  0  0  0  0  0  0  0
   -2.2990   14.6850  -32.2780 O   0  0  0  0  0  0  0  0  0  0  0  0
   -6.0740   18.4680  -34.3860 C   0  0  0  0  0  0  0  0  0  0  0  0
   -6.5070   19.8500  -33.8850 C   0  0  0  0  0  0  0  0  0  0  0  0
   -7.0370   21.8160  -30.9840 C   0  0  0  0  0  0  0  0  0  0  0  0
   -6.7520   23.0240  -30.3440 C   0  0  0  0  0  0  0  0  0  0  0  0
   -6.6148   25.8087  -28.4119 H   0  0  0  0  0  0  0  0  0  0  0  0
   -6.3551   26.7054  -29.9465 H   0  0  0  0  0  0  0  0  0  0  0  0
   -7.3065   25.1817  -29.9465 H   0  0  0  0  0  0  0  0  0  0  0  0
   -3.5083   23.4256  -31.3461 H   0  0  0  0  0  0  0  0  0  0  0  0
   -4.0182   21.2838  -32.5043 H   0  0  0  0  0  0  0  0  0  0  0  0
   -5.4724   18.2501  -31.4881 H   0  0  0  0  0  0  0  0  0  0  0  0
   -6.9406   18.9089  -30.6772 H   0  0  0  0  0  0  0  0  0  0  0  0
   -7.3648   16.7265  -31.8198 H   0  0  0  0  0  0  0  0  0  0  0  0
   -8.3489   18.1069  -32.4952 H   0  0  0  0  0  0  0  0  0  0  0  0
   -6.7741   15.2821  -33.4337 H   0  0  0  0  0  0  0  0  0  0  0  0
   -5.8636   15.8827  -34.8810 H   0  0  0  0  0  0  0  0  0  0  0  0
   -4.7083   17.1294  -32.5751 H   0  0  0  0  0  0  0  0  0  0  0  0
   -4.8969   15.3496  -32.2238 H   0  0  0  0  0  0  0  0  0  0  0  0
   -3.7140   14.8810  -34.2640 H   0  0  0  0  0  0  0  0  0  0  0  0
   -1.4812   17.3088  -35.5552 H   0  0  0  0  0  0  0  0  0  0  0  0
   -2.6598   18.6820  -35.3965 H   0  0  0  0  0  0  0  0  0  0  0  0
   -3.6444   19.1254  -33.3253 H   0  0  0  0  0  0  0  0  0  0  0  0
   -3.0537   18.3881  -31.8173 H   0  0  0  0  0  0  0  0  0  0  0  0
   -2.7578   21.0724  -32.4462 H   0  0  0  0  0  0  0  0  0  0  0  0
   -1.6691   20.2233  -31.3408 H   0  0  0  0  0  0  0  0  0  0  0  0
   -1.3054   20.8749  -34.2977 H   0  0  0  0  0  0  0  0  0  0  0  0
   -0.1169   21.0192  -33.0041 H   0  0  0  0  0  0  0  0  0  0  0  0
   -0.0676   18.9099  -34.6951 H   0  0  0  0  0  0  0  0  0  0  0  0
    0.3120   18.6556  -32.9821 H   0  0  0  0  0  0  0  0  0  0  0  0
   -0.4472   16.3664  -33.2841 H   0  0  0  0  0  0  0  0  0  0  0  0
   -1.2553   16.9925  -31.7682 H   0  0  0  0  0  0  0  0  0  0  0  0
   -5.0104   18.3231  -34.1455 H   0  0  0  0  0  0  0  0  0  0  0  0
   -6.2520   18.4355  -35.4710 H   0  0  0  0  0  0  0  0  0  0  0  0
   -5.8811   20.6222  -34.3561 H   0  0  0  0  0  0  0  0  0  0  0  0
   -7.5619   20.0184  -34.1475 H   0  0  0  0  0  0  0  0  0  0  0  0
   -8.0324   21.3614  -30.8720 H   0  0  0  0  0  0  0  0  0  0  0  0
   -7.5221   23.5078  -29.7253 H   0  0  0  0  0  0  0  0  0  0  0  0
  1  2  1  0
  2  3  1  0
  2  4  1  0
  2  5  1  0
  5  6  2  0
  6  7  1  0
  7  8  2  0
  8  9  1  0
  9 10  1  0
 10 11  1  0
 11 12  1  0
 12 13  1  0
 13 14  1  0
 14 15  1  0
 15 16  1  0
 16 17  2  0
 16 18  1  0
 18 19  1  0
 19 20  1  0
 20 21  1  0
 21 22  1  0
 22 23  1  0
 19 24  1  0
 24 25  1  0
 25 26  2  0
 12 27  1  0
 27 28  1  0
  8 29  1  0
 29 30  2  0
 30  5  1  0
 28  9  1  0
 25 15  1  0
 23 19  1  0
  1 31  1  0
  1 32  1  0
  1 33  1  0
  6 34  1  0
  7 35  1  0
 10 36  1  0
 10 37  1  0
 11 38  1  0
 11 39  1  0
 13 40  1  0
 13 41  1  0
 14 42  1  0
 14 43  1  0
 15 44  1  0
 18 45  1  0
 18 46  1  0
 20 47  1  0
 20 48  1  0
 21 49  1  0
 21 50  1  0
 22 51  1  0
 22 52  1  0
 23 53  1  0
 23 54  1  0
 24 55  1  0
 24 56  1  0
 27 57  1  0
 27 58  1  0
 28 59  1  0
 28 60  1  0
 29 61  1  0
 30 62  1  0
M  CHG  1  15   1
M  END
>  <UniqueID>  (11) 
11

>  <SMILES>  (11) 
CC(F)(F)c1ccc(N2CCN(CC[NH+]3C(=O)CC4(CCCC4)CC3=O)CC2)cc1

>  <Energy>  (11) 
83.20210675287237

>  <Genealogy>  (11) 
CC(F)(F)c1ccc(N2CCN(CC[NH+]3C(=O)CC4(CCCC4)CC3=O)CC2)cc1 (protonated)
CC(F)(F)c1ccc(N2CCN(CC[NH+]3C(=O)CC4(CCCC4)CC3=O)CC2)cc1 (3D coordinates assigned)
CC(F)(F)c1ccc(N2CCN(CC[NH+]3C(=O)CC4(CCCC4)CC3=O)CC2)cc1 (nonaromatic ring conformer: 83.20210675287237 kcal/mol)

>  <smiles>  (11) 
CC(F)(F)c1ccc(N2CCN(CCN3C(=O)CC4(CCCC4)CC3=O)CC2)cc1

>  <score_type>  (11) 
oracle

>  <origin>  (11) 
adg

>  <m_score__min__energy>  (11) 
-9.0199999999999996

>  <m_primary>  (11) 
energy

$$$$
11:0
     RDKit          3D

 61 65  0  0  0  0  0  0  0  0999 V2000
   -4.7300   13.3260  -31.9890 C   0  0  0  0  0  0  0  0  0  0  0  0
   -4.6160   14.1200  -33.3130 C   0  0  0  0  0  0  0  0  0  0  0  0
   -5.9620   13.9620  -34.0610 C   0  0  0  0  0  0  0  0  0  0  0  0
   -4.2470   15.5520  -33.0580 N   0  0  0  0  0  0  0  0  0  0  0  0
   -3.7130   16.2160  -34.2930 C   0  0  0  0  0  0  0  0  0  0  0  0
   -4.6930   17.2270  -34.9070 C   0  0  0  0  0  0  0  0  0  0  0  0
   -5.0180   18.2990  -33.9430 N   0  0  0  0  0  0  0  0  0  0  0  0
   -6.1330   19.1720  -34.3780 C   0  0  0  0  0  0  0  0  0  0  0  0
   -6.6750   20.0700  -33.2810 C   0  0  0  0  0  0  0  0  0  0  0  0
   -8.0570   20.1310  -33.0380 C   0  0  0  0  0  0  0  0  0  0  0  0
   -8.5580   20.9340  -32.0130 C   0  0  0  0  0  0  0  0  0  0  0  0
   -7.6910   21.6960  -31.2280 C   0  0  0  0  0  0  0  0  0  0  0  0
   -6.3060   21.6720  -31.4710 C   0  0  0  0  0  0  0  0  0  0  0  0
   -5.3810   22.4830  -30.6380 C   0  0  0  0  0  0  0  0  0  0  0  0
   -5.7100   23.8030  -30.2870 C   0  0  0  0  0  0  0  0  0  0  0  0
   -4.8490   24.5620  -29.4870 C   0  0  0  0  0  0  0  0  0  0  0  0
   -3.6410   24.0150  -29.0230 C   0  0  0  0  0  0  0  0  0  0  0  0
   -2.7380   24.8130  -28.1630 C   0  0  0  0  0  0  0  0  0  0  0  0
   -2.7890   24.7750  -26.8030 N   0  0  0  0  0  0  0  0  0  0  0  0
   -1.8280   25.6380  -26.4490 C   0  0  0  0  0  0  0  0  0  0  0  0
   -1.4390   26.0010  -25.1600 C   0  0  0  0  0  0  0  0  0  0  0  0
   -0.3970   26.9380  -25.0330 C   0  0  0  0  0  0  0  0  0  0  0  0
    0.2240   27.4770  -26.1840 C   0  0  0  0  0  0  0  0  0  0  0  0
   -0.1990   27.0890  -27.4700 C   0  0  0  0  0  0  0  0  0  0  0  0
   -1.2350   26.1620  -27.5550 C   0  0  0  0  0  0  0  0  0  0  0  0
   -1.7940   25.6550  -28.6630 N   0  0  0  0  0  0  0  0  0  0  0  0
   -3.3080   22.6980  -29.3790 C   0  0  0  0  0  0  0  0  0  0  0  0
   -4.1690   21.9400  -30.1790 C   0  0  0  0  0  0  0  0  0  0  0  0
   -5.8090   20.8640  -32.5100 C   0  0  0  0  0  0  0  0  0  0  0  0
   -5.1070   17.8410  -32.5380 C   0  0  0  0  0  0  0  0  0  0  0  0
   -5.3620   16.3300  -32.4470 C   0  0  0  0  0  0  0  0  0  0  0  0
   -4.6309   14.0159  -31.1380 H   0  0  0  0  0  0  0  0  0  0  0  0
   -5.7091   12.8266  -31.9441 H   0  0  0  0  0  0  0  0  0  0  0  0
   -3.9310   12.5713  -31.9441 H   0  0  0  0  0  0  0  0  0  0  0  0
   -3.8053   13.7255  -33.9432 H   0  0  0  0  0  0  0  0  0  0  0  0
   -6.7785   13.8661  -33.3302 H   0  0  0  0  0  0  0  0  0  0  0  0
   -6.1367   14.8458  -34.6922 H   0  0  0  0  0  0  0  0  0  0  0  0
   -5.9273   13.0618  -34.6922 H   0  0  0  0  0  0  0  0  0  0  0  0
   -3.4740   15.5510  -32.3490 H   0  0  0  0  0  0  0  0  0  0  0  0
   -2.7836   16.7436  -34.0325 H   0  0  0  0  0  0  0  0  0  0  0  0
   -3.5441   15.4278  -35.0415 H   0  0  0  0  0  0  0  0  0  0  0  0
   -4.2356   17.6740  -35.8019 H   0  0  0  0  0  0  0  0  0  0  0  0
   -5.6213   16.6999  -35.1724 H   0  0  0  0  0  0  0  0  0  0  0  0
   -5.7742   19.8081  -35.2006 H   0  0  0  0  0  0  0  0  0  0  0  0
   -6.9562   18.5098  -34.6844 H   0  0  0  0  0  0  0  0  0  0  0  0
   -8.7481   19.5424  -33.6592 H   0  0  0  0  0  0  0  0  0  0  0  0
   -9.6409   20.9668  -31.8226 H   0  0  0  0  0  0  0  0  0  0  0  0
   -8.0932   22.3185  -30.4151 H   0  0  0  0  0  0  0  0  0  0  0  0
   -6.6525   24.2435  -30.6442 H   0  0  0  0  0  0  0  0  0  0  0  0
   -5.1197   25.5941  -29.2195 H   0  0  0  0  0  0  0  0  0  0  0  0
   -1.9291   25.5703  -24.2744 H   0  0  0  0  0  0  0  0  0  0  0  0
   -0.0635   27.2531  -24.0332 H   0  0  0  0  0  0  0  0  0  0  0  0
    1.0424   28.2037  -26.0739 H   0  0  0  0  0  0  0  0  0  0  0  0
    0.2715   27.5028  -28.3741 H   0  0  0  0  0  0  0  0  0  0  0  0
   -2.3630   22.2594  -29.0260 H   0  0  0  0  0  0  0  0  0  0  0  0
   -3.8951   20.9100  -30.4512 H   0  0  0  0  0  0  0  0  0  0  0  0
   -4.7296   20.8536  -32.7214 H   0  0  0  0  0  0  0  0  0  0  0  0
   -4.1613   18.0741  -32.0268 H   0  0  0  0  0  0  0  0  0  0  0  0
   -5.9518   18.3600  -32.0616 H   0  0  0  0  0  0  0  0  0  0  0  0
   -5.4581   16.0465  -31.3885 H   0  0  0  0  0  0  0  0  0  0  0  0
   -6.2861   16.1013  -32.9981 H   0  0  0  0  0  0  0  0  0  0  0  0
  1  2  1  0
  2  3  1  0
  2  4  1  0
  4  5  1  0
  5  6  1  0
  6  7  1  0
  7  8  1  0
  8  9  1  0
  9 10  2  0
 10 11  1  0
 11 12  2  0
 12 13  1  0
 13 14  1  0
 14 15  2  0
 15 16  1  0
 16 17  2  0
 17 18  1  0
 18 19  2  0
 19 20  1  0
 20 21  2  0
 21 22  1  0
 22 23  2  0
 23 24  1  0
 24 25  2  0
 25 26  1  0
 17 27  1  0
 27 28  2  0
 13 29  2  0
  7 30  1  0
 30 31  1  0
 31  4  1  0
 29  9  1  0
 28 14  1  0
 26 18  1  0
 25 20  1  0
  1 32  1  0
  1 33  1  0
  1 34  1  0
  2 35  1  0
  3 36  1  0
  3 37  1  0
  3 38  1  0
  4 39  1  0
  5 40  1  0
  5 41  1  0
  6 42  1  0
  6 43  1  0
  8 44  1  0
  8 45  1  0
 10 46  1  0
 11 47  1  0
 12 48  1  0
 15 49  1  0
 16 50  1  0
 21 51  1  0
 22 52  1  0
 23 53  1  0
 24 54  1  0
 27 55  1  0
 28 56  1  0
 29 57  1  0
 30 58  1  0
 30 59  1  0
 31 60  1  0
 31 61  1  0
M  CHG  2   4   1  26  -1
M  END
>  <UniqueID>  (12) 
12

>  <SMILES>  (12) 
CC(C)[NH+]1CCN(Cc2cccc(-c3ccc(-c4nc5ccccc5[n-]4)cc3)c2)CC1

>  <Energy>  (12) 
125.43501595137884

>  <Genealogy>  (12) 
CC(C)[NH+]1CCN(Cc2cccc(-c3ccc(-c4nc5ccccc5[n-]4)cc3)c2)CC1 (protonated)
CC(C)[NH+]1CCN(Cc2cccc(-c3ccc(-c4nc5ccccc5[n-]4)cc3)c2)CC1 (3D coordinates assigned)
CC(C)[NH+]1CCN(Cc2cccc(-c3ccc(-c4nc5ccccc5[n-]4)cc3)c2)CC1 (nonaromatic ring conformer: 125.43501595137884 kcal/mol)

>  <smiles>  (12) 
CC(C)N1CCN(Cc2cccc(-c3ccc(-c4nc5ccccc5[nH]4)cc3)c2)CC1

>  <score_type>  (12) 
oracle

>  <origin>  (12) 
adg

>  <m_score__min__energy>  (12) 
-9.9700000000000006

>  <m_primary>  (12) 
energy

$$$$
12:0
     RDKit          3D

 44 45  0  0  0  0  0  0  0  0999 V2000
   -3.9070   24.7430  -30.1470 H   0  0  0  0  0  0  0  0  0  0  0  0
   -3.0910   25.1250  -29.6920 O   0  0  0  0  0  0  0  0  0  0  0  0
   -1.9720   24.3740  -29.3120 C   0  0  0  0  0  0  0  0  0  0  0  0
   -1.9740   23.0000  -29.5980 C   0  0  0  0  0  0  0  0  0  0  0  0
   -3.1310   22.3600  -30.2610 C   0  0  0  0  0  0  0  0  0  0  0  0
   -3.4361   21.3554  -29.9330 H   0  0  0  0  0  0  0  0  0  0  0  0
   -3.8030   22.9340  -31.2150 N   0  0  0  0  0  0  0  0  0  0  0  0
   -5.2420   22.7900  -31.4320 C   0  0  0  0  0  0  0  0  0  0  0  0
   -5.7121   22.3941  -30.5197 H   0  0  0  0  0  0  0  0  0  0  0  0
   -5.4182   22.0963  -32.2673 H   0  0  0  0  0  0  0  0  0  0  0  0
   -5.8470   24.1500  -31.7660 C   0  0  0  0  0  0  0  0  0  0  0  0
   -6.8603   24.2112  -31.3424 H   0  0  0  0  0  0  0  0  0  0  0  0
   -5.8902   24.2658  -32.8590 H   0  0  0  0  0  0  0  0  0  0  0  0
   -5.0490   25.1850  -31.2220 O   0  0  0  0  0  0  0  0  0  0  0  0
   -5.7480   25.8690  -30.2040 C   0  0  0  0  0  0  0  0  0  0  0  0
   -6.1447   26.8149  -30.6013 H   0  0  0  0  0  0  0  0  0  0  0  0
   -5.0670   26.0846  -29.3675 H   0  0  0  0  0  0  0  0  0  0  0  0
   -6.8970   24.9990  -29.7180 C   0  0  0  0  0  0  0  0  0  0  0  0
   -6.9098   24.9893  -28.6181 H   0  0  0  0  0  0  0  0  0  0  0  0
   -7.8483   25.4053  -30.0922 H   0  0  0  0  0  0  0  0  0  0  0  0
   -6.7639   23.9732  -30.0922 H   0  0  0  0  0  0  0  0  0  0  0  0
   -0.8370   22.2510  -29.2890 C   0  0  0  0  0  0  0  0  0  0  0  0
   -0.7850   21.0190  -29.5490 O   0  0  0  0  0  0  0  0  0  0  0  0
    0.2170   22.8500  -28.6910 N   0  0  0  0  0  0  0  0  0  0  0  0
    0.2090   24.1720  -28.3880 C   0  0  0  0  0  0  0  0  0  0  0  0
    1.2250   24.6690  -27.8300 O   0  0  0  0  0  0  0  0  0  0  0  0
   -0.8830   24.9510  -28.6920 N   0  0  0  0  0  0  0  0  0  0  0  0
   -0.8710   26.3950  -28.3730 C   0  0  0  0  0  0  0  0  0  0  0  0
    0.0006   26.8614  -28.8556 H   0  0  0  0  0  0  0  0  0  0  0  0
   -1.8059   26.8404  -28.7441 H   0  0  0  0  0  0  0  0  0  0  0  0
   -0.7910   26.6270  -26.8830 C   0  0  0  0  0  0  0  0  0  0  0  0
   -1.4070   25.7350  -25.9880 C   0  0  0  0  0  0  0  0  0  0  0  0
   -1.9459   24.8572  -26.3740 H   0  0  0  0  0  0  0  0  0  0  0  0
   -1.3380   25.9580  -24.6110 C   0  0  0  0  0  0  0  0  0  0  0  0
   -1.8093   25.2475  -23.9160 H   0  0  0  0  0  0  0  0  0  0  0  0
   -0.6720   27.0810  -24.1140 C   0  0  0  0  0  0  0  0  0  0  0  0
   -0.6079   27.2440  -23.0280 H   0  0  0  0  0  0  0  0  0  0  0  0
   -0.0850   28.0010  -24.9940 C   0  0  0  0  0  0  0  0  0  0  0  0
    0.6550   29.1940  -24.4660 C   0  0  0  0  0  0  0  0  0  0  0  0
    0.6435   29.1754  -23.3662 H   0  0  0  0  0  0  0  0  0  0  0  0
    1.6954   29.1673  -24.8223 H   0  0  0  0  0  0  0  0  0  0  0  0
    0.1689   30.1142  -24.8223 H   0  0  0  0  0  0  0  0  0  0  0  0
   -0.1430   27.7670  -26.3770 C   0  0  0  0  0  0  0  0  0  0  0  0
    0.3229   28.4822  -27.0709 H   0  0  0  0  0  0  0  0  0  0  0  0
  1  2  1  0
  2  3  1  0
  3  4  2  0
  4  5  1  0
  5  6  1  0
  5  7  2  0
  7  8  1  0
  8  9  1  0
  8 10  1  0
  8 11  1  0
 11 12  1  0
 11 13  1  0
 11 14  1  0
 14 15  1  0
 15 16  1  0
 15 17  1  0
 15 18  1  0
 18 19  1  0
 18 20  1  0
 18 21  1  0
  4 22  1  0
 22 23  2  0
 22 24  1  0
 24 25  1  0
 25 26  2  0
 25 27  1  0
 27 28  1  0
 28 29  1  0
 28 30  1  0
 28 31  1  0
 31 32  2  0
 32 33  1  0
 32 34  1  0
 34 35  1  0
 34 36  2  0
 36 37  1  0
 36 38  1  0
 38 39  1  0
 39 40  1  0
 39 41  1  0
 39 42  1  0
 38 43  2  0
 43 44  1  0
 27  3  1  0
 43 31  1  0
M  CHG  1  24  -1
M  END
>  <UniqueID>  (13) 
13

>  <SMILES>  (13) 
CCOCC/N=C\c1c(O)n(Cc2cccc(C)c2)c(=O)[n-]c1=O

>  <Energy>  (13) 
53.1711735394104

>  <Genealogy>  (13) 
CCOCCN=Cc1c(O)n(Cc2cccc(C)c2)c(=O)[n-]c1=O (protonated)
CCOCC/N=C\c1c(O)n(Cc2cccc(C)c2)c(=O)[n-]c1=O (cis-trans isomerization)
CCOCC/N=C\c1c(O)n(Cc2cccc(C)c2)c(=O)[n-]c1=O (3D coordinates assigned)
CCOCC/N=C\c1c(O)n(Cc2cccc(C)c2)c(=O)[n-]c1=O (optimized conformer: 53.1711735394104 kcal/mol)

>  <smiles>  (13) 
CCOCCN=Cc1c(O)n(Cc2cccc(C)c2)c(=O)[nH]c1=O

>  <score_type>  (13) 
oracle

>  <origin>  (13) 
adg

>  <m_score__min__energy>  (13) 
-7.2699999999999996

>  <m_primary>  (13) 
energy

$$$$
13:0
     RDKit          3D

 50 52  0  0  0  0  0  0  0  0999 V2000
    0.3190   21.9830  -36.3710 C   0  0  0  0  0  0  0  0  0  0  0  0
    0.2420   21.6730  -34.9100 C   0  0  0  0  0  0  0  0  0  0  0  0
    1.2580   21.8500  -34.1870 O   0  0  0  0  0  0  0  0  0  0  0  0
   -0.9830   21.1780  -34.3470 N   0  0  0  0  0  0  0  0  0  0  0  0
   -1.2260   21.0610  -32.9350 C   0  0  0  0  0  0  0  0  0  0  0  0
   -2.4230   21.5210  -32.3570 C   0  0  0  0  0  0  0  0  0  0  0  0
   -2.6430   21.3840  -30.9840 C   0  0  0  0  0  0  0  0  0  0  0  0
   -1.6710   20.7850  -30.1690 C   0  0  0  0  0  0  0  0  0  0  0  0
   -1.9150   20.6810  -28.4230 S   0  0  0  0  0  0  0  0  0  0  0  0
   -3.0350   19.7190  -28.1370 O   0  0  0  0  0  0  0  0  0  0  0  0
   -0.6670   20.1460  -27.7780 O   0  0  0  0  0  0  0  0  0  0  0  0
   -2.2950   22.2430  -27.7340 N   0  0  0  0  0  0  0  0  0  0  0  0
   -1.2200   23.2330  -27.9870 C   0  0  0  0  0  0  0  0  0  0  0  0
   -1.5170   24.1480  -29.1880 C   0  0  0  0  0  0  0  0  0  0  0  0
   -2.8560   24.9020  -29.0360 C   0  0  0  0  0  0  0  0  0  0  0  0
   -3.4820   25.0110  -30.3530 N   0  0  0  0  0  0  0  0  0  0  0  0
   -4.8910   25.1470  -30.5710 C   0  0  0  0  0  0  0  0  0  0  0  0
   -5.4330   26.2820  -30.4780 O   0  0  0  0  0  0  0  0  0  0  0  0
   -5.7060   23.9560  -30.9030 C   0  0  0  0  0  0  0  0  0  0  0  0
   -5.3900   23.1620  -32.0220 C   0  0  0  0  0  0  0  0  0  0  0  0
   -6.1600   22.0350  -32.3300 C   0  0  0  0  0  0  0  0  0  0  0  0
   -7.2470   21.6880  -31.5270 C   0  0  0  0  0  0  0  0  0  0  0  0
   -7.5710   22.4670  -30.4150 C   0  0  0  0  0  0  0  0  0  0  0  0
   -6.8060   23.5950  -30.1010 C   0  0  0  0  0  0  0  0  0  0  0  0
   -3.8120   24.1970  -28.0520 C   0  0  0  0  0  0  0  0  0  0  0  0
   -3.6500   22.6770  -28.1420 C   0  0  0  0  0  0  0  0  0  0  0  0
   -0.4930   20.2950  -30.7470 C   0  0  0  0  0  0  0  0  0  0  0  0
   -0.2770   20.4250  -32.1220 C   0  0  0  0  0  0  0  0  0  0  0  0
    0.5821   23.0423  -36.5077 H   0  0  0  0  0  0  0  0  0  0  0  0
    1.0874   21.3509  -36.8400 H   0  0  0  0  0  0  0  0  0  0  0  0
   -0.6559   21.7839  -36.8400 H   0  0  0  0  0  0  0  0  0  0  0  0
   -1.7030   20.7980  -35.0030 H   0  0  0  0  0  0  0  0  0  0  0  0
   -3.1903   21.9913  -32.9895 H   0  0  0  0  0  0  0  0  0  0  0  0
   -3.5818   21.7472  -30.5405 H   0  0  0  0  0  0  0  0  0  0  0  0
   -1.1014   23.8588  -27.0902 H   0  0  0  0  0  0  0  0  0  0  0  0
   -0.3031   22.6715  -28.2195 H   0  0  0  0  0  0  0  0  0  0  0  0
   -0.7052   24.8845  -29.2803 H   0  0  0  0  0  0  0  0  0  0  0  0
   -1.5890   23.5135  -30.0836 H   0  0  0  0  0  0  0  0  0  0  0  0
   -2.6488   25.8999  -28.6221 H   0  0  0  0  0  0  0  0  0  0  0  0
   -4.5330   23.4292  -32.6577 H   0  0  0  0  0  0  0  0  0  0  0  0
   -5.9078   21.4212  -33.2073 H   0  0  0  0  0  0  0  0  0  0  0  0
   -7.8490   20.8001  -31.7704 H   0  0  0  0  0  0  0  0  0  0  0  0
   -8.4297   22.1932  -29.7844 H   0  0  0  0  0  0  0  0  0  0  0  0
   -7.0651   24.2039  -29.2223 H   0  0  0  0  0  0  0  0  0  0  0  0
   -3.5833   24.5253  -27.0273 H   0  0  0  0  0  0  0  0  0  0  0  0
   -4.8478   24.4602  -28.3125 H   0  0  0  0  0  0  0  0  0  0  0  0
   -4.3901   22.2005  -27.4823 H   0  0  0  0  0  0  0  0  0  0  0  0
   -3.8034   22.3785  -29.1895 H   0  0  0  0  0  0  0  0  0  0  0  0
    0.2647   19.8063  -30.1169 H   0  0  0  0  0  0  0  0  0  0  0  0
    0.6448   20.0252  -32.5697 H   0  0  0  0  0  0  0  0  0  0  0  0
  1  2  1  0
  2  3  2  0
  2  4  1  0
  4  5  1  0
  5  6  2  0
  6  7  1  0
  7  8  2  0
  8  9  1  0
  9 10  2  0
  9 11  2  0
  9 12  1  0
 12 13  1  0
 13 14  1  0
 14 15  1  0
 15 16  1  0
 16 17  1  0
 17 18  2  0
 17 19  1  0
 19 20  2  0
 20 21  1  0
 21 22  2  0
 22 23  1  0
 23 24  2  0
 15 25  1  0
 25 26  1  0
  8 27  1  0
 27 28  2  0
 28  5  1  0
 26 12  1  0
 24 19  1  0
  1 29  1  0
  1 30  1  0
  1 31  1  0
  4 32  1  0
  6 33  1  0
  7 34  1  0
 13 35  1  0
 13 36  1  0
 14 37  1  0
 14 38  1  0
 15 39  1  0
 20 40  1  0
 21 41  1  0
 22 42  1  0
 23 43  1  0
 24 44  1  0
 25 45  1  0
 25 46  1  0
 26 47  1  0
 26 48  1  0
 27 49  1  0
 28 50  1  0
M  CHG  1  16  -1
M  END
>  <UniqueID>  (14) 
14

>  <SMILES>  (14) 
CC(=O)Nc1ccc(S(=O)(=O)N2CCC([N-]C(=O)c3ccccc3)CC2)cc1

>  <Energy>  (14) 
56.70244772828845

>  <Genealogy>  (14) 
CC(=O)Nc1ccc(S(=O)(=O)N2CCC([N-]C(=O)c3ccccc3)CC2)cc1 (protonated)
CC(=O)Nc1ccc(S(=O)(=O)N2CCC([N-]C(=O)c3ccccc3)CC2)cc1 (3D coordinates assigned)
CC(=O)Nc1ccc(S(=O)(=O)N2CCC([N-]C(=O)c3ccccc3)CC2)cc1 (nonaromatic ring conformer: 56.70244772828845 kcal/mol)

>  <smiles>  (14) 
CC(=O)Nc1ccc(S(=O)(=O)N2CCC(NC(=O)c3ccccc3)CC2)cc1

>  <score_type>  (14) 
oracle

>  <origin>  (14) 
adg

>  <m_score__min__energy>  (14) 
-10.92

>  <m_primary>  (14) 
energy

$$$$
14:0
     RDKit          3D

 57 59  0  0  0  0  0  0  0  0999 V2000
   -9.1370   18.3080  -31.4940 C   0  0  0  0  0  0  0  0  0  0  0  0
   -8.7810   19.1610  -32.7200 C   0  0  0  0  0  0  0  0  0  0  0  0
   -8.4080   20.5590  -32.4000 N   0  0  0  0  0  0  0  0  0  0  0  0
   -9.5460   21.3290  -31.8640 C   0  0  0  0  0  0  0  0  0  0  0  0
   -7.2160   20.6390  -31.5270 C   0  0  0  0  0  0  0  0  0  0  0  0
   -6.2900   19.4260  -31.7150 C   0  0  0  0  0  0  0  0  0  0  0  0
   -5.2500   19.6700  -32.7420 N   0  0  0  0  0  0  0  0  0  0  0  0
   -5.5410   18.8680  -33.9420 C   0  0  0  0  0  0  0  0  0  0  0  0
   -5.1390   21.1060  -33.1010 C   0  0  0  0  0  0  0  0  0  0  0  0
   -4.4990   21.8800  -31.9790 C   0  0  0  0  0  0  0  0  0  0  0  0
   -3.2800   21.4510  -31.4340 C   0  0  0  0  0  0  0  0  0  0  0  0
   -2.6810   22.1650  -30.3930 C   0  0  0  0  0  0  0  0  0  0  0  0
   -3.2830   23.3290  -29.8860 C   0  0  0  0  0  0  0  0  0  0  0  0
   -2.6630   24.0720  -28.7600 C   0  0  0  0  0  0  0  0  0  0  0  0
   -3.3410   24.2060  -27.5360 C   0  0  0  0  0  0  0  0  0  0  0  0
   -2.7550   24.8990  -26.4730 C   0  0  0  0  0  0  0  0  0  0  0  0
   -1.4790   25.4740  -26.6100 C   0  0  0  0  0  0  0  0  0  0  0  0
   -0.8570   26.2110  -25.4810 C   0  0  0  0  0  0  0  0  0  0  0  0
   -0.8370   27.6160  -25.4630 C   0  0  0  0  0  0  0  0  0  0  0  0
   -0.2470   28.2940  -24.3950 C   0  0  0  0  0  0  0  0  0  0  0  0
    0.3210   27.5650  -23.3500 C   0  0  0  0  0  0  0  0  0  0  0  0
    0.2980   26.2060  -23.3750 N   0  0  0  0  0  0  0  0  0  0  0  0
   -0.2700   25.5210  -24.4050 C   0  0  0  0  0  0  0  0  0  0  0  0
   -0.8030   25.3380  -27.8350 C   0  0  0  0  0  0  0  0  0  0  0  0
   -1.3880   24.6430  -28.8980 C   0  0  0  0  0  0  0  0  0  0  0  0
   -4.4920   23.7730  -30.4550 C   0  0  0  0  0  0  0  0  0  0  0  0
   -5.0910   23.0570  -31.4950 C   0  0  0  0  0  0  0  0  0  0  0  0
   -8.9031   18.8685  -30.5769 H   0  0  0  0  0  0  0  0  0  0  0  0
  -10.2103   18.0681  -31.5134 H   0  0  0  0  0  0  0  0  0  0  0  0
   -8.5526   17.3763  -31.5134 H   0  0  0  0  0  0  0  0  0  0  0  0
   -7.9327   18.6870  -33.2354 H   0  0  0  0  0  0  0  0  0  0  0  0
   -9.6855   19.2102  -33.3441 H   0  0  0  0  0  0  0  0  0  0  0  0
   -9.5168   21.3092  -30.7646 H   0  0  0  0  0  0  0  0  0  0  0  0
   -9.4817   22.3699  -32.2138 H   0  0  0  0  0  0  0  0  0  0  0  0
  -10.4883   20.8822  -32.2138 H   0  0  0  0  0  0  0  0  0  0  0  0
   -6.6573   21.5549  -31.7699 H   0  0  0  0  0  0  0  0  0  0  0  0
   -7.5573   20.6506  -30.4814 H   0  0  0  0  0  0  0  0  0  0  0  0
   -5.7969   19.2049  -30.7569 H   0  0  0  0  0  0  0  0  0  0  0  0
   -6.9062   18.5797  -32.0526 H   0  0  0  0  0  0  0  0  0  0  0  0
   -5.9018   17.8737  -33.6399 H   0  0  0  0  0  0  0  0  0  0  0  0
   -6.3136   19.3719  -34.5413 H   0  0  0  0  0  0  0  0  0  0  0  0
   -4.6250   18.7592  -34.5413 H   0  0  0  0  0  0  0  0  0  0  0  0
   -4.5240   21.2064  -34.0075 H   0  0  0  0  0  0  0  0  0  0  0  0
   -6.1471   21.5074  -33.2816 H   0  0  0  0  0  0  0  0  0  0  0  0
   -2.7927   20.5471  -31.8284 H   0  0  0  0  0  0  0  0  0  0  0  0
   -1.7301   21.8129  -29.9667 H   0  0  0  0  0  0  0  0  0  0  0  0
   -4.3401   23.7622  -27.4138 H   0  0  0  0  0  0  0  0  0  0  0  0
   -3.2969   24.9955  -25.5206 H   0  0  0  0  0  0  0  0  0  0  0  0
   -1.2869   28.1823  -26.2917 H   0  0  0  0  0  0  0  0  0  0  0  0
   -0.2301   29.3937  -24.3775 H   0  0  0  0  0  0  0  0  0  0  0  0
    0.7883   28.0907  -22.5043 H   0  0  0  0  0  0  0  0  0  0  0  0
    0.7250   25.6740  -22.5830 H   0  0  0  0  0  0  0  0  0  0  0  0
   -0.2700   24.4210  -24.3958 H   0  0  0  0  0  0  0  0  0  0  0  0
    0.1956   25.7825  -27.9585 H   0  0  0  0  0  0  0  0  0  0  0  0
   -0.8451   24.5429  -29.8494 H   0  0  0  0  0  0  0  0  0  0  0  0
   -4.9685   24.6901  -30.0782 H   0  0  0  0  0  0  0  0  0  0  0  0
   -6.0316   23.4178  -31.9367 H   0  0  0  0  0  0  0  0  0  0  0  0
  1  2  1  0
  2  3  1  0
  3  4  1  0
  3  5  1  0
  5  6  1  0
  6  7  1  0
  7  8  1  0
  7  9  1  0
  9 10  1  0
 10 11  2  0
 11 12  1  0
 12 13  2  0
 13 14  1  0
 14 15  2  0
 15 16  1  0
 16 17  2  0
 17 18  1  0
 18 19  2  0
 19 20  1  0
 20 21  2  0
 21 22  1  0
 22 23  2  0
 17 24  1  0
 24 25  2  0
 13 26  1  0
 26 27  2  0
 27 10  1  0
 25 14  1  0
 23 18  1  0
  1 28  1  0
  1 29  1  0
  1 30  1  0
  2 31  1  0
  2 32  1  0
  4 33  1  0
  4 34  1  0
  4 35  1  0
  5 36  1  0
  5 37  1  0
  6 38  1  0
  6 39  1  0
  8 40  1  0
  8 41  1  0
  8 42  1  0
  9 43  1  0
  9 44  1  0
 11 45  1  0
 12 46  1  0
 15 47  1  0
 16 48  1  0
 19 49  1  0
 20 50  1  0
 21 51  1  0
 22 52  1  0
 23 53  1  0
 24 54  1  0
 25 55  1  0
 26 56  1  0
 27 57  1  0
M  CHG  1  22   1
M  END
>  <UniqueID>  (15) 
15

>  <SMILES>  (15) 
CCN(C)CCN(C)Cc1ccc(-c2ccc(-c3ccc[nH+]c3)cc2)cc1

>  <Energy>  (15) 
69.29930217050979

>  <Genealogy>  (15) 
CCN(C)CCN(C)Cc1ccc(-c2ccc(-c3ccc[nH+]c3)cc2)cc1 (protonated)
CCN(C)CCN(C)Cc1ccc(-c2ccc(-c3ccc[nH+]c3)cc2)cc1 (3D coordinates assigned)
CCN(C)CCN(C)Cc1ccc(-c2ccc(-c3ccc[nH+]c3)cc2)cc1 (optimized conformer: 69.29930217050979 kcal/mol)

>  <smiles>  (15) 
CCN(C)CCN(C)Cc1ccc(-c2ccc(-c3cccnc3)cc2)cc1

>  <score_type>  (15) 
oracle

>  <origin>  (15) 
adg

>  <m_score__min__energy>  (15) 
-9.2699999999999996

>  <m_primary>  (15) 
energy

$$$$
15:0
     RDKit          3D

 57 60  0  0  0  0  0  0  0  0999 V2000
   -8.0631   17.2401  -31.3734 H   0  0  0  0  0  0  0  0  0  0  0  0
   -7.5630   17.9770  -32.0190 C   0  0  0  0  0  0  0  0  0  0  0  0
   -8.0530   19.2260  -32.0450 C   0  0  0  0  0  0  0  0  0  0  0  0
   -7.3790   20.4700  -31.7250 C   0  0  0  0  0  0  0  0  0  0  0  0
   -6.0800   20.6240  -31.3680 N   0  0  0  0  0  0  0  0  0  0  0  0
   -5.5830   21.8690  -31.1310 C   0  0  0  0  0  0  0  0  0  0  0  0
   -4.2490   22.0210  -30.7450 C   0  0  0  0  0  0  0  0  0  0  0  0
   -3.6080   21.1336  -30.6370 H   0  0  0  0  0  0  0  0  0  0  0  0
   -3.7180   23.3010  -30.4930 C   0  0  0  0  0  0  0  0  0  0  0  0
   -2.3440   23.4780  -30.0890 N   0  0  0  0  0  0  0  0  0  0  0  0
   -1.6380   23.7200  -30.8210 H   0  0  0  0  0  0  0  0  0  0  0  0
   -1.8930   23.3310  -28.7030 C   0  0  0  0  0  0  0  0  0  0  0  0
   -2.7645   23.1401  -28.0595 H   0  0  0  0  0  0  0  0  0  0  0  0
   -1.3855   24.2585  -28.3995 H   0  0  0  0  0  0  0  0  0  0  0  0
   -0.9050   22.1670  -28.5670 C   0  0  0  0  0  0  0  0  0  0  0  0
   -0.4222   22.2195  -27.5800 H   0  0  0  0  0  0  0  0  0  0  0  0
   -0.1570   22.2492  -29.3693 H   0  0  0  0  0  0  0  0  0  0  0  0
   -1.6180   20.8160  -28.7040 C   0  0  0  0  0  0  0  0  0  0  0  0
   -1.0550   20.1776  -29.4008 H   0  0  0  0  0  0  0  0  0  0  0  0
   -2.6354   20.9855  -29.0864 H   0  0  0  0  0  0  0  0  0  0  0  0
   -1.7040   20.1450  -27.3880 N   0  0  0  0  0  0  0  0  0  0  0  0
   -1.2440   21.0570  -26.3240 C   0  0  0  0  0  0  0  0  0  0  0  0
   -1.4666   20.6157  -25.3413 H   0  0  0  0  0  0  0  0  0  0  0  0
   -0.1593   21.2132  -26.4186 H   0  0  0  0  0  0  0  0  0  0  0  0
   -1.7631   22.0222  -26.4186 H   0  0  0  0  0  0  0  0  0  0  0  0
   -3.0810   19.6730  -27.1070 C   0  0  0  0  0  0  0  0  0  0  0  0
   -3.5053   19.2281  -28.0191 H   0  0  0  0  0  0  0  0  0  0  0  0
   -3.6935   20.5280  -26.7847 H   0  0  0  0  0  0  0  0  0  0  0  0
   -3.0660   18.6270  -25.9970 C   0  0  0  0  0  0  0  0  0  0  0  0
   -3.0732   19.1302  -25.0189 H   0  0  0  0  0  0  0  0  0  0  0  0
   -3.9550   17.9853  -26.0858 H   0  0  0  0  0  0  0  0  0  0  0  0
   -2.1589   18.0111  -26.0858 H   0  0  0  0  0  0  0  0  0  0  0  0
   -4.5520   24.4270  -30.6370 C   0  0  0  0  0  0  0  0  0  0  0  0
   -4.0700   25.6730  -30.4030 F   0  0  0  0  0  0  0  0  0  0  0  0
   -5.8880   24.2800  -31.0260 C   0  0  0  0  0  0  0  0  0  0  0  0
   -6.5272   25.1684  -31.1363 H   0  0  0  0  0  0  0  0  0  0  0  0
   -6.4160   23.0040  -31.2760 C   0  0  0  0  0  0  0  0  0  0  0  0
   -7.7520   22.8020  -31.6740 C   0  0  0  0  0  0  0  0  0  0  0  0
   -8.5390   23.7760  -31.8330 O   0  0  0  0  0  0  0  0  0  0  0  0
   -8.1860   21.5290  -31.8910 N   0  0  0  0  0  0  0  0  0  0  0  0
   -9.5110   21.1190  -32.3440 C   0  0  0  0  0  0  0  0  0  0  0  0
  -10.2739   21.3955  -31.6014 H   0  0  0  0  0  0  0  0  0  0  0  0
   -9.7901   21.6103  -33.2878 H   0  0  0  0  0  0  0  0  0  0  0  0
   -9.4370   19.5790  -32.4970 C   0  0  0  0  0  0  0  0  0  0  0  0
  -10.1905   19.0882  -31.8635 H   0  0  0  0  0  0  0  0  0  0  0  0
   -9.6386   19.2497  -33.5270 H   0  0  0  0  0  0  0  0  0  0  0  0
   -6.3960   17.5310  -32.8020 C   0  0  0  0  0  0  0  0  0  0  0  0
   -5.5990   16.4590  -32.3650 C   0  0  0  0  0  0  0  0  0  0  0  0
   -5.8413   15.9441  -31.4236 H   0  0  0  0  0  0  0  0  0  0  0  0
   -4.5000   16.0450  -33.1220 C   0  0  0  0  0  0  0  0  0  0  0  0
   -3.8676   15.2184  -32.7659 H   0  0  0  0  0  0  0  0  0  0  0  0
   -4.2030   16.6810  -34.3330 C   0  0  0  0  0  0  0  0  0  0  0  0
   -2.6940   16.1200  -35.3600 Br  0  0  0  0  0  0  0  0  0  0  0  0
   -5.0150   17.7230  -34.7910 C   0  0  0  0  0  0  0  0  0  0  0  0
   -4.7889   18.2149  -35.7486 H   0  0  0  0  0  0  0  0  0  0  0  0
   -6.1140   18.1410  -34.0340 C   0  0  0  0  0  0  0  0  0  0  0  0
   -6.7595   18.9505  -34.4054 H   0  0  0  0  0  0  0  0  0  0  0  0
  1  2  1  0
  2  3  2  0
  3  4  1  0
  4  5  2  0
  5  6  1  0
  6  7  2  0
  7  8  1  0
  7  9  1  0
  9 10  1  0
 10 11  1  0
 10 12  1  0
 12 13  1  0
 12 14  1  0
 12 15  1  0
 15 16  1  0
 15 17  1  0
 15 18  1  0
 18 19  1  0
 18 20  1  0
 18 21  1  0
 21 22  1  0
 22 23  1  0
 22 24  1  0
 22 25  1  0
 21 26  1  0
 26 27  1  0
 26 28  1  0
 26 29  1  0
 29 30  1  0
 29 31  1  0
 29 32  1  0
  9 33  2  0
 33 34  1  0
 33 35  1  0
 35 36  1  0
 35 37  2  0
 37 38  1  0
 38 39  2  0
 38 40  1  0
 40 41  1  0
 41 42  1  0
 41 43  1  0
 41 44  1  0
 44 45  1  0
 44 46  1  0
  2 47  1  0
 47 48  2  0
 48 49  1  0
 48 50  1  0
 50 51  1  0
 50 52  2  0
 52 53  1  0
 52 54  1  0
 54 55  1  0
 54 56  2  0
 56 57  1  0
 44  3  1  0
 56 47  1  0
 40  4  1  0
 37  6  1  0
M  END
>  <UniqueID>  (16) 
16

>  <SMILES>  (16) 
CCN(C)CCCNc1cc2nc3n(c(=O)c2cc1F)CC/C3=C/c1ccc(Br)cc1

>  <Energy>  (16) 
80.52902835601829

>  <Genealogy>  (16) 
CCN(C)CCCNc1cc2nc3n(c(=O)c2cc1F)CC/C3=C/c1ccc(Br)cc1 (cis-trans isomerization)
CCN(C)CCCNc1cc2nc3n(c(=O)c2cc1F)CC/C3=C/c1ccc(Br)cc1 (3D coordinates assigned)
CCN(C)CCCNc1cc2nc3n(c(=O)c2cc1F)CC/C3=C/c1ccc(Br)cc1 (nonaromatic ring conformer: 80.52902835601829 kcal/mol)

>  <smiles>  (16) 
CCN(C)CCCNc1cc2nc3n(c(=O)c2cc1F)CCC3=Cc1ccc(Br)cc1

>  <score_type>  (16) 
oracle

>  <origin>  (16) 
adg

>  <m_score__min__energy>  (16) 
-9.7699999999999996

>  <m_primary>  (16) 
energy

$$$$
16:0
     RDKit          3D

 42 44  0  0  0  0  0  0  0  0999 V2000
   -5.2030   15.8950  -32.8460 C   0  0  0  0  0  0  0  0  0  0  0  0
   -6.2750   15.6300  -33.8980 C   0  0  0  0  0  0  0  0  0  0  0  0
   -7.0840   16.7880  -34.1000 O   0  0  0  0  0  0  0  0  0  0  0  0
   -6.8950   18.0360  -33.4840 C   0  0  0  0  0  0  0  0  0  0  0  0
   -7.6700   18.3410  -32.3600 C   0  0  0  0  0  0  0  0  0  0  0  0
   -7.5260   19.5680  -31.7060 C   0  0  0  0  0  0  0  0  0  0  0  0
   -6.6000   20.5190  -32.1710 C   0  0  0  0  0  0  0  0  0  0  0  0
   -6.4280   21.8230  -31.4940 C   0  0  0  0  0  0  0  0  0  0  0  0
   -5.4510   22.7740  -31.7310 C   0  0  0  0  0  0  0  0  0  0  0  0
   -5.7570   23.7860  -30.8430 C   0  0  0  0  0  0  0  0  0  0  0  0
   -5.0140   25.0440  -30.6470 C   0  0  0  0  0  0  0  0  0  0  0  0
   -5.6540   26.1250  -30.5620 O   0  0  0  0  0  0  0  0  0  0  0  0
   -3.5890   25.0710  -30.4890 N   0  0  0  0  0  0  0  0  0  0  0  0
   -2.8100   24.1590  -29.7000 C   0  0  0  0  0  0  0  0  0  0  0  0
   -3.0360   22.7720  -29.7580 C   0  0  0  0  0  0  0  0  0  0  0  0
   -2.2580   21.8980  -28.9950 C   0  0  0  0  0  0  0  0  0  0  0  0
   -1.2400   22.3980  -28.1820 C   0  0  0  0  0  0  0  0  0  0  0  0
   -0.9910   23.7720  -28.1360 C   0  0  0  0  0  0  0  0  0  0  0  0
   -1.7710   24.6630  -28.9000 C   0  0  0  0  0  0  0  0  0  0  0  0
   -1.5480   26.0490  -28.8830 O   0  0  0  0  0  0  0  0  0  0  0  0
   -0.8530   26.7420  -27.8520 C   0  0  0  0  0  0  0  0  0  0  0  0
   -6.8380   23.4380  -30.1180 N   0  0  0  0  0  0  0  0  0  0  0  0
   -7.2140   22.2650  -30.5370 O   0  0  0  0  0  0  0  0  0  0  0  0
   -5.8240   20.2140  -33.3010 C   0  0  0  0  0  0  0  0  0  0  0  0
   -5.9690   18.9870  -33.9550 C   0  0  0  0  0  0  0  0  0  0  0  0
   -5.6397   15.7870  -31.8422 H   0  0  0  0  0  0  0  0  0  0  0  0
   -4.3825   15.1726  -32.9685 H   0  0  0  0  0  0  0  0  0  0  0  0
   -4.8136   16.9164  -32.9685 H   0  0  0  0  0  0  0  0  0  0  0  0
   -5.7896   15.3591  -34.8472 H   0  0  0  0  0  0  0  0  0  0  0  0
   -6.9169   14.8081  -33.5480 H   0  0  0  0  0  0  0  0  0  0  0  0
   -8.4002   17.6077  -31.9870 H   0  0  0  0  0  0  0  0  0  0  0  0
   -8.1410   19.7913  -30.8218 H   0  0  0  0  0  0  0  0  0  0  0  0
   -4.6249   22.7333  -32.4562 H   0  0  0  0  0  0  0  0  0  0  0  0
   -3.8294   22.3735  -30.4074 H   0  0  0  0  0  0  0  0  0  0  0  0
   -2.4479   20.8153  -29.0351 H   0  0  0  0  0  0  0  0  0  0  0  0
   -0.6326   21.7093  -27.5764 H   0  0  0  0  0  0  0  0  0  0  0  0
   -0.1818   24.1604  -27.5001 H   0  0  0  0  0  0  0  0  0  0  0  0
   -1.2059   26.3901  -26.8714 H   0  0  0  0  0  0  0  0  0  0  0  0
    0.2262   26.5497  -27.9440 H   0  0  0  0  0  0  0  0  0  0  0  0
   -1.0422   27.8217  -27.9440 H   0  0  0  0  0  0  0  0  0  0  0  0
   -5.0949   20.9478  -33.6752 H   0  0  0  0  0  0  0  0  0  0  0  0
   -5.3572   18.7633  -34.8414 H   0  0  0  0  0  0  0  0  0  0  0  0
  1  2  1  0
  2  3  1  0
  3  4  1  0
  4  5  2  0
  5  6  1  0
  6  7  2  0
  7  8  1  0
  8  9  2  0
  9 10  1  0
 10 11  1  0
 11 12  2  0
 11 13  1  0
 13 14  1  0
 14 15  2  0
 15 16  1  0
 16 17  2  0
 17 18  1  0
 18 19  2  0
 19 20  1  0
 20 21  1  0
 10 22  2  0
 22 23  1  0
  7 24  1  0
 24 25  2  0
 25  4  1  0
 23  8  1  0
 19 14  1  0
  1 26  1  0
  1 27  1  0
  1 28  1  0
  2 29  1  0
  2 30  1  0
  5 31  1  0
  6 32  1  0
  9 33  1  0
 15 34  1  0
 16 35  1  0
 17 36  1  0
 18 37  1  0
 21 38  1  0
 21 39  1  0
 21 40  1  0
 24 41  1  0
 25 42  1  0
M  CHG  1  13  -1
M  END
>  <UniqueID>  (17) 
17

>  <SMILES>  (17) 
CCOc1ccc(-c2cc(C(=O)[N-]c3ccccc3OC)no2)cc1

>  <Energy>  (17) 
77.98041388415373

>  <Genealogy>  (17) 
CCOc1ccc(-c2cc(C(=O)[N-]c3ccccc3OC)no2)cc1 (protonated)
CCOc1ccc(-c2cc(C(=O)[N-]c3ccccc3OC)no2)cc1 (3D coordinates assigned)
CCOc1ccc(-c2cc(C(=O)[N-]c3ccccc3OC)no2)cc1 (optimized conformer: 77.98041388415373 kcal/mol)

>  <smiles>  (17) 
CCOc1ccc(-c2cc(C(=O)Nc3ccccc3OC)no2)cc1

>  <score_type>  (17) 
oracle

>  <origin>  (17) 
adg

>  <m_score__min__energy>  (17) 
-10.539999999999999

>  <m_primary>  (17) 
energy

$$$$
17:0
     RDKit          3D

 57 59  0  0  0  0  0  0  0  0999 V2000
   -3.0650   22.8630  -27.8300 C   0  0  0  0  0  0  0  0  0  0  0  0
   -1.9770   22.0760  -28.3030 O   0  0  0  0  0  0  0  0  0  0  0  0
   -1.6860   20.7720  -27.8670 C   0  0  0  0  0  0  0  0  0  0  0  0
   -2.3700   20.1820  -26.7840 C   0  0  0  0  0  0  0  0  0  0  0  0
   -2.0560   18.8840  -26.3740 C   0  0  0  0  0  0  0  0  0  0  0  0
   -1.0590   18.1640  -27.0320 C   0  0  0  0  0  0  0  0  0  0  0  0
   -0.3730   18.7370  -28.1040 C   0  0  0  0  0  0  0  0  0  0  0  0
   -0.6860   20.0370  -28.5360 C   0  0  0  0  0  0  0  0  0  0  0  0
    0.0450   20.6310  -29.7150 C   0  0  0  0  0  0  0  0  0  0  0  0
   -0.8980   21.1400  -30.7100 N   0  0  0  0  0  0  0  0  0  0  0  0
   -0.8570   20.7010  -32.0740 C   0  0  0  0  0  0  0  0  0  0  0  0
   -0.0690   19.7810  -32.4220 O   0  0  0  0  0  0  0  0  0  0  0  0
   -1.7260   21.3600  -33.1040 C   0  0  0  0  0  0  0  0  0  0  0  0
   -3.1540   21.0940  -32.8440 N   0  0  0  0  0  0  0  0  0  0  0  0
   -3.4110   19.6420  -32.7650 C   0  0  0  0  0  0  0  0  0  0  0  0
   -4.8900   19.3770  -32.6570 C   0  0  0  0  0  0  0  0  0  0  0  0
   -5.3870   18.4900  -31.6870 C   0  0  0  0  0  0  0  0  0  0  0  0
   -6.7600   18.2380  -31.5990 C   0  0  0  0  0  0  0  0  0  0  0  0
   -7.6440   18.8600  -32.4850 C   0  0  0  0  0  0  0  0  0  0  0  0
   -7.1570   19.7310  -33.4640 C   0  0  0  0  0  0  0  0  0  0  0  0
   -5.7850   19.9840  -33.5550 C   0  0  0  0  0  0  0  0  0  0  0  0
   -3.6850   21.8960  -31.3750 S   0  0  0  0  0  0  0  0  0  0  0  0
   -2.8440   23.1160  -31.1100 O   0  0  0  0  0  0  0  0  0  0  0  0
   -3.5780   20.9800  -30.1880 O   0  0  0  0  0  0  0  0  0  0  0  0
   -5.3750   22.3490  -31.5590 C   0  0  0  0  0  0  0  0  0  0  0  0
   -6.3810   21.6930  -30.8370 C   0  0  0  0  0  0  0  0  0  0  0  0
   -7.7210   22.0560  -31.0090 C   0  0  0  0  0  0  0  0  0  0  0  0
   -8.0670   23.0860  -31.8980 C   0  0  0  0  0  0  0  0  0  0  0  0
   -9.5090   23.4360  -32.1180 C   0  0  0  0  0  0  0  0  0  0  0  0
   -7.0570   23.7390  -32.6210 C   0  0  0  0  0  0  0  0  0  0  0  0
   -5.7190   23.3760  -32.4470 C   0  0  0  0  0  0  0  0  0  0  0  0
   -3.0660   22.8637  -26.7300 H   0  0  0  0  0  0  0  0  0  0  0  0
   -2.9584   23.8944  -28.1973 H   0  0  0  0  0  0  0  0  0  0  0  0
   -4.0112   22.4389  -28.1973 H   0  0  0  0  0  0  0  0  0  0  0  0
   -3.1548   20.7468  -26.2594 H   0  0  0  0  0  0  0  0  0  0  0  0
   -2.5961   18.4289  -25.5306 H   0  0  0  0  0  0  0  0  0  0  0  0
   -0.8129   17.1428  -26.7055 H   0  0  0  0  0  0  0  0  0  0  0  0
    0.4178   18.1673  -28.6140 H   0  0  0  0  0  0  0  0  0  0  0  0
    0.6810   21.4576  -29.3654 H   0  0  0  0  0  0  0  0  0  0  0  0
    0.6582   19.8455  -30.1809 H   0  0  0  0  0  0  0  0  0  0  0  0
   -1.6120   21.8550  -30.4390 H   0  0  0  0  0  0  0  0  0  0  0  0
   -1.5525   22.4459  -33.0786 H   0  0  0  0  0  0  0  0  0  0  0  0
   -1.4687   20.9500  -34.0918 H   0  0  0  0  0  0  0  0  0  0  0  0
   -3.0204   19.1547  -33.6705 H   0  0  0  0  0  0  0  0  0  0  0  0
   -2.9095   19.2383  -31.8731 H   0  0  0  0  0  0  0  0  0  0  0  0
   -4.6933   17.9917  -30.9939 H   0  0  0  0  0  0  0  0  0  0  0  0
   -7.1443   17.5497  -30.8318 H   0  0  0  0  0  0  0  0  0  0  0  0
   -8.7239   18.6640  -32.4119 H   0  0  0  0  0  0  0  0  0  0  0  0
   -7.8534   20.2174  -34.1629 H   0  0  0  0  0  0  0  0  0  0  0  0
   -5.4040   20.6615  -34.3333 H   0  0  0  0  0  0  0  0  0  0  0  0
   -6.1163   20.8903  -30.1330 H   0  0  0  0  0  0  0  0  0  0  0  0
   -8.5070   21.5321  -30.4453 H   0  0  0  0  0  0  0  0  0  0  0  0
  -10.0093   23.5574  -31.1459 H   0  0  0  0  0  0  0  0  0  0  0  0
   -9.5757   24.3764  -32.6847 H   0  0  0  0  0  0  0  0  0  0  0  0
   -9.9994   22.6308  -32.6847 H   0  0  0  0  0  0  0  0  0  0  0  0
   -7.3197   24.5400  -33.3277 H   0  0  0  0  0  0  0  0  0  0  0  0
   -4.9321   23.8993  -33.0101 H   0  0  0  0  0  0  0  0  0  0  0  0
  1  2  1  0
  2  3  1  0
  3  4  2  0
  4  5  1  0
  5  6  2  0
  6  7  1  0
  7  8  2  0
  8  9  1  0
  9 10  1  0
 10 11  1  0
 11 12  2  0
 11 13  1  0
 13 14  1  0
 14 15  1  0
 15 16  1  0
 16 17  2  0
 17 18  1  0
 18 19  2  0
 19 20  1  0
 20 21  2  0
 14 22  1  0
 22 23  2  0
 22 24  2  0
 22 25  1  0
 25 26  2  0
 26 27  1  0
 27 28  2  0
 28 29  1  0
 28 30  1  0
 30 31  2  0
  8  3  1  0
 21 16  1  0
 31 25  1  0
  1 32  1  0
  1 33  1  0
  1 34  1  0
  4 35  1  0
  5 36  1  0
  6 37  1  0
  7 38  1  0
  9 39  1  0
  9 40  1  0
 10 41  1  0
 13 42  1  0
 13 43  1  0
 15 44  1  0
 15 45  1  0
 17 46  1  0
 18 47  1  0
 19 48  1  0
 20 49  1  0
 21 50  1  0
 26 51  1  0
 27 52  1  0
 29 53  1  0
 29 54  1  0
 29 55  1  0
 30 56  1  0
 31 57  1  0
M  END
>  <UniqueID>  (18) 
18

>  <SMILES>  (18) 
COc1ccccc1CNC(=O)CN(Cc1ccccc1)S(=O)(=O)c1ccc(C)cc1

>  <Energy>  (18) 
51.066881874373685

>  <Genealogy>  (18) 
COc1ccccc1CNC(=O)CN(Cc1ccccc1)S(=O)(=O)c1ccc(C)cc1 (3D coordinates assigned)
COc1ccccc1CNC(=O)CN(Cc1ccccc1)S(=O)(=O)c1ccc(C)cc1 (optimized conformer: 51.066881874373685 kcal/mol)

>  <smiles>  (18) 
COc1ccccc1CNC(=O)CN(Cc1ccccc1)S(=O)(=O)c1ccc(C)cc1

>  <score_type>  (18) 
oracle

>  <origin>  (18) 
adg

>  <m_score__min__energy>  (18) 
-10.869999999999999

>  <m_primary>  (18) 
energy

$$$$
18:0
     RDKit          3D

 50 52  0  0  0  0  0  0  0  0999 V2000
   -5.3150   25.5540  -30.5550 C   0  0  0  0  0  0  0  0  0  0  0  0
   -3.9310   25.2930  -30.4930 O   0  0  0  0  0  0  0  0  0  0  0  0
   -3.6190   24.5520  -29.3280 C   0  0  0  0  0  0  0  0  0  0  0  0
   -4.6030   23.3920  -29.1370 C   0  0  0  0  0  0  0  0  0  0  0  0
   -4.5490   22.4600  -30.2820 N   0  0  0  0  0  0  0  0  0  0  0  0
   -3.3470   21.9010  -30.6580 C   0  0  0  0  0  0  0  0  0  0  0  0
   -2.2830   22.1530  -30.0300 O   0  0  0  0  0  0  0  0  0  0  0  0
   -3.3330   21.0420  -31.7500 C   0  0  0  0  0  0  0  0  0  0  0  0
   -4.4730   20.7790  -32.4280 C   0  0  0  0  0  0  0  0  0  0  0  0
   -4.2440   19.9160  -33.4360 N   0  0  0  0  0  0  0  0  0  0  0  0
   -2.9100   19.6760  -33.3310 C   0  0  0  0  0  0  0  0  0  0  0  0
   -2.1870   18.7530  -34.2580 C   0  0  0  0  0  0  0  0  0  0  0  0
   -2.3210   20.3550  -32.3080 N   0  0  0  0  0  0  0  0  0  0  0  0
   -0.9180   20.3320  -31.8940 C   0  0  0  0  0  0  0  0  0  0  0  0
   -5.6680   21.3370  -32.0910 N   0  0  0  0  0  0  0  0  0  0  0  0
   -6.8890   20.9970  -32.8400 C   0  0  0  0  0  0  0  0  0  0  0  0
   -7.8480   20.1980  -31.9530 C   0  0  0  0  0  0  0  0  0  0  0  0
   -8.2480   18.8780  -32.6190 C   0  0  0  0  0  0  0  0  0  0  0  0
   -7.0370   18.0150  -32.8520 C   0  0  0  0  0  0  0  0  0  0  0  0
   -6.4880   17.8990  -34.1410 C   0  0  0  0  0  0  0  0  0  0  0  0
   -5.3820   17.0700  -34.3620 C   0  0  0  0  0  0  0  0  0  0  0  0
   -4.8260   16.3470  -33.3030 C   0  0  0  0  0  0  0  0  0  0  0  0
   -5.3760   16.4470  -32.0230 C   0  0  0  0  0  0  0  0  0  0  0  0
   -6.4800   17.2750  -31.7960 C   0  0  0  0  0  0  0  0  0  0  0  0
   -5.7010   22.1800  -30.9980 C   0  0  0  0  0  0  0  0  0  0  0  0
   -6.7990   22.6990  -30.6480 O   0  0  0  0  0  0  0  0  0  0  0  0
   -5.7198   25.6303  -29.5350 H   0  0  0  0  0  0  0  0  0  0  0  0
   -5.4861   26.5002  -31.0892 H   0  0  0  0  0  0  0  0  0  0  0  0
   -5.8190   24.7351  -31.0892 H   0  0  0  0  0  0  0  0  0  0  0  0
   -2.6000   24.1482  -29.4203 H   0  0  0  0  0  0  0  0  0  0  0  0
   -3.6904   25.2202  -28.4571 H   0  0  0  0  0  0  0  0  0  0  0  0
   -4.3435   22.8476  -28.2171 H   0  0  0  0  0  0  0  0  0  0  0  0
   -5.6209   23.8030  -29.0665 H   0  0  0  0  0  0  0  0  0  0  0  0
   -1.6130   18.0202  -33.6719 H   0  0  0  0  0  0  0  0  0  0  0  0
   -2.9150   18.2259  -34.8922 H   0  0  0  0  0  0  0  0  0  0  0  0
   -1.5009   19.3336  -34.8922 H   0  0  0  0  0  0  0  0  0  0  0  0
   -0.8598   20.3310  -30.7955 H   0  0  0  0  0  0  0  0  0  0  0  0
   -0.4344   19.4258  -32.2876 H   0  0  0  0  0  0  0  0  0  0  0  0
   -0.4049   21.2219  -32.2876 H   0  0  0  0  0  0  0  0  0  0  0  0
   -7.3838   21.9230  -33.1681 H   0  0  0  0  0  0  0  0  0  0  0  0
   -6.6160   20.3873  -33.7139 H   0  0  0  0  0  0  0  0  0  0  0  0
   -7.3538   19.9811  -30.9945 H   0  0  0  0  0  0  0  0  0  0  0  0
   -8.7565   20.7973  -31.7938 H   0  0  0  0  0  0  0  0  0  0  0  0
   -8.9534   18.3428  -31.9663 H   0  0  0  0  0  0  0  0  0  0  0  0
   -8.7191   19.0979  -33.5884 H   0  0  0  0  0  0  0  0  0  0  0  0
   -6.9286   18.4609  -34.9777 H   0  0  0  0  0  0  0  0  0  0  0  0
   -4.9500   16.9875  -35.3702 H   0  0  0  0  0  0  0  0  0  0  0  0
   -3.9546   15.6988  -33.4777 H   0  0  0  0  0  0  0  0  0  0  0  0
   -4.9400   15.8734  -31.1918 H   0  0  0  0  0  0  0  0  0  0  0  0
   -6.9134   17.3469  -30.7875 H   0  0  0  0  0  0  0  0  0  0  0  0
  1  2  1  0
  2  3  1  0
  3  4  1  0
  4  5  1  0
  5  6  1  0
  6  7  2  0
  6  8  1  0
  8  9  2  0
  9 10  1  0
 10 11  2  0
 11 12  1  0
 11 13  1  0
 13 14  1  0
  9 15  1  0
 15 16  1  0
 16 17  1  0
 17 18  1  0
 18 19  1  0
 19 20  2  0
 20 21  1  0
 21 22  2  0
 22 23  1  0
 23 24  2  0
 15 25  1  0
 25 26  2  0
 25  5  1  0
 13  8  1  0
 24 19  1  0
  1 27  1  0
  1 28  1  0
  1 29  1  0
  3 30  1  0
  3 31  1  0
  4 32  1  0
  4 33  1  0
 12 34  1  0
 12 35  1  0
 12 36  1  0
 14 37  1  0
 14 38  1  0
 14 39  1  0
 16 40  1  0
 16 41  1  0
 17 42  1  0
 17 43  1  0
 18 44  1  0
 18 45  1  0
 20 46  1  0
 21 47  1  0
 22 48  1  0
 23 49  1  0
 24 50  1  0
M  END
>  <UniqueID>  (19) 
19

>  <SMILES>  (19) 
COCCn1c(=O)c2c(nc(C)n2C)n(CCCc2ccccc2)c1=O

>  <Energy>  (19) 
90.69855532114688

>  <Genealogy>  (19) 
COCCn1c(=O)c2c(nc(C)n2C)n(CCCc2ccccc2)c1=O (3D coordinates assigned)
COCCn1c(=O)c2c(nc(C)n2C)n(CCCc2ccccc2)c1=O (optimized conformer: 90.69855532114688 kcal/mol)

>  <smiles>  (19) 
COCCn1c(=O)c2c(nc(C)n2C)n(CCCc2ccccc2)c1=O

>  <score_type>  (19) 
oracle

>  <origin>  (19) 
adg

>  <m_score__min__energy>  (19) 
-8.1999999999999993

>  <m_primary>  (19) 
energy

$$$$
19:0
     RDKit          3D

 34 36  0  0  0  0  0  0  0  0999 V2000
    0.5710   20.0180  -31.7750 C   0  0  0  0  0  0  0  0  0  0  0  0
   -0.2880   20.6220  -32.7360 O   0  0  0  0  0  0  0  0  0  0  0  0
   -1.5920   21.0660  -32.4660 C   0  0  0  0  0  0  0  0  0  0  0  0
   -2.5850   21.1310  -33.4560 C   0  0  0  0  0  0  0  0  0  0  0  0
   -3.8660   21.5810  -33.1390 C   0  0  0  0  0  0  0  0  0  0  0  0
   -4.1860   21.9740  -31.8250 C   0  0  0  0  0  0  0  0  0  0  0  0
   -5.4700   22.4310  -31.4940 O   0  0  0  0  0  0  0  0  0  0  0  0
   -6.0280   23.6710  -31.9150 C   0  0  0  0  0  0  0  0  0  0  0  0
   -3.1920   21.9050  -30.8190 C   0  0  0  0  0  0  0  0  0  0  0  0
   -3.4630   22.3240  -29.3790 C   0  0  1  0  0  0  0  0  0  0  0  0
   -3.1500   21.1790  -28.3650 C   0  0  0  0  0  0  0  0  0  0  0  0
   -1.7890   21.2680  -27.6960 C   0  0  0  0  0  0  0  0  0  0  0  0
   -1.2580   20.2270  -27.2270 O   0  0  0  0  0  0  0  0  0  0  0  0
   -1.1350   22.5300  -27.5180 N   0  0  0  0  0  0  0  0  0  0  0  0
   -1.6790   23.6650  -28.1790 C   0  0  0  0  0  0  0  0  0  0  0  0
   -1.2260   24.9650  -28.1660 C   0  0  0  0  0  0  0  0  0  0  0  0
   -1.9840   25.6750  -28.9800 O   0  0  0  0  0  0  0  0  0  0  0  0
   -2.8910   24.8780  -29.5110 C   0  0  0  0  0  0  0  0  0  0  0  0
   -3.8460   25.2900  -30.4310 O   0  0  0  0  0  0  0  0  0  0  0  0
   -2.7400   23.5950  -29.0320 C   0  0  0  0  0  0  0  0  0  0  0  0
   -1.9030   21.4530  -31.1600 C   0  0  0  0  0  0  0  0  0  0  0  0
    0.2195   20.2651  -30.7624 H   0  0  0  0  0  0  0  0  0  0  0  0
    0.5620   18.9264  -31.9100 H   0  0  0  0  0  0  0  0  0  0  0  0
    1.5952   20.3958  -31.9100 H   0  0  0  0  0  0  0  0  0  0  0  0
   -2.3514   20.8255  -34.4866 H   0  0  0  0  0  0  0  0  0  0  0  0
   -4.6352   21.6296  -33.9239 H   0  0  0  0  0  0  0  0  0  0  0  0
   -6.2976   24.2701  -31.0328 H   0  0  0  0  0  0  0  0  0  0  0  0
   -5.2898   24.2191  -32.5188 H   0  0  0  0  0  0  0  0  0  0  0  0
   -6.9278   23.4820  -32.5188 H   0  0  0  0  0  0  0  0  0  0  0  0
   -4.5409   22.5280  -29.2981 H   0  0  0  0  0  0  0  0  0  0  0  0
   -3.9188   21.2001  -27.5786 H   0  0  0  0  0  0  0  0  0  0  0  0
   -3.1460   20.2456  -28.9470 H   0  0  0  0  0  0  0  0  0  0  0  0
   -0.3780   25.3463  -27.5782 H   0  0  0  0  0  0  0  0  0  0  0  0
   -1.1257   21.4036  -30.3832 H   0  0  0  0  0  0  0  0  0  0  0  0
  1  2  1  0
  2  3  1  0
  3  4  2  0
  4  5  1  0
  5  6  2  0
  6  7  1  0
  7  8  1  0
  6  9  1  0
  9 10  1  0
 10 11  1  0
 11 12  1  0
 12 13  2  0
 12 14  1  0
 14 15  1  0
 15 16  2  0
 16 17  1  0
 17 18  1  0
 18 19  1  0
 18 20  2  0
  9 21  2  0
 21  3  1  0
 20 10  1  0
 20 15  1  0
  1 22  1  0
  1 23  1  0
  1 24  1  0
  4 25  1  0
  5 26  1  0
  8 27  1  0
  8 28  1  0
  8 29  1  0
 10 30  1  6
 11 31  1  0
 11 32  1  0
 16 33  1  0
 21 34  1  0
M  CHG  2  14  -1  19  -1
M  END
>  <UniqueID>  (20) 
20

>  <SMILES>  (20) 
COc1ccc(OC)c([C@H]2CC(=O)[N-]c3coc([O-])c32)c1

>  <Energy>  (20) 
70.55868736110094

>  <Genealogy>  (20) 
COc1ccc(OC)c(C2CC(=O)[N-]c3coc([O-])c32)c1 (protonated)
COc1ccc(OC)c([C@H]2CC(=O)[N-]c3coc([O-])c32)c1 (chirality)
COc1ccc(OC)c([C@H]2CC(=O)[N-]c3coc([O-])c32)c1 (3D coordinates assigned)
COc1ccc(OC)c([C@H]2CC(=O)[N-]c3coc([O-])c32)c1 (nonaromatic ring conformer: 70.55868736110094 kcal/mol)

>  <smiles>  (20) 
COc1ccc(OC)c(C2CC(=O)Nc3coc(O)c32)c1

>  <score_type>  (20) 
oracle

>  <origin>  (20) 
adg

>  <m_score__min__energy>  (20) 
-8.5999999999999996

>  <m_primary>  (20) 
energy

$$$$
20:0
     RDKit          3D

 52 55  0  0  0  0  0  0  0  0999 V2000
   -2.1300   19.6450  -33.7880 C   0  0  0  0  0  0  0  0  0  0  0  0
   -3.1390   18.5880  -34.2320 C   0  0  0  0  0  0  0  0  0  0  0  0
   -3.0720   17.3960  -33.3530 N   0  0  0  0  0  0  0  0  0  0  0  0
   -1.7030   16.8260  -33.3520 C   0  0  0  0  0  0  0  0  0  0  0  0
   -1.7170   15.3990  -32.8130 C   0  0  0  0  0  0  0  0  0  0  0  0
   -4.0640   16.3760  -33.7710 C   0  0  0  0  0  0  0  0  0  0  0  0
   -5.4480   16.6520  -33.1610 C   0  0  0  0  0  0  0  0  0  0  0  0
   -5.4640   17.9270  -32.4410 N   0  0  0  0  0  0  0  0  0  0  0  0
   -6.6220   18.7720  -32.3620 C   0  0  0  0  0  0  0  0  0  0  0  0
   -7.9020   18.2460  -32.7050 C   0  0  0  0  0  0  0  0  0  0  0  0
   -9.0650   19.0400  -32.6240 C   0  0  0  0  0  0  0  0  0  0  0  0
   -8.9230   20.3500  -32.1870 C   0  0  0  0  0  0  0  0  0  0  0  0
   -9.8380   21.3740  -32.0130 C   0  0  0  0  0  0  0  0  0  0  0  0
   -9.0920   22.4710  -31.5700 C   0  0  0  0  0  0  0  0  0  0  0  0
   -7.7820   22.1300  -31.4790 N   0  0  0  0  0  0  0  0  0  0  0  0
   -6.6760   22.8420  -31.1240 C   0  0  0  0  0  0  0  0  0  0  0  0
   -6.7510   24.1880  -30.7320 C   0  0  0  0  0  0  0  0  0  0  0  0
   -5.5930   24.8860  -30.3840 C   0  0  0  0  0  0  0  0  0  0  0  0
   -4.3380   24.2510  -30.4220 C   0  0  0  0  0  0  0  0  0  0  0  0
   -3.1500   24.9160  -30.0810 O   0  0  0  0  0  0  0  0  0  0  0  0
   -2.2450   24.4780  -29.0720 C   0  0  0  0  0  0  0  0  0  0  0  0
   -4.2560   22.9090  -30.8120 C   0  0  0  0  0  0  0  0  0  0  0  0
   -5.4110   22.1870  -31.1650 C   0  0  0  0  0  0  0  0  0  0  0  0
   -5.3370   20.8220  -31.5710 C   0  0  0  0  0  0  0  0  0  0  0  0
   -4.2140   20.2510  -31.6420 O   0  0  0  0  0  0  0  0  0  0  0  0
   -6.5230   20.1240  -31.9130 C   0  0  0  0  0  0  0  0  0  0  0  0
   -7.7060   20.8490  -31.8510 C   0  0  0  0  0  0  0  0  0  0  0  0
   -2.0959   19.6807  -32.6891 H   0  0  0  0  0  0  0  0  0  0  0  0
   -1.1340   19.3877  -34.1775 H   0  0  0  0  0  0  0  0  0  0  0  0
   -2.4333   20.6280  -34.1775 H   0  0  0  0  0  0  0  0  0  0  0  0
   -4.1520   19.0141  -34.1856 H   0  0  0  0  0  0  0  0  0  0  0  0
   -2.8999   18.2818  -35.2611 H   0  0  0  0  0  0  0  0  0  0  0  0
   -1.3128   16.8203  -34.3805 H   0  0  0  0  0  0  0  0  0  0  0  0
   -1.0618   17.4434  -32.7057 H   0  0  0  0  0  0  0  0  0  0  0  0
   -1.7168   15.4224  -31.7132 H   0  0  0  0  0  0  0  0  0  0  0  0
   -2.6203   14.8816  -33.1685 H   0  0  0  0  0  0  0  0  0  0  0  0
   -0.8241   14.8640  -33.1685 H   0  0  0  0  0  0  0  0  0  0  0  0
   -4.1481   16.3877  -34.8677 H   0  0  0  0  0  0  0  0  0  0  0  0
   -3.7198   15.3938  -33.4148 H   0  0  0  0  0  0  0  0  0  0  0  0
   -6.1954   16.6858  -33.9674 H   0  0  0  0  0  0  0  0  0  0  0  0
   -5.6821   15.8467  -32.4491 H   0  0  0  0  0  0  0  0  0  0  0  0
   -4.5940   18.2150  -31.9400 H   0  0  0  0  0  0  0  0  0  0  0  0
   -7.9841   17.2012  -33.0391 H   0  0  0  0  0  0  0  0  0  0  0  0
  -10.0505   18.6352  -32.8977 H   0  0  0  0  0  0  0  0  0  0  0  0
  -10.9235   21.3335  -32.1866 H   0  0  0  0  0  0  0  0  0  0  0  0
   -9.5055   23.4619  -31.3311 H   0  0  0  0  0  0  0  0  0  0  0  0
   -7.7266   24.6950  -30.6989 H   0  0  0  0  0  0  0  0  0  0  0  0
   -5.6623   25.9403  -30.0778 H   0  0  0  0  0  0  0  0  0  0  0  0
   -2.6733   24.6853  -28.0802 H   0  0  0  0  0  0  0  0  0  0  0  0
   -2.0727   23.3968  -29.1783 H   0  0  0  0  0  0  0  0  0  0  0  0
   -1.2901   25.0137  -29.1783 H   0  0  0  0  0  0  0  0  0  0  0  0
   -3.2751   22.4121  -30.8429 H   0  0  0  0  0  0  0  0  0  0  0  0
  1  2  1  0
  2  3  1  0
  3  4  1  0
  4  5  1  0
  3  6  1  0
  6  7  1  0
  7  8  1  0
  8  9  1  0
  9 10  2  0
 10 11  1  0
 11 12  2  0
 12 13  1  0
 13 14  2  0
 14 15  1  0
 15 16  1  0
 16 17  2  0
 17 18  1  0
 18 19  2  0
 19 20  1  0
 20 21  1  0
 19 22  1  0
 22 23  2  0
 23 24  1  0
 24 25  2  0
 24 26  1  0
 26 27  2  0
 26  9  1  0
 27 12  1  0
 27 15  1  0
 23 16  1  0
  1 28  1  0
  1 29  1  0
  1 30  1  0
  2 31  1  0
  2 32  1  0
  4 33  1  0
  4 34  1  0
  5 35  1  0
  5 36  1  0
  5 37  1  0
  6 38  1  0
  6 39  1  0
  7 40  1  0
  7 41  1  0
  8 42  1  0
 10 43  1  0
 11 44  1  0
 13 45  1  0
 14 46  1  0
 17 47  1  0
 18 48  1  0
 21 49  1  0
 21 50  1  0
 21 51  1  0
 22 52  1  0
M  END
>  <UniqueID>  (21) 
21

>  <SMILES>  (21) 
CCN(CC)CCNc1ccc2ccn3c4ccc(OC)cc4c(=O)c1c23

>  <Energy>  (21) 
102.20004181599379

>  <Genealogy>  (21) 
CCN(CC)CCNc1ccc2ccn3c4ccc(OC)cc4c(=O)c1c23 (3D coordinates assigned)
CCN(CC)CCNc1ccc2ccn3c4ccc(OC)cc4c(=O)c1c23 (optimized conformer: 102.20004181599379 kcal/mol)

>  <smiles>  (21) 
CCN(CC)CCNc1ccc2ccn3c4ccc(OC)cc4c(=O)c1c23

>  <score_type>  (21) 
oracle

>  <origin>  (21) 
adg

>  <m_score__min__energy>  (21) 
-8.9100000000000001

>  <m_primary>  (21) 
energy

$$$$
21:0
     RDKit          3D

 41 43  0  0  0  0  0  0  0  0999 V2000
   -1.3230   25.5410  -28.2760 C   0  0  0  0  0  0  0  0  0  0  0  0
   -2.2430   25.2890  -29.3320 O   0  0  0  0  0  0  0  0  0  0  0  0
   -2.8950   24.0610  -29.4890 C   0  0  0  0  0  0  0  0  0  0  0  0
   -2.2750   22.9850  -29.2650 O   0  0  0  0  0  0  0  0  0  0  0  0
   -4.2720   24.0290  -29.9050 N   0  0  0  0  0  0  0  0  0  0  0  0
   -4.9440   25.2690  -30.3090 C   0  0  0  0  0  0  0  0  0  0  0  0
   -6.1000   24.9550  -31.2660 C   0  0  0  0  0  0  0  0  0  0  0  0
   -7.0730   24.0090  -30.6710 N   0  0  0  0  0  0  0  0  0  0  0  0
   -7.9820   23.4200  -31.6780 C   0  0  0  0  0  0  0  0  0  0  0  0
   -7.6880   21.9720  -31.9620 C   0  0  0  0  0  0  0  0  0  0  0  0
   -6.6390   21.5290  -32.6760 N   0  0  0  0  0  0  0  0  0  0  0  0
   -6.8160   20.1930  -32.6710 C   0  0  0  0  0  0  0  0  0  0  0  0
   -5.9340   19.2310  -33.3750 C   0  0  0  0  0  0  0  0  0  0  0  0
   -6.4940   18.0550  -33.9100 C   0  0  0  0  0  0  0  0  0  0  0  0
   -5.6930   17.1170  -34.5650 C   0  0  0  0  0  0  0  0  0  0  0  0
   -4.3230   17.3380  -34.6960 C   0  0  0  0  0  0  0  0  0  0  0  0
   -3.7500   18.5000  -34.1760 C   0  0  0  0  0  0  0  0  0  0  0  0
   -4.5420   19.4490  -33.5180 C   0  0  0  0  0  0  0  0  0  0  0  0
   -3.7480   20.9140  -32.9460 Cl  0  0  0  0  0  0  0  0  0  0  0  0
   -7.9250   19.8490  -31.9850 N   0  0  0  0  0  0  0  0  0  0  0  0
   -8.4320   20.9690  -31.5620 O   0  0  0  0  0  0  0  0  0  0  0  0
   -6.5070   23.0170  -29.7220 C   0  0  0  0  0  0  0  0  0  0  0  0
   -5.0110   22.7610  -29.9440 C   0  0  0  0  0  0  0  0  0  0  0  0
   -1.8282   25.4026  -27.3087 H   0  0  0  0  0  0  0  0  0  0  0  0
   -0.4775   24.8414  -28.3515 H   0  0  0  0  0  0  0  0  0  0  0  0
   -0.9521   26.5738  -28.3515 H   0  0  0  0  0  0  0  0  0  0  0  0
   -5.3385   25.7764  -29.4163 H   0  0  0  0  0  0  0  0  0  0  0  0
   -4.2201   25.9202  -30.8208 H   0  0  0  0  0  0  0  0  0  0  0  0
   -6.6211   25.8918  -31.5126 H   0  0  0  0  0  0  0  0  0  0  0  0
   -5.6772   24.4854  -32.1664 H   0  0  0  0  0  0  0  0  0  0  0  0
   -9.0147   23.5017  -31.3080 H   0  0  0  0  0  0  0  0  0  0  0  0
   -7.8361   23.9749  -32.6165 H   0  0  0  0  0  0  0  0  0  0  0  0
   -5.8700   22.0870  -33.1090 H   0  0  0  0  0  0  0  0  0  0  0  0
   -7.5743   17.8731  -33.8109 H   0  0  0  0  0  0  0  0  0  0  0  0
   -6.1438   16.2026  -34.9781 H   0  0  0  0  0  0  0  0  0  0  0  0
   -3.6931   16.5965  -35.2093 H   0  0  0  0  0  0  0  0  0  0  0  0
   -2.6688   18.6713  -34.2839 H   0  0  0  0  0  0  0  0  0  0  0  0
   -6.6504   23.3907  -28.6974 H   0  0  0  0  0  0  0  0  0  0  0  0
   -7.0321   22.0650  -29.8892 H   0  0  0  0  0  0  0  0  0  0  0  0
   -4.6343   22.0956  -29.1532 H   0  0  0  0  0  0  0  0  0  0  0  0
   -4.8679   22.2905  -30.9279 H   0  0  0  0  0  0  0  0  0  0  0  0
  1  2  1  0
  2  3  1  0
  3  4  2  0
  3  5  1  0
  5  6  1  0
  6  7  1  0
  7  8  1  0
  8  9  1  0
  9 10  1  0
 10 11  2  0
 11 12  1  0
 12 13  1  0
 13 14  2  0
 14 15  1  0
 15 16  2  0
 16 17  1  0
 17 18  2  0
 18 19  1  0
 12 20  2  0
 20 21  1  0
  8 22  1  0
 22 23  1  0
 23  5  1  0
 21 10  1  0
 18 13  1  0
  1 24  1  0
  1 25  1  0
  1 26  1  0
  6 27  1  0
  6 28  1  0
  7 29  1  0
  7 30  1  0
  9 31  1  0
  9 32  1  0
 11 33  1  0
 14 34  1  0
 15 35  1  0
 16 36  1  0
 17 37  1  0
 22 38  1  0
 22 39  1  0
 23 40  1  0
 23 41  1  0
M  CHG  1  11   1
M  END
>  <UniqueID>  (22) 
22

>  <SMILES>  (22) 
COC(=O)N1CCN(Cc2[nH+]c(-c3ccccc3Cl)no2)CC1

>  <Energy>  (22) 
86.4769627527896

>  <Genealogy>  (22) 
COC(=O)N1CCN(Cc2[nH+]c(-c3ccccc3Cl)no2)CC1 (protonated)
COC(=O)N1CCN(Cc2[nH+]c(-c3ccccc3Cl)no2)CC1 (3D coordinates assigned)
COC(=O)N1CCN(Cc2[nH+]c(-c3ccccc3Cl)no2)CC1 (nonaromatic ring conformer: 86.4769627527896 kcal/mol)

>  <smiles>  (22) 
COC(=O)N1CCN(Cc2nc(-c3ccccc3Cl)no2)CC1

>  <score_type>  (22) 
oracle

>  <origin>  (22) 
adg

>  <m_score__min__energy>  (22) 
-7.6399999999999997

>  <m_primary>  (22) 
energy

$$$$
22:0
     RDKit          3D

 43 45  0  0  0  0  0  0  0  0999 V2000
   -4.6550   23.0340  -28.7890 C   0  0  0  0  0  0  0  0  0  0  0  0
   -3.1430   22.8990  -29.1070 C   0  0  0  0  0  0  0  0  0  0  0  0
   -2.5960   24.3280  -29.3300 C   0  0  0  0  0  0  0  0  0  0  0  0
   -2.4580   22.2480  -27.8450 C   0  0  0  0  0  0  0  0  0  0  0  0
   -1.2910   21.2790  -28.1110 C   0  0  0  0  0  0  0  0  0  0  0  0
   -0.2580   21.8550  -29.4850 S   0  0  0  0  0  0  0  0  0  0  0  0
   -1.5940   21.5650  -30.6430 C   0  0  0  0  0  0  0  0  0  0  0  0
   -1.3500   20.7720  -31.7660 C   0  0  0  0  0  0  0  0  0  0  0  0
   -2.3580   20.5430  -32.6990 C   0  0  0  0  0  0  0  0  0  0  0  0
   -3.6250   21.1160  -32.5240 C   0  0  0  0  0  0  0  0  0  0  0  0
   -4.6820   20.8840  -33.4700 N   0  0  0  0  0  0  0  0  0  0  0  0
   -5.4520   19.6730  -33.5280 C   0  0  0  0  0  0  0  0  0  0  0  0
   -4.7180   18.2140  -33.3290 S   0  0  0  0  0  0  0  0  0  0  0  0
   -6.8600   19.7340  -33.8160 N   0  0  0  0  0  0  0  0  0  0  0  0
   -7.5160   20.5230  -32.8000 C   0  0  0  0  0  0  0  0  0  0  0  0
   -7.2500   21.9030  -32.7130 C   0  0  0  0  0  0  0  0  0  0  0  0
   -7.9030   22.6970  -31.7680 C   0  0  0  0  0  0  0  0  0  0  0  0
   -8.8330   22.1250  -30.8980 C   0  0  0  0  0  0  0  0  0  0  0  0
   -9.1150   20.7590  -30.9740 C   0  0  0  0  0  0  0  0  0  0  0  0
   -8.4690   19.9540  -31.9190 C   0  0  0  0  0  0  0  0  0  0  0  0
   -8.8790   18.2420  -31.9640 Cl  0  0  0  0  0  0  0  0  0  0  0  0
   -3.8870   21.8670  -31.3690 C   0  0  0  0  0  0  0  0  0  0  0  0
   -2.8860   22.0820  -30.3920 C   0  0  0  0  0  0  0  0  0  0  0  0
   -4.8007   23.0470  -27.6988 H   0  0  0  0  0  0  0  0  0  0  0  0
   -5.0385   23.9700  -29.2213 H   0  0  0  0  0  0  0  0  0  0  0  0
   -5.1982   22.1808  -29.2213 H   0  0  0  0  0  0  0  0  0  0  0  0
   -2.4128   24.8065  -28.3566 H   0  0  0  0  0  0  0  0  0  0  0  0
   -1.6542   24.2759  -29.8960 H   0  0  0  0  0  0  0  0  0  0  0  0
   -3.3318   24.9181  -29.8960 H   0  0  0  0  0  0  0  0  0  0  0  0
   -2.0754   23.0649  -27.2155 H   0  0  0  0  0  0  0  0  0  0  0  0
   -3.2413   21.6337  -27.3771 H   0  0  0  0  0  0  0  0  0  0  0  0
   -0.6727   21.2050  -27.2042 H   0  0  0  0  0  0  0  0  0  0  0  0
   -1.7086   20.2970  -28.3780 H   0  0  0  0  0  0  0  0  0  0  0  0
   -0.3557   20.3256  -31.9146 H   0  0  0  0  0  0  0  0  0  0  0  0
   -2.1592   19.9101  -33.5765 H   0  0  0  0  0  0  0  0  0  0  0  0
   -4.9180   21.6450  -34.1460 H   0  0  0  0  0  0  0  0  0  0  0  0
   -7.2620   18.7690  -33.8380 H   0  0  0  0  0  0  0  0  0  0  0  0
   -7.0130   20.1420  -34.7660 H   0  0  0  0  0  0  0  0  0  0  0  0
   -6.5199   22.3605  -33.3969 H   0  0  0  0  0  0  0  0  0  0  0  0
   -7.6846   23.7735  -31.7091 H   0  0  0  0  0  0  0  0  0  0  0  0
   -9.3443   22.7508  -30.1517 H   0  0  0  0  0  0  0  0  0  0  0  0
   -9.8493   20.3134  -30.2869 H   0  0  0  0  0  0  0  0  0  0  0  0
   -4.8886   22.2967  -31.2198 H   0  0  0  0  0  0  0  0  0  0  0  0
  1  2  1  0
  2  3  1  0
  2  4  1  0
  4  5  1  0
  5  6  1  0
  6  7  1  0
  7  8  2  0
  8  9  1  0
  9 10  2  0
 10 11  1  0
 11 12  1  0
 12 13  2  0
 12 14  1  0
 14 15  1  0
 15 16  2  0
 16 17  1  0
 17 18  2  0
 18 19  1  0
 19 20  2  0
 20 21  1  0
 10 22  1  0
 22 23  2  0
 23  2  1  0
 23  7  1  0
 20 15  1  0
  1 24  1  0
  1 25  1  0
  1 26  1  0
  3 27  1  0
  3 28  1  0
  3 29  1  0
  4 30  1  0
  4 31  1  0
  5 32  1  0
  5 33  1  0
  8 34  1  0
  9 35  1  0
 11 36  1  0
 14 37  1  0
 14 38  1  0
 16 39  1  0
 17 40  1  0
 18 41  1  0
 19 42  1  0
 22 43  1  0
M  CHG  1  14   1
M  END
>  <UniqueID>  (23) 
23

>  <SMILES>  (23) 
CC1(C)CCSc2ccc(NC(=S)[NH2+]c3ccccc3Cl)cc21

>  <Energy>  (23) 
61.95687643536985

>  <Genealogy>  (23) 
CC1(C)CCSc2ccc(NC(=S)[NH2+]c3ccccc3Cl)cc21 (protonated)
CC1(C)CCSc2ccc(NC(=S)[NH2+]c3ccccc3Cl)cc21 (3D coordinates assigned)
CC1(C)CCSc2ccc(NC(=S)[NH2+]c3ccccc3Cl)cc21 (nonaromatic ring conformer: 61.95687643536985 kcal/mol)

>  <smiles>  (23) 
CC1(C)CCSc2ccc(NC(=S)Nc3ccccc3Cl)cc21

>  <score_type>  (23) 
oracle

>  <origin>  (23) 
adg

>  <m_score__min__energy>  (23) 
-8.9399999999999995

>  <m_primary>  (23) 
energy

$$$$
23:0
     RDKit          3D

 46 47  0  0  0  0  0  0  0  0999 V2000
   -2.2230   21.2440  -31.5770 C   0  0  0  0  0  0  0  0  0  0  0  0
   -3.1400   21.6760  -32.2300 C   0  0  0  0  0  0  0  0  0  0  0  0
   -4.2610   22.2040  -33.0290 C   0  0  0  0  0  0  0  0  0  0  0  0
   -5.5340   21.4830  -32.7870 N   0  0  0  0  0  0  0  0  0  0  0  0
   -6.5910   22.3500  -32.2120 C   0  0  0  0  0  0  0  0  0  0  0  0
   -7.0960   21.8660  -30.8380 C   0  0  0  0  0  0  0  0  0  0  0  0
   -7.3160   22.9610  -29.7510 C   0  0  0  0  0  0  0  0  0  0  0  0
   -6.1310   23.7700  -29.3550 N   0  0  0  0  0  0  0  0  0  0  0  0
   -6.2210   25.2140  -29.7120 C   0  0  0  0  0  0  0  0  0  0  0  0
   -5.2840   25.5810  -30.8750 C   0  0  0  0  0  0  0  0  0  0  0  0
   -3.8740   25.2910  -30.5550 N   0  0  0  0  0  0  0  0  0  0  0  0
   -3.6870   24.1330  -29.6590 C   0  0  0  0  0  0  0  0  0  0  0  0
   -4.8510   23.1370  -29.7470 C   0  0  0  0  0  0  0  0  0  0  0  0
   -5.3220   20.2710  -31.9620 C   0  0  0  0  0  0  0  0  0  0  0  0
   -5.4740   19.0280  -32.8060 C   0  0  0  0  0  0  0  0  0  0  0  0
   -4.3630   18.5850  -33.5460 C   0  0  0  0  0  0  0  0  0  0  0  0
   -4.4610   17.4640  -34.3730 C   0  0  0  0  0  0  0  0  0  0  0  0
   -5.6680   16.7730  -34.4740 C   0  0  0  0  0  0  0  0  0  0  0  0
   -6.7810   17.2000  -33.7460 C   0  0  0  0  0  0  0  0  0  0  0  0
   -6.6960   18.3220  -32.9110 C   0  0  0  0  0  0  0  0  0  0  0  0
   -8.2790   18.8310  -31.9530 Br  0  0  0  0  0  0  0  0  0  0  0  0
   -1.3865   20.8499  -30.9813 H   0  0  0  0  0  0  0  0  0  0  0  0
   -4.4046   23.2644  -32.7740 H   0  0  0  0  0  0  0  0  0  0  0  0
   -4.0022   22.0686  -34.0895 H   0  0  0  0  0  0  0  0  0  0  0  0
   -6.1850   23.3658  -32.0968 H   0  0  0  0  0  0  0  0  0  0  0  0
   -7.4470   22.3217  -32.9023 H   0  0  0  0  0  0  0  0  0  0  0  0
   -8.0572   21.3551  -30.9966 H   0  0  0  0  0  0  0  0  0  0  0  0
   -6.2951   21.2228  -30.4444 H   0  0  0  0  0  0  0  0  0  0  0  0
   -8.0800   23.6557  -30.1301 H   0  0  0  0  0  0  0  0  0  0  0  0
   -7.5999   22.4084  -28.8433 H   0  0  0  0  0  0  0  0  0  0  0  0
   -6.1330   23.7430  -28.3050 H   0  0  0  0  0  0  0  0  0  0  0  0
   -7.2563   25.4434  -30.0045 H   0  0  0  0  0  0  0  0  0  0  0  0
   -5.9159   25.8004  -28.8327 H   0  0  0  0  0  0  0  0  0  0  0  0
   -5.5743   25.0002  -31.7629 H   0  0  0  0  0  0  0  0  0  0  0  0
   -5.3771   26.6611  -31.0611 H   0  0  0  0  0  0  0  0  0  0  0  0
   -3.3720   25.1000  -31.4540 H   0  0  0  0  0  0  0  0  0  0  0  0
   -2.7569   23.6161  -29.9378 H   0  0  0  0  0  0  0  0  0  0  0  0
   -3.6424   24.5093  -28.6263 H   0  0  0  0  0  0  0  0  0  0  0  0
   -4.9334   22.7726  -30.7816 H   0  0  0  0  0  0  0  0  0  0  0  0
   -4.6491   22.3049  -29.0565 H   0  0  0  0  0  0  0  0  0  0  0  0
   -4.3093   20.2967  -31.5333 H   0  0  0  0  0  0  0  0  0  0  0  0
   -6.0720   20.2506  -31.1575 H   0  0  0  0  0  0  0  0  0  0  0  0
   -3.4083   19.1264  -33.4727 H   0  0  0  0  0  0  0  0  0  0  0  0
   -3.5848   17.1256  -34.9456 H   0  0  0  0  0  0  0  0  0  0  0  0
   -5.7437   15.8912  -35.1273 H   0  0  0  0  0  0  0  0  0  0  0  0
   -7.7309   16.6516  -33.8288 H   0  0  0  0  0  0  0  0  0  0  0  0
  1  2  3  0
  2  3  1  0
  3  4  1  0
  4  5  1  0
  5  6  1  0
  6  7  1  0
  7  8  1  0
  8  9  1  0
  9 10  1  0
 10 11  1  0
 11 12  1  0
 12 13  1  0
  4 14  1  0
 14 15  1  0
 15 16  2  0
 16 17  1  0
 17 18  2  0
 18 19  1  0
 19 20  2  0
 20 21  1  0
 13  8  1  0
 20 15  1  0
  1 22  1  0
  3 23  1  0
  3 24  1  0
  5 25  1  0
  5 26  1  0
  6 27  1  0
  6 28  1  0
  7 29  1  0
  7 30  1  0
  8 31  1  0
  9 32  1  0
  9 33  1  0
 10 34  1  0
 10 35  1  0
 11 36  1  0
 12 37  1  0
 12 38  1  0
 13 39  1  0
 13 40  1  0
 14 41  1  0
 14 42  1  0
 16 43  1  0
 17 44  1  0
 18 45  1  0
 19 46  1  0
M  CHG  1   8   1
M  END
>  <UniqueID>  (24) 
24

>  <SMILES>  (24) 
C#CCN(CCC[NH+]1CCNCC1)Cc1ccccc1Br

>  <Energy>  (24) 
61.86283395888415

>  <Genealogy>  (24) 
C#CCN(CCC[NH+]1CCNCC1)Cc1ccccc1Br (protonated)
C#CCN(CCC[NH+]1CCNCC1)Cc1ccccc1Br (3D coordinates assigned)
C#CCN(CCC[NH+]1CCNCC1)Cc1ccccc1Br (nonaromatic ring conformer: 61.86283395888415 kcal/mol)

>  <smiles>  (24) 
C#CCN(CCCN1CCNCC1)Cc1ccccc1Br

>  <score_type>  (24) 
oracle

>  <origin>  (24) 
adg

>  <m_score__min__energy>  (24) 
-7.6399999999999997

>  <m_primary>  (24) 
energy

$$$$
24:0
     RDKit          3D

 34 36  0  0  0  0  0  0  0  0999 V2000
   -7.8429   24.7563  -30.4835 H   0  0  0  0  0  0  0  0  0  0  0  0
   -6.9910   24.1710  -30.8600 C   0  0  0  0  0  0  0  0  0  0  0  0
   -5.8000   24.7870  -30.9160 C   0  0  0  0  0  0  0  0  0  0  0  0
   -5.7127   25.6517  -31.5903 H   0  0  0  0  0  0  0  0  0  0  0  0
   -4.5990   24.4050  -30.1520 C   0  0  0  0  0  0  0  0  0  0  0  0
   -3.5010   25.1260  -30.1360 O   0  0  0  0  0  0  0  0  0  0  0  0
   -2.6430   24.5460  -29.3300 C   0  0  0  0  0  0  0  0  0  0  0  0
   -1.3320   25.0520  -29.0720 N   0  0  0  0  0  0  0  0  0  0  0  0
   -1.1370   26.2790  -28.9550 O   0  0  0  0  0  0  0  0  0  0  0  0
   -0.2740   24.1830  -28.9490 O   0  0  0  0  0  0  0  0  0  0  0  0
   -3.1900   23.4040  -28.7770 C   0  0  0  0  0  0  0  0  0  0  0  0
   -2.7122   22.7114  -28.0685 H   0  0  0  0  0  0  0  0  0  0  0  0
   -4.4620   23.3170  -29.3020 C   0  0  0  0  0  0  0  0  0  0  0  0
   -5.2145   22.5431  -29.0902 H   0  0  0  0  0  0  0  0  0  0  0  0
   -7.2550   22.7770  -31.2600 C   0  0  0  0  0  0  0  0  0  0  0  0
   -8.4980   22.2500  -31.4280 N   0  0  0  0  0  0  0  0  0  0  0  0
   -8.2210   20.9740  -31.7430 C   0  0  0  0  0  0  0  0  0  0  0  0
   -9.1170   19.9510  -32.0350 C   0  0  0  0  0  0  0  0  0  0  0  0
  -10.2029   20.1263  -32.0300 H   0  0  0  0  0  0  0  0  0  0  0  0
   -8.5850   18.6840  -32.3370 C   0  0  0  0  0  0  0  0  0  0  0  0
   -9.2650   17.8522  -32.5732 H   0  0  0  0  0  0  0  0  0  0  0  0
   -7.1850   18.4650  -32.3410 C   0  0  0  0  0  0  0  0  0  0  0  0
   -6.7150   17.1810  -32.6500 O   0  0  0  0  0  0  0  0  0  0  0  0
   -6.4360   16.7240  -33.9710 C   0  0  0  0  0  0  0  0  0  0  0  0
   -7.3787   16.4705  -34.4780 H   0  0  0  0  0  0  0  0  0  0  0  0
   -5.7942   15.8319  -33.9222 H   0  0  0  0  0  0  0  0  0  0  0  0
   -5.7220   17.8200  -34.7470 C   0  0  0  0  0  0  0  0  0  0  0  0
   -5.2610   18.5276  -34.0421 H   0  0  0  0  0  0  0  0  0  0  0  0
   -4.9417   17.3723  -35.3801 H   0  0  0  0  0  0  0  0  0  0  0  0
   -6.4468   18.3528  -35.3801 H   0  0  0  0  0  0  0  0  0  0  0  0
   -6.3080   19.5380  -32.0380 C   0  0  0  0  0  0  0  0  0  0  0  0
   -5.2170   19.3978  -32.0348 H   0  0  0  0  0  0  0  0  0  0  0  0
   -6.8760   20.7740  -31.7450 C   0  0  0  0  0  0  0  0  0  0  0  0
   -6.2840   21.8960  -31.4390 O   0  0  0  0  0  0  0  0  0  0  0  0
  1  2  1  0
  2  3  2  0
  3  4  1  0
  3  5  1  0
  5  6  1  0
  6  7  1  0
  7  8  1  0
  8  9  2  0
  8 10  1  0
  7 11  2  0
 11 12  1  0
 11 13  1  0
 13 14  1  0
  2 15  1  0
 15 16  2  0
 16 17  1  0
 17 18  2  0
 18 19  1  0
 18 20  1  0
 20 21  1  0
 20 22  2  0
 22 23  1  0
 23 24  1  0
 24 25  1  0
 24 26  1  0
 24 27  1  0
 27 28  1  0
 27 29  1  0
 27 30  1  0
 22 31  1  0
 31 32  1  0
 31 33  2  0
 33 34  1  0
 13  5  2  0
 34 15  1  0
 33 17  1  0
M  CHG  2   8   1  10  -1
M  END
>  <UniqueID>  (25) 
25

>  <SMILES>  (25) 
CCOc1ccc2nc(/C=C\c3ccc([N+](=O)[O-])o3)oc2c1

>  <Energy>  (25) 
102.19090050704612

>  <Genealogy>  (25) 
CCOc1ccc2nc(/C=C\c3ccc([N+](=O)[O-])o3)oc2c1 (cis-trans isomerization)
CCOc1ccc2nc(/C=C\c3ccc([N+](=O)[O-])o3)oc2c1 (3D coordinates assigned)
CCOc1ccc2nc(/C=C\c3ccc([N+](=O)[O-])o3)oc2c1 (optimized conformer: 102.19090050704612 kcal/mol)

>  <smiles>  (25) 
CCOc1ccc2nc(C=Cc3ccc([N+](=O)[O-])o3)oc2c1

>  <score_type>  (25) 
oracle

>  <origin>  (25) 
adg

>  <m_score__min__energy>  (25) 
-8.0700000000000003

>  <m_primary>  (25) 
energy

$$$$
25:0
     RDKit          3D

 45 47  0  0  1  0  0  0  0  0999 V2000
   -9.4240   19.4260  -32.6740 C   0  0  0  0  0  0  0  0  0  0  0  0
   -8.7560   18.5580  -31.6410 C   0  0  0  0  0  0  0  0  0  0  0  0
   -7.2950   18.2970  -31.9060 C   0  0  0  0  0  0  0  0  0  0  0  0
   -6.8870   18.4400  -33.3240 C   0  0  0  0  0  0  0  0  0  0  0  0
   -6.5120   19.7570  -33.7560 N   0  0  0  0  0  0  0  0  0  0  0  0
   -5.7740   20.5930  -33.1240 C   0  0  0  0  0  0  0  0  0  0  0  0
   -4.4240   20.4740  -33.1250 N   0  0  0  0  0  0  0  0  0  0  0  0
   -3.6820   21.3760  -32.4230 C   0  0  0  0  0  0  0  0  0  0  0  0
   -2.1890   21.2970  -32.4060 C   0  0  0  0  0  0  0  0  0  0  0  0
   -1.7360   22.2980  -31.5460 F   0  0  0  0  0  0  0  0  0  0  0  0
   -1.7250   21.5800  -33.6730 F   0  0  0  0  0  0  0  0  0  0  0  0
   -1.7010   20.0900  -32.0190 F   0  0  0  0  0  0  0  0  0  0  0  0
   -4.3090   22.3510  -31.7540 N   0  0  0  0  0  0  0  0  0  0  0  0
   -5.6290   22.5110  -31.7220 C   0  0  0  0  0  0  0  0  0  0  0  0
   -6.3920   21.5960  -32.4360 C   0  0  0  0  0  0  0  0  0  0  0  0
   -7.6460   21.9550  -32.2760 N   0  0  0  0  0  0  0  0  0  0  0  0
   -7.6860   23.0390  -31.5040 C   0  0  0  0  0  0  0  0  0  0  0  0
   -6.4380   23.4020  -31.1440 N   0  0  0  0  0  0  0  0  0  0  0  0
   -6.1670   24.4970  -30.2350 C   0  0  0  0  0  0  0  0  0  0  0  0
   -4.7090   24.7290  -30.0960 C   0  0  0  0  0  0  0  0  0  0  0  0
   -4.2410   25.6730  -30.8370 O   0  0  0  0  0  0  0  0  0  0  0  0
   -3.8100   24.0170  -29.2320 C   0  0  0  0  0  0  0  0  0  0  0  0
   -2.5030   24.3220  -28.9620 C   0  0  0  0  0  0  0  0  0  0  0  0
   -1.6950   23.5220  -28.1570 C   0  0  0  0  0  0  0  0  0  0  0  0
   -2.2030   22.3560  -27.5820 C   0  0  0  0  0  0  0  0  0  0  0  0
   -3.5140   22.0410  -27.8440 C   0  0  0  0  0  0  0  0  0  0  0  0
   -4.2920   22.8430  -28.6430 C   0  0  0  0  0  0  0  0  0  0  0  0
  -10.0207   20.2013  -32.1711 H   0  0  0  0  0  0  0  0  0  0  0  0
   -8.6579   19.9032  -33.3028 H   0  0  0  0  0  0  0  0  0  0  0  0
  -10.0815   18.8077  -33.3028 H   0  0  0  0  0  0  0  0  0  0  0  0
   -8.8463   19.0536  -30.6631 H   0  0  0  0  0  0  0  0  0  0  0  0
   -9.2626   17.5821  -31.6720 H   0  0  0  0  0  0  0  0  0  0  0  0
   -6.7060   19.0070  -31.3068 H   0  0  0  0  0  0  0  0  0  0  0  0
   -7.1131   17.2465  -31.6350 H   0  0  0  0  0  0  0  0  0  0  0  0
   -6.0262   17.7761  -33.4921 H   0  0  0  0  0  0  0  0  0  0  0  0
   -7.7827   18.1869  -33.9102 H   0  0  0  0  0  0  0  0  0  0  0  0
   -3.9790   19.7040  -33.6560 H   0  0  0  0  0  0  0  0  0  0  0  0
   -8.6050   23.5633  -31.2030 H   0  0  0  0  0  0  0  0  0  0  0  0
   -6.6406   25.4110  -30.6227 H   0  0  0  0  0  0  0  0  0  0  0  0
   -6.5748   24.2388  -29.2466 H   0  0  0  0  0  0  0  0  0  0  0  0
   -2.0734   25.2358  -29.3984 H   0  0  0  0  0  0  0  0  0  0  0  0
   -0.6497   23.8112  -27.9733 H   0  0  0  0  0  0  0  0  0  0  0  0
   -1.5777   21.7143  -26.9438 H   0  0  0  0  0  0  0  0  0  0  0  0
   -3.9486   21.1303  -27.4062 H   0  0  0  0  0  0  0  0  0  0  0  0
   -5.3362   22.5504  -28.8272 H   0  0  0  0  0  0  0  0  0  0  0  0
  1  2  1  0
  2  3  1  0
  3  4  1  0
  4  5  1  0
  5  6  2  0
  6  7  1  0
  7  8  1  0
  8  9  1  0
  9 10  1  0
  9 11  1  0
  9 12  1  0
  8 13  2  0
 13 14  1  0
 14 15  2  0
 15 16  1  0
 16 17  2  0
 17 18  1  0
 18 19  1  0
 19 20  1  0
 20 21  2  0
 20 22  1  0
 22 23  2  0
 23 24  1  0
 24 25  2  0
 25 26  1  0
 26 27  2  0
 15  6  1  0
 27 22  1  0
 18 14  1  0
  1 28  1  0
  1 29  1  0
  1 30  1  0
  2 31  1  0
  2 32  1  0
  3 33  1  0
  3 34  1  0
  4 35  1  0
  4 36  1  0
  7 37  1  0
 17 38  1  0
 19 39  1  0
 19 40  1  0
 23 41  1  0
 24 42  1  0
 25 43  1  0
 26 44  1  0
 27 45  1  0
M  END
>  <smiles>  (26) 
CCCCN=c1[nH]c(C(F)(F)F)nc2c1ncn2CC(=O)c1ccccc1

>  <score_type>  (26) 
oracle

>  <origin>  (26) 
adg

>  <m_score__min__energy>  (26) 
-7.8700000000000001

>  <m_primary>  (26) 
energy

$$$$
26:0
     RDKit          3D

 57 58  0  0  0  0  0  0  0  0999 V2000
   -1.2300   21.4870  -30.6250 C   0  0  0  0  0  0  0  0  0  0  0  0
   -2.0160   20.8100  -29.4930 C   0  0  0  0  0  0  0  0  0  0  0  0
   -2.0080   21.5540  -28.2080 N   0  0  0  0  0  0  0  0  0  0  0  0
   -1.7470   20.6780  -27.0440 C   0  0  0  0  0  0  0  0  0  0  0  0
   -2.7410   19.5210  -27.0400 C   0  0  0  0  0  0  0  0  0  0  0  0
   -3.1710   22.4460  -27.9970 C   0  0  0  0  0  0  0  0  0  0  0  0
   -3.0510   23.7600  -28.7840 C   0  0  0  0  0  0  0  0  0  0  0  0
   -3.5730   23.6240  -30.1040 O   0  0  0  0  0  0  0  0  0  0  0  0
   -4.5670   24.4510  -30.6380 C   0  0  0  0  0  0  0  0  0  0  0  0
   -4.3270   25.6680  -30.8650 O   0  0  0  0  0  0  0  0  0  0  0  0
   -5.8980   23.8500  -31.0390 C   0  0  2  0  0  0  0  0  0  0  0  0
   -6.6870   23.3120  -29.8130 C   0  0  0  0  0  0  0  0  0  0  0  0
   -7.7790   22.3010  -30.1950 C   0  0  0  0  0  0  0  0  0  0  0  0
   -8.2390   22.5000  -31.6340 C   0  0  0  0  0  0  0  0  0  0  0  0
   -7.0690   22.3160  -32.6200 C   0  0  0  0  0  0  0  0  0  0  0  0
   -5.7600   22.8370  -32.1280 N   0  0  2  0  0  0  0  0  0  0  0  0
   -4.8520   21.7430  -31.8050 C   0  0  0  0  0  0  0  0  0  0  0  0
   -4.7480   21.3380  -30.6550 O   0  0  0  0  0  0  0  0  0  0  0  0
   -4.0840   21.0240  -32.8870 C   0  0  0  0  0  0  0  0  0  0  0  0
   -4.9700   20.4320  -33.8390 O   0  0  0  0  0  0  0  0  0  0  0  0
   -5.6070   19.1840  -33.7200 C   0  0  0  0  0  0  0  0  0  0  0  0
   -6.5770   19.0360  -32.7200 C   0  0  0  0  0  0  0  0  0  0  0  0
   -7.2480   17.8220  -32.5510 C   0  0  0  0  0  0  0  0  0  0  0  0
   -6.9530   16.7380  -33.3800 C   0  0  0  0  0  0  0  0  0  0  0  0
   -5.9890   16.8700  -34.3830 C   0  0  0  0  0  0  0  0  0  0  0  0
   -5.3200   18.0850  -34.5580 C   0  0  0  0  0  0  0  0  0  0  0  0
   -0.4630   22.1477  -30.1946 H   0  0  0  0  0  0  0  0  0  0  0  0
   -0.7458   20.7187  -31.2457 H   0  0  0  0  0  0  0  0  0  0  0  0
   -1.9181   22.0797  -31.2457 H   0  0  0  0  0  0  0  0  0  0  0  0
   -3.0606   20.6983  -29.8190 H   0  0  0  0  0  0  0  0  0  0  0  0
   -1.5206   19.8470  -29.3003 H   0  0  0  0  0  0  0  0  0  0  0  0
   -0.7232   20.2806  -27.1074 H   0  0  0  0  0  0  0  0  0  0  0  0
   -1.8601   21.2594  -26.1171 H   0  0  0  0  0  0  0  0  0  0  0  0
   -2.9782   19.2449  -26.0020 H   0  0  0  0  0  0  0  0  0  0  0  0
   -3.6621   19.8271  -27.5576 H   0  0  0  0  0  0  0  0  0  0  0  0
   -2.2996   18.6566  -27.5576 H   0  0  0  0  0  0  0  0  0  0  0  0
   -4.0819   21.9217  -28.3215 H   0  0  0  0  0  0  0  0  0  0  0  0
   -3.2109   22.6981  -26.9270 H   0  0  0  0  0  0  0  0  0  0  0  0
   -3.6114   24.5459  -28.2565 H   0  0  0  0  0  0  0  0  0  0  0  0
   -1.9857   24.0239  -28.8579 H   0  0  0  0  0  0  0  0  0  0  0  0
   -6.5014   24.6669  -31.4616 H   0  0  0  0  0  0  0  0  0  0  0  0
   -5.9790   22.8208  -29.1292 H   0  0  0  0  0  0  0  0  0  0  0  0
   -7.1863   24.1714  -29.3416 H   0  0  0  0  0  0  0  0  0  0  0  0
   -7.3787   21.2824  -30.0844 H   0  0  0  0  0  0  0  0  0  0  0  0
   -8.6420   22.4544  -29.5303 H   0  0  0  0  0  0  0  0  0  0  0  0
   -9.0233   21.7643  -31.8656 H   0  0  0  0  0  0  0  0  0  0  0  0
   -8.6269   23.5240  -31.7388 H   0  0  0  0  0  0  0  0  0  0  0  0
   -6.9567   21.2409  -32.8237 H   0  0  0  0  0  0  0  0  0  0  0  0
   -7.3210   22.8988  -33.5182 H   0  0  0  0  0  0  0  0  0  0  0  0
   -5.3350   23.3490  -32.9360 H   0  0  0  0  0  0  0  0  0  0  0  0
   -3.4309   21.7434  -33.4027 H   0  0  0  0  0  0  0  0  0  0  0  0
   -3.4875   20.2259  -32.4210 H   0  0  0  0  0  0  0  0  0  0  0  0
   -6.8129   19.8845  -32.0609 H   0  0  0  0  0  0  0  0  0  0  0  0
   -8.0096   17.7203  -31.7638 H   0  0  0  0  0  0  0  0  0  0  0  0
   -7.4787   15.7814  -33.2438 H   0  0  0  0  0  0  0  0  0  0  0  0
   -5.7561   16.0161  -35.0362 H   0  0  0  0  0  0  0  0  0  0  0  0
   -4.5661   18.1851  -35.3528 H   0  0  0  0  0  0  0  0  0  0  0  0
  1  2  1  0
  2  3  1  0
  3  4  1  0
  4  5  1  0
  3  6  1  0
  6  7  1  0
  7  8  1  0
  8  9  1  0
  9 10  2  0
  9 11  1  0
 11 12  1  0
 12 13  1  0
 13 14  1  0
 14 15  1  0
 15 16  1  0
 16 17  1  0
 17 18  2  0
 17 19  1  0
 19 20  1  0
 20 21  1  0
 21 22  2  0
 22 23  1  0
 23 24  2  0
 24 25  1  0
 25 26  2  0
 16 11  1  0
 26 21  1  0
  1 27  1  0
  1 28  1  0
  1 29  1  0
  2 30  1  0
  2 31  1  0
  4 32  1  0
  4 33  1  0
  5 34  1  0
  5 35  1  0
  5 36  1  0
  6 37  1  0
  6 38  1  0
  7 39  1  0
  7 40  1  0
 11 41  1  6
 12 42  1  0
 12 43  1  0
 13 44  1  0
 13 45  1  0
 14 46  1  0
 14 47  1  0
 15 48  1  0
 15 49  1  0
 16 50  1  6
 19 51  1  0
 19 52  1  0
 22 53  1  0
 23 54  1  0
 24 55  1  0
 25 56  1  0
 26 57  1  0
M  CHG  1  16   1
M  END
>  <UniqueID>  (27) 
26

>  <SMILES>  (27) 
CCN(CC)CCOC(=O)[C@@H]1CCCC[N@@H+]1C(=O)COc1ccccc1

>  <Energy>  (27) 
66.6431577795784

>  <Genealogy>  (27) 
CCN(CC)CCOC(=O)C1CCCC[NH+]1C(=O)COc1ccccc1 (protonated)
CCN(CC)CCOC(=O)[C@@H]1CCCC[N@@H+]1C(=O)COc1ccccc1 (chirality)
CCN(CC)CCOC(=O)[C@@H]1CCCC[N@@H+]1C(=O)COc1ccccc1 (3D coordinates assigned)
CCN(CC)CCOC(=O)[C@@H]1CCCC[N@@H+]1C(=O)COc1ccccc1 (nonaromatic ring conformer: 66.6431577795784 kcal/mol)

>  <smiles>  (27) 
CCN(CC)CCOC(=O)C1CCCCN1C(=O)COc1ccccc1

>  <score_type>  (27) 
oracle

>  <origin>  (27) 
adg

>  <m_score__min__energy>  (27) 
-6.4199999999999999

>  <m_primary>  (27) 
energy

$$$$
27:0
     RDKit          3D

 33 35  0  0  0  0  0  0  0  0999 V2000
   -2.9720   24.0820  -28.3940 C   0  0  0  0  0  0  0  0  0  0  0  0
   -3.8010   23.3430  -29.3450 N   0  0  0  0  0  0  0  0  0  0  0  0
   -4.8490   23.8140  -30.0710 C   0  0  0  0  0  0  0  0  0  0  0  0
   -5.3680   25.1960  -30.0130 C   0  0  0  0  0  0  0  0  0  0  0  0
   -6.3120   25.5850  -29.0150 N   0  0  0  0  0  0  0  0  0  0  0  0
   -4.9540   26.0530  -30.8380 O   0  0  0  0  0  0  0  0  0  0  0  0
   -5.3150   22.7730  -30.8670 C   0  0  0  0  0  0  0  0  0  0  0  0
   -6.3230   22.7490  -31.8300 C   0  0  0  0  0  0  0  0  0  0  0  0
   -6.5520   21.5410  -32.5080 C   0  0  0  0  0  0  0  0  0  0  0  0
   -5.7690   20.3920  -32.2300 C   0  0  0  0  0  0  0  0  0  0  0  0
   -6.0120   19.1170  -32.9500 C   0  0  0  0  0  0  0  0  0  0  0  0
   -6.8290   18.1200  -32.3860 C   0  0  0  0  0  0  0  0  0  0  0  0
   -7.0550   16.9200  -33.0650 C   0  0  0  0  0  0  0  0  0  0  0  0
   -6.4700   16.7010  -34.3140 C   0  0  0  0  0  0  0  0  0  0  0  0
   -5.6580   17.6820  -34.8860 C   0  0  0  0  0  0  0  0  0  0  0  0
   -5.4270   18.8840  -34.2110 C   0  0  0  0  0  0  0  0  0  0  0  0
   -4.7470   20.4920  -31.2630 C   0  0  0  0  0  0  0  0  0  0  0  0
   -4.5670   21.6810  -30.6310 N   0  0  0  0  0  0  0  0  0  0  0  0
   -3.6560   22.0500  -29.7120 C   0  0  0  0  0  0  0  0  0  0  0  0
   -2.7680   21.2800  -29.2550 O   0  0  0  0  0  0  0  0  0  0  0  0
   -3.2676   23.8185  -27.3678 H   0  0  0  0  0  0  0  0  0  0  0  0
   -1.9147   23.8213  -28.5494 H   0  0  0  0  0  0  0  0  0  0  0  0
   -3.1100   25.1622  -28.5494 H   0  0  0  0  0  0  0  0  0  0  0  0
   -6.5430   24.9520  -28.2180 H   0  0  0  0  0  0  0  0  0  0  0  0
   -6.7120   26.5490  -29.0200 H   0  0  0  0  0  0  0  0  0  0  0  0
   -6.9190   23.6467  -32.0512 H   0  0  0  0  0  0  0  0  0  0  0  0
   -7.3488   21.4853  -33.2643 H   0  0  0  0  0  0  0  0  0  0  0  0
   -7.2934   18.2866  -31.4029 H   0  0  0  0  0  0  0  0  0  0  0  0
   -7.6947   16.1465  -32.6150 H   0  0  0  0  0  0  0  0  0  0  0  0
   -6.6490   15.7556  -34.8471 H   0  0  0  0  0  0  0  0  0  0  0  0
   -5.1988   17.5086  -35.8704 H   0  0  0  0  0  0  0  0  0  0  0  0
   -4.7851   19.6524  -34.6665 H   0  0  0  0  0  0  0  0  0  0  0  0
   -4.1102   19.6269  -31.0260 H   0  0  0  0  0  0  0  0  0  0  0  0
  1  2  1  0
  2  3  1  0
  3  4  1  0
  4  5  1  0
  4  6  2  0
  3  7  2  0
  7  8  1  0
  8  9  2  0
  9 10  1  0
 10 11  1  0
 11 12  2  0
 12 13  1  0
 13 14  2  0
 14 15  1  0
 15 16  2  0
 10 17  2  0
 17 18  1  0
 18 19  1  0
 19 20  2  0
 19  2  1  0
 18  7  1  0
 16 11  1  0
  1 21  1  0
  1 22  1  0
  1 23  1  0
  5 24  1  0
  5 25  1  0
  8 26  1  0
  9 27  1  0
 12 28  1  0
 13 29  1  0
 14 30  1  0
 15 31  1  0
 16 32  1  0
 17 33  1  0
M  END
>  <UniqueID>  (28) 
27

>  <SMILES>  (28) 
Cn1c(C(N)=O)c2ccc(-c3ccccc3)cn2c1=O

>  <Energy>  (28) 
82.53989687786805

>  <Genealogy>  (28) 
Cn1c(C(N)=O)c2ccc(-c3ccccc3)cn2c1=O (3D coordinates assigned)
Cn1c(C(N)=O)c2ccc(-c3ccccc3)cn2c1=O (optimized conformer: 82.53989687786805 kcal/mol)

>  <smiles>  (28) 
Cn1c(C(N)=O)c2ccc(-c3ccccc3)cn2c1=O

>  <score_type>  (28) 
oracle

>  <origin>  (28) 
adg

>  <m_score__min__energy>  (28) 
-7.4299999999999997

>  <m_primary>  (28) 
energy

$$$$
28:0
     RDKit          3D

 32 34  0  0  1  0  0  0  0  0999 V2000
   -2.6990   20.1130  -33.5790 N   0  0  0  0  0  0  0  0  0  0  0  0
   -3.1490   20.9340  -32.8870 C   0  0  0  0  0  0  0  0  0  0  0  0
   -3.7050   21.9600  -32.0550 C   0  0  0  0  0  0  0  0  0  0  0  0
   -2.9040   22.6170  -31.1780 C   0  0  0  0  0  0  0  0  0  0  0  0
   -3.3210   23.6200  -30.3280 C   0  0  0  0  0  0  0  0  0  0  0  0
   -4.6580   23.9530  -30.4010 C   0  0  0  0  0  0  0  0  0  0  0  0
   -5.0790   24.9240  -29.5730 N   0  0  0  0  0  0  0  0  0  0  0  0
   -6.3760   25.2550  -29.6310 C   0  0  0  0  0  0  0  0  0  0  0  0
   -7.2300   24.6610  -30.4660 N   0  0  0  0  0  0  0  0  0  0  0  0
   -6.7960   23.6880  -31.2940 C   0  0  0  0  0  0  0  0  0  0  0  0
   -7.6010   23.1850  -32.0790 N   0  0  0  0  0  0  0  0  0  0  0  0
   -8.5960   22.2480  -31.9580 C   0  0  0  0  0  0  0  0  0  0  0  0
   -8.1910   20.8200  -32.1540 C   0  0  0  0  0  0  0  0  0  0  0  0
   -8.7510   19.7850  -31.4130 C   0  0  0  0  0  0  0  0  0  0  0  0
   -8.3760   18.4580  -31.6060 C   0  0  0  0  0  0  0  0  0  0  0  0
   -7.4310   18.1070  -32.5410 C   0  0  0  0  0  0  0  0  0  0  0  0
   -6.8660   19.1150  -33.2850 C   0  0  0  0  0  0  0  0  0  0  0  0
   -7.2460   20.4230  -33.0850 C   0  0  0  0  0  0  0  0  0  0  0  0
   -5.4820   23.2930  -31.2910 C   0  0  0  0  0  0  0  0  0  0  0  0
   -5.0740   22.3060  -32.1260 C   0  0  0  0  0  0  0  0  0  0  0  0
   -1.8432   22.3280  -31.1425 H   0  0  0  0  0  0  0  0  0  0  0  0
   -2.6306   24.1231  -29.6350 H   0  0  0  0  0  0  0  0  0  0  0  0
   -4.4340   25.4150  -28.9010 H   0  0  0  0  0  0  0  0  0  0  0  0
   -6.7507   26.0463  -28.9651 H   0  0  0  0  0  0  0  0  0  0  0  0
   -9.0216   22.3399  -30.9478 H   0  0  0  0  0  0  0  0  0  0  0  0
   -9.3040   22.4659  -32.7712 H   0  0  0  0  0  0  0  0  0  0  0  0
   -9.5110   20.0211  -30.6536 H   0  0  0  0  0  0  0  0  0  0  0  0
   -8.8466   17.6725  -30.9965 H   0  0  0  0  0  0  0  0  0  0  0  0
   -7.1377   17.0571  -32.6883 H   0  0  0  0  0  0  0  0  0  0  0  0
   -6.1066   18.8755  -34.0439 H   0  0  0  0  0  0  0  0  0  0  0  0
   -6.7703   21.1995  -33.7020 H   0  0  0  0  0  0  0  0  0  0  0  0
   -5.7668   21.8042  -32.8176 H   0  0  0  0  0  0  0  0  0  0  0  0
  1  2  3  0
  2  3  1  0
  3  4  2  0
  4  5  1  0
  5  6  2  0
  6  7  1  0
  7  8  1  0
  8  9  2  0
  9 10  1  0
 10 11  2  0
 11 12  1  0
 12 13  1  0
 13 14  2  0
 14 15  1  0
 15 16  2  0
 16 17  1  0
 17 18  2  0
 10 19  1  0
 19 20  2  0
 20  3  1  0
 19  6  1  0
 18 13  1  0
  4 21  1  0
  5 22  1  0
  7 23  1  0
  8 24  1  0
 12 25  1  0
 12 26  1  0
 14 27  1  0
 15 28  1  0
 16 29  1  0
 17 30  1  0
 18 31  1  0
 20 32  1  0
M  END
>  <smiles>  (29) 
N#Cc1ccc2[nH]cnc(=NCc3ccccc3)c2c1

>  <score_type>  (29) 
oracle

>  <origin>  (29) 
adg

>  <m_score__min__energy>  (29) 
-7.5700000000000003

>  <m_primary>  (29) 
energy

$$$$
29:0
     RDKit          3D

 57 60  0  0  0  0  0  0  0  0999 V2000
    1.3140   25.6200  -25.0770 C   0  0  0  0  0  0  0  0  0  0  0  0
    1.3970   25.6420  -26.4980 O   0  0  0  0  0  0  0  0  0  0  0  0
    0.4120   25.1340  -27.3580 C   0  0  0  0  0  0  0  0  0  0  0  0
    0.6150   23.8770  -27.9350 C   0  0  0  0  0  0  0  0  0  0  0  0
   -0.3360   23.3260  -28.7970 C   0  0  0  0  0  0  0  0  0  0  0  0
   -1.5200   24.0250  -29.0930 C   0  0  0  0  0  0  0  0  0  0  0  0
   -2.5400   23.4510  -30.0040 C   0  0  0  0  0  0  0  0  0  0  0  0
   -3.4020   24.2110  -30.5270 O   0  0  0  0  0  0  0  0  0  0  0  0
   -2.5880   22.0380  -30.2610 N   0  0  0  0  0  0  0  0  0  0  0  0
   -3.4000   21.4490  -31.2920 C   0  0  0  0  0  0  0  0  0  0  0  0
   -4.8020   21.4980  -31.2070 C   0  0  0  0  0  0  0  0  0  0  0  0
   -5.6050   20.9910  -32.2450 C   0  0  0  0  0  0  0  0  0  0  0  0
   -7.0860   21.0530  -32.1520 C   0  0  0  0  0  0  0  0  0  0  0  0
   -7.8690   19.9150  -32.4240 C   0  0  0  0  0  0  0  0  0  0  0  0
   -9.2630   19.9780  -32.3360 C   0  0  0  0  0  0  0  0  0  0  0  0
   -9.8900   21.1720  -31.9750 C   0  0  0  0  0  0  0  0  0  0  0  0
   -9.1250   22.3080  -31.7010 C   0  0  0  0  0  0  0  0  0  0  0  0
   -7.7310   22.2510  -31.7890 C   0  0  0  0  0  0  0  0  0  0  0  0
   -4.9850   20.4390  -33.3780 C   0  0  0  0  0  0  0  0  0  0  0  0
   -3.5930   20.3970  -33.4740 C   0  0  0  0  0  0  0  0  0  0  0  0
   -2.7950   20.8960  -32.4370 C   0  0  0  0  0  0  0  0  0  0  0  0
   -1.3670   20.8250  -32.5490 N   0  0  0  0  0  0  0  0  0  0  0  0
   -0.5580   20.4330  -31.3950 C   0  0  0  0  0  0  0  0  0  0  0  0
    0.5280   19.4520  -31.8540 C   0  0  0  0  0  0  0  0  0  0  0  0
    1.2770   19.9020  -33.0600 N   0  0  0  0  0  0  0  0  0  0  0  0
    1.3490   18.8430  -34.0800 C   0  0  0  0  0  0  0  0  0  0  0  0
    0.8180   21.1850  -33.6430 C   0  0  0  0  0  0  0  0  0  0  0  0
   -0.7090   21.2480  -33.7870 C   0  0  0  0  0  0  0  0  0  0  0  0
   -1.7190   25.2940  -28.5210 C   0  0  0  0  0  0  0  0  0  0  0  0
   -0.7650   25.8440  -27.6590 C   0  0  0  0  0  0  0  0  0  0  0  0
    2.2933   25.8796  -24.6485 H   0  0  0  0  0  0  0  0  0  0  0  0
    0.5622   26.3499  -24.7423 H   0  0  0  0  0  0  0  0  0  0  0  0
    1.0224   24.6136  -24.7423 H   0  0  0  0  0  0  0  0  0  0  0  0
    1.5334   23.3159  -27.7078 H   0  0  0  0  0  0  0  0  0  0  0  0
   -0.1576   22.3385  -29.2475 H   0  0  0  0  0  0  0  0  0  0  0  0
   -2.1130   21.3950  -29.5880 H   0  0  0  0  0  0  0  0  0  0  0  0
   -5.2773   21.9382  -30.3180 H   0  0  0  0  0  0  0  0  0  0  0  0
   -7.3812   18.9707  -32.7074 H   0  0  0  0  0  0  0  0  0  0  0  0
   -9.8672   19.0845  -32.5518 H   0  0  0  0  0  0  0  0  0  0  0  0
  -10.9869   21.2181  -31.9063 H   0  0  0  0  0  0  0  0  0  0  0  0
   -9.6197   23.2481  -31.4158 H   0  0  0  0  0  0  0  0  0  0  0  0
   -7.1333   23.1489  -31.5730 H   0  0  0  0  0  0  0  0  0  0  0  0
   -5.6010   20.0368  -34.1958 H   0  0  0  0  0  0  0  0  0  0  0  0
   -3.1198   19.9691  -34.3701 H   0  0  0  0  0  0  0  0  0  0  0  0
   -0.0871   21.3246  -30.9552 H   0  0  0  0  0  0  0  0  0  0  0  0
   -1.1974   19.9518  -30.6402 H   0  0  0  0  0  0  0  0  0  0  0  0
    1.2451   19.3191  -31.0305 H   0  0  0  0  0  0  0  0  0  0  0  0
    0.0184   18.5157  -32.1255 H   0  0  0  0  0  0  0  0  0  0  0  0
    1.4157   17.8623  -33.5863 H   0  0  0  0  0  0  0  0  0  0  0  0
    0.4465   18.8768  -34.7080 H   0  0  0  0  0  0  0  0  0  0  0  0
    2.2386   18.9986  -34.7080 H   0  0  0  0  0  0  0  0  0  0  0  0
    1.1457   22.0073  -32.9900 H   0  0  0  0  0  0  0  0  0  0  0  0
    1.2541   21.2718  -34.6491 H   0  0  0  0  0  0  0  0  0  0  0  0
   -1.0069   22.2813  -34.0186 H   0  0  0  0  0  0  0  0  0  0  0  0
   -1.0145   20.5700  -34.5976 H   0  0  0  0  0  0  0  0  0  0  0  0
   -2.6335   25.8593  -28.7537 H   0  0  0  0  0  0  0  0  0  0  0  0
   -0.9354   26.8356  -27.2145 H   0  0  0  0  0  0  0  0  0  0  0  0
  1  2  1  0
  2  3  1  0
  3  4  2  0
  4  5  1  0
  5  6  2  0
  6  7  1  0
  7  8  2  0
  7  9  1  0
  9 10  1  0
 10 11  2  0
 11 12  1  0
 12 13  1  0
 13 14  2  0
 14 15  1  0
 15 16  2  0
 16 17  1  0
 17 18  2  0
 12 19  2  0
 19 20  1  0
 20 21  2  0
 21 22  1  0
 22 23  1  0
 23 24  1  0
 24 25  1  0
 25 26  1  0
 25 27  1  0
 27 28  1  0
  6 29  1  0
 29 30  2  0
 30  3  1  0
 21 10  1  0
 28 22  1  0
 18 13  1  0
  1 31  1  0
  1 32  1  0
  1 33  1  0
  4 34  1  0
  5 35  1  0
  9 36  1  0
 11 37  1  0
 14 38  1  0
 15 39  1  0
 16 40  1  0
 17 41  1  0
 18 42  1  0
 19 43  1  0
 20 44  1  0
 23 45  1  0
 23 46  1  0
 24 47  1  0
 24 48  1  0
 26 49  1  0
 26 50  1  0
 26 51  1  0
 27 52  1  0
 27 53  1  0
 28 54  1  0
 28 55  1  0
 29 56  1  0
 30 57  1  0
M  END
>  <UniqueID>  (30) 
28

>  <SMILES>  (30) 
COc1ccc(C(=O)Nc2cc(-c3ccccc3)ccc2N2CCN(C)CC2)cc1

>  <Energy>  (30) 
81.88511727827358

>  <Genealogy>  (30) 
COc1ccc(C(=O)Nc2cc(-c3ccccc3)ccc2N2CCN(C)CC2)cc1 (3D coordinates assigned)
COc1ccc(C(=O)Nc2cc(-c3ccccc3)ccc2N2CCN(C)CC2)cc1 (nonaromatic ring conformer: 81.88511727827358 kcal/mol)

>  <smiles>  (30) 
COc1ccc(C(=O)Nc2cc(-c3ccccc3)ccc2N2CCN(C)CC2)cc1

>  <score_type>  (30) 
oracle

>  <origin>  (30) 
adg

>  <m_score__min__energy>  (30) 
-8.5999999999999996

>  <m_primary>  (30) 
energy

$$$$
30:0
     RDKit          3D

 51 53  0  0  0  0  0  0  0  0999 V2000
   -0.5210   26.4260  -23.4320 C   0  0  0  0  0  0  0  0  0  0  0  0
   -0.1430   26.8350  -24.8510 C   0  0  0  0  0  0  0  0  0  0  0  0
   -0.2230   25.7200  -25.7390 O   0  0  0  0  0  0  0  0  0  0  0  0
   -1.3670   25.3250  -26.4520 C   0  0  0  0  0  0  0  0  0  0  0  0
   -2.6560   25.3100  -25.8840 C   0  0  0  0  0  0  0  0  0  0  0  0
   -3.7570   24.9050  -26.6440 C   0  0  0  0  0  0  0  0  0  0  0  0
   -3.5970   24.5240  -27.9840 C   0  0  0  0  0  0  0  0  0  0  0  0
   -4.7440   24.0900  -28.7350 N   0  0  0  0  0  0  0  0  0  0  0  0
   -4.7630   23.9670  -30.1670 C   0  0  0  0  0  0  0  0  0  0  0  0
   -3.8760   24.5280  -30.8650 O   0  0  0  0  0  0  0  0  0  0  0  0
   -5.8770   23.2230  -30.8610 C   0  0  2  0  0  0  0  0  0  0  0  0
   -7.2310   23.4550  -30.1550 C   0  0  0  0  0  0  0  0  0  0  0  0
   -8.2210   22.3010  -30.3910 C   0  0  0  0  0  0  0  0  0  0  0  0
   -7.9440   21.6000  -31.7270 C   0  0  0  0  0  0  0  0  0  0  0  0
   -6.5950   20.9810  -31.7590 N   0  0  0  0  0  0  0  0  0  0  0  0
   -6.1670   20.7450  -33.1540 C   0  0  0  0  0  0  0  0  0  0  0  0
   -5.8610   19.2820  -33.3750 C   0  0  0  0  0  0  0  0  0  0  0  0
   -4.6150   18.9330  -33.9240 C   0  0  0  0  0  0  0  0  0  0  0  0
   -4.2890   17.5960  -34.1570 C   0  0  0  0  0  0  0  0  0  0  0  0
   -5.2040   16.5890  -33.8460 C   0  0  0  0  0  0  0  0  0  0  0  0
   -6.4460   16.9180  -33.3000 C   0  0  0  0  0  0  0  0  0  0  0  0
   -6.7850   18.2560  -33.0610 C   0  0  0  0  0  0  0  0  0  0  0  0
   -8.3720   18.5930  -32.3770 Cl  0  0  0  0  0  0  0  0  0  0  0  0
   -5.5670   21.7180  -30.9740 C   0  0  0  0  0  0  0  0  0  0  0  0
   -2.3080   24.5150  -28.5420 C   0  0  0  0  0  0  0  0  0  0  0  0
   -1.2070   24.9190  -27.7810 C   0  0  0  0  0  0  0  0  0  0  0  0
    0.0433   27.0366  -22.7118 H   0  0  0  0  0  0  0  0  0  0  0  0
   -1.5991   26.5827  -23.2801 H   0  0  0  0  0  0  0  0  0  0  0  0
   -0.2800   25.3635  -23.2801 H   0  0  0  0  0  0  0  0  0  0  0  0
   -0.8319   27.6203  -25.1954 H   0  0  0  0  0  0  0  0  0  0  0  0
    0.8918   27.2080  -24.8463 H   0  0  0  0  0  0  0  0  0  0  0  0
   -2.7968   25.6184  -24.8375 H   0  0  0  0  0  0  0  0  0  0  0  0
   -4.7574   24.8850  -26.1871 H   0  0  0  0  0  0  0  0  0  0  0  0
   -5.6340   23.9250  -28.2140 H   0  0  0  0  0  0  0  0  0  0  0  0
   -5.9531   23.6263  -31.8816 H   0  0  0  0  0  0  0  0  0  0  0  0
   -7.0535   23.5526  -29.0738 H   0  0  0  0  0  0  0  0  0  0  0  0
   -7.6757   24.3694  -30.5747 H   0  0  0  0  0  0  0  0  0  0  0  0
   -8.1222   21.5703  -29.5747 H   0  0  0  0  0  0  0  0  0  0  0  0
   -9.2398   22.7149  -30.4184 H   0  0  0  0  0  0  0  0  0  0  0  0
   -8.6991   20.8148  -31.8797 H   0  0  0  0  0  0  0  0  0  0  0  0
   -7.9907   22.3562  -32.5245 H   0  0  0  0  0  0  0  0  0  0  0  0
   -6.9727   21.0531  -33.8366 H   0  0  0  0  0  0  0  0  0  0  0  0
   -5.2574   21.3316  -33.3504 H   0  0  0  0  0  0  0  0  0  0  0  0
   -3.8895   19.7216  -34.1725 H   0  0  0  0  0  0  0  0  0  0  0  0
   -3.3101   17.3357  -34.5861 H   0  0  0  0  0  0  0  0  0  0  0  0
   -4.9464   15.5357  -34.0312 H   0  0  0  0  0  0  0  0  0  0  0  0
   -7.1636   16.1209  -33.0557 H   0  0  0  0  0  0  0  0  0  0  0  0
   -5.5226   21.2901  -29.9616 H   0  0  0  0  0  0  0  0  0  0  0  0
   -4.6066   21.6134  -31.5001 H   0  0  0  0  0  0  0  0  0  0  0  0
   -2.1642   24.1886  -29.5826 H   0  0  0  0  0  0  0  0  0  0  0  0
   -0.2038   24.9176  -28.2323 H   0  0  0  0  0  0  0  0  0  0  0  0
  1  2  1  0
  2  3  1  0
  3  4  1  0
  4  5  2  0
  5  6  1  0
  6  7  2  0
  7  8  1  0
  8  9  1  0
  9 10  2  0
  9 11  1  0
 11 12  1  0
 12 13  1  0
 13 14  1  0
 14 15  1  0
 15 16  1  0
 16 17  1  0
 17 18  2  0
 18 19  1  0
 19 20  2  0
 20 21  1  0
 21 22  2  0
 22 23  1  0
 15 24  1  0
  7 25  1  0
 25 26  2  0
 26  4  1  0
 24 11  1  0
 22 17  1  0
  1 27  1  0
  1 28  1  0
  1 29  1  0
  2 30  1  0
  2 31  1  0
  5 32  1  0
  6 33  1  0
  8 34  1  0
 11 35  1  6
 12 36  1  0
 12 37  1  0
 13 38  1  0
 13 39  1  0
 14 40  1  0
 14 41  1  0
 16 42  1  0
 16 43  1  0
 18 44  1  0
 19 45  1  0
 20 46  1  0
 21 47  1  0
 24 48  1  0
 24 49  1  0
 25 50  1  0
 26 51  1  0
M  END
>  <UniqueID>  (31) 
29

>  <SMILES>  (31) 
CCOc1ccc(NC(=O)[C@@H]2CCCN(Cc3ccccc3Cl)C2)cc1

>  <Energy>  (31) 
62.104993810255834

>  <Genealogy>  (31) 
CCOc1ccc(NC(=O)[C@@H]2CCCN(Cc3ccccc3Cl)C2)cc1 (chirality)
CCOc1ccc(NC(=O)[C@@H]2CCCN(Cc3ccccc3Cl)C2)cc1 (3D coordinates assigned)
CCOc1ccc(NC(=O)[C@@H]2CCCN(Cc3ccccc3Cl)C2)cc1 (nonaromatic ring conformer: 62.104993810255834 kcal/mol)

>  <smiles>  (31) 
CCOc1ccc(NC(=O)C2CCCN(Cc3ccccc3Cl)C2)cc1

>  <score_type>  (31) 
oracle

>  <origin>  (31) 
adg

>  <m_score__min__energy>  (31) 
-9.5299999999999994

>  <m_primary>  (31) 
energy

$$$$
31:0
     RDKit          3D

 41 42  0  0  0  0  0  0  0  0999 V2000
   -4.4290   20.3080  -33.1360 C   0  0  0  0  0  0  0  0  0  0  0  0
   -5.3060   21.3750  -32.7920 O   0  0  0  0  0  0  0  0  0  0  0  0
   -6.5850   21.2100  -32.2340 C   0  0  0  0  0  0  0  0  0  0  0  0
   -7.2210   19.9530  -32.2040 C   0  0  0  0  0  0  0  0  0  0  0  0
   -8.4990   19.8190  -31.6560 C   0  0  0  0  0  0  0  0  0  0  0  0
   -9.1590   20.9320  -31.1390 C   0  0  0  0  0  0  0  0  0  0  0  0
   -8.5410   22.1840  -31.1600 C   0  0  0  0  0  0  0  0  0  0  0  0
   -7.2480   22.3340  -31.6930 C   0  0  0  0  0  0  0  0  0  0  0  0
   -6.5990   23.7090  -31.6940 C   0  0  0  0  0  0  0  0  0  0  0  0
   -5.8310   24.0200  -30.4640 N   0  0  2  0  0  0  0  0  0  0  0  0
   -6.3750   25.1710  -29.7240 C   0  0  0  0  0  0  0  0  0  0  0  0
   -4.4140   24.1880  -30.7400 C   0  0  0  0  0  0  0  0  0  0  0  0
   -3.8710   25.2710  -30.5630 O   0  0  0  0  0  0  0  0  0  0  0  0
   -3.5940   23.0470  -31.2710 C   0  0  0  0  0  0  0  0  0  0  0  0
   -3.3590   21.8050  -29.9590 S   0  0  0  0  0  0  0  0  0  0  0  0
   -3.4510   23.0180  -28.6400 C   0  0  0  0  0  0  0  0  0  0  0  0
   -4.5950   23.3020  -27.9850 N   0  0  0  0  0  0  0  0  0  0  0  0
   -4.2400   24.2640  -27.1070 C   0  0  0  0  0  0  0  0  0  0  0  0
   -2.8980   24.5450  -27.2440 C   0  0  0  0  0  0  0  0  0  0  0  0
   -2.4040   23.7460  -28.2030 N   0  0  0  0  0  0  0  0  0  0  0  0
   -1.0410   23.7510  -28.7230 C   0  0  0  0  0  0  0  0  0  0  0  0
   -4.0439   19.8395  -32.2183 H   0  0  0  0  0  0  0  0  0  0  0  0
   -4.9765   19.5597  -33.7278 H   0  0  0  0  0  0  0  0  0  0  0  0
   -3.5888   20.7002  -33.7278 H   0  0  0  0  0  0  0  0  0  0  0  0
   -6.7077   19.0712  -32.6149 H   0  0  0  0  0  0  0  0  0  0  0  0
   -8.9854   18.8327  -31.6326 H   0  0  0  0  0  0  0  0  0  0  0  0
  -10.1678   20.8242  -30.7139 H   0  0  0  0  0  0  0  0  0  0  0  0
   -9.0697   23.0601  -30.7564 H   0  0  0  0  0  0  0  0  0  0  0  0
   -5.9135   23.7662  -32.5524 H   0  0  0  0  0  0  0  0  0  0  0  0
   -7.4156   24.4438  -31.7508 H   0  0  0  0  0  0  0  0  0  0  0  0
   -5.9390   23.1930  -29.8300 H   0  0  0  0  0  0  0  0  0  0  0  0
   -6.2878   24.9864  -28.6431 H   0  0  0  0  0  0  0  0  0  0  0  0
   -5.8098   26.0770  -29.9880 H   0  0  0  0  0  0  0  0  0  0  0  0
   -7.4338   25.3094  -29.9880 H   0  0  0  0  0  0  0  0  0  0  0  0
   -4.1154   22.5861  -32.1229 H   0  0  0  0  0  0  0  0  0  0  0  0
   -2.6138   23.4222  -31.6002 H   0  0  0  0  0  0  0  0  0  0  0  0
   -4.9190   24.7499  -26.3908 H   0  0  0  0  0  0  0  0  0  0  0  0
   -2.3314   25.2922  -26.6690 H   0  0  0  0  0  0  0  0  0  0  0  0
   -0.3288   23.7536  -27.8847 H   0  0  0  0  0  0  0  0  0  0  0  0
   -0.8800   22.8534  -29.3382 H   0  0  0  0  0  0  0  0  0  0  0  0
   -0.8865   24.6497  -29.3382 H   0  0  0  0  0  0  0  0  0  0  0  0
  1  2  1  0
  2  3  1  0
  3  4  2  0
  4  5  1  0
  5  6  2  0
  6  7  1  0
  7  8  2  0
  8  9  1  0
  9 10  1  0
 10 11  1  0
 10 12  1  0
 12 13  2  0
 12 14  1  0
 14 15  1  0
 15 16  1  0
 16 17  2  0
 17 18  1  0
 18 19  2  0
 19 20  1  0
 20 21  1  0
  8  3  1  0
 20 16  1  0
  1 22  1  0
  1 23  1  0
  1 24  1  0
  4 25  1  0
  5 26  1  0
  6 27  1  0
  7 28  1  0
  9 29  1  0
  9 30  1  0
 10 31  1  1
 11 32  1  0
 11 33  1  0
 11 34  1  0
 14 35  1  0
 14 36  1  0
 18 37  1  0
 19 38  1  0
 21 39  1  0
 21 40  1  0
 21 41  1  0
M  CHG  1  10   1
M  END
>  <UniqueID>  (32) 
30

>  <SMILES>  (32) 
COc1ccccc1C[N@H+](C)C(=O)CSc1nccn1C

>  <Energy>  (32) 
67.20942094903585

>  <Genealogy>  (32) 
COc1ccccc1C[NH+](C)C(=O)CSc1nccn1C (protonated)
COc1ccccc1C[N@H+](C)C(=O)CSc1nccn1C (chirality)
COc1ccccc1C[N@H+](C)C(=O)CSc1nccn1C (3D coordinates assigned)
COc1ccccc1C[N@H+](C)C(=O)CSc1nccn1C (optimized conformer: 67.20942094903585 kcal/mol)

>  <smiles>  (32) 
COc1ccccc1CN(C)C(=O)CSc1nccn1C

>  <score_type>  (32) 
oracle

>  <origin>  (32) 
adg

>  <m_score__min__energy>  (32) 
-6.54

>  <m_primary>  (32) 
energy

$$$$
32:0
     RDKit          3D

 55 58  0  0  0  0  0  0  0  0999 V2000
   -2.1630   20.4060  -32.7150 C   0  0  0  0  0  0  0  0  0  0  0  0
   -2.6890   21.2000  -33.8280 N   0  0  0  0  0  0  0  0  0  0  0  0
   -3.8800   21.9700  -33.4360 C   0  0  0  0  0  0  0  0  0  0  0  0
   -5.0620   21.0780  -33.0940 C   0  0  0  0  0  0  0  0  0  0  0  0
   -4.9360   19.7350  -33.3070 N   0  0  0  0  0  0  0  0  0  0  0  0
   -5.9620   18.8720  -33.0640 C   0  0  0  0  0  0  0  0  0  0  0  0
   -5.8150   17.4130  -33.2910 C   0  0  0  0  0  0  0  0  0  0  0  0
   -6.8150   16.7040  -33.9790 C   0  0  0  0  0  0  0  0  0  0  0  0
   -6.6930   15.3280  -34.1950 C   0  0  0  0  0  0  0  0  0  0  0  0
   -5.5680   14.6320  -33.7160 C   0  0  0  0  0  0  0  0  0  0  0  0
   -5.4000   13.2530  -33.9080 O   0  0  0  0  0  0  0  0  0  0  0  0
   -6.3420   12.4110  -34.5650 C   0  0  0  0  0  0  0  0  0  0  0  0
   -4.5780   15.3330  -33.0200 C   0  0  0  0  0  0  0  0  0  0  0  0
   -4.6980   16.7100  -32.8040 C   0  0  0  0  0  0  0  0  0  0  0  0
   -7.1500   19.3580  -32.6230 N   0  0  0  0  0  0  0  0  0  0  0  0
   -7.3480   20.6810  -32.4050 C   0  0  0  0  0  0  0  0  0  0  0  0
   -6.2920   21.5910  -32.6080 C   0  0  0  0  0  0  0  0  0  0  0  0
   -6.5430   23.0810  -32.4260 C   0  0  0  0  0  0  0  0  0  0  0  0
   -7.6540   23.3660  -31.4960 N   0  0  0  0  0  0  0  0  0  0  0  0
   -7.2660   23.1460  -30.0840 C   0  0  0  0  0  0  0  0  0  0  0  0
   -5.7930   23.3900  -29.8860 C   0  0  0  0  0  0  0  0  0  0  0  0
   -4.9180   22.3060  -29.7060 C   0  0  0  0  0  0  0  0  0  0  0  0
   -3.5480   22.5270  -29.5410 C   0  0  0  0  0  0  0  0  0  0  0  0
   -3.0410   23.8300  -29.5570 C   0  0  0  0  0  0  0  0  0  0  0  0
   -3.9050   24.9140  -29.7390 C   0  0  0  0  0  0  0  0  0  0  0  0
   -5.2760   24.6980  -29.9050 C   0  0  0  0  0  0  0  0  0  0  0  0
   -8.8720   22.6370  -31.9030 C   0  0  0  0  0  0  0  0  0  0  0  0
   -8.6840   21.1150  -31.8700 C   0  0  0  0  0  0  0  0  0  0  0  0
   -2.4665   20.8642  -31.7621 H   0  0  0  0  0  0  0  0  0  0  0  0
   -2.5625   19.3828  -32.7736 H   0  0  0  0  0  0  0  0  0  0  0  0
   -1.0650   20.3748  -32.7736 H   0  0  0  0  0  0  0  0  0  0  0  0
   -2.9280   20.5500  -34.6120 H   0  0  0  0  0  0  0  0  0  0  0  0
   -3.6317   22.5800  -32.5550 H   0  0  0  0  0  0  0  0  0  0  0  0
   -4.1703   22.5965  -34.2923 H   0  0  0  0  0  0  0  0  0  0  0  0
   -4.0400   19.3700  -33.7030 H   0  0  0  0  0  0  0  0  0  0  0  0
   -7.7023   17.2370  -34.3511 H   0  0  0  0  0  0  0  0  0  0  0  0
   -7.4798   14.7874  -34.7416 H   0  0  0  0  0  0  0  0  0  0  0  0
   -6.9413   11.8753  -33.8140 H   0  0  0  0  0  0  0  0  0  0  0  0
   -7.0047   13.0233  -35.1942 H   0  0  0  0  0  0  0  0  0  0  0  0
   -5.8076   11.6840  -35.1942 H   0  0  0  0  0  0  0  0  0  0  0  0
   -3.6966   14.7965  -32.6388 H   0  0  0  0  0  0  0  0  0  0  0  0
   -3.9138   17.2465  -32.2497 H   0  0  0  0  0  0  0  0  0  0  0  0
   -5.6272   23.5459  -32.0321 H   0  0  0  0  0  0  0  0  0  0  0  0
   -6.8202   23.4920  -33.4080 H   0  0  0  0  0  0  0  0  0  0  0  0
   -7.8345   23.8357  -29.4428 H   0  0  0  0  0  0  0  0  0  0  0  0
   -7.4878   22.1020  -29.8176 H   0  0  0  0  0  0  0  0  0  0  0  0
   -5.3126   21.2793  -29.6949 H   0  0  0  0  0  0  0  0  0  0  0  0
   -2.8675   21.6746  -29.3983 H   0  0  0  0  0  0  0  0  0  0  0  0
   -1.9624   24.0022  -29.4264 H   0  0  0  0  0  0  0  0  0  0  0  0
   -3.5052   25.9387  -29.7516 H   0  0  0  0  0  0  0  0  0  0  0  0
   -5.9524   25.5531  -30.0509 H   0  0  0  0  0  0  0  0  0  0  0  0
   -9.6897   22.9064  -31.2184 H   0  0  0  0  0  0  0  0  0  0  0  0
   -9.1020   22.9230  -32.9400 H   0  0  0  0  0  0  0  0  0  0  0  0
   -8.7736   20.7724  -30.8286 H   0  0  0  0  0  0  0  0  0  0  0  0
   -9.4582   20.6718  -32.5136 H   0  0  0  0  0  0  0  0  0  0  0  0
  1  2  1  0
  2  3  1  0
  3  4  1  0
  4  5  2  0
  5  6  1  0
  6  7  1  0
  7  8  2  0
  8  9  1  0
  9 10  2  0
 10 11  1  0
 11 12  1  0
 10 13  1  0
 13 14  2  0
  6 15  2  0
 15 16  1  0
 16 17  2  0
 17 18  1  0
 18 19  1  0
 19 20  1  0
 20 21  1  0
 21 22  2  0
 22 23  1  0
 23 24  2  0
 24 25  1  0
 25 26  2  0
 19 27  1  0
 27 28  1  0
 17  4  1  0
 26 21  1  0
 14  7  1  0
 28 16  1  0
  1 29  1  0
  1 30  1  0
  1 31  1  0
  2 32  1  0
  3 33  1  0
  3 34  1  0
  5 35  1  0
  8 36  1  0
  9 37  1  0
 12 38  1  0
 12 39  1  0
 12 40  1  0
 13 41  1  0
 14 42  1  0
 18 43  1  0
 18 44  1  0
 20 45  1  0
 20 46  1  0
 22 47  1  0
 23 48  1  0
 24 49  1  0
 25 50  1  0
 26 51  1  0
 27 52  1  0
 27 53  1  0
 28 54  1  0
 28 55  1  0
M  CHG  1   5   1
M  END
>  <UniqueID>  (33) 
31

>  <SMILES>  (33) 
CNCc1[nH+]c(-c2ccc(OC)cc2)nc2c1CN(Cc1ccccc1)CC2

>  <Energy>  (33) 
69.02425053099442

>  <Genealogy>  (33) 
CNCc1[nH+]c(-c2ccc(OC)cc2)nc2c1CN(Cc1ccccc1)CC2 (protonated)
CNCc1[nH+]c(-c2ccc(OC)cc2)nc2c1CN(Cc1ccccc1)CC2 (3D coordinates assigned)
CNCc1[nH+]c(-c2ccc(OC)cc2)nc2c1CN(Cc1ccccc1)CC2 (nonaromatic ring conformer: 69.02425053099442 kcal/mol)

>  <smiles>  (33) 
CNCc1nc(-c2ccc(OC)cc2)nc2c1CN(Cc1ccccc1)CC2

>  <score_type>  (33) 
oracle

>  <origin>  (33) 
adg

>  <m_score__min__energy>  (33) 
-8.1600000000000001

>  <m_primary>  (33) 
energy

$$$$
33:0
     RDKit          3D

 35 37  0  0  0  0  0  0  0  0999 V2000
    0.9081   24.3307  -25.3732 H   0  0  0  0  0  0  0  0  0  0  0  0
   -0.0630   24.7110  -25.7230 C   0  0  0  0  0  0  0  0  0  0  0  0
   -0.7640   25.6440  -24.9600 C   0  0  0  0  0  0  0  0  0  0  0  0
   -0.3521   26.0030  -24.0053 H   0  0  0  0  0  0  0  0  0  0  0  0
   -1.9940   26.1180  -25.4200 C   0  0  0  0  0  0  0  0  0  0  0  0
   -2.5542   26.8555  -24.8265 H   0  0  0  0  0  0  0  0  0  0  0  0
   -2.5020   25.6700  -26.6010 N   0  0  0  0  0  0  0  0  0  0  0  0
   -3.4260   26.0470  -26.9130 H   0  0  0  0  0  0  0  0  0  0  0  0
   -1.8370   24.7550  -27.3690 C   0  0  0  0  0  0  0  0  0  0  0  0
   -2.4170   24.2890  -28.6450 C   0  0  0  0  0  0  0  0  0  0  0  0
   -3.3980   24.9280  -29.3050 N   0  0  0  0  0  0  0  0  0  0  0  0
   -3.5930   24.1530  -30.3930 C   0  0  0  0  0  0  0  0  0  0  0  0
   -4.5810   24.4450  -31.2060 N   0  0  0  0  0  0  0  0  0  0  0  0
   -6.0440   24.5490  -31.3510 C   0  0  0  0  0  0  0  0  0  0  0  0
   -5.9768   24.9363  -32.3784 H   0  0  0  0  0  0  0  0  0  0  0  0
   -6.9220   23.5110  -30.7030 C   0  0  0  0  0  0  0  0  0  0  0  0
   -7.8591   23.2002  -31.1880 H   0  0  0  0  0  0  0  0  0  0  0  0
   -6.7769   22.4856  -30.3321 H   0  0  0  0  0  0  0  0  0  0  0  0
   -6.7960   24.9220  -30.0980 C   0  0  0  0  0  0  0  0  0  0  0  0
   -7.6424   25.6227  -30.1499 H   0  0  0  0  0  0  0  0  0  0  0  0
   -6.5228   25.3298  -29.1136 H   0  0  0  0  0  0  0  0  0  0  0  0
   -2.7400   23.0790  -30.3920 N   0  0  0  0  0  0  0  0  0  0  0  0
   -2.3000   22.1350  -31.4230 C   0  0  0  0  0  0  0  0  0  0  0  0
   -1.4567   21.5434  -31.0373 H   0  0  0  0  0  0  0  0  0  0  0  0
   -1.9881   22.6985  -32.3147 H   0  0  0  0  0  0  0  0  0  0  0  0
   -3.4480   21.1910  -31.8050 C   0  0  0  0  0  0  0  0  0  0  0  0
   -4.1798   21.1665  -30.9841 H   0  0  0  0  0  0  0  0  0  0  0  0
   -3.0288   20.1898  -31.9834 H   0  0  0  0  0  0  0  0  0  0  0  0
   -4.1470   21.6540  -33.0800 C   0  0  0  0  0  0  0  0  0  0  0  0
   -5.0374   22.2438  -32.8165 H   0  0  0  0  0  0  0  0  0  0  0  0
   -3.4578   22.2748  -33.6713 H   0  0  0  0  0  0  0  0  0  0  0  0
   -4.4497   20.7772  -33.6713 H   0  0  0  0  0  0  0  0  0  0  0  0
   -2.0090   23.1870  -29.2930 N   0  0  0  0  0  0  0  0  0  0  0  0
   -0.5960   24.2610  -26.9310 C   0  0  0  0  0  0  0  0  0  0  0  0
   -0.0486   23.5241  -27.5371 H   0  0  0  0  0  0  0  0  0  0  0  0
  1  2  1  0
  2  3  2  0
  3  4  1  0
  3  5  1  0
  5  6  1  0
  5  7  2  0
  7  8  1  0
  7  9  1  0
  9 10  1  0
 10 11  2  0
 11 12  1  0
 12 13  2  0
 13 14  1  0
 14 15  1  0
 14 16  1  0
 16 17  1  0
 16 18  1  0
 16 19  1  0
 19 20  1  0
 19 21  1  0
 12 22  1  0
 22 23  1  0
 23 24  1  0
 23 25  1  0
 23 26  1  0
 26 27  1  0
 26 28  1  0
 26 29  1  0
 29 30  1  0
 29 31  1  0
 29 32  1  0
 22 33  1  0
  9 34  2  0
 34 35  1  0
 34  2  1  0
 33 10  1  0
 19 14  1  0
M  CHG  2   7   1  33  -1
M  END
>  <UniqueID>  (34) 
32

>  <SMILES>  (34) 
CCCn1[n-]c(-c2cccc[nH+]2)n/c1=N/C1CC1

>  <Energy>  (34) 
366.7575359111314

>  <Genealogy>  (34) 
CCCn1[n-]c(-c2cccc[nH+]2)nc1=NC1CC1 (protonated)
CCCn1[n-]c(-c2cccc[nH+]2)n/c1=N/C1CC1 (cis-trans isomerization)
CCCn1[n-]c(-c2cccc[nH+]2)n/c1=N/C1CC1 (3D coordinates assigned)
CCCn1[n-]c(-c2cccc[nH+]2)n/c1=N/C1CC1 (nonaromatic ring conformer: 366.7575359111314 kcal/mol)

>  <smiles>  (34) 
CCCn1[nH]c(-c2ccccn2)nc1=NC1CC1

>  <score_type>  (34) 
oracle

>  <origin>  (34) 
adg

>  <m_score__min__energy>  (34) 
-6.1399999999999997

>  <m_primary>  (34) 
energy

$$$$
34:0
     RDKit          3D

 51 53  0  0  0  0  0  0  0  0999 V2000
   -6.1320   25.3060  -29.4920 C   0  0  0  0  0  0  0  0  0  0  0  0
   -5.3330   25.4230  -30.7850 C   0  0  0  0  0  0  0  0  0  0  0  0
   -3.9380   25.2540  -30.5350 O   0  0  0  0  0  0  0  0  0  0  0  0
   -3.3350   24.0980  -30.0090 C   0  0  0  0  0  0  0  0  0  0  0  0
   -2.8680   24.0180  -28.6820 C   0  0  0  0  0  0  0  0  0  0  0  0
   -2.2790   22.8420  -28.2120 C   0  0  0  0  0  0  0  0  0  0  0  0
   -2.1390   21.7400  -29.0570 C   0  0  0  0  0  0  0  0  0  0  0  0
   -2.5810   21.8080  -30.3870 C   0  0  0  0  0  0  0  0  0  0  0  0
   -2.4500   20.6040  -31.2870 C   0  0  0  0  0  0  0  0  0  0  0  0
   -3.7420   19.9120  -31.4170 N   0  0  0  0  0  0  0  0  0  0  0  0
   -4.5290   20.4950  -32.5210 C   0  0  0  0  0  0  0  0  0  0  0  0
   -5.9340   19.8180  -32.6790 C   0  0  0  0  0  0  0  0  0  0  0  0
   -7.0850   20.7970  -32.3340 C   0  0  0  0  0  0  0  0  0  0  0  0
   -8.4370   20.3780  -32.2370 C   0  0  0  0  0  0  0  0  0  0  0  0
   -9.4590   21.2950  -31.9780 C   0  0  0  0  0  0  0  0  0  0  0  0
   -9.1710   22.6520  -31.8470 C   0  0  0  0  0  0  0  0  0  0  0  0
   -7.8560   23.0970  -31.9900 C   0  0  0  0  0  0  0  0  0  0  0  0
   -6.8280   22.1870  -32.2500 C   0  0  0  0  0  0  0  0  0  0  0  0
   -5.9480   18.5110  -31.8360 C   0  0  0  0  0  0  0  0  0  0  0  0
   -6.6280   17.4580  -32.6890 C   0  0  0  0  0  0  0  0  0  0  0  0
   -6.2420   17.8130  -34.1090 C   0  0  0  0  0  0  0  0  0  0  0  0
   -6.1230   19.3310  -34.1430 C   0  0  0  0  0  0  0  0  0  0  0  0
   -3.1910   22.9870  -30.8530 C   0  0  0  0  0  0  0  0  0  0  0  0
   -3.6510   23.0580  -32.1280 F   0  0  0  0  0  0  0  0  0  0  0  0
   -5.4538   25.4053  -28.6316 H   0  0  0  0  0  0  0  0  0  0  0  0
   -6.8895   26.1028  -29.4557 H   0  0  0  0  0  0  0  0  0  0  0  0
   -6.6292   24.3255  -29.4557 H   0  0  0  0  0  0  0  0  0  0  0  0
   -5.6699   24.6476  -31.4887 H   0  0  0  0  0  0  0  0  0  0  0  0
   -5.4964   26.4237  -31.2115 H   0  0  0  0  0  0  0  0  0  0  0  0
   -2.9678   24.8856  -28.0132 H   0  0  0  0  0  0  0  0  0  0  0  0
   -1.9243   22.7841  -27.1724 H   0  0  0  0  0  0  0  0  0  0  0  0
   -1.6803   20.8145  -28.6788 H   0  0  0  0  0  0  0  0  0  0  0  0
   -2.1133   20.9311  -32.2818 H   0  0  0  0  0  0  0  0  0  0  0  0
   -1.7186   19.9101  -30.8471 H   0  0  0  0  0  0  0  0  0  0  0  0
   -4.2680   20.0080  -30.5190 H   0  0  0  0  0  0  0  0  0  0  0  0
   -3.5630   18.8990  -31.6030 H   0  0  0  0  0  0  0  0  0  0  0  0
   -4.6743   21.5672  -32.3229 H   0  0  0  0  0  0  0  0  0  0  0  0
   -3.9707   20.3283  -33.4540 H   0  0  0  0  0  0  0  0  0  0  0  0
   -8.6846   19.3142  -32.3678 H   0  0  0  0  0  0  0  0  0  0  0  0
  -10.4965   20.9437  -31.8770 H   0  0  0  0  0  0  0  0  0  0  0  0
   -9.9766   23.3694  -31.6318 H   0  0  0  0  0  0  0  0  0  0  0  0
   -7.6277   24.1691  -31.8976 H   0  0  0  0  0  0  0  0  0  0  0  0
   -5.8017   22.5566  -32.3918 H   0  0  0  0  0  0  0  0  0  0  0  0
   -4.9198   18.2013  -31.5973 H   0  0  0  0  0  0  0  0  0  0  0  0
   -6.4792   18.6566  -30.8838 H   0  0  0  0  0  0  0  0  0  0  0  0
   -6.2661   16.4527  -32.4275 H   0  0  0  0  0  0  0  0  0  0  0  0
   -7.7182   17.4421  -32.5435 H   0  0  0  0  0  0  0  0  0  0  0  0
   -5.2803   17.3480  -34.3716 H   0  0  0  0  0  0  0  0  0  0  0  0
   -6.9871   17.4503  -34.8324 H   0  0  0  0  0  0  0  0  0  0  0  0
   -5.2557   19.6261  -34.7519 H   0  0  0  0  0  0  0  0  0  0  0  0
   -7.0234   19.7802  -34.5875 H   0  0  0  0  0  0  0  0  0  0  0  0
  1  2  1  0
  2  3  1  0
  3  4  1  0
  4  5  2  0
  5  6  1  0
  6  7  2  0
  7  8  1  0
  8  9  1  0
  9 10  1  0
 10 11  1  0
 11 12  1  0
 12 13  1  0
 13 14  2  0
 14 15  1  0
 15 16  2  0
 16 17  1  0
 17 18  2  0
 12 19  1  0
 19 20  1  0
 20 21  1  0
 21 22  1  0
  8 23  2  0
 23 24  1  0
 23  4  1  0
 22 12  1  0
 18 13  1  0
  1 25  1  0
  1 26  1  0
  1 27  1  0
  2 28  1  0
  2 29  1  0
  5 30  1  0
  6 31  1  0
  7 32  1  0
  9 33  1  0
  9 34  1  0
 10 35  1  0
 10 36  1  0
 11 37  1  0
 11 38  1  0
 14 39  1  0
 15 40  1  0
 16 41  1  0
 17 42  1  0
 18 43  1  0
 19 44  1  0
 19 45  1  0
 20 46  1  0
 20 47  1  0
 21 48  1  0
 21 49  1  0
 22 50  1  0
 22 51  1  0
M  CHG  1  10   1
M  END
>  <UniqueID>  (35) 
33

>  <SMILES>  (35) 
CCOc1cccc(C[NH2+]CC2(c3ccccc3)CCCC2)c1F

>  <Energy>  (35) 
59.029254132406585

>  <Genealogy>  (35) 
CCOc1cccc(C[NH2+]CC2(c3ccccc3)CCCC2)c1F (protonated)
CCOc1cccc(C[NH2+]CC2(c3ccccc3)CCCC2)c1F (3D coordinates assigned)
CCOc1cccc(C[NH2+]CC2(c3ccccc3)CCCC2)c1F (nonaromatic ring conformer: 59.029254132406585 kcal/mol)

>  <smiles>  (35) 
CCOc1cccc(CNCC2(c3ccccc3)CCCC2)c1F

>  <score_type>  (35) 
oracle

>  <origin>  (35) 
adg

>  <m_score__min__energy>  (35) 
-8.4000000000000004

>  <m_primary>  (35) 
energy

$$$$
35:0
     RDKit          3D

 54 56  0  0  0  0  0  0  0  0999 V2000
   -5.6960   14.9920  -33.8500 C   0  0  0  0  0  0  0  0  0  0  0  0
   -5.8100   16.2450  -34.5170 O   0  0  0  0  0  0  0  0  0  0  0  0
   -6.3170   17.4120  -33.9280 C   0  0  0  0  0  0  0  0  0  0  0  0
   -7.2230   17.2830  -32.8690 C   0  0  0  0  0  0  0  0  0  0  0  0
   -7.7550   18.4150  -32.2460 C   0  0  0  0  0  0  0  0  0  0  0  0
   -7.3880   19.6980  -32.6780 C   0  0  0  0  0  0  0  0  0  0  0  0
   -7.9210   20.9230  -31.9820 C   0  0  0  0  0  0  0  0  0  0  0  0
   -6.8020   21.7570  -31.3280 C   0  0  0  0  0  0  0  0  0  0  0  0
   -6.2050   22.7630  -32.2550 N   0  0  0  0  0  0  0  0  0  0  0  0
   -6.6370   24.1540  -31.9470 C   0  0  0  0  0  0  0  0  0  0  0  0
   -5.7370   24.8560  -30.9060 C   0  0  0  0  0  0  0  0  0  0  0  0
   -5.0330   23.8550  -30.0900 N   0  0  0  0  0  0  0  0  0  0  0  0
   -4.3480   24.4820  -28.9430 C   0  0  0  0  0  0  0  0  0  0  0  0
   -3.1810   23.6300  -28.5050 C   0  0  0  0  0  0  0  0  0  0  0  0
   -3.3980   22.3110  -28.0740 C   0  0  0  0  0  0  0  0  0  0  0  0
   -2.3270   21.5250  -27.6440 C   0  0  0  0  0  0  0  0  0  0  0  0
   -1.0330   22.0460  -27.6380 C   0  0  0  0  0  0  0  0  0  0  0  0
   -0.8040   23.3580  -28.0600 C   0  0  0  0  0  0  0  0  0  0  0  0
   -1.8750   24.1630  -28.4980 C   0  0  0  0  0  0  0  0  0  0  0  0
   -1.6800   25.4880  -28.9240 O   0  0  0  0  0  0  0  0  0  0  0  0
   -0.9020   26.4560  -28.2290 C   0  0  0  0  0  0  0  0  0  0  0  0
   -4.0940   23.0770  -30.9270 C   0  0  0  0  0  0  0  0  0  0  0  0
   -4.7270   22.6760  -32.2800 C   0  0  0  0  0  0  0  0  0  0  0  0
   -6.4770   19.8330  -33.7380 C   0  0  0  0  0  0  0  0  0  0  0  0
   -5.9450   18.7000  -34.3600 C   0  0  0  0  0  0  0  0  0  0  0  0
   -5.7107   15.1531  -32.7620 H   0  0  0  0  0  0  0  0  0  0  0  0
   -6.5391   14.3461  -34.1364 H   0  0  0  0  0  0  0  0  0  0  0  0
   -4.7502   14.5089  -34.1364 H   0  0  0  0  0  0  0  0  0  0  0  0
   -7.5190   16.2813  -32.5240 H   0  0  0  0  0  0  0  0  0  0  0  0
   -8.4645   18.2995  -31.4134 H   0  0  0  0  0  0  0  0  0  0  0  0
   -8.4442   21.5494  -32.7194 H   0  0  0  0  0  0  0  0  0  0  0  0
   -8.6011   20.5882  -31.1849 H   0  0  0  0  0  0  0  0  0  0  0  0
   -7.2215   22.2863  -30.4597 H   0  0  0  0  0  0  0  0  0  0  0  0
   -6.0007   21.0614  -31.0379 H   0  0  0  0  0  0  0  0  0  0  0  0
   -6.5200   22.5510  -33.2320 H   0  0  0  0  0  0  0  0  0  0  0  0
   -6.6173   24.7401  -32.8777 H   0  0  0  0  0  0  0  0  0  0  0  0
   -7.6476   24.0940  -31.5169 H   0  0  0  0  0  0  0  0  0  0  0  0
   -4.9997   25.4844  -31.4272 H   0  0  0  0  0  0  0  0  0  0  0  0
   -6.3631   25.4792  -30.2505 H   0  0  0  0  0  0  0  0  0  0  0  0
   -3.9818   25.4765  -29.2376 H   0  0  0  0  0  0  0  0  0  0  0  0
   -5.0578   24.5761  -28.1080 H   0  0  0  0  0  0  0  0  0  0  0  0
   -4.4164   21.8952  -28.0752 H   0  0  0  0  0  0  0  0  0  0  0  0
   -2.5041   20.4923  -27.3091 H   0  0  0  0  0  0  0  0  0  0  0  0
   -0.1917   21.4229  -27.3005 H   0  0  0  0  0  0  0  0  0  0  0  0
    0.2179   23.7651  -28.0504 H   0  0  0  0  0  0  0  0  0  0  0  0
   -1.0188   26.3106  -27.1449 H   0  0  0  0  0  0  0  0  0  0  0  0
    0.1572   26.3401  -28.5024 H   0  0  0  0  0  0  0  0  0  0  0  0
   -1.2430   27.4654  -28.5024 H   0  0  0  0  0  0  0  0  0  0  0  0
   -3.1993   23.6872  -31.1195 H   0  0  0  0  0  0  0  0  0  0  0  0
   -3.8352   22.1558  -30.3844 H   0  0  0  0  0  0  0  0  0  0  0  0
   -4.3459   23.3488  -33.0624 H   0  0  0  0  0  0  0  0  0  0  0  0
   -4.4542   21.6299  -32.4830 H   0  0  0  0  0  0  0  0  0  0  0  0
   -6.1806   20.8354  -34.0806 H   0  0  0  0  0  0  0  0  0  0  0  0
   -5.2328   18.8147  -35.1904 H   0  0  0  0  0  0  0  0  0  0  0  0
  1  2  1  0
  2  3  1  0
  3  4  2  0
  4  5  1  0
  5  6  2  0
  6  7  1  0
  7  8  1  0
  8  9  1  0
  9 10  1  0
 10 11  1  0
 11 12  1  0
 12 13  1  0
 13 14  1  0
 14 15  2  0
 15 16  1  0
 16 17  2  0
 17 18  1  0
 18 19  2  0
 19 20  1  0
 20 21  1  0
 12 22  1  0
 22 23  1  0
  6 24  1  0
 24 25  2  0
 25  3  1  0
 23  9  1  0
 19 14  1  0
  1 26  1  0
  1 27  1  0
  1 28  1  0
  4 29  1  0
  5 30  1  0
  7 31  1  0
  7 32  1  0
  8 33  1  0
  8 34  1  0
  9 35  1  0
 10 36  1  0
 10 37  1  0
 11 38  1  0
 11 39  1  0
 13 40  1  0
 13 41  1  0
 15 42  1  0
 16 43  1  0
 17 44  1  0
 18 45  1  0
 21 46  1  0
 21 47  1  0
 21 48  1  0
 22 49  1  0
 22 50  1  0
 23 51  1  0
 23 52  1  0
 24 53  1  0
 25 54  1  0
M  CHG  1   9   1
M  END
>  <UniqueID>  (36) 
34

>  <SMILES>  (36) 
COc1ccc(CC[NH+]2CCN(Cc3ccccc3OC)CC2)cc1

>  <Energy>  (36) 
63.728119233947545

>  <Genealogy>  (36) 
COc1ccc(CC[NH+]2CCN(Cc3ccccc3OC)CC2)cc1 (protonated)
COc1ccc(CC[NH+]2CCN(Cc3ccccc3OC)CC2)cc1 (3D coordinates assigned)
COc1ccc(CC[NH+]2CCN(Cc3ccccc3OC)CC2)cc1 (nonaromatic ring conformer: 63.728119233947545 kcal/mol)

>  <smiles>  (36) 
COc1ccc(CCN2CCN(Cc3ccccc3OC)CC2)cc1

>  <score_type>  (36) 
oracle

>  <origin>  (36) 
adg

>  <m_score__min__energy>  (36) 
-7.5099999999999998

>  <m_primary>  (36) 
energy

$$$$
36:0
     RDKit          3D

 51 54  0  0  0  0  0  0  0  0999 V2000
   -0.7730   21.0950  -32.0110 C   0  0  0  0  0  0  0  0  0  0  0  0
   -1.1940   21.3240  -30.6710 O   0  0  0  0  0  0  0  0  0  0  0  0
   -1.0060   20.4380  -29.6010 C   0  0  0  0  0  0  0  0  0  0  0  0
    0.0900   19.5540  -29.5860 C   0  0  0  0  0  0  0  0  0  0  0  0
    0.2910   18.6880  -28.5170 C   0  0  0  0  0  0  0  0  0  0  0  0
   -0.5830   18.6950  -27.4360 C   0  0  0  0  0  0  0  0  0  0  0  0
   -1.6880   19.5670  -27.4170 C   0  0  0  0  0  0  0  0  0  0  0  0
   -2.5610   19.6030  -26.3160 O   0  0  0  0  0  0  0  0  0  0  0  0
   -3.4220   18.5400  -25.9230 C   0  0  0  0  0  0  0  0  0  0  0  0
   -1.9280   20.4300  -28.5170 C   0  0  0  0  0  0  0  0  0  0  0  0
   -3.1430   21.3680  -28.4520 C   0  0  1  0  0  0  0  0  0  0  0  0
   -3.0870   22.2520  -27.2650 N   0  0  0  0  0  0  0  0  0  0  0  0
   -2.2420   23.4090  -27.4440 C   0  0  0  0  0  0  0  0  0  0  0  0
   -1.5120   23.9310  -26.3620 C   0  0  0  0  0  0  0  0  0  0  0  0
   -0.8040   25.1290  -26.4980 C   0  0  0  0  0  0  0  0  0  0  0  0
   -0.8360   25.8270  -27.7060 C   0  0  0  0  0  0  0  0  0  0  0  0
   -1.5720   25.3280  -28.7850 C   0  0  0  0  0  0  0  0  0  0  0  0
   -2.2790   24.1220  -28.6530 C   0  0  0  0  0  0  0  0  0  0  0  0
   -2.9950   23.5180  -29.7820 C   0  0  0  0  0  0  0  0  0  0  0  0
   -3.2210   24.1870  -30.8280 O   0  0  0  0  0  0  0  0  0  0  0  0
   -3.3680   22.1270  -29.7030 N   0  0  0  0  0  0  0  0  0  0  0  0
   -3.8880   21.4300  -30.8870 C   0  0  0  0  0  0  0  0  0  0  0  0
   -5.3420   21.7620  -31.0980 C   0  0  0  0  0  0  0  0  0  0  0  0
   -6.1350   20.9610  -31.9390 C   0  0  0  0  0  0  0  0  0  0  0  0
   -7.4900   21.2530  -32.1190 C   0  0  0  0  0  0  0  0  0  0  0  0
   -8.0650   22.3440  -31.4590 C   0  0  0  0  0  0  0  0  0  0  0  0
   -9.3800   22.6240  -31.6340 F   0  0  0  0  0  0  0  0  0  0  0  0
   -7.2820   23.1460  -30.6210 C   0  0  0  0  0  0  0  0  0  0  0  0
   -5.9270   22.8590  -30.4400 C   0  0  0  0  0  0  0  0  0  0  0  0
    0.1933   20.5694  -32.0070 H   0  0  0  0  0  0  0  0  0  0  0  0
   -1.5226   20.4803  -32.5309 H   0  0  0  0  0  0  0  0  0  0  0  0
   -0.6643   22.0583  -32.5309 H   0  0  0  0  0  0  0  0  0  0  0  0
    0.7955   19.5485  -30.4300 H   0  0  0  0  0  0  0  0  0  0  0  0
    1.1449   17.9946  -28.5267 H   0  0  0  0  0  0  0  0  0  0  0  0
   -0.4099   18.0143  -26.5894 H   0  0  0  0  0  0  0  0  0  0  0  0
   -3.4636   18.4887  -24.8250 H   0  0  0  0  0  0  0  0  0  0  0  0
   -4.4319   18.7202  -26.3201 H   0  0  0  0  0  0  0  0  0  0  0  0
   -3.0360   17.5896  -26.3201 H   0  0  0  0  0  0  0  0  0  0  0  0
   -4.0237   20.7185  -28.3402 H   0  0  0  0  0  0  0  0  0  0  0  0
   -4.0540   22.6000  -27.0620 H   0  0  0  0  0  0  0  0  0  0  0  0
   -2.7760   21.6970  -26.4330 H   0  0  0  0  0  0  0  0  0  0  0  0
   -1.4977   23.3936  -25.4023 H   0  0  0  0  0  0  0  0  0  0  0  0
   -0.2211   25.5218  -25.6518 H   0  0  0  0  0  0  0  0  0  0  0  0
   -0.2813   26.7713  -27.8095 H   0  0  0  0  0  0  0  0  0  0  0  0
   -1.5972   25.8796  -29.7364 H   0  0  0  0  0  0  0  0  0  0  0  0
   -3.3134   21.7413  -31.7718 H   0  0  0  0  0  0  0  0  0  0  0  0
   -3.7893   20.3453  -30.7334 H   0  0  0  0  0  0  0  0  0  0  0  0
   -5.6868   20.1007  -32.4576 H   0  0  0  0  0  0  0  0  0  0  0  0
   -8.1046   20.6244  -32.7801 H   0  0  0  0  0  0  0  0  0  0  0  0
   -7.7348   24.0046  -30.1035 H   0  0  0  0  0  0  0  0  0  0  0  0
   -5.3156   23.4928  -29.7809 H   0  0  0  0  0  0  0  0  0  0  0  0
  1  2  1  0
  2  3  1  0
  3  4  2  0
  4  5  1  0
  5  6  2  0
  6  7  1  0
  7  8  1  0
  8  9  1  0
  7 10  2  0
 10 11  1  0
 11 12  1  0
 12 13  1  0
 13 14  2  0
 14 15  1  0
 15 16  2  0
 16 17  1  0
 17 18  2  0
 18 19  1  0
 19 20  2  0
 19 21  1  0
 21 22  1  0
 22 23  1  0
 23 24  2  0
 24 25  1  0
 25 26  2  0
 26 27  1  0
 26 28  1  0
 28 29  2  0
 10  3  1  0
 21 11  1  0
 29 23  1  0
 18 13  1  0
  1 30  1  0
  1 31  1  0
  1 32  1  0
  4 33  1  0
  5 34  1  0
  6 35  1  0
  9 36  1  0
  9 37  1  0
  9 38  1  0
 11 39  1  1
 12 40  1  0
 12 41  1  0
 14 42  1  0
 15 43  1  0
 16 44  1  0
 17 45  1  0
 22 46  1  0
 22 47  1  0
 24 48  1  0
 25 49  1  0
 28 50  1  0
 29 51  1  0
M  CHG  1  12   1
M  END
>  <UniqueID>  (37) 
35

>  <SMILES>  (37) 
COc1cccc(OC)c1[C@H]1[NH2+]c2ccccc2C(=O)N1Cc1ccc(F)cc1

>  <Energy>  (37) 
62.988639729803495

>  <Genealogy>  (37) 
COc1cccc(OC)c1C1[NH2+]c2ccccc2C(=O)N1Cc1ccc(F)cc1 (protonated)
COc1cccc(OC)c1[C@H]1[NH2+]c2ccccc2C(=O)N1Cc1ccc(F)cc1 (chirality)
COc1cccc(OC)c1[C@H]1[NH2+]c2ccccc2C(=O)N1Cc1ccc(F)cc1 (3D coordinates assigned)
COc1cccc(OC)c1[C@H]1[NH2+]c2ccccc2C(=O)N1Cc1ccc(F)cc1 (nonaromatic ring conformer: 62.988639729803495 kcal/mol)

>  <smiles>  (37) 
COc1cccc(OC)c1C1Nc2ccccc2C(=O)N1Cc1ccc(F)cc1

>  <score_type>  (37) 
oracle

>  <origin>  (37) 
adg

>  <m_score__min__energy>  (37) 
-7.8700000000000001

>  <m_primary>  (37) 
energy

$$$$
37:0
     RDKit          3D

 28 29  0  0  0  0  0  0  0  0999 V2000
   -7.8340   24.3817  -31.0704 H   0  0  0  0  0  0  0  0  0  0  0  0
   -6.8940   23.8140  -31.0060 C   0  0  0  0  0  0  0  0  0  0  0  0
   -6.6260   22.8900  -31.8790 N   0  0  0  0  0  0  0  0  0  0  0  0
   -7.3440   21.6590  -32.0720 C   0  0  0  0  0  0  0  0  0  0  0  0
   -8.7290   21.6630  -31.8610 C   0  0  0  0  0  0  0  0  0  0  0  0
   -9.2314   22.5932  -31.5572 H   0  0  0  0  0  0  0  0  0  0  0  0
   -9.4780   20.4960  -32.0330 C   0  0  0  0  0  0  0  0  0  0  0  0
  -10.5631   20.5087  -31.8529 H   0  0  0  0  0  0  0  0  0  0  0  0
   -8.8520   19.3140  -32.4330 C   0  0  0  0  0  0  0  0  0  0  0  0
   -9.4425   18.3935  -32.5517 H   0  0  0  0  0  0  0  0  0  0  0  0
   -7.4720   19.2970  -32.6840 C   0  0  0  0  0  0  0  0  0  0  0  0
   -6.7960   18.0220  -33.0930 C   0  0  0  0  0  0  0  0  0  0  0  0
   -6.4983   17.4605  -32.1952 H   0  0  0  0  0  0  0  0  0  0  0  0
   -7.4905   17.4145  -33.6919 H   0  0  0  0  0  0  0  0  0  0  0  0
   -5.9035   18.2560  -33.6919 H   0  0  0  0  0  0  0  0  0  0  0  0
   -6.7180   20.4660  -32.4920 C   0  0  0  0  0  0  0  0  0  0  0  0
   -5.6326   20.4517  -32.6701 H   0  0  0  0  0  0  0  0  0  0  0  0
   -5.9100   24.1010  -29.9080 C   0  0  2  0  0  0  0  0  0  0  0  0
   -6.5091   24.0986  -28.9855 H   0  0  0  0  0  0  0  0  0  0  0  0
   -5.1920   25.3650  -30.1850 C   0  0  0  0  0  0  0  0  0  0  0  0
   -5.7250   26.5060  -30.1480 O   0  0  0  0  0  0  0  0  0  0  0  0
   -3.8620   25.1740  -30.4820 O   0  0  0  0  0  0  0  0  0  0  0  0
   -3.5280   23.7980  -30.4650 C   0  0  0  0  0  0  0  0  0  0  0  0
   -2.6407   23.6260  -29.8380 H   0  0  0  0  0  0  0  0  0  0  0  0
   -3.2878   23.4251  -31.4716 H   0  0  0  0  0  0  0  0  0  0  0  0
   -4.7530   23.0820  -29.8700 C   0  0  0  0  0  0  0  0  0  0  0  0
   -4.5490   22.7757  -28.8334 H   0  0  0  0  0  0  0  0  0  0  0  0
   -5.0010   22.1738  -30.4390 H   0  0  0  0  0  0  0  0  0  0  0  0
  1  2  1  0
  2  3  2  0
  3  4  1  0
  4  5  2  0
  5  6  1  0
  5  7  1  0
  7  8  1  0
  7  9  2  0
  9 10  1  0
  9 11  1  0
 11 12  1  0
 12 13  1  0
 12 14  1  0
 12 15  1  0
 11 16  2  0
 16 17  1  0
  2 18  1  0
 18 19  1  1
 18 20  1  0
 20 21  2  0
 20 22  1  0
 22 23  1  0
 23 24  1  0
 23 25  1  0
 23 26  1  0
 26 27  1  0
 26 28  1  0
 16  4  1  0
 26 18  1  0
M  END
>  <UniqueID>  (38) 
36

>  <SMILES>  (38) 
Cc1cccc(/N=C/[C@H]2CCOC2=O)c1

>  <Energy>  (38) 
36.425099109288205

>  <Genealogy>  (38) 
Cc1cccc(N=C[C@H]2CCOC2=O)c1 (chirality)
Cc1cccc(/N=C/[C@H]2CCOC2=O)c1 (cis-trans isomerization)
Cc1cccc(/N=C/[C@H]2CCOC2=O)c1 (3D coordinates assigned)
Cc1cccc(/N=C/[C@H]2CCOC2=O)c1 (nonaromatic ring conformer: 36.425099109288205 kcal/mol)

>  <smiles>  (38) 
Cc1cccc(N=CC2CCOC2=O)c1

>  <score_type>  (38) 
oracle

>  <origin>  (38) 
adg

>  <m_score__min__energy>  (38) 
-7.4100000000000001

>  <m_primary>  (38) 
energy

$$$$
38:0
     RDKit          3D

 51 54  0  0  0  0  0  0  0  0999 V2000
   -9.2830   21.0740  -31.9730 C   0  0  0  0  0  0  0  0  0  0  0  0
   -8.7350   19.7170  -31.5250 C   0  0  0  0  0  0  0  0  0  0  0  0
   -8.2260   18.9200  -32.6550 N   0  0  0  0  0  0  0  0  0  0  0  0
   -6.8360   19.2060  -32.9210 C   0  0  0  0  0  0  0  0  0  0  0  0
   -6.1770   18.6000  -33.9990 C   0  0  0  0  0  0  0  0  0  0  0  0
   -4.8230   18.8410  -34.2300 C   0  0  0  0  0  0  0  0  0  0  0  0
   -4.0820   19.6810  -33.3710 C   0  0  0  0  0  0  0  0  0  0  0  0
   -4.7720   20.3920  -32.3600 C   0  0  0  0  0  0  0  0  0  0  0  0
   -6.1260   20.0990  -32.1050 C   0  0  0  0  0  0  0  0  0  0  0  0
   -4.0250   21.4000  -31.5020 C   0  0  2  0  0  0  0  0  0  0  0  0
   -4.8900   22.5750  -31.1080 C   0  0  0  0  0  0  0  0  0  0  0  0
   -5.8610   23.0760  -31.9920 C   0  0  0  0  0  0  0  0  0  0  0  0
   -6.6460   24.1740  -31.6280 C   0  0  0  0  0  0  0  0  0  0  0  0
   -6.4680   24.7810  -30.3820 C   0  0  0  0  0  0  0  0  0  0  0  0
   -5.5030   24.2920  -29.4970 C   0  0  0  0  0  0  0  0  0  0  0  0
   -4.7150   23.1940  -29.8570 C   0  0  0  0  0  0  0  0  0  0  0  0
   -2.8760   21.9030  -32.1860 O   0  0  0  0  0  0  0  0  0  0  0  0
   -2.0830   21.0970  -33.0030 C   0  0  0  0  0  0  0  0  0  0  0  0
   -0.7640   21.4740  -33.2560 C   0  0  0  0  0  0  0  0  0  0  0  0
    0.0810   20.6380  -34.0000 C   0  0  0  0  0  0  0  0  0  0  0  0
    1.4130   20.9740  -34.2840 O   0  0  0  0  0  0  0  0  0  0  0  0
    1.8170   21.8520  -35.3290 C   0  0  0  0  0  0  0  0  0  0  0  0
   -0.4080   19.4140  -34.4640 C   0  0  0  0  0  0  0  0  0  0  0  0
   -1.7420   19.0230  -34.2250 C   0  0  0  0  0  0  0  0  0  0  0  0
   -2.1980   17.7500  -34.6020 O   0  0  0  0  0  0  0  0  0  0  0  0
   -2.0970   16.5760  -33.8010 C   0  0  0  0  0  0  0  0  0  0  0  0
   -2.6150   19.9180  -33.5570 C   0  0  0  0  0  0  0  0  0  0  0  0
   -9.5280   21.6806  -31.0887 H   0  0  0  0  0  0  0  0  0  0  0  0
   -8.5246   21.5947  -32.5762 H   0  0  0  0  0  0  0  0  0  0  0  0
  -10.1903   20.9220  -32.5762 H   0  0  0  0  0  0  0  0  0  0  0  0
   -7.9143   19.8846  -30.8120 H   0  0  0  0  0  0  0  0  0  0  0  0
   -9.5605   19.1564  -31.0620 H   0  0  0  0  0  0  0  0  0  0  0  0
   -8.7890   19.1520  -33.5060 H   0  0  0  0  0  0  0  0  0  0  0  0
   -8.3670   17.9000  -32.4640 H   0  0  0  0  0  0  0  0  0  0  0  0
   -6.7329   17.9279  -34.6693 H   0  0  0  0  0  0  0  0  0  0  0  0
   -4.3266   18.3710  -35.0918 H   0  0  0  0  0  0  0  0  0  0  0  0
   -6.6335   20.5771  -31.2542 H   0  0  0  0  0  0  0  0  0  0  0  0
   -3.7236   20.8584  -30.5932 H   0  0  0  0  0  0  0  0  0  0  0  0
   -6.0039   22.6022  -32.9744 H   0  0  0  0  0  0  0  0  0  0  0  0
   -7.4052   24.5608  -32.3237 H   0  0  0  0  0  0  0  0  0  0  0  0
   -7.0877   25.6442  -30.0975 H   0  0  0  0  0  0  0  0  0  0  0  0
   -5.3632   24.7710  -28.5167 H   0  0  0  0  0  0  0  0  0  0  0  0
   -3.9551   22.8128  -29.1589 H   0  0  0  0  0  0  0  0  0  0  0  0
   -0.3849   22.4317  -32.8700 H   0  0  0  0  0  0  0  0  0  0  0  0
    2.2393   22.7698  -34.8940 H   0  0  0  0  0  0  0  0  0  0  0  0
    2.5779   21.3569  -35.9503 H   0  0  0  0  0  0  0  0  0  0  0  0
    0.9460   22.1078  -35.9503 H   0  0  0  0  0  0  0  0  0  0  0  0
    0.2592   18.7435  -35.0256 H   0  0  0  0  0  0  0  0  0  0  0  0
   -2.1210   16.8548  -32.7372 H   0  0  0  0  0  0  0  0  0  0  0  0
   -2.9409   15.9064  -34.0237 H   0  0  0  0  0  0  0  0  0  0  0  0
   -1.1512   16.0604  -34.0237 H   0  0  0  0  0  0  0  0  0  0  0  0
  1  2  1  0
  2  3  1  0
  3  4  1  0
  4  5  2  0
  5  6  1  0
  6  7  2  0
  7  8  1  0
  8  9  2  0
  8 10  1  0
 10 11  1  0
 11 12  2  0
 12 13  1  0
 13 14  2  0
 14 15  1  0
 15 16  2  0
 10 17  1  0
 17 18  1  0
 18 19  2  0
 19 20  1  0
 20 21  1  0
 21 22  1  0
 20 23  2  0
 23 24  1  0
 24 25  1  0
 25 26  1  0
 24 27  2  0
  9  4  1  0
 16 11  1  0
 27 18  1  0
 27  7  1  0
  1 28  1  0
  1 29  1  0
  1 30  1  0
  2 31  1  0
  2 32  1  0
  3 33  1  0
  3 34  1  0
  5 35  1  0
  6 36  1  0
  9 37  1  0
 10 38  1  1
 12 39  1  0
 13 40  1  0
 14 41  1  0
 15 42  1  0
 16 43  1  0
 19 44  1  0
 22 45  1  0
 22 46  1  0
 22 47  1  0
 23 48  1  0
 26 49  1  0
 26 50  1  0
 26 51  1  0
M  CHG  1   3   1
M  END
>  <UniqueID>  (39) 
37

>  <SMILES>  (39) 
CC[NH2+]c1ccc2c(c1)[C@H](c1ccccc1)Oc1cc(OC)cc(OC)c1-2

>  <Energy>  (39) 
65.17166713983819

>  <Genealogy>  (39) 
CC[NH2+]c1ccc2c(c1)C(c1ccccc1)Oc1cc(OC)cc(OC)c1-2 (protonated)
CC[NH2+]c1ccc2c(c1)[C@H](c1ccccc1)Oc1cc(OC)cc(OC)c1-2 (chirality)
CC[NH2+]c1ccc2c(c1)[C@H](c1ccccc1)Oc1cc(OC)cc(OC)c1-2 (3D coordinates assigned)
CC[NH2+]c1ccc2c(c1)[C@H](c1ccccc1)Oc1cc(OC)cc(OC)c1-2 (nonaromatic ring conformer: 65.17166713983819 kcal/mol)

>  <smiles>  (39) 
CCNc1ccc2c(c1)C(c1ccccc1)Oc1cc(OC)cc(OC)c1-2

>  <score_type>  (39) 
oracle

>  <origin>  (39) 
adg

>  <m_score__min__energy>  (39) 
-7.3899999999999997

>  <m_primary>  (39) 
energy

$$$$
39:0
     RDKit          3D

 53 56  0  0  0  0  0  0  0  0999 V2000
   -5.0230   23.1430  -29.6220 C   0  0  0  0  0  0  0  0  0  0  0  0
   -3.7060   22.4550  -29.5530 N   0  0  0  0  0  0  0  0  0  0  0  0
   -3.5350   21.9100  -28.1820 C   0  0  0  0  0  0  0  0  0  0  0  0
   -2.5960   23.4020  -29.9150 C   0  0  0  0  0  0  0  0  0  0  0  0
   -2.1000   24.3520  -28.7970 C   0  0  0  0  0  0  0  0  0  0  0  0
   -1.5930   25.5530  -29.3100 O   0  0  0  0  0  0  0  0  0  0  0  0
   -3.7520   21.3280  -30.5450 C   0  0  0  0  0  0  0  0  0  0  0  0
   -2.9740   21.5590  -31.8730 C   0  0  0  0  0  0  0  0  0  0  0  0
   -3.8980   21.5930  -33.1020 C   0  0  0  0  0  0  0  0  0  0  0  0
   -4.6130   20.3130  -33.2420 N   0  0  0  0  0  0  0  0  0  0  0  0
   -5.9420   20.1790  -32.9070 C   0  0  0  0  0  0  0  0  0  0  0  0
   -6.5730   18.9380  -32.9360 C   0  0  0  0  0  0  0  0  0  0  0  0
   -5.9000   17.7930  -33.3810 C   0  0  0  0  0  0  0  0  0  0  0  0
   -6.5110   16.5260  -33.4410 C   0  0  0  0  0  0  0  0  0  0  0  0
   -5.7980   15.4220  -33.9110 C   0  0  0  0  0  0  0  0  0  0  0  0
   -4.4750   15.5650  -34.3270 C   0  0  0  0  0  0  0  0  0  0  0  0
   -3.8530   16.8150  -34.2710 C   0  0  0  0  0  0  0  0  0  0  0  0
   -4.5550   17.9420  -33.7970 C   0  0  0  0  0  0  0  0  0  0  0  0
   -3.9320   19.2130  -33.7230 C   0  0  0  0  0  0  0  0  0  0  0  0
   -2.7320   19.3330  -34.1020 O   0  0  0  0  0  0  0  0  0  0  0  0
   -7.9450   19.1100  -32.4570 C   0  0  0  0  0  0  0  0  0  0  0  0
   -8.8290   18.2220  -32.3270 O   0  0  0  0  0  0  0  0  0  0  0  0
   -8.1180   20.5200  -32.1650 C   0  0  0  0  0  0  0  0  0  0  0  0
   -9.2670   21.1800  -31.7320 C   0  0  0  0  0  0  0  0  0  0  0  0
   -9.2190   22.5720  -31.5870 C   0  0  0  0  0  0  0  0  0  0  0  0
   -8.0420   23.2750  -31.8950 C   0  0  0  0  0  0  0  0  0  0  0  0
   -6.8970   22.5940  -32.3390 C   0  0  0  0  0  0  0  0  0  0  0  0
   -6.9360   21.1920  -32.4430 C   0  0  0  0  0  0  0  0  0  0  0  0
   -5.3903   23.3349  -28.6030 H   0  0  0  0  0  0  0  0  0  0  0  0
   -4.9105   24.0975  -30.1570 H   0  0  0  0  0  0  0  0  0  0  0  0
   -5.7422   22.5054  -30.1570 H   0  0  0  0  0  0  0  0  0  0  0  0
   -3.7794   22.6889  -27.4447 H   0  0  0  0  0  0  0  0  0  0  0  0
   -4.2064   21.0499  -28.0430 H   0  0  0  0  0  0  0  0  0  0  0  0
   -2.4925   21.5876  -28.0430 H   0  0  0  0  0  0  0  0  0  0  0  0
   -1.7374   22.7987  -30.2450 H   0  0  0  0  0  0  0  0  0  0  0  0
   -3.0186   24.0609  -30.6878 H   0  0  0  0  0  0  0  0  0  0  0  0
   -2.9418   24.5803  -28.1267 H   0  0  0  0  0  0  0  0  0  0  0  0
   -1.2862   23.8443  -28.2586 H   0  0  0  0  0  0  0  0  0  0  0  0
   -0.8120   25.3150  -29.8740 H   0  0  0  0  0  0  0  0  0  0  0  0
   -3.3324   20.4345  -30.0596 H   0  0  0  0  0  0  0  0  0  0  0  0
   -4.8089   21.2278  -30.8328 H   0  0  0  0  0  0  0  0  0  0  0  0
   -2.4409   22.5189  -31.8065 H   0  0  0  0  0  0  0  0  0  0  0  0
   -2.2786   20.7166  -32.0024 H   0  0  0  0  0  0  0  0  0  0  0  0
   -4.6296   22.4058  -32.9831 H   0  0  0  0  0  0  0  0  0  0  0  0
   -3.2887   21.7618  -34.0021 H   0  0  0  0  0  0  0  0  0  0  0  0
   -7.5550   16.4056  -33.1160 H   0  0  0  0  0  0  0  0  0  0  0  0
   -6.2819   14.4350  -33.9534 H   0  0  0  0  0  0  0  0  0  0  0  0
   -3.9196   14.6919  -34.7001 H   0  0  0  0  0  0  0  0  0  0  0  0
   -2.8084   16.9204  -34.5990 H   0  0  0  0  0  0  0  0  0  0  0  0
  -10.1882   20.6214  -31.5098 H   0  0  0  0  0  0  0  0  0  0  0  0
  -10.1057   23.1169  -31.2308 H   0  0  0  0  0  0  0  0  0  0  0  0
   -8.0173   24.3694  -31.7873 H   0  0  0  0  0  0  0  0  0  0  0  0
   -5.9839   23.1484  -32.6013 H   0  0  0  0  0  0  0  0  0  0  0  0
  1  2  1  0
  2  3  1  0
  2  4  1  0
  4  5  1  0
  5  6  1  0
  2  7  1  0
  7  8  1  0
  8  9  1  0
  9 10  1  0
 10 11  1  0
 11 12  2  0
 12 13  1  0
 13 14  2  0
 14 15  1  0
 15 16  2  0
 16 17  1  0
 17 18  2  0
 18 19  1  0
 19 20  2  0
 12 21  1  0
 21 22  2  0
 21 23  1  0
 23 24  2  0
 24 25  1  0
 25 26  2  0
 26 27  1  0
 27 28  2  0
 19 10  1  0
 28 23  1  0
 28 11  1  0
 18 13  1  0
  1 29  1  0
  1 30  1  0
  1 31  1  0
  3 32  1  0
  3 33  1  0
  3 34  1  0
  4 35  1  0
  4 36  1  0
  5 37  1  0
  5 38  1  0
  6 39  1  0
  7 40  1  0
  7 41  1  0
  8 42  1  0
  8 43  1  0
  9 44  1  0
  9 45  1  0
 14 46  1  0
 15 47  1  0
 16 48  1  0
 17 49  1  0
 24 50  1  0
 25 51  1  0
 26 52  1  0
 27 53  1  0
M  CHG  1   2   1
M  END
>  <UniqueID>  (40) 
38

>  <SMILES>  (40) 
C[N+](C)(CCO)CCCn1c2c(c3ccccc3c1=O)C(=O)c1ccccc1-2

>  <Energy>  (40) 
117.1491675976392

>  <Genealogy>  (40) 
C[N+](C)(CCO)CCCn1c2c(c3ccccc3c1=O)C(=O)c1ccccc1-2 (3D coordinates assigned)
C[N+](C)(CCO)CCCn1c2c(c3ccccc3c1=O)C(=O)c1ccccc1-2 (nonaromatic ring conformer: 117.1491675976392 kcal/mol)

>  <smiles>  (40) 
C[N+](C)(CCO)CCCn1c2c(c3ccccc3c1=O)C(=O)c1ccccc1-2

>  <score_type>  (40) 
oracle

>  <origin>  (40) 
adg

>  <m_score__min__energy>  (40) 
-9.5600000000000005

>  <m_primary>  (40) 
energy

$$$$
40:0
     RDKit          3D

 51 53  0  0  0  0  0  0  0  0999 V2000
   -2.9250   23.2910  -28.2850 C   0  0  0  0  0  0  0  0  0  0  0  0
   -2.7750   24.5520  -29.1320 C   0  0  0  0  0  0  0  0  0  0  0  0
   -3.4950   24.3950  -30.4170 N   0  0  0  0  0  0  0  0  0  0  0  0
   -4.6740   25.2900  -30.4800 C   0  0  0  0  0  0  0  0  0  0  0  0
   -5.7140   24.8720  -29.4450 C   0  0  0  0  0  0  0  0  0  0  0  0
   -3.8920   22.9850  -30.6410 C   0  0  0  0  0  0  0  0  0  0  0  0
   -3.8160   22.6520  -32.1380 C   0  0  0  0  0  0  0  0  0  0  0  0
   -2.7400   21.6020  -32.4420 C   0  0  0  0  0  0  0  0  0  0  0  0
   -3.1030   20.8240  -33.6270 N   0  0  0  0  0  0  0  0  0  0  0  0
   -3.8580   19.6030  -33.5520 C   0  0  0  0  0  0  0  0  0  0  0  0
   -3.2580   18.3700  -33.8560 C   0  0  0  0  0  0  0  0  0  0  0  0
   -3.9940   17.1870  -33.7760 C   0  0  0  0  0  0  0  0  0  0  0  0
   -5.3370   17.2170  -33.3940 C   0  0  0  0  0  0  0  0  0  0  0  0
   -5.9590   18.4410  -33.0930 C   0  0  0  0  0  0  0  0  0  0  0  0
   -7.3060   18.5140  -32.6990 C   0  0  0  0  0  0  0  0  0  0  0  0
   -8.0020   17.4630  -32.6070 O   0  0  0  0  0  0  0  0  0  0  0  0
   -7.8710   19.7680  -32.4080 C   0  0  0  0  0  0  0  0  0  0  0  0
   -9.2130   19.9040  -32.0080 C   0  0  0  0  0  0  0  0  0  0  0  0
   -9.7370   21.1660  -31.7240 C   0  0  0  0  0  0  0  0  0  0  0  0
   -8.9350   22.3030  -31.8370 C   0  0  0  0  0  0  0  0  0  0  0  0
   -7.5970   22.1930  -32.2490 C   0  0  0  0  0  0  0  0  0  0  0  0
   -6.7420   23.4250  -32.3500 C   0  0  0  0  0  0  0  0  0  0  0  0
   -7.0590   20.9210  -32.5220 C   0  0  0  0  0  0  0  0  0  0  0  0
   -5.7870   20.8050  -32.8930 O   0  0  0  0  0  0  0  0  0  0  0  0
   -5.2130   19.6400  -33.1790 C   0  0  0  0  0  0  0  0  0  0  0  0
   -2.8931   23.5595  -27.2188 H   0  0  0  0  0  0  0  0  0  0  0  0
   -3.8869   22.8085  -28.5129 H   0  0  0  0  0  0  0  0  0  0  0  0
   -2.1032   22.5963  -28.5129 H   0  0  0  0  0  0  0  0  0  0  0  0
   -3.1928   25.4094  -28.5840 H   0  0  0  0  0  0  0  0  0  0  0  0
   -1.7076   24.7210  -29.3374 H   0  0  0  0  0  0  0  0  0  0  0  0
   -4.3560   26.3234  -30.2776 H   0  0  0  0  0  0  0  0  0  0  0  0
   -5.1208   25.2220  -31.4829 H   0  0  0  0  0  0  0  0  0  0  0  0
   -5.3111   25.0339  -28.4343 H   0  0  0  0  0  0  0  0  0  0  0  0
   -6.6253   25.4737  -29.5772 H   0  0  0  0  0  0  0  0  0  0  0  0
   -5.9554   23.8070  -29.5772 H   0  0  0  0  0  0  0  0  0  0  0  0
   -3.2127   22.3221  -30.0850 H   0  0  0  0  0  0  0  0  0  0  0  0
   -4.9241   22.8393  -30.2896 H   0  0  0  0  0  0  0  0  0  0  0  0
   -4.7921   22.2644  -32.4651 H   0  0  0  0  0  0  0  0  0  0  0  0
   -3.5514   23.5737  -32.6769 H   0  0  0  0  0  0  0  0  0  0  0  0
   -1.7804   22.1087  -32.6217 H   0  0  0  0  0  0  0  0  0  0  0  0
   -2.6544   20.9213  -31.5822 H   0  0  0  0  0  0  0  0  0  0  0  0
   -3.0450   21.3150  -34.5480 H   0  0  0  0  0  0  0  0  0  0  0  0
   -2.2011   18.3366  -34.1591 H   0  0  0  0  0  0  0  0  0  0  0  0
   -3.5141   16.2265  -34.0149 H   0  0  0  0  0  0  0  0  0  0  0  0
   -5.9096   16.2801  -33.3285 H   0  0  0  0  0  0  0  0  0  0  0  0
   -9.8514   19.0127  -31.9188 H   0  0  0  0  0  0  0  0  0  0  0  0
  -10.7865   21.2651  -31.4098 H   0  0  0  0  0  0  0  0  0  0  0  0
   -9.3542   23.2924  -31.6016 H   0  0  0  0  0  0  0  0  0  0  0  0
   -6.4937   23.7828  -31.3399 H   0  0  0  0  0  0  0  0  0  0  0  0
   -5.8154   23.1849  -32.8920 H   0  0  0  0  0  0  0  0  0  0  0  0
   -7.2911   24.2090  -32.8920 H   0  0  0  0  0  0  0  0  0  0  0  0
  1  2  1  0
  2  3  1  0
  3  4  1  0
  4  5  1  0
  3  6  1  0
  6  7  1  0
  7  8  1  0
  8  9  1  0
  9 10  1  0
 10 11  2  0
 11 12  1  0
 12 13  2  0
 13 14  1  0
 14 15  1  0
 15 16  2  0
 15 17  1  0
 17 18  2  0
 18 19  1  0
 19 20  2  0
 20 21  1  0
 21 22  1  0
 21 23  2  0
 23 24  1  0
 24 25  1  0
 25 10  1  0
 25 14  2  0
 23 17  1  0
  1 26  1  0
  1 27  1  0
  1 28  1  0
  2 29  1  0
  2 30  1  0
  4 31  1  0
  4 32  1  0
  5 33  1  0
  5 34  1  0
  5 35  1  0
  6 36  1  0
  6 37  1  0
  7 38  1  0
  7 39  1  0
  8 40  1  0
  8 41  1  0
  9 42  1  0
 11 43  1  0
 12 44  1  0
 13 45  1  0
 18 46  1  0
 19 47  1  0
 20 48  1  0
 22 49  1  0
 22 50  1  0
 22 51  1  0
M  END
>  <UniqueID>  (41) 
39

>  <SMILES>  (41) 
CCN(CC)CCCNc1cccc2c(=O)c3cccc(C)c3oc12

>  <Energy>  (41) 
56.72595410159558

>  <Genealogy>  (41) 
CCN(CC)CCCNc1cccc2c(=O)c3cccc(C)c3oc12 (3D coordinates assigned)
CCN(CC)CCCNc1cccc2c(=O)c3cccc(C)c3oc12 (optimized conformer: 56.72595410159558 kcal/mol)

>  <smiles>  (41) 
CCN(CC)CCCNc1cccc2c(=O)c3cccc(C)c3oc12

>  <score_type>  (41) 
oracle

>  <origin>  (41) 
adg

>  <m_score__min__energy>  (41) 
-8.7100000000000009

>  <m_primary>  (41) 
energy

$$$$
41:0
     RDKit          3D

 38 39  0  0  0  0  0  0  0  0999 V2000
   -2.8070   24.9240  -27.0380 C   0  0  0  0  0  0  0  0  0  0  0  0
   -1.6160   25.2820  -27.9230 C   0  0  0  0  0  0  0  0  0  0  0  0
   -2.0090   25.2830  -29.3300 N   0  0  0  0  0  0  0  0  0  0  0  0
   -3.1350   24.5850  -29.8840 C   0  0  0  0  0  0  0  0  0  0  0  0
   -3.9730   25.2470  -30.5540 O   0  0  0  0  0  0  0  0  0  0  0  0
   -3.3790   23.1150  -29.5800 C   0  0  0  0  0  0  0  0  0  0  0  0
   -4.6190   22.5410  -30.1630 N   0  0  0  0  0  0  0  0  0  0  0  0
   -5.8460   23.2690  -29.7290 C   0  0  0  0  0  0  0  0  0  0  0  0
   -6.9710   23.2560  -30.7780 C   0  0  0  0  0  0  0  0  0  0  0  0
   -6.9720   21.9900  -31.5240 N   0  0  0  0  0  0  0  0  0  0  0  0
   -8.1860   21.2290  -31.6920 C   0  0  0  0  0  0  0  0  0  0  0  0
   -9.1750   21.4400  -30.9350 O   0  0  0  0  0  0  0  0  0  0  0  0
   -8.2790   20.1350  -32.7200 C   0  0  0  0  0  0  0  0  0  0  0  0
   -7.6010   18.8260  -32.3360 C   0  0  0  0  0  0  0  0  0  0  0  0
   -9.1140   18.9400  -32.2900 C   0  0  0  0  0  0  0  0  0  0  0  0
   -5.7160   21.5220  -32.1290 C   0  0  0  0  0  0  0  0  0  0  0  0
   -4.5240   22.3480  -31.6280 C   0  0  0  0  0  0  0  0  0  0  0  0
   -2.5172   25.0111  -25.9804 H   0  0  0  0  0  0  0  0  0  0  0  0
   -3.6396   25.6116  -27.2479 H   0  0  0  0  0  0  0  0  0  0  0  0
   -3.1225   23.8913  -27.2479 H   0  0  0  0  0  0  0  0  0  0  0  0
   -1.2482   26.2818  -27.6487 H   0  0  0  0  0  0  0  0  0  0  0  0
   -0.8235   24.5338  -27.7745 H   0  0  0  0  0  0  0  0  0  0  0  0
   -2.5244   22.5417  -29.9685 H   0  0  0  0  0  0  0  0  0  0  0  0
   -3.4975   23.0469  -28.4885 H   0  0  0  0  0  0  0  0  0  0  0  0
   -4.6900   21.5780  -29.7500 H   0  0  0  0  0  0  0  0  0  0  0  0
   -6.2227   22.7986  -28.8088 H   0  0  0  0  0  0  0  0  0  0  0  0
   -5.5606   24.3200  -29.5739 H   0  0  0  0  0  0  0  0  0  0  0  0
   -7.9393   23.3765  -30.2703 H   0  0  0  0  0  0  0  0  0  0  0  0
   -6.8047   24.0824  -31.4847 H   0  0  0  0  0  0  0  0  0  0  0  0
   -8.2484   20.7967  -33.5982 H   0  0  0  0  0  0  0  0  0  0  0  0
   -7.1191   18.2088  -33.1085 H   0  0  0  0  0  0  0  0  0  0  0  0
   -6.8204   18.5357  -31.6173 H   0  0  0  0  0  0  0  0  0  0  0  0
   -9.7281   18.4044  -33.0289 H   0  0  0  0  0  0  0  0  0  0  0  0
   -9.8831   18.7655  -31.5232 H   0  0  0  0  0  0  0  0  0  0  0  0
   -5.5597   20.4663  -31.8625 H   0  0  0  0  0  0  0  0  0  0  0  0
   -5.7883   21.6369  -33.2206 H   0  0  0  0  0  0  0  0  0  0  0  0
   -3.5892   21.8190  -31.8655 H   0  0  0  0  0  0  0  0  0  0  0  0
   -4.5337   23.3307  -32.1221 H   0  0  0  0  0  0  0  0  0  0  0  0
  1  2  1  0
  2  3  1  0
  3  4  1  0
  4  5  2  0
  4  6  1  0
  6  7  1  0
  7  8  1  0
  8  9  1  0
  9 10  1  0
 10 11  1  0
 11 12  2  0
 11 13  1  0
 13 14  1  0
 14 15  1  0
 10 16  1  0
 16 17  1  0
 17  7  1  0
 15 13  1  0
  1 18  1  0
  1 19  1  0
  1 20  1  0
  2 21  1  0
  2 22  1  0
  6 23  1  0
  6 24  1  0
  7 25  1  0
  8 26  1  0
  8 27  1  0
  9 28  1  0
  9 29  1  0
 13 30  1  0
 14 31  1  0
 14 32  1  0
 15 33  1  0
 15 34  1  0
 16 35  1  0
 16 36  1  0
 17 37  1  0
 17 38  1  0
M  CHG  2   3  -1   7   1
M  END
>  <UniqueID>  (42) 
40

>  <SMILES>  (42) 
CC[N-]C(=O)C[NH+]1CCN(C(=O)C2CC2)CC1

>  <Energy>  (42) 
306.960806550321

>  <Genealogy>  (42) 
CC[N-]C(=O)C[NH+]1CCN(C(=O)C2CC2)CC1 (protonated)
CC[N-]C(=O)C[NH+]1CCN(C(=O)C2CC2)CC1 (3D coordinates assigned)
CC[N-]C(=O)C[NH+]1CCN(C(=O)C2CC2)CC1 (nonaromatic ring conformer: 306.960806550321 kcal/mol)

>  <smiles>  (42) 
CCNC(=O)CN1CCN(C(=O)C2CC2)CC1

>  <score_type>  (42) 
oracle

>  <origin>  (42) 
adg

>  <m_score__min__energy>  (42) 
-7.8899999999999997

>  <m_primary>  (42) 
energy

$$$$
42:0
     RDKit          3D

 52 54  0  0  0  0  0  0  0  0999 V2000
   -2.2250   23.2580  -27.4470 C   0  0  0  0  0  0  0  0  0  0  0  0
   -3.4880   23.4680  -28.2810 C   0  0  0  0  0  0  0  0  0  0  0  0
   -3.2680   24.5560  -29.3650 C   0  0  0  0  0  0  0  0  0  0  0  0
   -3.9740   24.2820  -30.6430 N   0  0  0  0  0  0  0  0  0  0  0  0
   -5.1420   25.1670  -30.8420 C   0  0  0  0  0  0  0  0  0  0  0  0
   -6.1270   24.9960  -29.6950 C   0  0  0  0  0  0  0  0  0  0  0  0
   -4.2940   22.8510  -30.8270 C   0  0  0  0  0  0  0  0  0  0  0  0
   -3.6000   22.3070  -32.0770 C   0  0  0  0  0  0  0  0  0  0  0  0
   -4.5810   21.9630  -33.1070 N   0  0  0  0  0  0  0  0  0  0  0  0
   -5.6370   21.0140  -32.8740 C   0  0  0  0  0  0  0  0  0  0  0  0
   -6.9090   21.4550  -32.4730 C   0  0  0  0  0  0  0  0  0  0  0  0
   -7.1580   22.8230  -32.2180 C   0  0  0  0  0  0  0  0  0  0  0  0
   -8.4390   23.2680  -31.9050 C   0  0  0  0  0  0  0  0  0  0  0  0
   -9.4890   22.3630  -31.8370 C   0  0  0  0  0  0  0  0  0  0  0  0
   -9.2550   21.0010  -32.0370 C   0  0  0  0  0  0  0  0  0  0  0  0
   -7.9550   20.5110  -32.3070 C   0  0  0  0  0  0  0  0  0  0  0  0
   -7.6960   19.1580  -32.4130 N   0  0  0  0  0  0  0  0  0  0  0  0
   -8.7120   18.1830  -31.9550 C   0  0  0  0  0  0  0  0  0  0  0  0
   -6.4780   18.7200  -32.9060 C   0  0  0  0  0  0  0  0  0  0  0  0
   -6.2550   17.3640  -33.2550 C   0  0  0  0  0  0  0  0  0  0  0  0
   -5.0050   16.9310  -33.6800 C   0  0  0  0  0  0  0  0  0  0  0  0
   -3.9540   17.8320  -33.7960 C   0  0  0  0  0  0  0  0  0  0  0  0
   -4.1540   19.1770  -33.5190 C   0  0  0  0  0  0  0  0  0  0  0  0
   -5.4150   19.6430  -33.0940 C   0  0  0  0  0  0  0  0  0  0  0  0
   -2.4803   23.3005  -26.3779 H   0  0  0  0  0  0  0  0  0  0  0  0
   -1.7900   22.2752  -27.6814 H   0  0  0  0  0  0  0  0  0  0  0  0
   -1.4954   24.0472  -27.6814 H   0  0  0  0  0  0  0  0  0  0  0  0
   -3.7557   22.5208  -28.7720 H   0  0  0  0  0  0  0  0  0  0  0  0
   -4.2964   23.7995  -27.6128 H   0  0  0  0  0  0  0  0  0  0  0  0
   -3.6279   25.5172  -28.9694 H   0  0  0  0  0  0  0  0  0  0  0  0
   -2.1915   24.5695  -29.5908 H   0  0  0  0  0  0  0  0  0  0  0  0
   -4.8041   26.2132  -30.8788 H   0  0  0  0  0  0  0  0  0  0  0  0
   -5.6389   24.9015  -31.7868 H   0  0  0  0  0  0  0  0  0  0  0  0
   -5.5941   25.0885  -28.7372 H   0  0  0  0  0  0  0  0  0  0  0  0
   -6.9031   25.7728  -29.7593 H   0  0  0  0  0  0  0  0  0  0  0  0
   -6.5959   24.0030  -29.7593 H   0  0  0  0  0  0  0  0  0  0  0  0
   -3.9511   22.2867  -29.9472 H   0  0  0  0  0  0  0  0  0  0  0  0
   -5.3820   22.7406  -30.9457 H   0  0  0  0  0  0  0  0  0  0  0  0
   -2.9158   23.0725  -32.4718 H   0  0  0  0  0  0  0  0  0  0  0  0
   -3.0419   21.3993  -31.8040 H   0  0  0  0  0  0  0  0  0  0  0  0
   -4.5670   22.4840  -34.0160 H   0  0  0  0  0  0  0  0  0  0  0  0
   -6.3292   23.5445  -32.2676 H   0  0  0  0  0  0  0  0  0  0  0  0
   -8.6191   24.3358  -31.7117 H   0  0  0  0  0  0  0  0  0  0  0  0
  -10.5078   22.7194  -31.6251 H   0  0  0  0  0  0  0  0  0  0  0  0
  -10.0972   20.2954  -31.9837 H   0  0  0  0  0  0  0  0  0  0  0  0
   -8.7321   18.1637  -30.8554 H   0  0  0  0  0  0  0  0  0  0  0  0
   -9.7012   18.4785  -32.3347 H   0  0  0  0  0  0  0  0  0  0  0  0
   -8.4574   17.1825  -32.3347 H   0  0  0  0  0  0  0  0  0  0  0  0
   -7.0840   16.6440  -33.1883 H   0  0  0  0  0  0  0  0  0  0  0  0
   -4.8470   15.8705  -33.9256 H   0  0  0  0  0  0  0  0  0  0  0  0
   -2.9604   17.4783  -34.1083 H   0  0  0  0  0  0  0  0  0  0  0  0
   -3.3209   19.8863  -33.6321 H   0  0  0  0  0  0  0  0  0  0  0  0
  1  2  1  0
  2  3  1  0
  3  4  1  0
  4  5  1  0
  5  6  1  0
  4  7  1  0
  7  8  1  0
  8  9  1  0
  9 10  1  0
 10 11  2  0
 11 12  1  0
 12 13  2  0
 13 14  1  0
 14 15  2  0
 15 16  1  0
 16 17  2  0
 17 18  1  0
 17 19  1  0
 19 20  2  0
 20 21  1  0
 21 22  2  0
 22 23  1  0
 23 24  2  0
 24 10  1  0
 16 11  1  0
 24 19  1  0
  1 25  1  0
  1 26  1  0
  1 27  1  0
  2 28  1  0
  2 29  1  0
  3 30  1  0
  3 31  1  0
  5 32  1  0
  5 33  1  0
  6 34  1  0
  6 35  1  0
  6 36  1  0
  7 37  1  0
  7 38  1  0
  8 39  1  0
  8 40  1  0
  9 41  1  0
 12 42  1  0
 13 43  1  0
 14 44  1  0
 15 45  1  0
 18 46  1  0
 18 47  1  0
 18 48  1  0
 20 49  1  0
 21 50  1  0
 22 51  1  0
 23 52  1  0
M  CHG  1  17   1
M  END
>  <UniqueID>  (43) 
41

>  <SMILES>  (43) 
CCCN(CC)CCNc1c2ccccc2[n+](C)c2ccccc12

>  <Energy>  (43) 
78.36244102889988

>  <Genealogy>  (43) 
CCCN(CC)CCNc1c2ccccc2[n+](C)c2ccccc12 (3D coordinates assigned)
CCCN(CC)CCNc1c2ccccc2[n+](C)c2ccccc12 (optimized conformer: 78.36244102889988 kcal/mol)

>  <smiles>  (43) 
CCCN(CC)CCNc1c2ccccc2[n+](C)c2ccccc12

>  <score_type>  (43) 
oracle

>  <origin>  (43) 
adg

>  <m_score__min__energy>  (43) 
-8.8200000000000003

>  <m_primary>  (43) 
energy

$$$$
43:0
     RDKit          3D

 52 56  0  0  0  0  0  0  0  0999 V2000
    0.5840   19.1430  -28.1930 C   0  0  0  0  0  0  0  0  0  0  0  0
    0.4210   20.4910  -27.7640 O   0  0  0  0  0  0  0  0  0  0  0  0
   -0.7740   21.2190  -27.8780 C   0  0  0  0  0  0  0  0  0  0  0  0
   -1.9900   20.6190  -28.2550 C   0  0  0  0  0  0  0  0  0  0  0  0
   -3.1540   21.3880  -28.3530 C   0  0  0  0  0  0  0  0  0  0  0  0
   -3.1210   22.7630  -28.0730 C   0  0  0  0  0  0  0  0  0  0  0  0
   -4.3650   23.6020  -28.2020 C   0  0  0  0  0  0  0  0  0  0  0  0
   -4.2340   24.5500  -29.3320 N   0  0  0  0  0  0  0  0  0  0  0  0
   -5.5360   25.0600  -29.7920 C   0  0  0  0  0  0  0  0  0  0  0  0
   -6.4280   23.9530  -30.3730 C   0  0  0  0  0  0  0  0  0  0  0  0
   -5.6780   22.9510  -31.2320 C   0  0  0  0  0  0  0  0  0  0  0  0
   -6.3860   21.9390  -31.9310 C   0  0  0  0  0  0  0  0  0  0  0  0
   -7.8640   21.8470  -31.9000 C   0  0  0  0  0  0  0  0  0  0  0  0
   -8.5680   22.7950  -32.3400 O   0  0  0  0  0  0  0  0  0  0  0  0
   -8.5420   20.5940  -31.4310 C   0  0  0  0  0  0  0  0  0  0  0  0
   -9.5020   19.9720  -32.4350 C   0  0  0  0  0  0  0  0  0  0  0  0
   -8.1440   19.3380  -32.1920 C   0  0  0  0  0  0  0  0  0  0  0  0
   -5.6810   20.9590  -32.6440 C   0  0  0  0  0  0  0  0  0  0  0  0
   -4.2860   20.9720  -32.6850 C   0  0  0  0  0  0  0  0  0  0  0  0
   -3.5790   20.0070  -33.4160 C   0  0  0  0  0  0  0  0  0  0  0  0
   -2.1850   20.0380  -33.4450 C   0  0  0  0  0  0  0  0  0  0  0  0
   -1.5080   21.0340  -32.7410 C   0  0  0  0  0  0  0  0  0  0  0  0
   -2.2070   21.9620  -32.0330 N   0  0  0  0  0  0  0  0  0  0  0  0
   -3.5690   21.9610  -31.9830 C   0  0  0  0  0  0  0  0  0  0  0  0
   -4.2590   22.9330  -31.2290 C   0  0  0  0  0  0  0  0  0  0  0  0
   -3.4790   23.9890  -30.4690 C   0  0  0  0  0  0  0  0  0  0  0  0
   -1.9070   23.3610  -27.7030 C   0  0  0  0  0  0  0  0  0  0  0  0
   -0.7440   22.5920  -27.6030 C   0  0  0  0  0  0  0  0  0  0  0  0
    0.6635   18.4857  -27.3146 H   0  0  0  0  0  0  0  0  0  0  0  0
   -0.2844   18.8432  -28.7979 H   0  0  0  0  0  0  0  0  0  0  0  0
    1.4989   19.0588  -28.7979 H   0  0  0  0  0  0  0  0  0  0  0  0
   -2.0250   19.5415  -28.4733 H   0  0  0  0  0  0  0  0  0  0  0  0
   -4.1003   20.9128  -28.6510 H   0  0  0  0  0  0  0  0  0  0  0  0
   -5.2288   22.9444  -28.3790 H   0  0  0  0  0  0  0  0  0  0  0  0
   -4.5082   24.1727  -27.2726 H   0  0  0  0  0  0  0  0  0  0  0  0
   -6.0558   25.5210  -28.9392 H   0  0  0  0  0  0  0  0  0  0  0  0
   -5.3456   25.7908  -30.5918 H   0  0  0  0  0  0  0  0  0  0  0  0
   -6.8975   23.4118  -29.5383 H   0  0  0  0  0  0  0  0  0  0  0  0
   -7.1663   24.4443  -31.0238 H   0  0  0  0  0  0  0  0  0  0  0  0
   -8.6017   20.8811  -30.3708 H   0  0  0  0  0  0  0  0  0  0  0  0
  -10.4147   19.4684  -32.0838 H   0  0  0  0  0  0  0  0  0  0  0  0
  -10.0431   20.3352  -33.3212 H   0  0  0  0  0  0  0  0  0  0  0  0
   -8.0732   18.3751  -31.6649 H   0  0  0  0  0  0  0  0  0  0  0  0
   -7.2945   19.0519  -32.8295 H   0  0  0  0  0  0  0  0  0  0  0  0
   -6.2335   20.1712  -33.1770 H   0  0  0  0  0  0  0  0  0  0  0  0
   -4.1235   19.2257  -33.9665 H   0  0  0  0  0  0  0  0  0  0  0  0
   -1.6247   19.2842  -34.0176 H   0  0  0  0  0  0  0  0  0  0  0  0
   -0.4087   21.0691  -32.7583 H   0  0  0  0  0  0  0  0  0  0  0  0
   -2.5533   23.5346  -30.0862 H   0  0  0  0  0  0  0  0  0  0  0  0
   -3.2707   24.8132  -31.1671 H   0  0  0  0  0  0  0  0  0  0  0  0
   -1.8702   24.4397  -27.4907 H   0  0  0  0  0  0  0  0  0  0  0  0
    0.2018   23.0687  -27.3061 H   0  0  0  0  0  0  0  0  0  0  0  0
  1  2  1  0
  2  3  1  0
  3  4  2  0
  4  5  1  0
  5  6  2  0
  6  7  1  0
  7  8  1  0
  8  9  1  0
  9 10  1  0
 10 11  1  0
 11 12  2  0
 12 13  1  0
 13 14  2  0
 13 15  1  0
 15 16  1  0
 16 17  1  0
 12 18  1  0
 18 19  2  0
 19 20  1  0
 20 21  2  0
 21 22  1  0
 22 23  2  0
 23 24  1  0
 24 25  2  0
 25 26  1  0
  6 27  1  0
 27 28  2  0
 28  3  1  0
 26  8  1  0
 25 11  1  0
 17 15  1  0
 24 19  1  0
  1 29  1  0
  1 30  1  0
  1 31  1  0
  4 32  1  0
  5 33  1  0
  7 34  1  0
  7 35  1  0
  9 36  1  0
  9 37  1  0
 10 38  1  0
 10 39  1  0
 15 40  1  0
 16 41  1  0
 16 42  1  0
 17 43  1  0
 17 44  1  0
 18 45  1  0
 20 46  1  0
 21 47  1  0
 22 48  1  0
 26 49  1  0
 26 50  1  0
 27 51  1  0
 28 52  1  0
M  END
>  <UniqueID>  (44) 
42

>  <SMILES>  (44) 
COc1ccc(CN2CCc3c(C(=O)C4CC4)cc4cccnc4c3C2)cc1

>  <Energy>  (44) 
334.913492541329

>  <Genealogy>  (44) 
COc1ccc(CN2CCc3c(C(=O)C4CC4)cc4cccnc4c3C2)cc1 (3D coordinates assigned)
COc1ccc(CN2CCc3c(C(=O)C4CC4)cc4cccnc4c3C2)cc1 (nonaromatic ring conformer: 334.913492541329 kcal/mol)

>  <smiles>  (44) 
COc1ccc(CN2CCc3c(C(=O)C4CC4)cc4cccnc4c3C2)cc1

>  <score_type>  (44) 
oracle

>  <origin>  (44) 
adg

>  <m_score__min__energy>  (44) 
-9.6400000000000006

>  <m_primary>  (44) 
energy

$$$$
44:0
     RDKit          3D

 47 49  0  0  0  0  0  0  0  0999 V2000
   -3.6900   21.5360  -31.5440 C   0  0  0  0  0  0  0  0  0  0  0  0
   -4.7020   22.4090  -32.2810 C   0  0  0  0  0  0  0  0  0  0  0  0
   -5.7510   22.8720  -31.3670 N   0  0  0  0  0  0  0  0  0  0  0  0
   -5.7110   23.9510  -30.5520 C   0  0  0  0  0  0  0  0  0  0  0  0
   -4.3490   25.1180  -30.4590 S   0  0  0  0  0  0  0  0  0  0  0  0
   -3.3700   24.1320  -29.2660 C   0  0  0  0  0  0  0  0  0  0  0  0
   -2.0620   24.8620  -28.9690 C   0  0  0  0  0  0  0  0  0  0  0  0
   -4.1700   23.9150  -27.9800 C   0  0  0  0  0  0  0  0  0  0  0  0
   -6.8090   24.0350  -29.7750 N   0  0  0  0  0  0  0  0  0  0  0  0
   -7.5600   22.9930  -30.0880 N   0  0  0  0  0  0  0  0  0  0  0  0
   -6.9320   22.2890  -31.0480 C   0  0  0  0  0  0  0  0  0  0  0  0
   -7.4550   21.0190  -31.5980 C   0  0  0  0  0  0  0  0  0  0  0  0
   -8.8240   20.9020  -31.8860 C   0  0  0  0  0  0  0  0  0  0  0  0
   -9.3300   19.7230  -32.4360 C   0  0  0  0  0  0  0  0  0  0  0  0
   -8.4750   18.6520  -32.7080 C   0  0  0  0  0  0  0  0  0  0  0  0
   -7.1030   18.7510  -32.4290 C   0  0  0  0  0  0  0  0  0  0  0  0
   -6.2060   17.6200  -32.7500 C   0  0  0  0  0  0  0  0  0  0  0  0
   -5.7390   16.4370  -31.6430 S   0  0  0  0  0  0  0  0  0  0  0  0
   -4.7920   15.6100  -32.7570 C   0  0  0  0  0  0  0  0  0  0  0  0
   -4.0810   14.3290  -32.4830 C   0  0  0  0  0  0  0  0  0  0  0  0
   -4.8220   16.2020  -33.9700 N   0  0  0  0  0  0  0  0  0  0  0  0
   -5.5860   17.3280  -33.9750 C   0  0  0  0  0  0  0  0  0  0  0  0
   -5.7180   18.1550  -35.2150 C   0  0  0  0  0  0  0  0  0  0  0  0
   -6.5970   19.9470  -31.8920 C   0  0  0  0  0  0  0  0  0  0  0  0
   -3.8261   21.6534  -30.4588 H   0  0  0  0  0  0  0  0  0  0  0  0
   -3.8439   20.4826  -31.8210 H   0  0  0  0  0  0  0  0  0  0  0  0
   -2.6706   21.8428  -31.8210 H   0  0  0  0  0  0  0  0  0  0  0  0
   -4.1840   23.2808  -32.7071 H   0  0  0  0  0  0  0  0  0  0  0  0
   -5.1673   21.8129  -33.0799 H   0  0  0  0  0  0  0  0  0  0  0  0
   -3.1435   23.1462  -29.6984 H   0  0  0  0  0  0  0  0  0  0  0  0
   -1.9241   24.9390  -27.8804 H   0  0  0  0  0  0  0  0  0  0  0  0
   -1.2222   24.3022  -29.4063 H   0  0  0  0  0  0  0  0  0  0  0  0
   -2.0976   25.8707  -29.4063 H   0  0  0  0  0  0  0  0  0  0  0  0
   -3.5204   24.0912  -27.1099 H   0  0  0  0  0  0  0  0  0  0  0  0
   -5.0175   24.6157  -27.9527 H   0  0  0  0  0  0  0  0  0  0  0  0
   -4.5472   22.8821  -27.9527 H   0  0  0  0  0  0  0  0  0  0  0  0
   -8.4800   22.7740  -29.6470 H   0  0  0  0  0  0  0  0  0  0  0  0
   -9.5012   21.7434  -31.6773 H   0  0  0  0  0  0  0  0  0  0  0  0
  -10.4044   19.6369  -32.6558 H   0  0  0  0  0  0  0  0  0  0  0  0
   -8.8793   17.7262  -33.1432 H   0  0  0  0  0  0  0  0  0  0  0  0
   -3.9986   14.1806  -31.3962 H   0  0  0  0  0  0  0  0  0  0  0  0
   -4.6451   13.4947  -32.9253 H   0  0  0  0  0  0  0  0  0  0  0  0
   -3.0745   14.3664  -32.9253 H   0  0  0  0  0  0  0  0  0  0  0  0
   -5.8858   19.2064  -34.9384 H   0  0  0  0  0  0  0  0  0  0  0  0
   -4.7957   18.0749  -35.8091 H   0  0  0  0  0  0  0  0  0  0  0  0
   -6.5695   17.7917  -35.8091 H   0  0  0  0  0  0  0  0  0  0  0  0
   -5.5183   20.0444  -31.7001 H   0  0  0  0  0  0  0  0  0  0  0  0
  1  2  1  0
  2  3  1  0
  3  4  1  0
  4  5  1  0
  5  6  1  0
  6  7  1  0
  6  8  1  0
  4  9  2  0
  9 10  1  0
 10 11  2  0
 11 12  1  0
 12 13  2  0
 13 14  1  0
 14 15  2  0
 15 16  1  0
 16 17  1  0
 17 18  1  0
 18 19  1  0
 19 20  1  0
 19 21  2  0
 21 22  1  0
 22 23  1  0
 16 24  2  0
 11  3  1  0
 24 12  1  0
 22 17  2  0
  1 25  1  0
  1 26  1  0
  1 27  1  0
  2 28  1  0
  2 29  1  0
  6 30  1  0
  7 31  1  0
  7 32  1  0
  7 33  1  0
  8 34  1  0
  8 35  1  0
  8 36  1  0
 10 37  1  0
 13 38  1  0
 14 39  1  0
 15 40  1  0
 20 41  1  0
 20 42  1  0
 20 43  1  0
 23 44  1  0
 23 45  1  0
 23 46  1  0
 24 47  1  0
M  CHG  1  10   1
M  END
>  <UniqueID>  (45) 
43

>  <SMILES>  (45) 
CCn1c(SC(C)C)n[nH+]c1-c1cccc(-c2sc(C)nc2C)c1

>  <Energy>  (45) 
108.38182955887176

>  <Genealogy>  (45) 
CCn1c(SC(C)C)n[nH+]c1-c1cccc(-c2sc(C)nc2C)c1 (protonated)
CCn1c(SC(C)C)n[nH+]c1-c1cccc(-c2sc(C)nc2C)c1 (3D coordinates assigned)
CCn1c(SC(C)C)n[nH+]c1-c1cccc(-c2sc(C)nc2C)c1 (optimized conformer: 108.38182955887176 kcal/mol)

>  <smiles>  (45) 
CCn1c(SC(C)C)nnc1-c1cccc(-c2sc(C)nc2C)c1

>  <score_type>  (45) 
oracle

>  <origin>  (45) 
adg

>  <m_score__min__energy>  (45) 
-8.6300000000000008

>  <m_primary>  (45) 
energy

$$$$
45:0
     RDKit          3D

 47 49  0  0  0  0  0  0  0  0999 V2000
   -5.6870   18.0170  -34.9600 C   0  0  0  0  0  0  0  0  0  0  0  0
   -6.1640   19.2350  -34.1730 C   0  0  0  0  0  0  0  0  0  0  0  0
   -7.0720   18.8490  -32.9980 C   0  0  0  0  0  0  0  0  0  0  0  0
   -7.5010   20.0310  -32.2480 N   0  0  0  0  0  0  0  0  0  0  0  0
   -8.7810   20.3750  -31.9660 C   0  0  0  0  0  0  0  0  0  0  0  0
   -8.8230   21.5830  -31.2810 C   0  0  0  0  0  0  0  0  0  0  0  0
   -7.5080   21.9760  -31.1550 C   0  0  0  0  0  0  0  0  0  0  0  0
   -6.9600   23.1130  -30.5680 C   0  0  0  0  0  0  0  0  0  0  0  0
   -5.5590   23.2760  -30.6160 C   0  0  0  0  0  0  0  0  0  0  0  0
   -4.8130   24.6890  -29.8700 S   0  0  0  0  0  0  0  0  0  0  0  0
   -3.8680   25.2970  -30.8690 O   0  0  0  0  0  0  0  0  0  0  0  0
   -5.8860   25.7050  -29.5920 O   0  0  0  0  0  0  0  0  0  0  0  0
   -3.9220   24.3600  -28.3920 N   0  0  2  0  0  0  0  0  0  0  0  0
   -2.4710   24.6370  -28.5090 C   0  0  0  0  0  0  0  0  0  0  0  0
   -1.6450   23.4660  -29.0730 C   0  0  0  0  0  0  0  0  0  0  0  0
   -1.9440   22.1360  -28.3730 C   0  0  1  0  0  0  0  0  0  0  0  0
   -1.3380   22.0730  -26.9610 C   0  0  0  0  0  0  0  0  0  0  0  0
   -3.4550   21.8760  -28.3720 C   0  0  0  0  0  0  0  0  0  0  0  0
   -4.2470   23.0500  -27.7820 C   0  0  0  0  0  0  0  0  0  0  0  0
   -4.7530   22.2710  -31.2060 C   0  0  0  0  0  0  0  0  0  0  0  0
   -5.3380   21.1330  -31.7900 C   0  0  0  0  0  0  0  0  0  0  0  0
   -6.7290   21.0180  -31.7500 C   0  0  0  0  0  0  0  0  0  0  0  0
   -5.3775   17.2266  -34.2604 H   0  0  0  0  0  0  0  0  0  0  0  0
   -6.5062   17.6459  -35.5934 H   0  0  0  0  0  0  0  0  0  0  0  0
   -4.8336   18.3009  -35.5934 H   0  0  0  0  0  0  0  0  0  0  0  0
   -5.2859   19.7692  -33.7811 H   0  0  0  0  0  0  0  0  0  0  0  0
   -6.7481   19.8696  -34.8557 H   0  0  0  0  0  0  0  0  0  0  0  0
   -7.9601   18.3293  -33.3868 H   0  0  0  0  0  0  0  0  0  0  0  0
   -6.5043   18.1944  -32.3204 H   0  0  0  0  0  0  0  0  0  0  0  0
   -9.6644   19.7802  -32.2413 H   0  0  0  0  0  0  0  0  0  0  0  0
   -9.7156   22.1128  -30.9168 H   0  0  0  0  0  0  0  0  0  0  0  0
   -7.6005   23.8629  -30.0807 H   0  0  0  0  0  0  0  0  0  0  0  0
   -4.2910   25.0760  -27.7210 H   0  0  0  0  0  0  0  0  0  0  0  0
   -2.3383   25.5035  -29.1735 H   0  0  0  0  0  0  0  0  0  0  0  0
   -2.1022   24.8196  -27.4889 H   0  0  0  0  0  0  0  0  0  0  0  0
   -1.8733   23.3586  -30.1437 H   0  0  0  0  0  0  0  0  0  0  0  0
   -0.5833   23.6980  -28.9031 H   0  0  0  0  0  0  0  0  0  0  0  0
   -1.4574   21.3289  -28.9403 H   0  0  0  0  0  0  0  0  0  0  0  0
   -2.1406   22.1564  -26.2135 H   0  0  0  0  0  0  0  0  0  0  0  0
   -0.8128   21.1154  -26.8298 H   0  0  0  0  0  0  0  0  0  0  0  0
   -0.6271   22.9021  -26.8298 H   0  0  0  0  0  0  0  0  0  0  0  0
   -3.7863   21.7107  -29.4078 H   0  0  0  0  0  0  0  0  0  0  0  0
   -3.6443   20.9928  -27.7442 H   0  0  0  0  0  0  0  0  0  0  0  0
   -5.3191   22.8546  -27.9318 H   0  0  0  0  0  0  0  0  0  0  0  0
   -3.9745   23.1166  -26.7184 H   0  0  0  0  0  0  0  0  0  0  0  0
   -3.6586   22.3819  -31.2073 H   0  0  0  0  0  0  0  0  0  0  0  0
   -4.7186   20.3572  -32.2638 H   0  0  0  0  0  0  0  0  0  0  0  0
  1  2  1  0
  2  3  1  0
  3  4  1  0
  4  5  1  0
  5  6  2  0
  6  7  1  0
  7  8  2  0
  8  9  1  0
  9 10  1  0
 10 11  2  0
 10 12  2  0
 10 13  1  0
 13 14  1  0
 14 15  1  0
 15 16  1  0
 16 17  1  0
 16 18  1  0
 18 19  1  0
  9 20  2  0
 20 21  1  0
 21 22  2  0
 22  4  1  0
 22  7  1  0
 19 13  1  0
  1 23  1  0
  1 24  1  0
  1 25  1  0
  2 26  1  0
  2 27  1  0
  3 28  1  0
  3 29  1  0
  5 30  1  0
  6 31  1  0
  8 32  1  0
 13 33  1  1
 14 34  1  0
 14 35  1  0
 15 36  1  0
 15 37  1  0
 16 38  1  6
 17 39  1  0
 17 40  1  0
 17 41  1  0
 18 42  1  0
 18 43  1  0
 19 44  1  0
 19 45  1  0
 20 46  1  0
 21 47  1  0
M  CHG  1  13   1
M  END
>  <UniqueID>  (46) 
44

>  <SMILES>  (46) 
CCCn1ccc2cc(S(=O)(=O)[NH+]3CCC(C)CC3)ccc21

>  <Energy>  (46) 
76.81472140168854

>  <Genealogy>  (46) 
CCCn1ccc2cc(S(=O)(=O)[NH+]3CCC(C)CC3)ccc21 (protonated)
CCCn1ccc2cc(S(=O)(=O)[NH+]3CCC(C)CC3)ccc21 (3D coordinates assigned)
CCCn1ccc2cc(S(=O)(=O)[NH+]3CCC(C)CC3)ccc21 (nonaromatic ring conformer: 76.81472140168854 kcal/mol)

>  <smiles>  (46) 
CCCn1ccc2cc(S(=O)(=O)N3CCC(C)CC3)ccc21

>  <score_type>  (46) 
oracle

>  <origin>  (46) 
adg

>  <m_score__min__energy>  (46) 
-8.3699999999999992

>  <m_primary>  (46) 
energy

$$$$
