0:0
     RDKit          3D

 56 58  0  0  0  0  0  0  0  0999 V2000
   -6.3240   25.2600  -29.7640 C   0  0  0  0  0  0  0  0  0  0  0  0
   -5.2940   24.9050  -30.8470 C   0  0  0  0  0  0  0  0  0  0  0  0
   -3.9550   24.5280  -30.3290 N   0  0  0  0  0  0  0  0  0  0  0  0
   -3.9320   24.4430  -28.8590 C   0  0  0  0  0  0  0  0  0  0  0  0
   -3.3730   23.3130  -30.9440 C   0  0  0  0  0  0  0  0  0  0  0  0
   -3.7630   22.0440  -30.1780 C   0  0  0  0  0  0  0  0  0  0  0  0
   -3.8440   20.9490  -31.0650 O   0  0  0  0  0  0  0  0  0  0  0  0
   -3.2820   21.3090  -32.3100 C   0  0  0  0  0  0  0  0  0  0  0  0
   -4.3860   21.4120  -33.3600 C   0  0  0  0  0  0  0  0  0  0  0  0
   -5.5070   20.5270  -33.0280 N   0  0  0  0  0  0  0  0  0  0  0  0
   -6.5560   20.8030  -32.2130 C   0  0  0  0  0  0  0  0  0  0  0  0
   -7.4070   19.7210  -32.1250 C   0  0  0  0  0  0  0  0  0  0  0  0
   -6.8320   18.7190  -32.8740 C   0  0  0  0  0  0  0  0  0  0  0  0
   -7.2340   17.4050  -33.1070 C   0  0  0  0  0  0  0  0  0  0  0  0
   -6.4170   16.5980  -33.9370 C   0  0  0  0  0  0  0  0  0  0  0  0
   -6.7380   15.2650  -34.2310 O   0  0  0  0  0  0  0  0  0  0  0  0
   -5.8030   14.1920  -34.2050 C   0  0  0  0  0  0  0  0  0  0  0  0
   -5.2360   17.1410  -34.4950 C   0  0  0  0  0  0  0  0  0  0  0  0
   -4.8570   18.4710  -34.2390 C   0  0  0  0  0  0  0  0  0  0  0  0
   -5.6810   19.2410  -33.4160 C   0  0  0  0  0  0  0  0  0  0  0  0
   -8.6300   19.6950  -31.2580 C   0  0  0  0  0  0  0  0  0  0  0  0
   -9.0760   21.0670  -30.9170 N   0  0  0  0  0  0  0  0  0  0  0  0
   -9.8520   21.6770  -32.0100 C   0  0  0  0  0  0  0  0  0  0  0  0
   -7.9530   21.9350  -30.4760 C   0  0  0  0  0  0  0  0  0  0  0  0
   -6.8600   22.1140  -31.5550 C   0  0  0  0  0  0  0  0  0  0  0  0
   -5.8786   25.1065  -28.7700 H   0  0  0  0  0  0  0  0  0  0  0  0
   -6.6228   26.3130  -29.8733 H   0  0  0  0  0  0  0  0  0  0  0  0
   -7.2081   24.6147  -29.8733 H   0  0  0  0  0  0  0  0  0  0  0  0
   -5.6869   24.0586  -31.4294 H   0  0  0  0  0  0  0  0  0  0  0  0
   -5.1498   25.8143  -31.4489 H   0  0  0  0  0  0  0  0  0  0  0  0
   -4.1967   25.4211  -28.4310 H   0  0  0  0  0  0  0  0  0  0  0  0
   -4.6580   23.6876  -28.5240 H   0  0  0  0  0  0  0  0  0  0  0  0
   -2.9241   24.1568  -28.5240 H   0  0  0  0  0  0  0  0  0  0  0  0
   -3.7355   23.2295  -31.9792 H   0  0  0  0  0  0  0  0  0  0  0  0
   -2.2774   23.4066  -30.9148 H   0  0  0  0  0  0  0  0  0  0  0  0
   -3.0041   21.8348  -29.4097 H   0  0  0  0  0  0  0  0  0  0  0  0
   -4.7434   22.1965  -29.7030 H   0  0  0  0  0  0  0  0  0  0  0  0
   -2.7749   22.2806  -32.2155 H   0  0  0  0  0  0  0  0  0  0  0  0
   -2.5554   20.5427  -32.6180 H   0  0  0  0  0  0  0  0  0  0  0  0
   -4.7470   22.4502  -33.4026 H   0  0  0  0  0  0  0  0  0  0  0  0
   -3.9746   21.1084  -34.3340 H   0  0  0  0  0  0  0  0  0  0  0  0
   -8.1570   17.0068  -32.6604 H   0  0  0  0  0  0  0  0  0  0  0  0
   -5.5746   13.9299  -33.1614 H   0  0  0  0  0  0  0  0  0  0  0  0
   -6.2331   13.3184  -34.7168 H   0  0  0  0  0  0  0  0  0  0  0  0
   -4.8788   14.4985  -34.7168 H   0  0  0  0  0  0  0  0  0  0  0  0
   -4.6037   16.5128  -35.1397 H   0  0  0  0  0  0  0  0  0  0  0  0
   -3.9387   18.8920  -34.6743 H   0  0  0  0  0  0  0  0  0  0  0  0
   -9.4391   19.1779  -31.7947 H   0  0  0  0  0  0  0  0  0  0  0  0
   -8.3837   19.1673  -30.3248 H   0  0  0  0  0  0  0  0  0  0  0  0
  -10.6503   22.3045  -31.5870 H   0  0  0  0  0  0  0  0  0  0  0  0
   -9.1876   22.2971  -32.6297 H   0  0  0  0  0  0  0  0  0  0  0  0
  -10.2977   20.8849  -32.6297 H   0  0  0  0  0  0  0  0  0  0  0  0
   -8.3568   22.9257  -30.2200 H   0  0  0  0  0  0  0  0  0  0  0  0
   -7.4813   21.4445  -29.6118 H   0  0  0  0  0  0  0  0  0  0  0  0
   -7.2135   22.8272  -32.3142 H   0  0  0  0  0  0  0  0  0  0  0  0
   -5.9452   22.4937  -31.0766 H   0  0  0  0  0  0  0  0  0  0  0  0
  1  2  1  0
  2  3  1  0
  3  4  1  0
  3  5  1  0
  5  6  1  0
  6  7  1  0
  7  8  1  0
  8  9  1  0
  9 10  1  0
 10 11  1  0
 11 12  2  0
 12 13  1  0
 13 14  2  0
 14 15  1  0
 15 16  1  0
 16 17  1  0
 15 18  2  0
 18 19  1  0
 19 20  2  0
 12 21  1  0
 21 22  1  0
 22 23  1  0
 22 24  1  0
 24 25  1  0
 20 10  1  0
 25 11  1  0
 20 13  1  0
  1 26  1  0
  1 27  1  0
  1 28  1  0
  2 29  1  0
  2 30  1  0
  4 31  1  0
  4 32  1  0
  4 33  1  0
  5 34  1  0
  5 35  1  0
  6 36  1  0
  6 37  1  0
  8 38  1  0
  8 39  1  0
  9 40  1  0
  9 41  1  0
 14 42  1  0
 17 43  1  0
 17 44  1  0
 17 45  1  0
 18 46  1  0
 19 47  1  0
 21 48  1  0
 21 49  1  0
 23 50  1  0
 23 51  1  0
 23 52  1  0
 24 53  1  0
 24 54  1  0
 25 55  1  0
 25 56  1  0
M  END
>  <UniqueID>  (1) 
1

>  <SMILES>  (1) 
CCN(C)CCOCCn1c2c(c3cc(OC)ccc31)CN(C)CC2

>  <Energy>  (1) 
93.35451815399034

>  <Genealogy>  (1) 
CCN(C)CCOCCn1c2c(c3cc(OC)ccc31)CN(C)CC2 (3D coordinates assigned)
CCN(C)CCOCCn1c2c(c3cc(OC)ccc31)CN(C)CC2 (nonaromatic ring conformer: 93.35451815399034 kcal/mol)

>  <smiles>  (1) 
CCN(C)CCOCCn1c2c(c3cc(OC)ccc31)CN(C)CC2

>  <score_type>  (1) 
oracle

>  <origin>  (1) 
adg

>  <m_score__min__energy>  (1) 
-7.6299999999999999

>  <m_primary>  (1) 
energy

$$$$
1:0
     RDKit          3D

 63 65  0  0  0  0  0  0  0  0999 V2000
   -7.4460   18.1610  -31.7220 C   0  0  0  0  0  0  0  0  0  0  0  0
   -8.6380   18.9330  -32.2660 C   0  0  0  0  0  0  0  0  0  0  0  0
   -8.1900   20.1600  -32.8350 O   0  0  0  0  0  0  0  0  0  0  0  0
   -7.7150   21.2520  -32.0920 C   0  0  0  0  0  0  0  0  0  0  0  0
   -8.1920   21.5540  -30.8030 C   0  0  0  0  0  0  0  0  0  0  0  0
   -7.6820   22.6500  -30.1010 C   0  0  0  0  0  0  0  0  0  0  0  0
   -6.6950   23.4650  -30.6770 C   0  0  0  0  0  0  0  0  0  0  0  0
   -6.1120   24.6180  -29.9020 C   0  0  0  0  0  0  0  0  0  0  0  0
   -5.2960   25.5570  -30.7970 C   0  0  0  0  0  0  0  0  0  0  0  0
   -3.8640   25.3310  -30.6250 N   0  0  0  0  0  0  0  0  0  0  0  0
   -3.3100   24.1660  -30.0030 C   0  0  0  0  0  0  0  0  0  0  0  0
   -3.2240   23.0800  -30.6400 O   0  0  0  0  0  0  0  0  0  0  0  0
   -2.8740   24.2140  -28.5710 C   0  0  0  0  0  0  0  0  0  0  0  0
   -1.5550   24.7460  -28.4540 O   0  0  0  0  0  0  0  0  0  0  0  0
   -0.4010   23.9530  -28.4380 C   0  0  0  0  0  0  0  0  0  0  0  0
    0.7370   24.4970  -28.4650 O   0  0  0  0  0  0  0  0  0  0  0  0
   -0.5350   22.4770  -28.4130 C   0  0  0  0  0  0  0  0  0  0  0  0
   -0.5360   21.7880  -29.6400 C   0  0  0  0  0  0  0  0  0  0  0  0
   -0.6680   20.3980  -29.6810 C   0  0  0  0  0  0  0  0  0  0  0  0
   -0.8130   19.6750  -28.4980 C   0  0  0  0  0  0  0  0  0  0  0  0
   -0.8290   20.3400  -27.2720 C   0  0  0  0  0  0  0  0  0  0  0  0
   -0.6860   21.7330  -27.2130 C   0  0  0  0  0  0  0  0  0  0  0  0
   -0.7850   22.5110  -25.5890 S   0  0  0  0  0  0  0  0  0  0  0  0
    0.9520   23.0820  -25.5580 C   0  0  0  0  0  0  0  0  0  0  0  0
    0.9890   24.5400  -25.2020 C   0  0  0  0  0  0  0  0  0  0  0  0
    1.8600   24.9430  -24.4400 O   0  0  0  0  0  0  0  0  0  0  0  0
    0.0270   25.4620  -25.7750 N   0  0  0  0  0  0  0  0  0  0  0  0
    0.6260   26.7600  -26.1050 C   0  0  0  0  0  0  0  0  0  0  0  0
   -0.5130   27.7690  -26.0950 C   0  0  0  0  0  0  0  0  0  0  0  0
   -1.5960   27.1450  -25.2270 C   0  0  0  0  0  0  0  0  0  0  0  0
   -1.0790   25.7590  -24.8580 C   0  0  0  0  0  0  0  0  0  0  0  0
   -6.2170   23.1610  -31.9610 C   0  0  0  0  0  0  0  0  0  0  0  0
   -6.7270   22.0630  -32.6620 C   0  0  0  0  0  0  0  0  0  0  0  0
   -7.4700   18.1765  -30.6224 H   0  0  0  0  0  0  0  0  0  0  0  0
   -7.4911   17.1202  -32.0751 H   0  0  0  0  0  0  0  0  0  0  0  0
   -6.5147   18.6279  -32.0751 H   0  0  0  0  0  0  0  0  0  0  0  0
   -9.1418   18.3331  -33.0382 H   0  0  0  0  0  0  0  0  0  0  0  0
   -9.3424   19.1440  -31.4478 H   0  0  0  0  0  0  0  0  0  0  0  0
   -8.9698   20.9247  -30.3457 H   0  0  0  0  0  0  0  0  0  0  0  0
   -8.0563   22.8750  -29.0914 H   0  0  0  0  0  0  0  0  0  0  0  0
   -6.9328   25.1888  -29.4433 H   0  0  0  0  0  0  0  0  0  0  0  0
   -5.4374   24.2066  -29.1367 H   0  0  0  0  0  0  0  0  0  0  0  0
   -5.5650   25.3759  -31.8481 H   0  0  0  0  0  0  0  0  0  0  0  0
   -5.5232   26.5955  -30.5143 H   0  0  0  0  0  0  0  0  0  0  0  0
   -3.5698   24.8504  -28.0046 H   0  0  0  0  0  0  0  0  0  0  0  0
   -2.8747   23.1894  -28.1706 H   0  0  0  0  0  0  0  0  0  0  0  0
   -0.4315   22.3513  -30.5790 H   0  0  0  0  0  0  0  0  0  0  0  0
   -0.6575   19.8734  -30.6478 H   0  0  0  0  0  0  0  0  0  0  0  0
   -0.9148   18.5802  -28.5313 H   0  0  0  0  0  0  0  0  0  0  0  0
   -0.9551   19.7656  -26.3424 H   0  0  0  0  0  0  0  0  0  0  0  0
    1.5146   22.5064  -24.8083 H   0  0  0  0  0  0  0  0  0  0  0  0
    1.4065   22.9330  -26.5486 H   0  0  0  0  0  0  0  0  0  0  0  0
   -0.3760   25.0540  -26.6520 H   0  0  0  0  0  0  0  0  0  0  0  0
    1.3830   27.0322  -25.3548 H   0  0  0  0  0  0  0  0  0  0  0  0
    1.1279   26.7323  -27.0834 H   0  0  0  0  0  0  0  0  0  0  0  0
   -0.1775   28.7242  -25.6649 H   0  0  0  0  0  0  0  0  0  0  0  0
   -0.8764   27.9867  -27.1102 H   0  0  0  0  0  0  0  0  0  0  0  0
   -1.7570   27.7482  -24.3214 H   0  0  0  0  0  0  0  0  0  0  0  0
   -2.5598   27.0924  -25.7545 H   0  0  0  0  0  0  0  0  0  0  0  0
   -0.7209   25.7528  -23.8180 H   0  0  0  0  0  0  0  0  0  0  0  0
   -1.8754   25.0049  -24.9424 H   0  0  0  0  0  0  0  0  0  0  0  0
   -5.4380   23.7888  -32.4182 H   0  0  0  0  0  0  0  0  0  0  0  0
   -6.3484   21.8352  -33.6694 H   0  0  0  0  0  0  0  0  0  0  0  0
  1  2  1  0
  2  3  1  0
  3  4  1  0
  4  5  2  0
  5  6  1  0
  6  7  2  0
  7  8  1  0
  8  9  1  0
  9 10  1  0
 10 11  1  0
 11 12  2  0
 11 13  1  0
 13 14  1  0
 14 15  1  0
 15 16  2  0
 15 17  1  0
 17 18  2  0
 18 19  1  0
 19 20  2  0
 20 21  1  0
 21 22  2  0
 22 23  1  0
 23 24  1  0
 24 25  1  0
 25 26  2  0
 25 27  1  0
 27 28  1  0
 28 29  1  0
 29 30  1  0
 30 31  1  0
  7 32  1  0
 32 33  2  0
 33  4  1  0
 22 17  1  0
 31 27  1  0
  1 34  1  0
  1 35  1  0
  1 36  1  0
  2 37  1  0
  2 38  1  0
  5 39  1  0
  6 40  1  0
  8 41  1  0
  8 42  1  0
  9 43  1  0
  9 44  1  0
 13 45  1  0
 13 46  1  0
 18 47  1  0
 19 48  1  0
 20 49  1  0
 21 50  1  0
 24 51  1  0
 24 52  1  0
 27 53  1  0
 28 54  1  0
 28 55  1  0
 29 56  1  0
 29 57  1  0
 30 58  1  0
 30 59  1  0
 31 60  1  0
 31 61  1  0
 32 62  1  0
 33 63  1  0
M  CHG  2  10  -1  27   1
M  END
>  <UniqueID>  (2) 
2

>  <SMILES>  (2) 
CCOc1ccc(CC[N-]C(=O)COC(=O)c2ccccc2SCC(=O)[NH+]2CCCC2)cc1

>  <Energy>  (2) 
57.133177887440716

>  <Genealogy>  (2) 
CCOc1ccc(CC[N-]C(=O)COC(=O)c2ccccc2SCC(=O)[NH+]2CCCC2)cc1 (protonated)
CCOc1ccc(CC[N-]C(=O)COC(=O)c2ccccc2SCC(=O)[NH+]2CCCC2)cc1 (3D coordinates assigned)
CCOc1ccc(CC[N-]C(=O)COC(=O)c2ccccc2SCC(=O)[NH+]2CCCC2)cc1 (nonaromatic ring conformer: 57.133177887440716 kcal/mol)

>  <smiles>  (2) 
CCOc1ccc(CCNC(=O)COC(=O)c2ccccc2SCC(=O)N2CCCC2)cc1

>  <score_type>  (2) 
oracle

>  <origin>  (2) 
adg

>  <m_score__min__energy>  (2) 
-10.960000000000001

>  <m_primary>  (2) 
energy

$$$$
2:0
     RDKit          3D

 50 53  0  0  0  0  0  0  0  0999 V2000
    0.5980   19.5660  -34.7850 C   0  0  0  0  0  0  0  0  0  0  0  0
   -0.6890   19.9860  -34.1600 C   0  0  0  0  0  0  0  0  0  0  0  0
   -1.8340   19.1940  -34.0650 C   0  0  0  0  0  0  0  0  0  0  0  0
   -2.9090   19.8890  -33.4990 C   0  0  0  0  0  0  0  0  0  0  0  0
   -4.1980   19.4210  -33.2510 C   0  0  0  0  0  0  0  0  0  0  0  0
   -4.5020   18.2290  -33.5380 O   0  0  0  0  0  0  0  0  0  0  0  0
   -5.1240   20.2710  -32.6900 N   0  0  0  0  0  0  0  0  0  0  0  0
   -6.4560   19.7860  -32.4440 C   0  0  0  0  0  0  0  0  0  0  0  0
   -6.6570   18.6710  -31.6150 C   0  0  0  0  0  0  0  0  0  0  0  0
   -7.9520   18.2000  -31.3730 C   0  0  0  0  0  0  0  0  0  0  0  0
   -9.0500   18.8450  -31.9500 C   0  0  0  0  0  0  0  0  0  0  0  0
   -8.8550   19.9600  -32.7710 C   0  0  0  0  0  0  0  0  0  0  0  0
   -7.5620   20.4320  -33.0170 C   0  0  0  0  0  0  0  0  0  0  0  0
   -4.7770   21.5760  -32.3820 C   0  0  0  0  0  0  0  0  0  0  0  0
   -5.7710   22.5460  -31.7950 C   0  0  0  0  0  0  0  0  0  0  0  0
   -5.1850   23.8920  -31.7590 N   0  0  0  0  0  0  0  0  0  0  0  0
   -5.3660   24.5300  -30.4480 C   0  0  0  0  0  0  0  0  0  0  0  0
   -4.1990   24.1920  -29.5070 C   0  0  0  0  0  0  0  0  0  0  0  0
   -3.1940   23.3810  -30.1940 N   0  0  0  0  0  0  0  0  0  0  0  0
   -2.4680   22.2970  -29.5790 C   0  0  0  0  0  0  0  0  0  0  0  0
   -3.0700   21.4270  -28.6480 C   0  0  0  0  0  0  0  0  0  0  0  0
   -2.3350   20.3840  -28.0780 C   0  0  0  0  0  0  0  0  0  0  0  0
   -0.9960   20.1950  -28.4270 C   0  0  0  0  0  0  0  0  0  0  0  0
   -0.2840   19.1830  -27.8720 F   0  0  0  0  0  0  0  0  0  0  0  0
   -0.3880   21.0530  -29.3490 C   0  0  0  0  0  0  0  0  0  0  0  0
   -1.1200   22.0970  -29.9210 C   0  0  0  0  0  0  0  0  0  0  0  0
   -3.5140   22.0270  -32.6340 N   0  0  0  0  0  0  0  0  0  0  0  0
   -2.6060   21.1910  -33.1790 C   0  0  0  0  0  0  0  0  0  0  0  0
   -1.0150   21.5440  -33.5780 S   0  0  0  0  0  0  0  0  0  0  0  0
    1.3277   19.3279  -33.9971 H   0  0  0  0  0  0  0  0  0  0  0  0
    0.4292   18.6763  -35.4095 H   0  0  0  0  0  0  0  0  0  0  0  0
    0.9865   20.3840  -35.4095 H   0  0  0  0  0  0  0  0  0  0  0  0
   -1.8857   18.1463  -34.3961 H   0  0  0  0  0  0  0  0  0  0  0  0
   -5.7946   18.1666  -31.1548 H   0  0  0  0  0  0  0  0  0  0  0  0
   -8.1063   17.3220  -30.7286 H   0  0  0  0  0  0  0  0  0  0  0  0
  -10.0680   18.4751  -31.7580 H   0  0  0  0  0  0  0  0  0  0  0  0
   -9.7200   20.4665  -33.2240 H   0  0  0  0  0  0  0  0  0  0  0  0
   -7.4116   21.3112  -33.6608 H   0  0  0  0  0  0  0  0  0  0  0  0
   -6.6795   22.5589  -32.4150 H   0  0  0  0  0  0  0  0  0  0  0  0
   -6.0269   22.2320  -30.7723 H   0  0  0  0  0  0  0  0  0  0  0  0
   -4.1550   23.7940  -31.9240 H   0  0  0  0  0  0  0  0  0  0  0  0
   -5.4160   25.6206  -30.5822 H   0  0  0  0  0  0  0  0  0  0  0  0
   -6.2980   24.1545  -30.0004 H   0  0  0  0  0  0  0  0  0  0  0  0
   -3.7329   25.1263  -29.1609 H   0  0  0  0  0  0  0  0  0  0  0  0
   -4.5899   23.6191  -28.6532 H   0  0  0  0  0  0  0  0  0  0  0  0
   -3.0460   23.5670  -31.2120 H   0  0  0  0  0  0  0  0  0  0  0  0
   -4.1243   21.5697  -28.3684 H   0  0  0  0  0  0  0  0  0  0  0  0
   -2.8127   19.7096  -27.3520 H   0  0  0  0  0  0  0  0  0  0  0  0
    0.6669   20.9060  -29.6241 H   0  0  0  0  0  0  0  0  0  0  0  0
   -0.6363   22.7684  -30.6457 H   0  0  0  0  0  0  0  0  0  0  0  0
  1  2  1  0
  2  3  2  0
  3  4  1  0
  4  5  1  0
  5  6  2  0
  5  7  1  0
  7  8  1  0
  8  9  2  0
  9 10  1  0
 10 11  2  0
 11 12  1  0
 12 13  2  0
  7 14  1  0
 14 15  1  0
 15 16  1  0
 16 17  1  0
 17 18  1  0
 18 19  1  0
 19 20  1  0
 20 21  2  0
 21 22  1  0
 22 23  2  0
 23 24  1  0
 23 25  1  0
 25 26  2  0
 14 27  2  0
 27 28  1  0
 28 29  1  0
 29  2  1  0
 28  4  2  0
 13  8  1  0
 26 20  1  0
  1 30  1  0
  1 31  1  0
  1 32  1  0
  3 33  1  0
  9 34  1  0
 10 35  1  0
 11 36  1  0
 12 37  1  0
 13 38  1  0
 15 39  1  0
 15 40  1  0
 16 41  1  0
 17 42  1  0
 17 43  1  0
 18 44  1  0
 18 45  1  0
 19 46  1  0
 21 47  1  0
 22 48  1  0
 25 49  1  0
 26 50  1  0
M  END
>  <UniqueID>  (3) 
3

>  <SMILES>  (3) 
Cc1cc2c(=O)n(-c3ccccc3)c(CNCCNc3ccc(F)cc3)nc2s1

>  <Energy>  (3) 
91.44760633917016

>  <Genealogy>  (3) 
Cc1cc2c(=O)n(-c3ccccc3)c(CNCCNc3ccc(F)cc3)nc2s1 (3D coordinates assigned)
Cc1cc2c(=O)n(-c3ccccc3)c(CNCCNc3ccc(F)cc3)nc2s1 (optimized conformer: 91.44760633917016 kcal/mol)

>  <smiles>  (3) 
Cc1cc2c(=O)n(-c3ccccc3)c(CNCCNc3ccc(F)cc3)nc2s1

>  <score_type>  (3) 
oracle

>  <origin>  (3) 
adg

>  <m_score__min__energy>  (3) 
-8.4399999999999995

>  <m_primary>  (3) 
energy

$$$$
3:0
     RDKit          3D

 51 54  0  0  0  0  0  0  0  0999 V2000
   -3.8190   24.6420  -26.7370 C   0  0  0  0  0  0  0  0  0  0  0  0
   -4.1470   24.1790  -28.1560 C   0  0  0  0  0  0  0  0  0  0  0  0
   -5.3270   24.8860  -28.6790 N   0  0  0  0  0  0  0  0  0  0  0  0
   -6.0110   24.1220  -29.7420 C   0  0  0  0  0  0  0  0  0  0  0  0
   -5.3300   24.2490  -31.1200 C   0  0  0  0  0  0  0  0  0  0  0  0
   -4.4210   23.0500  -31.4630 C   0  0  0  0  0  0  0  0  0  0  0  0
   -4.8340   22.4150  -32.7170 N   0  0  0  0  0  0  0  0  0  0  0  0
   -5.4890   21.1360  -32.7230 C   0  0  0  0  0  0  0  0  0  0  0  0
   -6.8670   20.9900  -32.4370 C   0  0  0  0  0  0  0  0  0  0  0  0
   -7.6290   22.0830  -31.9790 C   0  0  0  0  0  0  0  0  0  0  0  0
   -9.0000   21.9560  -31.7660 C   0  0  0  0  0  0  0  0  0  0  0  0
   -9.6340   20.7420  -32.0070 C   0  0  0  0  0  0  0  0  0  0  0  0
   -8.8990   19.6300  -32.4190 C   0  0  0  0  0  0  0  0  0  0  0  0
   -7.4970   19.7090  -32.5980 C   0  0  0  0  0  0  0  0  0  0  0  0
   -6.7410   18.5940  -32.9340 N   0  0  0  0  0  0  0  0  0  0  0  0
   -7.2940   17.2320  -32.8610 C   0  0  0  0  0  0  0  0  0  0  0  0
   -5.4230   18.7840  -33.2620 C   0  0  0  0  0  0  0  0  0  0  0  0
   -4.7910   19.9990  -33.1130 C   0  0  0  0  0  0  0  0  0  0  0  0
   -3.4930   19.9340  -33.4840 N   0  0  0  0  0  0  0  0  0  0  0  0
   -3.3120   18.6700  -33.9120 C   0  0  0  0  0  0  0  0  0  0  0  0
   -2.1480   18.1490  -34.4750 C   0  0  0  0  0  0  0  0  0  0  0  0
   -2.1800   16.8340  -34.9620 C   0  0  0  0  0  0  0  0  0  0  0  0
   -3.3700   16.0800  -34.9050 C   0  0  0  0  0  0  0  0  0  0  0  0
   -4.5360   16.6270  -34.3430 C   0  0  0  0  0  0  0  0  0  0  0  0
   -4.4730   17.9240  -33.8150 C   0  0  0  0  0  0  0  0  0  0  0  0
   -4.2970   23.9673  -26.0115 H   0  0  0  0  0  0  0  0  0  0  0  0
   -2.7291   24.6268  -26.5891 H   0  0  0  0  0  0  0  0  0  0  0  0
   -4.1949   25.6652  -26.5891 H   0  0  0  0  0  0  0  0  0  0  0  0
   -3.2860   24.3828  -28.8095 H   0  0  0  0  0  0  0  0  0  0  0  0
   -4.3646   23.1010  -28.1327 H   0  0  0  0  0  0  0  0  0  0  0  0
   -6.0070   25.0200  -27.8940 H   0  0  0  0  0  0  0  0  0  0  0  0
   -5.0500   25.8320  -29.0250 H   0  0  0  0  0  0  0  0  0  0  0  0
   -6.0237   23.0600  -29.4555 H   0  0  0  0  0  0  0  0  0  0  0  0
   -7.0248   24.5373  -29.8404 H   0  0  0  0  0  0  0  0  0  0  0  0
   -6.1116   24.3265  -31.8902 H   0  0  0  0  0  0  0  0  0  0  0  0
   -4.6912   25.1439  -31.0872 H   0  0  0  0  0  0  0  0  0  0  0  0
   -3.3840   23.4029  -31.5638 H   0  0  0  0  0  0  0  0  0  0  0  0
   -4.5010   22.3090  -30.6540 H   0  0  0  0  0  0  0  0  0  0  0  0
   -4.9910   23.0460  -33.5350 H   0  0  0  0  0  0  0  0  0  0  0  0
   -7.1359   23.0475  -31.7874 H   0  0  0  0  0  0  0  0  0  0  0  0
   -9.5819   22.8175  -31.4066 H   0  0  0  0  0  0  0  0  0  0  0  0
  -10.7224   20.6579  -31.8719 H   0  0  0  0  0  0  0  0  0  0  0  0
   -9.4166   18.6779  -32.6075 H   0  0  0  0  0  0  0  0  0  0  0  0
   -7.4124   16.9403  -31.8070 H   0  0  0  0  0  0  0  0  0  0  0  0
   -8.2736   17.2067  -33.3607 H   0  0  0  0  0  0  0  0  0  0  0  0
   -6.6093   16.5310  -33.3607 H   0  0  0  0  0  0  0  0  0  0  0  0
   -2.7860   20.7020  -33.4890 H   0  0  0  0  0  0  0  0  0  0  0  0
   -1.2302   18.7522  -34.5356 H   0  0  0  0  0  0  0  0  0  0  0  0
   -1.2707   16.3881  -35.3912 H   0  0  0  0  0  0  0  0  0  0  0  0
   -3.3858   15.0550  -35.3038 H   0  0  0  0  0  0  0  0  0  0  0  0
   -5.4737   16.0524  -34.3180 H   0  0  0  0  0  0  0  0  0  0  0  0
  1  2  1  0
  2  3  1  0
  3  4  1  0
  4  5  1  0
  5  6  1  0
  6  7  1  0
  7  8  1  0
  8  9  2  0
  9 10  1  0
 10 11  2  0
 11 12  1  0
 12 13  2  0
 13 14  1  0
 14 15  2  0
 15 16  1  0
 15 17  1  0
 17 18  2  0
 18 19  1  0
 19 20  1  0
 20 21  2  0
 21 22  1  0
 22 23  2  0
 23 24  1  0
 24 25  2  0
 18  8  1  0
 25 20  1  0
 14  9  1  0
 25 17  1  0
  1 26  1  0
  1 27  1  0
  1 28  1  0
  2 29  1  0
  2 30  1  0
  3 31  1  0
  3 32  1  0
  4 33  1  0
  4 34  1  0
  5 35  1  0
  5 36  1  0
  6 37  1  0
  6 38  1  0
  7 39  1  0
 10 40  1  0
 11 41  1  0
 12 42  1  0
 13 43  1  0
 16 44  1  0
 16 45  1  0
 16 46  1  0
 19 47  1  0
 21 48  1  0
 22 49  1  0
 23 50  1  0
 24 51  1  0
M  CHG  2   3   1  15   1
M  END
>  <UniqueID>  (4) 
4

>  <SMILES>  (4) 
CC[NH2+]CCCNc1c2ccccc2[n+](C)c2c1[nH]c1ccccc12

>  <Energy>  (4) 
108.97083974392336

>  <Genealogy>  (4) 
CC[NH2+]CCCNc1c2ccccc2[n+](C)c2c1[nH]c1ccccc12 (protonated)
CC[NH2+]CCCNc1c2ccccc2[n+](C)c2c1[nH]c1ccccc12 (3D coordinates assigned)
CC[NH2+]CCCNc1c2ccccc2[n+](C)c2c1[nH]c1ccccc12 (optimized conformer: 108.97083974392336 kcal/mol)

>  <smiles>  (4) 
CCNCCCNc1c2ccccc2[n+](C)c2c1[nH]c1ccccc12

>  <score_type>  (4) 
oracle

>  <origin>  (4) 
adg

>  <m_score__min__energy>  (4) 
-7.9500000000000002

>  <m_primary>  (4) 
energy

$$$$
4:0
     RDKit          3D

 60 63  0  0  0  0  0  0  0  0999 V2000
   -0.7130   19.4020  -29.5300 C   0  0  0  0  0  0  0  0  0  0  0  0
   -1.4440   20.7100  -29.4720 C   0  0  0  0  0  0  0  0  0  0  0  0
   -0.9030   21.8470  -30.0920 C   0  0  0  0  0  0  0  0  0  0  0  0
   -1.6000   23.0580  -30.0710 C   0  0  0  0  0  0  0  0  0  0  0  0
   -2.8530   23.1440  -29.4470 C   0  0  0  0  0  0  0  0  0  0  0  0
   -3.6010   24.4520  -29.4040 C   0  0  0  0  0  0  0  0  0  0  0  0
   -4.4040   24.6420  -30.6320 N   0  0  0  0  0  0  0  0  0  0  0  0
   -4.6180   23.3510  -31.3390 C   0  0  0  0  0  0  0  0  0  0  0  0
   -5.8240   23.4060  -32.2870 C   0  0  0  0  0  0  0  0  0  0  0  0
   -7.1400   23.6900  -31.5170 C   0  0  0  0  0  0  0  0  0  0  0  0
   -7.9280   22.3920  -31.2230 C   0  0  0  0  0  0  0  0  0  0  0  0
   -7.0530   21.1930  -31.1810 N   0  0  0  0  0  0  0  0  0  0  0  0
   -7.5810   20.0620  -31.9730 C   0  0  0  0  0  0  0  0  0  0  0  0
   -6.8850   19.8470  -33.3500 C   0  0  2  0  0  0  0  0  0  0  0  0
   -6.4700   18.3830  -33.6100 C   0  0  0  0  0  0  0  0  0  0  0  0
   -5.2020   17.9940  -32.8420 C   0  0  0  0  0  0  0  0  0  0  0  0
   -4.1160   19.0250  -33.0120 C   0  0  0  0  0  0  0  0  0  0  0  0
   -2.7740   18.6780  -32.7900 C   0  0  0  0  0  0  0  0  0  0  0  0
   -1.7690   19.6430  -32.9150 C   0  0  0  0  0  0  0  0  0  0  0  0
   -2.0990   20.9590  -33.2500 C   0  0  0  0  0  0  0  0  0  0  0  0
   -3.4340   21.3150  -33.4600 C   0  0  0  0  0  0  0  0  0  0  0  0
   -4.4450   20.3560  -33.3360 C   0  0  0  0  0  0  0  0  0  0  0  0
   -5.7780   20.7340  -33.5460 O   0  0  0  0  0  0  0  0  0  0  0  0
   -6.8730   24.4620  -30.2040 C   0  0  0  0  0  0  0  0  0  0  0  0
   -5.6600   25.3890  -30.3490 C   0  0  0  0  0  0  0  0  0  0  0  0
   -3.3970   22.0050  -28.8340 C   0  0  0  0  0  0  0  0  0  0  0  0
   -2.7000   20.7930  -28.8550 C   0  0  0  0  0  0  0  0  0  0  0  0
   -0.5147   19.0472  -28.5079 H   0  0  0  0  0  0  0  0  0  0  0  0
   -1.3281   18.6615  -30.0623 H   0  0  0  0  0  0  0  0  0  0  0  0
    0.2400   19.5378  -30.0623 H   0  0  0  0  0  0  0  0  0  0  0  0
    0.0727   21.7847  -30.5960 H   0  0  0  0  0  0  0  0  0  0  0  0
   -1.1635   23.9487  -30.5465 H   0  0  0  0  0  0  0  0  0  0  0  0
   -4.2710   24.4551  -28.5316 H   0  0  0  0  0  0  0  0  0  0  0  0
   -2.8712   25.2718  -29.3312 H   0  0  0  0  0  0  0  0  0  0  0  0
   -3.7173   23.1132  -31.9240 H   0  0  0  0  0  0  0  0  0  0  0  0
   -4.8169   22.5784  -30.5816 H   0  0  0  0  0  0  0  0  0  0  0  0
   -5.6622   24.2053  -33.0252 H   0  0  0  0  0  0  0  0  0  0  0  0
   -5.9182   22.4285  -32.7825 H   0  0  0  0  0  0  0  0  0  0  0  0
   -7.7578   24.3216  -32.1723 H   0  0  0  0  0  0  0  0  0  0  0  0
   -8.4299   22.4967  -30.2498 H   0  0  0  0  0  0  0  0  0  0  0  0
   -8.6525   22.2488  -32.0382 H   0  0  0  0  0  0  0  0  0  0  0  0
   -6.9410   20.8530  -30.1970 H   0  0  0  0  0  0  0  0  0  0  0  0
   -6.0940   21.4480  -31.5050 H   0  0  0  0  0  0  0  0  0  0  0  0
   -7.4589   19.1431  -31.3808 H   0  0  0  0  0  0  0  0  0  0  0  0
   -8.6322   20.3013  -32.1916 H   0  0  0  0  0  0  0  0  0  0  0  0
   -7.6536   20.0936  -34.0973 H   0  0  0  0  0  0  0  0  0  0  0  0
   -7.2908   17.7213  -33.2963 H   0  0  0  0  0  0  0  0  0  0  0  0
   -6.2587   18.2783  -34.6844 H   0  0  0  0  0  0  0  0  0  0  0  0
   -5.4450   17.9036  -31.7730 H   0  0  0  0  0  0  0  0  0  0  0  0
   -4.8356   17.0371  -33.2422 H   0  0  0  0  0  0  0  0  0  0  0  0
   -2.5121   17.6450  -32.5172 H   0  0  0  0  0  0  0  0  0  0  0  0
   -0.7175   19.3656  -32.7494 H   0  0  0  0  0  0  0  0  0  0  0  0
   -1.3068   21.7158  -33.3485 H   0  0  0  0  0  0  0  0  0  0  0  0
   -3.6905   22.3517  -33.7234 H   0  0  0  0  0  0  0  0  0  0  0  0
   -7.7587   25.0648  -29.9545 H   0  0  0  0  0  0  0  0  0  0  0  0
   -6.6649   23.7345  -29.4056 H   0  0  0  0  0  0  0  0  0  0  0  0
   -5.8480   26.0896  -31.1759 H   0  0  0  0  0  0  0  0  0  0  0  0
   -5.5269   25.9181  -29.3939 H   0  0  0  0  0  0  0  0  0  0  0  0
   -4.3754   22.0658  -28.3351 H   0  0  0  0  0  0  0  0  0  0  0  0
   -3.1393   19.9006  -28.3852 H   0  0  0  0  0  0  0  0  0  0  0  0
  1  2  1  0
  2  3  2  0
  3  4  1  0
  4  5  2  0
  5  6  1  0
  6  7  1  0
  7  8  1  0
  8  9  1  0
  9 10  1  0
 10 11  1  0
 11 12  1  0
 12 13  1  0
 13 14  1  0
 14 15  1  0
 15 16  1  0
 16 17  1  0
 17 18  2  0
 18 19  1  0
 19 20  2  0
 20 21  1  0
 21 22  2  0
 22 23  1  0
 10 24  1  0
 24 25  1  0
  5 26  1  0
 26 27  2  0
 27  2  1  0
 25  7  1  0
 23 14  1  0
 22 17  1  0
  1 28  1  0
  1 29  1  0
  1 30  1  0
  3 31  1  0
  4 32  1  0
  6 33  1  0
  6 34  1  0
  8 35  1  0
  8 36  1  0
  9 37  1  0
  9 38  1  0
 10 39  1  0
 11 40  1  0
 11 41  1  0
 12 42  1  0
 12 43  1  0
 13 44  1  0
 13 45  1  0
 14 46  1  6
 15 47  1  0
 15 48  1  0
 16 49  1  0
 16 50  1  0
 18 51  1  0
 19 52  1  0
 20 53  1  0
 21 54  1  0
 24 55  1  0
 24 56  1  0
 25 57  1  0
 25 58  1  0
 26 59  1  0
 27 60  1  0
M  CHG  1  12   1
M  END
>  <UniqueID>  (5) 
5

>  <SMILES>  (5) 
Cc1ccc(CN2CCC(C[NH2+]C[C@@H]3CCc4ccccc4O3)CC2)cc1

>  <Energy>  (5) 
75.50452634480595

>  <Genealogy>  (5) 
Cc1ccc(CN2CCC(C[NH2+]CC3CCc4ccccc4O3)CC2)cc1 (protonated)
Cc1ccc(CN2CCC(C[NH2+]C[C@@H]3CCc4ccccc4O3)CC2)cc1 (chirality)
Cc1ccc(CN2CCC(C[NH2+]C[C@@H]3CCc4ccccc4O3)CC2)cc1 (3D coordinates assigned)
Cc1ccc(CN2CCC(C[NH2+]C[C@@H]3CCc4ccccc4O3)CC2)cc1 (nonaromatic ring conformer: 75.50452634480595 kcal/mol)

>  <smiles>  (5) 
Cc1ccc(CN2CCC(CNCC3CCc4ccccc4O3)CC2)cc1

>  <score_type>  (5) 
oracle

>  <origin>  (5) 
adg

>  <m_score__min__energy>  (5) 
-9.0099999999999998

>  <m_primary>  (5) 
energy

$$$$
5:0
     RDKit          3D

 61 64  0  0  0  0  0  0  0  0999 V2000
   -8.0070   18.2490  -32.0690 C   0  0  0  0  0  0  0  0  0  0  0  0
   -6.8410   19.2160  -31.9000 C   0  0  0  0  0  0  0  0  0  0  0  0
   -7.2850   20.5930  -32.2380 N   0  0  0  0  0  0  0  0  0  0  0  0
   -8.7620   20.6940  -32.3040 C   0  0  0  0  0  0  0  0  0  0  0  0
   -9.3030   21.5870  -31.1880 C   0  0  0  0  0  0  0  0  0  0  0  0
   -6.7390   21.5950  -31.2940 C   0  0  0  0  0  0  0  0  0  0  0  0
   -6.3420   22.8820  -32.0310 C   0  0  0  0  0  0  0  0  0  0  0  0
   -5.0710   22.7050  -32.7330 N   0  0  0  0  0  0  0  0  0  0  0  0
   -3.9270   22.1160  -32.0920 C   0  0  0  0  0  0  0  0  0  0  0  0
   -3.4240   20.8800  -32.5290 C   0  0  0  0  0  0  0  0  0  0  0  0
   -4.1000   20.1330  -33.5170 C   0  0  0  0  0  0  0  0  0  0  0  0
   -3.6210   18.8900  -33.9220 C   0  0  0  0  0  0  0  0  0  0  0  0
   -2.4760   18.3610  -33.3350 C   0  0  0  0  0  0  0  0  0  0  0  0
   -1.7950   19.0780  -32.3520 C   0  0  0  0  0  0  0  0  0  0  0  0
   -2.2370   20.3630  -31.9440 C   0  0  0  0  0  0  0  0  0  0  0  0
   -1.5580   21.0980  -30.9890 N   0  0  0  0  0  0  0  0  0  0  0  0
   -0.1840   20.7130  -30.5980 C   0  0  0  0  0  0  0  0  0  0  0  0
   -2.1580   22.2030  -30.4140 C   0  0  0  0  0  0  0  0  0  0  0  0
   -1.6330   22.8160  -29.2470 C   0  0  0  0  0  0  0  0  0  0  0  0
   -2.2120   23.9750  -28.7040 C   0  0  0  0  0  0  0  0  0  0  0  0
   -1.6400   24.6050  -27.4860 C   0  0  0  0  0  0  0  0  0  0  0  0
   -1.4160   25.9910  -27.4350 C   0  0  0  0  0  0  0  0  0  0  0  0
   -0.8770   26.5820  -26.2890 C   0  0  0  0  0  0  0  0  0  0  0  0
   -0.5520   25.8010  -25.1680 C   0  0  0  0  0  0  0  0  0  0  0  0
    0.0020   26.4120  -23.9890 N   0  0  0  0  0  0  0  0  0  0  0  0
    1.2320   26.6060  -23.8880 O   0  0  0  0  0  0  0  0  0  0  0  0
   -0.8160   26.7960  -22.9500 O   0  0  0  0  0  0  0  0  0  0  0  0
   -0.7750   24.4130  -25.2180 C   0  0  0  0  0  0  0  0  0  0  0  0
   -1.3140   23.8220  -26.3660 C   0  0  0  0  0  0  0  0  0  0  0  0
   -3.3390   24.5270  -29.3210 C   0  0  0  0  0  0  0  0  0  0  0  0
   -3.9010   23.9190  -30.4400 C   0  0  0  0  0  0  0  0  0  0  0  0
   -3.3370   22.7490  -30.9850 C   0  0  0  0  0  0  0  0  0  0  0  0
   -8.3760   17.9430  -31.0790 H   0  0  0  0  0  0  0  0  0  0  0  0
   -8.8166   18.7444  -32.6250 H   0  0  0  0  0  0  0  0  0  0  0  0
   -7.6699   17.3617  -32.6250 H   0  0  0  0  0  0  0  0  0  0  0  0
   -6.4910   19.1894  -30.8575 H   0  0  0  0  0  0  0  0  0  0  0  0
   -6.0205   18.9209  -32.5706 H   0  0  0  0  0  0  0  0  0  0  0  0
   -9.0498   21.1201  -33.2764 H   0  0  0  0  0  0  0  0  0  0  0  0
   -9.1868   19.6867  -32.1822 H   0  0  0  0  0  0  0  0  0  0  0  0
   -9.0404   21.1535  -30.2117 H   0  0  0  0  0  0  0  0  0  0  0  0
   -8.8608   22.5905  -31.2745 H   0  0  0  0  0  0  0  0  0  0  0  0
  -10.3972   21.6597  -31.2745 H   0  0  0  0  0  0  0  0  0  0  0  0
   -7.5032   21.8331  -30.5395 H   0  0  0  0  0  0  0  0  0  0  0  0
   -5.8433   21.1742  -30.8137 H   0  0  0  0  0  0  0  0  0  0  0  0
   -7.1250   23.1365  -32.7605 H   0  0  0  0  0  0  0  0  0  0  0  0
   -6.2292   23.6909  -31.2942 H   0  0  0  0  0  0  0  0  0  0  0  0
   -5.0050   22.9660  -33.7430 H   0  0  0  0  0  0  0  0  0  0  0  0
   -5.0160   20.5374  -33.9725 H   0  0  0  0  0  0  0  0  0  0  0  0
   -4.1478   18.3263  -34.7060 H   0  0  0  0  0  0  0  0  0  0  0  0
   -2.1065   17.3732  -33.6476 H   0  0  0  0  0  0  0  0  0  0  0  0
   -0.9004   18.6402  -31.8851 H   0  0  0  0  0  0  0  0  0  0  0  0
   -0.1074   20.6915  -29.5009 H   0  0  0  0  0  0  0  0  0  0  0  0
    0.0461   19.7158  -31.0012 H   0  0  0  0  0  0  0  0  0  0  0  0
    0.5308   21.4454  -31.0012 H   0  0  0  0  0  0  0  0  0  0  0  0
   -0.7532   22.3739  -28.7566 H   0  0  0  0  0  0  0  0  0  0  0  0
   -1.6670   26.6163  -28.3045 H   0  0  0  0  0  0  0  0  0  0  0  0
   -0.7058   27.6683  -26.2648 H   0  0  0  0  0  0  0  0  0  0  0  0
   -0.5239   23.7878  -24.3485 H   0  0  0  0  0  0  0  0  0  0  0  0
   -1.4839   22.7355  -26.3918 H   0  0  0  0  0  0  0  0  0  0  0  0
   -3.7848   25.4487  -28.9190 H   0  0  0  0  0  0  0  0  0  0  0  0
   -4.7965   24.3576  -30.9043 H   0  0  0  0  0  0  0  0  0  0  0  0
  1  2  1  0
  2  3  1  0
  3  4  1  0
  4  5  1  0
  3  6  1  0
  6  7  1  0
  7  8  1  0
  8  9  1  0
  9 10  2  0
 10 11  1  0
 11 12  2  0
 12 13  1  0
 13 14  2  0
 14 15  1  0
 15 16  2  0
 16 17  1  0
 16 18  1  0
 18 19  2  0
 19 20  1  0
 20 21  1  0
 21 22  2  0
 22 23  1  0
 23 24  2  0
 24 25  1  0
 25 26  2  0
 25 27  1  0
 24 28  1  0
 28 29  2  0
 20 30  2  0
 30 31  1  0
 31 32  2  0
 32  9  1  0
 15 10  1  0
 32 18  1  0
 29 21  1  0
  1 33  1  0
  1 34  1  0
  1 35  1  0
  2 36  1  0
  2 37  1  0
  4 38  1  0
  4 39  1  0
  5 40  1  0
  5 41  1  0
  5 42  1  0
  6 43  1  0
  6 44  1  0
  7 45  1  0
  7 46  1  0
  8 47  1  0
 11 48  1  0
 12 49  1  0
 13 50  1  0
 14 51  1  0
 17 52  1  0
 17 53  1  0
 17 54  1  0
 19 55  1  0
 22 56  1  0
 23 57  1  0
 28 58  1  0
 29 59  1  0
 30 60  1  0
 31 61  1  0
M  CHG  3  16   1  25   1  27  -1
M  END
>  <UniqueID>  (6) 
6

>  <SMILES>  (6) 
CCN(CC)CCNc1c2ccccc2[n+](C)c2cc(-c3ccc([N+](=O)[O-])cc3)ccc12

>  <Energy>  (6) 
95.2733278304394

>  <Genealogy>  (6) 
CCN(CC)CCNc1c2ccccc2[n+](C)c2cc(-c3ccc([N+](=O)[O-])cc3)ccc12 (3D coordinates assigned)
CCN(CC)CCNc1c2ccccc2[n+](C)c2cc(-c3ccc([N+](=O)[O-])cc3)ccc12 (optimized conformer: 95.2733278304394 kcal/mol)

>  <smiles>  (6) 
CCN(CC)CCNc1c2ccccc2[n+](C)c2cc(-c3ccc([N+](=O)[O-])cc3)ccc12

>  <score_type>  (6) 
oracle

>  <origin>  (6) 
adg

>  <m_score__min__energy>  (6) 
-8.6099999999999994

>  <m_primary>  (6) 
energy

$$$$
6:0
     RDKit          3D

 67 70  0  0  0  0  0  0  0  0999 V2000
   -2.8070   24.5240  -29.2860 C   0  0  0  0  0  0  0  0  0  0  0  0
   -4.1920   23.9740  -29.6170 C   0  0  0  0  0  0  0  0  0  0  0  0
   -4.7430   24.6120  -30.8340 N   0  0  0  0  0  0  0  0  0  0  0  0
   -5.7370   25.6450  -30.4760 C   0  0  0  0  0  0  0  0  0  0  0  0
   -5.3540   23.6030  -31.7340 C   0  0  0  0  0  0  0  0  0  0  0  0
   -4.4200   22.4020  -31.9200 C   0  0  0  0  0  0  0  0  0  0  0  0
   -4.7730   21.6400  -33.1190 N   0  0  0  0  0  0  0  0  0  0  0  0
   -5.1350   20.2520  -33.0270 C   0  0  0  0  0  0  0  0  0  0  0  0
   -6.4360   19.9060  -32.6290 C   0  0  0  0  0  0  0  0  0  0  0  0
   -7.2840   20.8470  -32.0010 C   0  0  0  0  0  0  0  0  0  0  0  0
   -8.5430   20.4710  -31.5380 C   0  0  0  0  0  0  0  0  0  0  0  0
   -8.9770   19.1590  -31.6890 C   0  0  0  0  0  0  0  0  0  0  0  0
   -8.1740   18.2260  -32.3440 C   0  0  0  0  0  0  0  0  0  0  0  0
   -6.9070   18.5910  -32.8670 C   0  0  0  0  0  0  0  0  0  0  0  0
   -6.1450   17.7160  -33.6140 N   0  0  0  0  0  0  0  0  0  0  0  0
   -6.7720   16.5080  -34.1980 C   0  0  0  0  0  0  0  0  0  0  0  0
   -4.8030   17.9760  -33.8240 C   0  0  0  0  0  0  0  0  0  0  0  0
   -3.9470   17.0030  -34.3940 C   0  0  0  0  0  0  0  0  0  0  0  0
   -2.6030   17.2700  -34.6130 C   0  0  0  0  0  0  0  0  0  0  0  0
   -2.0440   18.4590  -34.1710 C   0  0  0  0  0  0  0  0  0  0  0  0
   -2.8250   19.4170  -33.5030 C   0  0  0  0  0  0  0  0  0  0  0  0
   -2.1640   20.4580  -32.7420 N   0  0  0  0  0  0  0  0  0  0  0  0
   -1.9050   20.3720  -31.3000 C   0  0  0  0  0  0  0  0  0  0  0  0
   -1.3630   21.7000  -30.7390 C   0  0  0  0  0  0  0  0  0  0  0  0
   -0.5770   21.5280  -29.4240 C   0  0  0  0  0  0  0  0  0  0  0  0
   -1.2380   20.5890  -28.5050 N   0  0  0  0  0  0  0  0  0  0  0  0
   -2.4910   20.8680  -28.0280 C   0  0  0  0  0  0  0  0  0  0  0  0
   -3.1020   20.0220  -27.1000 C   0  0  0  0  0  0  0  0  0  0  0  0
   -2.4300   18.8810  -26.6690 C   0  0  0  0  0  0  0  0  0  0  0  0
   -1.1600   18.5980  -27.1650 C   0  0  0  0  0  0  0  0  0  0  0  0
   -0.5750   19.4660  -28.0920 C   0  0  0  0  0  0  0  0  0  0  0  0
   -4.2450   19.2350  -33.4510 C   0  0  0  0  0  0  0  0  0  0  0  0
   -2.6833   24.5731  -28.1941 H   0  0  0  0  0  0  0  0  0  0  0  0
   -2.0383   23.8629  -29.7127 H   0  0  0  0  0  0  0  0  0  0  0  0
   -2.7013   25.5323  -29.7127 H   0  0  0  0  0  0  0  0  0  0  0  0
   -4.1173   22.8891  -29.7827 H   0  0  0  0  0  0  0  0  0  0  0  0
   -4.8644   24.1915  -28.7741 H   0  0  0  0  0  0  0  0  0  0  0  0
   -5.8094   25.7203  -29.3810 H   0  0  0  0  0  0  0  0  0  0  0  0
   -5.4236   26.6146  -30.8903 H   0  0  0  0  0  0  0  0  0  0  0  0
   -6.7180   25.3691  -30.8903 H   0  0  0  0  0  0  0  0  0  0  0  0
   -6.3027   23.2577  -31.2972 H   0  0  0  0  0  0  0  0  0  0  0  0
   -5.5306   24.0673  -32.7155 H   0  0  0  0  0  0  0  0  0  0  0  0
   -3.3853   22.7631  -32.0156 H   0  0  0  0  0  0  0  0  0  0  0  0
   -4.5205   21.7428  -31.0452 H   0  0  0  0  0  0  0  0  0  0  0  0
   -4.6780   22.0770  -34.0640 H   0  0  0  0  0  0  0  0  0  0  0  0
   -6.9463   21.8865  -31.8767 H   0  0  0  0  0  0  0  0  0  0  0  0
   -9.1942   21.2128  -31.0526 H   0  0  0  0  0  0  0  0  0  0  0  0
   -9.9566   18.8560  -31.2907 H   0  0  0  0  0  0  0  0  0  0  0  0
   -8.5286   17.1909  -32.4569 H   0  0  0  0  0  0  0  0  0  0  0  0
   -7.1156   15.8460  -33.3895 H   0  0  0  0  0  0  0  0  0  0  0  0
   -7.6302   16.8042  -34.8191 H   0  0  0  0  0  0  0  0  0  0  0  0
   -6.0359   15.9767  -34.8191 H   0  0  0  0  0  0  0  0  0  0  0  0
   -4.3543   16.0186  -34.6679 H   0  0  0  0  0  0  0  0  0  0  0  0
   -1.9779   16.5342  -35.1401 H   0  0  0  0  0  0  0  0  0  0  0  0
   -0.9757   18.6549  -34.3454 H   0  0  0  0  0  0  0  0  0  0  0  0
   -2.0630   21.4030  -33.1580 H   0  0  0  0  0  0  0  0  0  0  0  0
   -2.8437   20.1233  -30.7833 H   0  0  0  0  0  0  0  0  0  0  0  0
   -1.1456   19.5938  -31.1336 H   0  0  0  0  0  0  0  0  0  0  0  0
   -0.6957   22.1499  -31.4889 H   0  0  0  0  0  0  0  0  0  0  0  0
   -2.2301   22.3406  -30.5202 H   0  0  0  0  0  0  0  0  0  0  0  0
    0.4280   21.1472  -29.6583 H   0  0  0  0  0  0  0  0  0  0  0  0
   -0.5258   22.5087  -28.9284 H   0  0  0  0  0  0  0  0  0  0  0  0
   -3.0206   21.7660  -28.3788 H   0  0  0  0  0  0  0  0  0  0  0  0
   -4.1050   20.2548  -26.7130 H   0  0  0  0  0  0  0  0  0  0  0  0
   -2.9007   18.2057  -25.9394 H   0  0  0  0  0  0  0  0  0  0  0  0
   -0.6215   17.6991  -26.8303 H   0  0  0  0  0  0  0  0  0  0  0  0
    0.4254   19.2443  -28.4920 H   0  0  0  0  0  0  0  0  0  0  0  0
  1  2  1  0
  2  3  1  0
  3  4  1  0
  3  5  1  0
  5  6  1  0
  6  7  1  0
  7  8  1  0
  8  9  2  0
  9 10  1  0
 10 11  2  0
 11 12  1  0
 12 13  2  0
 13 14  1  0
 14 15  2  0
 15 16  1  0
 15 17  1  0
 17 18  2  0
 18 19  1  0
 19 20  2  0
 20 21  1  0
 21 22  1  0
 22 23  1  0
 23 24  1  0
 24 25  1  0
 25 26  1  0
 26 27  2  0
 27 28  1  0
 28 29  2  0
 29 30  1  0
 30 31  2  0
 21 32  2  0
 32  8  1  0
 14  9  1  0
 32 17  1  0
 31 26  1  0
  1 33  1  0
  1 34  1  0
  1 35  1  0
  2 36  1  0
  2 37  1  0
  4 38  1  0
  4 39  1  0
  4 40  1  0
  5 41  1  0
  5 42  1  0
  6 43  1  0
  6 44  1  0
  7 45  1  0
 10 46  1  0
 11 47  1  0
 12 48  1  0
 13 49  1  0
 16 50  1  0
 16 51  1  0
 16 52  1  0
 18 53  1  0
 19 54  1  0
 20 55  1  0
 22 56  1  0
 23 57  1  0
 23 58  1  0
 24 59  1  0
 24 60  1  0
 25 61  1  0
 25 62  1  0
 27 63  1  0
 28 64  1  0
 29 65  1  0
 30 66  1  0
 31 67  1  0
M  CHG  2  15   1  26   1
M  END
>  <UniqueID>  (7) 
7

>  <SMILES>  (7) 
CCN(C)CCNc1c2ccccc2[n+](C)c2cccc(NCCC[n+]3ccccc3)c12

>  <Energy>  (7) 
96.57196739798194

>  <Genealogy>  (7) 
CCN(C)CCNc1c2ccccc2[n+](C)c2cccc(NCCC[n+]3ccccc3)c12 (3D coordinates assigned)
CCN(C)CCNc1c2ccccc2[n+](C)c2cccc(NCCC[n+]3ccccc3)c12 (optimized conformer: 96.57196739798194 kcal/mol)

>  <smiles>  (7) 
CCN(C)CCNc1c2ccccc2[n+](C)c2cccc(NCCC[n+]3ccccc3)c12

>  <score_type>  (7) 
oracle

>  <origin>  (7) 
adg

>  <m_score__min__energy>  (7) 
-8.75

>  <m_primary>  (7) 
energy

$$$$
7:0
     RDKit          3D

 42 44  0  0  1  0  0  0  0  0999 V2000
   -3.0710   24.9160  -26.7190 C   0  0  0  0  0  0  0  0  0  0  0  0
   -1.9100   25.2990  -27.5750 C   0  0  0  0  0  0  0  0  0  0  0  0
   -2.1200   25.2840  -28.9440 O   0  0  0  0  0  0  0  0  0  0  0  0
   -2.3910   24.1490  -29.6890 C   0  0  0  0  0  0  0  0  0  0  0  0
   -1.5440   23.0910  -29.5670 C   0  0  0  0  0  0  0  0  0  0  0  0
   -1.8140   21.9680  -30.3070 C   0  0  0  0  0  0  0  0  0  0  0  0
   -0.9800   20.9230  -30.1890 N   0  0  0  0  0  0  0  0  0  0  0  0
   -1.1970   19.7980  -30.8910 C   0  0  0  0  0  0  0  0  0  0  0  0
   -2.2710   19.7870  -31.6960 N   0  0  0  0  0  0  0  0  0  0  0  0
   -3.1280   20.8150  -31.8390 C   0  0  0  0  0  0  0  0  0  0  0  0
   -4.0860   20.7060  -32.6070 N   0  0  0  0  0  0  0  0  0  0  0  0
   -5.3500   20.2110  -32.5020 C   0  0  0  0  0  0  0  0  0  0  0  0
   -5.6770   18.8910  -32.9050 C   0  0  0  0  0  0  0  0  0  0  0  0
   -7.0000   18.5090  -32.8880 C   0  0  0  0  0  0  0  0  0  0  0  0
   -8.0110   19.3860  -32.4880 C   0  0  0  0  0  0  0  0  0  0  0  0
   -7.7050   20.6550  -32.1000 C   0  0  0  0  0  0  0  0  0  0  0  0
   -9.0790   21.8740  -31.5480 Br  0  0  0  0  0  0  0  0  0  0  0  0
   -6.4010   21.0750  -32.1020 C   0  0  0  0  0  0  0  0  0  0  0  0
   -2.9260   21.9730  -31.1310 C   0  0  0  0  0  0  0  0  0  0  0  0
   -3.7650   23.0470  -31.2370 C   0  0  0  0  0  0  0  0  0  0  0  0
   -3.5010   24.2030  -30.4870 C   0  0  0  0  0  0  0  0  0  0  0  0
   -4.2560   25.3310  -30.5040 O   0  0  0  0  0  0  0  0  0  0  0  0
   -5.5670   25.5920  -30.1990 C   0  0  0  0  0  0  0  0  0  0  0  0
   -6.4940   24.4260  -30.0830 C   0  0  0  0  0  0  0  0  0  0  0  0
   -2.7913   25.0083  -25.6592 H   0  0  0  0  0  0  0  0  0  0  0  0
   -3.9201   25.5817  -26.9335 H   0  0  0  0  0  0  0  0  0  0  0  0
   -3.3573   23.8758  -26.9335 H   0  0  0  0  0  0  0  0  0  0  0  0
   -1.6099   26.3193  -27.2941 H   0  0  0  0  0  0  0  0  0  0  0  0
   -1.1453   24.5304  -27.3893 H   0  0  0  0  0  0  0  0  0  0  0  0
   -0.6722   23.1348  -28.8976 H   0  0  0  0  0  0  0  0  0  0  0  0
   -0.1360   20.9470  -29.5510 H   0  0  0  0  0  0  0  0  0  0  0  0
   -0.5275   18.9290  -30.8100 H   0  0  0  0  0  0  0  0  0  0  0  0
   -4.8924   18.1890  -33.2236 H   0  0  0  0  0  0  0  0  0  0  0  0
   -7.2673   17.4877  -33.1971 H   0  0  0  0  0  0  0  0  0  0  0  0
   -9.0585   19.0502  -32.4864 H   0  0  0  0  0  0  0  0  0  0  0  0
   -6.1647   22.1022  -31.7873 H   0  0  0  0  0  0  0  0  0  0  0  0
   -4.6388   23.0053  -31.9039 H   0  0  0  0  0  0  0  0  0  0  0  0
   -5.5818   26.1217  -29.2351 H   0  0  0  0  0  0  0  0  0  0  0  0
   -5.9453   26.1662  -31.0576 H   0  0  0  0  0  0  0  0  0  0  0  0
   -6.6714   24.2029  -29.0206 H   0  0  0  0  0  0  0  0  0  0  0  0
   -7.4496   24.6673  -30.5715 H   0  0  0  0  0  0  0  0  0  0  0  0
   -6.0435   23.5494  -30.5715 H   0  0  0  0  0  0  0  0  0  0  0  0
  1  2  1  0
  2  3  1  0
  3  4  1  0
  4  5  2  0
  5  6  1  0
  6  7  1  0
  7  8  1  0
  8  9  2  0
  9 10  1  0
 10 11  2  0
 11 12  1  0
 12 13  2  0
 13 14  1  0
 14 15  2  0
 15 16  1  0
 16 17  1  0
 16 18  2  0
 10 19  1  0
 19 20  1  0
 20 21  2  0
 21 22  1  0
 22 23  1  0
 23 24  1  0
 21  4  1  0
 19  6  2  0
 18 12  1  0
  1 25  1  0
  1 26  1  0
  1 27  1  0
  2 28  1  0
  2 29  1  0
  5 30  1  0
  7 31  1  0
  8 32  1  0
 13 33  1  0
 14 34  1  0
 15 35  1  0
 18 36  1  0
 20 37  1  0
 23 38  1  0
 23 39  1  0
 24 40  1  0
 24 41  1  0
 24 42  1  0
M  END
>  <smiles>  (8) 
CCOc1cc2[nH]cnc(=Nc3cccc(Br)c3)c2cc1OCC

>  <score_type>  (8) 
oracle

>  <origin>  (8) 
adg

>  <m_score__min__energy>  (8) 
-8.6999999999999993

>  <m_primary>  (8) 
energy

$$$$
8:0
     RDKit          3D

 46 48  0  0  0  0  0  0  0  0999 V2000
   -5.6770   15.3690  -33.8450 C   0  0  0  0  0  0  0  0  0  0  0  0
   -6.6000   16.5820  -33.9380 C   0  0  0  0  0  0  0  0  0  0  0  0
   -5.9610   17.7680  -33.3290 N   0  0  0  0  0  0  0  0  0  0  0  0
   -5.9240   18.9300  -34.2570 C   0  0  0  0  0  0  0  0  0  0  0  0
   -6.8860   20.0520  -33.8420 C   0  0  0  0  0  0  0  0  0  0  0  0
   -6.5640   20.5530  -32.4880 N   0  0  0  0  0  0  0  0  0  0  0  0
   -7.6630   21.3950  -31.9690 C   0  0  0  0  0  0  0  0  0  0  0  0
   -7.0990   22.6180  -31.2370 C   0  0  0  0  0  0  0  0  0  0  0  0
   -5.9980   23.2990  -32.0590 C   0  0  0  0  0  0  0  0  0  0  0  0
   -4.7950   23.5220  -31.2260 N   0  0  0  0  0  0  0  0  0  0  0  0
   -4.6310   24.6810  -30.4950 C   0  0  0  0  0  0  0  0  0  0  0  0
   -5.7480   25.8880  -30.4940 S   0  0  0  0  0  0  0  0  0  0  0  0
   -3.5130   24.8670  -29.7480 N   0  0  0  0  0  0  0  0  0  0  0  0
   -2.5260   23.9440  -29.6990 C   0  0  0  0  0  0  0  0  0  0  0  0
   -1.3900   24.1740  -28.9120 C   0  0  0  0  0  0  0  0  0  0  0  0
   -0.3650   23.2240  -28.8680 C   0  0  0  0  0  0  0  0  0  0  0  0
   -0.4710   22.0450  -29.6110 C   0  0  0  0  0  0  0  0  0  0  0  0
   -1.6010   21.8100  -30.4000 C   0  0  0  0  0  0  0  0  0  0  0  0
   -2.6400   22.7610  -30.4480 C   0  0  0  0  0  0  0  0  0  0  0  0
   -3.7970   22.5740  -31.2230 C   0  0  0  0  0  0  0  0  0  0  0  0
   -3.9120   21.5270  -31.9210 O   0  0  0  0  0  0  0  0  0  0  0  0
   -6.1750   19.4780  -31.5360 C   0  0  0  0  0  0  0  0  0  0  0  0
   -6.5810   18.0790  -32.0230 C   0  0  0  0  0  0  0  0  0  0  0  0
   -5.4936   15.1280  -32.7875 H   0  0  0  0  0  0  0  0  0  0  0  0
   -6.1510   14.5087  -34.3403 H   0  0  0  0  0  0  0  0  0  0  0  0
   -4.7215   15.5965  -34.3403 H   0  0  0  0  0  0  0  0  0  0  0  0
   -6.8171   16.7912  -34.9959 H   0  0  0  0  0  0  0  0  0  0  0  0
   -7.5313   16.3623  -33.3955 H   0  0  0  0  0  0  0  0  0  0  0  0
   -4.9007   19.3330  -34.2753 H   0  0  0  0  0  0  0  0  0  0  0  0
   -6.2390   18.5728  -35.2486 H   0  0  0  0  0  0  0  0  0  0  0  0
   -6.8038   20.8804  -34.5610 H   0  0  0  0  0  0  0  0  0  0  0  0
   -7.9098   19.6499  -33.8324 H   0  0  0  0  0  0  0  0  0  0  0  0
   -8.2890   21.7318  -32.8084 H   0  0  0  0  0  0  0  0  0  0  0  0
   -8.2639   20.8025  -31.2634 H   0  0  0  0  0  0  0  0  0  0  0  0
   -7.9124   23.3375  -31.0615 H   0  0  0  0  0  0  0  0  0  0  0  0
   -6.6643   22.2828  -30.2837 H   0  0  0  0  0  0  0  0  0  0  0  0
   -5.7339   22.6576  -32.9127 H   0  0  0  0  0  0  0  0  0  0  0  0
   -6.3693   24.2707  -32.4168 H   0  0  0  0  0  0  0  0  0  0  0  0
   -1.3044   25.1025  -28.3284 H   0  0  0  0  0  0  0  0  0  0  0  0
    0.5255   23.4047  -28.2481 H   0  0  0  0  0  0  0  0  0  0  0  0
    0.3372   21.2996  -29.5749 H   0  0  0  0  0  0  0  0  0  0  0  0
   -1.6793   20.8813  -30.9843 H   0  0  0  0  0  0  0  0  0  0  0  0
   -5.0830   19.5019  -31.4053 H   0  0  0  0  0  0  0  0  0  0  0  0
   -6.7024   19.6661  -30.5892 H   0  0  0  0  0  0  0  0  0  0  0  0
   -6.2545   17.3327  -31.2838 H   0  0  0  0  0  0  0  0  0  0  0  0
   -7.6744   18.0544  -32.1411 H   0  0  0  0  0  0  0  0  0  0  0  0
  1  2  1  0
  2  3  1  0
  3  4  1  0
  4  5  1  0
  5  6  1  0
  6  7  1  0
  7  8  1  0
  8  9  1  0
  9 10  1  0
 10 11  1  0
 11 12  2  0
 11 13  1  0
 13 14  1  0
 14 15  2  0
 15 16  1  0
 16 17  2  0
 17 18  1  0
 18 19  2  0
 19 20  1  0
 20 21  2  0
  6 22  1  0
 22 23  1  0
 23  3  1  0
 20 10  1  0
 19 14  1  0
  1 24  1  0
  1 25  1  0
  1 26  1  0
  2 27  1  0
  2 28  1  0
  4 29  1  0
  4 30  1  0
  5 31  1  0
  5 32  1  0
  7 33  1  0
  7 34  1  0
  8 35  1  0
  8 36  1  0
  9 37  1  0
  9 38  1  0
 15 39  1  0
 16 40  1  0
 17 41  1  0
 18 42  1  0
 22 43  1  0
 22 44  1  0
 23 45  1  0
 23 46  1  0
M  CHG  1  13  -1
M  END
>  <UniqueID>  (9) 
8

>  <SMILES>  (9) 
CCN1CCN(CCCn2c(=S)[n-]c3ccccc3c2=O)CC1

>  <Energy>  (9) 
64.92746091682754

>  <Genealogy>  (9) 
CCN1CCN(CCCn2c(=S)[n-]c3ccccc3c2=O)CC1 (protonated)
CCN1CCN(CCCn2c(=S)[n-]c3ccccc3c2=O)CC1 (3D coordinates assigned)
CCN1CCN(CCCn2c(=S)[n-]c3ccccc3c2=O)CC1 (nonaromatic ring conformer: 64.92746091682754 kcal/mol)

>  <smiles>  (9) 
CCN1CCN(CCCn2c(=S)[nH]c3ccccc3c2=O)CC1

>  <score_type>  (9) 
oracle

>  <origin>  (9) 
adg

>  <m_score__min__energy>  (9) 
-8.9000000000000004

>  <m_primary>  (9) 
energy

$$$$
9:0
     RDKit          3D

 63 65  0  0  0  0  0  0  0  0999 V2000
   -1.1120   18.9870  -32.7630 C   0  0  0  0  0  0  0  0  0  0  0  0
   -1.6990   19.2570  -34.1450 C   0  0  0  0  0  0  0  0  0  0  0  0
   -1.8430   20.7040  -34.3650 N   0  0  0  0  0  0  0  0  0  0  0  0
   -1.8430   21.4690  -33.1050 C   0  0  0  0  0  0  0  0  0  0  0  0
   -3.2590   21.5670  -32.4830 C   0  0  0  0  0  0  0  0  0  0  0  0
   -4.4030   21.2890  -33.3960 N   0  0  0  0  0  0  0  0  0  0  0  0
   -5.5450   20.5780  -32.8320 C   0  0  0  0  0  0  0  0  0  0  0  0
   -5.6990   19.1860  -33.1020 C   0  0  0  0  0  0  0  0  0  0  0  0
   -4.6770   18.4360  -33.7390 C   0  0  0  0  0  0  0  0  0  0  0  0
   -4.8280   17.0760  -33.9910 C   0  0  0  0  0  0  0  0  0  0  0  0
   -6.0050   16.4310  -33.6430 C   0  0  0  0  0  0  0  0  0  0  0  0
   -7.0360   17.1410  -33.0360 C   0  0  0  0  0  0  0  0  0  0  0  0
   -6.9060   18.5240  -32.7420 C   0  0  0  0  0  0  0  0  0  0  0  0
   -7.9450   19.2340  -32.1840 N   0  0  0  0  0  0  0  0  0  0  0  0
   -9.1160   18.5240  -31.6200 C   0  0  0  0  0  0  0  0  0  0  0  0
   -7.8950   20.6090  -32.1440 C   0  0  0  0  0  0  0  0  0  0  0  0
   -9.0830   21.3720  -32.0380 C   0  0  0  0  0  0  0  0  0  0  0  0
   -9.0400   22.7590  -31.9870 C   0  0  0  0  0  0  0  0  0  0  0  0
   -7.8180   23.4090  -31.9160 C   0  0  0  0  0  0  0  0  0  0  0  0
   -6.6230   22.6820  -31.9330 C   0  0  0  0  0  0  0  0  0  0  0  0
   -5.1530   23.5590  -31.3400 S   0  0  0  0  0  0  0  0  0  0  0  0
   -5.5120   23.3960  -29.5410 C   0  0  0  0  0  0  0  0  0  0  0  0
   -4.9230   24.5590  -28.7120 C   0  0  0  0  0  0  0  0  0  0  0  0
   -3.9100   24.1680  -27.6800 N   0  0  0  0  0  0  0  0  0  0  0  0
   -4.2240   24.8040  -26.3760 C   0  0  0  0  0  0  0  0  0  0  0  0
   -3.9760   22.6960  -27.5010 C   0  0  0  0  0  0  0  0  0  0  0  0
   -2.5290   24.5280  -28.0810 C   0  0  0  0  0  0  0  0  0  0  0  0
   -6.6490   21.2900  -32.2670 C   0  0  0  0  0  0  0  0  0  0  0  0
   -1.8244   19.3147  -31.9916 H   0  0  0  0  0  0  0  0  0  0  0  0
   -0.9195   17.9098  -32.6505 H   0  0  0  0  0  0  0  0  0  0  0  0
   -0.1688   19.5418  -32.6505 H   0  0  0  0  0  0  0  0  0  0  0  0
   -1.0302   18.8383  -34.9114 H   0  0  0  0  0  0  0  0  0  0  0  0
   -2.6903   18.7848  -34.2110 H   0  0  0  0  0  0  0  0  0  0  0  0
   -2.7320   20.8780  -34.8890 H   0  0  0  0  0  0  0  0  0  0  0  0
   -1.1741   20.9711  -32.3876 H   0  0  0  0  0  0  0  0  0  0  0  0
   -1.4995   22.4899  -33.3283 H   0  0  0  0  0  0  0  0  0  0  0  0
   -3.3106   20.8473  -31.6527 H   0  0  0  0  0  0  0  0  0  0  0  0
   -3.3741   22.6185  -32.1813 H   0  0  0  0  0  0  0  0  0  0  0  0
   -4.0530   20.7510  -34.2220 H   0  0  0  0  0  0  0  0  0  0  0  0
   -4.7040   22.1740  -33.8560 H   0  0  0  0  0  0  0  0  0  0  0  0
   -3.7465   18.9398  -34.0397 H   0  0  0  0  0  0  0  0  0  0  0  0
   -4.0125   16.5117  -34.4670 H   0  0  0  0  0  0  0  0  0  0  0  0
   -6.1237   15.3566  -33.8471 H   0  0  0  0  0  0  0  0  0  0  0  0
   -7.9704   16.6206  -32.7787 H   0  0  0  0  0  0  0  0  0  0  0  0
   -9.0682   18.5530  -30.5214 H   0  0  0  0  0  0  0  0  0  0  0  0
  -10.0404   19.0138  -31.9598 H   0  0  0  0  0  0  0  0  0  0  0  0
   -9.1091   17.4778  -31.9598 H   0  0  0  0  0  0  0  0  0  0  0  0
  -10.0547   20.8583  -31.9954 H   0  0  0  0  0  0  0  0  0  0  0  0
   -9.9736   23.3405  -32.0029 H   0  0  0  0  0  0  0  0  0  0  0  0
   -7.7875   24.5063  -31.8457 H   0  0  0  0  0  0  0  0  0  0  0  0
   -6.6027   23.3788  -29.3992 H   0  0  0  0  0  0  0  0  0  0  0  0
   -5.0435   22.4647  -29.1899 H   0  0  0  0  0  0  0  0  0  0  0  0
   -4.4430   25.2623  -29.4084 H   0  0  0  0  0  0  0  0  0  0  0  0
   -5.7681   24.9917  -28.1564 H   0  0  0  0  0  0  0  0  0  0  0  0
   -3.8982   24.1442  -25.5584 H   0  0  0  0  0  0  0  0  0  0  0  0
   -3.6979   25.7672  -26.3017 H   0  0  0  0  0  0  0  0  0  0  0  0
   -5.3086   24.9719  -26.3017 H   0  0  0  0  0  0  0  0  0  0  0  0
   -3.9867   22.4573  -26.4273 H   0  0  0  0  0  0  0  0  0  0  0  0
   -4.8923   22.3101  -27.9715 H   0  0  0  0  0  0  0  0  0  0  0  0
   -3.0979   22.2297  -27.9715 H   0  0  0  0  0  0  0  0  0  0  0  0
   -1.9160   24.6878  -27.1818 H   0  0  0  0  0  0  0  0  0  0  0  0
   -2.0966   23.7126  -28.6794 H   0  0  0  0  0  0  0  0  0  0  0  0
   -2.5497   25.4508  -28.6794 H   0  0  0  0  0  0  0  0  0  0  0  0
  1  2  1  0
  2  3  1  0
  3  4  1  0
  4  5  1  0
  5  6  1  0
  6  7  1  0
  7  8  2  0
  8  9  1  0
  9 10  2  0
 10 11  1  0
 11 12  2  0
 12 13  1  0
 13 14  2  0
 14 15  1  0
 14 16  1  0
 16 17  2  0
 17 18  1  0
 18 19  2  0
 19 20  1  0
 20 21  1  0
 21 22  1  0
 22 23  1  0
 23 24  1  0
 24 25  1  0
 24 26  1  0
 24 27  1  0
 20 28  2  0
 28  7  1  0
 13  8  1  0
 28 16  1  0
  1 29  1  0
  1 30  1  0
  1 31  1  0
  2 32  1  0
  2 33  1  0
  3 34  1  0
  4 35  1  0
  4 36  1  0
  5 37  1  0
  5 38  1  0
  6 39  1  0
  6 40  1  0
  9 41  1  0
 10 42  1  0
 11 43  1  0
 12 44  1  0
 15 45  1  0
 15 46  1  0
 15 47  1  0
 17 48  1  0
 18 49  1  0
 19 50  1  0
 22 51  1  0
 22 52  1  0
 23 53  1  0
 23 54  1  0
 25 55  1  0
 25 56  1  0
 25 57  1  0
 26 58  1  0
 26 59  1  0
 26 60  1  0
 27 61  1  0
 27 62  1  0
 27 63  1  0
M  CHG  3   6   1  14   1  24   1
M  END
>  <UniqueID>  (10) 
9

>  <SMILES>  (10) 
CCNCC[NH2+]c1c2ccccc2[n+](C)c2cccc(SCC[N+](C)(C)C)c12

>  <Energy>  (10) 
116.37347591069408

>  <Genealogy>  (10) 
CCNCC[NH2+]c1c2ccccc2[n+](C)c2cccc(SCC[N+](C)(C)C)c12 (protonated)
CCNCC[NH2+]c1c2ccccc2[n+](C)c2cccc(SCC[N+](C)(C)C)c12 (3D coordinates assigned)
CCNCC[NH2+]c1c2ccccc2[n+](C)c2cccc(SCC[N+](C)(C)C)c12 (optimized conformer: 116.37347591069408 kcal/mol)

>  <smiles>  (10) 
CCNCCNc1c2ccccc2[n+](C)c2cccc(SCC[N+](C)(C)C)c12

>  <score_type>  (10) 
oracle

>  <origin>  (10) 
adg

>  <m_score__min__energy>  (10) 
-7.4199999999999999

>  <m_primary>  (10) 
energy

$$$$
10:0
     RDKit          3D

 29 30  0  0  0  0  0  0  0  0999 V2000
   -4.5620   22.9890  -29.0010 C   0  0  0  0  0  0  0  0  0  0  0  0
   -4.3610   22.9850  -30.5150 C   0  0  0  0  0  0  0  0  0  0  0  0
   -5.0010   24.1610  -31.1420 N   0  0  0  0  0  0  0  0  0  0  0  0
   -5.8560   24.8960  -30.1910 C   0  0  0  0  0  0  0  0  0  0  0  0
   -5.7390   23.8000  -32.3730 C   0  0  0  0  0  0  0  0  0  0  0  0
   -6.3820   22.4840  -32.2750 N   0  0  0  0  0  0  0  0  0  0  0  0
   -7.9040   22.1940  -31.6540 S   0  0  0  0  0  0  0  0  0  0  0  0
   -7.9540   20.5470  -31.9060 C   0  0  0  0  0  0  0  0  0  0  0  0
   -8.9570   19.6270  -31.6140 C   0  0  0  0  0  0  0  0  0  0  0  0
   -8.7280   18.2830  -31.9460 C   0  0  0  0  0  0  0  0  0  0  0  0
   -7.5180   17.8950  -32.5550 C   0  0  0  0  0  0  0  0  0  0  0  0
   -6.5210   18.8450  -32.8400 C   0  0  0  0  0  0  0  0  0  0  0  0
   -5.3610   18.4610  -33.4270 F   0  0  0  0  0  0  0  0  0  0  0  0
   -6.7540   20.1860  -32.5040 C   0  0  0  0  0  0  0  0  0  0  0  0
   -5.8940   21.2870  -32.7090 C   0  0  0  0  0  0  0  0  0  0  0  0
   -4.7660   21.1810  -33.2610 O   0  0  0  0  0  0  0  0  0  0  0  0
   -3.5824   22.9695  -28.5010 H   0  0  0  0  0  0  0  0  0  0  0  0
   -5.1063   23.8982  -28.7058 H   0  0  0  0  0  0  0  0  0  0  0  0
   -5.1421   22.1022  -28.7058 H   0  0  0  0  0  0  0  0  0  0  0  0
   -3.2832   23.0037  -30.7340 H   0  0  0  0  0  0  0  0  0  0  0  0
   -4.8243   22.0758  -30.9257 H   0  0  0  0  0  0  0  0  0  0  0  0
   -5.5615   24.6428  -29.1618 H   0  0  0  0  0  0  0  0  0  0  0  0
   -5.7366   25.9777  -30.3510 H   0  0  0  0  0  0  0  0  0  0  0  0
   -6.9076   24.6156  -30.3510 H   0  0  0  0  0  0  0  0  0  0  0  0
   -6.5140   24.5590  -32.5556 H   0  0  0  0  0  0  0  0  0  0  0  0
   -5.0133   23.7578  -33.1986 H   0  0  0  0  0  0  0  0  0  0  0  0
   -9.8975   19.9430  -31.1390 H   0  0  0  0  0  0  0  0  0  0  0  0
   -9.4978   17.5277  -31.7295 H   0  0  0  0  0  0  0  0  0  0  0  0
   -7.3515   16.8380  -32.8101 H   0  0  0  0  0  0  0  0  0  0  0  0
  1  2  1  0
  2  3  1  0
  3  4  1  0
  3  5  1  0
  5  6  1  0
  6  7  1  0
  7  8  1  0
  8  9  2  0
  9 10  1  0
 10 11  2  0
 11 12  1  0
 12 13  1  0
 12 14  2  0
 14 15  1  0
 15 16  2  0
 15  6  1  0
 14  8  1  0
  1 17  1  0
  1 18  1  0
  1 19  1  0
  2 20  1  0
  2 21  1  0
  4 22  1  0
  4 23  1  0
  4 24  1  0
  5 25  1  0
  5 26  1  0
  9 27  1  0
 10 28  1  0
 11 29  1  0
M  END
>  <UniqueID>  (11) 
10

>  <SMILES>  (11) 
CCN(C)Cn1sc2cccc(F)c2c1=O

>  <Energy>  (11) 
69.58879889030727

>  <Genealogy>  (11) 
CCN(C)Cn1sc2cccc(F)c2c1=O (3D coordinates assigned)
CCN(C)Cn1sc2cccc(F)c2c1=O (optimized conformer: 69.58879889030727 kcal/mol)

>  <smiles>  (11) 
CCN(C)Cn1sc2cccc(F)c2c1=O

>  <score_type>  (11) 
oracle

>  <origin>  (11) 
adg

>  <m_score__min__energy>  (11) 
-6.2300000000000004

>  <m_primary>  (11) 
energy

$$$$
11:0
     RDKit          3D

 47 50  0  0  0  0  0  0  0  0999 V2000
   -1.9040   23.7060  -27.1140 C   0  0  0  0  0  0  0  0  0  0  0  0
   -2.1360   25.0750  -27.7460 C   0  0  0  0  0  0  0  0  0  0  0  0
   -2.4170   24.9450  -29.1750 N   0  0  0  0  0  0  0  0  0  0  0  0
   -3.2350   23.9140  -29.7630 C   0  0  0  0  0  0  0  0  0  0  0  0
   -4.5700   23.6770  -29.3310 C   0  0  0  0  0  0  0  0  0  0  0  0
   -5.3510   22.6710  -29.9230 C   0  0  0  0  0  0  0  0  0  0  0  0
   -4.7840   21.9230  -30.9520 C   0  0  0  0  0  0  0  0  0  0  0  0
   -5.2890   20.8850  -31.7100 C   0  0  0  0  0  0  0  0  0  0  0  0
   -4.2720   20.5080  -32.5610 C   0  0  0  0  0  0  0  0  0  0  0  0
   -3.1580   21.2520  -32.3450 N   0  0  0  0  0  0  0  0  0  0  0  0
   -1.8800   21.1600  -33.0500 C   0  0  0  0  0  0  0  0  0  0  0  0
   -3.4920   22.1300  -31.3730 C   0  0  0  0  0  0  0  0  0  0  0  0
   -2.6940   23.1260  -30.8030 C   0  0  0  0  0  0  0  0  0  0  0  0
   -4.3950   19.3330  -33.4740 C   0  0  0  0  0  0  0  0  0  0  0  0
   -5.8820   19.0160  -33.7100 C   0  0  0  0  0  0  0  0  0  0  0  0
   -6.6530   18.9320  -32.4370 N   0  0  2  0  0  0  0  0  0  0  0  0
   -8.0330   18.4400  -32.7350 C   0  0  0  0  0  0  0  0  0  0  0  0
   -9.0940   18.9980  -31.7780 C   0  0  0  0  0  0  0  0  0  0  0  0
   -9.1450   20.5340  -31.8540 C   0  0  0  0  0  0  0  0  0  0  0  0
   -7.7610   21.1640  -32.1040 C   0  0  0  0  0  0  0  0  0  0  0  0
   -6.6370   20.2130  -31.6520 C   0  0  2  0  0  0  0  0  0  0  0  0
   -1.9200   23.8006  -26.0182 H   0  0  0  0  0  0  0  0  0  0  0  0
   -2.6979   23.0151  -27.4341 H   0  0  0  0  0  0  0  0  0  0  0  0
   -0.9268   23.3152  -27.4341 H   0  0  0  0  0  0  0  0  0  0  0  0
   -2.9913   25.5599  -27.2527 H   0  0  0  0  0  0  0  0  0  0  0  0
   -1.2271   25.6813  -27.6186 H   0  0  0  0  0  0  0  0  0  0  0  0
   -1.9960   25.6640  -29.8080 H   0  0  0  0  0  0  0  0  0  0  0  0
   -4.9958   24.2898  -28.5228 H   0  0  0  0  0  0  0  0  0  0  0  0
   -6.3798   22.4795  -29.5841 H   0  0  0  0  0  0  0  0  0  0  0  0
   -1.0609   21.1010  -32.3181 H   0  0  0  0  0  0  0  0  0  0  0  0
   -1.8734   20.2591  -33.6811 H   0  0  0  0  0  0  0  0  0  0  0  0
   -1.7444   22.0507  -33.6811 H   0  0  0  0  0  0  0  0  0  0  0  0
   -1.6660   23.2927  -31.1570 H   0  0  0  0  0  0  0  0  0  0  0  0
   -3.9130   19.5643  -34.4353 H   0  0  0  0  0  0  0  0  0  0  0  0
   -3.9040   18.4617  -33.0161 H   0  0  0  0  0  0  0  0  0  0  0  0
   -6.3176   19.8092  -34.3354 H   0  0  0  0  0  0  0  0  0  0  0  0
   -5.9420   18.0352  -34.2043 H   0  0  0  0  0  0  0  0  0  0  0  0
   -6.1900   18.2040  -31.8430 H   0  0  0  0  0  0  0  0  0  0  0  0
   -8.2963   18.7378  -33.7607 H   0  0  0  0  0  0  0  0  0  0  0  0
   -8.0239   17.3470  -32.6111 H   0  0  0  0  0  0  0  0  0  0  0  0
  -10.0779   18.5905  -32.0533 H   0  0  0  0  0  0  0  0  0  0  0  0
   -8.8316   18.7044  -30.7509 H   0  0  0  0  0  0  0  0  0  0  0  0
   -9.8169   20.8235  -32.6755 H   0  0  0  0  0  0  0  0  0  0  0  0
   -9.5070   20.9026  -30.8829 H   0  0  0  0  0  0  0  0  0  0  0  0
   -7.6478   21.3710  -33.1784 H   0  0  0  0  0  0  0  0  0  0  0  0
   -7.6882   22.0961  -31.5245 H   0  0  0  0  0  0  0  0  0  0  0  0
   -6.8264   19.9536  -30.6000 H   0  0  0  0  0  0  0  0  0  0  0  0
  1  2  1  0
  2  3  1  0
  3  4  1  0
  4  5  2  0
  5  6  1  0
  6  7  2  0
  7  8  1  0
  8  9  2  0
  9 10  1  0
 10 11  1  0
 10 12  1  0
 12 13  2  0
  9 14  1  0
 14 15  1  0
 15 16  1  0
 16 17  1  0
 17 18  1  0
 18 19  1  0
 19 20  1  0
 20 21  1  0
 13  4  1  0
 21 16  1  0
 12  7  1  0
 21  8  1  0
  1 22  1  0
  1 23  1  0
  1 24  1  0
  2 25  1  0
  2 26  1  0
  3 27  1  0
  5 28  1  0
  6 29  1  0
 11 30  1  0
 11 31  1  0
 11 32  1  0
 13 33  1  0
 14 34  1  0
 14 35  1  0
 15 36  1  0
 15 37  1  0
 16 38  1  1
 17 39  1  0
 17 40  1  0
 18 41  1  0
 18 42  1  0
 19 43  1  0
 19 44  1  0
 20 45  1  0
 20 46  1  0
 21 47  1  1
M  CHG  1  16   1
M  END
>  <UniqueID>  (12) 
11

>  <SMILES>  (12) 
CCNc1ccc2c3c(n(C)c2c1)CC[N@@H+]1CCCC[C@H]31

>  <Energy>  (12) 
92.33632780343623

>  <Genealogy>  (12) 
CCNc1ccc2c3c(n(C)c2c1)CC[NH+]1CCCCC31 (protonated)
CCNc1ccc2c3c(n(C)c2c1)CC[N@@H+]1CCCC[C@H]31 (chirality)
CCNc1ccc2c3c(n(C)c2c1)CC[N@@H+]1CCCC[C@H]31 (3D coordinates assigned)
CCNc1ccc2c3c(n(C)c2c1)CC[N@@H+]1CCCC[C@H]31 (nonaromatic ring conformer: 92.33632780343623 kcal/mol)

>  <smiles>  (12) 
CCNc1ccc2c3c(n(C)c2c1)CCN1CCCCC31

>  <score_type>  (12) 
oracle

>  <origin>  (12) 
adg

>  <m_score__min__energy>  (12) 
-7.7999999999999998

>  <m_primary>  (12) 
energy

$$$$
12:0
     RDKit          3D

 53 55  0  0  0  0  0  0  0  0999 V2000
   -1.3660   20.1790  -34.2150 C   0  0  0  0  0  0  0  0  0  0  0  0
   -2.2480   18.9480  -34.0800 C   0  0  0  0  0  0  0  0  0  0  0  0
   -3.6130   19.3270  -34.2400 O   0  0  0  0  0  0  0  0  0  0  0  0
   -4.7220   18.5630  -33.8370 C   0  0  0  0  0  0  0  0  0  0  0  0
   -4.7620   17.1840  -34.0950 C   0  0  0  0  0  0  0  0  0  0  0  0
   -5.8860   16.4370  -33.7760 C   0  0  0  0  0  0  0  0  0  0  0  0
   -6.9850   17.0420  -33.1820 C   0  0  0  0  0  0  0  0  0  0  0  0
   -6.9760   18.4200  -32.8520 C   0  0  0  0  0  0  0  0  0  0  0  0
   -5.8280   19.1930  -33.1930 C   0  0  0  0  0  0  0  0  0  0  0  0
   -5.8370   20.5780  -32.9040 C   0  0  0  0  0  0  0  0  0  0  0  0
   -4.6480   21.3730  -33.0360 N   0  0  0  0  0  0  0  0  0  0  0  0
   -3.5500   21.2730  -32.0750 C   0  0  0  0  0  0  0  0  0  0  0  0
   -3.2130   22.6480  -31.4890 C   0  0  0  0  0  0  0  0  0  0  0  0
   -4.4860   23.4350  -31.1520 C   0  0  0  0  0  0  0  0  0  0  0  0
   -4.1480   24.7440  -30.5520 N   0  0  0  0  0  0  0  0  0  0  0  0
   -5.3450   25.5950  -30.4260 C   0  0  0  0  0  0  0  0  0  0  0  0
   -3.5450   24.5550  -29.2230 C   0  0  0  0  0  0  0  0  0  0  0  0
   -7.0300   21.1910  -32.4870 C   0  0  0  0  0  0  0  0  0  0  0  0
   -7.1160   22.5950  -32.3620 C   0  0  0  0  0  0  0  0  0  0  0  0
   -8.3080   23.2040  -31.9800 C   0  0  0  0  0  0  0  0  0  0  0  0
   -9.4350   22.4300  -31.7300 C   0  0  0  0  0  0  0  0  0  0  0  0
   -9.3700   21.0410  -31.8350 C   0  0  0  0  0  0  0  0  0  0  0  0
   -8.1590   20.3900  -32.1840 C   0  0  0  0  0  0  0  0  0  0  0  0
   -8.0610   19.0140  -32.2340 N   0  0  0  0  0  0  0  0  0  0  0  0
   -9.1110   18.1770  -31.6100 C   0  0  0  0  0  0  0  0  0  0  0  0
   -1.0997   20.5507  -33.2146 H   0  0  0  0  0  0  0  0  0  0  0  0
   -0.4500   19.9154  -34.7641 H   0  0  0  0  0  0  0  0  0  0  0  0
   -1.9102   20.9616  -34.7641 H   0  0  0  0  0  0  0  0  0  0  0  0
   -1.9769   18.2150  -34.8541 H   0  0  0  0  0  0  0  0  0  0  0  0
   -2.1042   18.4986  -33.0863 H   0  0  0  0  0  0  0  0  0  0  0  0
   -3.8930   16.6907  -34.5549 H   0  0  0  0  0  0  0  0  0  0  0  0
   -5.9067   15.3592  -33.9949 H   0  0  0  0  0  0  0  0  0  0  0  0
   -7.8796   16.4405  -32.9634 H   0  0  0  0  0  0  0  0  0  0  0  0
   -4.5770   22.0520  -33.8270 H   0  0  0  0  0  0  0  0  0  0  0  0
   -3.8448   20.5959  -31.2597 H   0  0  0  0  0  0  0  0  0  0  0  0
   -2.6617   20.8835  -32.5938 H   0  0  0  0  0  0  0  0  0  0  0  0
   -2.6220   22.5118  -30.5713 H   0  0  0  0  0  0  0  0  0  0  0  0
   -2.6412   23.2151  -32.2383 H   0  0  0  0  0  0  0  0  0  0  0  0
   -5.0639   23.5986  -32.0735 H   0  0  0  0  0  0  0  0  0  0  0  0
   -5.0782   22.8564  -30.4278 H   0  0  0  0  0  0  0  0  0  0  0  0
   -5.5705   25.7553  -29.3614 H   0  0  0  0  0  0  0  0  0  0  0  0
   -5.1585   26.5644  -30.9113 H   0  0  0  0  0  0  0  0  0  0  0  0
   -6.1993   25.1004  -30.9113 H   0  0  0  0  0  0  0  0  0  0  0  0
   -4.2885   24.7880  -28.4465 H   0  0  0  0  0  0  0  0  0  0  0  0
   -3.2165   23.5108  -29.1145 H   0  0  0  0  0  0  0  0  0  0  0  0
   -2.6793   25.2249  -29.1145 H   0  0  0  0  0  0  0  0  0  0  0  0
   -6.2309   23.2145  -32.5689 H   0  0  0  0  0  0  0  0  0  0  0  0
   -8.3580   24.2979  -31.8760 H   0  0  0  0  0  0  0  0  0  0  0  0
  -10.3814   22.9147  -31.4484 H   0  0  0  0  0  0  0  0  0  0  0  0
  -10.2719   20.4408  -31.6442 H   0  0  0  0  0  0  0  0  0  0  0  0
   -9.0293   18.2422  -30.5150 H   0  0  0  0  0  0  0  0  0  0  0  0
  -10.1017   18.5358  -31.9257 H   0  0  0  0  0  0  0  0  0  0  0  0
   -8.9821   17.1312  -31.9257 H   0  0  0  0  0  0  0  0  0  0  0  0
  1  2  1  0
  2  3  1  0
  3  4  1  0
  4  5  2  0
  5  6  1  0
  6  7  2  0
  7  8  1  0
  8  9  2  0
  9 10  1  0
 10 11  1  0
 11 12  1  0
 12 13  1  0
 13 14  1  0
 14 15  1  0
 15 16  1  0
 15 17  1  0
 10 18  2  0
 18 19  1  0
 19 20  2  0
 20 21  1  0
 21 22  2  0
 22 23  1  0
 23 24  2  0
 24 25  1  0
  9  4  1  0
 23 18  1  0
 24  8  1  0
  1 26  1  0
  1 27  1  0
  1 28  1  0
  2 29  1  0
  2 30  1  0
  5 31  1  0
  6 32  1  0
  7 33  1  0
 11 34  1  0
 12 35  1  0
 12 36  1  0
 13 37  1  0
 13 38  1  0
 14 39  1  0
 14 40  1  0
 16 41  1  0
 16 42  1  0
 16 43  1  0
 17 44  1  0
 17 45  1  0
 17 46  1  0
 19 47  1  0
 20 48  1  0
 21 49  1  0
 22 50  1  0
 25 51  1  0
 25 52  1  0
 25 53  1  0
M  CHG  1  24   1
M  END
>  <UniqueID>  (13) 
12

>  <SMILES>  (13) 
CCOc1cccc2c1c(NCCCN(C)C)c1ccccc1[n+]2C

>  <Energy>  (13) 
76.11343414089163

>  <Genealogy>  (13) 
CCOc1cccc2c1c(NCCCN(C)C)c1ccccc1[n+]2C (3D coordinates assigned)
CCOc1cccc2c1c(NCCCN(C)C)c1ccccc1[n+]2C (optimized conformer: 76.11343414089163 kcal/mol)

>  <smiles>  (13) 
CCOc1cccc2c1c(NCCCN(C)C)c1ccccc1[n+]2C

>  <score_type>  (13) 
oracle

>  <origin>  (13) 
adg

>  <m_score__min__energy>  (13) 
-8.3399999999999999

>  <m_primary>  (13) 
energy

$$$$
13:0
     RDKit          3D

 48 49  0  0  0  0  0  0  0  0999 V2000
   -7.7038   25.5069  -30.0231 H   0  0  0  0  0  0  0  0  0  0  0  0
   -6.8470   24.9160  -30.3790 C   0  0  0  0  0  0  0  0  0  0  0  0
   -5.5540   25.2850  -30.0140 C   0  0  0  0  0  0  0  0  0  0  0  0
   -5.4008   26.1652  -29.3724 H   0  0  0  0  0  0  0  0  0  0  0  0
   -4.4400   24.5440  -30.4570 C   0  0  0  0  0  0  0  0  0  0  0  0
   -3.1320   24.9120  -30.0920 O   0  0  0  0  0  0  0  0  0  0  0  0
   -2.4130   24.3730  -28.9890 C   0  0  0  0  0  0  0  0  0  0  0  0
   -2.8710   24.7164  -28.0497 H   0  0  0  0  0  0  0  0  0  0  0  0
   -2.4448   23.2743  -29.0322 H   0  0  0  0  0  0  0  0  0  0  0  0
   -1.3673   24.7116  -29.0322 H   0  0  0  0  0  0  0  0  0  0  0  0
   -4.6390   23.4120  -31.2820 C   0  0  0  0  0  0  0  0  0  0  0  0
   -3.5140   22.6650  -31.7290 C   0  0  0  0  0  0  0  0  0  0  0  0
   -2.5229   23.0141  -31.4037 H   0  0  0  0  0  0  0  0  0  0  0  0
   -3.5500   21.5190  -32.5500 C   0  0  0  0  0  0  0  0  0  0  0  0
   -2.5950   21.0416  -32.8147 H   0  0  0  0  0  0  0  0  0  0  0  0
   -4.7320   20.9520  -33.0490 C   0  0  0  0  0  0  0  0  0  0  0  0
   -4.7590   19.8940  -33.8070 N   0  0  0  0  0  0  0  0  0  0  0  0
   -3.7780   18.8100  -33.8040 C   0  0  0  0  0  0  0  0  0  0  0  0
   -3.7660   18.3296  -32.8145 H   0  0  0  0  0  0  0  0  0  0  0  0
   -2.7811   19.2183  -34.0266 H   0  0  0  0  0  0  0  0  0  0  0  0
   -4.1530   17.7780  -34.8660 C   0  0  0  0  0  0  0  0  0  0  0  0
   -3.7595   16.7938  -34.5717 H   0  0  0  0  0  0  0  0  0  0  0  0
   -3.7204   18.0812  -35.8308 H   0  0  0  0  0  0  0  0  0  0  0  0
   -5.5610   17.7000  -34.9940 O   0  0  0  0  0  0  0  0  0  0  0  0
   -6.1070   16.7020  -34.1510 C   0  0  0  0  0  0  0  0  0  0  0  0
   -5.2859   16.1263  -33.6989 H   0  0  0  0  0  0  0  0  0  0  0  0
   -6.7517   16.0494  -34.7580 H   0  0  0  0  0  0  0  0  0  0  0  0
   -6.9620   17.3230  -33.0290 C   0  0  0  0  0  0  0  0  0  0  0  0
   -6.5142   17.0578  -32.0599 H   0  0  0  0  0  0  0  0  0  0  0  0
   -7.9817   16.9239  -33.1340 H   0  0  0  0  0  0  0  0  0  0  0  0
   -7.0530   18.7930  -33.1180 N   0  0  0  0  0  0  0  0  0  0  0  0
   -6.3260   19.1910  -32.4780 H   0  0  0  0  0  0  0  0  0  0  0  0
   -6.8330   19.1080  -34.0930 H   0  0  0  0  0  0  0  0  0  0  0  0
   -8.3730   19.3040  -32.7120 C   0  0  0  0  0  0  0  0  0  0  0  0
   -9.0792   19.1802  -33.5462 H   0  0  0  0  0  0  0  0  0  0  0  0
   -8.2722   20.3672  -32.4483 H   0  0  0  0  0  0  0  0  0  0  0  0
   -8.9000   18.5470  -31.4940 C   0  0  0  0  0  0  0  0  0  0  0  0
   -8.5541   19.0439  -30.5756 H   0  0  0  0  0  0  0  0  0  0  0  0
   -9.9998   18.5392  -31.5147 H   0  0  0  0  0  0  0  0  0  0  0  0
   -8.5255   17.5129  -31.5147 H   0  0  0  0  0  0  0  0  0  0  0  0
   -6.1830   21.6970  -32.6290 S   0  0  0  0  0  0  0  0  0  0  0  0
   -5.9620   23.0540  -31.6410 C   0  0  0  0  0  0  0  0  0  0  0  0
   -7.0650   23.7980  -31.1960 C   0  0  0  0  0  0  0  0  0  0  0  0
   -8.3570   23.3990  -31.5810 O   0  0  0  0  0  0  0  0  0  0  0  0
   -8.9760   22.1780  -31.1900 C   0  0  0  0  0  0  0  0  0  0  0  0
   -9.0066   22.1176  -30.0921 H   0  0  0  0  0  0  0  0  0  0  0  0
  -10.0009   22.1426  -31.5879 H   0  0  0  0  0  0  0  0  0  0  0  0
   -8.3987   21.3304  -31.5879 H   0  0  0  0  0  0  0  0  0  0  0  0
  1  2  1  0
  2  3  2  0
  3  4  1  0
  3  5  1  0
  5  6  1  0
  6  7  1  0
  7  8  1  0
  7  9  1  0
  7 10  1  0
  5 11  2  0
 11 12  1  0
 12 13  1  0
 12 14  2  0
 14 15  1  0
 14 16  1  0
 16 17  2  0
 17 18  1  0
 18 19  1  0
 18 20  1  0
 18 21  1  0
 21 22  1  0
 21 23  1  0
 21 24  1  0
 24 25  1  0
 25 26  1  0
 25 27  1  0
 25 28  1  0
 28 29  1  0
 28 30  1  0
 28 31  1  0
 31 32  1  0
 31 33  1  0
 31 34  1  0
 34 35  1  0
 34 36  1  0
 34 37  1  0
 37 38  1  0
 37 39  1  0
 37 40  1  0
 16 41  1  0
 41 42  1  0
 42 43  2  0
 43 44  1  0
 44 45  1  0
 45 46  1  0
 45 47  1  0
 45 48  1  0
 43  2  1  0
 42 11  1  0
M  CHG  1  31   1
M  END
>  <UniqueID>  (14) 
13

>  <SMILES>  (14) 
CC[NH2+]CCOCC/N=c1\ccc2c(OC)ccc(OC)c2s1

>  <Energy>  (14) 
51.70115264625361

>  <Genealogy>  (14) 
CC[NH2+]CCOCCN=c1ccc2c(OC)ccc(OC)c2s1 (protonated)
CC[NH2+]CCOCC/N=c1\ccc2c(OC)ccc(OC)c2s1 (cis-trans isomerization)
CC[NH2+]CCOCC/N=c1\ccc2c(OC)ccc(OC)c2s1 (3D coordinates assigned)
CC[NH2+]CCOCC/N=c1\ccc2c(OC)ccc(OC)c2s1 (optimized conformer: 51.70115264625361 kcal/mol)

>  <smiles>  (14) 
CCNCCOCCN=c1ccc2c(OC)ccc(OC)c2s1

>  <score_type>  (14) 
oracle

>  <origin>  (14) 
adg

>  <m_score__min__energy>  (14) 
-5.96

>  <m_primary>  (14) 
energy

$$$$
14:0
     RDKit          3D

 55 57  0  0  0  0  0  0  0  0999 V2000
   -2.8600   19.6960  -33.8220 C   0  0  0  0  0  0  0  0  0  0  0  0
   -3.2610   18.2190  -33.7740 C   0  0  0  0  0  0  0  0  0  0  0  0
   -4.3920   17.9100  -34.6630 N   0  0  0  0  0  0  0  0  0  0  0  0
   -5.4620   17.1800  -33.9710 C   0  0  0  0  0  0  0  0  0  0  0  0
   -6.4570   18.1590  -33.4140 C   0  0  0  0  0  0  0  0  0  0  0  0
   -7.4690   17.7220  -32.5460 C   0  0  0  0  0  0  0  0  0  0  0  0
   -8.3730   18.6360  -31.9990 C   0  0  0  0  0  0  0  0  0  0  0  0
   -8.2690   20.0030  -32.2990 C   0  0  0  0  0  0  0  0  0  0  0  0
   -9.2330   20.9960  -31.6930 C   0  0  0  0  0  0  0  0  0  0  0  0
   -8.5550   21.9840  -30.8340 N   0  0  0  0  0  0  0  0  0  0  0  0
   -8.0890   23.1660  -31.5740 C   0  0  0  0  0  0  0  0  0  0  0  0
   -6.7530   23.6340  -31.0600 C   0  0  0  0  0  0  0  0  0  0  0  0
   -6.6500   24.8150  -30.3110 C   0  0  0  0  0  0  0  0  0  0  0  0
   -5.4050   25.2570  -29.8570 C   0  0  0  0  0  0  0  0  0  0  0  0
   -4.2390   24.5220  -30.1450 C   0  0  0  0  0  0  0  0  0  0  0  0
   -2.9650   24.9360  -29.7190 O   0  0  0  0  0  0  0  0  0  0  0  0
   -2.1730   24.2810  -28.7280 C   0  0  0  0  0  0  0  0  0  0  0  0
   -1.7790   25.2440  -27.6380 C   0  0  0  0  0  0  0  0  0  0  0  0
   -2.3630   25.1430  -26.3640 C   0  0  0  0  0  0  0  0  0  0  0  0
   -2.0040   26.0370  -25.3520 C   0  0  0  0  0  0  0  0  0  0  0  0
   -1.0660   27.0420  -25.6050 C   0  0  0  0  0  0  0  0  0  0  0  0
   -0.4910   27.1570  -26.8730 C   0  0  0  0  0  0  0  0  0  0  0  0
   -0.8480   26.2650  -27.8880 C   0  0  0  0  0  0  0  0  0  0  0  0
   -4.3470   23.3330  -30.8830 C   0  0  0  0  0  0  0  0  0  0  0  0
   -2.7890   22.3010  -31.2970 Br  0  0  0  0  0  0  0  0  0  0  0  0
   -5.5940   22.8930  -31.3380 C   0  0  0  0  0  0  0  0  0  0  0  0
   -7.2490   20.4430  -33.1560 C   0  0  0  0  0  0  0  0  0  0  0  0
   -6.3450   19.5280  -33.7060 C   0  0  0  0  0  0  0  0  0  0  0  0
   -2.7555   20.0811  -32.7969 H   0  0  0  0  0  0  0  0  0  0  0  0
   -1.9015   19.7987  -34.3518 H   0  0  0  0  0  0  0  0  0  0  0  0
   -3.6350   20.2693  -34.3518 H   0  0  0  0  0  0  0  0  0  0  0  0
   -2.3973   17.6095  -34.0781 H   0  0  0  0  0  0  0  0  0  0  0  0
   -3.5753   17.9927  -32.7444 H   0  0  0  0  0  0  0  0  0  0  0  0
   -4.0520   17.3360  -35.4700 H   0  0  0  0  0  0  0  0  0  0  0  0
   -5.9665   16.5084  -34.6813 H   0  0  0  0  0  0  0  0  0  0  0  0
   -5.0307   16.5883  -33.1501 H   0  0  0  0  0  0  0  0  0  0  0  0
   -7.5511   16.6542  -32.2949 H   0  0  0  0  0  0  0  0  0  0  0  0
   -9.1708   18.2822  -31.3294 H   0  0  0  0  0  0  0  0  0  0  0  0
   -9.7487   21.5289  -32.5055 H   0  0  0  0  0  0  0  0  0  0  0  0
   -9.9417   20.4358  -31.0654 H   0  0  0  0  0  0  0  0  0  0  0  0
   -9.2160   22.3000  -30.0860 H   0  0  0  0  0  0  0  0  0  0  0  0
   -7.9943   22.9089  -32.6393 H   0  0  0  0  0  0  0  0  0  0  0  0
   -8.8203   23.9760  -31.4359 H   0  0  0  0  0  0  0  0  0  0  0  0
   -7.5546   25.3966  -30.0797 H   0  0  0  0  0  0  0  0  0  0  0  0
   -5.3351   26.1851  -29.2708 H   0  0  0  0  0  0  0  0  0  0  0  0
   -2.7538   23.4566  -28.2887 H   0  0  0  0  0  0  0  0  0  0  0  0
   -1.2602   23.8938  -29.2044 H   0  0  0  0  0  0  0  0  0  0  0  0
   -3.1057   24.3570  -26.1626 H   0  0  0  0  0  0  0  0  0  0  0  0
   -2.4601   25.9498  -24.3548 H   0  0  0  0  0  0  0  0  0  0  0  0
   -0.7807   27.7421  -24.8060 H   0  0  0  0  0  0  0  0  0  0  0  0
    0.2438   27.9508  -27.0728 H   0  0  0  0  0  0  0  0  0  0  0  0
   -0.3978   26.3632  -28.8868 H   0  0  0  0  0  0  0  0  0  0  0  0
   -5.6669   21.9607  -31.9172 H   0  0  0  0  0  0  0  0  0  0  0  0
   -7.1597   21.5126  -33.3966 H   0  0  0  0  0  0  0  0  0  0  0  0
   -5.5429   19.8824  -34.3701 H   0  0  0  0  0  0  0  0  0  0  0  0
  1  2  1  0
  2  3  1  0
  3  4  1  0
  4  5  1  0
  5  6  2  0
  6  7  1  0
  7  8  2  0
  8  9  1  0
  9 10  1  0
 10 11  1  0
 11 12  1  0
 12 13  2  0
 13 14  1  0
 14 15  2  0
 15 16  1  0
 16 17  1  0
 17 18  1  0
 18 19  2  0
 19 20  1  0
 20 21  2  0
 21 22  1  0
 22 23  2  0
 15 24  1  0
 24 25  1  0
 24 26  2  0
  8 27  1  0
 27 28  2  0
 28  5  1  0
 26 12  1  0
 23 18  1  0
  1 29  1  0
  1 30  1  0
  1 31  1  0
  2 32  1  0
  2 33  1  0
  3 34  1  0
  4 35  1  0
  4 36  1  0
  6 37  1  0
  7 38  1  0
  9 39  1  0
  9 40  1  0
 10 41  1  0
 11 42  1  0
 11 43  1  0
 13 44  1  0
 14 45  1  0
 17 46  1  0
 17 47  1  0
 19 48  1  0
 20 49  1  0
 21 50  1  0
 22 51  1  0
 23 52  1  0
 26 53  1  0
 27 54  1  0
 28 55  1  0
M  END
>  <UniqueID>  (15) 
14

>  <SMILES>  (15) 
CCNCc1ccc(CNCc2ccc(OCc3ccccc3)c(Br)c2)cc1

>  <Energy>  (15) 
53.4651588076545

>  <Genealogy>  (15) 
CCNCc1ccc(CNCc2ccc(OCc3ccccc3)c(Br)c2)cc1 (3D coordinates assigned)
CCNCc1ccc(CNCc2ccc(OCc3ccccc3)c(Br)c2)cc1 (optimized conformer: 53.4651588076545 kcal/mol)

>  <smiles>  (15) 
CCNCc1ccc(CNCc2ccc(OCc3ccccc3)c(Br)c2)cc1

>  <score_type>  (15) 
oracle

>  <origin>  (15) 
adg

>  <m_score__min__energy>  (15) 
-9.8399999999999999

>  <m_primary>  (15) 
energy

$$$$
15:0
     RDKit          3D

 45 48  0  0  0  0  0  0  0  0999 V2000
   -0.8470   27.1650  -27.6260 C   0  0  0  0  0  0  0  0  0  0  0  0
   -0.9050   26.0220  -28.4740 O   0  0  0  0  0  0  0  0  0  0  0  0
   -0.3660   24.7630  -28.1540 C   0  0  0  0  0  0  0  0  0  0  0  0
    0.8490   24.6330  -27.4510 C   0  0  0  0  0  0  0  0  0  0  0  0
    1.3600   23.3680  -27.1520 C   0  0  0  0  0  0  0  0  0  0  0  0
    0.6680   22.2220  -27.5420 C   0  0  0  0  0  0  0  0  0  0  0  0
    1.1610   20.9960  -27.2380 F   0  0  0  0  0  0  0  0  0  0  0  0
   -0.5370   22.3370  -28.2370 C   0  0  0  0  0  0  0  0  0  0  0  0
   -1.0560   23.6020  -28.5590 C   0  0  0  0  0  0  0  0  0  0  0  0
   -2.3500   23.7100  -29.2680 C   0  0  0  0  0  0  0  0  0  0  0  0
   -3.3070   24.5900  -28.8840 N   0  0  0  0  0  0  0  0  0  0  0  0
   -4.3220   24.3420  -29.7290 C   0  0  0  0  0  0  0  0  0  0  0  0
   -3.9920   23.3320  -30.5880 C   0  0  0  0  0  0  0  0  0  0  0  0
   -2.7320   22.9370  -30.3190 N   0  0  0  0  0  0  0  0  0  0  0  0
   -1.9720   21.8800  -30.9880 C   0  0  0  0  0  0  0  0  0  0  0  0
   -4.9740   22.7030  -31.4860 C   0  0  0  0  0  0  0  0  0  0  0  0
   -4.6020   21.9010  -32.3840 O   0  0  0  0  0  0  0  0  0  0  0  0
   -6.3730   23.0230  -31.3230 N   0  0  0  0  0  0  0  0  0  0  0  0
   -7.3270   22.7410  -32.4030 C   0  0  0  0  0  0  0  0  0  0  0  0
   -7.7000   21.2840  -32.3910 C   0  0  0  0  0  0  0  0  0  0  0  0
   -8.7930   20.8330  -31.6310 C   0  0  0  0  0  0  0  0  0  0  0  0
   -9.1100   19.4710  -31.5960 C   0  0  0  0  0  0  0  0  0  0  0  0
   -8.3370   18.5530  -32.3130 C   0  0  0  0  0  0  0  0  0  0  0  0
   -7.2440   18.9940  -33.0630 C   0  0  0  0  0  0  0  0  0  0  0  0
   -6.9230   20.3540  -33.1010 C   0  0  0  0  0  0  0  0  0  0  0  0
   -6.8330   23.6380  -30.0640 C   0  0  0  0  0  0  0  0  0  0  0  0
   -5.9050   25.1800  -29.7240 S   0  0  0  0  0  0  0  0  0  0  0  0
   -0.8634   26.8426  -26.5744 H   0  0  0  0  0  0  0  0  0  0  0  0
    0.0806   27.7220  -27.8243 H   0  0  0  0  0  0  0  0  0  0  0  0
   -1.7134   27.8131  -27.8243 H   0  0  0  0  0  0  0  0  0  0  0  0
    1.3977   25.5329  -27.1362 H   0  0  0  0  0  0  0  0  0  0  0  0
    2.3112   23.2755  -26.6073 H   0  0  0  0  0  0  0  0  0  0  0  0
   -1.0842   21.4304  -28.5347 H   0  0  0  0  0  0  0  0  0  0  0  0
   -1.5049   21.2304  -30.2332 H   0  0  0  0  0  0  0  0  0  0  0  0
   -2.6492   21.2833  -31.6168 H   0  0  0  0  0  0  0  0  0  0  0  0
   -1.1908   22.3320  -31.6168 H   0  0  0  0  0  0  0  0  0  0  0  0
   -8.2316   23.3500  -32.2585 H   0  0  0  0  0  0  0  0  0  0  0  0
   -6.8625   22.9873  -33.3692 H   0  0  0  0  0  0  0  0  0  0  0  0
   -9.4004   21.5526  -31.0625 H   0  0  0  0  0  0  0  0  0  0  0  0
   -9.9686   19.1219  -31.0036 H   0  0  0  0  0  0  0  0  0  0  0  0
   -8.5896   17.4827  -32.2866 H   0  0  0  0  0  0  0  0  0  0  0  0
   -6.6351   18.2701  -33.6244 H   0  0  0  0  0  0  0  0  0  0  0  0
   -6.0589   20.6970  -33.6890 H   0  0  0  0  0  0  0  0  0  0  0  0
   -7.9048   23.8716  -30.1461 H   0  0  0  0  0  0  0  0  0  0  0  0
   -6.6601   22.9306  -29.2396 H   0  0  0  0  0  0  0  0  0  0  0  0
  1  2  1  0
  2  3  1  0
  3  4  2  0
  4  5  1  0
  5  6  2  0
  6  7  1  0
  6  8  1  0
  8  9  2  0
  9 10  1  0
 10 11  2  0
 11 12  1  0
 12 13  2  0
 13 14  1  0
 14 15  1  0
 13 16  1  0
 16 17  2  0
 16 18  1  0
 18 19  1  0
 19 20  1  0
 20 21  2  0
 21 22  1  0
 22 23  2  0
 23 24  1  0
 24 25  2  0
 18 26  1  0
 26 27  1  0
  9  3  1  0
 14 10  1  0
 25 20  1  0
 27 12  1  0
  1 28  1  0
  1 29  1  0
  1 30  1  0
  4 31  1  0
  5 32  1  0
  8 33  1  0
 15 34  1  0
 15 35  1  0
 15 36  1  0
 19 37  1  0
 19 38  1  0
 21 39  1  0
 22 40  1  0
 23 41  1  0
 24 42  1  0
 25 43  1  0
 26 44  1  0
 26 45  1  0
M  END
>  <UniqueID>  (16) 
15

>  <SMILES>  (16) 
COc1ccc(F)cc1-c1nc2c(n1C)C(=O)N(Cc1ccccc1)CS2

>  <Energy>  (16) 
89.03611151460298

>  <Genealogy>  (16) 
COc1ccc(F)cc1-c1nc2c(n1C)C(=O)N(Cc1ccccc1)CS2 (3D coordinates assigned)
COc1ccc(F)cc1-c1nc2c(n1C)C(=O)N(Cc1ccccc1)CS2 (nonaromatic ring conformer: 89.03611151460298 kcal/mol)

>  <smiles>  (16) 
COc1ccc(F)cc1-c1nc2c(n1C)C(=O)N(Cc1ccccc1)CS2

>  <score_type>  (16) 
oracle

>  <origin>  (16) 
adg

>  <m_score__min__energy>  (16) 
-8.5099999999999998

>  <m_primary>  (16) 
energy

$$$$
16:0
     RDKit          3D

 79 82  0  0  0  0  0  0  0  0999 V2000
   -0.1410   17.3360  -32.8280 C   0  0  0  0  0  0  0  0  0  0  0  0
   -1.0110   18.1350  -33.7990 C   0  0  0  0  0  0  0  0  0  0  0  0
   -1.7920   19.1700  -33.0860 N   0  0  0  0  0  0  0  0  0  0  0  0
   -1.3350   19.3140  -31.6830 C   0  0  0  0  0  0  0  0  0  0  0  0
   -0.5520   20.6050  -31.4430 C   0  0  0  0  0  0  0  0  0  0  0  0
   -1.9020   20.4440  -33.8450 C   0  0  0  0  0  0  0  0  0  0  0  0
   -3.0650   21.3740  -33.4200 C   0  0  0  0  0  0  0  0  0  0  0  0
   -3.8640   20.7980  -32.3360 N   0  0  0  0  0  0  0  0  0  0  0  0
   -5.2550   21.1400  -32.2270 C   0  0  0  0  0  0  0  0  0  0  0  0
   -5.6100   22.3700  -31.6470 C   0  0  0  0  0  0  0  0  0  0  0  0
   -4.6420   23.3770  -31.4480 C   0  0  0  0  0  0  0  0  0  0  0  0
   -4.9790   24.5800  -30.8330 C   0  0  0  0  0  0  0  0  0  0  0  0
   -6.2770   24.7930  -30.3900 C   0  0  0  0  0  0  0  0  0  0  0  0
   -7.2520   23.8150  -30.5770 C   0  0  0  0  0  0  0  0  0  0  0  0
   -6.9500   22.5940  -31.2350 C   0  0  0  0  0  0  0  0  0  0  0  0
   -7.9070   21.6150  -31.4300 N   0  0  0  0  0  0  0  0  0  0  0  0
   -9.3350   21.9190  -31.1890 C   0  0  0  0  0  0  0  0  0  0  0  0
   -7.5360   20.3640  -31.8830 C   0  0  0  0  0  0  0  0  0  0  0  0
   -8.4060   19.2530  -31.7760 C   0  0  0  0  0  0  0  0  0  0  0  0
   -8.0400   18.0070  -32.2700 C   0  0  0  0  0  0  0  0  0  0  0  0
   -6.8480   17.8520  -32.9650 C   0  0  0  0  0  0  0  0  0  0  0  0
   -5.9810   18.9460  -33.1600 C   0  0  0  0  0  0  0  0  0  0  0  0
   -4.8670   18.8580  -34.0970 N   0  0  0  0  0  0  0  0  0  0  0  0
   -4.8970   17.6580  -34.9570 C   0  0  0  0  0  0  0  0  0  0  0  0
   -3.5810   16.8210  -34.9360 C   0  0  0  0  0  0  0  0  0  0  0  0
   -3.6650   15.3570  -34.5820 N   0  0  0  0  0  0  0  0  0  0  0  0
   -3.4790   14.5080  -35.7880 C   0  0  0  0  0  0  0  0  0  0  0  0
   -2.5420   15.0520  -33.6260 C   0  0  0  0  0  0  0  0  0  0  0  0
   -2.8790   13.9100  -32.6520 C   0  0  0  0  0  0  0  0  0  0  0  0
   -4.0080   14.2830  -31.7700 N   0  0  0  0  0  0  0  0  0  0  0  0
   -4.6640   13.0810  -31.2360 C   0  0  0  0  0  0  0  0  0  0  0  0
   -4.9840   15.1890  -32.4220 C   0  0  0  0  0  0  0  0  0  0  0  0
   -4.9910   15.0320  -33.9550 C   0  0  0  0  0  0  0  0  0  0  0  0
   -6.2450   20.1540  -32.4390 C   0  0  0  0  0  0  0  0  0  0  0  0
   -0.4174   17.5899  -31.7940 H   0  0  0  0  0  0  0  0  0  0  0  0
   -0.2974   16.2602  -32.9957 H   0  0  0  0  0  0  0  0  0  0  0  0
    0.9177   17.5832  -32.9957 H   0  0  0  0  0  0  0  0  0  0  0  0
   -0.3642   18.6222  -34.5435 H   0  0  0  0  0  0  0  0  0  0  0  0
   -1.7124   17.4440  -34.2896 H   0  0  0  0  0  0  0  0  0  0  0  0
   -2.2161   19.3101  -31.0245 H   0  0  0  0  0  0  0  0  0  0  0  0
   -0.6597   18.4729  -31.4673 H   0  0  0  0  0  0  0  0  0  0  0  0
   -0.4486   20.7754  -30.3612 H   0  0  0  0  0  0  0  0  0  0  0  0
    0.4459   20.5185  -31.8976 H   0  0  0  0  0  0  0  0  0  0  0  0
   -1.0899   21.4500  -31.8976 H   0  0  0  0  0  0  0  0  0  0  0  0
   -0.9604   20.9979  -33.7160 H   0  0  0  0  0  0  0  0  0  0  0  0
   -2.1086   20.1583  -34.8870 H   0  0  0  0  0  0  0  0  0  0  0  0
   -2.6463   22.3330  -33.0809 H   0  0  0  0  0  0  0  0  0  0  0  0
   -3.7239   21.5111  -34.2901 H   0  0  0  0  0  0  0  0  0  0  0  0
   -3.4880   20.0130  -31.7570 H   0  0  0  0  0  0  0  0  0  0  0  0
   -3.6077   23.2096  -31.7830 H   0  0  0  0  0  0  0  0  0  0  0  0
   -4.2166   25.3614  -30.6983 H   0  0  0  0  0  0  0  0  0  0  0  0
   -6.5371   25.7373  -29.8894 H   0  0  0  0  0  0  0  0  0  0  0  0
   -8.2731   23.9922  -30.2084 H   0  0  0  0  0  0  0  0  0  0  0  0
   -9.5236   21.9592  -30.1060 H   0  0  0  0  0  0  0  0  0  0  0  0
   -9.5844   22.8904  -31.6409 H   0  0  0  0  0  0  0  0  0  0  0  0
   -9.9585   21.1335  -31.6409 H   0  0  0  0  0  0  0  0  0  0  0  0
   -9.3870   19.3778  -31.2944 H   0  0  0  0  0  0  0  0  0  0  0  0
   -8.6973   17.1397  -32.1098 H   0  0  0  0  0  0  0  0  0  0  0  0
   -6.5774   16.8648  -33.3677 H   0  0  0  0  0  0  0  0  0  0  0  0
   -4.9320   19.6830  -34.7350 H   0  0  0  0  0  0  0  0  0  0  0  0
   -3.9750   18.8740  -33.5560 H   0  0  0  0  0  0  0  0  0  0  0  0
   -5.7213   17.0126  -34.6194 H   0  0  0  0  0  0  0  0  0  0  0  0
   -5.0282   18.0134  -35.9897 H   0  0  0  0  0  0  0  0  0  0  0  0
   -3.1379   16.8873  -35.9406 H   0  0  0  0  0  0  0  0  0  0  0  0
   -2.9938   17.2628  -34.1175 H   0  0  0  0  0  0  0  0  0  0  0  0
   -3.2531   13.4767  -35.4791 H   0  0  0  0  0  0  0  0  0  0  0  0
   -4.4005   14.5173  -36.3886 H   0  0  0  0  0  0  0  0  0  0  0  0
   -2.6458   14.9017  -36.3886 H   0  0  0  0  0  0  0  0  0  0  0  0
   -1.6534   14.7663  -34.2080 H   0  0  0  0  0  0  0  0  0  0  0  0
   -2.3645   15.9565  -33.0257 H   0  0  0  0  0  0  0  0  0  0  0  0
   -3.1532   13.0142  -33.2285 H   0  0  0  0  0  0  0  0  0  0  0  0
   -1.9963   13.7096  -32.0269 H   0  0  0  0  0  0  0  0  0  0  0  0
   -4.6471   13.1119  -30.1366 H   0  0  0  0  0  0  0  0  0  0  0  0
   -5.7063   13.0460  -31.5859 H   0  0  0  0  0  0  0  0  0  0  0  0
   -4.1295   12.1855  -31.5859 H   0  0  0  0  0  0  0  0  0  0  0  0
   -5.9895   14.9616  -32.0381 H   0  0  0  0  0  0  0  0  0  0  0  0
   -4.6911   16.2236  -32.1901 H   0  0  0  0  0  0  0  0  0  0  0  0
   -5.2495   13.9913  -34.2001 H   0  0  0  0  0  0  0  0  0  0  0  0
   -5.7288   15.7424  -34.3562 H   0  0  0  0  0  0  0  0  0  0  0  0
  1  2  1  0
  2  3  1  0
  3  4  1  0
  4  5  1  0
  3  6  1  0
  6  7  1  0
  7  8  1  0
  8  9  1  0
  9 10  2  0
 10 11  1  0
 11 12  2  0
 12 13  1  0
 13 14  2  0
 14 15  1  0
 15 16  2  0
 16 17  1  0
 16 18  1  0
 18 19  2  0
 19 20  1  0
 20 21  2  0
 21 22  1  0
 22 23  1  0
 23 24  1  0
 24 25  1  0
 25 26  1  0
 26 27  1  0
 26 28  1  0
 28 29  1  0
 29 30  1  0
 30 31  1  0
 30 32  1  0
 32 33  1  0
 22 34  2  0
 34  9  1  0
 15 10  1  0
 34 18  1  0
 33 26  1  0
  1 35  1  0
  1 36  1  0
  1 37  1  0
  2 38  1  0
  2 39  1  0
  4 40  1  0
  4 41  1  0
  5 42  1  0
  5 43  1  0
  5 44  1  0
  6 45  1  0
  6 46  1  0
  7 47  1  0
  7 48  1  0
  8 49  1  0
 11 50  1  0
 12 51  1  0
 13 52  1  0
 14 53  1  0
 17 54  1  0
 17 55  1  0
 17 56  1  0
 19 57  1  0
 20 58  1  0
 21 59  1  0
 23 60  1  0
 23 61  1  0
 24 62  1  0
 24 63  1  0
 25 64  1  0
 25 65  1  0
 27 66  1  0
 27 67  1  0
 27 68  1  0
 28 69  1  0
 28 70  1  0
 29 71  1  0
 29 72  1  0
 31 73  1  0
 31 74  1  0
 31 75  1  0
 32 76  1  0
 32 77  1  0
 33 78  1  0
 33 79  1  0
M  CHG  3  16   1  23   1  26   1
M  END
>  <UniqueID>  (17) 
16

>  <SMILES>  (17) 
CCN(CC)CCNc1c2ccccc2[n+](C)c2cccc([NH2+]CC[N+]3(C)CCN(C)CC3)c12

>  <Energy>  (17) 
149.4595516803514

>  <Genealogy>  (17) 
CCN(CC)CCNc1c2ccccc2[n+](C)c2cccc([NH2+]CC[N+]3(C)CCN(C)CC3)c12 (protonated)
CCN(CC)CCNc1c2ccccc2[n+](C)c2cccc([NH2+]CC[N+]3(C)CCN(C)CC3)c12 (3D coordinates assigned)
CCN(CC)CCNc1c2ccccc2[n+](C)c2cccc([NH2+]CC[N+]3(C)CCN(C)CC3)c12 (nonaromatic ring conformer: 149.4595516803514 kcal/mol)

>  <smiles>  (17) 
CCN(CC)CCNc1c2ccccc2[n+](C)c2cccc(NCC[N+]3(C)CCN(C)CC3)c12

>  <score_type>  (17) 
oracle

>  <origin>  (17) 
adg

>  <m_score__min__energy>  (17) 
-7.7000000000000002

>  <m_primary>  (17) 
energy

$$$$
