0:0
     RDKit          3D

 47 49  0  0  0  0  0  0  0  0999 V2000
   -9.7070   19.3550  -32.7220 C   0  0  0  0  0  0  0  0  0  0  0  0
   -8.7840   18.5860  -31.7810 C   0  0  0  0  0  0  0  0  0  0  0  0
   -7.4460   19.1900  -31.7440 N   0  0  0  0  0  0  0  0  0  0  0  0
   -6.2680   18.6350  -32.1080 C   0  0  0  0  0  0  0  0  0  0  0  0
   -6.0790   17.2940  -32.6940 C   0  0  0  0  0  0  0  0  0  0  0  0
   -5.0840   16.4420  -32.1850 C   0  0  0  0  0  0  0  0  0  0  0  0
   -4.8950   15.1710  -32.7360 C   0  0  0  0  0  0  0  0  0  0  0  0
   -5.6870   14.7460  -33.8080 C   0  0  0  0  0  0  0  0  0  0  0  0
   -5.4470   13.1520  -34.4990 Cl  0  0  0  0  0  0  0  0  0  0  0  0
   -6.6650   15.5970  -34.3320 C   0  0  0  0  0  0  0  0  0  0  0  0
   -6.8570   16.8680  -33.7830 C   0  0  0  0  0  0  0  0  0  0  0  0
   -5.2540   19.5180  -31.8100 C   0  0  0  0  0  0  0  0  0  0  0  0
   -5.7800   20.6380  -31.2790 N   0  0  0  0  0  0  0  0  0  0  0  0
   -7.1090   20.4020  -31.2430 C   0  0  0  0  0  0  0  0  0  0  0  0
   -8.2800   21.6210  -30.6310 S   0  0  0  0  0  0  0  0  0  0  0  0
   -8.2050   22.6950  -32.1110 C   0  0  0  0  0  0  0  0  0  0  0  0
   -6.8250   23.3520  -32.3090 C   0  0  0  0  0  0  0  0  0  0  0  0
   -5.9770   23.3470  -31.0890 N   0  0  0  0  0  0  0  0  0  0  0  0
   -4.5410   23.1430  -31.4250 C   0  0  0  0  0  0  0  0  0  0  0  0
   -3.6110   23.7320  -30.3530 C   0  0  0  0  0  0  0  0  0  0  0  0
   -3.7920   25.1880  -30.2060 N   0  0  0  0  0  0  0  0  0  0  0  0
   -5.1440   25.6580  -30.5600 C   0  0  0  0  0  0  0  0  0  0  0  0
   -6.2070   24.5840  -30.2890 C   0  0  0  0  0  0  0  0  0  0  0  0
  -10.4201   19.9491  -32.1316 H   0  0  0  0  0  0  0  0  0  0  0  0
   -9.1082   20.0251  -33.3563 H   0  0  0  0  0  0  0  0  0  0  0  0
  -10.2580   18.6451  -33.3563 H   0  0  0  0  0  0  0  0  0  0  0  0
   -9.2122   18.5986  -30.7678 H   0  0  0  0  0  0  0  0  0  0  0  0
   -8.6916   17.5533  -32.1484 H   0  0  0  0  0  0  0  0  0  0  0  0
   -4.4513   16.7765  -31.3497 H   0  0  0  0  0  0  0  0  0  0  0  0
   -4.1223   14.5041  -32.3259 H   0  0  0  0  0  0  0  0  0  0  0  0
   -7.2847   15.2654  -35.1782 H   0  0  0  0  0  0  0  0  0  0  0  0
   -7.6207   17.5375  -34.2056 H   0  0  0  0  0  0  0  0  0  0  0  0
   -4.1823   19.3367  -31.9793 H   0  0  0  0  0  0  0  0  0  0  0  0
   -8.4338   22.0860  -32.9980 H   0  0  0  0  0  0  0  0  0  0  0  0
   -8.9369   23.5036  -31.9682 H   0  0  0  0  0  0  0  0  0  0  0  0
   -6.2928   22.8080  -33.1033 H   0  0  0  0  0  0  0  0  0  0  0  0
   -7.0064   24.4055  -32.5683 H   0  0  0  0  0  0  0  0  0  0  0  0
   -6.2810   22.5460  -30.4870 H   0  0  0  0  0  0  0  0  0  0  0  0
   -4.3459   22.0638  -31.5107 H   0  0  0  0  0  0  0  0  0  0  0  0
   -4.3368   23.6602  -32.3741 H   0  0  0  0  0  0  0  0  0  0  0  0
   -3.8279   23.2478  -29.3894 H   0  0  0  0  0  0  0  0  0  0  0  0
   -2.5724   23.5480  -30.6651 H   0  0  0  0  0  0  0  0  0  0  0  0
   -3.1060   25.6740  -30.8320 H   0  0  0  0  0  0  0  0  0  0  0  0
   -5.3789   26.5511  -29.9623 H   0  0  0  0  0  0  0  0  0  0  0  0
   -5.1563   25.8893  -31.6353 H   0  0  0  0  0  0  0  0  0  0  0  0
   -6.1830   24.3240  -29.2204 H   0  0  0  0  0  0  0  0  0  0  0  0
   -7.1844   24.9964  -30.5798 H   0  0  0  0  0  0  0  0  0  0  0  0
  1  2  1  0
  2  3  1  0
  3  4  1  0
  4  5  1  0
  5  6  2  0
  6  7  1  0
  7  8  2  0
  8  9  1  0
  8 10  1  0
 10 11  2  0
  4 12  2  0
 12 13  1  0
 13 14  2  0
 14 15  1  0
 15 16  1  0
 16 17  1  0
 17 18  1  0
 18 19  1  0
 19 20  1  0
 20 21  1  0
 21 22  1  0
 22 23  1  0
 14  3  1  0
 23 18  1  0
 11  5  1  0
  1 24  1  0
  1 25  1  0
  1 26  1  0
  2 27  1  0
  2 28  1  0
  6 29  1  0
  7 30  1  0
 10 31  1  0
 11 32  1  0
 12 33  1  0
 16 34  1  0
 16 35  1  0
 17 36  1  0
 17 37  1  0
 18 38  1  0
 19 39  1  0
 19 40  1  0
 20 41  1  0
 20 42  1  0
 21 43  1  0
 22 44  1  0
 22 45  1  0
 23 46  1  0
 23 47  1  0
M  CHG  1  18   1
M  END
>  <UniqueID>  (1) 
1

>  <SMILES>  (1) 
CCn1c(-c2ccc(Cl)cc2)cnc1SCC[NH+]1CCNCC1

>  <Energy>  (1) 
87.86653725135496

>  <Genealogy>  (1) 
CCn1c(-c2ccc(Cl)cc2)cnc1SCC[NH+]1CCNCC1 (protonated)
CCn1c(-c2ccc(Cl)cc2)cnc1SCC[NH+]1CCNCC1 (3D coordinates assigned)
CCn1c(-c2ccc(Cl)cc2)cnc1SCC[NH+]1CCNCC1 (nonaromatic ring conformer: 87.86653725135496 kcal/mol)

>  <smiles>  (1) 
CCn1c(-c2ccc(Cl)cc2)cnc1SCCN1CCNCC1

>  <score_type>  (1) 
oracle

>  <origin>  (1) 
adg

>  <m_score__min__energy>  (1) 
-8.1400000000000006

>  <m_primary>  (1) 
energy

$$$$
1:0
     RDKit          3D

 37 38  0  0  0  0  0  0  0  0999 V2000
   -9.1320   23.4060  -32.2670 C   0  0  0  0  0  0  0  0  0  0  0  0
   -7.7060   23.0270  -32.0240 C   0  0  0  0  0  0  0  0  0  0  0  0
   -7.1810   21.8590  -32.5770 C   0  0  0  0  0  0  0  0  0  0  0  0
   -5.8460   21.5310  -32.3460 C   0  0  0  0  0  0  0  0  0  0  0  0
   -5.0260   22.3770  -31.5720 C   0  0  0  0  0  0  0  0  0  0  0  0
   -3.6700   22.0910  -31.3190 O   0  0  0  0  0  0  0  0  0  0  0  0
   -3.1430   21.0240  -30.5270 C   0  0  0  0  0  0  0  0  0  0  0  0
   -2.8560   21.4710  -29.0820 C   0  0  0  0  0  0  0  0  0  0  0  0
   -2.6030   22.9320  -28.9590 N   0  0  0  0  0  0  0  0  0  0  0  0
   -1.2270   23.2700  -29.3960 C   0  0  0  0  0  0  0  0  0  0  0  0
   -0.8290   24.7000  -28.9670 C   0  0  0  0  0  0  0  0  0  0  0  0
   -1.9690   25.4650  -28.6370 O   0  0  0  0  0  0  0  0  0  0  0  0
   -2.5960   24.9310  -27.4830 C   0  0  0  0  0  0  0  0  0  0  0  0
   -2.7970   23.4000  -27.5690 C   0  0  0  0  0  0  0  0  0  0  0  0
   -5.5980   23.5520  -31.0300 C   0  0  0  0  0  0  0  0  0  0  0  0
   -4.8340   24.4750  -30.2330 N   0  0  0  0  0  0  0  0  0  0  0  0
   -5.0750   24.5830  -29.0130 O   0  0  0  0  0  0  0  0  0  0  0  0
   -3.8510   25.2660  -30.7830 O   0  0  0  0  0  0  0  0  0  0  0  0
   -6.9090   23.8330  -31.2770 N   0  0  0  0  0  0  0  0  0  0  0  0
   -9.6445   23.5422  -31.3033 H   0  0  0  0  0  0  0  0  0  0  0  0
   -9.1695   24.3453  -32.8382 H   0  0  0  0  0  0  0  0  0  0  0  0
   -9.6309   22.6093  -32.8382 H   0  0  0  0  0  0  0  0  0  0  0  0
   -7.8153   21.2021  -33.1904 H   0  0  0  0  0  0  0  0  0  0  0  0
   -5.4295   20.6057  -32.7706 H   0  0  0  0  0  0  0  0  0  0  0  0
   -3.8732   20.2016  -30.5067 H   0  0  0  0  0  0  0  0  0  0  0  0
   -2.1940   20.6997  -30.9790 H   0  0  0  0  0  0  0  0  0  0  0  0
   -3.7239   21.2128  -28.4574 H   0  0  0  0  0  0  0  0  0  0  0  0
   -1.9424   20.9527  -28.7552 H   0  0  0  0  0  0  0  0  0  0  0  0
   -3.2620   23.4520  -29.5830 H   0  0  0  0  0  0  0  0  0  0  0  0
   -0.5236   22.5537  -28.9464 H   0  0  0  0  0  0  0  0  0  0  0  0
   -1.1923   23.2181  -30.4942 H   0  0  0  0  0  0  0  0  0  0  0  0
   -0.1686   24.6415  -28.0893 H   0  0  0  0  0  0  0  0  0  0  0  0
   -0.3115   25.1866  -29.8069 H   0  0  0  0  0  0  0  0  0  0  0  0
   -1.9703   25.1553  -26.6066 H   0  0  0  0  0  0  0  0  0  0  0  0
   -3.5908   25.3932  -27.4008 H   0  0  0  0  0  0  0  0  0  0  0  0
   -2.0679   22.9013  -26.9135 H   0  0  0  0  0  0  0  0  0  0  0  0
   -3.8210   23.1559  -27.2498 H   0  0  0  0  0  0  0  0  0  0  0  0
  1  2  1  0
  2  3  2  0
  3  4  1  0
  4  5  2  0
  5  6  1  0
  6  7  1  0
  7  8  1  0
  8  9  1  0
  9 10  1  0
 10 11  1  0
 11 12  1  0
 12 13  1  0
 13 14  1  0
  5 15  1  0
 15 16  1  0
 16 17  2  0
 16 18  1  0
 15 19  2  0
 19  2  1  0
 14  9  1  0
  1 20  1  0
  1 21  1  0
  1 22  1  0
  3 23  1  0
  4 24  1  0
  7 25  1  0
  7 26  1  0
  8 27  1  0
  8 28  1  0
  9 29  1  0
 10 30  1  0
 10 31  1  0
 11 32  1  0
 11 33  1  0
 13 34  1  0
 13 35  1  0
 14 36  1  0
 14 37  1  0
M  CHG  3   9   1  16   1  18  -1
M  END
>  <UniqueID>  (2) 
2

>  <SMILES>  (2) 
Cc1ccc(OCC[NH+]2CCOCC2)c([N+](=O)[O-])n1

>  <Energy>  (2) 
50.77441202057822

>  <Genealogy>  (2) 
Cc1ccc(OCC[NH+]2CCOCC2)c([N+](=O)[O-])n1 (protonated)
Cc1ccc(OCC[NH+]2CCOCC2)c([N+](=O)[O-])n1 (3D coordinates assigned)
Cc1ccc(OCC[NH+]2CCOCC2)c([N+](=O)[O-])n1 (nonaromatic ring conformer: 50.77441202057822 kcal/mol)

>  <smiles>  (2) 
Cc1ccc(OCCN2CCOCC2)c([N+](=O)[O-])n1

>  <score_type>  (2) 
oracle

>  <origin>  (2) 
adg

>  <m_score__min__energy>  (2) 
-5.4900000000000002

>  <m_primary>  (2) 
energy

$$$$
2:0
     RDKit          3D

 65 69  0  0  0  0  0  0  0  0999 V2000
   -8.3673   23.6187  -31.4169 H   0  0  0  0  0  0  0  0  0  0  0  0
   -7.5110   22.9310  -31.3550 C   0  0  0  0  0  0  0  0  0  0  0  0
   -7.6760   21.6870  -31.8610 C   0  0  0  0  0  0  0  0  0  0  0  0
   -6.5500   20.8470  -32.3850 C   0  0  0  0  0  0  0  0  0  0  0  0
   -5.3550   21.4170  -32.6910 N   0  0  0  0  0  0  0  0  0  0  0  0
   -4.2920   20.7080  -33.1410 C   0  0  0  0  0  0  0  0  0  0  0  0
   -3.0860   21.3680  -33.4000 C   0  0  0  0  0  0  0  0  0  0  0  0
   -3.0127   22.4559  -33.2546 H   0  0  0  0  0  0  0  0  0  0  0  0
   -1.9750   20.6470  -33.8430 C   0  0  0  0  0  0  0  0  0  0  0  0
   -1.0272   21.1674  -34.0449 H   0  0  0  0  0  0  0  0  0  0  0  0
   -2.0660   19.2660  -34.0300 C   0  0  0  0  0  0  0  0  0  0  0  0
   -1.1883   18.7014  -34.3778 H   0  0  0  0  0  0  0  0  0  0  0  0
   -3.2680   18.5980  -33.7770 C   0  0  0  0  0  0  0  0  0  0  0  0
   -3.3325   17.5107  -33.9307 H   0  0  0  0  0  0  0  0  0  0  0  0
   -4.4000   19.3120  -33.3250 C   0  0  0  0  0  0  0  0  0  0  0  0
   -5.6380   18.6860  -33.0560 C   0  0  0  0  0  0  0  0  0  0  0  0
   -5.7890   17.2250  -33.2190 C   0  0  0  0  0  0  0  0  0  0  0  0
   -5.1170   16.4400  -32.4260 N   0  0  0  0  0  0  0  0  0  0  0  0
   -4.9920   14.9890  -32.5480 C   0  0  0  0  0  0  0  0  0  0  0  0
   -5.4347   14.5092  -31.6627 H   0  0  0  0  0  0  0  0  0  0  0  0
   -5.5184   14.6555  -33.4545 H   0  0  0  0  0  0  0  0  0  0  0  0
   -3.5030   14.5960  -32.6520 C   0  0  0  0  0  0  0  0  0  0  0  0
   -3.1208   14.4273  -31.6344 H   0  0  0  0  0  0  0  0  0  0  0  0
   -3.4614   13.6961  -33.2832 H   0  0  0  0  0  0  0  0  0  0  0  0
   -2.6410   15.6100  -33.3080 N   0  0  0  0  0  0  0  0  0  0  0  0
   -3.0570   16.5450  -33.0830 H   0  0  0  0  0  0  0  0  0  0  0  0
   -2.6410   15.4840  -34.7770 C   0  0  0  0  0  0  0  0  0  0  0  0
   -1.6039   15.4527  -35.1423 H   0  0  0  0  0  0  0  0  0  0  0  0
   -3.1595   14.5578  -35.0656 H   0  0  0  0  0  0  0  0  0  0  0  0
   -3.1595   16.3475  -35.2191 H   0  0  0  0  0  0  0  0  0  0  0  0
   -1.2660   15.6130  -32.7800 C   0  0  0  0  0  0  0  0  0  0  0  0
   -1.2955   15.6129  -31.6804 H   0  0  0  0  0  0  0  0  0  0  0  0
   -0.7359   14.7160  -33.1326 H   0  0  0  0  0  0  0  0  0  0  0  0
   -0.7398   16.5123  -33.1326 H   0  0  0  0  0  0  0  0  0  0  0  0
   -6.7500   16.7020  -34.2540 C   0  0  0  0  0  0  0  0  0  0  0  0
   -7.6100   16.2340  -33.7526 H   0  0  0  0  0  0  0  0  0  0  0  0
   -7.1003   17.5339  -34.8827 H   0  0  0  0  0  0  0  0  0  0  0  0
   -6.2416   15.9561  -34.8827 H   0  0  0  0  0  0  0  0  0  0  0  0
   -6.7350   19.4660  -32.6140 C   0  0  0  0  0  0  0  0  0  0  0  0
   -8.0880   18.8470  -32.3290 C   0  0  0  0  0  0  0  0  0  0  0  0
   -8.1445   18.5750  -31.2647 H   0  0  0  0  0  0  0  0  0  0  0  0
   -8.2085   17.9517  -32.9566 H   0  0  0  0  0  0  0  0  0  0  0  0
   -9.2090   19.8340  -32.6560 C   0  0  0  0  0  0  0  0  0  0  0  0
  -10.1789   19.3623  -32.4394 H   0  0  0  0  0  0  0  0  0  0  0  0
   -9.1420   20.1024  -33.7206 H   0  0  0  0  0  0  0  0  0  0  0  0
   -9.0740   21.1080  -31.8210 C   0  0  0  0  0  0  0  0  0  0  0  0
   -9.3279   20.8730  -30.7768 H   0  0  0  0  0  0  0  0  0  0  0  0
   -9.7567   21.8582  -32.2466 H   0  0  0  0  0  0  0  0  0  0  0  0
   -6.2770   23.4410  -30.7270 C   0  0  0  0  0  0  0  0  0  0  0  0
   -5.7950   24.7080  -31.0810 C   0  0  0  0  0  0  0  0  0  0  0  0
   -6.3429   25.3163  -31.8157 H   0  0  0  0  0  0  0  0  0  0  0  0
   -4.6210   25.2030  -30.5050 C   0  0  0  0  0  0  0  0  0  0  0  0
   -4.2412   26.1928  -30.7984 H   0  0  0  0  0  0  0  0  0  0  0  0
   -3.9260   24.4410  -29.5540 C   0  0  0  0  0  0  0  0  0  0  0  0
   -2.7390   24.9230  -28.9810 C   0  0  0  0  0  0  0  0  0  0  0  0
   -2.3471   25.9077  -29.2756 H   0  0  0  0  0  0  0  0  0  0  0  0
   -2.0540   24.1530  -28.0360 C   0  0  0  0  0  0  0  0  0  0  0  0
   -1.1224   24.5327  -27.5911 H   0  0  0  0  0  0  0  0  0  0  0  0
   -2.5480   22.9040  -27.6550 C   0  0  0  0  0  0  0  0  0  0  0  0
   -2.0043   22.3028  -26.9114 H   0  0  0  0  0  0  0  0  0  0  0  0
   -3.7320   22.4150  -28.2160 C   0  0  0  0  0  0  0  0  0  0  0  0
   -4.1189   21.4316  -27.9107 H   0  0  0  0  0  0  0  0  0  0  0  0
   -4.4270   23.1760  -29.1670 C   0  0  0  0  0  0  0  0  0  0  0  0
   -5.6110   22.6930  -29.7430 C   0  0  0  0  0  0  0  0  0  0  0  0
   -6.0198   21.7235  -29.4223 H   0  0  0  0  0  0  0  0  0  0  0  0
  1  2  1  0
  2  3  2  0
  3  4  1  0
  4  5  2  0
  5  6  1  0
  6  7  2  0
  7  8  1  0
  7  9  1  0
  9 10  1  0
  9 11  2  0
 11 12  1  0
 11 13  1  0
 13 14  1  0
 13 15  2  0
 15 16  1  0
 16 17  1  0
 17 18  2  0
 18 19  1  0
 19 20  1  0
 19 21  1  0
 19 22  1  0
 22 23  1  0
 22 24  1  0
 22 25  1  0
 25 26  1  0
 25 27  1  0
 27 28  1  0
 27 29  1  0
 27 30  1  0
 25 31  1  0
 31 32  1  0
 31 33  1  0
 31 34  1  0
 17 35  1  0
 35 36  1  0
 35 37  1  0
 35 38  1  0
 16 39  2  0
 39 40  1  0
 40 41  1  0
 40 42  1  0
 40 43  1  0
 43 44  1  0
 43 45  1  0
 43 46  1  0
 46 47  1  0
 46 48  1  0
  2 49  1  0
 49 50  2  0
 50 51  1  0
 50 52  1  0
 52 53  1  0
 52 54  2  0
 54 55  1  0
 55 56  1  0
 55 57  2  0
 57 58  1  0
 57 59  1  0
 59 60  1  0
 59 61  2  0
 61 62  1  0
 61 63  1  0
 63 64  2  0
 64 65  1  0
 46  3  1  0
 64 49  1  0
 39  4  1  0
 63 54  1  0
 15  6  1  0
M  CHG  1  25   1
M  END
>  <UniqueID>  (3) 
3

>  <SMILES>  (3) 
C/C(=N\CC[NH+](C)C)c1c2c(nc3ccccc13)/C(=C\c1ccc3ccccc3c1)CCC2

>  <Energy>  (3) 
95.37860602603637

>  <Genealogy>  (3) 
CC(=NCC[NH+](C)C)c1c2c(nc3ccccc13)C(=Cc1ccc3ccccc3c1)CCC2 (protonated)
C/C(=N\CC[NH+](C)C)c1c2c(nc3ccccc13)/C(=C\c1ccc3ccccc3c1)CCC2 (cis-trans isomerization)
C/C(=N\CC[NH+](C)C)c1c2c(nc3ccccc13)/C(=C\c1ccc3ccccc3c1)CCC2 (3D coordinates assigned)
C/C(=N\CC[NH+](C)C)c1c2c(nc3ccccc13)/C(=C\c1ccc3ccccc3c1)CCC2 (nonaromatic ring conformer: 95.37860602603637 kcal/mol)

>  <smiles>  (3) 
CC(=NCCN(C)C)c1c2c(nc3ccccc13)C(=Cc1ccc3ccccc3c1)CCC2

>  <score_type>  (3) 
oracle

>  <origin>  (3) 
adg

>  <m_score__min__energy>  (3) 
-11.050000000000001

>  <m_primary>  (3) 
energy

$$$$
3:0
     RDKit          3D

 50 54  0  0  0  0  0  0  0  0999 V2000
   -4.1690   24.9020  -26.5210 C   0  0  0  0  0  0  0  0  0  0  0  0
   -3.3240   24.0560  -27.4270 C   0  0  0  0  0  0  0  0  0  0  0  0
   -3.7140   22.7430  -27.7340 C   0  0  0  0  0  0  0  0  0  0  0  0
   -2.9470   21.9640  -28.6050 C   0  0  0  0  0  0  0  0  0  0  0  0
   -1.7930   22.4990  -29.2000 C   0  0  0  0  0  0  0  0  0  0  0  0
   -0.9480   21.6510  -30.1130 C   0  0  0  0  0  0  0  0  0  0  0  0
   -1.2990   21.9210  -31.5770 C   0  0  0  0  0  0  0  0  0  0  0  0
   -2.4780   21.1510  -31.9650 N   0  0  0  0  0  0  0  0  0  0  0  0
   -2.4990   19.8570  -32.3730 C   0  0  0  0  0  0  0  0  0  0  0  0
   -3.7530   19.3830  -32.5970 N   0  0  0  0  0  0  0  0  0  0  0  0
   -4.5200   20.4460  -32.3010 C   0  0  0  0  0  0  0  0  0  0  0  0
   -3.7730   21.5100  -31.9130 C   0  0  0  0  0  0  0  0  0  0  0  0
   -4.4050   22.7860  -31.5090 C   0  0  0  0  0  0  0  0  0  0  0  0
   -3.7010   23.7670  -31.1470 O   0  0  0  0  0  0  0  0  0  0  0  0
   -5.8550   22.8790  -31.5460 N   0  0  0  0  0  0  0  0  0  0  0  0
   -6.5510   24.1210  -31.2000 C   0  0  0  0  0  0  0  0  0  0  0  0
   -6.5940   21.7200  -32.0080 C   0  0  0  0  0  0  0  0  0  0  0  0
   -7.8640   21.6880  -32.2320 N   0  0  0  0  0  0  0  0  0  0  0  0
   -8.2370   20.3730  -32.7640 C   0  0  2  0  0  0  0  0  0  0  0  0
   -9.1440   19.6130  -31.7960 C   0  0  0  0  0  0  0  0  0  0  0  0
   -8.5740   18.2050  -31.7210 C   0  0  0  0  0  0  0  0  0  0  0  0
   -7.0780   18.3540  -31.9480 C   0  0  0  0  0  0  0  0  0  0  0  0
   -6.9180   19.5770  -32.8500 C   0  0  2  0  0  0  0  0  0  0  0  0
   -5.9400   20.5120  -32.3260 N   0  0  0  0  0  0  0  0  0  0  0  0
   -1.4060   23.8120  -28.8970 C   0  0  0  0  0  0  0  0  0  0  0  0
   -2.1730   24.5910  -28.0240 C   0  0  0  0  0  0  0  0  0  0  0  0
   -3.9329   24.6656  -25.4730 H   0  0  0  0  0  0  0  0  0  0  0  0
   -3.9614   25.9651  -26.7129 H   0  0  0  0  0  0  0  0  0  0  0  0
   -5.2323   24.6956  -26.7129 H   0  0  0  0  0  0  0  0  0  0  0  0
   -4.6279   22.3250  -27.2868 H   0  0  0  0  0  0  0  0  0  0  0  0
   -3.2482   20.9291  -28.8249 H   0  0  0  0  0  0  0  0  0  0  0  0
    0.1133   21.8873  -29.9463 H   0  0  0  0  0  0  0  0  0  0  0  0
   -1.1413   20.5909  -29.8918 H   0  0  0  0  0  0  0  0  0  0  0  0
   -1.5061   22.9932  -31.7089 H   0  0  0  0  0  0  0  0  0  0  0  0
   -0.4509   21.6209  -32.2099 H   0  0  0  0  0  0  0  0  0  0  0  0
   -1.5908   19.2514  -32.5090 H   0  0  0  0  0  0  0  0  0  0  0  0
   -6.6055   24.2182  -30.1057 H   0  0  0  0  0  0  0  0  0  0  0  0
   -6.0015   24.9777  -31.6173 H   0  0  0  0  0  0  0  0  0  0  0  0
   -7.5686   24.0996  -31.6173 H   0  0  0  0  0  0  0  0  0  0  0  0
   -8.5280   22.4810  -32.0880 H   0  0  0  0  0  0  0  0  0  0  0  0
   -8.7631   20.4918  -33.7227 H   0  0  0  0  0  0  0  0  0  0  0  0
   -9.1287   20.0868  -30.8034 H   0  0  0  0  0  0  0  0  0  0  0  0
  -10.1903   19.6109  -32.1354 H   0  0  0  0  0  0  0  0  0  0  0  0
   -8.7699   17.7641  -30.7324 H   0  0  0  0  0  0  0  0  0  0  0  0
   -9.0337   17.5407  -32.4676 H   0  0  0  0  0  0  0  0  0  0  0  0
   -6.5585   18.5121  -30.9914 H   0  0  0  0  0  0  0  0  0  0  0  0
   -6.6443   17.4523  -32.4049 H   0  0  0  0  0  0  0  0  0  0  0  0
   -6.6343   19.2194  -33.8508 H   0  0  0  0  0  0  0  0  0  0  0  0
   -0.4947   24.2318  -29.3479 H   0  0  0  0  0  0  0  0  0  0  0  0
   -1.8725   25.6263  -27.8051 H   0  0  0  0  0  0  0  0  0  0  0  0
  1  2  1  0
  2  3  2  0
  3  4  1  0
  4  5  2  0
  5  6  1  0
  6  7  1  0
  7  8  1  0
  8  9  1  0
  9 10  2  0
 10 11  1  0
 11 12  2  0
 12 13  1  0
 13 14  2  0
 13 15  1  0
 15 16  1  0
 15 17  1  0
 17 18  2  0
 18 19  1  0
 19 20  1  0
 20 21  1  0
 21 22  1  0
 22 23  1  0
 23 24  1  0
  5 25  1  0
 25 26  2  0
 26  2  1  0
 12  8  1  0
 24 17  1  0
 24 11  1  0
 23 19  1  0
  1 27  1  0
  1 28  1  0
  1 29  1  0
  3 30  1  0
  4 31  1  0
  6 32  1  0
  6 33  1  0
  7 34  1  0
  7 35  1  0
  9 36  1  0
 16 37  1  0
 16 38  1  0
 16 39  1  0
 18 40  1  0
 19 41  1  6
 20 42  1  0
 20 43  1  0
 21 44  1  0
 21 45  1  0
 22 46  1  0
 22 47  1  0
 23 48  1  6
 25 49  1  0
 26 50  1  0
M  CHG  1  18   1
M  END
>  <UniqueID>  (4) 
4

>  <SMILES>  (4) 
Cc1ccc(CCn2cnc3c2C(=O)N(C)C2=[NH+][C@@H]4CCC[C@@H]4N23)cc1

>  <Energy>  (4) 
100.82661789589993

>  <Genealogy>  (4) 
Cc1ccc(CCn2cnc3c2C(=O)N(C)C2=[NH+]C4CCCC4N23)cc1 (protonated)
Cc1ccc(CCn2cnc3c2C(=O)N(C)C2=[NH+][C@@H]4CCC[C@@H]4N23)cc1 (chirality)
Cc1ccc(CCn2cnc3c2C(=O)N(C)C2=[NH+][C@@H]4CCC[C@@H]4N23)cc1 (3D coordinates assigned)
Cc1ccc(CCn2cnc3c2C(=O)N(C)C2=[NH+][C@@H]4CCC[C@@H]4N23)cc1 (nonaromatic ring conformer: 100.82661789589993 kcal/mol)

>  <smiles>  (4) 
Cc1ccc(CCn2cnc3c2C(=O)N(C)C2=NC4CCCC4N23)cc1

>  <score_type>  (4) 
oracle

>  <origin>  (4) 
adg

>  <m_score__min__energy>  (4) 
-8.2100000000000009

>  <m_primary>  (4) 
energy

$$$$
4:0
     RDKit          3D

 41 41  0  0  0  0  0  0  0  0999 V2000
   -8.3250   18.5020  -31.2630 C   0  0  0  0  0  0  0  0  0  0  0  0
   -9.2050   19.0300  -32.3860 C   0  0  0  0  0  0  0  0  0  0  0  0
   -8.6970   20.2710  -32.8310 O   0  0  0  0  0  0  0  0  0  0  0  0
   -9.3990   21.3400  -32.2250 C   0  0  0  0  0  0  0  0  0  0  0  0
   -8.4320   22.2390  -31.4620 C   0  0  0  0  0  0  0  0  0  0  0  0
   -7.2940   22.5090  -32.2780 O   0  0  0  0  0  0  0  0  0  0  0  0
   -5.9560   22.4680  -31.8500 C   0  0  0  0  0  0  0  0  0  0  0  0
   -5.4690   23.3610  -30.9600 C   0  0  0  0  0  0  0  0  0  0  0  0
   -4.0610   23.3050  -30.4140 C   0  0  2  0  0  0  0  0  0  0  0  0
   -3.5160   24.6930  -30.2310 C   0  0  0  0  0  0  0  0  0  0  0  0
   -4.0310   25.6690  -30.8390 O   0  0  0  0  0  0  0  0  0  0  0  0
   -2.4210   24.9040  -29.4020 O   0  0  0  0  0  0  0  0  0  0  0  0
   -3.1170   22.4750  -31.2980 C   0  0  0  0  0  0  0  0  0  0  0  0
   -3.7870   21.1450  -31.6690 C   0  0  2  0  0  0  0  0  0  0  0  0
   -2.8750   20.2900  -32.4320 N   0  0  0  0  0  0  0  0  0  0  0  0
   -5.0660   21.4200  -32.4870 C   0  0  1  0  0  0  0  0  0  0  0  0
   -5.8200   20.1740  -32.6620 N   0  0  0  0  0  0  0  0  0  0  0  0
   -5.4260   19.1530  -33.5880 C   0  0  0  0  0  0  0  0  0  0  0  0
   -6.3060   17.9660  -33.8060 C   0  0  0  0  0  0  0  0  0  0  0  0
   -4.3600   19.2640  -34.2520 O   0  0  0  0  0  0  0  0  0  0  0  0
   -8.7694   18.7686  -30.2927 H   0  0  0  0  0  0  0  0  0  0  0  0
   -8.2468   17.4076  -31.3421 H   0  0  0  0  0  0  0  0  0  0  0  0
   -7.3226   18.9480  -31.3421 H   0  0  0  0  0  0  0  0  0  0  0  0
   -9.2066   18.3129  -33.2201 H   0  0  0  0  0  0  0  0  0  0  0  0
  -10.2332   19.1624  -32.0182 H   0  0  0  0  0  0  0  0  0  0  0  0
   -9.9060   21.9293  -33.0032 H   0  0  0  0  0  0  0  0  0  0  0  0
  -10.1395   20.9307  -31.5220 H   0  0  0  0  0  0  0  0  0  0  0  0
   -8.9333   23.1842  -31.2065 H   0  0  0  0  0  0  0  0  0  0  0  0
   -8.1113   21.7345  -30.5386 H   0  0  0  0  0  0  0  0  0  0  0  0
   -6.1309   24.1693  -30.6157 H   0  0  0  0  0  0  0  0  0  0  0  0
   -4.1153   22.8008  -29.4379 H   0  0  0  0  0  0  0  0  0  0  0  0
   -2.8878   23.0368  -32.2155 H   0  0  0  0  0  0  0  0  0  0  0  0
   -2.1876   22.2717  -30.7458 H   0  0  0  0  0  0  0  0  0  0  0  0
   -4.0510   20.6165  -30.7411 H   0  0  0  0  0  0  0  0  0  0  0  0
   -2.8830   20.6010  -33.4310 H   0  0  0  0  0  0  0  0  0  0  0  0
   -3.2220   19.3030  -32.4110 H   0  0  0  0  0  0  0  0  0  0  0  0
   -4.7462   21.8145  -33.4628 H   0  0  0  0  0  0  0  0  0  0  0  0
   -6.7560   20.0900  -32.2040 H   0  0  0  0  0  0  0  0  0  0  0  0
   -6.6122   17.5530  -32.8335 H   0  0  0  0  0  0  0  0  0  0  0  0
   -7.1985   18.2703  -34.3725 H   0  0  0  0  0  0  0  0  0  0  0  0
   -5.7555   17.2005  -34.3725 H   0  0  0  0  0  0  0  0  0  0  0  0
  1  2  1  0
  2  3  1  0
  3  4  1  0
  4  5  1  0
  5  6  1  0
  6  7  1  0
  7  8  2  0
  8  9  1  0
  9 10  1  0
 10 11  2  0
 10 12  1  0
  9 13  1  0
 13 14  1  0
 14 15  1  0
 14 16  1  0
 16 17  1  0
 17 18  1  0
 18 19  1  0
 18 20  2  0
 16  7  1  0
  1 21  1  0
  1 22  1  0
  1 23  1  0
  2 24  1  0
  2 25  1  0
  4 26  1  0
  4 27  1  0
  5 28  1  0
  5 29  1  0
  8 30  1  0
  9 31  1  1
 13 32  1  0
 13 33  1  0
 14 34  1  1
 15 35  1  0
 15 36  1  0
 16 37  1  6
 17 38  1  0
 19 39  1  0
 19 40  1  0
 19 41  1  0
M  CHG  1  12  -1
M  END
>  <UniqueID>  (5) 
5

>  <SMILES>  (5) 
CCOCCOC1=C[C@H](C(=O)[O-])C[C@H](N)C1NC(C)=O

>  <Energy>  (5) 
30.862196085096475

>  <Genealogy>  (5) 
CCOCCOC1=CC(C(=O)[O-])CC(N)C1NC(C)=O (protonated)
CCOCCOC1=C[C@H](C(=O)[O-])C[C@H](N)C1NC(C)=O (chirality)
CCOCCOC1=C[C@H](C(=O)[O-])C[C@H](N)C1NC(C)=O (3D coordinates assigned)
CCOCCOC1=C[C@H](C(=O)[O-])C[C@H](N)C1NC(C)=O (nonaromatic ring conformer: 30.862196085096475 kcal/mol)

>  <smiles>  (5) 
CCOCCOC1=CC(C(=O)O)CC(N)C1NC(C)=O

>  <score_type>  (5) 
oracle

>  <origin>  (5) 
adg

>  <m_score__min__energy>  (5) 
-8.1899999999999995

>  <m_primary>  (5) 
energy

$$$$
5:0
     RDKit          3D

 73 77  0  0  0  0  0  0  0  0999 V2000
   -2.5950   16.7120  -33.5500 C   0  0  0  0  0  0  0  0  0  0  0  0
   -1.7800   17.4800  -34.4280 O   0  0  0  0  0  0  0  0  0  0  0  0
   -1.4390   18.8250  -34.2200 C   0  0  0  0  0  0  0  0  0  0  0  0
   -0.4200   19.4690  -34.9490 C   0  0  0  0  0  0  0  0  0  0  0  0
   -0.1200   20.8260  -34.7110 C   0  0  0  0  0  0  0  0  0  0  0  0
    0.8850   21.5100  -35.4120 O   0  0  0  0  0  0  0  0  0  0  0  0
    2.2490   21.5750  -35.0060 C   0  0  0  0  0  0  0  0  0  0  0  0
   -0.8440   21.5270  -33.7420 C   0  0  0  0  0  0  0  0  0  0  0  0
   -1.8540   20.8920  -33.0100 C   0  0  0  0  0  0  0  0  0  0  0  0
   -2.5890   21.6260  -32.0180 N   0  0  0  0  0  0  0  0  0  0  0  0
   -3.9070   22.1780  -32.3680 C   0  0  0  0  0  0  0  0  0  0  0  0
   -4.9960   21.6550  -31.4220 C   0  0  0  0  0  0  0  0  0  0  0  0
   -5.0210   20.1190  -31.3990 C   0  0  0  0  0  0  0  0  0  0  0  0
   -6.2010   19.5850  -32.1170 N   0  0  0  0  0  0  0  0  0  0  0  0
   -6.5360   18.2090  -31.6670 C   0  0  0  0  0  0  0  0  0  0  0  0
   -7.3150   17.4270  -32.7370 C   0  0  0  0  0  0  0  0  0  0  0  0
   -6.5500   17.2910  -34.0020 N   0  0  0  0  0  0  0  0  0  0  0  0
   -5.9060   15.9720  -34.1020 C   0  0  0  0  0  0  0  0  0  0  0  0
   -5.5560   18.3680  -34.2100 C   0  0  0  0  0  0  0  0  0  0  0  0
   -6.0290   19.6910  -33.5890 C   0  0  0  0  0  0  0  0  0  0  0  0
   -2.1520   21.5600  -30.6450 C   0  0  0  0  0  0  0  0  0  0  0  0
   -1.7700   20.3260  -30.0860 C   0  0  0  0  0  0  0  0  0  0  0  0
   -1.3500   20.2460  -28.7550 C   0  0  0  0  0  0  0  0  0  0  0  0
   -1.3100   21.4010  -27.9620 C   0  0  0  0  0  0  0  0  0  0  0  0
   -0.9000   21.3490  -26.6630 N   0  0  0  0  0  0  0  0  0  0  0  0
   -0.8640   22.4710  -25.8930 C   0  0  0  0  0  0  0  0  0  0  0  0
   -1.2550   23.7050  -26.4380 C   0  0  0  0  0  0  0  0  0  0  0  0
   -1.2300   24.9490  -25.6440 C   0  0  0  0  0  0  0  0  0  0  0  0
   -1.9300   26.1270  -25.8610 C   0  0  0  0  0  0  0  0  0  0  0  0
   -1.6090   27.0180  -24.9020 N   0  0  0  0  0  0  0  0  0  0  0  0
   -0.7440   26.4340  -24.0880 N   0  0  0  0  0  0  0  0  0  0  0  0
   -0.1140   27.1020  -22.9570 C   0  0  0  0  0  0  0  0  0  0  0  0
   -0.4790   25.1850  -24.5110 C   0  0  0  0  0  0  0  0  0  0  0  0
   -1.6660   23.7510  -27.7340 N   0  0  0  0  0  0  0  0  0  0  0  0
   -1.7020   22.6370  -28.5100 C   0  0  0  0  0  0  0  0  0  0  0  0
   -2.1250   22.7140  -29.8410 C   0  0  0  0  0  0  0  0  0  0  0  0
   -2.1470   19.5450  -33.2520 C   0  0  0  0  0  0  0  0  0  0  0  0
   -2.3393   16.9530  -32.5076 H   0  0  0  0  0  0  0  0  0  0  0  0
   -3.6538   16.9483  -33.7318 H   0  0  0  0  0  0  0  0  0  0  0  0
   -2.4219   15.6410  -33.7318 H   0  0  0  0  0  0  0  0  0  0  0  0
    0.1453   18.9095  -35.7089 H   0  0  0  0  0  0  0  0  0  0  0  0
    2.3048   21.5777  -33.9074 H   0  0  0  0  0  0  0  0  0  0  0  0
    2.7904   20.7016  -35.3985 H   0  0  0  0  0  0  0  0  0  0  0  0
    2.7049   22.4959  -35.3985 H   0  0  0  0  0  0  0  0  0  0  0  0
   -0.6179   22.5868  -33.5532 H   0  0  0  0  0  0  0  0  0  0  0  0
   -3.8669   23.2750  -32.2975 H   0  0  0  0  0  0  0  0  0  0  0  0
   -4.1553   21.8643  -33.3927 H   0  0  0  0  0  0  0  0  0  0  0  0
   -4.7969   22.0259  -30.4057 H   0  0  0  0  0  0  0  0  0  0  0  0
   -5.9716   22.0140  -31.7816 H   0  0  0  0  0  0  0  0  0  0  0  0
   -4.1076   19.7393  -31.8803 H   0  0  0  0  0  0  0  0  0  0  0  0
   -5.0767   19.7902  -30.3508 H   0  0  0  0  0  0  0  0  0  0  0  0
   -5.6028   17.6714  -31.4433 H   0  0  0  0  0  0  0  0  0  0  0  0
   -7.1729   18.2892  -30.7737 H   0  0  0  0  0  0  0  0  0  0  0  0
   -7.5385   16.4224  -32.3487 H   0  0  0  0  0  0  0  0  0  0  0  0
   -8.2365   17.9854  -32.9586 H   0  0  0  0  0  0  0  0  0  0  0  0
   -5.7146   15.5799  -33.0922 H   0  0  0  0  0  0  0  0  0  0  0  0
   -6.5680   15.2809  -34.6443 H   0  0  0  0  0  0  0  0  0  0  0  0
   -4.9539   16.0690  -34.6443 H   0  0  0  0  0  0  0  0  0  0  0  0
   -4.6047   18.0728  -33.7431 H   0  0  0  0  0  0  0  0  0  0  0  0
   -5.4280   18.5183  -35.2921 H   0  0  0  0  0  0  0  0  0  0  0  0
   -5.2836   20.4708  -33.8042 H   0  0  0  0  0  0  0  0  0  0  0  0
   -7.0058   19.9422  -34.0279 H   0  0  0  0  0  0  0  0  0  0  0  0
   -1.8023   19.4156  -30.7025 H   0  0  0  0  0  0  0  0  0  0  0  0
   -1.0509   19.2765  -28.3300 H   0  0  0  0  0  0  0  0  0  0  0  0
   -0.6060   20.4390  -26.2390 H   0  0  0  0  0  0  0  0  0  0  0  0
   -0.5296   22.4114  -24.8468 H   0  0  0  0  0  0  0  0  0  0  0  0
   -2.6357   26.3057  -26.6857 H   0  0  0  0  0  0  0  0  0  0  0  0
   -0.5079   26.6844  -22.0187 H   0  0  0  0  0  0  0  0  0  0  0  0
    0.9742   26.9468  -22.9992 H   0  0  0  0  0  0  0  0  0  0  0  0
   -0.3326   28.1792  -22.9992 H   0  0  0  0  0  0  0  0  0  0  0  0
    0.2151   24.4757  -24.0365 H   0  0  0  0  0  0  0  0  0  0  0  0
   -2.4380   23.6813  -30.2609 H   0  0  0  0  0  0  0  0  0  0  0  0
   -2.9413   19.0480  -32.6757 H   0  0  0  0  0  0  0  0  0  0  0  0
  1  2  1  0
  2  3  1  0
  3  4  2  0
  4  5  1  0
  5  6  1  0
  6  7  1  0
  5  8  2  0
  8  9  1  0
  9 10  1  0
 10 11  1  0
 11 12  1  0
 12 13  1  0
 13 14  1  0
 14 15  1  0
 15 16  1  0
 16 17  1  0
 17 18  1  0
 17 19  1  0
 19 20  1  0
 10 21  1  0
 21 22  2  0
 22 23  1  0
 23 24  2  0
 24 25  1  0
 25 26  2  0
 26 27  1  0
 27 28  1  0
 28 29  1  0
 29 30  2  0
 30 31  1  0
 31 32  1  0
 31 33  1  0
 27 34  2  0
 34 35  1  0
 35 36  2  0
  9 37  2  0
 37  3  1  0
 20 14  1  0
 36 21  1  0
 35 24  1  0
 33 28  2  0
  1 38  1  0
  1 39  1  0
  1 40  1  0
  4 41  1  0
  7 42  1  0
  7 43  1  0
  7 44  1  0
  8 45  1  0
 11 46  1  0
 11 47  1  0
 12 48  1  0
 12 49  1  0
 13 50  1  0
 13 51  1  0
 15 52  1  0
 15 53  1  0
 16 54  1  0
 16 55  1  0
 18 56  1  0
 18 57  1  0
 18 58  1  0
 19 59  1  0
 19 60  1  0
 20 61  1  0
 20 62  1  0
 22 63  1  0
 23 64  1  0
 25 65  1  0
 26 66  1  0
 29 67  1  0
 32 68  1  0
 32 69  1  0
 32 70  1  0
 33 71  1  0
 36 72  1  0
 37 73  1  0
M  CHG  1  25   1
M  END
>  <UniqueID>  (6) 
6

>  <SMILES>  (6) 
COc1cc(OC)cc(N(CCCN2CCN(C)CC2)c2ccc3[nH+]cc(-c4cnn(C)c4)nc3c2)c1

>  <Energy>  (6) 
129.56769409204082

>  <Genealogy>  (6) 
COc1cc(OC)cc(N(CCCN2CCN(C)CC2)c2ccc3[nH+]cc(-c4cnn(C)c4)nc3c2)c1 (protonated)
COc1cc(OC)cc(N(CCCN2CCN(C)CC2)c2ccc3[nH+]cc(-c4cnn(C)c4)nc3c2)c1 (3D coordinates assigned)
COc1cc(OC)cc(N(CCCN2CCN(C)CC2)c2ccc3[nH+]cc(-c4cnn(C)c4)nc3c2)c1 (nonaromatic ring conformer: 129.56769409204082 kcal/mol)

>  <smiles>  (6) 
COc1cc(OC)cc(N(CCCN2CCN(C)CC2)c2ccc3ncc(-c4cnn(C)c4)nc3c2)c1

>  <score_type>  (6) 
oracle

>  <origin>  (6) 
adg

>  <m_score__min__energy>  (6) 
-8.5800000000000001

>  <m_primary>  (6) 
energy

$$$$
6:0
     RDKit          3D

 40 42  0  0  0  0  0  0  0  0999 V2000
   -3.5760   22.2650  -27.9170 C   0  0  0  0  0  0  0  0  0  0  0  0
   -4.0030   23.6550  -27.4190 C   0  0  0  0  0  0  0  0  0  0  0  0
   -3.0060   24.7340  -27.6460 N   0  0  2  0  0  0  0  0  0  0  0  0
   -2.3540   24.6730  -28.9390 C   0  0  0  0  0  0  0  0  0  0  0  0
   -1.1100   24.4810  -29.0280 O   0  0  0  0  0  0  0  0  0  0  0  0
   -3.1290   24.9200  -30.1200 N   0  0  0  0  0  0  0  0  0  0  0  0
   -4.4250   24.3830  -30.4200 C   0  0  0  0  0  0  0  0  0  0  0  0
   -5.6080   25.0800  -30.1120 C   0  0  0  0  0  0  0  0  0  0  0  0
   -6.8540   24.5370  -30.4380 C   0  0  0  0  0  0  0  0  0  0  0  0
   -6.9370   23.2970  -31.0870 C   0  0  0  0  0  0  0  0  0  0  0  0
   -8.1830   22.7420  -31.4170 C   0  0  0  0  0  0  0  0  0  0  0  0
   -8.2510   21.5100  -32.0720 C   0  0  0  0  0  0  0  0  0  0  0  0
   -7.0780   20.8240  -32.4020 C   0  0  0  0  0  0  0  0  0  0  0  0
   -5.8310   21.3660  -32.0790 C   0  0  0  0  0  0  0  0  0  0  0  0
   -5.7490   22.6030  -31.4210 C   0  0  0  0  0  0  0  0  0  0  0  0
   -4.5030   23.1560  -31.0910 C   0  0  0  0  0  0  0  0  0  0  0  0
   -2.0530   24.8560  -26.5540 C   0  0  0  0  0  0  0  0  0  0  0  0
   -2.0080   26.0440  -25.7970 C   0  0  0  0  0  0  0  0  0  0  0  0
   -1.1230   26.1720  -24.7230 C   0  0  0  0  0  0  0  0  0  0  0  0
   -0.2780   25.1140  -24.3800 C   0  0  0  0  0  0  0  0  0  0  0  0
   -0.3210   23.9230  -25.1060 C   0  0  0  0  0  0  0  0  0  0  0  0
   -1.2040   23.7880  -26.1820 C   0  0  0  0  0  0  0  0  0  0  0  0
   -3.3755   21.6122  -27.0547 H   0  0  0  0  0  0  0  0  0  0  0  0
   -4.3820   21.8303  -28.5264 H   0  0  0  0  0  0  0  0  0  0  0  0
   -2.6649   22.3577  -28.5264 H   0  0  0  0  0  0  0  0  0  0  0  0
   -4.9321   23.9334  -27.9378 H   0  0  0  0  0  0  0  0  0  0  0  0
   -4.1224   23.5692  -26.3289 H   0  0  0  0  0  0  0  0  0  0  0  0
   -3.5620   25.6220  -27.6790 H   0  0  0  0  0  0  0  0  0  0  0  0
   -5.5518   26.0580  -29.6117 H   0  0  0  0  0  0  0  0  0  0  0  0
   -7.7735   25.0849  -30.1843 H   0  0  0  0  0  0  0  0  0  0  0  0
   -9.1082   23.2783  -31.1593 H   0  0  0  0  0  0  0  0  0  0  0  0
   -9.2297   21.0785  -32.3288 H   0  0  0  0  0  0  0  0  0  0  0  0
   -7.1370   19.8542  -32.9177 H   0  0  0  0  0  0  0  0  0  0  0  0
   -4.9116   20.8219  -32.3411 H   0  0  0  0  0  0  0  0  0  0  0  0
   -3.5800   22.6220  -31.3612 H   0  0  0  0  0  0  0  0  0  0  0  0
   -2.6763   26.8790  -26.0542 H   0  0  0  0  0  0  0  0  0  0  0  0
   -1.0918   27.1082  -24.1464 H   0  0  0  0  0  0  0  0  0  0  0  0
    0.4214   25.2196  -23.5376 H   0  0  0  0  0  0  0  0  0  0  0  0
    0.3411   23.0886  -24.8313 H   0  0  0  0  0  0  0  0  0  0  0  0
   -1.2384   22.8429  -26.7438 H   0  0  0  0  0  0  0  0  0  0  0  0
  1  2  1  0
  2  3  1  0
  3  4  1  0
  4  5  2  0
  4  6  1  0
  6  7  1  0
  7  8  2  0
  8  9  1  0
  9 10  2  0
 10 11  1  0
 11 12  2  0
 12 13  1  0
 13 14  2  0
 14 15  1  0
 15 16  2  0
  3 17  1  0
 17 18  2  0
 18 19  1  0
 19 20  2  0
 20 21  1  0
 21 22  2  0
 16  7  1  0
 22 17  1  0
 15 10  1  0
  1 23  1  0
  1 24  1  0
  1 25  1  0
  2 26  1  0
  2 27  1  0
  3 28  1  6
  8 29  1  0
  9 30  1  0
 11 31  1  0
 12 32  1  0
 13 33  1  0
 14 34  1  0
 16 35  1  0
 18 36  1  0
 19 37  1  0
 20 38  1  0
 21 39  1  0
 22 40  1  0
M  CHG  2   3   1   6  -1
M  END
>  <UniqueID>  (7) 
7

>  <SMILES>  (7) 
CC[N@H+](C(=O)[N-]c1ccc2ccccc2c1)c1ccccc1

>  <Energy>  (7) 
57.579002660015085

>  <Genealogy>  (7) 
CC[NH+](C(=O)[N-]c1ccc2ccccc2c1)c1ccccc1 (protonated)
CC[N@H+](C(=O)[N-]c1ccc2ccccc2c1)c1ccccc1 (chirality)
CC[N@H+](C(=O)[N-]c1ccc2ccccc2c1)c1ccccc1 (3D coordinates assigned)
CC[N@H+](C(=O)[N-]c1ccc2ccccc2c1)c1ccccc1 (optimized conformer: 57.579002660015085 kcal/mol)

>  <smiles>  (7) 
CCN(C(=O)Nc1ccc2ccccc2c1)c1ccccc1

>  <score_type>  (7) 
oracle

>  <origin>  (7) 
adg

>  <m_score__min__energy>  (7) 
-9.0299999999999994

>  <m_primary>  (7) 
energy

$$$$
7:0
     RDKit          3D

 46 49  0  0  0  0  0  0  0  0999 V2000
   -1.7360   16.0120  -34.0190 C   0  0  0  0  0  0  0  0  0  0  0  0
   -1.9290   17.2640  -34.6700 O   0  0  0  0  0  0  0  0  0  0  0  0
   -2.7640   18.2870  -34.1940 C   0  0  0  0  0  0  0  0  0  0  0  0
   -4.1710   18.2290  -34.3390 C   0  0  0  0  0  0  0  0  0  0  0  0
   -4.9440   19.2790  -33.8480 C   0  0  0  0  0  0  0  0  0  0  0  0
   -4.3540   20.3670  -33.2310 C   0  0  0  0  0  0  0  0  0  0  0  0
   -2.9740   20.4440  -33.0540 C   0  0  0  0  0  0  0  0  0  0  0  0
   -2.1660   19.3940  -33.5490 C   0  0  0  0  0  0  0  0  0  0  0  0
   -0.7690   19.4100  -33.4120 O   0  0  0  0  0  0  0  0  0  0  0  0
   -0.0410   20.4000  -32.6940 C   0  0  0  0  0  0  0  0  0  0  0  0
   -5.4210   21.2540  -32.7890 C   0  0  0  0  0  0  0  0  0  0  0  0
   -6.6140   20.6720  -33.0990 C   0  0  0  0  0  0  0  0  0  0  0  0
   -7.4580   21.0110  -32.0530 C   0  0  0  0  0  0  0  0  0  0  0  0
   -8.8140   20.4960  -31.8000 C   0  0  0  0  0  0  0  0  0  0  0  0
   -9.4330   19.5700  -32.6960 N   0  0  0  0  0  0  0  0  0  0  0  0
   -9.4470   20.8910  -30.7850 O   0  0  0  0  0  0  0  0  0  0  0  0
   -6.7780   21.7810  -31.1720 N   0  0  0  0  0  0  0  0  0  0  0  0
   -5.5380   21.9190  -31.6220 N   0  0  0  0  0  0  0  0  0  0  0  0
   -4.5000   22.5880  -30.8920 C   0  0  0  0  0  0  0  0  0  0  0  0
   -3.3530   21.8860  -30.4930 C   0  0  0  0  0  0  0  0  0  0  0  0
   -2.3420   22.5350  -29.7780 C   0  0  0  0  0  0  0  0  0  0  0  0
   -2.4770   23.8880  -29.4380 C   0  0  0  0  0  0  0  0  0  0  0  0
   -1.2070   24.7250  -28.5520 S   0  0  0  0  0  0  0  0  0  0  0  0
   -1.2270   26.4030  -28.9660 N   0  0  0  0  0  0  0  0  0  0  0  0
   -1.4410   24.5680  -27.0760 O   0  0  0  0  0  0  0  0  0  0  0  0
    0.1380   24.1490  -28.8950 O   0  0  0  0  0  0  0  0  0  0  0  0
   -3.6330   24.5870  -29.8180 C   0  0  0  0  0  0  0  0  0  0  0  0
   -4.6420   23.9380  -30.5330 C   0  0  0  0  0  0  0  0  0  0  0  0
   -6.4440   19.3680  -33.8230 C   0  0  0  0  0  0  0  0  0  0  0  0
   -1.7585   16.1582  -32.9290 H   0  0  0  0  0  0  0  0  0  0  0  0
   -2.5379   15.3186  -34.3126 H   0  0  0  0  0  0  0  0  0  0  0  0
   -0.7625   15.5923  -34.3126 H   0  0  0  0  0  0  0  0  0  0  0  0
   -4.6466   17.3682  -34.8317 H   0  0  0  0  0  0  0  0  0  0  0  0
   -2.5218   21.3046  -32.5393 H   0  0  0  0  0  0  0  0  0  0  0  0
   -0.1634   20.2335  -31.6136 H   0  0  0  0  0  0  0  0  0  0  0  0
    1.0251   20.3337  -32.9567 H   0  0  0  0  0  0  0  0  0  0  0  0
   -0.4220   21.3979  -32.9567 H   0  0  0  0  0  0  0  0  0  0  0  0
  -10.3820   19.1890  -32.4810 H   0  0  0  0  0  0  0  0  0  0  0  0
   -8.9810   19.3010  -33.5970 H   0  0  0  0  0  0  0  0  0  0  0  0
   -3.2485   20.8201  -30.7438 H   0  0  0  0  0  0  0  0  0  0  0  0
   -1.4383   21.9824  -29.4815 H   0  0  0  0  0  0  0  0  0  0  0  0
   -0.8830   26.4790  -29.9500 H   0  0  0  0  0  0  0  0  0  0  0  0
   -3.7447   25.6485  -29.5521 H   0  0  0  0  0  0  0  0  0  0  0  0
   -5.5522   24.4870  -30.8162 H   0  0  0  0  0  0  0  0  0  0  0  0
   -6.8937   18.5312  -33.2684 H   0  0  0  0  0  0  0  0  0  0  0  0
   -6.9282   19.3185  -34.8094 H   0  0  0  0  0  0  0  0  0  0  0  0
  1  2  1  0
  2  3  1  0
  3  4  2  0
  4  5  1  0
  5  6  2  0
  6  7  1  0
  7  8  2  0
  8  9  1  0
  9 10  1  0
  6 11  1  0
 11 12  2  0
 12 13  1  0
 13 14  1  0
 14 15  1  0
 14 16  2  0
 13 17  2  0
 17 18  1  0
 18 19  1  0
 19 20  2  0
 20 21  1  0
 21 22  2  0
 22 23  1  0
 23 24  1  0
 23 25  2  0
 23 26  2  0
 22 27  1  0
 27 28  2  0
 12 29  1  0
  8  3  1  0
 18 11  1  0
 28 19  1  0
 29  5  1  0
  1 30  1  0
  1 31  1  0
  1 32  1  0
  4 33  1  0
  7 34  1  0
 10 35  1  0
 10 36  1  0
 10 37  1  0
 15 38  1  0
 15 39  1  0
 20 40  1  0
 21 41  1  0
 24 42  1  0
 27 43  1  0
 28 44  1  0
 29 45  1  0
 29 46  1  0
M  CHG  1  24  -1
M  END
>  <UniqueID>  (8) 
8

>  <SMILES>  (8) 
COc1cc2c(cc1OC)-c1c(c(C(N)=O)nn1-c1ccc(S([NH-])(=O)=O)cc1)C2

>  <Energy>  (8) 
122.15757753219424

>  <Genealogy>  (8) 
COc1cc2c(cc1OC)-c1c(c(C(N)=O)nn1-c1ccc(S([NH-])(=O)=O)cc1)C2 (protonated)
COc1cc2c(cc1OC)-c1c(c(C(N)=O)nn1-c1ccc(S([NH-])(=O)=O)cc1)C2 (3D coordinates assigned)
COc1cc2c(cc1OC)-c1c(c(C(N)=O)nn1-c1ccc(S([NH-])(=O)=O)cc1)C2 (nonaromatic ring conformer: 122.15757753219424 kcal/mol)

>  <smiles>  (8) 
COc1cc2c(cc1OC)-c1c(c(C(N)=O)nn1-c1ccc(S(N)(=O)=O)cc1)C2

>  <score_type>  (8) 
oracle

>  <origin>  (8) 
adg

>  <m_score__min__energy>  (8) 
-10.58

>  <m_primary>  (8) 
energy

$$$$
8:0
     RDKit          3D

 41 42  0  0  0  0  0  0  0  0999 V2000
   -6.6950   15.7490  -33.9220 C   0  0  0  0  0  0  0  0  0  0  0  0
   -5.5370   16.3920  -34.4460 O   0  0  0  0  0  0  0  0  0  0  0  0
   -5.1150   17.6820  -34.0860 C   0  0  0  0  0  0  0  0  0  0  0  0
   -3.8190   17.8420  -33.5850 C   0  0  0  0  0  0  0  0  0  0  0  0
   -3.3570   19.1010  -33.1940 C   0  0  0  0  0  0  0  0  0  0  0  0
   -4.1920   20.2310  -33.2910 C   0  0  0  0  0  0  0  0  0  0  0  0
   -3.7050   21.5550  -32.8180 C   0  0  0  0  0  0  0  0  0  0  0  0
   -2.4700   21.7420  -32.6480 O   0  0  0  0  0  0  0  0  0  0  0  0
   -4.6490   22.6840  -32.5040 C   0  0  0  0  0  0  0  0  0  0  0  0
   -4.5060   23.0890  -31.1430 O   0  0  0  0  0  0  0  0  0  0  0  0
   -4.9650   24.3170  -30.6550 C   0  0  0  0  0  0  0  0  0  0  0  0
   -4.2880   25.3710  -30.8200 O   0  0  0  0  0  0  0  0  0  0  0  0
   -6.2610   24.3750  -29.9090 C   0  0  0  0  0  0  0  0  0  0  0  0
   -7.0750   23.0920  -30.0910 C   0  0  0  0  0  0  0  0  0  0  0  0
   -8.0460   23.0880  -31.6450 S   0  0  0  0  0  0  0  0  0  0  0  0
   -8.2230   21.3020  -31.7380 C   0  0  0  0  0  0  0  0  0  0  0  0
   -9.3530   20.7350  -32.3430 C   0  0  0  0  0  0  0  0  0  0  0  0
   -9.4790   19.3420  -32.4390 C   0  0  0  0  0  0  0  0  0  0  0  0
   -8.4740   18.5140  -31.9330 C   0  0  0  0  0  0  0  0  0  0  0  0
   -7.3280   19.0770  -31.3570 C   0  0  0  0  0  0  0  0  0  0  0  0
   -7.1990   20.4700  -31.2660 C   0  0  0  0  0  0  0  0  0  0  0  0
   -5.4880   20.0720  -33.8180 C   0  0  0  0  0  0  0  0  0  0  0  0
   -5.9500   18.8090  -34.2070 C   0  0  0  0  0  0  0  0  0  0  0  0
   -6.6595   15.7687  -32.8227 H   0  0  0  0  0  0  0  0  0  0  0  0
   -7.5959   16.2761  -34.2693 H   0  0  0  0  0  0  0  0  0  0  0  0
   -6.7239   14.7057  -34.2693 H   0  0  0  0  0  0  0  0  0  0  0  0
   -3.1570   16.9678  -33.4980 H   0  0  0  0  0  0  0  0  0  0  0  0
   -2.3331   19.2107  -32.8073 H   0  0  0  0  0  0  0  0  0  0  0  0
   -4.4250   23.5371  -33.1613 H   0  0  0  0  0  0  0  0  0  0  0  0
   -5.6814   22.3414  -32.6674 H   0  0  0  0  0  0  0  0  0  0  0  0
   -6.0505   24.5151  -28.8385 H   0  0  0  0  0  0  0  0  0  0  0  0
   -6.8495   25.2146  -30.3074 H   0  0  0  0  0  0  0  0  0  0  0  0
   -6.3846   22.2357  -30.1048 H   0  0  0  0  0  0  0  0  0  0  0  0
   -7.7857   23.0268  -29.2539 H   0  0  0  0  0  0  0  0  0  0  0  0
  -10.1441   21.3855  -32.7441 H   0  0  0  0  0  0  0  0  0  0  0  0
  -10.3687   18.9013  -32.9125 H   0  0  0  0  0  0  0  0  0  0  0  0
   -8.5825   17.4207  -31.9869 H   0  0  0  0  0  0  0  0  0  0  0  0
   -6.5282   18.4252  -30.9756 H   0  0  0  0  0  0  0  0  0  0  0  0
   -6.2932   20.9103  -30.8237 H   0  0  0  0  0  0  0  0  0  0  0  0
   -6.1438   20.9486  -33.9251 H   0  0  0  0  0  0  0  0  0  0  0  0
   -6.9681   18.6969  -34.6082 H   0  0  0  0  0  0  0  0  0  0  0  0
  1  2  1  0
  2  3  1  0
  3  4  2  0
  4  5  1  0
  5  6  2  0
  6  7  1  0
  7  8  2  0
  7  9  1  0
  9 10  1  0
 10 11  1  0
 11 12  2  0
 11 13  1  0
 13 14  1  0
 14 15  1  0
 15 16  1  0
 16 17  2  0
 17 18  1  0
 18 19  2  0
 19 20  1  0
 20 21  2  0
  6 22  1  0
 22 23  2  0
 23  3  1  0
 21 16  1  0
  1 24  1  0
  1 25  1  0
  1 26  1  0
  4 27  1  0
  5 28  1  0
  9 29  1  0
  9 30  1  0
 13 31  1  0
 13 32  1  0
 14 33  1  0
 14 34  1  0
 17 35  1  0
 18 36  1  0
 19 37  1  0
 20 38  1  0
 21 39  1  0
 22 40  1  0
 23 41  1  0
M  END
>  <UniqueID>  (9) 
9

>  <SMILES>  (9) 
COc1ccc(C(=O)COC(=O)CCSc2ccccc2)cc1

>  <Energy>  (9) 
30.34551835444216

>  <Genealogy>  (9) 
COc1ccc(C(=O)COC(=O)CCSc2ccccc2)cc1 (3D coordinates assigned)
COc1ccc(C(=O)COC(=O)CCSc2ccccc2)cc1 (optimized conformer: 30.34551835444216 kcal/mol)

>  <smiles>  (9) 
COc1ccc(C(=O)COC(=O)CCSc2ccccc2)cc1

>  <score_type>  (9) 
oracle

>  <origin>  (9) 
adg

>  <m_score__min__energy>  (9) 
-8.2699999999999996

>  <m_primary>  (9) 
energy

$$$$
9:0
     RDKit          3D

 37 38  0  0  0  0  0  0  0  0999 V2000
   -3.7050   24.8740  -26.7030 C   0  0  0  0  0  0  0  0  0  0  0  0
   -3.8570   23.8210  -27.8000 C   0  0  0  0  0  0  0  0  0  0  0  0
   -2.6870   23.8520  -28.7920 C   0  0  0  0  0  0  0  0  0  0  0  0
   -2.9170   22.9300  -29.9170 N   0  0  0  0  0  0  0  0  0  0  0  0
   -2.0040   21.8070  -30.1360 C   0  0  0  0  0  0  0  0  0  0  0  0
   -1.4640   21.8670  -31.5600 C   0  0  0  0  0  0  0  0  0  0  0  0
   -2.3480   21.1550  -32.4760 N   0  0  0  0  0  0  0  0  0  0  0  0
   -3.7910   21.2150  -32.4900 C   0  0  0  0  0  0  0  0  0  0  0  0
   -4.4640   20.2930  -33.3120 C   0  0  0  0  0  0  0  0  0  0  0  0
   -5.8620   20.2830  -33.4140 C   0  0  0  0  0  0  0  0  0  0  0  0
   -6.5280   19.3070  -34.2400 N   0  0  0  0  0  0  0  0  0  0  0  0
   -6.6960   18.0520  -33.5040 C   0  0  0  0  0  0  0  0  0  0  0  0
   -6.6040   21.2020  -32.6660 C   0  0  0  0  0  0  0  0  0  0  0  0
   -5.9600   22.1280  -31.8470 C   0  0  0  0  0  0  0  0  0  0  0  0
   -4.5560   22.1530  -31.7370 C   0  0  0  0  0  0  0  0  0  0  0  0
   -3.9790   23.2000  -30.8550 C   0  0  0  0  0  0  0  0  0  0  0  0
   -4.4910   24.3550  -30.8890 O   0  0  0  0  0  0  0  0  0  0  0  0
   -3.7749   24.3898  -25.7178 H   0  0  0  0  0  0  0  0  0  0  0  0
   -2.7264   25.3668  -26.8008 H   0  0  0  0  0  0  0  0  0  0  0  0
   -4.5043   25.6234  -26.8008 H   0  0  0  0  0  0  0  0  0  0  0  0
   -3.9009   22.8258  -27.3335 H   0  0  0  0  0  0  0  0  0  0  0  0
   -4.7802   24.0405  -28.3563 H   0  0  0  0  0  0  0  0  0  0  0  0
   -2.5753   24.8741  -29.1830 H   0  0  0  0  0  0  0  0  0  0  0  0
   -1.7749   23.5363  -28.2643 H   0  0  0  0  0  0  0  0  0  0  0  0
   -1.1684   21.8684  -29.4233 H   0  0  0  0  0  0  0  0  0  0  0  0
   -2.5425   20.8597  -29.9858 H   0  0  0  0  0  0  0  0  0  0  0  0
   -1.3894   22.9186  -31.8741 H   0  0  0  0  0  0  0  0  0  0  0  0
   -0.4726   21.3911  -31.5831 H   0  0  0  0  0  0  0  0  0  0  0  0
   -1.8820   20.4650  -33.1090 H   0  0  0  0  0  0  0  0  0  0  0  0
   -3.8788   19.5618  -33.8890 H   0  0  0  0  0  0  0  0  0  0  0  0
   -5.9690   19.1250  -35.1060 H   0  0  0  0  0  0  0  0  0  0  0  0
   -7.4680   19.6620  -34.5320 H   0  0  0  0  0  0  0  0  0  0  0  0
   -6.6689   18.2544  -32.4231 H   0  0  0  0  0  0  0  0  0  0  0  0
   -7.6628   17.5987  -33.7680 H   0  0  0  0  0  0  0  0  0  0  0  0
   -5.8824   17.3603  -33.7680 H   0  0  0  0  0  0  0  0  0  0  0  0
   -7.7024   21.1943  -32.7241 H   0  0  0  0  0  0  0  0  0  0  0  0
   -6.5593   22.8525  -31.2761 H   0  0  0  0  0  0  0  0  0  0  0  0
  1  2  1  0
  2  3  1  0
  3  4  1  0
  4  5  1  0
  5  6  1  0
  6  7  1  0
  7  8  1  0
  8  9  2  0
  9 10  1  0
 10 11  1  0
 11 12  1  0
 10 13  2  0
 13 14  1  0
 14 15  2  0
 15 16  1  0
 16 17  2  0
 16  4  1  0
 15  8  1  0
  1 18  1  0
  1 19  1  0
  1 20  1  0
  2 21  1  0
  2 22  1  0
  3 23  1  0
  3 24  1  0
  5 25  1  0
  5 26  1  0
  6 27  1  0
  6 28  1  0
  7 29  1  0
  9 30  1  0
 11 31  1  0
 11 32  1  0
 12 33  1  0
 12 34  1  0
 12 35  1  0
 13 36  1  0
 14 37  1  0
M  CHG  1  11   1
M  END
>  <UniqueID>  (10) 
10

>  <SMILES>  (10) 
CCCN1CCNc2cc([NH2+]C)ccc2C1=O

>  <Energy>  (10) 
41.061529963181535

>  <Genealogy>  (10) 
CCCN1CCNc2cc([NH2+]C)ccc2C1=O (protonated)
CCCN1CCNc2cc([NH2+]C)ccc2C1=O (3D coordinates assigned)
CCCN1CCNc2cc([NH2+]C)ccc2C1=O (nonaromatic ring conformer: 41.061529963181535 kcal/mol)

>  <smiles>  (10) 
CCCN1CCNc2cc(NC)ccc2C1=O

>  <score_type>  (10) 
oracle

>  <origin>  (10) 
adg

>  <m_score__min__energy>  (10) 
-4.1200000000000001

>  <m_primary>  (10) 
energy

$$$$
10:0
     RDKit          3D

 51 53  0  0  0  0  0  0  0  0999 V2000
   -8.7370   20.0220  -31.9770 C   0  0  0  0  0  0  0  0  0  0  0  0
   -7.3690   20.4370  -32.5390 C   0  0  0  0  0  0  0  0  0  0  0  0
   -6.3630   19.3470  -32.5540 N   0  0  0  0  0  0  0  0  0  0  0  0
   -6.3520   18.5500  -33.8000 C   0  0  0  0  0  0  0  0  0  0  0  0
   -6.4960   17.0570  -33.5070 C   0  0  0  0  0  0  0  0  0  0  0  0
   -5.0100   19.8120  -32.1680 C   0  0  0  0  0  0  0  0  0  0  0  0
   -4.1670   20.0450  -33.4210 C   0  0  0  0  0  0  0  0  0  0  0  0
   -3.3460   21.1720  -33.2030 O   0  0  0  0  0  0  0  0  0  0  0  0
   -1.9800   20.8110  -33.2020 C   0  0  0  0  0  0  0  0  0  0  0  0
   -1.4600   20.9140  -31.7680 C   0  0  0  0  0  0  0  0  0  0  0  0
   -2.4710   21.5330  -30.9150 N   0  0  0  0  0  0  0  0  0  0  0  0
   -2.5990   22.6750  -30.2810 C   0  0  0  0  0  0  0  0  0  0  0  0
   -3.7720   23.4190  -30.5750 C   0  0  0  0  0  0  0  0  0  0  0  0
   -4.8280   22.8780  -31.3490 C   0  0  0  0  0  0  0  0  0  0  0  0
   -5.9710   23.6330  -31.6220 C   0  0  0  0  0  0  0  0  0  0  0  0
   -6.0830   24.9370  -31.1410 C   0  0  0  0  0  0  0  0  0  0  0  0
   -5.0520   25.4910  -30.3830 C   0  0  0  0  0  0  0  0  0  0  0  0
   -3.9060   24.7400  -30.0920 C   0  0  0  0  0  0  0  0  0  0  0  0
   -2.9240   25.2920  -29.3480 N   0  0  0  0  0  0  0  0  0  0  0  0
   -1.8120   24.6090  -28.9870 C   0  0  0  0  0  0  0  0  0  0  0  0
   -0.8650   25.2590  -28.1880 C   0  0  0  0  0  0  0  0  0  0  0  0
    0.2540   24.5770  -27.7240 C   0  0  0  0  0  0  0  0  0  0  0  0
    0.4200   23.2330  -28.0350 C   0  0  0  0  0  0  0  0  0  0  0  0
   -0.5100   22.5720  -28.8450 C   0  0  0  0  0  0  0  0  0  0  0  0
   -1.6270   23.2530  -29.3900 C   0  0  0  0  0  0  0  0  0  0  0  0
   -8.7004   20.0331  -30.8777 H   0  0  0  0  0  0  0  0  0  0  0  0
   -9.5058   20.7273  -32.3254 H   0  0  0  0  0  0  0  0  0  0  0  0
   -8.9844   19.0084  -32.3254 H   0  0  0  0  0  0  0  0  0  0  0  0
   -7.5122   20.7888  -33.5713 H   0  0  0  0  0  0  0  0  0  0  0  0
   -6.9775   21.2201  -31.8730 H   0  0  0  0  0  0  0  0  0  0  0  0
   -7.1880   18.8719  -34.4384 H   0  0  0  0  0  0  0  0  0  0  0  0
   -5.3894   18.7125  -34.3069 H   0  0  0  0  0  0  0  0  0  0  0  0
   -6.5115   16.8967  -32.4189 H   0  0  0  0  0  0  0  0  0  0  0  0
   -7.4341   16.6861  -33.9456 H   0  0  0  0  0  0  0  0  0  0  0  0
   -5.6461   16.5136  -33.9456 H   0  0  0  0  0  0  0  0  0  0  0  0
   -5.0940   20.7527  -31.6040 H   0  0  0  0  0  0  0  0  0  0  0  0
   -4.5274   19.0470  -31.5420 H   0  0  0  0  0  0  0  0  0  0  0  0
   -3.5411   19.1619  -33.6171 H   0  0  0  0  0  0  0  0  0  0  0  0
   -4.8203   20.2159  -34.2893 H   0  0  0  0  0  0  0  0  0  0  0  0
   -1.8673   19.7790  -33.5658 H   0  0  0  0  0  0  0  0  0  0  0  0
   -1.4094   21.4807  -33.8622 H   0  0  0  0  0  0  0  0  0  0  0  0
   -1.2311   19.9067  -31.3900 H   0  0  0  0  0  0  0  0  0  0  0  0
   -0.5498   21.5315  -31.7567 H   0  0  0  0  0  0  0  0  0  0  0  0
   -4.7470   21.8527  -31.7391 H   0  0  0  0  0  0  0  0  0  0  0  0
   -6.7859   23.1972  -32.2187 H   0  0  0  0  0  0  0  0  0  0  0  0
   -6.9844   25.5285  -31.3594 H   0  0  0  0  0  0  0  0  0  0  0  0
   -5.1391   26.5228  -30.0118 H   0  0  0  0  0  0  0  0  0  0  0  0
   -1.0070   26.3176  -27.9250 H   0  0  0  0  0  0  0  0  0  0  0  0
    1.0050   25.0993  -27.1131 H   0  0  0  0  0  0  0  0  0  0  0  0
    1.2887   22.6847  -27.6416 H   0  0  0  0  0  0  0  0  0  0  0  0
   -0.3714   21.5028  -29.0630 H   0  0  0  0  0  0  0  0  0  0  0  0
  1  2  1  0
  2  3  1  0
  3  4  1  0
  4  5  1  0
  3  6  1  0
  6  7  1  0
  7  8  1  0
  8  9  1  0
  9 10  1  0
 10 11  1  0
 11 12  2  3
 12 13  1  0
 13 14  2  0
 14 15  1  0
 15 16  2  0
 16 17  1  0
 17 18  2  0
 18 19  1  0
 19 20  1  0
 20 21  2  0
 21 22  1  0
 22 23  2  0
 23 24  1  0
 24 25  2  0
 25 12  1  0
 18 13  1  0
 25 20  1  0
  1 26  1  0
  1 27  1  0
  1 28  1  0
  2 29  1  0
  2 30  1  0
  4 31  1  0
  4 32  1  0
  5 33  1  0
  5 34  1  0
  5 35  1  0
  6 36  1  0
  6 37  1  0
  7 38  1  0
  7 39  1  0
  9 40  1  0
  9 41  1  0
 10 42  1  0
 10 43  1  0
 14 44  1  0
 15 45  1  0
 16 46  1  0
 17 47  1  0
 21 48  1  0
 22 49  1  0
 23 50  1  0
 24 51  1  0
M  CHG  1  19  -1
M  END
>  <UniqueID>  (11) 
11

>  <SMILES>  (11) 
CCN(CC)CCOCCN=c1c2ccccc2[n-]c2ccccc12

>  <Energy>  (11) 
76.75002615295558

>  <Genealogy>  (11) 
CCN(CC)CCOCCN=c1c2ccccc2[n-]c2ccccc12 (protonated)
CCN(CC)CCOCCN=c1c2ccccc2[n-]c2ccccc12 (3D coordinates assigned)
CCN(CC)CCOCCN=c1c2ccccc2[n-]c2ccccc12 (optimized conformer: 76.75002615295558 kcal/mol)

>  <smiles>  (11) 
CCN(CC)CCOCCN=c1c2ccccc2[nH]c2ccccc12

>  <score_type>  (11) 
oracle

>  <origin>  (11) 
adg

>  <m_score__min__energy>  (11) 
-8.8900000000000006

>  <m_primary>  (11) 
energy

$$$$
11:0
     RDKit          3D

 29 31  0  0  0  0  0  0  0  0999 V2000
    0.6180   24.1990  -28.1280 N   0  0  0  0  0  0  0  0  0  0  0  0
   -0.2490   23.8370  -28.8040 C   0  0  0  0  0  0  0  0  0  0  0  0
   -1.3280   23.3860  -29.6430 C   0  0  0  0  0  0  0  0  0  0  0  0
   -1.2090   22.1820  -30.3730 C   0  0  0  0  0  0  0  0  0  0  0  0
   -2.2630   21.7420  -31.1910 C   0  0  0  0  0  0  0  0  0  0  0  0
   -3.4070   22.5330  -31.2460 C   0  0  0  0  0  0  0  0  0  0  0  0
   -4.5200   22.2900  -31.9610 N   0  0  0  0  0  0  0  0  0  0  0  0
   -5.2800   23.3680  -31.6340 C   0  0  0  0  0  0  0  0  0  0  0  0
   -6.9310   23.6290  -32.2640 S   0  0  0  0  0  0  0  0  0  0  0  0
   -7.2650   21.8690  -32.3340 C   0  0  0  0  0  0  0  0  0  0  0  0
   -8.3340   21.3350  -31.6090 C   0  0  0  0  0  0  0  0  0  0  0  0
   -8.5800   19.9650  -31.6650 C   0  0  0  0  0  0  0  0  0  0  0  0
   -7.7650   19.1440  -32.4460 C   0  0  0  0  0  0  0  0  0  0  0  0
   -6.7140   19.7110  -33.1840 C   0  0  0  0  0  0  0  0  0  0  0  0
   -5.7970   18.8350  -33.9990 C   0  0  0  0  0  0  0  0  0  0  0  0
   -4.4910   19.2520  -33.8180 F   0  0  0  0  0  0  0  0  0  0  0  0
   -5.9060   17.5120  -33.6100 F   0  0  0  0  0  0  0  0  0  0  0  0
   -6.1150   18.9210  -35.3430 F   0  0  0  0  0  0  0  0  0  0  0  0
   -6.4760   21.0540  -33.0900 N   0  0  0  0  0  0  0  0  0  0  0  0
   -4.6720   24.2190  -30.7730 N   0  0  0  0  0  0  0  0  0  0  0  0
   -3.4970   23.6690  -30.5470 N   0  0  0  0  0  0  0  0  0  0  0  0
   -2.5100   24.1390  -29.7430 C   0  0  0  0  0  0  0  0  0  0  0  0
   -0.2869   21.5866  -30.3005 H   0  0  0  0  0  0  0  0  0  0  0  0
   -2.1871   20.8076  -31.7664 H   0  0  0  0  0  0  0  0  0  0  0  0
   -8.9747   21.9900  -31.0003 H   0  0  0  0  0  0  0  0  0  0  0  0
   -9.4148   19.5311  -31.0950 H   0  0  0  0  0  0  0  0  0  0  0  0
   -7.9451   18.0595  -32.4830 H   0  0  0  0  0  0  0  0  0  0  0  0
   -5.6730   21.4780  -33.6080 H   0  0  0  0  0  0  0  0  0  0  0  0
   -2.6315   25.0802  -29.1869 H   0  0  0  0  0  0  0  0  0  0  0  0
  1  2  3  0
  2  3  1  0
  3  4  1  0
  4  5  2  0
  5  6  1  0
  6  7  2  0
  7  8  1  0
  8  9  1  0
  9 10  1  0
 10 11  2  0
 11 12  1  0
 12 13  2  0
 13 14  1  0
 14 15  1  0
 15 16  1  0
 15 17  1  0
 15 18  1  0
 14 19  2  0
  8 20  2  0
 20 21  1  0
 21 22  1  0
 22  3  2  0
 21  6  1  0
 19 10  1  0
  4 23  1  0
  5 24  1  0
 11 25  1  0
 12 26  1  0
 13 27  1  0
 19 28  1  0
 22 29  1  0
M  CHG  1  19   1
M  END
>  <UniqueID>  (12) 
12

>  <SMILES>  (12) 
N#Cc1ccc2nc(Sc3cccc(C(F)(F)F)[nH+]3)nn2c1

>  <Energy>  (12) 
65.27998276769267

>  <Genealogy>  (12) 
N#Cc1ccc2nc(Sc3cccc(C(F)(F)F)[nH+]3)nn2c1 (protonated)
N#Cc1ccc2nc(Sc3cccc(C(F)(F)F)[nH+]3)nn2c1 (3D coordinates assigned)
N#Cc1ccc2nc(Sc3cccc(C(F)(F)F)[nH+]3)nn2c1 (optimized conformer: 65.27998276769267 kcal/mol)

>  <smiles>  (12) 
N#Cc1ccc2nc(Sc3cccc(C(F)(F)F)n3)nn2c1

>  <score_type>  (12) 
oracle

>  <origin>  (12) 
adg

>  <m_score__min__energy>  (12) 
-6.6699999999999999

>  <m_primary>  (12) 
energy

$$$$
12:0
     RDKit          3D

 44 46  0  0  0  0  0  0  0  0999 V2000
   -3.8700   23.8960  -28.1330 C   0  0  0  0  0  0  0  0  0  0  0  0
   -3.0410   24.4720  -29.2850 C   0  0  0  0  0  0  0  0  0  0  0  0
   -3.8640   25.2010  -30.2640 N   0  0  0  0  0  0  0  0  0  0  0  0
   -5.2990   24.9390  -30.0870 C   0  0  0  0  0  0  0  0  0  0  0  0
   -5.9310   24.5290  -31.4200 C   0  0  0  0  0  0  0  0  0  0  0  0
   -5.3880   23.2560  -31.8850 N   0  0  0  0  0  0  0  0  0  0  0  0
   -6.1070   22.1960  -32.3030 C   0  0  0  0  0  0  0  0  0  0  0  0
   -5.2250   21.1820  -32.5990 C   0  0  0  0  0  0  0  0  0  0  0  0
   -5.5530   19.8360  -33.0760 C   0  0  0  0  0  0  0  0  0  0  0  0
   -5.2070   18.7000  -32.4320 N   0  0  0  0  0  0  0  0  0  0  0  0
   -5.7200   17.7580  -33.2530 C   0  0  0  0  0  0  0  0  0  0  0  0
   -5.6760   16.2840  -32.9730 C   0  0  2  0  0  0  0  0  0  0  0  0
   -4.3420   15.8810  -32.3700 C   0  0  0  0  0  0  0  0  0  0  0  0
   -4.1820   14.4400  -32.7910 C   0  0  0  0  0  0  0  0  0  0  0  0
   -4.9680   14.3220  -34.0910 C   0  0  0  0  0  0  0  0  0  0  0  0
   -5.8230   15.5170  -34.2190 N   0  0  0  0  0  0  0  0  0  0  0  0
   -7.2270   15.1610  -34.4790 C   0  0  0  0  0  0  0  0  0  0  0  0
   -6.3450   18.3050  -34.3100 N   0  0  0  0  0  0  0  0  0  0  0  0
   -6.2220   19.5870  -34.1780 O   0  0  0  0  0  0  0  0  0  0  0  0
   -3.9700   21.6940  -32.3300 C   0  0  0  0  0  0  0  0  0  0  0  0
   -4.0970   22.9610  -31.8920 N   0  0  0  0  0  0  0  0  0  0  0  0
   -3.4279   24.2032  -27.1737 H   0  0  0  0  0  0  0  0  0  0  0  0
   -4.9012   24.2732  -28.1990 H   0  0  0  0  0  0  0  0  0  0  0  0
   -3.8762   22.7980  -28.1990 H   0  0  0  0  0  0  0  0  0  0  0  0
   -2.2925   25.1629  -28.8697 H   0  0  0  0  0  0  0  0  0  0  0  0
   -2.5673   23.6289  -29.8093 H   0  0  0  0  0  0  0  0  0  0  0  0
   -3.5780   24.9160  -31.2300 H   0  0  0  0  0  0  0  0  0  0  0  0
   -5.4326   24.1272  -29.3568 H   0  0  0  0  0  0  0  0  0  0  0  0
   -5.7887   25.8550  -29.7248 H   0  0  0  0  0  0  0  0  0  0  0  0
   -7.0184   24.4296  -31.2874 H   0  0  0  0  0  0  0  0  0  0  0  0
   -5.7040   25.3021  -32.1688 H   0  0  0  0  0  0  0  0  0  0  0  0
   -7.2024   22.1495  -32.3917 H   0  0  0  0  0  0  0  0  0  0  0  0
   -6.4982   16.0700  -32.2743 H   0  0  0  0  0  0  0  0  0  0  0  0
   -3.5264   16.5003  -32.7717 H   0  0  0  0  0  0  0  0  0  0  0  0
   -4.3093   16.0132  -31.2785 H   0  0  0  0  0  0  0  0  0  0  0  0
   -3.1212   14.2008  -32.9570 H   0  0  0  0  0  0  0  0  0  0  0  0
   -4.5448   13.7413  -32.0228 H   0  0  0  0  0  0  0  0  0  0  0  0
   -4.2740   14.2670  -34.9427 H   0  0  0  0  0  0  0  0  0  0  0  0
   -5.5846   13.4111  -34.0824 H   0  0  0  0  0  0  0  0  0  0  0  0
   -7.7544   15.0273  -33.5230 H   0  0  0  0  0  0  0  0  0  0  0  0
   -7.7088   15.9654  -35.0542 H   0  0  0  0  0  0  0  0  0  0  0  0
   -7.2673   14.2242  -35.0542 H   0  0  0  0  0  0  0  0  0  0  0  0
   -6.8430   17.8160  -35.0870 H   0  0  0  0  0  0  0  0  0  0  0  0
   -3.0200   21.1535  -32.4538 H   0  0  0  0  0  0  0  0  0  0  0  0
  1  2  1  0
  2  3  1  0
  3  4  1  0
  4  5  1  0
  5  6  1  0
  6  7  1  0
  7  8  2  0
  8  9  1  0
  9 10  2  0
 10 11  1  0
 11 12  1  0
 12 13  1  0
 13 14  1  0
 14 15  1  0
 15 16  1  0
 16 17  1  0
 11 18  2  0
 18 19  1  0
  8 20  1  0
 20 21  2  0
 21  6  1  0
 19  9  1  0
 16 12  1  0
  1 22  1  0
  1 23  1  0
  1 24  1  0
  2 25  1  0
  2 26  1  0
  3 27  1  0
  4 28  1  0
  4 29  1  0
  5 30  1  0
  5 31  1  0
  7 32  1  0
 12 33  1  1
 13 34  1  0
 13 35  1  0
 14 36  1  0
 14 37  1  0
 15 38  1  0
 15 39  1  0
 17 40  1  0
 17 41  1  0
 17 42  1  0
 18 43  1  0
 20 44  1  0
M  CHG  1  18   1
M  END
>  <UniqueID>  (13) 
13

>  <SMILES>  (13) 
CCNCCn1cc(-c2nc([C@@H]3CCCN3C)[nH+]o2)cn1

>  <Energy>  (13) 
103.341554576873

>  <Genealogy>  (13) 
CCNCCn1cc(-c2nc(C3CCCN3C)[nH+]o2)cn1 (protonated)
CCNCCn1cc(-c2nc([C@@H]3CCCN3C)[nH+]o2)cn1 (chirality)
CCNCCn1cc(-c2nc([C@@H]3CCCN3C)[nH+]o2)cn1 (3D coordinates assigned)
CCNCCn1cc(-c2nc([C@@H]3CCCN3C)[nH+]o2)cn1 (nonaromatic ring conformer: 103.341554576873 kcal/mol)

>  <smiles>  (13) 
CCNCCn1cc(-c2nc(C3CCCN3C)no2)cn1

>  <score_type>  (13) 
oracle

>  <origin>  (13) 
adg

>  <m_score__min__energy>  (13) 
-7.0899999999999999

>  <m_primary>  (13) 
energy

$$$$
13:0
     RDKit          3D

 35 36  0  0  0  0  0  0  0  0999 V2000
   -4.1460   17.3150  -34.7620 C   0  0  0  0  0  0  0  0  0  0  0  0
   -4.8200   17.0630  -33.4170 C   0  0  0  0  0  0  0  0  0  0  0  0
   -6.2920   17.1730  -33.5500 N   0  0  0  0  0  0  0  0  0  0  0  0
   -6.8480   15.9500  -34.1580 C   0  0  0  0  0  0  0  0  0  0  0  0
   -6.9360   17.4270  -32.2430 C   0  0  0  0  0  0  0  0  0  0  0  0
   -7.9140   18.6120  -32.3540 C   0  0  0  0  0  0  0  0  0  0  0  0
   -7.5720   19.5160  -33.4660 N   0  0  0  0  0  0  0  0  0  0  0  0
   -6.5680   20.4790  -33.0780 C   0  0  0  0  0  0  0  0  0  0  0  0
   -5.2080   20.2840  -33.4030 C   0  0  0  0  0  0  0  0  0  0  0  0
   -4.2340   21.2160  -32.9990 C   0  0  0  0  0  0  0  0  0  0  0  0
   -4.6190   22.3440  -32.2650 C   0  0  0  0  0  0  0  0  0  0  0  0
   -5.9350   22.5000  -31.9690 N   0  0  0  0  0  0  0  0  0  0  0  0
   -6.5640   23.4660  -31.2850 C   0  0  0  0  0  0  0  0  0  0  0  0
   -5.7420   24.9960  -30.4880 Br  0  0  0  0  0  0  0  0  0  0  0  0
   -7.9100   23.1500  -31.2610 C   0  0  0  0  0  0  0  0  0  0  0  0
   -8.1230   21.9910  -31.9270 N   0  0  0  0  0  0  0  0  0  0  0  0
   -6.8900   21.6300  -32.3420 C   0  0  0  0  0  0  0  0  0  0  0  0
   -3.1275   17.6958  -34.5961 H   0  0  0  0  0  0  0  0  0  0  0  0
   -4.0977   16.3742  -35.3299 H   0  0  0  0  0  0  0  0  0  0  0  0
   -4.7268   18.0567  -35.3299 H   0  0  0  0  0  0  0  0  0  0  0  0
   -4.5620   16.0531  -33.0655 H   0  0  0  0  0  0  0  0  0  0  0  0
   -4.4691   17.8148  -32.6948 H   0  0  0  0  0  0  0  0  0  0  0  0
   -7.1632   15.2566  -33.3643 H   0  0  0  0  0  0  0  0  0  0  0  0
   -7.7154   16.2122  -34.7816 H   0  0  0  0  0  0  0  0  0  0  0  0
   -6.0801   15.4688  -34.7816 H   0  0  0  0  0  0  0  0  0  0  0  0
   -7.4876   16.5286  -31.9289 H   0  0  0  0  0  0  0  0  0  0  0  0
   -6.1605   17.6695  -31.5015 H   0  0  0  0  0  0  0  0  0  0  0  0
   -8.9287   18.2194  -32.5163 H   0  0  0  0  0  0  0  0  0  0  0  0
   -7.8516   19.1889  -31.4195 H   0  0  0  0  0  0  0  0  0  0  0  0
   -8.4330   19.9930  -33.8200 H   0  0  0  0  0  0  0  0  0  0  0  0
   -7.1950   18.9430  -34.2560 H   0  0  0  0  0  0  0  0  0  0  0  0
   -4.9069   19.3954  -33.9773 H   0  0  0  0  0  0  0  0  0  0  0  0
   -3.1766   21.0590  -33.2584 H   0  0  0  0  0  0  0  0  0  0  0  0
   -3.8750   23.0846  -31.9366 H   0  0  0  0  0  0  0  0  0  0  0  0
   -8.6915   23.7511  -30.7732 H   0  0  0  0  0  0  0  0  0  0  0  0
  1  2  1  0
  2  3  1  0
  3  4  1  0
  3  5  1  0
  5  6  1  0
  6  7  1  0
  7  8  1  0
  8  9  2  0
  9 10  1  0
 10 11  2  0
 11 12  1  0
 12 13  1  0
 13 14  1  0
 13 15  2  0
 15 16  1  0
 16 17  2  0
 17  8  1  0
 17 12  1  0
  1 18  1  0
  1 19  1  0
  1 20  1  0
  2 21  1  0
  2 22  1  0
  4 23  1  0
  4 24  1  0
  4 25  1  0
  5 26  1  0
  5 27  1  0
  6 28  1  0
  6 29  1  0
  7 30  1  0
  7 31  1  0
  9 32  1  0
 10 33  1  0
 11 34  1  0
 15 35  1  0
M  CHG  1   7   1
M  END
>  <UniqueID>  (14) 
14

>  <SMILES>  (14) 
CCN(C)CC[NH2+]c1cccn2c(Br)cnc12

>  <Energy>  (14) 
69.05643162973755

>  <Genealogy>  (14) 
CCN(C)CC[NH2+]c1cccn2c(Br)cnc12 (protonated)
CCN(C)CC[NH2+]c1cccn2c(Br)cnc12 (3D coordinates assigned)
CCN(C)CC[NH2+]c1cccn2c(Br)cnc12 (optimized conformer: 69.05643162973755 kcal/mol)

>  <smiles>  (14) 
CCN(C)CCNc1cccn2c(Br)cnc12

>  <score_type>  (14) 
oracle

>  <origin>  (14) 
adg

>  <m_score__min__energy>  (14) 
-5.79

>  <m_primary>  (14) 
energy

$$$$
14:0
     RDKit          3D

 49 51  0  0  0  0  0  0  0  0999 V2000
   -3.9630   24.1660  -27.5170 C   0  0  0  0  0  0  0  0  0  0  0  0
   -2.8930   24.5290  -28.5460 C   0  0  0  0  0  0  0  0  0  0  0  0
   -3.3080   24.2220  -29.9340 N   0  0  0  0  0  0  0  0  0  0  0  0
   -4.7760   24.1640  -30.1410 C   0  0  0  0  0  0  0  0  0  0  0  0
   -5.4150   25.5200  -30.4660 C   0  0  0  0  0  0  0  0  0  0  0  0
   -2.6150   23.0150  -30.4490 C   0  0  0  0  0  0  0  0  0  0  0  0
   -3.6300   22.0090  -31.0060 C   0  0  0  0  0  0  0  0  0  0  0  0
   -3.3450   21.6180  -32.4680 C   0  0  0  0  0  0  0  0  0  0  0  0
   -4.5610   21.6720  -33.2810 N   0  0  0  0  0  0  0  0  0  0  0  0
   -5.7110   20.8630  -32.9830 C   0  0  0  0  0  0  0  0  0  0  0  0
   -5.7480   19.4720  -33.2280 C   0  0  0  0  0  0  0  0  0  0  0  0
   -4.6980   18.8270  -33.9130 C   0  0  0  0  0  0  0  0  0  0  0  0
   -4.7420   17.4570  -34.1550 C   0  0  0  0  0  0  0  0  0  0  0  0
   -5.8420   16.7090  -33.7490 C   0  0  0  0  0  0  0  0  0  0  0  0
   -6.9140   17.3260  -33.1050 C   0  0  0  0  0  0  0  0  0  0  0  0
   -6.8970   18.7150  -32.8230 C   0  0  0  0  0  0  0  0  0  0  0  0
   -7.9680   19.3450  -32.2050 N   0  0  0  0  0  0  0  0  0  0  0  0
   -9.0910   18.5640  -31.6470 C   0  0  0  0  0  0  0  0  0  0  0  0
   -7.9780   20.7170  -32.1320 C   0  0  0  0  0  0  0  0  0  0  0  0
   -9.0480   21.5290  -31.6990 C   0  0  0  0  0  0  0  0  0  0  0  0
   -8.7420   22.8860  -31.6940 C   0  0  0  0  0  0  0  0  0  0  0  0
   -7.1600   23.0920  -32.2340 S   0  0  0  0  0  0  0  0  0  0  0  0
   -6.8640   21.4570  -32.4890 C   0  0  0  0  0  0  0  0  0  0  0  0
   -3.5584   24.3032  -26.5033 H   0  0  0  0  0  0  0  0  0  0  0  0
   -4.8389   24.8173  -27.6535 H   0  0  0  0  0  0  0  0  0  0  0  0
   -4.2618   23.1162  -27.6535 H   0  0  0  0  0  0  0  0  0  0  0  0
   -2.6839   25.6064  -28.4713 H   0  0  0  0  0  0  0  0  0  0  0  0
   -2.0005   23.9253  -28.3246 H   0  0  0  0  0  0  0  0  0  0  0  0
   -4.9807   23.4766  -30.9750 H   0  0  0  0  0  0  0  0  0  0  0  0
   -5.2176   23.8235  -29.1928 H   0  0  0  0  0  0  0  0  0  0  0  0
   -5.6614   26.0429  -29.5301 H   0  0  0  0  0  0  0  0  0  0  0  0
   -4.7085   26.1276  -31.0505 H   0  0  0  0  0  0  0  0  0  0  0  0
   -6.3334   25.3619  -31.0505 H   0  0  0  0  0  0  0  0  0  0  0  0
   -1.9211   23.3101  -31.2499 H   0  0  0  0  0  0  0  0  0  0  0  0
   -2.0626   22.5427  -29.6233 H   0  0  0  0  0  0  0  0  0  0  0  0
   -3.5993   21.1001  -30.3871 H   0  0  0  0  0  0  0  0  0  0  0  0
   -4.6194   22.4889  -30.9793 H   0  0  0  0  0  0  0  0  0  0  0  0
   -2.6031   22.3139  -32.8867 H   0  0  0  0  0  0  0  0  0  0  0  0
   -2.9636   20.5863  -32.4829 H   0  0  0  0  0  0  0  0  0  0  0  0
   -4.7070   22.5390  -33.8450 H   0  0  0  0  0  0  0  0  0  0  0  0
   -3.8343   19.4131  -34.2601 H   0  0  0  0  0  0  0  0  0  0  0  0
   -3.9037   16.9641  -34.6692 H   0  0  0  0  0  0  0  0  0  0  0  0
   -5.8665   15.6254  -33.9368 H   0  0  0  0  0  0  0  0  0  0  0  0
   -7.7871   16.7249  -32.8110 H   0  0  0  0  0  0  0  0  0  0  0  0
   -9.0481   18.5938  -30.5482 H   0  0  0  0  0  0  0  0  0  0  0  0
  -10.0433   18.9957  -31.9886 H   0  0  0  0  0  0  0  0  0  0  0  0
   -9.0177   17.5210  -31.9886 H   0  0  0  0  0  0  0  0  0  0  0  0
  -10.0266   21.1287  -31.3956 H   0  0  0  0  0  0  0  0  0  0  0  0
   -9.4229   23.6936  -31.3871 H   0  0  0  0  0  0  0  0  0  0  0  0
  1  2  1  0
  2  3  1  0
  3  4  1  0
  4  5  1  0
  3  6  1  0
  6  7  1  0
  7  8  1  0
  8  9  1  0
  9 10  1  0
 10 11  2  0
 11 12  1  0
 12 13  2  0
 13 14  1  0
 14 15  2  0
 15 16  1  0
 16 17  2  0
 17 18  1  0
 17 19  1  0
 19 20  1  0
 20 21  2  0
 21 22  1  0
 22 23  1  0
 23 10  1  0
 16 11  1  0
 23 19  2  0
  1 24  1  0
  1 25  1  0
  1 26  1  0
  2 27  1  0
  2 28  1  0
  4 29  1  0
  4 30  1  0
  5 31  1  0
  5 32  1  0
  5 33  1  0
  6 34  1  0
  6 35  1  0
  7 36  1  0
  7 37  1  0
  8 38  1  0
  8 39  1  0
  9 40  1  0
 12 41  1  0
 13 42  1  0
 14 43  1  0
 15 44  1  0
 18 45  1  0
 18 46  1  0
 18 47  1  0
 20 48  1  0
 21 49  1  0
M  CHG  1  17   1
M  END
>  <UniqueID>  (15) 
15

>  <SMILES>  (15) 
CCN(CC)CCCNc1c2ccccc2[n+](C)c2ccsc12

>  <Energy>  (15) 
95.49797642225093

>  <Genealogy>  (15) 
CCN(CC)CCCNc1c2ccccc2[n+](C)c2ccsc12 (3D coordinates assigned)
CCN(CC)CCCNc1c2ccccc2[n+](C)c2ccsc12 (optimized conformer: 95.49797642225093 kcal/mol)

>  <smiles>  (15) 
CCN(CC)CCCNc1c2ccccc2[n+](C)c2ccsc12

>  <score_type>  (15) 
oracle

>  <origin>  (15) 
adg

>  <m_score__min__energy>  (15) 
-8.5800000000000001

>  <m_primary>  (15) 
energy

$$$$
15:0
     RDKit          3D

 34 36  0  0  0  0  0  0  0  0999 V2000
   -6.1100   25.4170  -29.2270 C   0  0  0  0  0  0  0  0  0  0  0  0
   -5.3980   25.9330  -30.4730 C   0  0  0  0  0  0  0  0  0  0  0  0
   -4.6760   24.8820  -31.1150 O   0  0  0  0  0  0  0  0  0  0  0  0
   -5.2300   23.6880  -31.6030 C   0  0  0  0  0  0  0  0  0  0  0  0
   -4.4540   22.6690  -32.1850 C   0  0  0  0  0  0  0  0  0  0  0  0
   -5.0590   21.5010  -32.6560 C   0  0  0  0  0  0  0  0  0  0  0  0
   -6.4450   21.3100  -32.5180 C   0  0  0  0  0  0  0  0  0  0  0  0
   -7.2290   22.3400  -31.9610 C   0  0  0  0  0  0  0  0  0  0  0  0
   -6.6150   23.5170  -31.5050 C   0  0  0  0  0  0  0  0  0  0  0  0
   -8.7300   22.2200  -31.9660 C   0  0  0  0  0  0  0  0  0  0  0  0
   -9.1740   20.7940  -31.6270 C   0  0  0  0  0  0  0  0  0  0  0  0
   -8.3760   19.8020  -32.3510 N   0  0  0  0  0  0  0  0  0  0  0  0
   -8.4840   18.4070  -32.1350 C   0  0  0  0  0  0  0  0  0  0  0  0
   -9.4750   17.8720  -31.5690 O   0  0  0  0  0  0  0  0  0  0  0  0
   -7.3150   17.6540  -32.6320 C   0  0  0  0  0  0  0  0  0  0  0  0
   -6.3100   18.7700  -32.9470 C   0  0  0  0  0  0  0  0  0  0  0  0
   -7.1340   20.0760  -33.0690 C   0  0  2  0  0  0  0  0  0  0  0  0
   -5.5951   25.7902  -28.3294 H   0  0  0  0  0  0  0  0  0  0  0  0
   -7.1513   25.7716  -29.2264 H   0  0  0  0  0  0  0  0  0  0  0  0
   -6.0972   24.3171  -29.2264 H   0  0  0  0  0  0  0  0  0  0  0  0
   -6.1436   26.3384  -31.1728 H   0  0  0  0  0  0  0  0  0  0  0  0
   -4.6877   26.7179  -30.1741 H   0  0  0  0  0  0  0  0  0  0  0  0
   -3.3643   22.7926  -32.2698 H   0  0  0  0  0  0  0  0  0  0  0  0
   -4.4463   20.7251  -33.1384 H   0  0  0  0  0  0  0  0  0  0  0  0
   -7.2308   24.3152  -31.0649 H   0  0  0  0  0  0  0  0  0  0  0  0
   -9.1476   22.9124  -31.2202 H   0  0  0  0  0  0  0  0  0  0  0  0
   -9.0953   22.4677  -32.9735 H   0  0  0  0  0  0  0  0  0  0  0  0
   -9.0556   20.6293  -30.5459 H   0  0  0  0  0  0  0  0  0  0  0  0
  -10.2264   20.6778  -31.9253 H   0  0  0  0  0  0  0  0  0  0  0  0
   -6.9241   16.9729  -31.8617 H   0  0  0  0  0  0  0  0  0  0  0  0
   -7.5421   17.0120  -33.4958 H   0  0  0  0  0  0  0  0  0  0  0  0
   -5.5731   18.8591  -32.1352 H   0  0  0  0  0  0  0  0  0  0  0  0
   -5.7559   18.5590  -33.8736 H   0  0  0  0  0  0  0  0  0  0  0  0
   -7.2883   20.3228  -34.1298 H   0  0  0  0  0  0  0  0  0  0  0  0
  1  2  1  0
  2  3  1  0
  3  4  1  0
  4  5  2  0
  5  6  1  0
  6  7  2  0
  7  8  1  0
  8  9  2  0
  8 10  1  0
 10 11  1  0
 11 12  1  0
 12 13  1  0
 13 14  2  0
 13 15  1  0
 15 16  1  0
 16 17  1  0
  9  4  1  0
 17 12  1  0
 17  7  1  0
  1 18  1  0
  1 19  1  0
  1 20  1  0
  2 21  1  0
  2 22  1  0
  5 23  1  0
  6 24  1  0
  9 25  1  0
 10 26  1  0
 10 27  1  0
 11 28  1  0
 11 29  1  0
 15 30  1  0
 15 31  1  0
 16 32  1  0
 16 33  1  0
 17 34  1  6
M  END
>  <UniqueID>  (16) 
16

>  <SMILES>  (16) 
CCOc1ccc2c(c1)CCN1C(=O)CC[C@H]21

>  <Energy>  (16) 
43.71029803500865

>  <Genealogy>  (16) 
CCOc1ccc2c(c1)CCN1C(=O)CC[C@H]21 (chirality)
CCOc1ccc2c(c1)CCN1C(=O)CC[C@H]21 (3D coordinates assigned)
CCOc1ccc2c(c1)CCN1C(=O)CC[C@H]21 (nonaromatic ring conformer: 43.71029803500865 kcal/mol)

>  <smiles>  (16) 
CCOc1ccc2c(c1)CCN1C(=O)CCC21

>  <score_type>  (16) 
oracle

>  <origin>  (16) 
adg

>  <m_score__min__energy>  (16) 
-7.96

>  <m_primary>  (16) 
energy

$$$$
16:0
     RDKit          3D

 75 77  0  0  0  0  0  0  0  0999 V2000
   -3.0070   25.0060  -26.3680 C   0  0  0  0  0  0  0  0  0  0  0  0
   -2.1980   24.9180  -27.6540 C   0  0  0  0  0  0  0  0  0  0  0  0
   -2.8030   23.9040  -28.5500 N   0  0  0  0  0  0  0  0  0  0  0  0
   -2.1710   22.5710  -28.4320 C   0  0  0  0  0  0  0  0  0  0  0  0
   -3.1200   21.4750  -27.9280 C   0  0  0  0  0  0  0  0  0  0  0  0
   -4.2790   23.8560  -28.4780 C   0  0  0  0  0  0  0  0  0  0  0  0
   -4.9020   24.6890  -29.6050 C   0  0  0  0  0  0  0  0  0  0  0  0
   -4.3170   24.3620  -30.8680 O   0  0  0  0  0  0  0  0  0  0  0  0
   -4.2810   23.0820  -31.4520 C   0  0  0  0  0  0  0  0  0  0  0  0
   -3.0970   22.3240  -31.5130 C   0  0  0  0  0  0  0  0  0  0  0  0
   -3.0840   21.0710  -32.1280 C   0  0  0  0  0  0  0  0  0  0  0  0
   -4.2530   20.5410  -32.6930 C   0  0  0  0  0  0  0  0  0  0  0  0
   -4.2260   19.2230  -33.3790 C   0  0  0  0  0  0  0  0  0  0  0  0
   -5.4190   18.6230  -33.8150 C   0  0  0  0  0  0  0  0  0  0  0  0
   -5.3940   17.3830  -34.4580 C   0  0  0  0  0  0  0  0  0  0  0  0
   -4.1850   16.7170  -34.6780 C   0  0  0  0  0  0  0  0  0  0  0  0
   -4.2280   15.4780  -35.3370 O   0  0  0  0  0  0  0  0  0  0  0  0
   -3.0980   14.7380  -35.7970 C   0  0  0  0  0  0  0  0  0  0  0  0
   -2.6120   13.7140  -34.7530 C   0  0  0  0  0  0  0  0  0  0  0  0
   -3.5230   13.6140  -33.5800 N   0  0  0  0  0  0  0  0  0  0  0  0
   -4.3430   12.3820  -33.6350 C   0  0  0  0  0  0  0  0  0  0  0  0
   -5.2800   12.2860  -32.4070 C   0  0  0  0  0  0  0  0  0  0  0  0
   -4.9850   13.2610  -31.4230 O   0  0  0  0  0  0  0  0  0  0  0  0
   -3.6090   13.2150  -31.1070 C   0  0  0  0  0  0  0  0  0  0  0  0
   -2.7480   13.6370  -32.3170 C   0  0  0  0  0  0  0  0  0  0  0  0
   -2.9870   17.3110  -34.2380 C   0  0  0  0  0  0  0  0  0  0  0  0
   -3.0100   18.5520  -33.5960 C   0  0  0  0  0  0  0  0  0  0  0  0
   -5.4440   21.2820  -32.6120 C   0  0  0  0  0  0  0  0  0  0  0  0
   -5.4680   22.5420  -31.9910 C   0  0  0  0  0  0  0  0  0  0  0  0
   -6.7660   23.3170  -31.9720 C   0  0  0  0  0  0  0  0  0  0  0  0
   -7.8910   22.4490  -31.5710 N   0  0  0  0  0  0  0  0  0  0  0  0
   -9.1780   23.0370  -31.9800 C   0  0  0  0  0  0  0  0  0  0  0  0
   -7.8810   22.2580  -30.1120 C   0  0  0  0  0  0  0  0  0  0  0  0
   -2.3307   24.9324  -25.5036 H   0  0  0  0  0  0  0  0  0  0  0  0
   -3.5404   25.9675  -26.3354 H   0  0  0  0  0  0  0  0  0  0  0  0
   -3.7347   24.1817  -26.3354 H   0  0  0  0  0  0  0  0  0  0  0  0
   -2.1985   25.8972  -28.1552 H   0  0  0  0  0  0  0  0  0  0  0  0
   -1.1637   24.6277  -27.4174 H   0  0  0  0  0  0  0  0  0  0  0  0
   -1.7969   22.2761  -29.4235 H   0  0  0  0  0  0  0  0  0  0  0  0
   -1.3666   22.6639  -27.6875 H   0  0  0  0  0  0  0  0  0  0  0  0
   -3.1238   21.4706  -26.8280 H   0  0  0  0  0  0  0  0  0  0  0  0
   -4.1372   21.6724  -28.2974 H   0  0  0  0  0  0  0  0  0  0  0  0
   -2.7792   20.4965  -28.2974 H   0  0  0  0  0  0  0  0  0  0  0  0
   -4.6118   22.8119  -28.5738 H   0  0  0  0  0  0  0  0  0  0  0  0
   -4.6005   24.2708  -27.5112 H   0  0  0  0  0  0  0  0  0  0  0  0
   -5.9826   24.4873  -29.6462 H   0  0  0  0  0  0  0  0  0  0  0  0
   -4.7160   25.7532  -29.3979 H   0  0  0  0  0  0  0  0  0  0  0  0
   -2.1720   22.7231  -31.0714 H   0  0  0  0  0  0  0  0  0  0  0  0
   -2.1484   20.4941  -32.1699 H   0  0  0  0  0  0  0  0  0  0  0  0
   -6.3794   19.1330  -33.6490 H   0  0  0  0  0  0  0  0  0  0  0  0
   -6.3361   16.9258  -34.7948 H   0  0  0  0  0  0  0  0  0  0  0  0
   -3.3753   14.2024  -36.7169 H   0  0  0  0  0  0  0  0  0  0  0  0
   -2.2792   15.4492  -35.9808 H   0  0  0  0  0  0  0  0  0  0  0  0
   -2.5461   12.7263  -35.2328 H   0  0  0  0  0  0  0  0  0  0  0  0
   -1.6324   14.0534  -34.3853 H   0  0  0  0  0  0  0  0  0  0  0  0
   -4.1710   14.4390  -33.5700 H   0  0  0  0  0  0  0  0  0  0  0  0
   -4.9510   12.3948  -34.5516 H   0  0  0  0  0  0  0  0  0  0  0  0
   -3.6700   11.5119  -33.6320 H   0  0  0  0  0  0  0  0  0  0  0  0
   -6.3179   12.4267  -32.7432 H   0  0  0  0  0  0  0  0  0  0  0  0
   -5.1337   11.2957  -31.9511 H   0  0  0  0  0  0  0  0  0  0  0  0
   -3.4097   13.8982  -30.2682 H   0  0  0  0  0  0  0  0  0  0  0  0
   -3.3469   12.1821  -30.8341 H   0  0  0  0  0  0  0  0  0  0  0  0
   -2.3728   14.6572  -32.1483 H   0  0  0  0  0  0  0  0  0  0  0  0
   -1.9186   12.9208  -32.4123 H   0  0  0  0  0  0  0  0  0  0  0  0
   -2.0286   16.7961  -34.4002 H   0  0  0  0  0  0  0  0  0  0  0  0
   -2.0680   19.0080  -33.2574 H   0  0  0  0  0  0  0  0  0  0  0  0
   -6.3697   20.8702  -33.0404 H   0  0  0  0  0  0  0  0  0  0  0  0
   -6.6791   24.1479  -31.2564 H   0  0  0  0  0  0  0  0  0  0  0  0
   -6.9613   23.7011  -32.9841 H   0  0  0  0  0  0  0  0  0  0  0  0
   -9.7603   23.3031  -31.0855 H   0  0  0  0  0  0  0  0  0  0  0  0
   -8.9942   23.9405  -32.5800 H   0  0  0  0  0  0  0  0  0  0  0  0
   -9.7407   22.3066  -32.5800 H   0  0  0  0  0  0  0  0  0  0  0  0
   -7.9323   23.2373  -29.6136 H   0  0  0  0  0  0  0  0  0  0  0  0
   -8.7485   21.6500  -29.8158 H   0  0  0  0  0  0  0  0  0  0  0  0
   -6.9547   21.7439  -29.8158 H   0  0  0  0  0  0  0  0  0  0  0  0
  1  2  1  0
  2  3  1  0
  3  4  1  0
  4  5  1  0
  3  6  1  0
  6  7  1  0
  7  8  1  0
  8  9  1  0
  9 10  2  0
 10 11  1  0
 11 12  2  0
 12 13  1  0
 13 14  2  0
 14 15  1  0
 15 16  2  0
 16 17  1  0
 17 18  1  0
 18 19  1  0
 19 20  1  0
 20 21  1  0
 21 22  1  0
 22 23  1  0
 23 24  1  0
 24 25  1  0
 16 26  1  0
 26 27  2  0
 12 28  1  0
 28 29  2  0
 29 30  1  0
 30 31  1  0
 31 32  1  0
 31 33  1  0
 29  9  1  0
 27 13  1  0
 25 20  1  0
  1 34  1  0
  1 35  1  0
  1 36  1  0
  2 37  1  0
  2 38  1  0
  4 39  1  0
  4 40  1  0
  5 41  1  0
  5 42  1  0
  5 43  1  0
  6 44  1  0
  6 45  1  0
  7 46  1  0
  7 47  1  0
 10 48  1  0
 11 49  1  0
 14 50  1  0
 15 51  1  0
 18 52  1  0
 18 53  1  0
 19 54  1  0
 19 55  1  0
 20 56  1  0
 21 57  1  0
 21 58  1  0
 22 59  1  0
 22 60  1  0
 24 61  1  0
 24 62  1  0
 25 63  1  0
 25 64  1  0
 26 65  1  0
 27 66  1  0
 28 67  1  0
 30 68  1  0
 30 69  1  0
 32 70  1  0
 32 71  1  0
 32 72  1  0
 33 73  1  0
 33 74  1  0
 33 75  1  0
M  CHG  1  20   1
M  END
>  <UniqueID>  (17) 
17

>  <SMILES>  (17) 
CCN(CC)CCOc1ccc(-c2ccc(OCC[NH+]3CCOCC3)cc2)cc1CN(C)C

>  <Energy>  (17) 
89.85537741576682

>  <Genealogy>  (17) 
CCN(CC)CCOc1ccc(-c2ccc(OCC[NH+]3CCOCC3)cc2)cc1CN(C)C (protonated)
CCN(CC)CCOc1ccc(-c2ccc(OCC[NH+]3CCOCC3)cc2)cc1CN(C)C (3D coordinates assigned)
CCN(CC)CCOc1ccc(-c2ccc(OCC[NH+]3CCOCC3)cc2)cc1CN(C)C (nonaromatic ring conformer: 89.85537741576682 kcal/mol)

>  <smiles>  (17) 
CCN(CC)CCOc1ccc(-c2ccc(OCCN3CCOCC3)cc2)cc1CN(C)C

>  <score_type>  (17) 
oracle

>  <origin>  (17) 
adg

>  <m_score__min__energy>  (17) 
-8.4900000000000002

>  <m_primary>  (17) 
energy

$$$$
17:0
     RDKit          3D

 59 62  0  0  0  0  0  0  0  0999 V2000
   -2.3340   24.7930  -28.6140 C   0  0  0  0  0  0  0  0  0  0  0  0
   -3.1480   25.2830  -29.6720 O   0  0  0  0  0  0  0  0  0  0  0  0
   -4.2410   24.5890  -30.2160 C   0  0  0  0  0  0  0  0  0  0  0  0
   -5.5680   25.0270  -30.0540 C   0  0  0  0  0  0  0  0  0  0  0  0
   -6.6260   24.2980  -30.6010 C   0  0  0  0  0  0  0  0  0  0  0  0
   -6.3780   23.1180  -31.3150 C   0  0  0  0  0  0  0  0  0  0  0  0
   -7.4410   22.3790  -31.8510 C   0  0  0  0  0  0  0  0  0  0  0  0
   -7.1910   21.2040  -32.5590 C   0  0  0  0  0  0  0  0  0  0  0  0
   -5.8840   20.7540  -32.7400 C   0  0  0  0  0  0  0  0  0  0  0  0
   -4.8060   21.4780  -32.2130 C   0  0  0  0  0  0  0  0  0  0  0  0
   -3.4680   21.0090  -32.4410 N   0  0  0  0  0  0  0  0  0  0  0  0
   -3.0770   20.7130  -33.8220 C   0  0  0  0  0  0  0  0  0  0  0  0
   -1.5430   20.6810  -33.9610 C   0  0  0  0  0  0  0  0  0  0  0  0
   -0.8990   19.8410  -32.9240 N   0  0  0  0  0  0  0  0  0  0  0  0
   -1.1480   18.3980  -33.0120 C   0  0  0  0  0  0  0  0  0  0  0  0
   -0.6080   17.6590  -32.2050 O   0  0  0  0  0  0  0  0  0  0  0  0
   -2.0030   17.7330  -34.0900 C   0  0  0  0  0  0  0  0  0  0  0  0
   -3.4550   17.8820  -33.8560 N   0  0  0  0  0  0  0  0  0  0  0  0
   -4.2550   17.8000  -35.0950 C   0  0  0  0  0  0  0  0  0  0  0  0
   -5.7470   17.8490  -34.7520 C   0  0  0  0  0  0  0  0  0  0  0  0
   -6.1650   16.6960  -33.9190 N   0  0  0  0  0  0  0  0  0  0  0  0
   -7.2790   17.0690  -33.0340 C   0  0  0  0  0  0  0  0  0  0  0  0
   -5.0560   16.0680  -33.1560 C   0  0  0  0  0  0  0  0  0  0  0  0
   -3.9850   17.0870  -32.7200 C   0  0  0  0  0  0  0  0  0  0  0  0
   -1.2510   20.3740  -31.5870 C   0  0  0  0  0  0  0  0  0  0  0  0
   -2.7650   20.3430  -31.3450 C   0  0  0  0  0  0  0  0  0  0  0  0
   -5.0460   22.6690  -31.4920 C   0  0  0  0  0  0  0  0  0  0  0  0
   -3.9890   23.4160  -30.9350 C   0  0  0  0  0  0  0  0  0  0  0  0
   -2.7852   25.0646  -27.6483 H   0  0  0  0  0  0  0  0  0  0  0  0
   -2.2568   23.6982  -28.6877 H   0  0  0  0  0  0  0  0  0  0  0  0
   -1.3304   25.2372  -28.6877 H   0  0  0  0  0  0  0  0  0  0  0  0
   -5.7737   25.9503  -29.4925 H   0  0  0  0  0  0  0  0  0  0  0  0
   -7.6594   24.6518  -30.4707 H   0  0  0  0  0  0  0  0  0  0  0  0
   -8.4754   22.7267  -31.7129 H   0  0  0  0  0  0  0  0  0  0  0  0
   -8.0301   20.6287  -32.9772 H   0  0  0  0  0  0  0  0  0  0  0  0
   -5.6978   19.8255  -33.2996 H   0  0  0  0  0  0  0  0  0  0  0  0
   -3.4858   19.7334  -34.1105 H   0  0  0  0  0  0  0  0  0  0  0  0
   -3.4742   21.5017  -34.4778 H   0  0  0  0  0  0  0  0  0  0  0  0
   -1.2865   20.2777  -34.9517 H   0  0  0  0  0  0  0  0  0  0  0  0
   -1.1735   21.7096  -33.8364 H   0  0  0  0  0  0  0  0  0  0  0  0
    0.1370   19.9610  -33.0350 H   0  0  0  0  0  0  0  0  0  0  0  0
   -1.7570   18.1874  -35.0611 H   0  0  0  0  0  0  0  0  0  0  0  0
   -1.7772   16.6566  -34.0684 H   0  0  0  0  0  0  0  0  0  0  0  0
   -4.0026   18.6472  -35.7497 H   0  0  0  0  0  0  0  0  0  0  0  0
   -4.0312   16.8544  -35.6105 H   0  0  0  0  0  0  0  0  0  0  0  0
   -5.9542   18.7783  -34.2012 H   0  0  0  0  0  0  0  0  0  0  0  0
   -6.3131   17.8095  -35.6943 H   0  0  0  0  0  0  0  0  0  0  0  0
   -6.9650   16.9639  -31.9850 H   0  0  0  0  0  0  0  0  0  0  0  0
   -7.5674   18.1127  -33.2276 H   0  0  0  0  0  0  0  0  0  0  0  0
   -8.1377   16.4094  -33.2276 H   0  0  0  0  0  0  0  0  0  0  0  0
   -5.4732   15.5893  -32.2578 H   0  0  0  0  0  0  0  0  0  0  0  0
   -4.5695   15.3357  -33.8172 H   0  0  0  0  0  0  0  0  0  0  0  0
   -4.4315   17.7750  -31.9869 H   0  0  0  0  0  0  0  0  0  0  0  0
   -3.1451   16.5225  -32.2889 H   0  0  0  0  0  0  0  0  0  0  0  0
   -0.7544   19.7641  -30.8180 H   0  0  0  0  0  0  0  0  0  0  0  0
   -0.9168   21.4208  -31.5361 H   0  0  0  0  0  0  0  0  0  0  0  0
   -3.1009   19.2975  -31.2807 H   0  0  0  0  0  0  0  0  0  0  0  0
   -2.9879   20.8690  -30.4050 H   0  0  0  0  0  0  0  0  0  0  0  0
   -2.9525   23.0723  -31.0673 H   0  0  0  0  0  0  0  0  0  0  0  0
  1  2  1  0
  2  3  1  0
  3  4  2  0
  4  5  1  0
  5  6  2  0
  6  7  1  0
  7  8  2  0
  8  9  1  0
  9 10  2  0
 10 11  1  0
 11 12  1  0
 12 13  1  0
 13 14  1  0
 14 15  1  0
 15 16  2  0
 15 17  1  0
 17 18  1  0
 18 19  1  0
 19 20  1  0
 20 21  1  0
 21 22  1  0
 21 23  1  0
 23 24  1  0
 14 25  1  0
 25 26  1  0
 10 27  1  0
 27 28  2  0
 28  3  1  0
 27  6  1  0
 26 11  1  0
 24 18  1  0
  1 29  1  0
  1 30  1  0
  1 31  1  0
  4 32  1  0
  5 33  1  0
  7 34  1  0
  8 35  1  0
  9 36  1  0
 12 37  1  0
 12 38  1  0
 13 39  1  0
 13 40  1  0
 14 41  1  0
 17 42  1  0
 17 43  1  0
 19 44  1  0
 19 45  1  0
 20 46  1  0
 20 47  1  0
 22 48  1  0
 22 49  1  0
 22 50  1  0
 23 51  1  0
 23 52  1  0
 24 53  1  0
 24 54  1  0
 25 55  1  0
 25 56  1  0
 26 57  1  0
 26 58  1  0
 28 59  1  0
M  CHG  1  14   1
M  END
>  <UniqueID>  (18) 
18

>  <SMILES>  (18) 
COc1ccc2cccc(N3CC[NH+](C(=O)CN4CCN(C)CC4)CC3)c2c1

>  <Energy>  (18) 
93.03579855693334

>  <Genealogy>  (18) 
COc1ccc2cccc(N3CC[NH+](C(=O)CN4CCN(C)CC4)CC3)c2c1 (protonated)
COc1ccc2cccc(N3CC[NH+](C(=O)CN4CCN(C)CC4)CC3)c2c1 (3D coordinates assigned)
COc1ccc2cccc(N3CC[NH+](C(=O)CN4CCN(C)CC4)CC3)c2c1 (nonaromatic ring conformer: 93.03579855693334 kcal/mol)

>  <smiles>  (18) 
COc1ccc2cccc(N3CCN(C(=O)CN4CCN(C)CC4)CC3)c2c1

>  <score_type>  (18) 
oracle

>  <origin>  (18) 
adg

>  <m_score__min__energy>  (18) 
-8.1699999999999999

>  <m_primary>  (18) 
energy

$$$$
18:0
     RDKit          3D

 46 47  0  0  0  0  0  0  0  0999 V2000
   -6.6640   17.7300  -31.6260 C   0  0  0  0  0  0  0  0  0  0  0  0
   -8.0120   18.3490  -31.9800 C   0  0  0  0  0  0  0  0  0  0  0  0
   -7.8560   19.8160  -32.1590 N   0  0  0  0  0  0  0  0  0  0  0  0
   -9.1630   20.4950  -32.3210 C   0  0  0  0  0  0  0  0  0  0  0  0
   -9.1690   21.8450  -31.6050 C   0  0  0  0  0  0  0  0  0  0  0  0
   -6.9290   20.1540  -33.2670 C   0  0  0  0  0  0  0  0  0  0  0  0
   -5.6810   20.8980  -32.7430 C   0  0  0  0  0  0  0  0  0  0  0  0
   -5.8040   21.2480  -31.3160 N   0  0  0  0  0  0  0  0  0  0  0  0
   -5.8360   22.7060  -31.1070 C   0  0  0  0  0  0  0  0  0  0  0  0
   -4.6220   23.1910  -30.3430 C   0  0  0  0  0  0  0  0  0  0  0  0
   -3.9630   22.3180  -29.4650 C   0  0  0  0  0  0  0  0  0  0  0  0
   -2.8680   22.7620  -28.7160 C   0  0  0  0  0  0  0  0  0  0  0  0
   -2.2050   21.9030  -27.8290 C   0  0  0  0  0  0  0  0  0  0  0  0
   -1.1180   22.3690  -27.0880 C   0  0  0  0  0  0  0  0  0  0  0  0
   -0.6850   23.6900  -27.2240 C   0  0  0  0  0  0  0  0  0  0  0  0
   -1.3350   24.5650  -28.1100 C   0  0  0  0  0  0  0  0  0  0  0  0
   -0.8640   25.9880  -28.2430 C   0  0  0  0  0  0  0  0  0  0  0  0
   -2.4360   24.1000  -28.8570 C   0  0  0  0  0  0  0  0  0  0  0  0
   -3.0890   24.9270  -29.7170 N   0  0  0  0  0  0  0  0  0  0  0  0
   -4.1550   24.5160  -30.4530 C   0  0  0  0  0  0  0  0  0  0  0  0
   -4.7210   25.3350  -31.2270 O   0  0  0  0  0  0  0  0  0  0  0  0
   -6.5587   17.6816  -30.5321 H   0  0  0  0  0  0  0  0  0  0  0  0
   -6.6053   16.7147  -32.0453 H   0  0  0  0  0  0  0  0  0  0  0  0
   -5.8557   18.3471  -32.0453 H   0  0  0  0  0  0  0  0  0  0  0  0
   -8.3851   17.9039  -32.9142 H   0  0  0  0  0  0  0  0  0  0  0  0
   -8.7277   18.1544  -31.1676 H   0  0  0  0  0  0  0  0  0  0  0  0
   -9.3555   20.6547  -33.3922 H   0  0  0  0  0  0  0  0  0  0  0  0
   -9.9457   19.8601  -31.8803 H   0  0  0  0  0  0  0  0  0  0  0  0
   -9.1683   21.6830  -30.5170 H   0  0  0  0  0  0  0  0  0  0  0  0
   -8.2734   22.4159  -31.8913 H   0  0  0  0  0  0  0  0  0  0  0  0
  -10.0697   22.4079  -31.8913 H   0  0  0  0  0  0  0  0  0  0  0  0
   -6.6110   19.2260  -33.7646 H   0  0  0  0  0  0  0  0  0  0  0  0
   -7.4558   20.8119  -33.9738 H   0  0  0  0  0  0  0  0  0  0  0  0
   -4.8008   20.2516  -32.8753 H   0  0  0  0  0  0  0  0  0  0  0  0
   -5.5785   21.8326  -33.3140 H   0  0  0  0  0  0  0  0  0  0  0  0
   -4.9720   20.8660  -30.8040 H   0  0  0  0  0  0  0  0  0  0  0  0
   -6.6650   20.8230  -30.9020 H   0  0  0  0  0  0  0  0  0  0  0  0
   -5.8633   23.2057  -32.0866 H   0  0  0  0  0  0  0  0  0  0  0  0
   -6.7314   22.9471  -30.5153 H   0  0  0  0  0  0  0  0  0  0  0  0
   -4.3090   21.2787  -29.3648 H   0  0  0  0  0  0  0  0  0  0  0  0
   -2.5413   20.8617  -27.7169 H   0  0  0  0  0  0  0  0  0  0  0  0
   -0.5994   21.6922  -26.3930 H   0  0  0  0  0  0  0  0  0  0  0  0
    0.1711   24.0476  -26.6331 H   0  0  0  0  0  0  0  0  0  0  0  0
   -0.7204   26.4217  -27.2424 H   0  0  0  0  0  0  0  0  0  0  0  0
    0.0890   26.0090  -28.7919 H   0  0  0  0  0  0  0  0  0  0  0  0
   -1.6163   26.5734  -28.7919 H   0  0  0  0  0  0  0  0  0  0  0  0
  1  2  1  0
  2  3  1  0
  3  4  1  0
  4  5  1  0
  3  6  1  0
  6  7  1  0
  7  8  1  0
  8  9  1  0
  9 10  1  0
 10 11  2  0
 11 12  1  0
 12 13  2  0
 13 14  1  0
 14 15  2  0
 15 16  1  0
 16 17  1  0
 16 18  2  0
 18 19  1  0
 19 20  1  0
 20 21  2  0
 20 10  1  0
 18 12  1  0
  1 22  1  0
  1 23  1  0
  1 24  1  0
  2 25  1  0
  2 26  1  0
  4 27  1  0
  4 28  1  0
  5 29  1  0
  5 30  1  0
  5 31  1  0
  6 32  1  0
  6 33  1  0
  7 34  1  0
  7 35  1  0
  8 36  1  0
  8 37  1  0
  9 38  1  0
  9 39  1  0
 11 40  1  0
 13 41  1  0
 14 42  1  0
 15 43  1  0
 17 44  1  0
 17 45  1  0
 17 46  1  0
M  CHG  2   8   1  19  -1
M  END
>  <UniqueID>  (19) 
19

>  <SMILES>  (19) 
CCN(CC)CC[NH2+]Cc1cc2cccc(C)c2[n-]c1=O

>  <Energy>  (19) 
49.59108195319365

>  <Genealogy>  (19) 
CCN(CC)CC[NH2+]Cc1cc2cccc(C)c2[n-]c1=O (protonated)
CCN(CC)CC[NH2+]Cc1cc2cccc(C)c2[n-]c1=O (3D coordinates assigned)
CCN(CC)CC[NH2+]Cc1cc2cccc(C)c2[n-]c1=O (optimized conformer: 49.59108195319365 kcal/mol)

>  <smiles>  (19) 
CCN(CC)CCNCc1cc2cccc(C)c2[nH]c1=O

>  <score_type>  (19) 
oracle

>  <origin>  (19) 
adg

>  <m_score__min__energy>  (19) 
-8.1199999999999992

>  <m_primary>  (19) 
energy

$$$$
19:0
     RDKit          3D

 48 51  0  0  0  0  0  0  0  0999 V2000
   -7.7670   18.7070  -32.6480 C   0  0  0  0  0  0  0  0  0  0  0  0
   -7.9470   20.0660  -32.1480 N   0  0  0  0  0  0  0  0  0  0  0  0
   -9.1270   20.7010  -31.9530 C   0  0  0  0  0  0  0  0  0  0  0  0
   -8.9140   21.9770  -31.4420 C   0  0  0  0  0  0  0  0  0  0  0  0
   -7.5450   22.0990  -31.3270 C   0  0  0  0  0  0  0  0  0  0  0  0
   -6.7700   23.1600  -30.8680 C   0  0  0  0  0  0  0  0  0  0  0  0
   -5.3650   23.0080  -30.8610 C   0  0  0  0  0  0  0  0  0  0  0  0
   -4.5010   24.1080  -30.3710 C   0  0  0  0  0  0  0  0  0  0  0  0
   -4.6000   25.2530  -30.8910 O   0  0  0  0  0  0  0  0  0  0  0  0
   -3.5590   23.9000  -29.3040 N   0  0  0  0  0  0  0  0  0  0  0  0
   -4.0140   23.1710  -28.1040 C   0  0  0  0  0  0  0  0  0  0  0  0
   -3.6300   21.6810  -28.1060 C   0  0  0  0  0  0  0  0  0  0  0  0
   -2.1200   21.4430  -27.9400 C   0  0  0  0  0  0  0  0  0  0  0  0
   -1.3470   22.6940  -27.8970 N   0  0  0  0  0  0  0  0  0  0  0  0
   -0.6720   23.0670  -26.6800 C   0  0  0  0  0  0  0  0  0  0  0  0
   -0.8000   22.2770  -25.5280 C   0  0  0  0  0  0  0  0  0  0  0  0
   -0.1410   22.6560  -24.3560 C   0  0  0  0  0  0  0  0  0  0  0  0
    0.6230   23.7810  -24.3330 N   0  0  0  0  0  0  0  0  0  0  0  0
    0.7680   24.5620  -25.4370 C   0  0  0  0  0  0  0  0  0  0  0  0
    0.1240   24.2190  -26.6300 C   0  0  0  0  0  0  0  0  0  0  0  0
   -1.1080   23.4660  -29.1280 C   0  0  0  0  0  0  0  0  0  0  0  0
   -2.2170   24.4990  -29.3960 C   0  0  0  0  0  0  0  0  0  0  0  0
   -4.7920   21.7850  -31.3010 C   0  0  0  0  0  0  0  0  0  0  0  0
   -5.6050   20.7320  -31.7580 C   0  0  0  0  0  0  0  0  0  0  0  0
   -6.9870   20.9260  -31.7610 C   0  0  0  0  0  0  0  0  0  0  0  0
   -7.6751   18.0132  -31.7993 H   0  0  0  0  0  0  0  0  0  0  0  0
   -8.6355   18.4237  -33.2608 H   0  0  0  0  0  0  0  0  0  0  0  0
   -6.8547   18.6596  -33.2608 H   0  0  0  0  0  0  0  0  0  0  0  0
  -10.1152   20.2685  -32.1684 H   0  0  0  0  0  0  0  0  0  0  0  0
   -9.6750   22.7284  -31.1845 H   0  0  0  0  0  0  0  0  0  0  0  0
   -7.2387   24.0923  -30.5199 H   0  0  0  0  0  0  0  0  0  0  0  0
   -3.5652   23.6446  -27.2184 H   0  0  0  0  0  0  0  0  0  0  0  0
   -5.1128   23.2209  -28.0935 H   0  0  0  0  0  0  0  0  0  0  0  0
   -4.1552   21.1838  -27.2772 H   0  0  0  0  0  0  0  0  0  0  0  0
   -3.9193   21.2708  -29.0848 H   0  0  0  0  0  0  0  0  0  0  0  0
   -1.9518   20.8935  -27.0020 H   0  0  0  0  0  0  0  0  0  0  0  0
   -1.7767   20.8715  -28.8149 H   0  0  0  0  0  0  0  0  0  0  0  0
   -1.4151   21.3653  -25.5473 H   0  0  0  0  0  0  0  0  0  0  0  0
   -0.2403   22.0424  -23.4485 H   0  0  0  0  0  0  0  0  0  0  0  0
    1.1100   24.0500  -23.4480 H   0  0  0  0  0  0  0  0  0  0  0  0
    1.3934   25.4657  -25.3914 H   0  0  0  0  0  0  0  0  0  0  0  0
    0.2416   24.8497  -27.5236 H   0  0  0  0  0  0  0  0  0  0  0  0
   -0.1480   23.9946  -29.0329 H   0  0  0  0  0  0  0  0  0  0  0  0
   -1.0966   22.7592  -29.9708 H   0  0  0  0  0  0  0  0  0  0  0  0
   -2.1368   25.3074  -28.6544 H   0  0  0  0  0  0  0  0  0  0  0  0
   -2.0847   24.8839  -30.4179 H   0  0  0  0  0  0  0  0  0  0  0  0
   -3.6993   21.6598  -31.2842 H   0  0  0  0  0  0  0  0  0  0  0  0
   -5.1649   19.7846  -32.1025 H   0  0  0  0  0  0  0  0  0  0  0  0
  1  2  1  0
  2  3  1  0
  3  4  2  0
  4  5  1  0
  5  6  2  0
  6  7  1  0
  7  8  1  0
  8  9  2  0
  8 10  1  0
 10 11  1  0
 11 12  1  0
 12 13  1  0
 13 14  1  0
 14 15  1  0
 15 16  2  0
 16 17  1  0
 17 18  2  0
 18 19  1  0
 19 20  2  0
 14 21  1  0
 21 22  1  0
  7 23  2  0
 23 24  1  0
 24 25  2  0
 25  2  1  0
 25  5  1  0
 22 10  1  0
 20 15  1  0
  1 26  1  0
  1 27  1  0
  1 28  1  0
  3 29  1  0
  4 30  1  0
  6 31  1  0
 11 32  1  0
 11 33  1  0
 12 34  1  0
 12 35  1  0
 13 36  1  0
 13 37  1  0
 16 38  1  0
 17 39  1  0
 18 40  1  0
 19 41  1  0
 20 42  1  0
 21 43  1  0
 21 44  1  0
 22 45  1  0
 22 46  1  0
 23 47  1  0
 24 48  1  0
M  CHG  1  18   1
M  END
>  <UniqueID>  (20) 
20

>  <SMILES>  (20) 
Cn1ccc2cc(C(=O)N3CCCN(c4cc[nH+]cc4)CC3)ccc21

>  <Energy>  (20) 
98.5706964968174

>  <Genealogy>  (20) 
Cn1ccc2cc(C(=O)N3CCCN(c4cc[nH+]cc4)CC3)ccc21 (protonated)
Cn1ccc2cc(C(=O)N3CCCN(c4cc[nH+]cc4)CC3)ccc21 (3D coordinates assigned)
Cn1ccc2cc(C(=O)N3CCCN(c4cc[nH+]cc4)CC3)ccc21 (nonaromatic ring conformer: 98.5706964968174 kcal/mol)

>  <smiles>  (20) 
Cn1ccc2cc(C(=O)N3CCCN(c4ccncc4)CC3)ccc21

>  <score_type>  (20) 
oracle

>  <origin>  (20) 
adg

>  <m_score__min__energy>  (20) 
-7.54

>  <m_primary>  (20) 
energy

$$$$
20:0
     RDKit          3D

 70 72  0  0  0  0  0  0  0  0999 V2000
   -2.8840   14.5610  -32.7470 C   0  0  0  0  0  0  0  0  0  0  0  0
   -2.4200   15.6590  -33.6990 C   0  0  0  0  0  0  0  0  0  0  0  0
   -2.4190   17.0310  -33.0040 C   0  0  0  0  0  0  0  0  0  0  0  0
   -3.2370   18.0180  -33.7250 N   0  0  0  0  0  0  0  0  0  0  0  0
   -3.7370   17.5140  -35.0180 C   0  0  0  0  0  0  0  0  0  0  0  0
   -5.2550   17.3220  -34.9620 C   0  0  0  0  0  0  0  0  0  0  0  0
   -5.6480   16.1050  -34.1140 C   0  0  0  0  0  0  0  0  0  0  0  0
   -6.7000   16.4390  -33.2110 O   0  0  0  0  0  0  0  0  0  0  0  0
   -7.0160   17.7340  -32.7670 C   0  0  0  0  0  0  0  0  0  0  0  0
   -8.3320   18.2070  -32.6800 C   0  0  0  0  0  0  0  0  0  0  0  0
   -8.5910   19.4940  -32.2090 C   0  0  0  0  0  0  0  0  0  0  0  0
   -7.5430   20.3470  -31.7850 C   0  0  0  0  0  0  0  0  0  0  0  0
   -6.2090   19.8850  -31.9310 C   0  0  0  0  0  0  0  0  0  0  0  0
   -5.9670   18.5780  -32.4020 C   0  0  0  0  0  0  0  0  0  0  0  0
   -5.1430   20.7400  -31.6110 C   0  0  0  0  0  0  0  0  0  0  0  0
   -3.7890   20.2880  -31.7620 N   0  0  0  0  0  0  0  0  0  0  0  0
   -2.8160   20.4940  -30.6900 C   0  0  0  0  0  0  0  0  0  0  0  0
   -1.3940   20.5860  -31.2550 C   0  0  0  0  0  0  0  0  0  0  0  0
   -1.3610   20.1160  -32.6570 N   0  0  0  0  0  0  0  0  0  0  0  0
   -1.5480   21.2470  -33.5790 C   0  0  0  0  0  0  0  0  0  0  0  0
   -0.0850   19.4440  -32.9600 C   0  0  0  0  0  0  0  0  0  0  0  0
   -5.4050   22.0540  -31.1940 C   0  0  0  0  0  0  0  0  0  0  0  0
   -4.3480   22.9440  -30.9030 C   0  0  0  0  0  0  0  0  0  0  0  0
   -4.6030   24.2630  -30.5250 C   0  0  0  0  0  0  0  0  0  0  0  0
   -3.4930   25.1340  -30.2610 N   0  0  0  0  0  0  0  0  0  0  0  0
   -2.4530   24.9240  -29.2970 C   0  0  0  0  0  0  0  0  0  0  0  0
   -2.5050   23.8110  -28.2950 C   0  0  0  0  0  0  0  0  0  0  0  0
   -1.4400   25.6730  -29.3200 O   0  0  0  0  0  0  0  0  0  0  0  0
   -5.9200   24.7260  -30.5010 C   0  0  0  0  0  0  0  0  0  0  0  0
   -6.9790   23.8570  -30.7650 C   0  0  0  0  0  0  0  0  0  0  0  0
   -6.7500   22.4910  -31.0660 C   0  0  0  0  0  0  0  0  0  0  0  0
   -7.7900   21.6000  -31.2550 N   0  0  0  0  0  0  0  0  0  0  0  0
   -9.1650   21.9750  -30.8520 C   0  0  0  0  0  0  0  0  0  0  0  0
   -2.7436   14.8932  -31.7078 H   0  0  0  0  0  0  0  0  0  0  0  0
   -3.9488   14.3486  -32.9234 H   0  0  0  0  0  0  0  0  0  0  0  0
   -2.2942   13.6494  -32.9234 H   0  0  0  0  0  0  0  0  0  0  0  0
   -1.4005   15.4295  -34.0423 H   0  0  0  0  0  0  0  0  0  0  0  0
   -3.1150   15.6995  -34.5507 H   0  0  0  0  0  0  0  0  0  0  0  0
   -2.8203   16.9133  -31.9866 H   0  0  0  0  0  0  0  0  0  0  0  0
   -1.3828   17.3997  -32.9847 H   0  0  0  0  0  0  0  0  0  0  0  0
   -2.6780   18.8910  -33.8800 H   0  0  0  0  0  0  0  0  0  0  0  0
   -3.4917   18.2379  -35.8091 H   0  0  0  0  0  0  0  0  0  0  0  0
   -3.2614   16.5457  -35.2328 H   0  0  0  0  0  0  0  0  0  0  0  0
   -5.7112   18.2223  -34.5246 H   0  0  0  0  0  0  0  0  0  0  0  0
   -5.6148   17.1528  -35.9876 H   0  0  0  0  0  0  0  0  0  0  0  0
   -5.9855   15.2957  -34.7782 H   0  0  0  0  0  0  0  0  0  0  0  0
   -4.7722   15.7810  -33.5327 H   0  0  0  0  0  0  0  0  0  0  0  0
   -9.1667   17.5588  -32.9853 H   0  0  0  0  0  0  0  0  0  0  0  0
   -9.6297   19.8536  -32.1660 H   0  0  0  0  0  0  0  0  0  0  0  0
   -4.9311   18.2171  -32.4831 H   0  0  0  0  0  0  0  0  0  0  0  0
   -3.5010   19.8770  -32.6790 H   0  0  0  0  0  0  0  0  0  0  0  0
   -3.0549   21.4284  -30.1609 H   0  0  0  0  0  0  0  0  0  0  0  0
   -2.8662   19.6391  -29.9996 H   0  0  0  0  0  0  0  0  0  0  0  0
   -1.0562   21.6321  -31.2161 H   0  0  0  0  0  0  0  0  0  0  0  0
   -0.7300   19.9498  -30.6513 H   0  0  0  0  0  0  0  0  0  0  0  0
   -1.7006   22.1702  -33.0007 H   0  0  0  0  0  0  0  0  0  0  0  0
   -0.6555   21.3548  -34.2129 H   0  0  0  0  0  0  0  0  0  0  0  0
   -2.4277   21.0617  -34.2129 H   0  0  0  0  0  0  0  0  0  0  0  0
    0.4212   19.1774  -32.0205 H   0  0  0  0  0  0  0  0  0  0  0  0
   -0.2804   18.5318  -33.5429 H   0  0  0  0  0  0  0  0  0  0  0  0
    0.5567   20.1212  -33.5429 H   0  0  0  0  0  0  0  0  0  0  0  0
   -3.3082   22.5924  -30.9753 H   0  0  0  0  0  0  0  0  0  0  0  0
   -2.4854   24.2314  -27.2787 H   0  0  0  0  0  0  0  0  0  0  0  0
   -3.4311   23.2342  -28.4354 H   0  0  0  0  0  0  0  0  0  0  0  0
   -1.6367   23.1504  -28.4354 H   0  0  0  0  0  0  0  0  0  0  0  0
   -6.1239   25.7825  -30.2725 H   0  0  0  0  0  0  0  0  0  0  0  0
   -8.0103   24.2388  -30.7391 H   0  0  0  0  0  0  0  0  0  0  0  0
   -9.2332   21.9936  -29.7543 H   0  0  0  0  0  0  0  0  0  0  0  0
   -9.4052   22.9715  -31.2512 H   0  0  0  0  0  0  0  0  0  0  0  0
   -9.8778   21.2385  -31.2512 H   0  0  0  0  0  0  0  0  0  0  0  0
  1  2  1  0
  2  3  1  0
  3  4  1  0
  4  5  1  0
  5  6  1  0
  6  7  1  0
  7  8  1  0
  8  9  1  0
  9 10  2  0
 10 11  1  0
 11 12  2  0
 12 13  1  0
 13 14  2  0
 13 15  1  0
 15 16  1  0
 16 17  1  0
 17 18  1  0
 18 19  1  0
 19 20  1  0
 19 21  1  0
 15 22  2  0
 22 23  1  0
 23 24  2  0
 24 25  1  0
 25 26  1  0
 26 27  1  0
 26 28  2  0
 24 29  1  0
 29 30  2  0
 30 31  1  0
 31 32  2  0
 32 33  1  0
 14  9  1  0
 31 22  1  0
 32 12  1  0
  1 34  1  0
  1 35  1  0
  1 36  1  0
  2 37  1  0
  2 38  1  0
  3 39  1  0
  3 40  1  0
  4 41  1  0
  5 42  1  0
  5 43  1  0
  6 44  1  0
  6 45  1  0
  7 46  1  0
  7 47  1  0
 10 48  1  0
 11 49  1  0
 14 50  1  0
 16 51  1  0
 17 52  1  0
 17 53  1  0
 18 54  1  0
 18 55  1  0
 20 56  1  0
 20 57  1  0
 20 58  1  0
 21 59  1  0
 21 60  1  0
 21 61  1  0
 23 62  1  0
 27 63  1  0
 27 64  1  0
 27 65  1  0
 29 66  1  0
 30 67  1  0
 33 68  1  0
 33 69  1  0
 33 70  1  0
M  CHG  2  25  -1  32   1
M  END
>  <UniqueID>  (21) 
21

>  <SMILES>  (21) 
CCCNCCCOc1ccc2c(c1)c(NCCN(C)C)c1cc([N-]C(C)=O)ccc1[n+]2C

>  <Energy>  (21) 
93.08550739373014

>  <Genealogy>  (21) 
CCCNCCCOc1ccc2c(c1)c(NCCN(C)C)c1cc([N-]C(C)=O)ccc1[n+]2C (protonated)
CCCNCCCOc1ccc2c(c1)c(NCCN(C)C)c1cc([N-]C(C)=O)ccc1[n+]2C (3D coordinates assigned)
CCCNCCCOc1ccc2c(c1)c(NCCN(C)C)c1cc([N-]C(C)=O)ccc1[n+]2C (optimized conformer: 93.08550739373014 kcal/mol)

>  <smiles>  (21) 
CCCNCCCOc1ccc2c(c1)c(NCCN(C)C)c1cc(NC(C)=O)ccc1[n+]2C

>  <score_type>  (21) 
oracle

>  <origin>  (21) 
adg

>  <m_score__min__energy>  (21) 
-9.9900000000000002

>  <m_primary>  (21) 
energy

$$$$
21:0
     RDKit          3D

 51 54  0  0  0  0  0  0  0  0999 V2000
   -2.0740   19.5170  -26.3620 C   0  0  0  0  0  0  0  0  0  0  0  0
   -1.2820   20.6960  -26.2700 O   0  0  0  0  0  0  0  0  0  0  0  0
   -1.1160   21.6310  -27.3080 C   0  0  0  0  0  0  0  0  0  0  0  0
   -1.7940   21.5050  -28.5330 C   0  0  0  0  0  0  0  0  0  0  0  0
   -1.6060   22.4480  -29.5490 C   0  0  0  0  0  0  0  0  0  0  0  0
   -2.3670   22.3250  -30.8410 C   0  0  0  0  0  0  0  0  0  0  0  0
   -3.5530   23.2380  -30.8230 C   0  0  0  0  0  0  0  0  0  0  0  0
   -3.4860   24.5830  -30.6710 N   0  0  0  0  0  0  0  0  0  0  0  0
   -4.7230   25.0640  -30.8090 N   0  0  0  0  0  0  0  0  0  0  0  0
   -5.5130   24.0000  -31.0530 C   0  0  0  0  0  0  0  0  0  0  0  0
   -6.8790   23.9890  -31.2980 C   0  0  0  0  0  0  0  0  0  0  0  0
   -7.4710   22.7410  -31.5600 C   0  0  0  0  0  0  0  0  0  0  0  0
   -6.6790   21.5560  -31.5640 C   0  0  0  0  0  0  0  0  0  0  0  0
   -7.2520   20.2510  -31.8320 N   0  0  0  0  0  0  0  0  0  0  0  0
   -6.4160   19.2380  -32.5060 C   0  0  0  0  0  0  0  0  0  0  0  0
   -6.9840   17.8290  -32.3140 C   0  0  0  0  0  0  0  0  0  0  0  0
   -8.3640   17.7990  -32.6090 O   0  0  0  0  0  0  0  0  0  0  0  0
   -9.0560   18.5520  -31.6360 C   0  0  0  0  0  0  0  0  0  0  0  0
   -8.7050   20.0390  -31.7440 C   0  0  0  0  0  0  0  0  0  0  0  0
   -5.3360   21.6670  -31.3170 N   0  0  0  0  0  0  0  0  0  0  0  0
   -4.8160   22.8670  -31.0710 N   0  0  0  0  0  0  0  0  0  0  0  0
   -0.7580   23.5410  -29.3300 C   0  0  0  0  0  0  0  0  0  0  0  0
   -0.0620   23.6840  -28.1140 C   0  0  0  0  0  0  0  0  0  0  0  0
    0.8070   24.7690  -27.9070 O   0  0  0  0  0  0  0  0  0  0  0  0
    2.1560   24.6630  -27.4590 C   0  0  0  0  0  0  0  0  0  0  0  0
   -0.2460   22.7150  -27.0930 C   0  0  0  0  0  0  0  0  0  0  0  0
    0.3980   22.7660  -25.8400 O   0  0  0  0  0  0  0  0  0  0  0  0
   -0.1540   23.2440  -24.6170 C   0  0  0  0  0  0  0  0  0  0  0  0
   -2.3154   19.1576  -25.3508 H   0  0  0  0  0  0  0  0  0  0  0  0
   -3.0049   19.7419  -26.9032 H   0  0  0  0  0  0  0  0  0  0  0  0
   -1.5138   18.7403  -26.9032 H   0  0  0  0  0  0  0  0  0  0  0  0
   -2.4776   20.6584  -28.6939 H   0  0  0  0  0  0  0  0  0  0  0  0
   -1.7091   22.5983  -31.6792 H   0  0  0  0  0  0  0  0  0  0  0  0
   -2.7110   21.2871  -30.9611 H   0  0  0  0  0  0  0  0  0  0  0  0
   -7.4720   24.9154  -31.2877 H   0  0  0  0  0  0  0  0  0  0  0  0
   -8.5503   22.6788  -31.7628 H   0  0  0  0  0  0  0  0  0  0  0  0
   -6.3763   19.4646  -33.5817 H   0  0  0  0  0  0  0  0  0  0  0  0
   -5.4093   19.2692  -32.0637 H   0  0  0  0  0  0  0  0  0  0  0  0
   -6.4571   17.1336  -32.9839 H   0  0  0  0  0  0  0  0  0  0  0  0
   -6.8419   17.5322  -31.2644 H   0  0  0  0  0  0  0  0  0  0  0  0
  -10.1384   18.4257  -31.7856 H   0  0  0  0  0  0  0  0  0  0  0  0
   -8.7614   18.1929  -30.6389 H   0  0  0  0  0  0  0  0  0  0  0  0
   -9.1807   20.4528  -32.6454 H   0  0  0  0  0  0  0  0  0  0  0  0
   -9.0705   20.5439  -30.8376 H   0  0  0  0  0  0  0  0  0  0  0  0
   -0.6339   24.2980  -30.1184 H   0  0  0  0  0  0  0  0  0  0  0  0
    2.1781   24.6613  -26.3592 H   0  0  0  0  0  0  0  0  0  0  0  0
    2.5951   23.7276  -27.8360 H   0  0  0  0  0  0  0  0  0  0  0  0
    2.7359   25.5184  -27.8360 H   0  0  0  0  0  0  0  0  0  0  0  0
    0.3771   22.7841  -23.7705 H   0  0  0  0  0  0  0  0  0  0  0  0
   -0.0447   24.3375  -24.5680 H   0  0  0  0  0  0  0  0  0  0  0  0
   -1.2206   22.9795  -24.5680 H   0  0  0  0  0  0  0  0  0  0  0  0
  1  2  1  0
  2  3  1  0
  3  4  2  0
  4  5  1  0
  5  6  1  0
  6  7  1  0
  7  8  2  0
  8  9  1  0
  9 10  2  0
 10 11  1  0
 11 12  2  0
 12 13  1  0
 13 14  1  0
 14 15  1  0
 15 16  1  0
 16 17  1  0
 17 18  1  0
 18 19  1  0
 13 20  2  0
 20 21  1  0
  5 22  2  0
 22 23  1  0
 23 24  1  0
 24 25  1  0
 23 26  2  0
 26 27  1  0
 27 28  1  0
 26  3  1  0
 21  7  1  0
 21 10  1  0
 19 14  1  0
  1 29  1  0
  1 30  1  0
  1 31  1  0
  4 32  1  0
  6 33  1  0
  6 34  1  0
 11 35  1  0
 12 36  1  0
 15 37  1  0
 15 38  1  0
 16 39  1  0
 16 40  1  0
 18 41  1  0
 18 42  1  0
 19 43  1  0
 19 44  1  0
 22 45  1  0
 25 46  1  0
 25 47  1  0
 25 48  1  0
 28 49  1  0
 28 50  1  0
 28 51  1  0
M  END
>  <UniqueID>  (22) 
22

>  <SMILES>  (22) 
COc1cc(Cc2nnc3ccc(N4CCOCC4)nn23)cc(OC)c1OC

>  <Energy>  (22) 
99.5557828836508

>  <Genealogy>  (22) 
COc1cc(Cc2nnc3ccc(N4CCOCC4)nn23)cc(OC)c1OC (3D coordinates assigned)
COc1cc(Cc2nnc3ccc(N4CCOCC4)nn23)cc(OC)c1OC (nonaromatic ring conformer: 99.5557828836508 kcal/mol)

>  <smiles>  (22) 
COc1cc(Cc2nnc3ccc(N4CCOCC4)nn23)cc(OC)c1OC

>  <score_type>  (22) 
oracle

>  <origin>  (22) 
adg

>  <m_score__min__energy>  (22) 
-8.5700000000000003

>  <m_primary>  (22) 
energy

$$$$
22:0
     RDKit          3D

 62 65  0  0  0  0  0  0  0  0999 V2000
   -3.1010   19.0760  -26.6980 C   0  0  0  0  0  0  0  0  0  0  0  0
   -1.6350   19.5020  -26.7790 C   0  0  0  0  0  0  0  0  0  0  0  0
   -1.4690   20.5970  -27.7570 N   0  0  0  0  0  0  0  0  0  0  0  0
   -1.1180   20.0520  -29.0810 C   0  0  0  0  0  0  0  0  0  0  0  0
   -2.6820   21.4460  -27.8430 C   0  0  0  0  0  0  0  0  0  0  0  0
   -3.1040   21.6390  -29.3050 C   0  0  0  0  0  0  0  0  0  0  0  0
   -2.6590   23.0070  -29.8480 C   0  0  0  0  0  0  0  0  0  0  0  0
   -3.2000   23.2550  -31.1880 N   0  0  0  0  0  0  0  0  0  0  0  0
   -3.7520   22.2020  -31.9890 C   0  0  0  0  0  0  0  0  0  0  0  0
   -2.9030   21.2750  -32.6350 C   0  0  0  0  0  0  0  0  0  0  0  0
   -1.5110   21.4980  -32.6890 C   0  0  0  0  0  0  0  0  0  0  0  0
   -0.6610   20.5640  -33.2700 C   0  0  0  0  0  0  0  0  0  0  0  0
   -1.1770   19.3950  -33.8120 C   0  0  0  0  0  0  0  0  0  0  0  0
   -2.5530   19.1640  -33.8110 C   0  0  0  0  0  0  0  0  0  0  0  0
   -3.4560   20.1090  -33.2560 C   0  0  0  0  0  0  0  0  0  0  0  0
   -4.8340   19.9240  -33.3020 N   0  0  0  0  0  0  0  0  0  0  0  0
   -5.4250   18.8520  -34.1290 C   0  0  0  0  0  0  0  0  0  0  0  0
   -5.7160   17.6090  -33.2870 C   0  0  0  0  0  0  0  0  0  0  0  0
   -5.6360   20.8240  -32.6340 C   0  0  0  0  0  0  0  0  0  0  0  0
   -7.0250   20.8660  -32.4490 C   0  0  0  0  0  0  0  0  0  0  0  0
   -8.0730   19.9710  -32.7320 C   0  0  0  0  0  0  0  0  0  0  0  0
   -9.3880   20.3520  -32.4240 C   0  0  0  0  0  0  0  0  0  0  0  0
   -9.6500   21.5960  -31.8290 C   0  0  0  0  0  0  0  0  0  0  0  0
   -8.5970   22.4640  -31.5100 C   0  0  0  0  0  0  0  0  0  0  0  0
   -7.2850   22.0660  -31.8080 C   0  0  0  0  0  0  0  0  0  0  0  0
   -6.1440   22.7470  -31.5380 N   0  0  0  0  0  0  0  0  0  0  0  0
   -6.0840   24.1280  -31.0290 C   0  0  0  0  0  0  0  0  0  0  0  0
   -5.7320   24.1310  -29.5450 C   0  0  0  0  0  0  0  0  0  0  0  0
   -5.1350   21.9720  -32.0360 C   0  0  0  0  0  0  0  0  0  0  0  0
   -3.3998   18.9892  -25.6429 H   0  0  0  0  0  0  0  0  0  0  0  0
   -3.7296   19.8286  -27.1964 H   0  0  0  0  0  0  0  0  0  0  0  0
   -3.2284   18.1037  -27.1964 H   0  0  0  0  0  0  0  0  0  0  0  0
   -1.3029   19.8473  -25.7888 H   0  0  0  0  0  0  0  0  0  0  0  0
   -1.0311   18.6412  -27.1019 H   0  0  0  0  0  0  0  0  0  0  0  0
   -0.5264   19.1334  -28.9543 H   0  0  0  0  0  0  0  0  0  0  0  0
   -2.0380   19.8217  -29.6383 H   0  0  0  0  0  0  0  0  0  0  0  0
   -0.5278   20.7943  -29.6383 H   0  0  0  0  0  0  0  0  0  0  0  0
   -3.5015   20.9624  -27.2911 H   0  0  0  0  0  0  0  0  0  0  0  0
   -2.4574   22.4302  -27.4061 H   0  0  0  0  0  0  0  0  0  0  0  0
   -2.6466   20.8468  -29.9159 H   0  0  0  0  0  0  0  0  0  0  0  0
   -4.2018   21.5901  -29.3550 H   0  0  0  0  0  0  0  0  0  0  0  0
   -3.0148   23.7946  -29.1675 H   0  0  0  0  0  0  0  0  0  0  0  0
   -1.5609   23.0121  -29.9127 H   0  0  0  0  0  0  0  0  0  0  0  0
   -3.1180   24.2120  -31.6000 H   0  0  0  0  0  0  0  0  0  0  0  0
   -1.0927   22.4232  -32.2658 H   0  0  0  0  0  0  0  0  0  0  0  0
    0.4224   20.7517  -33.3003 H   0  0  0  0  0  0  0  0  0  0  0  0
   -0.4972   18.6463  -34.2448 H   0  0  0  0  0  0  0  0  0  0  0  0
   -2.9451   18.2337  -34.2477 H   0  0  0  0  0  0  0  0  0  0  0  0
   -6.3644   19.2151  -34.5713 H   0  0  0  0  0  0  0  0  0  0  0  0
   -4.7076   18.5814  -34.9178 H   0  0  0  0  0  0  0  0  0  0  0  0
   -5.6556   17.8670  -32.2194 H   0  0  0  0  0  0  0  0  0  0  0  0
   -6.7254   17.2377  -33.5180 H   0  0  0  0  0  0  0  0  0  0  0  0
   -4.9764   16.8283  -33.5180 H   0  0  0  0  0  0  0  0  0  0  0  0
   -7.8655   18.9909  -33.1862 H   0  0  0  0  0  0  0  0  0  0  0  0
  -10.2206   19.6699  -32.6508 H   0  0  0  0  0  0  0  0  0  0  0  0
  -10.6872   21.8911  -31.6120 H   0  0  0  0  0  0  0  0  0  0  0  0
   -8.7949   23.4367  -31.0360 H   0  0  0  0  0  0  0  0  0  0  0  0
   -5.3166   24.6865  -31.5850 H   0  0  0  0  0  0  0  0  0  0  0  0
   -7.0674   24.6019  -31.1642 H   0  0  0  0  0  0  0  0  0  0  0  0
   -6.6564   24.1231  -28.9489 H   0  0  0  0  0  0  0  0  0  0  0  0
   -5.1352   23.2379  -29.3079 H   0  0  0  0  0  0  0  0  0  0  0  0
   -5.1505   25.0341  -29.3079 H   0  0  0  0  0  0  0  0  0  0  0  0
  1  2  1  0
  2  3  1  0
  3  4  1  0
  3  5  1  0
  5  6  1  0
  6  7  1  0
  7  8  1  0
  8  9  1  0
  9 10  2  0
 10 11  1  0
 11 12  2  0
 12 13  1  0
 13 14  2  0
 14 15  1  0
 15 16  2  0
 16 17  1  0
 17 18  1  0
 16 19  1  0
 19 20  1  0
 20 21  2  0
 21 22  1  0
 22 23  2  0
 23 24  1  0
 24 25  2  0
 25 26  1  0
 26 27  1  0
 27 28  1  0
 26 29  1  0
 29  9  1  0
 15 10  1  0
 29 19  2  0
 25 20  1  0
  1 30  1  0
  1 31  1  0
  1 32  1  0
  2 33  1  0
  2 34  1  0
  4 35  1  0
  4 36  1  0
  4 37  1  0
  5 38  1  0
  5 39  1  0
  6 40  1  0
  6 41  1  0
  7 42  1  0
  7 43  1  0
  8 44  1  0
 11 45  1  0
 12 46  1  0
 13 47  1  0
 14 48  1  0
 17 49  1  0
 17 50  1  0
 18 51  1  0
 18 52  1  0
 18 53  1  0
 21 54  1  0
 22 55  1  0
 23 56  1  0
 24 57  1  0
 27 58  1  0
 27 59  1  0
 28 60  1  0
 28 61  1  0
 28 62  1  0
M  CHG  1  16   1
M  END
>  <UniqueID>  (23) 
23

>  <SMILES>  (23) 
CCN(C)CCCNc1c2ccccc2[n+](CC)c2c3ccccc3n(CC)c12

>  <Energy>  (23) 
123.50738153056483

>  <Genealogy>  (23) 
CCN(C)CCCNc1c2ccccc2[n+](CC)c2c3ccccc3n(CC)c12 (3D coordinates assigned)
CCN(C)CCCNc1c2ccccc2[n+](CC)c2c3ccccc3n(CC)c12 (optimized conformer: 123.50738153056483 kcal/mol)

>  <smiles>  (23) 
CCN(C)CCCNc1c2ccccc2[n+](CC)c2c3ccccc3n(CC)c12

>  <score_type>  (23) 
oracle

>  <origin>  (23) 
adg

>  <m_score__min__energy>  (23) 
-8.6199999999999992

>  <m_primary>  (23) 
energy

$$$$
23:0
     RDKit          3D

 55 57  0  0  0  0  0  0  0  0999 V2000
   -5.7450   25.6990  -30.4400 C   0  0  0  0  0  0  0  0  0  0  0  0
   -5.4340   24.2290  -30.1640 C   0  0  0  0  0  0  0  0  0  0  0  0
   -4.0940   23.8270  -30.6680 N   0  0  0  0  0  0  0  0  0  0  0  0
   -3.0450   24.2570  -29.7100 C   0  0  0  0  0  0  0  0  0  0  0  0
   -3.4940   24.1230  -28.2520 C   0  0  0  0  0  0  0  0  0  0  0  0
   -4.0100   22.3540  -30.8720 C   0  0  0  0  0  0  0  0  0  0  0  0
   -3.4930   21.9900  -32.2780 C   0  0  0  0  0  0  0  0  0  0  0  0
   -4.5220   21.5450  -33.2290 N   0  0  0  0  0  0  0  0  0  0  0  0
   -5.6630   20.7310  -32.9100 C   0  0  0  0  0  0  0  0  0  0  0  0
   -6.8570   21.3670  -32.5200 C   0  0  0  0  0  0  0  0  0  0  0  0
   -6.9660   22.7770  -32.5400 C   0  0  0  0  0  0  0  0  0  0  0  0
   -8.1170   23.4120  -32.0850 C   0  0  0  0  0  0  0  0  0  0  0  0
   -9.1770   22.6600  -31.5950 C   0  0  0  0  0  0  0  0  0  0  0  0
   -9.1050   21.2680  -31.5930 C   0  0  0  0  0  0  0  0  0  0  0  0
   -7.9610   20.5910  -32.0940 C   0  0  0  0  0  0  0  0  0  0  0  0
   -7.9010   19.2150  -32.1480 N   0  0  0  0  0  0  0  0  0  0  0  0
   -9.1370   18.4170  -31.9690 C   0  0  0  0  0  0  0  0  0  0  0  0
   -6.7010   18.5800  -32.4120 C   0  0  0  0  0  0  0  0  0  0  0  0
   -6.5500   17.1990  -32.1620 C   0  0  0  0  0  0  0  0  0  0  0  0
   -5.3750   16.5320  -32.4640 C   0  0  0  0  0  0  0  0  0  0  0  0
   -4.3090   17.2000  -33.0640 C   0  0  0  0  0  0  0  0  0  0  0  0
   -3.0630   16.4060  -33.3710 C   0  0  0  0  0  0  0  0  0  0  0  0
   -4.4270   18.5800  -33.3710 C   0  0  0  0  0  0  0  0  0  0  0  0
   -3.3550   19.2260  -34.2260 C   0  0  0  0  0  0  0  0  0  0  0  0
   -5.5820   19.3090  -32.9140 C   0  0  0  0  0  0  0  0  0  0  0  0
   -5.8584   26.2351  -29.4862 H   0  0  0  0  0  0  0  0  0  0  0  0
   -4.9216   26.1461  -31.0163 H   0  0  0  0  0  0  0  0  0  0  0  0
   -6.6789   25.7743  -31.0163 H   0  0  0  0  0  0  0  0  0  0  0  0
   -5.4681   24.0590  -29.0778 H   0  0  0  0  0  0  0  0  0  0  0  0
   -6.1855   23.6232  -30.6915 H   0  0  0  0  0  0  0  0  0  0  0  0
   -2.1509   23.6347  -29.8627 H   0  0  0  0  0  0  0  0  0  0  0  0
   -2.8341   25.3199  -29.8991 H   0  0  0  0  0  0  0  0  0  0  0  0
   -2.6554   24.3733  -27.5856 H   0  0  0  0  0  0  0  0  0  0  0  0
   -4.3314   24.8104  -28.0616 H   0  0  0  0  0  0  0  0  0  0  0  0
   -3.8177   23.0891  -28.0616 H   0  0  0  0  0  0  0  0  0  0  0  0
   -3.3254   21.9309  -30.1222 H   0  0  0  0  0  0  0  0  0  0  0  0
   -5.0237   21.9399  -30.7670 H   0  0  0  0  0  0  0  0  0  0  0  0
   -3.0014   22.8789  -32.7002 H   0  0  0  0  0  0  0  0  0  0  0  0
   -2.8145   21.1350  -32.1412 H   0  0  0  0  0  0  0  0  0  0  0  0
   -4.5570   22.0620  -34.1370 H   0  0  0  0  0  0  0  0  0  0  0  0
   -6.1286   23.3801  -32.9208 H   0  0  0  0  0  0  0  0  0  0  0  0
   -8.1877   24.5094  -32.1133 H   0  0  0  0  0  0  0  0  0  0  0  0
  -10.0749   23.1639  -31.2078 H   0  0  0  0  0  0  0  0  0  0  0  0
   -9.9485   20.6837  -31.1967 H   0  0  0  0  0  0  0  0  0  0  0  0
   -9.3376   18.2875  -30.8952 H   0  0  0  0  0  0  0  0  0  0  0  0
   -9.9826   18.9401  -32.4395 H   0  0  0  0  0  0  0  0  0  0  0  0
   -9.0082   17.4311  -32.4395 H   0  0  0  0  0  0  0  0  0  0  0  0
   -7.3858   16.6394  -31.7166 H   0  0  0  0  0  0  0  0  0  0  0  0
   -5.2816   15.4618  -32.2275 H   0  0  0  0  0  0  0  0  0  0  0  0
   -2.5823   16.0997  -32.4302 H   0  0  0  0  0  0  0  0  0  0  0  0
   -3.3319   15.5123  -33.9533 H   0  0  0  0  0  0  0  0  0  0  0  0
   -2.3665   17.0272  -33.9533 H   0  0  0  0  0  0  0  0  0  0  0  0
   -2.5946   19.6842  -33.5765 H   0  0  0  0  0  0  0  0  0  0  0  0
   -2.8826   18.4620  -34.8610 H   0  0  0  0  0  0  0  0  0  0  0  0
   -3.8098   20.0006  -34.8610 H   0  0  0  0  0  0  0  0  0  0  0  0
  1  2  1  0
  2  3  1  0
  3  4  1  0
  4  5  1  0
  3  6  1  0
  6  7  1  0
  7  8  1  0
  8  9  1  0
  9 10  2  0
 10 11  1  0
 11 12  2  0
 12 13  1  0
 13 14  2  0
 14 15  1  0
 15 16  2  0
 16 17  1  0
 16 18  1  0
 18 19  2  0
 19 20  1  0
 20 21  2  0
 21 22  1  0
 21 23  1  0
 23 24  1  0
 23 25  2  0
 25  9  1  0
 15 10  1  0
 25 18  1  0
  1 26  1  0
  1 27  1  0
  1 28  1  0
  2 29  1  0
  2 30  1  0
  4 31  1  0
  4 32  1  0
  5 33  1  0
  5 34  1  0
  5 35  1  0
  6 36  1  0
  6 37  1  0
  7 38  1  0
  7 39  1  0
  8 40  1  0
 11 41  1  0
 12 42  1  0
 13 43  1  0
 14 44  1  0
 17 45  1  0
 17 46  1  0
 17 47  1  0
 19 48  1  0
 20 49  1  0
 22 50  1  0
 22 51  1  0
 22 52  1  0
 24 53  1  0
 24 54  1  0
 24 55  1  0
M  CHG  1  16   1
M  END
>  <UniqueID>  (24) 
24

>  <SMILES>  (24) 
CCN(CC)CCNc1c2ccccc2[n+](C)c2ccc(C)c(C)c12

>  <Energy>  (24) 
94.30578500646372

>  <Genealogy>  (24) 
CCN(CC)CCNc1c2ccccc2[n+](C)c2ccc(C)c(C)c12 (3D coordinates assigned)
CCN(CC)CCNc1c2ccccc2[n+](C)c2ccc(C)c(C)c12 (optimized conformer: 94.30578500646372 kcal/mol)

>  <smiles>  (24) 
CCN(CC)CCNc1c2ccccc2[n+](C)c2ccc(C)c(C)c12

>  <score_type>  (24) 
oracle

>  <origin>  (24) 
adg

>  <m_score__min__energy>  (24) 
-8.7300000000000004

>  <m_primary>  (24) 
energy

$$$$
24:0
     RDKit          3D

 53 55  0  0  0  0  0  0  0  0999 V2000
   -3.9000   23.7740  -28.4800 C   0  0  0  0  0  0  0  0  0  0  0  0
   -3.4070   24.3370  -29.8210 C   0  0  0  0  0  0  0  0  0  0  0  0
   -4.4740   24.6140  -30.8200 N   0  0  0  0  0  0  0  0  0  0  0  0
   -5.3690   25.7380  -30.4670 C   0  0  0  0  0  0  0  0  0  0  0  0
   -6.6440   25.3070  -29.7400 C   0  0  0  0  0  0  0  0  0  0  0  0
   -5.1790   23.4430  -31.3860 C   0  0  0  0  0  0  0  0  0  0  0  0
   -4.1840   22.3940  -31.8910 C   0  0  0  0  0  0  0  0  0  0  0  0
   -4.6540   21.7840  -33.1350 N   0  0  0  0  0  0  0  0  0  0  0  0
   -5.1080   20.4210  -33.1730 C   0  0  0  0  0  0  0  0  0  0  0  0
   -6.4340   20.1100  -32.8240 C   0  0  0  0  0  0  0  0  0  0  0  0
   -6.8840   18.7690  -32.9380 C   0  0  0  0  0  0  0  0  0  0  0  0
   -6.0490   17.8020  -33.4690 N   0  0  0  0  0  0  0  0  0  0  0  0
   -6.5850   16.4660  -33.8160 C   0  0  0  0  0  0  0  0  0  0  0  0
   -4.7040   18.0660  -33.6460 C   0  0  0  0  0  0  0  0  0  0  0  0
   -3.7740   17.0390  -33.9510 C   0  0  0  0  0  0  0  0  0  0  0  0
   -2.4210   17.3260  -34.1400 C   0  0  0  0  0  0  0  0  0  0  0  0
   -1.9580   18.6290  -34.0130 C   0  0  0  0  0  0  0  0  0  0  0  0
   -2.8430   19.6540  -33.6900 C   0  0  0  0  0  0  0  0  0  0  0  0
   -4.2170   19.3900  -33.5070 C   0  0  0  0  0  0  0  0  0  0  0  0
   -8.3150   18.4190  -32.5400 C   0  0  0  0  0  0  0  0  0  0  0  0
   -8.9550   19.4290  -31.5890 C   0  0  0  0  0  0  0  0  0  0  0  0
   -8.7810   20.8340  -32.1430 C   0  0  0  0  0  0  0  0  0  0  0  0
   -7.2980   21.1900  -32.1890 C   0  0  0  0  0  0  0  0  0  0  0  0
   -3.4211   24.3209  -27.6544 H   0  0  0  0  0  0  0  0  0  0  0  0
   -4.9917   23.8906  -28.4125 H   0  0  0  0  0  0  0  0  0  0  0  0
   -3.6403   22.7072  -28.4125 H   0  0  0  0  0  0  0  0  0  0  0  0
   -2.8754   25.2789  -29.6203 H   0  0  0  0  0  0  0  0  0  0  0  0
   -2.7679   23.5587  -30.2634 H   0  0  0  0  0  0  0  0  0  0  0  0
   -4.8157   26.4306  -29.8157 H   0  0  0  0  0  0  0  0  0  0  0  0
   -5.6817   26.2073  -31.4114 H   0  0  0  0  0  0  0  0  0  0  0  0
   -6.4827   25.3615  -28.6533 H   0  0  0  0  0  0  0  0  0  0  0  0
   -7.4707   25.9756  -30.0220 H   0  0  0  0  0  0  0  0  0  0  0  0
   -6.8955   24.2739  -30.0220 H   0  0  0  0  0  0  0  0  0  0  0  0
   -5.8116   22.9929  -30.6068 H   0  0  0  0  0  0  0  0  0  0  0  0
   -5.7930   23.7802  -32.2341 H   0  0  0  0  0  0  0  0  0  0  0  0
   -3.2123   22.8769  -32.0715 H   0  0  0  0  0  0  0  0  0  0  0  0
   -4.0865   21.6069  -31.1288 H   0  0  0  0  0  0  0  0  0  0  0  0
   -4.5370   22.3000  -34.0360 H   0  0  0  0  0  0  0  0  0  0  0  0
   -6.8082   15.9096  -32.8937 H   0  0  0  0  0  0  0  0  0  0  0  0
   -7.5060   16.5824  -34.4060 H   0  0  0  0  0  0  0  0  0  0  0  0
   -5.8389   15.9135  -34.4060 H   0  0  0  0  0  0  0  0  0  0  0  0
   -4.1246   16.0002  -34.0400 H   0  0  0  0  0  0  0  0  0  0  0  0
   -1.7190   16.5170  -34.3905 H   0  0  0  0  0  0  0  0  0  0  0  0
   -0.8919   18.8513  -34.1676 H   0  0  0  0  0  0  0  0  0  0  0  0
   -2.4669   20.6814  -33.5761 H   0  0  0  0  0  0  0  0  0  0  0  0
   -8.9261   18.3670  -33.4532 H   0  0  0  0  0  0  0  0  0  0  0  0
   -8.2732   17.4582  -32.0061 H   0  0  0  0  0  0  0  0  0  0  0  0
  -10.0273   19.2064  -31.4864 H   0  0  0  0  0  0  0  0  0  0  0  0
   -8.4687   19.3622  -30.6046 H   0  0  0  0  0  0  0  0  0  0  0  0
   -9.1997   20.8806  -33.1591 H   0  0  0  0  0  0  0  0  0  0  0  0
   -9.3067   21.5490  -31.4931 H   0  0  0  0  0  0  0  0  0  0  0  0
   -7.1802   22.1166  -32.7700 H   0  0  0  0  0  0  0  0  0  0  0  0
   -6.9602   21.3044  -31.1484 H   0  0  0  0  0  0  0  0  0  0  0  0
  1  2  1  0
  2  3  1  0
  3  4  1  0
  4  5  1  0
  3  6  1  0
  6  7  1  0
  7  8  1  0
  8  9  1  0
  9 10  2  0
 10 11  1  0
 11 12  2  0
 12 13  1  0
 12 14  1  0
 14 15  2  0
 15 16  1  0
 16 17  2  0
 17 18  1  0
 18 19  2  0
 11 20  1  0
 20 21  1  0
 21 22  1  0
 22 23  1  0
 19  9  1  0
 23 10  1  0
 19 14  1  0
  1 24  1  0
  1 25  1  0
  1 26  1  0
  2 27  1  0
  2 28  1  0
  4 29  1  0
  4 30  1  0
  5 31  1  0
  5 32  1  0
  5 33  1  0
  6 34  1  0
  6 35  1  0
  7 36  1  0
  7 37  1  0
  8 38  1  0
 13 39  1  0
 13 40  1  0
 13 41  1  0
 15 42  1  0
 16 43  1  0
 17 44  1  0
 18 45  1  0
 20 46  1  0
 20 47  1  0
 21 48  1  0
 21 49  1  0
 22 50  1  0
 22 51  1  0
 23 52  1  0
 23 53  1  0
M  CHG  1  12   1
M  END
>  <UniqueID>  (25) 
25

>  <SMILES>  (25) 
CCN(CC)CCNc1c2c([n+](C)c3ccccc13)CCCC2

>  <Energy>  (25) 
77.65813355907319

>  <Genealogy>  (25) 
CCN(CC)CCNc1c2c([n+](C)c3ccccc13)CCCC2 (3D coordinates assigned)
CCN(CC)CCNc1c2c([n+](C)c3ccccc13)CCCC2 (nonaromatic ring conformer: 77.65813355907319 kcal/mol)

>  <smiles>  (25) 
CCN(CC)CCNc1c2c([n+](C)c3ccccc13)CCCC2

>  <score_type>  (25) 
oracle

>  <origin>  (25) 
adg

>  <m_score__min__energy>  (25) 
-8.7400000000000002

>  <m_primary>  (25) 
energy

$$$$
25:0
     RDKit          3D

 61 63  0  0  0  0  0  0  0  0999 V2000
   -2.2920   21.9240  -28.2230 C   0  0  0  0  0  0  0  0  0  0  0  0
   -3.7530   22.1960  -27.8880 C   0  0  0  0  0  0  0  0  0  0  0  0
   -4.1130   23.5650  -28.3290 N   0  0  0  0  0  0  0  0  0  0  0  0
   -4.2070   24.5280  -27.2090 C   0  0  0  0  0  0  0  0  0  0  0  0
   -2.8420   24.9870  -26.6740 C   0  0  0  0  0  0  0  0  0  0  0  0
   -5.2940   23.6070  -29.2210 C   0  0  0  0  0  0  0  0  0  0  0  0
   -5.0790   24.5910  -30.3710 C   0  0  0  0  0  0  0  0  0  0  0  0
   -4.6550   23.8850  -31.5190 O   0  0  0  0  0  0  0  0  0  0  0  0
   -3.5640   23.0380  -31.2090 C   0  0  0  0  0  0  0  0  0  0  0  0
   -3.5870   21.7810  -32.0890 C   0  0  0  0  0  0  0  0  0  0  0  0
   -4.6240   21.8740  -33.1350 N   0  0  0  0  0  0  0  0  0  0  0  0
   -5.7010   20.9210  -32.9050 C   0  0  0  0  0  0  0  0  0  0  0  0
   -6.9710   21.3970  -32.4680 C   0  0  0  0  0  0  0  0  0  0  0  0
   -7.2710   22.7850  -32.4270 C   0  0  0  0  0  0  0  0  0  0  0  0
   -8.4900   23.2460  -31.9390 C   0  0  0  0  0  0  0  0  0  0  0  0
   -9.4360   22.3490  -31.4700 C   0  0  0  0  0  0  0  0  0  0  0  0
   -9.1830   20.9820  -31.5190 C   0  0  0  0  0  0  0  0  0  0  0  0
   -7.9690   20.4730  -32.0550 C   0  0  0  0  0  0  0  0  0  0  0  0
   -7.7410   19.1180  -32.1430 N   0  0  0  0  0  0  0  0  0  0  0  0
   -8.8690   18.1710  -31.9770 C   0  0  0  0  0  0  0  0  0  0  0  0
   -6.4810   18.6400  -32.4340 C   0  0  0  0  0  0  0  0  0  0  0  0
   -6.1570   17.2810  -32.2070 C   0  0  0  0  0  0  0  0  0  0  0  0
   -4.9360   16.7580  -32.5980 C   0  0  0  0  0  0  0  0  0  0  0  0
   -4.0220   17.5530  -33.2640 C   0  0  0  0  0  0  0  0  0  0  0  0
   -4.2830   18.9170  -33.4890 C   0  0  0  0  0  0  0  0  0  0  0  0
   -3.4000   19.6650  -34.2840 O   0  0  0  0  0  0  0  0  0  0  0  0
   -1.9780   19.6080  -34.2140 C   0  0  0  0  0  0  0  0  0  0  0  0
   -5.4730   19.5090  -32.9540 C   0  0  0  0  0  0  0  0  0  0  0  0
   -1.7161   21.8168  -27.2919 H   0  0  0  0  0  0  0  0  0  0  0  0
   -2.2168   20.9964  -28.8095 H   0  0  0  0  0  0  0  0  0  0  0  0
   -1.8881   22.7624  -28.8095 H   0  0  0  0  0  0  0  0  0  0  0  0
   -4.3906   21.4642  -28.4057 H   0  0  0  0  0  0  0  0  0  0  0  0
   -3.9032   22.1086  -26.8018 H   0  0  0  0  0  0  0  0  0  0  0  0
   -4.7591   25.4133  -27.5574 H   0  0  0  0  0  0  0  0  0  0  0  0
   -4.7194   24.0124  -26.3834 H   0  0  0  0  0  0  0  0  0  0  0  0
   -2.8585   24.9814  -25.5741 H   0  0  0  0  0  0  0  0  0  0  0  0
   -2.0588   24.3028  -27.0324 H   0  0  0  0  0  0  0  0  0  0  0  0
   -2.6313   26.0054  -27.0324 H   0  0  0  0  0  0  0  0  0  0  0  0
   -5.4677   22.6028  -29.6349 H   0  0  0  0  0  0  0  0  0  0  0  0
   -6.1636   23.9387  -28.6347 H   0  0  0  0  0  0  0  0  0  0  0  0
   -6.0225   25.1130  -30.5887 H   0  0  0  0  0  0  0  0  0  0  0  0
   -4.3115   25.3262  -30.0872 H   0  0  0  0  0  0  0  0  0  0  0  0
   -2.6238   23.5824  -31.3812 H   0  0  0  0  0  0  0  0  0  0  0  0
   -3.6407   22.7335  -30.1548 H   0  0  0  0  0  0  0  0  0  0  0  0
   -2.6044   21.6623  -32.5690 H   0  0  0  0  0  0  0  0  0  0  0  0
   -3.8169   20.9156  -31.4500 H   0  0  0  0  0  0  0  0  0  0  0  0
   -4.2070   21.7110  -34.0800 H   0  0  0  0  0  0  0  0  0  0  0  0
   -4.9810   22.8490  -33.2230 H   0  0  0  0  0  0  0  0  0  0  0  0
   -6.5256   23.5090  -32.7878 H   0  0  0  0  0  0  0  0  0  0  0  0
   -8.7030   24.3251  -31.9256 H   0  0  0  0  0  0  0  0  0  0  0  0
  -10.3873   22.7178  -31.0588 H   0  0  0  0  0  0  0  0  0  0  0  0
   -9.9382   20.2804  -31.1349 H   0  0  0  0  0  0  0  0  0  0  0  0
   -9.0591   18.0114  -30.9054 H   0  0  0  0  0  0  0  0  0  0  0  0
   -9.7700   18.5872  -32.4512 H   0  0  0  0  0  0  0  0  0  0  0  0
   -8.6150   17.2115  -32.4512 H   0  0  0  0  0  0  0  0  0  0  0  0
   -6.8894   16.6276  -31.7103 H   0  0  0  0  0  0  0  0  0  0  0  0
   -4.6928   15.7080  -32.3783 H   0  0  0  0  0  0  0  0  0  0  0  0
   -3.0793   17.1138  -33.6223 H   0  0  0  0  0  0  0  0  0  0  0  0
   -1.6630   19.5954  -33.1601 H   0  0  0  0  0  0  0  0  0  0  0  0
   -1.6226   18.6949  -34.7139 H   0  0  0  0  0  0  0  0  0  0  0  0
   -1.5506   20.4897  -34.7139 H   0  0  0  0  0  0  0  0  0  0  0  0
  1  2  1  0
  2  3  1  0
  3  4  1  0
  4  5  1  0
  3  6  1  0
  6  7  1  0
  7  8  1  0
  8  9  1  0
  9 10  1  0
 10 11  1  0
 11 12  1  0
 12 13  2  0
 13 14  1  0
 14 15  2  0
 15 16  1  0
 16 17  2  0
 17 18  1  0
 18 19  2  0
 19 20  1  0
 19 21  1  0
 21 22  2  0
 22 23  1  0
 23 24  2  0
 24 25  1  0
 25 26  1  0
 26 27  1  0
 25 28  2  0
 28 12  1  0
 18 13  1  0
 28 21  1  0
  1 29  1  0
  1 30  1  0
  1 31  1  0
  2 32  1  0
  2 33  1  0
  4 34  1  0
  4 35  1  0
  5 36  1  0
  5 37  1  0
  5 38  1  0
  6 39  1  0
  6 40  1  0
  7 41  1  0
  7 42  1  0
  9 43  1  0
  9 44  1  0
 10 45  1  0
 10 46  1  0
 11 47  1  0
 11 48  1  0
 14 49  1  0
 15 50  1  0
 16 51  1  0
 17 52  1  0
 20 53  1  0
 20 54  1  0
 20 55  1  0
 22 56  1  0
 23 57  1  0
 24 58  1  0
 27 59  1  0
 27 60  1  0
 27 61  1  0
M  CHG  2  11   1  19   1
M  END
>  <UniqueID>  (26) 
26

>  <SMILES>  (26) 
CCN(CC)CCOCC[NH2+]c1c2ccccc2[n+](C)c2cccc(OC)c12

>  <Energy>  (26) 
96.3564216101926

>  <Genealogy>  (26) 
CCN(CC)CCOCC[NH2+]c1c2ccccc2[n+](C)c2cccc(OC)c12 (protonated)
CCN(CC)CCOCC[NH2+]c1c2ccccc2[n+](C)c2cccc(OC)c12 (3D coordinates assigned)
CCN(CC)CCOCC[NH2+]c1c2ccccc2[n+](C)c2cccc(OC)c12 (optimized conformer: 96.3564216101926 kcal/mol)

>  <smiles>  (26) 
CCN(CC)CCOCCNc1c2ccccc2[n+](C)c2cccc(OC)c12

>  <score_type>  (26) 
oracle

>  <origin>  (26) 
adg

>  <m_score__min__energy>  (26) 
-7.54

>  <m_primary>  (26) 
energy

$$$$
26:0
     RDKit          3D

 47 49  0  0  0  0  0  0  0  0999 V2000
   -0.1250   22.4910  -28.2130 C   0  0  0  0  0  0  0  0  0  0  0  0
   -1.5040   22.6320  -28.8070 C   0  0  0  0  0  0  0  0  0  0  0  0
   -2.2690   21.4780  -29.0200 C   0  0  0  0  0  0  0  0  0  0  0  0
   -3.5490   21.5570  -29.5640 C   0  0  0  0  0  0  0  0  0  0  0  0
   -4.1060   22.8010  -29.9140 C   0  0  0  0  0  0  0  0  0  0  0  0
   -5.4110   22.9460  -30.4610 C   0  0  0  0  0  0  0  0  0  0  0  0
   -6.3520   21.7930  -30.7610 C   0  0  0  0  0  0  0  0  0  0  0  0
   -6.7190   21.7790  -32.1950 N   0  0  0  0  0  0  0  0  0  0  0  0
   -8.1760   21.5730  -32.3690 C   0  0  0  0  0  0  0  0  0  0  0  0
   -8.7010   20.3740  -31.5590 C   0  0  0  0  0  0  0  0  0  0  0  0
   -8.6860   19.0090  -32.2750 C   0  0  0  0  0  0  0  0  0  0  0  0
   -7.4050   18.6450  -32.9300 N   0  0  2  0  0  0  0  0  0  0  0  0
   -7.1990   17.1930  -33.0890 C   0  0  0  0  0  0  0  0  0  0  0  0
   -6.2330   19.3420  -32.3530 C   0  0  0  0  0  0  0  0  0  0  0  0
   -5.9570   20.7390  -32.9260 C   0  0  0  0  0  0  0  0  0  0  0  0
   -5.8810   24.2370  -30.7360 C   0  0  0  0  0  0  0  0  0  0  0  0
   -5.0640   25.3360  -30.4890 C   0  0  0  0  0  0  0  0  0  0  0  0
   -5.4820   26.4980  -30.7370 O   0  0  0  0  0  0  0  0  0  0  0  0
   -3.8470   25.1700  -29.9950 O   0  0  0  0  0  0  0  0  0  0  0  0
   -3.3350   23.9760  -29.7020 C   0  0  0  0  0  0  0  0  0  0  0  0
   -2.0260   23.8930  -29.1760 C   0  0  0  0  0  0  0  0  0  0  0  0
   -1.2210   25.1520  -28.9510 C   0  0  0  0  0  0  0  0  0  0  0  0
   -0.1961   22.4983  -27.1153 H   0  0  0  0  0  0  0  0  0  0  0  0
    0.3221   21.5425  -28.5452 H   0  0  0  0  0  0  0  0  0  0  0  0
    0.5048   23.3294  -28.5452 H   0  0  0  0  0  0  0  0  0  0  0  0
   -1.8529   20.4951  -28.7538 H   0  0  0  0  0  0  0  0  0  0  0  0
   -4.1307   20.6368  -29.7217 H   0  0  0  0  0  0  0  0  0  0  0  0
   -5.8553   20.8453  -30.5058 H   0  0  0  0  0  0  0  0  0  0  0  0
   -7.2665   21.9169  -30.1623 H   0  0  0  0  0  0  0  0  0  0  0  0
   -8.7028   22.4803  -32.0384 H   0  0  0  0  0  0  0  0  0  0  0  0
   -8.3601   21.3646  -33.4333 H   0  0  0  0  0  0  0  0  0  0  0  0
   -8.0830   20.2846  -30.6534 H   0  0  0  0  0  0  0  0  0  0  0  0
   -9.7614   20.5923  -31.3644 H   0  0  0  0  0  0  0  0  0  0  0  0
   -8.9183   18.2333  -31.5305 H   0  0  0  0  0  0  0  0  0  0  0  0
   -9.4279   19.0841  -33.0836 H   0  0  0  0  0  0  0  0  0  0  0  0
   -7.4820   19.0170  -33.9080 H   0  0  0  0  0  0  0  0  0  0  0  0
   -7.1321   16.7214  -32.0975 H   0  0  0  0  0  0  0  0  0  0  0  0
   -8.0449   16.7613  -33.6440 H   0  0  0  0  0  0  0  0  0  0  0  0
   -6.2664   17.0136  -33.6440 H   0  0  0  0  0  0  0  0  0  0  0  0
   -6.3970   19.4445  -31.2701 H   0  0  0  0  0  0  0  0  0  0  0  0
   -5.3564   18.7284  -32.6081 H   0  0  0  0  0  0  0  0  0  0  0  0
   -4.8819   20.9557  -32.8408 H   0  0  0  0  0  0  0  0  0  0  0  0
   -6.2733   20.7518  -33.9795 H   0  0  0  0  0  0  0  0  0  0  0  0
   -6.8917   24.3812  -31.1455 H   0  0  0  0  0  0  0  0  0  0  0  0
   -1.1089   25.3274  -27.8709 H   0  0  0  0  0  0  0  0  0  0  0  0
   -0.2274   25.0387  -29.4092 H   0  0  0  0  0  0  0  0  0  0  0  0
   -1.7408   26.0063  -29.4092 H   0  0  0  0  0  0  0  0  0  0  0  0
  1  2  1  0
  2  3  2  0
  3  4  1  0
  4  5  2  0
  5  6  1  0
  6  7  1  0
  7  8  1  0
  8  9  1  0
  9 10  1  0
 10 11  1  0
 11 12  1  0
 12 13  1  0
 12 14  1  0
 14 15  1  0
  6 16  2  0
 16 17  1  0
 17 18  2  0
 17 19  1  0
 19 20  1  0
 20 21  2  0
 21 22  1  0
 21  2  1  0
 20  5  1  0
 15  8  1  0
  1 23  1  0
  1 24  1  0
  1 25  1  0
  3 26  1  0
  4 27  1  0
  7 28  1  0
  7 29  1  0
  9 30  1  0
  9 31  1  0
 10 32  1  0
 10 33  1  0
 11 34  1  0
 11 35  1  0
 12 36  1  6
 13 37  1  0
 13 38  1  0
 13 39  1  0
 14 40  1  0
 14 41  1  0
 15 42  1  0
 15 43  1  0
 16 44  1  0
 22 45  1  0
 22 46  1  0
 22 47  1  0
M  CHG  1  12   1
M  END
>  <UniqueID>  (27) 
27

>  <SMILES>  (27) 
Cc1ccc2c(CN3CCC[N@H+](C)CC3)cc(=O)oc2c1C

>  <Energy>  (27) 
72.41312909808481

>  <Genealogy>  (27) 
Cc1ccc2c(CN3CCC[NH+](C)CC3)cc(=O)oc2c1C (protonated)
Cc1ccc2c(CN3CCC[N@H+](C)CC3)cc(=O)oc2c1C (chirality)
Cc1ccc2c(CN3CCC[N@H+](C)CC3)cc(=O)oc2c1C (3D coordinates assigned)
Cc1ccc2c(CN3CCC[N@H+](C)CC3)cc(=O)oc2c1C (nonaromatic ring conformer: 72.41312909808481 kcal/mol)

>  <smiles>  (27) 
Cc1ccc2c(CN3CCCN(C)CC3)cc(=O)oc2c1C

>  <score_type>  (27) 
oracle

>  <origin>  (27) 
adg

>  <m_score__min__energy>  (27) 
-5.6699999999999999

>  <m_primary>  (27) 
energy

$$$$
27:0
     RDKit          3D

 40 41  0  0  0  0  0  0  0  0999 V2000
   -6.2780   25.6610  -29.3590 C   0  0  0  0  0  0  0  0  0  0  0  0
   -5.3670   25.6740  -30.5880 C   0  0  0  0  0  0  0  0  0  0  0  0
   -4.6860   24.3830  -30.8430 N   0  0  0  0  0  0  0  0  0  0  0  0
   -4.0490   23.7740  -29.6520 C   0  0  0  0  0  0  0  0  0  0  0  0
   -2.7840   24.5440  -29.2780 C   0  0  0  0  0  0  0  0  0  0  0  0
   -5.3670   23.4640  -31.7940 C   0  0  1  0  0  0  0  0  0  0  0  0
   -4.7540   22.0600  -31.6670 C   0  0  0  0  0  0  0  0  0  0  0  0
   -5.3990   21.1010  -32.6640 C   0  0  0  0  0  0  0  0  0  0  0  0
   -6.8850   21.0020  -32.4190 C   0  0  0  0  0  0  0  0  0  0  0  0
   -7.5980   22.1250  -31.9380 C   0  0  0  0  0  0  0  0  0  0  0  0
   -8.9810   22.0220  -31.7190 C   0  0  0  0  0  0  0  0  0  0  0  0
   -9.6560   20.8290  -31.9770 C   0  0  0  0  0  0  0  0  0  0  0  0
   -8.9640   19.7250  -32.4730 C   0  0  0  0  0  0  0  0  0  0  0  0
   -7.5740   19.8000  -32.7070 C   0  0  0  0  0  0  0  0  0  0  0  0
   -6.8540   18.7060  -33.2200 O   0  0  0  0  0  0  0  0  0  0  0  0
   -6.4750   17.5600  -32.4590 C   0  0  0  0  0  0  0  0  0  0  0  0
   -6.9240   23.4590  -31.6600 C   0  0  0  0  0  0  0  0  0  0  0  0
   -5.6633   25.6698  -28.4468 H   0  0  0  0  0  0  0  0  0  0  0  0
   -6.9257   26.5500  -29.3733 H   0  0  0  0  0  0  0  0  0  0  0  0
   -6.9000   24.7539  -29.3733 H   0  0  0  0  0  0  0  0  0  0  0  0
   -5.9768   25.9240  -31.4687 H   0  0  0  0  0  0  0  0  0  0  0  0
   -4.5801   26.4179  -30.3948 H   0  0  0  0  0  0  0  0  0  0  0  0
   -4.7543   23.8024  -28.8084 H   0  0  0  0  0  0  0  0  0  0  0  0
   -3.7801   22.7325  -29.8822 H   0  0  0  0  0  0  0  0  0  0  0  0
   -2.6972   24.5968  -28.1827 H   0  0  0  0  0  0  0  0  0  0  0  0
   -1.9049   24.0277  -29.6910 H   0  0  0  0  0  0  0  0  0  0  0  0
   -2.8389   25.5621  -29.6910 H   0  0  0  0  0  0  0  0  0  0  0  0
   -5.1908   23.8406  -32.8124 H   0  0  0  0  0  0  0  0  0  0  0  0
   -3.6739   22.1175  -31.8673 H   0  0  0  0  0  0  0  0  0  0  0  0
   -4.9322   21.6856  -30.6481 H   0  0  0  0  0  0  0  0  0  0  0  0
   -5.2246   21.4700  -33.6855 H   0  0  0  0  0  0  0  0  0  0  0  0
   -4.9512   20.1041  -32.5385 H   0  0  0  0  0  0  0  0  0  0  0  0
   -9.5381   22.8914  -31.3399 H   0  0  0  0  0  0  0  0  0  0  0  0
  -10.7375   20.7590  -31.7886 H   0  0  0  0  0  0  0  0  0  0  0  0
   -9.5043   18.7902  -32.6832 H   0  0  0  0  0  0  0  0  0  0  0  0
   -6.5513   17.7907  -31.3862 H   0  0  0  0  0  0  0  0  0  0  0  0
   -7.1435   16.7209  -32.7021 H   0  0  0  0  0  0  0  0  0  0  0  0
   -5.4381   17.2850  -32.7021 H   0  0  0  0  0  0  0  0  0  0  0  0
   -7.3280   24.1974  -32.3682 H   0  0  0  0  0  0  0  0  0  0  0  0
   -7.1384   23.6933  -30.6068 H   0  0  0  0  0  0  0  0  0  0  0  0
  1  2  1  0
  2  3  1  0
  3  4  1  0
  4  5  1  0
  3  6  1  0
  6  7  1  0
  7  8  1  0
  8  9  1  0
  9 10  2  0
 10 11  1  0
 11 12  2  0
 12 13  1  0
 13 14  2  0
 14 15  1  0
 15 16  1  0
 10 17  1  0
 17  6  1  0
 14  9  1  0
  1 18  1  0
  1 19  1  0
  1 20  1  0
  2 21  1  0
  2 22  1  0
  4 23  1  0
  4 24  1  0
  5 25  1  0
  5 26  1  0
  5 27  1  0
  6 28  1  6
  7 29  1  0
  7 30  1  0
  8 31  1  0
  8 32  1  0
 11 33  1  0
 12 34  1  0
 13 35  1  0
 16 36  1  0
 16 37  1  0
 16 38  1  0
 17 39  1  0
 17 40  1  0
M  END
>  <UniqueID>  (28) 
28

>  <SMILES>  (28) 
CCN(CC)[C@H]1CCc2c(cccc2OC)C1

>  <Energy>  (28) 
49.2031522174693

>  <Genealogy>  (28) 
CCN(CC)[C@H]1CCc2c(cccc2OC)C1 (chirality)
CCN(CC)[C@H]1CCc2c(cccc2OC)C1 (3D coordinates assigned)
CCN(CC)[C@H]1CCc2c(cccc2OC)C1 (nonaromatic ring conformer: 49.2031522174693 kcal/mol)

>  <smiles>  (28) 
CCN(CC)C1CCc2c(cccc2OC)C1

>  <score_type>  (28) 
oracle

>  <origin>  (28) 
adg

>  <m_score__min__energy>  (28) 
-7.3799999999999999

>  <m_primary>  (28) 
energy

$$$$
28:0
     RDKit          3D

 40 42  0  0  0  0  0  0  0  0999 V2000
   -4.3160   21.7670  -32.7330 C   0  0  0  0  0  0  0  0  0  0  0  0
   -4.5740   22.8250  -31.6940 C   0  0  0  0  0  0  0  0  0  0  0  0
   -3.5560   23.1470  -30.7810 C   0  0  0  0  0  0  0  0  0  0  0  0
   -3.7640   24.1150  -29.7960 C   0  0  0  0  0  0  0  0  0  0  0  0
   -2.3710   24.5350  -28.5590 Br  0  0  0  0  0  0  0  0  0  0  0  0
   -4.9880   24.7760  -29.7190 C   0  0  0  0  0  0  0  0  0  0  0  0
   -6.0070   24.4770  -30.6230 C   0  0  0  0  0  0  0  0  0  0  0  0
   -5.8200   23.4980  -31.6200 C   0  0  0  0  0  0  0  0  0  0  0  0
   -6.8720   23.1890  -32.5630 N   0  0  0  0  0  0  0  0  0  0  0  0
   -7.9620   22.2330  -32.3320 C   0  0  0  0  0  0  0  0  0  0  0  0
   -7.4730   20.7660  -32.3100 C   0  0  1  0  0  0  0  0  0  0  0  0
   -8.5680   19.8080  -31.8120 C   0  0  0  0  0  0  0  0  0  0  0  0
   -7.9820   18.4090  -31.6010 C   0  0  0  0  0  0  0  0  0  0  0  0
   -7.0340   18.0050  -32.7040 C   0  0  0  0  0  0  0  0  0  0  0  0
   -6.5990   16.6710  -32.7680 C   0  0  0  0  0  0  0  0  0  0  0  0
   -5.6700   16.2770  -33.7330 C   0  0  0  0  0  0  0  0  0  0  0  0
   -5.1620   17.2090  -34.6370 C   0  0  0  0  0  0  0  0  0  0  0  0
   -5.5770   18.5410  -34.5790 C   0  0  0  0  0  0  0  0  0  0  0  0
   -6.4970   18.9620  -33.6020 C   0  0  0  0  0  0  0  0  0  0  0  0
   -6.9800   20.3260  -33.6280 N   0  0  0  0  0  0  0  0  0  0  0  0
   -4.0835   20.8137  -32.2358 H   0  0  0  0  0  0  0  0  0  0  0  0
   -5.2105   21.6442  -33.3613 H   0  0  0  0  0  0  0  0  0  0  0  0
   -3.4654   22.0698  -33.3613 H   0  0  0  0  0  0  0  0  0  0  0  0
   -2.5860   22.6319  -30.8425 H   0  0  0  0  0  0  0  0  0  0  0  0
   -5.1514   25.5371  -28.9418 H   0  0  0  0  0  0  0  0  0  0  0  0
   -6.9667   25.0106  -30.5574 H   0  0  0  0  0  0  0  0  0  0  0  0
   -6.8700   23.6670  -33.4910 H   0  0  0  0  0  0  0  0  0  0  0  0
   -8.4321   22.4620  -31.3642 H   0  0  0  0  0  0  0  0  0  0  0  0
   -8.6748   22.3337  -33.1637 H   0  0  0  0  0  0  0  0  0  0  0  0
   -6.6320   20.7331  -31.6018 H   0  0  0  0  0  0  0  0  0  0  0  0
   -8.9730   20.1809  -30.8597 H   0  0  0  0  0  0  0  0  0  0  0  0
   -9.3703   19.7545  -32.5626 H   0  0  0  0  0  0  0  0  0  0  0  0
   -7.4372   18.3956  -30.6455 H   0  0  0  0  0  0  0  0  0  0  0  0
   -8.8178   17.6939  -31.6011 H   0  0  0  0  0  0  0  0  0  0  0  0
   -6.9924   15.9326  -32.0539 H   0  0  0  0  0  0  0  0  0  0  0  0
   -5.3383   15.2293  -33.7801 H   0  0  0  0  0  0  0  0  0  0  0  0
   -4.4325   16.8942  -35.3978 H   0  0  0  0  0  0  0  0  0  0  0  0
   -5.1809   19.2675  -35.3038 H   0  0  0  0  0  0  0  0  0  0  0  0
   -6.2060   20.9640  -33.9280 H   0  0  0  0  0  0  0  0  0  0  0  0
   -7.7480   20.3640  -34.3360 H   0  0  0  0  0  0  0  0  0  0  0  0
  1  2  1  0
  2  3  2  0
  3  4  1  0
  4  5  1  0
  4  6  2  0
  6  7  1  0
  7  8  2  0
  8  9  1  0
  9 10  1  0
 10 11  1  0
 11 12  1  0
 12 13  1  0
 13 14  1  0
 14 15  2  0
 15 16  1  0
 16 17  2  0
 17 18  1  0
 18 19  2  0
 19 20  1  0
  8  2  1  0
 20 11  1  0
 19 14  1  0
  1 21  1  0
  1 22  1  0
  1 23  1  0
  3 24  1  0
  6 25  1  0
  7 26  1  0
  9 27  1  0
 10 28  1  0
 10 29  1  0
 11 30  1  1
 12 31  1  0
 12 32  1  0
 13 33  1  0
 13 34  1  0
 15 35  1  0
 16 36  1  0
 17 37  1  0
 18 38  1  0
 20 39  1  0
 20 40  1  0
M  CHG  1  20   1
M  END
>  <UniqueID>  (29) 
29

>  <SMILES>  (29) 
Cc1cc(Br)ccc1NC[C@H]1CCc2ccccc2[NH2+]1

>  <Energy>  (29) 
46.211687431759465

>  <Genealogy>  (29) 
Cc1cc(Br)ccc1NCC1CCc2ccccc2[NH2+]1 (protonated)
Cc1cc(Br)ccc1NC[C@H]1CCc2ccccc2[NH2+]1 (chirality)
Cc1cc(Br)ccc1NC[C@H]1CCc2ccccc2[NH2+]1 (3D coordinates assigned)
Cc1cc(Br)ccc1NC[C@H]1CCc2ccccc2[NH2+]1 (nonaromatic ring conformer: 46.211687431759465 kcal/mol)

>  <smiles>  (29) 
Cc1cc(Br)ccc1NCC1CCc2ccccc2N1

>  <score_type>  (29) 
oracle

>  <origin>  (29) 
adg

>  <m_score__min__energy>  (29) 
-8.4600000000000009

>  <m_primary>  (29) 
energy

$$$$
29:0
     RDKit          3D

 62 65  0  0  0  0  0  0  0  0999 V2000
   -2.3710   20.8660  -29.5170 C   0  0  0  0  0  0  0  0  0  0  0  0
   -3.4510   21.7710  -28.9270 C   0  0  0  0  0  0  0  0  0  0  0  0
   -2.8470   22.7830  -28.0240 N   0  0  0  0  0  0  0  0  0  0  0  0
   -1.4050   22.5110  -27.8030 C   0  0  0  0  0  0  0  0  0  0  0  0
   -1.2000   21.8280  -26.4470 C   0  0  0  0  0  0  0  0  0  0  0  0
   -3.0600   24.1530  -28.5490 C   0  0  0  0  0  0  0  0  0  0  0  0
   -3.1590   24.1410  -30.0860 C   0  0  0  0  0  0  0  0  0  0  0  0
   -3.8620   25.2800  -30.5510 O   0  0  0  0  0  0  0  0  0  0  0  0
   -5.1900   25.3050  -30.0570 C   0  0  0  0  0  0  0  0  0  0  0  0
   -5.9150   24.0080  -30.4210 C   0  0  0  0  0  0  0  0  0  0  0  0
   -5.4790   23.5310  -31.7310 N   0  0  0  0  0  0  0  0  0  0  0  0
   -5.7430   22.1830  -32.1420 C   0  0  0  0  0  0  0  0  0  0  0  0
   -7.0610   21.6950  -32.1600 C   0  0  0  0  0  0  0  0  0  0  0  0
   -8.1450   22.5340  -31.8310 C   0  0  0  0  0  0  0  0  0  0  0  0
   -9.4550   22.0630  -31.8990 C   0  0  0  0  0  0  0  0  0  0  0  0
   -9.7060   20.7590  -32.3090 C   0  0  0  0  0  0  0  0  0  0  0  0
   -8.6490   19.9090  -32.6300 C   0  0  0  0  0  0  0  0  0  0  0  0
   -7.3030   20.3470  -32.5360 C   0  0  0  0  0  0  0  0  0  0  0  0
   -6.2420   19.5050  -32.8150 N   0  0  0  0  0  0  0  0  0  0  0  0
   -6.4580   18.0420  -32.9020 C   0  0  0  0  0  0  0  0  0  0  0  0
   -4.9690   20.0220  -32.9720 C   0  0  0  0  0  0  0  0  0  0  0  0
   -3.9520   19.2630  -33.5050 N   0  0  0  0  0  0  0  0  0  0  0  0
   -2.6720   19.7270  -33.6030 C   0  0  0  0  0  0  0  0  0  0  0  0
   -1.6570   18.9180  -34.1410 C   0  0  0  0  0  0  0  0  0  0  0  0
   -0.3460   19.3990  -34.2310 C   0  0  0  0  0  0  0  0  0  0  0  0
   -0.0370   20.6840  -33.7810 C   0  0  0  0  0  0  0  0  0  0  0  0
   -1.0390   21.5010  -33.2520 C   0  0  0  0  0  0  0  0  0  0  0  0
   -2.3590   21.0290  -33.1640 C   0  0  0  0  0  0  0  0  0  0  0  0
   -3.3780   21.8420  -32.6700 C   0  0  0  0  0  0  0  0  0  0  0  0
   -4.6970   21.3610  -32.5930 C   0  0  0  0  0  0  0  0  0  0  0  0
   -1.8048   20.3915  -28.7020 H   0  0  0  0  0  0  0  0  0  0  0  0
   -2.8421   20.0890  -30.1369 H   0  0  0  0  0  0  0  0  0  0  0  0
   -1.6884   21.4658  -30.1369 H   0  0  0  0  0  0  0  0  0  0  0  0
   -3.9788   22.2845  -29.7442 H   0  0  0  0  0  0  0  0  0  0  0  0
   -4.1546   21.1540  -28.3489 H   0  0  0  0  0  0  0  0  0  0  0  0
   -1.0322   21.8531  -28.6018 H   0  0  0  0  0  0  0  0  0  0  0  0
   -0.8533   23.4626  -27.8140 H   0  0  0  0  0  0  0  0  0  0  0  0
   -1.4148   22.5437  -25.6398 H   0  0  0  0  0  0  0  0  0  0  0  0
   -1.8792   20.9668  -26.3638 H   0  0  0  0  0  0  0  0  0  0  0  0
   -0.1588   21.4832  -26.3638 H   0  0  0  0  0  0  0  0  0  0  0  0
   -3.9931   24.5584  -28.1308 H   0  0  0  0  0  0  0  0  0  0  0  0
   -2.2048   24.7796  -28.2559 H   0  0  0  0  0  0  0  0  0  0  0  0
   -2.1454   24.1429  -30.5133 H   0  0  0  0  0  0  0  0  0  0  0  0
   -3.7030   23.2374  -30.3985 H   0  0  0  0  0  0  0  0  0  0  0  0
   -5.1683   25.4140  -28.9626 H   0  0  0  0  0  0  0  0  0  0  0  0
   -5.7246   26.1534  -30.5091 H   0  0  0  0  0  0  0  0  0  0  0  0
   -5.6906   23.2426  -29.6635 H   0  0  0  0  0  0  0  0  0  0  0  0
   -6.9973   24.2015  -30.4540 H   0  0  0  0  0  0  0  0  0  0  0  0
   -4.7090   24.0490  -32.2140 H   0  0  0  0  0  0  0  0  0  0  0  0
   -7.9550   23.5711  -31.5174 H   0  0  0  0  0  0  0  0  0  0  0  0
  -10.2912   22.7242  -31.6278 H   0  0  0  0  0  0  0  0  0  0  0  0
  -10.7421   20.3966  -32.3804 H   0  0  0  0  0  0  0  0  0  0  0  0
   -8.8620   18.8820  -32.9616 H   0  0  0  0  0  0  0  0  0  0  0  0
   -6.5204   17.6196  -31.8882 H   0  0  0  0  0  0  0  0  0  0  0  0
   -7.3955   17.8412  -33.4412 H   0  0  0  0  0  0  0  0  0  0  0  0
   -5.6185   17.5788  -33.4412 H   0  0  0  0  0  0  0  0  0  0  0  0
   -4.1440   18.3120  -33.8940 H   0  0  0  0  0  0  0  0  0  0  0  0
   -1.8937   17.9030  -34.4927 H   0  0  0  0  0  0  0  0  0  0  0  0
    0.4435   18.7628  -34.6576 H   0  0  0  0  0  0  0  0  0  0  0  0
    0.9972   21.0537  -33.8431 H   0  0  0  0  0  0  0  0  0  0  0  0
   -0.7940   22.5153  -32.9039 H   0  0  0  0  0  0  0  0  0  0  0  0
   -3.1489   22.8656  -32.3386 H   0  0  0  0  0  0  0  0  0  0  0  0
  1  2  1  0
  2  3  1  0
  3  4  1  0
  4  5  1  0
  3  6  1  0
  6  7  1  0
  7  8  1  0
  8  9  1  0
  9 10  1  0
 10 11  1  0
 11 12  1  0
 12 13  2  0
 13 14  1  0
 14 15  2  0
 15 16  1  0
 16 17  2  0
 17 18  1  0
 18 19  2  0
 19 20  1  0
 19 21  1  0
 21 22  2  0
 22 23  1  0
 23 24  2  0
 24 25  1  0
 25 26  2  0
 26 27  1  0
 27 28  2  0
 28 29  1  0
 29 30  2  0
 30 12  1  0
 18 13  1  0
 30 21  1  0
 28 23  1  0
  1 31  1  0
  1 32  1  0
  1 33  1  0
  2 34  1  0
  2 35  1  0
  4 36  1  0
  4 37  1  0
  5 38  1  0
  5 39  1  0
  5 40  1  0
  6 41  1  0
  6 42  1  0
  7 43  1  0
  7 44  1  0
  9 45  1  0
  9 46  1  0
 10 47  1  0
 10 48  1  0
 11 49  1  0
 14 50  1  0
 15 51  1  0
 16 52  1  0
 17 53  1  0
 20 54  1  0
 20 55  1  0
 20 56  1  0
 22 57  1  0
 24 58  1  0
 25 59  1  0
 26 60  1  0
 27 61  1  0
 29 62  1  0
M  CHG  2  19   1  22   1
M  END
>  <UniqueID>  (30) 
30

>  <SMILES>  (30) 
CCN(CC)CCOCCNc1c2ccccc2[n+](C)c2[nH+]c3ccccc3cc12

>  <Energy>  (30) 
93.24958351226867

>  <Genealogy>  (30) 
CCN(CC)CCOCCNc1c2ccccc2[n+](C)c2[nH+]c3ccccc3cc12 (protonated)
CCN(CC)CCOCCNc1c2ccccc2[n+](C)c2[nH+]c3ccccc3cc12 (3D coordinates assigned)
CCN(CC)CCOCCNc1c2ccccc2[n+](C)c2[nH+]c3ccccc3cc12 (optimized conformer: 93.24958351226867 kcal/mol)

>  <smiles>  (30) 
CCN(CC)CCOCCNc1c2ccccc2[n+](C)c2nc3ccccc3cc12

>  <score_type>  (30) 
oracle

>  <origin>  (30) 
adg

>  <m_score__min__energy>  (30) 
-8.6300000000000008

>  <m_primary>  (30) 
energy

$$$$
30:0
     RDKit          3D

 38 40  0  0  0  0  0  0  0  0999 V2000
   -3.7370   24.1600  -28.2090 C   0  0  0  0  0  0  0  0  0  0  0  0
   -2.8460   24.3010  -29.4400 C   0  0  0  0  0  0  0  0  0  0  0  0
   -3.5070   25.1080  -30.4610 N   0  0  0  0  0  0  0  0  0  0  0  0
   -4.9120   25.1250  -30.7520 C   0  0  0  0  0  0  0  0  0  0  0  0
   -5.4930   26.2410  -30.8230 O   0  0  0  0  0  0  0  0  0  0  0  0
   -5.7300   23.8570  -30.8850 C   0  0  1  0  0  0  0  0  0  0  0  0
   -7.2430   24.1700  -30.7850 C   0  0  0  0  0  0  0  0  0  0  0  0
   -8.1240   23.2420  -31.6400 C   0  0  0  0  0  0  0  0  0  0  0  0
   -7.5460   21.8270  -31.7620 C   0  0  0  0  0  0  0  0  0  0  0  0
   -6.1580   21.8550  -32.2500 N   0  0  0  0  0  0  0  0  0  0  0  0
   -5.5670   20.6660  -32.8100 C   0  0  0  0  0  0  0  0  0  0  0  0
   -6.2880   19.5660  -33.1430 N   0  0  0  0  0  0  0  0  0  0  0  0
   -5.4870   18.5950  -33.6520 C   0  0  0  0  0  0  0  0  0  0  0  0
   -5.9390   17.3470  -34.0850 C   0  0  0  0  0  0  0  0  0  0  0  0
   -5.0030   16.4290  -34.5920 C   0  0  0  0  0  0  0  0  0  0  0  0
   -3.6360   16.7660  -34.6620 C   0  0  0  0  0  0  0  0  0  0  0  0
   -2.3780   15.5060  -35.3530 Br  0  0  0  0  0  0  0  0  0  0  0  0
   -3.1940   18.0260  -34.2230 C   0  0  0  0  0  0  0  0  0  0  0  0
   -4.1410   18.9150  -33.7250 C   0  0  0  0  0  0  0  0  0  0  0  0
   -3.9120   20.4710  -33.1370 S   0  0  0  0  0  0  0  0  0  0  0  0
   -5.3830   23.1030  -32.1810 C   0  0  0  0  0  0  0  0  0  0  0  0
   -3.1248   24.2569  -27.3002 H   0  0  0  0  0  0  0  0  0  0  0  0
   -4.5046   24.9479  -28.2197 H   0  0  0  0  0  0  0  0  0  0  0  0
   -4.2238   23.1736  -28.2197 H   0  0  0  0  0  0  0  0  0  0  0  0
   -1.9024   24.7864  -29.1500 H   0  0  0  0  0  0  0  0  0  0  0  0
   -2.6475   23.3003  -29.8515 H   0  0  0  0  0  0  0  0  0  0  0  0
   -5.4731   23.1907  -30.0483 H   0  0  0  0  0  0  0  0  0  0  0  0
   -7.5499   24.0687  -29.7336 H   0  0  0  0  0  0  0  0  0  0  0  0
   -7.3861   25.1915  -31.1672 H   0  0  0  0  0  0  0  0  0  0  0  0
   -9.1198   23.1770  -31.1773 H   0  0  0  0  0  0  0  0  0  0  0  0
   -8.1738   23.6697  -32.6522 H   0  0  0  0  0  0  0  0  0  0  0  0
   -7.5684   21.3447  -30.7736 H   0  0  0  0  0  0  0  0  0  0  0  0
   -8.1560   21.2646  -32.4843 H   0  0  0  0  0  0  0  0  0  0  0  0
   -7.0065   17.0873  -34.0305 H   0  0  0  0  0  0  0  0  0  0  0  0
   -5.3398   15.4402  -34.9367 H   0  0  0  0  0  0  0  0  0  0  0  0
   -2.1301   18.3011  -34.2718 H   0  0  0  0  0  0  0  0  0  0  0  0
   -4.3086   22.8674  -32.1907 H   0  0  0  0  0  0  0  0  0  0  0  0
   -5.6301   23.7341  -33.0474 H   0  0  0  0  0  0  0  0  0  0  0  0
  1  2  1  0
  2  3  1  0
  3  4  1  0
  4  5  2  0
  4  6  1  0
  6  7  1  0
  7  8  1  0
  8  9  1  0
  9 10  1  0
 10 11  1  0
 11 12  2  0
 12 13  1  0
 13 14  2  0
 14 15  1  0
 15 16  2  0
 16 17  1  0
 16 18  1  0
 18 19  2  0
 19 20  1  0
 10 21  1  0
 21  6  1  0
 20 11  1  0
 19 13  1  0
  1 22  1  0
  1 23  1  0
  1 24  1  0
  2 25  1  0
  2 26  1  0
  6 27  1  1
  7 28  1  0
  7 29  1  0
  8 30  1  0
  8 31  1  0
  9 32  1  0
  9 33  1  0
 14 34  1  0
 15 35  1  0
 18 36  1  0
 21 37  1  0
 21 38  1  0
M  CHG  1   3  -1
M  END
>  <UniqueID>  (31) 
31

>  <SMILES>  (31) 
CC[N-]C(=O)[C@H]1CCCN(c2nc3ccc(Br)cc3s2)C1

>  <Energy>  (31) 
71.88122551027925

>  <Genealogy>  (31) 
CC[N-]C(=O)C1CCCN(c2nc3ccc(Br)cc3s2)C1 (protonated)
CC[N-]C(=O)[C@H]1CCCN(c2nc3ccc(Br)cc3s2)C1 (chirality)
CC[N-]C(=O)[C@H]1CCCN(c2nc3ccc(Br)cc3s2)C1 (3D coordinates assigned)
CC[N-]C(=O)[C@H]1CCCN(c2nc3ccc(Br)cc3s2)C1 (nonaromatic ring conformer: 71.88122551027925 kcal/mol)

>  <smiles>  (31) 
CCNC(=O)C1CCCN(c2nc3ccc(Br)cc3s2)C1

>  <score_type>  (31) 
oracle

>  <origin>  (31) 
adg

>  <m_score__min__energy>  (31) 
-9.6799999999999997

>  <m_primary>  (31) 
energy

$$$$
31:0
     RDKit          3D

 51 52  0  0  0  0  0  0  0  0999 V2000
   -1.7690   26.0300  -25.8570 C   0  0  0  0  0  0  0  0  0  0  0  0
   -1.1920   26.0220  -27.2740 C   0  0  0  0  0  0  0  0  0  0  0  0
   -1.8100   25.0140  -28.1630 N   0  0  0  0  0  0  0  0  0  0  0  0
   -0.8530   24.2730  -29.0250 C   0  0  0  0  0  0  0  0  0  0  0  0
   -0.5560   22.8330  -28.5800 C   0  0  0  0  0  0  0  0  0  0  0  0
   -2.8820   24.2230  -27.5210 C   0  0  0  0  0  0  0  0  0  0  0  0
   -4.1180   24.1410  -28.4250 C   0  0  0  0  0  0  0  0  0  0  0  0
   -3.7950   24.5710  -29.7450 O   0  0  0  0  0  0  0  0  0  0  0  0
   -4.7170   24.5740  -30.7980 C   0  0  0  0  0  0  0  0  0  0  0  0
   -5.1920   25.6670  -31.2170 O   0  0  0  0  0  0  0  0  0  0  0  0
   -5.2340   23.2700  -31.3650 C   0  0  2  0  0  0  0  0  0  0  0  0
   -6.2780   22.5670  -30.4600 C   0  0  0  0  0  0  0  0  0  0  0  0
   -7.2300   21.6510  -31.1980 C   0  0  0  0  0  0  0  0  0  0  0  0
   -8.5970   21.9700  -31.2800 C   0  0  0  0  0  0  0  0  0  0  0  0
   -9.4740   21.1390  -31.9850 C   0  0  0  0  0  0  0  0  0  0  0  0
   -8.9990   19.9790  -32.6000 C   0  0  0  0  0  0  0  0  0  0  0  0
   -7.6480   19.6400  -32.5010 C   0  0  0  0  0  0  0  0  0  0  0  0
   -6.7680   20.4670  -31.7960 C   0  0  0  0  0  0  0  0  0  0  0  0
   -4.1110   22.3230  -31.7630 C   0  0  0  0  0  0  0  0  0  0  0  0
   -3.9410   21.8990  -33.0970 C   0  0  0  0  0  0  0  0  0  0  0  0
   -2.8730   21.0660  -33.4460 C   0  0  0  0  0  0  0  0  0  0  0  0
   -1.9590   20.6560  -32.4730 C   0  0  0  0  0  0  0  0  0  0  0  0
   -2.1090   21.0800  -31.1510 C   0  0  0  0  0  0  0  0  0  0  0  0
   -3.1740   21.9130  -30.7970 C   0  0  0  0  0  0  0  0  0  0  0  0
   -0.9469   26.0186  -25.1263 H   0  0  0  0  0  0  0  0  0  0  0  0
   -2.3750   26.9366  -25.7130 H   0  0  0  0  0  0  0  0  0  0  0  0
   -2.3999   25.1405  -25.7130 H   0  0  0  0  0  0  0  0  0  0  0  0
   -1.3463   27.0169  -27.7172 H   0  0  0  0  0  0  0  0  0  0  0  0
   -0.1268   25.7620  -27.1855 H   0  0  0  0  0  0  0  0  0  0  0  0
   -1.2688   24.2363  -30.0427 H   0  0  0  0  0  0  0  0  0  0  0  0
    0.1012   24.8165  -28.9612 H   0  0  0  0  0  0  0  0  0  0  0  0
   -0.5458   22.7835  -27.4812 H   0  0  0  0  0  0  0  0  0  0  0  0
   -1.3344   22.1607  -28.9701 H   0  0  0  0  0  0  0  0  0  0  0  0
    0.4249   22.5236  -28.9701 H   0  0  0  0  0  0  0  0  0  0  0  0
   -2.5111   23.2061  -27.3250 H   0  0  0  0  0  0  0  0  0  0  0  0
   -3.1670   24.7161  -26.5799 H   0  0  0  0  0  0  0  0  0  0  0  0
   -4.4742   23.1008  -28.4592 H   0  0  0  0  0  0  0  0  0  0  0  0
   -4.9031   24.7950  -28.0178 H   0  0  0  0  0  0  0  0  0  0  0  0
   -5.7693   23.5519  -32.2837 H   0  0  0  0  0  0  0  0  0  0  0  0
   -5.7373   21.9698  -29.7110 H   0  0  0  0  0  0  0  0  0  0  0  0
   -6.8918   23.3627  -30.0127 H   0  0  0  0  0  0  0  0  0  0  0  0
   -8.9783   22.8768  -30.7877 H   0  0  0  0  0  0  0  0  0  0  0  0
  -10.5403   21.4000  -32.0550 H   0  0  0  0  0  0  0  0  0  0  0  0
   -9.6887   19.3324  -33.1623 H   0  0  0  0  0  0  0  0  0  0  0  0
   -7.2756   18.7215  -32.9781 H   0  0  0  0  0  0  0  0  0  0  0  0
   -5.7074   20.1886  -31.7092 H   0  0  0  0  0  0  0  0  0  0  0  0
   -4.6535   22.2257  -33.8688 H   0  0  0  0  0  0  0  0  0  0  0  0
   -2.7529   20.7336  -34.4877 H   0  0  0  0  0  0  0  0  0  0  0  0
   -1.1208   19.9989  -32.7480 H   0  0  0  0  0  0  0  0  0  0  0  0
   -1.3871   20.7576  -30.3862 H   0  0  0  0  0  0  0  0  0  0  0  0
   -3.2803   22.2505  -29.7555 H   0  0  0  0  0  0  0  0  0  0  0  0
  1  2  1  0
  2  3  1  0
  3  4  1  0
  4  5  1  0
  3  6  1  0
  6  7  1  0
  7  8  1  0
  8  9  1  0
  9 10  2  0
  9 11  1  0
 11 12  1  0
 12 13  1  0
 13 14  2  0
 14 15  1  0
 15 16  2  0
 16 17  1  0
 17 18  2  0
 11 19  1  0
 19 20  2  0
 20 21  1  0
 21 22  2  0
 22 23  1  0
 23 24  2  0
 18 13  1  0
 24 19  1  0
  1 25  1  0
  1 26  1  0
  1 27  1  0
  2 28  1  0
  2 29  1  0
  4 30  1  0
  4 31  1  0
  5 32  1  0
  5 33  1  0
  5 34  1  0
  6 35  1  0
  6 36  1  0
  7 37  1  0
  7 38  1  0
 11 39  1  6
 12 40  1  0
 12 41  1  0
 14 42  1  0
 15 43  1  0
 16 44  1  0
 17 45  1  0
 18 46  1  0
 20 47  1  0
 21 48  1  0
 22 49  1  0
 23 50  1  0
 24 51  1  0
M  END
>  <UniqueID>  (32) 
32

>  <SMILES>  (32) 
CCN(CC)CCOC(=O)[C@H](Cc1ccccc1)c1ccccc1

>  <Energy>  (32) 
52.96208078600063

>  <Genealogy>  (32) 
CCN(CC)CCOC(=O)[C@H](Cc1ccccc1)c1ccccc1 (chirality)
CCN(CC)CCOC(=O)[C@H](Cc1ccccc1)c1ccccc1 (3D coordinates assigned)
CCN(CC)CCOC(=O)[C@H](Cc1ccccc1)c1ccccc1 (optimized conformer: 52.96208078600063 kcal/mol)

>  <smiles>  (32) 
CCN(CC)CCOC(=O)C(Cc1ccccc1)c1ccccc1

>  <score_type>  (32) 
oracle

>  <origin>  (32) 
adg

>  <m_score__min__energy>  (32) 
-7.6699999999999999

>  <m_primary>  (32) 
energy

$$$$
32:0
     RDKit          3D

 51 55  0  0  0  0  0  0  0  0999 V2000
   -3.1347   22.4184  -30.3760 H   0  0  0  0  0  0  0  0  0  0  0  0
   -2.3850   22.9220  -29.7480 C   0  0  0  0  0  0  0  0  0  0  0  0
   -2.4580   24.3150  -29.5550 C   0  0  0  0  0  0  0  0  0  0  0  0
   -3.4760   25.0930  -30.1280 O   0  0  0  0  0  0  0  0  0  0  0  0
   -4.8650   24.7930  -30.0460 C   0  0  0  0  0  0  0  0  0  0  0  0
   -5.1644   24.7283  -28.9895 H   0  0  0  0  0  0  0  0  0  0  0  0
   -5.4416   25.5873  -30.5426 H   0  0  0  0  0  0  0  0  0  0  0  0
   -5.0624   23.8315  -30.5426 H   0  0  0  0  0  0  0  0  0  0  0  0
   -1.4890   24.9600  -28.7700 C   0  0  0  0  0  0  0  0  0  0  0  0
   -1.5860   26.3510  -28.6030 O   0  0  0  0  0  0  0  0  0  0  0  0
   -0.8680   27.0990  -27.6270 C   0  0  0  0  0  0  0  0  0  0  0  0
   -1.1754   26.7788  -26.6205 H   0  0  0  0  0  0  0  0  0  0  0  0
    0.2110   26.9261  -27.7533 H   0  0  0  0  0  0  0  0  0  0  0  0
   -1.0849   28.1700  -27.7533 H   0  0  0  0  0  0  0  0  0  0  0  0
   -0.4540   24.2070  -28.1830 C   0  0  0  0  0  0  0  0  0  0  0  0
    0.3159   24.7133  -27.5822 H   0  0  0  0  0  0  0  0  0  0  0  0
   -0.3970   22.8190  -28.3580 C   0  0  0  0  0  0  0  0  0  0  0  0
   -1.3640   22.1710  -29.1460 C   0  0  0  0  0  0  0  0  0  0  0  0
   -1.2600   20.7000  -29.3300 C   0  0  0  0  0  0  0  0  0  0  0  0
   -1.9930   20.0320  -30.3650 N   0  0  0  0  0  0  0  0  0  0  0  0
   -2.5710   20.6150  -31.3770 C   0  0  0  0  0  0  0  0  0  0  0  0
   -3.9100   20.8420  -31.3220 N   0  0  0  0  0  0  0  0  0  0  0  0
   -4.5810   21.4490  -32.3380 C   0  0  0  0  0  0  0  0  0  0  0  0
   -6.0020   21.6330  -32.2430 N   0  0  0  0  0  0  0  0  0  0  0  0
   -6.6270   22.8280  -32.1220 C   0  0  0  0  0  0  0  0  0  0  0  0
   -6.1145   23.8007  -32.0871 H   0  0  0  0  0  0  0  0  0  0  0  0
   -8.0040   22.6580  -32.0480 C   0  0  0  0  0  0  0  0  0  0  0  0
   -8.7679   23.4416  -31.9365 H   0  0  0  0  0  0  0  0  0  0  0  0
   -8.2090   21.2990  -32.1440 C   0  0  0  0  0  0  0  0  0  0  0  0
   -9.3930   20.5650  -32.1660 C   0  0  0  0  0  0  0  0  0  0  0  0
  -10.5980   21.1750  -32.0430 F   0  0  0  0  0  0  0  0  0  0  0  0
   -9.3040   19.1730  -32.3330 C   0  0  0  0  0  0  0  0  0  0  0  0
  -10.2197   18.5636  -32.3430 H   0  0  0  0  0  0  0  0  0  0  0  0
   -8.0460   18.5520  -32.4880 C   0  0  0  0  0  0  0  0  0  0  0  0
   -7.9740   17.2110  -32.6710 F   0  0  0  0  0  0  0  0  0  0  0  0
   -6.8650   19.3180  -32.4660 C   0  0  0  0  0  0  0  0  0  0  0  0
   -5.8811   18.8449  -32.6005 H   0  0  0  0  0  0  0  0  0  0  0  0
   -6.9790   20.6990  -32.2680 C   0  0  0  0  0  0  0  0  0  0  0  0
   -3.8750   21.8200  -33.4900 C   0  0  0  0  0  0  0  0  0  0  0  0
   -4.4022   22.2839  -34.3367 H   0  0  0  0  0  0  0  0  0  0  0  0
   -2.5340   21.6030  -33.5550 N   0  0  0  0  0  0  0  0  0  0  0  0
   -2.0100   21.8830  -34.4130 H   0  0  0  0  0  0  0  0  0  0  0  0
   -1.8650   21.0180  -32.5260 C   0  0  0  0  0  0  0  0  0  0  0  0
   -0.7783   20.8606  -32.5911 H   0  0  0  0  0  0  0  0  0  0  0  0
   -0.4280   20.0110  -28.6050 N   0  0  0  0  0  0  0  0  0  0  0  0
    0.3200   20.5910  -27.4870 C   0  0  0  0  0  0  0  0  0  0  0  0
   -0.3199   20.5982  -26.5923 H   0  0  0  0  0  0  0  0  0  0  0  0
    1.2192   19.9811  -27.3153 H   0  0  0  0  0  0  0  0  0  0  0  0
    0.7590   22.0270  -27.8000 C   0  0  0  0  0  0  0  0  0  0  0  0
    1.1152   22.5068  -26.8765 H   0  0  0  0  0  0  0  0  0  0  0  0
    1.5665   21.9992  -28.5464 H   0  0  0  0  0  0  0  0  0  0  0  0
  1  2  1  0
  2  3  2  0
  3  4  1  0
  4  5  1  0
  5  6  1  0
  5  7  1  0
  5  8  1  0
  3  9  1  0
  9 10  1  0
 10 11  1  0
 11 12  1  0
 11 13  1  0
 11 14  1  0
  9 15  2  0
 15 16  1  0
 15 17  1  0
 17 18  2  0
 18 19  1  0
 19 20  1  0
 20 21  2  0
 21 22  1  0
 22 23  1  0
 23 24  1  0
 24 25  1  0
 25 26  1  0
 25 27  2  0
 27 28  1  0
 27 29  1  0
 29 30  2  0
 30 31  1  0
 30 32  1  0
 32 33  1  0
 32 34  2  0
 34 35  1  0
 34 36  1  0
 36 37  1  0
 36 38  2  0
 23 39  2  0
 39 40  1  0
 39 41  1  0
 41 42  1  0
 41 43  2  0
 43 44  1  0
 19 45  2  0
 45 46  1  0
 46 47  1  0
 46 48  1  0
 46 49  1  0
 49 50  1  0
 49 51  1  0
 18  2  1  0
 43 21  1  0
 49 17  1  0
 38 24  1  0
 38 29  1  0
M  CHG  2  22  -1  41   1
M  END
>  <UniqueID>  (33) 
33

>  <SMILES>  (33) 
COc1cc2c(cc1OC)C(/N=c1\c[nH+]cc(-n3ccc4c(F)cc(F)cc43)[n-]1)=NCC2

>  <Energy>  (33) 
108.56273798577864

>  <Genealogy>  (33) 
COc1cc2c(cc1OC)C(N=c1c[nH+]cc(-n3ccc4c(F)cc(F)cc43)[n-]1)=NCC2 (protonated)
COc1cc2c(cc1OC)C(/N=c1\c[nH+]cc(-n3ccc4c(F)cc(F)cc43)[n-]1)=NCC2 (cis-trans isomerization)
COc1cc2c(cc1OC)C(/N=c1\c[nH+]cc(-n3ccc4c(F)cc(F)cc43)[n-]1)=NCC2 (3D coordinates assigned)
COc1cc2c(cc1OC)C(/N=c1\c[nH+]cc(-n3ccc4c(F)cc(F)cc43)[n-]1)=NCC2 (nonaromatic ring conformer: 108.56273798577864 kcal/mol)

>  <smiles>  (33) 
COc1cc2c(cc1OC)C(N=c1cncc(-n3ccc4c(F)cc(F)cc43)[nH]1)=NCC2

>  <score_type>  (33) 
oracle

>  <origin>  (33) 
adg

>  <m_score__min__energy>  (33) 
-9.5399999999999991

>  <m_primary>  (33) 
energy

$$$$
33:0
     RDKit          3D

 60 64  0  0  0  0  0  0  0  0999 V2000
   -8.4780   21.0740  -31.7150 C   0  0  0  0  0  0  0  0  0  0  0  0
   -7.0630   20.9090  -32.0870 N   0  0  0  0  0  0  0  0  0  0  0  0
   -6.5930   19.7530  -32.6960 C   0  0  0  0  0  0  0  0  0  0  0  0
   -7.3710   18.5710  -32.7480 C   0  0  0  0  0  0  0  0  0  0  0  0
   -6.9060   17.4310  -33.4020 C   0  0  0  0  0  0  0  0  0  0  0  0
   -5.6560   17.4340  -34.0120 C   0  0  0  0  0  0  0  0  0  0  0  0
   -4.8430   18.5620  -33.9470 C   0  0  0  0  0  0  0  0  0  0  0  0
   -5.2760   19.7210  -33.2740 C   0  0  0  0  0  0  0  0  0  0  0  0
   -4.4360   20.8560  -33.1700 C   0  0  0  0  0  0  0  0  0  0  0  0
   -3.1090   20.8790  -33.7240 N   0  0  0  0  0  0  0  0  0  0  0  0
   -2.0930   19.8890  -33.3660 C   0  0  0  0  0  0  0  0  0  0  0  0
   -1.1870   20.4120  -32.2430 C   0  0  0  0  0  0  0  0  0  0  0  0
   -1.8100   20.1830  -30.8490 C   0  0  0  0  0  0  0  0  0  0  0  0
   -2.3700   21.4250  -30.2560 N   0  0  2  0  0  0  0  0  0  0  0  0
   -1.3710   22.5070  -30.3680 C   0  0  0  0  0  0  0  0  0  0  0  0
   -2.7580   21.2150  -28.8370 C   0  0  0  0  0  0  0  0  0  0  0  0
   -2.7480   22.5040  -28.0480 C   0  0  0  0  0  0  0  0  0  0  0  0
   -3.8990   23.3080  -27.9950 C   0  0  0  0  0  0  0  0  0  0  0  0
   -3.8900   24.5060  -27.2740 C   0  0  0  0  0  0  0  0  0  0  0  0
   -2.7310   24.9110  -26.6050 C   0  0  0  0  0  0  0  0  0  0  0  0
   -2.7260   26.0730  -25.9050 F   0  0  0  0  0  0  0  0  0  0  0  0
   -1.5810   24.1200  -26.6570 C   0  0  0  0  0  0  0  0  0  0  0  0
   -1.5870   22.9210  -27.3760 C   0  0  0  0  0  0  0  0  0  0  0  0
   -4.9130   21.9350  -32.4390 C   0  0  0  0  0  0  0  0  0  0  0  0
   -4.2600   23.0360  -32.1310 O   0  0  0  0  0  0  0  0  0  0  0  0
   -5.0590   23.7590  -31.3780 C   0  0  0  0  0  0  0  0  0  0  0  0
   -4.7650   24.9890  -30.7950 C   0  0  0  0  0  0  0  0  0  0  0  0
   -5.7310   25.5730  -29.9590 C   0  0  0  0  0  0  0  0  0  0  0  0
   -6.9540   24.9150  -29.7130 C   0  0  0  0  0  0  0  0  0  0  0  0
   -7.2330   23.6720  -30.3150 C   0  0  0  0  0  0  0  0  0  0  0  0
   -6.2730   23.1270  -31.1790 C   0  0  0  0  0  0  0  0  0  0  0  0
   -6.1780   21.9370  -31.8960 C   0  0  0  0  0  0  0  0  0  0  0  0
   -8.5701   21.0847  -30.6189 H   0  0  0  0  0  0  0  0  0  0  0  0
   -8.8565   22.0224  -32.1241 H   0  0  0  0  0  0  0  0  0  0  0  0
   -9.0645   20.2382  -32.1241 H   0  0  0  0  0  0  0  0  0  0  0  0
   -8.3588   18.5520  -32.2643 H   0  0  0  0  0  0  0  0  0  0  0  0
   -7.5300   16.5257  -33.4357 H   0  0  0  0  0  0  0  0  0  0  0  0
   -5.3078   16.5394  -34.5491 H   0  0  0  0  0  0  0  0  0  0  0  0
   -3.8528   18.5481  -34.4259 H   0  0  0  0  0  0  0  0  0  0  0  0
   -2.8250   21.6810  -34.3370 H   0  0  0  0  0  0  0  0  0  0  0  0
   -2.5912   18.9687  -33.0271 H   0  0  0  0  0  0  0  0  0  0  0  0
   -1.4725   19.6876  -34.2517 H   0  0  0  0  0  0  0  0  0  0  0  0
   -0.2212   19.8878  -32.2917 H   0  0  0  0  0  0  0  0  0  0  0  0
   -1.0571   21.4950  -32.3853 H   0  0  0  0  0  0  0  0  0  0  0  0
   -2.6186   19.4431  -30.9429 H   0  0  0  0  0  0  0  0  0  0  0  0
   -1.0088   19.8306  -30.1827 H   0  0  0  0  0  0  0  0  0  0  0  0
   -3.2110   21.7120  -30.8140 H   0  0  0  0  0  0  0  0  0  0  0  0
   -1.0696   22.8334  -29.3617 H   0  0  0  0  0  0  0  0  0  0  0  0
   -0.4898   22.1375  -30.9129 H   0  0  0  0  0  0  0  0  0  0  0  0
   -1.8095   23.3560  -30.9129 H   0  0  0  0  0  0  0  0  0  0  0  0
   -3.7712   20.7879  -28.8058 H   0  0  0  0  0  0  0  0  0  0  0  0
   -2.0236   20.5339  -28.3823 H   0  0  0  0  0  0  0  0  0  0  0  0
   -4.8113   22.9936  -28.5231 H   0  0  0  0  0  0  0  0  0  0  0  0
   -4.7950   25.1300  -27.2331 H   0  0  0  0  0  0  0  0  0  0  0  0
   -0.6694   24.4408  -26.1316 H   0  0  0  0  0  0  0  0  0  0  0  0
   -0.6788   22.3016  -27.4157 H   0  0  0  0  0  0  0  0  0  0  0  0
   -3.8036   25.4891  -30.9838 H   0  0  0  0  0  0  0  0  0  0  0  0
   -5.5324   26.5496  -29.4933 H   0  0  0  0  0  0  0  0  0  0  0  0
   -7.6966   25.3763  -29.0453 H   0  0  0  0  0  0  0  0  0  0  0  0
   -8.1769   23.1445  -30.1128 H   0  0  0  0  0  0  0  0  0  0  0  0
  1  2  1  0
  2  3  2  0
  3  4  1  0
  4  5  2  0
  5  6  1  0
  6  7  2  0
  7  8  1  0
  8  9  2  0
  9 10  1  0
 10 11  1  0
 11 12  1  0
 12 13  1  0
 13 14  1  0
 14 15  1  0
 14 16  1  0
 16 17  1  0
 17 18  2  0
 18 19  1  0
 19 20  2  0
 20 21  1  0
 20 22  1  0
 22 23  2  0
  9 24  1  0
 24 25  1  0
 25 26  1  0
 26 27  2  0
 27 28  1  0
 28 29  2  0
 29 30  1  0
 30 31  2  0
 31 32  1  0
 32  2  1  0
  8  3  1  0
 23 17  1  0
 32 24  2  0
 31 26  1  0
  1 33  1  0
  1 34  1  0
  1 35  1  0
  4 36  1  0
  5 37  1  0
  6 38  1  0
  7 39  1  0
 10 40  1  0
 11 41  1  0
 11 42  1  0
 12 43  1  0
 12 44  1  0
 13 45  1  0
 13 46  1  0
 14 47  1  6
 15 48  1  0
 15 49  1  0
 15 50  1  0
 16 51  1  0
 16 52  1  0
 18 53  1  0
 19 54  1  0
 22 55  1  0
 23 56  1  0
 27 57  1  0
 28 58  1  0
 29 59  1  0
 30 60  1  0
M  CHG  2   2   1  14   1
M  END
>  <UniqueID>  (34) 
34

>  <SMILES>  (34) 
C[n+]1c2ccccc2c(NCCC[N@H+](C)Cc2ccc(F)cc2)c2oc3ccccc3c21

>  <Energy>  (34) 
125.42562663203265

>  <Genealogy>  (34) 
C[n+]1c2ccccc2c(NCCC[NH+](C)Cc2ccc(F)cc2)c2oc3ccccc3c21 (protonated)
C[n+]1c2ccccc2c(NCCC[N@H+](C)Cc2ccc(F)cc2)c2oc3ccccc3c21 (chirality)
C[n+]1c2ccccc2c(NCCC[N@H+](C)Cc2ccc(F)cc2)c2oc3ccccc3c21 (3D coordinates assigned)
C[n+]1c2ccccc2c(NCCC[N@H+](C)Cc2ccc(F)cc2)c2oc3ccccc3c21 (optimized conformer: 125.42562663203265 kcal/mol)

>  <smiles>  (34) 
CN(CCCNc1c2ccccc2[n+](C)c2c1oc1ccccc12)Cc1ccc(F)cc1

>  <score_type>  (34) 
oracle

>  <origin>  (34) 
adg

>  <m_score__min__energy>  (34) 
-8.3499999999999996

>  <m_primary>  (34) 
energy

$$$$
