0:0
     RDKit          3D

 28 29  0  0  0  0  0  0  0  0999 V2000
   -3.2340   24.9370  -30.0680 F   0  0  0  0  0  0  0  0  0  0  0  0
   -4.4490   24.4680  -30.4460 C   0  0  0  0  0  0  0  0  0  0  0  0
   -5.6100   25.1400  -30.0530 C   0  0  0  0  0  0  0  0  0  0  0  0
   -6.8640   24.6600  -30.4450 C   0  0  0  0  0  0  0  0  0  0  0  0
   -6.9640   23.5060  -31.2400 C   0  0  0  0  0  0  0  0  0  0  0  0
   -8.3130   23.0170  -31.6960 C   0  0  0  0  0  0  0  0  0  0  0  0
   -8.6680   21.7510  -31.0330 N   0  0  0  0  0  0  0  0  0  0  0  0
   -9.2830   20.7820  -31.9550 C   0  0  0  0  0  0  0  0  0  0  0  0
   -8.2860   19.7410  -32.3900 C   0  0  0  0  0  0  0  0  0  0  0  0
   -7.2260   20.0650  -33.2460 C   0  0  0  0  0  0  0  0  0  0  0  0
   -6.3550   19.1010  -33.6440 N   0  0  0  0  0  0  0  0  0  0  0  0
   -6.4890   17.8200  -33.2170 C   0  0  0  0  0  0  0  0  0  0  0  0
   -7.5010   17.4840  -32.3760 N   0  0  0  0  0  0  0  0  0  0  0  0
   -8.3940   18.4150  -31.9520 C   0  0  0  0  0  0  0  0  0  0  0  0
   -5.7920   22.8280  -31.6190 C   0  0  0  0  0  0  0  0  0  0  0  0
   -4.5400   23.3110  -31.2250 C   0  0  0  0  0  0  0  0  0  0  0  0
   -5.5374   26.0471  -29.4349 H   0  0  0  0  0  0  0  0  0  0  0  0
   -7.7757   25.1883  -30.1295 H   0  0  0  0  0  0  0  0  0  0  0  0
   -9.0716   23.7755  -31.4525 H   0  0  0  0  0  0  0  0  0  0  0  0
   -8.2743   22.8448  -32.7817 H   0  0  0  0  0  0  0  0  0  0  0  0
   -7.7760   21.3250  -30.6860 H   0  0  0  0  0  0  0  0  0  0  0  0
  -10.1227   20.2853  -31.4468 H   0  0  0  0  0  0  0  0  0  0  0  0
   -9.6358   21.3222  -32.8459 H   0  0  0  0  0  0  0  0  0  0  0  0
   -7.0985   21.1000  -33.5962 H   0  0  0  0  0  0  0  0  0  0  0  0
   -5.7765   17.0521  -33.5527 H   0  0  0  0  0  0  0  0  0  0  0  0
   -9.2028   18.1276  -31.2641 H   0  0  0  0  0  0  0  0  0  0  0  0
   -5.8601   21.9143  -32.2277 H   0  0  0  0  0  0  0  0  0  0  0  0
   -3.6259   22.7798  -31.5285 H   0  0  0  0  0  0  0  0  0  0  0  0
  1  2  1  0
  2  3  2  0
  3  4  1  0
  4  5  2  0
  5  6  1  0
  6  7  1  0
  7  8  1  0
  8  9  1  0
  9 10  2  0
 10 11  1  0
 11 12  2  0
 12 13  1  0
 13 14  2  0
  5 15  1  0
 15 16  2  0
 16  2  1  0
 14  9  1  0
  3 17  1  0
  4 18  1  0
  6 19  1  0
  6 20  1  0
  7 21  1  0
  8 22  1  0
  8 23  1  0
 10 24  1  0
 12 25  1  0
 14 26  1  0
 15 27  1  0
 16 28  1  0
M  END
>  <UniqueID>  (1) 
1

>  <SMILES>  (1) 
Fc1ccc(CNCc2cncnc2)cc1

>  <Energy>  (1) 
27.520134705838394

>  <Genealogy>  (1) 
Fc1ccc(CNCc2cncnc2)cc1 (3D coordinates assigned)
Fc1ccc(CNCc2cncnc2)cc1 (optimized conformer: 27.520134705838394 kcal/mol)

>  <smiles>  (1) 
Fc1ccc(CNCc2cncnc2)cc1

>  <score_type>  (1) 
oracle

>  <origin>  (1) 
adg

>  <m_score__min__energy>  (1) 
-6.1399999999999997

>  <m_primary>  (1) 
energy

$$$$
1:0
     RDKit          3D

 52 53  0  0  0  0  0  0  0  0999 V2000
   -9.4370   19.6470  -32.4250 C   0  0  0  0  0  0  0  0  0  0  0  0
   -8.4220   18.5200  -32.1840 C   0  0  0  0  0  0  0  0  0  0  0  0
   -7.0260   18.8360  -32.5870 N   0  0  0  0  0  0  0  0  0  0  0  0
   -6.3180   17.7250  -33.2640 C   0  0  0  0  0  0  0  0  0  0  0  0
   -5.4770   18.2140  -34.4420 C   0  0  0  0  0  0  0  0  0  0  0  0
   -6.9170   20.0870  -33.3700 C   0  0  0  0  0  0  0  0  0  0  0  0
   -6.0800   21.1080  -32.6450 C   0  0  0  0  0  0  0  0  0  0  0  0
   -4.6830   21.0630  -32.7360 C   0  0  0  0  0  0  0  0  0  0  0  0
   -3.8970   21.9920  -32.0490 C   0  0  0  0  0  0  0  0  0  0  0  0
   -4.4950   22.9970  -31.2610 C   0  0  0  0  0  0  0  0  0  0  0  0
   -3.6920   24.0090  -30.5100 C   0  0  0  0  0  0  0  0  0  0  0  0
   -3.9330   25.2300  -30.7240 O   0  0  0  0  0  0  0  0  0  0  0  0
   -2.7310   23.6270  -29.4820 N   0  0  1  0  0  0  0  0  0  0  0  0
   -3.3620   23.1440  -28.2160 C   0  0  0  0  0  0  0  0  0  0  0  0
   -2.5800   23.3910  -26.9120 C   0  0  0  0  0  0  0  0  0  0  0  0
   -1.1090   22.9470  -26.9610 C   0  0  0  0  0  0  0  0  0  0  0  0
   -0.3270   23.6110  -28.0200 N   0  0  0  0  0  0  0  0  0  0  0  0
   -0.5860   25.0540  -28.1590 C   0  0  0  0  0  0  0  0  0  0  0  0
   -0.2820   22.8920  -29.3060 C   0  0  0  0  0  0  0  0  0  0  0  0
   -1.6500   22.7630  -30.0280 C   0  0  0  0  0  0  0  0  0  0  0  0
   -5.9010   23.0400  -31.1850 C   0  0  0  0  0  0  0  0  0  0  0  0
   -6.6840   22.1050  -31.8660 C   0  0  0  0  0  0  0  0  0  0  0  0
   -9.7883   20.0370  -31.4583 H   0  0  0  0  0  0  0  0  0  0  0  0
   -8.9575   20.4567  -32.9947 H   0  0  0  0  0  0  0  0  0  0  0  0
  -10.2923   19.2546  -32.9947 H   0  0  0  0  0  0  0  0  0  0  0  0
   -8.4221   18.2844  -31.1095 H   0  0  0  0  0  0  0  0  0  0  0  0
   -8.7415   17.6778  -32.8153 H   0  0  0  0  0  0  0  0  0  0  0  0
   -5.6570   17.2302  -32.5372 H   0  0  0  0  0  0  0  0  0  0  0  0
   -7.0746   17.0280  -33.6536 H   0  0  0  0  0  0  0  0  0  0  0  0
   -4.5839   18.7333  -34.0643 H   0  0  0  0  0  0  0  0  0  0  0  0
   -5.1693   17.3540  -35.0549 H   0  0  0  0  0  0  0  0  0  0  0  0
   -6.0723   18.9068  -35.0549 H   0  0  0  0  0  0  0  0  0  0  0  0
   -6.4507   19.8639  -34.3409 H   0  0  0  0  0  0  0  0  0  0  0  0
   -7.9267   20.4997  -33.5124 H   0  0  0  0  0  0  0  0  0  0  0  0
   -4.2009   20.2904  -33.3530 H   0  0  0  0  0  0  0  0  0  0  0  0
   -2.8008   21.9388  -32.1236 H   0  0  0  0  0  0  0  0  0  0  0  0
   -2.2580   24.5130  -29.1920 H   0  0  0  0  0  0  0  0  0  0  0  0
   -4.3374   23.6432  -28.1188 H   0  0  0  0  0  0  0  0  0  0  0  0
   -3.4123   22.0500  -28.3186 H   0  0  0  0  0  0  0  0  0  0  0  0
   -2.6072   24.4687  -26.6932 H   0  0  0  0  0  0  0  0  0  0  0  0
   -3.0659   22.7837  -26.1342 H   0  0  0  0  0  0  0  0  0  0  0  0
   -0.6443   23.1754  -25.9905 H   0  0  0  0  0  0  0  0  0  0  0  0
   -1.1044   21.8698  -27.1839 H   0  0  0  0  0  0  0  0  0  0  0  0
   -0.6678   25.5096  -27.1611 H   0  0  0  0  0  0  0  0  0  0  0  0
    0.2422   25.5238  -28.7098 H   0  0  0  0  0  0  0  0  0  0  0  0
   -1.5259   25.2064  -28.7098 H   0  0  0  0  0  0  0  0  0  0  0  0
    0.4082   23.4283  -29.9739 H   0  0  0  0  0  0  0  0  0  0  0  0
    0.0447   21.8671  -29.0764 H   0  0  0  0  0  0  0  0  0  0  0  0
   -1.5040   23.0261  -31.0860 H   0  0  0  0  0  0  0  0  0  0  0  0
   -1.9805   21.7245  -29.8789 H   0  0  0  0  0  0  0  0  0  0  0  0
   -6.3885   23.8199  -30.5816 H   0  0  0  0  0  0  0  0  0  0  0  0
   -7.7804   22.1512  -31.7907 H   0  0  0  0  0  0  0  0  0  0  0  0
  1  2  1  0
  2  3  1  0
  3  4  1  0
  4  5  1  0
  3  6  1  0
  6  7  1  0
  7  8  2  0
  8  9  1  0
  9 10  2  0
 10 11  1  0
 11 12  2  0
 11 13  1  0
 13 14  1  0
 14 15  1  0
 15 16  1  0
 16 17  1  0
 17 18  1  0
 17 19  1  0
 19 20  1  0
 10 21  1  0
 21 22  2  0
 22  7  1  0
 20 13  1  0
  1 23  1  0
  1 24  1  0
  1 25  1  0
  2 26  1  0
  2 27  1  0
  4 28  1  0
  4 29  1  0
  5 30  1  0
  5 31  1  0
  5 32  1  0
  6 33  1  0
  6 34  1  0
  8 35  1  0
  9 36  1  0
 13 37  1  1
 14 38  1  0
 14 39  1  0
 15 40  1  0
 15 41  1  0
 16 42  1  0
 16 43  1  0
 18 44  1  0
 18 45  1  0
 18 46  1  0
 19 47  1  0
 19 48  1  0
 20 49  1  0
 20 50  1  0
 21 51  1  0
 22 52  1  0
M  CHG  1  13   1
M  END
>  <UniqueID>  (2) 
2

>  <SMILES>  (2) 
CCN(CC)Cc1ccc(C(=O)[N@H+]2CCCN(C)CC2)cc1

>  <Energy>  (2) 
80.0830041803835

>  <Genealogy>  (2) 
CCN(CC)Cc1ccc(C(=O)[NH+]2CCCN(C)CC2)cc1 (protonated)
CCN(CC)Cc1ccc(C(=O)[N@H+]2CCCN(C)CC2)cc1 (chirality)
CCN(CC)Cc1ccc(C(=O)[N@H+]2CCCN(C)CC2)cc1 (3D coordinates assigned)
CCN(CC)Cc1ccc(C(=O)[N@H+]2CCCN(C)CC2)cc1 (nonaromatic ring conformer: 80.0830041803835 kcal/mol)

>  <smiles>  (2) 
CCN(CC)Cc1ccc(C(=O)N2CCCN(C)CC2)cc1

>  <score_type>  (2) 
oracle

>  <origin>  (2) 
adg

>  <m_score__min__energy>  (2) 
-4.7400000000000002

>  <m_primary>  (2) 
energy

$$$$
2:0
     RDKit          3D

 35 35  0  0  0  0  0  0  0  0999 V2000
   -1.5870   25.6690  -26.8610 C   0  0  0  0  0  0  0  0  0  0  0  0
   -1.0920   25.2800  -28.2140 C   0  0  0  0  0  0  0  0  0  0  0  0
    0.1010   24.9060  -28.3560 O   0  0  0  0  0  0  0  0  0  0  0  0
   -1.9980   25.2940  -29.3260 N   0  0  0  0  0  0  0  0  0  0  0  0
   -2.8060   24.1690  -29.8010 C   0  0  2  0  0  0  0  0  0  0  0  0
   -4.3130   24.5040  -29.7240 C   0  0  0  0  0  0  0  0  0  0  0  0
   -4.9680   24.3730  -31.0470 N   0  0  0  0  0  0  0  0  0  0  0  0
   -4.7000   23.0420  -31.6160 C   0  0  0  0  0  0  0  0  0  0  0  0
   -6.4230   24.5790  -30.9470 C   0  0  0  0  0  0  0  0  0  0  0  0
   -2.3950   22.8810  -29.1030 C   0  0  0  0  0  0  0  0  0  0  0  0
   -1.2090   22.1910  -29.4250 C   0  0  0  0  0  0  0  0  0  0  0  0
   -0.8850   20.9950  -28.7780 C   0  0  0  0  0  0  0  0  0  0  0  0
   -1.7490   20.4520  -27.8160 C   0  0  0  0  0  0  0  0  0  0  0  0
   -1.3820   19.1900  -27.0960 C   0  0  0  0  0  0  0  0  0  0  0  0
   -2.9280   21.1350  -27.4890 C   0  0  0  0  0  0  0  0  0  0  0  0
   -3.2540   22.3310  -28.1360 C   0  0  0  0  0  0  0  0  0  0  0  0
   -0.9693   25.1836  -26.0910 H   0  0  0  0  0  0  0  0  0  0  0  0
   -1.5233   26.7613  -26.7473 H   0  0  0  0  0  0  0  0  0  0  0  0
   -2.6332   25.3489  -26.7473 H   0  0  0  0  0  0  0  0  0  0  0  0
   -2.6098   23.9915  -30.8687 H   0  0  0  0  0  0  0  0  0  0  0  0
   -4.7965   23.8146  -29.0162 H   0  0  0  0  0  0  0  0  0  0  0  0
   -4.4176   25.5466  -29.3894 H   0  0  0  0  0  0  0  0  0  0  0  0
   -4.5541   22.3175  -30.8012 H   0  0  0  0  0  0  0  0  0  0  0  0
   -5.5533   22.7297  -32.2360 H   0  0  0  0  0  0  0  0  0  0  0  0
   -3.7923   23.0842  -32.2360 H   0  0  0  0  0  0  0  0  0  0  0  0
   -6.7155   24.6204  -29.8874 H   0  0  0  0  0  0  0  0  0  0  0  0
   -6.6942   25.5245  -31.4395 H   0  0  0  0  0  0  0  0  0  0  0  0
   -6.9460   23.7459  -31.4395 H   0  0  0  0  0  0  0  0  0  0  0  0
   -0.5328   22.5970  -30.1917 H   0  0  0  0  0  0  0  0  0  0  0  0
    0.0533   20.4766  -29.0249 H   0  0  0  0  0  0  0  0  0  0  0  0
   -1.4313   19.3597  -26.0103 H   0  0  0  0  0  0  0  0  0  0  0  0
   -2.0851   18.3912  -27.3746 H   0  0  0  0  0  0  0  0  0  0  0  0
   -0.3602   18.8928  -27.3746 H   0  0  0  0  0  0  0  0  0  0  0  0
   -3.6005   20.7283  -26.7194 H   0  0  0  0  0  0  0  0  0  0  0  0
   -4.1927   22.8469  -27.8855 H   0  0  0  0  0  0  0  0  0  0  0  0
  1  2  1  0
  2  3  2  0
  2  4  1  0
  4  5  1  0
  5  6  1  0
  6  7  1  0
  7  8  1  0
  7  9  1  0
  5 10  1  0
 10 11  2  0
 11 12  1  0
 12 13  2  0
 13 14  1  0
 13 15  1  0
 15 16  2  0
 16 10  1  0
  1 17  1  0
  1 18  1  0
  1 19  1  0
  5 20  1  6
  6 21  1  0
  6 22  1  0
  8 23  1  0
  8 24  1  0
  8 25  1  0
  9 26  1  0
  9 27  1  0
  9 28  1  0
 11 29  1  0
 12 30  1  0
 14 31  1  0
 14 32  1  0
 14 33  1  0
 15 34  1  0
 16 35  1  0
M  CHG  1   4  -1
M  END
>  <UniqueID>  (3) 
3

>  <SMILES>  (3) 
CC(=O)[N-][C@H](CN(C)C)c1ccc(C)cc1

>  <Energy>  (3) 
31.167817192916733

>  <Genealogy>  (3) 
CC(=O)[N-]C(CN(C)C)c1ccc(C)cc1 (protonated)
CC(=O)[N-][C@H](CN(C)C)c1ccc(C)cc1 (chirality)
CC(=O)[N-][C@H](CN(C)C)c1ccc(C)cc1 (3D coordinates assigned)
CC(=O)[N-][C@H](CN(C)C)c1ccc(C)cc1 (optimized conformer: 31.167817192916733 kcal/mol)

>  <smiles>  (3) 
CC(=O)NC(CN(C)C)c1ccc(C)cc1

>  <score_type>  (3) 
oracle

>  <origin>  (3) 
adg

>  <m_score__min__energy>  (3) 
-7.46

>  <m_primary>  (3) 
energy

$$$$
3:0
     RDKit          3D

 44 46  0  0  0  0  0  0  0  0999 V2000
   -0.1590   23.1610  -24.5430 C   0  0  0  0  0  0  0  0  0  0  0  0
   -0.2870   22.7910  -25.9160 O   0  0  0  0  0  0  0  0  0  0  0  0
   -1.4440   22.9890  -26.6850 C   0  0  0  0  0  0  0  0  0  0  0  0
   -1.8560   24.3020  -26.9440 C   0  0  0  0  0  0  0  0  0  0  0  0
   -2.9990   24.5500  -27.7120 C   0  0  0  0  0  0  0  0  0  0  0  0
   -3.7420   23.4880  -28.2440 C   0  0  0  0  0  0  0  0  0  0  0  0
   -4.9210   23.7670  -29.0170 N   0  0  0  0  0  0  0  0  0  0  0  0
   -4.8940   24.3710  -30.3220 C   0  0  0  0  0  0  0  0  0  0  0  0
   -3.8100   24.7800  -30.8220 O   0  0  0  0  0  0  0  0  0  0  0  0
   -6.1710   24.5930  -31.0760 C   0  0  0  0  0  0  0  0  0  0  0  0
   -6.7710   23.3110  -31.4350 N   0  0  0  0  0  0  0  0  0  0  0  0
   -8.0830   23.0950  -31.4480 N   0  0  0  0  0  0  0  0  0  0  0  0
   -8.2580   21.8040  -31.7980 C   0  0  0  0  0  0  0  0  0  0  0  0
   -9.4600   21.1190  -31.9530 C   0  0  0  0  0  0  0  0  0  0  0  0
   -9.3960   19.7640  -32.3290 C   0  0  0  0  0  0  0  0  0  0  0  0
   -8.1450   19.1320  -32.5350 C   0  0  0  0  0  0  0  0  0  0  0  0
   -6.9470   19.8500  -32.3670 C   0  0  0  0  0  0  0  0  0  0  0  0
   -7.0490   21.1890  -32.0010 C   0  0  0  0  0  0  0  0  0  0  0  0
   -6.1160   22.1680  -31.7550 C   0  0  0  0  0  0  0  0  0  0  0  0
   -4.6930   22.0300  -31.8350 N   0  0  0  0  0  0  0  0  0  0  0  0
   -4.0200   21.1680  -30.8630 C   0  0  0  0  0  0  0  0  0  0  0  0
   -4.0390   22.2850  -33.1180 C   0  0  0  0  0  0  0  0  0  0  0  0
   -3.3450   22.1690  -27.9660 C   0  0  0  0  0  0  0  0  0  0  0  0
   -2.2030   21.9200  -27.1990 C   0  0  0  0  0  0  0  0  0  0  0  0
   -0.4522   22.3135  -23.9060 H   0  0  0  0  0  0  0  0  0  0  0  0
    0.8857   23.4337  -24.3326 H   0  0  0  0  0  0  0  0  0  0  0  0
   -0.8119   24.0209  -24.3326 H   0  0  0  0  0  0  0  0  0  0  0  0
   -1.2764   25.1453  -26.5404 H   0  0  0  0  0  0  0  0  0  0  0  0
   -3.3166   25.5864  -27.8995 H   0  0  0  0  0  0  0  0  0  0  0  0
   -5.8490   23.6500  -28.5480 H   0  0  0  0  0  0  0  0  0  0  0  0
   -6.8723   25.1590  -30.4453 H   0  0  0  0  0  0  0  0  0  0  0  0
   -5.9534   25.1584  -31.9941 H   0  0  0  0  0  0  0  0  0  0  0  0
  -10.4257   21.6190  -31.7875 H   0  0  0  0  0  0  0  0  0  0  0  0
  -10.3252   19.1910  -32.4640 H   0  0  0  0  0  0  0  0  0  0  0  0
   -8.1101   18.0724  -32.8284 H   0  0  0  0  0  0  0  0  0  0  0  0
   -5.9680   19.3720  -32.5189 H   0  0  0  0  0  0  0  0  0  0  0  0
   -4.2753   21.4950  -29.8443 H   0  0  0  0  0  0  0  0  0  0  0  0
   -4.3473   20.1277  -31.0070 H   0  0  0  0  0  0  0  0  0  0  0  0
   -2.9314   21.2332  -31.0070 H   0  0  0  0  0  0  0  0  0  0  0  0
   -3.0274   22.6794  -32.9419 H   0  0  0  0  0  0  0  0  0  0  0  0
   -3.9726   21.3469  -33.6886 H   0  0  0  0  0  0  0  0  0  0  0  0
   -4.6251   23.0205  -33.6886 H   0  0  0  0  0  0  0  0  0  0  0  0
   -3.9366   21.3269  -28.3544 H   0  0  0  0  0  0  0  0  0  0  0  0
   -1.8957   20.8835  -26.9959 H   0  0  0  0  0  0  0  0  0  0  0  0
  1  2  1  0
  2  3  1  0
  3  4  2  0
  4  5  1  0
  5  6  2  0
  6  7  1  0
  7  8  1  0
  8  9  2  0
  8 10  1  0
 10 11  1  0
 11 12  1  0
 12 13  2  0
 13 14  1  0
 14 15  2  0
 15 16  1  0
 16 17  2  0
 17 18  1  0
 18 19  2  0
 19 20  1  0
 20 21  1  0
 20 22  1  0
  6 23  1  0
 23 24  2  0
 24  3  1  0
 19 11  1  0
 18 13  1  0
  1 25  1  0
  1 26  1  0
  1 27  1  0
  4 28  1  0
  5 29  1  0
  7 30  1  0
 10 31  1  0
 10 32  1  0
 14 33  1  0
 15 34  1  0
 16 35  1  0
 17 36  1  0
 21 37  1  0
 21 38  1  0
 21 39  1  0
 22 40  1  0
 22 41  1  0
 22 42  1  0
 23 43  1  0
 24 44  1  0
M  END
>  <UniqueID>  (4) 
4

>  <SMILES>  (4) 
COc1ccc(NC(=O)Cn2nc3ccccc3c2N(C)C)cc1

>  <Energy>  (4) 
89.07711551157296

>  <Genealogy>  (4) 
COc1ccc(NC(=O)Cn2nc3ccccc3c2N(C)C)cc1 (3D coordinates assigned)
COc1ccc(NC(=O)Cn2nc3ccccc3c2N(C)C)cc1 (optimized conformer: 89.07711551157296 kcal/mol)

>  <smiles>  (4) 
COc1ccc(NC(=O)Cn2nc3ccccc3c2N(C)C)cc1

>  <score_type>  (4) 
oracle

>  <origin>  (4) 
adg

>  <m_score__min__energy>  (4) 
-8.4399999999999995

>  <m_primary>  (4) 
energy

$$$$
4:0
     RDKit          3D

 32 34  0  0  0  0  0  0  0  0999 V2000
   -2.3140   24.6850  -27.4170 C   0  0  0  0  0  0  0  0  0  0  0  0
   -3.6590   24.5450  -27.0720 C   0  0  0  0  0  0  0  0  0  0  0  0
   -4.6060   24.2190  -28.0490 C   0  0  0  0  0  0  0  0  0  0  0  0
   -4.2100   24.0300  -29.3870 C   0  0  0  0  0  0  0  0  0  0  0  0
   -5.1910   23.6850  -30.4400 C   0  0  0  0  0  0  0  0  0  0  0  0
   -6.4410   23.1040  -30.2740 C   0  0  0  0  0  0  0  0  0  0  0  0
   -6.9320   23.0050  -31.5600 C   0  0  0  0  0  0  0  0  0  0  0  0
   -8.2220   22.3640  -31.9660 C   0  0  0  0  0  0  0  0  0  0  0  0
   -8.0290   20.9220  -32.1520 N   0  0  0  0  0  0  0  0  0  0  0  0
   -6.9290   20.4650  -32.8280 C   0  0  0  0  0  0  0  0  0  0  0  0
   -6.7130   19.0940  -32.9840 C   0  0  0  0  0  0  0  0  0  0  0  0
   -7.6220   18.1900  -32.4380 C   0  0  0  0  0  0  0  0  0  0  0  0
   -8.7310   18.6630  -31.7390 C   0  0  0  0  0  0  0  0  0  0  0  0
   -8.9180   20.0410  -31.6000 C   0  0  0  0  0  0  0  0  0  0  0  0
   -6.0160   23.4830  -32.4170 N   0  0  0  0  0  0  0  0  0  0  0  0
   -4.9920   23.8870  -31.7250 O   0  0  0  0  0  0  0  0  0  0  0  0
   -2.8520   24.1740  -29.7230 C   0  0  0  0  0  0  0  0  0  0  0  0
   -1.9100   24.5000  -28.7410 C   0  0  0  0  0  0  0  0  0  0  0  0
   -1.5722   24.9410  -26.6462 H   0  0  0  0  0  0  0  0  0  0  0  0
   -3.9756   24.6914  -26.0288 H   0  0  0  0  0  0  0  0  0  0  0  0
   -5.6646   24.1099  -27.7706 H   0  0  0  0  0  0  0  0  0  0  0  0
   -6.9265   22.7949  -29.3366 H   0  0  0  0  0  0  0  0  0  0  0  0
   -8.9751   22.5326  -31.1821 H   0  0  0  0  0  0  0  0  0  0  0  0
   -8.5633   22.8077  -32.9129 H   0  0  0  0  0  0  0  0  0  0  0  0
   -6.2107   21.1827  -33.2510 H   0  0  0  0  0  0  0  0  0  0  0  0
   -5.8321   18.7307  -33.5336 H   0  0  0  0  0  0  0  0  0  0  0  0
   -7.4650   17.1079  -32.5582 H   0  0  0  0  0  0  0  0  0  0  0  0
   -9.4527   17.9580  -31.3006 H   0  0  0  0  0  0  0  0  0  0  0  0
   -9.7870   20.4202  -31.0423 H   0  0  0  0  0  0  0  0  0  0  0  0
   -6.0870   23.5210  -33.4580 H   0  0  0  0  0  0  0  0  0  0  0  0
   -2.5283   24.0294  -30.7643 H   0  0  0  0  0  0  0  0  0  0  0  0
   -0.8497   24.6107  -29.0123 H   0  0  0  0  0  0  0  0  0  0  0  0
  1  2  2  0
  2  3  1  0
  3  4  2  0
  4  5  1  0
  5  6  2  0
  6  7  1  0
  7  8  1  0
  8  9  1  0
  9 10  2  0
 10 11  1  0
 11 12  2  0
 12 13  1  0
 13 14  2  0
  7 15  2  0
 15 16  1  0
  4 17  1  0
 17 18  2  0
 18  1  1  0
 16  5  1  0
 14  9  1  0
  1 19  1  0
  2 20  1  0
  3 21  1  0
  6 22  1  0
  8 23  1  0
  8 24  1  0
 10 25  1  0
 11 26  1  0
 12 27  1  0
 13 28  1  0
 14 29  1  0
 15 30  1  0
 17 31  1  0
 18 32  1  0
M  CHG  2   9   1  15   1
M  END
>  <UniqueID>  (5) 
5

>  <SMILES>  (5) 
c1ccc(-c2cc(C[n+]3ccccc3)[nH+]o2)cc1

>  <Energy>  (5) 
65.39139755146331

>  <Genealogy>  (5) 
c1ccc(-c2cc(C[n+]3ccccc3)[nH+]o2)cc1 (protonated)
c1ccc(-c2cc(C[n+]3ccccc3)[nH+]o2)cc1 (3D coordinates assigned)
c1ccc(-c2cc(C[n+]3ccccc3)[nH+]o2)cc1 (optimized conformer: 65.39139755146331 kcal/mol)

>  <smiles>  (5) 
c1ccc(-c2cc(C[n+]3ccccc3)no2)cc1

>  <score_type>  (5) 
oracle

>  <origin>  (5) 
adg

>  <m_score__min__energy>  (5) 
-6.5700000000000003

>  <m_primary>  (5) 
energy

$$$$
5:0
     RDKit          3D

 45 48  0  0  0  0  0  0  0  0999 V2000
   -3.8250   16.5900  -35.3550 C   0  0  0  0  0  0  0  0  0  0  0  0
   -3.8270   17.5050  -34.1210 C   0  0  1  0  0  0  0  0  0  0  0  0
   -2.7550   18.6110  -34.2500 C   0  0  0  0  0  0  0  0  0  0  0  0
   -2.9990   19.8490  -33.3610 C   0  0  0  0  0  0  0  0  0  0  0  0
   -3.8680   19.5660  -32.1140 C   0  0  1  0  0  0  0  0  0  0  0  0
   -3.9850   20.8220  -31.2560 C   0  0  0  0  0  0  0  0  0  0  0  0
   -3.1100   20.9790  -30.1600 C   0  0  0  0  0  0  0  0  0  0  0  0
   -3.1210   22.1480  -29.3970 C   0  0  0  0  0  0  0  0  0  0  0  0
   -3.9960   23.1830  -29.7160 C   0  0  0  0  0  0  0  0  0  0  0  0
   -4.8630   23.0540  -30.8010 C   0  0  0  0  0  0  0  0  0  0  0  0
   -4.8540   21.8880  -31.5880 C   0  0  0  0  0  0  0  0  0  0  0  0
   -5.8730   21.7360  -32.6770 C   0  0  0  0  0  0  0  0  0  0  0  0
   -6.9130   20.7590  -32.2120 C   0  0  0  0  0  0  0  0  0  0  0  0
   -8.2130   21.2050  -31.8600 C   0  0  0  0  0  0  0  0  0  0  0  0
   -8.7650   23.0430  -31.9690 Br  0  0  0  0  0  0  0  0  0  0  0  0
   -9.1640   20.2940  -31.3930 C   0  0  0  0  0  0  0  0  0  0  0  0
   -8.8430   18.9500  -31.2570 C   0  0  0  0  0  0  0  0  0  0  0  0
   -7.5640   18.5010  -31.5750 C   0  0  0  0  0  0  0  0  0  0  0  0
   -6.5700   19.3900  -32.0340 C   0  0  0  0  0  0  0  0  0  0  0  0
   -5.2080   18.7790  -32.4070 C   0  0  1  0  0  0  0  0  0  0  0  0
   -5.2360   18.0690  -33.7980 C   0  0  1  0  0  0  0  0  0  0  0  0
   -5.7630   18.9170  -34.8850 N   0  0  0  0  0  0  0  0  0  0  0  0
   -3.8227   15.5385  -35.0318 H   0  0  0  0  0  0  0  0  0  0  0  0
   -4.7236   16.7862  -35.9584 H   0  0  0  0  0  0  0  0  0  0  0  0
   -2.9273   16.7901  -35.9584 H   0  0  0  0  0  0  0  0  0  0  0  0
   -3.5543   16.8867  -33.2531 H   0  0  0  0  0  0  0  0  0  0  0  0
   -1.7813   18.1786  -33.9764 H   0  0  0  0  0  0  0  0  0  0  0  0
   -2.7935   18.9626  -35.2916 H   0  0  0  0  0  0  0  0  0  0  0  0
   -2.0239   20.2304  -33.0238 H   0  0  0  0  0  0  0  0  0  0  0  0
   -3.5497   20.5776  -33.9741 H   0  0  0  0  0  0  0  0  0  0  0  0
   -3.3426   18.8276  -31.4906 H   0  0  0  0  0  0  0  0  0  0  0  0
   -2.4103   20.1699  -29.9036 H   0  0  0  0  0  0  0  0  0  0  0  0
   -2.4369   22.2517  -28.5419 H   0  0  0  0  0  0  0  0  0  0  0  0
   -4.0035   24.1025  -29.1123 H   0  0  0  0  0  0  0  0  0  0  0  0
   -5.5593   23.8704  -31.0432 H   0  0  0  0  0  0  0  0  0  0  0  0
   -6.3426   22.7085  -32.8861 H   0  0  0  0  0  0  0  0  0  0  0  0
   -5.3940   21.3720  -33.5979 H   0  0  0  0  0  0  0  0  0  0  0  0
  -10.1735   20.6439  -31.1314 H   0  0  0  0  0  0  0  0  0  0  0  0
   -9.6008   18.2384  -30.8972 H   0  0  0  0  0  0  0  0  0  0  0  0
   -7.3243   17.4330  -31.4662 H   0  0  0  0  0  0  0  0  0  0  0  0
   -5.1123   18.0238  -31.6130 H   0  0  0  0  0  0  0  0  0  0  0  0
   -5.9493   17.2344  -33.7302 H   0  0  0  0  0  0  0  0  0  0  0  0
   -5.3730   18.6250  -35.8080 H   0  0  0  0  0  0  0  0  0  0  0  0
   -6.8040   18.9000  -34.9290 H   0  0  0  0  0  0  0  0  0  0  0  0
   -5.4590   19.9050  -34.7370 H   0  0  0  0  0  0  0  0  0  0  0  0
  1  2  1  0
  2  3  1  0
  3  4  1  0
  4  5  1  0
  5  6  1  0
  6  7  2  0
  7  8  1  0
  8  9  2  0
  9 10  1  0
 10 11  2  0
 11 12  1  0
 12 13  1  0
 13 14  2  0
 14 15  1  0
 14 16  1  0
 16 17  2  0
 17 18  1  0
 18 19  2  0
 19 20  1  0
 20 21  1  0
 21 22  1  0
 21  2  1  0
 20  5  1  0
 11  6  1  0
 19 13  1  0
  1 23  1  0
  1 24  1  0
  1 25  1  0
  2 26  1  1
  3 27  1  0
  3 28  1  0
  4 29  1  0
  4 30  1  0
  5 31  1  1
  7 32  1  0
  8 33  1  0
  9 34  1  0
 10 35  1  0
 12 36  1  0
 12 37  1  0
 16 38  1  0
 17 39  1  0
 18 40  1  0
 20 41  1  1
 21 42  1  1
 22 43  1  0
 22 44  1  0
 22 45  1  0
M  CHG  1  22   1
M  END
>  <UniqueID>  (6) 
6

>  <SMILES>  (6) 
C[C@H]1CC[C@H]2c3ccccc3Cc3c(Br)cccc3C2C1[NH3+]

>  <Energy>  (6) 
75.95240145910287

>  <Genealogy>  (6) 
CC1CCC2c3ccccc3Cc3c(Br)cccc3C2C1[NH3+] (protonated)
C[C@H]1CC[C@H]2c3ccccc3Cc3c(Br)cccc3C2C1[NH3+] (chirality)
C[C@H]1CC[C@H]2c3ccccc3Cc3c(Br)cccc3C2C1[NH3+] (3D coordinates assigned)
C[C@H]1CC[C@H]2c3ccccc3Cc3c(Br)cccc3C2C1[NH3+] (nonaromatic ring conformer: 75.95240145910287 kcal/mol)

>  <smiles>  (6) 
CC1CCC2c3ccccc3Cc3c(Br)cccc3C2C1N

>  <score_type>  (6) 
oracle

>  <origin>  (6) 
adg

>  <m_score__min__energy>  (6) 
-7.96

>  <m_primary>  (6) 
energy

$$$$
6:0
     RDKit          3D

 45 48  0  0  0  0  0  0  0  0999 V2000
   -5.3810   25.7540  -30.4550 C   0  0  0  0  0  0  0  0  0  0  0  0
   -4.0700   25.2040  -30.5280 O   0  0  0  0  0  0  0  0  0  0  0  0
   -3.7710   23.8340  -30.4580 C   0  0  0  0  0  0  0  0  0  0  0  0
   -3.9390   22.9860  -31.5730 C   0  0  0  0  0  0  0  0  0  0  0  0
   -3.6810   21.6110  -31.4720 C   0  0  0  0  0  0  0  0  0  0  0  0
   -3.8270   20.7230  -32.6770 C   0  0  0  0  0  0  0  0  0  0  0  0
   -4.5750   19.5140  -32.3090 N   0  0  0  0  0  0  0  0  0  0  0  0
   -5.7020   19.2720  -33.2210 C   0  0  0  0  0  0  0  0  0  0  0  0
   -7.0300   19.4630  -32.5440 C   0  0  0  0  0  0  0  0  0  0  0  0
   -8.0420   18.5650  -32.5980 N   0  0  0  0  0  0  0  0  0  0  0  0
   -9.0990   19.1650  -32.0600 N   0  0  0  0  0  0  0  0  0  0  0  0
   -8.7100   20.3950  -31.6850 C   0  0  0  0  0  0  0  0  0  0  0  0
   -7.4380   20.6030  -31.9560 N   0  0  0  0  0  0  0  0  0  0  0  0
   -7.1210   21.9970  -32.1640 C   0  0  0  0  0  0  0  0  0  0  0  0
   -8.4410   22.7240  -31.8000 C   0  0  0  0  0  0  0  0  0  0  0  0
   -9.5160   21.6270  -31.5940 C   0  0  0  0  0  0  0  0  0  0  0  0
   -3.2270   21.0830  -30.2580 C   0  0  0  0  0  0  0  0  0  0  0  0
   -3.0520   21.9140  -29.1500 C   0  0  0  0  0  0  0  0  0  0  0  0
   -3.3120   23.2920  -29.2380 C   0  0  0  0  0  0  0  0  0  0  0  0
   -3.1090   24.1270  -28.0830 N   0  0  0  0  0  0  0  0  0  0  0  0
   -1.9560   24.6770  -27.6620 C   0  0  0  0  0  0  0  0  0  0  0  0
   -2.2120   25.3600  -26.4950 C   0  0  0  0  0  0  0  0  0  0  0  0
   -3.5170   25.2390  -26.1770 N   0  0  0  0  0  0  0  0  0  0  0  0
   -4.0310   24.4770  -27.1640 C   0  0  0  0  0  0  0  0  0  0  0  0
   -5.6696   25.8751  -29.4005 H   0  0  0  0  0  0  0  0  0  0  0  0
   -5.3957   26.7342  -30.9541 H   0  0  0  0  0  0  0  0  0  0  0  0
   -6.0907   25.0777  -30.9541 H   0  0  0  0  0  0  0  0  0  0  0  0
   -4.2758   23.4076  -32.5315 H   0  0  0  0  0  0  0  0  0  0  0  0
   -4.3697   21.2634  -33.4666 H   0  0  0  0  0  0  0  0  0  0  0  0
   -2.8300   20.4385  -33.0447 H   0  0  0  0  0  0  0  0  0  0  0  0
   -3.9270   18.6900  -32.3360 H   0  0  0  0  0  0  0  0  0  0  0  0
   -5.6309   19.9727  -34.0660 H   0  0  0  0  0  0  0  0  0  0  0  0
   -5.6432   18.2277  -33.5615 H   0  0  0  0  0  0  0  0  0  0  0  0
  -10.0700   18.7840  -32.0680 H   0  0  0  0  0  0  0  0  0  0  0  0
   -6.3008   22.3168  -31.5045 H   0  0  0  0  0  0  0  0  0  0  0  0
   -6.7807   22.2118  -33.1877 H   0  0  0  0  0  0  0  0  0  0  0  0
   -8.3106   23.3045  -30.8748 H   0  0  0  0  0  0  0  0  0  0  0  0
   -8.7384   23.4228  -32.5958 H   0  0  0  0  0  0  0  0  0  0  0  0
   -9.9983   21.7185  -30.6096 H   0  0  0  0  0  0  0  0  0  0  0  0
  -10.3437   21.6726  -32.3170 H   0  0  0  0  0  0  0  0  0  0  0  0
   -3.0071   20.0083  -30.1765 H   0  0  0  0  0  0  0  0  0  0  0  0
   -2.7068   21.4853  -28.1976 H   0  0  0  0  0  0  0  0  0  0  0  0
   -0.9799   24.5952  -28.1626 H   0  0  0  0  0  0  0  0  0  0  0  0
   -1.4662   25.9191  -25.9109 H   0  0  0  0  0  0  0  0  0  0  0  0
   -5.0873   24.1742  -27.2137 H   0  0  0  0  0  0  0  0  0  0  0  0
  1  2  1  0
  2  3  1  0
  3  4  2  0
  4  5  1  0
  5  6  1  0
  6  7  1  0
  7  8  1  0
  8  9  1  0
  9 10  2  0
 10 11  1  0
 11 12  2  0
 12 13  1  0
 13 14  1  0
 14 15  1  0
 15 16  1  0
  5 17  2  0
 17 18  1  0
 18 19  2  0
 19 20  1  0
 20 21  1  0
 21 22  2  0
 22 23  1  0
 23 24  2  0
 19  3  1  0
 24 20  1  0
 13  9  1  0
 16 12  1  0
  1 25  1  0
  1 26  1  0
  1 27  1  0
  4 28  1  0
  6 29  1  0
  6 30  1  0
  7 31  1  0
  8 32  1  0
  8 33  1  0
 11 34  1  0
 14 35  1  0
 14 36  1  0
 15 37  1  0
 15 38  1  0
 16 39  1  0
 16 40  1  0
 17 41  1  0
 18 42  1  0
 21 43  1  0
 22 44  1  0
 24 45  1  0
M  CHG  1  11   1
M  END
>  <UniqueID>  (7) 
7

>  <SMILES>  (7) 
COc1cc(CNCc2n[nH+]c3n2CCC3)ccc1-n1ccnc1

>  <Energy>  (7) 
137.2089689512999

>  <Genealogy>  (7) 
COc1cc(CNCc2n[nH+]c3n2CCC3)ccc1-n1ccnc1 (protonated)
COc1cc(CNCc2n[nH+]c3n2CCC3)ccc1-n1ccnc1 (3D coordinates assigned)
COc1cc(CNCc2n[nH+]c3n2CCC3)ccc1-n1ccnc1 (nonaromatic ring conformer: 137.2089689512999 kcal/mol)

>  <smiles>  (7) 
COc1cc(CNCc2nnc3n2CCC3)ccc1-n1ccnc1

>  <score_type>  (7) 
oracle

>  <origin>  (7) 
adg

>  <m_score__min__energy>  (7) 
-7.7300000000000004

>  <m_primary>  (7) 
energy

$$$$
7:0
     RDKit          3D

 37 39  0  0  0  0  0  0  0  0999 V2000
   -4.5828   19.7109  -34.3223 H   0  0  0  0  0  0  0  0  0  0  0  0
   -5.3280   20.0260  -33.5770 C   0  0  0  0  0  0  0  0  0  0  0  0
   -6.4500   19.2300  -33.3340 C   0  0  0  0  0  0  0  0  0  0  0  0
   -6.5856   18.2877  -33.8851 H   0  0  0  0  0  0  0  0  0  0  0  0
   -7.4010   19.6310  -32.3900 C   0  0  0  0  0  0  0  0  0  0  0  0
   -8.5640   18.8180  -32.1500 C   0  0  0  0  0  0  0  0  0  0  0  0
   -9.4990   18.1640  -31.9570 N   0  0  0  0  0  0  0  0  0  0  0  0
   -7.2250   20.8300  -31.6840 C   0  0  0  0  0  0  0  0  0  0  0  0
   -7.9778   21.1452  -30.9465 H   0  0  0  0  0  0  0  0  0  0  0  0
   -6.0900   21.6340  -31.9130 C   0  0  0  0  0  0  0  0  0  0  0  0
   -5.8860   22.9140  -31.1860 C   0  0  0  0  0  0  0  0  0  0  0  0
   -4.6190   23.3570  -30.9590 N   0  0  0  0  0  0  0  0  0  0  0  0
   -4.3640   24.5230  -30.3050 C   0  0  0  0  0  0  0  0  0  0  0  0
   -3.1450   24.9210  -30.0760 N   0  0  0  0  0  0  0  0  0  0  0  0
   -2.2750   24.4710  -29.0240 C   0  0  0  0  0  0  0  0  0  0  0  0
   -1.1980   25.2490  -28.5590 C   0  0  0  0  0  0  0  0  0  0  0  0
   -0.9901   26.2262  -29.0192 H   0  0  0  0  0  0  0  0  0  0  0  0
   -0.3910   24.7860  -27.5150 C   0  0  0  0  0  0  0  0  0  0  0  0
    0.4590   25.3926  -27.1692 H   0  0  0  0  0  0  0  0  0  0  0  0
   -0.6620   23.5470  -26.9050 C   0  0  0  0  0  0  0  0  0  0  0  0
    0.1200   23.0370  -25.8570 O   0  0  0  0  0  0  0  0  0  0  0  0
   -0.1060   23.3140  -24.4790 C   0  0  0  0  0  0  0  0  0  0  0  0
    0.4704   22.6075  -23.8637 H   0  0  0  0  0  0  0  0  0  0  0  0
    0.2144   24.3420  -24.2543 H   0  0  0  0  0  0  0  0  0  0  0  0
   -1.1774   23.2065  -24.2543 H   0  0  0  0  0  0  0  0  0  0  0  0
   -1.7520   22.7920  -27.3500 C   0  0  0  0  0  0  0  0  0  0  0  0
   -1.9761   21.8255  -26.8750 H   0  0  0  0  0  0  0  0  0  0  0  0
   -2.5590   23.2550  -28.3930 C   0  0  0  0  0  0  0  0  0  0  0  0
   -3.4237   22.6590  -28.7202 H   0  0  0  0  0  0  0  0  0  0  0  0
   -5.4390   25.2780  -29.8290 C   0  0  0  0  0  0  0  0  0  0  0  0
   -5.2580   26.2191  -29.2890 H   0  0  0  0  0  0  0  0  0  0  0  0
   -6.7090   24.8430  -30.0370 N   0  0  0  0  0  0  0  0  0  0  0  0
   -7.5100   25.4070  -29.6740 H   0  0  0  0  0  0  0  0  0  0  0  0
   -6.9580   23.6820  -30.7010 C   0  0  0  0  0  0  0  0  0  0  0  0
   -7.9937   23.3461  -30.8575 H   0  0  0  0  0  0  0  0  0  0  0  0
   -5.1500   21.2210  -32.8760 C   0  0  0  0  0  0  0  0  0  0  0  0
   -4.2671   21.8451  -33.0784 H   0  0  0  0  0  0  0  0  0  0  0  0
  1  2  1  0
  2  3  2  0
  3  4  1  0
  3  5  1  0
  5  6  1  0
  6  7  3  0
  5  8  2  0
  8  9  1  0
  8 10  1  0
 10 11  1  0
 11 12  1  0
 12 13  1  0
 13 14  2  0
 14 15  1  0
 15 16  2  0
 16 17  1  0
 16 18  1  0
 18 19  1  0
 18 20  2  0
 20 21  1  0
 21 22  1  0
 22 23  1  0
 22 24  1  0
 22 25  1  0
 20 26  1  0
 26 27  1  0
 26 28  2  0
 28 29  1  0
 13 30  1  0
 30 31  1  0
 30 32  2  0
 32 33  1  0
 32 34  1  0
 34 35  1  0
 10 36  2  0
 36 37  1  0
 36  2  1  0
 34 11  2  0
 28 15  1  0
M  CHG  2  12  -1  32   1
M  END
>  <UniqueID>  (8) 
8

>  <SMILES>  (8) 
COc1ccc(/N=c2/c[nH+]cc(-c3cccc(C#N)c3)[n-]2)cc1

>  <Energy>  (8) 
49.006566043027235

>  <Genealogy>  (8) 
COc1ccc(N=c2c[nH+]cc(-c3cccc(C#N)c3)[n-]2)cc1 (protonated)
COc1ccc(/N=c2/c[nH+]cc(-c3cccc(C#N)c3)[n-]2)cc1 (cis-trans isomerization)
COc1ccc(/N=c2/c[nH+]cc(-c3cccc(C#N)c3)[n-]2)cc1 (3D coordinates assigned)
COc1ccc(/N=c2/c[nH+]cc(-c3cccc(C#N)c3)[n-]2)cc1 (optimized conformer: 49.006566043027235 kcal/mol)

>  <smiles>  (8) 
COc1ccc(N=c2cncc(-c3cccc(C#N)c3)[nH]2)cc1

>  <score_type>  (8) 
oracle

>  <origin>  (8) 
adg

>  <m_score__min__energy>  (8) 
-7.8499999999999996

>  <m_primary>  (8) 
energy

$$$$
8:0
     RDKit          3D

 50 52  0  0  0  0  0  0  0  0999 V2000
   -2.7480   17.8100  -34.3110 C   0  0  0  0  0  0  0  0  0  0  0  0
   -3.5780   18.8660  -33.7180 N   0  0  0  0  0  0  0  0  0  0  0  0
   -2.9860   20.1850  -33.4710 C   0  0  0  0  0  0  0  0  0  0  0  0
   -4.9720   18.6170  -33.4150 C   0  0  0  0  0  0  0  0  0  0  0  0
   -5.4980   17.3100  -33.4580 C   0  0  0  0  0  0  0  0  0  0  0  0
   -6.8310   17.0680  -33.1190 C   0  0  0  0  0  0  0  0  0  0  0  0
   -7.6600   18.1210  -32.7310 C   0  0  0  0  0  0  0  0  0  0  0  0
   -7.1700   19.4340  -32.7080 C   0  0  0  0  0  0  0  0  0  0  0  0
   -8.0690   20.5700  -32.2960 C   0  0  0  0  0  0  0  0  0  0  0  0
   -7.2770   21.6600  -31.6800 N   0  0  0  0  0  0  0  0  0  0  0  0
   -7.2480   22.8650  -32.5430 C   0  0  0  0  0  0  0  0  0  0  0  0
   -6.9440   24.1680  -31.7700 C   0  0  0  0  0  0  0  0  0  0  0  0
   -6.2140   23.9480  -30.5090 N   0  0  0  0  0  0  0  0  0  0  0  0
   -4.4890   23.7730  -30.7500 S   0  0  0  0  0  0  0  0  0  0  0  0
   -4.2480   23.0760  -32.0600 O   0  0  0  0  0  0  0  0  0  0  0  0
   -3.8580   25.1360  -30.8380 O   0  0  0  0  0  0  0  0  0  0  0  0
   -3.7000   22.8640  -29.4600 C   0  0  0  0  0  0  0  0  0  0  0  0
   -3.2630   23.5210  -28.2990 C   0  0  0  0  0  0  0  0  0  0  0  0
   -2.5670   22.8150  -27.3130 C   0  0  0  0  0  0  0  0  0  0  0  0
   -2.3060   21.4520  -27.4790 C   0  0  0  0  0  0  0  0  0  0  0  0
   -1.6090   20.7740  -26.5330 F   0  0  0  0  0  0  0  0  0  0  0  0
   -2.7590   20.7880  -28.6220 C   0  0  0  0  0  0  0  0  0  0  0  0
   -3.4460   21.4930  -29.6150 C   0  0  0  0  0  0  0  0  0  0  0  0
   -6.7930   22.9090  -29.6270 C   0  0  0  0  0  0  0  0  0  0  0  0
   -7.7910   21.9910  -30.3440 C   0  0  0  0  0  0  0  0  0  0  0  0
   -5.8310   19.6760  -33.0540 C   0  0  0  0  0  0  0  0  0  0  0  0
   -2.2819   17.2170  -33.5104 H   0  0  0  0  0  0  0  0  0  0  0  0
   -3.3763   17.1559  -34.9335 H   0  0  0  0  0  0  0  0  0  0  0  0
   -1.9640   18.2660  -34.9335 H   0  0  0  0  0  0  0  0  0  0  0  0
   -2.9095   20.3554  -32.3870 H   0  0  0  0  0  0  0  0  0  0  0  0
   -1.9828   20.2266  -33.9204 H   0  0  0  0  0  0  0  0  0  0  0  0
   -3.6216   20.9622  -33.9204 H   0  0  0  0  0  0  0  0  0  0  0  0
   -4.8524   16.4727  -33.7615 H   0  0  0  0  0  0  0  0  0  0  0  0
   -7.2289   16.0432  -33.1580 H   0  0  0  0  0  0  0  0  0  0  0  0
   -8.7022   17.9200  -32.4420 H   0  0  0  0  0  0  0  0  0  0  0  0
   -8.5913   20.9584  -33.1827 H   0  0  0  0  0  0  0  0  0  0  0  0
   -8.7972   20.1989  -31.5598 H   0  0  0  0  0  0  0  0  0  0  0  0
   -6.4718   22.7257  -33.3099 H   0  0  0  0  0  0  0  0  0  0  0  0
   -8.2512   22.9744  -32.9807 H   0  0  0  0  0  0  0  0  0  0  0  0
   -6.3369   24.8211  -32.4141 H   0  0  0  0  0  0  0  0  0  0  0  0
   -7.9114   24.6216  -31.5083 H   0  0  0  0  0  0  0  0  0  0  0  0
   -3.4685   24.5933  -28.1647 H   0  0  0  0  0  0  0  0  0  0  0  0
   -2.2243   23.3331  -26.4052 H   0  0  0  0  0  0  0  0  0  0  0  0
   -2.5750   19.7100  -28.7407 H   0  0  0  0  0  0  0  0  0  0  0  0
   -3.7884   20.9710  -30.5207 H   0  0  0  0  0  0  0  0  0  0  0  0
   -5.9735   22.2916  -29.2304 H   0  0  0  0  0  0  0  0  0  0  0  0
   -7.3439   23.4290  -28.8295 H   0  0  0  0  0  0  0  0  0  0  0  0
   -7.9229   21.0668  -29.7622 H   0  0  0  0  0  0  0  0  0  0  0  0
   -8.7591   22.5044  -30.4397 H   0  0  0  0  0  0  0  0  0  0  0  0
   -5.4462   20.7064  -33.0434 H   0  0  0  0  0  0  0  0  0  0  0  0
  1  2  1  0
  2  3  1  0
  2  4  1  0
  4  5  2  0
  5  6  1  0
  6  7  2  0
  7  8  1  0
  8  9  1  0
  9 10  1  0
 10 11  1  0
 11 12  1  0
 12 13  1  0
 13 14  1  0
 14 15  2  0
 14 16  2  0
 14 17  1  0
 17 18  2  0
 18 19  1  0
 19 20  2  0
 20 21  1  0
 20 22  1  0
 22 23  2  0
 13 24  1  0
 24 25  1  0
  8 26  2  0
 26  4  1  0
 25 10  1  0
 23 17  1  0
  1 27  1  0
  1 28  1  0
  1 29  1  0
  3 30  1  0
  3 31  1  0
  3 32  1  0
  5 33  1  0
  6 34  1  0
  7 35  1  0
  9 36  1  0
  9 37  1  0
 11 38  1  0
 11 39  1  0
 12 40  1  0
 12 41  1  0
 18 42  1  0
 19 43  1  0
 22 44  1  0
 23 45  1  0
 24 46  1  0
 24 47  1  0
 25 48  1  0
 25 49  1  0
 26 50  1  0
M  END
>  <UniqueID>  (9) 
9

>  <SMILES>  (9) 
CN(C)c1cccc(CN2CCN(S(=O)(=O)c3ccc(F)cc3)CC2)c1

>  <Energy>  (9) 
59.61433173587801

>  <Genealogy>  (9) 
CN(C)c1cccc(CN2CCN(S(=O)(=O)c3ccc(F)cc3)CC2)c1 (3D coordinates assigned)
CN(C)c1cccc(CN2CCN(S(=O)(=O)c3ccc(F)cc3)CC2)c1 (nonaromatic ring conformer: 59.61433173587801 kcal/mol)

>  <smiles>  (9) 
CN(C)c1cccc(CN2CCN(S(=O)(=O)c3ccc(F)cc3)CC2)c1

>  <score_type>  (9) 
oracle

>  <origin>  (9) 
adg

>  <m_score__min__energy>  (9) 
-8.7699999999999996

>  <m_primary>  (9) 
energy

$$$$
9:0
     RDKit          3D

 49 52  0  0  0  0  0  0  0  0999 V2000
   -2.9100   19.0700  -33.0070 O   0  0  0  0  0  0  0  0  0  0  0  0
   -3.1070   20.2860  -33.2860 C   0  0  0  0  0  0  0  0  0  0  0  0
   -1.9350   21.1780  -33.5540 C   0  0  0  0  0  0  0  0  0  0  0  0
   -0.5640   20.7720  -32.4220 S   0  0  0  0  0  0  0  0  0  0  0  0
   -1.4480   21.2590  -30.9380 C   0  0  0  0  0  0  0  0  0  0  0  0
   -2.2490   22.3820  -30.7850 C   0  0  0  0  0  0  0  0  0  0  0  0
   -2.7170   22.4530  -29.5140 N   0  0  0  0  0  0  0  0  0  0  0  0
   -3.5400   23.5330  -28.9630 C   0  0  0  0  0  0  0  0  0  0  0  0
   -4.3370   24.2270  -30.0400 C   0  0  0  0  0  0  0  0  0  0  0  0
   -3.8700   25.2950  -30.5240 O   0  0  0  0  0  0  0  0  0  0  0  0
   -5.6230   23.6930  -30.5700 C   0  0  0  0  0  0  0  0  0  0  0  0
   -6.4490   22.8980  -29.7430 C   0  0  0  0  0  0  0  0  0  0  0  0
   -7.6730   22.4130  -30.2170 C   0  0  0  0  0  0  0  0  0  0  0  0
   -8.0810   22.6940  -31.5220 C   0  0  0  0  0  0  0  0  0  0  0  0
   -7.2730   23.4740  -32.3530 C   0  0  0  0  0  0  0  0  0  0  0  0
   -6.0560   23.9770  -31.8800 C   0  0  0  0  0  0  0  0  0  0  0  0
   -2.1880   21.3940  -28.8590 C   0  0  0  0  0  0  0  0  0  0  0  0
   -2.3080   21.0640  -27.5050 C   0  0  0  0  0  0  0  0  0  0  0  0
   -1.6310   19.9230  -27.0410 C   0  0  0  0  0  0  0  0  0  0  0  0
   -0.8480   19.1460  -27.9220 C   0  0  0  0  0  0  0  0  0  0  0  0
   -0.7280   19.5080  -29.2740 C   0  0  0  0  0  0  0  0  0  0  0  0
   -1.4130   20.6410  -29.7070 C   0  0  0  0  0  0  0  0  0  0  0  0
   -4.4410   20.8160  -33.3570 N   0  0  0  0  0  0  0  0  0  0  0  0
   -5.6060   20.1150  -32.8890 C   0  0  0  0  0  0  0  0  0  0  0  0
   -5.4710   19.1330  -31.8960 C   0  0  0  0  0  0  0  0  0  0  0  0
   -6.5930   18.4330  -31.4360 C   0  0  0  0  0  0  0  0  0  0  0  0
   -7.8550   18.6970  -31.9770 C   0  0  0  0  0  0  0  0  0  0  0  0
   -7.9960   19.6510  -32.9890 C   0  0  0  0  0  0  0  0  0  0  0  0
   -6.8760   20.3510  -33.4510 C   0  0  0  0  0  0  0  0  0  0  0  0
   -1.6020   21.0383  -34.5930 H   0  0  0  0  0  0  0  0  0  0  0  0
   -2.2355   22.2240  -33.3938 H   0  0  0  0  0  0  0  0  0  0  0  0
   -2.4720   23.1093  -31.5796 H   0  0  0  0  0  0  0  0  0  0  0  0
   -4.2338   23.1106  -28.2213 H   0  0  0  0  0  0  0  0  0  0  0  0
   -2.8717   24.2727  -28.4981 H   0  0  0  0  0  0  0  0  0  0  0  0
   -6.1270   22.6587  -28.7188 H   0  0  0  0  0  0  0  0  0  0  0  0
   -8.3153   21.8087  -29.5595 H   0  0  0  0  0  0  0  0  0  0  0  0
   -9.0382   22.3015  -31.8959 H   0  0  0  0  0  0  0  0  0  0  0  0
   -7.5944   23.6933  -33.3819 H   0  0  0  0  0  0  0  0  0  0  0  0
   -5.4316   24.6000  -32.5372 H   0  0  0  0  0  0  0  0  0  0  0  0
   -2.9141   21.6791  -26.8237 H   0  0  0  0  0  0  0  0  0  0  0  0
   -1.7119   19.6331  -25.9830 H   0  0  0  0  0  0  0  0  0  0  0  0
   -0.3287   18.2516  -27.5475 H   0  0  0  0  0  0  0  0  0  0  0  0
   -0.1132   18.9161  -29.9681 H   0  0  0  0  0  0  0  0  0  0  0  0
   -4.5780   21.7310  -33.8380 H   0  0  0  0  0  0  0  0  0  0  0  0
   -4.4784   18.9119  -31.4766 H   0  0  0  0  0  0  0  0  0  0  0  0
   -6.4814   17.6740  -30.6476 H   0  0  0  0  0  0  0  0  0  0  0  0
   -8.7369   18.1540  -31.6063 H   0  0  0  0  0  0  0  0  0  0  0  0
   -8.9871   19.8513  -33.4220 H   0  0  0  0  0  0  0  0  0  0  0  0
   -6.9879   21.0901  -34.2580 H   0  0  0  0  0  0  0  0  0  0  0  0
  1  2  2  0
  2  3  1  0
  3  4  1  0
  4  5  1  0
  5  6  2  0
  6  7  1  0
  7  8  1  0
  8  9  1  0
  9 10  2  0
  9 11  1  0
 11 12  2  0
 12 13  1  0
 13 14  2  0
 14 15  1  0
 15 16  2  0
  7 17  1  0
 17 18  2  0
 18 19  1  0
 19 20  2  0
 20 21  1  0
 21 22  2  0
  2 23  1  0
 23 24  1  0
 24 25  2  0
 25 26  1  0
 26 27  2  0
 27 28  1  0
 28 29  2  0
 22  5  1  0
 29 24  1  0
 16 11  1  0
 22 17  1  0
  3 30  1  0
  3 31  1  0
  6 32  1  0
  8 33  1  0
  8 34  1  0
 12 35  1  0
 13 36  1  0
 14 37  1  0
 15 38  1  0
 16 39  1  0
 18 40  1  0
 19 41  1  0
 20 42  1  0
 21 43  1  0
 23 44  1  0
 25 45  1  0
 26 46  1  0
 27 47  1  0
 28 48  1  0
 29 49  1  0
M  END
>  <UniqueID>  (10) 
10

>  <SMILES>  (10) 
O=C(CSc1cn(CC(=O)c2ccccc2)c2ccccc12)Nc1ccccc1

>  <Energy>  (10) 
84.29609601396814

>  <Genealogy>  (10) 
O=C(CSc1cn(CC(=O)c2ccccc2)c2ccccc12)Nc1ccccc1 (3D coordinates assigned)
O=C(CSc1cn(CC(=O)c2ccccc2)c2ccccc12)Nc1ccccc1 (optimized conformer: 84.29609601396814 kcal/mol)

>  <smiles>  (10) 
O=C(CSc1cn(CC(=O)c2ccccc2)c2ccccc12)Nc1ccccc1

>  <score_type>  (10) 
oracle

>  <origin>  (10) 
adg

>  <m_score__min__energy>  (10) 
-9.7899999999999991

>  <m_primary>  (10) 
energy

$$$$
10:0
     RDKit          3D

 33 35  0  0  1  0  0  0  0  0999 V2000
   -8.3810   20.0460  -32.9480 O   0  0  0  0  0  0  0  0  0  0  0  0
   -7.5400   21.0790  -32.5260 C   0  0  0  0  0  0  0  0  0  0  0  0
   -8.0710   22.1630  -31.8650 C   0  0  0  0  0  0  0  0  0  0  0  0
   -7.3060   23.2260  -31.4150 C   0  0  0  0  0  0  0  0  0  0  0  0
   -5.9320   23.1810  -31.6500 C   0  0  0  0  0  0  0  0  0  0  0  0
   -5.1030   24.2250  -31.2190 N   0  0  0  0  0  0  0  0  0  0  0  0
   -4.4030   24.1840  -30.1450 C   0  0  0  0  0  0  0  0  0  0  0  0
   -4.7290   23.3240  -29.1320 C   0  0  0  0  0  0  0  0  0  0  0  0
   -3.9370   23.3290  -28.0030 C   0  0  0  0  0  0  0  0  0  0  0  0
   -2.8590   24.1820  -27.9250 C   0  0  0  0  0  0  0  0  0  0  0  0
   -1.9700   24.2540  -26.7740 C   0  0  0  0  0  0  0  0  0  0  0  0
   -1.1190   23.1940  -26.5410 C   0  0  0  0  0  0  0  0  0  0  0  0
   -0.2350   23.1750  -25.4670 C   0  0  0  0  0  0  0  0  0  0  0  0
   -0.2140   24.2570  -24.6070 C   0  0  0  0  0  0  0  0  0  0  0  0
   -1.0550   25.3240  -24.8230 C   0  0  0  0  0  0  0  0  0  0  0  0
   -1.9340   25.3240  -25.9060 C   0  0  0  0  0  0  0  0  0  0  0  0
   -2.6130   24.9930  -28.9680 N   0  0  0  0  0  0  0  0  0  0  0  0
   -3.3490   25.0160  -30.0660 N   0  0  0  0  0  0  0  0  0  0  0  0
   -5.4010   22.0940  -32.3120 C   0  0  0  0  0  0  0  0  0  0  0  0
   -6.1630   21.0350  -32.7610 C   0  0  0  0  0  0  0  0  0  0  0  0
   -8.6370   19.9410  -33.9230 H   0  0  0  0  0  0  0  0  0  0  0  0
   -9.1560   22.1862  -31.6854 H   0  0  0  0  0  0  0  0  0  0  0  0
   -7.7661   24.0764  -30.8904 H   0  0  0  0  0  0  0  0  0  0  0  0
   -5.5947   22.6505  -29.2154 H   0  0  0  0  0  0  0  0  0  0  0  0
   -4.1661   22.6527  -27.1663 H   0  0  0  0  0  0  0  0  0  0  0  0
   -1.1399   22.3347  -27.2274 H   0  0  0  0  0  0  0  0  0  0  0  0
    0.4336   22.3166  -25.3054 H   0  0  0  0  0  0  0  0  0  0  0  0
    0.4753   24.2648  -23.7498 H   0  0  0  0  0  0  0  0  0  0  0  0
   -1.0341   26.1834  -24.1367 H   0  0  0  0  0  0  0  0  0  0  0  0
   -2.6021   26.1827  -26.0682 H   0  0  0  0  0  0  0  0  0  0  0  0
   -3.1150   25.6570  -30.8350 H   0  0  0  0  0  0  0  0  0  0  0  0
   -4.3159   22.0700  -32.4910 H   0  0  0  0  0  0  0  0  0  0  0  0
   -5.7024   20.1851  -33.2860 H   0  0  0  0  0  0  0  0  0  0  0  0
  1  2  1  0
  2  3  2  0
  3  4  1  0
  4  5  2  0
  5  6  1  0
  6  7  2  0
  7  8  1  0
  8  9  2  0
  9 10  1  0
 10 11  1  0
 11 12  2  0
 12 13  1  0
 13 14  2  0
 14 15  1  0
 15 16  2  0
 10 17  2  0
 17 18  1  0
  5 19  1  0
 19 20  2  0
 20  2  1  0
 18  7  1  0
 16 11  1  0
  1 21  1  0
  3 22  1  0
  4 23  1  0
  8 24  1  0
  9 25  1  0
 12 26  1  0
 13 27  1  0
 14 28  1  0
 15 29  1  0
 16 30  1  0
 18 31  1  0
 19 32  1  0
 20 33  1  0
M  END
>  <smiles>  (11) 
Oc1ccc(N=c2ccc(-c3ccccc3)n[nH]2)cc1

>  <score_type>  (11) 
oracle

>  <origin>  (11) 
adg

>  <m_score__min__energy>  (11) 
-8.25

>  <m_primary>  (11) 
energy

$$$$
11:0
     RDKit          3D

 46 47  0  0  0  0  0  0  0  0999 V2000
   -5.3300   23.5860  -29.1790 C   0  0  0  0  0  0  0  0  0  0  0  0
   -4.5350   23.9840  -30.7190 S   0  0  0  0  0  0  0  0  0  0  0  0
   -5.5370   24.6140  -31.6460 O   0  0  0  0  0  0  0  0  0  0  0  0
   -3.4150   24.9520  -30.4620 O   0  0  0  0  0  0  0  0  0  0  0  0
   -3.8870   22.4900  -31.4510 C   0  0  0  0  0  0  0  0  0  0  0  0
   -4.6490   22.1340  -32.7310 C   0  0  0  0  0  0  0  0  0  0  0  0
   -5.4250   20.8930  -32.5380 N   0  0  0  0  0  0  0  0  0  0  0  0
   -4.6530   19.7380  -32.0130 C   0  0  0  0  0  0  0  0  0  0  0  0
   -4.8210   18.4240  -32.8330 C   0  0  2  0  0  0  0  0  0  0  0  0
   -5.3110   18.6590  -34.2580 C   0  0  0  0  0  0  0  0  0  0  0  0
   -6.0840   17.4120  -34.5480 C   0  0  0  0  0  0  0  0  0  0  0  0
   -6.5470   16.9700  -33.1750 C   0  0  0  0  0  0  0  0  0  0  0  0
   -5.7450   17.5750  -32.1850 O   0  0  0  0  0  0  0  0  0  0  0  0
   -6.8080   21.0980  -32.0190 C   0  0  0  0  0  0  0  0  0  0  0  0
   -7.3100   22.5110  -32.3620 C   0  0  0  0  0  0  0  0  0  0  0  0
   -8.6300   22.8420  -31.6280 C   0  0  0  0  0  0  0  0  0  0  0  0
   -9.4360   21.5960  -31.2100 C   0  0  0  0  0  0  0  0  0  0  0  0
   -9.3050   20.4620  -32.2350 C   0  0  0  0  0  0  0  0  0  0  0  0
   -7.8380   20.0310  -32.4730 C   0  0  0  0  0  0  0  0  0  0  0  0
   -4.6908   23.9060  -28.3429 H   0  0  0  0  0  0  0  0  0  0  0  0
   -6.2976   24.1060  -29.1207 H   0  0  0  0  0  0  0  0  0  0  0  0
   -5.4934   22.4998  -29.1207 H   0  0  0  0  0  0  0  0  0  0  0  0
   -2.8246   22.6393  -31.6940 H   0  0  0  0  0  0  0  0  0  0  0  0
   -4.0042   21.6663  -30.7314 H   0  0  0  0  0  0  0  0  0  0  0  0
   -5.3354   22.9552  -32.9848 H   0  0  0  0  0  0  0  0  0  0  0  0
   -3.9265   21.9807  -33.5462 H   0  0  0  0  0  0  0  0  0  0  0  0
   -3.5869   20.0089  -32.0122 H   0  0  0  0  0  0  0  0  0  0  0  0
   -5.0443   19.5312  -31.0060 H   0  0  0  0  0  0  0  0  0  0  0  0
   -3.8218   17.9676  -32.8915 H   0  0  0  0  0  0  0  0  0  0  0  0
   -5.9562   19.5481  -34.3143 H   0  0  0  0  0  0  0  0  0  0  0  0
   -4.4977   18.8458  -34.9747 H   0  0  0  0  0  0  0  0  0  0  0  0
   -6.9406   17.6219  -35.2053 H   0  0  0  0  0  0  0  0  0  0  0  0
   -5.4920   16.6475  -35.0724 H   0  0  0  0  0  0  0  0  0  0  0  0
   -7.5955   17.2688  -33.0290 H   0  0  0  0  0  0  0  0  0  0  0  0
   -6.4600   15.8763  -33.0959 H   0  0  0  0  0  0  0  0  0  0  0  0
   -6.7283   20.9804  -30.9282 H   0  0  0  0  0  0  0  0  0  0  0  0
   -6.5442   23.2431  -32.0661 H   0  0  0  0  0  0  0  0  0  0  0  0
   -7.4991   22.5546  -33.4447 H   0  0  0  0  0  0  0  0  0  0  0  0
   -8.3889   23.4193  -30.7232 H   0  0  0  0  0  0  0  0  0  0  0  0
   -9.2564   23.4085  -32.3328 H   0  0  0  0  0  0  0  0  0  0  0  0
   -9.0643   21.2414  -30.2373 H   0  0  0  0  0  0  0  0  0  0  0  0
  -10.4969   21.8801  -31.1483 H   0  0  0  0  0  0  0  0  0  0  0  0
   -9.8714   19.5924  -31.8704 H   0  0  0  0  0  0  0  0  0  0  0  0
   -9.6984   20.8354  -33.1920 H   0  0  0  0  0  0  0  0  0  0  0  0
   -7.6506   19.1031  -31.9127 H   0  0  0  0  0  0  0  0  0  0  0  0
   -7.7092   19.8916  -33.5565 H   0  0  0  0  0  0  0  0  0  0  0  0
  1  2  1  0
  2  3  2  0
  2  4  2  0
  2  5  1  0
  5  6  1  0
  6  7  1  0
  7  8  1  0
  8  9  1  0
  9 10  1  0
 10 11  1  0
 11 12  1  0
 12 13  1  0
  7 14  1  0
 14 15  1  0
 15 16  1  0
 16 17  1  0
 17 18  1  0
 18 19  1  0
 13  9  1  0
 19 14  1  0
  1 20  1  0
  1 21  1  0
  1 22  1  0
  5 23  1  0
  5 24  1  0
  6 25  1  0
  6 26  1  0
  8 27  1  0
  8 28  1  0
  9 29  1  6
 10 30  1  0
 10 31  1  0
 11 32  1  0
 11 33  1  0
 12 34  1  0
 12 35  1  0
 14 36  1  0
 15 37  1  0
 15 38  1  0
 16 39  1  0
 16 40  1  0
 17 41  1  0
 17 42  1  0
 18 43  1  0
 18 44  1  0
 19 45  1  0
 19 46  1  0
M  END
>  <UniqueID>  (12) 
11

>  <SMILES>  (12) 
CS(=O)(=O)CCN(C[C@@H]1CCCO1)C1CCCCC1

>  <Energy>  (12) 
50.825327376753066

>  <Genealogy>  (12) 
CS(=O)(=O)CCN(C[C@@H]1CCCO1)C1CCCCC1 (chirality)
CS(=O)(=O)CCN(C[C@@H]1CCCO1)C1CCCCC1 (3D coordinates assigned)
CS(=O)(=O)CCN(C[C@@H]1CCCO1)C1CCCCC1 (nonaromatic ring conformer: 50.825327376753066 kcal/mol)

>  <smiles>  (12) 
CS(=O)(=O)CCN(CC1CCCO1)C1CCCCC1

>  <score_type>  (12) 
oracle

>  <origin>  (12) 
adg

>  <m_score__min__energy>  (12) 
-8.0399999999999991

>  <m_primary>  (12) 
energy

$$$$
12:0
     RDKit          3D

 33 35  0  0  0  0  0  0  0  0999 V2000
   -1.4846   27.2012  -23.9953 H   0  0  0  0  0  0  0  0  0  0  0  0
   -1.2050   27.3060  -25.0540 C   0  0  0  0  0  0  0  0  0  0  0  0
   -1.4970   26.2780  -25.9550 C   0  0  0  0  0  0  0  0  0  0  0  0
   -2.0095   25.3712  -25.6015 H   0  0  0  0  0  0  0  0  0  0  0  0
   -1.1400   26.3950  -27.3110 C   0  0  0  0  0  0  0  0  0  0  0  0
   -1.4420   25.3510  -28.2570 N   0  0  0  0  0  0  0  0  0  0  0  0
   -2.5660   25.3010  -28.9660 N   0  0  0  0  0  0  0  0  0  0  0  0
   -2.5440   24.2380  -29.7610 N   0  0  0  0  0  0  0  0  0  0  0  0
   -3.4930   23.8160  -30.6540 C   0  0  0  0  0  0  0  0  0  0  0  0
   -4.6250   24.4380  -30.8480 N   0  0  0  0  0  0  0  0  0  0  0  0
   -5.5780   24.8760  -29.8350 C   0  0  0  0  0  0  0  0  0  0  0  0
   -5.1630   24.6853  -28.8343 H   0  0  0  0  0  0  0  0  0  0  0  0
   -5.7699   25.9527  -29.9533 H   0  0  0  0  0  0  0  0  0  0  0  0
   -6.5200   24.3205  -29.9533 H   0  0  0  0  0  0  0  0  0  0  0  0
   -3.2190   22.6510  -31.3950 C   0  0  0  0  0  0  0  0  0  0  0  0
   -3.9546   22.2756  -32.1216 H   0  0  0  0  0  0  0  0  0  0  0  0
   -2.0030   21.9660  -31.2060 C   0  0  0  0  0  0  0  0  0  0  0  0
   -1.7923   21.0556  -31.7863 H   0  0  0  0  0  0  0  0  0  0  0  0
   -1.0590   22.4380  -30.2820 C   0  0  0  0  0  0  0  0  0  0  0  0
   -0.1022   21.9186  -30.1246 H   0  0  0  0  0  0  0  0  0  0  0  0
   -1.3830   23.5900  -29.5730 C   0  0  0  0  0  0  0  0  0  0  0  0
   -0.6810   24.2940  -28.6270 C   0  0  0  0  0  0  0  0  0  0  0  0
    0.4790   24.0370  -28.2080 O   0  0  0  0  0  0  0  0  0  0  0  0
   -0.5060   27.5690  -27.7470 C   0  0  0  0  0  0  0  0  0  0  0  0
   -0.2376   27.6825  -28.8077 H   0  0  0  0  0  0  0  0  0  0  0  0
   -0.2130   28.5950  -26.8440 C   0  0  0  0  0  0  0  0  0  0  0  0
    0.2916   29.5056  -27.1992 H   0  0  0  0  0  0  0  0  0  0  0  0
   -0.5550   28.4750  -25.4940 C   0  0  0  0  0  0  0  0  0  0  0  0
   -0.2390   29.5310  -24.6280 O   0  0  0  0  0  0  0  0  0  0  0  0
   -0.6020   30.8900  -24.8510 C   0  0  0  0  0  0  0  0  0  0  0  0
   -0.7374   31.3968  -23.8841 H   0  0  0  0  0  0  0  0  0  0  0  0
    0.1932   31.3932  -25.4206 H   0  0  0  0  0  0  0  0  0  0  0  0
   -1.5422   30.9297  -25.4206 H   0  0  0  0  0  0  0  0  0  0  0  0
  1  2  1  0
  2  3  2  0
  3  4  1  0
  3  5  1  0
  5  6  1  0
  6  7  1  0
  7  8  1  0
  8  9  1  0
  9 10  2  0
 10 11  1  0
 11 12  1  0
 11 13  1  0
 11 14  1  0
  9 15  1  0
 15 16  1  0
 15 17  2  0
 17 18  1  0
 17 19  1  0
 19 20  1  0
 19 21  2  0
 21 22  1  0
 22 23  2  0
  5 24  2  0
 24 25  1  0
 24 26  1  0
 26 27  1  0
 26 28  2  0
 28 29  1  0
 29 30  1  0
 30 31  1  0
 30 32  1  0
 30 33  1  0
 28  2  1  0
 22  6  1  0
 21  8  1  0
M  CHG  1   7  -1
M  END
>  <UniqueID>  (13) 
12

>  <SMILES>  (13) 
C/N=c1/cccc2c(=O)n(-c3ccc(OC)cc3)[n-]n12

>  <Energy>  (13) 
86.40726512701205

>  <Genealogy>  (13) 
CN=c1cccc2c(=O)n(-c3ccc(OC)cc3)[n-]n12 (protonated)
C/N=c1/cccc2c(=O)n(-c3ccc(OC)cc3)[n-]n12 (cis-trans isomerization)
C/N=c1/cccc2c(=O)n(-c3ccc(OC)cc3)[n-]n12 (3D coordinates assigned)
C/N=c1/cccc2c(=O)n(-c3ccc(OC)cc3)[n-]n12 (optimized conformer: 86.40726512701205 kcal/mol)

>  <smiles>  (13) 
CN=c1cccc2c(=O)n(-c3ccc(OC)cc3)[nH]n12

>  <score_type>  (13) 
oracle

>  <origin>  (13) 
adg

>  <m_score__min__energy>  (13) 
-7.29

>  <m_primary>  (13) 
energy

$$$$
13:0
     RDKit          3D

 47 50  0  0  0  0  0  0  0  0999 V2000
   -4.9440   14.6490  -33.1760 C   0  0  0  0  0  0  0  0  0  0  0  0
   -5.8780   14.9910  -34.1510 C   0  0  0  0  0  0  0  0  0  0  0  0
   -6.6610   16.1400  -34.0260 C   0  0  0  0  0  0  0  0  0  0  0  0
   -6.4890   16.9340  -32.9100 C   0  0  0  0  0  0  0  0  0  0  0  0
   -7.2550   18.1540  -32.6840 C   0  0  0  0  0  0  0  0  0  0  0  0
   -6.7910   19.3300  -33.2770 C   0  0  0  0  0  0  0  0  0  0  0  0
   -7.4840   20.5080  -33.0920 C   0  0  0  0  0  0  0  0  0  0  0  0
   -8.6440   20.5810  -32.3300 C   0  0  0  0  0  0  0  0  0  0  0  0
   -9.3280   21.8910  -32.1850 C   0  0  0  0  0  0  0  0  0  0  0  0
   -8.5370   22.8670  -31.4580 N   0  0  0  0  0  0  0  0  0  0  0  0
   -7.5060   23.3430  -32.3180 C   0  0  0  0  0  0  0  0  0  0  0  0
   -6.4740   24.1920  -31.6090 C   0  0  0  0  0  0  0  0  0  0  0  0
   -6.2640   23.8010  -30.1790 C   0  0  0  0  0  0  0  0  0  0  0  0
   -4.8630   23.9730  -29.7340 C   0  0  0  0  0  0  0  0  0  0  0  0
   -4.3700   23.6540  -28.4780 C   0  0  0  0  0  0  0  0  0  0  0  0
   -3.0510   23.9600  -28.4770 N   0  0  0  0  0  0  0  0  0  0  0  0
   -2.7380   24.4550  -29.7020 C   0  0  0  0  0  0  0  0  0  0  0  0
   -3.8470   24.4520  -30.4400 N   0  0  0  0  0  0  0  0  0  0  0  0
   -6.5810   22.3030  -30.0820 C   0  0  0  0  0  0  0  0  0  0  0  0
   -8.0910   22.2310  -30.2600 C   0  0  0  0  0  0  0  0  0  0  0  0
   -9.0820   19.4180  -31.7590 C   0  0  0  0  0  0  0  0  0  0  0  0
   -8.3900   18.2330  -31.9410 C   0  0  0  0  0  0  0  0  0  0  0  0
   -5.5550   16.5840  -31.9460 C   0  0  0  0  0  0  0  0  0  0  0  0
   -4.7800   15.4490  -32.0670 C   0  0  0  0  0  0  0  0  0  0  0  0
   -4.3368   13.7391  -33.2918 H   0  0  0  0  0  0  0  0  0  0  0  0
   -6.0006   14.3457  -35.0333 H   0  0  0  0  0  0  0  0  0  0  0  0
   -7.3975   16.4063  -34.7984 H   0  0  0  0  0  0  0  0  0  0  0  0
   -5.8770   19.3169  -33.8889 H   0  0  0  0  0  0  0  0  0  0  0  0
   -7.1040   21.4251  -33.5658 H   0  0  0  0  0  0  0  0  0  0  0  0
   -9.5396   22.2888  -33.1885 H   0  0  0  0  0  0  0  0  0  0  0  0
  -10.2489   21.7190  -31.6086 H   0  0  0  0  0  0  0  0  0  0  0  0
   -6.9968   22.4761  -32.7643 H   0  0  0  0  0  0  0  0  0  0  0  0
   -7.9849   23.9806  -33.0757 H   0  0  0  0  0  0  0  0  0  0  0  0
   -5.5165   24.0943  -32.1415 H   0  0  0  0  0  0  0  0  0  0  0  0
   -6.8471   25.2268  -31.6116 H   0  0  0  0  0  0  0  0  0  0  0  0
   -6.9024   24.4386  -29.5498 H   0  0  0  0  0  0  0  0  0  0  0  0
   -4.9430   23.2315  -27.6395 H   0  0  0  0  0  0  0  0  0  0  0  0
   -2.4160   23.8270  -27.6650 H   0  0  0  0  0  0  0  0  0  0  0  0
   -1.7447   24.7978  -30.0274 H   0  0  0  0  0  0  0  0  0  0  0  0
   -6.0669   21.7428  -30.8769 H   0  0  0  0  0  0  0  0  0  0  0  0
   -6.2463   21.8612  -29.1319 H   0  0  0  0  0  0  0  0  0  0  0  0
   -8.3914   21.1733  -30.2906 H   0  0  0  0  0  0  0  0  0  0  0  0
   -8.5504   22.7608  -29.4125 H   0  0  0  0  0  0  0  0  0  0  0  0
   -9.9961   19.4243  -31.1471 H   0  0  0  0  0  0  0  0  0  0  0  0
   -8.7743   17.3187  -31.4651 H   0  0  0  0  0  0  0  0  0  0  0  0
   -5.4291   17.2276  -31.0628 H   0  0  0  0  0  0  0  0  0  0  0  0
   -4.0445   15.1878  -31.2919 H   0  0  0  0  0  0  0  0  0  0  0  0
  1  2  2  0
  2  3  1  0
  3  4  2  0
  4  5  1  0
  5  6  2  0
  6  7  1  0
  7  8  2  0
  8  9  1  0
  9 10  1  0
 10 11  1  0
 11 12  1  0
 12 13  1  0
 13 14  1  0
 14 15  2  0
 15 16  1  0
 16 17  1  0
 17 18  2  0
 13 19  1  0
 19 20  1  0
  8 21  1  0
 21 22  2  0
  4 23  1  0
 23 24  2  0
 24  1  1  0
 22  5  1  0
 20 10  1  0
 18 14  1  0
  1 25  1  0
  2 26  1  0
  3 27  1  0
  6 28  1  0
  7 29  1  0
  9 30  1  0
  9 31  1  0
 11 32  1  0
 11 33  1  0
 12 34  1  0
 12 35  1  0
 13 36  1  0
 15 37  1  0
 16 38  1  0
 17 39  1  0
 19 40  1  0
 19 41  1  0
 20 42  1  0
 20 43  1  0
 21 44  1  0
 22 45  1  0
 23 46  1  0
 24 47  1  0
M  END
>  <smiles>  (14) 
c1ccc(-c2ccc(CN3CCC(c4c[nH]cn4)CC3)cc2)cc1

>  <score_type>  (14) 
oracle

>  <origin>  (14) 
adg

>  <m_score__min__energy>  (14) 
-8.9600000000000009

>  <m_primary>  (14) 
energy

$$$$
14:0
     RDKit          3D

 30 30  0  0  0  0  0  0  0  0999 V2000
   -2.1310   24.1740  -28.9640 C   0  0  0  0  0  0  0  0  0  0  0  0
   -3.5010   23.7030  -29.1720 N   0  0  0  0  0  0  0  0  0  0  0  0
   -4.2260   23.1280  -28.0360 C   0  0  0  0  0  0  0  0  0  0  0  0
   -4.2060   24.1150  -30.3590 C   0  0  0  0  0  0  0  0  0  0  0  0
   -4.0090   25.2730  -30.8160 O   0  0  0  0  0  0  0  0  0  0  0  0
   -5.1510   23.1960  -31.1140 C   0  0  2  0  0  0  0  0  0  0  0  0
   -5.4750   23.7210  -32.4410 N   0  0  0  0  0  0  0  0  0  0  0  0
   -6.4390   22.8750  -30.3260 C   0  0  0  0  0  0  0  0  0  0  0  0
   -7.3430   21.9320  -31.0810 C   0  0  0  0  0  0  0  0  0  0  0  0
   -6.8320   20.7360  -31.6130 C   0  0  0  0  0  0  0  0  0  0  0  0
   -7.6750   19.8470  -32.2890 C   0  0  0  0  0  0  0  0  0  0  0  0
   -9.0320   20.1440  -32.4350 C   0  0  0  0  0  0  0  0  0  0  0  0
   -9.8480   19.2810  -33.0880 F   0  0  0  0  0  0  0  0  0  0  0  0
   -9.5490   21.3320  -31.9080 C   0  0  0  0  0  0  0  0  0  0  0  0
   -8.7090   22.2230  -31.2340 C   0  0  0  0  0  0  0  0  0  0  0  0
   -1.9272   24.2441  -27.8853 H   0  0  0  0  0  0  0  0  0  0  0  0
   -1.4261   23.4666  -29.4252 H   0  0  0  0  0  0  0  0  0  0  0  0
   -2.0101   25.1653  -29.4252 H   0  0  0  0  0  0  0  0  0  0  0  0
   -3.7774   23.4838  -27.0967 H   0  0  0  0  0  0  0  0  0  0  0  0
   -5.2805   23.4380  -28.0792 H   0  0  0  0  0  0  0  0  0  0  0  0
   -4.1643   22.0306  -28.0792 H   0  0  0  0  0  0  0  0  0  0  0  0
   -4.6071   22.2482  -31.2403 H   0  0  0  0  0  0  0  0  0  0  0  0
   -5.1450   23.0460  -33.1690 H   0  0  0  0  0  0  0  0  0  0  0  0
   -4.9890   24.6300  -32.6030 H   0  0  0  0  0  0  0  0  0  0  0  0
   -6.1627   22.4111  -29.3676 H   0  0  0  0  0  0  0  0  0  0  0  0
   -6.9852   23.8169  -30.1692 H   0  0  0  0  0  0  0  0  0  0  0  0
   -5.7644   20.4975  -31.4975 H   0  0  0  0  0  0  0  0  0  0  0  0
   -7.2687   18.9136  -32.7057 H   0  0  0  0  0  0  0  0  0  0  0  0
  -10.6177   21.5653  -32.0241 H   0  0  0  0  0  0  0  0  0  0  0  0
   -9.1194   23.1565  -30.8214 H   0  0  0  0  0  0  0  0  0  0  0  0
  1  2  1  0
  2  3  1  0
  2  4  1  0
  4  5  2  0
  4  6  1  0
  6  7  1  0
  6  8  1  0
  8  9  1  0
  9 10  2  0
 10 11  1  0
 11 12  2  0
 12 13  1  0
 12 14  1  0
 14 15  2  0
 15  9  1  0
  1 16  1  0
  1 17  1  0
  1 18  1  0
  3 19  1  0
  3 20  1  0
  3 21  1  0
  6 22  1  6
  7 23  1  0
  7 24  1  0
  8 25  1  0
  8 26  1  0
 10 27  1  0
 11 28  1  0
 14 29  1  0
 15 30  1  0
M  END
>  <UniqueID>  (15) 
13

>  <SMILES>  (15) 
CN(C)C(=O)[C@H](N)Cc1ccc(F)cc1

>  <Energy>  (15) 
27.190607923548953

>  <Genealogy>  (15) 
CN(C)C(=O)[C@H](N)Cc1ccc(F)cc1 (chirality)
CN(C)C(=O)[C@H](N)Cc1ccc(F)cc1 (3D coordinates assigned)
CN(C)C(=O)[C@H](N)Cc1ccc(F)cc1 (optimized conformer: 27.190607923548953 kcal/mol)

>  <smiles>  (15) 
CN(C)C(=O)C(N)Cc1ccc(F)cc1

>  <score_type>  (15) 
oracle

>  <origin>  (15) 
adg

>  <m_score__min__energy>  (15) 
-6.3399999999999999

>  <m_primary>  (15) 
energy

$$$$
15:0
     RDKit          3D

 66 70  0  0  0  0  0  0  0  0999 V2000
   -5.0740   25.1610  -30.2600 S   0  0  0  0  0  0  0  0  0  0  0  0
   -3.6590   24.5230  -29.7400 C   0  0  0  0  0  0  0  0  0  0  0  0
   -2.6030   25.2920  -29.3420 N   0  0  0  0  0  0  0  0  0  0  0  0
   -1.6870   24.3660  -28.9780 C   0  0  0  0  0  0  0  0  0  0  0  0
   -0.4140   24.5480  -28.4400 C   0  0  0  0  0  0  0  0  0  0  0  0
    0.3160   23.3870  -28.0840 C   0  0  0  0  0  0  0  0  0  0  0  0
   -0.2430   22.0940  -28.2720 C   0  0  0  0  0  0  0  0  0  0  0  0
   -1.5240   21.9620  -28.8460 C   0  0  0  0  0  0  0  0  0  0  0  0
   -2.1920   23.1250  -29.1570 C   0  0  0  0  0  0  0  0  0  0  0  0
   -3.4190   23.1910  -29.6460 N   0  0  0  0  0  0  0  0  0  0  0  0
   -4.2670   22.0110  -29.8090 C   0  0  0  0  0  0  0  0  0  0  0  0
   -3.3700   20.7700  -30.1730 C   0  0  1  0  0  0  0  0  0  0  0  0
   -2.8330   20.9010  -31.5670 N   0  0  0  0  0  0  0  0  0  0  0  0
   -3.5340   21.9560  -32.3530 C   0  0  0  0  0  0  0  0  0  0  0  0
   -4.5910   21.2960  -33.2450 C   0  0  0  0  0  0  0  0  0  0  0  0
   -6.0440   21.4050  -32.7170 C   0  0  0  0  0  0  0  0  0  0  0  0
   -6.8290   20.1400  -32.6230 N   0  0  0  0  0  0  0  0  0  0  0  0
   -6.0070   18.9940  -32.1590 C   0  0  0  0  0  0  0  0  0  0  0  0
   -6.8840   17.8320  -31.6550 C   0  0  0  0  0  0  0  0  0  0  0  0
   -8.1220   17.8210  -32.3340 O   0  0  0  0  0  0  0  0  0  0  0  0
   -8.9040   18.9440  -31.9530 C   0  0  0  0  0  0  0  0  0  0  0  0
   -8.0890   20.2570  -31.8620 C   0  0  0  0  0  0  0  0  0  0  0  0
   -2.7760   19.6320  -32.3440 C   0  0  0  0  0  0  0  0  0  0  0  0
   -1.3560   19.0590  -32.3350 C   0  0  0  0  0  0  0  0  0  0  0  0
   -0.7850   19.1090  -33.7020 N   0  0  0  0  0  0  0  0  0  0  0  0
    0.6930   19.1970  -33.6980 C   0  0  0  0  0  0  0  0  0  0  0  0
    1.1860   20.6330  -33.4260 C   0  0  0  0  0  0  0  0  0  0  0  0
    0.6050   21.5520  -34.3280 O   0  0  0  0  0  0  0  0  0  0  0  0
   -0.7980   21.5510  -34.1650 C   0  0  0  0  0  0  0  0  0  0  0  0
   -1.3750   20.1770  -34.5320 C   0  0  0  0  0  0  0  0  0  0  0  0
   -2.2470   20.6530  -29.0680 C   0  0  0  0  0  0  0  0  0  0  0  0
    0.0075   25.5540  -28.2974 H   0  0  0  0  0  0  0  0  0  0  0  0
    1.3252   23.4874  -27.6580 H   0  0  0  0  0  0  0  0  0  0  0  0
    0.3217   21.1994  -27.9708 H   0  0  0  0  0  0  0  0  0  0  0  0
   -4.8046   21.8127  -28.8700 H   0  0  0  0  0  0  0  0  0  0  0  0
   -4.9936   22.1888  -30.6155 H   0  0  0  0  0  0  0  0  0  0  0  0
   -3.9512   19.8361  -30.1743 H   0  0  0  0  0  0  0  0  0  0  0  0
   -4.0211   22.6644  -31.6668 H   0  0  0  0  0  0  0  0  0  0  0  0
   -2.8080   22.4980  -32.9768 H   0  0  0  0  0  0  0  0  0  0  0  0
   -4.5497   21.7729  -34.2354 H   0  0  0  0  0  0  0  0  0  0  0  0
   -4.3496   20.2231  -33.2707 H   0  0  0  0  0  0  0  0  0  0  0  0
   -5.9984   21.8425  -31.7088 H   0  0  0  0  0  0  0  0  0  0  0  0
   -6.5737   22.0140  -33.4644 H   0  0  0  0  0  0  0  0  0  0  0  0
   -7.1080   19.9120  -33.6090 H   0  0  0  0  0  0  0  0  0  0  0  0
   -5.3883   18.6370  -32.9955 H   0  0  0  0  0  0  0  0  0  0  0  0
   -5.3793   19.3377  -31.3236 H   0  0  0  0  0  0  0  0  0  0  0  0
   -6.3632   16.8800  -31.8349 H   0  0  0  0  0  0  0  0  0  0  0  0
   -7.0679   17.9638  -30.5785 H   0  0  0  0  0  0  0  0  0  0  0  0
   -9.7036   19.0805  -32.6959 H   0  0  0  0  0  0  0  0  0  0  0  0
   -9.3015   18.7377  -30.9483 H   0  0  0  0  0  0  0  0  0  0  0  0
   -8.6862   21.0827  -32.2762 H   0  0  0  0  0  0  0  0  0  0  0  0
   -7.8491   20.4532  -30.8066 H   0  0  0  0  0  0  0  0  0  0  0  0
   -3.4638   18.9011  -31.8939 H   0  0  0  0  0  0  0  0  0  0  0  0
   -3.0688   19.8390  -33.3839 H   0  0  0  0  0  0  0  0  0  0  0  0
   -0.7272   19.6523  -31.6548 H   0  0  0  0  0  0  0  0  0  0  0  0
   -1.3885   18.0139  -31.9933 H   0  0  0  0  0  0  0  0  0  0  0  0
    1.0862   18.5323  -32.9147 H   0  0  0  0  0  0  0  0  0  0  0  0
    1.0538   18.8968  -34.6929 H   0  0  0  0  0  0  0  0  0  0  0  0
    0.9136   20.9174  -32.3989 H   0  0  0  0  0  0  0  0  0  0  0  0
    2.2777   20.6575  -33.5587 H   0  0  0  0  0  0  0  0  0  0  0  0
   -1.0419   21.7790  -33.1169 H   0  0  0  0  0  0  0  0  0  0  0  0
   -1.2361   22.3120  -34.8275 H   0  0  0  0  0  0  0  0  0  0  0  0
   -2.4637   20.1922  -34.3758 H   0  0  0  0  0  0  0  0  0  0  0  0
   -1.1361   19.9701  -35.5856 H   0  0  0  0  0  0  0  0  0  0  0  0
   -2.7127   20.3409  -28.1216 H   0  0  0  0  0  0  0  0  0  0  0  0
   -1.5088   19.9146  -29.4143 H   0  0  0  0  0  0  0  0  0  0  0  0
  1  2  2  0
  2  3  1  0
  3  4  1  0
  4  5  2  0
  5  6  1  0
  6  7  2  0
  7  8  1  0
  8  9  2  0
  9 10  1  0
 10 11  1  0
 11 12  1  0
 12 13  1  0
 13 14  1  0
 14 15  1  0
 15 16  1  0
 16 17  1  0
 17 18  1  0
 18 19  1  0
 19 20  1  0
 20 21  1  0
 21 22  1  0
 13 23  1  0
 23 24  1  0
 24 25  1  0
 25 26  1  0
 26 27  1  0
 27 28  1  0
 28 29  1  0
 29 30  1  0
 12 31  1  0
 10  2  1  0
 22 17  1  0
 30 25  1  0
  9  4  1  0
 31  8  1  0
  5 32  1  0
  6 33  1  0
  7 34  1  0
 11 35  1  0
 11 36  1  0
 12 37  1  6
 14 38  1  0
 14 39  1  0
 15 40  1  0
 15 41  1  0
 16 42  1  0
 16 43  1  0
 17 44  1  0
 18 45  1  0
 18 46  1  0
 19 47  1  0
 19 48  1  0
 21 49  1  0
 21 50  1  0
 22 51  1  0
 22 52  1  0
 23 53  1  0
 23 54  1  0
 24 55  1  0
 24 56  1  0
 26 57  1  0
 26 58  1  0
 27 59  1  0
 27 60  1  0
 29 61  1  0
 29 62  1  0
 30 63  1  0
 30 64  1  0
 31 65  1  0
 31 66  1  0
M  CHG  2   3  -1  17   1
M  END
>  <UniqueID>  (16) 
14

>  <SMILES>  (16) 
S=c1[n-]c2cccc3c2n1C[C@@H](N(CCC[NH+]1CCOCC1)CCN1CCOCC1)C3

>  <Energy>  (16) 
142.87947148436115

>  <Genealogy>  (16) 
S=c1[n-]c2cccc3c2n1CC(N(CCC[NH+]1CCOCC1)CCN1CCOCC1)C3 (protonated)
S=c1[n-]c2cccc3c2n1C[C@@H](N(CCC[NH+]1CCOCC1)CCN1CCOCC1)C3 (chirality)
S=c1[n-]c2cccc3c2n1C[C@@H](N(CCC[NH+]1CCOCC1)CCN1CCOCC1)C3 (3D coordinates assigned)
S=c1[n-]c2cccc3c2n1C[C@@H](N(CCC[NH+]1CCOCC1)CCN1CCOCC1)C3 (nonaromatic ring conformer: 142.87947148436115 kcal/mol)

>  <smiles>  (16) 
S=c1[nH]c2cccc3c2n1CC(N(CCCN1CCOCC1)CCN1CCOCC1)C3

>  <score_type>  (16) 
oracle

>  <origin>  (16) 
adg

>  <m_score__min__energy>  (16) 
-9.3499999999999996

>  <m_primary>  (16) 
energy

$$$$
16:0
     RDKit          3D

 37 38  0  0  0  0  0  0  0  0999 V2000
   -1.5210   25.5160  -26.4440 C   0  0  0  0  0  0  0  0  0  0  0  0
   -0.7140   26.0700  -27.6140 C   0  0  0  0  0  0  0  0  0  0  0  0
   -0.4920   25.0360  -28.6190 N   0  0  0  0  0  0  0  0  0  0  0  0
   -1.5500   24.3610  -29.3100 C   0  0  0  0  0  0  0  0  0  0  0  0
   -1.3260   23.2670  -29.8940 O   0  0  0  0  0  0  0  0  0  0  0  0
   -2.8700   24.9200  -29.2840 N   0  0  0  0  0  0  0  0  0  0  0  0
   -3.9640   24.4480  -30.0900 C   0  0  0  0  0  0  0  0  0  0  0  0
   -5.0170   25.2990  -30.4690 C   0  0  0  0  0  0  0  0  0  0  0  0
   -6.0820   24.8080  -31.2300 C   0  0  0  0  0  0  0  0  0  0  0  0
   -6.1190   23.4600  -31.6150 C   0  0  0  0  0  0  0  0  0  0  0  0
   -7.2810   22.9330  -32.4160 C   0  0  0  0  0  0  0  0  0  0  0  0
   -7.3230   21.4300  -32.3550 C   0  0  0  0  0  0  0  0  0  0  0  0
   -6.4410   20.7190  -33.1110 N   0  0  0  0  0  0  0  0  0  0  0  0
   -6.4420   19.3600  -33.1270 C   0  0  0  0  0  0  0  0  0  0  0  0
   -5.4640   18.6210  -33.9830 C   0  0  0  0  0  0  0  0  0  0  0  0
   -7.3870   18.6720  -32.3620 C   0  0  0  0  0  0  0  0  0  0  0  0
   -8.2780   19.3710  -31.6130 N   0  0  0  0  0  0  0  0  0  0  0  0
   -8.2750   20.7290  -31.5880 C   0  0  0  0  0  0  0  0  0  0  0  0
   -9.4680   21.5510  -30.5940 Cl  0  0  0  0  0  0  0  0  0  0  0  0
   -5.0800   22.6050  -31.2160 C   0  0  0  0  0  0  0  0  0  0  0  0
   -4.0160   23.0940  -30.4530 C   0  0  0  0  0  0  0  0  0  0  0  0
   -1.0592   25.8330  -25.4973 H   0  0  0  0  0  0  0  0  0  0  0  0
   -2.5512   25.8982  -26.4955 H   0  0  0  0  0  0  0  0  0  0  0  0
   -1.5345   24.4173  -26.4955 H   0  0  0  0  0  0  0  0  0  0  0  0
   -1.2653   26.9054  -28.0703 H   0  0  0  0  0  0  0  0  0  0  0  0
    0.2607   26.4169  -27.2403 H   0  0  0  0  0  0  0  0  0  0  0  0
   -3.0640   25.6630  -28.5760 H   0  0  0  0  0  0  0  0  0  0  0  0
   -5.0028   26.3562  -30.1653 H   0  0  0  0  0  0  0  0  0  0  0  0
   -6.8968   25.4838  -31.5289 H   0  0  0  0  0  0  0  0  0  0  0  0
   -8.2175   23.3385  -32.0055 H   0  0  0  0  0  0  0  0  0  0  0  0
   -7.1613   23.2439  -33.4643 H   0  0  0  0  0  0  0  0  0  0  0  0
   -4.7504   18.0818  -33.3426 H   0  0  0  0  0  0  0  0  0  0  0  0
   -6.0025   17.9022  -34.6181 H   0  0  0  0  0  0  0  0  0  0  0  0
   -4.9196   19.3353  -34.6181 H   0  0  0  0  0  0  0  0  0  0  0  0
   -7.4091   17.5722  -32.3664 H   0  0  0  0  0  0  0  0  0  0  0  0
   -5.1032   21.5440  -31.5054 H   0  0  0  0  0  0  0  0  0  0  0  0
   -3.2136   22.4122  -30.1348 H   0  0  0  0  0  0  0  0  0  0  0  0
  1  2  1  0
  2  3  1  0
  3  4  1  0
  4  5  2  0
  4  6  1  0
  6  7  1  0
  7  8  2  0
  8  9  1  0
  9 10  2  0
 10 11  1  0
 11 12  1  0
 12 13  2  0
 13 14  1  0
 14 15  1  0
 14 16  2  0
 16 17  1  0
 17 18  2  0
 18 19  1  0
 10 20  1  0
 20 21  2  0
 21  7  1  0
 18 12  1  0
  1 22  1  0
  1 23  1  0
  1 24  1  0
  2 25  1  0
  2 26  1  0
  6 27  1  0
  8 28  1  0
  9 29  1  0
 11 30  1  0
 11 31  1  0
 15 32  1  0
 15 33  1  0
 15 34  1  0
 16 35  1  0
 20 36  1  0
 21 37  1  0
M  CHG  1   3  -1
M  END
>  <UniqueID>  (17) 
15

>  <SMILES>  (17) 
CC[N-]C(=O)Nc1ccc(Cc2nc(C)cnc2Cl)cc1

>  <Energy>  (17) 
35.54137242673338

>  <Genealogy>  (17) 
CC[N-]C(=O)Nc1ccc(Cc2nc(C)cnc2Cl)cc1 (protonated)
CC[N-]C(=O)Nc1ccc(Cc2nc(C)cnc2Cl)cc1 (3D coordinates assigned)
CC[N-]C(=O)Nc1ccc(Cc2nc(C)cnc2Cl)cc1 (optimized conformer: 35.54137242673338 kcal/mol)

>  <smiles>  (17) 
CCNC(=O)Nc1ccc(Cc2nc(C)cnc2Cl)cc1

>  <score_type>  (17) 
oracle

>  <origin>  (17) 
adg

>  <m_score__min__energy>  (17) 
-9.4299999999999997

>  <m_primary>  (17) 
energy

$$$$
17:0
     RDKit          3D

 45 49  0  0  0  0  0  0  0  0999 V2000
    1.5370   22.7610  -35.7180 C   0  0  0  0  0  0  0  0  0  0  0  0
    1.1810   22.0950  -34.5110 O   0  0  0  0  0  0  0  0  0  0  0  0
    0.1090   21.1970  -34.3880 C   0  0  0  0  0  0  0  0  0  0  0  0
   -1.0370   21.4900  -33.6250 C   0  0  0  0  0  0  0  0  0  0  0  0
   -2.0780   20.5620  -33.5330 C   0  0  0  0  0  0  0  0  0  0  0  0
   -1.9880   19.3240  -34.1930 C   0  0  0  0  0  0  0  0  0  0  0  0
   -3.0920   18.3410  -34.1120 C   0  0  0  0  0  0  0  0  0  0  0  0
   -2.8630   17.0220  -34.4050 N   0  0  0  0  0  0  0  0  0  0  0  0
   -3.8650   16.0870  -34.3500 C   0  0  0  0  0  0  0  0  0  0  0  0
   -3.6140   14.7420  -34.6600 C   0  0  0  0  0  0  0  0  0  0  0  0
   -4.6490   13.8030  -34.5960 C   0  0  0  0  0  0  0  0  0  0  0  0
   -5.9380   14.1980  -34.2230 C   0  0  0  0  0  0  0  0  0  0  0  0
   -6.2030   15.5350  -33.9110 C   0  0  0  0  0  0  0  0  0  0  0  0
   -5.1710   16.4840  -33.9740 C   0  0  0  0  0  0  0  0  0  0  0  0
   -5.3720   17.7950  -33.6790 N   0  0  0  0  0  0  0  0  0  0  0  0
   -6.5010   18.3540  -33.2770 N   0  0  0  0  0  0  0  0  0  0  0  0
   -6.2400   19.6660  -33.0630 C   0  0  0  0  0  0  0  0  0  0  0  0
   -7.2600   20.6350  -32.5940 C   0  0  0  0  0  0  0  0  0  0  0  0
   -6.8920   21.9670  -32.3270 C   0  0  0  0  0  0  0  0  0  0  0  0
   -7.8420   22.8910  -31.8830 C   0  0  0  0  0  0  0  0  0  0  0  0
   -9.1690   22.4980  -31.7000 C   0  0  0  0  0  0  0  0  0  0  0  0
   -9.5480   21.1790  -31.9590 C   0  0  0  0  0  0  0  0  0  0  0  0
   -8.6010   20.2510  -32.4040 C   0  0  0  0  0  0  0  0  0  0  0  0
   -4.8980   19.9310  -33.3380 C   0  0  0  0  0  0  0  0  0  0  0  0
   -4.3930   18.7080  -33.7340 C   0  0  0  0  0  0  0  0  0  0  0  0
   -0.8510   19.0410  -34.9630 C   0  0  0  0  0  0  0  0  0  0  0  0
    0.1900   19.9690  -35.0560 C   0  0  0  0  0  0  0  0  0  0  0  0
    2.0431   23.7079  -35.4788 H   0  0  0  0  0  0  0  0  0  0  0  0
    2.2135   22.1214  -36.3039 H   0  0  0  0  0  0  0  0  0  0  0  0
    0.6294   22.9682  -36.3039 H   0  0  0  0  0  0  0  0  0  0  0  0
   -1.1135   22.4531  -33.0991 H   0  0  0  0  0  0  0  0  0  0  0  0
   -2.9733   20.8018  -32.9405 H   0  0  0  0  0  0  0  0  0  0  0  0
   -1.9020   16.7240  -34.6940 H   0  0  0  0  0  0  0  0  0  0  0  0
   -2.6023   14.4254  -34.9537 H   0  0  0  0  0  0  0  0  0  0  0  0
   -4.4483   12.7494  -34.8401 H   0  0  0  0  0  0  0  0  0  0  0  0
   -6.7465   13.4537  -34.1749 H   0  0  0  0  0  0  0  0  0  0  0  0
   -7.2175   15.8421  -33.6170 H   0  0  0  0  0  0  0  0  0  0  0  0
   -5.8481   22.2834  -32.4689 H   0  0  0  0  0  0  0  0  0  0  0  0
   -7.5436   23.9296  -31.6774 H   0  0  0  0  0  0  0  0  0  0  0  0
   -9.9157   23.2269  -31.3520 H   0  0  0  0  0  0  0  0  0  0  0  0
  -10.5933   20.8694  -31.8127 H   0  0  0  0  0  0  0  0  0  0  0  0
   -8.9061   19.2138  -32.6069 H   0  0  0  0  0  0  0  0  0  0  0  0
   -4.3661   20.8905  -33.2580 H   0  0  0  0  0  0  0  0  0  0  0  0
   -0.7778   18.0823  -35.4974 H   0  0  0  0  0  0  0  0  0  0  0  0
    1.0796   19.7329  -35.6584 H   0  0  0  0  0  0  0  0  0  0  0  0
  1  2  1  0
  2  3  1  0
  3  4  2  0
  4  5  1  0
  5  6  2  0
  6  7  1  0
  7  8  2  0
  8  9  1  0
  9 10  2  0
 10 11  1  0
 11 12  2  0
 12 13  1  0
 13 14  2  0
 14 15  1  0
 15 16  1  0
 16 17  2  0
 17 18  1  0
 18 19  2  0
 19 20  1  0
 20 21  2  0
 21 22  1  0
 22 23  2  0
 17 24  1  0
 24 25  2  0
  6 26  1  0
 26 27  2  0
 27  3  1  0
 25  7  1  0
 14  9  1  0
 25 15  1  0
 23 18  1  0
  1 28  1  0
  1 29  1  0
  1 30  1  0
  4 31  1  0
  5 32  1  0
  8 33  1  0
 10 34  1  0
 11 35  1  0
 12 36  1  0
 13 37  1  0
 19 38  1  0
 20 39  1  0
 21 40  1  0
 22 41  1  0
 23 42  1  0
 24 43  1  0
 26 44  1  0
 27 45  1  0
M  CHG  1   8   1
M  END
>  <UniqueID>  (18) 
16

>  <SMILES>  (18) 
COc1ccc(-c2[nH+]c3ccccc3n3nc(-c4ccccc4)cc23)cc1

>  <Energy>  (18) 
97.7502534369426

>  <Genealogy>  (18) 
COc1ccc(-c2[nH+]c3ccccc3n3nc(-c4ccccc4)cc23)cc1 (protonated)
COc1ccc(-c2[nH+]c3ccccc3n3nc(-c4ccccc4)cc23)cc1 (3D coordinates assigned)
COc1ccc(-c2[nH+]c3ccccc3n3nc(-c4ccccc4)cc23)cc1 (optimized conformer: 97.7502534369426 kcal/mol)

>  <smiles>  (18) 
COc1ccc(-c2nc3ccccc3n3nc(-c4ccccc4)cc23)cc1

>  <score_type>  (18) 
oracle

>  <origin>  (18) 
adg

>  <m_score__min__energy>  (18) 
-8.0500000000000007

>  <m_primary>  (18) 
energy

$$$$
18:0
     RDKit          3D

 46 47  0  0  0  0  0  0  0  0999 V2000
   -6.5100   25.6730  -29.3930 C   0  0  0  0  0  0  0  0  0  0  0  0
   -6.0600   24.3340  -29.9770 C   0  0  0  0  0  0  0  0  0  0  0  0
   -4.7670   24.4410  -30.8100 C   0  0  0  0  0  0  0  0  0  0  0  0
   -4.4570   23.2350  -31.5970 N   0  0  0  0  0  0  0  0  0  0  0  0
   -3.1070   22.7160  -31.3370 C   0  0  0  0  0  0  0  0  0  0  0  0
   -3.1280   21.1790  -31.2780 C   0  0  0  0  0  0  0  0  0  0  0  0
   -2.4080   20.4830  -32.4620 C   0  0  1  0  0  0  0  0  0  0  0  0
   -1.0660   21.1560  -32.8020 C   0  0  0  0  0  0  0  0  0  0  0  0
   -2.1470   19.1680  -32.1070 F   0  0  0  0  0  0  0  0  0  0  0  0
   -3.3290   20.4460  -33.7030 C   0  0  0  0  0  0  0  0  0  0  0  0
   -4.5990   21.1370  -33.4620 N   0  0  0  0  0  0  0  0  0  0  0  0
   -5.7900   20.4500  -33.0410 C   0  0  0  0  0  0  0  0  0  0  0  0
   -5.8060   19.0450  -33.0150 C   0  0  0  0  0  0  0  0  0  0  0  0
   -6.9580   18.3520  -32.6410 C   0  0  0  0  0  0  0  0  0  0  0  0
   -8.1140   19.0460  -32.2910 C   0  0  0  0  0  0  0  0  0  0  0  0
   -8.1260   20.4470  -32.3130 C   0  0  0  0  0  0  0  0  0  0  0  0
   -9.2800   21.1540  -31.9540 C   0  0  0  0  0  0  0  0  0  0  0  0
   -9.2720   22.5470  -31.9640 C   0  0  0  0  0  0  0  0  0  0  0  0
   -8.1110   23.2250  -32.3320 C   0  0  0  0  0  0  0  0  0  0  0  0
   -6.9920   22.5350  -32.6820 N   0  0  0  0  0  0  0  0  0  0  0  0
   -6.9630   21.1650  -32.6920 C   0  0  0  0  0  0  0  0  0  0  0  0
   -6.4917   25.6186  -28.2945 H   0  0  0  0  0  0  0  0  0  0  0  0
   -5.8297   26.4681  -29.7321 H   0  0  0  0  0  0  0  0  0  0  0  0
   -7.5324   25.8959  -29.7321 H   0  0  0  0  0  0  0  0  0  0  0  0
   -5.8855   23.6317  -29.1485 H   0  0  0  0  0  0  0  0  0  0  0  0
   -6.8565   23.9861  -30.6512 H   0  0  0  0  0  0  0  0  0  0  0  0
   -4.8719   25.2884  -31.5034 H   0  0  0  0  0  0  0  0  0  0  0  0
   -3.9404   24.5754  -30.0968 H   0  0  0  0  0  0  0  0  0  0  0  0
   -5.1660   22.4890  -31.4080 H   0  0  0  0  0  0  0  0  0  0  0  0
   -2.4325   23.0390  -32.1437 H   0  0  0  0  0  0  0  0  0  0  0  0
   -2.7535   23.1063  -30.3712 H   0  0  0  0  0  0  0  0  0  0  0  0
   -2.6388   20.8638  -30.3445 H   0  0  0  0  0  0  0  0  0  0  0  0
   -4.1844   20.8770  -31.3315 H   0  0  0  0  0  0  0  0  0  0  0  0
   -0.5416   21.4190  -31.8715 H   0  0  0  0  0  0  0  0  0  0  0  0
   -0.4461   20.4621  -33.3887 H   0  0  0  0  0  0  0  0  0  0  0  0
   -1.2513   22.0678  -33.3887 H   0  0  0  0  0  0  0  0  0  0  0  0
   -2.8130   20.9332  -34.5435 H   0  0  0  0  0  0  0  0  0  0  0  0
   -3.5517   19.3932  -33.9310 H   0  0  0  0  0  0  0  0  0  0  0  0
   -4.6120   22.1790  -33.5320 H   0  0  0  0  0  0  0  0  0  0  0  0
   -4.9005   18.4854  -33.2925 H   0  0  0  0  0  0  0  0  0  0  0  0
   -6.9532   17.2522  -32.6225 H   0  0  0  0  0  0  0  0  0  0  0  0
   -9.0186   18.4935  -31.9970 H   0  0  0  0  0  0  0  0  0  0  0  0
  -10.1914   20.6104  -31.6645 H   0  0  0  0  0  0  0  0  0  0  0  0
  -10.1756   23.1080  -31.6834 H   0  0  0  0  0  0  0  0  0  0  0  0
   -8.0995   24.3249  -32.3395 H   0  0  0  0  0  0  0  0  0  0  0  0
   -6.1490   23.0960  -32.9310 H   0  0  0  0  0  0  0  0  0  0  0  0
  1  2  1  0
  2  3  1  0
  3  4  1  0
  4  5  1  0
  5  6  1  0
  6  7  1  0
  7  8  1  0
  7  9  1  1
  7 10  1  0
 10 11  1  0
 11 12  1  0
 12 13  2  0
 13 14  1  0
 14 15  2  0
 15 16  1  0
 16 17  2  0
 17 18  1  0
 18 19  2  0
 19 20  1  0
 20 21  2  0
 21 12  1  0
 21 16  1  0
  1 22  1  0
  1 23  1  0
  1 24  1  0
  2 25  1  0
  2 26  1  0
  3 27  1  0
  3 28  1  0
  4 29  1  0
  5 30  1  0
  5 31  1  0
  6 32  1  0
  6 33  1  0
  8 34  1  0
  8 35  1  0
  8 36  1  0
 10 37  1  0
 10 38  1  0
 11 39  1  0
 13 40  1  0
 14 41  1  0
 15 42  1  0
 17 43  1  0
 18 44  1  0
 19 45  1  0
 20 46  1  0
M  CHG  1  20   1
M  END
>  <UniqueID>  (19) 
17

>  <SMILES>  (19) 
CCCNCC[C@@](C)(F)CNc1cccc2ccc[nH+]c12

>  <Energy>  (19) 
45.436453513062865

>  <Genealogy>  (19) 
CCCNCCC(C)(F)CNc1cccc2ccc[nH+]c12 (protonated)
CCCNCC[C@@](C)(F)CNc1cccc2ccc[nH+]c12 (chirality)
CCCNCC[C@@](C)(F)CNc1cccc2ccc[nH+]c12 (3D coordinates assigned)
CCCNCC[C@@](C)(F)CNc1cccc2ccc[nH+]c12 (optimized conformer: 45.436453513062865 kcal/mol)

>  <smiles>  (19) 
CCCNCCC(C)(F)CNc1cccc2cccnc12

>  <score_type>  (19) 
oracle

>  <origin>  (19) 
adg

>  <m_score__min__energy>  (19) 
-7.2999999999999998

>  <m_primary>  (19) 
energy

$$$$
19:0
     RDKit          3D

 33 35  0  0  0  0  0  0  0  0999 V2000
   -6.4590   17.6670  -33.4300 C   0  0  0  0  0  0  0  0  0  0  0  0
   -7.6270   17.7530  -32.6780 C   0  0  0  0  0  0  0  0  0  0  0  0
   -7.7380   19.0850  -32.3380 C   0  0  0  0  0  0  0  0  0  0  0  0
   -8.7040   19.7520  -31.5910 C   0  0  0  0  0  0  0  0  0  0  0  0
   -8.5470   21.1370  -31.4030 C   0  0  0  0  0  0  0  0  0  0  0  0
   -7.4400   21.8220  -31.9650 C   0  0  0  0  0  0  0  0  0  0  0  0
   -7.2780   23.3010  -31.7330 C   0  0  0  0  0  0  0  0  0  0  0  0
   -6.8790   23.5770  -30.3330 N   0  0  0  0  0  0  0  0  0  0  0  0
   -5.7190   22.7710  -29.8950 C   0  0  0  0  0  0  0  0  0  0  0  0
   -4.4060   23.1960  -30.5890 C   0  0  0  0  0  0  0  0  0  0  0  0
   -4.4690   24.5690  -31.1160 N   0  0  0  0  0  0  0  0  0  0  0  0
   -5.1850   25.4500  -30.1930 C   0  0  0  0  0  0  0  0  0  0  0  0
   -6.6620   25.0230  -30.0800 C   0  0  0  0  0  0  0  0  0  0  0  0
   -6.4780   21.1080  -32.7160 C   0  0  0  0  0  0  0  0  0  0  0  0
   -6.6640   19.7370  -32.8810 C   0  0  0  0  0  0  0  0  0  0  0  0
   -5.8750   18.8810  -33.5500 N   0  0  0  0  0  0  0  0  0  0  0  0
   -6.0645   16.7380  -33.8673 H   0  0  0  0  0  0  0  0  0  0  0  0
   -8.3132   16.9354  -32.4123 H   0  0  0  0  0  0  0  0  0  0  0  0
   -9.5620   19.2139  -31.1617 H   0  0  0  0  0  0  0  0  0  0  0  0
   -9.2904   21.6943  -30.8141 H   0  0  0  0  0  0  0  0  0  0  0  0
   -6.5037   23.6891  -32.4111 H   0  0  0  0  0  0  0  0  0  0  0  0
   -8.2418   23.7944  -31.9271 H   0  0  0  0  0  0  0  0  0  0  0  0
   -5.5976   22.8894  -28.8081 H   0  0  0  0  0  0  0  0  0  0  0  0
   -5.9175   21.7243  -30.1687 H   0  0  0  0  0  0  0  0  0  0  0  0
   -3.5850   23.1349  -29.8595 H   0  0  0  0  0  0  0  0  0  0  0  0
   -4.2410   22.5176  -31.4391 H   0  0  0  0  0  0  0  0  0  0  0  0
   -3.4900   24.9250  -31.2180 H   0  0  0  0  0  0  0  0  0  0  0  0
   -4.7146   25.3943  -29.2002 H   0  0  0  0  0  0  0  0  0  0  0  0
   -5.1395   26.4804  -30.5753 H   0  0  0  0  0  0  0  0  0  0  0  0
   -7.0156   25.2561  -29.0648 H   0  0  0  0  0  0  0  0  0  0  0  0
   -7.2192   25.5746  -30.8516 H   0  0  0  0  0  0  0  0  0  0  0  0
   -5.6093   21.6192  -33.1565 H   0  0  0  0  0  0  0  0  0  0  0  0
   -4.9900   19.1030  -34.0600 H   0  0  0  0  0  0  0  0  0  0  0  0
  1  2  2  0
  2  3  1  0
  3  4  2  0
  4  5  1  0
  5  6  2  0
  6  7  1  0
  7  8  1  0
  8  9  1  0
  9 10  1  0
 10 11  1  0
 11 12  1  0
 12 13  1  0
  6 14  1  0
 14 15  2  0
 15 16  1  0
 16  1  1  0
 15  3  1  0
 13  8  1  0
  1 17  1  0
  2 18  1  0
  4 19  1  0
  5 20  1  0
  7 21  1  0
  7 22  1  0
  9 23  1  0
  9 24  1  0
 10 25  1  0
 10 26  1  0
 11 27  1  0
 12 28  1  0
 12 29  1  0
 13 30  1  0
 13 31  1  0
 14 32  1  0
 16 33  1  0
M  END
>  <UniqueID>  (20) 
18

>  <SMILES>  (20) 
c1cc2ccc(CN3CCNCC3)cc2[nH]1

>  <Energy>  (20) 
76.15695404911479

>  <Genealogy>  (20) 
c1cc2ccc(CN3CCNCC3)cc2[nH]1 (3D coordinates assigned)
c1cc2ccc(CN3CCNCC3)cc2[nH]1 (nonaromatic ring conformer: 76.15695404911479 kcal/mol)

>  <smiles>  (20) 
c1cc2ccc(CN3CCNCC3)cc2[nH]1

>  <score_type>  (20) 
oracle

>  <origin>  (20) 
adg

>  <m_score__min__energy>  (20) 
-7.5899999999999999

>  <m_primary>  (20) 
energy

$$$$
20:0
     RDKit          3D

 44 46  0  0  0  0  0  0  0  0999 V2000
   -6.1690   25.7300  -29.3770 C   0  0  0  0  0  0  0  0  0  0  0  0
   -5.6700   24.3960  -29.3980 O   0  0  0  0  0  0  0  0  0  0  0  0
   -6.0740   23.4080  -30.3110 C   0  0  0  0  0  0  0  0  0  0  0  0
   -7.3730   22.8670  -30.2980 C   0  0  0  0  0  0  0  0  0  0  0  0
   -7.7490   21.8850  -31.2250 C   0  0  0  0  0  0  0  0  0  0  0  0
   -6.8070   21.4130  -32.1570 C   0  0  0  0  0  0  0  0  0  0  0  0
   -5.5180   21.9640  -32.1810 C   0  0  0  0  0  0  0  0  0  0  0  0
   -5.1440   22.9580  -31.2580 C   0  0  0  0  0  0  0  0  0  0  0  0
   -3.8590   23.5210  -31.2490 O   0  0  0  0  0  0  0  0  0  0  0  0
   -2.7820   23.0670  -30.4360 C   0  0  0  0  0  0  0  0  0  0  0  0
   -7.1990   20.3940  -33.2030 C   0  0  0  0  0  0  0  0  0  0  0  0
   -8.3470   19.5640  -32.7870 N   0  0  0  0  0  0  0  0  0  0  0  0
   -7.9550   18.5430  -31.7890 C   0  0  0  0  0  0  0  0  0  0  0  0
   -6.9000   17.6220  -32.3450 C   0  0  0  0  0  0  0  0  0  0  0  0
   -5.9720   17.0010  -31.4930 C   0  0  0  0  0  0  0  0  0  0  0  0
   -5.0090   16.1320  -32.0140 C   0  0  0  0  0  0  0  0  0  0  0  0
   -4.9630   15.8710  -33.3910 C   0  0  0  0  0  0  0  0  0  0  0  0
   -3.9790   14.9810  -33.9220 N   0  0  0  0  0  0  0  0  0  0  0  0
   -5.8900   16.4880  -34.2430 C   0  0  0  0  0  0  0  0  0  0  0  0
   -6.8540   17.3560  -33.7220 C   0  0  0  0  0  0  0  0  0  0  0  0
   -9.4760   20.4170  -32.3580 C   0  0  0  0  0  0  0  0  0  0  0  0
   -9.1330   21.2920  -31.1420 C   0  0  0  0  0  0  0  0  0  0  0  0
   -6.2921   26.0591  -28.3346 H   0  0  0  0  0  0  0  0  0  0  0  0
   -5.4589   26.3952  -29.8901 H   0  0  0  0  0  0  0  0  0  0  0  0
   -7.1413   25.7659  -29.8901 H   0  0  0  0  0  0  0  0  0  0  0  0
   -8.1013   23.2185  -29.5523 H   0  0  0  0  0  0  0  0  0  0  0  0
   -4.7912   21.6155  -32.9295 H   0  0  0  0  0  0  0  0  0  0  0  0
   -3.0503   23.1801  -29.3752 H   0  0  0  0  0  0  0  0  0  0  0  0
   -2.5806   22.0074  -30.6523 H   0  0  0  0  0  0  0  0  0  0  0  0
   -1.8829   23.6627  -30.6523 H   0  0  0  0  0  0  0  0  0  0  0  0
   -7.4655   20.9247  -34.1290 H   0  0  0  0  0  0  0  0  0  0  0  0
   -6.3402   19.7230  -33.3518 H   0  0  0  0  0  0  0  0  0  0  0  0
   -7.5579   19.0471  -30.8955 H   0  0  0  0  0  0  0  0  0  0  0  0
   -8.8420   17.9454  -31.5319 H   0  0  0  0  0  0  0  0  0  0  0  0
   -6.0031   17.1993  -30.4115 H   0  0  0  0  0  0  0  0  0  0  0  0
   -4.2841   15.6508  -31.3409 H   0  0  0  0  0  0  0  0  0  0  0  0
   -3.5110   15.1830  -34.8330 H   0  0  0  0  0  0  0  0  0  0  0  0
   -3.7100   14.1120  -33.4080 H   0  0  0  0  0  0  0  0  0  0  0  0
   -5.8586   16.2885  -35.3243 H   0  0  0  0  0  0  0  0  0  0  0  0
   -7.5809   17.8334  -34.3956 H   0  0  0  0  0  0  0  0  0  0  0  0
   -9.7585   21.0730  -33.1946 H   0  0  0  0  0  0  0  0  0  0  0  0
  -10.3012   19.7513  -32.0648 H   0  0  0  0  0  0  0  0  0  0  0  0
   -9.8641   22.1116  -31.0805 H   0  0  0  0  0  0  0  0  0  0  0  0
   -9.1668   20.6496  -30.2497 H   0  0  0  0  0  0  0  0  0  0  0  0
  1  2  1  0
  2  3  1  0
  3  4  2  0
  4  5  1  0
  5  6  2  0
  6  7  1  0
  7  8  2  0
  8  9  1  0
  9 10  1  0
  6 11  1  0
 11 12  1  0
 12 13  1  0
 13 14  1  0
 14 15  2  0
 15 16  1  0
 16 17  2  0
 17 18  1  0
 17 19  1  0
 19 20  2  0
 12 21  1  0
 21 22  1  0
  8  3  1  0
 20 14  1  0
 22  5  1  0
  1 23  1  0
  1 24  1  0
  1 25  1  0
  4 26  1  0
  7 27  1  0
 10 28  1  0
 10 29  1  0
 10 30  1  0
 11 31  1  0
 11 32  1  0
 13 33  1  0
 13 34  1  0
 15 35  1  0
 16 36  1  0
 18 37  1  0
 18 38  1  0
 19 39  1  0
 20 40  1  0
 21 41  1  0
 21 42  1  0
 22 43  1  0
 22 44  1  0
M  END
>  <UniqueID>  (21) 
19

>  <SMILES>  (21) 
COc1cc2c(cc1OC)CN(Cc1ccc(N)cc1)CC2

>  <Energy>  (21) 
49.25812733459673

>  <Genealogy>  (21) 
COc1cc2c(cc1OC)CN(Cc1ccc(N)cc1)CC2 (3D coordinates assigned)
COc1cc2c(cc1OC)CN(Cc1ccc(N)cc1)CC2 (nonaromatic ring conformer: 49.25812733459673 kcal/mol)

>  <smiles>  (21) 
COc1cc2c(cc1OC)CN(Cc1ccc(N)cc1)CC2

>  <score_type>  (21) 
oracle

>  <origin>  (21) 
adg

>  <m_score__min__energy>  (21) 
-7.0899999999999999

>  <m_primary>  (21) 
energy

$$$$
21:0
     RDKit          3D

 38 40  0  0  0  0  0  0  0  0999 V2000
   -3.3595   24.1193  -25.9908 H   0  0  0  0  0  0  0  0  0  0  0  0
   -3.4480   24.0350  -27.0840 C   0  0  0  0  0  0  0  0  0  0  0  0
   -2.4350   23.4160  -27.8200 C   0  0  0  0  0  0  0  0  0  0  0  0
   -1.5472   23.0205  -27.3049 H   0  0  0  0  0  0  0  0  0  0  0  0
   -2.5450   23.2970  -29.2100 C   0  0  0  0  0  0  0  0  0  0  0  0
   -1.2230   22.5620  -30.1070 Cl  0  0  0  0  0  0  0  0  0  0  0  0
   -3.6880   23.7950  -29.8680 C   0  0  0  0  0  0  0  0  0  0  0  0
   -3.8150   23.6940  -31.2940 N   0  0  0  0  0  0  0  0  0  0  0  0
   -4.1580   22.6090  -31.9200 C   0  0  0  0  0  0  0  0  0  0  0  0
   -5.4380   22.1650  -31.9340 N   0  0  0  0  0  0  0  0  0  0  0  0
   -5.5310   21.0080  -32.6380 C   0  0  0  0  0  0  0  0  0  0  0  0
   -6.6970   20.2770  -32.8580 C   0  0  0  0  0  0  0  0  0  0  0  0
   -7.9610   20.7100  -32.3340 N   0  0  0  0  0  0  0  0  0  0  0  0
   -9.1120   19.8020  -32.4160 C   0  0  0  0  0  0  0  0  0  0  0  0
   -9.2715   19.5152  -33.4659 H   0  0  0  0  0  0  0  0  0  0  0  0
   -9.9993   20.3196  -32.0225 H   0  0  0  0  0  0  0  0  0  0  0  0
   -8.8690   18.5470  -31.5860 C   0  0  0  0  0  0  0  0  0  0  0  0
   -8.9179   18.7996  -30.5165 H   0  0  0  0  0  0  0  0  0  0  0  0
   -9.6386   17.7971  -31.8212 H   0  0  0  0  0  0  0  0  0  0  0  0
   -7.8751   18.1386  -31.8212 H   0  0  0  0  0  0  0  0  0  0  0  0
   -8.1350   22.1230  -31.9730 C   0  0  0  0  0  0  0  0  0  0  0  0
   -7.3368   22.7167  -32.4425 H   0  0  0  0  0  0  0  0  0  0  0  0
   -9.1201   22.4602  -32.3278 H   0  0  0  0  0  0  0  0  0  0  0  0
   -8.0700   22.3040  -30.4610 C   0  0  0  0  0  0  0  0  0  0  0  0
   -8.4021   21.3793  -29.9664 H   0  0  0  0  0  0  0  0  0  0  0  0
   -7.0352   22.5281  -30.1627 H   0  0  0  0  0  0  0  0  0  0  0  0
   -8.7258   23.1352  -30.1627 H   0  0  0  0  0  0  0  0  0  0  0  0
   -6.6160   19.1280  -33.5900 N   0  0  0  0  0  0  0  0  0  0  0  0
   -5.4270   18.6900  -34.1020 C   0  0  0  0  0  0  0  0  0  0  0  0
   -5.3935   17.7594  -34.6875 H   0  0  0  0  0  0  0  0  0  0  0  0
   -4.2800   19.4010  -33.8910 N   0  0  0  0  0  0  0  0  0  0  0  0
   -3.3710   19.0680  -34.2800 H   0  0  0  0  0  0  0  0  0  0  0  0
   -4.3470   20.5430  -33.1660 C   0  0  0  0  0  0  0  0  0  0  0  0
   -3.0920   21.5830  -32.7680 S   0  0  0  0  0  0  0  0  0  0  0  0
   -4.6940   24.4360  -29.1230 C   0  0  0  0  0  0  0  0  0  0  0  0
   -6.1220   25.0880  -29.9150 Cl  0  0  0  0  0  0  0  0  0  0  0  0
   -4.5730   24.5470  -27.7340 C   0  0  0  0  0  0  0  0  0  0  0  0
   -5.3662   25.0390  -27.1519 H   0  0  0  0  0  0  0  0  0  0  0  0
  1  2  1  0
  2  3  2  0
  3  4  1  0
  3  5  1  0
  5  6  1  0
  5  7  2  0
  7  8  1  0
  8  9  2  0
  9 10  1  0
 10 11  1  0
 11 12  2  0
 12 13  1  0
 13 14  1  0
 14 15  1  0
 14 16  1  0
 14 17  1  0
 17 18  1  0
 17 19  1  0
 17 20  1  0
 13 21  1  0
 21 22  1  0
 21 23  1  0
 21 24  1  0
 24 25  1  0
 24 26  1  0
 24 27  1  0
 12 28  1  0
 28 29  2  0
 29 30  1  0
 29 31  1  0
 31 32  1  0
 31 33  2  0
 33 34  1  0
  7 35  1  0
 35 36  1  0
 35 37  2  0
 37 38  1  0
 37  2  1  0
 34  9  1  0
 33 11  1  0
M  CHG  2  10  -1  31   1
M  END
>  <UniqueID>  (22) 
20

>  <SMILES>  (22) 
CCN(CC)c1nc[nH+]c2s/c(=N\c3c(Cl)cccc3Cl)[n-]c12

>  <Energy>  (22) 
84.86489394291713

>  <Genealogy>  (22) 
CCN(CC)c1nc[nH+]c2sc(=Nc3c(Cl)cccc3Cl)[n-]c12 (protonated)
CCN(CC)c1nc[nH+]c2s/c(=N\c3c(Cl)cccc3Cl)[n-]c12 (cis-trans isomerization)
CCN(CC)c1nc[nH+]c2s/c(=N\c3c(Cl)cccc3Cl)[n-]c12 (3D coordinates assigned)
CCN(CC)c1nc[nH+]c2s/c(=N\c3c(Cl)cccc3Cl)[n-]c12 (optimized conformer: 84.86489394291713 kcal/mol)

>  <smiles>  (22) 
CCN(CC)c1ncnc2sc(=Nc3c(Cl)cccc3Cl)[nH]c12

>  <score_type>  (22) 
oracle

>  <origin>  (22) 
adg

>  <m_score__min__energy>  (22) 
-8.0199999999999996

>  <m_primary>  (22) 
energy

$$$$
22:0
     RDKit          3D

 31 33  0  0  0  0  0  0  0  0999 V2000
   -2.2850   17.3420  -34.6040 C   0  0  0  0  0  0  0  0  0  0  0  0
   -3.4300   18.1880  -34.5890 O   0  0  0  0  0  0  0  0  0  0  0  0
   -4.6830   17.8320  -34.0650 C   0  0  0  0  0  0  0  0  0  0  0  0
   -5.2420   16.5590  -34.3050 C   0  0  0  0  0  0  0  0  0  0  0  0
   -6.5110   16.2400  -33.8190 C   0  0  0  0  0  0  0  0  0  0  0  0
   -7.2400   17.1800  -33.0940 C   0  0  0  0  0  0  0  0  0  0  0  0
   -6.6980   18.4410  -32.8410 C   0  0  0  0  0  0  0  0  0  0  0  0
   -5.4130   18.7750  -33.3050 C   0  0  0  0  0  0  0  0  0  0  0  0
   -4.8710   20.1190  -32.9990 C   0  0  0  0  0  0  0  0  0  0  0  0
   -5.4600   20.9800  -32.1390 N   0  0  0  0  0  0  0  0  0  0  0  0
   -4.5980   22.0200  -32.1610 C   0  0  0  0  0  0  0  0  0  0  0  0
   -4.7800   23.2490  -31.3840 C   0  0  0  0  0  0  0  0  0  0  0  0
   -5.9380   23.6400  -30.7460 C   0  0  0  0  0  0  0  0  0  0  0  0
   -5.5900   24.8440  -30.1720 C   0  0  0  0  0  0  0  0  0  0  0  0
   -6.4780   25.7170  -29.3500 C   0  0  0  0  0  0  0  0  0  0  0  0
   -4.3390   25.1130  -30.4630 O   0  0  0  0  0  0  0  0  0  0  0  0
   -3.8170   24.1710  -31.1940 N   0  0  0  0  0  0  0  0  0  0  0  0
   -3.5800   21.7930  -32.9540 O   0  0  0  0  0  0  0  0  0  0  0  0
   -3.7200   20.6200  -33.4880 N   0  0  0  0  0  0  0  0  0  0  0  0
   -1.9813   17.1176  -33.5708 H   0  0  0  0  0  0  0  0  0  0  0  0
   -2.5282   16.4050  -35.1264 H   0  0  0  0  0  0  0  0  0  0  0  0
   -1.4608   17.8497  -35.1264 H   0  0  0  0  0  0  0  0  0  0  0  0
   -4.6737   15.8125  -34.8793 H   0  0  0  0  0  0  0  0  0  0  0  0
   -6.9366   15.2436  -34.0090 H   0  0  0  0  0  0  0  0  0  0  0  0
   -8.2436   16.9282  -32.7206 H   0  0  0  0  0  0  0  0  0  0  0  0
   -7.2815   19.1807  -32.2732 H   0  0  0  0  0  0  0  0  0  0  0  0
   -6.9052   23.1177  -30.7050 H   0  0  0  0  0  0  0  0  0  0  0  0
   -6.2888   25.5310  -28.2825 H   0  0  0  0  0  0  0  0  0  0  0  0
   -6.2703   26.7723  -29.5808 H   0  0  0  0  0  0  0  0  0  0  0  0
   -7.5296   25.4913  -29.5808 H   0  0  0  0  0  0  0  0  0  0  0  0
   -3.0310   20.1680  -34.1280 H   0  0  0  0  0  0  0  0  0  0  0  0
  1  2  1  0
  2  3  1  0
  3  4  2  0
  4  5  1  0
  5  6  2  0
  6  7  1  0
  7  8  2  0
  8  9  1  0
  9 10  1  0
 10 11  2  0
 11 12  1  0
 12 13  1  0
 13 14  2  0
 14 15  1  0
 14 16  1  0
 16 17  1  0
 11 18  1  0
 18 19  1  0
  8  3  1  0
 19  9  2  0
 17 12  2  0
  1 20  1  0
  1 21  1  0
  1 22  1  0
  4 23  1  0
  5 24  1  0
  6 25  1  0
  7 26  1  0
 13 27  1  0
 15 28  1  0
 15 29  1  0
 15 30  1  0
 19 31  1  0
M  CHG  1  19   1
M  END
>  <UniqueID>  (23) 
21

>  <SMILES>  (23) 
COc1ccccc1-c1nc(-c2cc(C)on2)o[nH+]1

>  <Energy>  (23) 
98.67700201940168

>  <Genealogy>  (23) 
COc1ccccc1-c1nc(-c2cc(C)on2)o[nH+]1 (protonated)
COc1ccccc1-c1nc(-c2cc(C)on2)o[nH+]1 (3D coordinates assigned)
COc1ccccc1-c1nc(-c2cc(C)on2)o[nH+]1 (optimized conformer: 98.67700201940168 kcal/mol)

>  <smiles>  (23) 
COc1ccccc1-c1noc(-c2cc(C)on2)n1

>  <score_type>  (23) 
oracle

>  <origin>  (23) 
adg

>  <m_score__min__energy>  (23) 
-6.9299999999999997

>  <m_primary>  (23) 
energy

$$$$
23:0
     RDKit          3D

 46 49  0  0  0  0  0  0  0  0999 V2000
   -0.2530   26.9100  -23.6650 C   0  0  0  0  0  0  0  0  0  0  0  0
   -0.1380   27.0870  -25.0730 O   0  0  0  0  0  0  0  0  0  0  0  0
   -0.8770   26.3680  -26.0240 C   0  0  0  0  0  0  0  0  0  0  0  0
   -0.5030   26.3010  -27.3780 C   0  0  0  0  0  0  0  0  0  0  0  0
   -1.2730   25.5700  -28.2880 C   0  0  0  0  0  0  0  0  0  0  0  0
   -2.4280   24.8880  -27.8650 C   0  0  0  0  0  0  0  0  0  0  0  0
   -3.2120   24.1400  -28.8180 N   0  0  0  0  0  0  0  0  0  0  0  0
   -4.5450   24.2170  -29.0170 C   0  0  0  0  0  0  0  0  0  0  0  0
   -4.8940   23.3150  -30.0020 C   0  0  0  0  0  0  0  0  0  0  0  0
   -6.2650   23.0040  -30.4390 C   0  0  0  0  0  0  0  0  0  0  0  0
   -7.1610   22.7990  -29.5770 O   0  0  0  0  0  0  0  0  0  0  0  0
   -6.5880   22.9640  -31.8360 N   0  0  0  0  0  0  0  0  0  0  0  0
   -7.8890   22.5080  -32.3210 C   0  0  0  0  0  0  0  0  0  0  0  0
   -7.9360   21.0050  -32.3450 C   0  0  0  0  0  0  0  0  0  0  0  0
   -6.7990   20.2670  -32.7040 C   0  0  0  0  0  0  0  0  0  0  0  0
   -6.8380   18.8720  -32.6860 C   0  0  0  0  0  0  0  0  0  0  0  0
   -8.0150   18.2250  -32.3030 C   0  0  0  0  0  0  0  0  0  0  0  0
   -9.1070   18.9530  -31.9510 N   0  0  0  0  0  0  0  0  0  0  0  0
   -9.0950   20.3130  -31.9600 C   0  0  0  0  0  0  0  0  0  0  0  0
   -3.6970   22.7140  -30.3740 C   0  0  0  0  0  0  0  0  0  0  0  0
   -3.4630   21.7370  -31.4530 C   0  0  0  0  0  0  0  0  0  0  0  0
   -2.7660   20.5420  -31.3110 C   0  0  0  0  0  0  0  0  0  0  0  0
   -2.6110   19.8420  -32.5140 C   0  0  0  0  0  0  0  0  0  0  0  0
   -3.1680   20.4860  -33.6110 C   0  0  0  0  0  0  0  0  0  0  0  0
   -3.8470   21.9290  -33.0820 S   0  0  0  0  0  0  0  0  0  0  0  0
   -2.6970   23.2320  -29.6340 N   0  0  0  0  0  0  0  0  0  0  0  0
   -2.8000   24.9640  -26.5100 C   0  0  0  0  0  0  0  0  0  0  0  0
   -2.0290   25.6960  -25.6030 C   0  0  0  0  0  0  0  0  0  0  0  0
    0.2762   27.7245  -23.1486 H   0  0  0  0  0  0  0  0  0  0  0  0
   -1.3152   26.9237  -23.3793 H   0  0  0  0  0  0  0  0  0  0  0  0
    0.1911   25.9451  -23.3793 H   0  0  0  0  0  0  0  0  0  0  0  0
    0.3998   26.8263  -27.7230 H   0  0  0  0  0  0  0  0  0  0  0  0
   -0.9724   25.5279  -29.3453 H   0  0  0  0  0  0  0  0  0  0  0  0
   -5.2367   24.8859  -28.4840 H   0  0  0  0  0  0  0  0  0  0  0  0
   -5.8530   23.2010  -32.5400 H   0  0  0  0  0  0  0  0  0  0  0  0
   -8.6782   22.8857  -31.6543 H   0  0  0  0  0  0  0  0  0  0  0  0
   -8.0456   22.8886  -33.3411 H   0  0  0  0  0  0  0  0  0  0  0  0
   -5.8763   20.7876  -32.9998 H   0  0  0  0  0  0  0  0  0  0  0  0
   -5.9505   18.2878  -32.9707 H   0  0  0  0  0  0  0  0  0  0  0  0
   -8.0580   17.1260  -32.2863 H   0  0  0  0  0  0  0  0  0  0  0  0
   -9.9954   20.8718  -31.6650 H   0  0  0  0  0  0  0  0  0  0  0  0
   -2.3748   20.1819  -30.3481 H   0  0  0  0  0  0  0  0  0  0  0  0
   -2.0961   18.8725  -32.5835 H   0  0  0  0  0  0  0  0  0  0  0  0
   -3.1652   20.1156  -34.6468 H   0  0  0  0  0  0  0  0  0  0  0  0
   -3.7044   24.4434  -26.1621 H   0  0  0  0  0  0  0  0  0  0  0  0
   -2.3315   25.7442  -24.5465 H   0  0  0  0  0  0  0  0  0  0  0  0
  1  2  1  0
  2  3  1  0
  3  4  2  0
  4  5  1  0
  5  6  2  0
  6  7  1  0
  7  8  1  0
  8  9  2  0
  9 10  1  0
 10 11  2  0
 10 12  1  0
 12 13  1  0
 13 14  1  0
 14 15  2  0
 15 16  1  0
 16 17  2  0
 17 18  1  0
 18 19  2  0
  9 20  1  0
 20 21  1  0
 21 22  2  0
 22 23  1  0
 23 24  2  0
 24 25  1  0
 20 26  2  0
  6 27  1  0
 27 28  2  0
 28  3  1  0
 26  7  1  0
 19 14  1  0
 25 21  1  0
  1 29  1  0
  1 30  1  0
  1 31  1  0
  4 32  1  0
  5 33  1  0
  8 34  1  0
 12 35  1  0
 13 36  1  0
 13 37  1  0
 15 38  1  0
 16 39  1  0
 17 40  1  0
 19 41  1  0
 22 42  1  0
 23 43  1  0
 24 44  1  0
 27 45  1  0
 28 46  1  0
M  END
>  <UniqueID>  (24) 
22

>  <SMILES>  (24) 
COc1ccc(-n2cc(C(=O)NCc3cccnc3)c(-c3cccs3)n2)cc1

>  <Energy>  (24) 
110.83174953341812

>  <Genealogy>  (24) 
COc1ccc(-n2cc(C(=O)NCc3cccnc3)c(-c3cccs3)n2)cc1 (3D coordinates assigned)
COc1ccc(-n2cc(C(=O)NCc3cccnc3)c(-c3cccs3)n2)cc1 (optimized conformer: 110.83174953341812 kcal/mol)

>  <smiles>  (24) 
COc1ccc(-n2cc(C(=O)NCc3cccnc3)c(-c3cccs3)n2)cc1

>  <score_type>  (24) 
oracle

>  <origin>  (24) 
adg

>  <m_score__min__energy>  (24) 
-8.0399999999999991

>  <m_primary>  (24) 
energy

$$$$
24:0
     RDKit          3D

 36 38  0  0  1  0  0  0  0  0999 V2000
   -2.0710   25.3000  -28.9850 N   0  0  0  0  0  0  0  0  0  0  0  0
   -1.4430   24.4720  -27.9500 C   0  0  0  0  0  0  0  0  0  0  0  0
   -1.0630   23.1870  -28.6350 C   0  0  0  0  0  0  0  0  0  0  0  0
   -1.3620   23.1670  -30.0490 N   0  0  0  0  0  0  0  0  0  0  0  0
   -2.3600   22.5730  -30.5770 C   0  0  0  0  0  0  0  0  0  0  0  0
   -2.2750   21.2630  -30.8340 N   0  0  0  0  0  0  0  0  0  0  0  0
   -3.3460   20.6680  -31.3910 C   0  0  0  0  0  0  0  0  0  0  0  0
   -4.4810   21.3220  -31.6970 N   0  0  0  0  0  0  0  0  0  0  0  0
   -4.5940   22.6270  -31.4530 C   0  0  0  0  0  0  0  0  0  0  0  0
   -3.5150   23.2800  -30.8790 C   0  0  0  0  0  0  0  0  0  0  0  0
   -3.8820   24.5700  -30.7400 N   0  0  0  0  0  0  0  0  0  0  0  0
   -5.1130   24.7450  -31.1900 N   0  0  0  0  0  0  0  0  0  0  0  0
   -5.5630   23.5620  -31.6310 N   0  0  0  0  0  0  0  0  0  0  0  0
   -6.8560   23.3350  -32.1950 C   0  0  0  0  0  0  0  0  0  0  0  0
   -7.8750   22.8000  -31.2160 C   0  0  1  0  0  0  0  0  0  0  0  0
   -9.1260   22.3410  -31.9760 C   0  0  0  0  0  0  0  0  0  0  0  0
   -8.8740   20.8950  -32.2790 C   0  0  0  0  0  0  0  0  0  0  0  0
   -7.5430   20.6280  -31.6510 C   0  0  0  0  0  0  0  0  0  0  0  0
   -7.4300   21.5970  -30.6690 O   0  0  0  0  0  0  0  0  0  0  0  0
   -3.1100   25.2980  -28.8370 H   0  0  0  0  0  0  0  0  0  0  0  0
   -1.8460   24.8350  -29.8940 H   0  0  0  0  0  0  0  0  0  0  0  0
   -0.5493   24.9718  -27.5483 H   0  0  0  0  0  0  0  0  0  0  0  0
   -2.1215   24.2961  -27.1023 H   0  0  0  0  0  0  0  0  0  0  0  0
    0.0187   23.0331  -28.5074 H   0  0  0  0  0  0  0  0  0  0  0  0
   -1.6605   22.3886  -28.1707 H   0  0  0  0  0  0  0  0  0  0  0  0
   -1.4030   20.7340  -30.6050 H   0  0  0  0  0  0  0  0  0  0  0  0
   -3.2904   19.5909  -31.6073 H   0  0  0  0  0  0  0  0  0  0  0  0
   -7.2300   24.2891  -32.5949 H   0  0  0  0  0  0  0  0  0  0  0  0
   -6.7308   22.5662  -32.9718 H   0  0  0  0  0  0  0  0  0  0  0  0
   -8.0503   23.5953  -30.4766 H   0  0  0  0  0  0  0  0  0  0  0  0
  -10.0241   22.4562  -31.3514 H   0  0  0  0  0  0  0  0  0  0  0  0
   -9.3026   22.9336  -32.8858 H   0  0  0  0  0  0  0  0  0  0  0  0
   -9.6529   20.2592  -31.8328 H   0  0  0  0  0  0  0  0  0  0  0  0
   -8.8883   20.6765  -33.3570 H   0  0  0  0  0  0  0  0  0  0  0  0
   -7.5148   19.6206  -31.2101 H   0  0  0  0  0  0  0  0  0  0  0  0
   -6.7187   20.6672  -32.3783 H   0  0  0  0  0  0  0  0  0  0  0  0
  1  2  1  0
  2  3  1  0
  3  4  1  0
  4  5  2  0
  5  6  1  0
  6  7  1  0
  7  8  2  0
  8  9  1  0
  9 10  2  0
 10 11  1  0
 11 12  2  0
 12 13  1  0
 13 14  1  0
 14 15  1  0
 15 16  1  0
 16 17  1  0
 17 18  1  0
 18 19  1  0
 10  5  1  0
 19 15  1  0
 13  9  1  0
  1 20  1  0
  1 21  1  0
  2 22  1  0
  2 23  1  0
  3 24  1  0
  3 25  1  0
  6 26  1  0
  7 27  1  0
 14 28  1  0
 14 29  1  0
 15 30  1  1
 16 31  1  0
 16 32  1  0
 17 33  1  0
 17 34  1  0
 18 35  1  0
 18 36  1  0
M  END
>  <smiles>  (25) 
NCCN=c1[nH]cnc2c1nnn2CC1CCCO1

>  <score_type>  (25) 
oracle

>  <origin>  (25) 
adg

>  <m_score__min__energy>  (25) 
-6.9100000000000001

>  <m_primary>  (25) 
energy

$$$$
25:0
     RDKit          3D

 25 25  0  0  0  0  0  0  0  0999 V2000
   -2.5880   24.7860  -28.7880 C   0  0  0  0  0  0  0  0  0  0  0  0
   -3.4110   24.8880  -29.9450 O   0  0  0  0  0  0  0  0  0  0  0  0
   -3.9060   23.7920  -30.6700 C   0  0  0  0  0  0  0  0  0  0  0  0
   -3.1440   22.6210  -30.8590 C   0  0  0  0  0  0  0  0  0  0  0  0
   -3.6580   21.5530  -31.5970 C   0  0  0  0  0  0  0  0  0  0  0  0
   -4.9330   21.6380  -32.1600 C   0  0  0  0  0  0  0  0  0  0  0  0
   -5.5690   20.2970  -33.0970 Cl  0  0  0  0  0  0  0  0  0  0  0  0
   -5.7000   22.7910  -31.9800 C   0  0  0  0  0  0  0  0  0  0  0  0
   -5.2020   23.8680  -31.2260 C   0  0  0  0  0  0  0  0  0  0  0  0
   -6.0370   25.1150  -31.0730 C   0  0  0  0  0  0  0  0  0  0  0  0
   -6.8360   25.0720  -29.7640 C   0  0  0  0  0  0  0  0  0  0  0  0
   -6.0820   25.6830  -28.6700 N   0  0  0  0  0  0  0  0  0  0  0  0
   -3.2125   24.8634  -27.8858 H   0  0  0  0  0  0  0  0  0  0  0  0
   -2.0682   23.8166  -28.7921 H   0  0  0  0  0  0  0  0  0  0  0  0
   -1.8473   25.5992  -28.7921 H   0  0  0  0  0  0  0  0  0  0  0  0
   -2.1372   22.5482  -30.4219 H   0  0  0  0  0  0  0  0  0  0  0  0
   -3.0569   20.6422  -31.7353 H   0  0  0  0  0  0  0  0  0  0  0  0
   -6.7009   22.8570  -32.4314 H   0  0  0  0  0  0  0  0  0  0  0  0
   -5.3758   25.9941  -31.0644 H   0  0  0  0  0  0  0  0  0  0  0  0
   -6.7406   25.1766  -31.9163 H   0  0  0  0  0  0  0  0  0  0  0  0
   -7.7799   25.6200  -29.9005 H   0  0  0  0  0  0  0  0  0  0  0  0
   -7.0345   24.0206  -29.5087 H   0  0  0  0  0  0  0  0  0  0  0  0
   -6.5050   26.6030  -28.4110 H   0  0  0  0  0  0  0  0  0  0  0  0
   -5.0950   25.8400  -28.9810 H   0  0  0  0  0  0  0  0  0  0  0  0
   -6.0770   25.0480  -27.8390 H   0  0  0  0  0  0  0  0  0  0  0  0
  1  2  1  0
  2  3  1  0
  3  4  2  0
  4  5  1  0
  5  6  2  0
  6  7  1  0
  6  8  1  0
  8  9  2  0
  9 10  1  0
 10 11  1  0
 11 12  1  0
  9  3  1  0
  1 13  1  0
  1 14  1  0
  1 15  1  0
  4 16  1  0
  5 17  1  0
  8 18  1  0
 10 19  1  0
 10 20  1  0
 11 21  1  0
 11 22  1  0
 12 23  1  0
 12 24  1  0
 12 25  1  0
M  CHG  1  12   1
M  END
>  <UniqueID>  (26) 
23

>  <SMILES>  (26) 
COc1ccc(Cl)cc1CC[NH3+]

>  <Energy>  (26) 
18.849446648138745

>  <Genealogy>  (26) 
COc1ccc(Cl)cc1CC[NH3+] (protonated)
COc1ccc(Cl)cc1CC[NH3+] (3D coordinates assigned)
COc1ccc(Cl)cc1CC[NH3+] (optimized conformer: 18.849446648138745 kcal/mol)

>  <smiles>  (26) 
COc1ccc(Cl)cc1CCN

>  <score_type>  (26) 
oracle

>  <origin>  (26) 
adg

>  <m_score__min__energy>  (26) 
-4.7400000000000002

>  <m_primary>  (26) 
energy

$$$$
26:0
     RDKit          3D

 32 34  0  0  0  0  0  0  0  0999 V2000
   -9.1730   19.3560  -32.4590 C   0  0  0  0  0  0  0  0  0  0  0  0
   -7.9510   20.1810  -32.2020 C   0  0  0  0  0  0  0  0  0  0  0  0
   -8.0140   21.4130  -31.6560 N   0  0  0  0  0  0  0  0  0  0  0  0
   -6.7310   21.8330  -31.6170 C   0  0  0  0  0  0  0  0  0  0  0  0
   -6.3170   23.1560  -31.0880 C   0  0  0  0  0  0  0  0  0  0  0  0
   -7.2290   23.9970  -30.4190 C   0  0  0  0  0  0  0  0  0  0  0  0
   -6.8170   25.2410  -29.9290 C   0  0  0  0  0  0  0  0  0  0  0  0
   -5.4960   25.6600  -30.0990 C   0  0  0  0  0  0  0  0  0  0  0  0
   -4.5830   24.8360  -30.7600 C   0  0  0  0  0  0  0  0  0  0  0  0
   -4.9890   23.5910  -31.2510 C   0  0  0  0  0  0  0  0  0  0  0  0
   -5.9120   20.8480  -32.1380 C   0  0  0  0  0  0  0  0  0  0  0  0
   -6.6820   19.8050  -32.4930 N   0  0  0  0  0  0  0  0  0  0  0  0
   -6.2190   18.5750  -33.0760 C   0  0  0  0  0  0  0  0  0  0  0  0
   -6.2010   17.3850  -32.3270 C   0  0  0  0  0  0  0  0  0  0  0  0
   -5.7350   16.1980  -32.8990 C   0  0  0  0  0  0  0  0  0  0  0  0
   -5.2770   16.1880  -34.2190 C   0  0  0  0  0  0  0  0  0  0  0  0
   -4.8240   15.0360  -34.7720 F   0  0  0  0  0  0  0  0  0  0  0  0
   -5.2770   17.3690  -34.9670 C   0  0  0  0  0  0  0  0  0  0  0  0
   -5.7400   18.5590  -34.3980 C   0  0  0  0  0  0  0  0  0  0  0  0
   -9.6200   19.0542  -31.5003 H   0  0  0  0  0  0  0  0  0  0  0  0
   -9.9011   19.9481  -33.0328 H   0  0  0  0  0  0  0  0  0  0  0  0
   -8.8960   18.4593  -33.0328 H   0  0  0  0  0  0  0  0  0  0  0  0
   -8.2712   23.6732  -30.2813 H   0  0  0  0  0  0  0  0  0  0  0  0
   -7.5358   25.8908  -29.4084 H   0  0  0  0  0  0  0  0  0  0  0  0
   -5.1748   26.6385  -29.7125 H   0  0  0  0  0  0  0  0  0  0  0  0
   -3.5426   25.1666  -30.8948 H   0  0  0  0  0  0  0  0  0  0  0  0
   -4.2638   22.9463  -31.7691 H   0  0  0  0  0  0  0  0  0  0  0  0
   -4.8187   20.9078  -32.2437 H   0  0  0  0  0  0  0  0  0  0  0  0
   -6.5555   17.3884  -31.2857 H   0  0  0  0  0  0  0  0  0  0  0  0
   -5.7288   15.2698  -32.3088 H   0  0  0  0  0  0  0  0  0  0  0  0
   -4.9122   17.3619  -36.0047 H   0  0  0  0  0  0  0  0  0  0  0  0
   -5.7296   19.4877  -34.9875 H   0  0  0  0  0  0  0  0  0  0  0  0
  1  2  1  0
  2  3  2  0
  3  4  1  0
  4  5  1  0
  5  6  2  0
  6  7  1  0
  7  8  2  0
  8  9  1  0
  9 10  2  0
  4 11  2  0
 11 12  1  0
 12 13  1  0
 13 14  2  0
 14 15  1  0
 15 16  2  0
 16 17  1  0
 16 18  1  0
 18 19  2  0
 12  2  1  0
 19 13  1  0
 10  5  1  0
  1 20  1  0
  1 21  1  0
  1 22  1  0
  6 23  1  0
  7 24  1  0
  8 25  1  0
  9 26  1  0
 10 27  1  0
 11 28  1  0
 14 29  1  0
 15 30  1  0
 18 31  1  0
 19 32  1  0
M  END
>  <UniqueID>  (27) 
24

>  <SMILES>  (27) 
Cc1nc(-c2ccccc2)cn1-c1ccc(F)cc1

>  <Energy>  (27) 
69.98416109913818

>  <Genealogy>  (27) 
Cc1nc(-c2ccccc2)cn1-c1ccc(F)cc1 (3D coordinates assigned)
Cc1nc(-c2ccccc2)cn1-c1ccc(F)cc1 (optimized conformer: 69.98416109913818 kcal/mol)

>  <smiles>  (27) 
Cc1nc(-c2ccccc2)cn1-c1ccc(F)cc1

>  <score_type>  (27) 
oracle

>  <origin>  (27) 
adg

>  <m_score__min__energy>  (27) 
-7.0700000000000003

>  <m_primary>  (27) 
energy

$$$$
27:0
     RDKit          3D

 35 36  0  0  0  0  0  0  0  0999 V2000
   -0.4130   21.5600  -29.1350 C   0  0  0  0  0  0  0  0  0  0  0  0
   -1.5090   22.2830  -29.4090 C   0  0  0  0  0  0  0  0  0  0  0  0
   -1.6420   23.6690  -29.2810 C   0  0  0  0  0  0  0  0  0  0  0  0
   -0.6360   24.6340  -28.7880 C   0  0  0  0  0  0  0  0  0  0  0  0
    0.5260   24.2440  -28.4950 O   0  0  0  0  0  0  0  0  0  0  0  0
   -0.9800   25.9820  -28.6470 O   0  0  0  0  0  0  0  0  0  0  0  0
   -0.7510   26.7110  -27.4470 C   0  0  0  0  0  0  0  0  0  0  0  0
   -2.9240   23.9690  -29.7220 C   0  0  0  0  0  0  0  0  0  0  0  0
   -3.5180   25.2310  -29.7370 O   0  0  0  0  0  0  0  0  0  0  0  0
   -3.5730   22.8510  -30.1060 N   0  0  0  0  0  0  0  0  0  0  0  0
   -4.9240   22.8110  -30.5950 C   0  0  0  0  0  0  0  0  0  0  0  0
   -5.9890   23.0320  -29.7090 C   0  0  0  0  0  0  0  0  0  0  0  0
   -7.3080   22.9930  -30.1670 C   0  0  0  0  0  0  0  0  0  0  0  0
   -7.5730   22.7280  -31.5110 C   0  0  0  0  0  0  0  0  0  0  0  0
   -6.5210   22.4930  -32.4010 C   0  0  0  0  0  0  0  0  0  0  0  0
   -5.1870   22.5250  -31.9490 C   0  0  0  0  0  0  0  0  0  0  0  0
   -4.1040   22.2690  -32.8070 O   0  0  0  0  0  0  0  0  0  0  0  0
   -3.8310   21.0060  -33.4050 C   0  0  0  0  0  0  0  0  0  0  0  0
   -2.7210   21.8120  -29.9250 C   0  0  0  0  0  0  0  0  0  0  0  0
   -3.0120   20.5400  -30.2440 C   0  0  0  0  0  0  0  0  0  0  0  0
   -0.4248   20.4689  -29.2744 H   0  0  0  0  0  0  0  0  0  0  0  0
    0.4976   22.0581  -28.7709 H   0  0  0  0  0  0  0  0  0  0  0  0
   -0.9541   26.0643  -26.5807 H   0  0  0  0  0  0  0  0  0  0  0  0
    0.2960   27.0470  -27.4162 H   0  0  0  0  0  0  0  0  0  0  0  0
   -1.4178   27.5854  -27.4162 H   0  0  0  0  0  0  0  0  0  0  0  0
   -3.0730   26.0450  -29.3360 H   0  0  0  0  0  0  0  0  0  0  0  0
   -5.7842   23.2371  -28.6479 H   0  0  0  0  0  0  0  0  0  0  0  0
   -8.1382   23.1713  -29.4678 H   0  0  0  0  0  0  0  0  0  0  0  0
   -8.6121   22.7040  -31.8710 H   0  0  0  0  0  0  0  0  0  0  0  0
   -6.7357   22.2821  -33.4590 H   0  0  0  0  0  0  0  0  0  0  0  0
   -3.6687   20.2550  -32.6178 H   0  0  0  0  0  0  0  0  0  0  0  0
   -4.6846   20.7039  -34.0296 H   0  0  0  0  0  0  0  0  0  0  0  0
   -2.9288   21.0834  -34.0296 H   0  0  0  0  0  0  0  0  0  0  0  0
   -2.2711   19.7459  -30.0693 H   0  0  0  0  0  0  0  0  0  0  0  0
   -3.9911   20.2925  -30.6799 H   0  0  0  0  0  0  0  0  0  0  0  0
  1  2  2  0
  2  3  1  0
  3  4  1  0
  4  5  2  0
  4  6  1  0
  6  7  1  0
  3  8  2  0
  8  9  1  0
  8 10  1  0
 10 11  1  0
 11 12  2  0
 12 13  1  0
 13 14  2  0
 14 15  1  0
 15 16  2  0
 16 17  1  0
 17 18  1  0
 10 19  1  0
 19 20  2  0
 19  2  1  0
 16 11  1  0
  1 21  1  0
  1 22  1  0
  7 23  1  0
  7 24  1  0
  7 25  1  0
  9 26  1  0
 12 27  1  0
 13 28  1  0
 14 29  1  0
 15 30  1  0
 18 31  1  0
 18 32  1  0
 18 33  1  0
 20 34  1  0
 20 35  1  0
M  END
>  <UniqueID>  (28) 
25

>  <SMILES>  (28) 
C=c1c(C(=O)OC)c(O)n(-c2ccccc2OC)c1=C

>  <Energy>  (28) 
73.66023320306823

>  <Genealogy>  (28) 
C=c1c(C(=O)OC)c(O)n(-c2ccccc2OC)c1=C (3D coordinates assigned)
C=c1c(C(=O)OC)c(O)n(-c2ccccc2OC)c1=C (optimized conformer: 73.66023320306823 kcal/mol)

>  <smiles>  (28) 
C=c1c(C(=O)OC)c(O)n(-c2ccccc2OC)c1=C

>  <score_type>  (28) 
oracle

>  <origin>  (28) 
adg

>  <m_score__min__energy>  (28) 
-7.4000000000000004

>  <m_primary>  (28) 
energy

$$$$
28:0
     RDKit          3D

 38 39  0  0  0  0  0  0  0  0999 V2000
   -9.2680   21.8480  -31.6140 C   0  0  0  0  0  0  0  0  0  0  0  0
   -8.4500   23.0830  -31.9690 C   0  0  0  0  0  0  0  0  0  0  0  0
   -7.0710   22.9270  -31.5110 N   0  0  0  0  0  0  0  0  0  0  0  0
   -6.1570   22.0530  -31.9800 C   0  0  0  0  0  0  0  0  0  0  0  0
   -4.9990   22.1860  -31.2340 C   0  0  0  0  0  0  0  0  0  0  0  0
   -5.2040   23.1280  -30.2900 N   0  0  0  0  0  0  0  0  0  0  0  0
   -4.2280   23.6170  -29.3180 C   0  0  0  0  0  0  0  0  0  0  0  0
   -3.5200   24.8320  -29.8550 C   0  0  0  0  0  0  0  0  0  0  0  0
   -4.0050   25.4380  -30.8460 O   0  0  0  0  0  0  0  0  0  0  0  0
   -2.2860   25.3000  -29.2950 N   0  0  0  0  0  0  0  0  0  0  0  0
   -1.7610   24.9780  -27.9990 C   0  0  0  0  0  0  0  0  0  0  0  0
   -1.4760   23.6540  -27.6300 C   0  0  0  0  0  0  0  0  0  0  0  0
   -0.9720   23.3650  -26.3530 C   0  0  0  0  0  0  0  0  0  0  0  0
   -0.6840   21.9460  -25.9590 C   0  0  0  0  0  0  0  0  0  0  0  0
   -0.8070   24.4030  -25.4250 C   0  0  0  0  0  0  0  0  0  0  0  0
   -1.1360   25.7230  -25.7690 C   0  0  0  0  0  0  0  0  0  0  0  0
   -0.9260   26.8340  -24.7830 C   0  0  0  0  0  0  0  0  0  0  0  0
   -1.6040   26.0040  -27.0600 C   0  0  0  0  0  0  0  0  0  0  0  0
   -6.4660   23.5590  -30.4850 C   0  0  0  0  0  0  0  0  0  0  0  0
   -7.0180   24.4520  -29.7880 O   0  0  0  0  0  0  0  0  0  0  0  0
   -9.3314   21.7522  -30.5200 H   0  0  0  0  0  0  0  0  0  0  0  0
  -10.2804   21.9459  -32.0328 H   0  0  0  0  0  0  0  0  0  0  0  0
   -8.7828   20.9540  -32.0328 H   0  0  0  0  0  0  0  0  0  0  0  0
   -8.4565   23.2212  -33.0603 H   0  0  0  0  0  0  0  0  0  0  0  0
   -8.8939   23.9601  -31.4754 H   0  0  0  0  0  0  0  0  0  0  0  0
   -6.3068   21.3525  -32.8148 H   0  0  0  0  0  0  0  0  0  0  0  0
   -4.0684   21.6193  -31.3851 H   0  0  0  0  0  0  0  0  0  0  0  0
   -4.7466   23.8820  -28.3848 H   0  0  0  0  0  0  0  0  0  0  0  0
   -3.4873   22.8268  -29.1260 H   0  0  0  0  0  0  0  0  0  0  0  0
   -1.6490   22.8377  -28.3468 H   0  0  0  0  0  0  0  0  0  0  0  0
   -0.6678   21.8661  -24.8620 H   0  0  0  0  0  0  0  0  0  0  0  0
   -1.4667   21.2872  -26.3631 H   0  0  0  0  0  0  0  0  0  0  0  0
    0.2937   21.6445  -26.3631 H   0  0  0  0  0  0  0  0  0  0  0  0
   -0.4171   24.1811  -24.4206 H   0  0  0  0  0  0  0  0  0  0  0  0
   -1.0013   26.4358  -23.7604 H   0  0  0  0  0  0  0  0  0  0  0  0
    0.0711   27.2736  -24.9328 H   0  0  0  0  0  0  0  0  0  0  0  0
   -1.6939   27.6072  -24.9328 H   0  0  0  0  0  0  0  0  0  0  0  0
   -1.8500   27.0396  -27.3375 H   0  0  0  0  0  0  0  0  0  0  0  0
  1  2  1  0
  2  3  1  0
  3  4  1  0
  4  5  2  0
  5  6  1  0
  6  7  1  0
  7  8  1  0
  8  9  2  0
  8 10  1  0
 10 11  1  0
 11 12  2  0
 12 13  1  0
 13 14  1  0
 13 15  2  0
 15 16  1  0
 16 17  1  0
 16 18  2  0
  6 19  1  0
 19 20  2  0
 19  3  1  0
 18 11  1  0
  1 21  1  0
  1 22  1  0
  1 23  1  0
  2 24  1  0
  2 25  1  0
  4 26  1  0
  5 27  1  0
  7 28  1  0
  7 29  1  0
 12 30  1  0
 14 31  1  0
 14 32  1  0
 14 33  1  0
 15 34  1  0
 17 35  1  0
 17 36  1  0
 17 37  1  0
 18 38  1  0
M  CHG  1  10  -1
M  END
>  <UniqueID>  (29) 
26

>  <SMILES>  (29) 
CCn1ccn(CC(=O)[N-]c2cc(C)cc(C)c2)c1=O

>  <Energy>  (29) 
68.71742839244217

>  <Genealogy>  (29) 
CCn1ccn(CC(=O)[N-]c2cc(C)cc(C)c2)c1=O (protonated)
CCn1ccn(CC(=O)[N-]c2cc(C)cc(C)c2)c1=O (3D coordinates assigned)
CCn1ccn(CC(=O)[N-]c2cc(C)cc(C)c2)c1=O (optimized conformer: 68.71742839244217 kcal/mol)

>  <smiles>  (29) 
CCn1ccn(CC(=O)Nc2cc(C)cc(C)c2)c1=O

>  <score_type>  (29) 
oracle

>  <origin>  (29) 
adg

>  <m_score__min__energy>  (29) 
-8.4100000000000001

>  <m_primary>  (29) 
energy

$$$$
29:0
     RDKit          3D

 32 33  0  0  0  0  0  0  0  0999 V2000
   -0.5419   25.4834  -27.7834 H   0  0  0  0  0  0  0  0  0  0  0  0
   -1.4670   24.9920  -28.1190 C   0  0  0  0  0  0  0  0  0  0  0  0
   -2.0480   25.2730  -29.3160 N   0  0  0  0  0  0  0  0  0  0  0  0
   -3.1770   24.5590  -29.5070 C   0  0  0  0  0  0  0  0  0  0  0  0
   -3.8670   24.6470  -30.6060 N   0  0  0  0  0  0  0  0  0  0  0  0
   -5.1770   25.2110  -30.7840 C   0  0  0  0  0  0  0  0  0  0  0  0
   -5.3600   26.4150  -30.4610 O   0  0  0  0  0  0  0  0  0  0  0  0
   -6.3360   24.4030  -31.3030 C   0  0  0  0  0  0  0  0  0  0  0  0
   -7.0197   24.1742  -30.4722 H   0  0  0  0  0  0  0  0  0  0  0  0
   -6.8614   24.9856  -32.0741 H   0  0  0  0  0  0  0  0  0  0  0  0
   -5.8560   23.1440  -31.8980 N   0  0  0  0  0  0  0  0  0  0  0  0
   -4.9200   22.9250  -31.4820 H   0  0  0  0  0  0  0  0  0  0  0  0
   -6.7420   21.9810  -31.6700 C   0  0  0  0  0  0  0  0  0  0  0  0
   -6.5138   21.6126  -30.6589 H   0  0  0  0  0  0  0  0  0  0  0  0
   -8.2440   22.3480  -31.6410 C   0  0  0  0  0  0  0  0  0  0  0  0
   -8.3999   23.1634  -30.9193 H   0  0  0  0  0  0  0  0  0  0  0  0
   -8.5449   22.6606  -32.6518 H   0  0  0  0  0  0  0  0  0  0  0  0
   -9.1070   21.1400  -31.2280 C   0  0  0  0  0  0  0  0  0  0  0  0
   -9.1777   21.1220  -30.1304 H   0  0  0  0  0  0  0  0  0  0  0  0
  -10.0887   21.2653  -31.7081 H   0  0  0  0  0  0  0  0  0  0  0  0
   -8.5400   19.7850  -31.7030 C   0  0  0  0  0  0  0  0  0  0  0  0
   -7.9401   19.3474  -30.8914 H   0  0  0  0  0  0  0  0  0  0  0  0
   -9.3884   19.1363  -31.9664 H   0  0  0  0  0  0  0  0  0  0  0  0
   -7.6560   19.9340  -32.9460 C   0  0  0  0  0  0  0  0  0  0  0  0
   -7.3026   18.9390  -33.2543 H   0  0  0  0  0  0  0  0  0  0  0  0
   -8.2556   20.4012  -33.7411 H   0  0  0  0  0  0  0  0  0  0  0  0
   -6.4370   20.8340  -32.6690 C   0  0  0  0  0  0  0  0  0  0  0  0
   -5.6303   20.2126  -32.2529 H   0  0  0  0  0  0  0  0  0  0  0  0
   -6.1484   21.2984  -33.6235 H   0  0  0  0  0  0  0  0  0  0  0  0
   -3.4830   23.5320  -28.2020 S   0  0  0  0  0  0  0  0  0  0  0  0
   -2.1250   24.0400  -27.3500 C   0  0  0  0  0  0  0  0  0  0  0  0
   -1.8125   23.6816  -26.3581 H   0  0  0  0  0  0  0  0  0  0  0  0
  1  2  1  0
  2  3  1  0
  3  4  1  0
  4  5  2  0
  5  6  1  0
  6  7  2  0
  6  8  1  0
  8  9  1  0
  8 10  1  0
  8 11  1  0
 11 12  1  0
 11 13  1  0
 13 14  1  0
 13 15  1  0
 15 16  1  0
 15 17  1  0
 15 18  1  0
 18 19  1  0
 18 20  1  0
 18 21  1  0
 21 22  1  0
 21 23  1  0
 21 24  1  0
 24 25  1  0
 24 26  1  0
 24 27  1  0
 27 28  1  0
 27 29  1  0
  4 30  1  0
 30 31  1  0
 31 32  1  0
 31  2  2  0
 27 13  1  0
M  CHG  1   3  -1
M  END
>  <UniqueID>  (30) 
27

>  <SMILES>  (30) 
O=C(CNC1CCCCC1)/N=c1/[n-]ccs1

>  <Energy>  (30) 
71.66049450337236

>  <Genealogy>  (30) 
O=C(CNC1CCCCC1)N=c1[n-]ccs1 (protonated)
O=C(CNC1CCCCC1)/N=c1/[n-]ccs1 (cis-trans isomerization)
O=C(CNC1CCCCC1)/N=c1/[n-]ccs1 (3D coordinates assigned)
O=C(CNC1CCCCC1)/N=c1/[n-]ccs1 (nonaromatic ring conformer: 71.66049450337236 kcal/mol)

>  <smiles>  (30) 
O=C(CNC1CCCCC1)N=c1[nH]ccs1

>  <score_type>  (30) 
oracle

>  <origin>  (30) 
adg

>  <m_score__min__energy>  (30) 
-8.5299999999999994

>  <m_primary>  (30) 
energy

$$$$
30:0
     RDKit          3D

 59 62  0  0  1  0  0  0  0  0999 V2000
    1.3340   23.5230  -35.9000 C   0  0  0  0  0  0  0  0  0  0  0  0
    1.7920   22.5940  -34.9130 O   0  0  0  0  0  0  0  0  0  0  0  0
    0.9790   21.5290  -34.5240 C   0  0  0  0  0  0  0  0  0  0  0  0
   -0.4080   21.6390  -34.5150 C   0  0  0  0  0  0  0  0  0  0  0  0
   -1.1670   20.5390  -34.1170 C   0  0  0  0  0  0  0  0  0  0  0  0
   -2.5230   20.6310  -34.1050 N   0  0  0  0  0  0  0  0  0  0  0  0
   -3.3250   19.6240  -33.7400 C   0  0  0  0  0  0  0  0  0  0  0  0
   -4.7230   19.6390  -33.6900 N   0  0  0  0  0  0  0  0  0  0  0  0
   -5.3400   20.7910  -32.9510 C   0  0  0  0  0  0  0  0  0  0  0  0
   -6.0520   20.2250  -31.7280 C   0  0  0  0  0  0  0  0  0  0  0  0
   -7.0220   19.2720  -32.1920 N   0  0  0  0  0  0  0  0  0  0  0  0
   -8.3930   19.1970  -32.0380 C   0  0  0  0  0  0  0  0  0  0  0  0
   -8.8280   17.9550  -31.8840 O   0  0  0  0  0  0  0  0  0  0  0  0
   -9.4570   20.1460  -32.0030 C   0  0  0  0  0  0  0  0  0  0  0  0
   -9.4610   21.4400  -31.9050 C   0  0  0  0  0  0  0  0  0  0  0  0
   -8.3260   22.2510  -31.4340 C   0  0  0  0  0  0  0  0  0  0  0  0
   -7.9050   22.2720  -30.1280 C   0  0  0  0  0  0  0  0  0  0  0  0
   -6.8200   23.0680  -29.7430 C   0  0  0  0  0  0  0  0  0  0  0  0
   -6.1440   23.8510  -30.6610 C   0  0  0  0  0  0  0  0  0  0  0  0
   -6.5580   23.8340  -31.9610 C   0  0  0  0  0  0  0  0  0  0  0  0
   -7.6270   23.0460  -32.3260 C   0  0  0  0  0  0  0  0  0  0  0  0
   -6.3900   18.1540  -32.9690 C   0  0  0  0  0  0  0  0  0  0  0  0
   -5.6930   18.7490  -34.2130 C   0  0  2  0  0  0  0  0  0  0  0  0
   -5.3430   17.6480  -35.1060 C   0  0  0  0  0  0  0  0  0  0  0  0
   -2.6810   18.4780  -33.3730 N   0  0  0  0  0  0  0  0  0  0  0  0
   -1.3480   18.3240  -33.3630 C   0  0  0  0  0  0  0  0  0  0  0  0
   -0.8900   17.1870  -32.9930 N   0  0  0  0  0  0  0  0  0  0  0  0
   -0.5430   19.3720  -33.7420 C   0  0  0  0  0  0  0  0  0  0  0  0
    0.8250   19.2660  -33.7520 C   0  0  0  0  0  0  0  0  0  0  0  0
    1.5860   20.3490  -34.1440 C   0  0  0  0  0  0  0  0  0  0  0  0
    2.9690   20.2800  -34.1670 O   0  0  0  0  0  0  0  0  0  0  0  0
    3.5470   19.1280  -34.7870 C   0  0  0  0  0  0  0  0  0  0  0  0
    0.9003   24.4028  -35.4022 H   0  0  0  0  0  0  0  0  0  0  0  0
    2.1804   23.8374  -36.5283 H   0  0  0  0  0  0  0  0  0  0  0  0
    0.5692   23.0431  -36.5283 H   0  0  0  0  0  0  0  0  0  0  0  0
   -0.8971   22.5770  -34.8165 H   0  0  0  0  0  0  0  0  0  0  0  0
   -2.9100   21.5310  -34.4050 H   0  0  0  0  0  0  0  0  0  0  0  0
   -4.5575   21.4971  -32.6362 H   0  0  0  0  0  0  0  0  0  0  0  0
   -6.0496   21.3290  -33.5968 H   0  0  0  0  0  0  0  0  0  0  0  0
   -5.3256   19.7294  -31.0671 H   0  0  0  0  0  0  0  0  0  0  0  0
   -6.5420   21.0293  -31.1598 H   0  0  0  0  0  0  0  0  0  0  0  0
  -10.4595   19.6984  -32.0718 H   0  0  0  0  0  0  0  0  0  0  0  0
  -10.3801   21.9700  -32.1952 H   0  0  0  0  0  0  0  0  0  0  0  0
   -8.4246   21.6582  -29.3775 H   0  0  0  0  0  0  0  0  0  0  0  0
   -6.4990   23.0709  -28.6909 H   0  0  0  0  0  0  0  0  0  0  0  0
   -5.2919   24.4733  -30.3501 H   0  0  0  0  0  0  0  0  0  0  0  0
   -6.0405   24.4467  -32.7139 H   0  0  0  0  0  0  0  0  0  0  0  0
   -7.9414   23.0485  -33.3801 H   0  0  0  0  0  0  0  0  0  0  0  0
   -5.6489   17.6387  -32.3403 H   0  0  0  0  0  0  0  0  0  0  0  0
   -7.1589   17.4312  -33.2794 H   0  0  0  0  0  0  0  0  0  0  0  0
   -6.2745   19.3765  -34.9044 H   0  0  0  0  0  0  0  0  0  0  0  0
   -5.0630   16.7671  -34.5097 H   0  0  0  0  0  0  0  0  0  0  0  0
   -6.2071   17.4017  -35.7405 H   0  0  0  0  0  0  0  0  0  0  0  0
   -4.4952   17.9458  -35.7405 H   0  0  0  0  0  0  0  0  0  0  0  0
   -1.4380   16.4750  -32.5370 H   0  0  0  0  0  0  0  0  0  0  0  0
    1.3110   18.3264  -33.4503 H   0  0  0  0  0  0  0  0  0  0  0  0
    3.8968   18.4308  -34.0114 H   0  0  0  0  0  0  0  0  0  0  0  0
    2.7916   18.6308  -35.4132 H   0  0  0  0  0  0  0  0  0  0  0  0
    4.3971   19.4364  -35.4132 H   0  0  0  0  0  0  0  0  0  0  0  0
  1  2  1  0
  2  3  1  0
  3  4  2  0
  4  5  1  0
  5  6  1  0
  6  7  1  0
  7  8  1  0
  8  9  1  0
  9 10  1  0
 10 11  1  0
 11 12  1  0
 12 13  2  0
 12 14  1  0
 14 15  2  0
 15 16  1  0
 16 17  2  0
 17 18  1  0
 18 19  2  0
 19 20  1  0
 20 21  2  0
 11 22  1  0
 22 23  1  0
 23 24  1  0
  7 25  2  0
 25 26  1  0
 26 27  2  3
 26 28  1  0
 28 29  1  0
 29 30  2  0
 30 31  1  0
 31 32  1  0
 30  3  1  0
 28  5  2  0
 23  8  1  0
 21 16  1  0
  1 33  1  0
  1 34  1  0
  1 35  1  0
  4 36  1  0
  6 37  1  0
  9 38  1  0
  9 39  1  0
 10 40  1  0
 10 41  1  0
 14 42  1  0
 15 43  1  0
 17 44  1  0
 18 45  1  0
 19 46  1  0
 20 47  1  0
 21 48  1  0
 22 49  1  0
 22 50  1  0
 23 51  1  6
 24 52  1  0
 24 53  1  0
 24 54  1  0
 27 55  1  0
 29 56  1  0
 32 57  1  0
 32 58  1  0
 32 59  1  0
M  END
>  <smiles>  (31) 
COc1cc2[nH]c(N3CCN(C(=O)C=Cc4ccccc4)CC3C)nc(=N)c2cc1OC

>  <score_type>  (31) 
oracle

>  <origin>  (31) 
adg

>  <m_score__min__energy>  (31) 
-9.1199999999999992

>  <m_primary>  (31) 
energy

$$$$
31:0
     RDKit          3D

 42 44  0  0  0  0  0  0  0  0999 V2000
   -2.2570   24.7180  -28.7250 C   0  0  0  0  0  0  0  0  0  0  0  0
   -3.1110   25.2890  -29.7110 O   0  0  0  0  0  0  0  0  0  0  0  0
   -4.3030   24.7030  -30.1620 C   0  0  0  0  0  0  0  0  0  0  0  0
   -5.5600   25.3080  -29.9760 C   0  0  0  0  0  0  0  0  0  0  0  0
   -6.7190   24.6860  -30.4490 C   0  0  0  0  0  0  0  0  0  0  0  0
   -6.6400   23.4530  -31.1140 C   0  0  0  0  0  0  0  0  0  0  0  0
   -7.8860   22.8040  -31.6580 C   0  0  0  0  0  0  0  0  0  0  0  0
   -7.6100   21.7940  -32.7010 N   0  0  0  0  0  0  0  0  0  0  0  0
   -7.2430   20.4270  -32.2590 C   0  0  1  0  0  0  0  0  0  0  0  0
   -8.4770   19.4830  -32.1540 C   0  0  0  0  0  0  0  0  0  0  0  0
   -8.0690   18.0060  -31.9770 C   0  0  0  0  0  0  0  0  0  0  0  0
   -7.2230   17.5060  -33.1630 C   0  0  0  0  0  0  0  0  0  0  0  0
   -6.1080   18.4710  -33.4340 C   0  0  0  0  0  0  0  0  0  0  0  0
   -6.1410   19.7980  -33.0750 C   0  0  0  0  0  0  0  0  0  0  0  0
   -4.8890   20.2930  -33.3980 C   0  0  0  0  0  0  0  0  0  0  0  0
   -4.1820   19.3040  -33.9820 N   0  0  0  0  0  0  0  0  0  0  0  0
   -4.9220   18.2060  -34.0180 N   0  0  0  0  0  0  0  0  0  0  0  0
   -4.4530   16.9100  -34.4970 C   0  0  0  0  0  0  0  0  0  0  0  0
   -5.3870   22.8450  -31.2900 C   0  0  0  0  0  0  0  0  0  0  0  0
   -4.2290   23.4690  -30.8190 C   0  0  0  0  0  0  0  0  0  0  0  0
   -2.6341   24.9701  -27.7229 H   0  0  0  0  0  0  0  0  0  0  0  0
   -2.2378   23.6248  -28.8452 H   0  0  0  0  0  0  0  0  0  0  0  0
   -1.2394   25.1180  -28.8452 H   0  0  0  0  0  0  0  0  0  0  0  0
   -5.6307   26.2748  -29.4560 H   0  0  0  0  0  0  0  0  0  0  0  0
   -7.6976   25.1654  -30.2992 H   0  0  0  0  0  0  0  0  0  0  0  0
   -8.4153   22.3133  -30.8279 H   0  0  0  0  0  0  0  0  0  0  0  0
   -8.4903   23.5967  -32.1232 H   0  0  0  0  0  0  0  0  0  0  0  0
   -6.8920   22.1620  -33.3670 H   0  0  0  0  0  0  0  0  0  0  0  0
   -6.8365   20.5600  -31.2456 H   0  0  0  0  0  0  0  0  0  0  0  0
   -9.0840   19.7887  -31.2890 H   0  0  0  0  0  0  0  0  0  0  0  0
   -9.0455   19.5656  -33.0921 H   0  0  0  0  0  0  0  0  0  0  0  0
   -7.4817   17.9061  -31.0523 H   0  0  0  0  0  0  0  0  0  0  0  0
   -8.9852   17.3993  -31.9277 H   0  0  0  0  0  0  0  0  0  0  0  0
   -6.8013   16.5194  -32.9205 H   0  0  0  0  0  0  0  0  0  0  0  0
   -7.8603   17.4273  -34.0561 H   0  0  0  0  0  0  0  0  0  0  0  0
   -4.5323   21.3166  -33.2106 H   0  0  0  0  0  0  0  0  0  0  0  0
   -3.1960   19.3730  -34.3200 H   0  0  0  0  0  0  0  0  0  0  0  0
   -4.2193   16.2642  -33.6378 H   0  0  0  0  0  0  0  0  0  0  0  0
   -5.2376   16.4388  -35.1072 H   0  0  0  0  0  0  0  0  0  0  0  0
   -3.5485   17.0500  -35.1072 H   0  0  0  0  0  0  0  0  0  0  0  0
   -5.3166   21.8733  -31.8008 H   0  0  0  0  0  0  0  0  0  0  0  0
   -3.2513   22.9868  -30.9656 H   0  0  0  0  0  0  0  0  0  0  0  0
  1  2  1  0
  2  3  1  0
  3  4  2  0
  4  5  1  0
  5  6  2  0
  6  7  1  0
  7  8  1  0
  8  9  1  0
  9 10  1  0
 10 11  1  0
 11 12  1  0
 12 13  1  0
 13 14  2  0
 14 15  1  0
 15 16  2  0
 16 17  1  0
 17 18  1  0
  6 19  1  0
 19 20  2  0
 20  3  1  0
 14  9  1  0
 17 13  1  0
  1 21  1  0
  1 22  1  0
  1 23  1  0
  4 24  1  0
  5 25  1  0
  7 26  1  0
  7 27  1  0
  8 28  1  0
  9 29  1  1
 10 30  1  0
 10 31  1  0
 11 32  1  0
 11 33  1  0
 12 34  1  0
 12 35  1  0
 15 36  1  0
 16 37  1  0
 18 38  1  0
 18 39  1  0
 18 40  1  0
 19 41  1  0
 20 42  1  0
M  CHG  1  16   1
M  END
>  <UniqueID>  (32) 
28

>  <SMILES>  (32) 
COc1ccc(CN[C@H]2CCCc3c2c[nH+]n3C)cc1

>  <Energy>  (32) 
78.27172567819304

>  <Genealogy>  (32) 
COc1ccc(CNC2CCCc3c2c[nH+]n3C)cc1 (protonated)
COc1ccc(CN[C@H]2CCCc3c2c[nH+]n3C)cc1 (chirality)
COc1ccc(CN[C@H]2CCCc3c2c[nH+]n3C)cc1 (3D coordinates assigned)
COc1ccc(CN[C@H]2CCCc3c2c[nH+]n3C)cc1 (nonaromatic ring conformer: 78.27172567819304 kcal/mol)

>  <smiles>  (32) 
COc1ccc(CNC2CCCc3c2cnn3C)cc1

>  <score_type>  (32) 
oracle

>  <origin>  (32) 
adg

>  <m_score__min__energy>  (32) 
-7.9400000000000004

>  <m_primary>  (32) 
energy

$$$$
32:0
     RDKit          3D

 37 38  0  0  0  0  0  0  0  0999 V2000
   -9.1175   20.1259  -33.7038 H   0  0  0  0  0  0  0  0  0  0  0  0
   -8.6550   20.0590  -32.7080 C   0  0  0  0  0  0  0  0  0  0  0  0
   -8.7090   21.2440  -31.8290 C   0  0  0  0  0  0  0  0  0  0  0  0
   -9.7970   21.8760  -31.7460 O   0  0  0  0  0  0  0  0  0  0  0  0
   -7.5590   21.7080  -31.1010 N   0  0  0  0  0  0  0  0  0  0  0  0
   -6.6160   21.3030  -31.2930 H   0  0  0  0  0  0  0  0  0  0  0  0
   -7.6310   22.8270  -30.1640 C   0  0  0  0  0  0  0  0  0  0  0  0
   -8.3606   23.5630  -30.5327 H   0  0  0  0  0  0  0  0  0  0  0  0
   -7.9423   22.4499  -29.1786 H   0  0  0  0  0  0  0  0  0  0  0  0
   -6.2840   23.4850  -30.0340 C   0  0  0  0  0  0  0  0  0  0  0  0
   -6.0640   24.7740  -30.5480 C   0  0  0  0  0  0  0  0  0  0  0  0
   -6.8862   25.3160  -31.0381 H   0  0  0  0  0  0  0  0  0  0  0  0
   -4.8050   25.3700  -30.4390 C   0  0  0  0  0  0  0  0  0  0  0  0
   -4.6396   26.3810  -30.8397 H   0  0  0  0  0  0  0  0  0  0  0  0
   -3.7540   24.6830  -29.8210 C   0  0  0  0  0  0  0  0  0  0  0  0
   -2.5030   25.2770  -29.7130 O   0  0  0  0  0  0  0  0  0  0  0  0
   -3.9660   23.3980  -29.3110 C   0  0  0  0  0  0  0  0  0  0  0  0
   -3.1408   22.8578  -28.8239 H   0  0  0  0  0  0  0  0  0  0  0  0
   -5.2240   22.7990  -29.4190 C   0  0  0  0  0  0  0  0  0  0  0  0
   -5.3846   21.7863  -29.0208 H   0  0  0  0  0  0  0  0  0  0  0  0
   -8.0710   18.9060  -32.3540 C   0  0  0  0  0  0  0  0  0  0  0  0
   -8.4961   18.3390  -31.5127 H   0  0  0  0  0  0  0  0  0  0  0  0
   -6.8770   18.3590  -33.0450 C   0  0  0  0  0  0  0  0  0  0  0  0
   -6.7400   16.9750  -33.2790 C   0  0  0  0  0  0  0  0  0  0  0  0
   -7.5533   16.2906  -32.9957 H   0  0  0  0  0  0  0  0  0  0  0  0
   -5.5790   16.4660  -33.8680 C   0  0  0  0  0  0  0  0  0  0  0  0
   -5.4080   14.5880  -34.1730 Br  0  0  0  0  0  0  0  0  0  0  0  0
   -4.5360   17.3260  -34.2150 C   0  0  0  0  0  0  0  0  0  0  0  0
   -3.6211   16.9232  -34.6741 H   0  0  0  0  0  0  0  0  0  0  0  0
   -4.6530   18.6960  -33.9800 C   0  0  0  0  0  0  0  0  0  0  0  0
   -3.8230   19.3680  -34.2437 H   0  0  0  0  0  0  0  0  0  0  0  0
   -5.8190   19.2220  -33.4110 C   0  0  0  0  0  0  0  0  0  0  0  0
   -5.9000   20.6030  -33.2090 O   0  0  0  0  0  0  0  0  0  0  0  0
   -4.7970   21.3610  -32.7210 C   0  0  0  0  0  0  0  0  0  0  0  0
   -5.1547   22.3401  -32.3696 H   0  0  0  0  0  0  0  0  0  0  0  0
   -3.8720   21.5460  -33.7320 F   0  0  0  0  0  0  0  0  0  0  0  0
   -4.2000   20.6750  -31.6820 F   0  0  0  0  0  0  0  0  0  0  0  0
  1  2  1  0
  2  3  1  0
  3  4  2  0
  3  5  1  0
  5  6  1  0
  5  7  1  0
  7  8  1  0
  7  9  1  0
  7 10  1  0
 10 11  2  0
 11 12  1  0
 11 13  1  0
 13 14  1  0
 13 15  2  0
 15 16  1  0
 15 17  1  0
 17 18  1  0
 17 19  2  0
 19 20  1  0
  2 21  2  0
 21 22  1  0
 21 23  1  0
 23 24  2  0
 24 25  1  0
 24 26  1  0
 26 27  1  0
 26 28  2  0
 28 29  1  0
 28 30  1  0
 30 31  1  0
 30 32  2  0
 32 33  1  0
 33 34  1  0
 34 35  1  0
 34 36  1  0
 34 37  1  0
 19 10  1  0
 32 23  1  0
M  CHG  1  16  -1
M  END
>  <UniqueID>  (33) 
29

>  <SMILES>  (33) 
O=C(/C=C/c1cc(Br)ccc1OC(F)F)NCc1ccc([O-])cc1

>  <Energy>  (33) 
44.81101614081204

>  <Genealogy>  (33) 
O=C(C=Cc1cc(Br)ccc1OC(F)F)NCc1ccc([O-])cc1 (protonated)
O=C(/C=C/c1cc(Br)ccc1OC(F)F)NCc1ccc([O-])cc1 (cis-trans isomerization)
O=C(/C=C/c1cc(Br)ccc1OC(F)F)NCc1ccc([O-])cc1 (3D coordinates assigned)
O=C(/C=C/c1cc(Br)ccc1OC(F)F)NCc1ccc([O-])cc1 (optimized conformer: 44.81101614081204 kcal/mol)

>  <smiles>  (33) 
O=C(C=Cc1cc(Br)ccc1OC(F)F)NCc1ccc(O)cc1

>  <score_type>  (33) 
oracle

>  <origin>  (33) 
adg

>  <m_score__min__energy>  (33) 
-10.98

>  <m_primary>  (33) 
energy

$$$$
33:0
     RDKit          3D

 41 42  0  0  0  0  0  0  0  0999 V2000
   -0.9720   20.8320  -34.1270 C   0  0  0  0  0  0  0  0  0  0  0  0
   -2.4470   20.4150  -34.0610 C   0  0  0  0  0  0  0  0  0  0  0  0
   -2.8570   19.9960  -32.6980 N   0  0  2  0  0  0  0  0  0  0  0  0
   -3.9680   19.0100  -32.7400 C   0  0  0  0  0  0  0  0  0  0  0  0
   -5.0250   19.3340  -33.8180 C   0  0  0  0  0  0  0  0  0  0  0  0
   -6.4060   19.2850  -33.2160 C   0  0  0  0  0  0  0  0  0  0  0  0
   -7.2610   20.3950  -33.3320 C   0  0  0  0  0  0  0  0  0  0  0  0
   -8.5140   20.3920  -32.7050 C   0  0  0  0  0  0  0  0  0  0  0  0
   -8.9190   19.2820  -31.9600 C   0  0  0  0  0  0  0  0  0  0  0  0
   -8.0740   18.1750  -31.8370 C   0  0  0  0  0  0  0  0  0  0  0  0
   -6.8190   18.1770  -32.4580 C   0  0  0  0  0  0  0  0  0  0  0  0
   -3.2170   21.1600  -31.8930 C   0  0  0  0  0  0  0  0  0  0  0  0
   -2.3410   21.5400  -30.5430 S   0  0  0  0  0  0  0  0  0  0  0  0
   -4.2490   22.0440  -32.3710 N   0  0  0  0  0  0  0  0  0  0  0  0
   -5.0500   22.9580  -31.5910 C   0  0  0  0  0  0  0  0  0  0  0  0
   -4.4010   23.9460  -30.8270 C   0  0  0  0  0  0  0  0  0  0  0  0
   -5.1370   24.8690  -30.0800 C   0  0  0  0  0  0  0  0  0  0  0  0
   -6.5320   24.8210  -30.0830 C   0  0  0  0  0  0  0  0  0  0  0  0
   -7.2460   25.7110  -29.3490 F   0  0  0  0  0  0  0  0  0  0  0  0
   -7.1930   23.8650  -30.8610 C   0  0  0  0  0  0  0  0  0  0  0  0
   -6.4610   22.9580  -31.6330 C   0  0  0  0  0  0  0  0  0  0  0  0
   -0.5766   20.9438  -33.1066 H   0  0  0  0  0  0  0  0  0  0  0  0
   -0.3966   20.0613  -34.6608 H   0  0  0  0  0  0  0  0  0  0  0  0
   -0.8853   21.7899  -34.6608 H   0  0  0  0  0  0  0  0  0  0  0  0
   -3.0692   21.2678  -34.3703 H   0  0  0  0  0  0  0  0  0  0  0  0
   -2.5817   19.5531  -34.7310 H   0  0  0  0  0  0  0  0  0  0  0  0
   -2.0350   19.5300  -32.2470 H   0  0  0  0  0  0  0  0  0  0  0  0
   -3.5463   18.0162  -32.9508 H   0  0  0  0  0  0  0  0  0  0  0  0
   -4.4739   19.0442  -31.7639 H   0  0  0  0  0  0  0  0  0  0  0  0
   -4.8384   20.3406  -34.2204 H   0  0  0  0  0  0  0  0  0  0  0  0
   -4.9565   18.5909  -34.6262 H   0  0  0  0  0  0  0  0  0  0  0  0
   -6.9446   21.2704  -33.9181 H   0  0  0  0  0  0  0  0  0  0  0  0
   -9.1786   21.2635  -32.7994 H   0  0  0  0  0  0  0  0  0  0  0  0
   -9.9037   19.2789  -31.4697 H   0  0  0  0  0  0  0  0  0  0  0  0
   -8.3956   17.3011  -31.2515 H   0  0  0  0  0  0  0  0  0  0  0  0
   -6.1539   17.3073  -32.3518 H   0  0  0  0  0  0  0  0  0  0  0  0
   -4.4590   22.0100  -33.3950 H   0  0  0  0  0  0  0  0  0  0  0  0
   -3.3020   23.9919  -30.8180 H   0  0  0  0  0  0  0  0  0  0  0  0
   -4.6158   25.6356  -29.4879 H   0  0  0  0  0  0  0  0  0  0  0  0
   -8.2923   23.8266  -30.8655 H   0  0  0  0  0  0  0  0  0  0  0  0
   -6.9882   22.2393  -32.2776 H   0  0  0  0  0  0  0  0  0  0  0  0
  1  2  1  0
  2  3  1  0
  3  4  1  0
  4  5  1  0
  5  6  1  0
  6  7  2  0
  7  8  1  0
  8  9  2  0
  9 10  1  0
 10 11  2  0
  3 12  1  0
 12 13  2  0
 12 14  1  0
 14 15  1  0
 15 16  2  0
 16 17  1  0
 17 18  2  0
 18 19  1  0
 18 20  1  0
 20 21  2  0
 11  6  1  0
 21 15  1  0
  1 22  1  0
  1 23  1  0
  1 24  1  0
  2 25  1  0
  2 26  1  0
  3 27  1  1
  4 28  1  0
  4 29  1  0
  5 30  1  0
  5 31  1  0
  7 32  1  0
  8 33  1  0
  9 34  1  0
 10 35  1  0
 11 36  1  0
 14 37  1  0
 16 38  1  0
 17 39  1  0
 20 40  1  0
 21 41  1  0
M  CHG  1   3   1
M  END
>  <UniqueID>  (34) 
30

>  <SMILES>  (34) 
CC[N@H+](CCc1ccccc1)C(=S)Nc1ccc(F)cc1

>  <Energy>  (34) 
49.597090601646066

>  <Genealogy>  (34) 
CC[NH+](CCc1ccccc1)C(=S)Nc1ccc(F)cc1 (protonated)
CC[N@H+](CCc1ccccc1)C(=S)Nc1ccc(F)cc1 (chirality)
CC[N@H+](CCc1ccccc1)C(=S)Nc1ccc(F)cc1 (3D coordinates assigned)
CC[N@H+](CCc1ccccc1)C(=S)Nc1ccc(F)cc1 (optimized conformer: 49.597090601646066 kcal/mol)

>  <smiles>  (34) 
CCN(CCc1ccccc1)C(=S)Nc1ccc(F)cc1

>  <score_type>  (34) 
oracle

>  <origin>  (34) 
adg

>  <m_score__min__energy>  (34) 
-6.6200000000000001

>  <m_primary>  (34) 
energy

$$$$
34:0
     RDKit          3D

 53 55  0  0  0  0  0  0  0  0999 V2000
   -0.8130   27.0320  -26.5200 C   0  0  0  0  0  0  0  0  0  0  0  0
   -1.5890   26.0400  -25.6390 C   0  0  2  0  0  0  0  0  0  0  0  0
   -0.6640   25.1380  -24.8100 C   0  0  0  0  0  0  0  0  0  0  0  0
   -0.0950   23.9920  -25.6430 C   0  0  0  0  0  0  0  0  0  0  0  0
   -1.2210   23.1910  -26.3110 C   0  0  0  0  0  0  0  0  0  0  0  0
   -2.1360   24.0260  -27.1240 N   0  0  2  0  0  0  0  0  0  0  0  0
   -1.6060   24.3350  -28.4380 C   0  0  0  0  0  0  0  0  0  0  0  0
   -0.5240   24.8840  -28.5460 O   0  0  0  0  0  0  0  0  0  0  0  0
   -2.3300   23.8590  -29.6870 C   0  0  0  0  0  0  0  0  0  0  0  0
   -3.7830   23.6300  -29.5240 N   0  0  0  0  0  0  0  0  0  0  0  0
   -4.2520   22.3530  -30.1000 C   0  0  0  0  0  0  0  0  0  0  0  0
   -5.7830   22.3130  -30.1610 C   0  0  0  0  0  0  0  0  0  0  0  0
   -6.3290   23.4030  -31.0020 N   0  0  0  0  0  0  0  0  0  0  0  0
   -6.8510   22.9660  -32.3220 C   0  0  0  0  0  0  0  0  0  0  0  0
   -6.9730   21.4540  -32.4780 C   0  0  0  0  0  0  0  0  0  0  0  0
   -5.9080   20.7150  -33.0300 C   0  0  0  0  0  0  0  0  0  0  0  0
   -4.7260   21.3050  -33.3310 F   0  0  0  0  0  0  0  0  0  0  0  0
   -6.0340   19.3400  -33.2520 C   0  0  0  0  0  0  0  0  0  0  0  0
   -7.2080   18.6770  -32.8980 C   0  0  0  0  0  0  0  0  0  0  0  0
   -8.2470   19.3800  -32.2900 C   0  0  0  0  0  0  0  0  0  0  0  0
   -8.1320   20.7570  -32.0620 C   0  0  0  0  0  0  0  0  0  0  0  0
   -9.4650   21.5580  -31.2250 Cl  0  0  0  0  0  0  0  0  0  0  0  0
   -5.5060   24.6340  -31.0450 C   0  0  0  0  0  0  0  0  0  0  0  0
   -4.6450   24.8070  -29.7830 C   0  0  0  0  0  0  0  0  0  0  0  0
   -2.6520   25.2190  -26.4110 C   0  0  0  0  0  0  0  0  0  0  0  0
   -0.2616   27.7369  -25.8804 H   0  0  0  0  0  0  0  0  0  0  0  0
   -0.1036   26.4812  -27.1551 H   0  0  0  0  0  0  0  0  0  0  0  0
   -1.5184   27.5879  -27.1551 H   0  0  0  0  0  0  0  0  0  0  0  0
   -2.1498   26.6685  -24.9315 H   0  0  0  0  0  0  0  0  0  0  0  0
    0.1683   25.7429  -24.4209 H   0  0  0  0  0  0  0  0  0  0  0  0
   -1.2545   24.7043  -23.9895 H   0  0  0  0  0  0  0  0  0  0  0  0
    0.5643   24.4046  -26.4209 H   0  0  0  0  0  0  0  0  0  0  0  0
    0.4690   23.3203  -24.9791 H   0  0  0  0  0  0  0  0  0  0  0  0
   -0.7678   22.4319  -26.9655 H   0  0  0  0  0  0  0  0  0  0  0  0
   -1.8211   22.7418  -25.5060 H   0  0  0  0  0  0  0  0  0  0  0  0
   -2.9770   23.4210  -27.2810 H   0  0  0  0  0  0  0  0  0  0  0  0
   -2.1909   24.6179  -30.4711 H   0  0  0  0  0  0  0  0  0  0  0  0
   -1.8932   22.8815  -29.9394 H   0  0  0  0  0  0  0  0  0  0  0  0
   -3.8477   22.2462  -31.1174 H   0  0  0  0  0  0  0  0  0  0  0  0
   -3.9030   21.5287  -29.4607 H   0  0  0  0  0  0  0  0  0  0  0  0
   -6.0974   21.3467  -30.5824 H   0  0  0  0  0  0  0  0  0  0  0  0
   -6.1692   22.4435  -29.1393 H   0  0  0  0  0  0  0  0  0  0  0  0
   -7.8483   23.4086  -32.4620 H   0  0  0  0  0  0  0  0  0  0  0  0
   -6.1245   23.3034  -33.0760 H   0  0  0  0  0  0  0  0  0  0  0  0
   -5.2040   18.7799  -33.7074 H   0  0  0  0  0  0  0  0  0  0  0  0
   -7.3144   17.6006  -33.0981 H   0  0  0  0  0  0  0  0  0  0  0  0
   -9.1623   18.8502  -31.9876 H   0  0  0  0  0  0  0  0  0  0  0  0
   -4.8429   24.5853  -31.9213 H   0  0  0  0  0  0  0  0  0  0  0  0
   -6.1902   25.4933  -31.1050 H   0  0  0  0  0  0  0  0  0  0  0  0
   -4.0052   25.6928  -29.9101 H   0  0  0  0  0  0  0  0  0  0  0  0
   -5.3244   24.9214  -28.9255 H   0  0  0  0  0  0  0  0  0  0  0  0
   -3.1205   25.8822  -27.1531 H   0  0  0  0  0  0  0  0  0  0  0  0
   -3.3536   24.8406  -25.6530 H   0  0  0  0  0  0  0  0  0  0  0  0
  1  2  1  0
  2  3  1  0
  3  4  1  0
  4  5  1  0
  5  6  1  0
  6  7  1  0
  7  8  2  0
  7  9  1  0
  9 10  1  0
 10 11  1  0
 11 12  1  0
 12 13  1  0
 13 14  1  0
 14 15  1  0
 15 16  2  0
 16 17  1  0
 16 18  1  0
 18 19  2  0
 19 20  1  0
 20 21  2  0
 21 22  1  0
 13 23  1  0
 23 24  1  0
  6 25  1  0
 25  2  1  0
 24 10  1  0
 21 15  1  0
  1 26  1  0
  1 27  1  0
  1 28  1  0
  2 29  1  1
  3 30  1  0
  3 31  1  0
  4 32  1  0
  4 33  1  0
  5 34  1  0
  5 35  1  0
  6 36  1  6
  9 37  1  0
  9 38  1  0
 11 39  1  0
 11 40  1  0
 12 41  1  0
 12 42  1  0
 14 43  1  0
 14 44  1  0
 18 45  1  0
 19 46  1  0
 20 47  1  0
 23 48  1  0
 23 49  1  0
 24 50  1  0
 24 51  1  0
 25 52  1  0
 25 53  1  0
M  CHG  1   6   1
M  END
>  <UniqueID>  (35) 
31

>  <SMILES>  (35) 
C[C@@H]1CCC[N@H+](C(=O)CN2CCN(Cc3c(F)cccc3Cl)CC2)C1

>  <Energy>  (35) 
78.03676310043916

>  <Genealogy>  (35) 
CC1CCC[NH+](C(=O)CN2CCN(Cc3c(F)cccc3Cl)CC2)C1 (protonated)
C[C@@H]1CCC[N@H+](C(=O)CN2CCN(Cc3c(F)cccc3Cl)CC2)C1 (chirality)
C[C@@H]1CCC[N@H+](C(=O)CN2CCN(Cc3c(F)cccc3Cl)CC2)C1 (3D coordinates assigned)
C[C@@H]1CCC[N@H+](C(=O)CN2CCN(Cc3c(F)cccc3Cl)CC2)C1 (nonaromatic ring conformer: 78.03676310043916 kcal/mol)

>  <smiles>  (35) 
CC1CCCN(C(=O)CN2CCN(Cc3c(F)cccc3Cl)CC2)C1

>  <score_type>  (35) 
oracle

>  <origin>  (35) 
adg

>  <m_score__min__energy>  (35) 
-8.4499999999999993

>  <m_primary>  (35) 
energy

$$$$
35:0
     RDKit          3D

 36 37  0  0  0  0  0  0  0  0999 V2000
   -1.9530   24.9760  -28.1900 C   0  0  0  0  0  0  0  0  0  0  0  0
   -2.7290   25.2930  -29.3410 O   0  0  0  0  0  0  0  0  0  0  0  0
   -3.7780   24.5030  -29.8310 C   0  0  0  0  0  0  0  0  0  0  0  0
   -5.0930   24.9320  -29.6130 C   0  0  0  0  0  0  0  0  0  0  0  0
   -6.1730   24.1800  -30.0820 C   0  0  0  0  0  0  0  0  0  0  0  0
   -5.9580   22.9800  -30.7810 C   0  0  0  0  0  0  0  0  0  0  0  0
   -7.1050   22.1790  -31.2800 C   0  0  0  0  0  0  0  0  0  0  0  0
   -8.3520   22.7840  -31.5160 C   0  0  0  0  0  0  0  0  0  0  0  0
   -9.4260   22.0290  -31.9910 C   0  0  0  0  0  0  0  0  0  0  0  0
   -9.2740   20.6620  -32.2290 C   0  0  0  0  0  0  0  0  0  0  0  0
   -8.0420   20.0320  -31.9870 C   0  0  0  0  0  0  0  0  0  0  0  0
   -7.8830   18.5830  -32.2520 C   0  0  0  0  0  0  0  0  0  0  0  0
   -8.7970   17.7910  -31.8920 O   0  0  0  0  0  0  0  0  0  0  0  0
   -6.7200   18.0580  -32.9230 N   0  0  0  0  0  0  0  0  0  0  0  0
   -6.8680   16.9110  -33.8180 C   0  0  0  0  0  0  0  0  0  0  0  0
   -5.3860   18.6190  -32.6930 C   0  0  0  0  0  0  0  0  0  0  0  0
   -6.9590   20.8010  -31.5290 C   0  0  0  0  0  0  0  0  0  0  0  0
   -4.6370   22.5490  -30.9990 C   0  0  0  0  0  0  0  0  0  0  0  0
   -3.5570   23.3010  -30.5300 C   0  0  0  0  0  0  0  0  0  0  0  0
   -2.5292   25.2114  -27.2831 H   0  0  0  0  0  0  0  0  0  0  0  0
   -1.7048   23.9044  -28.1989 H   0  0  0  0  0  0  0  0  0  0  0  0
   -1.0255   25.5673  -28.1989 H   0  0  0  0  0  0  0  0  0  0  0  0
   -5.2773   25.8694  -29.0677 H   0  0  0  0  0  0  0  0  0  0  0  0
   -7.2002   24.5302  -29.9026 H   0  0  0  0  0  0  0  0  0  0  0  0
   -8.4823   23.8594  -31.3251 H   0  0  0  0  0  0  0  0  0  0  0  0
  -10.3957   22.5133  -32.1784 H   0  0  0  0  0  0  0  0  0  0  0  0
  -10.1235   20.0749  -32.6081 H   0  0  0  0  0  0  0  0  0  0  0  0
   -6.9863   15.9939  -33.2222 H   0  0  0  0  0  0  0  0  0  0  0  0
   -7.7553   17.0531  -34.4525 H   0  0  0  0  0  0  0  0  0  0  0  0
   -5.9737   16.8232  -34.4525 H   0  0  0  0  0  0  0  0  0  0  0  0
   -5.2023   18.6963  -31.6112 H   0  0  0  0  0  0  0  0  0  0  0  0
   -4.6290   17.9630  -33.1476 H   0  0  0  0  0  0  0  0  0  0  0  0
   -5.3253   19.6188  -33.1476 H   0  0  0  0  0  0  0  0  0  0  0  0
   -5.9838   20.3199  -31.3627 H   0  0  0  0  0  0  0  0  0  0  0  0
   -4.4525   21.6113  -31.5437 H   0  0  0  0  0  0  0  0  0  0  0  0
   -2.5290   22.9523  -30.7077 H   0  0  0  0  0  0  0  0  0  0  0  0
  1  2  1  0
  2  3  1  0
  3  4  2  0
  4  5  1  0
  5  6  2  0
  6  7  1  0
  7  8  2  0
  8  9  1  0
  9 10  2  0
 10 11  1  0
 11 12  1  0
 12 13  2  0
 12 14  1  0
 14 15  1  0
 14 16  1  0
 11 17  2  0
  6 18  1  0
 18 19  2  0
 19  3  1  0
 17  7  1  0
  1 20  1  0
  1 21  1  0
  1 22  1  0
  4 23  1  0
  5 24  1  0
  8 25  1  0
  9 26  1  0
 10 27  1  0
 15 28  1  0
 15 29  1  0
 15 30  1  0
 16 31  1  0
 16 32  1  0
 16 33  1  0
 17 34  1  0
 18 35  1  0
 19 36  1  0
M  END
>  <UniqueID>  (36) 
32

>  <SMILES>  (36) 
COc1ccc(-c2cccc(C(=O)N(C)C)c2)cc1

>  <Energy>  (36) 
43.452570521429

>  <Genealogy>  (36) 
COc1ccc(-c2cccc(C(=O)N(C)C)c2)cc1 (3D coordinates assigned)
COc1ccc(-c2cccc(C(=O)N(C)C)c2)cc1 (optimized conformer: 43.452570521429 kcal/mol)

>  <smiles>  (36) 
COc1ccc(-c2cccc(C(=O)N(C)C)c2)cc1

>  <score_type>  (36) 
oracle

>  <origin>  (36) 
adg

>  <m_score__min__energy>  (36) 
-8.2300000000000004

>  <m_primary>  (36) 
energy

$$$$
36:0
     RDKit          3D

 36 38  0  0  0  0  0  0  0  0999 V2000
   -4.2220   25.3100  -31.2070 O   0  0  0  0  0  0  0  0  0  0  0  0
   -4.0400   25.0450  -29.9900 C   0  0  0  0  0  0  0  0  0  0  0  0
   -2.7940   25.2670  -29.4160 O   0  0  0  0  0  0  0  0  0  0  0  0
   -5.1690   24.5470  -29.1530 C   0  0  0  0  0  0  0  0  0  0  0  0
   -6.7220   24.6690  -30.0960 S   0  0  0  0  0  0  0  0  0  0  0  0
   -6.5010   23.0780  -30.8830 C   0  0  0  0  0  0  0  0  0  0  0  0
   -7.5700   22.2750  -31.1070 N   0  0  0  0  0  0  0  0  0  0  0  0
   -7.4240   21.0890  -31.6970 N   0  0  0  0  0  0  0  0  0  0  0  0
   -6.1990   20.6440  -32.1010 C   0  0  0  0  0  0  0  0  0  0  0  0
   -6.1040   19.3580  -32.8310 C   0  0  0  0  0  0  0  0  0  0  0  0
   -6.3270   18.1460  -32.1550 C   0  0  0  0  0  0  0  0  0  0  0  0
   -6.2420   16.9310  -32.8400 C   0  0  0  0  0  0  0  0  0  0  0  0
   -5.9440   16.9140  -34.2040 C   0  0  0  0  0  0  0  0  0  0  0  0
   -5.7340   18.1140  -34.8890 C   0  0  0  0  0  0  0  0  0  0  0  0
   -5.8200   19.3320  -34.2080 C   0  0  0  0  0  0  0  0  0  0  0  0
   -5.0730   21.4620  -31.8450 C   0  0  0  0  0  0  0  0  0  0  0  0
   -3.6860   21.0510  -32.1620 C   0  0  0  0  0  0  0  0  0  0  0  0
   -3.2030   21.1780  -33.4750 C   0  0  0  0  0  0  0  0  0  0  0  0
   -1.8930   20.8030  -33.7840 C   0  0  0  0  0  0  0  0  0  0  0  0
   -1.0480   20.3120  -32.7820 C   0  0  0  0  0  0  0  0  0  0  0  0
    0.5970   19.8410  -33.1720 Cl  0  0  0  0  0  0  0  0  0  0  0  0
   -1.5150   20.2030  -31.4680 C   0  0  0  0  0  0  0  0  0  0  0  0
   -2.8240   20.5780  -31.1560 C   0  0  0  0  0  0  0  0  0  0  0  0
   -5.2650   22.6680  -31.2520 N   0  0  0  0  0  0  0  0  0  0  0  0
   -4.9875   23.4972  -28.8793 H   0  0  0  0  0  0  0  0  0  0  0  0
   -5.2452   25.1556  -28.2398 H   0  0  0  0  0  0  0  0  0  0  0  0
   -8.2760   20.5120  -31.8710 H   0  0  0  0  0  0  0  0  0  0  0  0
   -6.5695   18.1540  -31.0821 H   0  0  0  0  0  0  0  0  0  0  0  0
   -6.4103   15.9857  -32.3033 H   0  0  0  0  0  0  0  0  0  0  0  0
   -5.8745   15.9558  -34.7397 H   0  0  0  0  0  0  0  0  0  0  0  0
   -5.5010   18.1002  -35.9640 H   0  0  0  0  0  0  0  0  0  0  0  0
   -5.6647   20.2752  -34.7523 H   0  0  0  0  0  0  0  0  0  0  0  0
   -3.8593   21.5746  -34.2637 H   0  0  0  0  0  0  0  0  0  0  0  0
   -1.5251   20.8938  -34.8167 H   0  0  0  0  0  0  0  0  0  0  0  0
   -0.8503   19.8213  -30.6790 H   0  0  0  0  0  0  0  0  0  0  0  0
   -3.1824   20.5031  -30.1187 H   0  0  0  0  0  0  0  0  0  0  0  0
  1  2  2  0
  2  3  1  0
  2  4  1  0
  4  5  1  0
  5  6  1  0
  6  7  2  0
  7  8  1  0
  8  9  2  0
  9 10  1  0
 10 11  2  0
 11 12  1  0
 12 13  2  0
 13 14  1  0
 14 15  2  0
  9 16  1  0
 16 17  1  0
 17 18  2  0
 18 19  1  0
 19 20  2  0
 20 21  1  0
 20 22  1  0
 22 23  2  0
 16 24  2  0
 24  6  1  0
 15 10  1  0
 23 17  1  0
  4 25  1  0
  4 26  1  0
  8 27  1  0
 11 28  1  0
 12 29  1  0
 13 30  1  0
 14 31  1  0
 15 32  1  0
 18 33  1  0
 19 34  1  0
 22 35  1  0
 23 36  1  0
M  CHG  2   3  -1   8   1
M  END
>  <UniqueID>  (37) 
33

>  <SMILES>  (37) 
O=C([O-])CSc1n[nH+]c(-c2ccccc2)c(-c2ccc(Cl)cc2)n1

>  <Energy>  (37) 
46.23855327563906

>  <Genealogy>  (37) 
O=C([O-])CSc1n[nH+]c(-c2ccccc2)c(-c2ccc(Cl)cc2)n1 (protonated)
O=C([O-])CSc1n[nH+]c(-c2ccccc2)c(-c2ccc(Cl)cc2)n1 (3D coordinates assigned)
O=C([O-])CSc1n[nH+]c(-c2ccccc2)c(-c2ccc(Cl)cc2)n1 (optimized conformer: 46.23855327563906 kcal/mol)

>  <smiles>  (37) 
O=C(O)CSc1nnc(-c2ccccc2)c(-c2ccc(Cl)cc2)n1

>  <score_type>  (37) 
oracle

>  <origin>  (37) 
adg

>  <m_score__min__energy>  (37) 
-10.43

>  <m_primary>  (37) 
energy

$$$$
37:0
     RDKit          3D

 39 40  0  0  0  0  0  0  0  0999 V2000
   -3.0590   24.2660  -27.4750 C   0  0  0  0  0  0  0  0  0  0  0  0
   -2.3120   24.9710  -28.5990 C   0  0  0  0  0  0  0  0  0  0  0  0
   -3.1730   25.1950  -29.7130 O   0  0  0  0  0  0  0  0  0  0  0  0
   -3.8870   24.1730  -30.3500 C   0  0  0  0  0  0  0  0  0  0  0  0
   -3.2370   23.2210  -31.0150 O   0  0  0  0  0  0  0  0  0  0  0  0
   -3.8510   22.2240  -31.6400 C   0  0  0  0  0  0  0  0  0  0  0  0
   -3.1570   21.3640  -32.2460 O   0  0  0  0  0  0  0  0  0  0  0  0
   -5.2550   22.1350  -31.6250 C   0  0  0  0  0  0  0  0  0  0  0  0
   -5.9370   21.0930  -32.2780 C   0  0  0  0  0  0  0  0  0  0  0  0
   -7.3360   21.0460  -32.2720 C   0  0  0  0  0  0  0  0  0  0  0  0
   -8.1980   19.6730  -33.0610 S   0  0  0  0  0  0  0  0  0  0  0  0
   -6.8380   18.5000  -33.1510 N   0  0  0  0  0  0  0  0  0  0  0  0
   -7.2390   17.1210  -32.8140 C   0  0  0  0  0  0  0  0  0  0  0  0
   -6.8620   16.1450  -33.9260 C   0  0  0  0  0  0  0  0  0  0  0  0
   -6.1060   18.5590  -34.4290 C   0  0  0  0  0  0  0  0  0  0  0  0
   -4.5940   18.5370  -34.2080 C   0  0  0  0  0  0  0  0  0  0  0  0
   -8.0560   22.0040  -31.5500 C   0  0  0  0  0  0  0  0  0  0  0  0
   -7.3910   23.0440  -30.8960 C   0  0  0  0  0  0  0  0  0  0  0  0
   -5.9870   23.1260  -30.9300 C   0  0  0  0  0  0  0  0  0  0  0  0
   -5.2860   24.1630  -30.2830 C   0  0  0  0  0  0  0  0  0  0  0  0
   -6.1120   25.4430  -29.3920 Cl  0  0  0  0  0  0  0  0  0  0  0  0
   -2.6821   24.6217  -26.5047 H   0  0  0  0  0  0  0  0  0  0  0  0
   -4.1337   24.4867  -27.5541 H   0  0  0  0  0  0  0  0  0  0  0  0
   -2.9008   23.1803  -27.5541 H   0  0  0  0  0  0  0  0  0  0  0  0
   -1.9368   25.9379  -28.2324 H   0  0  0  0  0  0  0  0  0  0  0  0
   -1.4749   24.3343  -28.9213 H   0  0  0  0  0  0  0  0  0  0  0  0
   -5.3668   20.3088  -32.7975 H   0  0  0  0  0  0  0  0  0  0  0  0
   -6.7338   16.8180  -31.8851 H   0  0  0  0  0  0  0  0  0  0  0  0
   -8.3316   17.0985  -32.6886 H   0  0  0  0  0  0  0  0  0  0  0  0
   -6.4993   15.2060  -33.4824 H   0  0  0  0  0  0  0  0  0  0  0  0
   -7.7454   15.9393  -34.5484 H   0  0  0  0  0  0  0  0  0  0  0  0
   -6.0697   16.5865  -34.5484 H   0  0  0  0  0  0  0  0  0  0  0  0
   -6.3902   17.6927  -35.0444 H   0  0  0  0  0  0  0  0  0  0  0  0
   -6.3680   19.5002  -34.9345 H   0  0  0  0  0  0  0  0  0  0  0  0
   -4.3812   18.5339  -33.1288 H   0  0  0  0  0  0  0  0  0  0  0  0
   -4.1693   17.6326  -34.6681 H   0  0  0  0  0  0  0  0  0  0  0  0
   -4.1432   19.4287  -34.6681 H   0  0  0  0  0  0  0  0  0  0  0  0
   -9.1527   21.9379  -31.4970 H   0  0  0  0  0  0  0  0  0  0  0  0
   -7.9693   23.8043  -30.3505 H   0  0  0  0  0  0  0  0  0  0  0  0
  1  2  1  0
  2  3  1  0
  3  4  1  0
  4  5  1  0
  5  6  1  0
  6  7  2  0
  6  8  1  0
  8  9  2  0
  9 10  1  0
 10 11  1  0
 11 12  1  0
 12 13  1  0
 13 14  1  0
 12 15  1  0
 15 16  1  0
 10 17  2  0
 17 18  1  0
 18 19  2  0
 19 20  1  0
 20 21  1  0
 20  4  2  0
 19  8  1  0
  1 22  1  0
  1 23  1  0
  1 24  1  0
  2 25  1  0
  2 26  1  0
  9 27  1  0
 13 28  1  0
 13 29  1  0
 14 30  1  0
 14 31  1  0
 14 32  1  0
 15 33  1  0
 15 34  1  0
 16 35  1  0
 16 36  1  0
 16 37  1  0
 17 38  1  0
 18 39  1  0
M  END
>  <UniqueID>  (38) 
34

>  <SMILES>  (38) 
CCOc1oc(=O)c2cc(SN(CC)CC)ccc2c1Cl

>  <Energy>  (38) 
40.32967072327234

>  <Genealogy>  (38) 
CCOc1oc(=O)c2cc(SN(CC)CC)ccc2c1Cl (3D coordinates assigned)
CCOc1oc(=O)c2cc(SN(CC)CC)ccc2c1Cl (optimized conformer: 40.32967072327234 kcal/mol)

>  <smiles>  (38) 
CCOc1oc(=O)c2cc(SN(CC)CC)ccc2c1Cl

>  <score_type>  (38) 
oracle

>  <origin>  (38) 
adg

>  <m_score__min__energy>  (38) 
-7.9500000000000002

>  <m_primary>  (38) 
energy

$$$$
38:0
     RDKit          3D

 26 27  0  0  0  0  0  0  0  0999 V2000
   -5.7280   26.0940  -31.2200 O   0  0  0  0  0  0  0  0  0  0  0  0
   -5.2480   24.8770  -30.4810 S   0  0  0  0  0  0  0  0  0  0  0  0
   -5.7830   24.9120  -29.0770 O   0  0  0  0  0  0  0  0  0  0  0  0
   -3.5140   24.8960  -30.4250 N   0  0  0  0  0  0  0  0  0  0  0  0
   -2.7080   24.1710  -29.4860 C   0  0  0  0  0  0  0  0  0  0  0  0
   -3.0310   22.8620  -29.0790 C   0  0  0  0  0  0  0  0  0  0  0  0
   -2.2130   22.1840  -28.1690 C   0  0  0  0  0  0  0  0  0  0  0  0
   -2.6270   20.5490  -27.6780 Cl  0  0  0  0  0  0  0  0  0  0  0  0
   -1.0700   22.8080  -27.6550 C   0  0  0  0  0  0  0  0  0  0  0  0
   -0.2710   22.1590  -26.7710 F   0  0  0  0  0  0  0  0  0  0  0  0
   -0.7490   24.1090  -28.0500 C   0  0  0  0  0  0  0  0  0  0  0  0
   -1.5640   24.7880  -28.9620 C   0  0  0  0  0  0  0  0  0  0  0  0
   -1.2360   26.0490  -29.3400 F   0  0  0  0  0  0  0  0  0  0  0  0
   -5.8100   23.4380  -31.3260 C   0  0  0  0  0  0  0  0  0  0  0  0
   -4.8940   22.6200  -32.0020 C   0  0  0  0  0  0  0  0  0  0  0  0
   -5.3360   21.4700  -32.6640 C   0  0  0  0  0  0  0  0  0  0  0  0
   -6.6940   21.1350  -32.6570 C   0  0  0  0  0  0  0  0  0  0  0  0
   -7.1200   20.0210  -33.2990 F   0  0  0  0  0  0  0  0  0  0  0  0
   -7.6110   21.9520  -31.9890 C   0  0  0  0  0  0  0  0  0  0  0  0
   -7.1710   23.1030  -31.3260 C   0  0  0  0  0  0  0  0  0  0  0  0
   -3.9304   22.3706  -29.4784 H   0  0  0  0  0  0  0  0  0  0  0  0
    0.1468   24.6007  -27.6429 H   0  0  0  0  0  0  0  0  0  0  0  0
   -3.8259   22.8830  -32.0118 H   0  0  0  0  0  0  0  0  0  0  0  0
   -4.6147   20.8281  -33.1909 H   0  0  0  0  0  0  0  0  0  0  0  0
   -8.6793   21.6898  -31.9846 H   0  0  0  0  0  0  0  0  0  0  0  0
   -7.8946   23.7462  -30.8038 H   0  0  0  0  0  0  0  0  0  0  0  0
  1  2  2  0
  2  3  2  0
  2  4  1  0
  4  5  1  0
  5  6  2  0
  6  7  1  0
  7  8  1  0
  7  9  2  0
  9 10  1  0
  9 11  1  0
 11 12  2  0
 12 13  1  0
  2 14  1  0
 14 15  2  0
 15 16  1  0
 16 17  2  0
 17 18  1  0
 17 19  1  0
 19 20  2  0
 12  5  1  0
 20 14  1  0
  6 21  1  0
 11 22  1  0
 15 23  1  0
 16 24  1  0
 19 25  1  0
 20 26  1  0
M  CHG  1   4  -1
M  END
>  <UniqueID>  (39) 
35

>  <SMILES>  (39) 
O=S(=O)([N-]c1cc(Cl)c(F)cc1F)c1ccc(F)cc1

>  <Energy>  (39) 
30.209747747060295

>  <Genealogy>  (39) 
O=S(=O)([N-]c1cc(Cl)c(F)cc1F)c1ccc(F)cc1 (protonated)
O=S(=O)([N-]c1cc(Cl)c(F)cc1F)c1ccc(F)cc1 (3D coordinates assigned)
O=S(=O)([N-]c1cc(Cl)c(F)cc1F)c1ccc(F)cc1 (optimized conformer: 30.209747747060295 kcal/mol)

>  <smiles>  (39) 
O=S(=O)(Nc1cc(Cl)c(F)cc1F)c1ccc(F)cc1

>  <score_type>  (39) 
oracle

>  <origin>  (39) 
adg

>  <m_score__min__energy>  (39) 
-8.5399999999999991

>  <m_primary>  (39) 
energy

$$$$
39:0
     RDKit          3D

 29 31  0  0  0  0  0  0  0  0999 V2000
   -9.0970   18.8810  -30.8080 O   0  0  0  0  0  0  0  0  0  0  0  0
   -8.7440   19.4880  -32.1370 S   0  0  0  0  0  0  0  0  0  0  0  0
   -9.8660   19.2320  -33.1050 O   0  0  0  0  0  0  0  0  0  0  0  0
   -7.2450   18.7700  -32.7160 C   0  0  0  0  0  0  0  0  0  0  0  0
   -6.7570   17.5800  -32.1550 C   0  0  0  0  0  0  0  0  0  0  0  0
   -5.5710   17.0130  -32.6340 C   0  0  0  0  0  0  0  0  0  0  0  0
   -4.8680   17.6310  -33.6720 C   0  0  0  0  0  0  0  0  0  0  0  0
   -5.3490   18.8180  -34.2310 C   0  0  0  0  0  0  0  0  0  0  0  0
   -6.5330   19.3880  -33.7550 C   0  0  0  0  0  0  0  0  0  0  0  0
   -8.5330   21.2220  -31.9650 C   0  0  0  0  0  0  0  0  0  0  0  0
   -9.4970   22.2090  -32.1410 C   0  0  0  0  0  0  0  0  0  0  0  0
   -8.9380   23.4120  -31.8870 N   0  0  0  0  0  0  0  0  0  0  0  0
   -7.6710   23.2160  -31.5580 N   0  0  0  0  0  0  0  0  0  0  0  0
   -6.7590   24.1630  -31.2210 C   0  0  0  0  0  0  0  0  0  0  0  0
   -5.4590   23.7450  -30.8960 C   0  0  0  0  0  0  0  0  0  0  0  0
   -4.2380   24.9230  -30.4520 Cl  0  0  0  0  0  0  0  0  0  0  0  0
   -5.1430   22.3720  -30.9270 C   0  0  0  0  0  0  0  0  0  0  0  0
   -6.1200   21.4260  -31.2810 C   0  0  0  0  0  0  0  0  0  0  0  0
   -7.3920   21.9030  -31.5940 C   0  0  0  0  0  0  0  0  0  0  0  0
   -7.3078   17.0921  -31.3373 H   0  0  0  0  0  0  0  0  0  0  0  0
   -5.1913   16.0795  -32.1931 H   0  0  0  0  0  0  0  0  0  0  0  0
   -3.9366   17.1832  -34.0487 H   0  0  0  0  0  0  0  0  0  0  0  0
   -4.7948   19.3046  -35.0471 H   0  0  0  0  0  0  0  0  0  0  0  0
   -6.9076   20.3235  -34.1961 H   0  0  0  0  0  0  0  0  0  0  0  0
  -10.5422   22.0380  -32.4381 H   0  0  0  0  0  0  0  0  0  0  0  0
   -9.4120   24.3420  -31.9330 H   0  0  0  0  0  0  0  0  0  0  0  0
   -7.0311   25.2287  -31.2031 H   0  0  0  0  0  0  0  0  0  0  0  0
   -4.1259   22.0389  -30.6727 H   0  0  0  0  0  0  0  0  0  0  0  0
   -5.8900   20.3507  -31.3100 H   0  0  0  0  0  0  0  0  0  0  0  0
  1  2  2  0
  2  3  2  0
  2  4  1  0
  4  5  2  0
  5  6  1  0
  6  7  2  0
  7  8  1  0
  8  9  2  0
  2 10  1  0
 10 11  1  0
 11 12  2  0
 12 13  1  0
 13 14  1  0
 14 15  2  0
 15 16  1  0
 15 17  1  0
 17 18  2  0
 18 19  1  0
  9  4  1  0
 19 10  2  0
 19 13  1  0
  5 20  1  0
  6 21  1  0
  7 22  1  0
  8 23  1  0
  9 24  1  0
 11 25  1  0
 12 26  1  0
 14 27  1  0
 17 28  1  0
 18 29  1  0
M  CHG  1  12   1
M  END
>  <UniqueID>  (40) 
36

>  <SMILES>  (40) 
O=S(=O)(c1ccccc1)c1c[nH+]n2cc(Cl)ccc12

>  <Energy>  (40) 
69.69061259244349

>  <Genealogy>  (40) 
O=S(=O)(c1ccccc1)c1c[nH+]n2cc(Cl)ccc12 (protonated)
O=S(=O)(c1ccccc1)c1c[nH+]n2cc(Cl)ccc12 (3D coordinates assigned)
O=S(=O)(c1ccccc1)c1c[nH+]n2cc(Cl)ccc12 (optimized conformer: 69.69061259244349 kcal/mol)

>  <smiles>  (40) 
O=S(=O)(c1ccccc1)c1cnn2cc(Cl)ccc12

>  <score_type>  (40) 
oracle

>  <origin>  (40) 
adg

>  <m_score__min__energy>  (40) 
-7.4000000000000004

>  <m_primary>  (40) 
energy

$$$$
40:0
     RDKit          3D

 36 37  0  0  0  0  0  0  0  0999 V2000
   -7.3202   16.9498  -33.3319 H   0  0  0  0  0  0  0  0  0  0  0  0
   -7.2030   18.0160  -33.0880 C   0  0  0  0  0  0  0  0  0  0  0  0
   -5.9470   18.6170  -33.1750 C   0  0  0  0  0  0  0  0  0  0  0  0
   -5.0764   18.0248  -33.4933 H   0  0  0  0  0  0  0  0  0  0  0  0
   -5.7920   19.9690  -32.8590 C   0  0  0  0  0  0  0  0  0  0  0  0
   -4.8018   20.4397  -32.9481 H   0  0  0  0  0  0  0  0  0  0  0  0
   -6.8960   20.7370  -32.4260 C   0  0  0  0  0  0  0  0  0  0  0  0
   -8.1660   20.1250  -32.3670 C   0  0  0  0  0  0  0  0  0  0  0  0
   -8.3100   18.7660  -32.6920 C   0  0  0  0  0  0  0  0  0  0  0  0
   -9.3005   18.2912  -32.6339 H   0  0  0  0  0  0  0  0  0  0  0  0
   -9.3610   20.9380  -31.9580 C   0  0  0  0  0  0  0  0  0  0  0  0
  -10.2429   20.2836  -31.8945 H   0  0  0  0  0  0  0  0  0  0  0  0
   -9.5358   21.7261  -32.7052 H   0  0  0  0  0  0  0  0  0  0  0  0
   -9.1100   21.5820  -30.5980 C   0  0  0  0  0  0  0  0  0  0  0  0
   -8.9784   20.7810  -29.8557 H   0  0  0  0  0  0  0  0  0  0  0  0
   -9.9796   22.2209  -30.3847 H   0  0  0  0  0  0  0  0  0  0  0  0
   -7.6280   22.6690  -30.5430 S   0  0  0  0  0  0  0  0  0  0  0  0
   -6.7990   22.2290  -32.1270 C   0  0  1  0  0  0  0  0  0  0  0  0
   -7.3130   22.7037  -32.9758 H   0  0  0  0  0  0  0  0  0  0  0  0
   -5.3780   22.7590  -32.0760 C   0  0  0  0  0  0  0  0  0  0  0  0
   -4.5990   22.5010  -33.0810 N   0  0  0  0  0  0  0  0  0  0  0  0
   -3.3280   21.8150  -33.0260 C   0  0  0  0  0  0  0  0  0  0  0  0
   -3.0403   21.6597  -31.9757 H   0  0  0  0  0  0  0  0  0  0  0  0
   -3.4148   20.8412  -33.5302 H   0  0  0  0  0  0  0  0  0  0  0  0
   -2.5616   22.4220  -33.5302 H   0  0  0  0  0  0  0  0  0  0  0  0
   -4.9230   23.5370  -30.8440 C   0  0  2  0  0  0  0  0  0  0  0  0
   -5.2432   22.9648  -29.9608 H   0  0  0  0  0  0  0  0  0  0  0  0
   -5.7360   25.2970  -30.8200 Br  0  0  0  0  0  0  0  0  0  0  0  0
   -3.5160   23.6750  -30.8020 O   0  0  0  0  0  0  0  0  0  0  0  0
   -2.9680   23.0160  -29.6740 C   0  0  0  0  0  0  0  0  0  0  0  0
   -2.1416   23.6179  -29.2680 H   0  0  0  0  0  0  0  0  0  0  0  0
   -2.5977   22.0271  -29.9821 H   0  0  0  0  0  0  0  0  0  0  0  0
   -4.0330   22.8340  -28.5990 C   0  0  0  0  0  0  0  0  0  0  0  0
   -3.5682   22.9134  -27.6052 H   0  0  0  0  0  0  0  0  0  0  0  0
   -4.8010   23.6139  -28.7080 H   0  0  0  0  0  0  0  0  0  0  0  0
   -4.4984   21.8433  -28.7080 H   0  0  0  0  0  0  0  0  0  0  0  0
  1  2  1  0
  2  3  2  0
  3  4  1  0
  3  5  1  0
  5  6  1  0
  5  7  2  0
  7  8  1  0
  8  9  2  0
  9 10  1  0
  8 11  1  0
 11 12  1  0
 11 13  1  0
 11 14  1  0
 14 15  1  0
 14 16  1  0
 14 17  1  0
 17 18  1  0
 18 19  1  6
 18 20  1  0
 20 21  2  0
 21 22  1  0
 22 23  1  0
 22 24  1  0
 22 25  1  0
 20 26  1  0
 26 27  1  1
 26 28  1  0
 26 29  1  0
 29 30  1  0
 30 31  1  0
 30 32  1  0
 30 33  1  0
 33 34  1  0
 33 35  1  0
 33 36  1  0
  9  2  1  0
 18  7  1  0
M  END
>  <UniqueID>  (41) 
37

>  <SMILES>  (41) 
CCO[C@@H](Br)/C(=N\C)[C@@H]1SCCc2ccccc21

>  <Energy>  (41) 
40.97544415568355

>  <Genealogy>  (41) 
CCO[C@@H](Br)C(=NC)[C@@H]1SCCc2ccccc21 (chirality)
CCO[C@@H](Br)/C(=N\C)[C@@H]1SCCc2ccccc21 (cis-trans isomerization)
CCO[C@@H](Br)/C(=N\C)[C@@H]1SCCc2ccccc21 (3D coordinates assigned)
CCO[C@@H](Br)/C(=N\C)[C@@H]1SCCc2ccccc21 (nonaromatic ring conformer: 40.97544415568355 kcal/mol)

>  <smiles>  (41) 
CCOC(Br)C(=NC)C1SCCc2ccccc21

>  <score_type>  (41) 
oracle

>  <origin>  (41) 
adg

>  <m_score__min__energy>  (41) 
-7.54

>  <m_primary>  (41) 
energy

$$$$
41:0
     RDKit          3D

 52 55  0  0  0  0  0  0  0  0999 V2000
    1.4170   15.7820  -27.7060 C   0  0  0  0  0  0  0  0  0  0  0  0
    1.0930   17.0320  -27.1100 O   0  0  0  0  0  0  0  0  0  0  0  0
    0.2700   17.9750  -27.7320 C   0  0  0  0  0  0  0  0  0  0  0  0
    0.5610   18.3880  -29.0340 C   0  0  0  0  0  0  0  0  0  0  0  0
   -0.2610   19.3290  -29.6580 C   0  0  0  0  0  0  0  0  0  0  0  0
   -1.3760   19.8430  -28.9800 C   0  0  0  0  0  0  0  0  0  0  0  0
   -2.2440   20.8610  -29.6140 C   0  0  0  0  0  0  0  0  0  0  0  0
   -3.2420   20.4250  -30.4970 C   0  0  0  0  0  0  0  0  0  0  0  0
   -4.1160   21.3490  -31.0870 C   0  0  0  0  0  0  0  0  0  0  0  0
   -5.2080   20.9110  -32.0400 C   0  0  0  0  0  0  0  0  0  0  0  0
   -6.5070   21.7440  -31.8770 C   0  0  0  0  0  0  0  0  0  0  0  0
   -7.6410   20.9410  -31.2180 C   0  0  0  0  0  0  0  0  0  0  0  0
   -7.9510   19.6760  -31.9330 N   0  0  0  0  0  0  0  0  0  0  0  0
   -9.0720   19.8490  -32.8700 C   0  0  0  0  0  0  0  0  0  0  0  0
   -6.7920   19.0480  -32.6140 C   0  0  0  0  0  0  0  0  0  0  0  0
   -5.4650   19.3960  -31.9340 C   0  0  0  0  0  0  0  0  0  0  0  0
   -3.9810   22.6700  -30.8020 N   0  0  0  0  0  0  0  0  0  0  0  0
   -3.0220   23.1450  -29.9630 C   0  0  0  0  0  0  0  0  0  0  0  0
   -2.9350   24.5260  -29.7240 C   0  0  0  0  0  0  0  0  0  0  0  0
   -3.8620   25.3770  -30.3470 O   0  0  0  0  0  0  0  0  0  0  0  0
   -5.2720   25.3100  -30.1570 C   0  0  0  0  0  0  0  0  0  0  0  0
   -1.9260   25.0150  -28.8760 C   0  0  0  0  0  0  0  0  0  0  0  0
   -1.0150   24.1400  -28.2840 C   0  0  0  0  0  0  0  0  0  0  0  0
   -1.1000   22.7670  -28.5200 C   0  0  0  0  0  0  0  0  0  0  0  0
   -2.1140   22.2470  -29.3480 C   0  0  0  0  0  0  0  0  0  0  0  0
   -1.6260   19.4120  -27.6700 C   0  0  0  0  0  0  0  0  0  0  0  0
   -0.8100   18.4960  -27.0840 N   0  0  0  0  0  0  0  0  0  0  0  0
    1.6096   15.0390  -26.9180 H   0  0  0  0  0  0  0  0  0  0  0  0
    0.5766   15.4447  -28.3305 H   0  0  0  0  0  0  0  0  0  0  0  0
    2.3154   15.8954  -28.3305 H   0  0  0  0  0  0  0  0  0  0  0  0
    1.4317   17.9750  -29.5644 H   0  0  0  0  0  0  0  0  0  0  0  0
   -0.0342   19.6666  -30.6800 H   0  0  0  0  0  0  0  0  0  0  0  0
   -3.3397   19.3539  -30.7277 H   0  0  0  0  0  0  0  0  0  0  0  0
   -4.8488   21.1110  -33.0603 H   0  0  0  0  0  0  0  0  0  0  0  0
   -6.2871   22.6223  -31.2523 H   0  0  0  0  0  0  0  0  0  0  0  0
   -6.8448   22.0377  -32.8818 H   0  0  0  0  0  0  0  0  0  0  0  0
   -7.3440   20.6969  -30.1874 H   0  0  0  0  0  0  0  0  0  0  0  0
   -8.5460   21.5655  -31.2488 H   0  0  0  0  0  0  0  0  0  0  0  0
  -10.0041   19.9929  -32.3040 H   0  0  0  0  0  0  0  0  0  0  0  0
   -8.8880   20.7294  -33.5033 H   0  0  0  0  0  0  0  0  0  0  0  0
   -9.1620   18.9541  -33.5033 H   0  0  0  0  0  0  0  0  0  0  0  0
   -6.9218   17.9558  -32.5999 H   0  0  0  0  0  0  0  0  0  0  0  0
   -6.7555   19.4330  -33.6438 H   0  0  0  0  0  0  0  0  0  0  0  0
   -5.5106   19.1063  -30.8738 H   0  0  0  0  0  0  0  0  0  0  0  0
   -4.6479   18.8526  -32.4310 H   0  0  0  0  0  0  0  0  0  0  0  0
   -5.4968   25.2993  -29.0803 H   0  0  0  0  0  0  0  0  0  0  0  0
   -5.7467   26.1866  -30.6220 H   0  0  0  0  0  0  0  0  0  0  0  0
   -5.6614   24.3923  -30.6220 H   0  0  0  0  0  0  0  0  0  0  0  0
   -1.8544   26.0947  -28.6780 H   0  0  0  0  0  0  0  0  0  0  0  0
   -0.2253   24.5343  -27.6276 H   0  0  0  0  0  0  0  0  0  0  0  0
   -0.3705   22.0866  -28.0564 H   0  0  0  0  0  0  0  0  0  0  0  0
   -2.4850   19.8161  -27.1143 H   0  0  0  0  0  0  0  0  0  0  0  0
  1  2  1  0
  2  3  1  0
  3  4  2  0
  4  5  1  0
  5  6  2  0
  6  7  1  0
  7  8  2  0
  8  9  1  0
  9 10  1  0
 10 11  1  0
 11 12  1  0
 12 13  1  0
 13 14  1  0
 13 15  1  0
 15 16  1  0
  9 17  2  0
 17 18  1  0
 18 19  2  0
 19 20  1  0
 20 21  1  0
 19 22  1  0
 22 23  2  0
 23 24  1  0
 24 25  2  0
  6 26  1  0
 26 27  2  0
 27  3  1  0
 25  7  1  0
 16 10  1  0
 25 18  1  0
  1 28  1  0
  1 29  1  0
  1 30  1  0
  4 31  1  0
  5 32  1  0
  8 33  1  0
 10 34  1  0
 11 35  1  0
 11 36  1  0
 12 37  1  0
 12 38  1  0
 14 39  1  0
 14 40  1  0
 14 41  1  0
 15 42  1  0
 15 43  1  0
 16 44  1  0
 16 45  1  0
 21 46  1  0
 21 47  1  0
 21 48  1  0
 22 49  1  0
 23 50  1  0
 24 51  1  0
 26 52  1  0
M  END
>  <UniqueID>  (42) 
38

>  <SMILES>  (42) 
COc1ccc(-c2cc(C3CCN(C)CC3)nc3c(OC)cccc23)cn1

>  <Energy>  (42) 
73.1429023610643

>  <Genealogy>  (42) 
COc1ccc(-c2cc(C3CCN(C)CC3)nc3c(OC)cccc23)cn1 (3D coordinates assigned)
COc1ccc(-c2cc(C3CCN(C)CC3)nc3c(OC)cccc23)cn1 (nonaromatic ring conformer: 73.1429023610643 kcal/mol)

>  <smiles>  (42) 
COc1ccc(-c2cc(C3CCN(C)CC3)nc3c(OC)cccc23)cn1

>  <score_type>  (42) 
oracle

>  <origin>  (42) 
adg

>  <m_score__min__energy>  (42) 
-8.4299999999999997

>  <m_primary>  (42) 
energy

$$$$
42:0
     RDKit          3D

 52 55  0  0  0  0  0  0  0  0999 V2000
   -6.4880   17.6030  -31.2290 C   0  0  0  0  0  0  0  0  0  0  0  0
   -6.3030   18.3620  -32.5040 C   0  0  0  0  0  0  0  0  0  0  0  0
   -5.3930   18.0790  -33.4480 N   0  0  0  0  0  0  0  0  0  0  0  0
   -5.5880   18.9170  -34.4230 O   0  0  0  0  0  0  0  0  0  0  0  0
   -6.5740   19.7410  -34.2000 N   0  0  0  0  0  0  0  0  0  0  0  0
   -7.0530   19.4160  -32.9820 C   0  0  0  0  0  0  0  0  0  0  0  0
   -8.2400   20.0700  -32.3400 C   0  0  0  0  0  0  0  0  0  0  0  0
   -7.9440   21.4730  -31.9990 N   0  0  0  0  0  0  0  0  0  0  0  0
   -9.1600   22.3060  -31.9780 C   0  0  0  0  0  0  0  0  0  0  0  0
   -7.1490   21.5960  -30.7520 C   0  0  0  0  0  0  0  0  0  0  0  0
   -6.4570   22.9450  -30.5800 C   0  0  0  0  0  0  0  0  0  0  0  0
   -7.2090   24.0140  -30.0550 C   0  0  0  0  0  0  0  0  0  0  0  0
   -6.6200   25.2570  -29.8170 C   0  0  0  0  0  0  0  0  0  0  0  0
   -5.2730   25.4590  -30.1060 C   0  0  0  0  0  0  0  0  0  0  0  0
   -4.5130   24.4230  -30.6500 C   0  0  0  0  0  0  0  0  0  0  0  0
   -5.0910   23.1670  -30.9080 C   0  0  0  0  0  0  0  0  0  0  0  0
   -4.2380   22.1380  -31.5410 C   0  0  0  0  0  0  0  0  0  0  0  0
   -3.3060   21.4270  -30.7700 C   0  0  0  0  0  0  0  0  0  0  0  0
   -2.4840   20.4660  -31.3630 C   0  0  0  0  0  0  0  0  0  0  0  0
   -2.5650   20.2120  -32.7440 C   0  0  0  0  0  0  0  0  0  0  0  0
   -1.6980   19.1860  -33.3760 C   0  0  0  0  0  0  0  0  0  0  0  0
   -0.3270   19.4340  -33.5830 C   0  0  0  0  0  0  0  0  0  0  0  0
    0.4850   18.4670  -34.1830 C   0  0  0  0  0  0  0  0  0  0  0  0
   -0.0600   17.2440  -34.5810 C   0  0  0  0  0  0  0  0  0  0  0  0
   -1.4170   16.9840  -34.3800 C   0  0  0  0  0  0  0  0  0  0  0  0
   -2.2340   17.9480  -33.7800 C   0  0  0  0  0  0  0  0  0  0  0  0
   -3.4780   20.9500  -33.5180 C   0  0  0  0  0  0  0  0  0  0  0  0
   -4.2990   21.9120  -32.9230 C   0  0  0  0  0  0  0  0  0  0  0  0
   -6.3240   18.2760  -30.3745 H   0  0  0  0  0  0  0  0  0  0  0  0
   -7.5107   17.2000  -31.1873 H   0  0  0  0  0  0  0  0  0  0  0  0
   -5.7655   16.7746  -31.1873 H   0  0  0  0  0  0  0  0  0  0  0  0
   -4.6680   17.3260  -33.4300 H   0  0  0  0  0  0  0  0  0  0  0  0
   -9.0896   20.0401  -33.0381 H   0  0  0  0  0  0  0  0  0  0  0  0
   -8.4847   19.5266  -31.4154 H   0  0  0  0  0  0  0  0  0  0  0  0
   -9.4503   22.5048  -30.9358 H   0  0  0  0  0  0  0  0  0  0  0  0
   -8.9610   23.2583  -32.4913 H   0  0  0  0  0  0  0  0  0  0  0  0
   -9.9761   21.7764  -32.4913 H   0  0  0  0  0  0  0  0  0  0  0  0
   -7.8236   21.4432  -29.8967 H   0  0  0  0  0  0  0  0  0  0  0  0
   -6.3535   20.8385  -30.8092 H   0  0  0  0  0  0  0  0  0  0  0  0
   -8.2756   23.8673  -29.8293 H   0  0  0  0  0  0  0  0  0  0  0  0
   -7.2212   26.0785  -29.4003 H   0  0  0  0  0  0  0  0  0  0  0  0
   -4.8079   26.4355  -29.9054 H   0  0  0  0  0  0  0  0  0  0  0  0
   -3.4503   24.5904  -30.8796 H   0  0  0  0  0  0  0  0  0  0  0  0
   -3.2222   21.6277  -29.6917 H   0  0  0  0  0  0  0  0  0  0  0  0
   -1.7681   19.9037  -30.7455 H   0  0  0  0  0  0  0  0  0  0  0  0
    0.1077   20.3949  -33.2705 H   0  0  0  0  0  0  0  0  0  0  0  0
    1.5545   18.6695  -34.3419 H   0  0  0  0  0  0  0  0  0  0  0  0
    0.5807   16.4848  -35.0534 H   0  0  0  0  0  0  0  0  0  0  0  0
   -1.8441   16.0201  -34.6938 H   0  0  0  0  0  0  0  0  0  0  0  0
   -3.3022   17.7376  -33.6227 H   0  0  0  0  0  0  0  0  0  0  0  0
   -3.5466   20.7687  -34.6008 H   0  0  0  0  0  0  0  0  0  0  0  0
   -4.9966   22.4948  -33.5425 H   0  0  0  0  0  0  0  0  0  0  0  0
  1  2  1  0
  2  3  2  0
  3  4  1  0
  4  5  1  0
  5  6  2  0
  6  7  1  0
  7  8  1  0
  8  9  1  0
  8 10  1  0
 10 11  1  0
 11 12  2  0
 12 13  1  0
 13 14  2  0
 14 15  1  0
 15 16  2  0
 16 17  1  0
 17 18  2  0
 18 19  1  0
 19 20  2  0
 20 21  1  0
 21 22  2  0
 22 23  1  0
 23 24  2  0
 24 25  1  0
 25 26  2  0
 20 27  1  0
 27 28  2  0
  6  2  1  0
 16 11  1  0
 28 17  1  0
 26 21  1  0
  1 29  1  0
  1 30  1  0
  1 31  1  0
  3 32  1  0
  7 33  1  0
  7 34  1  0
  9 35  1  0
  9 36  1  0
  9 37  1  0
 10 38  1  0
 10 39  1  0
 12 40  1  0
 13 41  1  0
 14 42  1  0
 15 43  1  0
 18 44  1  0
 19 45  1  0
 22 46  1  0
 23 47  1  0
 24 48  1  0
 25 49  1  0
 26 50  1  0
 27 51  1  0
 28 52  1  0
M  CHG  1   3   1
M  END
>  <UniqueID>  (43) 
39

>  <SMILES>  (43) 
Cc1[nH+]onc1CN(C)Cc1ccccc1-c1ccc(-c2ccccc2)cc1

>  <Energy>  (43) 
106.1386557013582

>  <Genealogy>  (43) 
Cc1[nH+]onc1CN(C)Cc1ccccc1-c1ccc(-c2ccccc2)cc1 (protonated)
Cc1[nH+]onc1CN(C)Cc1ccccc1-c1ccc(-c2ccccc2)cc1 (3D coordinates assigned)
Cc1[nH+]onc1CN(C)Cc1ccccc1-c1ccc(-c2ccccc2)cc1 (optimized conformer: 106.1386557013582 kcal/mol)

>  <smiles>  (43) 
Cc1nonc1CN(C)Cc1ccccc1-c1ccc(-c2ccccc2)cc1

>  <score_type>  (43) 
oracle

>  <origin>  (43) 
adg

>  <m_score__min__energy>  (43) 
-9.5

>  <m_primary>  (43) 
energy

$$$$
43:0
     RDKit          3D

 34 36  0  0  0  0  0  0  0  0999 V2000
   -1.9311   26.1283  -26.3380 H   0  0  0  0  0  0  0  0  0  0  0  0
   -1.9420   25.3100  -27.0730 C   0  0  0  0  0  0  0  0  0  0  0  0
   -0.9330   25.2220  -28.0360 C   0  0  0  0  0  0  0  0  0  0  0  0
   -0.1297   25.9731  -28.0599 H   0  0  0  0  0  0  0  0  0  0  0  0
   -0.9430   24.1810  -28.9690 C   0  0  0  0  0  0  0  0  0  0  0  0
   -0.1478   24.1163  -29.7263 H   0  0  0  0  0  0  0  0  0  0  0  0
   -1.9650   23.2170  -28.9430 C   0  0  0  0  0  0  0  0  0  0  0  0
   -1.9820   22.1110  -29.9640 C   0  0  0  0  0  0  0  0  0  0  0  0
   -2.4716   21.2261  -29.5314 H   0  0  0  0  0  0  0  0  0  0  0  0
   -0.9464   21.8704  -30.2462 H   0  0  0  0  0  0  0  0  0  0  0  0
   -2.7130   22.5300  -31.1580 N   0  0  0  0  0  0  0  0  0  0  0  0
   -3.8030   23.2420  -31.1540 C   0  0  0  0  0  0  0  0  0  0  0  0
   -3.7750   24.5730  -30.8450 N   0  0  0  0  0  0  0  0  0  0  0  0
   -4.8950   25.3070  -30.8420 N   0  0  0  0  0  0  0  0  0  0  0  0
   -6.1060   24.7610  -31.1420 C   0  0  0  0  0  0  0  0  0  0  0  0
   -7.0236   25.3676  -31.1390 H   0  0  0  0  0  0  0  0  0  0  0  0
   -6.1360   23.4070  -31.4520 C   0  0  0  0  0  0  0  0  0  0  0  0
   -7.1930   22.5930  -31.8010 C   0  0  0  0  0  0  0  0  0  0  0  0
   -8.6230   22.9960  -31.9670 C   0  0  0  0  0  0  0  0  0  0  0  0
   -9.0846   23.1261  -30.9770 H   0  0  0  0  0  0  0  0  0  0  0  0
   -8.6747   23.9437  -32.5231 H   0  0  0  0  0  0  0  0  0  0  0  0
   -9.1619   22.2148  -32.5231 H   0  0  0  0  0  0  0  0  0  0  0  0
   -6.7100   21.3530  -32.0330 N   0  0  0  0  0  0  0  0  0  0  0  0
   -7.2530   20.5120  -32.3310 H   0  0  0  0  0  0  0  0  0  0  0  0
   -5.3760   21.4300  -31.8120 C   0  0  0  0  0  0  0  0  0  0  0  0
   -4.4480   20.2660  -31.9700 C   0  0  0  0  0  0  0  0  0  0  0  0
   -4.1525   19.8953  -30.9774 H   0  0  0  0  0  0  0  0  0  0  0  0
   -4.9571   19.4638  -32.5243 H   0  0  0  0  0  0  0  0  0  0  0  0
   -3.5525   20.5836  -32.5243 H   0  0  0  0  0  0  0  0  0  0  0  0
   -5.0070   22.6830  -31.4550 N   0  0  0  0  0  0  0  0  0  0  0  0
   -2.9790   23.3150  -27.9750 C   0  0  0  0  0  0  0  0  0  0  0  0
   -3.7865   22.5685  -27.9497 H   0  0  0  0  0  0  0  0  0  0  0  0
   -2.9650   24.3580  -27.0440 C   0  0  0  0  0  0  0  0  0  0  0  0
   -3.7604   24.4295  -26.2875 H   0  0  0  0  0  0  0  0  0  0  0  0
  1  2  1  0
  2  3  2  0
  3  4  1  0
  3  5  1  0
  5  6  1  0
  5  7  2  0
  7  8  1  0
  8  9  1  0
  8 10  1  0
  8 11  1  0
 11 12  2  0
 12 13  1  0
 13 14  1  0
 14 15  2  0
 15 16  1  0
 15 17  1  0
 17 18  2  0
 18 19  1  0
 19 20  1  0
 19 21  1  0
 19 22  1  0
 18 23  1  0
 23 24  1  0
 23 25  2  0
 25 26  1  0
 26 27  1  0
 26 28  1  0
 26 29  1  0
 25 30  1  0
  7 31  1  0
 31 32  1  0
 31 33  2  0
 33 34  1  0
 33  2  1  0
 30 12  1  0
 30 17  1  0
M  CHG  2  13  -1  23   1
M  END
>  <UniqueID>  (44) 
40

>  <SMILES>  (44) 
Cc1[nH+]c(C)n2/c(=N/Cc3ccccc3)[n-]ncc12

>  <Energy>  (44) 
74.17506722814682

>  <Genealogy>  (44) 
Cc1[nH+]c(C)n2c(=NCc3ccccc3)[n-]ncc12 (protonated)
Cc1[nH+]c(C)n2/c(=N/Cc3ccccc3)[n-]ncc12 (cis-trans isomerization)
Cc1[nH+]c(C)n2/c(=N/Cc3ccccc3)[n-]ncc12 (3D coordinates assigned)
Cc1[nH+]c(C)n2/c(=N/Cc3ccccc3)[n-]ncc12 (optimized conformer: 74.17506722814682 kcal/mol)

>  <smiles>  (44) 
Cc1nc(C)n2c(=NCc3ccccc3)[nH]ncc12

>  <score_type>  (44) 
oracle

>  <origin>  (44) 
adg

>  <m_score__min__energy>  (44) 
-6.9699999999999998

>  <m_primary>  (44) 
energy

$$$$
44:0
     RDKit          3D

 53 56  0  0  1  0  0  0  0  0999 V2000
   -6.1100   18.5040  -34.8000 N   0  0  0  0  0  0  0  0  0  0  0  0
   -6.7890   18.3900  -33.5380 C   0  0  0  0  0  0  0  0  0  0  0  0
   -7.1270   17.2610  -33.0790 O   0  0  0  0  0  0  0  0  0  0  0  0
   -7.0720   19.6180  -32.8130 C   0  0  0  0  0  0  0  0  0  0  0  0
   -8.2990   19.8980  -32.2670 C   0  0  0  0  0  0  0  0  0  0  0  0
   -8.6130   21.0310  -31.5800 C   0  0  0  0  0  0  0  0  0  0  0  0
   -7.5860   21.9780  -31.4270 C   0  0  0  0  0  0  0  0  0  0  0  0
   -6.3620   21.7110  -31.9630 C   0  0  0  0  0  0  0  0  0  0  0  0
   -5.3360   22.6090  -31.8340 C   0  0  0  0  0  0  0  0  0  0  0  0
   -5.4180   23.6860  -31.2400 N   0  0  0  0  0  0  0  0  0  0  0  0
   -4.5160   24.3960  -30.5240 C   0  0  0  0  0  0  0  0  0  0  0  0
   -4.2480   25.6170  -30.8440 O   0  0  0  0  0  0  0  0  0  0  0  0
   -3.8230   23.7650  -29.3780 C   0  0  0  0  0  0  0  0  0  0  0  0
   -3.8540   22.4150  -29.1540 C   0  0  0  0  0  0  0  0  0  0  0  0
   -3.1790   21.8960  -28.0580 C   0  0  0  0  0  0  0  0  0  0  0  0
   -2.4720   22.6860  -27.1740 C   0  0  0  0  0  0  0  0  0  0  0  0
   -2.4460   24.0430  -27.4070 C   0  0  0  0  0  0  0  0  0  0  0  0
   -1.7580   24.9730  -26.5830 N   0  0  0  0  0  0  0  0  0  0  0  0
   -0.4450   25.3690  -27.0240 C   0  0  0  0  0  0  0  0  0  0  0  0
    0.0070   24.8690  -28.1090 O   0  0  0  0  0  0  0  0  0  0  0  0
    0.3350   26.3300  -26.2230 C   0  0  0  0  0  0  0  0  0  0  0  0
    0.6540   25.8020  -24.8410 C   0  0  0  0  0  0  0  0  0  0  0  0
   -0.6540   25.6580  -24.1180 C   0  0  0  0  0  0  0  0  0  0  0  0
   -1.0520   26.9940  -23.6960 N   0  0  0  0  0  0  0  0  0  0  0  0
   -0.5130   28.0120  -24.5640 C   0  0  0  0  0  0  0  0  0  0  0  0
   -0.5090   27.5690  -26.0270 C   0  0  0  0  0  0  0  0  0  0  0  0
   -3.1180   24.5530  -28.4960 C   0  0  0  0  0  0  0  0  0  0  0  0
   -4.1270   22.2930  -32.3920 N   0  0  0  0  0  0  0  0  0  0  0  0
   -3.8840   21.1630  -33.0550 C   0  0  0  0  0  0  0  0  0  0  0  0
   -4.8810   20.2760  -33.1890 N   0  0  0  0  0  0  0  0  0  0  0  0
   -6.0820   20.5550  -32.6520 C   0  0  0  0  0  0  0  0  0  0  0  0
   -6.6130   18.1970  -35.6790 H   0  0  0  0  0  0  0  0  0  0  0  0
   -5.1310   18.8920  -34.8340 H   0  0  0  0  0  0  0  0  0  0  0  0
   -9.0927   19.1472  -32.3944 H   0  0  0  0  0  0  0  0  0  0  0  0
   -9.6187   21.1965  -31.1661 H   0  0  0  0  0  0  0  0  0  0  0  0
   -7.7669   22.9176  -30.8845 H   0  0  0  0  0  0  0  0  0  0  0  0
   -4.4068   21.7500  -29.8339 H   0  0  0  0  0  0  0  0  0  0  0  0
   -3.2086   20.8098  -27.8866 H   0  0  0  0  0  0  0  0  0  0  0  0
   -1.9473   22.2466  -26.3128 H   0  0  0  0  0  0  0  0  0  0  0  0
   -2.1160   25.3780  -25.7120 H   0  0  0  0  0  0  0  0  0  0  0  0
    1.2757   26.5245  -26.7590 H   0  0  0  0  0  0  0  0  0  0  0  0
    1.1550   24.8255  -24.9152 H   0  0  0  0  0  0  0  0  0  0  0  0
    1.3283   26.4852  -24.3038 H   0  0  0  0  0  0  0  0  0  0  0  0
   -1.4131   25.2316  -24.7902 H   0  0  0  0  0  0  0  0  0  0  0  0
   -0.5548   24.9847  -23.2538 H   0  0  0  0  0  0  0  0  0  0  0  0
   -2.1030   27.0480  -23.6120 H   0  0  0  0  0  0  0  0  0  0  0  0
   -1.1252   28.9210  -24.4692 H   0  0  0  0  0  0  0  0  0  0  0  0
    0.5276   28.2019  -24.2621 H   0  0  0  0  0  0  0  0  0  0  0  0
   -1.5414   27.3524  -26.3387 H   0  0  0  0  0  0  0  0  0  0  0  0
   -0.0814   28.3803  -26.6345 H   0  0  0  0  0  0  0  0  0  0  0  0
   -3.0901   25.6390  -28.6688 H   0  0  0  0  0  0  0  0  0  0  0  0
   -3.3060   22.9660  -32.3150 H   0  0  0  0  0  0  0  0  0  0  0  0
   -2.8902   20.9626  -33.4819 H   0  0  0  0  0  0  0  0  0  0  0  0
  1  2  1  0
  2  3  2  0
  2  4  1  0
  4  5  2  0
  5  6  1  0
  6  7  2  0
  7  8  1  0
  8  9  1  0
  9 10  2  0
 10 11  1  0
 11 12  2  0
 11 13  1  0
 13 14  2  0
 14 15  1  0
 15 16  2  0
 16 17  1  0
 17 18  1  0
 18 19  1  0
 19 20  2  0
 19 21  1  0
 21 22  1  0
 22 23  1  0
 23 24  1  0
 24 25  1  0
 25 26  1  0
 17 27  2  0
  9 28  1  0
 28 29  1  0
 29 30  2  0
 30 31  1  0
 31  4  1  0
 31  8  2  0
 27 13  1  0
 26 21  1  0
  1 32  1  0
  1 33  1  0
  5 34  1  0
  6 35  1  0
  7 36  1  0
 14 37  1  0
 15 38  1  0
 16 39  1  0
 18 40  1  0
 21 41  1  0
 22 42  1  0
 22 43  1  0
 23 44  1  0
 23 45  1  0
 24 46  1  0
 25 47  1  0
 25 48  1  0
 26 49  1  0
 26 50  1  0
 27 51  1  0
 28 52  1  0
 29 53  1  0
M  END
>  <smiles>  (45) 
NC(=O)c1cccc2c(=NC(=O)c3cccc(NC(=O)C4CCNCC4)c3)[nH]cnc12

>  <score_type>  (45) 
oracle

>  <origin>  (45) 
adg

>  <m_score__min__energy>  (45) 
-10.789999999999999

>  <m_primary>  (45) 
energy

$$$$
45:0
     RDKit          3D

 25 26  0  0  0  0  0  0  0  0999 V2000
   -9.6503   21.5093  -32.8933 H   0  0  0  0  0  0  0  0  0  0  0  0
   -8.9040   21.1720  -32.1590 C   0  0  0  0  0  0  0  0  0  0  0  0
   -8.7950   21.8330  -31.0020 C   0  0  0  0  0  0  0  0  0  0  0  0
   -9.6344   21.8180  -30.2912 H   0  0  0  0  0  0  0  0  0  0  0  0
   -7.5500   22.5950  -30.6540 C   0  0  0  0  0  0  0  0  0  0  0  0
   -6.7805   21.8875  -30.3115 H   0  0  0  0  0  0  0  0  0  0  0  0
   -7.7945   23.3171  -29.8610 H   0  0  0  0  0  0  0  0  0  0  0  0
   -6.9120   23.5160  -32.0970 S   0  0  0  0  0  0  0  0  0  0  0  0
   -5.4000   24.0270  -31.2820 C   0  0  0  0  0  0  0  0  0  0  0  0
   -4.5600   23.1720  -30.6680 N   0  0  0  0  0  0  0  0  0  0  0  0
   -3.5960   24.0080  -30.2380 C   0  0  0  0  0  0  0  0  0  0  0  0
   -2.4220   23.5670  -29.4310 C   0  0  0  0  0  0  0  0  0  0  0  0
   -2.6587   23.6559  -28.3605 H   0  0  0  0  0  0  0  0  0  0  0  0
   -2.1865   22.5191  -29.6686 H   0  0  0  0  0  0  0  0  0  0  0  0
   -1.5548   24.2007  -29.6686 H   0  0  0  0  0  0  0  0  0  0  0  0
   -3.8440   25.2930  -30.5500 N   0  0  0  0  0  0  0  0  0  0  0  0
   -4.9850   25.3050  -31.2180 N   0  0  0  0  0  0  0  0  0  0  0  0
   -8.0620   20.0090  -32.4870 C   0  0  0  0  0  0  0  0  0  0  0  0
   -8.2960   18.4170  -31.9850 S   0  0  0  0  0  0  0  0  0  0  0  0
   -6.9610   17.7730  -32.7790 C   0  0  0  0  0  0  0  0  0  0  0  0
   -6.6518   16.7174  -32.7680 H   0  0  0  0  0  0  0  0  0  0  0  0
   -6.3160   18.8030  -33.4510 C   0  0  0  0  0  0  0  0  0  0  0  0
   -5.4085   18.6521  -34.0541 H   0  0  0  0  0  0  0  0  0  0  0  0
   -6.9290   20.0520  -33.2890 C   0  0  0  0  0  0  0  0  0  0  0  0
   -6.5504   20.9756  -33.7513 H   0  0  0  0  0  0  0  0  0  0  0  0
  1  2  1  0
  2  3  2  0
  3  4  1  0
  3  5  1  0
  5  6  1  0
  5  7  1  0
  5  8  1  0
  8  9  1  0
  9 10  2  0
 10 11  1  0
 11 12  1  0
 12 13  1  0
 12 14  1  0
 12 15  1  0
 11 16  2  0
 16 17  1  0
  2 18  1  0
 18 19  1  0
 19 20  1  0
 20 21  1  0
 20 22  2  0
 22 23  1  0
 22 24  1  0
 24 25  1  0
 17  9  1  0
 24 18  2  0
M  CHG  1  17  -1
M  END
>  <UniqueID>  (46) 
41

>  <SMILES>  (46) 
Cc1n[n-]c(SC/C=C/c2cccs2)n1

>  <Energy>  (46) 
74.41742249077267

>  <Genealogy>  (46) 
Cc1n[n-]c(SCC=Cc2cccs2)n1 (protonated)
Cc1n[n-]c(SC/C=C/c2cccs2)n1 (cis-trans isomerization)
Cc1n[n-]c(SC/C=C/c2cccs2)n1 (3D coordinates assigned)
Cc1n[n-]c(SC/C=C/c2cccs2)n1 (optimized conformer: 74.41742249077267 kcal/mol)

>  <smiles>  (46) 
Cc1n[nH]c(SCC=Cc2cccs2)n1

>  <score_type>  (46) 
oracle

>  <origin>  (46) 
adg

>  <m_score__min__energy>  (46) 
-8.0999999999999996

>  <m_primary>  (46) 
energy

$$$$
46:0
     RDKit          3D

 29 31  0  0  0  0  0  0  0  0999 V2000
   -3.5040   19.1080  -33.8810 N   0  0  0  0  0  0  0  0  0  0  0  0
   -4.7910   18.5600  -33.5580 C   0  0  0  0  0  0  0  0  0  0  0  0
   -5.0870   17.2590  -33.9970 C   0  0  0  0  0  0  0  0  0  0  0  0
   -6.2980   16.6500  -33.6670 C   0  0  0  0  0  0  0  0  0  0  0  0
   -6.6360   15.0190  -34.2180 Cl  0  0  0  0  0  0  0  0  0  0  0  0
   -7.2360   17.3320  -32.8940 C   0  0  0  0  0  0  0  0  0  0  0  0
   -6.9740   18.6410  -32.4580 C   0  0  0  0  0  0  0  0  0  0  0  0
   -7.9010   19.3670  -31.6970 C   0  0  0  0  0  0  0  0  0  0  0  0
   -9.0040   18.8570  -31.3610 O   0  0  0  0  0  0  0  0  0  0  0  0
   -7.6250   20.6070  -31.3220 O   0  0  0  0  0  0  0  0  0  0  0  0
   -6.4890   21.2180  -31.6410 C   0  0  0  0  0  0  0  0  0  0  0  0
   -6.2740   22.6110  -31.1800 C   0  0  0  0  0  0  0  0  0  0  0  0
   -7.3800   23.4060  -30.8290 C   0  0  0  0  0  0  0  0  0  0  0  0
   -7.1970   24.7190  -30.3840 C   0  0  0  0  0  0  0  0  0  0  0  0
   -5.9110   25.2500  -30.2750 C   0  0  0  0  0  0  0  0  0  0  0  0
   -5.7370   26.5230  -29.8420 F   0  0  0  0  0  0  0  0  0  0  0  0
   -4.8020   24.4660  -30.6060 C   0  0  0  0  0  0  0  0  0  0  0  0
   -3.5500   24.9740  -30.4840 F   0  0  0  0  0  0  0  0  0  0  0  0
   -4.9800   23.1510  -31.0520 C   0  0  0  0  0  0  0  0  0  0  0  0
   -5.5530   20.5640  -32.3920 N   0  0  0  0  0  0  0  0  0  0  0  0
   -5.7550   19.2730  -32.7940 C   0  0  0  0  0  0  0  0  0  0  0  0
   -2.6090   18.6870  -33.5530 H   0  0  0  0  0  0  0  0  0  0  0  0
   -3.4240   19.8820  -34.5770 H   0  0  0  0  0  0  0  0  0  0  0  0
   -4.3541   16.7130  -34.6092 H   0  0  0  0  0  0  0  0  0  0  0  0
   -8.1841   16.8436  -32.6247 H   0  0  0  0  0  0  0  0  0  0  0  0
   -8.3962   22.9919  -30.9051 H   0  0  0  0  0  0  0  0  0  0  0  0
   -8.0690   25.3350  -30.1192 H   0  0  0  0  0  0  0  0  0  0  0  0
   -4.1036   22.5359  -31.3040 H   0  0  0  0  0  0  0  0  0  0  0  0
   -4.7090   21.0890  -32.6990 H   0  0  0  0  0  0  0  0  0  0  0  0
  1  2  1  0
  2  3  2  0
  3  4  1  0
  4  5  1  0
  4  6  2  0
  6  7  1  0
  7  8  1  0
  8  9  2  0
  8 10  1  0
 10 11  1  0
 11 12  1  0
 12 13  2  0
 13 14  1  0
 14 15  2  0
 15 16  1  0
 15 17  1  0
 17 18  1  0
 17 19  2  0
 11 20  2  0
 20 21  1  0
 21  2  1  0
 21  7  2  0
 19 12  1  0
  1 22  1  0
  1 23  1  0
  3 24  1  0
  6 25  1  0
 13 26  1  0
 14 27  1  0
 19 28  1  0
 20 29  1  0
M  CHG  1  20   1
M  END
>  <UniqueID>  (47) 
42

>  <SMILES>  (47) 
Nc1cc(Cl)cc2c(=O)oc(-c3ccc(F)c(F)c3)[nH+]c12

>  <Energy>  (47) 
43.496223238216515

>  <Genealogy>  (47) 
Nc1cc(Cl)cc2c(=O)oc(-c3ccc(F)c(F)c3)[nH+]c12 (protonated)
Nc1cc(Cl)cc2c(=O)oc(-c3ccc(F)c(F)c3)[nH+]c12 (3D coordinates assigned)
Nc1cc(Cl)cc2c(=O)oc(-c3ccc(F)c(F)c3)[nH+]c12 (optimized conformer: 43.496223238216515 kcal/mol)

>  <smiles>  (47) 
Nc1cc(Cl)cc2c(=O)oc(-c3ccc(F)c(F)c3)nc12

>  <score_type>  (47) 
oracle

>  <origin>  (47) 
adg

>  <m_score__min__energy>  (47) 
-6.2199999999999998

>  <m_primary>  (47) 
energy

$$$$
47:0
     RDKit          3D

 50 52  0  0  0  0  0  0  0  0999 V2000
   -9.8010   22.4701  -30.7169 H   0  0  0  0  0  0  0  0  0  0  0  0
   -8.9300   21.9920  -31.1890 C   0  0  0  0  0  0  0  0  0  0  0  0
   -7.7920   22.7520  -31.4890 C   0  0  0  0  0  0  0  0  0  0  0  0
   -7.7330   24.1350  -31.2560 O   0  0  0  0  0  0  0  0  0  0  0  0
   -6.8590   24.7580  -30.3200 C   0  0  0  0  0  0  0  0  0  0  0  0
   -7.1890   24.5228  -29.2974 H   0  0  0  0  0  0  0  0  0  0  0  0
   -5.8351   24.3849  -30.4698 H   0  0  0  0  0  0  0  0  0  0  0  0
   -6.8778   25.8476  -30.4698 H   0  0  0  0  0  0  0  0  0  0  0  0
   -6.6720   22.1250  -32.0500 C   0  0  0  0  0  0  0  0  0  0  0  0
   -5.7902   22.7317  -32.3034 H   0  0  0  0  0  0  0  0  0  0  0  0
   -6.6440   20.7300  -32.3000 C   0  0  0  0  0  0  0  0  0  0  0  0
   -5.5150   20.0060  -32.8250 C   0  0  0  0  0  0  0  0  0  0  0  0
   -4.2920   20.4720  -32.9130 N   0  0  0  0  0  0  0  0  0  0  0  0
   -3.1400   20.4370  -32.0210 C   0  0  0  0  0  0  0  0  0  0  0  0
   -3.4837   20.3751  -30.9779 H   0  0  0  0  0  0  0  0  0  0  0  0
   -2.5200   19.5580  -32.2511 H   0  0  0  0  0  0  0  0  0  0  0  0
   -2.3190   21.7100  -32.2140 C   0  0  0  0  0  0  0  0  0  0  0  0
   -1.2756   21.4379  -32.4316 H   0  0  0  0  0  0  0  0  0  0  0  0
   -2.7447   22.2835  -33.0506 H   0  0  0  0  0  0  0  0  0  0  0  0
   -2.3590   22.5340  -31.0090 N   0  0  0  0  0  0  0  0  0  0  0  0
   -1.5540   22.4710  -30.3440 H   0  0  0  0  0  0  0  0  0  0  0  0
   -3.4230   23.4610  -30.7420 C   0  0  0  0  0  0  0  0  0  0  0  0
   -4.3460   23.6240  -31.5860 O   0  0  0  0  0  0  0  0  0  0  0  0
   -3.4480   24.2360  -29.4920 C   0  0  0  0  0  0  0  0  0  0  0  0
   -4.3110   23.9840  -28.6080 O   0  0  0  0  0  0  0  0  0  0  0  0
   -2.4910   25.2750  -29.2820 N   0  0  0  0  0  0  0  0  0  0  0  0
   -0.8630   24.9430  -28.6760 S   0  0  0  0  0  0  0  0  0  0  0  0
   -0.9240   26.2860  -27.4390 C   0  0  0  0  0  0  0  0  0  0  0  0
    0.0797   26.4186  -27.0088 H   0  0  0  0  0  0  0  0  0  0  0  0
   -1.2629   27.2010  -27.9469 H   0  0  0  0  0  0  0  0  0  0  0  0
   -1.9140   25.9780  -26.3040 C   0  0  0  0  0  0  0  0  0  0  0  0
   -1.3753   25.4665  -25.4927 H   0  0  0  0  0  0  0  0  0  0  0  0
   -2.3421   26.9312  -25.9603 H   0  0  0  0  0  0  0  0  0  0  0  0
   -3.0150   25.1250  -26.7500 N   0  0  0  0  0  0  0  0  0  0  0  0
   -2.6250   24.3080  -27.2750 H   0  0  0  0  0  0  0  0  0  0  0  0
   -3.6260   25.6650  -27.4040 H   0  0  0  0  0  0  0  0  0  0  0  0
   -5.7000   18.6510  -33.2080 C   0  0  0  0  0  0  0  0  0  0  0  0
   -4.6620   17.8930  -33.8000 C   0  0  0  0  0  0  0  0  0  0  0  0
   -3.6856   18.3624  -33.9905 H   0  0  0  0  0  0  0  0  0  0  0  0
   -4.8650   16.5540  -34.1450 C   0  0  0  0  0  0  0  0  0  0  0  0
   -4.0503   15.9785  -34.6087 H   0  0  0  0  0  0  0  0  0  0  0  0
   -6.0960   15.9440  -33.9040 C   0  0  0  0  0  0  0  0  0  0  0  0
   -6.3430   14.2620  -34.3370 Cl  0  0  0  0  0  0  0  0  0  0  0  0
   -7.1310   16.6740  -33.3160 C   0  0  0  0  0  0  0  0  0  0  0  0
   -8.1008   16.1919  -33.1232 H   0  0  0  0  0  0  0  0  0  0  0  0
   -6.9390   18.0170  -32.9710 C   0  0  0  0  0  0  0  0  0  0  0  0
   -7.9510   18.7010  -32.3910 N   0  0  0  0  0  0  0  0  0  0  0  0
   -7.8470   20.0090  -32.0550 C   0  0  0  0  0  0  0  0  0  0  0  0
   -8.9600   20.6350  -31.4870 C   0  0  0  0  0  0  0  0  0  0  0  0
   -9.8664   20.0492  -31.2743 H   0  0  0  0  0  0  0  0  0  0  0  0
  1  2  1  0
  2  3  2  0
  3  4  1  0
  4  5  1  0
  5  6  1  0
  5  7  1  0
  5  8  1  0
  3  9  1  0
  9 10  1  0
  9 11  2  0
 11 12  1  0
 12 13  2  0
 13 14  1  0
 14 15  1  0
 14 16  1  0
 14 17  1  0
 17 18  1  0
 17 19  1  0
 17 20  1  0
 20 21  1  0
 20 22  1  0
 22 23  2  0
 22 24  1  0
 24 25  2  0
 24 26  1  0
 26 27  1  0
 27 28  1  0
 28 29  1  0
 28 30  1  0
 28 31  1  0
 31 32  1  0
 31 33  1  0
 31 34  1  0
 34 35  1  0
 34 36  1  0
 12 37  1  0
 37 38  2  0
 38 39  1  0
 38 40  1  0
 40 41  1  0
 40 42  2  0
 42 43  1  0
 42 44  1  0
 44 45  1  0
 44 46  2  0
 46 47  1  0
 47 48  1  0
 48 49  2  0
 49 50  1  0
 49  2  1  0
 48 11  1  0
 46 37  1  0
M  CHG  2  26  -1  47  -1
M  END
>  <UniqueID>  (48) 
43

>  <SMILES>  (48) 
COc1ccc2[n-]c3cc(Cl)ccc3/c(=N/CCNC(=O)C(=O)[N-]SCCN)c2c1

>  <Energy>  (48) 
63.3102916215732

>  <Genealogy>  (48) 
COc1ccc2[n-]c3cc(Cl)ccc3c(=NCCNC(=O)C(=O)[N-]SCCN)c2c1 (protonated)
COc1ccc2[n-]c3cc(Cl)ccc3/c(=N/CCNC(=O)C(=O)[N-]SCCN)c2c1 (cis-trans isomerization)
COc1ccc2[n-]c3cc(Cl)ccc3/c(=N/CCNC(=O)C(=O)[N-]SCCN)c2c1 (3D coordinates assigned)
COc1ccc2[n-]c3cc(Cl)ccc3/c(=N/CCNC(=O)C(=O)[N-]SCCN)c2c1 (optimized conformer: 63.3102916215732 kcal/mol)

>  <smiles>  (48) 
COc1ccc2[nH]c3cc(Cl)ccc3c(=NCCNC(=O)C(=O)NSCCN)c2c1

>  <score_type>  (48) 
oracle

>  <origin>  (48) 
adg

>  <m_score__min__energy>  (48) 
-9.5600000000000005

>  <m_primary>  (48) 
energy

$$$$
48:0
     RDKit          3D

 34 36  0  0  0  0  0  0  0  0999 V2000
   -9.4420   20.4620  -32.3470 C   0  0  0  0  0  0  0  0  0  0  0  0
   -8.1120   21.1890  -32.1810 C   0  0  0  0  0  0  0  0  0  0  0  0
   -8.3260   22.6890  -31.9620 C   0  0  0  0  0  0  0  0  0  0  0  0
   -7.1710   23.2790  -31.2180 C   0  0  0  0  0  0  0  0  0  0  0  0
   -7.1990   24.5040  -30.6480 N   0  0  0  0  0  0  0  0  0  0  0  0
   -6.0470   24.7800  -29.9800 C   0  0  0  0  0  0  0  0  0  0  0  0
   -5.0980   23.7600  -30.0070 C   0  0  0  0  0  0  0  0  0  0  0  0
   -3.7760   23.7870  -29.3650 C   0  0  0  0  0  0  0  0  0  0  0  0
   -2.9970   24.9150  -29.4540 N   0  0  0  0  0  0  0  0  0  0  0  0
   -1.7620   24.9790  -28.8730 C   0  0  0  0  0  0  0  0  0  0  0  0
   -1.0640   26.0210  -28.9730 O   0  0  0  0  0  0  0  0  0  0  0  0
   -1.3160   23.8600  -28.1790 C   0  0  0  0  0  0  0  0  0  0  0  0
   -2.1020   22.7590  -28.1030 C   0  0  0  0  0  0  0  0  0  0  0  0
   -3.3240   22.6890  -28.6820 N   0  0  0  0  0  0  0  0  0  0  0  0
   -1.3940   21.8300  -27.3780 C   0  0  0  0  0  0  0  0  0  0  0  0
   -1.7970   20.4240  -27.0830 C   0  0  0  0  0  0  0  0  0  0  0  0
   -0.1950   22.3730  -27.0490 N   0  0  0  0  0  0  0  0  0  0  0  0
   -0.1590   23.6140  -27.5310 N   0  0  0  0  0  0  0  0  0  0  0  0
    0.9810   24.5110  -27.3840 C   0  0  0  0  0  0  0  0  0  0  0  0
   -5.7270   22.4750  -30.8960 S   0  0  0  0  0  0  0  0  0  0  0  0
   -9.8609   20.2330  -31.3560 H   0  0  0  0  0  0  0  0  0  0  0  0
  -10.1431   21.1023  -32.9024 H   0  0  0  0  0  0  0  0  0  0  0  0
   -9.2815   19.5262  -32.9024 H   0  0  0  0  0  0  0  0  0  0  0  0
   -7.5806   20.7716  -31.3130 H   0  0  0  0  0  0  0  0  0  0  0  0
   -7.5221   21.0512  -33.0992 H   0  0  0  0  0  0  0  0  0  0  0  0
   -8.4208   23.1875  -32.9379 H   0  0  0  0  0  0  0  0  0  0  0  0
   -9.2422   22.8354  -31.3712 H   0  0  0  0  0  0  0  0  0  0  0  0
   -5.8776   25.7339  -29.4591 H   0  0  0  0  0  0  0  0  0  0  0  0
   -1.8395   20.2756  -25.9939 H   0  0  0  0  0  0  0  0  0  0  0  0
   -2.7877   20.2274  -27.5188 H   0  0  0  0  0  0  0  0  0  0  0  0
   -1.0609   19.7325  -27.5188 H   0  0  0  0  0  0  0  0  0  0  0  0
    1.1855   24.6719  -26.3152 H   0  0  0  0  0  0  0  0  0  0  0  0
    1.8642   24.0631  -27.8629 H   0  0  0  0  0  0  0  0  0  0  0  0
    0.7534   25.4748  -27.8629 H   0  0  0  0  0  0  0  0  0  0  0  0
  1  2  1  0
  2  3  1  0
  3  4  1  0
  4  5  2  0
  5  6  1  0
  6  7  2  0
  7  8  1  0
  8  9  2  0
  9 10  1  0
 10 11  2  0
 10 12  1  0
 12 13  2  0
 13 14  1  0
 13 15  1  0
 15 16  1  0
 15 17  2  0
 17 18  1  0
 18 19  1  0
  7 20  1  0
 20  4  1  0
 14  8  1  0
 18 12  1  0
  1 21  1  0
  1 22  1  0
  1 23  1  0
  2 24  1  0
  2 25  1  0
  3 26  1  0
  3 27  1  0
  6 28  1  0
 16 29  1  0
 16 30  1  0
 16 31  1  0
 19 32  1  0
 19 33  1  0
 19 34  1  0
M  CHG  1  14  -1
M  END
>  <UniqueID>  (49) 
44

>  <SMILES>  (49) 
CCCc1ncc(-c2nc(=O)c3c([n-]2)c(C)nn3C)s1

>  <Energy>  (49) 
100.98150124907848

>  <Genealogy>  (49) 
CCCc1ncc(-c2nc(=O)c3c([n-]2)c(C)nn3C)s1 (protonated)
CCCc1ncc(-c2nc(=O)c3c([n-]2)c(C)nn3C)s1 (3D coordinates assigned)
CCCc1ncc(-c2nc(=O)c3c([n-]2)c(C)nn3C)s1 (optimized conformer: 100.98150124907848 kcal/mol)

>  <smiles>  (49) 
CCCc1ncc(-c2nc(=O)c3c([nH]2)c(C)nn3C)s1

>  <score_type>  (49) 
oracle

>  <origin>  (49) 
adg

>  <m_score__min__energy>  (49) 
-7.7300000000000004

>  <m_primary>  (49) 
energy

$$$$
49:0
     RDKit          3D

 38 41  0  0  0  0  0  0  0  0999 V2000
   -3.8470   25.0540  -30.3720 O   0  0  0  0  0  0  0  0  0  0  0  0
   -3.9240   23.8280  -30.6500 C   0  0  0  0  0  0  0  0  0  0  0  0
   -2.7720   22.9370  -30.4060 C   0  0  0  0  0  0  0  0  0  0  0  0
   -1.8380   23.2200  -29.3990 C   0  0  0  0  0  0  0  0  0  0  0  0
   -0.8540   22.2840  -29.0750 C   0  0  0  0  0  0  0  0  0  0  0  0
    0.4060   22.6610  -27.6900 Br  0  0  0  0  0  0  0  0  0  0  0  0
   -0.8130   21.0570  -29.7410 C   0  0  0  0  0  0  0  0  0  0  0  0
   -1.7290   20.7750  -30.7580 C   0  0  0  0  0  0  0  0  0  0  0  0
   -2.6950   21.7300  -31.1320 C   0  0  0  0  0  0  0  0  0  0  0  0
   -3.6410   21.5840  -32.3240 C   0  0  1  0  0  0  0  0  0  0  0  0
   -3.4610   20.3070  -33.1910 C   0  0  0  0  0  0  0  0  0  0  0  0
   -2.0630   20.1130  -33.7680 C   0  0  0  0  0  0  0  0  0  0  0  0
   -1.2200   21.2290  -33.9520 C   0  0  0  0  0  0  0  0  0  0  0  0
    0.0580   21.0800  -34.4950 C   0  0  0  0  0  0  0  0  0  0  0  0
    0.5080   19.8220  -34.8950 C   0  0  0  0  0  0  0  0  0  0  0  0
    2.1130   19.6390  -35.5780 Cl  0  0  0  0  0  0  0  0  0  0  0  0
   -0.3320   18.7130  -34.7750 C   0  0  0  0  0  0  0  0  0  0  0  0
   -1.6170   18.8490  -34.2340 C   0  0  0  0  0  0  0  0  0  0  0  0
   -2.6300   17.4070  -34.1910 Cl  0  0  0  0  0  0  0  0  0  0  0  0
   -5.0690   21.9740  -31.8830 C   0  0  0  0  0  0  0  0  0  0  0  0
   -6.2700   21.2610  -32.1770 C   0  0  0  0  0  0  0  0  0  0  0  0
   -6.3590   19.6050  -32.7730 Cl  0  0  0  0  0  0  0  0  0  0  0  0
   -7.5090   21.8460  -31.9040 C   0  0  0  0  0  0  0  0  0  0  0  0
   -7.5960   23.1010  -31.3170 C   0  0  0  0  0  0  0  0  0  0  0  0
   -6.4450   23.7850  -30.9350 C   0  0  0  0  0  0  0  0  0  0  0  0
   -6.6670   25.3090  -30.0800 Cl  0  0  0  0  0  0  0  0  0  0  0  0
   -5.1740   23.2220  -31.1940 C   0  0  0  0  0  0  0  0  0  0  0  0
   -1.8806   24.1802  -28.8640 H   0  0  0  0  0  0  0  0  0  0  0  0
   -0.0558   20.3088  -29.4636 H   0  0  0  0  0  0  0  0  0  0  0  0
   -1.6956   19.8017  -31.2695 H   0  0  0  0  0  0  0  0  0  0  0  0
   -3.3508   22.3082  -33.0994 H   0  0  0  0  0  0  0  0  0  0  0  0
   -3.6964   19.4335  -32.5653 H   0  0  0  0  0  0  0  0  0  0  0  0
   -4.1362   20.4215  -34.0518 H   0  0  0  0  0  0  0  0  0  0  0  0
   -1.5740   22.2299  -33.6640 H   0  0  0  0  0  0  0  0  0  0  0  0
    0.7117   21.9575  -34.6075 H   0  0  0  0  0  0  0  0  0  0  0  0
    0.0181   17.7248  -35.1079 H   0  0  0  0  0  0  0  0  0  0  0  0
   -8.4312   21.3030  -32.1585 H   0  0  0  0  0  0  0  0  0  0  0  0
   -8.5825   23.5589  -31.1523 H   0  0  0  0  0  0  0  0  0  0  0  0
  1  2  2  0
  2  3  1  0
  3  4  2  0
  4  5  1  0
  5  6  1  0
  5  7  2  0
  7  8  1  0
  8  9  2  0
  9 10  1  0
 10 11  1  0
 11 12  1  0
 12 13  2  0
 13 14  1  0
 14 15  2  0
 15 16  1  0
 15 17  1  0
 17 18  2  0
 18 19  1  0
 10 20  1  0
 20 21  2  0
 21 22  1  0
 21 23  1  0
 23 24  2  0
 24 25  1  0
 25 26  1  0
 25 27  2  0
 27  2  1  0
  9  3  1  0
 18 12  1  0
 27 20  1  0
  4 28  1  0
  7 29  1  0
  8 30  1  0
 10 31  1  6
 11 32  1  0
 11 33  1  0
 13 34  1  0
 14 35  1  0
 17 36  1  0
 23 37  1  0
 24 38  1  0
M  END
>  <UniqueID>  (50) 
45

>  <SMILES>  (50) 
O=C1c2cc(Br)ccc2[C@@H](Cc2ccc(Cl)cc2Cl)c2c(Cl)ccc(Cl)c21

>  <Energy>  (50) 
77.85313210023898

>  <Genealogy>  (50) 
O=C1c2cc(Br)ccc2[C@@H](Cc2ccc(Cl)cc2Cl)c2c(Cl)ccc(Cl)c21 (chirality)
O=C1c2cc(Br)ccc2[C@@H](Cc2ccc(Cl)cc2Cl)c2c(Cl)ccc(Cl)c21 (3D coordinates assigned)
O=C1c2cc(Br)ccc2[C@@H](Cc2ccc(Cl)cc2Cl)c2c(Cl)ccc(Cl)c21 (nonaromatic ring conformer: 77.85313210023898 kcal/mol)

>  <smiles>  (50) 
O=C1c2cc(Br)ccc2C(Cc2ccc(Cl)cc2Cl)c2c(Cl)ccc(Cl)c21

>  <score_type>  (50) 
oracle

>  <origin>  (50) 
adg

>  <m_score__min__energy>  (50) 
-10.050000000000001

>  <m_primary>  (50) 
energy

$$$$
