0:0
     RDKit          3D

 55 58  0  0  0  0  0  0  0  0999 V2000
   -9.9240   21.4940  -32.3230 C   0  0  0  0  0  0  0  0  0  0  0  0
   -9.4270   20.2370  -31.6040 C   0  0  0  0  0  0  0  0  0  0  0  0
   -9.4510   19.0490  -32.4700 N   0  0  0  0  0  0  0  0  0  0  0  0
   -8.7220   17.8950  -31.9080 C   0  0  0  0  0  0  0  0  0  0  0  0
   -7.2710   17.8130  -32.4090 C   0  0  0  0  0  0  0  0  0  0  0  0
   -6.9310   18.9600  -33.2530 N   0  0  0  0  0  0  0  0  0  0  0  0
   -5.6830   19.6440  -33.0770 C   0  0  0  0  0  0  0  0  0  0  0  0
   -5.6740   20.9720  -32.6260 C   0  0  0  0  0  0  0  0  0  0  0  0
   -4.4410   21.6220  -32.4040 C   0  0  0  0  0  0  0  0  0  0  0  0
   -3.2800   21.0690  -32.9050 N   0  0  0  0  0  0  0  0  0  0  0  0
   -2.1060   21.9230  -33.1890 C   0  0  0  0  0  0  0  0  0  0  0  0
   -3.2530   19.7370  -33.2680 C   0  0  0  0  0  0  0  0  0  0  0  0
   -2.0390   19.0740  -33.5730 C   0  0  0  0  0  0  0  0  0  0  0  0
   -2.0250   17.7220  -33.9150 C   0  0  0  0  0  0  0  0  0  0  0  0
   -3.2120   16.9970  -33.9540 C   0  0  0  0  0  0  0  0  0  0  0  0
   -4.4230   17.6230  -33.6600 C   0  0  0  0  0  0  0  0  0  0  0  0
   -4.4620   18.9930  -33.3320 C   0  0  0  0  0  0  0  0  0  0  0  0
   -4.4820   22.9450  -31.6960 C   0  0  0  0  0  0  0  0  0  0  0  0
   -5.6230   23.7540  -31.8710 C   0  0  0  0  0  0  0  0  0  0  0  0
   -5.6800   25.0230  -31.2880 C   0  0  0  0  0  0  0  0  0  0  0  0
   -4.6460   25.4600  -30.4660 C   0  0  0  0  0  0  0  0  0  0  0  0
   -3.5730   24.6170  -30.1680 C   0  0  0  0  0  0  0  0  0  0  0  0
   -2.5980   25.0840  -29.2950 O   0  0  0  0  0  0  0  0  0  0  0  0
   -3.5020   23.3240  -30.7460 C   0  0  0  0  0  0  0  0  0  0  0  0
   -2.5290   22.3740  -30.3830 O   0  0  0  0  0  0  0  0  0  0  0  0
   -2.1100   22.0530  -29.0620 C   0  0  0  0  0  0  0  0  0  0  0  0
   -6.7900   23.2210  -32.6580 C   0  0  0  0  0  0  0  0  0  0  0  0
   -6.9670   21.7230  -32.3730 C   0  0  0  0  0  0  0  0  0  0  0  0
  -10.2221   22.2480  -31.5796 H   0  0  0  0  0  0  0  0  0  0  0  0
   -9.1183   21.8988  -32.9530 H   0  0  0  0  0  0  0  0  0  0  0  0
  -10.7887   21.2383  -32.9530 H   0  0  0  0  0  0  0  0  0  0  0  0
   -8.3938   20.4079  -31.2674 H   0  0  0  0  0  0  0  0  0  0  0  0
  -10.1013   20.0472  -30.7559 H   0  0  0  0  0  0  0  0  0  0  0  0
   -9.1120   19.3020  -33.4280 H   0  0  0  0  0  0  0  0  0  0  0  0
   -8.7119   17.9844  -30.8117 H   0  0  0  0  0  0  0  0  0  0  0  0
   -9.2401   16.9815  -32.2352 H   0  0  0  0  0  0  0  0  0  0  0  0
   -6.5938   17.7933  -31.5424 H   0  0  0  0  0  0  0  0  0  0  0  0
   -7.1636   16.8977  -33.0096 H   0  0  0  0  0  0  0  0  0  0  0  0
   -7.4740   19.1440  -34.1260 H   0  0  0  0  0  0  0  0  0  0  0  0
   -1.6540   22.2518  -32.2416 H   0  0  0  0  0  0  0  0  0  0  0  0
   -1.3672   21.3498  -33.7683 H   0  0  0  0  0  0  0  0  0  0  0  0
   -2.4238   22.8024  -33.7683 H   0  0  0  0  0  0  0  0  0  0  0  0
   -1.0928   19.6340  -33.5396 H   0  0  0  0  0  0  0  0  0  0  0  0
   -1.0723   17.2271  -34.1547 H   0  0  0  0  0  0  0  0  0  0  0  0
   -3.1952   15.9290  -34.2170 H   0  0  0  0  0  0  0  0  0  0  0  0
   -5.3567   17.0419  -33.6844 H   0  0  0  0  0  0  0  0  0  0  0  0
   -6.5435   25.6771  -31.4793 H   0  0  0  0  0  0  0  0  0  0  0  0
   -4.6738   26.4770  -30.0477 H   0  0  0  0  0  0  0  0  0  0  0  0
   -2.7665   22.5559  -28.3367 H   0  0  0  0  0  0  0  0  0  0  0  0
   -2.1660   20.9645  -28.9139 H   0  0  0  0  0  0  0  0  0  0  0  0
   -1.0735   22.3904  -28.9139 H   0  0  0  0  0  0  0  0  0  0  0  0
   -7.7039   23.7590  -32.3660 H   0  0  0  0  0  0  0  0  0  0  0  0
   -6.6017   23.3672  -33.7319 H   0  0  0  0  0  0  0  0  0  0  0  0
   -7.2632   21.5880  -31.3223 H   0  0  0  0  0  0  0  0  0  0  0  0
   -7.7435   21.3252  -33.0429 H   0  0  0  0  0  0  0  0  0  0  0  0
  1  2  1  0
  2  3  1  0
  3  4  1  0
  4  5  1  0
  5  6  1  0
  6  7  1  0
  7  8  2  0
  8  9  1  0
  9 10  2  0
 10 11  1  0
 10 12  1  0
 12 13  2  0
 13 14  1  0
 14 15  2  0
 15 16  1  0
 16 17  2  0
  9 18  1  0
 18 19  2  0
 19 20  1  0
 20 21  2  0
 21 22  1  0
 22 23  1  0
 22 24  2  0
 24 25  1  0
 25 26  1  0
 19 27  1  0
 27 28  1  0
 17  7  1  0
 24 18  1  0
 28  8  1  0
 17 12  1  0
  1 29  1  0
  1 30  1  0
  1 31  1  0
  2 32  1  0
  2 33  1  0
  3 34  1  0
  4 35  1  0
  4 36  1  0
  5 37  1  0
  5 38  1  0
  6 39  1  0
 11 40  1  0
 11 41  1  0
 11 42  1  0
 13 43  1  0
 14 44  1  0
 15 45  1  0
 16 46  1  0
 20 47  1  0
 21 48  1  0
 26 49  1  0
 26 50  1  0
 26 51  1  0
 27 52  1  0
 27 53  1  0
 28 54  1  0
 28 55  1  0
M  CHG  2  10   1  23  -1
M  END
>  <UniqueID>  (1) 
1

>  <SMILES>  (1) 
CCNCCNc1c2c([n+](C)c3ccccc13)-c1c(ccc([O-])c1OC)CC2

>  <Energy>  (1) 
91.29850857317754

>  <Genealogy>  (1) 
CCNCCNc1c2c([n+](C)c3ccccc13)-c1c(ccc([O-])c1OC)CC2 (protonated)
CCNCCNc1c2c([n+](C)c3ccccc13)-c1c(ccc([O-])c1OC)CC2 (3D coordinates assigned)
CCNCCNc1c2c([n+](C)c3ccccc13)-c1c(ccc([O-])c1OC)CC2 (nonaromatic ring conformer: 91.29850857317754 kcal/mol)

>  <smiles>  (1) 
CCNCCNc1c2c([n+](C)c3ccccc13)-c1c(ccc(O)c1OC)CC2

>  <score_type>  (1) 
oracle

>  <origin>  (1) 
adg

>  <m_score__min__energy>  (1) 
-10.359999999999999

>  <m_primary>  (1) 
energy

$$$$
1:0
     RDKit          3D

 56 58  0  0  0  0  0  0  0  0999 V2000
   -1.1680   26.7710  -29.8870 H   0  0  0  0  0  0  0  0  0  0  0  0
   -1.2350   26.4340  -28.9000 N   0  0  0  0  0  0  0  0  0  0  0  0
   -1.3100   25.1760  -28.5990 C   0  0  0  0  0  0  0  0  0  0  0  0
   -1.4950   24.2640  -29.5870 N   0  0  0  0  0  0  0  0  0  0  0  0
   -1.5820   22.9270  -29.3450 C   0  0  0  0  0  0  0  0  0  0  0  0
   -1.7190   22.0140  -30.5030 C   0  0  0  0  0  0  0  0  0  0  0  0
   -0.6290   21.2290  -30.9090 C   0  0  0  0  0  0  0  0  0  0  0  0
    0.3186   21.2773  -30.3524 H   0  0  0  0  0  0  0  0  0  0  0  0
   -0.7430   20.3860  -32.0180 C   0  0  0  0  0  0  0  0  0  0  0  0
    0.1181   19.7807  -32.3376 H   0  0  0  0  0  0  0  0  0  0  0  0
   -1.9480   20.3100  -32.7220 C   0  0  0  0  0  0  0  0  0  0  0  0
   -2.0257   19.6621  -33.6075 H   0  0  0  0  0  0  0  0  0  0  0  0
   -3.0580   21.0570  -32.3030 C   0  0  0  0  0  0  0  0  0  0  0  0
   -4.3420   21.0220  -33.0870 C   0  0  0  0  0  0  0  0  0  0  0  0
   -5.0450   21.7590  -32.6714 H   0  0  0  0  0  0  0  0  0  0  0  0
   -4.1342   21.2645  -34.1396 H   0  0  0  0  0  0  0  0  0  0  0  0
   -4.9330   19.6820  -33.0030 N   0  0  0  0  0  0  0  0  0  0  0  0
   -5.1980   19.3810  -33.9720 H   0  0  0  0  0  0  0  0  0  0  0  0
   -6.1600   19.7060  -32.1980 C   0  0  0  0  0  0  0  0  0  0  0  0
   -6.6865   18.7466  -32.3092 H   0  0  0  0  0  0  0  0  0  0  0  0
   -5.8943   19.8681  -31.1430 H   0  0  0  0  0  0  0  0  0  0  0  0
   -7.0740   20.8410  -32.6630 C   0  0  0  0  0  0  0  0  0  0  0  0
   -6.6545   21.2970  -33.5719 H   0  0  0  0  0  0  0  0  0  0  0  0
   -8.0737   20.4344  -32.8758 H   0  0  0  0  0  0  0  0  0  0  0  0
   -7.1850   21.8760  -31.5990 N   0  0  0  0  0  0  0  0  0  0  0  0
   -6.7620   23.2130  -32.0800 C   0  0  0  0  0  0  0  0  0  0  0  0
   -6.2237   23.0952  -33.0321 H   0  0  0  0  0  0  0  0  0  0  0  0
   -7.6627   23.8310  -32.2095 H   0  0  0  0  0  0  0  0  0  0  0  0
   -5.8460   23.9120  -31.0770 C   0  0  0  0  0  0  0  0  0  0  0  0
   -6.1675   23.6667  -30.0540 H   0  0  0  0  0  0  0  0  0  0  0  0
   -4.8106   23.5723  -31.2274 H   0  0  0  0  0  0  0  0  0  0  0  0
   -5.9003   25.0003  -31.2274 H   0  0  0  0  0  0  0  0  0  0  0  0
   -8.5570   21.9490  -31.0450 C   0  0  0  0  0  0  0  0  0  0  0  0
   -8.5645   21.4928  -30.0441 H   0  0  0  0  0  0  0  0  0  0  0  0
   -8.8552   23.0064  -30.9915 H   0  0  0  0  0  0  0  0  0  0  0  0
   -9.5530   21.2100  -31.9370 C   0  0  0  0  0  0  0  0  0  0  0  0
  -10.2784   20.6718  -31.3091 H   0  0  0  0  0  0  0  0  0  0  0  0
  -10.0841   21.9343  -32.5721 H   0  0  0  0  0  0  0  0  0  0  0  0
   -9.0137   20.4918  -32.5721 H   0  0  0  0  0  0  0  0  0  0  0  0
   -2.9390   21.9070  -31.1930 C   0  0  0  0  0  0  0  0  0  0  0  0
   -3.8074   22.4944  -30.8601 H   0  0  0  0  0  0  0  0  0  0  0  0
   -1.5040   22.4560  -28.0090 C   0  0  0  0  0  0  0  0  0  0  0  0
   -1.6930   21.0290  -27.6560 C   0  0  0  0  0  0  0  0  0  0  0  0
   -0.6220   20.1240  -27.7440 C   0  0  0  0  0  0  0  0  0  0  0  0
    0.3649   20.4653  -28.0897 H   0  0  0  0  0  0  0  0  0  0  0  0
   -0.8200   18.7870  -27.3890 C   0  0  0  0  0  0  0  0  0  0  0  0
    0.0139   18.0725  -27.4539 H   0  0  0  0  0  0  0  0  0  0  0  0
   -2.0400   18.3680  -26.9640 N   0  0  0  0  0  0  0  0  0  0  0  0
   -3.0960   19.2200  -26.8770 C   0  0  0  0  0  0  0  0  0  0  0  0
   -4.0721   18.8506  -26.5294 H   0  0  0  0  0  0  0  0  0  0  0  0
   -2.9440   20.5630  -27.2280 C   0  0  0  0  0  0  0  0  0  0  0  0
   -3.8004   21.2509  -27.1690 H   0  0  0  0  0  0  0  0  0  0  0  0
   -1.2910   23.3870  -26.9820 C   0  0  0  0  0  0  0  0  0  0  0  0
   -1.2007   23.0420  -25.9414 H   0  0  0  0  0  0  0  0  0  0  0  0
   -1.1930   24.7470  -27.2720 C   0  0  0  0  0  0  0  0  0  0  0  0
   -1.0253   25.4760  -26.4655 H   0  0  0  0  0  0  0  0  0  0  0  0
  1  2  1  0
  2  3  2  0
  3  4  1  0
  4  5  1  0
  5  6  1  0
  6  7  2  0
  7  8  1  0
  7  9  1  0
  9 10  1  0
  9 11  2  0
 11 12  1  0
 11 13  1  0
 13 14  1  0
 14 15  1  0
 14 16  1  0
 14 17  1  0
 17 18  1  0
 17 19  1  0
 19 20  1  0
 19 21  1  0
 19 22  1  0
 22 23  1  0
 22 24  1  0
 22 25  1  0
 25 26  1  0
 26 27  1  0
 26 28  1  0
 26 29  1  0
 29 30  1  0
 29 31  1  0
 29 32  1  0
 25 33  1  0
 33 34  1  0
 33 35  1  0
 33 36  1  0
 36 37  1  0
 36 38  1  0
 36 39  1  0
 13 40  2  0
 40 41  1  0
  5 42  2  0
 42 43  1  0
 43 44  2  0
 44 45  1  0
 44 46  1  0
 46 47  1  0
 46 48  2  0
 48 49  1  0
 49 50  1  0
 49 51  2  0
 51 52  1  0
 42 53  1  0
 53 54  1  0
 53 55  2  0
 55 56  1  0
 55  3  1  0
 40  6  1  0
 51 43  1  0
M  CHG  1   4  -1
M  END
>  <UniqueID>  (2) 
2

>  <SMILES>  (2) 
[H]/N=c1\ccc(-c2ccncc2)c(-c2cccc(CNCCN(CC)CC)c2)[n-]1

>  <Energy>  (2) 
65.50900061152396

>  <Genealogy>  (2) 
CCN(CC)CCNCc1cccc(-c2[n-]c(=N)ccc2-c2ccncc2)c1 (protonated)
[H]/N=c1\ccc(-c2ccncc2)c(-c2cccc(CNCCN(CC)CC)c2)[n-]1 (cis-trans isomerization)
[H]/N=c1\ccc(-c2ccncc2)c(-c2cccc(CNCCN(CC)CC)c2)[n-]1 (3D coordinates assigned)
[H]/N=c1\ccc(-c2ccncc2)c(-c2cccc(CNCCN(CC)CC)c2)[n-]1 (optimized conformer: 65.50900061152396 kcal/mol)

>  <smiles>  (2) 
CCN(CC)CCNCc1cccc(-c2[nH]c(=N)ccc2-c2ccncc2)c1

>  <score_type>  (2) 
oracle

>  <origin>  (2) 
adg

>  <m_score__min__energy>  (2) 
-9.4900000000000002

>  <m_primary>  (2) 
energy

$$$$
2:0
     RDKit          3D

 52 55  0  0  0  0  0  0  0  0999 V2000
   -0.8760   20.6700  -34.2150 C   0  0  0  0  0  0  0  0  0  0  0  0
   -1.8650   20.2150  -33.2280 N   0  0  0  0  0  0  0  0  0  0  0  0
   -1.5130   18.8940  -32.6830 C   0  0  0  0  0  0  0  0  0  0  0  0
   -2.1510   21.2190  -32.1780 C   0  0  0  0  0  0  0  0  0  0  0  0
   -3.5070   21.9590  -32.3320 C   0  0  0  0  0  0  0  0  0  0  0  0
   -4.2590   21.4730  -33.5020 N   0  0  0  0  0  0  0  0  0  0  0  0
   -5.4270   20.7250  -33.0770 C   0  0  0  0  0  0  0  0  0  0  0  0
   -6.5420   21.3530  -32.4700 C   0  0  0  0  0  0  0  0  0  0  0  0
   -7.6440   20.5720  -32.0490 C   0  0  0  0  0  0  0  0  0  0  0  0
   -7.6970   19.2210  -32.3280 N   0  0  0  0  0  0  0  0  0  0  0  0
   -8.8990   18.4380  -31.9770 C   0  0  0  0  0  0  0  0  0  0  0  0
   -6.6260   18.5990  -32.9210 C   0  0  0  0  0  0  0  0  0  0  0  0
   -6.6410   17.2550  -33.1590 N   0  0  0  0  0  0  0  0  0  0  0  0
   -5.6030   16.6170  -33.7560 C   0  0  0  0  0  0  0  0  0  0  0  0
   -5.6490   15.2380  -33.9890 C   0  0  0  0  0  0  0  0  0  0  0  0
   -4.5690   14.6020  -34.6110 C   0  0  0  0  0  0  0  0  0  0  0  0
   -3.4460   15.3410  -35.0000 C   0  0  0  0  0  0  0  0  0  0  0  0
   -3.3960   16.7210  -34.7680 C   0  0  0  0  0  0  0  0  0  0  0  0
   -4.4740   17.3590  -34.1450 C   0  0  0  0  0  0  0  0  0  0  0  0
   -4.4470   18.6930  -33.9090 N   0  0  0  0  0  0  0  0  0  0  0  0
   -5.4840   19.3370  -33.3030 C   0  0  0  0  0  0  0  0  0  0  0  0
   -8.7730   21.2980  -31.3320 C   0  0  0  0  0  0  0  0  0  0  0  0
   -8.2100   22.3050  -30.3190 C   0  0  0  0  0  0  0  0  0  0  0  0
   -7.1320   23.2430  -30.9070 C   0  0  0  0  0  0  0  0  0  0  0  0
   -6.6730   22.8590  -32.3210 C   0  0  0  0  0  0  0  0  0  0  0  0
    0.0036   21.0747  -33.6930 H   0  0  0  0  0  0  0  0  0  0  0  0
   -0.5703   19.8220  -34.8454 H   0  0  0  0  0  0  0  0  0  0  0  0
   -1.3210   21.4539  -34.8454 H   0  0  0  0  0  0  0  0  0  0  0  0
   -1.5242   18.9360  -31.5839 H   0  0  0  0  0  0  0  0  0  0  0  0
   -2.2437   18.1481  -33.0289 H   0  0  0  0  0  0  0  0  0  0  0  0
   -0.5080   18.6106  -33.0289 H   0  0  0  0  0  0  0  0  0  0  0  0
   -2.1507   20.7054  -31.2052 H   0  0  0  0  0  0  0  0  0  0  0  0
   -1.3689   21.9876  -32.2654 H   0  0  0  0  0  0  0  0  0  0  0  0
   -4.1091   21.7934  -31.4264 H   0  0  0  0  0  0  0  0  0  0  0  0
   -3.3007   23.0299  -32.4756 H   0  0  0  0  0  0  0  0  0  0  0  0
   -3.6530   20.8940  -34.1240 H   0  0  0  0  0  0  0  0  0  0  0  0
   -4.5460   22.2850  -34.0940 H   0  0  0  0  0  0  0  0  0  0  0  0
   -8.9909   18.3781  -30.8825 H   0  0  0  0  0  0  0  0  0  0  0  0
   -9.7909   18.9289  -32.3935 H   0  0  0  0  0  0  0  0  0  0  0  0
   -8.8105   17.4238  -32.3935 H   0  0  0  0  0  0  0  0  0  0  0  0
   -6.5312   14.6559  -33.6842 H   0  0  0  0  0  0  0  0  0  0  0  0
   -4.6027   13.5180  -34.7948 H   0  0  0  0  0  0  0  0  0  0  0  0
   -2.6000   14.8362  -35.4895 H   0  0  0  0  0  0  0  0  0  0  0  0
   -2.5129   17.3010  -35.0743 H   0  0  0  0  0  0  0  0  0  0  0  0
   -9.3858   21.8337  -32.0719 H   0  0  0  0  0  0  0  0  0  0  0  0
   -9.3853   20.5588  -30.7946 H   0  0  0  0  0  0  0  0  0  0  0  0
   -9.0403   22.9220  -29.9450 H   0  0  0  0  0  0  0  0  0  0  0  0
   -7.7271   21.7216  -29.5212 H   0  0  0  0  0  0  0  0  0  0  0  0
   -7.5428   24.2628  -30.9418 H   0  0  0  0  0  0  0  0  0  0  0  0
   -6.2505   23.1631  -30.2539 H   0  0  0  0  0  0  0  0  0  0  0  0
   -7.4100   23.2282  -33.0494 H   0  0  0  0  0  0  0  0  0  0  0  0
   -5.6869   23.3122  -32.5005 H   0  0  0  0  0  0  0  0  0  0  0  0
  1  2  1  0
  2  3  1  0
  2  4  1  0
  4  5  1  0
  5  6  1  0
  6  7  1  0
  7  8  2  0
  8  9  1  0
  9 10  2  0
 10 11  1  0
 10 12  1  0
 12 13  2  0
 13 14  1  0
 14 15  2  0
 15 16  1  0
 16 17  2  0
 17 18  1  0
 18 19  2  0
 19 20  1  0
 20 21  2  0
  9 22  1  0
 22 23  1  0
 23 24  1  0
 24 25  1  0
 21  7  1  0
 25  8  1  0
 21 12  1  0
 19 14  1  0
  1 26  1  0
  1 27  1  0
  1 28  1  0
  3 29  1  0
  3 30  1  0
  3 31  1  0
  4 32  1  0
  4 33  1  0
  5 34  1  0
  5 35  1  0
  6 36  1  0
  6 37  1  0
 11 38  1  0
 11 39  1  0
 11 40  1  0
 15 41  1  0
 16 42  1  0
 17 43  1  0
 18 44  1  0
 22 45  1  0
 22 46  1  0
 23 47  1  0
 23 48  1  0
 24 49  1  0
 24 50  1  0
 25 51  1  0
 25 52  1  0
M  CHG  2   6   1  10   1
M  END
>  <UniqueID>  (3) 
3

>  <SMILES>  (3) 
CN(C)CC[NH2+]c1c2c([n+](C)c3nc4ccccc4nc13)CCCC2

>  <Energy>  (3) 
79.75252340906327

>  <Genealogy>  (3) 
CN(C)CC[NH2+]c1c2c([n+](C)c3nc4ccccc4nc13)CCCC2 (protonated)
CN(C)CC[NH2+]c1c2c([n+](C)c3nc4ccccc4nc13)CCCC2 (3D coordinates assigned)
CN(C)CC[NH2+]c1c2c([n+](C)c3nc4ccccc4nc13)CCCC2 (nonaromatic ring conformer: 79.75252340906327 kcal/mol)

>  <smiles>  (3) 
CN(C)CCNc1c2c([n+](C)c3nc4ccccc4nc13)CCCC2

>  <score_type>  (3) 
oracle

>  <origin>  (3) 
adg

>  <m_score__min__energy>  (3) 
-8.1099999999999994

>  <m_primary>  (3) 
energy

$$$$
3:0
     RDKit          3D

 43 44  0  0  0  0  0  0  0  0999 V2000
   -2.9130   24.5170  -27.3880 C   0  0  0  0  0  0  0  0  0  0  0  0
   -2.1830   24.9280  -28.6610 C   0  0  0  0  0  0  0  0  0  0  0  0
   -3.1120   25.2340  -29.7010 O   0  0  0  0  0  0  0  0  0  0  0  0
   -4.2190   24.4500  -30.0640 C   0  0  0  0  0  0  0  0  0  0  0  0
   -4.0980   23.1340  -30.5500 C   0  0  0  0  0  0  0  0  0  0  0  0
   -5.2380   22.4020  -30.8960 C   0  0  0  0  0  0  0  0  0  0  0  0
   -6.5100   22.9680  -30.7570 C   0  0  0  0  0  0  0  0  0  0  0  0
   -7.9340   22.0440  -31.2300 S   0  0  0  0  0  0  0  0  0  0  0  0
   -8.8520   21.9300  -30.0460 O   0  0  0  0  0  0  0  0  0  0  0  0
   -8.6640   22.7530  -32.3380 O   0  0  0  0  0  0  0  0  0  0  0  0
   -7.4480   20.4520  -31.7580 N   0  0  0  0  0  0  0  0  0  0  0  0
   -6.5550   20.5520  -32.9350 C   0  0  0  0  0  0  0  0  0  0  0  0
   -6.5900   19.3080  -33.8550 C   0  0  0  0  0  0  0  0  0  0  0  0
   -7.0320   18.0700  -33.1780 N   0  0  0  0  0  0  0  0  0  0  0  0
   -5.9550   17.1830  -32.6940 C   0  0  0  0  0  0  0  0  0  0  0  0
   -5.0460   16.6560  -33.8060 C   0  0  0  0  0  0  0  0  0  0  0  0
   -8.2150   18.1800  -32.2950 C   0  0  0  0  0  0  0  0  0  0  0  0
   -8.6350   19.6330  -32.0420 C   0  0  0  0  0  0  0  0  0  0  0  0
   -6.6350   24.2780  -30.2750 C   0  0  0  0  0  0  0  0  0  0  0  0
   -5.4970   25.0100  -29.9290 C   0  0  0  0  0  0  0  0  0  0  0  0
   -2.3337   24.8431  -26.5116 H   0  0  0  0  0  0  0  0  0  0  0  0
   -3.9067   24.9882  -27.3668 H   0  0  0  0  0  0  0  0  0  0  0  0
   -3.0255   23.4230  -27.3668 H   0  0  0  0  0  0  0  0  0  0  0  0
   -1.5682   25.8163  -28.4536 H   0  0  0  0  0  0  0  0  0  0  0  0
   -1.5483   24.0918  -28.9895 H   0  0  0  0  0  0  0  0  0  0  0  0
   -3.1020   22.6797  -30.6580 H   0  0  0  0  0  0  0  0  0  0  0  0
   -5.1343   21.3762  -31.2793 H   0  0  0  0  0  0  0  0  0  0  0  0
   -6.9220   20.0220  -30.9620 H   0  0  0  0  0  0  0  0  0  0  0  0
   -6.8578   21.4288  -33.5262 H   0  0  0  0  0  0  0  0  0  0  0  0
   -5.5278   20.6366  -32.5507 H   0  0  0  0  0  0  0  0  0  0  0  0
   -7.2803   19.5125  -34.6867 H   0  0  0  0  0  0  0  0  0  0  0  0
   -5.5579   19.1339  -34.1933 H   0  0  0  0  0  0  0  0  0  0  0  0
   -5.3376   17.7452  -31.9780 H   0  0  0  0  0  0  0  0  0  0  0  0
   -6.4403   16.3094  -32.2344 H   0  0  0  0  0  0  0  0  0  0  0  0
   -4.1760   16.1516  -33.3602 H   0  0  0  0  0  0  0  0  0  0  0  0
   -5.6047   15.9417  -34.4286 H   0  0  0  0  0  0  0  0  0  0  0  0
   -4.7037   17.4957  -34.4286 H   0  0  0  0  0  0  0  0  0  0  0  0
   -9.0552   17.6482  -32.7653 H   0  0  0  0  0  0  0  0  0  0  0  0
   -7.9453   17.7394  -31.3238 H   0  0  0  0  0  0  0  0  0  0  0  0
   -9.1452   20.0262  -32.9337 H   0  0  0  0  0  0  0  0  0  0  0  0
   -9.3162   19.6692  -31.1791 H   0  0  0  0  0  0  0  0  0  0  0  0
   -7.6319   24.7308  -30.1689 H   0  0  0  0  0  0  0  0  0  0  0  0
   -5.6046   26.0359  -29.5469 H   0  0  0  0  0  0  0  0  0  0  0  0
  1  2  1  0
  2  3  1  0
  3  4  1  0
  4  5  2  0
  5  6  1  0
  6  7  2  0
  7  8  1  0
  8  9  2  0
  8 10  2  0
  8 11  1  0
 11 12  1  0
 12 13  1  0
 13 14  1  0
 14 15  1  0
 15 16  1  0
 14 17  1  0
 17 18  1  0
  7 19  1  0
 19 20  2  0
 20  4  1  0
 18 11  1  0
  1 21  1  0
  1 22  1  0
  1 23  1  0
  2 24  1  0
  2 25  1  0
  5 26  1  0
  6 27  1  0
 11 28  1  0
 12 29  1  0
 12 30  1  0
 13 31  1  0
 13 32  1  0
 15 33  1  0
 15 34  1  0
 16 35  1  0
 16 36  1  0
 16 37  1  0
 17 38  1  0
 17 39  1  0
 18 40  1  0
 18 41  1  0
 19 42  1  0
 20 43  1  0
M  CHG  1  11   1
M  END
>  <UniqueID>  (4) 
4

>  <SMILES>  (4) 
CCOc1ccc(S(=O)(=O)[NH+]2CCN(CC)CC2)cc1

>  <Energy>  (4) 
51.94652573915059

>  <Genealogy>  (4) 
CCOc1ccc(S(=O)(=O)[NH+]2CCN(CC)CC2)cc1 (protonated)
CCOc1ccc(S(=O)(=O)[NH+]2CCN(CC)CC2)cc1 (3D coordinates assigned)
CCOc1ccc(S(=O)(=O)[NH+]2CCN(CC)CC2)cc1 (nonaromatic ring conformer: 51.94652573915059 kcal/mol)

>  <smiles>  (4) 
CCOc1ccc(S(=O)(=O)N2CCN(CC)CC2)cc1

>  <score_type>  (4) 
oracle

>  <origin>  (4) 
adg

>  <m_score__min__energy>  (4) 
-7.5

>  <m_primary>  (4) 
energy

$$$$
4:0
     RDKit          3D

 60 64  0  0  0  0  0  0  0  0999 V2000
   -3.7160   22.1620  -31.6760 C   0  0  0  0  0  0  0  0  0  0  0  0
   -4.2390   21.8370  -33.0710 C   0  0  0  0  0  0  0  0  0  0  0  0
   -5.4530   21.0190  -32.9820 N   0  0  0  0  0  0  0  0  0  0  0  0
   -6.6670   21.3900  -32.4990 C   0  0  0  0  0  0  0  0  0  0  0  0
   -7.0580   22.6460  -32.0240 C   0  0  0  0  0  0  0  0  0  0  0  0
   -8.3790   22.7950  -31.5540 C   0  0  0  0  0  0  0  0  0  0  0  0
   -9.2750   21.7020  -31.5580 C   0  0  0  0  0  0  0  0  0  0  0  0
   -8.8620   20.4450  -32.0330 C   0  0  0  0  0  0  0  0  0  0  0  0
   -7.5510   20.3240  -32.4970 C   0  0  0  0  0  0  0  0  0  0  0  0
   -6.8520   19.2440  -32.9880 C   0  0  0  0  0  0  0  0  0  0  0  0
   -7.2210   17.9160  -33.1820 C   0  0  0  0  0  0  0  0  0  0  0  0
   -6.2340   17.0450  -33.6880 C   0  0  0  0  0  0  0  0  0  0  0  0
   -6.5430   15.5920  -33.9000 C   0  0  0  0  0  0  0  0  0  0  0  0
   -5.3040   14.8470  -34.1590 N   0  0  0  0  0  0  0  0  0  0  0  0
   -4.9420   13.9710  -33.0270 C   0  0  0  0  0  0  0  0  0  0  0  0
   -3.5080   13.4160  -33.1220 C   0  0  0  0  0  0  0  0  0  0  0  0
   -2.4450   14.4420  -32.7070 C   0  0  0  0  0  0  0  0  0  0  0  0
   -2.7010   15.7320  -33.3660 N   0  0  0  0  0  0  0  0  0  0  0  0
   -1.8970   16.8070  -32.7670 C   0  0  0  0  0  0  0  0  0  0  0  0
   -1.1680   17.5530  -33.8450 C   0  0  0  0  0  0  0  0  0  0  0  0
   -0.6750   17.0140  -35.0250 C   0  0  0  0  0  0  0  0  0  0  0  0
   -0.1320   18.0070  -35.7660 N   0  0  0  0  0  0  0  0  0  0  0  0
   -0.3130   19.1240  -35.0350 C   0  0  0  0  0  0  0  0  0  0  0  0
    0.0810   20.4170  -35.3870 C   0  0  0  0  0  0  0  0  0  0  0  0
   -0.1970   21.4520  -34.4770 C   0  0  0  0  0  0  0  0  0  0  0  0
   -0.8520   21.1740  -33.2620 C   0  0  0  0  0  0  0  0  0  0  0  0
   -1.2300   19.8550  -32.9650 C   0  0  0  0  0  0  0  0  0  0  0  0
   -0.9390   18.8830  -33.8700 N   0  0  0  0  0  0  0  0  0  0  0  0
   -4.9670   17.5100  -33.9400 N   0  0  0  0  0  0  0  0  0  0  0  0
   -4.6120   18.8140  -33.7430 C   0  0  0  0  0  0  0  0  0  0  0  0
   -5.5810   19.6970  -33.2640 C   0  0  0  0  0  0  0  0  0  0  0  0
   -4.3961   21.7394  -30.9218 H   0  0  0  0  0  0  0  0  0  0  0  0
   -2.7133   21.7277  -31.5500 H   0  0  0  0  0  0  0  0  0  0  0  0
   -3.6614   23.2534  -31.5500 H   0  0  0  0  0  0  0  0  0  0  0  0
   -4.4706   22.7738  -33.5990 H   0  0  0  0  0  0  0  0  0  0  0  0
   -3.4687   21.2754  -33.6199 H   0  0  0  0  0  0  0  0  0  0  0  0
   -6.3557   23.4926  -32.0173 H   0  0  0  0  0  0  0  0  0  0  0  0
   -8.7160   23.7730  -31.1800 H   0  0  0  0  0  0  0  0  0  0  0  0
  -10.3019   21.8357  -31.1871 H   0  0  0  0  0  0  0  0  0  0  0  0
   -9.5488   19.5857  -32.0389 H   0  0  0  0  0  0  0  0  0  0  0  0
   -8.2365   17.5619  -32.9511 H   0  0  0  0  0  0  0  0  0  0  0  0
   -7.0295   15.1880  -32.9999 H   0  0  0  0  0  0  0  0  0  0  0  0
   -7.2140   15.4883  -34.7654 H   0  0  0  0  0  0  0  0  0  0  0  0
   -4.5300   15.5190  -34.3720 H   0  0  0  0  0  0  0  0  0  0  0  0
   -5.0320   14.5489  -32.0953 H   0  0  0  0  0  0  0  0  0  0  0  0
   -5.6270   13.1106  -33.0481 H   0  0  0  0  0  0  0  0  0  0  0  0
   -3.4261   12.5389  -32.4632 H   0  0  0  0  0  0  0  0  0  0  0  0
   -3.3230   13.1543  -34.1743 H   0  0  0  0  0  0  0  0  0  0  0  0
   -2.4777   14.5783  -31.6160 H   0  0  0  0  0  0  0  0  0  0  0  0
   -1.4533   14.0744  -33.0095 H   0  0  0  0  0  0  0  0  0  0  0  0
   -3.7100   15.9720  -33.2220 H   0  0  0  0  0  0  0  0  0  0  0  0
   -2.5580   17.4998  -32.2256 H   0  0  0  0  0  0  0  0  0  0  0  0
   -1.1678   16.3708  -32.0685 H   0  0  0  0  0  0  0  0  0  0  0  0
   -0.7186   15.9527  -35.3110 H   0  0  0  0  0  0  0  0  0  0  0  0
    0.3160   17.9240  -36.7060 H   0  0  0  0  0  0  0  0  0  0  0  0
    0.5901   20.6181  -36.3411 H   0  0  0  0  0  0  0  0  0  0  0  0
    0.0987   22.4843  -34.7154 H   0  0  0  0  0  0  0  0  0  0  0  0
   -1.0661   21.9849  -32.5503 H   0  0  0  0  0  0  0  0  0  0  0  0
   -1.7479   19.6143  -32.0249 H   0  0  0  0  0  0  0  0  0  0  0  0
   -3.5896   19.1592  -33.9562 H   0  0  0  0  0  0  0  0  0  0  0  0
  1  2  1  0
  2  3  1  0
  3  4  1  0
  4  5  2  0
  5  6  1  0
  6  7  2  0
  7  8  1  0
  8  9  2  0
  9 10  1  0
 10 11  2  0
 11 12  1  0
 12 13  1  0
 13 14  1  0
 14 15  1  0
 15 16  1  0
 16 17  1  0
 17 18  1  0
 18 19  1  0
 19 20  1  0
 20 21  2  0
 21 22  1  0
 22 23  2  0
 23 24  1  0
 24 25  2  0
 25 26  1  0
 26 27  2  0
 27 28  1  0
 12 29  2  0
 29 30  1  0
 30 31  2  0
 31  3  1  0
  9  4  1  0
 31 10  1  0
 28 20  1  0
 28 23  1  0
  1 32  1  0
  1 33  1  0
  1 34  1  0
  2 35  1  0
  2 36  1  0
  5 37  1  0
  6 38  1  0
  7 39  1  0
  8 40  1  0
 11 41  1  0
 13 42  1  0
 13 43  1  0
 14 44  1  0
 15 45  1  0
 15 46  1  0
 16 47  1  0
 16 48  1  0
 17 49  1  0
 17 50  1  0
 18 51  1  0
 19 52  1  0
 19 53  1  0
 21 54  1  0
 22 55  1  0
 24 56  1  0
 25 57  1  0
 26 58  1  0
 27 59  1  0
 30 60  1  0
M  CHG  1  22   1
M  END
>  <UniqueID>  (5) 
5

>  <SMILES>  (5) 
CCn1c2ccccc2c2cc(CNCCCNCc3c[nH+]c4ccccn34)ncc21

>  <Energy>  (5) 
138.44681620682846

>  <Genealogy>  (5) 
CCn1c2ccccc2c2cc(CNCCCNCc3c[nH+]c4ccccn34)ncc21 (protonated)
CCn1c2ccccc2c2cc(CNCCCNCc3c[nH+]c4ccccn34)ncc21 (3D coordinates assigned)
CCn1c2ccccc2c2cc(CNCCCNCc3c[nH+]c4ccccn34)ncc21 (optimized conformer: 138.44681620682846 kcal/mol)

>  <smiles>  (5) 
CCn1c2ccccc2c2cc(CNCCCNCc3cnc4ccccn34)ncc21

>  <score_type>  (5) 
oracle

>  <origin>  (5) 
adg

>  <m_score__min__energy>  (5) 
-10.43

>  <m_primary>  (5) 
energy

$$$$
5:0
     RDKit          3D

 46 48  0  0  0  0  0  0  0  0999 V2000
   -2.4950   25.6830  -25.6740 C   0  0  0  0  0  0  0  0  0  0  0  0
   -2.2990   25.1040  -27.0780 C   0  0  0  0  0  0  0  0  0  0  0  0
   -3.5750   24.7590  -27.7290 N   0  0  0  0  0  0  0  0  0  0  0  0
   -3.8610   23.3150  -27.6700 C   0  0  0  0  0  0  0  0  0  0  0  0
   -3.0530   22.5400  -28.7210 C   0  0  0  0  0  0  0  0  0  0  0  0
   -3.1570   23.1700  -30.0390 N   0  0  0  0  0  0  0  0  0  0  0  0
   -3.8150   22.5110  -31.1360 C   0  0  0  0  0  0  0  0  0  0  0  0
   -3.0930   21.6030  -31.9300 C   0  0  0  0  0  0  0  0  0  0  0  0
   -1.6840   21.5560  -31.8840 C   0  0  0  0  0  0  0  0  0  0  0  0
   -0.9750   20.6730  -32.6960 C   0  0  0  0  0  0  0  0  0  0  0  0
   -1.6530   19.8370  -33.5730 C   0  0  0  0  0  0  0  0  0  0  0  0
   -3.0460   19.8570  -33.6250 C   0  0  0  0  0  0  0  0  0  0  0  0
   -3.7970   20.7120  -32.7800 C   0  0  0  0  0  0  0  0  0  0  0  0
   -5.1780   20.6830  -32.7560 N   0  0  0  0  0  0  0  0  0  0  0  0
   -5.9020   19.5390  -33.3510 C   0  0  0  0  0  0  0  0  0  0  0  0
   -5.8780   21.7190  -32.1650 C   0  0  0  0  0  0  0  0  0  0  0  0
   -7.2780   21.8560  -32.3430 C   0  0  0  0  0  0  0  0  0  0  0  0
   -7.9870   22.8790  -31.7230 C   0  0  0  0  0  0  0  0  0  0  0  0
   -7.3200   23.8320  -30.9680 C   0  0  0  0  0  0  0  0  0  0  0  0
   -5.9310   23.7820  -30.8190 C   0  0  0  0  0  0  0  0  0  0  0  0
   -5.2820   24.9180  -30.2280 N   0  0  0  0  0  0  0  0  0  0  0  0
   -5.6070   25.2900  -29.0820 O   0  0  0  0  0  0  0  0  0  0  0  0
   -4.1170   25.4000  -30.7790 O   0  0  0  0  0  0  0  0  0  0  0  0
   -5.1990   22.6840  -31.3640 C   0  0  0  0  0  0  0  0  0  0  0  0
   -2.2370   24.9210  -24.9238 H   0  0  0  0  0  0  0  0  0  0  0  0
   -1.8437   26.5600  -25.5448 H   0  0  0  0  0  0  0  0  0  0  0  0
   -3.5451   25.9840  -25.5448 H   0  0  0  0  0  0  0  0  0  0  0  0
   -1.7771   25.8486  -27.6970 H   0  0  0  0  0  0  0  0  0  0  0  0
   -1.7131   24.1783  -26.9791 H   0  0  0  0  0  0  0  0  0  0  0  0
   -4.3570   25.2920  -27.2800 H   0  0  0  0  0  0  0  0  0  0  0  0
   -3.5110   25.0640  -28.7270 H   0  0  0  0  0  0  0  0  0  0  0  0
   -3.6003   22.9392  -26.6696 H   0  0  0  0  0  0  0  0  0  0  0  0
   -4.9310   23.1654  -27.8767 H   0  0  0  0  0  0  0  0  0  0  0  0
   -1.9963   22.5176  -28.4164 H   0  0  0  0  0  0  0  0  0  0  0  0
   -3.4585   21.5198  -28.7895 H   0  0  0  0  0  0  0  0  0  0  0  0
   -2.6800   24.0850  -30.1990 H   0  0  0  0  0  0  0  0  0  0  0  0
   -1.1392   22.2233  -31.2000 H   0  0  0  0  0  0  0  0  0  0  0  0
    0.1231   20.6382  -32.6421 H   0  0  0  0  0  0  0  0  0  0  0  0
   -1.0894   19.1569  -34.2287 H   0  0  0  0  0  0  0  0  0  0  0  0
   -3.5707   19.1987  -34.3331 H   0  0  0  0  0  0  0  0  0  0  0  0
   -6.3047   18.9028  -32.5491 H   0  0  0  0  0  0  0  0  0  0  0  0
   -6.7289   19.9119  -33.9733 H   0  0  0  0  0  0  0  0  0  0  0  0
   -5.2110   18.9513  -33.9733 H   0  0  0  0  0  0  0  0  0  0  0  0
   -7.8133   21.1396  -32.9835 H   0  0  0  0  0  0  0  0  0  0  0  0
   -9.0803   22.9325  -31.8318 H   0  0  0  0  0  0  0  0  0  0  0  0
   -7.8905   24.6365  -30.4808 H   0  0  0  0  0  0  0  0  0  0  0  0
  1  2  1  0
  2  3  1  0
  3  4  1  0
  4  5  1  0
  5  6  1  0
  6  7  1  0
  7  8  2  0
  8  9  1  0
  9 10  2  0
 10 11  1  0
 11 12  2  0
 12 13  1  0
 13 14  2  0
 14 15  1  0
 14 16  1  0
 16 17  2  0
 17 18  1  0
 18 19  2  0
 19 20  1  0
 20 21  1  0
 21 22  2  0
 21 23  1  0
 20 24  2  0
 24  7  1  0
 13  8  1  0
 24 16  1  0
  1 25  1  0
  1 26  1  0
  1 27  1  0
  2 28  1  0
  2 29  1  0
  3 30  1  0
  3 31  1  0
  4 32  1  0
  4 33  1  0
  5 34  1  0
  5 35  1  0
  6 36  1  0
  9 37  1  0
 10 38  1  0
 11 39  1  0
 12 40  1  0
 15 41  1  0
 15 42  1  0
 15 43  1  0
 17 44  1  0
 18 45  1  0
 19 46  1  0
M  CHG  4   3   1  14   1  21   1  23  -1
M  END
>  <UniqueID>  (6) 
6

>  <SMILES>  (6) 
CC[NH2+]CCNc1c2ccccc2[n+](C)c2cccc([N+](=O)[O-])c12

>  <Energy>  (6) 
80.69028066620874

>  <Genealogy>  (6) 
CC[NH2+]CCNc1c2ccccc2[n+](C)c2cccc([N+](=O)[O-])c12 (protonated)
CC[NH2+]CCNc1c2ccccc2[n+](C)c2cccc([N+](=O)[O-])c12 (3D coordinates assigned)
CC[NH2+]CCNc1c2ccccc2[n+](C)c2cccc([N+](=O)[O-])c12 (optimized conformer: 80.69028066620874 kcal/mol)

>  <smiles>  (6) 
CCNCCNc1c2ccccc2[n+](C)c2cccc([N+](=O)[O-])c12

>  <score_type>  (6) 
oracle

>  <origin>  (6) 
adg

>  <m_score__min__energy>  (6) 
-7.2699999999999996

>  <m_primary>  (6) 
energy

$$$$
6:0
     RDKit          3D

 52 54  0  0  0  0  0  0  0  0999 V2000
    0.6860   18.7410  -28.0320 C   0  0  0  0  0  0  0  0  0  0  0  0
   -0.7330   18.8470  -27.4720 C   0  0  0  0  0  0  0  0  0  0  0  0
   -1.3610   20.1700  -27.6830 N   0  0  0  0  0  0  0  0  0  0  0  0
   -2.7370   20.2770  -27.1480 C   0  0  0  0  0  0  0  0  0  0  0  0
   -3.1560   18.9810  -26.4550 C   0  0  0  0  0  0  0  0  0  0  0  0
   -0.4600   21.3310  -27.4640 C   0  0  0  0  0  0  0  0  0  0  0  0
   -1.0070   22.4070  -26.5040 C   0  0  0  0  0  0  0  0  0  0  0  0
   -0.4620   23.6740  -26.8300 O   0  0  0  0  0  0  0  0  0  0  0  0
   -1.4750   24.6590  -26.9230 C   0  0  0  0  0  0  0  0  0  0  0  0
   -1.3230   25.4610  -28.2190 C   0  0  0  0  0  0  0  0  0  0  0  0
   -2.4620   25.2240  -29.1090 N   0  0  0  0  0  0  0  0  0  0  0  0
   -2.7790   23.9300  -29.6610 C   0  0  0  0  0  0  0  0  0  0  0  0
   -1.7450   23.0230  -29.9360 C   0  0  0  0  0  0  0  0  0  0  0  0
   -2.0220   21.7810  -30.4920 C   0  0  0  0  0  0  0  0  0  0  0  0
   -3.3290   21.4210  -30.8060 C   0  0  0  0  0  0  0  0  0  0  0  0
   -4.4050   22.3040  -30.5540 C   0  0  0  0  0  0  0  0  0  0  0  0
   -4.1200   23.5640  -29.9490 C   0  0  0  0  0  0  0  0  0  0  0  0
   -5.1910   24.4100  -29.6130 C   0  0  0  0  0  0  0  0  0  0  0  0
   -6.4670   24.0520  -29.8890 N   0  0  0  0  0  0  0  0  0  0  0  0
   -6.7790   22.8830  -30.4970 C   0  0  0  0  0  0  0  0  0  0  0  0
   -8.1220   22.5960  -30.7630 C   0  0  0  0  0  0  0  0  0  0  0  0
   -8.4750   21.4100  -31.4020 C   0  0  0  0  0  0  0  0  0  0  0  0
   -7.4870   20.5030  -31.7850 C   0  0  0  0  0  0  0  0  0  0  0  0
   -7.9760   18.8900  -32.6790 Br  0  0  0  0  0  0  0  0  0  0  0  0
   -6.1400   20.7750  -31.5190 C   0  0  0  0  0  0  0  0  0  0  0  0
   -5.7580   21.9690  -30.8610 C   0  0  0  0  0  0  0  0  0  0  0  0
    1.4050   18.6873  -27.2012 H   0  0  0  0  0  0  0  0  0  0  0  0
    0.7700   17.8341  -28.6488 H   0  0  0  0  0  0  0  0  0  0  0  0
    0.9038   19.6254  -28.6488 H   0  0  0  0  0  0  0  0  0  0  0  0
   -1.3569   18.0849  -27.9617 H   0  0  0  0  0  0  0  0  0  0  0  0
   -0.6604   18.6966  -26.3848 H   0  0  0  0  0  0  0  0  0  0  0  0
   -2.7779   21.1027  -26.4224 H   0  0  0  0  0  0  0  0  0  0  0  0
   -3.4253   20.4659  -27.9849 H   0  0  0  0  0  0  0  0  0  0  0  0
   -3.1119   19.1175  -25.3644 H   0  0  0  0  0  0  0  0  0  0  0  0
   -4.1835   18.7226  -26.7509 H   0  0  0  0  0  0  0  0  0  0  0  0
   -2.4743   18.1700  -26.7509 H   0  0  0  0  0  0  0  0  0  0  0  0
    0.4875   20.9547  -27.0510 H   0  0  0  0  0  0  0  0  0  0  0  0
   -0.3454   21.8207  -28.4423 H   0  0  0  0  0  0  0  0  0  0  0  0
   -2.1027   22.4491  -26.5912 H   0  0  0  0  0  0  0  0  0  0  0  0
   -0.7229   22.1476  -25.4735 H   0  0  0  0  0  0  0  0  0  0  0  0
   -2.4595   24.1684  -26.9138 H   0  0  0  0  0  0  0  0  0  0  0  0
   -1.3859   25.3441  -26.0671 H   0  0  0  0  0  0  0  0  0  0  0  0
   -1.2705   26.5327  -27.9768 H   0  0  0  0  0  0  0  0  0  0  0  0
   -0.4024   25.1402  -28.7284 H   0  0  0  0  0  0  0  0  0  0  0  0
   -3.0640   26.0430  -29.3470 H   0  0  0  0  0  0  0  0  0  0  0  0
   -0.7045   23.2982  -29.7090 H   0  0  0  0  0  0  0  0  0  0  0  0
   -1.2008   21.0753  -30.6860 H   0  0  0  0  0  0  0  0  0  0  0  0
   -3.5280   20.4372  -31.2559 H   0  0  0  0  0  0  0  0  0  0  0  0
   -4.9902   25.3730  -29.1207 H   0  0  0  0  0  0  0  0  0  0  0  0
   -8.9034   23.3109  -30.4659 H   0  0  0  0  0  0  0  0  0  0  0  0
   -9.5332   21.1885  -31.6047 H   0  0  0  0  0  0  0  0  0  0  0  0
   -5.3690   20.0525  -31.8248 H   0  0  0  0  0  0  0  0  0  0  0  0
  1  2  1  0
  2  3  1  0
  3  4  1  0
  4  5  1  0
  3  6  1  0
  6  7  1  0
  7  8  1  0
  8  9  1  0
  9 10  1  0
 10 11  1  0
 11 12  1  0
 12 13  2  0
 13 14  1  0
 14 15  2  0
 15 16  1  0
 16 17  2  0
 17 18  1  0
 18 19  2  0
 19 20  1  0
 20 21  2  0
 21 22  1  0
 22 23  2  0
 23 24  1  0
 23 25  1  0
 25 26  2  0
 17 12  1  0
 26 20  1  0
 26 16  1  0
  1 27  1  0
  1 28  1  0
  1 29  1  0
  2 30  1  0
  2 31  1  0
  4 32  1  0
  4 33  1  0
  5 34  1  0
  5 35  1  0
  5 36  1  0
  6 37  1  0
  6 38  1  0
  7 39  1  0
  7 40  1  0
  9 41  1  0
  9 42  1  0
 10 43  1  0
 10 44  1  0
 11 45  1  0
 13 46  1  0
 14 47  1  0
 15 48  1  0
 18 49  1  0
 21 50  1  0
 22 51  1  0
 25 52  1  0
M  END
>  <UniqueID>  (7) 
7

>  <SMILES>  (7) 
CCN(CC)CCOCCNc1cccc2c1cnc1ccc(Br)cc12

>  <Energy>  (7) 
72.30464400367262

>  <Genealogy>  (7) 
CCN(CC)CCOCCNc1cccc2c1cnc1ccc(Br)cc12 (3D coordinates assigned)
CCN(CC)CCOCCNc1cccc2c1cnc1ccc(Br)cc12 (optimized conformer: 72.30464400367262 kcal/mol)

>  <smiles>  (7) 
CCN(CC)CCOCCNc1cccc2c1cnc1ccc(Br)cc12

>  <score_type>  (7) 
oracle

>  <origin>  (7) 
adg

>  <m_score__min__energy>  (7) 
-8.9900000000000002

>  <m_primary>  (7) 
energy

$$$$
7:0
     RDKit          3D

 39 41  0  0  0  0  0  0  0  0999 V2000
   -9.5500   21.8960  -31.8090 C   0  0  0  0  0  0  0  0  0  0  0  0
   -8.0220   21.8990  -31.9770 C   0  0  1  0  0  0  0  0  0  0  0  0
   -7.3440   22.4080  -30.7670 N   0  0  0  0  0  0  0  0  0  0  0  0
   -7.1750   23.8710  -30.7690 C   0  0  0  0  0  0  0  0  0  0  0  0
   -5.7480   24.2270  -30.4880 C   0  0  0  0  0  0  0  0  0  0  0  0
   -5.1200   25.3980  -30.8430 C   0  0  0  0  0  0  0  0  0  0  0  0
   -3.8720   25.3040  -30.4570 O   0  0  0  0  0  0  0  0  0  0  0  0
   -3.7230   24.1230  -29.8960 C   0  0  0  0  0  0  0  0  0  0  0  0
   -2.4470   23.6400  -29.3320 C   0  0  0  0  0  0  0  0  0  0  0  0
   -2.0990   22.2820  -29.4300 C   0  0  0  0  0  0  0  0  0  0  0  0
   -0.8910   21.8220  -28.8970 C   0  0  0  0  0  0  0  0  0  0  0  0
   -0.0200   22.7120  -28.2640 C   0  0  0  0  0  0  0  0  0  0  0  0
    1.1520   22.2640  -27.7490 F   0  0  0  0  0  0  0  0  0  0  0  0
   -0.3570   24.0640  -28.1610 C   0  0  0  0  0  0  0  0  0  0  0  0
   -1.5650   24.5290  -28.6920 C   0  0  0  0  0  0  0  0  0  0  0  0
   -4.8650   23.4010  -29.8960 N   0  0  0  0  0  0  0  0  0  0  0  0
   -7.5540   20.4870  -32.2710 C   0  0  0  0  0  0  0  0  0  0  0  0
   -6.4460   20.2660  -33.1090 C   0  0  0  0  0  0  0  0  0  0  0  0
   -6.0260   18.9630  -33.3960 C   0  0  0  0  0  0  0  0  0  0  0  0
   -6.7100   17.8710  -32.8570 C   0  0  0  0  0  0  0  0  0  0  0  0
   -7.8180   18.0790  -32.0310 C   0  0  0  0  0  0  0  0  0  0  0  0
   -8.2420   19.3800  -31.7410 C   0  0  0  0  0  0  0  0  0  0  0  0
   -9.8011   21.8955  -30.7380 H   0  0  0  0  0  0  0  0  0  0  0  0
   -9.9729   22.7933  -32.2844 H   0  0  0  0  0  0  0  0  0  0  0  0
   -9.9694   20.9970  -32.2844 H   0  0  0  0  0  0  0  0  0  0  0  0
   -7.7647   22.5679  -32.8115 H   0  0  0  0  0  0  0  0  0  0  0  0
   -6.3830   21.9880  -30.7440 H   0  0  0  0  0  0  0  0  0  0  0  0
   -7.4615   24.2685  -31.7538 H   0  0  0  0  0  0  0  0  0  0  0  0
   -7.8144   24.3073  -29.9874 H   0  0  0  0  0  0  0  0  0  0  0  0
   -5.5807   26.2550  -31.3562 H   0  0  0  0  0  0  0  0  0  0  0  0
   -2.7806   21.5772  -29.9287 H   0  0  0  0  0  0  0  0  0  0  0  0
   -0.6260   20.7573  -28.9763 H   0  0  0  0  0  0  0  0  0  0  0  0
    0.3287   24.7642  -27.6615 H   0  0  0  0  0  0  0  0  0  0  0  0
   -1.8260   25.5943  -28.6086 H   0  0  0  0  0  0  0  0  0  0  0  0
   -5.9071   21.1222  -33.5408 H   0  0  0  0  0  0  0  0  0  0  0  0
   -5.1552   18.7980  -34.0475 H   0  0  0  0  0  0  0  0  0  0  0  0
   -6.3766   16.8473  -33.0826 H   0  0  0  0  0  0  0  0  0  0  0  0
   -8.3573   17.2185  -31.6084 H   0  0  0  0  0  0  0  0  0  0  0  0
   -9.1181   19.5386  -31.0950 H   0  0  0  0  0  0  0  0  0  0  0  0
  1  2  1  0
  2  3  1  0
  3  4  1  0
  4  5  1  0
  5  6  2  0
  6  7  1  0
  7  8  1  0
  8  9  1  0
  9 10  2  0
 10 11  1  0
 11 12  2  0
 12 13  1  0
 12 14  1  0
 14 15  2  0
  8 16  2  0
  2 17  1  0
 17 18  2  0
 18 19  1  0
 19 20  2  0
 20 21  1  0
 21 22  2  0
 16  5  1  0
 22 17  1  0
 15  9  1  0
  1 23  1  0
  1 24  1  0
  1 25  1  0
  2 26  1  6
  3 27  1  0
  4 28  1  0
  4 29  1  0
  6 30  1  0
 10 31  1  0
 11 32  1  0
 14 33  1  0
 15 34  1  0
 18 35  1  0
 19 36  1  0
 20 37  1  0
 21 38  1  0
 22 39  1  0
M  END
>  <UniqueID>  (8) 
8

>  <SMILES>  (8) 
C[C@@H](NCc1coc(-c2ccc(F)cc2)n1)c1ccccc1

>  <Energy>  (8) 
70.11388045093803

>  <Genealogy>  (8) 
C[C@@H](NCc1coc(-c2ccc(F)cc2)n1)c1ccccc1 (chirality)
C[C@@H](NCc1coc(-c2ccc(F)cc2)n1)c1ccccc1 (3D coordinates assigned)
C[C@@H](NCc1coc(-c2ccc(F)cc2)n1)c1ccccc1 (optimized conformer: 70.11388045093803 kcal/mol)

>  <smiles>  (8) 
CC(NCc1coc(-c2ccc(F)cc2)n1)c1ccccc1

>  <score_type>  (8) 
oracle

>  <origin>  (8) 
adg

>  <m_score__min__energy>  (8) 
-8.2400000000000002

>  <m_primary>  (8) 
energy

$$$$
8:0
     RDKit          3D

 36 38  0  0  0  0  0  0  0  0999 V2000
   -2.6190   24.5500  -28.9560 C   0  0  0  0  0  0  0  0  0  0  0  0
   -3.7360   24.1240  -29.8620 C   0  0  0  0  0  0  0  0  0  0  0  0
   -3.5920   22.9910  -30.6770 C   0  0  0  0  0  0  0  0  0  0  0  0
   -4.6170   22.6140  -31.5480 C   0  0  0  0  0  0  0  0  0  0  0  0
   -5.7990   23.3680  -31.6310 C   0  0  0  0  0  0  0  0  0  0  0  0
   -6.8400   22.9470  -32.5350 N   0  0  0  0  0  0  0  0  0  0  0  0
   -7.8040   21.8860  -32.2450 C   0  0  0  0  0  0  0  0  0  0  0  0
   -7.2930   20.5570  -32.7310 C   0  0  0  0  0  0  0  0  0  0  0  0
   -6.1930   20.4440  -33.5220 N   0  0  0  0  0  0  0  0  0  0  0  0
   -6.0930   19.1170  -33.7170 C   0  0  0  0  0  0  0  0  0  0  0  0
   -5.1160   18.4380  -34.4420 C   0  0  0  0  0  0  0  0  0  0  0  0
   -5.1950   17.0350  -34.4920 C   0  0  0  0  0  0  0  0  0  0  0  0
   -6.2350   16.3520  -33.8230 C   0  0  0  0  0  0  0  0  0  0  0  0
   -7.2070   17.0660  -33.0990 C   0  0  0  0  0  0  0  0  0  0  0  0
   -7.1030   18.4600  -33.0750 C   0  0  0  0  0  0  0  0  0  0  0  0
   -7.8890   19.3630  -32.4630 N   0  0  0  0  0  0  0  0  0  0  0  0
   -9.0500   19.1120  -31.6120 C   0  0  0  0  0  0  0  0  0  0  0  0
   -5.9310   24.5170  -30.8270 C   0  0  0  0  0  0  0  0  0  0  0  0
   -4.9040   24.8930  -29.9550 C   0  0  0  0  0  0  0  0  0  0  0  0
   -2.9312   24.4309  -27.9080 H   0  0  0  0  0  0  0  0  0  0  0  0
   -1.7333   23.9266  -29.1478 H   0  0  0  0  0  0  0  0  0  0  0  0
   -2.3734   25.6049  -29.1478 H   0  0  0  0  0  0  0  0  0  0  0  0
   -2.6675   22.3968  -30.6299 H   0  0  0  0  0  0  0  0  0  0  0  0
   -4.4972   21.7180  -32.1748 H   0  0  0  0  0  0  0  0  0  0  0  0
   -6.9180   23.4230  -33.4630 H   0  0  0  0  0  0  0  0  0  0  0  0
   -7.9685   21.8344  -31.1586 H   0  0  0  0  0  0  0  0  0  0  0  0
   -8.7473   22.1135  -32.7630 H   0  0  0  0  0  0  0  0  0  0  0  0
   -4.3103   18.9810  -34.9577 H   0  0  0  0  0  0  0  0  0  0  0  0
   -4.4417   16.4653  -35.0560 H   0  0  0  0  0  0  0  0  0  0  0  0
   -6.2851   15.2541  -33.8686 H   0  0  0  0  0  0  0  0  0  0  0  0
   -8.0198   16.5462  -32.5707 H   0  0  0  0  0  0  0  0  0  0  0  0
   -8.7510   19.1766  -30.5554 H   0  0  0  0  0  0  0  0  0  0  0  0
   -9.8263   19.8631  -31.8200 H   0  0  0  0  0  0  0  0  0  0  0  0
   -9.4467   18.1073  -31.8200 H   0  0  0  0  0  0  0  0  0  0  0  0
   -6.8475   25.1224  -30.8853 H   0  0  0  0  0  0  0  0  0  0  0  0
   -5.0137   25.7975  -29.3387 H   0  0  0  0  0  0  0  0  0  0  0  0
  1  2  1  0
  2  3  2  0
  3  4  1  0
  4  5  2  0
  5  6  1  0
  6  7  1  0
  7  8  1  0
  8  9  2  0
  9 10  1  0
 10 11  2  0
 11 12  1  0
 12 13  2  0
 13 14  1  0
 14 15  2  0
 15 16  1  0
 16 17  1  0
  5 18  1  0
 18 19  2  0
 19  2  1  0
 16  8  1  0
 15 10  1  0
  1 20  1  0
  1 21  1  0
  1 22  1  0
  3 23  1  0
  4 24  1  0
  6 25  1  0
  7 26  1  0
  7 27  1  0
 11 28  1  0
 12 29  1  0
 13 30  1  0
 14 31  1  0
 17 32  1  0
 17 33  1  0
 17 34  1  0
 18 35  1  0
 19 36  1  0
M  END
>  <UniqueID>  (9) 
9

>  <SMILES>  (9) 
Cc1ccc(NCc2nc3ccccc3n2C)cc1

>  <Energy>  (9) 
73.55174606320001

>  <Genealogy>  (9) 
Cc1ccc(NCc2nc3ccccc3n2C)cc1 (3D coordinates assigned)
Cc1ccc(NCc2nc3ccccc3n2C)cc1 (optimized conformer: 73.55174606320001 kcal/mol)

>  <smiles>  (9) 
Cc1ccc(NCc2nc3ccccc3n2C)cc1

>  <score_type>  (9) 
oracle

>  <origin>  (9) 
adg

>  <m_score__min__energy>  (9) 
-7.4299999999999997

>  <m_primary>  (9) 
energy

$$$$
9:0
     RDKit          3D

 51 52  0  0  0  0  0  0  0  0999 V2000
   -6.4970   16.6680  -33.7340 C   0  0  0  0  0  0  0  0  0  0  0  0
   -6.1440   18.0490  -34.2900 C   0  0  0  0  0  0  0  0  0  0  0  0
   -6.6550   19.1480  -33.4220 N   0  0  0  0  0  0  0  0  0  0  0  0
   -7.4800   18.6270  -32.3080 C   0  0  0  0  0  0  0  0  0  0  0  0
   -8.9380   19.0920  -32.4030 C   0  0  0  0  0  0  0  0  0  0  0  0
   -5.3200   20.0690  -32.7620 S   0  0  0  0  0  0  0  0  0  0  0  0
   -4.6490   19.2820  -31.6700 O   0  0  0  0  0  0  0  0  0  0  0  0
   -4.3070   20.3470  -33.8390 O   0  0  0  0  0  0  0  0  0  0  0  0
   -5.8930   21.5860  -32.0750 C   0  0  0  0  0  0  0  0  0  0  0  0
   -7.2490   21.9310  -32.1330 C   0  0  0  0  0  0  0  0  0  0  0  0
   -7.6900   23.1310  -31.5730 C   0  0  0  0  0  0  0  0  0  0  0  0
   -6.7830   24.0000  -30.9590 C   0  0  0  0  0  0  0  0  0  0  0  0
   -7.2360   25.1740  -30.4520 F   0  0  0  0  0  0  0  0  0  0  0  0
   -5.4140   23.6710  -30.9040 C   0  0  0  0  0  0  0  0  0  0  0  0
   -4.4370   24.5990  -30.2820 C   0  0  0  0  0  0  0  0  0  0  0  0
   -4.1410   25.6710  -30.8740 O   0  0  0  0  0  0  0  0  0  0  0  0
   -3.8470   24.3370  -29.0010 N   0  0  0  0  0  0  0  0  0  0  0  0
   -2.6090   23.6490  -28.7590 C   0  0  0  0  0  0  0  0  0  0  0  0
   -2.6580   22.2820  -28.4590 C   0  0  0  0  0  0  0  0  0  0  0  0
   -1.4850   21.5480  -28.2580 C   0  0  0  0  0  0  0  0  0  0  0  0
   -1.5970   20.1760  -27.9850 O   0  0  0  0  0  0  0  0  0  0  0  0
   -2.3400   19.6310  -26.9000 C   0  0  0  0  0  0  0  0  0  0  0  0
   -0.2450   22.2030  -28.3390 C   0  0  0  0  0  0  0  0  0  0  0  0
   -0.1860   23.5730  -28.6010 C   0  0  0  0  0  0  0  0  0  0  0  0
   -1.3670   24.3150  -28.7980 C   0  0  0  0  0  0  0  0  0  0  0  0
   -1.3370   25.7030  -29.0100 O   0  0  0  0  0  0  0  0  0  0  0  0
   -0.8570   26.6560  -28.0700 C   0  0  0  0  0  0  0  0  0  0  0  0
   -4.9850   22.4480  -31.4480 C   0  0  0  0  0  0  0  0  0  0  0  0
   -6.4883   16.7022  -32.6346 H   0  0  0  0  0  0  0  0  0  0  0  0
   -7.4984   16.3769  -34.0838 H   0  0  0  0  0  0  0  0  0  0  0  0
   -5.7581   15.9320  -34.0838 H   0  0  0  0  0  0  0  0  0  0  0  0
   -5.0497   18.1335  -34.3626 H   0  0  0  0  0  0  0  0  0  0  0  0
   -6.6172   18.1485  -35.2780 H   0  0  0  0  0  0  0  0  0  0  0  0
   -7.2330   19.8220  -33.9770 H   0  0  0  0  0  0  0  0  0  0  0  0
   -7.4561   17.5275  -32.3331 H   0  0  0  0  0  0  0  0  0  0  0  0
   -7.0618   19.0142  -31.3671 H   0  0  0  0  0  0  0  0  0  0  0  0
   -9.3479   19.2227  -31.3906 H   0  0  0  0  0  0  0  0  0  0  0  0
   -8.9832   20.0491  -32.9433 H   0  0  0  0  0  0  0  0  0  0  0  0
   -9.5290   18.3378  -32.9433 H   0  0  0  0  0  0  0  0  0  0  0  0
   -7.9674   21.2555  -32.6205 H   0  0  0  0  0  0  0  0  0  0  0  0
   -8.7571   23.3945  -31.6150 H   0  0  0  0  0  0  0  0  0  0  0  0
   -3.6329   21.7786  -28.3804 H   0  0  0  0  0  0  0  0  0  0  0  0
   -1.8940   19.9582  -25.9492 H   0  0  0  0  0  0  0  0  0  0  0  0
   -3.3813   19.9811  -26.9562 H   0  0  0  0  0  0  0  0  0  0  0  0
   -2.3189   18.5326  -26.9562 H   0  0  0  0  0  0  0  0  0  0  0  0
    0.6849   21.6332  -28.1952 H   0  0  0  0  0  0  0  0  0  0  0  0
    0.7903   24.0769  -28.6540 H   0  0  0  0  0  0  0  0  0  0  0  0
   -1.0416   26.2895  -27.0494 H   0  0  0  0  0  0  0  0  0  0  0  0
    0.2231   26.8038  -28.2167 H   0  0  0  0  0  0  0  0  0  0  0  0
   -1.3812   27.6119  -28.2167 H   0  0  0  0  0  0  0  0  0  0  0  0
   -3.9242   22.1649  -31.3804 H   0  0  0  0  0  0  0  0  0  0  0  0
  1  2  1  0
  2  3  1  0
  3  4  1  0
  4  5  1  0
  3  6  1  0
  6  7  2  0
  6  8  2  0
  6  9  1  0
  9 10  2  0
 10 11  1  0
 11 12  2  0
 12 13  1  0
 12 14  1  0
 14 15  1  0
 15 16  2  0
 15 17  1  0
 17 18  1  0
 18 19  2  0
 19 20  1  0
 20 21  1  0
 21 22  1  0
 20 23  2  0
 23 24  1  0
 24 25  2  0
 25 26  1  0
 26 27  1  0
 14 28  2  0
 28  9  1  0
 25 18  1  0
  1 29  1  0
  1 30  1  0
  1 31  1  0
  2 32  1  0
  2 33  1  0
  3 34  1  0
  4 35  1  0
  4 36  1  0
  5 37  1  0
  5 38  1  0
  5 39  1  0
 10 40  1  0
 11 41  1  0
 19 42  1  0
 22 43  1  0
 22 44  1  0
 22 45  1  0
 23 46  1  0
 24 47  1  0
 27 48  1  0
 27 49  1  0
 27 50  1  0
 28 51  1  0
M  CHG  2   3   1  17  -1
M  END
>  <UniqueID>  (10) 
10

>  <SMILES>  (10) 
CC[NH+](CC)S(=O)(=O)c1ccc(F)c(C(=O)[N-]c2cc(OC)ccc2OC)c1

>  <Energy>  (10) 
55.63388075781163

>  <Genealogy>  (10) 
CC[NH+](CC)S(=O)(=O)c1ccc(F)c(C(=O)[N-]c2cc(OC)ccc2OC)c1 (protonated)
CC[NH+](CC)S(=O)(=O)c1ccc(F)c(C(=O)[N-]c2cc(OC)ccc2OC)c1 (3D coordinates assigned)
CC[NH+](CC)S(=O)(=O)c1ccc(F)c(C(=O)[N-]c2cc(OC)ccc2OC)c1 (optimized conformer: 55.63388075781163 kcal/mol)

>  <smiles>  (10) 
CCN(CC)S(=O)(=O)c1ccc(F)c(C(=O)Nc2cc(OC)ccc2OC)c1

>  <score_type>  (10) 
oracle

>  <origin>  (10) 
adg

>  <m_score__min__energy>  (10) 
-10.07

>  <m_primary>  (10) 
energy

$$$$
10:0
     RDKit          3D

 39 40  0  0  0  0  0  0  0  0999 V2000
   -6.0930   25.3330  -29.5960 C   0  0  0  0  0  0  0  0  0  0  0  0
   -5.2230   25.2880  -30.8430 C   0  0  0  0  0  0  0  0  0  0  0  0
   -3.8650   25.2990  -30.4590 O   0  0  0  0  0  0  0  0  0  0  0  0
   -3.6640   24.3810  -29.4040 C   0  0  0  0  0  0  0  0  0  0  0  0
   -2.2390   23.8210  -29.4680 C   0  0  0  0  0  0  0  0  0  0  0  0
   -2.2220   22.3550  -29.5980 N   0  0  0  0  0  0  0  0  0  0  0  0
   -1.8880   21.8990  -30.9580 C   0  0  0  0  0  0  0  0  0  0  0  0
   -3.1340   21.4680  -31.6690 C   0  0  0  0  0  0  0  0  0  0  0  0
   -4.3770   21.6290  -31.1750 N   0  0  0  0  0  0  0  0  0  0  0  0
   -5.1730   21.1860  -32.1740 C   0  0  0  0  0  0  0  0  0  0  0  0
   -6.6510   21.1890  -32.1170 C   0  0  0  0  0  0  0  0  0  0  0  0
   -7.3260   22.3610  -31.7300 C   0  0  0  0  0  0  0  0  0  0  0  0
   -8.7220   22.3840  -31.6560 C   0  0  0  0  0  0  0  0  0  0  0  0
   -9.4590   21.2400  -31.9640 C   0  0  0  0  0  0  0  0  0  0  0  0
   -8.8010   20.0690  -32.3480 C   0  0  0  0  0  0  0  0  0  0  0  0
   -7.4050   20.0370  -32.4240 C   0  0  0  0  0  0  0  0  0  0  0  0
   -6.8000   18.8800  -32.7950 F   0  0  0  0  0  0  0  0  0  0  0  0
   -4.4880   20.7720  -33.2200 O   0  0  0  0  0  0  0  0  0  0  0  0
   -3.2200   20.9350  -32.9370 C   0  0  0  0  0  0  0  0  0  0  0  0
   -2.0970   20.6270  -33.8710 C   0  0  0  0  0  0  0  0  0  0  0  0
   -5.4537   25.2999  -28.7015 H   0  0  0  0  0  0  0  0  0  0  0  0
   -6.6808   26.2628  -29.5924 H   0  0  0  0  0  0  0  0  0  0  0  0
   -6.7736   24.4689  -29.5924 H   0  0  0  0  0  0  0  0  0  0  0  0
   -5.4382   24.3699  -31.4094 H   0  0  0  0  0  0  0  0  0  0  0  0
   -5.4364   26.1622  -31.4756 H   0  0  0  0  0  0  0  0  0  0  0  0
   -3.8125   24.8925  -28.4415 H   0  0  0  0  0  0  0  0  0  0  0  0
   -4.3837   23.5546  -29.4994 H   0  0  0  0  0  0  0  0  0  0  0  0
   -1.7250   24.2594  -30.3361 H   0  0  0  0  0  0  0  0  0  0  0  0
   -1.7315   24.0821  -28.5276 H   0  0  0  0  0  0  0  0  0  0  0  0
   -3.1880   22.0170  -29.3740 H   0  0  0  0  0  0  0  0  0  0  0  0
   -1.4167   22.7229  -31.5140 H   0  0  0  0  0  0  0  0  0  0  0  0
   -1.1929   21.0487  -30.8955 H   0  0  0  0  0  0  0  0  0  0  0  0
   -6.7513   23.2660  -31.4838 H   0  0  0  0  0  0  0  0  0  0  0  0
   -9.2404   23.3061  -31.3543 H   0  0  0  0  0  0  0  0  0  0  0  0
  -10.5572   21.2601  -31.9045 H   0  0  0  0  0  0  0  0  0  0  0  0
   -9.3835   19.1683  -32.5916 H   0  0  0  0  0  0  0  0  0  0  0  0
   -1.1954   20.3797  -33.2914 H   0  0  0  0  0  0  0  0  0  0  0  0
   -2.3716   19.7710  -34.5049 H   0  0  0  0  0  0  0  0  0  0  0  0
   -1.8965   21.5033  -34.5049 H   0  0  0  0  0  0  0  0  0  0  0  0
  1  2  1  0
  2  3  1  0
  3  4  1  0
  4  5  1  0
  5  6  1  0
  6  7  1  0
  7  8  1  0
  8  9  1  0
  9 10  2  0
 10 11  1  0
 11 12  2  0
 12 13  1  0
 13 14  2  0
 14 15  1  0
 15 16  2  0
 16 17  1  0
 10 18  1  0
 18 19  1  0
 19 20  1  0
 19  8  2  0
 16 11  1  0
  1 21  1  0
  1 22  1  0
  1 23  1  0
  2 24  1  0
  2 25  1  0
  4 26  1  0
  4 27  1  0
  5 28  1  0
  5 29  1  0
  6 30  1  0
  7 31  1  0
  7 32  1  0
 12 33  1  0
 13 34  1  0
 14 35  1  0
 15 36  1  0
 20 37  1  0
 20 38  1  0
 20 39  1  0
M  END
>  <UniqueID>  (11) 
11

>  <SMILES>  (11) 
CCOCCNCc1nc(-c2ccccc2F)oc1C

>  <Energy>  (11) 
61.350555538180565

>  <Genealogy>  (11) 
CCOCCNCc1nc(-c2ccccc2F)oc1C (3D coordinates assigned)
CCOCCNCc1nc(-c2ccccc2F)oc1C (optimized conformer: 61.350555538180565 kcal/mol)

>  <smiles>  (11) 
CCOCCNCc1nc(-c2ccccc2F)oc1C

>  <score_type>  (11) 
oracle

>  <origin>  (11) 
adg

>  <m_score__min__energy>  (11) 
-6.3600000000000003

>  <m_primary>  (11) 
energy

$$$$
11:0
     RDKit          3D

 49 51  0  0  0  0  0  0  0  0999 V2000
   -6.5870   25.2570  -29.7180 C   0  0  0  0  0  0  0  0  0  0  0  0
   -5.3600   25.6730  -30.5290 C   0  0  0  0  0  0  0  0  0  0  0  0
   -4.4630   24.5190  -30.7790 N   0  0  0  0  0  0  0  0  0  0  0  0
   -3.9420   24.0070  -29.4890 C   0  0  0  0  0  0  0  0  0  0  0  0
   -2.5260   24.5060  -29.2010 C   0  0  0  0  0  0  0  0  0  0  0  0
   -5.1470   23.4550  -31.5630 C   0  0  0  0  0  0  0  0  0  0  0  0
   -4.1890   22.2930  -31.8520 C   0  0  0  0  0  0  0  0  0  0  0  0
   -4.4950   21.6580  -33.1310 N   0  0  0  0  0  0  0  0  0  0  0  0
   -5.0570   20.3350  -33.1540 C   0  0  0  0  0  0  0  0  0  0  0  0
   -6.4000   20.1310  -32.7930 C   0  0  0  0  0  0  0  0  0  0  0  0
   -7.1950   21.2040  -32.3390 C   0  0  0  0  0  0  0  0  0  0  0  0
   -8.5130   20.9960  -31.9410 C   0  0  0  0  0  0  0  0  0  0  0  0
   -9.0530   19.7160  -31.9670 C   0  0  0  0  0  0  0  0  0  0  0  0
   -8.2860   18.6390  -32.4110 C   0  0  0  0  0  0  0  0  0  0  0  0
   -6.9540   18.8240  -32.8630 C   0  0  0  0  0  0  0  0  0  0  0  0
   -6.1930   17.7730  -33.3400 N   0  0  0  0  0  0  0  0  0  0  0  0
   -6.8390   16.4830  -33.6730 C   0  0  0  0  0  0  0  0  0  0  0  0
   -4.8330   17.9350  -33.5310 C   0  0  0  0  0  0  0  0  0  0  0  0
   -3.9750   16.8350  -33.7700 C   0  0  0  0  0  0  0  0  0  0  0  0
   -2.6210   17.0400  -34.0230 C   0  0  0  0  0  0  0  0  0  0  0  0
   -2.1090   18.2950  -34.0340 N   0  0  0  0  0  0  0  0  0  0  0  0
   -2.8820   19.3780  -33.7680 C   0  0  0  0  0  0  0  0  0  0  0  0
   -4.2550   19.2280  -33.4810 C   0  0  0  0  0  0  0  0  0  0  0  0
   -6.3602   25.3339  -28.6444 H   0  0  0  0  0  0  0  0  0  0  0  0
   -7.4303   25.9195  -29.9630 H   0  0  0  0  0  0  0  0  0  0  0  0
   -6.8535   24.2183  -29.9630 H   0  0  0  0  0  0  0  0  0  0  0  0
   -5.6910   26.0852  -31.4937 H   0  0  0  0  0  0  0  0  0  0  0  0
   -4.8031   26.4275  -29.9540 H   0  0  0  0  0  0  0  0  0  0  0  0
   -4.6075   24.3422  -28.6798 H   0  0  0  0  0  0  0  0  0  0  0  0
   -3.9081   22.9092  -29.5496 H   0  0  0  0  0  0  0  0  0  0  0  0
   -2.3706   24.5607  -28.1134 H   0  0  0  0  0  0  0  0  0  0  0  0
   -1.7957   23.8111  -29.6412 H   0  0  0  0  0  0  0  0  0  0  0  0
   -2.3927   25.5052  -29.6412 H   0  0  0  0  0  0  0  0  0  0  0  0
   -6.0068   23.0797  -30.9886 H   0  0  0  0  0  0  0  0  0  0  0  0
   -5.4835   23.8818  -32.5194 H   0  0  0  0  0  0  0  0  0  0  0  0
   -3.1585   22.6768  -31.8801 H   0  0  0  0  0  0  0  0  0  0  0  0
   -4.3035   21.5426  -31.0559 H   0  0  0  0  0  0  0  0  0  0  0  0
   -4.6960   22.2780  -33.9480 H   0  0  0  0  0  0  0  0  0  0  0  0
   -6.7687   22.2172  -32.2989 H   0  0  0  0  0  0  0  0  0  0  0  0
   -9.1268   21.8451  -31.6060 H   0  0  0  0  0  0  0  0  0  0  0  0
  -10.0891   19.5515  -31.6362 H   0  0  0  0  0  0  0  0  0  0  0  0
   -8.7213   17.6288  -32.4107 H   0  0  0  0  0  0  0  0  0  0  0  0
   -7.1034   15.9550  -32.7449 H   0  0  0  0  0  0  0  0  0  0  0  0
   -7.7498   16.6700  -34.2607 H   0  0  0  0  0  0  0  0  0  0  0  0
   -6.1437   15.8657  -34.2607 H   0  0  0  0  0  0  0  0  0  0  0  0
   -4.3800   15.8124  -33.7558 H   0  0  0  0  0  0  0  0  0  0  0  0
   -1.9637   16.1791  -34.2149 H   0  0  0  0  0  0  0  0  0  0  0  0
   -1.0930   18.4290  -34.2340 H   0  0  0  0  0  0  0  0  0  0  0  0
   -2.4338   20.3825  -33.7762 H   0  0  0  0  0  0  0  0  0  0  0  0
  1  2  1  0
  2  3  1  0
  3  4  1  0
  4  5  1  0
  3  6  1  0
  6  7  1  0
  7  8  1  0
  8  9  1  0
  9 10  2  0
 10 11  1  0
 11 12  2  0
 12 13  1  0
 13 14  2  0
 14 15  1  0
 15 16  2  0
 16 17  1  0
 16 18  1  0
 18 19  2  0
 19 20  1  0
 20 21  2  0
 21 22  1  0
 22 23  2  0
 23  9  1  0
 15 10  1  0
 23 18  1  0
  1 24  1  0
  1 25  1  0
  1 26  1  0
  2 27  1  0
  2 28  1  0
  4 29  1  0
  4 30  1  0
  5 31  1  0
  5 32  1  0
  5 33  1  0
  6 34  1  0
  6 35  1  0
  7 36  1  0
  7 37  1  0
  8 38  1  0
 11 39  1  0
 12 40  1  0
 13 41  1  0
 14 42  1  0
 17 43  1  0
 17 44  1  0
 17 45  1  0
 19 46  1  0
 20 47  1  0
 21 48  1  0
 22 49  1  0
M  CHG  2  16   1  21   1
M  END
>  <UniqueID>  (12) 
12

>  <SMILES>  (12) 
CCN(CC)CCNc1c2ccccc2[n+](C)c2cc[nH+]cc12

>  <Energy>  (12) 
73.85213836270023

>  <Genealogy>  (12) 
CCN(CC)CCNc1c2ccccc2[n+](C)c2cc[nH+]cc12 (protonated)
CCN(CC)CCNc1c2ccccc2[n+](C)c2cc[nH+]cc12 (3D coordinates assigned)
CCN(CC)CCNc1c2ccccc2[n+](C)c2cc[nH+]cc12 (optimized conformer: 73.85213836270023 kcal/mol)

>  <smiles>  (12) 
CCN(CC)CCNc1c2ccccc2[n+](C)c2ccncc12

>  <score_type>  (12) 
oracle

>  <origin>  (12) 
adg

>  <m_score__min__energy>  (12) 
-7.6500000000000004

>  <m_primary>  (12) 
energy

$$$$
12:0
     RDKit          3D

 41 42  0  0  0  0  0  0  0  0999 V2000
   -3.6940   24.1450  -28.0220 C   0  0  0  0  0  0  0  0  0  0  0  0
   -3.0310   24.5340  -29.3420 C   0  0  0  0  0  0  0  0  0  0  0  0
   -3.9750   24.3640  -30.4730 N   0  0  0  0  0  0  0  0  0  0  0  0
   -4.9830   25.4530  -30.4780 C   0  0  0  0  0  0  0  0  0  0  0  0
   -6.3560   24.9440  -30.0440 C   0  0  0  0  0  0  0  0  0  0  0  0
   -4.6130   23.0210  -30.4630 C   0  0  0  0  0  0  0  0  0  0  0  0
   -3.6070   21.9500  -30.8940 C   0  0  0  0  0  0  0  0  0  0  0  0
   -4.0370   21.2120  -32.4680 S   0  0  0  0  0  0  0  0  0  0  0  0
   -3.8540   22.2680  -33.7630 O   0  0  0  0  0  0  0  0  0  0  0  0
   -5.5400   20.2860  -32.5470 C   0  0  0  0  0  0  0  0  0  0  0  0
   -5.4300   18.9140  -32.8040 C   0  0  0  0  0  0  0  0  0  0  0  0
   -6.5620   18.1020  -32.8480 C   0  0  0  0  0  0  0  0  0  0  0  0
   -7.8260   18.6470  -32.6420 C   0  0  0  0  0  0  0  0  0  0  0  0
   -7.9710   20.0220  -32.4010 C   0  0  0  0  0  0  0  0  0  0  0  0
   -9.2500   20.5660  -32.2050 C   0  0  0  0  0  0  0  0  0  0  0  0
   -9.4040   21.9330  -31.9740 C   0  0  0  0  0  0  0  0  0  0  0  0
   -8.2880   22.7680  -31.9400 C   0  0  0  0  0  0  0  0  0  0  0  0
   -7.0070   22.2420  -32.1330 C   0  0  0  0  0  0  0  0  0  0  0  0
   -6.8240   20.8620  -32.3590 C   0  0  0  0  0  0  0  0  0  0  0  0
   -3.0802   24.5052  -27.1832 H   0  0  0  0  0  0  0  0  0  0  0  0
   -4.6941   24.5995  -27.9661 H   0  0  0  0  0  0  0  0  0  0  0  0
   -3.7851   23.0502  -27.9661 H   0  0  0  0  0  0  0  0  0  0  0  0
   -2.7146   25.5863  -29.2908 H   0  0  0  0  0  0  0  0  0  0  0  0
   -2.1609   23.8814  -29.5065 H   0  0  0  0  0  0  0  0  0  0  0  0
   -4.6591   26.2436  -29.7852 H   0  0  0  0  0  0  0  0  0  0  0  0
   -5.0666   25.8424  -31.5034 H   0  0  0  0  0  0  0  0  0  0  0  0
   -6.4093   24.9242  -28.9455 H   0  0  0  0  0  0  0  0  0  0  0  0
   -7.1360   25.6127  -30.4370 H   0  0  0  0  0  0  0  0  0  0  0  0
   -6.5116   23.9284  -30.4370 H   0  0  0  0  0  0  0  0  0  0  0  0
   -4.9689   22.7962  -29.4467 H   0  0  0  0  0  0  0  0  0  0  0  0
   -5.4579   23.0216  -31.1674 H   0  0  0  0  0  0  0  0  0  0  0  0
   -2.6124   22.4121  -30.9794 H   0  0  0  0  0  0  0  0  0  0  0  0
   -3.6150   21.1542  -30.1346 H   0  0  0  0  0  0  0  0  0  0  0  0
   -3.0510   21.9500  -34.2460 H   0  0  0  0  0  0  0  0  0  0  0  0
   -4.4374   18.4713  -32.9734 H   0  0  0  0  0  0  0  0  0  0  0  0
   -6.4559   17.0253  -33.0465 H   0  0  0  0  0  0  0  0  0  0  0  0
   -8.7139   17.9982  -32.6682 H   0  0  0  0  0  0  0  0  0  0  0  0
  -10.1340   19.9120  -32.2337 H   0  0  0  0  0  0  0  0  0  0  0  0
  -10.4085   22.3533  -31.8183 H   0  0  0  0  0  0  0  0  0  0  0  0
   -8.4159   23.8457  -31.7605 H   0  0  0  0  0  0  0  0  0  0  0  0
   -6.1339   22.9107  -32.1083 H   0  0  0  0  0  0  0  0  0  0  0  0
  1  2  1  0
  2  3  1  0
  3  4  1  0
  4  5  1  0
  3  6  1  0
  6  7  1  0
  7  8  1  0
  8  9  1  6
  8 10  1  0
 10 11  2  0
 11 12  1  0
 12 13  2  0
 13 14  1  0
 14 15  2  0
 15 16  1  0
 16 17  2  0
 17 18  1  0
 18 19  2  0
 19 10  1  0
 19 14  1  0
  1 20  1  0
  1 21  1  0
  1 22  1  0
  2 23  1  0
  2 24  1  0
  4 25  1  0
  4 26  1  0
  5 27  1  0
  5 28  1  0
  5 29  1  0
  6 30  1  0
  6 31  1  0
  7 32  1  0
  7 33  1  0
  9 34  1  0
 11 35  1  0
 12 36  1  0
 13 37  1  0
 15 38  1  0
 16 39  1  0
 17 40  1  0
 18 41  1  0
M  CHG  1   8   1
M  END
>  <UniqueID>  (13) 
13

>  <SMILES>  (13) 
CCN(CC)CC[S@+](O)c1cccc2ccccc12

>  <Energy>  (13) 
40.18745431582663

>  <Genealogy>  (13) 
CCN(CC)CC[S+](O)c1cccc2ccccc12 (protonated)
CCN(CC)CC[S@+](O)c1cccc2ccccc12 (chirality)
CCN(CC)CC[S@+](O)c1cccc2ccccc12 (3D coordinates assigned)
CCN(CC)CC[S@+](O)c1cccc2ccccc12 (optimized conformer: 40.18745431582663 kcal/mol)

>  <smiles>  (13) 
CCN(CC)CC[S+]([O-])c1cccc2ccccc12

>  <score_type>  (13) 
oracle

>  <origin>  (13) 
adg

>  <m_score__min__energy>  (13) 
-7.6500000000000004

>  <m_primary>  (13) 
energy

$$$$
13:0
     RDKit          3D

 54 58  0  0  0  0  0  0  0  0999 V2000
   -5.7510   25.2470  -29.9400 C   0  0  0  0  0  0  0  0  0  0  0  0
   -6.5070   23.9290  -29.9470 C   0  0  0  0  0  0  0  0  0  0  0  0
   -7.1730   23.7720  -31.1970 O   0  0  0  0  0  0  0  0  0  0  0  0
   -7.6930   22.5600  -31.6820 C   0  0  0  0  0  0  0  0  0  0  0  0
   -9.0740   22.2880  -31.6490 C   0  0  0  0  0  0  0  0  0  0  0  0
   -9.5670   21.0730  -32.1210 C   0  0  0  0  0  0  0  0  0  0  0  0
   -8.6960   20.1120  -32.6300 C   0  0  0  0  0  0  0  0  0  0  0  0
   -7.3140   20.3570  -32.6710 C   0  0  0  0  0  0  0  0  0  0  0  0
   -6.8090   21.5860  -32.2050 C   0  0  0  0  0  0  0  0  0  0  0  0
   -5.3520   21.8390  -32.3110 C   0  0  0  0  0  0  0  0  0  0  0  0
   -4.9360   23.0260  -32.3900 O   0  0  0  0  0  0  0  0  0  0  0  0
   -4.4070   20.6950  -32.4690 C   0  0  0  0  0  0  0  0  0  0  0  0
   -4.9160   19.4840  -33.0030 C   0  0  0  0  0  0  0  0  0  0  0  0
   -4.0110   18.4410  -33.3120 C   0  0  0  0  0  0  0  0  0  0  0  0
   -4.4540   17.1940  -33.8630 N   0  0  0  0  0  0  0  0  0  0  0  0
   -4.1710   16.8690  -35.2600 C   0  0  0  0  0  0  0  0  0  0  0  0
   -3.3330   15.5800  -35.3540 C   0  0  0  0  0  0  0  0  0  0  0  0
   -3.6580   14.5580  -34.3140 N   0  0  0  0  0  0  0  0  0  0  0  0
   -2.5610   14.4260  -33.3340 C   0  0  0  0  0  0  0  0  0  0  0  0
   -4.9570   14.7910  -33.6400 C   0  0  0  0  0  0  0  0  0  0  0  0
   -5.0160   16.1750  -32.9750 C   0  0  0  0  0  0  0  0  0  0  0  0
   -2.6860   18.5980  -33.0770 N   0  0  0  0  0  0  0  0  0  0  0  0
   -2.1710   19.7160  -32.5150 C   0  0  0  0  0  0  0  0  0  0  0  0
   -0.7950   19.7810  -32.2680 C   0  0  0  0  0  0  0  0  0  0  0  0
   -0.2490   20.8930  -31.6310 C   0  0  0  0  0  0  0  0  0  0  0  0
   -1.0760   21.9370  -31.2190 C   0  0  0  0  0  0  0  0  0  0  0  0
   -2.4510   21.8870  -31.4680 C   0  0  0  0  0  0  0  0  0  0  0  0
   -3.0210   20.7910  -32.1580 C   0  0  0  0  0  0  0  0  0  0  0  0
   -6.3860   19.3400  -33.2110 C   0  0  0  0  0  0  0  0  0  0  0  0
   -6.8540   18.3530  -33.8410 O   0  0  0  0  0  0  0  0  0  0  0  0
   -5.5709   25.5609  -28.9012 H   0  0  0  0  0  0  0  0  0  0  0  0
   -4.7883   25.1203  -30.4569 H   0  0  0  0  0  0  0  0  0  0  0  0
   -6.3465   26.0140  -30.4569 H   0  0  0  0  0  0  0  0  0  0  0  0
   -5.7996   23.0994  -29.8013 H   0  0  0  0  0  0  0  0  0  0  0  0
   -7.2472   23.9257  -29.1333 H   0  0  0  0  0  0  0  0  0  0  0  0
   -9.7691   23.0402  -31.2476 H   0  0  0  0  0  0  0  0  0  0  0  0
  -10.6481   20.8719  -32.0916 H   0  0  0  0  0  0  0  0  0  0  0  0
   -9.0932   19.1560  -33.0018 H   0  0  0  0  0  0  0  0  0  0  0  0
   -5.1198   16.7242  -35.7975 H   0  0  0  0  0  0  0  0  0  0  0  0
   -3.6031   17.6966  -35.7102 H   0  0  0  0  0  0  0  0  0  0  0  0
   -3.5024   15.1304  -36.3435 H   0  0  0  0  0  0  0  0  0  0  0  0
   -2.2853   15.8729  -35.1911 H   0  0  0  0  0  0  0  0  0  0  0  0
   -3.7320   13.6300  -34.7950 H   0  0  0  0  0  0  0  0  0  0  0  0
   -2.9719   14.4754  -32.3148 H   0  0  0  0  0  0  0  0  0  0  0  0
   -2.0543   13.4604  -33.4786 H   0  0  0  0  0  0  0  0  0  0  0  0
   -1.8397   15.2438  -33.4786 H   0  0  0  0  0  0  0  0  0  0  0  0
   -5.7626   14.7198  -34.3856 H   0  0  0  0  0  0  0  0  0  0  0  0
   -5.0757   14.0297  -32.8550 H   0  0  0  0  0  0  0  0  0  0  0  0
   -6.0638   16.4259  -32.7533 H   0  0  0  0  0  0  0  0  0  0  0  0
   -4.4279   16.1489  -32.0458 H   0  0  0  0  0  0  0  0  0  0  0  0
   -0.1426   18.9514  -32.5779 H   0  0  0  0  0  0  0  0  0  0  0  0
    0.8351   20.9474  -31.4530 H   0  0  0  0  0  0  0  0  0  0  0  0
   -0.6451   22.8035  -30.6960 H   0  0  0  0  0  0  0  0  0  0  0  0
   -3.0965   22.7085  -31.1238 H   0  0  0  0  0  0  0  0  0  0  0  0
  1  2  1  0
  2  3  1  0
  3  4  1  0
  4  5  2  0
  5  6  1  0
  6  7  2  0
  7  8  1  0
  8  9  2  0
  9 10  1  0
 10 11  2  0
 10 12  1  0
 12 13  2  0
 13 14  1  0
 14 15  1  0
 15 16  1  0
 16 17  1  0
 17 18  1  0
 18 19  1  0
 18 20  1  0
 20 21  1  0
 14 22  2  0
 22 23  1  0
 23 24  2  0
 24 25  1  0
 25 26  2  0
 26 27  1  0
 27 28  2  0
 13 29  1  0
 29 30  2  0
  9  4  1  0
 28 12  1  0
 29  8  1  0
 21 15  1  0
 28 23  1  0
  1 31  1  0
  1 32  1  0
  1 33  1  0
  2 34  1  0
  2 35  1  0
  5 36  1  0
  6 37  1  0
  7 38  1  0
 16 39  1  0
 16 40  1  0
 17 41  1  0
 17 42  1  0
 18 43  1  0
 19 44  1  0
 19 45  1  0
 19 46  1  0
 20 47  1  0
 20 48  1  0
 21 49  1  0
 21 50  1  0
 24 51  1  0
 25 52  1  0
 26 53  1  0
 27 54  1  0
M  CHG  1  18   1
M  END
>  <UniqueID>  (14) 
14

>  <SMILES>  (14) 
CCOc1cccc2c1C(=O)c1c(c(N3CC[NH+](C)CC3)nc3ccccc13)C2=O

>  <Energy>  (14) 
89.07733938760315

>  <Genealogy>  (14) 
CCOc1cccc2c1C(=O)c1c(c(N3CC[NH+](C)CC3)nc3ccccc13)C2=O (protonated)
CCOc1cccc2c1C(=O)c1c(c(N3CC[NH+](C)CC3)nc3ccccc13)C2=O (3D coordinates assigned)
CCOc1cccc2c1C(=O)c1c(c(N3CC[NH+](C)CC3)nc3ccccc13)C2=O (nonaromatic ring conformer: 89.07733938760315 kcal/mol)

>  <smiles>  (14) 
CCOc1cccc2c1C(=O)c1c(c(N3CCN(C)CC3)nc3ccccc13)C2=O

>  <score_type>  (14) 
oracle

>  <origin>  (14) 
adg

>  <m_score__min__energy>  (14) 
-8.5800000000000001

>  <m_primary>  (14) 
energy

$$$$
14:0
     RDKit          3D

 56 59  0  0  0  0  0  0  0  0999 V2000
   -0.9950   19.7510  -28.0500 C   0  0  0  0  0  0  0  0  0  0  0  0
   -0.7300   20.1670  -29.4980 C   0  0  0  0  0  0  0  0  0  0  0  0
   -1.9020   20.8540  -30.0680 N   0  0  0  0  0  0  0  0  0  0  0  0
   -2.3760   20.3860  -31.3850 C   0  0  0  0  0  0  0  0  0  0  0  0
   -2.2880   21.4950  -32.4430 C   0  0  0  0  0  0  0  0  0  0  0  0
   -3.3640   21.3750  -33.4270 N   0  0  0  0  0  0  0  0  0  0  0  0
   -4.6630   20.9220  -33.0150 C   0  0  0  0  0  0  0  0  0  0  0  0
   -5.1190   19.6470  -33.3960 C   0  0  0  0  0  0  0  0  0  0  0  0
   -4.3180   18.8040  -34.1960 C   0  0  0  0  0  0  0  0  0  0  0  0
   -4.7900   17.5640  -34.6200 C   0  0  0  0  0  0  0  0  0  0  0  0
   -6.0690   17.1510  -34.2700 C   0  0  0  0  0  0  0  0  0  0  0  0
   -6.8780   17.9650  -33.4770 C   0  0  0  0  0  0  0  0  0  0  0  0
   -6.4120   19.2180  -32.9920 C   0  0  0  0  0  0  0  0  0  0  0  0
   -7.1850   20.0140  -32.1640 N   0  0  0  0  0  0  0  0  0  0  0  0
   -8.4120   19.4630  -31.5420 C   0  0  0  0  0  0  0  0  0  0  0  0
   -6.7980   21.3180  -31.8970 C   0  0  0  0  0  0  0  0  0  0  0  0
   -7.6630   22.2430  -31.2560 C   0  0  0  0  0  0  0  0  0  0  0  0
   -7.2290   23.5260  -30.9200 C   0  0  0  0  0  0  0  0  0  0  0  0
   -5.9240   23.9290  -31.2100 C   0  0  0  0  0  0  0  0  0  0  0  0
   -5.4630   25.3150  -30.8540 C   0  0  0  0  0  0  0  0  0  0  0  0
   -5.0800   23.0640  -31.9120 C   0  0  0  0  0  0  0  0  0  0  0  0
   -5.5070   21.7710  -32.2790 C   0  0  0  0  0  0  0  0  0  0  0  0
   -2.4770   22.0400  -29.4350 C   0  0  0  0  0  0  0  0  0  0  0  0
   -3.6870   21.9700  -28.6970 C   0  0  0  0  0  0  0  0  0  0  0  0
   -4.2150   23.1010  -28.0630 C   0  0  0  0  0  0  0  0  0  0  0  0
   -3.5550   24.3250  -28.1490 C   0  0  0  0  0  0  0  0  0  0  0  0
   -2.3700   24.4250  -28.8850 C   0  0  0  0  0  0  0  0  0  0  0  0
   -1.8320   23.2990  -29.5180 C   0  0  0  0  0  0  0  0  0  0  0  0
   -0.5311   20.4793  -27.3685 H   0  0  0  0  0  0  0  0  0  0  0  0
   -2.0797   19.7198  -27.8701 H   0  0  0  0  0  0  0  0  0  0  0  0
   -0.5647   18.7548  -27.8701 H   0  0  0  0  0  0  0  0  0  0  0  0
    0.1348   20.8462  -29.5255 H   0  0  0  0  0  0  0  0  0  0  0  0
   -0.5270   19.2641  -30.0926 H   0  0  0  0  0  0  0  0  0  0  0  0
   -1.7562   19.5359  -31.7062 H   0  0  0  0  0  0  0  0  0  0  0  0
   -3.4301   20.0876  -31.2856 H   0  0  0  0  0  0  0  0  0  0  0  0
   -2.3648   22.4728  -31.9449 H   0  0  0  0  0  0  0  0  0  0  0  0
   -1.3253   21.4007  -32.9668 H   0  0  0  0  0  0  0  0  0  0  0  0
   -3.3080   21.9520  -34.3040 H   0  0  0  0  0  0  0  0  0  0  0  0
   -3.3089   19.1302  -34.4881 H   0  0  0  0  0  0  0  0  0  0  0  0
   -4.1497   16.9118  -35.2321 H   0  0  0  0  0  0  0  0  0  0  0  0
   -6.4455   16.1783  -34.6194 H   0  0  0  0  0  0  0  0  0  0  0  0
   -7.8948   17.6316  -33.2222 H   0  0  0  0  0  0  0  0  0  0  0  0
   -8.3185   19.5050  -30.4468 H   0  0  0  0  0  0  0  0  0  0  0  0
   -9.2821   20.0568  -31.8588 H   0  0  0  0  0  0  0  0  0  0  0  0
   -8.5462   18.4182  -31.8588 H   0  0  0  0  0  0  0  0  0  0  0  0
   -8.6946   21.9429  -31.0197 H   0  0  0  0  0  0  0  0  0  0  0  0
   -7.9192   24.2241  -30.4237 H   0  0  0  0  0  0  0  0  0  0  0  0
   -5.4281   25.4200  -29.7596 H   0  0  0  0  0  0  0  0  0  0  0  0
   -4.4596   25.4861  -31.2710 H   0  0  0  0  0  0  0  0  0  0  0  0
   -6.1641   26.0530  -31.2710 H   0  0  0  0  0  0  0  0  0  0  0  0
   -4.0670   23.3969  -32.1824 H   0  0  0  0  0  0  0  0  0  0  0  0
   -4.2194   21.0104  -28.6218 H   0  0  0  0  0  0  0  0  0  0  0  0
   -5.1539   23.0231  -27.4952 H   0  0  0  0  0  0  0  0  0  0  0  0
   -3.9646   25.2098  -27.6397 H   0  0  0  0  0  0  0  0  0  0  0  0
   -1.8576   25.3949  -28.9668 H   0  0  0  0  0  0  0  0  0  0  0  0
   -0.8957   23.3924  -30.0878 H   0  0  0  0  0  0  0  0  0  0  0  0
  1  2  1  0
  2  3  1  0
  3  4  1  0
  4  5  1  0
  5  6  1  0
  6  7  1  0
  7  8  1  0
  8  9  2  0
  9 10  1  0
 10 11  2  0
 11 12  1  0
 12 13  2  0
 13 14  1  0
 14 15  1  0
 14 16  2  0
 16 17  1  0
 17 18  2  0
 18 19  1  0
 19 20  1  0
 19 21  2  0
 21 22  1  0
  3 23  1  0
 23 24  2  0
 24 25  1  0
 25 26  2  0
 26 27  1  0
 27 28  2  0
 22  7  2  0
 28 23  1  0
 13  8  1  0
 22 16  1  0
  1 29  1  0
  1 30  1  0
  1 31  1  0
  2 32  1  0
  2 33  1  0
  4 34  1  0
  4 35  1  0
  5 36  1  0
  5 37  1  0
  6 38  1  0
  9 39  1  0
 10 40  1  0
 11 41  1  0
 12 42  1  0
 15 43  1  0
 15 44  1  0
 15 45  1  0
 17 46  1  0
 18 47  1  0
 20 48  1  0
 20 49  1  0
 20 50  1  0
 21 51  1  0
 24 52  1  0
 25 53  1  0
 26 54  1  0
 27 55  1  0
 28 56  1  0
M  CHG  1  14   1
M  END
>  <UniqueID>  (15) 
15

>  <SMILES>  (15) 
CCN(CCNc1c2ccccc2[n+](C)c2ccc(C)cc12)c1ccccc1

>  <Energy>  (15) 
83.56647820555165

>  <Genealogy>  (15) 
CCN(CCNc1c2ccccc2[n+](C)c2ccc(C)cc12)c1ccccc1 (3D coordinates assigned)
CCN(CCNc1c2ccccc2[n+](C)c2ccc(C)cc12)c1ccccc1 (optimized conformer: 83.56647820555165 kcal/mol)

>  <smiles>  (15) 
CCN(CCNc1c2ccccc2[n+](C)c2ccc(C)cc12)c1ccccc1

>  <score_type>  (15) 
oracle

>  <origin>  (15) 
adg

>  <m_score__min__energy>  (15) 
-9.0399999999999991

>  <m_primary>  (15) 
energy

$$$$
15:0
     RDKit          3D

 28 29  0  0  0  0  0  0  0  0999 V2000
   -6.5948   24.0912  -29.3332 H   0  0  0  0  0  0  0  0  0  0  0  0
   -6.3280   23.9950  -30.3960 C   0  0  0  0  0  0  0  0  0  0  0  0
   -4.9800   24.3990  -30.8290 C   0  0  0  0  0  0  0  0  0  0  0  0
   -4.6430   25.6150  -30.8380 O   0  0  0  0  0  0  0  0  0  0  0  0
   -4.0810   23.4090  -31.2420 O   0  0  0  0  0  0  0  0  0  0  0  0
   -3.7260   22.2850  -30.4380 C   0  0  0  0  0  0  0  0  0  0  0  0
   -2.7729   21.8702  -30.7979 H   0  0  0  0  0  0  0  0  0  0  0  0
   -4.5231   21.5306  -30.5130 H   0  0  0  0  0  0  0  0  0  0  0  0
   -3.5740   22.6940  -28.9770 C   0  0  0  0  0  0  0  0  0  0  0  0
   -3.8836   21.8609  -28.3289 H   0  0  0  0  0  0  0  0  0  0  0  0
   -2.5225   22.9452  -28.7741 H   0  0  0  0  0  0  0  0  0  0  0  0
   -4.2062   23.5710  -28.7741 H   0  0  0  0  0  0  0  0  0  0  0  0
   -7.2420   23.5140  -31.2510 C   0  0  0  0  0  0  0  0  0  0  0  0
   -7.9885   24.2119  -31.6580 H   0  0  0  0  0  0  0  0  0  0  0  0
   -7.3050   22.0950  -31.6800 C   0  0  0  0  0  0  0  0  0  0  0  0
   -6.3670   21.6410  -32.6520 C   0  0  0  0  0  0  0  0  0  0  0  0
   -5.6307   22.3468  -33.0641 H   0  0  0  0  0  0  0  0  0  0  0  0
   -6.3670   20.3030  -33.0940 C   0  0  0  0  0  0  0  0  0  0  0  0
   -5.6497   19.9473  -33.8483 H   0  0  0  0  0  0  0  0  0  0  0  0
   -7.3130   19.4530  -32.5350 C   0  0  0  0  0  0  0  0  0  0  0  0
   -8.2060   19.8670  -31.5980 C   0  0  0  0  0  0  0  0  0  0  0  0
   -8.2420   21.1770  -31.1320 C   0  0  0  0  0  0  0  0  0  0  0  0
   -8.9684   21.4910  -30.3679 H   0  0  0  0  0  0  0  0  0  0  0  0
   -8.9650   18.8110  -31.2490 N   0  0  0  0  0  0  0  0  0  0  0  0
   -9.7420   18.7770  -30.5530 H   0  0  0  0  0  0  0  0  0  0  0  0
   -8.5270   17.8050  -31.9630 O   0  0  0  0  0  0  0  0  0  0  0  0
   -7.5410   18.1510  -32.7450 N   0  0  0  0  0  0  0  0  0  0  0  0
   -6.8700   17.3110  -33.6030 O   0  0  0  0  0  0  0  0  0  0  0  0
  1  2  1  0
  2  3  1  0
  3  4  2  0
  3  5  1  0
  5  6  1  0
  6  7  1  0
  6  8  1  0
  6  9  1  0
  9 10  1  0
  9 11  1  0
  9 12  1  0
  2 13  2  0
 13 14  1  0
 13 15  1  0
 15 16  1  0
 16 17  1  0
 16 18  2  0
 18 19  1  0
 18 20  1  0
 20 21  1  0
 21 22  1  0
 22 23  1  0
 21 24  2  0
 24 25  1  0
 24 26  1  0
 26 27  1  0
 27 28  1  0
 22 15  2  0
 27 20  2  0
M  CHG  3  24   1  27   1  28  -1
M  END
>  <UniqueID>  (16) 
16

>  <SMILES>  (16) 
CCOC(=O)/C=C/c1ccc2c(c1)[nH+]o[n+]2[O-]

>  <Energy>  (16) 
73.44856973290922

>  <Genealogy>  (16) 
CCOC(=O)C=Cc1ccc2c(c1)[nH+]o[n+]2[O-] (protonated)
CCOC(=O)/C=C/c1ccc2c(c1)[nH+]o[n+]2[O-] (cis-trans isomerization)
CCOC(=O)/C=C/c1ccc2c(c1)[nH+]o[n+]2[O-] (3D coordinates assigned)
CCOC(=O)/C=C/c1ccc2c(c1)[nH+]o[n+]2[O-] (optimized conformer: 73.44856973290922 kcal/mol)

>  <smiles>  (16) 
CCOC(=O)C=Cc1ccc2c(c1)no[n+]2[O-]

>  <score_type>  (16) 
oracle

>  <origin>  (16) 
adg

>  <m_score__min__energy>  (16) 
-6.8799999999999999

>  <m_primary>  (16) 
energy

$$$$
16:0
     RDKit          3D

 72 74  0  0  0  0  0  0  0  0999 V2000
   -7.1940   22.6660  -29.8620 C   0  0  0  0  0  0  0  0  0  0  0  0
   -6.9570   23.5710  -31.0810 C   0  0  0  0  0  0  0  0  0  0  0  0
   -5.5320   23.9020  -31.3110 N   0  0  0  0  0  0  0  0  0  0  0  0
   -5.1740   25.2620  -30.8410 C   0  0  0  0  0  0  0  0  0  0  0  0
   -6.1120   25.6730  -29.7150 C   0  0  0  0  0  0  0  0  0  0  0  0
   -4.6120   22.8530  -30.8220 C   0  0  0  0  0  0  0  0  0  0  0  0
   -3.9660   22.1110  -32.0010 C   0  0  0  0  0  0  0  0  0  0  0  0
   -4.9260   21.8380  -33.0890 N   0  0  0  0  0  0  0  0  0  0  0  0
   -5.2640   20.4210  -33.1810 C   0  0  0  0  0  0  0  0  0  0  0  0
   -6.5690   19.9750  -32.8260 C   0  0  0  0  0  0  0  0  0  0  0  0
   -7.5850   20.8830  -32.4250 C   0  0  0  0  0  0  0  0  0  0  0  0
   -8.8330   20.4320  -32.0080 C   0  0  0  0  0  0  0  0  0  0  0  0
   -9.1040   19.0740  -31.9690 C   0  0  0  0  0  0  0  0  0  0  0  0
   -8.1420   18.1590  -32.3860 C   0  0  0  0  0  0  0  0  0  0  0  0
   -6.8750   18.5870  -32.8640 C   0  0  0  0  0  0  0  0  0  0  0  0
   -5.9510   17.6820  -33.3380 N   0  0  0  0  0  0  0  0  0  0  0  0
   -6.3720   16.2990  -33.6680 C   0  0  0  0  0  0  0  0  0  0  0  0
   -4.6420   18.0680  -33.5450 C   0  0  0  0  0  0  0  0  0  0  0  0
   -3.6200   17.1070  -33.7490 C   0  0  0  0  0  0  0  0  0  0  0  0
   -2.3170   17.4890  -34.0430 C   0  0  0  0  0  0  0  0  0  0  0  0
   -1.9790   18.8310  -34.1460 C   0  0  0  0  0  0  0  0  0  0  0  0
   -0.6530   19.1550  -34.4820 O   0  0  0  0  0  0  0  0  0  0  0  0
   -0.0310   20.4260  -34.2870 C   0  0  0  0  0  0  0  0  0  0  0  0
    0.8970   20.3980  -33.0660 C   0  0  0  0  0  0  0  0  0  0  0  0
    0.0950   20.1270  -31.7730 C   0  0  0  0  0  0  0  0  0  0  0  0
    0.5930   18.9860  -30.9460 N   0  0  0  0  0  0  0  0  0  0  0  0
    0.1550   19.2120  -29.5460 C   0  0  0  0  0  0  0  0  0  0  0  0
    2.0750   18.9130  -30.9630 C   0  0  0  0  0  0  0  0  0  0  0  0
    0.0240   17.6970  -31.4080 C   0  0  0  0  0  0  0  0  0  0  0  0
   -2.9650   19.8020  -33.9080 C   0  0  0  0  0  0  0  0  0  0  0  0
   -4.2880   19.4470  -33.5450 C   0  0  0  0  0  0  0  0  0  0  0  0
   -7.0421   23.2459  -28.9397 H   0  0  0  0  0  0  0  0  0  0  0  0
   -8.2236   22.2796  -29.8868 H   0  0  0  0  0  0  0  0  0  0  0  0
   -6.4859   21.8246  -29.8868 H   0  0  0  0  0  0  0  0  0  0  0  0
   -7.3425   23.0577  -31.9743 H   0  0  0  0  0  0  0  0  0  0  0  0
   -7.4784   24.5191  -30.8826 H   0  0  0  0  0  0  0  0  0  0  0  0
   -4.1374   25.2617  -30.4730 H   0  0  0  0  0  0  0  0  0  0  0  0
   -5.2671   25.9742  -31.6741 H   0  0  0  0  0  0  0  0  0  0  0  0
   -5.6352   25.4641  -28.7460 H   0  0  0  0  0  0  0  0  0  0  0  0
   -6.3289   26.7486  -29.7926 H   0  0  0  0  0  0  0  0  0  0  0  0
   -7.0498   25.1033  -29.7926 H   0  0  0  0  0  0  0  0  0  0  0  0
   -3.8239   23.3185  -30.2119 H   0  0  0  0  0  0  0  0  0  0  0  0
   -5.1833   22.1323  -30.2185 H   0  0  0  0  0  0  0  0  0  0  0  0
   -3.1464   22.7270  -32.3995 H   0  0  0  0  0  0  0  0  0  0  0  0
   -3.5988   21.1437  -31.6275 H   0  0  0  0  0  0  0  0  0  0  0  0
   -5.7560   22.4600  -33.0100 H   0  0  0  0  0  0  0  0  0  0  0  0
   -4.5160   22.1580  -33.9940 H   0  0  0  0  0  0  0  0  0  0  0  0
   -7.3809   21.9637  -32.4446 H   0  0  0  0  0  0  0  0  0  0  0  0
   -9.6061   21.1549  -31.7087 H   0  0  0  0  0  0  0  0  0  0  0  0
  -10.0805   18.7187  -31.6081 H   0  0  0  0  0  0  0  0  0  0  0  0
   -8.3673   17.0831  -32.3446 H   0  0  0  0  0  0  0  0  0  0  0  0
   -6.5433   15.7362  -32.7385 H   0  0  0  0  0  0  0  0  0  0  0  0
   -7.3017   16.3290  -34.2551 H   0  0  0  0  0  0  0  0  0  0  0  0
   -5.5833   15.8059  -34.2551 H   0  0  0  0  0  0  0  0  0  0  0  0
   -3.8636   16.0370  -33.6730 H   0  0  0  0  0  0  0  0  0  0  0  0
   -1.5455   16.7200  -34.1957 H   0  0  0  0  0  0  0  0  0  0  0  0
    0.5572   20.6803  -35.1810 H   0  0  0  0  0  0  0  0  0  0  0  0
   -0.8146   21.1790  -34.1165 H   0  0  0  0  0  0  0  0  0  0  0  0
    1.6450   19.6026  -33.1997 H   0  0  0  0  0  0  0  0  0  0  0  0
    1.3907   21.3768  -32.9760 H   0  0  0  0  0  0  0  0  0  0  0  0
    0.1280   21.0361  -31.1546 H   0  0  0  0  0  0  0  0  0  0  0  0
   -0.9207   19.8525  -32.0941 H   0  0  0  0  0  0  0  0  0  0  0  0
    0.9161   18.8193  -28.8558 H   0  0  0  0  0  0  0  0  0  0  0  0
    0.0240   20.2903  -29.3723 H   0  0  0  0  0  0  0  0  0  0  0  0
   -0.7997   18.6940  -29.3723 H   0  0  0  0  0  0  0  0  0  0  0  0
    2.4531   18.8944  -29.9302 H   0  0  0  0  0  0  0  0  0  0  0  0
    2.3911   17.9982  -31.4857 H   0  0  0  0  0  0  0  0  0  0  0  0
    2.4795   19.7923  -31.4857 H   0  0  0  0  0  0  0  0  0  0  0  0
   -0.2472   17.0827  -30.5368 H   0  0  0  0  0  0  0  0  0  0  0  0
   -0.8731   17.8888  -32.0150 H   0  0  0  0  0  0  0  0  0  0  0  0
    0.7702   17.1634  -32.0150 H   0  0  0  0  0  0  0  0  0  0  0  0
   -2.7036   20.8660  -34.0059 H   0  0  0  0  0  0  0  0  0  0  0  0
  1  2  1  0
  2  3  1  0
  3  4  1  0
  4  5  1  0
  3  6  1  0
  6  7  1  0
  7  8  1  0
  8  9  1  0
  9 10  2  0
 10 11  1  0
 11 12  2  0
 12 13  1  0
 13 14  2  0
 14 15  1  0
 15 16  2  0
 16 17  1  0
 16 18  1  0
 18 19  2  0
 19 20  1  0
 20 21  2  0
 21 22  1  0
 22 23  1  0
 23 24  1  0
 24 25  1  0
 25 26  1  0
 26 27  1  0
 26 28  1  0
 26 29  1  0
 21 30  1  0
 30 31  2  0
 31  9  1  0
 15 10  1  0
 31 18  1  0
  1 32  1  0
  1 33  1  0
  1 34  1  0
  2 35  1  0
  2 36  1  0
  4 37  1  0
  4 38  1  0
  5 39  1  0
  5 40  1  0
  5 41  1  0
  6 42  1  0
  6 43  1  0
  7 44  1  0
  7 45  1  0
  8 46  1  0
  8 47  1  0
 11 48  1  0
 12 49  1  0
 13 50  1  0
 14 51  1  0
 17 52  1  0
 17 53  1  0
 17 54  1  0
 19 55  1  0
 20 56  1  0
 23 57  1  0
 23 58  1  0
 24 59  1  0
 24 60  1  0
 25 61  1  0
 25 62  1  0
 27 63  1  0
 27 64  1  0
 27 65  1  0
 28 66  1  0
 28 67  1  0
 28 68  1  0
 29 69  1  0
 29 70  1  0
 29 71  1  0
 30 72  1  0
M  CHG  3   8   1  16   1  26   1
M  END
>  <UniqueID>  (17) 
17

>  <SMILES>  (17) 
CCN(CC)CC[NH2+]c1c2ccccc2[n+](C)c2ccc(OCCC[N+](C)(C)C)cc12

>  <Energy>  (17) 
104.80918304903558

>  <Genealogy>  (17) 
CCN(CC)CC[NH2+]c1c2ccccc2[n+](C)c2ccc(OCCC[N+](C)(C)C)cc12 (protonated)
CCN(CC)CC[NH2+]c1c2ccccc2[n+](C)c2ccc(OCCC[N+](C)(C)C)cc12 (3D coordinates assigned)
CCN(CC)CC[NH2+]c1c2ccccc2[n+](C)c2ccc(OCCC[N+](C)(C)C)cc12 (optimized conformer: 104.80918304903558 kcal/mol)

>  <smiles>  (17) 
CCN(CC)CCNc1c2ccccc2[n+](C)c2ccc(OCCC[N+](C)(C)C)cc12

>  <score_type>  (17) 
oracle

>  <origin>  (17) 
adg

>  <m_score__min__energy>  (17) 
-6.7400000000000002

>  <m_primary>  (17) 
energy

$$$$
17:0
     RDKit          3D

 66 70  0  0  0  0  0  0  0  0999 V2000
   -8.7990   18.5670  -31.5620 C   0  0  0  0  0  0  0  0  0  0  0  0
   -8.2750   19.4020  -32.7250 C   0  0  0  0  0  0  0  0  0  0  0  0
   -8.5000   20.8420  -32.4560 N   0  0  0  0  0  0  0  0  0  0  0  0
   -9.1650   21.0700  -31.1530 C   0  0  0  0  0  0  0  0  0  0  0  0
   -8.3250   21.9520  -30.2290 C   0  0  0  0  0  0  0  0  0  0  0  0
   -7.2840   21.6630  -32.6960 C   0  0  0  0  0  0  0  0  0  0  0  0
   -5.9510   20.9460  -32.3750 C   0  0  0  0  0  0  0  0  0  0  0  0
   -4.8350   21.4050  -33.2290 N   0  0  0  0  0  0  0  0  0  0  0  0
   -3.5280   20.9910  -32.7270 C   0  0  0  0  0  0  0  0  0  0  0  0
   -2.8900   19.8090  -33.2070 C   0  0  0  0  0  0  0  0  0  0  0  0
   -3.5090   18.9380  -34.1430 C   0  0  0  0  0  0  0  0  0  0  0  0
   -2.8920   17.7600  -34.5550 C   0  0  0  0  0  0  0  0  0  0  0  0
   -1.6560   17.4040  -34.0400 C   0  0  0  0  0  0  0  0  0  0  0  0
   -1.0140   18.2410  -33.1320 C   0  0  0  0  0  0  0  0  0  0  0  0
   -1.5900   19.4740  -32.7290 C   0  0  0  0  0  0  0  0  0  0  0  0
   -0.9170   20.3260  -31.8790 N   0  0  0  0  0  0  0  0  0  0  0  0
    0.5370   20.1530  -31.6570 C   0  0  0  0  0  0  0  0  0  0  0  0
   -1.5870   21.3610  -31.2620 C   0  0  0  0  0  0  0  0  0  0  0  0
   -1.0120   22.0530  -30.1640 C   0  0  0  0  0  0  0  0  0  0  0  0
   -1.6440   23.1570  -29.5770 C   0  0  0  0  0  0  0  0  0  0  0  0
   -1.0250   23.8650  -28.4280 C   0  0  0  0  0  0  0  0  0  0  0  0
    0.3640   23.8000  -28.2170 C   0  0  0  0  0  0  0  0  0  0  0  0
    0.9520   24.4570  -27.1330 C   0  0  0  0  0  0  0  0  0  0  0  0
    0.1620   25.1910  -26.2400 C   0  0  0  0  0  0  0  0  0  0  0  0
    0.7430   25.8530  -25.1470 C   0  0  0  0  0  0  0  0  0  0  0  0
   -0.0560   26.5800  -24.2610 C   0  0  0  0  0  0  0  0  0  0  0  0
   -1.4390   26.6540  -24.4580 C   0  0  0  0  0  0  0  0  0  0  0  0
   -2.0300   26.0000  -25.5440 C   0  0  0  0  0  0  0  0  0  0  0  0
   -1.2380   25.2650  -26.4400 C   0  0  0  0  0  0  0  0  0  0  0  0
   -1.8190   24.6030  -27.5320 C   0  0  0  0  0  0  0  0  0  0  0  0
   -2.8720   23.5800  -30.0870 C   0  0  0  0  0  0  0  0  0  0  0  0
   -3.4820   22.8900  -31.1290 C   0  0  0  0  0  0  0  0  0  0  0  0
   -2.8780   21.7480  -31.7110 C   0  0  0  0  0  0  0  0  0  0  0  0
   -8.5045   19.0363  -30.6117 H   0  0  0  0  0  0  0  0  0  0  0  0
   -9.8960   18.5085  -31.6176 H   0  0  0  0  0  0  0  0  0  0  0  0
   -8.3745   17.5537  -31.6176 H   0  0  0  0  0  0  0  0  0  0  0  0
   -7.1975   19.2185  -32.8490 H   0  0  0  0  0  0  0  0  0  0  0  0
   -8.8096   19.1181  -33.6435 H   0  0  0  0  0  0  0  0  0  0  0  0
  -10.1333   21.5611  -31.3294 H   0  0  0  0  0  0  0  0  0  0  0  0
   -9.2978   20.0939  -30.6634 H   0  0  0  0  0  0  0  0  0  0  0  0
   -8.5558   21.7096  -29.1812 H   0  0  0  0  0  0  0  0  0  0  0  0
   -7.2570   21.7711  -30.4205 H   0  0  0  0  0  0  0  0  0  0  0  0
   -8.5578   23.0099  -30.4205 H   0  0  0  0  0  0  0  0  0  0  0  0
   -7.2704   21.9546  -33.7566 H   0  0  0  0  0  0  0  0  0  0  0  0
   -7.3482   22.5234  -32.0136 H   0  0  0  0  0  0  0  0  0  0  0  0
   -5.6919   21.1395  -31.3236 H   0  0  0  0  0  0  0  0  0  0  0  0
   -6.0967   19.8729  -32.5678 H   0  0  0  0  0  0  0  0  0  0  0  0
   -4.8610   22.4470  -33.2910 H   0  0  0  0  0  0  0  0  0  0  0  0
   -5.0030   21.1270  -34.2180 H   0  0  0  0  0  0  0  0  0  0  0  0
   -4.4965   19.1998  -34.5508 H   0  0  0  0  0  0  0  0  0  0  0  0
   -3.3872   17.1100  -35.2915 H   0  0  0  0  0  0  0  0  0  0  0  0
   -1.1824   16.4604  -34.3486 H   0  0  0  0  0  0  0  0  0  0  0  0
   -0.0401   17.9407  -32.7182 H   0  0  0  0  0  0  0  0  0  0  0  0
    0.7426   20.1285  -30.5767 H   0  0  0  0  0  0  0  0  0  0  0  0
    0.8681   19.2091  -32.1147 H   0  0  0  0  0  0  0  0  0  0  0  0
    1.0803   20.9928  -32.1147 H   0  0  0  0  0  0  0  0  0  0  0  0
   -0.0452   21.7137  -29.7637 H   0  0  0  0  0  0  0  0  0  0  0  0
    0.9940   23.2260  -28.9125 H   0  0  0  0  0  0  0  0  0  0  0  0
    2.0398   24.3973  -26.9806 H   0  0  0  0  0  0  0  0  0  0  0  0
    1.8301   25.7992  -24.9877 H   0  0  0  0  0  0  0  0  0  0  0  0
    0.4041   27.0961  -23.4054 H   0  0  0  0  0  0  0  0  0  0  0  0
   -2.0632   27.2279  -23.7572 H   0  0  0  0  0  0  0  0  0  0  0  0
   -3.1177   26.0618  -25.6962 H   0  0  0  0  0  0  0  0  0  0  0  0
   -2.9062   24.6618  -27.6889 H   0  0  0  0  0  0  0  0  0  0  0  0
   -3.3622   24.4677  -29.6608 H   0  0  0  0  0  0  0  0  0  0  0  0
   -4.4537   23.2381  -31.5093 H   0  0  0  0  0  0  0  0  0  0  0  0
  1  2  1  0
  2  3  1  0
  3  4  1  0
  4  5  1  0
  3  6  1  0
  6  7  1  0
  7  8  1  0
  8  9  1  0
  9 10  2  0
 10 11  1  0
 11 12  2  0
 12 13  1  0
 13 14  2  0
 14 15  1  0
 15 16  2  0
 16 17  1  0
 16 18  1  0
 18 19  2  0
 19 20  1  0
 20 21  1  0
 21 22  2  0
 22 23  1  0
 23 24  2  0
 24 25  1  0
 25 26  2  0
 26 27  1  0
 27 28  2  0
 28 29  1  0
 29 30  2  0
 20 31  2  0
 31 32  1  0
 32 33  2  0
 33  9  1  0
 15 10  1  0
 33 18  1  0
 30 21  1  0
 29 24  1  0
  1 34  1  0
  1 35  1  0
  1 36  1  0
  2 37  1  0
  2 38  1  0
  4 39  1  0
  4 40  1  0
  5 41  1  0
  5 42  1  0
  5 43  1  0
  6 44  1  0
  6 45  1  0
  7 46  1  0
  7 47  1  0
  8 48  1  0
  8 49  1  0
 11 50  1  0
 12 51  1  0
 13 52  1  0
 14 53  1  0
 17 54  1  0
 17 55  1  0
 17 56  1  0
 19 57  1  0
 22 58  1  0
 23 59  1  0
 25 60  1  0
 26 61  1  0
 27 62  1  0
 28 63  1  0
 30 64  1  0
 31 65  1  0
 32 66  1  0
M  CHG  2   8   1  16   1
M  END
>  <UniqueID>  (18) 
18

>  <SMILES>  (18) 
CCN(CC)CC[NH2+]c1c2ccccc2[n+](C)c2cc(-c3ccc4ccccc4c3)ccc12

>  <Energy>  (18) 
111.74020558629276

>  <Genealogy>  (18) 
CCN(CC)CC[NH2+]c1c2ccccc2[n+](C)c2cc(-c3ccc4ccccc4c3)ccc12 (protonated)
CCN(CC)CC[NH2+]c1c2ccccc2[n+](C)c2cc(-c3ccc4ccccc4c3)ccc12 (3D coordinates assigned)
CCN(CC)CC[NH2+]c1c2ccccc2[n+](C)c2cc(-c3ccc4ccccc4c3)ccc12 (optimized conformer: 111.74020558629276 kcal/mol)

>  <smiles>  (18) 
CCN(CC)CCNc1c2ccccc2[n+](C)c2cc(-c3ccc4ccccc4c3)ccc12

>  <score_type>  (18) 
oracle

>  <origin>  (18) 
adg

>  <m_score__min__energy>  (18) 
-8.5999999999999996

>  <m_primary>  (18) 
energy

$$$$
18:0
     RDKit          3D

 57 59  0  0  0  0  0  0  0  0999 V2000
   -0.3930   22.8950  -27.7420 C   0  0  0  0  0  0  0  0  0  0  0  0
    0.0710   24.0830  -28.5750 C   0  0  0  0  0  0  0  0  0  0  0  0
   -1.0910   24.9210  -28.9250 N   0  0  0  0  0  0  0  0  0  0  0  0
   -2.1550   24.8700  -27.9130 C   0  0  0  0  0  0  0  0  0  0  0  0
   -3.5140   24.5500  -28.5500 C   0  0  0  0  0  0  0  0  0  0  0  0
   -3.4310   24.5580  -29.9760 O   0  0  0  0  0  0  0  0  0  0  0  0
   -3.8770   23.5370  -30.8300 C   0  0  0  0  0  0  0  0  0  0  0  0
   -5.2160   23.4300  -31.2490 C   0  0  0  0  0  0  0  0  0  0  0  0
   -5.6260   22.3830  -32.0860 C   0  0  0  0  0  0  0  0  0  0  0  0
   -7.0110   22.2990  -32.4730 N   0  0  0  0  0  0  0  0  0  0  0  0
   -8.1090   21.9530  -31.5670 C   0  0  0  0  0  0  0  0  0  0  0  0
   -9.1010   20.9920  -32.2380 C   0  0  0  0  0  0  0  0  0  0  0  0
   -8.4270   20.1240  -33.2050 N   0  0  0  0  0  0  0  0  0  0  0  0
   -7.4490   19.1230  -32.8670 C   0  0  0  0  0  0  0  0  0  0  0  0
   -6.4720   18.7740  -33.8150 C   0  0  0  0  0  0  0  0  0  0  0  0
   -5.5100   17.8030  -33.5200 C   0  0  0  0  0  0  0  0  0  0  0  0
   -5.5160   17.1680  -32.2770 C   0  0  0  0  0  0  0  0  0  0  0  0
   -6.4860   17.4990  -31.3280 C   0  0  0  0  0  0  0  0  0  0  0  0
   -7.4510   18.4690  -31.6190 C   0  0  0  0  0  0  0  0  0  0  0  0
   -4.6740   21.4530  -32.5410 C   0  0  0  0  0  0  0  0  0  0  0  0
   -3.3280   21.5560  -32.1440 C   0  0  0  0  0  0  0  0  0  0  0  0
   -2.9450   22.5940  -31.2760 C   0  0  0  0  0  0  0  0  0  0  0  0
   -1.6130   22.6840  -30.8550 O   0  0  0  0  0  0  0  0  0  0  0  0
   -0.6860   21.6200  -31.0630 C   0  0  0  0  0  0  0  0  0  0  0  0
   -0.9030   21.0000  -32.4440 C   0  0  0  0  0  0  0  0  0  0  0  0
   -2.3170   20.6310  -32.6080 N   0  0  0  0  0  0  0  0  0  0  0  0
   -2.6750   19.3380  -33.2000 C   0  0  0  0  0  0  0  0  0  0  0  0
   -0.2984   23.1373  -26.6732 H   0  0  0  0  0  0  0  0  0  0  0  0
   -1.4444   22.6717  -27.9756 H   0  0  0  0  0  0  0  0  0  0  0  0
    0.2288   22.0182  -27.9756 H   0  0  0  0  0  0  0  0  0  0  0  0
    0.7914   24.6786  -27.9951 H   0  0  0  0  0  0  0  0  0  0  0  0
    0.5523   23.7203  -29.4952 H   0  0  0  0  0  0  0  0  0  0  0  0
   -1.4920   24.5660  -29.8260 H   0  0  0  0  0  0  0  0  0  0  0  0
   -1.9119   24.0903  -27.1762 H   0  0  0  0  0  0  0  0  0  0  0  0
   -2.2215   25.8553  -27.4285 H   0  0  0  0  0  0  0  0  0  0  0  0
   -3.8417   23.5547  -28.2153 H   0  0  0  0  0  0  0  0  0  0  0  0
   -4.2346   25.3207  -28.2388 H   0  0  0  0  0  0  0  0  0  0  0  0
   -5.9506   24.1777  -30.9154 H   0  0  0  0  0  0  0  0  0  0  0  0
   -7.2710   22.5730  -33.4490 H   0  0  0  0  0  0  0  0  0  0  0  0
   -7.6948   21.4716  -30.6688 H   0  0  0  0  0  0  0  0  0  0  0  0
   -8.6445   22.8761  -31.3004 H   0  0  0  0  0  0  0  0  0  0  0  0
   -9.5745   20.3684  -31.4654 H   0  0  0  0  0  0  0  0  0  0  0  0
   -9.8555   21.5881  -32.7723 H   0  0  0  0  0  0  0  0  0  0  0  0
   -8.6510   20.2780  -34.2150 H   0  0  0  0  0  0  0  0  0  0  0  0
   -6.4640   19.2689  -34.7974 H   0  0  0  0  0  0  0  0  0  0  0  0
   -4.7479   17.5394  -34.2681 H   0  0  0  0  0  0  0  0  0  0  0  0
   -4.7567   16.4068  -32.0447 H   0  0  0  0  0  0  0  0  0  0  0  0
   -6.4911   16.9959  -30.3498 H   0  0  0  0  0  0  0  0  0  0  0  0
   -8.2153   18.7225  -30.8696 H   0  0  0  0  0  0  0  0  0  0  0  0
   -4.9841   20.6388  -33.2125 H   0  0  0  0  0  0  0  0  0  0  0  0
    0.3396   22.0122  -30.9968 H   0  0  0  0  0  0  0  0  0  0  0  0
   -0.8413   20.8500  -30.2930 H   0  0  0  0  0  0  0  0  0  0  0  0
   -0.6235   21.7285  -33.2193 H   0  0  0  0  0  0  0  0  0  0  0  0
   -0.2792   20.0990  -32.5396 H   0  0  0  0  0  0  0  0  0  0  0  0
   -2.8762   18.6112  -32.3992 H   0  0  0  0  0  0  0  0  0  0  0  0
   -3.5742   19.4561  -33.8224 H   0  0  0  0  0  0  0  0  0  0  0  0
   -1.8431   18.9768  -33.8224 H   0  0  0  0  0  0  0  0  0  0  0  0
  1  2  1  0
  2  3  1  0
  3  4  1  0
  4  5  1  0
  5  6  1  0
  6  7  1  0
  7  8  2  0
  8  9  1  0
  9 10  1  0
 10 11  1  0
 11 12  1  0
 12 13  1  0
 13 14  1  0
 14 15  2  0
 15 16  1  0
 16 17  2  0
 17 18  1  0
 18 19  2  0
  9 20  2  0
 20 21  1  0
 21 22  2  0
 22 23  1  0
 23 24  1  0
 24 25  1  0
 25 26  1  0
 26 27  1  0
 22  7  1  0
 19 14  1  0
 26 21  1  0
  1 28  1  0
  1 29  1  0
  1 30  1  0
  2 31  1  0
  2 32  1  0
  3 33  1  0
  4 34  1  0
  4 35  1  0
  5 36  1  0
  5 37  1  0
  8 38  1  0
 10 39  1  0
 11 40  1  0
 11 41  1  0
 12 42  1  0
 12 43  1  0
 13 44  1  0
 15 45  1  0
 16 46  1  0
 17 47  1  0
 18 48  1  0
 19 49  1  0
 20 50  1  0
 24 51  1  0
 24 52  1  0
 25 53  1  0
 25 54  1  0
 27 55  1  0
 27 56  1  0
 27 57  1  0
M  END
>  <UniqueID>  (19) 
19

>  <SMILES>  (19) 
CCNCCOc1cc(NCCNc2ccccc2)cc2c1OCCN2C

>  <Energy>  (19) 
52.89052969863833

>  <Genealogy>  (19) 
CCNCCOc1cc(NCCNc2ccccc2)cc2c1OCCN2C (3D coordinates assigned)
CCNCCOc1cc(NCCNc2ccccc2)cc2c1OCCN2C (nonaromatic ring conformer: 52.89052969863833 kcal/mol)

>  <smiles>  (19) 
CCNCCOc1cc(NCCNc2ccccc2)cc2c1OCCN2C

>  <score_type>  (19) 
oracle

>  <origin>  (19) 
adg

>  <m_score__min__energy>  (19) 
-8.1099999999999994

>  <m_primary>  (19) 
energy

$$$$
19:0
     RDKit          3D

 45 46  0  0  0  0  0  0  0  0999 V2000
   -8.8490   22.4340  -31.8680 C   0  0  0  0  0  0  0  0  0  0  0  0
   -7.8370   21.9790  -30.8280 C   0  0  0  0  0  0  0  0  0  0  0  0
   -6.7010   21.4210  -31.4820 O   0  0  0  0  0  0  0  0  0  0  0  0
   -6.6750   20.1630  -32.1070 C   0  0  0  0  0  0  0  0  0  0  0  0
   -7.7480   19.2560  -31.9880 C   0  0  0  0  0  0  0  0  0  0  0  0
   -7.6910   18.0070  -32.6090 C   0  0  0  0  0  0  0  0  0  0  0  0
   -6.5680   17.6450  -33.3540 C   0  0  0  0  0  0  0  0  0  0  0  0
   -6.4930   15.9330  -34.1970 Br  0  0  0  0  0  0  0  0  0  0  0  0
   -5.5000   18.5340  -33.4810 C   0  0  0  0  0  0  0  0  0  0  0  0
   -5.5430   19.7980  -32.8670 C   0  0  0  0  0  0  0  0  0  0  0  0
   -4.3570   20.7290  -33.0140 C   0  0  0  0  0  0  0  0  0  0  0  0
   -4.1580   21.5690  -31.8180 N   0  0  0  0  0  0  0  0  0  0  0  0
   -2.7440   21.8760  -31.5240 C   0  0  0  0  0  0  0  0  0  0  0  0
   -2.4480   22.1370  -30.0290 C   0  0  0  0  0  0  0  0  0  0  0  0
   -2.0230   23.5780  -29.7070 C   0  0  0  0  0  0  0  0  0  0  0  0
   -3.1100   24.3360  -29.0880 N   0  0  0  0  0  0  0  0  0  0  0  0
   -4.3680   24.5590  -29.7360 C   0  0  0  0  0  0  0  0  0  0  0  0
   -4.6270   24.1450  -30.9280 N   0  0  0  0  0  0  0  0  0  0  0  0
   -5.9850   24.5360  -31.2910 C   0  0  0  0  0  0  0  0  0  0  0  0
   -6.5270   25.2920  -30.0650 C   0  0  0  0  0  0  0  0  0  0  0  0
   -5.4280   25.2600  -29.1220 N   0  0  0  0  0  0  0  0  0  0  0  0
   -9.7398   22.8345  -31.3621 H   0  0  0  0  0  0  0  0  0  0  0  0
   -8.4013   23.2174  -32.4971 H   0  0  0  0  0  0  0  0  0  0  0  0
   -9.1379   21.5791  -32.4971 H   0  0  0  0  0  0  0  0  0  0  0  0
   -7.5235   22.8405  -30.2202 H   0  0  0  0  0  0  0  0  0  0  0  0
   -8.2958   21.2190  -30.1784 H   0  0  0  0  0  0  0  0  0  0  0  0
   -8.6361   19.5345  -31.4018 H   0  0  0  0  0  0  0  0  0  0  0  0
   -8.5334   17.3065  -32.5108 H   0  0  0  0  0  0  0  0  0  0  0  0
   -4.6159   18.2430  -34.0672 H   0  0  0  0  0  0  0  0  0  0  0  0
   -3.4516   20.1264  -33.1786 H   0  0  0  0  0  0  0  0  0  0  0  0
   -4.5539   21.3956  -33.8666 H   0  0  0  0  0  0  0  0  0  0  0  0
   -4.6040   21.1040  -30.9960 H   0  0  0  0  0  0  0  0  0  0  0  0
   -4.6680   22.4740  -31.9530 H   0  0  0  0  0  0  0  0  0  0  0  0
   -2.1307   21.0242  -31.8532 H   0  0  0  0  0  0  0  0  0  0  0  0
   -2.5053   22.8065  -32.0599 H   0  0  0  0  0  0  0  0  0  0  0  0
   -3.3577   21.9102  -29.4537 H   0  0  0  0  0  0  0  0  0  0  0  0
   -1.5982   21.4922  -29.7606 H   0  0  0  0  0  0  0  0  0  0  0  0
   -1.1678   23.5516  -29.0157 H   0  0  0  0  0  0  0  0  0  0  0  0
   -1.7516   24.0748  -30.6501 H   0  0  0  0  0  0  0  0  0  0  0  0
   -2.9490   24.7660  -28.1510 H   0  0  0  0  0  0  0  0  0  0  0  0
   -5.9749   25.1908  -32.1748 H   0  0  0  0  0  0  0  0  0  0  0  0
   -6.6088   23.6672  -31.5478 H   0  0  0  0  0  0  0  0  0  0  0  0
   -6.7873   26.3280  -30.3276 H   0  0  0  0  0  0  0  0  0  0  0  0
   -7.4458   24.8417  -29.6611 H   0  0  0  0  0  0  0  0  0  0  0  0
   -5.4220   25.6750  -28.1650 H   0  0  0  0  0  0  0  0  0  0  0  0
  1  2  1  0
  2  3  1  0
  3  4  1  0
  4  5  2  0
  5  6  1  0
  6  7  2  0
  7  8  1  0
  7  9  1  0
  9 10  2  0
 10 11  1  0
 11 12  1  0
 12 13  1  0
 13 14  1  0
 14 15  1  0
 15 16  1  0
 16 17  1  0
 17 18  2  0
 18 19  1  0
 19 20  1  0
 20 21  1  0
 10  4  1  0
 21 17  1  0
  1 22  1  0
  1 23  1  0
  1 24  1  0
  2 25  1  0
  2 26  1  0
  5 27  1  0
  6 28  1  0
  9 29  1  0
 11 30  1  0
 11 31  1  0
 12 32  1  0
 12 33  1  0
 13 34  1  0
 13 35  1  0
 14 36  1  0
 14 37  1  0
 15 38  1  0
 15 39  1  0
 16 40  1  0
 19 41  1  0
 19 42  1  0
 20 43  1  0
 20 44  1  0
 21 45  1  0
M  CHG  1  12   1
M  END
>  <UniqueID>  (20) 
20

>  <SMILES>  (20) 
CCOc1ccc(Br)cc1C[NH2+]CCCNC1=NCCN1

>  <Energy>  (20) 
48.00037106451514

>  <Genealogy>  (20) 
CCOc1ccc(Br)cc1C[NH2+]CCCNC1=NCCN1 (protonated)
CCOc1ccc(Br)cc1C[NH2+]CCCNC1=NCCN1 (3D coordinates assigned)
CCOc1ccc(Br)cc1C[NH2+]CCCNC1=NCCN1 (nonaromatic ring conformer: 48.00037106451514 kcal/mol)

>  <smiles>  (20) 
CCOc1ccc(Br)cc1CNCCCNC1=NCCN1

>  <score_type>  (20) 
oracle

>  <origin>  (20) 
adg

>  <m_score__min__energy>  (20) 
-6.9800000000000004

>  <m_primary>  (20) 
energy

$$$$
20:0
     RDKit          3D

 40 41  0  0  0  0  0  0  0  0999 V2000
   -0.7480   21.2670  -31.5500 C   0  0  0  0  0  0  0  0  0  0  0  0
   -0.4790   21.9070  -30.1920 C   0  0  0  0  0  0  0  0  0  0  0  0
   -1.6880   22.5750  -29.6880 N   0  0  0  0  0  0  0  0  0  0  0  0
   -2.8870   21.7610  -29.4290 C   0  0  0  0  0  0  0  0  0  0  0  0
   -3.0990   21.5890  -27.9290 C   0  0  0  0  0  0  0  0  0  0  0  0
   -1.6290   23.9760  -29.3270 C   0  0  0  0  0  0  0  0  0  0  0  0
   -0.5090   24.5250  -29.1360 O   0  0  0  0  0  0  0  0  0  0  0  0
   -2.8650   24.8120  -29.1720 C   0  0  0  0  0  0  0  0  0  0  0  0
   -3.4800   25.0270  -30.4750 N   0  0  0  0  0  0  0  0  0  0  0  0
   -4.8930   24.9610  -30.6890 C   0  0  0  0  0  0  0  0  0  0  0  0
   -5.6140   25.9570  -30.4060 O   0  0  0  0  0  0  0  0  0  0  0  0
   -5.5060   23.7330  -31.2470 C   0  0  0  0  0  0  0  0  0  0  0  0
   -4.7150   22.7890  -31.9270 C   0  0  0  0  0  0  0  0  0  0  0  0
   -5.2840   21.6250  -32.4510 C   0  0  0  0  0  0  0  0  0  0  0  0
   -6.6560   21.3830  -32.3030 C   0  0  0  0  0  0  0  0  0  0  0  0
   -7.2370   20.2160  -32.8250 C   0  0  0  0  0  0  0  0  0  0  0  0
   -8.6070   19.9850  -32.6720 C   0  0  0  0  0  0  0  0  0  0  0  0
   -9.4050   20.9140  -31.9990 C   0  0  0  0  0  0  0  0  0  0  0  0
   -8.8390   22.0800  -31.4750 C   0  0  0  0  0  0  0  0  0  0  0  0
   -7.4640   22.3230  -31.6220 C   0  0  0  0  0  0  0  0  0  0  0  0
   -6.8850   23.4900  -31.1010 C   0  0  0  0  0  0  0  0  0  0  0  0
   -1.1705   20.2619  -31.4044 H   0  0  0  0  0  0  0  0  0  0  0  0
   -1.4617   21.8868  -32.1125 H   0  0  0  0  0  0  0  0  0  0  0  0
    0.1942   21.1908  -32.1125 H   0  0  0  0  0  0  0  0  0  0  0  0
   -0.1724   21.1275  -29.4790 H   0  0  0  0  0  0  0  0  0  0  0  0
    0.3199   22.6549  -30.3036 H   0  0  0  0  0  0  0  0  0  0  0  0
   -3.7651   22.2605  -29.8642 H   0  0  0  0  0  0  0  0  0  0  0  0
   -2.7508   20.7697  -29.8860 H   0  0  0  0  0  0  0  0  0  0  0  0
   -2.3576   22.1905  -27.3826 H   0  0  0  0  0  0  0  0  0  0  0  0
   -4.1120   21.9237  -27.6611 H   0  0  0  0  0  0  0  0  0  0  0  0
   -2.9803   20.5287  -27.6611 H   0  0  0  0  0  0  0  0  0  0  0  0
   -3.5768   24.2933  -28.5130 H   0  0  0  0  0  0  0  0  0  0  0  0
   -2.5945   25.7834  -28.7325 H   0  0  0  0  0  0  0  0  0  0  0  0
   -3.6366   22.9691  -32.0476 H   0  0  0  0  0  0  0  0  0  0  0  0
   -4.6528   20.8967  -32.9812 H   0  0  0  0  0  0  0  0  0  0  0  0
   -6.6126   19.4820  -33.3555 H   0  0  0  0  0  0  0  0  0  0  0  0
   -9.0582   19.0696  -33.0824 H   0  0  0  0  0  0  0  0  0  0  0  0
  -10.4826   20.7271  -31.8811 H   0  0  0  0  0  0  0  0  0  0  0  0
   -9.4719   22.8082  -30.9467 H   0  0  0  0  0  0  0  0  0  0  0  0
   -7.5144   24.2219  -30.5735 H   0  0  0  0  0  0  0  0  0  0  0  0
  1  2  1  0
  2  3  1  0
  3  4  1  0
  4  5  1  0
  3  6  1  0
  6  7  2  0
  6  8  1  0
  8  9  1  0
  9 10  1  0
 10 11  2  0
 10 12  1  0
 12 13  2  0
 13 14  1  0
 14 15  2  0
 15 16  1  0
 16 17  2  0
 17 18  1  0
 18 19  2  0
 19 20  1  0
 20 21  2  0
 21 12  1  0
 20 15  1  0
  1 22  1  0
  1 23  1  0
  1 24  1  0
  2 25  1  0
  2 26  1  0
  4 27  1  0
  4 28  1  0
  5 29  1  0
  5 30  1  0
  5 31  1  0
  8 32  1  0
  8 33  1  0
 13 34  1  0
 14 35  1  0
 16 36  1  0
 17 37  1  0
 18 38  1  0
 19 39  1  0
 21 40  1  0
M  CHG  1   9  -1
M  END
>  <UniqueID>  (21) 
21

>  <SMILES>  (21) 
CCN(CC)C(=O)C[N-]C(=O)c1ccc2ccccc2c1

>  <Energy>  (21) 
34.22337945422848

>  <Genealogy>  (21) 
CCN(CC)C(=O)C[N-]C(=O)c1ccc2ccccc2c1 (protonated)
CCN(CC)C(=O)C[N-]C(=O)c1ccc2ccccc2c1 (3D coordinates assigned)
CCN(CC)C(=O)C[N-]C(=O)c1ccc2ccccc2c1 (optimized conformer: 34.22337945422848 kcal/mol)

>  <smiles>  (21) 
CCN(CC)C(=O)CNC(=O)c1ccc2ccccc2c1

>  <score_type>  (21) 
oracle

>  <origin>  (21) 
adg

>  <m_score__min__energy>  (21) 
-10.220000000000001

>  <m_primary>  (21) 
energy

$$$$
21:0
     RDKit          3D

 43 45  0  0  0  0  0  0  0  0999 V2000
   -1.8880   25.3050  -27.5890 C   0  0  0  0  0  0  0  0  0  0  0  0
   -2.2680   25.2970  -28.9620 O   0  0  0  0  0  0  0  0  0  0  0  0
   -2.5700   24.1420  -29.7000 C   0  0  0  0  0  0  0  0  0  0  0  0
   -1.5950   23.1640  -29.9760 C   0  0  0  0  0  0  0  0  0  0  0  0
   -1.9200   22.0230  -30.7110 C   0  0  0  0  0  0  0  0  0  0  0  0
   -3.2190   21.8360  -31.1830 C   0  0  0  0  0  0  0  0  0  0  0  0
   -4.2050   22.7970  -30.9220 C   0  0  0  0  0  0  0  0  0  0  0  0
   -5.5110   22.6200  -31.3860 C   0  0  0  0  0  0  0  0  0  0  0  0
   -6.4960   23.5750  -31.1080 C   0  0  0  0  0  0  0  0  0  0  0  0
   -7.9120   23.3290  -31.5690 C   0  0  0  0  0  0  0  0  0  0  0  0
   -8.4830   22.1540  -30.8920 N   0  0  0  0  0  0  0  0  0  0  0  0
   -9.3230   21.3340  -31.7850 C   0  0  0  0  0  0  0  0  0  0  0  0
   -9.0960   19.8390  -31.5310 C   0  0  0  0  0  0  0  0  0  0  0  0
   -7.9230   19.3110  -32.3180 C   0  0  0  0  0  0  0  0  0  0  0  0
   -7.1340   20.1790  -33.0910 C   0  0  0  0  0  0  0  0  0  0  0  0
   -6.0630   19.6790  -33.8390 C   0  0  0  0  0  0  0  0  0  0  0  0
   -5.7740   18.3130  -33.8220 C   0  0  0  0  0  0  0  0  0  0  0  0
   -6.5570   17.4420  -33.0580 C   0  0  0  0  0  0  0  0  0  0  0  0
   -7.6280   17.9370  -32.3090 C   0  0  0  0  0  0  0  0  0  0  0  0
   -6.1420   24.7150  -30.3620 C   0  0  0  0  0  0  0  0  0  0  0  0
   -7.0070   25.5910  -30.0890 O   0  0  0  0  0  0  0  0  0  0  0  0
   -4.8630   24.8800  -29.9230 N   0  0  0  0  0  0  0  0  0  0  0  0
   -3.8870   23.9560  -30.1760 C   0  0  0  0  0  0  0  0  0  0  0  0
   -2.7895   25.2860  -26.9589 H   0  0  0  0  0  0  0  0  0  0  0  0
   -1.2717   24.4196  -27.3740 H   0  0  0  0  0  0  0  0  0  0  0  0
   -1.3095   26.2155  -27.3740 H   0  0  0  0  0  0  0  0  0  0  0  0
   -0.5672   23.3008  -29.6087 H   0  0  0  0  0  0  0  0  0  0  0  0
   -1.1480   21.2676  -30.9190 H   0  0  0  0  0  0  0  0  0  0  0  0
   -3.4697   20.9339  -31.7603 H   0  0  0  0  0  0  0  0  0  0  0  0
   -5.7665   21.7254  -31.9729 H   0  0  0  0  0  0  0  0  0  0  0  0
   -8.5255   24.2123  -31.3380 H   0  0  0  0  0  0  0  0  0  0  0  0
   -7.9035   23.1429  -32.6531 H   0  0  0  0  0  0  0  0  0  0  0  0
   -7.6810   21.5630  -30.5710 H   0  0  0  0  0  0  0  0  0  0  0  0
  -10.3813   21.5733  -31.6038 H   0  0  0  0  0  0  0  0  0  0  0  0
   -9.0508   21.5584  -32.8269 H   0  0  0  0  0  0  0  0  0  0  0  0
   -8.9043   19.6847  -30.4589 H   0  0  0  0  0  0  0  0  0  0  0  0
   -9.9969   19.2960  -31.8527 H   0  0  0  0  0  0  0  0  0  0  0  0
   -7.3592   21.2556  -33.1081 H   0  0  0  0  0  0  0  0  0  0  0  0
   -5.4474   20.3630  -34.4416 H   0  0  0  0  0  0  0  0  0  0  0  0
   -4.9303   17.9220  -34.4096 H   0  0  0  0  0  0  0  0  0  0  0  0
   -6.3296   16.3658  -33.0465 H   0  0  0  0  0  0  0  0  0  0  0  0
   -8.2424   17.2486  -31.7102 H   0  0  0  0  0  0  0  0  0  0  0  0
   -4.6400   25.7400  -29.3720 H   0  0  0  0  0  0  0  0  0  0  0  0
  1  2  1  0
  2  3  1  0
  3  4  2  0
  4  5  1  0
  5  6  2  0
  6  7  1  0
  7  8  1  0
  8  9  2  0
  9 10  1  0
 10 11  1  0
 11 12  1  0
 12 13  1  0
 13 14  1  0
 14 15  2  0
 15 16  1  0
 16 17  2  0
 17 18  1  0
 18 19  2  0
  9 20  1  0
 20 21  2  0
 20 22  1  0
 22 23  1  0
 23  3  1  0
 23  7  2  0
 19 14  1  0
  1 24  1  0
  1 25  1  0
  1 26  1  0
  4 27  1  0
  5 28  1  0
  6 29  1  0
  8 30  1  0
 10 31  1  0
 10 32  1  0
 11 33  1  0
 12 34  1  0
 12 35  1  0
 13 36  1  0
 13 37  1  0
 15 38  1  0
 16 39  1  0
 17 40  1  0
 18 41  1  0
 19 42  1  0
 22 43  1  0
M  END
>  <UniqueID>  (22) 
22

>  <SMILES>  (22) 
COc1cccc2cc(CNCCc3ccccc3)c(=O)[nH]c12

>  <Energy>  (22) 
46.47623007850099

>  <Genealogy>  (22) 
COc1cccc2cc(CNCCc3ccccc3)c(=O)[nH]c12 (3D coordinates assigned)
COc1cccc2cc(CNCCc3ccccc3)c(=O)[nH]c12 (optimized conformer: 46.47623007850099 kcal/mol)

>  <smiles>  (22) 
COc1cccc2cc(CNCCc3ccccc3)c(=O)[nH]c12

>  <score_type>  (22) 
oracle

>  <origin>  (22) 
adg

>  <m_score__min__energy>  (22) 
-9.2699999999999996

>  <m_primary>  (22) 
energy

$$$$
22:0
     RDKit          3D

 37 39  0  0  0  0  0  0  0  0999 V2000
   -6.1080   16.3240  -33.8190 C   0  0  0  0  0  0  0  0  0  0  0  0
   -5.5070   16.9440  -32.5600 C   0  0  0  0  0  0  0  0  0  0  0  0
   -5.5870   18.4180  -32.6120 N   0  0  0  0  0  0  0  0  0  0  0  0
   -4.4660   19.0830  -33.0180 C   0  0  0  0  0  0  0  0  0  0  0  0
   -4.4250   20.4690  -33.0740 C   0  0  0  0  0  0  0  0  0  0  0  0
   -5.5410   21.2370  -32.6940 C   0  0  0  0  0  0  0  0  0  0  0  0
   -5.5070   22.6950  -32.7160 N   0  0  0  0  0  0  0  0  0  0  0  0
   -5.3440   23.3070  -31.4160 C   0  0  0  0  0  0  0  0  0  0  0  0
   -4.4290   22.7740  -30.4890 C   0  0  0  0  0  0  0  0  0  0  0  0
   -4.2540   23.3800  -29.2420 C   0  0  0  0  0  0  0  0  0  0  0  0
   -4.9860   24.5240  -28.9090 C   0  0  0  0  0  0  0  0  0  0  0  0
   -5.8920   25.0650  -29.8250 C   0  0  0  0  0  0  0  0  0  0  0  0
   -6.0710   24.4640  -31.0740 C   0  0  0  0  0  0  0  0  0  0  0  0
   -6.7390   20.5480  -32.3690 C   0  0  0  0  0  0  0  0  0  0  0  0
   -7.9400   21.2470  -32.1120 C   0  0  0  0  0  0  0  0  0  0  0  0
   -9.1100   20.5640  -31.7850 C   0  0  0  0  0  0  0  0  0  0  0  0
   -9.1130   19.1770  -31.7190 C   0  0  0  0  0  0  0  0  0  0  0  0
   -7.9500   18.4580  -31.9870 C   0  0  0  0  0  0  0  0  0  0  0  0
   -6.7420   19.1200  -32.3200 C   0  0  0  0  0  0  0  0  0  0  0  0
   -6.8476   15.5610  -33.5348 H   0  0  0  0  0  0  0  0  0  0  0  0
   -6.5996   17.1073  -34.4147 H   0  0  0  0  0  0  0  0  0  0  0  0
   -5.3098   15.8570  -34.4147 H   0  0  0  0  0  0  0  0  0  0  0  0
   -6.0609   16.5835  -31.6807 H   0  0  0  0  0  0  0  0  0  0  0  0
   -4.4491   16.6503  -32.4927 H   0  0  0  0  0  0  0  0  0  0  0  0
   -3.5747   18.5069  -33.3074 H   0  0  0  0  0  0  0  0  0  0  0  0
   -3.5101   20.9727  -33.4192 H   0  0  0  0  0  0  0  0  0  0  0  0
   -6.4090   23.0570  -33.1010 H   0  0  0  0  0  0  0  0  0  0  0  0
   -4.7370   23.0000  -33.3560 H   0  0  0  0  0  0  0  0  0  0  0  0
   -3.8487   21.8759  -30.7473 H   0  0  0  0  0  0  0  0  0  0  0  0
   -3.5392   22.9564  -28.5211 H   0  0  0  0  0  0  0  0  0  0  0  0
   -4.8486   24.9980  -27.9259 H   0  0  0  0  0  0  0  0  0  0  0  0
   -6.4657   25.9661  -29.5624 H   0  0  0  0  0  0  0  0  0  0  0  0
   -6.7825   24.8963  -31.7929 H   0  0  0  0  0  0  0  0  0  0  0  0
   -7.9515   22.3454  -32.1709 H   0  0  0  0  0  0  0  0  0  0  0  0
  -10.0334   21.1251  -31.5787 H   0  0  0  0  0  0  0  0  0  0  0  0
  -10.0377   18.6435  -31.4539 H   0  0  0  0  0  0  0  0  0  0  0  0
   -7.9698   17.3592  -31.9394 H   0  0  0  0  0  0  0  0  0  0  0  0
  1  2  1  0
  2  3  1  0
  3  4  2  0
  4  5  1  0
  5  6  2  0
  6  7  1  0
  7  8  1  0
  8  9  2  0
  9 10  1  0
 10 11  2  0
 11 12  1  0
 12 13  2  0
  6 14  1  0
 14 15  2  0
 15 16  1  0
 16 17  2  0
 17 18  1  0
 18 19  2  0
 19  3  1  0
 13  8  1  0
 19 14  1  0
  1 20  1  0
  1 21  1  0
  1 22  1  0
  2 23  1  0
  2 24  1  0
  4 25  1  0
  5 26  1  0
  7 27  1  0
  7 28  1  0
  9 29  1  0
 10 30  1  0
 11 31  1  0
 12 32  1  0
 13 33  1  0
 15 34  1  0
 16 35  1  0
 17 36  1  0
 18 37  1  0
M  CHG  2   3   1   7   1
M  END
>  <UniqueID>  (23) 
23

>  <SMILES>  (23) 
CC[n+]1ccc([NH2+]c2ccccc2)c2ccccc21

>  <Energy>  (23) 
54.847742245942825

>  <Genealogy>  (23) 
CC[n+]1ccc([NH2+]c2ccccc2)c2ccccc21 (protonated)
CC[n+]1ccc([NH2+]c2ccccc2)c2ccccc21 (3D coordinates assigned)
CC[n+]1ccc([NH2+]c2ccccc2)c2ccccc21 (optimized conformer: 54.847742245942825 kcal/mol)

>  <smiles>  (23) 
CC[n+]1ccc(Nc2ccccc2)c2ccccc21

>  <score_type>  (23) 
oracle

>  <origin>  (23) 
adg

>  <m_score__min__energy>  (23) 
-6.8600000000000003

>  <m_primary>  (23) 
energy

$$$$
23:0
     RDKit          3D

 57 61  0  0  0  0  0  0  0  0999 V2000
   -3.1820   13.5810  -31.9490 C   0  0  0  0  0  0  0  0  0  0  0  0
   -4.6250   13.8640  -32.3890 C   0  0  0  0  0  0  0  0  0  0  0  0
   -4.7150   14.3580  -33.7880 N   0  0  0  0  0  0  0  0  0  0  0  0
   -3.9050   13.5660  -34.7570 C   0  0  0  0  0  0  0  0  0  0  0  0
   -3.2480   14.3850  -35.8820 C   0  0  0  0  0  0  0  0  0  0  0  0
   -6.1380   14.4740  -34.2170 C   0  0  0  0  0  0  0  0  0  0  0  0
   -6.7350   15.8640  -33.9190 C   0  0  0  0  0  0  0  0  0  0  0  0
   -5.9840   16.5590  -32.8690 N   0  0  0  0  0  0  0  0  0  0  0  0
   -5.7480   17.9760  -32.9150 C   0  0  0  0  0  0  0  0  0  0  0  0
   -4.4810   18.4640  -33.2230 C   0  0  0  0  0  0  0  0  0  0  0  0
   -4.1890   19.8150  -33.1280 C   0  0  0  0  0  0  0  0  0  0  0  0
   -5.1090   20.7190  -32.6610 N   0  0  0  0  0  0  0  0  0  0  0  0
   -4.6800   22.0690  -32.2650 C   0  0  0  0  0  0  0  0  0  0  0  0
   -6.4270   20.3080  -32.5310 C   0  0  0  0  0  0  0  0  0  0  0  0
   -7.4750   21.2350  -32.3120 C   0  0  0  0  0  0  0  0  0  0  0  0
   -8.7980   20.8090  -32.1980 C   0  0  0  0  0  0  0  0  0  0  0  0
   -9.1160   19.4600  -32.3210 C   0  0  0  0  0  0  0  0  0  0  0  0
   -8.1150   18.5230  -32.5580 C   0  0  0  0  0  0  0  0  0  0  0  0
   -6.7650   18.9200  -32.6520 C   0  0  0  0  0  0  0  0  0  0  0  0
   -2.7750   20.0100  -33.5340 C   0  0  0  0  0  0  0  0  0  0  0  0
   -2.0250   21.1780  -33.7920 C   0  0  0  0  0  0  0  0  0  0  0  0
   -0.7170   20.9910  -34.2520 C   0  0  0  0  0  0  0  0  0  0  0  0
   -0.1890   19.7490  -34.4800 C   0  0  0  0  0  0  0  0  0  0  0  0
   -0.9240   18.5780  -34.2840 C   0  0  0  0  0  0  0  0  0  0  0  0
   -2.2350   18.7480  -33.8120 C   0  0  0  0  0  0  0  0  0  0  0  0
   -3.2760   17.7500  -33.6390 C   0  0  0  0  0  0  0  0  0  0  0  0
   -3.1710   16.5190  -33.8840 O   0  0  0  0  0  0  0  0  0  0  0  0
    1.1060   19.8810  -34.9420 O   0  0  0  0  0  0  0  0  0  0  0  0
    1.4150   21.2810  -35.0080 C   0  0  0  0  0  0  0  0  0  0  0  0
    0.2250   21.9510  -34.5660 O   0  0  0  0  0  0  0  0  0  0  0  0
   -3.1290   13.5706  -30.8503 H   0  0  0  0  0  0  0  0  0  0  0  0
   -2.8643   12.6034  -32.3407 H   0  0  0  0  0  0  0  0  0  0  0  0
   -2.5186   14.3661  -32.3407 H   0  0  0  0  0  0  0  0  0  0  0  0
   -5.2062   12.9337  -32.3069 H   0  0  0  0  0  0  0  0  0  0  0  0
   -5.0221   14.6529  -31.7334 H   0  0  0  0  0  0  0  0  0  0  0  0
   -4.3050   15.3200  -33.7850 H   0  0  0  0  0  0  0  0  0  0  0  0
   -3.1077   13.0552  -34.1972 H   0  0  0  0  0  0  0  0  0  0  0  0
   -4.6057   12.8760  -35.2498 H   0  0  0  0  0  0  0  0  0  0  0  0
   -2.6170   15.1716  -35.4424 H   0  0  0  0  0  0  0  0  0  0  0  0
   -2.6281   13.7224  -36.5039 H   0  0  0  0  0  0  0  0  0  0  0  0
   -4.0292   14.8464  -36.5039 H   0  0  0  0  0  0  0  0  0  0  0  0
   -6.1957   14.2905  -35.3001 H   0  0  0  0  0  0  0  0  0  0  0  0
   -6.7191   13.7327  -33.6488 H   0  0  0  0  0  0  0  0  0  0  0  0
   -6.7078   16.4688  -34.8374 H   0  0  0  0  0  0  0  0  0  0  0  0
   -7.7691   15.7271  -33.5698 H   0  0  0  0  0  0  0  0  0  0  0  0
   -5.7380   16.0340  -31.9980 H   0  0  0  0  0  0  0  0  0  0  0  0
   -4.6576   22.1394  -31.1675 H   0  0  0  0  0  0  0  0  0  0  0  0
   -3.6748   22.2666  -32.6657 H   0  0  0  0  0  0  0  0  0  0  0  0
   -5.3867   22.8106  -32.6657 H   0  0  0  0  0  0  0  0  0  0  0  0
   -7.2420   22.3070  -32.2306 H   0  0  0  0  0  0  0  0  0  0  0  0
   -9.5948   21.5437  -32.0098 H   0  0  0  0  0  0  0  0  0  0  0  0
  -10.1624   19.1331  -32.2306 H   0  0  0  0  0  0  0  0  0  0  0  0
   -8.3794   17.4615  -32.6732 H   0  0  0  0  0  0  0  0  0  0  0  0
   -2.4469   22.1823  -33.6394 H   0  0  0  0  0  0  0  0  0  0  0  0
   -0.5014   17.5829  -34.4871 H   0  0  0  0  0  0  0  0  0  0  0  0
    2.2607   21.5208  -34.3468 H   0  0  0  0  0  0  0  0  0  0  0  0
    1.7076   21.5898  -36.0224 H   0  0  0  0  0  0  0  0  0  0  0  0
  1  2  1  0
  2  3  1  0
  3  4  1  0
  4  5  1  0
  3  6  1  0
  6  7  1  0
  7  8  1  0
  8  9  1  0
  9 10  2  0
 10 11  1  0
 11 12  2  0
 12 13  1  0
 12 14  1  0
 14 15  2  0
 15 16  1  0
 16 17  2  0
 17 18  1  0
 18 19  2  0
 11 20  1  0
 20 21  2  0
 21 22  1  0
 22 23  2  0
 23 24  1  0
 24 25  2  0
 25 26  1  0
 26 27  2  0
 23 28  1  0
 28 29  1  0
 29 30  1  0
 19  9  1  0
 25 20  1  0
 26 10  1  0
 19 14  1  0
 30 22  1  0
  1 31  1  0
  1 32  1  0
  1 33  1  0
  2 34  1  0
  2 35  1  0
  3 36  1  0
  4 37  1  0
  4 38  1  0
  5 39  1  0
  5 40  1  0
  5 41  1  0
  6 42  1  0
  6 43  1  0
  7 44  1  0
  7 45  1  0
  8 46  1  0
 13 47  1  0
 13 48  1  0
 13 49  1  0
 15 50  1  0
 16 51  1  0
 17 52  1  0
 18 53  1  0
 21 54  1  0
 24 55  1  0
 29 56  1  0
 29 57  1  0
M  CHG  2   3   1  12   1
M  END
>  <UniqueID>  (24) 
24

>  <SMILES>  (24) 
CC[NH+](CC)CCNc1c2c([n+](C)c3ccccc13)-c1cc3c(cc1C2=O)OCO3

>  <Energy>  (24) 
146.27498063661298

>  <Genealogy>  (24) 
CC[NH+](CC)CCNc1c2c([n+](C)c3ccccc13)-c1cc3c(cc1C2=O)OCO3 (protonated)
CC[NH+](CC)CCNc1c2c([n+](C)c3ccccc13)-c1cc3c(cc1C2=O)OCO3 (3D coordinates assigned)
CC[NH+](CC)CCNc1c2c([n+](C)c3ccccc13)-c1cc3c(cc1C2=O)OCO3 (nonaromatic ring conformer: 146.27498063661298 kcal/mol)

>  <smiles>  (24) 
CCN(CC)CCNc1c2c([n+](C)c3ccccc13)-c1cc3c(cc1C2=O)OCO3

>  <score_type>  (24) 
oracle

>  <origin>  (24) 
adg

>  <m_score__min__energy>  (24) 
-7.5300000000000002

>  <m_primary>  (24) 
energy

$$$$
24:0
     RDKit          3D

 46 47  0  0  0  0  0  0  0  0999 V2000
   -4.0160   24.1450  -28.3520 C   0  0  0  0  0  0  0  0  0  0  0  0
   -3.4440   24.1210  -29.7640 C   0  0  0  0  0  0  0  0  0  0  0  0
   -3.8370   25.2820  -30.4730 O   0  0  0  0  0  0  0  0  0  0  0  0
   -5.2450   25.4030  -30.4850 C   0  0  0  0  0  0  0  0  0  0  0  0
   -5.8640   24.1820  -31.1710 C   0  0  0  0  0  0  0  0  0  0  0  0
   -7.3600   24.0160  -30.8650 C   0  0  0  0  0  0  0  0  0  0  0  0
   -7.6290   22.7240  -30.2070 N   0  0  0  0  0  0  0  0  0  0  0  0
   -8.6280   21.9160  -30.9230 C   0  0  0  0  0  0  0  0  0  0  0  0
   -7.9670   20.8160  -31.7080 C   0  0  0  0  0  0  0  0  0  0  0  0
   -8.5920   19.5650  -31.8270 C   0  0  0  0  0  0  0  0  0  0  0  0
   -7.9650   18.5270  -32.5200 C   0  0  0  0  0  0  0  0  0  0  0  0
   -6.7030   18.7210  -33.1040 C   0  0  0  0  0  0  0  0  0  0  0  0
   -6.0660   17.6350  -33.7990 N   0  0  0  0  0  0  0  0  0  0  0  0
   -5.2790   17.8770  -35.0110 C   0  0  0  0  0  0  0  0  0  0  0  0
   -4.1330   16.8630  -35.0850 C   0  0  0  0  0  0  0  0  0  0  0  0
   -4.6220   15.5410  -34.9550 O   0  0  0  0  0  0  0  0  0  0  0  0
   -5.1790   15.3570  -33.6660 C   0  0  0  0  0  0  0  0  0  0  0  0
   -6.4100   16.2480  -33.4720 C   0  0  0  0  0  0  0  0  0  0  0  0
   -6.0780   19.9760  -32.9870 C   0  0  0  0  0  0  0  0  0  0  0  0
   -4.8710   20.2040  -33.5610 F   0  0  0  0  0  0  0  0  0  0  0  0
   -6.7070   21.0150  -32.2940 C   0  0  0  0  0  0  0  0  0  0  0  0
   -3.1934   24.1105  -27.6225 H   0  0  0  0  0  0  0  0  0  0  0  0
   -4.5961   25.0683  -28.2070 H   0  0  0  0  0  0  0  0  0  0  0  0
   -4.6714   23.2736  -28.2070 H   0  0  0  0  0  0  0  0  0  0  0  0
   -2.3460   24.0829  -29.7102 H   0  0  0  0  0  0  0  0  0  0  0  0
   -3.8264   23.2338  -30.2900 H   0  0  0  0  0  0  0  0  0  0  0  0
   -5.6149   25.4678  -29.4511 H   0  0  0  0  0  0  0  0  0  0  0  0
   -5.5270   26.3118  -31.0368 H   0  0  0  0  0  0  0  0  0  0  0  0
   -5.7385   24.2897  -32.2585 H   0  0  0  0  0  0  0  0  0  0  0  0
   -5.3482   23.2906  -30.7845 H   0  0  0  0  0  0  0  0  0  0  0  0
   -7.6831   24.8312  -30.2008 H   0  0  0  0  0  0  0  0  0  0  0  0
   -7.9153   24.0461  -31.8140 H   0  0  0  0  0  0  0  0  0  0  0  0
   -8.0210   22.9230  -29.2560 H   0  0  0  0  0  0  0  0  0  0  0  0
   -9.3212   21.4714  -30.1937 H   0  0  0  0  0  0  0  0  0  0  0  0
   -9.1717   22.5684  -31.6221 H   0  0  0  0  0  0  0  0  0  0  0  0
   -9.5802   19.4013  -31.3724 H   0  0  0  0  0  0  0  0  0  0  0  0
   -8.4635   17.5505  -32.6089 H   0  0  0  0  0  0  0  0  0  0  0  0
   -5.9239   17.7670  -35.8953 H   0  0  0  0  0  0  0  0  0  0  0  0
   -4.8663   18.8963  -34.9835 H   0  0  0  0  0  0  0  0  0  0  0  0
   -3.6232   16.9652  -36.0543 H   0  0  0  0  0  0  0  0  0  0  0  0
   -3.4323   17.0623  -34.2608 H   0  0  0  0  0  0  0  0  0  0  0  0
   -5.4740   14.3039  -33.5478 H   0  0  0  0  0  0  0  0  0  0  0  0
   -4.4243   15.6305  -32.9139 H   0  0  0  0  0  0  0  0  0  0  0  0
   -7.2188   15.9050  -34.1340 H   0  0  0  0  0  0  0  0  0  0  0  0
   -6.7432   16.1900  -32.4253 H   0  0  0  0  0  0  0  0  0  0  0  0
   -6.2118   21.9934  -32.2076 H   0  0  0  0  0  0  0  0  0  0  0  0
  1  2  1  0
  2  3  1  0
  3  4  1  0
  4  5  1  0
  5  6  1  0
  6  7  1  0
  7  8  1  0
  8  9  1  0
  9 10  2  0
 10 11  1  0
 11 12  2  0
 12 13  1  0
 13 14  1  0
 14 15  1  0
 15 16  1  0
 16 17  1  0
 17 18  1  0
 12 19  1  0
 19 20  1  0
 19 21  2  0
 21  9  1  0
 18 13  1  0
  1 22  1  0
  1 23  1  0
  1 24  1  0
  2 25  1  0
  2 26  1  0
  4 27  1  0
  4 28  1  0
  5 29  1  0
  5 30  1  0
  6 31  1  0
  6 32  1  0
  7 33  1  0
  8 34  1  0
  8 35  1  0
 10 36  1  0
 11 37  1  0
 14 38  1  0
 14 39  1  0
 15 40  1  0
 15 41  1  0
 17 42  1  0
 17 43  1  0
 18 44  1  0
 18 45  1  0
 21 46  1  0
M  END
>  <UniqueID>  (25) 
25

>  <SMILES>  (25) 
CCOCCCNCc1ccc(N2CCOCC2)c(F)c1

>  <Energy>  (25) 
46.195799758384084

>  <Genealogy>  (25) 
CCOCCCNCc1ccc(N2CCOCC2)c(F)c1 (3D coordinates assigned)
CCOCCCNCc1ccc(N2CCOCC2)c(F)c1 (nonaromatic ring conformer: 46.195799758384084 kcal/mol)

>  <smiles>  (25) 
CCOCCCNCc1ccc(N2CCOCC2)c(F)c1

>  <score_type>  (25) 
oracle

>  <origin>  (25) 
adg

>  <m_score__min__energy>  (25) 
-7.9199999999999999

>  <m_primary>  (25) 
energy

$$$$
25:0
     RDKit          3D

 76 79  0  0  0  0  0  0  0  0999 V2000
   -0.8400   19.7840  -28.7590 C   0  0  0  0  0  0  0  0  0  0  0  0
   -0.4740   19.5500  -30.2330 C   0  0  0  0  0  0  0  0  0  0  0  0
   -1.0710   20.5320  -31.1670 N   0  0  0  0  0  0  0  0  0  0  0  0
   -0.8470   21.9200  -30.7230 C   0  0  0  0  0  0  0  0  0  0  0  0
   -0.6530   20.3200  -32.5720 C   0  0  0  0  0  0  0  0  0  0  0  0
   -1.5000   21.1580  -33.5470 C   0  0  0  0  0  0  0  0  0  0  0  0
   -3.0130   20.8820  -33.4580 C   0  0  0  0  0  0  0  0  0  0  0  0
   -3.4320   20.5070  -32.0960 N   0  0  0  0  0  0  0  0  0  0  0  0
   -4.8740   20.3760  -32.0250 C   0  0  0  0  0  0  0  0  0  0  0  0
   -5.5390   19.1960  -32.4700 C   0  0  0  0  0  0  0  0  0  0  0  0
   -4.8150   18.0380  -32.8390 C   0  0  0  0  0  0  0  0  0  0  0  0
   -5.4650   16.9100  -33.3310 C   0  0  0  0  0  0  0  0  0  0  0  0
   -6.8460   16.9050  -33.4740 C   0  0  0  0  0  0  0  0  0  0  0  0
   -7.5950   18.0160  -33.0950 C   0  0  0  0  0  0  0  0  0  0  0  0
   -6.9740   19.1700  -32.5520 C   0  0  0  0  0  0  0  0  0  0  0  0
   -7.7250   20.2540  -32.1220 N   0  0  0  0  0  0  0  0  0  0  0  0
   -9.2010   20.2020  -32.1100 C   0  0  0  0  0  0  0  0  0  0  0  0
   -7.0670   21.3760  -31.6920 C   0  0  0  0  0  0  0  0  0  0  0  0
   -7.6450   22.5430  -31.3130 N   0  0  0  0  0  0  0  0  0  0  0  0
   -6.6300   23.3370  -30.9320 C   0  0  0  0  0  0  0  0  0  0  0  0
   -6.7390   24.6330  -30.4350 C   0  0  0  0  0  0  0  0  0  0  0  0
   -5.5670   25.2960  -30.0400 C   0  0  0  0  0  0  0  0  0  0  0  0
   -4.3080   24.6460  -30.1280 C   0  0  0  0  0  0  0  0  0  0  0  0
   -3.1100   25.2540  -29.7180 O   0  0  0  0  0  0  0  0  0  0  0  0
   -2.0770   24.6290  -28.9580 C   0  0  0  0  0  0  0  0  0  0  0  0
   -1.9410   25.2940  -27.5850 C   0  0  0  0  0  0  0  0  0  0  0  0
   -0.8330   24.6120  -26.7490 C   0  0  0  0  0  0  0  0  0  0  0  0
   -0.5750   25.2300  -25.4120 N   0  0  0  0  0  0  0  0  0  0  0  0
   -0.4960   24.2010  -24.3470 C   0  0  0  0  0  0  0  0  0  0  0  0
   -1.6180   26.2260  -25.0680 C   0  0  0  0  0  0  0  0  0  0  0  0
    0.7320   25.9310  -25.4790 C   0  0  0  0  0  0  0  0  0  0  0  0
   -4.2360   23.3380  -30.6420 C   0  0  0  0  0  0  0  0  0  0  0  0
   -5.4110   22.7060  -31.0660 C   0  0  0  0  0  0  0  0  0  0  0  0
   -5.6860   21.4420  -31.5920 C   0  0  0  0  0  0  0  0  0  0  0  0
   -0.0892   19.3040  -28.1141 H   0  0  0  0  0  0  0  0  0  0  0  0
   -0.8626   20.8645  -28.5539 H   0  0  0  0  0  0  0  0  0  0  0  0
   -1.8302   19.3511  -28.5539 H   0  0  0  0  0  0  0  0  0  0  0  0
    0.6205   19.6023  -30.3298 H   0  0  0  0  0  0  0  0  0  0  0  0
   -0.8780   18.5644  -30.5077 H   0  0  0  0  0  0  0  0  0  0  0  0
   -0.8411   21.9569  -29.6236 H   0  0  0  0  0  0  0  0  0  0  0  0
    0.1203   22.2762  -31.1071 H   0  0  0  0  0  0  0  0  0  0  0  0
   -1.6531   22.5624  -31.1071 H   0  0  0  0  0  0  0  0  0  0  0  0
    0.4032   20.6084  -32.6778 H   0  0  0  0  0  0  0  0  0  0  0  0
   -0.7961   19.2573  -32.8173 H   0  0  0  0  0  0  0  0  0  0  0  0
   -1.3289   22.2222  -33.3274 H   0  0  0  0  0  0  0  0  0  0  0  0
   -1.1846   20.8796  -34.5634 H   0  0  0  0  0  0  0  0  0  0  0  0
   -3.5568   21.7897  -33.7584 H   0  0  0  0  0  0  0  0  0  0  0  0
   -3.2418   20.0383  -34.1257 H   0  0  0  0  0  0  0  0  0  0  0  0
   -3.0920   21.2080  -31.4010 H   0  0  0  0  0  0  0  0  0  0  0  0
   -2.9860   19.6180  -31.7940 H   0  0  0  0  0  0  0  0  0  0  0  0
   -3.7199   18.0290  -32.7353 H   0  0  0  0  0  0  0  0  0  0  0  0
   -4.8823   16.0190  -33.6076 H   0  0  0  0  0  0  0  0  0  0  0  0
   -7.3505   16.0197  -33.8884 H   0  0  0  0  0  0  0  0  0  0  0  0
   -8.6879   17.9985  -33.2189 H   0  0  0  0  0  0  0  0  0  0  0  0
   -9.5590   20.1894  -31.0700 H   0  0  0  0  0  0  0  0  0  0  0  0
   -9.6033   21.0865  -32.6255 H   0  0  0  0  0  0  0  0  0  0  0  0
   -9.5400   19.2914  -32.6255 H   0  0  0  0  0  0  0  0  0  0  0  0
   -8.6510   22.8170  -31.3190 H   0  0  0  0  0  0  0  0  0  0  0  0
   -7.7195   25.1250  -30.3540 H   0  0  0  0  0  0  0  0  0  0  0  0
   -5.6242   26.3265  -29.6595 H   0  0  0  0  0  0  0  0  0  0  0  0
   -2.3214   23.5652  -28.8219 H   0  0  0  0  0  0  0  0  0  0  0  0
   -1.1251   24.7343  -29.4991 H   0  0  0  0  0  0  0  0  0  0  0  0
   -1.6867   26.3553  -27.7225 H   0  0  0  0  0  0  0  0  0  0  0  0
   -2.8969   25.1942  -27.0498 H   0  0  0  0  0  0  0  0  0  0  0  0
   -1.1238   23.5632  -26.5891 H   0  0  0  0  0  0  0  0  0  0  0  0
    0.0980   24.7262  -27.3237 H   0  0  0  0  0  0  0  0  0  0  0  0
   -0.5335   24.6892  -23.3620 H   0  0  0  0  0  0  0  0  0  0  0  0
   -1.3435   23.5065  -24.4445 H   0  0  0  0  0  0  0  0  0  0  0  0
    0.4475   23.6440  -24.4445 H   0  0  0  0  0  0  0  0  0  0  0  0
   -1.7019   26.3061  -23.9741 H   0  0  0  0  0  0  0  0  0  0  0  0
   -1.3427   27.2050  -25.4873 H   0  0  0  0  0  0  0  0  0  0  0  0
   -2.5832   25.9059  -25.4873 H   0  0  0  0  0  0  0  0  0  0  0  0
    1.0960   26.1262  -24.4595 H   0  0  0  0  0  0  0  0  0  0  0  0
    1.4587   25.3016  -26.0136 H   0  0  0  0  0  0  0  0  0  0  0  0
    0.6097   26.8846  -26.0136 H   0  0  0  0  0  0  0  0  0  0  0  0
   -3.2687   22.8187  -30.7098 H   0  0  0  0  0  0  0  0  0  0  0  0
  1  2  1  0
  2  3  1  0
  3  4  1  0
  3  5  1  0
  5  6  1  0
  6  7  1  0
  7  8  1  0
  8  9  1  0
  9 10  2  0
 10 11  1  0
 11 12  2  0
 12 13  1  0
 13 14  2  0
 14 15  1  0
 15 16  2  0
 16 17  1  0
 16 18  1  0
 18 19  1  0
 19 20  1  0
 20 21  2  0
 21 22  1  0
 22 23  2  0
 23 24  1  0
 24 25  1  0
 25 26  1  0
 26 27  1  0
 27 28  1  0
 28 29  1  0
 28 30  1  0
 28 31  1  0
 23 32  1  0
 32 33  2  0
 33 34  1  0
 34  9  1  0
 15 10  1  0
 34 18  2  0
 33 20  1  0
  1 35  1  0
  1 36  1  0
  1 37  1  0
  2 38  1  0
  2 39  1  0
  4 40  1  0
  4 41  1  0
  4 42  1  0
  5 43  1  0
  5 44  1  0
  6 45  1  0
  6 46  1  0
  7 47  1  0
  7 48  1  0
  8 49  1  0
  8 50  1  0
 11 51  1  0
 12 52  1  0
 13 53  1  0
 14 54  1  0
 17 55  1  0
 17 56  1  0
 17 57  1  0
 19 58  1  0
 21 59  1  0
 22 60  1  0
 25 61  1  0
 25 62  1  0
 26 63  1  0
 26 64  1  0
 27 65  1  0
 27 66  1  0
 29 67  1  0
 29 68  1  0
 29 69  1  0
 30 70  1  0
 30 71  1  0
 30 72  1  0
 31 73  1  0
 31 74  1  0
 31 75  1  0
 32 76  1  0
M  CHG  3   8   1  16   1  28   1
M  END
>  <UniqueID>  (26) 
26

>  <SMILES>  (26) 
CCN(C)CCC[NH2+]c1c2ccccc2[n+](C)c2[nH]c3ccc(OCCC[N+](C)(C)C)cc3c12

>  <Energy>  (26) 
139.26442594727493

>  <Genealogy>  (26) 
CCN(C)CCC[NH2+]c1c2ccccc2[n+](C)c2[nH]c3ccc(OCCC[N+](C)(C)C)cc3c12 (protonated)
CCN(C)CCC[NH2+]c1c2ccccc2[n+](C)c2[nH]c3ccc(OCCC[N+](C)(C)C)cc3c12 (3D coordinates assigned)
CCN(C)CCC[NH2+]c1c2ccccc2[n+](C)c2[nH]c3ccc(OCCC[N+](C)(C)C)cc3c12 (optimized conformer: 139.26442594727493 kcal/mol)

>  <smiles>  (26) 
CCN(C)CCCNc1c2ccccc2[n+](C)c2[nH]c3ccc(OCCC[N+](C)(C)C)cc3c12

>  <score_type>  (26) 
oracle

>  <origin>  (26) 
adg

>  <m_score__min__energy>  (26) 
-7.7199999999999998

>  <m_primary>  (26) 
energy

$$$$
26:0
     RDKit          3D

 84 87  0  0  0  0  0  0  0  0999 V2000
   -5.9640   17.1530  -34.4760 C   0  0  0  0  0  0  0  0  0  0  0  0
   -5.8670   17.3460  -32.9660 C   0  0  0  0  0  0  0  0  0  0  0  0
   -6.6850   18.5030  -32.5670 N   0  0  0  0  0  0  0  0  0  0  0  0
   -7.6540   18.1660  -31.5130 C   0  0  0  0  0  0  0  0  0  0  0  0
   -9.0870   18.4510  -31.9850 C   0  0  0  0  0  0  0  0  0  0  0  0
   -9.1160   19.5450  -32.9710 N   0  0  0  0  0  0  0  0  0  0  0  0
   -9.5370   20.8060  -32.3410 C   0  0  0  0  0  0  0  0  0  0  0  0
   -8.3290   21.5540  -31.7380 C   0  0  0  0  0  0  0  0  0  0  0  0
   -7.0640   21.1520  -32.3710 N   0  0  0  0  0  0  0  0  0  0  0  0
   -6.1650   22.2930  -32.5960 C   0  0  0  0  0  0  0  0  0  0  0  0
   -4.8130   22.0250  -31.9270 C   0  0  0  0  0  0  0  0  0  0  0  0
   -3.8800   21.1050  -32.4880 C   0  0  0  0  0  0  0  0  0  0  0  0
   -4.2730   20.1260  -33.4360 C   0  0  0  0  0  0  0  0  0  0  0  0
   -3.3360   19.3180  -34.0730 C   0  0  0  0  0  0  0  0  0  0  0  0
   -1.9870   19.4610  -33.7870 C   0  0  0  0  0  0  0  0  0  0  0  0
   -1.5760   20.3570  -32.8040 C   0  0  0  0  0  0  0  0  0  0  0  0
   -2.5150   21.1390  -32.0830 C   0  0  0  0  0  0  0  0  0  0  0  0
   -2.1200   21.9500  -30.9810 C   0  0  0  0  0  0  0  0  0  0  0  0
   -0.7180   21.8350  -30.3940 C   0  0  0  0  0  0  0  0  0  0  0  0
   -0.8000   21.5710  -28.9500 N   0  0  0  0  0  0  0  0  0  0  0  0
   -1.1310   20.1640  -28.6620 C   0  0  0  0  0  0  0  0  0  0  0  0
   -0.9680   19.8170  -27.1720 C   0  0  0  0  0  0  0  0  0  0  0  0
   -1.3150   21.0270  -26.2920 C   0  0  0  0  0  0  0  0  0  0  0  0
   -0.2590   22.0510  -26.3560 N   0  0  0  0  0  0  0  0  0  0  0  0
   -0.7900   23.4200  -26.5270 C   0  0  0  0  0  0  0  0  0  0  0  0
    0.0080   24.2370  -27.5850 C   0  0  0  0  0  0  0  0  0  0  0  0
    0.0710   25.7470  -27.2820 C   0  0  0  0  0  0  0  0  0  0  0  0
   -1.2130   26.2310  -26.6030 C   0  0  0  0  0  0  0  0  0  0  0  0
   -1.4450   25.5240  -25.2510 C   0  0  0  0  0  0  0  0  0  0  0  0
   -0.7890   24.1310  -25.1670 C   0  0  0  0  0  0  0  0  0  0  0  0
   -3.0630   22.8270  -30.3830 C   0  0  0  0  0  0  0  0  0  0  0  0
   -2.6810   23.7340  -29.3600 C   0  0  0  0  0  0  0  0  0  0  0  0
   -3.6200   24.5450  -28.7250 C   0  0  0  0  0  0  0  0  0  0  0  0
   -4.9530   24.4830  -29.0980 C   0  0  0  0  0  0  0  0  0  0  0  0
   -5.3500   23.6390  -30.1310 C   0  0  0  0  0  0  0  0  0  0  0  0
   -4.4150   22.8250  -30.8190 C   0  0  0  0  0  0  0  0  0  0  0  0
   -6.4483   16.1893  -34.6921 H   0  0  0  0  0  0  0  0  0  0  0  0
   -6.5593   17.9686  -34.9124 H   0  0  0  0  0  0  0  0  0  0  0  0
   -4.9543   17.1619  -34.9124 H   0  0  0  0  0  0  0  0  0  0  0  0
   -6.2349   16.4433  -32.4563 H   0  0  0  0  0  0  0  0  0  0  0  0
   -4.8184   17.5232  -32.6850 H   0  0  0  0  0  0  0  0  0  0  0  0
   -6.0450   19.2480  -32.1980 H   0  0  0  0  0  0  0  0  0  0  0  0
   -7.5609   17.0985  -31.2643 H   0  0  0  0  0  0  0  0  0  0  0  0
   -7.4432   18.7830  -30.6271 H   0  0  0  0  0  0  0  0  0  0  0  0
   -9.5004   17.5417  -32.4458 H   0  0  0  0  0  0  0  0  0  0  0  0
   -9.6872   18.7518  -31.1136 H   0  0  0  0  0  0  0  0  0  0  0  0
   -8.1580   19.6540  -33.3830 H   0  0  0  0  0  0  0  0  0  0  0  0
   -9.7950   19.3120  -33.7360 H   0  0  0  0  0  0  0  0  0  0  0  0
  -10.0139   21.4450  -33.0988 H   0  0  0  0  0  0  0  0  0  0  0  0
  -10.2448   20.5739  -31.5316 H   0  0  0  0  0  0  0  0  0  0  0  0
   -8.4715   22.6350  -31.8830 H   0  0  0  0  0  0  0  0  0  0  0  0
   -8.2707   21.3018  -30.6689 H   0  0  0  0  0  0  0  0  0  0  0  0
   -6.5850   20.4940  -31.7090 H   0  0  0  0  0  0  0  0  0  0  0  0
   -6.0166   22.4340  -33.6768 H   0  0  0  0  0  0  0  0  0  0  0  0
   -6.6122   23.2000  -32.1631 H   0  0  0  0  0  0  0  0  0  0  0  0
   -5.3402   20.0029  -33.6725 H   0  0  0  0  0  0  0  0  0  0  0  0
   -3.6660   18.5652  -34.8041 H   0  0  0  0  0  0  0  0  0  0  0  0
   -1.2419   18.8669  -34.3364 H   0  0  0  0  0  0  0  0  0  0  0  0
   -0.5036   20.4606  -32.5822 H   0  0  0  0  0  0  0  0  0  0  0  0
   -0.1833   21.0091  -30.8859 H   0  0  0  0  0  0  0  0  0  0  0  0
   -0.1777   22.7788  -30.5594 H   0  0  0  0  0  0  0  0  0  0  0  0
    0.1130   21.8190  -28.5010 H   0  0  0  0  0  0  0  0  0  0  0  0
   -2.1748   19.9793  -28.9557 H   0  0  0  0  0  0  0  0  0  0  0  0
   -0.4343   19.5318  -29.2321 H   0  0  0  0  0  0  0  0  0  0  0  0
   -1.6392   18.9828  -26.9199 H   0  0  0  0  0  0  0  0  0  0  0  0
    0.0787   19.5337  -26.9872 H   0  0  0  0  0  0  0  0  0  0  0  0
   -2.2616   21.4652  -26.6412 H   0  0  0  0  0  0  0  0  0  0  0  0
   -1.4071   20.6857  -25.2504 H   0  0  0  0  0  0  0  0  0  0  0  0
    0.3740   21.8280  -27.1610 H   0  0  0  0  0  0  0  0  0  0  0  0
   -1.8196   23.3468  -26.9073 H   0  0  0  0  0  0  0  0  0  0  0  0
    1.0358   23.8469  -27.6222 H   0  0  0  0  0  0  0  0  0  0  0  0
   -0.5187   24.1229  -28.5439 H   0  0  0  0  0  0  0  0  0  0  0  0
    0.9246   25.9439  -26.6166 H   0  0  0  0  0  0  0  0  0  0  0  0
    0.1866   26.2879  -28.2328 H   0  0  0  0  0  0  0  0  0  0  0  0
   -1.1382   27.3148  -26.4304 H   0  0  0  0  0  0  0  0  0  0  0  0
   -2.0603   25.9946  -27.2635 H   0  0  0  0  0  0  0  0  0  0  0  0
   -1.0279   26.1544  -24.4519 H   0  0  0  0  0  0  0  0  0  0  0  0
   -2.5300   25.3787  -25.1429 H   0  0  0  0  0  0  0  0  0  0  0  0
    0.2504   24.2465  -24.8259 H   0  0  0  0  0  0  0  0  0  0  0  0
   -1.3703   23.5203  -24.4605 H   0  0  0  0  0  0  0  0  0  0  0  0
   -1.6238   23.7980  -29.0628 H   0  0  0  0  0  0  0  0  0  0  0  0
   -3.3030   25.2339  -27.9282 H   0  0  0  0  0  0  0  0  0  0  0  0
   -5.6985   25.1017  -28.5770 H   0  0  0  0  0  0  0  0  0  0  0  0
   -6.4109   23.6027  -30.4196 H   0  0  0  0  0  0  0  0  0  0  0  0
  1  2  1  0
  2  3  1  0
  3  4  1  0
  4  5  1  0
  5  6  1  0
  6  7  1  0
  7  8  1  0
  8  9  1  0
  9 10  1  0
 10 11  1  0
 11 12  2  0
 12 13  1  0
 13 14  2  0
 14 15  1  0
 15 16  2  0
 16 17  1  0
 17 18  2  0
 18 19  1  0
 19 20  1  0
 20 21  1  0
 21 22  1  0
 22 23  1  0
 23 24  1  0
 24 25  1  0
 25 26  1  0
 26 27  1  0
 27 28  1  0
 28 29  1  0
 29 30  1  0
 18 31  1  0
 31 32  2  0
 32 33  1  0
 33 34  2  0
 34 35  1  0
 35 36  2  0
 36 11  1  0
 17 12  1  0
 30 25  1  0
 36 31  1  0
  1 37  1  0
  1 38  1  0
  1 39  1  0
  2 40  1  0
  2 41  1  0
  3 42  1  0
  4 43  1  0
  4 44  1  0
  5 45  1  0
  5 46  1  0
  6 47  1  0
  6 48  1  0
  7 49  1  0
  7 50  1  0
  8 51  1  0
  8 52  1  0
  9 53  1  0
 10 54  1  0
 10 55  1  0
 13 56  1  0
 14 57  1  0
 15 58  1  0
 16 59  1  0
 19 60  1  0
 19 61  1  0
 20 62  1  0
 21 63  1  0
 21 64  1  0
 22 65  1  0
 22 66  1  0
 23 67  1  0
 23 68  1  0
 24 69  1  0
 25 70  1  0
 26 71  1  0
 26 72  1  0
 27 73  1  0
 27 74  1  0
 28 75  1  0
 28 76  1  0
 29 77  1  0
 29 78  1  0
 30 79  1  0
 30 80  1  0
 32 81  1  0
 33 82  1  0
 34 83  1  0
 35 84  1  0
M  CHG  1   6   1
M  END
>  <UniqueID>  (27) 
27

>  <SMILES>  (27) 
CCNCC[NH2+]CCNCc1c2ccccc2c(CNCCCNC2CCCCC2)c2ccccc12

>  <Energy>  (27) 
109.75324153627753

>  <Genealogy>  (27) 
CCNCC[NH2+]CCNCc1c2ccccc2c(CNCCCNC2CCCCC2)c2ccccc12 (protonated)
CCNCC[NH2+]CCNCc1c2ccccc2c(CNCCCNC2CCCCC2)c2ccccc12 (3D coordinates assigned)
CCNCC[NH2+]CCNCc1c2ccccc2c(CNCCCNC2CCCCC2)c2ccccc12 (nonaromatic ring conformer: 109.75324153627753 kcal/mol)

>  <smiles>  (27) 
CCNCCNCCNCc1c2ccccc2c(CNCCCNC2CCCCC2)c2ccccc12

>  <score_type>  (27) 
oracle

>  <origin>  (27) 
adg

>  <m_score__min__energy>  (27) 
-8.7100000000000009

>  <m_primary>  (27) 
energy

$$$$
27:0
     RDKit          3D

 61 64  0  0  0  0  0  0  0  0999 V2000
   -0.9290   26.1610  -29.6360 H   0  0  0  0  0  0  0  0  0  0  0  0
   -1.5720   25.6700  -28.9750 N   0  0  0  0  0  0  0  0  0  0  0  0
   -2.4530   24.8200  -29.3950 C   0  0  0  0  0  0  0  0  0  0  0  0
   -3.5300   25.2480  -30.1120 N   0  0  0  0  0  0  0  0  0  0  0  0
   -4.4750   24.3830  -30.5700 C   0  0  0  0  0  0  0  0  0  0  0  0
   -5.3318   24.7599  -31.1478 H   0  0  0  0  0  0  0  0  0  0  0  0
   -4.3570   23.0140  -30.3060 C   0  0  0  0  0  0  0  0  0  0  0  0
   -5.3420   22.0890  -30.8000 C   0  0  0  0  0  0  0  0  0  0  0  0
   -6.1740   21.3270  -31.2230 C   0  0  0  0  0  0  0  0  0  0  0  0
   -7.1560   20.4020  -31.7430 C   0  0  0  0  0  0  0  0  0  0  0  0
   -6.7650   19.2810  -32.5110 C   0  0  0  0  0  0  0  0  0  0  0  0
   -5.3440   18.9460  -32.7670 C   0  0  0  0  0  0  0  0  0  0  0  0
   -4.9230   17.6110  -32.7060 C   0  0  0  0  0  0  0  0  0  0  0  0
   -5.6506   16.8182  -32.4778 H   0  0  0  0  0  0  0  0  0  0  0  0
   -3.5860   17.2810  -32.9330 C   0  0  0  0  0  0  0  0  0  0  0  0
   -3.2680   16.2292  -32.8825 H   0  0  0  0  0  0  0  0  0  0  0  0
   -2.6440   18.2790  -33.2250 C   0  0  0  0  0  0  0  0  0  0  0  0
   -1.2290   17.9040  -33.4440 C   0  0  0  0  0  0  0  0  0  0  0  0
   -0.9240   17.2370  -34.4700 O   0  0  0  0  0  0  0  0  0  0  0  0
   -0.1980   18.2900  -32.5140 N   0  0  0  0  0  0  0  0  0  0  0  0
   -0.4930   18.3540  -31.0770 C   0  0  0  0  0  0  0  0  0  0  0  0
   -0.9571   19.3243  -30.8464 H   0  0  0  0  0  0  0  0  0  0  0  0
   -1.1781   17.5328  -30.8194 H   0  0  0  0  0  0  0  0  0  0  0  0
    0.7890   18.2020  -30.2550 C   0  0  0  0  0  0  0  0  0  0  0  0
    0.5501   18.3248  -29.1883 H   0  0  0  0  0  0  0  0  0  0  0  0
    1.2104   17.2030  -30.4404 H   0  0  0  0  0  0  0  0  0  0  0  0
    1.7880   19.2180  -30.6480 N   0  0  0  0  0  0  0  0  0  0  0  0
    3.0600   18.9740  -29.9480 C   0  0  0  0  0  0  0  0  0  0  0  0
    2.8925   19.0061  -28.8613 H   0  0  0  0  0  0  0  0  0  0  0  0
    3.4497   17.9847  -30.2298 H   0  0  0  0  0  0  0  0  0  0  0  0
    3.7881   19.7488  -30.2298 H   0  0  0  0  0  0  0  0  0  0  0  0
    1.9930   19.3490  -32.1180 C   0  0  0  0  0  0  0  0  0  0  0  0
    1.6883   20.3620  -32.4199 H   0  0  0  0  0  0  0  0  0  0  0  0
    3.0581   19.1500  -32.3076 H   0  0  0  0  0  0  0  0  0  0  0  0
    1.1980   18.3360  -32.9580 C   0  0  0  0  0  0  0  0  0  0  0  0
    1.2325   18.6356  -34.0158 H   0  0  0  0  0  0  0  0  0  0  0  0
    1.6457   17.3390  -32.8335 H   0  0  0  0  0  0  0  0  0  0  0  0
   -3.0490   19.6290  -33.2710 C   0  0  0  0  0  0  0  0  0  0  0  0
   -2.0970   20.6160  -33.5740 O   0  0  0  0  0  0  0  0  0  0  0  0
   -1.4390   21.4290  -32.6070 C   0  0  0  0  0  0  0  0  0  0  0  0
   -1.7126   21.0910  -31.5966 H   0  0  0  0  0  0  0  0  0  0  0  0
   -0.3500   21.3469  -32.7388 H   0  0  0  0  0  0  0  0  0  0  0  0
   -1.7463   22.4769  -32.7388 H   0  0  0  0  0  0  0  0  0  0  0  0
   -4.3980   19.9520  -33.0250 C   0  0  0  0  0  0  0  0  0  0  0  0
   -4.7146   21.0054  -33.0351 H   0  0  0  0  0  0  0  0  0  0  0  0
   -7.7230   18.4870  -33.0590 N   0  0  0  0  0  0  0  0  0  0  0  0
   -9.0430   18.7300  -32.8680 C   0  0  0  0  0  0  0  0  0  0  0  0
   -9.7950   18.0679  -33.3221 H   0  0  0  0  0  0  0  0  0  0  0  0
   -9.4370   19.7880  -32.1180 N   0  0  0  0  0  0  0  0  0  0  0  0
   -8.5350   20.6260  -31.5430 C   0  0  0  0  0  0  0  0  0  0  0  0
   -9.0530   21.8030  -30.7560 C   0  0  0  0  0  0  0  0  0  0  0  0
  -10.0664   21.5759  -30.3934 H   0  0  0  0  0  0  0  0  0  0  0  0
   -8.3742   21.9861  -29.9100 H   0  0  0  0  0  0  0  0  0  0  0  0
   -9.1020   23.0580  -31.6220 C   0  0  0  0  0  0  0  0  0  0  0  0
   -9.1367   23.9479  -30.9763 H   0  0  0  0  0  0  0  0  0  0  0  0
   -8.2048   23.1005  -32.2570 H   0  0  0  0  0  0  0  0  0  0  0  0
   -9.9998   23.0305  -32.2570 H   0  0  0  0  0  0  0  0  0  0  0  0
   -3.2600   22.5520  -29.5720 C   0  0  0  0  0  0  0  0  0  0  0  0
   -3.1521   21.4785  -29.3577 H   0  0  0  0  0  0  0  0  0  0  0  0
   -2.3020   23.4580  -29.1120 C   0  0  0  0  0  0  0  0  0  0  0  0
   -1.4366   23.1042  -28.5325 H   0  0  0  0  0  0  0  0  0  0  0  0
  1  2  1  0
  2  3  2  0
  3  4  1  0
  4  5  1  0
  5  6  1  0
  5  7  2  0
  7  8  1  0
  8  9  3  0
  9 10  1  0
 10 11  1  0
 11 12  1  0
 12 13  2  0
 13 14  1  0
 13 15  1  0
 15 16  1  0
 15 17  2  0
 17 18  1  0
 18 19  2  0
 18 20  1  0
 20 21  1  0
 21 22  1  0
 21 23  1  0
 21 24  1  0
 24 25  1  0
 24 26  1  0
 24 27  1  0
 27 28  1  0
 28 29  1  0
 28 30  1  0
 28 31  1  0
 27 32  1  0
 32 33  1  0
 32 34  1  0
 32 35  1  0
 35 36  1  0
 35 37  1  0
 17 38  1  0
 38 39  1  0
 39 40  1  0
 40 41  1  0
 40 42  1  0
 40 43  1  0
 38 44  2  0
 44 45  1  0
 11 46  2  0
 46 47  1  0
 47 48  1  0
 47 49  2  0
 49 50  1  0
 50 51  1  0
 51 52  1  0
 51 53  1  0
 51 54  1  0
 54 55  1  0
 54 56  1  0
 54 57  1  0
  7 58  1  0
 58 59  1  0
 58 60  2  0
 60 61  1  0
 60  3  1  0
 50 10  2  0
 44 12  1  0
 35 20  1  0
M  CHG  1   4  -1
M  END
>  <UniqueID>  (28) 
28

>  <SMILES>  (28) 
[H]/N=c1/ccc(C#Cc2c(CC)ncnc2-c2ccc(C(=O)N3CCN(C)CC3)c(OC)c2)c[n-]1

>  <Energy>  (28) 
75.85707803624842

>  <Genealogy>  (28) 
CCc1ncnc(-c2ccc(C(=O)N3CCN(C)CC3)c(OC)c2)c1C#Cc1ccc(=N)[n-]c1 (protonated)
[H]/N=c1/ccc(C#Cc2c(CC)ncnc2-c2ccc(C(=O)N3CCN(C)CC3)c(OC)c2)c[n-]1 (cis-trans isomerization)
[H]/N=c1/ccc(C#Cc2c(CC)ncnc2-c2ccc(C(=O)N3CCN(C)CC3)c(OC)c2)c[n-]1 (3D coordinates assigned)
[H]/N=c1/ccc(C#Cc2c(CC)ncnc2-c2ccc(C(=O)N3CCN(C)CC3)c(OC)c2)c[n-]1 (nonaromatic ring conformer: 75.85707803624842 kcal/mol)

>  <smiles>  (28) 
CCc1ncnc(-c2ccc(C(=O)N3CCN(C)CC3)c(OC)c2)c1C#Cc1ccc(=N)[nH]c1

>  <score_type>  (28) 
oracle

>  <origin>  (28) 
adg

>  <m_score__min__energy>  (28) 
-9.5600000000000005

>  <m_primary>  (28) 
energy

$$$$
28:0
     RDKit          3D

 51 52  0  0  0  0  0  0  0  0999 V2000
   -4.0060   25.4510  -30.8150 N   0  0  0  0  0  0  0  0  0  0  0  0
   -4.8650   24.3140  -30.7630 C   0  0  0  0  0  0  0  0  0  0  0  0
   -5.3560   23.8530  -31.8270 O   0  0  0  0  0  0  0  0  0  0  0  0
   -5.1800   23.6630  -29.4430 C   0  0  0  0  0  0  0  0  0  0  0  0
   -3.9870   23.4870  -28.5810 N   0  0  0  0  0  0  0  0  0  0  0  0
   -4.1780   24.0740  -27.2360 C   0  0  0  0  0  0  0  0  0  0  0  0
   -2.8650   24.6310  -26.6600 C   0  0  0  0  0  0  0  0  0  0  0  0
   -1.7450   24.7590  -27.7010 C   0  0  0  0  0  0  0  0  0  0  0  0
   -2.2590   25.2770  -28.9670 N   0  0  0  0  0  0  0  0  0  0  0  0
   -3.4930   22.0890  -28.5560 C   0  0  0  0  0  0  0  0  0  0  0  0
   -2.7170   21.8020  -29.8150 C   0  0  0  0  0  0  0  0  0  0  0  0
   -1.3150   21.8780  -29.8260 C   0  0  0  0  0  0  0  0  0  0  0  0
   -0.6060   21.6340  -31.0050 C   0  0  0  0  0  0  0  0  0  0  0  0
   -1.2870   21.2980  -32.1780 C   0  0  0  0  0  0  0  0  0  0  0  0
   -2.6860   21.1970  -32.1780 C   0  0  0  0  0  0  0  0  0  0  0  0
   -3.4200   20.8380  -33.4490 C   0  0  0  0  0  0  0  0  0  0  0  0
   -4.8620   21.1090  -33.3510 N   0  0  0  0  0  0  0  0  0  0  0  0
   -5.5950   19.9730  -32.7800 C   0  0  0  0  0  0  0  0  0  0  0  0
   -7.0010   20.3900  -32.4520 C   0  0  0  0  0  0  0  0  0  0  0  0
   -7.2730   21.6820  -31.9800 C   0  0  0  0  0  0  0  0  0  0  0  0
   -8.5870   22.0650  -31.7140 C   0  0  0  0  0  0  0  0  0  0  0  0
   -9.6240   21.1550  -31.9340 C   0  0  0  0  0  0  0  0  0  0  0  0
   -9.3480   19.9130  -32.4090 N   0  0  0  0  0  0  0  0  0  0  0  0
   -8.0750   19.5140  -32.6750 C   0  0  0  0  0  0  0  0  0  0  0  0
   -3.3970   21.4570  -30.9950 C   0  0  0  0  0  0  0  0  0  0  0  0
   -3.8580   26.0510  -29.9740 H   0  0  0  0  0  0  0  0  0  0  0  0
   -5.9084   24.2904  -28.9084 H   0  0  0  0  0  0  0  0  0  0  0  0
   -5.5788   22.6609  -29.6589 H   0  0  0  0  0  0  0  0  0  0  0  0
   -4.9105   24.8916  -27.3059 H   0  0  0  0  0  0  0  0  0  0  0  0
   -4.5336   23.2783  -26.5648 H   0  0  0  0  0  0  0  0  0  0  0  0
   -3.0646   25.6275  -26.2391 H   0  0  0  0  0  0  0  0  0  0  0  0
   -2.5180   23.9178  -25.8978 H   0  0  0  0  0  0  0  0  0  0  0  0
   -0.9755   25.4455  -27.3180 H   0  0  0  0  0  0  0  0  0  0  0  0
   -1.3188   23.7608  -27.8796 H   0  0  0  0  0  0  0  0  0  0  0  0
   -3.2470   25.5800  -28.8110 H   0  0  0  0  0  0  0  0  0  0  0  0
   -2.3090   24.4840  -29.6480 H   0  0  0  0  0  0  0  0  0  0  0  0
   -2.8387   21.9480  -27.6831 H   0  0  0  0  0  0  0  0  0  0  0  0
   -4.3491   21.4013  -28.4910 H   0  0  0  0  0  0  0  0  0  0  0  0
   -0.7727   22.1306  -28.9029 H   0  0  0  0  0  0  0  0  0  0  0  0
    0.4916   21.7066  -31.0098 H   0  0  0  0  0  0  0  0  0  0  0  0
   -0.7240   21.1121  -33.1045 H   0  0  0  0  0  0  0  0  0  0  0  0
   -3.0036   21.4291  -34.2780 H   0  0  0  0  0  0  0  0  0  0  0  0
   -3.2892   19.7596  -33.6223 H   0  0  0  0  0  0  0  0  0  0  0  0
   -5.0140   21.9520  -32.7460 H   0  0  0  0  0  0  0  0  0  0  0  0
   -5.6186   19.1496  -33.5090 H   0  0  0  0  0  0  0  0  0  0  0  0
   -5.0906   19.6391  -31.8613 H   0  0  0  0  0  0  0  0  0  0  0  0
   -6.4496   22.3935  -31.8195 H   0  0  0  0  0  0  0  0  0  0  0  0
   -8.8051   23.0742  -31.3345 H   0  0  0  0  0  0  0  0  0  0  0  0
  -10.6639   21.4445  -31.7225 H   0  0  0  0  0  0  0  0  0  0  0  0
   -7.8869   18.5030  -33.0656 H   0  0  0  0  0  0  0  0  0  0  0  0
   -4.4950   21.3900  -30.9923 H   0  0  0  0  0  0  0  0  0  0  0  0
  1  2  1  0
  2  3  2  0
  2  4  1  0
  4  5  1  0
  5  6  1  0
  6  7  1  0
  7  8  1  0
  8  9  1  0
  5 10  1  0
 10 11  1  0
 11 12  2  0
 12 13  1  0
 13 14  2  0
 14 15  1  0
 15 16  1  0
 16 17  1  0
 17 18  1  0
 18 19  1  0
 19 20  2  0
 20 21  1  0
 21 22  2  0
 22 23  1  0
 23 24  2  0
 15 25  2  0
 25 11  1  0
 24 19  1  0
  1 26  1  0
  4 27  1  0
  4 28  1  0
  6 29  1  0
  6 30  1  0
  7 31  1  0
  7 32  1  0
  8 33  1  0
  8 34  1  0
  9 35  1  0
  9 36  1  0
 10 37  1  0
 10 38  1  0
 12 39  1  0
 13 40  1  0
 14 41  1  0
 16 42  1  0
 16 43  1  0
 17 44  1  0
 18 45  1  0
 18 46  1  0
 20 47  1  0
 21 48  1  0
 22 49  1  0
 24 50  1  0
 25 51  1  0
M  CHG  1   1  -1
M  END
>  <UniqueID>  (29) 
29

>  <SMILES>  (29) 
[NH-]C(=O)CN(CCCN)Cc1cccc(CNCc2cccnc2)c1

>  <Energy>  (29) 
48.52186063051083

>  <Genealogy>  (29) 
[NH-]C(=O)CN(CCCN)Cc1cccc(CNCc2cccnc2)c1 (protonated)
[NH-]C(=O)CN(CCCN)Cc1cccc(CNCc2cccnc2)c1 (3D coordinates assigned)
[NH-]C(=O)CN(CCCN)Cc1cccc(CNCc2cccnc2)c1 (optimized conformer: 48.52186063051083 kcal/mol)

>  <smiles>  (29) 
NCCCN(CC(N)=O)Cc1cccc(CNCc2cccnc2)c1

>  <score_type>  (29) 
oracle

>  <origin>  (29) 
adg

>  <m_score__min__energy>  (29) 
-10.449999999999999

>  <m_primary>  (29) 
energy

$$$$
29:0
     RDKit          3D

 44 45  0  0  0  0  0  0  0  0999 V2000
   -0.1320   21.4900  -34.5700 C   0  0  0  0  0  0  0  0  0  0  0  0
   -1.1960   20.4450  -34.2310 C   0  0  0  0  0  0  0  0  0  0  0  0
   -1.8550   20.6590  -32.9230 N   0  0  0  0  0  0  0  0  0  0  0  0
   -1.1100   21.5430  -31.9900 C   0  0  0  0  0  0  0  0  0  0  0  0
   -1.7770   21.7590  -30.6220 C   0  0  0  0  0  0  0  0  0  0  0  0
   -2.4640   19.4390  -32.3500 C   0  0  0  0  0  0  0  0  0  0  0  0
   -3.9730   19.3450  -32.6560 C   0  0  0  0  0  0  0  0  0  0  0  0
   -4.4650   20.4360  -33.5200 N   0  0  0  0  0  0  0  0  0  0  0  0
   -5.2860   21.3830  -32.7860 C   0  0  0  0  0  0  0  0  0  0  0  0
   -4.6690   22.5510  -32.2960 C   0  0  0  0  0  0  0  0  0  0  0  0
   -5.3840   23.5010  -31.5510 C   0  0  0  0  0  0  0  0  0  0  0  0
   -4.7870   24.6670  -31.0470 O   0  0  0  0  0  0  0  0  0  0  0  0
   -5.4680   25.6540  -30.2790 C   0  0  0  0  0  0  0  0  0  0  0  0
   -6.7360   23.2900  -31.2950 C   0  0  0  0  0  0  0  0  0  0  0  0
   -7.3880   22.1480  -31.7750 C   0  0  0  0  0  0  0  0  0  0  0  0
   -8.7520   21.9680  -31.5050 C   0  0  0  0  0  0  0  0  0  0  0  0
   -9.4020   20.8360  -31.9870 C   0  0  0  0  0  0  0  0  0  0  0  0
   -8.7200   19.9200  -32.7170 N   0  0  0  0  0  0  0  0  0  0  0  0
   -7.3990   20.0590  -33.0000 C   0  0  0  0  0  0  0  0  0  0  0  0
   -6.6760   21.1810  -32.5320 C   0  0  0  0  0  0  0  0  0  0  0  0
    0.2871   21.9016  -33.6400 H   0  0  0  0  0  0  0  0  0  0  0  0
    0.6704   21.0192  -35.1569 H   0  0  0  0  0  0  0  0  0  0  0  0
   -0.5882   22.3008  -35.1569 H   0  0  0  0  0  0  0  0  0  0  0  0
   -1.9672   20.4697  -35.0150 H   0  0  0  0  0  0  0  0  0  0  0  0
   -0.6816   19.4744  -34.1731 H   0  0  0  0  0  0  0  0  0  0  0  0
   -0.1182   21.0990  -31.8190 H   0  0  0  0  0  0  0  0  0  0  0  0
   -1.0711   22.5316  -32.4708 H   0  0  0  0  0  0  0  0  0  0  0  0
   -1.0581   21.5262  -29.8227 H   0  0  0  0  0  0  0  0  0  0  0  0
   -2.0984   22.8072  -30.5322 H   0  0  0  0  0  0  0  0  0  0  0  0
   -2.6518   21.0982  -30.5322 H   0  0  0  0  0  0  0  0  0  0  0  0
   -1.9604   18.5581  -32.7748 H   0  0  0  0  0  0  0  0  0  0  0  0
   -2.3419   19.4805  -31.2576 H   0  0  0  0  0  0  0  0  0  0  0  0
   -4.1676   18.3866  -33.1596 H   0  0  0  0  0  0  0  0  0  0  0  0
   -4.5046   19.4259  -31.6964 H   0  0  0  0  0  0  0  0  0  0  0  0
   -3.6280   20.9500  -33.8820 H   0  0  0  0  0  0  0  0  0  0  0  0
   -4.9240   20.0490  -34.3690 H   0  0  0  0  0  0  0  0  0  0  0  0
   -3.6021   22.7221  -32.5022 H   0  0  0  0  0  0  0  0  0  0  0  0
   -5.3257   25.4478  -29.2079 H   0  0  0  0  0  0  0  0  0  0  0  0
   -5.0629   26.6484  -30.5179 H   0  0  0  0  0  0  0  0  0  0  0  0
   -6.5414   25.6283  -30.5179 H   0  0  0  0  0  0  0  0  0  0  0  0
   -7.2993   24.0303  -30.7079 H   0  0  0  0  0  0  0  0  0  0  0  0
   -9.3040   22.7158  -30.9167 H   0  0  0  0  0  0  0  0  0  0  0  0
  -10.4707   20.6843  -31.7753 H   0  0  0  0  0  0  0  0  0  0  0  0
   -6.8865   19.2917  -33.5989 H   0  0  0  0  0  0  0  0  0  0  0  0
  1  2  1  0
  2  3  1  0
  3  4  1  0
  4  5  1  0
  3  6  1  0
  6  7  1  0
  7  8  1  0
  8  9  1  0
  9 10  2  0
 10 11  1  0
 11 12  1  0
 12 13  1  0
 11 14  2  0
 14 15  1  0
 15 16  2  0
 16 17  1  0
 17 18  2  0
 18 19  1  0
 19 20  2  0
 20  9  1  0
 20 15  1  0
  1 21  1  0
  1 22  1  0
  1 23  1  0
  2 24  1  0
  2 25  1  0
  4 26  1  0
  4 27  1  0
  5 28  1  0
  5 29  1  0
  5 30  1  0
  6 31  1  0
  6 32  1  0
  7 33  1  0
  7 34  1  0
  8 35  1  0
  8 36  1  0
 10 37  1  0
 13 38  1  0
 13 39  1  0
 13 40  1  0
 14 41  1  0
 16 42  1  0
 17 43  1  0
 19 44  1  0
M  CHG  1   8   1
M  END
>  <UniqueID>  (30) 
30

>  <SMILES>  (30) 
CCN(CC)CC[NH2+]c1cc(OC)cc2ccncc12

>  <Energy>  (30) 
56.832018973269264

>  <Genealogy>  (30) 
CCN(CC)CC[NH2+]c1cc(OC)cc2ccncc12 (protonated)
CCN(CC)CC[NH2+]c1cc(OC)cc2ccncc12 (3D coordinates assigned)
CCN(CC)CC[NH2+]c1cc(OC)cc2ccncc12 (optimized conformer: 56.832018973269264 kcal/mol)

>  <smiles>  (30) 
CCN(CC)CCNc1cc(OC)cc2ccncc12

>  <score_type>  (30) 
oracle

>  <origin>  (30) 
adg

>  <m_score__min__energy>  (30) 
-6.6299999999999999

>  <m_primary>  (30) 
energy

$$$$
30:0
     RDKit          3D

 42 44  0  0  0  0  0  0  0  0999 V2000
   -1.1660   23.5180  -29.3470 C   0  0  0  0  0  0  0  0  0  0  0  0
   -2.2750   23.1320  -30.2360 N   0  0  0  0  0  0  0  0  0  0  0  0
   -3.5180   23.6980  -30.0650 C   0  0  0  0  0  0  0  0  0  0  0  0
   -3.7370   24.5290  -29.1410 O   0  0  0  0  0  0  0  0  0  0  0  0
   -4.5340   23.3290  -30.9370 C   0  0  0  0  0  0  0  0  0  0  0  0
   -4.2910   22.4430  -31.9330 C   0  0  0  0  0  0  0  0  0  0  0  0
   -5.4260   22.1910  -32.6140 N   0  0  0  0  0  0  0  0  0  0  0  0
   -6.3560   22.9530  -31.9820 C   0  0  0  0  0  0  0  0  0  0  0  0
   -7.7200   22.9720  -32.3080 O   0  0  0  0  0  0  0  0  0  0  0  0
   -8.7370   22.3040  -31.5620 C   0  0  0  0  0  0  0  0  0  0  0  0
   -9.3000   21.1090  -32.3430 C   0  0  0  0  0  0  0  0  0  0  0  0
   -8.2980   19.9920  -32.4730 C   0  0  0  0  0  0  0  0  0  0  0  0
   -7.3050   20.0450  -33.4650 C   0  0  0  0  0  0  0  0  0  0  0  0
   -6.3360   19.0410  -33.5460 C   0  0  0  0  0  0  0  0  0  0  0  0
   -6.3490   17.9800  -32.6360 C   0  0  0  0  0  0  0  0  0  0  0  0
   -7.3340   17.9180  -31.6480 C   0  0  0  0  0  0  0  0  0  0  0  0
   -8.3100   18.9170  -31.5670 C   0  0  0  0  0  0  0  0  0  0  0  0
   -5.8350   23.6820  -30.9630 N   0  0  0  0  0  0  0  0  0  0  0  0
   -6.5590   24.5410  -30.0300 C   0  0  0  0  0  0  0  0  0  0  0  0
   -3.0630   21.8950  -32.1420 N   0  0  0  0  0  0  0  0  0  0  0  0
   -2.8620   20.9310  -33.2320 C   0  0  0  0  0  0  0  0  0  0  0  0
   -2.0460   22.2490  -31.2800 C   0  0  0  0  0  0  0  0  0  0  0  0
   -0.8910   21.7610  -31.4420 O   0  0  0  0  0  0  0  0  0  0  0  0
   -1.4811   23.4083  -28.2988 H   0  0  0  0  0  0  0  0  0  0  0  0
   -0.2991   22.8688  -29.5391 H   0  0  0  0  0  0  0  0  0  0  0  0
   -0.8895   24.5652  -29.5391 H   0  0  0  0  0  0  0  0  0  0  0  0
   -5.5560   21.5420  -33.4190 H   0  0  0  0  0  0  0  0  0  0  0  0
   -8.3099   21.9447  -30.6141 H   0  0  0  0  0  0  0  0  0  0  0  0
   -9.5552   23.0145  -31.3726 H   0  0  0  0  0  0  0  0  0  0  0  0
  -10.1883   20.7288  -31.8172 H   0  0  0  0  0  0  0  0  0  0  0  0
   -9.5526   21.4560  -33.3558 H   0  0  0  0  0  0  0  0  0  0  0  0
   -7.2899   20.8800  -34.1810 H   0  0  0  0  0  0  0  0  0  0  0  0
   -5.5623   19.0858  -34.3267 H   0  0  0  0  0  0  0  0  0  0  0  0
   -5.5827   17.1933  -32.6982 H   0  0  0  0  0  0  0  0  0  0  0  0
   -7.3425   17.0825  -30.9325 H   0  0  0  0  0  0  0  0  0  0  0  0
   -9.0889   18.8613  -30.7923 H   0  0  0  0  0  0  0  0  0  0  0  0
   -6.3138   24.2500  -28.9979 H   0  0  0  0  0  0  0  0  0  0  0  0
   -6.2675   25.5888  -30.1946 H   0  0  0  0  0  0  0  0  0  0  0  0
   -7.6410   24.4312  -30.1946 H   0  0  0  0  0  0  0  0  0  0  0  0
   -2.6548   19.9370  -32.8088 H   0  0  0  0  0  0  0  0  0  0  0  0
   -3.7696   20.8837  -33.8517 H   0  0  0  0  0  0  0  0  0  0  0  0
   -2.0111   21.2504  -33.8517 H   0  0  0  0  0  0  0  0  0  0  0  0
  1  2  1  0
  2  3  1  0
  3  4  2  0
  3  5  1  0
  5  6  2  0
  6  7  1  0
  7  8  2  0
  8  9  1  0
  9 10  1  0
 10 11  1  0
 11 12  1  0
 12 13  2  0
 13 14  1  0
 14 15  2  0
 15 16  1  0
 16 17  2  0
  8 18  1  0
 18 19  1  0
  6 20  1  0
 20 21  1  0
 20 22  1  0
 22 23  2  0
 22  2  1  0
 18  5  1  0
 17 12  1  0
  1 24  1  0
  1 25  1  0
  1 26  1  0
  7 27  1  0
 10 28  1  0
 10 29  1  0
 11 30  1  0
 11 31  1  0
 13 32  1  0
 14 33  1  0
 15 34  1  0
 16 35  1  0
 17 36  1  0
 19 37  1  0
 19 38  1  0
 19 39  1  0
 21 40  1  0
 21 41  1  0
 21 42  1  0
M  CHG  1   7   1
M  END
>  <UniqueID>  (31) 
31

>  <SMILES>  (31) 
Cn1c(=O)c2c([nH+]c(OCCc3ccccc3)n2C)n(C)c1=O

>  <Energy>  (31) 
85.63126620567121

>  <Genealogy>  (31) 
Cn1c(=O)c2c([nH+]c(OCCc3ccccc3)n2C)n(C)c1=O (protonated)
Cn1c(=O)c2c([nH+]c(OCCc3ccccc3)n2C)n(C)c1=O (3D coordinates assigned)
Cn1c(=O)c2c([nH+]c(OCCc3ccccc3)n2C)n(C)c1=O (optimized conformer: 85.63126620567121 kcal/mol)

>  <smiles>  (31) 
Cn1c(=O)c2c(nc(OCCc3ccccc3)n2C)n(C)c1=O

>  <score_type>  (31) 
oracle

>  <origin>  (31) 
adg

>  <m_score__min__energy>  (31) 
-6.75

>  <m_primary>  (31) 
energy

$$$$
