0:0
     RDKit          3D

 40 41  0  0  0  0  0  0  0  0999 V2000
   -3.1710   20.4880  -30.8080 C   0  0  0  0  0  0  0  0  0  0  0  0
   -4.1090   21.6840  -30.5920 C   0  0  1  0  0  0  0  0  0  0  0  0
   -3.4570   22.9890  -31.0690 C   0  0  0  0  0  0  0  0  0  0  0  0
   -4.3100   24.1630  -30.6710 C   0  0  0  0  0  0  0  0  0  0  0  0
   -3.8740   25.2930  -30.8370 O   0  0  0  0  0  0  0  0  0  0  0  0
   -5.6660   23.9310  -30.0120 C   0  0  1  0  0  0  0  0  0  0  0  0
   -6.5330   25.2030  -30.0920 C   0  0  0  0  0  0  0  0  0  0  0  0
   -6.3450   22.6930  -30.6310 C   0  0  0  0  0  0  0  0  0  0  0  0
   -5.5770   21.6430  -31.0860 C   0  0  0  0  0  0  0  0  0  0  0  0
   -6.1640   20.5990  -32.0990 C   0  0  0  0  0  0  0  0  0  0  0  0
   -5.4500   20.7800  -33.4630 C   0  0  0  0  0  0  0  0  0  0  0  0
   -5.9390   19.1540  -31.5790 C   0  0  0  0  0  0  0  0  0  0  0  0
   -7.7050   20.8610  -32.3600 C   0  0  1  0  0  0  0  0  0  0  0  0
   -8.4980   19.7150  -33.0240 C   0  0  0  0  0  0  0  0  0  0  0  0
   -8.4030   21.2860  -31.0710 C   0  0  0  0  0  0  0  0  0  0  0  0
   -7.8630   22.6430  -30.6580 C   0  0  0  0  0  0  0  0  0  0  0  0
   -2.8569   20.0875  -29.8328 H   0  0  0  0  0  0  0  0  0  0  0  0
   -3.6987   19.7055  -31.3730 H   0  0  0  0  0  0  0  0  0  0  0  0
   -2.2853   20.8140  -31.3730 H   0  0  0  0  0  0  0  0  0  0  0  0
   -4.2341   21.6206  -29.5010 H   0  0  0  0  0  0  0  0  0  0  0  0
   -3.3551   22.9668  -32.1640 H   0  0  0  0  0  0  0  0  0  0  0  0
   -2.4646   23.0886  -30.6051 H   0  0  0  0  0  0  0  0  0  0  0  0
   -5.5282   23.7202  -28.9412 H   0  0  0  0  0  0  0  0  0  0  0  0
   -6.7695   25.5500  -29.0753 H   0  0  0  0  0  0  0  0  0  0  0  0
   -5.9819   25.9892  -30.6289 H   0  0  0  0  0  0  0  0  0  0  0  0
   -7.4662   24.9775  -30.6289 H   0  0  0  0  0  0  0  0  0  0  0  0
   -4.3966   21.0470  -33.2928 H   0  0  0  0  0  0  0  0  0  0  0  0
   -5.5027   19.8401  -34.0320 H   0  0  0  0  0  0  0  0  0  0  0  0
   -5.9441   21.5813  -34.0320 H   0  0  0  0  0  0  0  0  0  0  0  0
   -5.9393   19.1560  -30.4790 H   0  0  0  0  0  0  0  0  0  0  0  0
   -6.7466   18.5028  -31.9447 H   0  0  0  0  0  0  0  0  0  0  0  0
   -4.9717   18.7792  -31.9447 H   0  0  0  0  0  0  0  0  0  0  0  0
   -7.7067   21.6704  -33.1049 H   0  0  0  0  0  0  0  0  0  0  0  0
   -8.9402   19.0760  -32.2455 H   0  0  0  0  0  0  0  0  0  0  0  0
   -9.2980   20.1373  -33.6498 H   0  0  0  0  0  0  0  0  0  0  0  0
   -7.8209   19.1151  -33.6498 H   0  0  0  0  0  0  0  0  0  0  0  0
   -8.2014   20.5494  -30.2793 H   0  0  0  0  0  0  0  0  0  0  0  0
   -9.4896   21.3449  -31.2316 H   0  0  0  0  0  0  0  0  0  0  0  0
   -8.2397   22.8790  -29.6518 H   0  0  0  0  0  0  0  0  0  0  0  0
   -8.2037   23.3747  -31.4053 H   0  0  0  0  0  0  0  0  0  0  0  0
  1  2  1  0
  2  3  1  0
  3  4  1  0
  4  5  2  0
  4  6  1  0
  6  7  1  0
  6  8  1  0
  8  9  2  0
  9 10  1  0
 10 11  1  0
 10 12  1  0
 10 13  1  0
 13 14  1  0
 13 15  1  0
 15 16  1  0
  9  2  1  0
 16  8  1  0
  1 17  1  0
  1 18  1  0
  1 19  1  0
  2 20  1  1
  3 21  1  0
  3 22  1  0
  6 23  1  1
  7 24  1  0
  7 25  1  0
  7 26  1  0
 11 27  1  0
 11 28  1  0
 11 29  1  0
 12 30  1  0
 12 31  1  0
 12 32  1  0
 13 33  1  6
 14 34  1  0
 14 35  1  0
 14 36  1  0
 15 37  1  0
 15 38  1  0
 16 39  1  0
 16 40  1  0
M  END
>  <UniqueID>  (1) 
1

>  <SMILES>  (1) 
CC1CCC2=C([C@@H](C)CC(=O)[C@H]2C)C1(C)C

>  <Energy>  (1) 
60.384011281258495

>  <Genealogy>  (1) 
CC1CCC2=C([C@@H](C)CC(=O)[C@H]2C)C1(C)C (chirality)
CC1CCC2=C([C@@H](C)CC(=O)[C@H]2C)C1(C)C (3D coordinates assigned)
CC1CCC2=C([C@@H](C)CC(=O)[C@H]2C)C1(C)C (nonaromatic ring conformer: 60.384011281258495 kcal/mol)

>  <smiles>  (1) 
CC1CC(=O)C(C)C2=C1C(C)(C)C(C)CC2

>  <score_type>  (1) 
oracle

>  <origin>  (1) 
adg

>  <m_score__min__energy>  (1) 
-8.2300000000000004

>  <m_primary>  (1) 
energy

$$$$
1:0
     RDKit          3D

 54 56  0  0  0  0  0  0  0  0999 V2000
   -3.3840   20.1340  -31.5600 C   0  0  0  0  0  0  0  0  0  0  0  0
   -3.5240   21.4140  -30.9400 O   0  0  0  0  0  0  0  0  0  0  0  0
   -2.5040   22.0820  -30.2390 C   0  0  0  0  0  0  0  0  0  0  0  0
   -1.3290   21.4180  -29.8440 C   0  0  0  0  0  0  0  0  0  0  0  0
   -0.3370   22.0980  -29.1370 C   0  0  0  0  0  0  0  0  0  0  0  0
   -0.4870   23.4510  -28.8380 C   0  0  0  0  0  0  0  0  0  0  0  0
   -1.6450   24.1440  -29.2350 C   0  0  0  0  0  0  0  0  0  0  0  0
   -1.7970   25.5220  -28.9960 O   0  0  0  0  0  0  0  0  0  0  0  0
   -1.2250   26.2300  -27.8990 C   0  0  0  0  0  0  0  0  0  0  0  0
   -2.6720   23.4470  -29.9110 C   0  0  0  0  0  0  0  0  0  0  0  0
   -3.9290   24.1440  -30.2700 C   0  0  0  0  0  0  0  0  0  0  0  0
   -3.8900   25.3360  -30.6860 O   0  0  0  0  0  0  0  0  0  0  0  0
   -5.1890   23.4630  -30.1610 N   0  0  0  0  0  0  0  0  0  0  0  0
   -6.4540   24.1330  -30.4570 C   0  0  0  0  0  0  0  0  0  0  0  0
   -7.5860   23.1130  -30.6530 C   0  0  0  0  0  0  0  0  0  0  0  0
   -7.0930   21.8450  -31.2410 N   0  0  0  0  0  0  0  0  0  0  0  0
   -8.1230   20.7740  -31.1880 C   0  0  0  0  0  0  0  0  0  0  0  0
   -8.0270   19.7340  -32.3270 C   0  0  0  0  0  0  0  0  0  0  0  0
   -6.6590   19.6150  -32.8550 N   0  0  0  0  0  0  0  0  0  0  0  0
   -6.1990   18.3540  -33.3860 C   0  0  0  0  0  0  0  0  0  0  0  0
   -6.8870   17.1590  -33.0990 C   0  0  0  0  0  0  0  0  0  0  0  0
   -6.4260   15.9350  -33.5930 C   0  0  0  0  0  0  0  0  0  0  0  0
   -5.2780   15.8910  -34.3910 C   0  0  0  0  0  0  0  0  0  0  0  0
   -4.8220   14.7010  -34.8570 F   0  0  0  0  0  0  0  0  0  0  0  0
   -4.5910   17.0700  -34.6900 C   0  0  0  0  0  0  0  0  0  0  0  0
   -5.0520   18.2940  -34.1960 C   0  0  0  0  0  0  0  0  0  0  0  0
   -5.8650   20.8290  -33.0930 C   0  0  0  0  0  0  0  0  0  0  0  0
   -6.6060   22.0750  -32.6130 C   0  0  0  0  0  0  0  0  0  0  0  0
   -3.2992   19.3583  -30.7847 H   0  0  0  0  0  0  0  0  0  0  0  0
   -4.2654   19.9316  -32.1863 H   0  0  0  0  0  0  0  0  0  0  0  0
   -2.4797   20.1269  -32.1863 H   0  0  0  0  0  0  0  0  0  0  0  0
   -1.1912   20.3557  -30.0941 H   0  0  0  0  0  0  0  0  0  0  0  0
    0.5684   21.5634  -28.8138 H   0  0  0  0  0  0  0  0  0  0  0  0
    0.3051   23.9803  -28.2881 H   0  0  0  0  0  0  0  0  0  0  0  0
   -1.5794   25.7913  -26.9546 H   0  0  0  0  0  0  0  0  0  0  0  0
   -0.1284   26.1581  -27.9479 H   0  0  0  0  0  0  0  0  0  0  0  0
   -1.5257   27.2870  -27.9479 H   0  0  0  0  0  0  0  0  0  0  0  0
   -5.1940   22.4270  -30.0040 H   0  0  0  0  0  0  0  0  0  0  0  0
   -6.7118   24.7999  -29.6211 H   0  0  0  0  0  0  0  0  0  0  0  0
   -6.3361   24.7080  -31.3873 H   0  0  0  0  0  0  0  0  0  0  0  0
   -8.0434   22.8976  -29.6761 H   0  0  0  0  0  0  0  0  0  0  0  0
   -8.3196   23.5479  -31.3477 H   0  0  0  0  0  0  0  0  0  0  0  0
   -8.0185   20.2442  -30.2296 H   0  0  0  0  0  0  0  0  0  0  0  0
   -9.0974   21.2719  -31.3010 H   0  0  0  0  0  0  0  0  0  0  0  0
   -8.3442   18.7543  -31.9402 H   0  0  0  0  0  0  0  0  0  0  0  0
   -8.6784   20.0696  -33.1474 H   0  0  0  0  0  0  0  0  0  0  0  0
   -7.7959   17.1890  -32.4801 H   0  0  0  0  0  0  0  0  0  0  0  0
   -6.9659   15.0069  -33.3542 H   0  0  0  0  0  0  0  0  0  0  0  0
   -3.6863   17.0353  -35.3148 H   0  0  0  0  0  0  0  0  0  0  0  0
   -4.5115   19.2194  -34.4438 H   0  0  0  0  0  0  0  0  0  0  0  0
   -4.9118   20.7467  -32.5502 H   0  0  0  0  0  0  0  0  0  0  0  0
   -5.6878   20.9235  -34.1745 H   0  0  0  0  0  0  0  0  0  0  0  0
   -5.9226   22.9369  -32.6221 H   0  0  0  0  0  0  0  0  0  0  0  0
   -7.4564   22.2815  -33.2795 H   0  0  0  0  0  0  0  0  0  0  0  0
  1  2  1  0
  2  3  1  0
  3  4  2  0
  4  5  1  0
  5  6  2  0
  6  7  1  0
  7  8  1  0
  8  9  1  0
  7 10  2  0
 10 11  1  0
 11 12  2  0
 11 13  1  0
 13 14  1  0
 14 15  1  0
 15 16  1  0
 16 17  1  0
 17 18  1  0
 18 19  1  0
 19 20  1  0
 20 21  2  0
 21 22  1  0
 22 23  2  0
 23 24  1  0
 23 25  1  0
 25 26  2  0
 19 27  1  0
 27 28  1  0
 10  3  1  0
 28 16  1  0
 26 20  1  0
  1 29  1  0
  1 30  1  0
  1 31  1  0
  4 32  1  0
  5 33  1  0
  6 34  1  0
  9 35  1  0
  9 36  1  0
  9 37  1  0
 13 38  1  0
 14 39  1  0
 14 40  1  0
 15 41  1  0
 15 42  1  0
 17 43  1  0
 17 44  1  0
 18 45  1  0
 18 46  1  0
 21 47  1  0
 22 48  1  0
 25 49  1  0
 26 50  1  0
 27 51  1  0
 27 52  1  0
 28 53  1  0
 28 54  1  0
M  END
>  <UniqueID>  (2) 
2

>  <SMILES>  (2) 
COc1cccc(OC)c1C(=O)NCCN1CCN(c2ccc(F)cc2)CC1

>  <Energy>  (2) 
64.64192332709024

>  <Genealogy>  (2) 
COc1cccc(OC)c1C(=O)NCCN1CCN(c2ccc(F)cc2)CC1 (3D coordinates assigned)
COc1cccc(OC)c1C(=O)NCCN1CCN(c2ccc(F)cc2)CC1 (nonaromatic ring conformer: 64.64192332709024 kcal/mol)

>  <smiles>  (2) 
COc1cccc(OC)c1C(=O)NCCN1CCN(c2ccc(F)cc2)CC1

>  <score_type>  (2) 
oracle

>  <origin>  (2) 
adg

>  <m_score__min__energy>  (2) 
-8.75

>  <m_primary>  (2) 
energy

$$$$
2:0
     RDKit          3D

 64 68  0  0  0  0  0  0  0  0999 V2000
   -0.2110   19.1720  -31.9680 C   0  0  0  0  0  0  0  0  0  0  0  0
   -1.1980   20.2200  -31.6400 N   0  0  0  0  0  0  0  0  0  0  0  0
   -2.2140   20.3900  -32.7070 C   0  0  0  0  0  0  0  0  0  0  0  0
   -3.4350   21.1790  -32.2830 C   0  0  0  0  0  0  0  0  0  0  0  0
   -3.4960   22.5180  -31.9340 C   0  0  0  0  0  0  0  0  0  0  0  0
   -4.7800   22.8770  -31.7410 N   0  0  0  0  0  0  0  0  0  0  0  0
   -5.5420   21.8170  -31.9630 N   0  0  0  0  0  0  0  0  0  0  0  0
   -6.9750   21.8410  -31.8270 C   0  0  0  0  0  0  0  0  0  0  0  0
   -7.6750   20.7200  -31.3460 C   0  0  0  0  0  0  0  0  0  0  0  0
   -9.0650   20.7620  -31.2070 C   0  0  0  0  0  0  0  0  0  0  0  0
   -9.7690   21.9210  -31.5380 C   0  0  0  0  0  0  0  0  0  0  0  0
   -9.0810   23.0450  -32.0030 C   0  0  0  0  0  0  0  0  0  0  0  0
   -7.6880   23.0090  -32.1390 C   0  0  0  0  0  0  0  0  0  0  0  0
   -4.7600   20.7660  -32.3110 C   0  0  0  0  0  0  0  0  0  0  0  0
   -5.2570   19.4700  -32.8170 C   0  0  0  0  0  0  0  0  0  0  0  0
   -5.4520   18.3990  -31.9310 C   0  0  0  0  0  0  0  0  0  0  0  0
   -5.9170   17.1700  -32.4070 C   0  0  0  0  0  0  0  0  0  0  0  0
   -6.1850   17.0020  -33.7680 C   0  0  0  0  0  0  0  0  0  0  0  0
   -6.6330   15.8080  -34.2240 F   0  0  0  0  0  0  0  0  0  0  0  0
   -5.9860   18.0630  -34.6570 C   0  0  0  0  0  0  0  0  0  0  0  0
   -5.5210   19.2930  -34.1850 C   0  0  0  0  0  0  0  0  0  0  0  0
   -1.7790   20.0550  -30.2860 C   0  0  0  0  0  0  0  0  0  0  0  0
   -0.8460   20.6410  -29.1920 C   0  0  1  0  0  0  0  0  0  0  0  0
   -0.1170   21.7040  -29.7670 O   0  0  0  0  0  0  0  0  0  0  0  0
   -1.6710   21.1800  -27.9790 C   0  0  0  0  0  0  0  0  0  0  0  0
   -2.3030   20.1110  -27.2030 N   0  0  0  0  0  0  0  0  0  0  0  0
   -1.9100   19.6660  -25.9980 C   0  0  0  0  0  0  0  0  0  0  0  0
   -2.7640   18.7340  -25.5440 N   0  0  0  0  0  0  0  0  0  0  0  0
   -3.6930   18.6480  -26.5150 C   0  0  0  0  0  0  0  0  0  0  0  0
   -3.4280   19.4940  -27.5300 N   0  0  0  0  0  0  0  0  0  0  0  0
    0.1210   19.5410  -28.7070 C   0  0  0  0  0  0  0  0  0  0  0  0
   -0.1980   18.1710  -28.8620 C   0  0  0  0  0  0  0  0  0  0  0  0
    0.7040   17.1730  -28.4840 C   0  0  0  0  0  0  0  0  0  0  0  0
    1.9350   17.5120  -27.9280 C   0  0  0  0  0  0  0  0  0  0  0  0
    2.8190   16.5390  -27.5870 F   0  0  0  0  0  0  0  0  0  0  0  0
    2.2560   18.8500  -27.7220 C   0  0  0  0  0  0  0  0  0  0  0  0
    1.3580   19.8600  -28.0930 C   0  0  0  0  0  0  0  0  0  0  0  0
    1.7210   21.1450  -27.8540 F   0  0  0  0  0  0  0  0  0  0  0  0
    0.1921   18.7440  -31.0383 H   0  0  0  0  0  0  0  0  0  0  0  0
   -0.6987   18.3798  -32.5550 H   0  0  0  0  0  0  0  0  0  0  0  0
    0.6090   19.6114  -32.5550 H   0  0  0  0  0  0  0  0  0  0  0  0
   -1.7422   20.9126  -33.5522 H   0  0  0  0  0  0  0  0  0  0  0  0
   -2.5658   19.3818  -32.9713 H   0  0  0  0  0  0  0  0  0  0  0  0
   -2.6284   23.1863  -31.8303 H   0  0  0  0  0  0  0  0  0  0  0  0
   -7.1256   19.8055  -31.0778 H   0  0  0  0  0  0  0  0  0  0  0  0
   -9.6059   19.8791  -30.8356 H   0  0  0  0  0  0  0  0  0  0  0  0
  -10.8636   21.9496  -31.4330 H   0  0  0  0  0  0  0  0  0  0  0  0
   -9.6347   23.9594  -32.2625 H   0  0  0  0  0  0  0  0  0  0  0  0
   -7.1495   23.9008  -32.4922 H   0  0  0  0  0  0  0  0  0  0  0  0
   -5.2384   18.5273  -30.8596 H   0  0  0  0  0  0  0  0  0  0  0  0
   -6.0722   16.3339  -31.7093 H   0  0  0  0  0  0  0  0  0  0  0  0
   -6.1957   17.9291  -35.7285 H   0  0  0  0  0  0  0  0  0  0  0  0
   -5.3612   20.1250  -34.8867 H   0  0  0  0  0  0  0  0  0  0  0  0
   -2.7473   20.5755  -30.2465 H   0  0  0  0  0  0  0  0  0  0  0  0
   -1.9049   18.9794  -30.0928 H   0  0  0  0  0  0  0  0  0  0  0  0
   -0.1550   21.6140  -30.7540 H   0  0  0  0  0  0  0  0  0  0  0  0
   -0.9962   21.7429  -27.3173 H   0  0  0  0  0  0  0  0  0  0  0  0
   -2.4732   21.8165  -28.3806 H   0  0  0  0  0  0  0  0  0  0  0  0
   -1.0164   20.0151  -25.4599 H   0  0  0  0  0  0  0  0  0  0  0  0
   -2.7210   18.2050  -24.6450 H   0  0  0  0  0  0  0  0  0  0  0  0
   -4.5599   17.9717  -26.4836 H   0  0  0  0  0  0  0  0  0  0  0  0
   -1.1720   17.8871  -29.2870 H   0  0  0  0  0  0  0  0  0  0  0  0
    0.4405   16.1145  -28.6263 H   0  0  0  0  0  0  0  0  0  0  0  0
    3.2204   19.1167  -27.2652 H   0  0  0  0  0  0  0  0  0  0  0  0
  1  2  1  0
  2  3  1  0
  3  4  1  0
  4  5  1  0
  5  6  2  0
  6  7  1  0
  7  8  1  0
  8  9  2  0
  9 10  1  0
 10 11  2  0
 11 12  1  0
 12 13  2  0
  7 14  1  0
 14 15  1  0
 15 16  2  0
 16 17  1  0
 17 18  2  0
 18 19  1  0
 18 20  1  0
 20 21  2  0
  2 22  1  0
 22 23  1  0
 23 24  1  6
 23 25  1  0
 25 26  1  0
 26 27  1  0
 27 28  2  0
 28 29  1  0
 29 30  2  0
 23 31  1  0
 31 32  2  0
 32 33  1  0
 33 34  2  0
 34 35  1  0
 34 36  1  0
 36 37  2  0
 37 38  1  0
 14  4  2  0
 21 15  1  0
 30 26  1  0
 37 31  1  0
 13  8  1  0
  1 39  1  0
  1 40  1  0
  1 41  1  0
  3 42  1  0
  3 43  1  0
  5 44  1  0
  9 45  1  0
 10 46  1  0
 11 47  1  0
 12 48  1  0
 13 49  1  0
 16 50  1  0
 17 51  1  0
 20 52  1  0
 21 53  1  0
 22 54  1  0
 22 55  1  0
 24 56  1  0
 25 57  1  0
 25 58  1  0
 27 59  1  0
 28 60  1  0
 29 61  1  0
 32 62  1  0
 33 63  1  0
 36 64  1  0
M  CHG  1  28   1
M  END
>  <UniqueID>  (3) 
3

>  <SMILES>  (3) 
CN(Cc1cnn(-c2ccccc2)c1-c1ccc(F)cc1)C[C@@](O)(Cn1c[nH+]cn1)c1ccc(F)cc1F

>  <Energy>  (3) 
156.06947353706784

>  <Genealogy>  (3) 
CN(Cc1cnn(-c2ccccc2)c1-c1ccc(F)cc1)CC(O)(Cn1c[nH+]cn1)c1ccc(F)cc1F (protonated)
CN(Cc1cnn(-c2ccccc2)c1-c1ccc(F)cc1)C[C@@](O)(Cn1c[nH+]cn1)c1ccc(F)cc1F (chirality)
CN(Cc1cnn(-c2ccccc2)c1-c1ccc(F)cc1)C[C@@](O)(Cn1c[nH+]cn1)c1ccc(F)cc1F (3D coordinates assigned)
CN(Cc1cnn(-c2ccccc2)c1-c1ccc(F)cc1)C[C@@](O)(Cn1c[nH+]cn1)c1ccc(F)cc1F (optimized conformer: 156.06947353706784 kcal/mol)

>  <smiles>  (3) 
CN(Cc1cnn(-c2ccccc2)c1-c1ccc(F)cc1)CC(O)(Cn1cncn1)c1ccc(F)cc1F

>  <score_type>  (3) 
oracle

>  <origin>  (3) 
adg

>  <m_score__min__energy>  (3) 
-9.6699999999999999

>  <m_primary>  (3) 
energy

$$$$
3:0
     RDKit          3D

 39 40  0  0  1  0  0  0  0  0999 V2000
   -5.4040   19.0890  -33.9160 C   0  0  0  0  0  0  0  0  0  0  0  0
   -5.2580   19.3120  -32.4230 C   0  0  0  0  0  0  0  0  0  0  0  0
   -6.0580   20.3690  -31.8940 N   0  0  0  0  0  0  0  0  0  0  0  0
   -7.4030   20.0010  -31.5460 C   0  0  0  0  0  0  0  0  0  0  0  0
   -7.6950   18.5240  -31.6820 C   0  0  0  0  0  0  0  0  0  0  0  0
   -5.9640   21.5310  -32.7110 C   0  0  0  0  0  0  0  0  0  0  0  0
   -4.5830   22.1340  -32.7290 C   0  0  0  0  0  0  0  0  0  0  0  0
   -4.5820   23.1950  -31.7230 N   0  0  0  0  0  0  0  0  0  0  0  0
   -3.9760   23.0020  -30.6010 C   0  0  0  0  0  0  0  0  0  0  0  0
   -3.8400   21.7850  -30.0710 N   0  0  0  0  0  0  0  0  0  0  0  0
   -3.1760   21.4880  -28.9880 N   0  0  0  0  0  0  0  0  0  0  0  0
   -3.1050   20.1660  -28.5420 O   0  0  0  0  0  0  0  0  0  0  0  0
   -2.5620   22.4930  -28.3270 C   0  0  0  0  0  0  0  0  0  0  0  0
   -1.8190   22.2500  -27.1890 C   0  0  0  0  0  0  0  0  0  0  0  0
   -1.2000   23.3010  -26.5870 C   0  0  0  0  0  0  0  0  0  0  0  0
   -1.2920   24.5960  -27.0740 C   0  0  0  0  0  0  0  0  0  0  0  0
   -2.0430   24.8560  -28.2240 C   0  0  0  0  0  0  0  0  0  0  0  0
   -2.6810   23.7800  -28.8490 C   0  0  0  0  0  0  0  0  0  0  0  0
   -3.3710   24.0360  -29.9580 N   0  0  0  0  0  0  0  0  0  0  0  0
   -3.5160   25.3000  -30.4750 O   0  0  0  0  0  0  0  0  0  0  0  0
   -5.9985   18.1809  -34.0947 H   0  0  0  0  0  0  0  0  0  0  0  0
   -5.9111   19.9541  -34.3681 H   0  0  0  0  0  0  0  0  0  0  0  0
   -4.4083   18.9702  -34.3681 H   0  0  0  0  0  0  0  0  0  0  0  0
   -5.5383   18.3807  -31.9090 H   0  0  0  0  0  0  0  0  0  0  0  0
   -4.2106   19.6028  -32.2546 H   0  0  0  0  0  0  0  0  0  0  0  0
   -7.5814   20.2933  -30.5007 H   0  0  0  0  0  0  0  0  0  0  0  0
   -8.0665   20.5213  -32.2525 H   0  0  0  0  0  0  0  0  0  0  0  0
   -7.7839   18.0742  -30.6821 H   0  0  0  0  0  0  0  0  0  0  0  0
   -8.6379   18.3857  -32.2314 H   0  0  0  0  0  0  0  0  0  0  0  0
   -6.8757   18.0373  -32.2314 H   0  0  0  0  0  0  0  0  0  0  0  0
   -6.2397   21.2579  -33.7403 H   0  0  0  0  0  0  0  0  0  0  0  0
   -6.6442   22.2845  -32.2871 H   0  0  0  0  0  0  0  0  0  0  0  0
   -3.8315   21.3710  -32.4778 H   0  0  0  0  0  0  0  0  0  0  0  0
   -4.3335   22.5289  -33.7249 H   0  0  0  0  0  0  0  0  0  0  0  0
   -4.3380   21.0060  -30.5930 H   0  0  0  0  0  0  0  0  0  0  0  0
   -1.7299   21.2328  -26.7798 H   0  0  0  0  0  0  0  0  0  0  0  0
   -0.6046   23.1169  -25.6806 H   0  0  0  0  0  0  0  0  0  0  0  0
   -0.7749   25.4173  -26.5563 H   0  0  0  0  0  0  0  0  0  0  0  0
   -2.1295   25.8765  -28.6253 H   0  0  0  0  0  0  0  0  0  0  0  0
  1  2  1  0
  2  3  1  0
  3  4  1  0
  4  5  1  0
  3  6  1  0
  6  7  1  0
  7  8  1  0
  8  9  2  0
  9 10  1  0
 10 11  1  0
 11 12  1  0
 11 13  2  0
 13 14  1  0
 14 15  2  0
 15 16  1  0
 16 17  2  0
 17 18  1  0
 18 19  2  0
 19 20  1  0
 19  9  1  0
 18 13  1  0
  1 21  1  0
  1 22  1  0
  1 23  1  0
  2 24  1  0
  2 25  1  0
  4 26  1  0
  4 27  1  0
  5 28  1  0
  5 29  1  0
  5 30  1  0
  6 31  1  0
  6 32  1  0
  7 33  1  0
  7 34  1  0
 10 35  1  0
 14 36  1  0
 15 37  1  0
 16 38  1  0
 17 39  1  0
M  CHG  4  11   1  12  -1  19   1  20  -1
M  END
>  <smiles>  (4) 
CCN(CC)CCN=c1[nH][n+]([O-])c2ccccc2[n+]1[O-]

>  <score_type>  (4) 
oracle

>  <origin>  (4) 
adg

>  <m_score__min__energy>  (4) 
-7.5300000000000002

>  <m_primary>  (4) 
energy

$$$$
4:0
     RDKit          3D

 55 57  0  0  0  0  0  0  0  0999 V2000
   -4.3331   20.9970  -32.1354 H   0  0  0  0  0  0  0  0  0  0  0  0
   -5.3580   21.3080  -32.3860 C   0  0  0  0  0  0  0  0  0  0  0  0
   -5.5560   22.5530  -32.7170 N   0  0  0  0  0  0  0  0  0  0  0  0
   -6.3450   23.5520  -31.9980 C   0  0  0  0  0  0  0  0  0  0  0  0
   -6.5327   24.4124  -32.6572 H   0  0  0  0  0  0  0  0  0  0  0  0
   -7.3017   23.1054  -31.6894 H   0  0  0  0  0  0  0  0  0  0  0  0
   -5.5830   24.0200  -30.7570 C   0  0  0  0  0  0  0  0  0  0  0  0
   -5.9050   25.0399  -30.5000 H   0  0  0  0  0  0  0  0  0  0  0  0
   -5.8004   23.3285  -29.9296 H   0  0  0  0  0  0  0  0  0  0  0  0
   -4.1420   24.0200  -30.9990 N   0  0  0  0  0  0  0  0  0  0  0  0
   -3.2210   24.0380  -30.0840 C   0  0  0  0  0  0  0  0  0  0  0  0
   -2.0050   22.7470  -29.9760 S   0  0  0  0  0  0  0  0  0  0  0  0
   -2.0010   23.0050  -28.1430 C   0  0  1  0  0  0  0  0  0  0  0  0
   -3.1770   22.1710  -27.5530 C   0  0  0  0  0  0  0  0  0  0  0  0
   -3.2219   22.3419  -26.4673 H   0  0  0  0  0  0  0  0  0  0  0  0
   -4.1026   22.4968  -28.0500 H   0  0  0  0  0  0  0  0  0  0  0  0
   -3.0110   20.6620  -27.8100 C   0  0  0  0  0  0  0  0  0  0  0  0
   -3.7571   20.1227  -27.2080 H   0  0  0  0  0  0  0  0  0  0  0  0
   -3.1489   20.5018  -28.8895 H   0  0  0  0  0  0  0  0  0  0  0  0
   -1.6020   20.1200  -27.4460 C   0  0  1  0  0  0  0  0  0  0  0  0
   -1.7663   19.3222  -26.7067 H   0  0  0  0  0  0  0  0  0  0  0  0
   -0.8960   19.4940  -28.6570 C   0  0  0  0  0  0  0  0  0  0  0  0
   -0.1153   18.8017  -28.3088 H   0  0  0  0  0  0  0  0  0  0  0  0
   -1.6293   18.9438  -29.2649 H   0  0  0  0  0  0  0  0  0  0  0  0
   -0.4376   20.2879  -29.2649 H   0  0  0  0  0  0  0  0  0  0  0  0
   -0.7130   21.1800  -26.7680 C   0  0  0  0  0  0  0  0  0  0  0  0
   -1.1148   21.3790  -25.7636 H   0  0  0  0  0  0  0  0  0  0  0  0
    0.3080   20.7716  -26.7389 H   0  0  0  0  0  0  0  0  0  0  0  0
   -0.6420   22.5150  -27.5370 C   0  0  0  0  0  0  0  0  0  0  0  0
   -0.2790   23.2886  -26.8443 H   0  0  0  0  0  0  0  0  0  0  0  0
    0.0298   22.3418  -28.3907 H   0  0  0  0  0  0  0  0  0  0  0  0
   -2.2410   24.5630  -27.9660 C   0  0  0  0  0  0  0  0  0  0  0  0
   -0.9720   25.3970  -28.2760 C   0  0  0  0  0  0  0  0  0  0  0  0
   -0.4984   25.7082  -27.3332 H   0  0  0  0  0  0  0  0  0  0  0  0
   -0.2652   24.7868  -28.8574 H   0  0  0  0  0  0  0  0  0  0  0  0
   -1.2517   26.2879  -28.8574 H   0  0  0  0  0  0  0  0  0  0  0  0
   -2.7520   24.9530  -26.5620 C   0  0  0  0  0  0  0  0  0  0  0  0
   -2.1238   24.4735  -25.7969 H   0  0  0  0  0  0  0  0  0  0  0  0
   -2.7032   26.0456  -26.4445 H   0  0  0  0  0  0  0  0  0  0  0  0
   -3.7930   24.6177  -26.4445 H   0  0  0  0  0  0  0  0  0  0  0  0
   -3.2370   24.9200  -28.9690 N   0  0  0  0  0  0  0  0  0  0  0  0
   -3.9560   25.6560  -28.8110 H   0  0  0  0  0  0  0  0  0  0  0  0
   -6.4230   20.2920  -32.3270 C   0  0  0  0  0  0  0  0  0  0  0  0
   -6.1970   19.0710  -32.8840 N   0  0  0  0  0  0  0  0  0  0  0  0
   -7.1450   18.0950  -32.9020 C   0  0  0  0  0  0  0  0  0  0  0  0
   -6.8110   16.7540  -33.4650 C   0  0  0  0  0  0  0  0  0  0  0  0
   -6.6344   16.0448  -32.6429 H   0  0  0  0  0  0  0  0  0  0  0  0
   -7.6477   16.3973  -34.0836 H   0  0  0  0  0  0  0  0  0  0  0  0
   -5.9047   16.8314  -34.0836 H   0  0  0  0  0  0  0  0  0  0  0  0
   -8.4000   18.3390  -32.3290 C   0  0  0  0  0  0  0  0  0  0  0  0
   -9.1687   17.5522  -32.3189 H   0  0  0  0  0  0  0  0  0  0  0  0
   -8.6650   19.5910  -31.7710 C   0  0  0  0  0  0  0  0  0  0  0  0
   -9.6501   19.7996  -31.3283 H   0  0  0  0  0  0  0  0  0  0  0  0
   -7.6790   20.5760  -31.7760 C   0  0  0  0  0  0  0  0  0  0  0  0
   -7.8857   21.5691  -31.3504 H   0  0  0  0  0  0  0  0  0  0  0  0
  1  2  1  0
  2  3  2  0
  3  4  1  0
  4  5  1  0
  4  6  1  0
  4  7  1  0
  7  8  1  0
  7  9  1  0
  7 10  1  0
 10 11  2  0
 11 12  1  0
 13 12  1  6
 13 14  1  0
 14 15  1  0
 14 16  1  0
 14 17  1  0
 17 18  1  0
 17 19  1  0
 17 20  1  0
 20 21  1  1
 20 22  1  0
 22 23  1  0
 22 24  1  0
 22 25  1  0
 20 26  1  0
 26 27  1  0
 26 28  1  0
 26 29  1  0
 29 30  1  0
 29 31  1  0
 13 32  1  0
 32 33  1  0
 33 34  1  0
 33 35  1  0
 33 36  1  0
 32 37  1  0
 37 38  1  0
 37 39  1  0
 37 40  1  0
 32 41  1  0
 41 42  1  0
  2 43  1  0
 43 44  2  0
 44 45  1  0
 45 46  1  0
 46 47  1  0
 46 48  1  0
 46 49  1  0
 45 50  2  0
 50 51  1  0
 50 52  1  0
 52 53  1  0
 52 54  2  0
 54 55  1  0
 41 11  1  0
 54 43  1  0
 29 13  1  0
M  END
>  <UniqueID>  (5) 
4

>  <SMILES>  (5) 
Cc1cccc(/C=N\CC/N=C2\NC(C)(C)C3(CCC(C)CC3)S2)n1

>  <Energy>  (5) 
77.0837678263773

>  <Genealogy>  (5) 
Cc1cccc(/C=N\CC/N=C2\NC(C)(C)C3(CCC(C)CC3)S2)n1 (cis-trans isomerization)
Cc1cccc(/C=N\CC/N=C2\NC(C)(C)C3(CCC(C)CC3)S2)n1 (3D coordinates assigned)
Cc1cccc(/C=N\CC/N=C2\NC(C)(C)C3(CCC(C)CC3)S2)n1 (nonaromatic ring conformer: 77.0837678263773 kcal/mol)

>  <smiles>  (5) 
Cc1cccc(C=NCCN=C2NC(C)(C)C3(CCC(C)CC3)S2)n1

>  <score_type>  (5) 
oracle

>  <origin>  (5) 
adg

>  <m_score__min__energy>  (5) 
-9.4499999999999993

>  <m_primary>  (5) 
energy

$$$$
5:0
     RDKit          3D

 38 40  0  0  0  0  0  0  0  0999 V2000
   -4.6380   18.1630  -34.4540 C   0  0  0  0  0  0  0  0  0  0  0  0
   -5.1080   19.4570  -34.0930 O   0  0  0  0  0  0  0  0  0  0  0  0
   -6.1210   19.7500  -33.1580 C   0  0  0  0  0  0  0  0  0  0  0  0
   -7.1670   18.8490  -32.8330 C   0  0  0  0  0  0  0  0  0  0  0  0
   -7.2610   17.6050  -33.4480 O   0  0  0  0  0  0  0  0  0  0  0  0
   -8.1310   19.2010  -31.8720 C   0  0  0  0  0  0  0  0  0  0  0  0
   -9.2330   18.2400  -31.5160 C   0  0  0  0  0  0  0  0  0  0  0  0
   -8.0460   20.4370  -31.2210 C   0  0  0  0  0  0  0  0  0  0  0  0
   -7.0270   21.3330  -31.5350 C   0  0  0  0  0  0  0  0  0  0  0  0
   -6.0750   21.0060  -32.5180 C   0  0  0  0  0  0  0  0  0  0  0  0
   -4.9520   21.9760  -32.8000 C   0  0  0  0  0  0  0  0  0  0  0  0
   -5.3840   23.4190  -32.5290 C   0  0  0  0  0  0  0  0  0  0  0  0
   -5.9940   23.5750  -31.1230 C   0  0  2  0  0  0  0  0  0  0  0  0
   -4.9210   23.6600  -30.0440 C   0  0  0  0  0  0  0  0  0  0  0  0
   -4.9610   22.7160  -29.0010 C   0  0  0  0  0  0  0  0  0  0  0  0
   -4.0290   22.7550  -27.9640 C   0  0  0  0  0  0  0  0  0  0  0  0
   -3.0470   23.7440  -27.9430 C   0  0  0  0  0  0  0  0  0  0  0  0
   -2.9930   24.7030  -28.9560 C   0  0  0  0  0  0  0  0  0  0  0  0
   -2.0020   25.6830  -28.9020 O   0  0  0  0  0  0  0  0  0  0  0  0
   -3.9280   24.6710  -30.0070 C   0  0  0  0  0  0  0  0  0  0  0  0
   -3.8590   25.6430  -30.9970 O   0  0  0  0  0  0  0  0  0  0  0  0
   -6.9640   22.5570  -30.8510 O   0  0  0  0  0  0  0  0  0  0  0  0
   -4.4271   17.5824  -33.5438 H   0  0  0  0  0  0  0  0  0  0  0  0
   -5.4060   17.6466  -35.0486 H   0  0  0  0  0  0  0  0  0  0  0  0
   -3.7176   18.2599  -35.0486 H   0  0  0  0  0  0  0  0  0  0  0  0
   -9.3166   18.1671  -30.4216 H   0  0  0  0  0  0  0  0  0  0  0  0
  -10.1843   18.6021  -31.9331 H   0  0  0  0  0  0  0  0  0  0  0  0
   -9.0037   17.2483  -31.9331 H   0  0  0  0  0  0  0  0  0  0  0  0
   -8.7898   20.7029  -30.4554 H   0  0  0  0  0  0  0  0  0  0  0  0
   -4.0958   21.7308  -32.1544 H   0  0  0  0  0  0  0  0  0  0  0  0
   -4.6758   21.8892  -33.8612 H   0  0  0  0  0  0  0  0  0  0  0  0
   -4.5056   24.0759  -32.6117 H   0  0  0  0  0  0  0  0  0  0  0  0
   -6.1509   23.6927  -33.2685 H   0  0  0  0  0  0  0  0  0  0  0  0
   -6.5306   24.5350  -31.1042 H   0  0  0  0  0  0  0  0  0  0  0  0
   -5.7376   21.9370  -29.0036 H   0  0  0  0  0  0  0  0  0  0  0  0
   -4.0690   22.0039  -27.1613 H   0  0  0  0  0  0  0  0  0  0  0  0
   -2.3118   23.7689  -27.1251 H   0  0  0  0  0  0  0  0  0  0  0  0
   -1.6120   26.1020  -29.7370 H   0  0  0  0  0  0  0  0  0  0  0  0
  1  2  1  0
  2  3  1  0
  3  4  2  0
  4  5  1  0
  4  6  1  0
  6  7  1  0
  6  8  2  0
  8  9  1  0
  9 10  2  0
 10 11  1  0
 11 12  1  0
 12 13  1  0
 13 14  1  0
 14 15  2  0
 15 16  1  0
 16 17  2  0
 17 18  1  0
 18 19  1  0
 18 20  2  0
 20 21  1  0
 13 22  1  0
 10  3  1  0
 20 14  1  0
 22  9  1  0
  1 23  1  0
  1 24  1  0
  1 25  1  0
  7 26  1  0
  7 27  1  0
  7 28  1  0
  8 29  1  0
 11 30  1  0
 11 31  1  0
 12 32  1  0
 12 33  1  0
 13 34  1  6
 15 35  1  0
 16 36  1  0
 17 37  1  0
 19 38  1  0
M  CHG  2   5  -1  21  -1
M  END
>  <UniqueID>  (6) 
5

>  <SMILES>  (6) 
COc1c([O-])c(C)cc2c1CC[C@H](c1cccc(O)c1[O-])O2

>  <Energy>  (6) 
47.42495001435603

>  <Genealogy>  (6) 
COc1c([O-])c(C)cc2c1CCC(c1cccc(O)c1[O-])O2 (protonated)
COc1c([O-])c(C)cc2c1CC[C@H](c1cccc(O)c1[O-])O2 (chirality)
COc1c([O-])c(C)cc2c1CC[C@H](c1cccc(O)c1[O-])O2 (3D coordinates assigned)
COc1c([O-])c(C)cc2c1CC[C@H](c1cccc(O)c1[O-])O2 (nonaromatic ring conformer: 47.42495001435603 kcal/mol)

>  <smiles>  (6) 
COc1c(O)c(C)cc2c1CCC(c1cccc(O)c1O)O2

>  <score_type>  (6) 
oracle

>  <origin>  (6) 
adg

>  <m_score__min__energy>  (6) 
-11.359999999999999

>  <m_primary>  (6) 
energy

$$$$
6:0
     RDKit          3D

 50 52  0  0  0  0  0  0  0  0999 V2000
   -6.4880   17.4690  -30.9690 C   0  0  0  0  0  0  0  0  0  0  0  0
   -6.5500   17.4160  -32.4930 C   0  0  0  0  0  0  0  0  0  0  0  0
   -5.2200   17.7180  -33.0670 N   0  0  0  0  0  0  0  0  0  0  0  0
   -5.2740   17.8310  -34.5420 C   0  0  0  0  0  0  0  0  0  0  0  0
   -4.1610   17.0040  -35.1810 C   0  0  0  0  0  0  0  0  0  0  0  0
   -4.6300   18.9330  -32.4550 C   0  0  0  0  0  0  0  0  0  0  0  0
   -4.5970   20.0750  -33.4740 C   0  0  0  0  0  0  0  0  0  0  0  0
   -5.2550   21.2640  -32.9290 N   0  0  0  0  0  0  0  0  0  0  0  0
   -4.6330   22.4090  -32.5610 C   0  0  0  0  0  0  0  0  0  0  0  0
   -5.5480   23.2720  -31.9650 C   0  0  0  0  0  0  0  0  0  0  0  0
   -5.3080   24.5440  -31.4340 O   0  0  0  0  0  0  0  0  0  0  0  0
   -5.3470   24.8360  -30.0380 C   0  0  0  0  0  0  0  0  0  0  0  0
   -4.2650   24.0880  -29.3060 C   0  0  0  0  0  0  0  0  0  0  0  0
   -2.9360   24.5420  -29.3370 C   0  0  0  0  0  0  0  0  0  0  0  0
   -1.9370   23.8410  -28.6550 C   0  0  0  0  0  0  0  0  0  0  0  0
   -2.2550   22.6800  -27.9460 C   0  0  0  0  0  0  0  0  0  0  0  0
   -3.5740   22.2170  -27.9190 C   0  0  0  0  0  0  0  0  0  0  0  0
   -4.5760   22.9150  -28.5990 C   0  0  0  0  0  0  0  0  0  0  0  0
   -6.7580   22.6190  -31.9700 C   0  0  0  0  0  0  0  0  0  0  0  0
   -8.0040   23.0000  -31.4760 C   0  0  0  0  0  0  0  0  0  0  0  0
   -9.0640   22.0830  -31.5970 C   0  0  0  0  0  0  0  0  0  0  0  0
   -8.8540   20.8220  -32.1950 C   0  0  0  0  0  0  0  0  0  0  0  0
   -7.5830   20.4640  -32.6810 C   0  0  0  0  0  0  0  0  0  0  0  0
   -6.5490   21.3960  -32.5570 C   0  0  0  0  0  0  0  0  0  0  0  0
   -7.2603   16.8088  -30.5474 H   0  0  0  0  0  0  0  0  0  0  0  0
   -5.4959   17.1355  -30.6306 H   0  0  0  0  0  0  0  0  0  0  0  0
   -6.6631   18.5009  -30.6306 H   0  0  0  0  0  0  0  0  0  0  0  0
   -6.8630   16.4101  -32.8096 H   0  0  0  0  0  0  0  0  0  0  0  0
   -7.2742   18.1631  -32.8500 H   0  0  0  0  0  0  0  0  0  0  0  0
   -6.2480   17.4642  -34.8981 H   0  0  0  0  0  0  0  0  0  0  0  0
   -5.1410   18.8859  -34.8238 H   0  0  0  0  0  0  0  0  0  0  0  0
   -3.5453   16.5465  -34.3926 H   0  0  0  0  0  0  0  0  0  0  0  0
   -4.6036   16.2139  -35.8054 H   0  0  0  0  0  0  0  0  0  0  0  0
   -3.5322   17.6557  -35.8054 H   0  0  0  0  0  0  0  0  0  0  0  0
   -5.2377   19.2357  -31.5895 H   0  0  0  0  0  0  0  0  0  0  0  0
   -3.6023   18.7097  -32.1324 H   0  0  0  0  0  0  0  0  0  0  0  0
   -3.5510   20.3172  -33.7134 H   0  0  0  0  0  0  0  0  0  0  0  0
   -5.1289   19.7577  -34.3831 H   0  0  0  0  0  0  0  0  0  0  0  0
   -3.5648   22.6248  -32.7106 H   0  0  0  0  0  0  0  0  0  0  0  0
   -5.2014   25.9164  -29.8912 H   0  0  0  0  0  0  0  0  0  0  0  0
   -6.3236   24.5240  -29.6392 H   0  0  0  0  0  0  0  0  0  0  0  0
   -2.6805   25.4520  -29.8997 H   0  0  0  0  0  0  0  0  0  0  0  0
   -0.8989   24.2042  -28.6767 H   0  0  0  0  0  0  0  0  0  0  0  0
   -1.4679   22.1303  -27.4091 H   0  0  0  0  0  0  0  0  0  0  0  0
   -3.8235   21.3020  -27.3617 H   0  0  0  0  0  0  0  0  0  0  0  0
   -5.6115   22.5444  -28.5804 H   0  0  0  0  0  0  0  0  0  0  0  0
   -8.1536   23.9839  -31.0075 H   0  0  0  0  0  0  0  0  0  0  0  0
  -10.0632   22.3506  -31.2230 H   0  0  0  0  0  0  0  0  0  0  0  0
   -9.6908   20.1133  -32.2819 H   0  0  0  0  0  0  0  0  0  0  0  0
   -7.4087   19.4815  -33.1440 H   0  0  0  0  0  0  0  0  0  0  0  0
  1  2  1  0
  2  3  1  0
  3  4  1  0
  4  5  1  0
  3  6  1  0
  6  7  1  0
  7  8  1  0
  8  9  1  0
  9 10  2  0
 10 11  1  0
 11 12  1  0
 12 13  1  0
 13 14  2  0
 14 15  1  0
 15 16  2  0
 16 17  1  0
 17 18  2  0
 10 19  1  0
 19 20  2  0
 20 21  1  0
 21 22  2  0
 22 23  1  0
 23 24  2  0
 24  8  1  0
 18 13  1  0
 24 19  1  0
  1 25  1  0
  1 26  1  0
  1 27  1  0
  2 28  1  0
  2 29  1  0
  4 30  1  0
  4 31  1  0
  5 32  1  0
  5 33  1  0
  5 34  1  0
  6 35  1  0
  6 36  1  0
  7 37  1  0
  7 38  1  0
  9 39  1  0
 12 40  1  0
 12 41  1  0
 14 42  1  0
 15 43  1  0
 16 44  1  0
 17 45  1  0
 18 46  1  0
 20 47  1  0
 21 48  1  0
 22 49  1  0
 23 50  1  0
M  END
>  <UniqueID>  (7) 
6

>  <SMILES>  (7) 
CCN(CC)CCn1cc(OCc2ccccc2)c2ccccc21

>  <Energy>  (7) 
78.02755510877326

>  <Genealogy>  (7) 
CCN(CC)CCn1cc(OCc2ccccc2)c2ccccc21 (3D coordinates assigned)
CCN(CC)CCn1cc(OCc2ccccc2)c2ccccc21 (optimized conformer: 78.02755510877326 kcal/mol)

>  <smiles>  (7) 
CCN(CC)CCn1cc(OCc2ccccc2)c2ccccc21

>  <score_type>  (7) 
oracle

>  <origin>  (7) 
adg

>  <m_score__min__energy>  (7) 
-7.7300000000000004

>  <m_primary>  (7) 
energy

$$$$
7:0
     RDKit          3D

 32 35  0  0  0  0  0  0  0  0999 V2000
   -7.9920   19.1360  -31.9350 C   0  0  0  0  0  0  0  0  0  0  0  0
   -6.9870   20.2440  -31.7980 C   0  0  0  0  0  0  0  0  0  0  0  0
   -7.3880   21.4730  -31.3360 N   0  0  0  0  0  0  0  0  0  0  0  0
   -6.5050   22.5060  -31.1450 C   0  0  0  0  0  0  0  0  0  0  0  0
   -6.9440   23.7050  -30.6740 N   0  0  0  0  0  0  0  0  0  0  0  0
   -6.0940   24.7460  -30.4620 C   0  0  0  0  0  0  0  0  0  0  0  0
   -4.7270   24.6070  -30.7260 C   0  0  0  0  0  0  0  0  0  0  0  0
   -3.8610   25.6720  -30.5080 O   0  0  0  0  0  0  0  0  0  0  0  0
   -4.2380   23.3920  -31.2110 C   0  0  0  0  0  0  0  0  0  0  0  0
   -5.1270   22.3320  -31.4250 C   0  0  0  0  0  0  0  0  0  0  0  0
   -4.7340   21.0900  -31.9110 C   0  0  0  0  0  0  0  0  0  0  0  0
   -3.4980   20.6610  -32.2270 N   0  0  0  0  0  0  0  0  0  0  0  0
   -3.6460   19.4010  -32.6300 N   0  0  0  0  0  0  0  0  0  0  0  0
   -4.9210   19.0290  -32.5770 N   0  0  0  0  0  0  0  0  0  0  0  0
   -5.3800   17.7460  -33.0150 C   0  0  0  0  0  0  0  0  0  0  0  0
   -6.2410   17.6410  -34.1170 C   0  0  0  0  0  0  0  0  0  0  0  0
   -6.6650   16.3830  -34.5580 C   0  0  0  0  0  0  0  0  0  0  0  0
   -6.2170   15.2270  -33.9130 C   0  0  0  0  0  0  0  0  0  0  0  0
   -5.3390   15.3260  -32.8290 C   0  0  0  0  0  0  0  0  0  0  0  0
   -4.9140   16.5830  -32.3850 C   0  0  0  0  0  0  0  0  0  0  0  0
   -5.6260   20.0830  -32.1180 C   0  0  0  0  0  0  0  0  0  0  0  0
   -8.3009   18.7955  -30.9357 H   0  0  0  0  0  0  0  0  0  0  0  0
   -8.8708   19.5040  -32.4848 H   0  0  0  0  0  0  0  0  0  0  0  0
   -7.5403   18.2972  -32.4848 H   0  0  0  0  0  0  0  0  0  0  0  0
   -8.3960   21.6330  -31.1090 H   0  0  0  0  0  0  0  0  0  0  0  0
   -6.4834   25.7017  -30.0812 H   0  0  0  0  0  0  0  0  0  0  0  0
   -3.1655   23.2693  -31.4226 H   0  0  0  0  0  0  0  0  0  0  0  0
   -6.5833   18.5489  -34.6352 H   0  0  0  0  0  0  0  0  0  0  0  0
   -7.3519   16.3036  -35.4135 H   0  0  0  0  0  0  0  0  0  0  0  0
   -6.5551   14.2388  -34.2581 H   0  0  0  0  0  0  0  0  0  0  0  0
   -4.9824   14.4154  -32.3253 H   0  0  0  0  0  0  0  0  0  0  0  0
   -4.2133   16.6591  -31.5405 H   0  0  0  0  0  0  0  0  0  0  0  0
  1  2  1  0
  2  3  2  0
  3  4  1  0
  4  5  2  0
  5  6  1  0
  6  7  2  0
  7  8  1  0
  7  9  1  0
  9 10  2  0
 10 11  1  0
 11 12  1  0
 12 13  2  0
 13 14  1  0
 14 15  1  0
 15 16  2  0
 16 17  1  0
 17 18  2  0
 18 19  1  0
 19 20  2  0
 14 21  1  0
 21  2  1  0
 10  4  1  0
 21 11  2  0
 20 15  1  0
  1 22  1  0
  1 23  1  0
  1 24  1  0
  3 25  1  0
  6 26  1  0
  9 27  1  0
 16 28  1  0
 17 29  1  0
 18 30  1  0
 19 31  1  0
 20 32  1  0
M  CHG  2   3   1   8  -1
M  END
>  <UniqueID>  (8) 
7

>  <SMILES>  (8) 
Cc1[nH+]c2ncc([O-])cc2c2nnn(-c3ccccc3)c12

>  <Energy>  (8) 
93.61836851407597

>  <Genealogy>  (8) 
Cc1[nH+]c2ncc([O-])cc2c2nnn(-c3ccccc3)c12 (protonated)
Cc1[nH+]c2ncc([O-])cc2c2nnn(-c3ccccc3)c12 (3D coordinates assigned)
Cc1[nH+]c2ncc([O-])cc2c2nnn(-c3ccccc3)c12 (optimized conformer: 93.61836851407597 kcal/mol)

>  <smiles>  (8) 
Cc1nc2ncc(O)cc2c2nnn(-c3ccccc3)c12

>  <score_type>  (8) 
oracle

>  <origin>  (8) 
adg

>  <m_score__min__energy>  (8) 
-9.9700000000000006

>  <m_primary>  (8) 
energy

$$$$
8:0
     RDKit          3D

 44 46  0  0  0  0  0  0  0  0999 V2000
   -8.2430   19.9060  -31.2350 C   0  0  0  0  0  0  0  0  0  0  0  0
   -8.7430   21.2090  -31.8510 C   0  0  0  0  0  0  0  0  0  0  0  0
   -7.8580   22.3610  -31.4540 C   0  0  0  0  0  0  0  0  0  0  0  0
   -7.2590   23.1660  -32.4350 C   0  0  0  0  0  0  0  0  0  0  0  0
   -6.4150   24.2170  -32.0670 C   0  0  0  0  0  0  0  0  0  0  0  0
   -6.1400   24.4640  -30.7120 C   0  0  0  0  0  0  0  0  0  0  0  0
   -5.2620   25.6130  -30.3140 C   0  0  0  0  0  0  0  0  0  0  0  0
   -3.8750   25.2800  -30.6090 N   0  0  0  0  0  0  0  0  0  0  0  0
   -3.1630   24.1180  -30.1630 C   0  0  0  0  0  0  0  0  0  0  0  0
   -2.2290   24.2740  -29.3330 O   0  0  0  0  0  0  0  0  0  0  0  0
   -3.4990   22.7430  -30.5870 C   0  0  0  0  0  0  0  0  0  0  0  0
   -3.8690   22.3090  -31.8460 C   0  0  0  0  0  0  0  0  0  0  0  0
   -4.0040   20.9400  -31.6990 C   0  0  0  0  0  0  0  0  0  0  0  0
   -4.3890   19.9530  -32.7340 C   0  0  0  0  0  0  0  0  0  0  0  0
   -5.7010   19.9550  -33.2380 C   0  0  0  0  0  0  0  0  0  0  0  0
   -6.0840   19.0340  -34.2160 C   0  0  0  0  0  0  0  0  0  0  0  0
   -5.1650   18.1040  -34.7020 C   0  0  0  0  0  0  0  0  0  0  0  0
   -3.8530   18.0820  -34.2170 C   0  0  0  0  0  0  0  0  0  0  0  0
   -2.9690   17.1270  -34.7390 O   0  0  0  0  0  0  0  0  0  0  0  0
   -2.8500   15.7900  -34.2610 C   0  0  0  0  0  0  0  0  0  0  0  0
   -3.4680   19.0110  -33.2310 C   0  0  0  0  0  0  0  0  0  0  0  0
   -3.7190   20.6280  -30.4550 O   0  0  0  0  0  0  0  0  0  0  0  0
   -3.4050   21.6820  -29.7620 N   0  0  0  0  0  0  0  0  0  0  0  0
   -6.7410   23.6590  -29.7310 C   0  0  0  0  0  0  0  0  0  0  0  0
   -7.5860   22.6080  -30.0990 C   0  0  0  0  0  0  0  0  0  0  0  0
   -8.2729   19.9838  -30.1382 H   0  0  0  0  0  0  0  0  0  0  0  0
   -8.8863   19.0756  -31.5613 H   0  0  0  0  0  0  0  0  0  0  0  0
   -7.2093   19.7191  -31.5613 H   0  0  0  0  0  0  0  0  0  0  0  0
   -8.7417   21.1139  -32.9469 H   0  0  0  0  0  0  0  0  0  0  0  0
   -9.7619   21.4042  -31.4854 H   0  0  0  0  0  0  0  0  0  0  0  0
   -7.4549   22.9686  -33.4993 H   0  0  0  0  0  0  0  0  0  0  0  0
   -5.9638   24.8539  -32.8421 H   0  0  0  0  0  0  0  0  0  0  0  0
   -5.5529   26.5112  -30.8785 H   0  0  0  0  0  0  0  0  0  0  0  0
   -5.3744   25.8085  -29.2374 H   0  0  0  0  0  0  0  0  0  0  0  0
   -4.0208   22.9117  -32.7536 H   0  0  0  0  0  0  0  0  0  0  0  0
   -6.4307   20.6862  -32.8600 H   0  0  0  0  0  0  0  0  0  0  0  0
   -7.1133   19.0422  -34.6040 H   0  0  0  0  0  0  0  0  0  0  0  0
   -5.4743   17.3824  -35.4725 H   0  0  0  0  0  0  0  0  0  0  0  0
   -2.8502   15.7925  -33.1610 H   0  0  0  0  0  0  0  0  0  0  0  0
   -3.6986   15.1930  -34.6265 H   0  0  0  0  0  0  0  0  0  0  0  0
   -1.9093   15.3523  -34.6265 H   0  0  0  0  0  0  0  0  0  0  0  0
   -2.4378   19.0006  -32.8454 H   0  0  0  0  0  0  0  0  0  0  0  0
   -6.5457   23.8566  -28.6667 H   0  0  0  0  0  0  0  0  0  0  0  0
   -8.0394   21.9723  -29.3242 H   0  0  0  0  0  0  0  0  0  0  0  0
  1  2  1  0
  2  3  1  0
  3  4  2  0
  4  5  1  0
  5  6  2  0
  6  7  1  0
  7  8  1  0
  8  9  1  0
  9 10  2  0
  9 11  1  0
 11 12  1  0
 12 13  2  0
 13 14  1  0
 14 15  2  0
 15 16  1  0
 16 17  2  0
 17 18  1  0
 18 19  1  0
 19 20  1  0
 18 21  2  0
 13 22  1  0
 22 23  1  0
  6 24  1  0
 24 25  2  0
 25  3  1  0
 23 11  2  0
 21 14  1  0
  1 26  1  0
  1 27  1  0
  1 28  1  0
  2 29  1  0
  2 30  1  0
  4 31  1  0
  5 32  1  0
  7 33  1  0
  7 34  1  0
 12 35  1  0
 15 36  1  0
 16 37  1  0
 17 38  1  0
 20 39  1  0
 20 40  1  0
 20 41  1  0
 21 42  1  0
 24 43  1  0
 25 44  1  0
M  CHG  1   8  -1
M  END
>  <UniqueID>  (9) 
8

>  <SMILES>  (9) 
CCc1ccc(C[N-]C(=O)c2cc(-c3cccc(OC)c3)on2)cc1

>  <Energy>  (9) 
74.72894559815832

>  <Genealogy>  (9) 
CCc1ccc(C[N-]C(=O)c2cc(-c3cccc(OC)c3)on2)cc1 (protonated)
CCc1ccc(C[N-]C(=O)c2cc(-c3cccc(OC)c3)on2)cc1 (3D coordinates assigned)
CCc1ccc(C[N-]C(=O)c2cc(-c3cccc(OC)c3)on2)cc1 (optimized conformer: 74.72894559815832 kcal/mol)

>  <smiles>  (9) 
CCc1ccc(CNC(=O)c2cc(-c3cccc(OC)c3)on2)cc1

>  <score_type>  (9) 
oracle

>  <origin>  (9) 
adg

>  <m_score__min__energy>  (9) 
-10.470000000000001

>  <m_primary>  (9) 
energy

$$$$
9:0
     RDKit          3D

 41 42  0  0  0  0  0  0  0  0999 V2000
    1.0670   25.7210  -26.6050 C   0  0  0  0  0  0  0  0  0  0  0  0
    0.7610   25.0200  -27.8060 O   0  0  0  0  0  0  0  0  0  0  0  0
   -0.4650   24.3920  -28.0870 C   0  0  0  0  0  0  0  0  0  0  0  0
   -1.3430   24.9200  -29.0540 C   0  0  0  0  0  0  0  0  0  0  0  0
   -2.5800   24.3270  -29.3090 C   0  0  0  0  0  0  0  0  0  0  0  0
   -3.4420   24.9230  -30.2880 N   0  0  0  0  0  0  0  0  0  0  0  0
   -5.1320   24.5630  -30.4780 S   0  0  0  0  0  0  0  0  0  0  0  0
   -5.7950   25.6850  -31.2280 O   0  0  0  0  0  0  0  0  0  0  0  0
   -5.7500   24.4760  -29.1140 O   0  0  0  0  0  0  0  0  0  0  0  0
   -5.3680   23.0550  -31.3790 C   0  0  0  0  0  0  0  0  0  0  0  0
   -4.2390   22.2810  -31.6950 C   0  0  0  0  0  0  0  0  0  0  0  0
   -4.3770   21.1010  -32.4290 C   0  0  0  0  0  0  0  0  0  0  0  0
   -5.6430   20.6770  -32.8600 C   0  0  0  0  0  0  0  0  0  0  0  0
   -5.8210   19.0650  -33.8660 Br  0  0  0  0  0  0  0  0  0  0  0  0
   -6.7750   21.4310  -32.5470 C   0  0  0  0  0  0  0  0  0  0  0  0
   -6.6590   22.6120  -31.7910 C   0  0  0  0  0  0  0  0  0  0  0  0
   -7.9190   23.3940  -31.4990 C   0  0  0  0  0  0  0  0  0  0  0  0
   -2.9470   23.1780  -28.6030 C   0  0  0  0  0  0  0  0  0  0  0  0
   -2.0770   22.6070  -27.6600 C   0  0  0  0  0  0  0  0  0  0  0  0
   -2.4110   21.4270  -26.9680 O   0  0  0  0  0  0  0  0  0  0  0  0
   -2.3430   20.1170  -27.5250 C   0  0  0  0  0  0  0  0  0  0  0  0
   -0.8370   23.2120  -27.3910 C   0  0  0  0  0  0  0  0  0  0  0  0
   -0.0210   22.5880  -26.4270 O   0  0  0  0  0  0  0  0  0  0  0  0
   -0.1230   22.7250  -25.0130 C   0  0  0  0  0  0  0  0  0  0  0  0
    0.7958   25.0998  -25.7386 H   0  0  0  0  0  0  0  0  0  0  0  0
    2.1439   25.9431  -26.5743 H   0  0  0  0  0  0  0  0  0  0  0  0
    0.4976   26.6617  -26.5743 H   0  0  0  0  0  0  0  0  0  0  0  0
   -1.0478   25.8167  -29.6186 H   0  0  0  0  0  0  0  0  0  0  0  0
   -3.2419   22.6058  -31.3628 H   0  0  0  0  0  0  0  0  0  0  0  0
   -3.4877   20.5004  -32.6707 H   0  0  0  0  0  0  0  0  0  0  0  0
   -7.7649   21.0996  -32.8938 H   0  0  0  0  0  0  0  0  0  0  0  0
   -8.0544   23.4781  -30.4106 H   0  0  0  0  0  0  0  0  0  0  0  0
   -7.8362   24.3997  -31.9369 H   0  0  0  0  0  0  0  0  0  0  0  0
   -8.7834   22.8734  -31.9369 H   0  0  0  0  0  0  0  0  0  0  0  0
   -3.9279   22.7159  -28.7880 H   0  0  0  0  0  0  0  0  0  0  0  0
   -2.3045   19.3752  -26.7137 H   0  0  0  0  0  0  0  0  0  0  0  0
   -3.2329   19.9358  -28.1456 H   0  0  0  0  0  0  0  0  0  0  0  0
   -1.4391   20.0289  -28.1456 H   0  0  0  0  0  0  0  0  0  0  0  0
    0.4656   21.9344  -24.5246 H   0  0  0  0  0  0  0  0  0  0  0  0
    0.2637   23.7096  -24.7112 H   0  0  0  0  0  0  0  0  0  0  0  0
   -1.1771   22.6368  -24.7112 H   0  0  0  0  0  0  0  0  0  0  0  0
  1  2  1  0
  2  3  1  0
  3  4  2  0
  4  5  1  0
  5  6  1  0
  6  7  1  0
  7  8  2  0
  7  9  2  0
  7 10  1  0
 10 11  2  0
 11 12  1  0
 12 13  2  0
 13 14  1  0
 13 15  1  0
 15 16  2  0
 16 17  1  0
  5 18  2  0
 18 19  1  0
 19 20  1  0
 20 21  1  0
 19 22  2  0
 22 23  1  0
 23 24  1  0
 22  3  1  0
 16 10  1  0
  1 25  1  0
  1 26  1  0
  1 27  1  0
  4 28  1  0
 11 29  1  0
 12 30  1  0
 15 31  1  0
 17 32  1  0
 17 33  1  0
 17 34  1  0
 18 35  1  0
 21 36  1  0
 21 37  1  0
 21 38  1  0
 24 39  1  0
 24 40  1  0
 24 41  1  0
M  CHG  1   6  -1
M  END
>  <UniqueID>  (10) 
9

>  <SMILES>  (10) 
COc1cc([N-]S(=O)(=O)c2ccc(Br)cc2C)cc(OC)c1OC

>  <Energy>  (10) 
47.266754095448434

>  <Genealogy>  (10) 
COc1cc([N-]S(=O)(=O)c2ccc(Br)cc2C)cc(OC)c1OC (protonated)
COc1cc([N-]S(=O)(=O)c2ccc(Br)cc2C)cc(OC)c1OC (3D coordinates assigned)
COc1cc([N-]S(=O)(=O)c2ccc(Br)cc2C)cc(OC)c1OC (optimized conformer: 47.266754095448434 kcal/mol)

>  <smiles>  (10) 
COc1cc(NS(=O)(=O)c2ccc(Br)cc2C)cc(OC)c1OC

>  <score_type>  (10) 
oracle

>  <origin>  (10) 
adg

>  <m_score__min__energy>  (10) 
-8.9100000000000001

>  <m_primary>  (10) 
energy

$$$$
10:0
     RDKit          3D

 52 55  0  0  0  0  0  0  0  0999 V2000
   -0.8480   27.0490  -23.3750 C   0  0  0  0  0  0  0  0  0  0  0  0
    0.3090   26.4080  -24.1310 C   0  0  0  0  0  0  0  0  0  0  0  0
   -0.1730   25.2880  -24.9340 N   0  0  0  0  0  0  0  0  0  0  0  0
   -0.1230   24.0200  -24.5530 N   0  0  0  0  0  0  0  0  0  0  0  0
   -0.7260   23.3100  -25.5330 C   0  0  0  0  0  0  0  0  0  0  0  0
   -0.8600   21.8210  -25.4930 C   0  0  0  0  0  0  0  0  0  0  0  0
   -1.1820   24.1130  -26.5270 N   0  0  0  0  0  0  0  0  0  0  0  0
   -1.8870   23.7620  -27.7300 C   0  0  0  0  0  0  0  0  0  0  0  0
   -1.5000   22.6430  -28.4840 C   0  0  0  0  0  0  0  0  0  0  0  0
   -2.1920   22.3010  -29.6500 C   0  0  0  0  0  0  0  0  0  0  0  0
   -3.2840   23.0720  -30.0810 C   0  0  0  0  0  0  0  0  0  0  0  0
   -4.0060   22.7110  -31.2740 N   0  0  0  0  0  0  0  0  0  0  0  0
   -5.4640   22.8880  -31.3500 C   0  0  0  0  0  0  0  0  0  0  0  0
   -6.1270   21.5580  -31.7270 C   0  0  0  0  0  0  0  0  0  0  0  0
   -5.3820   20.8690  -32.7940 N   0  0  0  0  0  0  0  0  0  0  0  0
   -5.7150   19.5090  -33.1290 C   0  0  0  0  0  0  0  0  0  0  0  0
   -6.6900   18.8120  -32.3920 C   0  0  0  0  0  0  0  0  0  0  0  0
   -7.0230   17.4960  -32.7260 C   0  0  0  0  0  0  0  0  0  0  0  0
   -6.3900   16.8640  -33.8000 C   0  0  0  0  0  0  0  0  0  0  0  0
   -6.8090   15.2120  -34.2180 Cl  0  0  0  0  0  0  0  0  0  0  0  0
   -5.4230   17.5500  -34.5420 C   0  0  0  0  0  0  0  0  0  0  0  0
   -5.0890   18.8670  -34.2110 C   0  0  0  0  0  0  0  0  0  0  0  0
   -4.2600   21.5520  -33.4550 C   0  0  0  0  0  0  0  0  0  0  0  0
   -3.2880   22.0900  -32.3990 C   0  0  0  0  0  0  0  0  0  0  0  0
   -3.6800   24.1810  -29.3160 C   0  0  0  0  0  0  0  0  0  0  0  0
   -2.9890   24.5220  -28.1500 C   0  0  0  0  0  0  0  0  0  0  0  0
   -0.8150   25.3410  -26.1130 C   0  0  0  0  0  0  0  0  0  0  0  0
   -1.0680   26.4080  -26.7350 O   0  0  0  0  0  0  0  0  0  0  0  0
   -0.6763   26.9539  -22.2927 H   0  0  0  0  0  0  0  0  0  0  0  0
   -0.9163   28.1136  -23.6432 H   0  0  0  0  0  0  0  0  0  0  0  0
   -1.7868   26.5423  -23.6432 H   0  0  0  0  0  0  0  0  0  0  0  0
    0.7707   27.1567  -24.7915 H   0  0  0  0  0  0  0  0  0  0  0  0
    1.0501   26.0382  -23.4071 H   0  0  0  0  0  0  0  0  0  0  0  0
   -0.8904   21.4836  -24.4465 H   0  0  0  0  0  0  0  0  0  0  0  0
   -1.7886   21.5226  -26.0016 H   0  0  0  0  0  0  0  0  0  0  0  0
    0.0004   21.3616  -26.0016 H   0  0  0  0  0  0  0  0  0  0  0  0
   -0.6469   22.0312  -28.1555 H   0  0  0  0  0  0  0  0  0  0  0  0
   -1.8791   21.4225  -30.2334 H   0  0  0  0  0  0  0  0  0  0  0  0
   -5.8433   23.2216  -30.3728 H   0  0  0  0  0  0  0  0  0  0  0  0
   -5.7000   23.6424  -32.1149 H   0  0  0  0  0  0  0  0  0  0  0  0
   -6.1605   20.9104  -30.8385 H   0  0  0  0  0  0  0  0  0  0  0  0
   -7.1419   21.7694  -32.0948 H   0  0  0  0  0  0  0  0  0  0  0  0
   -7.1934   19.3057  -31.5477 H   0  0  0  0  0  0  0  0  0  0  0  0
   -7.7842   16.9571  -32.1428 H   0  0  0  0  0  0  0  0  0  0  0  0
   -4.9245   17.0528  -35.3872 H   0  0  0  0  0  0  0  0  0  0  0  0
   -4.3316   19.4037  -34.8012 H   0  0  0  0  0  0  0  0  0  0  0  0
   -3.7331   20.8411  -34.1085 H   0  0  0  0  0  0  0  0  0  0  0  0
   -4.6459   22.3893  -34.0550 H   0  0  0  0  0  0  0  0  0  0  0  0
   -2.6772   21.2582  -32.0181 H   0  0  0  0  0  0  0  0  0  0  0  0
   -2.6546   22.8560  -32.8702 H   0  0  0  0  0  0  0  0  0  0  0  0
   -4.5408   24.7860  -29.6370 H   0  0  0  0  0  0  0  0  0  0  0  0
   -3.3111   25.3914  -27.5581 H   0  0  0  0  0  0  0  0  0  0  0  0
  1  2  1  0
  2  3  1  0
  3  4  1  0
  4  5  2  0
  5  6  1  0
  5  7  1  0
  7  8  1  0
  8  9  2  0
  9 10  1  0
 10 11  2  0
 11 12  1  0
 12 13  1  0
 13 14  1  0
 14 15  1  0
 15 16  1  0
 16 17  2  0
 17 18  1  0
 18 19  2  0
 19 20  1  0
 19 21  1  0
 21 22  2  0
 15 23  1  0
 23 24  1  0
 11 25  1  0
 25 26  2  0
  7 27  1  0
 27 28  2  0
 27  3  1  0
 26  8  1  0
 24 12  1  0
 22 16  1  0
  1 29  1  0
  1 30  1  0
  1 31  1  0
  2 32  1  0
  2 33  1  0
  6 34  1  0
  6 35  1  0
  6 36  1  0
  9 37  1  0
 10 38  1  0
 13 39  1  0
 13 40  1  0
 14 41  1  0
 14 42  1  0
 17 43  1  0
 18 44  1  0
 21 45  1  0
 22 46  1  0
 23 47  1  0
 23 48  1  0
 24 49  1  0
 24 50  1  0
 25 51  1  0
 26 52  1  0
M  END
>  <UniqueID>  (11) 
10

>  <SMILES>  (11) 
CCn1nc(C)n(-c2ccc(N3CCN(c4ccc(Cl)cc4)CC3)cc2)c1=O

>  <Energy>  (11) 
102.51506641796217

>  <Genealogy>  (11) 
CCn1nc(C)n(-c2ccc(N3CCN(c4ccc(Cl)cc4)CC3)cc2)c1=O (3D coordinates assigned)
CCn1nc(C)n(-c2ccc(N3CCN(c4ccc(Cl)cc4)CC3)cc2)c1=O (nonaromatic ring conformer: 102.51506641796217 kcal/mol)

>  <smiles>  (11) 
CCn1nc(C)n(-c2ccc(N3CCN(c4ccc(Cl)cc4)CC3)cc2)c1=O

>  <score_type>  (11) 
oracle

>  <origin>  (11) 
adg

>  <m_score__min__energy>  (11) 
-8.0899999999999999

>  <m_primary>  (11) 
energy

$$$$
11:0
     RDKit          3D

 54 57  0  0  0  0  0  0  0  0999 V2000
   -3.7140   22.6970  -32.2100 O   0  0  0  0  0  0  0  0  0  0  0  0
   -4.7190   21.9520  -32.3690 C   0  0  0  0  0  0  0  0  0  0  0  0
   -4.5100   20.5790  -32.9860 C   0  0  0  0  0  0  0  0  0  0  0  0
   -5.8080   19.9140  -33.4930 C   0  0  0  0  0  0  0  0  0  0  0  0
   -6.9410   20.1980  -32.5010 C   0  0  1  0  0  0  0  0  0  0  0  0
   -7.1840   21.6870  -32.4750 C   0  0  1  0  0  0  0  0  0  0  0  0
   -8.4900   21.7650  -31.7110 C   0  0  0  0  0  0  0  0  0  0  0  0
   -9.2300   20.4970  -32.1640 C   0  0  0  0  0  0  0  0  0  0  0  0
   -8.2460   19.6060  -32.8320 N   0  0  2  0  0  0  0  0  0  0  0  0
   -8.3460   18.2000  -32.3770 C   0  0  0  0  0  0  0  0  0  0  0  0
   -7.1100   17.4120  -32.7460 C   0  0  0  0  0  0  0  0  0  0  0  0
   -6.8630   17.0670  -34.0850 C   0  0  0  0  0  0  0  0  0  0  0  0
   -5.7070   16.3600  -34.4310 C   0  0  0  0  0  0  0  0  0  0  0  0
   -4.7900   15.9930  -33.4440 C   0  0  0  0  0  0  0  0  0  0  0  0
   -5.0240   16.3340  -32.1100 C   0  0  0  0  0  0  0  0  0  0  0  0
   -6.1780   17.0430  -31.7570 C   0  0  0  0  0  0  0  0  0  0  0  0
   -6.3860   17.3660  -30.4560 F   0  0  0  0  0  0  0  0  0  0  0  0
   -6.0240   22.3800  -31.9000 N   0  0  0  0  0  0  0  0  0  0  0  0
   -6.1730   23.6920  -31.2510 C   0  0  0  0  0  0  0  0  0  0  0  0
   -6.0020   23.5610  -29.7210 C   0  0  0  0  0  0  0  0  0  0  0  0
   -4.9230   24.4000  -29.1490 N   0  0  0  0  0  0  0  0  0  0  0  0
   -3.8340   24.6910  -30.0900 C   0  0  0  0  0  0  0  0  0  0  0  0
   -2.6490   23.8230  -29.7040 C   0  0  0  0  0  0  0  0  0  0  0  0
   -2.8590   23.4940  -28.2410 C   0  0  0  0  0  0  0  0  0  0  0  0
   -4.3150   23.8310  -27.9370 C   0  0  0  0  0  0  0  0  0  0  0  0
   -3.8199   20.6833  -33.8362 H   0  0  0  0  0  0  0  0  0  0  0  0
   -4.1096   19.9311  -32.1923 H   0  0  0  0  0  0  0  0  0  0  0  0
   -6.0708   20.3247  -34.4790 H   0  0  0  0  0  0  0  0  0  0  0  0
   -5.6569   18.8279  -33.5801 H   0  0  0  0  0  0  0  0  0  0  0  0
   -6.5987   19.7560  -31.5536 H   0  0  0  0  0  0  0  0  0  0  0  0
   -7.2821   22.1981  -33.4441 H   0  0  0  0  0  0  0  0  0  0  0  0
   -8.3144   21.7539  -30.6252 H   0  0  0  0  0  0  0  0  0  0  0  0
   -9.0530   22.6895  -31.9070 H   0  0  0  0  0  0  0  0  0  0  0  0
   -9.6643   19.9864  -31.2919 H   0  0  0  0  0  0  0  0  0  0  0  0
  -10.0437   20.7561  -32.8574 H   0  0  0  0  0  0  0  0  0  0  0  0
   -8.3890   19.6530  -33.8710 H   0  0  0  0  0  0  0  0  0  0  0  0
   -8.4667   18.1853  -31.2837 H   0  0  0  0  0  0  0  0  0  0  0  0
   -9.2125   17.7368  -32.8715 H   0  0  0  0  0  0  0  0  0  0  0  0
   -7.5827   17.3544  -34.8657 H   0  0  0  0  0  0  0  0  0  0  0  0
   -5.5200   16.0928  -35.4815 H   0  0  0  0  0  0  0  0  0  0  0  0
   -3.8824   15.4348  -33.7174 H   0  0  0  0  0  0  0  0  0  0  0  0
   -4.2994   16.0446  -31.3347 H   0  0  0  0  0  0  0  0  0  0  0  0
   -5.4086   24.3789  -31.6433 H   0  0  0  0  0  0  0  0  0  0  0  0
   -7.1789   24.0825  -31.4646 H   0  0  0  0  0  0  0  0  0  0  0  0
   -6.9503   23.8484  -29.2435 H   0  0  0  0  0  0  0  0  0  0  0  0
   -5.7217   22.5153  -29.5261 H   0  0  0  0  0  0  0  0  0  0  0  0
   -4.1524   24.4561  -31.1164 H   0  0  0  0  0  0  0  0  0  0  0  0
   -3.5622   25.7561  -30.0488 H   0  0  0  0  0  0  0  0  0  0  0  0
   -2.6312   22.9036  -30.3076 H   0  0  0  0  0  0  0  0  0  0  0  0
   -1.6906   24.3343  -29.8774 H   0  0  0  0  0  0  0  0  0  0  0  0
   -2.6681   22.4262  -28.0585 H   0  0  0  0  0  0  0  0  0  0  0  0
   -2.1718   24.0636  -27.5981 H   0  0  0  0  0  0  0  0  0  0  0  0
   -4.8543   22.9180  -27.6445 H   0  0  0  0  0  0  0  0  0  0  0  0
   -4.3706   24.5551  -27.1108 H   0  0  0  0  0  0  0  0  0  0  0  0
  1  2  2  0
  2  3  1  0
  3  4  1  0
  4  5  1  0
  5  6  1  0
  6  7  1  0
  7  8  1  0
  8  9  1  0
  9 10  1  0
 10 11  1  0
 11 12  2  0
 12 13  1  0
 13 14  2  0
 14 15  1  0
 15 16  2  0
 16 17  1  0
  6 18  1  0
 18 19  1  0
 19 20  1  0
 20 21  1  0
 21 22  1  0
 22 23  1  0
 23 24  1  0
 24 25  1  0
 18  2  1  0
 25 21  1  0
  9  5  1  0
 16 11  1  0
  3 26  1  0
  3 27  1  0
  4 28  1  0
  4 29  1  0
  5 30  1  1
  6 31  1  6
  7 32  1  0
  7 33  1  0
  8 34  1  0
  8 35  1  0
  9 36  1  6
 10 37  1  0
 10 38  1  0
 12 39  1  0
 13 40  1  0
 14 41  1  0
 15 42  1  0
 19 43  1  0
 19 44  1  0
 20 45  1  0
 20 46  1  0
 22 47  1  0
 22 48  1  0
 23 49  1  0
 23 50  1  0
 24 51  1  0
 24 52  1  0
 25 53  1  0
 25 54  1  0
M  CHG  1   9   1
M  END
>  <UniqueID>  (12) 
11

>  <SMILES>  (12) 
O=C1CC[C@H]2[C@@H](CC[NH+]2Cc2ccccc2F)N1CCN1CCCC1

>  <Energy>  (12) 
70.71732658872409

>  <Genealogy>  (12) 
O=C1CCC2C(CC[NH+]2Cc2ccccc2F)N1CCN1CCCC1 (protonated)
O=C1CC[C@H]2[C@@H](CC[NH+]2Cc2ccccc2F)N1CCN1CCCC1 (chirality)
O=C1CC[C@H]2[C@@H](CC[NH+]2Cc2ccccc2F)N1CCN1CCCC1 (3D coordinates assigned)
O=C1CC[C@H]2[C@@H](CC[NH+]2Cc2ccccc2F)N1CCN1CCCC1 (nonaromatic ring conformer: 70.71732658872409 kcal/mol)

>  <smiles>  (12) 
O=C1CCC2C(CCN2Cc2ccccc2F)N1CCN1CCCC1

>  <score_type>  (12) 
oracle

>  <origin>  (12) 
adg

>  <m_score__min__energy>  (12) 
-8.2200000000000006

>  <m_primary>  (12) 
energy

$$$$
12:0
     RDKit          3D

 44 47  0  0  0  0  0  0  0  0999 V2000
    4.1900   19.7830  -34.8280 C   0  0  0  0  0  0  0  0  0  0  0  0
    2.9350   19.7380  -35.4980 O   0  0  0  0  0  0  0  0  0  0  0  0
    1.6940   19.9640  -34.8800 C   0  0  0  0  0  0  0  0  0  0  0  0
    0.7580   18.9310  -34.6820 C   0  0  0  0  0  0  0  0  0  0  0  0
   -0.4790   19.1870  -34.0790 C   0  0  0  0  0  0  0  0  0  0  0  0
   -0.7690   20.4840  -33.6370 C   0  0  0  0  0  0  0  0  0  0  0  0
    0.1630   21.5160  -33.8110 C   0  0  0  0  0  0  0  0  0  0  0  0
    1.3960   21.2620  -34.4390 C   0  0  0  0  0  0  0  0  0  0  0  0
    2.3510   22.2710  -34.6430 O   0  0  0  0  0  0  0  0  0  0  0  0
    2.2860   23.2460  -35.6790 C   0  0  0  0  0  0  0  0  0  0  0  0
   -2.0750   20.7680  -33.0560 C   0  0  0  0  0  0  0  0  0  0  0  0
   -2.1530   21.2530  -31.8910 O   0  0  0  0  0  0  0  0  0  0  0  0
   -3.2450   20.4850  -33.8470 N   0  0  2  0  0  0  0  0  0  0  0  0
   -4.4020   21.1450  -33.3200 C   0  0  0  0  0  0  0  0  0  0  0  0
   -5.3410   20.3270  -32.8710 C   0  0  0  0  0  0  0  0  0  0  0  0
   -6.6280   20.7410  -32.2480 C   0  0  0  0  0  0  0  0  0  0  0  0
   -6.6940   21.9270  -31.4910 C   0  0  0  0  0  0  0  0  0  0  0  0
   -7.8940   22.3270  -30.8960 C   0  0  0  0  0  0  0  0  0  0  0  0
   -9.0430   21.5490  -31.0440 C   0  0  0  0  0  0  0  0  0  0  0  0
  -10.2060   21.9380  -30.4650 F   0  0  0  0  0  0  0  0  0  0  0  0
   -8.9930   20.3660  -31.7840 C   0  0  0  0  0  0  0  0  0  0  0  0
   -7.7950   19.9600  -32.3810 C   0  0  0  0  0  0  0  0  0  0  0  0
   -4.8930   18.9210  -33.0270 C   0  0  0  0  0  0  0  0  0  0  0  0
   -3.6280   19.0530  -33.8920 C   0  0  2  0  0  0  0  0  0  0  0  0
   -2.5900   18.0100  -33.4970 C   0  0  0  0  0  0  0  0  0  0  0  0
   -1.3070   18.0680  -33.7270 N   0  0  0  0  0  0  0  0  0  0  0  0
    4.0254   19.7771  -33.7404 H   0  0  0  0  0  0  0  0  0  0  0  0
    4.7894   18.9058  -35.1129 H   0  0  0  0  0  0  0  0  0  0  0  0
    4.7250   20.7009  -35.1129 H   0  0  0  0  0  0  0  0  0  0  0  0
    1.0023   17.9085  -35.0057 H   0  0  0  0  0  0  0  0  0  0  0  0
   -0.0708   22.5301  -33.4546 H   0  0  0  0  0  0  0  0  0  0  0  0
    2.2191   24.2498  -35.2341 H   0  0  0  0  0  0  0  0  0  0  0  0
    3.1905   23.1804  -36.3015 H   0  0  0  0  0  0  0  0  0  0  0  0
    1.3982   23.0609  -36.3015 H   0  0  0  0  0  0  0  0  0  0  0  0
   -3.0900   20.8430  -34.8200 H   0  0  0  0  0  0  0  0  0  0  0  0
   -4.5019   22.2401  -33.2908 H   0  0  0  0  0  0  0  0  0  0  0  0
   -5.7923   22.5446  -31.3668 H   0  0  0  0  0  0  0  0  0  0  0  0
   -7.9327   23.2570  -30.3099 H   0  0  0  0  0  0  0  0  0  0  0  0
   -9.8983   19.7516  -31.8978 H   0  0  0  0  0  0  0  0  0  0  0  0
   -7.7627   19.0244  -32.9587 H   0  0  0  0  0  0  0  0  0  0  0  0
   -4.6591   18.4703  -32.0512 H   0  0  0  0  0  0  0  0  0  0  0  0
   -5.6581   18.2702  -33.4756 H   0  0  0  0  0  0  0  0  0  0  0  0
   -3.7741   18.8095  -34.9547 H   0  0  0  0  0  0  0  0  0  0  0  0
   -2.9586   17.1203  -32.9655 H   0  0  0  0  0  0  0  0  0  0  0  0
  1  2  1  0
  2  3  1  0
  3  4  2  0
  4  5  1  0
  5  6  2  0
  6  7  1  0
  7  8  2  0
  8  9  1  0
  9 10  1  0
  6 11  1  0
 11 12  2  0
 11 13  1  0
 13 14  1  0
 14 15  2  0
 15 16  1  0
 16 17  2  0
 17 18  1  0
 18 19  2  0
 19 20  1  0
 19 21  1  0
 21 22  2  0
 15 23  1  0
 23 24  1  0
 24 25  1  0
 25 26  2  0
  8  3  1  0
 24 13  1  0
 26  5  1  0
 22 16  1  0
  1 27  1  0
  1 28  1  0
  1 29  1  0
  4 30  1  0
  7 31  1  0
 10 32  1  0
 10 33  1  0
 10 34  1  0
 13 35  1  6
 14 36  1  0
 17 37  1  0
 18 38  1  0
 21 39  1  0
 22 40  1  0
 23 41  1  0
 23 42  1  0
 24 43  1  6
 25 44  1  0
M  CHG  1  13   1
M  END
>  <UniqueID>  (13) 
12

>  <SMILES>  (13) 
COc1cc2c(cc1OC)C(=O)[N@@H+]1C=C(c3ccc(F)cc3)C[C@@H]1C=N2

>  <Energy>  (13) 
83.0957621653242

>  <Genealogy>  (13) 
COc1cc2c(cc1OC)C(=O)[NH+]1C=C(c3ccc(F)cc3)CC1C=N2 (protonated)
COc1cc2c(cc1OC)C(=O)[N@@H+]1C=C(c3ccc(F)cc3)C[C@@H]1C=N2 (chirality)
COc1cc2c(cc1OC)C(=O)[N@@H+]1C=C(c3ccc(F)cc3)C[C@@H]1C=N2 (3D coordinates assigned)
COc1cc2c(cc1OC)C(=O)[N@@H+]1C=C(c3ccc(F)cc3)C[C@@H]1C=N2 (nonaromatic ring conformer: 83.0957621653242 kcal/mol)

>  <smiles>  (13) 
COc1cc2c(cc1OC)C(=O)N1C=C(c3ccc(F)cc3)CC1C=N2

>  <score_type>  (13) 
oracle

>  <origin>  (13) 
adg

>  <m_score__min__energy>  (13) 
-6.2999999999999998

>  <m_primary>  (13) 
energy

$$$$
13:0
     RDKit          3D

 45 48  0  0  0  0  0  0  0  0999 V2000
   -3.9150   24.7010  -29.4260 O   0  0  0  0  0  0  0  0  0  0  0  0
   -2.6760   24.5110  -29.3050 C   0  0  0  0  0  0  0  0  0  0  0  0
   -2.1050   23.1440  -29.5730 C   0  0  0  0  0  0  0  0  0  0  0  0
   -2.7860   22.5020  -30.6950 N   0  0  0  0  0  0  0  0  0  0  0  0
   -4.0770   22.1230  -30.7200 C   0  0  0  0  0  0  0  0  0  0  0  0
   -4.3320   21.6110  -31.9740 C   0  0  0  0  0  0  0  0  0  0  0  0
   -5.5750   21.0710  -32.4490 N   0  0  0  0  0  0  0  0  0  0  0  0
   -5.7210   19.8470  -33.1730 C   0  0  0  0  0  0  0  0  0  0  0  0
   -4.7520   19.1940  -33.6410 O   0  0  0  0  0  0  0  0  0  0  0  0
   -7.0680   19.3860  -33.2590 N   0  0  0  0  0  0  0  0  0  0  0  0
   -7.8200   20.5320  -32.7790 C   0  0  1  0  0  0  0  0  0  0  0  0
   -9.1360   20.2730  -32.0570 C   0  0  0  0  0  0  0  0  0  0  0  0
   -9.4920   21.5470  -31.2290 C   0  0  0  0  0  0  0  0  0  0  0  0
   -8.8490   22.7230  -31.7310 O   0  0  0  0  0  0  0  0  0  0  0  0
   -7.4200   22.6670  -31.6160 C   0  0  0  0  0  0  0  0  0  0  0  0
   -6.8770   21.2410  -31.8210 C   0  0  2  0  0  0  0  0  0  0  0  0
   -3.1440   21.7130  -32.6730 C   0  0  0  0  0  0  0  0  0  0  0  0
   -2.2170   22.2710  -31.8700 N   0  0  0  0  0  0  0  0  0  0  0  0
   -1.8400   25.6260  -28.9700 N   0  0  0  0  0  0  0  0  0  0  0  0
   -0.5630   25.5580  -28.2650 C   0  0  0  0  0  0  0  0  0  0  0  0
   -0.7210   25.9730  -26.8230 C   0  0  0  0  0  0  0  0  0  0  0  0
   -0.8640   27.3360  -26.5050 C   0  0  0  0  0  0  0  0  0  0  0  0
   -1.0220   27.7420  -25.1780 C   0  0  0  0  0  0  0  0  0  0  0  0
   -1.0320   26.7960  -24.1530 C   0  0  0  0  0  0  0  0  0  0  0  0
   -0.8800   25.4400  -24.4520 C   0  0  0  0  0  0  0  0  0  0  0  0
   -0.7220   25.0210  -25.7790 C   0  0  0  0  0  0  0  0  0  0  0  0
   -0.5000   23.1440  -26.1110 Br  0  0  0  0  0  0  0  0  0  0  0  0
   -1.0352   23.2413  -29.8097 H   0  0  0  0  0  0  0  0  0  0  0  0
   -2.2467   22.5234  -28.6759 H   0  0  0  0  0  0  0  0  0  0  0  0
   -4.7964   22.2065  -29.8920 H   0  0  0  0  0  0  0  0  0  0  0  0
   -8.1352   21.0979  -33.6680 H   0  0  0  0  0  0  0  0  0  0  0  0
   -9.9304   20.0707  -32.7905 H   0  0  0  0  0  0  0  0  0  0  0  0
   -9.0421   19.4006  -31.3936 H   0  0  0  0  0  0  0  0  0  0  0  0
  -10.5810   21.6979  -31.2641 H   0  0  0  0  0  0  0  0  0  0  0  0
   -9.1395   21.3864  -30.1995 H   0  0  0  0  0  0  0  0  0  0  0  0
   -6.9770   23.3277  -32.3758 H   0  0  0  0  0  0  0  0  0  0  0  0
   -7.1495   22.9892  -30.5996 H   0  0  0  0  0  0  0  0  0  0  0  0
   -6.7899   20.8612  -30.7923 H   0  0  0  0  0  0  0  0  0  0  0  0
   -2.9821   21.3919  -33.7126 H   0  0  0  0  0  0  0  0  0  0  0  0
   -0.1851   24.5257  -28.3033 H   0  0  0  0  0  0  0  0  0  0  0  0
    0.1446   26.2447  -28.7527 H   0  0  0  0  0  0  0  0  0  0  0  0
   -0.8513   28.0879  -27.3078 H   0  0  0  0  0  0  0  0  0  0  0  0
   -1.1388   28.8097  -24.9408 H   0  0  0  0  0  0  0  0  0  0  0  0
   -1.1596   27.1179  -23.1089 H   0  0  0  0  0  0  0  0  0  0  0  0
   -0.8844   24.6972  -23.6407 H   0  0  0  0  0  0  0  0  0  0  0  0
  1  2  2  0
  2  3  1  0
  3  4  1  0
  4  5  1  0
  5  6  2  0
  6  7  1  0
  7  8  1  0
  8  9  2  0
  8 10  1  0
 10 11  1  0
 11 12  1  0
 12 13  1  0
 13 14  1  0
 14 15  1  0
 15 16  1  0
  6 17  1  0
 17 18  2  0
  2 19  1  0
 19 20  1  0
 20 21  1  0
 21 22  2  0
 22 23  1  0
 23 24  2  0
 24 25  1  0
 25 26  2  0
 26 27  1  0
 18  4  1  0
 26 21  1  0
 16  7  1  0
 16 11  1  0
  3 28  1  0
  3 29  1  0
  5 30  1  0
 11 31  1  6
 12 32  1  0
 12 33  1  0
 13 34  1  0
 13 35  1  0
 15 36  1  0
 15 37  1  0
 16 38  1  1
 17 39  1  0
 20 40  1  0
 20 41  1  0
 22 42  1  0
 23 43  1  0
 24 44  1  0
 25 45  1  0
M  CHG  2  10  -1  19  -1
M  END
>  <UniqueID>  (14) 
13

>  <SMILES>  (14) 
O=C(Cn1cc(N2C(=O)[N-][C@H]3CCOC[C@@H]32)cn1)[N-]Cc1ccccc1Br

>  <Energy>  (14) 
117.45127749449486

>  <Genealogy>  (14) 
O=C(Cn1cc(N2C(=O)[N-]C3CCOCC32)cn1)[N-]Cc1ccccc1Br (protonated)
O=C(Cn1cc(N2C(=O)[N-][C@H]3CCOC[C@@H]32)cn1)[N-]Cc1ccccc1Br (chirality)
O=C(Cn1cc(N2C(=O)[N-][C@H]3CCOC[C@@H]32)cn1)[N-]Cc1ccccc1Br (3D coordinates assigned)
O=C(Cn1cc(N2C(=O)[N-][C@H]3CCOC[C@@H]32)cn1)[N-]Cc1ccccc1Br (nonaromatic ring conformer: 117.45127749449486 kcal/mol)

>  <smiles>  (14) 
O=C(Cn1cc(N2C(=O)NC3CCOCC32)cn1)NCc1ccccc1Br

>  <score_type>  (14) 
oracle

>  <origin>  (14) 
adg

>  <m_score__min__energy>  (14) 
-10.75

>  <m_primary>  (14) 
energy

$$$$
14:0
     RDKit          3D

 54 57  0  0  0  0  0  0  0  0999 V2000
   -1.9746   23.3568  -30.8105 H   0  0  0  0  0  0  0  0  0  0  0  0
   -2.7110   23.6800  -30.0600 C   0  0  0  0  0  0  0  0  0  0  0  0
   -2.2830   24.0470  -28.7830 C   0  0  0  0  0  0  0  0  0  0  0  0
   -1.2125   24.0102  -28.5326 H   0  0  0  0  0  0  0  0  0  0  0  0
   -3.2110   24.4620  -27.8190 C   0  0  0  0  0  0  0  0  0  0  0  0
   -2.7370   24.8680  -26.4550 C   0  0  0  0  0  0  0  0  0  0  0  0
   -3.3374   24.3538  -25.6901 H   0  0  0  0  0  0  0  0  0  0  0  0
   -1.6787   24.5919  -26.3373 H   0  0  0  0  0  0  0  0  0  0  0  0
   -2.8473   25.9561  -26.3373 H   0  0  0  0  0  0  0  0  0  0  0  0
   -4.5680   24.5520  -28.1630 C   0  0  0  0  0  0  0  0  0  0  0  0
   -5.2968   24.8974  -27.4149 H   0  0  0  0  0  0  0  0  0  0  0  0
   -5.0070   24.2060  -29.4520 C   0  0  0  0  0  0  0  0  0  0  0  0
   -6.4670   24.3550  -29.7880 C   0  0  0  0  0  0  0  0  0  0  0  0
   -7.0528   24.4148  -28.8589 H   0  0  0  0  0  0  0  0  0  0  0  0
   -6.6163   25.2730  -30.3753 H   0  0  0  0  0  0  0  0  0  0  0  0
   -6.7986   23.4860  -30.3753 H   0  0  0  0  0  0  0  0  0  0  0  0
   -4.0700   23.7200  -30.3930 C   0  0  0  0  0  0  0  0  0  0  0  0
   -4.4600   23.3110  -31.7110 N   0  0  0  0  0  0  0  0  0  0  0  0
   -5.1670   22.2520  -31.9720 C   0  0  0  0  0  0  0  0  0  0  0  0
   -6.4930   22.2960  -31.8380 O   0  0  0  0  0  0  0  0  0  0  0  0
   -7.2860   21.2690  -32.1200 C   0  0  0  0  0  0  0  0  0  0  0  0
   -8.6710   21.3920  -31.9610 C   0  0  0  0  0  0  0  0  0  0  0  0
   -9.1008   22.3368  -31.5968 H   0  0  0  0  0  0  0  0  0  0  0  0
   -9.5090   20.3140  -32.2650 C   0  0  0  0  0  0  0  0  0  0  0  0
  -10.5973   20.4124  -32.1390 H   0  0  0  0  0  0  0  0  0  0  0  0
   -8.9660   19.1110  -32.7290 C   0  0  0  0  0  0  0  0  0  0  0  0
   -9.6287   18.2657  -32.9663 H   0  0  0  0  0  0  0  0  0  0  0  0
   -7.5830   18.9800  -32.8920 C   0  0  0  0  0  0  0  0  0  0  0  0
   -7.1584   18.0334  -33.2576 H   0  0  0  0  0  0  0  0  0  0  0  0
   -6.7380   20.0590  -32.5880 C   0  0  0  0  0  0  0  0  0  0  0  0
   -5.3530   19.9670  -32.7310 C   0  0  0  0  0  0  0  0  0  0  0  0
   -4.8995   19.0347  -33.0985 H   0  0  0  0  0  0  0  0  0  0  0  0
   -4.5390   21.0610  -32.4070 C   0  0  0  0  0  0  0  0  0  0  0  0
   -3.0660   20.9300  -32.5600 C   0  0  0  0  0  0  0  0  0  0  0  0
   -2.3380   21.1410  -31.5500 O   0  0  0  0  0  0  0  0  0  0  0  0
   -2.4550   20.6560  -33.8500 N   0  0  0  0  0  0  0  0  0  0  0  0
   -2.9840   21.1930  -34.5780 H   0  0  0  0  0  0  0  0  0  0  0  0
   -1.0550   21.1600  -33.9140 C   0  0  0  0  0  0  0  0  0  0  0  0
   -0.8972   21.6237  -34.8989 H   0  0  0  0  0  0  0  0  0  0  0  0
   -0.9328   21.8771  -33.0889 H   0  0  0  0  0  0  0  0  0  0  0  0
    0.0050   20.0630  -33.7180 C   0  0  0  0  0  0  0  0  0  0  0  0
    0.2302   19.5961  -34.6882 H   0  0  0  0  0  0  0  0  0  0  0  0
    0.9180   20.5125  -33.3004 H   0  0  0  0  0  0  0  0  0  0  0  0
   -0.4980   19.0410  -32.7910 N   0  0  0  0  0  0  0  0  0  0  0  0
    0.5750   18.1090  -32.4170 C   0  0  0  0  0  0  0  0  0  0  0  0
    0.6435   18.0495  -31.3207 H   0  0  0  0  0  0  0  0  0  0  0  0
    0.3534   17.1119  -32.8252 H   0  0  0  0  0  0  0  0  0  0  0  0
    1.5313   18.4680  -32.8252 H   0  0  0  0  0  0  0  0  0  0  0  0
   -1.6360   18.3090  -33.3840 C   0  0  0  0  0  0  0  0  0  0  0  0
   -1.2425   17.5209  -34.0428 H   0  0  0  0  0  0  0  0  0  0  0  0
   -2.2285   17.8901  -32.5573 H   0  0  0  0  0  0  0  0  0  0  0  0
   -2.5700   19.2250  -34.2110 C   0  0  0  0  0  0  0  0  0  0  0  0
   -2.3172   19.1119  -35.2756 H   0  0  0  0  0  0  0  0  0  0  0  0
   -3.6037   18.9164  -33.9959 H   0  0  0  0  0  0  0  0  0  0  0  0
  1  2  1  0
  2  3  2  0
  3  4  1  0
  3  5  1  0
  5  6  1  0
  6  7  1  0
  6  8  1  0
  6  9  1  0
  5 10  2  0
 10 11  1  0
 10 12  1  0
 12 13  1  0
 13 14  1  0
 13 15  1  0
 13 16  1  0
 12 17  2  0
 17 18  1  0
 18 19  2  0
 19 20  1  0
 20 21  1  0
 21 22  2  0
 22 23  1  0
 22 24  1  0
 24 25  1  0
 24 26  2  0
 26 27  1  0
 26 28  1  0
 28 29  1  0
 28 30  2  0
 30 31  1  0
 31 32  1  0
 31 33  2  0
 33 34  1  0
 34 35  2  0
 34 36  1  0
 36 37  1  0
 36 38  1  0
 38 39  1  0
 38 40  1  0
 38 41  1  0
 41 42  1  0
 41 43  1  0
 41 44  1  0
 44 45  1  0
 45 46  1  0
 45 47  1  0
 45 48  1  0
 44 49  1  0
 49 50  1  0
 49 51  1  0
 49 52  1  0
 52 53  1  0
 52 54  1  0
 17  2  1  0
 33 19  1  0
 52 36  1  0
 30 21  1  0
M  CHG  1  36   1
M  END
>  <UniqueID>  (15) 
14

>  <SMILES>  (15) 
Cc1ccc(/N=c2\oc3ccccc3cc2C(=O)[NH+]2CCN(C)CC2)c(C)c1

>  <Energy>  (15) 
85.4913255198456

>  <Genealogy>  (15) 
Cc1ccc(N=c2oc3ccccc3cc2C(=O)[NH+]2CCN(C)CC2)c(C)c1 (protonated)
Cc1ccc(/N=c2\oc3ccccc3cc2C(=O)[NH+]2CCN(C)CC2)c(C)c1 (cis-trans isomerization)
Cc1ccc(/N=c2\oc3ccccc3cc2C(=O)[NH+]2CCN(C)CC2)c(C)c1 (3D coordinates assigned)
Cc1ccc(/N=c2\oc3ccccc3cc2C(=O)[NH+]2CCN(C)CC2)c(C)c1 (nonaromatic ring conformer: 85.4913255198456 kcal/mol)

>  <smiles>  (15) 
Cc1ccc(N=c2oc3ccccc3cc2C(=O)N2CCN(C)CC2)c(C)c1

>  <score_type>  (15) 
oracle

>  <origin>  (15) 
adg

>  <m_score__min__energy>  (15) 
-8.3800000000000008

>  <m_primary>  (15) 
energy

$$$$
15:0
     RDKit          3D

 63 63  0  0  0  0  0  0  0  0999 V2000
   -6.8880   17.5060  -32.9400 C   0  0  0  0  0  0  0  0  0  0  0  0
   -7.5180   18.1430  -31.7010 C   0  0  0  0  0  0  0  0  0  0  0  0
   -8.9610   18.6120  -31.9340 C   0  0  0  0  0  0  0  0  0  0  0  0
   -9.0800   20.1350  -32.0280 C   0  0  0  0  0  0  0  0  0  0  0  0
   -7.8490   20.7150  -32.5540 N   0  0  0  0  0  0  0  0  0  0  0  0
   -6.9160   21.4780  -31.7720 C   0  0  0  0  0  0  0  0  0  0  0  0
   -5.8720   20.9180  -31.3260 O   0  0  0  0  0  0  0  0  0  0  0  0
   -7.1200   22.9760  -31.5750 C   0  0  1  0  0  0  0  0  0  0  0  0
   -8.4330   23.4110  -32.2740 C   0  0  0  0  0  0  0  0  0  0  0  0
   -7.2450   23.2900  -30.0460 C   0  0  0  0  0  0  0  0  0  0  0  0
   -7.1860   24.7990  -29.7290 C   0  0  0  0  0  0  0  0  0  0  0  0
   -6.0860   25.5320  -30.5230 C   0  0  0  0  0  0  0  0  0  0  0  0
   -5.2210   24.5600  -31.2030 N   0  0  0  0  0  0  0  0  0  0  0  0
   -3.9810   24.0980  -30.6180 C   0  0  0  0  0  0  0  0  0  0  0  0
   -3.2570   23.2850  -31.2580 O   0  0  0  0  0  0  0  0  0  0  0  0
   -3.4910   24.5670  -29.2650 C   0  0  2  0  0  0  0  0  0  0  0  0
   -2.0350   24.6780  -29.2850 N   0  0  0  0  0  0  0  0  0  0  0  0
   -1.2900   25.6050  -28.4880 C   0  0  0  0  0  0  0  0  0  0  0  0
   -1.1440   26.7980  -28.8700 O   0  0  0  0  0  0  0  0  0  0  0  0
   -0.6270   25.1470  -27.2150 C   0  0  1  0  0  0  0  0  0  0  0  0
    0.7430   24.5200  -27.5190 C   0  0  0  0  0  0  0  0  0  0  0  0
   -0.5020   26.2990  -26.3000 N   0  0  0  0  0  0  0  0  0  0  0  0
   -1.6230   26.3860  -25.3560 C   0  0  0  0  0  0  0  0  0  0  0  0
   -3.9560   23.6320  -28.1150 C   0  0  0  0  0  0  0  0  0  0  0  0
   -2.9220   22.5210  -27.8530 C   0  0  0  0  0  0  0  0  0  0  0  0
   -4.1920   24.4200  -26.8160 C   0  0  0  0  0  0  0  0  0  0  0  0
   -5.9040   23.7340  -32.2080 C   0  0  0  0  0  0  0  0  0  0  0  0
   -6.1460   16.7557  -32.6294 H   0  0  0  0  0  0  0  0  0  0  0  0
   -7.6710   17.0204  -33.5410 H   0  0  0  0  0  0  0  0  0  0  0  0
   -6.3938   18.2836  -33.5410 H   0  0  0  0  0  0  0  0  0  0  0  0
   -7.5174   17.4024  -30.8877 H   0  0  0  0  0  0  0  0  0  0  0  0
   -6.9206   19.0315  -31.4487 H   0  0  0  0  0  0  0  0  0  0  0  0
   -9.3265   18.1719  -32.8735 H   0  0  0  0  0  0  0  0  0  0  0  0
   -9.5597   18.2849  -31.0711 H   0  0  0  0  0  0  0  0  0  0  0  0
   -9.9150   20.3917  -32.6965 H   0  0  0  0  0  0  0  0  0  0  0  0
   -9.2604   20.5393  -31.0210 H   0  0  0  0  0  0  0  0  0  0  0  0
   -9.1877   23.6610  -31.5138 H   0  0  0  0  0  0  0  0  0  0  0  0
   -8.2392   24.2929  -32.9022 H   0  0  0  0  0  0  0  0  0  0  0  0
   -8.8041   22.5878  -32.9022 H   0  0  0  0  0  0  0  0  0  0  0  0
   -8.2058   22.8942  -29.6851 H   0  0  0  0  0  0  0  0  0  0  0  0
   -6.3885   22.8165  -29.5438 H   0  0  0  0  0  0  0  0  0  0  0  0
   -8.1585   25.2490  -29.9777 H   0  0  0  0  0  0  0  0  0  0  0  0
   -6.9500   24.9046  -28.6598 H   0  0  0  0  0  0  0  0  0  0  0  0
   -6.5539   26.1885  -31.2714 H   0  0  0  0  0  0  0  0  0  0  0  0
   -5.4783   26.1298  -29.8278 H   0  0  0  0  0  0  0  0  0  0  0  0
   -3.9329   25.5547  -29.0673 H   0  0  0  0  0  0  0  0  0  0  0  0
   -1.2404   24.3729  -26.7308 H   0  0  0  0  0  0  0  0  0  0  0  0
    1.2563   24.2851  -26.5749 H   0  0  0  0  0  0  0  0  0  0  0  0
    0.6028   23.5964  -28.0998 H   0  0  0  0  0  0  0  0  0  0  0  0
    1.3503   25.2298  -28.0998 H   0  0  0  0  0  0  0  0  0  0  0  0
   -0.5260   27.1750  -26.8750 H   0  0  0  0  0  0  0  0  0  0  0  0
   -1.2381   26.3561  -24.3260 H   0  0  0  0  0  0  0  0  0  0  0  0
   -2.1659   27.3290  -25.5174 H   0  0  0  0  0  0  0  0  0  0  0  0
   -2.3049   25.5381  -25.5174 H   0  0  0  0  0  0  0  0  0  0  0  0
   -4.9047   23.1757  -28.4338 H   0  0  0  0  0  0  0  0  0  0  0  0
   -2.7960   22.3857  -26.7687 H   0  0  0  0  0  0  0  0  0  0  0  0
   -3.2732   21.5800  -28.3016 H   0  0  0  0  0  0  0  0  0  0  0  0
   -1.9583   22.8038  -28.3016 H   0  0  0  0  0  0  0  0  0  0  0  0
   -3.9969   23.7686  -25.9514 H   0  0  0  0  0  0  0  0  0  0  0  0
   -3.5136   25.2853  -26.7836 H   0  0  0  0  0  0  0  0  0  0  0  0
   -5.2344   24.7699  -26.7836 H   0  0  0  0  0  0  0  0  0  0  0  0
   -6.2662   24.3812  -33.0204 H   0  0  0  0  0  0  0  0  0  0  0  0
   -5.1910   22.9922  -32.5970 H   0  0  0  0  0  0  0  0  0  0  0  0
  1  2  1  0
  2  3  1  0
  3  4  1  0
  4  5  1  0
  5  6  1  0
  6  7  2  0
  6  8  1  0
  8  9  1  6
  8 10  1  0
 10 11  1  0
 11 12  1  0
 12 13  1  0
 13 14  1  0
 14 15  2  0
 14 16  1  0
 16 17  1  0
 17 18  1  0
 18 19  2  0
 18 20  1  0
 20 21  1  0
 20 22  1  0
 22 23  1  0
 16 24  1  0
 24 25  1  0
 24 26  1  0
 13 27  1  0
 27  8  1  0
  1 28  1  0
  1 29  1  0
  1 30  1  0
  2 31  1  0
  2 32  1  0
  3 33  1  0
  3 34  1  0
  4 35  1  0
  4 36  1  0
  9 37  1  0
  9 38  1  0
  9 39  1  0
 10 40  1  0
 10 41  1  0
 11 42  1  0
 11 43  1  0
 12 44  1  0
 12 45  1  0
 16 46  1  1
 20 47  1  1
 21 48  1  0
 21 49  1  0
 21 50  1  0
 22 51  1  0
 23 52  1  0
 23 53  1  0
 23 54  1  0
 24 55  1  0
 25 56  1  0
 25 57  1  0
 25 58  1  0
 26 59  1  0
 26 60  1  0
 26 61  1  0
 27 62  1  0
 27 63  1  0
M  CHG  2   5  -1  17  -1
M  END
>  <UniqueID>  (16) 
15

>  <SMILES>  (16) 
CCCC[N-]C(=O)[C@@]1(C)CCCN(C(=O)[C@H]([N-]C(=O)C(C)NC)C(C)C)C1

>  <Energy>  (16) 
53.62635648649919

>  <Genealogy>  (16) 
CCCC[N-]C(=O)C1(C)CCCN(C(=O)C([N-]C(=O)C(C)NC)C(C)C)C1 (protonated)
CCCC[N-]C(=O)[C@@]1(C)CCCN(C(=O)[C@H]([N-]C(=O)C(C)NC)C(C)C)C1 (chirality)
CCCC[N-]C(=O)[C@@]1(C)CCCN(C(=O)[C@H]([N-]C(=O)C(C)NC)C(C)C)C1 (3D coordinates assigned)
CCCC[N-]C(=O)[C@@]1(C)CCCN(C(=O)[C@H]([N-]C(=O)C(C)NC)C(C)C)C1 (nonaromatic ring conformer: 53.62635648649919 kcal/mol)

>  <smiles>  (16) 
CCCCNC(=O)C1(C)CCCN(C(=O)C(NC(=O)C(C)NC)C(C)C)C1

>  <score_type>  (16) 
oracle

>  <origin>  (16) 
adg

>  <m_score__min__energy>  (16) 
-9.0500000000000007

>  <m_primary>  (16) 
energy

$$$$
16:0
     RDKit          3D

 53 57  0  0  0  0  0  0  0  0999 V2000
    4.1990   22.0340  -36.5350 C   0  0  0  0  0  0  0  0  0  0  0  0
    3.5250   22.5880  -35.2860 C   0  0  0  0  0  0  0  0  0  0  0  0
    2.1350   22.1360  -35.2140 N   0  0  0  0  0  0  0  0  0  0  0  0
    1.1120   22.9200  -35.5150 N   0  0  0  0  0  0  0  0  0  0  0  0
   -0.0210   22.2220  -35.3150 C   0  0  0  0  0  0  0  0  0  0  0  0
    0.2910   20.9500  -34.8710 C   0  0  0  0  0  0  0  0  0  0  0  0
   -0.6800   19.8790  -34.5640 C   0  0  0  0  0  0  0  0  0  0  0  0
   -0.4280   18.5280  -34.4530 C   0  0  0  0  0  0  0  0  0  0  0  0
   -1.5980   17.9020  -34.2230 N   0  0  0  0  0  0  0  0  0  0  0  0
   -2.5480   18.8630  -34.2050 C   0  0  0  0  0  0  0  0  0  0  0  0
   -2.0040   20.0840  -34.4180 N   0  0  0  0  0  0  0  0  0  0  0  0
   -4.0030   18.6440  -33.9530 C   0  0  0  0  0  0  0  0  0  0  0  0
   -4.7290   19.7130  -33.3840 C   0  0  0  0  0  0  0  0  0  0  0  0
   -6.1000   19.6100  -33.1190 C   0  0  0  0  0  0  0  0  0  0  0  0
   -6.8290   20.7480  -32.5120 C   0  0  0  0  0  0  0  0  0  0  0  0
   -6.3060   22.0420  -32.6600 C   0  0  0  0  0  0  0  0  0  0  0  0
   -6.9270   23.1050  -32.0880 N   0  0  0  0  0  0  0  0  0  0  0  0
   -8.0640   22.9620  -31.3610 C   0  0  0  0  0  0  0  0  0  0  0  0
   -8.6340   21.7000  -31.1910 C   0  0  0  0  0  0  0  0  0  0  0  0
   -9.7700   21.5790  -30.4570 F   0  0  0  0  0  0  0  0  0  0  0  0
   -8.0330   20.5760  -31.7850 C   0  0  0  0  0  0  0  0  0  0  0  0
   -8.6700   19.2210  -31.6160 C   0  0  0  0  0  0  0  0  0  0  0  0
   -6.7640   18.4130  -33.3960 C   0  0  0  0  0  0  0  0  0  0  0  0
   -6.0680   17.3390  -33.9400 C   0  0  0  0  0  0  0  0  0  0  0  0
   -4.6990   17.4240  -34.2270 C   0  0  0  0  0  0  0  0  0  0  0  0
   -4.1280   16.2570  -34.7640 O   0  0  0  0  0  0  0  0  0  0  0  0
   -2.8020   16.0760  -35.2390 C   0  0  0  0  0  0  0  0  0  0  0  0
   -1.7950   16.4640  -34.1710 C   0  0  0  0  0  0  0  0  0  0  0  0
    1.6780   20.9330  -34.7940 C   0  0  0  0  0  0  0  0  0  0  0  0
    2.5400   19.7920  -34.3340 C   0  0  0  0  0  0  0  0  0  0  0  0
    5.0180   21.3608  -36.2417 H   0  0  0  0  0  0  0  0  0  0  0  0
    3.4625   21.4768  -37.1325 H   0  0  0  0  0  0  0  0  0  0  0  0
    4.6031   22.8644  -37.1325 H   0  0  0  0  0  0  0  0  0  0  0  0
    4.0670   22.2369  -34.3955 H   0  0  0  0  0  0  0  0  0  0  0  0
    3.5413   23.6870  -35.3291 H   0  0  0  0  0  0  0  0  0  0  0  0
   -1.0391   22.6045  -35.4795 H   0  0  0  0  0  0  0  0  0  0  0  0
    0.5570   18.0456  -34.5376 H   0  0  0  0  0  0  0  0  0  0  0  0
   -2.4990   21.0000  -34.4910 H   0  0  0  0  0  0  0  0  0  0  0  0
   -4.2048   20.6495  -33.1430 H   0  0  0  0  0  0  0  0  0  0  0  0
   -5.3864   22.1959  -33.2436 H   0  0  0  0  0  0  0  0  0  0  0  0
   -8.5375   23.8437  -30.9044 H   0  0  0  0  0  0  0  0  0  0  0  0
   -8.7755   18.9965  -30.5443 H   0  0  0  0  0  0  0  0  0  0  0  0
   -9.6626   19.2207  -32.0901 H   0  0  0  0  0  0  0  0  0  0  0  0
   -8.0369   18.4565  -32.0901 H   0  0  0  0  0  0  0  0  0  0  0  0
   -7.8392   18.3196  -33.1835 H   0  0  0  0  0  0  0  0  0  0  0  0
   -6.6041   16.4017  -34.1497 H   0  0  0  0  0  0  0  0  0  0  0  0
   -2.6552   15.0195  -35.5077 H   0  0  0  0  0  0  0  0  0  0  0  0
   -2.6499   16.7170  -36.1199 H   0  0  0  0  0  0  0  0  0  0  0  0
   -2.1765   16.1775  -33.1799 H   0  0  0  0  0  0  0  0  0  0  0  0
   -0.8405   15.9465  -34.3476 H   0  0  0  0  0  0  0  0  0  0  0  0
    2.5590   19.7669  -33.2344 H   0  0  0  0  0  0  0  0  0  0  0  0
    2.1295   18.8454  -34.7154 H   0  0  0  0  0  0  0  0  0  0  0  0
    3.5628   19.9282  -34.7154 H   0  0  0  0  0  0  0  0  0  0  0  0
  1  2  1  0
  2  3  1  0
  3  4  1  0
  4  5  2  0
  5  6  1  0
  6  7  1  0
  7  8  2  0
  8  9  1  0
  9 10  1  0
 10 11  2  0
 10 12  1  0
 12 13  2  0
 13 14  1  0
 14 15  1  0
 15 16  2  0
 16 17  1  0
 17 18  2  0
 18 19  1  0
 19 20  1  0
 19 21  2  0
 21 22  1  0
 14 23  2  0
 23 24  1  0
 24 25  2  0
 25 26  1  0
 26 27  1  0
 27 28  1  0
  6 29  2  0
 29 30  1  0
 29  3  1  0
 11  7  1  0
 25 12  1  0
 28  9  1  0
 21 15  1  0
  1 31  1  0
  1 32  1  0
  1 33  1  0
  2 34  1  0
  2 35  1  0
  5 36  1  0
  8 37  1  0
 11 38  1  0
 13 39  1  0
 16 40  1  0
 18 41  1  0
 22 42  1  0
 22 43  1  0
 22 44  1  0
 23 45  1  0
 24 46  1  0
 27 47  1  0
 27 48  1  0
 28 49  1  0
 28 50  1  0
 30 51  1  0
 30 52  1  0
 30 53  1  0
M  CHG  1  11   1
M  END
>  <UniqueID>  (17) 
16

>  <SMILES>  (17) 
CCn1ncc(-c2cn3c([nH+]2)-c2cc(-c4cncc(F)c4C)ccc2OCC3)c1C

>  <Energy>  (17) 
135.7931434334188

>  <Genealogy>  (17) 
CCn1ncc(-c2cn3c([nH+]2)-c2cc(-c4cncc(F)c4C)ccc2OCC3)c1C (protonated)
CCn1ncc(-c2cn3c([nH+]2)-c2cc(-c4cncc(F)c4C)ccc2OCC3)c1C (3D coordinates assigned)
CCn1ncc(-c2cn3c([nH+]2)-c2cc(-c4cncc(F)c4C)ccc2OCC3)c1C (nonaromatic ring conformer: 135.7931434334188 kcal/mol)

>  <smiles>  (17) 
CCn1ncc(-c2cn3c(n2)-c2cc(-c4cncc(F)c4C)ccc2OCC3)c1C

>  <score_type>  (17) 
oracle

>  <origin>  (17) 
adg

>  <m_score__min__energy>  (17) 
-6.9100000000000001

>  <m_primary>  (17) 
energy

$$$$
17:0
     RDKit          3D

 38 40  0  0  0  0  0  0  0  0999 V2000
   -9.5673   18.7746  -33.1424 H   0  0  0  0  0  0  0  0  0  0  0  0
   -9.1460   19.6960  -32.7140 C   0  0  0  0  0  0  0  0  0  0  0  0
   -7.8680   19.9140  -32.4940 O   0  0  0  0  0  0  0  0  0  0  0  0
   -7.7240   21.1130  -31.9770 C   0  0  0  0  0  0  0  0  0  0  0  0
   -6.4120   21.6770  -31.6080 C   0  0  0  0  0  0  0  0  0  0  0  0
   -6.3660   22.9500  -31.1260 N   0  0  0  0  0  0  0  0  0  0  0  0
   -5.1770   23.4930  -30.7790 C   0  0  0  0  0  0  0  0  0  0  0  0
   -4.8880   25.0100  -30.1780 S   0  0  0  0  0  0  0  0  0  0  0  0
   -3.2340   24.9010  -30.0220 N   0  0  0  0  0  0  0  0  0  0  0  0
   -2.8900   23.6500  -30.4490 C   0  0  0  0  0  0  0  0  0  0  0  0
   -1.6530   23.2470  -30.4540 N   0  0  0  0  0  0  0  0  0  0  0  0
   -0.9500   22.6510  -29.3180 C   0  0  0  0  0  0  0  0  0  0  0  0
   -0.0420   22.1479  -29.6818 H   0  0  0  0  0  0  0  0  0  0  0  0
   -1.6234   21.9307  -28.8304 H   0  0  0  0  0  0  0  0  0  0  0  0
   -0.5520   23.7210  -28.2870 C   0  0  0  0  0  0  0  0  0  0  0  0
    0.4676   23.5028  -27.9366 H   0  0  0  0  0  0  0  0  0  0  0  0
   -1.2941   23.6766  -27.4762 H   0  0  0  0  0  0  0  0  0  0  0  0
   -0.5770   25.0950  -28.8170 N   0  0  0  0  0  0  0  0  0  0  0  0
   -1.0930   25.1200  -29.7270 H   0  0  0  0  0  0  0  0  0  0  0  0
   -1.1850   26.0450  -27.8770 C   0  0  0  0  0  0  0  0  0  0  0  0
   -1.8201   26.7512  -28.4320 H   0  0  0  0  0  0  0  0  0  0  0  0
   -0.3893   26.5935  -27.3516 H   0  0  0  0  0  0  0  0  0  0  0  0
   -2.0340   25.2960  -26.8580 C   0  0  0  0  0  0  0  0  0  0  0  0
   -1.7181   25.5747  -25.8419 H   0  0  0  0  0  0  0  0  0  0  0  0
   -3.0927   25.5597  -26.9981 H   0  0  0  0  0  0  0  0  0  0  0  0
   -1.9043   24.2127  -26.9981 H   0  0  0  0  0  0  0  0  0  0  0  0
   -3.9700   22.8280  -30.8840 C   0  0  0  0  0  0  0  0  0  0  0  0
   -3.9650   21.5020  -31.3840 C   0  0  0  0  0  0  0  0  0  0  0  0
   -2.6900   20.6970  -31.5410 C   0  0  0  0  0  0  0  0  0  0  0  0
   -2.9570   19.5300  -32.2320 F   0  0  0  0  0  0  0  0  0  0  0  0
   -2.1740   20.3930  -30.2950 F   0  0  0  0  0  0  0  0  0  0  0  0
   -1.7240   21.3980  -32.2420 F   0  0  0  0  0  0  0  0  0  0  0  0
   -5.2130   20.9360  -31.7450 C   0  0  0  0  0  0  0  0  0  0  0  0
   -5.2509   19.9087  -32.1364 H   0  0  0  0  0  0  0  0  0  0  0  0
   -8.9660   21.7160  -31.8490 C   0  0  0  0  0  0  0  0  0  0  0  0
   -9.1799   22.7185  -31.4498 H   0  0  0  0  0  0  0  0  0  0  0  0
   -9.8770   20.7980  -32.3260 C   0  0  0  0  0  0  0  0  0  0  0  0
  -10.9686   20.9205  -32.3851 H   0  0  0  0  0  0  0  0  0  0  0  0
  1  2  1  0
  2  3  1  0
  3  4  1  0
  4  5  1  0
  5  6  2  0
  6  7  1  0
  7  8  1  0
  8  9  1  0
  9 10  1  0
 10 11  2  0
 11 12  1  0
 12 13  1  0
 12 14  1  0
 12 15  1  0
 15 16  1  0
 15 17  1  0
 15 18  1  0
 18 19  1  0
 18 20  1  0
 20 21  1  0
 20 22  1  0
 20 23  1  0
 23 24  1  0
 23 25  1  0
 23 26  1  0
 10 27  1  0
 27 28  1  0
 28 29  1  0
 29 30  1  0
 29 31  1  0
 29 32  1  0
 28 33  2  0
 33 34  1  0
  4 35  2  0
 35 36  1  0
 35 37  1  0
 37 38  1  0
 37  2  2  0
 33  5  1  0
 27  7  2  0
M  CHG  1   9  -1
M  END
>  <UniqueID>  (18) 
17

>  <SMILES>  (18) 
CCNCC/N=c1/[n-]sc2nc(-c3ccco3)cc(C(F)(F)F)c12

>  <Energy>  (18) 
107.0226345320284

>  <Genealogy>  (18) 
CCNCCN=c1[n-]sc2nc(-c3ccco3)cc(C(F)(F)F)c12 (protonated)
CCNCC/N=c1/[n-]sc2nc(-c3ccco3)cc(C(F)(F)F)c12 (cis-trans isomerization)
CCNCC/N=c1/[n-]sc2nc(-c3ccco3)cc(C(F)(F)F)c12 (3D coordinates assigned)
CCNCC/N=c1/[n-]sc2nc(-c3ccco3)cc(C(F)(F)F)c12 (optimized conformer: 107.0226345320284 kcal/mol)

>  <smiles>  (18) 
CCNCCN=c1[nH]sc2nc(-c3ccco3)cc(C(F)(F)F)c12

>  <score_type>  (18) 
oracle

>  <origin>  (18) 
adg

>  <m_score__min__energy>  (18) 
-7.2300000000000004

>  <m_primary>  (18) 
energy

$$$$
18:0
     RDKit          3D

 35 37  0  0  0  0  0  0  0  0999 V2000
   -5.3139   26.5913  -31.0635 H   0  0  0  0  0  0  0  0  0  0  0  0
   -5.0220   25.5640  -30.8000 C   0  0  0  0  0  0  0  0  0  0  0  0
   -3.7410   25.2930  -30.4560 N   0  0  0  0  0  0  0  0  0  0  0  0
   -3.3460   24.0510  -30.0750 C   0  0  0  0  0  0  0  0  0  0  0  0
   -2.0210   23.8530  -29.6760 C   0  0  0  0  0  0  0  0  0  0  0  0
   -1.2971   24.6773  -29.7560 H   0  0  0  0  0  0  0  0  0  0  0  0
   -1.6120   22.6190  -29.1780 C   0  0  0  0  0  0  0  0  0  0  0  0
   -0.5597   22.4622  -28.8987 H   0  0  0  0  0  0  0  0  0  0  0  0
   -2.5380   21.5740  -29.0310 C   0  0  0  0  0  0  0  0  0  0  0  0
   -2.1880   20.3340  -28.4750 O   0  0  0  0  0  0  0  0  0  0  0  0
   -2.6450   19.8600  -27.2130 C   0  0  0  0  0  0  0  0  0  0  0  0
   -2.1245   20.3998  -26.4082 H   0  0  0  0  0  0  0  0  0  0  0  0
   -3.7284   20.0303  -27.1278 H   0  0  0  0  0  0  0  0  0  0  0  0
   -2.4352   18.7836  -27.1278 H   0  0  0  0  0  0  0  0  0  0  0  0
   -3.8640   21.7670  -29.4400 C   0  0  0  0  0  0  0  0  0  0  0  0
   -4.5968   20.9602  -29.2917 H   0  0  0  0  0  0  0  0  0  0  0  0
   -4.2790   22.9790  -30.0400 C   0  0  0  0  0  0  0  0  0  0  0  0
   -5.6060   23.2270  -30.5210 C   0  0  0  0  0  0  0  0  0  0  0  0
   -6.5110   22.3100  -30.7530 N   0  0  0  0  0  0  0  0  0  0  0  0
   -6.5200   21.2400  -31.7070 C   0  0  0  0  0  0  0  0  0  0  0  0
   -5.3130   20.8340  -32.2910 C   0  0  0  0  0  0  0  0  0  0  0  0
   -4.3787   21.3536  -32.0319 H   0  0  0  0  0  0  0  0  0  0  0  0
   -5.2880   19.7680  -33.2050 C   0  0  0  0  0  0  0  0  0  0  0  0
   -3.9910   19.3340  -33.8260 C   0  0  0  0  0  0  0  0  0  0  0  0
   -3.2678   19.0920  -33.0333 H   0  0  0  0  0  0  0  0  0  0  0  0
   -4.1627   18.4444  -34.4497 H   0  0  0  0  0  0  0  0  0  0  0  0
   -3.5927   20.1478  -34.4497 H   0  0  0  0  0  0  0  0  0  0  0  0
   -6.4760   19.0750  -33.4920 C   0  0  0  0  0  0  0  0  0  0  0  0
   -6.4730   18.0260  -34.3520 F   0  0  0  0  0  0  0  0  0  0  0  0
   -7.6750   19.4550  -32.8800 C   0  0  0  0  0  0  0  0  0  0  0  0
   -8.6027   18.9092  -33.1067 H   0  0  0  0  0  0  0  0  0  0  0  0
   -7.6990   20.5250  -31.9820 C   0  0  0  0  0  0  0  0  0  0  0  0
   -8.8640   20.8540  -31.3690 F   0  0  0  0  0  0  0  0  0  0  0  0
   -5.9710   24.5450  -30.8210 C   0  0  0  0  0  0  0  0  0  0  0  0
   -7.0157   24.7774  -31.0753 H   0  0  0  0  0  0  0  0  0  0  0  0
  1  2  1  0
  2  3  1  0
  3  4  1  0
  4  5  2  0
  5  6  1  0
  5  7  1  0
  7  8  1  0
  7  9  2  0
  9 10  1  0
 10 11  1  0
 11 12  1  0
 11 13  1  0
 11 14  1  0
  9 15  1  0
 15 16  1  0
 15 17  2  0
 17 18  1  0
 18 19  2  0
 19 20  1  0
 20 21  2  0
 21 22  1  0
 21 23  1  0
 23 24  1  0
 24 25  1  0
 24 26  1  0
 24 27  1  0
 23 28  2  0
 28 29  1  0
 28 30  1  0
 30 31  1  0
 30 32  2  0
 32 33  1  0
 18 34  1  0
 34 35  1  0
 34  2  2  0
 17  4  1  0
 32 20  1  0
M  CHG  1   3  -1
M  END
>  <UniqueID>  (19) 
18

>  <SMILES>  (19) 
COc1ccc2[n-]cc/c(=N/c3cc(C)c(F)cc3F)c2c1

>  <Energy>  (19) 
60.503925168502214

>  <Genealogy>  (19) 
COc1ccc2[n-]ccc(=Nc3cc(C)c(F)cc3F)c2c1 (protonated)
COc1ccc2[n-]cc/c(=N/c3cc(C)c(F)cc3F)c2c1 (cis-trans isomerization)
COc1ccc2[n-]cc/c(=N/c3cc(C)c(F)cc3F)c2c1 (3D coordinates assigned)
COc1ccc2[n-]cc/c(=N/c3cc(C)c(F)cc3F)c2c1 (optimized conformer: 60.503925168502214 kcal/mol)

>  <smiles>  (19) 
COc1ccc2[nH]ccc(=Nc3cc(C)c(F)cc3F)c2c1

>  <score_type>  (19) 
oracle

>  <origin>  (19) 
adg

>  <m_score__min__energy>  (19) 
-8.8000000000000007

>  <m_primary>  (19) 
energy

$$$$
19:0
     RDKit          3D

 41 42  0  0  0  0  0  0  0  0999 V2000
   -5.2910   25.4720  -30.5390 C   0  0  0  0  0  0  0  0  0  0  0  0
   -3.8620   25.3010  -30.7530 N   0  0  0  0  0  0  0  0  0  0  0  0
   -3.0930   24.2950  -30.0850 C   0  0  0  0  0  0  0  0  0  0  0  0
   -2.4590   24.5890  -29.0340 O   0  0  0  0  0  0  0  0  0  0  0  0
   -3.0400   22.9130  -30.6210 C   0  0  0  0  0  0  0  0  0  0  0  0
   -2.2410   21.9380  -29.9980 C   0  0  0  0  0  0  0  0  0  0  0  0
   -2.1920   20.6380  -30.5020 C   0  0  0  0  0  0  0  0  0  0  0  0
   -2.9360   20.2910  -31.6320 C   0  0  0  0  0  0  0  0  0  0  0  0
   -3.7470   21.2480  -32.2690 C   0  0  0  0  0  0  0  0  0  0  0  0
   -4.5310   20.9240  -33.4340 N   0  0  0  0  0  0  0  0  0  0  0  0
   -5.1470   19.6180  -33.6780 C   0  0  0  0  0  0  0  0  0  0  0  0
   -6.4780   19.5120  -32.9680 C   0  0  0  0  0  0  0  0  0  0  0  0
   -7.1870   20.6880  -32.6690 C   0  0  0  0  0  0  0  0  0  0  0  0
   -8.4250   20.6330  -32.0060 C   0  0  0  0  0  0  0  0  0  0  0  0
   -9.1560   21.7840  -31.6780 O   0  0  0  0  0  0  0  0  0  0  0  0
   -8.7350   23.1140  -31.9650 C   0  0  0  0  0  0  0  0  0  0  0  0
   -8.9560   19.3900  -31.6570 C   0  0  0  0  0  0  0  0  0  0  0  0
   -8.2720   18.2120  -31.9650 C   0  0  0  0  0  0  0  0  0  0  0  0
   -7.0300   18.2580  -32.6290 C   0  0  0  0  0  0  0  0  0  0  0  0
   -6.3320   17.0850  -32.9610 O   0  0  0  0  0  0  0  0  0  0  0  0
   -6.4840   16.3680  -34.1820 C   0  0  0  0  0  0  0  0  0  0  0  0
   -3.7870   22.5570  -31.7590 C   0  0  0  0  0  0  0  0  0  0  0  0
   -5.4997   25.4970  -29.4593 H   0  0  0  0  0  0  0  0  0  0  0  0
   -5.6201   26.4159  -30.9980 H   0  0  0  0  0  0  0  0  0  0  0  0
   -5.8336   24.6324  -30.9980 H   0  0  0  0  0  0  0  0  0  0  0  0
   -1.6510   22.2018  -29.1079 H   0  0  0  0  0  0  0  0  0  0  0  0
   -1.5642   19.8825  -30.0069 H   0  0  0  0  0  0  0  0  0  0  0  0
   -2.8876   19.2650  -32.0256 H   0  0  0  0  0  0  0  0  0  0  0  0
   -4.7250   21.6790  -34.1300 H   0  0  0  0  0  0  0  0  0  0  0  0
   -5.3035   19.4893  -34.7592 H   0  0  0  0  0  0  0  0  0  0  0  0
   -4.4779   18.8346  -33.2925 H   0  0  0  0  0  0  0  0  0  0  0  0
   -6.7679   21.6633  -32.9574 H   0  0  0  0  0  0  0  0  0  0  0  0
   -8.5635   23.6556  -31.0231 H   0  0  0  0  0  0  0  0  0  0  0  0
   -7.8019   23.0857  -32.5468 H   0  0  0  0  0  0  0  0  0  0  0  0
   -9.5144   23.6278  -32.5468 H   0  0  0  0  0  0  0  0  0  0  0  0
   -9.9225   19.3379  -31.1344 H   0  0  0  0  0  0  0  0  0  0  0  0
   -8.7063   17.2404  -31.6870 H   0  0  0  0  0  0  0  0  0  0  0  0
   -6.7075   15.3135  -33.9626 H   0  0  0  0  0  0  0  0  0  0  0  0
   -7.3096   16.8046  -34.7633 H   0  0  0  0  0  0  0  0  0  0  0  0
   -5.5523   16.4321  -34.7633 H   0  0  0  0  0  0  0  0  0  0  0  0
   -4.4111   23.3139  -32.2565 H   0  0  0  0  0  0  0  0  0  0  0  0
  1  2  1  0
  2  3  1  0
  3  4  2  0
  3  5  1  0
  5  6  2  0
  6  7  1  0
  7  8  2  0
  8  9  1  0
  9 10  1  0
 10 11  1  0
 11 12  1  0
 12 13  2  0
 13 14  1  0
 14 15  1  0
 15 16  1  0
 14 17  2  0
 17 18  1  0
 18 19  2  0
 19 20  1  0
 20 21  1  0
  9 22  2  0
 22  5  1  0
 19 12  1  0
  1 23  1  0
  1 24  1  0
  1 25  1  0
  6 26  1  0
  7 27  1  0
  8 28  1  0
 10 29  1  0
 11 30  1  0
 11 31  1  0
 13 32  1  0
 16 33  1  0
 16 34  1  0
 16 35  1  0
 17 36  1  0
 18 37  1  0
 21 38  1  0
 21 39  1  0
 21 40  1  0
 22 41  1  0
M  CHG  1   2  -1
M  END
>  <UniqueID>  (20) 
19

>  <SMILES>  (20) 
C[N-]C(=O)c1cccc(NCc2cc(OC)ccc2OC)c1

>  <Energy>  (20) 
38.00727355513019

>  <Genealogy>  (20) 
C[N-]C(=O)c1cccc(NCc2cc(OC)ccc2OC)c1 (protonated)
C[N-]C(=O)c1cccc(NCc2cc(OC)ccc2OC)c1 (3D coordinates assigned)
C[N-]C(=O)c1cccc(NCc2cc(OC)ccc2OC)c1 (optimized conformer: 38.00727355513019 kcal/mol)

>  <smiles>  (20) 
CNC(=O)c1cccc(NCc2cc(OC)ccc2OC)c1

>  <score_type>  (20) 
oracle

>  <origin>  (20) 
adg

>  <m_score__min__energy>  (20) 
-8.8699999999999992

>  <m_primary>  (20) 
energy

$$$$
20:0
     RDKit          3D

 46 48  0  0  0  0  0  0  0  0999 V2000
   -4.8740   19.2710  -34.1820 C   0  0  0  0  0  0  0  0  0  0  0  0
   -4.4200   19.9090  -32.9370 N   0  0  0  0  0  0  0  0  0  0  0  0
   -2.9700   19.6910  -32.7340 C   0  0  0  0  0  0  0  0  0  0  0  0
   -2.3700   20.7240  -31.8130 C   0  0  0  0  0  0  0  0  0  0  0  0
   -1.0460   20.6060  -31.3670 C   0  0  0  0  0  0  0  0  0  0  0  0
   -0.5310   21.5150  -30.4970 N   0  0  0  0  0  0  0  0  0  0  0  0
   -1.2710   22.5570  -30.0330 C   0  0  0  0  0  0  0  0  0  0  0  0
   -2.6010   22.7310  -30.4520 C   0  0  0  0  0  0  0  0  0  0  0  0
   -3.4440   23.8690  -29.8930 C   0  0  0  0  0  0  0  0  0  0  0  0
   -4.3180   24.5950  -30.8530 N   0  0  0  0  0  0  0  0  0  0  0  0
   -5.3560   25.4190  -30.2220 C   0  0  0  0  0  0  0  0  0  0  0  0
   -6.4830   24.5920  -30.8130 C   0  0  0  0  0  0  0  0  0  0  0  0
   -5.3790   23.7960  -31.4830 C   0  0  0  0  0  0  0  0  0  0  0  0
   -3.1560   21.7710  -31.3130 C   0  0  0  0  0  0  0  0  0  0  0  0
   -5.2660   19.5440  -31.7730 C   0  0  0  0  0  0  0  0  0  0  0  0
   -6.7510   19.8310  -31.9540 C   0  0  0  0  0  0  0  0  0  0  0  0
   -7.2290   21.1250  -31.6800 C   0  0  0  0  0  0  0  0  0  0  0  0
   -8.5830   21.4360  -31.8250 C   0  0  0  0  0  0  0  0  0  0  0  0
   -9.0250   22.6860  -31.5460 F   0  0  0  0  0  0  0  0  0  0  0  0
   -9.4790   20.4600  -32.2620 C   0  0  0  0  0  0  0  0  0  0  0  0
   -9.0200   19.1780  -32.5700 C   0  0  0  0  0  0  0  0  0  0  0  0
   -7.6630   18.8560  -32.4310 C   0  0  0  0  0  0  0  0  0  0  0  0
   -7.2320   17.5350  -32.8210 C   0  0  0  0  0  0  0  0  0  0  0  0
   -6.8820   16.4770  -33.1330 N   0  0  0  0  0  0  0  0  0  0  0  0
   -5.4962   18.3967  -33.9402 H   0  0  0  0  0  0  0  0  0  0  0  0
   -5.4645   19.9903  -34.7685 H   0  0  0  0  0  0  0  0  0  0  0  0
   -4.0009   18.9488  -34.7685 H   0  0  0  0  0  0  0  0  0  0  0  0
   -2.8181   18.6932  -32.2965 H   0  0  0  0  0  0  0  0  0  0  0  0
   -2.4723   19.7751  -33.7113 H   0  0  0  0  0  0  0  0  0  0  0  0
   -0.4208   19.7738  -31.7228 H   0  0  0  0  0  0  0  0  0  0  0  0
    0.4560   21.4070  -30.1720 H   0  0  0  0  0  0  0  0  0  0  0  0
   -0.8249   23.2697  -29.3238 H   0  0  0  0  0  0  0  0  0  0  0  0
   -4.0900   23.4491  -29.1079 H   0  0  0  0  0  0  0  0  0  0  0  0
   -2.7181   24.6181  -29.5438 H   0  0  0  0  0  0  0  0  0  0  0  0
   -5.3256   25.3944  -29.1227 H   0  0  0  0  0  0  0  0  0  0  0  0
   -5.3485   26.5052  -30.3953 H   0  0  0  0  0  0  0  0  0  0  0  0
   -7.0849   24.0323  -30.0819 H   0  0  0  0  0  0  0  0  0  0  0  0
   -7.3217   25.0359  -31.3694 H   0  0  0  0  0  0  0  0  0  0  0  0
   -5.3626   22.7365  -31.1878 H   0  0  0  0  0  0  0  0  0  0  0  0
   -5.3876   23.6950  -32.5783 H   0  0  0  0  0  0  0  0  0  0  0  0
   -4.2163   21.8412  -31.5974 H   0  0  0  0  0  0  0  0  0  0  0  0
   -5.1450   18.4669  -31.5852 H   0  0  0  0  0  0  0  0  0  0  0  0
   -4.9276   20.1689  -30.9333 H   0  0  0  0  0  0  0  0  0  0  0  0
   -6.5266   21.9032  -31.3468 H   0  0  0  0  0  0  0  0  0  0  0  0
  -10.5475   20.7007  -32.3639 H   0  0  0  0  0  0  0  0  0  0  0  0
   -9.7286   18.4149  -32.9244 H   0  0  0  0  0  0  0  0  0  0  0  0
  1  2  1  0
  2  3  1  0
  3  4  1  0
  4  5  2  0
  5  6  1  0
  6  7  2  0
  7  8  1  0
  8  9  1  0
  9 10  1  0
 10 11  1  0
 11 12  1  0
 12 13  1  0
  8 14  2  0
  2 15  1  0
 15 16  1  0
 16 17  2  0
 17 18  1  0
 18 19  1  0
 18 20  2  0
 20 21  1  0
 21 22  2  0
 22 23  1  0
 23 24  3  0
 14  4  1  0
 22 16  1  0
 13 10  1  0
  1 25  1  0
  1 26  1  0
  1 27  1  0
  3 28  1  0
  3 29  1  0
  5 30  1  0
  6 31  1  0
  7 32  1  0
  9 33  1  0
  9 34  1  0
 11 35  1  0
 11 36  1  0
 12 37  1  0
 12 38  1  0
 13 39  1  0
 13 40  1  0
 14 41  1  0
 15 42  1  0
 15 43  1  0
 17 44  1  0
 20 45  1  0
 21 46  1  0
M  CHG  1   6   1
M  END
>  <UniqueID>  (21) 
20

>  <SMILES>  (21) 
CN(Cc1c[nH+]cc(CN2CCC2)c1)Cc1cc(F)ccc1C#N

>  <Energy>  (21) 
126.14672077613962

>  <Genealogy>  (21) 
CN(Cc1c[nH+]cc(CN2CCC2)c1)Cc1cc(F)ccc1C#N (protonated)
CN(Cc1c[nH+]cc(CN2CCC2)c1)Cc1cc(F)ccc1C#N (3D coordinates assigned)
CN(Cc1c[nH+]cc(CN2CCC2)c1)Cc1cc(F)ccc1C#N (nonaromatic ring conformer: 126.14672077613962 kcal/mol)

>  <smiles>  (21) 
CN(Cc1cncc(CN2CCC2)c1)Cc1cc(F)ccc1C#N

>  <score_type>  (21) 
oracle

>  <origin>  (21) 
adg

>  <m_score__min__energy>  (21) 
-7.1399999999999997

>  <m_primary>  (21) 
energy

$$$$
21:0
     RDKit          3D

 60 63  0  0  0  0  0  0  0  0999 V2000
   -5.9720   14.1760  -34.0890 C   0  0  0  0  0  0  0  0  0  0  0  0
   -5.6510   15.6370  -34.0110 C   0  0  0  0  0  0  0  0  0  0  0  0
   -4.3090   16.0740  -34.0790 C   0  0  0  0  0  0  0  0  0  0  0  0
   -4.0080   17.4440  -33.9670 C   0  0  0  0  0  0  0  0  0  0  0  0
   -2.5800   17.9090  -34.0100 C   0  0  0  0  0  0  0  0  0  0  0  0
   -5.0410   18.3080  -33.7550 N   0  0  0  0  0  0  0  0  0  0  0  0
   -5.0540   19.6400  -33.5700 C   0  0  0  0  0  0  0  0  0  0  0  0
   -6.3770   20.0100  -33.3930 C   0  0  0  0  0  0  0  0  0  0  0  0
   -6.8760   21.3930  -33.1040 C   0  0  0  0  0  0  0  0  0  0  0  0
   -7.9180   21.3250  -32.0600 N   0  0  0  0  0  0  0  0  0  0  0  0
   -8.8010   22.5090  -32.0920 C   0  0  0  0  0  0  0  0  0  0  0  0
   -7.9930   23.7980  -31.9090 C   0  0  0  0  0  0  0  0  0  0  0  0
   -7.2600   23.9110  -30.5530 C   0  0  0  0  0  0  0  0  0  0  0  0
   -5.9300   23.2580  -30.5140 N   0  0  0  0  0  0  0  0  0  0  0  0
   -4.9880   23.7880  -29.5050 C   0  0  0  0  0  0  0  0  0  0  0  0
   -4.0640   24.7970  -30.1360 C   0  0  0  0  0  0  0  0  0  0  0  0
   -4.5220   25.6130  -30.9800 O   0  0  0  0  0  0  0  0  0  0  0  0
   -2.7010   24.9350  -29.7160 N   0  0  0  0  0  0  0  0  0  0  0  0
   -1.8260   23.8690  -29.3230 C   0  0  0  0  0  0  0  0  0  0  0  0
   -1.1930   23.8650  -28.0700 C   0  0  0  0  0  0  0  0  0  0  0  0
   -0.3910   22.7870  -27.6920 C   0  0  0  0  0  0  0  0  0  0  0  0
   -0.2270   21.6980  -28.5540 C   0  0  0  0  0  0  0  0  0  0  0  0
   -0.8560   21.6860  -29.8100 C   0  0  0  0  0  0  0  0  0  0  0  0
   -0.7370   20.4830  -30.7130 C   0  0  0  0  0  0  0  0  0  0  0  0
    0.0580   20.7740  -31.8090 F   0  0  0  0  0  0  0  0  0  0  0  0
   -0.1670   19.4180  -30.0370 F   0  0  0  0  0  0  0  0  0  0  0  0
   -1.9960   20.1170  -31.1510 F   0  0  0  0  0  0  0  0  0  0  0  0
   -1.6800   22.7660  -30.1730 C   0  0  0  0  0  0  0  0  0  0  0  0
   -5.9380   21.7790  -30.6330 C   0  0  0  0  0  0  0  0  0  0  0  0
   -7.3270   21.1430  -30.7140 C   0  0  0  0  0  0  0  0  0  0  0  0
   -7.1860   18.9280  -33.4530 N   0  0  0  0  0  0  0  0  0  0  0  0
   -6.3270   17.9150  -33.6770 C   0  0  0  0  0  0  0  0  0  0  0  0
   -6.6780   16.5740  -33.7970 C   0  0  0  0  0  0  0  0  0  0  0  0
   -6.0622   13.7656  -33.0724 H   0  0  0  0  0  0  0  0  0  0  0  0
   -6.9220   14.0375  -34.6259 H   0  0  0  0  0  0  0  0  0  0  0  0
   -5.1676   13.6520  -34.6259 H   0  0  0  0  0  0  0  0  0  0  0  0
   -3.4992   15.3429  -34.2195 H   0  0  0  0  0  0  0  0  0  0  0  0
   -2.2033   18.0317  -32.9838 H   0  0  0  0  0  0  0  0  0  0  0  0
   -1.9675   17.1639  -34.5388 H   0  0  0  0  0  0  0  0  0  0  0  0
   -2.5237   18.8719  -34.5388 H   0  0  0  0  0  0  0  0  0  0  0  0
   -4.1804   20.3083  -33.5610 H   0  0  0  0  0  0  0  0  0  0  0  0
   -6.0426   22.0187  -32.7518 H   0  0  0  0  0  0  0  0  0  0  0  0
   -7.2985   21.8323  -34.0197 H   0  0  0  0  0  0  0  0  0  0  0  0
   -9.3212   22.5444  -33.0606 H   0  0  0  0  0  0  0  0  0  0  0  0
   -9.5266   22.4289  -31.2692 H   0  0  0  0  0  0  0  0  0  0  0  0
   -7.2414   23.8485  -32.7106 H   0  0  0  0  0  0  0  0  0  0  0  0
   -8.7159   24.6264  -31.9425 H   0  0  0  0  0  0  0  0  0  0  0  0
   -7.1250   24.9784  -30.3239 H   0  0  0  0  0  0  0  0  0  0  0  0
   -7.8861   23.3872  -29.8157 H   0  0  0  0  0  0  0  0  0  0  0  0
   -5.5557   24.2711  -28.6961 H   0  0  0  0  0  0  0  0  0  0  0  0
   -4.3906   22.9577  -29.1002 H   0  0  0  0  0  0  0  0  0  0  0  0
   -1.3295   24.7140  -27.3840 H   0  0  0  0  0  0  0  0  0  0  0  0
    0.1130   22.7940  -26.7143 H   0  0  0  0  0  0  0  0  0  0  0  0
    0.3978   20.8464  -28.2469 H   0  0  0  0  0  0  0  0  0  0  0  0
   -2.2150   22.7441  -31.1339 H   0  0  0  0  0  0  0  0  0  0  0  0
   -5.3849   21.5073  -31.5442 H   0  0  0  0  0  0  0  0  0  0  0  0
   -5.4778   21.3945  -29.7108 H   0  0  0  0  0  0  0  0  0  0  0  0
   -7.2427   20.0671  -30.5009 H   0  0  0  0  0  0  0  0  0  0  0  0
   -7.9796   21.6327  -29.9762 H   0  0  0  0  0  0  0  0  0  0  0  0
   -7.7286   16.2557  -33.7265 H   0  0  0  0  0  0  0  0  0  0  0  0
  1  2  1  0
  2  3  1  0
  3  4  2  0
  4  5  1  0
  4  6  1  0
  6  7  1  0
  7  8  2  0
  8  9  1  0
  9 10  1  0
 10 11  1  0
 11 12  1  0
 12 13  1  0
 13 14  1  0
 14 15  1  0
 15 16  1  0
 16 17  2  0
 16 18  1  0
 18 19  1  0
 19 20  2  0
 20 21  1  0
 21 22  2  0
 22 23  1  0
 23 24  1  0
 24 25  1  0
 24 26  1  0
 24 27  1  0
 23 28  2  0
 14 29  1  0
 29 30  1  0
  8 31  1  0
 31 32  2  0
 32 33  1  0
 33  2  2  0
 32  6  1  0
 30 10  1  0
 28 19  1  0
  1 34  1  0
  1 35  1  0
  1 36  1  0
  3 37  1  0
  5 38  1  0
  5 39  1  0
  5 40  1  0
  7 41  1  0
  9 42  1  0
  9 43  1  0
 11 44  1  0
 11 45  1  0
 12 46  1  0
 12 47  1  0
 13 48  1  0
 13 49  1  0
 15 50  1  0
 15 51  1  0
 20 52  1  0
 21 53  1  0
 22 54  1  0
 28 55  1  0
 29 56  1  0
 29 57  1  0
 30 58  1  0
 30 59  1  0
 33 60  1  0
M  CHG  1  18  -1
M  END
>  <UniqueID>  (22) 
21

>  <SMILES>  (22) 
Cc1cc(C)n2cc(CN3CCCN(CC(=O)[N-]c4cccc(C(F)(F)F)c4)CC3)nc2c1

>  <Energy>  (22) 
116.7105247132973

>  <Genealogy>  (22) 
Cc1cc(C)n2cc(CN3CCCN(CC(=O)[N-]c4cccc(C(F)(F)F)c4)CC3)nc2c1 (protonated)
Cc1cc(C)n2cc(CN3CCCN(CC(=O)[N-]c4cccc(C(F)(F)F)c4)CC3)nc2c1 (3D coordinates assigned)
Cc1cc(C)n2cc(CN3CCCN(CC(=O)[N-]c4cccc(C(F)(F)F)c4)CC3)nc2c1 (nonaromatic ring conformer: 116.7105247132973 kcal/mol)

>  <smiles>  (22) 
Cc1cc(C)n2cc(CN3CCCN(CC(=O)Nc4cccc(C(F)(F)F)c4)CC3)nc2c1

>  <score_type>  (22) 
oracle

>  <origin>  (22) 
adg

>  <m_score__min__energy>  (22) 
-8.3300000000000001

>  <m_primary>  (22) 
energy

$$$$
22:0
     RDKit          3D

 37 38  0  0  0  0  0  0  0  0999 V2000
   -2.9250   18.9620  -26.3940 C   0  0  0  0  0  0  0  0  0  0  0  0
   -2.4910   19.4150  -27.6740 O   0  0  0  0  0  0  0  0  0  0  0  0
   -2.5340   20.7530  -28.0970 C   0  0  0  0  0  0  0  0  0  0  0  0
   -3.4790   21.6070  -27.5120 C   0  0  0  0  0  0  0  0  0  0  0  0
   -3.5570   22.9500  -27.8930 C   0  0  0  0  0  0  0  0  0  0  0  0
   -2.6890   23.4590  -28.8720 C   0  0  0  0  0  0  0  0  0  0  0  0
   -2.7380   24.9190  -29.2320 C   0  0  0  0  0  0  0  0  0  0  0  0
   -3.5010   25.1100  -30.4620 N   0  0  0  0  0  0  0  0  0  0  0  0
   -4.9300   25.1990  -30.4970 C   0  0  0  0  0  0  0  0  0  0  0  0
   -5.5170   26.2390  -30.0960 O   0  0  0  0  0  0  0  0  0  0  0  0
   -5.7350   24.0510  -31.0080 C   0  0  0  0  0  0  0  0  0  0  0  0
   -4.9920   23.3830  -32.0840 N   0  0  0  0  0  0  0  0  0  0  0  0
   -5.0700   21.6550  -31.9290 S   0  0  0  0  0  0  0  0  0  0  0  0
   -4.5280   21.2420  -30.5920 O   0  0  0  0  0  0  0  0  0  0  0  0
   -4.2360   21.0240  -33.0040 O   0  0  0  0  0  0  0  0  0  0  0  0
   -6.7250   21.0990  -32.0890 C   0  0  0  0  0  0  0  0  0  0  0  0
   -7.1270   19.8820  -32.6200 C   0  0  0  0  0  0  0  0  0  0  0  0
   -8.5150   19.7010  -32.5760 C   0  0  0  0  0  0  0  0  0  0  0  0
   -9.2020   20.7800  -32.0280 C   0  0  0  0  0  0  0  0  0  0  0  0
   -8.0810   21.9540  -31.5820 S   0  0  0  0  0  0  0  0  0  0  0  0
   -1.7440   22.6050  -29.4660 C   0  0  0  0  0  0  0  0  0  0  0  0
   -1.6650   21.2610  -29.0830 C   0  0  0  0  0  0  0  0  0  0  0  0
   -2.3924   19.5179  -25.6083 H   0  0  0  0  0  0  0  0  0  0  0  0
   -4.0073   19.1306  -26.2930 H   0  0  0  0  0  0  0  0  0  0  0  0
   -2.7102   17.8879  -26.2930 H   0  0  0  0  0  0  0  0  0  0  0  0
   -4.1656   21.2171  -26.7461 H   0  0  0  0  0  0  0  0  0  0  0  0
   -4.3013   23.6103  -27.4239 H   0  0  0  0  0  0  0  0  0  0  0  0
   -3.2185   25.4785  -28.4158 H   0  0  0  0  0  0  0  0  0  0  0  0
   -1.7122   25.2853  -29.3856 H   0  0  0  0  0  0  0  0  0  0  0  0
   -5.9198   23.3383  -30.1908 H   0  0  0  0  0  0  0  0  0  0  0  0
   -6.6975   24.4170  -31.3948 H   0  0  0  0  0  0  0  0  0  0  0  0
   -3.9810   23.6480  -32.0120 H   0  0  0  0  0  0  0  0  0  0  0  0
   -6.4294   19.1380  -33.0320 H   0  0  0  0  0  0  0  0  0  0  0  0
   -9.0151   18.7915  -32.9403 H   0  0  0  0  0  0  0  0  0  0  0  0
  -10.2928   20.8534  -31.9068 H   0  0  0  0  0  0  0  0  0  0  0  0
   -1.0625   22.9950  -30.2364 H   0  0  0  0  0  0  0  0  0  0  0  0
   -0.9224   20.5995  -29.5531 H   0  0  0  0  0  0  0  0  0  0  0  0
  1  2  1  0
  2  3  1  0
  3  4  2  0
  4  5  1  0
  5  6  2  0
  6  7  1  0
  7  8  1  0
  8  9  1  0
  9 10  2  0
  9 11  1  0
 11 12  1  0
 12 13  1  0
 13 14  2  0
 13 15  2  0
 13 16  1  0
 16 17  2  0
 17 18  1  0
 18 19  2  0
 19 20  1  0
  6 21  1  0
 21 22  2  0
 22  3  1  0
 20 16  1  0
  1 23  1  0
  1 24  1  0
  1 25  1  0
  4 26  1  0
  5 27  1  0
  7 28  1  0
  7 29  1  0
 11 30  1  0
 11 31  1  0
 12 32  1  0
 17 33  1  0
 18 34  1  0
 19 35  1  0
 21 36  1  0
 22 37  1  0
M  CHG  1   8  -1
M  END
>  <UniqueID>  (23) 
22

>  <SMILES>  (23) 
COc1ccc(C[N-]C(=O)CNS(=O)(=O)c2cccs2)cc1

>  <Energy>  (23) 
55.85730483220189

>  <Genealogy>  (23) 
COc1ccc(C[N-]C(=O)CNS(=O)(=O)c2cccs2)cc1 (protonated)
COc1ccc(C[N-]C(=O)CNS(=O)(=O)c2cccs2)cc1 (3D coordinates assigned)
COc1ccc(C[N-]C(=O)CNS(=O)(=O)c2cccs2)cc1 (optimized conformer: 55.85730483220189 kcal/mol)

>  <smiles>  (23) 
COc1ccc(CNC(=O)CNS(=O)(=O)c2cccs2)cc1

>  <score_type>  (23) 
oracle

>  <origin>  (23) 
adg

>  <m_score__min__energy>  (23) 
-9.2799999999999994

>  <m_primary>  (23) 
energy

$$$$
23:0
     RDKit          3D

 38 41  0  0  0  0  0  0  0  0999 V2000
   -7.2440   25.2940  -29.8380 O   0  0  0  0  0  0  0  0  0  0  0  0
   -6.4510   24.6210  -30.5510 C   0  0  0  0  0  0  0  0  0  0  0  0
   -6.8630   24.0830  -31.7780 O   0  0  0  0  0  0  0  0  0  0  0  0
   -7.4520   22.8210  -31.9550 C   0  0  0  0  0  0  0  0  0  0  0  0
   -8.8260   22.6140  -31.7280 C   0  0  0  0  0  0  0  0  0  0  0  0
   -9.3960   21.3540  -31.9210 C   0  0  0  0  0  0  0  0  0  0  0  0
   -8.6120   20.2850  -32.3530 C   0  0  0  0  0  0  0  0  0  0  0  0
   -7.2470   20.4720  -32.6040 C   0  0  0  0  0  0  0  0  0  0  0  0
   -6.4480   19.4130  -33.0490 C   0  0  0  0  0  0  0  0  0  0  0  0
   -5.0930   19.6210  -33.2960 C   0  0  0  0  0  0  0  0  0  0  0  0
   -4.5440   20.8880  -33.0960 C   0  0  0  0  0  0  0  0  0  0  0  0
   -5.3250   21.9160  -32.6620 N   0  0  0  0  0  0  0  0  0  0  0  0
   -6.6590   21.7470  -32.4110 C   0  0  0  0  0  0  0  0  0  0  0  0
   -5.0940   24.3430  -30.0710 C   0  0  0  0  0  0  0  0  0  0  0  0
   -4.6610   24.4310  -28.7630 C   0  0  0  0  0  0  0  0  0  0  0  0
   -3.3200   24.0840  -28.7910 C   0  0  0  0  0  0  0  0  0  0  0  0
   -2.3870   24.0230  -27.6360 C   0  0  0  0  0  0  0  0  0  0  0  0
   -1.6370   22.8590  -27.3820 C   0  0  0  0  0  0  0  0  0  0  0  0
   -0.7590   22.8040  -26.2940 C   0  0  0  0  0  0  0  0  0  0  0  0
   -0.6200   23.9050  -25.4490 C   0  0  0  0  0  0  0  0  0  0  0  0
   -1.3580   25.0670  -25.6880 C   0  0  0  0  0  0  0  0  0  0  0  0
   -1.1850   26.4490  -24.6200 Cl  0  0  0  0  0  0  0  0  0  0  0  0
   -2.2370   25.1280  -26.7750 C   0  0  0  0  0  0  0  0  0  0  0  0
   -3.0300   23.8050  -30.1190 C   0  0  0  0  0  0  0  0  0  0  0  0
   -4.1070   23.9700  -30.8510 O   0  0  0  0  0  0  0  0  0  0  0  0
   -9.4560   23.4522  -31.3957 H   0  0  0  0  0  0  0  0  0  0  0  0
  -10.4691   21.2040  -31.7312 H   0  0  0  0  0  0  0  0  0  0  0  0
   -9.0662   19.2935  -32.4968 H   0  0  0  0  0  0  0  0  0  0  0  0
   -6.8894   18.4174  -33.2036 H   0  0  0  0  0  0  0  0  0  0  0  0
   -4.4602   18.7922  -33.6463 H   0  0  0  0  0  0  0  0  0  0  0  0
   -3.4746   21.0576  -33.2899 H   0  0  0  0  0  0  0  0  0  0  0  0
   -4.8700   22.8460  -32.5240 H   0  0  0  0  0  0  0  0  0  0  0  0
   -5.2560   24.7167  -27.8830 H   0  0  0  0  0  0  0  0  0  0  0  0
   -1.7420   21.9865  -28.0436 H   0  0  0  0  0  0  0  0  0  0  0  0
   -0.1768   21.8901  -26.1045 H   0  0  0  0  0  0  0  0  0  0  0  0
    0.0708   23.8584  -24.5942 H   0  0  0  0  0  0  0  0  0  0  0  0
   -2.8152   26.0456  -26.9586 H   0  0  0  0  0  0  0  0  0  0  0  0
   -2.0466   23.4929  -30.5005 H   0  0  0  0  0  0  0  0  0  0  0  0
  1  2  2  0
  2  3  1  0
  3  4  1  0
  4  5  2  0
  5  6  1  0
  6  7  2  0
  7  8  1  0
  8  9  2  0
  9 10  1  0
 10 11  2  0
 11 12  1  0
 12 13  2  0
  2 14  1  0
 14 15  2  0
 15 16  1  0
 16 17  1  0
 17 18  2  0
 18 19  1  0
 19 20  2  0
 20 21  1  0
 21 22  1  0
 21 23  2  0
 16 24  2  0
 24 25  1  0
 13  4  1  0
 25 14  1  0
 13  8  1  0
 23 17  1  0
  5 26  1  0
  6 27  1  0
  7 28  1  0
  9 29  1  0
 10 30  1  0
 11 31  1  0
 12 32  1  0
 15 33  1  0
 18 34  1  0
 19 35  1  0
 20 36  1  0
 23 37  1  0
 24 38  1  0
M  CHG  1  12   1
M  END
>  <UniqueID>  (24) 
23

>  <SMILES>  (24) 
O=C(Oc1cccc2ccc[nH+]c12)c1cc(-c2cccc(Cl)c2)co1

>  <Energy>  (24) 
78.92485680170928

>  <Genealogy>  (24) 
O=C(Oc1cccc2ccc[nH+]c12)c1cc(-c2cccc(Cl)c2)co1 (protonated)
O=C(Oc1cccc2ccc[nH+]c12)c1cc(-c2cccc(Cl)c2)co1 (3D coordinates assigned)
O=C(Oc1cccc2ccc[nH+]c12)c1cc(-c2cccc(Cl)c2)co1 (optimized conformer: 78.92485680170928 kcal/mol)

>  <smiles>  (24) 
O=C(Oc1cccc2cccnc12)c1cc(-c2cccc(Cl)c2)co1

>  <score_type>  (24) 
oracle

>  <origin>  (24) 
adg

>  <m_score__min__energy>  (24) 
-8.9499999999999993

>  <m_primary>  (24) 
energy

$$$$
24:0
     RDKit          3D

 33 34  0  0  1  0  0  0  0  0999 V2000
   -6.4820   17.8190  -33.4680 C   0  0  0  0  0  0  0  0  0  0  0  0
   -6.5050   19.1670  -33.8660 O   0  0  0  0  0  0  0  0  0  0  0  0
   -7.0290   20.1510  -33.0130 C   0  0  0  0  0  0  0  0  0  0  0  0
   -8.3460   20.0650  -32.6260 C   0  0  0  0  0  0  0  0  0  0  0  0
   -8.8250   21.0480  -31.7900 C   0  0  0  0  0  0  0  0  0  0  0  0
   -8.0010   22.0880  -31.3560 C   0  0  0  0  0  0  0  0  0  0  0  0
   -6.6790   22.1870  -31.7360 C   0  0  0  0  0  0  0  0  0  0  0  0
   -5.8040   23.2690  -31.2910 C   0  0  0  0  0  0  0  0  0  0  0  0
   -4.5110   23.0040  -30.8680 C   0  0  0  0  0  0  0  0  0  0  0  0
   -3.6560   24.0210  -30.4390 C   0  0  0  0  0  0  0  0  0  0  0  0
   -2.4550   23.7590  -30.0470 N   0  0  0  0  0  0  0  0  0  0  0  0
   -2.1120   23.7280  -28.6390 C   0  0  0  0  0  0  0  0  0  0  0  0
   -1.2200   24.8860  -28.2470 C   0  0  0  0  0  0  0  0  0  0  0  0
   -1.5990   26.0230  -28.9640 O   0  0  0  0  0  0  0  0  0  0  0  0
   -4.1190   25.3000  -30.4420 N   0  0  0  0  0  0  0  0  0  0  0  0
   -5.3730   25.5610  -30.8530 C   0  0  0  0  0  0  0  0  0  0  0  0
   -6.1830   24.5600  -31.2640 N   0  0  0  0  0  0  0  0  0  0  0  0
   -6.2050   21.1950  -32.5760 C   0  0  0  0  0  0  0  0  0  0  0  0
   -6.4810   17.7610  -32.3695 H   0  0  0  0  0  0  0  0  0  0  0  0
   -7.3715   17.3053  -33.8615 H   0  0  0  0  0  0  0  0  0  0  0  0
   -5.5755   17.3359  -33.8615 H   0  0  0  0  0  0  0  0  0  0  0  0
   -8.9909   19.2433  -32.9709 H   0  0  0  0  0  0  0  0  0  0  0  0
   -9.8734   21.0136  -31.4587 H   0  0  0  0  0  0  0  0  0  0  0  0
   -8.4206   22.8547  -30.6881 H   0  0  0  0  0  0  0  0  0  0  0  0
   -4.1490   21.9653  -30.8703 H   0  0  0  0  0  0  0  0  0  0  0  0
   -3.0377   23.7766  -28.0468 H   0  0  0  0  0  0  0  0  0  0  0  0
   -1.5630   22.7950  -28.4436 H   0  0  0  0  0  0  0  0  0  0  0  0
   -1.3221   25.0802  -27.1691 H   0  0  0  0  0  0  0  0  0  0  0  0
   -0.1727   24.6384  -28.4749 H   0  0  0  0  0  0  0  0  0  0  0  0
   -2.0650   25.6760  -29.7710 H   0  0  0  0  0  0  0  0  0  0  0  0
   -5.7421   26.5972  -30.8546 H   0  0  0  0  0  0  0  0  0  0  0  0
   -7.1370   24.8480  -31.5650 H   0  0  0  0  0  0  0  0  0  0  0  0
   -5.1568   21.2274  -32.9080 H   0  0  0  0  0  0  0  0  0  0  0  0
  1  2  1  0
  2  3  1  0
  3  4  2  0
  4  5  1  0
  5  6  2  0
  6  7  1  0
  7  8  1  0
  8  9  2  0
  9 10  1  0
 10 11  2  0
 11 12  1  0
 12 13  1  0
 13 14  1  0
 10 15  1  0
 15 16  2  0
 16 17  1  0
  7 18  2  0
 18  3  1  0
 17  8  1  0
  1 19  1  0
  1 20  1  0
  1 21  1  0
  4 22  1  0
  5 23  1  0
  6 24  1  0
  9 25  1  0
 12 26  1  0
 12 27  1  0
 13 28  1  0
 13 29  1  0
 14 30  1  0
 16 31  1  0
 17 32  1  0
 18 33  1  0
M  END
>  <smiles>  (25) 
COc1cccc(-c2cc(=NCCO)nc[nH]2)c1

>  <score_type>  (25) 
oracle

>  <origin>  (25) 
adg

>  <m_score__min__energy>  (25) 
-7.2300000000000004

>  <m_primary>  (25) 
energy

$$$$
25:0
     RDKit          3D

 65 68  0  0  0  0  0  0  0  0999 V2000
   -5.3830   25.9530  -30.6130 C   0  0  0  0  0  0  0  0  0  0  0  0
   -4.0670   25.4140  -30.5470 O   0  0  0  0  0  0  0  0  0  0  0  0
   -3.6540   24.4450  -29.6190 C   0  0  0  0  0  0  0  0  0  0  0  0
   -4.4510   23.3330  -29.2870 C   0  0  0  0  0  0  0  0  0  0  0  0
   -3.9980   22.3910  -28.3600 C   0  0  0  0  0  0  0  0  0  0  0  0
   -2.7460   22.5440  -27.7470 C   0  0  0  0  0  0  0  0  0  0  0  0
   -2.2490   21.4990  -26.7820 C   0  0  0  0  0  0  0  0  0  0  0  0
   -1.3060   20.5780  -27.4500 N   0  0  0  0  0  0  0  0  0  0  0  0
   -1.9190   19.9630  -28.6530 C   0  0  0  0  0  0  0  0  0  0  0  0
   -0.8530   19.3230  -29.5530 C   0  0  0  0  0  0  0  0  0  0  0  0
    0.1570   20.3040  -30.0310 N   0  0  0  0  0  0  0  0  0  0  0  0
   -0.0180   20.6190  -31.4640 C   0  0  0  0  0  0  0  0  0  0  0  0
   -1.4110   20.2670  -31.9220 C   0  0  0  0  0  0  0  0  0  0  0  0
   -2.5210   20.9880  -31.4720 C   0  0  0  0  0  0  0  0  0  0  0  0
   -3.8000   20.6570  -31.9240 C   0  0  0  0  0  0  0  0  0  0  0  0
   -3.9670   19.5980  -32.8350 C   0  0  0  0  0  0  0  0  0  0  0  0
   -5.2810   19.2260  -33.3110 N   0  0  0  0  0  0  0  0  0  0  0  0
   -5.4570   18.5730  -34.6120 C   0  0  0  0  0  0  0  0  0  0  0  0
   -6.4500   19.6710  -32.5990 C   0  0  0  0  0  0  0  0  0  0  0  0
   -7.3530   18.7250  -32.0870 C   0  0  0  0  0  0  0  0  0  0  0  0
   -8.4920   19.1390  -31.3940 C   0  0  0  0  0  0  0  0  0  0  0  0
   -9.3560   18.2190  -30.8990 F   0  0  0  0  0  0  0  0  0  0  0  0
   -8.7420   20.5010  -31.2120 C   0  0  0  0  0  0  0  0  0  0  0  0
   -7.8550   21.4520  -31.7240 C   0  0  0  0  0  0  0  0  0  0  0  0
   -6.7030   21.0460  -32.4280 C   0  0  0  0  0  0  0  0  0  0  0  0
   -5.8040   21.9730  -32.9780 O   0  0  0  0  0  0  0  0  0  0  0  0
   -5.5760   23.2780  -32.4590 C   0  0  0  0  0  0  0  0  0  0  0  0
   -2.8630   18.9160  -33.2690 N   0  0  0  0  0  0  0  0  0  0  0  0
   -1.6100   19.2260  -32.8390 C   0  0  0  0  0  0  0  0  0  0  0  0
    0.2110   21.5400  -29.2120 C   0  0  0  0  0  0  0  0  0  0  0  0
    0.0050   21.2260  -27.7240 C   0  0  0  0  0  0  0  0  0  0  0  0
   -1.9480   23.6500  -28.0780 C   0  0  0  0  0  0  0  0  0  0  0  0
   -2.4010   24.5950  -29.0060 C   0  0  0  0  0  0  0  0  0  0  0  0
   -1.5990   25.6870  -29.3200 O   0  0  0  0  0  0  0  0  0  0  0  0
   -5.7664   26.1100  -29.5940 H   0  0  0  0  0  0  0  0  0  0  0  0
   -5.3593   26.9138  -31.1480 H   0  0  0  0  0  0  0  0  0  0  0  0
   -6.0401   25.2516  -31.1480 H   0  0  0  0  0  0  0  0  0  0  0  0
   -5.4358   23.2051  -29.7601 H   0  0  0  0  0  0  0  0  0  0  0  0
   -4.6271   21.5241  -28.1095 H   0  0  0  0  0  0  0  0  0  0  0  0
   -1.7370   21.9953  -25.9444 H   0  0  0  0  0  0  0  0  0  0  0  0
   -3.1087   20.9197  -26.4142 H   0  0  0  0  0  0  0  0  0  0  0  0
   -2.6330   19.1886  -28.3359 H   0  0  0  0  0  0  0  0  0  0  0  0
   -2.4306   20.7511  -29.2250 H   0  0  0  0  0  0  0  0  0  0  0  0
   -0.3373   18.5360  -28.9831 H   0  0  0  0  0  0  0  0  0  0  0  0
   -1.3651   18.9151  -30.4370 H   0  0  0  0  0  0  0  0  0  0  0  0
    0.1524   21.6944  -31.6205 H   0  0  0  0  0  0  0  0  0  0  0  0
    0.7049   20.0287  -32.0462 H   0  0  0  0  0  0  0  0  0  0  0  0
   -2.3867   21.8167  -30.7613 H   0  0  0  0  0  0  0  0  0  0  0  0
   -4.6742   21.2224  -31.5689 H   0  0  0  0  0  0  0  0  0  0  0  0
   -5.7405   17.5212  -34.4590 H   0  0  0  0  0  0  0  0  0  0  0  0
   -6.2485   19.0877  -35.1765 H   0  0  0  0  0  0  0  0  0  0  0  0
   -4.5141   18.6202  -35.1765 H   0  0  0  0  0  0  0  0  0  0  0  0
   -7.1617   17.6516  -32.2329 H   0  0  0  0  0  0  0  0  0  0  0  0
   -9.6390   20.8259  -30.6645 H   0  0  0  0  0  0  0  0  0  0  0  0
   -8.0569   22.5233  -31.5769 H   0  0  0  0  0  0  0  0  0  0  0  0
   -5.5824   23.2416  -31.3596 H   0  0  0  0  0  0  0  0  0  0  0  0
   -4.5999   23.6461  -32.8081 H   0  0  0  0  0  0  0  0  0  0  0  0
   -6.3694   23.9552  -32.8081 H   0  0  0  0  0  0  0  0  0  0  0  0
   -2.9640   18.1420  -33.9620 H   0  0  0  0  0  0  0  0  0  0  0  0
   -0.7472   18.6557  -33.2136 H   0  0  0  0  0  0  0  0  0  0  0  0
    1.1930   22.0171  -29.3459 H   0  0  0  0  0  0  0  0  0  0  0  0
   -0.5940   22.2132  -29.5418 H   0  0  0  0  0  0  0  0  0  0  0  0
    0.8075   20.5506  -27.3925 H   0  0  0  0  0  0  0  0  0  0  0  0
    0.0246   22.1803  -27.1773 H   0  0  0  0  0  0  0  0  0  0  0  0
   -0.9622   23.7748  -27.6061 H   0  0  0  0  0  0  0  0  0  0  0  0
  1  2  1  0
  2  3  1  0
  3  4  2  0
  4  5  1  0
  5  6  2  0
  6  7  1  0
  7  8  1  0
  8  9  1  0
  9 10  1  0
 10 11  1  0
 11 12  1  0
 12 13  1  0
 13 14  2  0
 14 15  1  0
 15 16  2  0
 16 17  1  0
 17 18  1  0
 17 19  1  0
 19 20  2  0
 20 21  1  0
 21 22  1  0
 21 23  2  0
 23 24  1  0
 24 25  2  0
 25 26  1  0
 26 27  1  0
 16 28  1  0
 28 29  2  0
 11 30  1  0
 30 31  1  0
  6 32  1  0
 32 33  2  0
 33 34  1  0
 33  3  1  0
 31  8  1  0
 29 13  1  0
 25 19  1  0
  1 35  1  0
  1 36  1  0
  1 37  1  0
  4 38  1  0
  5 39  1  0
  7 40  1  0
  7 41  1  0
  9 42  1  0
  9 43  1  0
 10 44  1  0
 10 45  1  0
 12 46  1  0
 12 47  1  0
 14 48  1  0
 15 49  1  0
 18 50  1  0
 18 51  1  0
 18 52  1  0
 20 53  1  0
 23 54  1  0
 24 55  1  0
 27 56  1  0
 27 57  1  0
 27 58  1  0
 28 59  1  0
 29 60  1  0
 30 61  1  0
 30 62  1  0
 31 63  1  0
 31 64  1  0
 32 65  1  0
M  CHG  2  28   1  34  -1
M  END
>  <UniqueID>  (26) 
24

>  <SMILES>  (26) 
COc1ccc(CN2CCN(Cc3ccc(N(C)c4cc(F)ccc4OC)[nH+]c3)CC2)cc1[O-]

>  <Energy>  (26) 
88.88923073069392

>  <Genealogy>  (26) 
COc1ccc(CN2CCN(Cc3ccc(N(C)c4cc(F)ccc4OC)[nH+]c3)CC2)cc1[O-] (protonated)
COc1ccc(CN2CCN(Cc3ccc(N(C)c4cc(F)ccc4OC)[nH+]c3)CC2)cc1[O-] (3D coordinates assigned)
COc1ccc(CN2CCN(Cc3ccc(N(C)c4cc(F)ccc4OC)[nH+]c3)CC2)cc1[O-] (nonaromatic ring conformer: 88.88923073069392 kcal/mol)

>  <smiles>  (26) 
COc1ccc(CN2CCN(Cc3ccc(N(C)c4cc(F)ccc4OC)nc3)CC2)cc1O

>  <score_type>  (26) 
oracle

>  <origin>  (26) 
adg

>  <m_score__min__energy>  (26) 
-11.199999999999999

>  <m_primary>  (26) 
energy

$$$$
26:0
     RDKit          3D

 38 40  0  0  1  0  0  0  0  0999 V2000
   -5.3580   25.6700  -30.4800 C   0  0  0  0  0  0  0  0  0  0  0  0
   -3.9850   25.3440  -30.5150 O   0  0  0  0  0  0  0  0  0  0  0  0
   -3.5080   24.1640  -29.9680 C   0  0  0  0  0  0  0  0  0  0  0  0
   -2.7650   24.1520  -28.7940 C   0  0  0  0  0  0  0  0  0  0  0  0
   -2.3030   22.9590  -28.2740 C   0  0  0  0  0  0  0  0  0  0  0  0
   -2.6070   21.7920  -28.9630 C   0  0  0  0  0  0  0  0  0  0  0  0
   -3.3430   21.7860  -30.1280 C   0  0  0  0  0  0  0  0  0  0  0  0
   -3.8050   22.9820  -30.6470 C   0  0  0  0  0  0  0  0  0  0  0  0
   -4.5740   23.0460  -31.8540 N   0  0  0  0  0  0  0  0  0  0  0  0
   -5.5800   22.2480  -32.0620 C   0  0  0  0  0  0  0  0  0  0  0  0
   -6.8200   22.7290  -31.7320 C   0  0  0  0  0  0  0  0  0  0  0  0
   -7.8970   21.8800  -31.9520 C   0  0  0  0  0  0  0  0  0  0  0  0
   -9.2720   22.3320  -31.6180 C   0  0  0  0  0  0  0  0  0  0  0  0
   -7.6650   20.6480  -32.4720 N   0  0  0  0  0  0  0  0  0  0  0  0
   -6.4350   20.2110  -32.7850 C   0  0  0  0  0  0  0  0  0  0  0  0
   -6.2040   18.8870  -33.3410 C   0  0  0  0  0  0  0  0  0  0  0  0
   -5.1940   18.5910  -34.2270 C   0  0  0  0  0  0  0  0  0  0  0  0
   -5.0490   17.3060  -34.7030 C   0  0  0  0  0  0  0  0  0  0  0  0
   -5.8540   16.2880  -34.3500 N   0  0  0  0  0  0  0  0  0  0  0  0
   -6.8490   16.5500  -33.4850 C   0  0  0  0  0  0  0  0  0  0  0  0
   -7.0310   17.8280  -32.9810 C   0  0  0  0  0  0  0  0  0  0  0  0
   -5.3850   21.0220  -32.5760 N   0  0  0  0  0  0  0  0  0  0  0  0
   -5.6896   25.7487  -29.4341 H   0  0  0  0  0  0  0  0  0  0  0  0
   -5.5197   26.6315  -30.9893 H   0  0  0  0  0  0  0  0  0  0  0  0
   -5.9346   24.8838  -30.9893 H   0  0  0  0  0  0  0  0  0  0  0  0
   -2.5438   25.0971  -28.2764 H   0  0  0  0  0  0  0  0  0  0  0  0
   -1.7140   22.9338  -27.3453 H   0  0  0  0  0  0  0  0  0  0  0  0
   -2.2455   20.8334  -28.5624 H   0  0  0  0  0  0  0  0  0  0  0  0
   -3.5613   20.8378  -30.6410 H   0  0  0  0  0  0  0  0  0  0  0  0
   -6.9557   23.7373  -31.3137 H   0  0  0  0  0  0  0  0  0  0  0  0
   -9.3899   22.3708  -30.5250 H   0  0  0  0  0  0  0  0  0  0  0  0
   -9.4417   23.3332  -32.0408 H   0  0  0  0  0  0  0  0  0  0  0  0
  -10.0027   21.6268  -32.0408 H   0  0  0  0  0  0  0  0  0  0  0  0
   -8.5150   20.0600  -32.6130 H   0  0  0  0  0  0  0  0  0  0  0  0
   -4.5020   19.3804  -34.5556 H   0  0  0  0  0  0  0  0  0  0  0  0
   -4.2310   17.1019  -35.4096 H   0  0  0  0  0  0  0  0  0  0  0  0
   -7.5263   15.7410  -33.1738 H   0  0  0  0  0  0  0  0  0  0  0  0
   -7.8544   18.0105  -32.2748 H   0  0  0  0  0  0  0  0  0  0  0  0
  1  2  1  0
  2  3  1  0
  3  4  2  0
  4  5  1  0
  5  6  2  0
  6  7  1  0
  7  8  2  0
  8  9  1  0
  9 10  2  0
 10 11  1  0
 11 12  2  0
 12 13  1  0
 12 14  1  0
 14 15  1  0
 15 16  1  0
 16 17  2  0
 17 18  1  0
 18 19  2  0
 19 20  1  0
 20 21  2  0
 15 22  2  0
  8  3  1  0
 22 10  1  0
 21 16  1  0
  1 23  1  0
  1 24  1  0
  1 25  1  0
  4 26  1  0
  5 27  1  0
  6 28  1  0
  7 29  1  0
 11 30  1  0
 13 31  1  0
 13 32  1  0
 13 33  1  0
 14 34  1  0
 17 35  1  0
 18 36  1  0
 20 37  1  0
 21 38  1  0
M  END
>  <smiles>  (27) 
COc1ccccc1N=c1cc(C)[nH]c(-c2ccncc2)n1

>  <score_type>  (27) 
oracle

>  <origin>  (27) 
adg

>  <m_score__min__energy>  (27) 
-8.2699999999999996

>  <m_primary>  (27) 
energy

$$$$
27:0
     RDKit          3D

 41 43  0  0  0  0  0  0  0  0999 V2000
   -3.3820   21.9180  -32.8330 C   0  0  0  0  0  0  0  0  0  0  0  0
   -3.4810   22.3580  -31.3750 C   0  0  0  0  0  0  0  0  0  0  0  0
   -4.7890   23.0020  -31.1090 N   0  0  0  0  0  0  0  0  0  0  0  0
   -4.7970   24.3120  -30.6770 C   0  0  0  0  0  0  0  0  0  0  0  0
   -3.7180   24.9350  -30.4770 O   0  0  0  0  0  0  0  0  0  0  0  0
   -5.9980   24.9830  -30.4470 C   0  0  0  0  0  0  0  0  0  0  0  0
   -7.2050   24.3290  -30.6390 C   0  0  0  0  0  0  0  0  0  0  0  0
   -7.2150   22.9930  -31.0380 C   0  0  0  0  0  0  0  0  0  0  0  0
   -8.4370   22.3270  -31.2110 C   0  0  0  0  0  0  0  0  0  0  0  0
   -8.4610   20.9870  -31.5890 C   0  0  0  0  0  0  0  0  0  0  0  0
   -7.2660   20.2910  -31.7830 C   0  0  0  0  0  0  0  0  0  0  0  0
   -7.3140   18.5960  -32.2690 S   0  0  0  0  0  0  0  0  0  0  0  0
   -6.6090   17.7550  -31.2410 O   0  0  0  0  0  0  0  0  0  0  0  0
   -8.7510   18.1590  -32.3260 O   0  0  0  0  0  0  0  0  0  0  0  0
   -6.5840   18.3870  -33.8510 N   0  0  0  0  0  0  0  0  0  0  0  0
   -5.2750   19.0640  -33.9480 C   0  0  0  0  0  0  0  0  0  0  0  0
   -4.1740   18.3260  -33.1510 C   0  0  0  0  0  0  0  0  0  0  0  0
   -4.5030   16.9820  -32.8380 O   0  0  0  0  0  0  0  0  0  0  0  0
   -5.1010   16.3540  -33.9500 C   0  0  0  0  0  0  0  0  0  0  0  0
   -6.4940   16.9530  -34.2240 C   0  0  0  0  0  0  0  0  0  0  0  0
   -6.0390   20.9480  -31.6200 C   0  0  0  0  0  0  0  0  0  0  0  0
   -5.9850   22.3180  -31.2590 C   0  0  0  0  0  0  0  0  0  0  0  0
   -3.1407   20.8457  -32.8768 H   0  0  0  0  0  0  0  0  0  0  0  0
   -4.3432   22.0984  -33.3365 H   0  0  0  0  0  0  0  0  0  0  0  0
   -2.5907   22.4927  -33.3365 H   0  0  0  0  0  0  0  0  0  0  0  0
   -3.3731   21.4778  -30.7242 H   0  0  0  0  0  0  0  0  0  0  0  0
   -2.6812   23.0849  -31.1702 H   0  0  0  0  0  0  0  0  0  0  0  0
   -5.9873   26.0311  -30.1133 H   0  0  0  0  0  0  0  0  0  0  0  0
   -8.1530   24.8629  -30.4769 H   0  0  0  0  0  0  0  0  0  0  0  0
   -9.3817   22.8661  -31.0472 H   0  0  0  0  0  0  0  0  0  0  0  0
   -9.4238   20.4754  -31.7352 H   0  0  0  0  0  0  0  0  0  0  0  0
   -7.2310   18.8560  -34.5280 H   0  0  0  0  0  0  0  0  0  0  0  0
   -4.9768   19.1083  -35.0059 H   0  0  0  0  0  0  0  0  0  0  0  0
   -5.3837   20.0713  -33.5196 H   0  0  0  0  0  0  0  0  0  0  0  0
   -3.2512   18.3276  -33.7496 H   0  0  0  0  0  0  0  0  0  0  0  0
   -4.0547   18.8594  -32.1964 H   0  0  0  0  0  0  0  0  0  0  0  0
   -4.4637   16.5006  -34.8345 H   0  0  0  0  0  0  0  0  0  0  0  0
   -5.2113   15.2808  -33.7355 H   0  0  0  0  0  0  0  0  0  0  0  0
   -6.7149   16.8539  -35.2970 H   0  0  0  0  0  0  0  0  0  0  0  0
   -7.2197   16.4028  -33.6070 H   0  0  0  0  0  0  0  0  0  0  0  0
   -5.1026   20.3918  -31.7746 H   0  0  0  0  0  0  0  0  0  0  0  0
  1  2  1  0
  2  3  1  0
  3  4  1  0
  4  5  2  0
  4  6  1  0
  6  7  2  0
  7  8  1  0
  8  9  2  0
  9 10  1  0
 10 11  2  0
 11 12  1  0
 12 13  2  0
 12 14  2  0
 12 15  1  0
 15 16  1  0
 16 17  1  0
 17 18  1  0
 18 19  1  0
 19 20  1  0
 11 21  1  0
 21 22  2  0
 22  3  1  0
 22  8  1  0
 20 15  1  0
  1 23  1  0
  1 24  1  0
  1 25  1  0
  2 26  1  0
  2 27  1  0
  6 28  1  0
  7 29  1  0
  9 30  1  0
 10 31  1  0
 15 32  1  0
 16 33  1  0
 16 34  1  0
 17 35  1  0
 17 36  1  0
 19 37  1  0
 19 38  1  0
 20 39  1  0
 20 40  1  0
 21 41  1  0
M  CHG  1  15   1
M  END
>  <UniqueID>  (28) 
25

>  <SMILES>  (28) 
CCn1c(=O)ccc2ccc(S(=O)(=O)[NH+]3CCOCC3)cc21

>  <Energy>  (28) 
60.1672988002332

>  <Genealogy>  (28) 
CCn1c(=O)ccc2ccc(S(=O)(=O)[NH+]3CCOCC3)cc21 (protonated)
CCn1c(=O)ccc2ccc(S(=O)(=O)[NH+]3CCOCC3)cc21 (3D coordinates assigned)
CCn1c(=O)ccc2ccc(S(=O)(=O)[NH+]3CCOCC3)cc21 (nonaromatic ring conformer: 60.1672988002332 kcal/mol)

>  <smiles>  (28) 
CCn1c(=O)ccc2ccc(S(=O)(=O)N3CCOCC3)cc21

>  <score_type>  (28) 
oracle

>  <origin>  (28) 
adg

>  <m_score__min__energy>  (28) 
-8.5500000000000007

>  <m_primary>  (28) 
energy

$$$$
28:0
     RDKit          3D

 42 42  0  0  0  0  0  0  0  0999 V2000
   -0.1860   21.0620  -28.8540 C   0  0  0  0  0  0  0  0  0  0  0  0
   -1.6180   21.5590  -29.1010 C   0  0  0  0  0  0  0  0  0  0  0  0
   -2.4310   21.6050  -27.8040 C   0  0  0  0  0  0  0  0  0  0  0  0
   -1.6930   22.8630  -29.9420 C   0  0  0  0  0  0  0  0  0  0  0  0
   -2.1890   24.1850  -29.2920 C   0  0  2  0  0  0  0  0  0  0  0  0
   -3.1320   24.9140  -30.1480 N   0  0  0  0  0  0  0  0  0  0  0  0
   -4.5050   24.6020  -30.4420 C   0  0  0  0  0  0  0  0  0  0  0  0
   -5.1650   25.2910  -31.2630 O   0  0  0  0  0  0  0  0  0  0  0  0
   -5.1380   23.3930  -29.8280 C   0  0  0  0  0  0  0  0  0  0  0  0
   -4.4220   22.1910  -30.2350 N   0  0  0  0  0  0  0  0  0  0  0  0
   -4.6640   21.5290  -31.4800 C   0  0  0  0  0  0  0  0  0  0  0  0
   -4.1650   20.3940  -31.7060 O   0  0  0  0  0  0  0  0  0  0  0  0
   -5.5010   22.2000  -32.5230 C   0  0  0  0  0  0  0  0  0  0  0  0
   -6.9430   21.7870  -32.3800 C   0  0  0  0  0  0  0  0  0  0  0  0
   -7.8950   22.7100  -31.9110 C   0  0  0  0  0  0  0  0  0  0  0  0
   -9.2310   22.3250  -31.7490 C   0  0  0  0  0  0  0  0  0  0  0  0
   -9.6260   21.0160  -32.0450 C   0  0  0  0  0  0  0  0  0  0  0  0
   -8.6830   20.0850  -32.4960 C   0  0  0  0  0  0  0  0  0  0  0  0
   -9.0670   18.8120  -32.7700 F   0  0  0  0  0  0  0  0  0  0  0  0
   -7.3440   20.4630  -32.6610 C   0  0  0  0  0  0  0  0  0  0  0  0
   -6.4410   19.5420  -33.0880 F   0  0  0  0  0  0  0  0  0  0  0  0
   -1.1200   25.0640  -28.6810 C   0  0  0  0  0  0  0  0  0  0  0  0
   -1.0620   26.4600  -28.9720 N   0  0  0  0  0  0  0  0  0  0  0  0
   -0.1940   24.5400  -28.0050 O   0  0  0  0  0  0  0  0  0  0  0  0
   -0.0017   20.9980  -27.7714 H   0  0  0  0  0  0  0  0  0  0  0  0
   -0.0598   20.0675  -29.3068 H   0  0  0  0  0  0  0  0  0  0  0  0
    0.5292   21.7645  -29.3068 H   0  0  0  0  0  0  0  0  0  0  0  0
   -2.1037   20.8086  -29.7422 H   0  0  0  0  0  0  0  0  0  0  0  0
   -1.7487   21.5664  -26.9420 H   0  0  0  0  0  0  0  0  0  0  0  0
   -3.0134   22.5375  -27.7692 H   0  0  0  0  0  0  0  0  0  0  0  0
   -3.1149   20.7441  -27.7692 H   0  0  0  0  0  0  0  0  0  0  0  0
   -0.6773   23.0564  -30.3175 H   0  0  0  0  0  0  0  0  0  0  0  0
   -2.4748   22.6390  -30.6827 H   0  0  0  0  0  0  0  0  0  0  0  0
   -2.7544   23.8495  -28.4101 H   0  0  0  0  0  0  0  0  0  0  0  0
   -5.1054   23.4823  -28.7321 H   0  0  0  0  0  0  0  0  0  0  0  0
   -6.1820   23.3221  -30.1671 H   0  0  0  0  0  0  0  0  0  0  0  0
   -5.4223   23.2908  -32.4052 H   0  0  0  0  0  0  0  0  0  0  0  0
   -5.1400   21.9020  -33.5184 H   0  0  0  0  0  0  0  0  0  0  0  0
   -7.5884   23.7387  -31.6705 H   0  0  0  0  0  0  0  0  0  0  0  0
   -9.9720   23.0534  -31.3881 H   0  0  0  0  0  0  0  0  0  0  0  0
  -10.6779   20.7183  -31.9233 H   0  0  0  0  0  0  0  0  0  0  0  0
   -0.8420   26.7990  -29.9340 H   0  0  0  0  0  0  0  0  0  0  0  0
  1  2  1  0
  2  3  1  0
  2  4  1  0
  4  5  1  0
  5  6  1  0
  6  7  1  0
  7  8  2  0
  7  9  1  0
  9 10  1  0
 10 11  1  0
 11 12  2  0
 11 13  1  0
 13 14  1  0
 14 15  2  0
 15 16  1  0
 16 17  2  0
 17 18  1  0
 18 19  1  0
 18 20  2  0
 20 21  1  0
  5 22  1  0
 22 23  1  0
 22 24  2  0
 20 14  1  0
  1 25  1  0
  1 26  1  0
  1 27  1  0
  2 28  1  0
  3 29  1  0
  3 30  1  0
  3 31  1  0
  4 32  1  0
  4 33  1  0
  5 34  1  1
  9 35  1  0
  9 36  1  0
 13 37  1  0
 13 38  1  0
 15 39  1  0
 16 40  1  0
 17 41  1  0
 23 42  1  0
M  CHG  3   6  -1  10  -1  23  -1
M  END
>  <UniqueID>  (29) 
26

>  <SMILES>  (29) 
CC(C)C[C@H]([N-]C(=O)C[N-]C(=O)Cc1cccc(F)c1F)C([NH-])=O

>  <Energy>  (29) 
40.616534720465964

>  <Genealogy>  (29) 
CC(C)CC([N-]C(=O)C[N-]C(=O)Cc1cccc(F)c1F)C([NH-])=O (protonated)
CC(C)C[C@H]([N-]C(=O)C[N-]C(=O)Cc1cccc(F)c1F)C([NH-])=O (chirality)
CC(C)C[C@H]([N-]C(=O)C[N-]C(=O)Cc1cccc(F)c1F)C([NH-])=O (3D coordinates assigned)
CC(C)C[C@H]([N-]C(=O)C[N-]C(=O)Cc1cccc(F)c1F)C([NH-])=O (optimized conformer: 40.616534720465964 kcal/mol)

>  <smiles>  (29) 
CC(C)CC(NC(=O)CNC(=O)Cc1cccc(F)c1F)C(N)=O

>  <score_type>  (29) 
oracle

>  <origin>  (29) 
adg

>  <m_score__min__energy>  (29) 
-11.5

>  <m_primary>  (29) 
energy

$$$$
29:0
     RDKit          3D

 36 38  0  0  1  0  0  0  0  0999 V2000
   -2.1530   24.9180  -28.0220 C   0  0  0  0  0  0  0  0  0  0  0  0
   -2.5850   25.2170  -29.3390 O   0  0  0  0  0  0  0  0  0  0  0  0
   -3.1150   24.1910  -30.0970 C   0  0  0  0  0  0  0  0  0  0  0  0
   -2.3470   23.0630  -30.2580 C   0  0  0  0  0  0  0  0  0  0  0  0
   -2.8700   22.0470  -31.0080 C   0  0  0  0  0  0  0  0  0  0  0  0
   -2.1120   20.9450  -31.1620 N   0  0  0  0  0  0  0  0  0  0  0  0
   -2.5920   19.9300  -31.8900 C   0  0  0  0  0  0  0  0  0  0  0  0
   -3.7990   20.0330  -32.4400 N   0  0  0  0  0  0  0  0  0  0  0  0
   -4.5790   21.1290  -32.3000 C   0  0  0  0  0  0  0  0  0  0  0  0
   -5.6760   21.1380  -32.8430 N   0  0  0  0  0  0  0  0  0  0  0  0
   -6.8110   20.4440  -32.6470 C   0  0  0  0  0  0  0  0  0  0  0  0
   -6.8070   19.0440  -32.6860 C   0  0  0  0  0  0  0  0  0  0  0  0
   -7.9690   18.3340  -32.3620 C   0  0  0  0  0  0  0  0  0  0  0  0
   -9.1270   19.0090  -32.0020 C   0  0  0  0  0  0  0  0  0  0  0  0
   -9.1300   20.4050  -31.9650 C   0  0  0  0  0  0  0  0  0  0  0  0
   -7.9950   21.1330  -32.2800 C   0  0  0  0  0  0  0  0  0  0  0  0
   -4.1260   22.1910  -31.5630 C   0  0  0  0  0  0  0  0  0  0  0  0
   -4.8700   23.3220  -31.3870 C   0  0  0  0  0  0  0  0  0  0  0  0
   -4.3540   24.3840  -30.6190 C   0  0  0  0  0  0  0  0  0  0  0  0
   -5.0390   25.5470  -30.3990 O   0  0  0  0  0  0  0  0  0  0  0  0
   -6.2470   25.6320  -29.6660 C   0  0  0  0  0  0  0  0  0  0  0  0
   -2.8334   25.3889  -27.2972 H   0  0  0  0  0  0  0  0  0  0  0  0
   -2.1564   23.8281  -27.8736 H   0  0  0  0  0  0  0  0  0  0  0  0
   -1.1341   25.3051  -27.8736 H   0  0  0  0  0  0  0  0  0  0  0  0
   -1.3498   22.9808  -29.8010 H   0  0  0  0  0  0  0  0  0  0  0  0
   -1.1720   20.8450  -30.7440 H   0  0  0  0  0  0  0  0  0  0  0  0
   -1.9936   19.0181  -32.0325 H   0  0  0  0  0  0  0  0  0  0  0  0
   -5.8923   18.5033  -32.9707 H   0  0  0  0  0  0  0  0  0  0  0  0
   -7.9643   17.2344  -32.3929 H   0  0  0  0  0  0  0  0  0  0  0  0
  -10.0378   18.4473  -31.7471 H   0  0  0  0  0  0  0  0  0  0  0  0
  -10.0505   20.9358  -31.6805 H   0  0  0  0  0  0  0  0  0  0  0  0
   -8.0115   22.2323  -32.2460 H   0  0  0  0  0  0  0  0  0  0  0  0
   -5.8678   23.4036  -31.8428 H   0  0  0  0  0  0  0  0  0  0  0  0
   -6.0242   25.6163  -28.5889 H   0  0  0  0  0  0  0  0  0  0  0  0
   -6.7647   26.5688  -29.9197 H   0  0  0  0  0  0  0  0  0  0  0  0
   -6.8908   24.7769  -29.9197 H   0  0  0  0  0  0  0  0  0  0  0  0
  1  2  1  0
  2  3  1  0
  3  4  2  0
  4  5  1  0
  5  6  1  0
  6  7  1  0
  7  8  2  0
  8  9  1  0
  9 10  2  0
 10 11  1  0
 11 12  2  0
 12 13  1  0
 13 14  2  0
 14 15  1  0
 15 16  2  0
  9 17  1  0
 17 18  1  0
 18 19  2  0
 19 20  1  0
 20 21  1  0
 19  3  1  0
 17  5  2  0
 16 11  1  0
  1 22  1  0
  1 23  1  0
  1 24  1  0
  4 25  1  0
  6 26  1  0
  7 27  1  0
 12 28  1  0
 13 29  1  0
 14 30  1  0
 15 31  1  0
 16 32  1  0
 18 33  1  0
 21 34  1  0
 21 35  1  0
 21 36  1  0
M  END
>  <smiles>  (30) 
COc1cc2[nH]cnc(=Nc3ccccc3)c2cc1OC

>  <score_type>  (30) 
oracle

>  <origin>  (30) 
adg

>  <m_score__min__energy>  (30) 
-7.4299999999999997

>  <m_primary>  (30) 
energy

$$$$
30:0
     RDKit          3D

 51 55  0  0  0  0  0  0  0  0999 V2000
   -4.7530   24.6910  -30.0370 C   0  0  0  0  0  0  0  0  0  0  0  0
   -3.3580   24.9160  -30.2040 O   0  0  0  0  0  0  0  0  0  0  0  0
   -2.3660   24.5070  -29.2970 C   0  0  0  0  0  0  0  0  0  0  0  0
   -1.9440   25.3400  -28.2410 C   0  0  0  0  0  0  0  0  0  0  0  0
   -0.9100   24.9420  -27.3780 C   0  0  0  0  0  0  0  0  0  0  0  0
   -0.4920   25.7970  -26.2960 N   0  0  0  0  0  0  0  0  0  0  0  0
   -0.5200   27.2560  -26.4540 C   0  0  0  0  0  0  0  0  0  0  0  0
   -0.4400   27.9510  -25.0880 C   0  0  0  0  0  0  0  0  0  0  0  0
   -1.2500   27.2300  -24.0970 N   0  0  0  0  0  0  0  0  0  0  0  0
   -0.7450   25.8670  -23.8340 C   0  0  0  0  0  0  0  0  0  0  0  0
   -0.0040   25.2350  -25.0320 C   0  0  0  0  0  0  0  0  0  0  0  0
   -0.3010   23.6950  -27.5720 C   0  0  0  0  0  0  0  0  0  0  0  0
   -0.7160   22.8580  -28.6070 C   0  0  0  0  0  0  0  0  0  0  0  0
   -1.7590   23.2440  -29.4630 C   0  0  0  0  0  0  0  0  0  0  0  0
   -2.1730   22.3180  -30.5420 C   0  0  0  0  0  0  0  0  0  0  0  0
   -3.3590   21.6460  -30.4760 N   0  0  0  0  0  0  0  0  0  0  0  0
   -3.7290   20.8000  -31.4770 C   0  0  0  0  0  0  0  0  0  0  0  0
   -4.9500   20.1130  -31.4160 C   0  0  0  0  0  0  0  0  0  0  0  0
   -5.3250   19.2420  -32.4500 C   0  0  0  0  0  0  0  0  0  0  0  0
   -6.5470   18.5530  -32.3950 C   0  0  0  0  0  0  0  0  0  0  0  0
   -6.9120   17.6880  -33.4310 C   0  0  0  0  0  0  0  0  0  0  0  0
   -6.0640   17.5030  -34.5250 C   0  0  0  0  0  0  0  0  0  0  0  0
   -4.8430   18.1820  -34.5920 C   0  0  0  0  0  0  0  0  0  0  0  0
   -4.4640   19.0550  -33.5590 C   0  0  0  0  0  0  0  0  0  0  0  0
   -3.2420   19.7410  -33.6170 C   0  0  0  0  0  0  0  0  0  0  0  0
   -2.8720   20.6120  -32.5790 C   0  0  0  0  0  0  0  0  0  0  0  0
   -1.6580   21.3160  -32.5820 C   0  0  0  0  0  0  0  0  0  0  0  0
   -0.8400   21.1890  -33.5320 O   0  0  0  0  0  0  0  0  0  0  0  0
   -1.3590   22.1290  -31.5760 O   0  0  0  0  0  0  0  0  0  0  0  0
   -4.9923   24.6524  -28.9640 H   0  0  0  0  0  0  0  0  0  0  0  0
   -5.3156   25.5100  -30.5089 H   0  0  0  0  0  0  0  0  0  0  0  0
   -5.0296   23.7366  -30.5089 H   0  0  0  0  0  0  0  0  0  0  0  0
   -2.4311   26.3148  -28.0909 H   0  0  0  0  0  0  0  0  0  0  0  0
    0.3364   27.5691  -27.0692 H   0  0  0  0  0  0  0  0  0  0  0  0
   -1.4642   27.5410  -26.9411 H   0  0  0  0  0  0  0  0  0  0  0  0
    0.6076   27.9722  -24.7532 H   0  0  0  0  0  0  0  0  0  0  0  0
   -0.8268   28.9760  -25.1866 H   0  0  0  0  0  0  0  0  0  0  0  0
   -2.2320   27.1640  -24.4570 H   0  0  0  0  0  0  0  0  0  0  0  0
   -0.0509   25.9128  -22.9819 H   0  0  0  0  0  0  0  0  0  0  0  0
   -1.6215   25.2345  -23.6296 H   0  0  0  0  0  0  0  0  0  0  0  0
    1.0732   25.4374  -24.9384 H   0  0  0  0  0  0  0  0  0  0  0  0
   -0.1890   24.1507  -25.0313 H   0  0  0  0  0  0  0  0  0  0  0  0
    0.5107   23.3740  -26.9026 H   0  0  0  0  0  0  0  0  0  0  0  0
   -0.2215   21.8865  -28.7539 H   0  0  0  0  0  0  0  0  0  0  0  0
   -3.9760   21.7560  -29.6400 H   0  0  0  0  0  0  0  0  0  0  0  0
   -5.6170   20.2577  -30.5533 H   0  0  0  0  0  0  0  0  0  0  0  0
   -7.2185   18.6940  -31.5352 H   0  0  0  0  0  0  0  0  0  0  0  0
   -7.8709   17.1511  -33.3842 H   0  0  0  0  0  0  0  0  0  0  0  0
   -6.3573   16.8210  -35.3367 H   0  0  0  0  0  0  0  0  0  0  0  0
   -4.1782   18.0320  -35.4554 H   0  0  0  0  0  0  0  0  0  0  0  0
   -2.5719   19.5966  -34.4773 H   0  0  0  0  0  0  0  0  0  0  0  0
  1  2  1  0
  2  3  1  0
  3  4  2  0
  4  5  1  0
  5  6  1  0
  6  7  1  0
  7  8  1  0
  8  9  1  0
  9 10  1  0
 10 11  1  0
  5 12  2  0
 12 13  1  0
 13 14  2  0
 14 15  1  0
 15 16  2  0
 16 17  1  0
 17 18  2  0
 18 19  1  0
 19 20  2  0
 20 21  1  0
 21 22  2  0
 22 23  1  0
 23 24  2  0
 24 25  1  0
 25 26  2  0
 26 27  1  0
 27 28  2  0
 27 29  1  0
 14  3  1  0
 29 15  1  0
 11  6  1  0
 26 17  1  0
 24 19  1  0
  1 30  1  0
  1 31  1  0
  1 32  1  0
  4 33  1  0
  7 34  1  0
  7 35  1  0
  8 36  1  0
  8 37  1  0
  9 38  1  0
 10 39  1  0
 10 40  1  0
 11 41  1  0
 11 42  1  0
 12 43  1  0
 13 44  1  0
 16 45  1  0
 18 46  1  0
 20 47  1  0
 21 48  1  0
 22 49  1  0
 23 50  1  0
 25 51  1  0
M  CHG  1  16   1
M  END
>  <UniqueID>  (31) 
27

>  <SMILES>  (31) 
COc1cc(N2CCNCC2)ccc1-c1[nH+]c2cc3ccccc3cc2c(=O)o1

>  <Energy>  (31) 
77.58484092814437

>  <Genealogy>  (31) 
COc1cc(N2CCNCC2)ccc1-c1[nH+]c2cc3ccccc3cc2c(=O)o1 (protonated)
COc1cc(N2CCNCC2)ccc1-c1[nH+]c2cc3ccccc3cc2c(=O)o1 (3D coordinates assigned)
COc1cc(N2CCNCC2)ccc1-c1[nH+]c2cc3ccccc3cc2c(=O)o1 (nonaromatic ring conformer: 77.58484092814437 kcal/mol)

>  <smiles>  (31) 
COc1cc(N2CCNCC2)ccc1-c1nc2cc3ccccc3cc2c(=O)o1

>  <score_type>  (31) 
oracle

>  <origin>  (31) 
adg

>  <m_score__min__energy>  (31) 
-8.3699999999999992

>  <m_primary>  (31) 
energy

$$$$
31:0
     RDKit          3D

 44 46  0  0  0  0  0  0  0  0999 V2000
   -9.2550   21.5460  -30.8900 S   0  0  0  0  0  0  0  0  0  0  0  0
   -8.2230   21.1280  -32.1000 C   0  0  0  0  0  0  0  0  0  0  0  0
   -8.4720   19.9290  -32.8650 N   0  0  0  0  0  0  0  0  0  0  0  0
   -7.8820   18.7510  -32.2110 C   0  0  0  0  0  0  0  0  0  0  0  0
   -6.8230   18.1180  -33.0660 C   0  0  0  0  0  0  0  0  0  0  0  0
   -6.0930   16.9920  -32.7460 C   0  0  0  0  0  0  0  0  0  0  0  0
   -5.2240   16.8020  -33.7990 C   0  0  0  0  0  0  0  0  0  0  0  0
   -5.4780   17.8240  -34.6930 C   0  0  0  0  0  0  0  0  0  0  0  0
   -6.4350   18.5940  -34.2270 O   0  0  0  0  0  0  0  0  0  0  0  0
   -7.0810   21.9590  -32.3880 N   0  0  0  0  0  0  0  0  0  0  0  0
   -5.7900   21.3450  -32.7160 C   0  0  0  0  0  0  0  0  0  0  0  0
   -4.6570   22.3780  -32.6220 C   0  0  0  0  0  0  0  0  0  0  0  0
   -4.8720   23.3310  -31.5090 N   0  0  0  0  0  0  0  0  0  0  0  0
   -4.8060   22.6980  -30.1710 C   0  0  0  0  0  0  0  0  0  0  0  0
   -3.8630   23.4400  -29.2590 C   0  0  0  0  0  0  0  0  0  0  0  0
   -2.5750   23.7930  -29.6940 C   0  0  0  0  0  0  0  0  0  0  0  0
   -1.7140   24.4970  -28.8470 C   0  0  0  0  0  0  0  0  0  0  0  0
   -2.1320   24.8550  -27.5610 C   0  0  0  0  0  0  0  0  0  0  0  0
   -1.0510   25.7400  -26.5010 Cl  0  0  0  0  0  0  0  0  0  0  0  0
   -3.4140   24.5070  -27.1220 C   0  0  0  0  0  0  0  0  0  0  0  0
   -4.2770   23.8040  -27.9670 C   0  0  0  0  0  0  0  0  0  0  0  0
   -6.1130   24.1290  -31.6840 C   0  0  0  0  0  0  0  0  0  0  0  0
   -7.2120   23.4150  -32.4980 C   0  0  0  0  0  0  0  0  0  0  0  0
   -9.5040   19.7870  -32.9550 H   0  0  0  0  0  0  0  0  0  0  0  0
   -8.0870   20.0220  -33.8340 H   0  0  0  0  0  0  0  0  0  0  0  0
   -7.4323   19.0605  -31.2560 H   0  0  0  0  0  0  0  0  0  0  0  0
   -8.6801   18.0119  -32.0475 H   0  0  0  0  0  0  0  0  0  0  0  0
   -6.1851   16.3749  -31.8401 H   0  0  0  0  0  0  0  0  0  0  0  0
   -4.4794   15.9994  -33.9057 H   0  0  0  0  0  0  0  0  0  0  0  0
   -4.9574   17.9710  -35.6508 H   0  0  0  0  0  0  0  0  0  0  0  0
   -5.5905   20.5252  -32.0102 H   0  0  0  0  0  0  0  0  0  0  0  0
   -5.8331   20.9606  -33.7457 H   0  0  0  0  0  0  0  0  0  0  0  0
   -3.7060   21.8495  -32.4595 H   0  0  0  0  0  0  0  0  0  0  0  0
   -4.6365   22.9492  -33.5618 H   0  0  0  0  0  0  0  0  0  0  0  0
   -5.8112   22.6991  -29.7243 H   0  0  0  0  0  0  0  0  0  0  0  0
   -4.4343   21.6698  -30.2918 H   0  0  0  0  0  0  0  0  0  0  0  0
   -2.2425   23.5145  -30.7049 H   0  0  0  0  0  0  0  0  0  0  0  0
   -0.7059   24.7699  -29.1925 H   0  0  0  0  0  0  0  0  0  0  0  0
   -3.7431   24.7871  -26.1104 H   0  0  0  0  0  0  0  0  0  0  0  0
   -5.2850   23.5345  -27.6188 H   0  0  0  0  0  0  0  0  0  0  0  0
   -6.5173   24.3618  -30.6878 H   0  0  0  0  0  0  0  0  0  0  0  0
   -5.8335   25.0296  -32.2504 H   0  0  0  0  0  0  0  0  0  0  0  0
   -8.1979   23.7179  -32.1155 H   0  0  0  0  0  0  0  0  0  0  0  0
   -7.1068   23.6987  -33.5556 H   0  0  0  0  0  0  0  0  0  0  0  0
  1  2  2  0
  2  3  1  0
  3  4  1  0
  4  5  1  0
  5  6  2  0
  6  7  1  0
  7  8  2  0
  8  9  1  0
  2 10  1  0
 10 11  1  0
 11 12  1  0
 12 13  1  0
 13 14  1  0
 14 15  1  0
 15 16  2  0
 16 17  1  0
 17 18  2  0
 18 19  1  0
 18 20  1  0
 20 21  2  0
 13 22  1  0
 22 23  1  0
  9  5  1  0
 23 10  1  0
 21 15  1  0
  3 24  1  0
  3 25  1  0
  4 26  1  0
  4 27  1  0
  6 28  1  0
  7 29  1  0
  8 30  1  0
 11 31  1  0
 11 32  1  0
 12 33  1  0
 12 34  1  0
 14 35  1  0
 14 36  1  0
 16 37  1  0
 17 38  1  0
 20 39  1  0
 21 40  1  0
 22 41  1  0
 22 42  1  0
 23 43  1  0
 23 44  1  0
M  CHG  1   3   1
M  END
>  <UniqueID>  (32) 
28

>  <SMILES>  (32) 
S=C([NH2+]Cc1ccco1)N1CCN(Cc2ccc(Cl)cc2)CC1

>  <Energy>  (32) 
80.87256034570221

>  <Genealogy>  (32) 
S=C([NH2+]Cc1ccco1)N1CCN(Cc2ccc(Cl)cc2)CC1 (protonated)
S=C([NH2+]Cc1ccco1)N1CCN(Cc2ccc(Cl)cc2)CC1 (3D coordinates assigned)
S=C([NH2+]Cc1ccco1)N1CCN(Cc2ccc(Cl)cc2)CC1 (nonaromatic ring conformer: 80.87256034570221 kcal/mol)

>  <smiles>  (32) 
S=C(NCc1ccco1)N1CCN(Cc2ccc(Cl)cc2)CC1

>  <score_type>  (32) 
oracle

>  <origin>  (32) 
adg

>  <m_score__min__energy>  (32) 
-7.8600000000000003

>  <m_primary>  (32) 
energy

$$$$
32:0
     RDKit          3D

 59 62  0  0  0  0  0  0  0  0999 V2000
   -1.2800   21.6370  -26.7000 C   0  0  0  0  0  0  0  0  0  0  0  0
   -0.5100   22.9180  -26.3500 C   0  0  0  0  0  0  0  0  0  0  0  0
   -1.2050   24.1680  -26.7320 N   0  0  0  0  0  0  0  0  0  0  0  0
   -0.7950   25.3220  -25.9060 C   0  0  0  0  0  0  0  0  0  0  0  0
   -2.0130   26.1070  -25.4280 C   0  0  0  0  0  0  0  0  0  0  0  0
   -1.0800   24.5070  -28.4490 S   0  0  0  0  0  0  0  0  0  0  0  0
   -1.1150   25.9930  -28.6740 O   0  0  0  0  0  0  0  0  0  0  0  0
    0.2180   23.9760  -28.9950 O   0  0  0  0  0  0  0  0  0  0  0  0
   -2.4350   23.8000  -29.3290 C   0  0  0  0  0  0  0  0  0  0  0  0
   -2.3500   22.4790  -29.7770 C   0  0  0  0  0  0  0  0  0  0  0  0
   -3.4000   21.9040  -30.4950 C   0  0  0  0  0  0  0  0  0  0  0  0
   -4.5690   22.6460  -30.7830 C   0  0  0  0  0  0  0  0  0  0  0  0
   -4.6490   23.9840  -30.3180 C   0  0  0  0  0  0  0  0  0  0  0  0
   -5.7970   24.7320  -30.5840 C   0  0  0  0  0  0  0  0  0  0  0  0
   -6.8460   24.1650  -31.2960 C   0  0  0  0  0  0  0  0  0  0  0  0
   -6.7470   22.8480  -31.7480 C   0  0  0  0  0  0  0  0  0  0  0  0
   -7.7090   22.3540  -32.3990 O   0  0  0  0  0  0  0  0  0  0  0  0
   -5.6200   22.1040  -31.4940 N   0  0  0  0  0  0  0  0  0  0  0  0
   -5.5590   20.7560  -31.9990 C   0  0  0  0  0  0  0  0  0  0  0  0
   -6.4810   19.8040  -31.5460 C   0  0  0  0  0  0  0  0  0  0  0  0
   -6.4320   18.4910  -32.0190 C   0  0  0  0  0  0  0  0  0  0  0  0
   -7.3140   17.5830  -31.5270 F   0  0  0  0  0  0  0  0  0  0  0  0
   -5.4560   18.1120  -32.9590 C   0  0  0  0  0  0  0  0  0  0  0  0
   -5.3920   16.7230  -33.4750 C   0  0  0  0  0  0  0  0  0  0  0  0
   -6.5730   16.0180  -33.7690 C   0  0  0  0  0  0  0  0  0  0  0  0
   -6.5130   14.7060  -34.2490 C   0  0  0  0  0  0  0  0  0  0  0  0
   -7.6580   14.0370  -34.5340 F   0  0  0  0  0  0  0  0  0  0  0  0
   -5.2760   14.0840  -34.4360 C   0  0  0  0  0  0  0  0  0  0  0  0
   -4.0960   14.7730  -34.1420 C   0  0  0  0  0  0  0  0  0  0  0  0
   -2.8960   14.1650  -34.3160 F   0  0  0  0  0  0  0  0  0  0  0  0
   -4.1520   16.0850  -33.6620 C   0  0  0  0  0  0  0  0  0  0  0  0
   -4.5300   19.0710  -33.4100 C   0  0  0  0  0  0  0  0  0  0  0  0
   -4.5770   20.3960  -32.9350 C   0  0  0  0  0  0  0  0  0  0  0  0
   -3.6690   21.3770  -33.3650 O   0  0  0  0  0  0  0  0  0  0  0  0
   -2.2630   21.1860  -33.4710 C   0  0  0  0  0  0  0  0  0  0  0  0
   -3.5850   24.5500  -29.5990 C   0  0  0  0  0  0  0  0  0  0  0  0
   -1.5857   21.1283  -25.7738 H   0  0  0  0  0  0  0  0  0  0  0  0
   -2.1728   21.8951  -27.2885 H   0  0  0  0  0  0  0  0  0  0  0  0
   -0.6332   20.9696  -27.2885 H   0  0  0  0  0  0  0  0  0  0  0  0
   -0.3438   22.9343  -25.2628 H   0  0  0  0  0  0  0  0  0  0  0  0
    0.4277   22.8898  -26.9244 H   0  0  0  0  0  0  0  0  0  0  0  0
   -0.2345   24.9588  -25.0320 H   0  0  0  0  0  0  0  0  0  0  0  0
   -0.1652   25.9860  -26.5163 H   0  0  0  0  0  0  0  0  0  0  0  0
   -2.0326   26.1196  -24.3282 H   0  0  0  0  0  0  0  0  0  0  0  0
   -1.9557   27.1386  -25.8056 H   0  0  0  0  0  0  0  0  0  0  0  0
   -2.9288   25.6287  -25.8056 H   0  0  0  0  0  0  0  0  0  0  0  0
   -1.4480   21.8873  -29.5620 H   0  0  0  0  0  0  0  0  0  0  0  0
   -3.3173   20.8629  -30.8404 H   0  0  0  0  0  0  0  0  0  0  0  0
   -5.8709   25.7707  -30.2296 H   0  0  0  0  0  0  0  0  0  0  0  0
   -7.7527   24.7523  -31.5033 H   0  0  0  0  0  0  0  0  0  0  0  0
   -7.2487   20.0924  -30.8129 H   0  0  0  0  0  0  0  0  0  0  0  0
   -7.5497   16.5016  -33.6204 H   0  0  0  0  0  0  0  0  0  0  0  0
   -5.2308   13.0522  -34.8146 H   0  0  0  0  0  0  0  0  0  0  0  0
   -3.2206   16.6219  -33.4291 H   0  0  0  0  0  0  0  0  0  0  0  0
   -3.7610   18.7825  -34.1417 H   0  0  0  0  0  0  0  0  0  0  0  0
   -1.8241   21.1264  -32.4641 H   0  0  0  0  0  0  0  0  0  0  0  0
   -2.0599   20.2520  -34.0154 H   0  0  0  0  0  0  0  0  0  0  0  0
   -1.8181   22.0320  -34.0154 H   0  0  0  0  0  0  0  0  0  0  0  0
   -3.6555   25.5893  -29.2456 H   0  0  0  0  0  0  0  0  0  0  0  0
  1  2  1  0
  2  3  1  0
  3  4  1  0
  4  5  1  0
  3  6  1  0
  6  7  2  0
  6  8  2  0
  6  9  1  0
  9 10  2  0
 10 11  1  0
 11 12  2  0
 12 13  1  0
 13 14  1  0
 14 15  2  0
 15 16  1  0
 16 17  2  0
 16 18  1  0
 18 19  1  0
 19 20  2  0
 20 21  1  0
 21 22  1  0
 21 23  2  0
 23 24  1  0
 24 25  2  0
 25 26  1  0
 26 27  1  0
 26 28  2  0
 28 29  1  0
 29 30  1  0
 29 31  2  0
 23 32  1  0
 32 33  2  0
 33 34  1  0
 34 35  1  0
 13 36  2  0
 36  9  1  0
 18 12  1  0
 33 19  1  0
 31 24  1  0
  1 37  1  0
  1 38  1  0
  1 39  1  0
  2 40  1  0
  2 41  1  0
  4 42  1  0
  4 43  1  0
  5 44  1  0
  5 45  1  0
  5 46  1  0
 10 47  1  0
 11 48  1  0
 14 49  1  0
 15 50  1  0
 20 51  1  0
 25 52  1  0
 28 53  1  0
 31 54  1  0
 32 55  1  0
 35 56  1  0
 35 57  1  0
 35 58  1  0
 36 59  1  0
M  END
>  <UniqueID>  (33) 
29

>  <SMILES>  (33) 
CCN(CC)S(=O)(=O)c1ccc2c(ccc(=O)n2-c2cc(F)c(-c3cc(F)cc(F)c3)cc2OC)c1

>  <Energy>  (33) 
83.18678853892986

>  <Genealogy>  (33) 
CCN(CC)S(=O)(=O)c1ccc2c(ccc(=O)n2-c2cc(F)c(-c3cc(F)cc(F)c3)cc2OC)c1 (3D coordinates assigned)
CCN(CC)S(=O)(=O)c1ccc2c(ccc(=O)n2-c2cc(F)c(-c3cc(F)cc(F)c3)cc2OC)c1 (optimized conformer: 83.18678853892986 kcal/mol)

>  <smiles>  (33) 
CCN(CC)S(=O)(=O)c1ccc2c(ccc(=O)n2-c2cc(F)c(-c3cc(F)cc(F)c3)cc2OC)c1

>  <score_type>  (33) 
oracle

>  <origin>  (33) 
adg

>  <m_score__min__energy>  (33) 
-9.6699999999999999

>  <m_primary>  (33) 
energy

$$$$
33:0
     RDKit          3D

 30 31  0  0  0  0  0  0  0  0999 V2000
   -4.1030   25.3630  -30.5030 N   0  0  0  0  0  0  0  0  0  0  0  0
   -4.1430   24.1690  -29.6640 C   0  0  0  0  0  0  0  0  0  0  0  0
   -4.8750   23.0120  -30.3750 C   0  0  0  0  0  0  0  0  0  0  0  0
   -5.1160   23.2700  -31.8200 N   0  0  1  0  0  0  0  0  0  0  0  0
   -4.6090   22.2090  -32.7220 C   0  0  0  0  0  0  0  0  0  0  0  0
   -5.3000   20.8550  -32.4940 C   0  0  0  0  0  0  0  0  0  0  0  0
   -6.7880   20.9890  -32.2960 C   0  0  0  0  0  0  0  0  0  0  0  0
   -7.5920   19.8350  -32.2880 C   0  0  0  0  0  0  0  0  0  0  0  0
   -7.0440   18.6130  -32.5010 F   0  0  0  0  0  0  0  0  0  0  0  0
   -8.9660   19.9360  -32.0560 C   0  0  0  0  0  0  0  0  0  0  0  0
   -9.5500   21.1810  -31.8240 C   0  0  0  0  0  0  0  0  0  0  0  0
   -8.7610   22.3340  -31.8180 C   0  0  0  0  0  0  0  0  0  0  0  0
   -7.3760   22.2460  -32.0340 C   0  0  0  0  0  0  0  0  0  0  0  0
   -6.5530   23.5120  -32.0860 C   0  0  0  0  0  0  0  0  0  0  0  0
   -3.1070   25.6730  -30.5860 H   0  0  0  0  0  0  0  0  0  0  0  0
   -4.6090   26.1250  -29.9960 H   0  0  0  0  0  0  0  0  0  0  0  0
   -3.1134   23.8560  -29.4360 H   0  0  0  0  0  0  0  0  0  0  0  0
   -4.6885   24.4107  -28.7398 H   0  0  0  0  0  0  0  0  0  0  0  0
   -4.2651   22.1015  -30.2796 H   0  0  0  0  0  0  0  0  0  0  0  0
   -5.8584   22.9034  -29.8943 H   0  0  0  0  0  0  0  0  0  0  0  0
   -4.6150   24.1560  -32.0710 H   0  0  0  0  0  0  0  0  0  0  0  0
   -4.7806   22.5206  -33.7629 H   0  0  0  0  0  0  0  0  0  0  0  0
   -3.5383   22.0753  -32.5081 H   0  0  0  0  0  0  0  0  0  0  0  0
   -5.1175   20.2146  -33.3696 H   0  0  0  0  0  0  0  0  0  0  0  0
   -4.8802   20.4174  -31.5763 H   0  0  0  0  0  0  0  0  0  0  0  0
   -9.5897   19.0299  -32.0563 H   0  0  0  0  0  0  0  0  0  0  0  0
  -10.6329   21.2553  -31.6456 H   0  0  0  0  0  0  0  0  0  0  0  0
   -9.2266   23.3152  -31.6433 H   0  0  0  0  0  0  0  0  0  0  0  0
   -6.6557   23.9578  -33.0863 H   0  0  0  0  0  0  0  0  0  0  0  0
   -6.9279   24.1849  -31.3008 H   0  0  0  0  0  0  0  0  0  0  0  0
  1  2  1  0
  2  3  1  0
  3  4  1  0
  4  5  1  0
  5  6  1  0
  6  7  1  0
  7  8  2  0
  8  9  1  0
  8 10  1  0
 10 11  2  0
 11 12  1  0
 12 13  2  0
 13 14  1  0
 14  4  1  0
 13  7  1  0
  1 15  1  0
  1 16  1  0
  2 17  1  0
  2 18  1  0
  3 19  1  0
  3 20  1  0
  4 21  1  6
  5 22  1  0
  5 23  1  0
  6 24  1  0
  6 25  1  0
 10 26  1  0
 11 27  1  0
 12 28  1  0
 14 29  1  0
 14 30  1  0
M  CHG  1   4   1
M  END
>  <UniqueID>  (34) 
30

>  <SMILES>  (34) 
NCC[N@H+]1CCc2c(F)cccc2C1

>  <Energy>  (34) 
35.37890582189025

>  <Genealogy>  (34) 
NCC[NH+]1CCc2c(F)cccc2C1 (protonated)
NCC[N@H+]1CCc2c(F)cccc2C1 (chirality)
NCC[N@H+]1CCc2c(F)cccc2C1 (3D coordinates assigned)
NCC[N@H+]1CCc2c(F)cccc2C1 (nonaromatic ring conformer: 35.37890582189025 kcal/mol)

>  <smiles>  (34) 
NCCN1CCc2c(F)cccc2C1

>  <score_type>  (34) 
oracle

>  <origin>  (34) 
adg

>  <m_score__min__energy>  (34) 
-5.9500000000000002

>  <m_primary>  (34) 
energy

$$$$
34:0
     RDKit          3D

 51 54  0  0  0  0  0  0  0  0999 V2000
   -2.7580   21.2520  -33.0540 C   0  0  0  0  0  0  0  0  0  0  0  0
   -3.3890   22.3020  -32.3280 O   0  0  0  0  0  0  0  0  0  0  0  0
   -4.7450   22.3180  -31.9600 C   0  0  0  0  0  0  0  0  0  0  0  0
   -5.6290   21.2890  -32.3420 C   0  0  0  0  0  0  0  0  0  0  0  0
   -6.9960   21.3600  -32.0210 C   0  0  0  0  0  0  0  0  0  0  0  0
   -7.9330   20.2800  -32.4080 C   0  0  0  0  0  0  0  0  0  0  0  0
   -8.9910   20.5970  -33.0170 O   0  0  0  0  0  0  0  0  0  0  0  0
   -7.6610   18.8520  -32.1020 C   0  0  0  0  0  0  0  0  0  0  0  0
   -8.2780   18.2930  -31.1540 O   0  0  0  0  0  0  0  0  0  0  0  0
   -6.7100   18.0800  -32.8620 N   0  0  0  0  0  0  0  0  0  0  0  0
   -5.4500   18.6650  -33.3370 C   0  0  0  0  0  0  0  0  0  0  0  0
   -4.3310   17.6130  -33.2970 C   0  0  0  0  0  0  0  0  0  0  0  0
   -4.6680   16.3610  -34.0260 N   0  0  0  0  0  0  0  0  0  0  0  0
   -3.9360   16.2690  -35.2980 C   0  0  0  0  0  0  0  0  0  0  0  0
   -6.1160   16.1420  -34.2490 C   0  0  0  0  0  0  0  0  0  0  0  0
   -6.9590   16.6510  -33.0770 C   0  0  0  0  0  0  0  0  0  0  0  0
   -7.4690   22.4580  -31.2890 C   0  0  0  0  0  0  0  0  0  0  0  0
   -6.5990   23.4760  -30.9000 C   0  0  0  0  0  0  0  0  0  0  0  0
   -5.2360   23.4030  -31.2050 C   0  0  0  0  0  0  0  0  0  0  0  0
   -4.3810   24.4810  -30.7910 N   0  0  0  0  0  0  0  0  0  0  0  0
   -3.8120   24.5880  -29.6260 C   0  0  0  0  0  0  0  0  0  0  0  0
   -2.4910   24.9100  -29.5150 N   0  0  0  0  0  0  0  0  0  0  0  0
   -1.8940   25.0090  -28.3010 C   0  0  0  0  0  0  0  0  0  0  0  0
   -0.5790   25.3400  -28.2110 N   0  0  0  0  0  0  0  0  0  0  0  0
    0.0480   25.4480  -27.0080 C   0  0  0  0  0  0  0  0  0  0  0  0
    1.7460   25.8800  -26.9510 Cl  0  0  0  0  0  0  0  0  0  0  0  0
   -0.6600   25.2160  -25.8230 C   0  0  0  0  0  0  0  0  0  0  0  0
   -2.0130   24.8730  -25.8860 C   0  0  0  0  0  0  0  0  0  0  0  0
   -2.6400   24.7670  -27.1340 C   0  0  0  0  0  0  0  0  0  0  0  0
   -3.9880   24.4280  -27.2670 C   0  0  0  0  0  0  0  0  0  0  0  0
   -4.5420   24.3420  -28.5050 N   0  0  0  0  0  0  0  0  0  0  0  0
   -2.3232   20.5284  -32.3488 H   0  0  0  0  0  0  0  0  0  0  0  0
   -3.5015   20.7456  -33.6870 H   0  0  0  0  0  0  0  0  0  0  0  0
   -1.9619   21.6709  -33.6870 H   0  0  0  0  0  0  0  0  0  0  0  0
   -5.2452   20.4206  -32.8975 H   0  0  0  0  0  0  0  0  0  0  0  0
   -5.5800   19.0187  -34.3704 H   0  0  0  0  0  0  0  0  0  0  0  0
   -5.1757   19.5072  -32.6847 H   0  0  0  0  0  0  0  0  0  0  0  0
   -3.4280   18.0477  -33.7504 H   0  0  0  0  0  0  0  0  0  0  0  0
   -4.1787   17.3422  -32.2418 H   0  0  0  0  0  0  0  0  0  0  0  0
   -2.8634   16.1342  -35.0948 H   0  0  0  0  0  0  0  0  0  0  0  0
   -4.3105   15.4109  -35.8753 H   0  0  0  0  0  0  0  0  0  0  0  0
   -4.0865   17.1931  -35.8753 H   0  0  0  0  0  0  0  0  0  0  0  0
   -6.4194   16.6744  -35.1625 H   0  0  0  0  0  0  0  0  0  0  0  0
   -6.2855   15.0594  -34.3452 H   0  0  0  0  0  0  0  0  0  0  0  0
   -8.0248   16.4969  -33.3012 H   0  0  0  0  0  0  0  0  0  0  0  0
   -6.6844   16.0963  -32.1676 H   0  0  0  0  0  0  0  0  0  0  0  0
   -8.5339   22.5170  -31.0196 H   0  0  0  0  0  0  0  0  0  0  0  0
   -6.9883   24.3444  -30.3482 H   0  0  0  0  0  0  0  0  0  0  0  0
   -0.1551   25.3031  -24.8496 H   0  0  0  0  0  0  0  0  0  0  0  0
   -2.5814   24.6876  -24.9626 H   0  0  0  0  0  0  0  0  0  0  0  0
   -4.5989   24.2314  -26.3736 H   0  0  0  0  0  0  0  0  0  0  0  0
  1  2  1  0
  2  3  1  0
  3  4  2  0
  4  5  1  0
  5  6  1  0
  6  7  2  0
  6  8  1  0
  8  9  2  0
  8 10  1  0
 10 11  1  0
 11 12  1  0
 12 13  1  0
 13 14  1  0
 13 15  1  0
 15 16  1  0
  5 17  2  0
 17 18  1  0
 18 19  2  0
 19 20  1  0
 20 21  2  3
 21 22  1  0
 22 23  2  0
 23 24  1  0
 24 25  2  0
 25 26  1  0
 25 27  1  0
 27 28  2  0
 28 29  1  0
 29 30  2  0
 30 31  1  0
 19  3  1  0
 31 21  1  0
 16 10  1  0
 29 23  1  0
  1 32  1  0
  1 33  1  0
  1 34  1  0
  4 35  1  0
 11 36  1  0
 11 37  1  0
 12 38  1  0
 12 39  1  0
 14 40  1  0
 14 41  1  0
 14 42  1  0
 15 43  1  0
 15 44  1  0
 16 45  1  0
 16 46  1  0
 17 47  1  0
 18 48  1  0
 27 49  1  0
 28 50  1  0
 30 51  1  0
M  CHG  1  31  -1
M  END
>  <UniqueID>  (35) 
31

>  <SMILES>  (35) 
COc1cc(C(=O)C(=O)N2CCN(C)CC2)ccc1N=c1nc2nc(Cl)ccc2c[n-]1

>  <Energy>  (35) 
79.12654453072768

>  <Genealogy>  (35) 
COc1cc(C(=O)C(=O)N2CCN(C)CC2)ccc1N=c1nc2nc(Cl)ccc2c[n-]1 (protonated)
COc1cc(C(=O)C(=O)N2CCN(C)CC2)ccc1N=c1nc2nc(Cl)ccc2c[n-]1 (3D coordinates assigned)
COc1cc(C(=O)C(=O)N2CCN(C)CC2)ccc1N=c1nc2nc(Cl)ccc2c[n-]1 (nonaromatic ring conformer: 79.12654453072768 kcal/mol)

>  <smiles>  (35) 
COc1cc(C(=O)C(=O)N2CCN(C)CC2)ccc1N=c1nc2nc(Cl)ccc2c[nH]1

>  <score_type>  (35) 
oracle

>  <origin>  (35) 
adg

>  <m_score__min__energy>  (35) 
-11.01

>  <m_primary>  (35) 
energy

$$$$
35:0
     RDKit          3D

 41 43  0  0  0  0  0  0  0  0999 V2000
   -3.8650   26.4230  -30.1730 H   0  0  0  0  0  0  0  0  0  0  0  0
   -3.8710   25.4860  -30.5580 O   0  0  0  0  0  0  0  0  0  0  0  0
   -3.1320   24.4400  -30.0010 C   0  0  0  0  0  0  0  0  0  0  0  0
   -3.4900   23.1050  -30.2780 C   0  0  0  0  0  0  0  0  0  0  0  0
   -4.6690   22.8060  -31.1310 C   0  0  0  0  0  0  0  0  0  0  0  0
   -5.6700   23.6430  -31.1300 N   0  0  0  0  0  0  0  0  0  0  0  0
   -7.0270   23.4060  -30.6360 C   0  0  0  0  0  0  0  0  0  0  0  0
   -7.3599   24.2776  -30.0533 H   0  0  0  0  0  0  0  0  0  0  0  0
   -7.0278   22.5090  -29.9994 H   0  0  0  0  0  0  0  0  0  0  0  0
   -7.9820   23.1880  -31.8120 C   0  0  0  0  0  0  0  0  0  0  0  0
   -7.3945   22.9590  -32.7133 H   0  0  0  0  0  0  0  0  0  0  0  0
   -8.5720   24.1052  -31.9556 H   0  0  0  0  0  0  0  0  0  0  0  0
   -8.9420   22.0350  -31.5380 C   0  0  0  0  0  0  0  0  0  0  0  0
   -9.0536   21.9010  -30.4519 H   0  0  0  0  0  0  0  0  0  0  0  0
   -9.9226   22.2609  -31.9822 H   0  0  0  0  0  0  0  0  0  0  0  0
   -8.5422   21.1115  -31.9822 H   0  0  0  0  0  0  0  0  0  0  0  0
   -4.6300   21.6260  -32.0290 C   0  0  0  0  0  0  0  0  0  0  0  0
   -5.7410   20.7690  -32.0970 C   0  0  0  0  0  0  0  0  0  0  0  0
   -6.6256   20.9669  -31.4738 H   0  0  0  0  0  0  0  0  0  0  0  0
   -5.7250   19.6650  -32.9550 C   0  0  0  0  0  0  0  0  0  0  0  0
   -6.5937   18.9917  -32.9992 H   0  0  0  0  0  0  0  0  0  0  0  0
   -4.6070   19.4150  -33.7570 C   0  0  0  0  0  0  0  0  0  0  0  0
   -4.5940   18.3460  -34.5900 F   0  0  0  0  0  0  0  0  0  0  0  0
   -3.5060   20.2740  -33.7060 C   0  0  0  0  0  0  0  0  0  0  0  0
   -2.6283   20.0797  -34.3399 H   0  0  0  0  0  0  0  0  0  0  0  0
   -3.5180   21.3810  -32.8500 C   0  0  0  0  0  0  0  0  0  0  0  0
   -2.6538   22.0609  -32.8204 H   0  0  0  0  0  0  0  0  0  0  0  0
   -2.7240   22.0520  -29.7350 C   0  0  0  0  0  0  0  0  0  0  0  0
   -3.0860   20.7300  -29.9860 O   0  0  0  0  0  0  0  0  0  0  0  0
   -1.6090   22.3290  -28.9230 C   0  0  0  0  0  0  0  0  0  0  0  0
   -0.8370   21.2870  -28.3760 C   0  0  0  0  0  0  0  0  0  0  0  0
   -1.1042   20.2409  -28.5863 H   0  0  0  0  0  0  0  0  0  0  0  0
    0.2660   21.5720  -27.5680 C   0  0  0  0  0  0  0  0  0  0  0  0
    0.8646   20.7503  -27.1479 H   0  0  0  0  0  0  0  0  0  0  0  0
    0.6110   22.8940  -27.2920 C   0  0  0  0  0  0  0  0  0  0  0  0
    1.4801   23.1128  -26.6542 H   0  0  0  0  0  0  0  0  0  0  0  0
   -0.1450   23.9420  -27.8240 C   0  0  0  0  0  0  0  0  0  0  0  0
    0.1322   24.9831  -27.6022 H   0  0  0  0  0  0  0  0  0  0  0  0
   -1.2590   23.6740  -28.6420 C   0  0  0  0  0  0  0  0  0  0  0  0
   -2.0250   24.7210  -29.1830 C   0  0  0  0  0  0  0  0  0  0  0  0
   -1.6880   26.0450  -28.9170 O   0  0  0  0  0  0  0  0  0  0  0  0
  1  2  1  0
  2  3  1  0
  3  4  2  0
  4  5  1  0
  5  6  2  0
  6  7  1  0
  7  8  1  0
  7  9  1  0
  7 10  1  0
 10 11  1  0
 10 12  1  0
 10 13  1  0
 13 14  1  0
 13 15  1  0
 13 16  1  0
  5 17  1  0
 17 18  2  0
 18 19  1  0
 18 20  1  0
 20 21  1  0
 20 22  2  0
 22 23  1  0
 22 24  1  0
 24 25  1  0
 24 26  2  0
 26 27  1  0
  4 28  1  0
 28 29  1  0
 28 30  2  0
 30 31  1  0
 31 32  1  0
 31 33  2  0
 33 34  1  0
 33 35  1  0
 35 36  1  0
 35 37  2  0
 37 38  1  0
 37 39  1  0
 39 40  2  0
 40 41  1  0
 40  3  1  0
 26 17  1  0
 39 30  1  0
M  CHG  2  29  -1  41  -1
M  END
>  <UniqueID>  (36) 
32

>  <SMILES>  (36) 
CCC/N=C(\c1ccc(F)cc1)c1c(O)c([O-])c2ccccc2c1[O-]

>  <Energy>  (36) 
58.44622626768977

>  <Genealogy>  (36) 
CCCN=C(c1ccc(F)cc1)c1c(O)c([O-])c2ccccc2c1[O-] (protonated)
CCC/N=C(\c1ccc(F)cc1)c1c(O)c([O-])c2ccccc2c1[O-] (cis-trans isomerization)
CCC/N=C(\c1ccc(F)cc1)c1c(O)c([O-])c2ccccc2c1[O-] (3D coordinates assigned)
CCC/N=C(\c1ccc(F)cc1)c1c(O)c([O-])c2ccccc2c1[O-] (optimized conformer: 58.44622626768977 kcal/mol)

>  <smiles>  (36) 
CCCN=C(c1ccc(F)cc1)c1c(O)c(O)c2ccccc2c1O

>  <score_type>  (36) 
oracle

>  <origin>  (36) 
adg

>  <m_score__min__energy>  (36) 
-11.68

>  <m_primary>  (36) 
energy

$$$$
36:0
     RDKit          3D

 41 44  0  0  0  0  0  0  0  0999 V2000
   -0.7470   24.6960  -28.9720 N   0  0  0  0  0  0  0  0  0  0  0  0
   -2.0360   24.1470  -29.2500 C   0  0  0  0  0  0  0  0  0  0  0  0
   -2.1770   22.8590  -29.3510 N   0  0  0  0  0  0  0  0  0  0  0  0
   -3.4520   22.1730  -29.5860 C   0  0  0  0  0  0  0  0  0  0  0  0
   -4.5470   23.1000  -30.0530 C   0  0  0  0  0  0  0  0  0  0  0  0
   -5.7560   22.5740  -30.5330 C   0  0  0  0  0  0  0  0  0  0  0  0
   -6.8060   23.4300  -30.9040 C   0  0  0  0  0  0  0  0  0  0  0  0
   -8.0830   22.8660  -31.4630 C   0  0  0  0  0  0  0  0  0  0  0  0
   -7.8890   21.4270  -31.8360 C   0  0  0  0  0  0  0  0  0  0  0  0
   -8.6770   20.4200  -31.2590 C   0  0  0  0  0  0  0  0  0  0  0  0
   -8.4530   19.1180  -31.5840 N   0  0  0  0  0  0  0  0  0  0  0  0
   -7.4660   18.7720  -32.4580 C   0  0  0  0  0  0  0  0  0  0  0  0
   -7.2310   17.4300  -32.7920 C   0  0  0  0  0  0  0  0  0  0  0  0
   -6.2150   17.0900  -33.7040 C   0  0  0  0  0  0  0  0  0  0  0  0
   -5.9320   15.6440  -34.0240 C   0  0  0  0  0  0  0  0  0  0  0  0
   -4.8610   15.5350  -34.8950 F   0  0  0  0  0  0  0  0  0  0  0  0
   -5.6320   14.9710  -32.8550 F   0  0  0  0  0  0  0  0  0  0  0  0
   -7.0330   15.0500  -34.6170 F   0  0  0  0  0  0  0  0  0  0  0  0
   -5.4080   18.1100  -34.2410 C   0  0  0  0  0  0  0  0  0  0  0  0
   -5.6390   19.4490  -33.9120 C   0  0  0  0  0  0  0  0  0  0  0  0
   -6.6660   19.7830  -33.0270 C   0  0  0  0  0  0  0  0  0  0  0  0
   -6.8960   21.0810  -32.6980 N   0  0  0  0  0  0  0  0  0  0  0  0
   -6.6330   24.8190  -30.7980 C   0  0  0  0  0  0  0  0  0  0  0  0
   -5.4360   25.3450  -30.3100 C   0  0  0  0  0  0  0  0  0  0  0  0
   -4.3920   24.4890  -29.9340 C   0  0  0  0  0  0  0  0  0  0  0  0
   -3.1520   25.0190  -29.4580 N   0  0  0  0  0  0  0  0  0  0  0  0
    0.0770   24.0700  -28.8330 H   0  0  0  0  0  0  0  0  0  0  0  0
   -0.6150   25.7290  -28.9040 H   0  0  0  0  0  0  0  0  0  0  0  0
   -3.2972   21.4000  -30.3531 H   0  0  0  0  0  0  0  0  0  0  0  0
   -3.7742   21.7430  -28.6262 H   0  0  0  0  0  0  0  0  0  0  0  0
   -5.8823   21.4847  -30.6193 H   0  0  0  0  0  0  0  0  0  0  0  0
   -8.8769   22.9419  -30.7054 H   0  0  0  0  0  0  0  0  0  0  0  0
   -8.3669   23.4360  -32.3599 H   0  0  0  0  0  0  0  0  0  0  0  0
   -9.4730   20.6821  -30.5465 H   0  0  0  0  0  0  0  0  0  0  0  0
   -9.0530   18.3820  -31.1460 H   0  0  0  0  0  0  0  0  0  0  0  0
   -7.8450   16.6383  -32.3379 H   0  0  0  0  0  0  0  0  0  0  0  0
   -4.5874   17.8513  -34.9263 H   0  0  0  0  0  0  0  0  0  0  0  0
   -5.0118   20.2393  -34.3503 H   0  0  0  0  0  0  0  0  0  0  0  0
   -7.4450   25.4963  -31.1011 H   0  0  0  0  0  0  0  0  0  0  0  0
   -5.3116   26.4343  -30.2202 H   0  0  0  0  0  0  0  0  0  0  0  0
   -3.0310   26.0500  -29.3430 H   0  0  0  0  0  0  0  0  0  0  0  0
  1  2  1  0
  2  3  2  0
  3  4  1  0
  4  5  1  0
  5  6  2  0
  6  7  1  0
  7  8  1  0
  8  9  1  0
  9 10  2  0
 10 11  1  0
 11 12  2  0
 12 13  1  0
 13 14  2  0
 14 15  1  0
 15 16  1  0
 15 17  1  0
 15 18  1  0
 14 19  1  0
 19 20  2  0
 20 21  1  0
 21 22  2  0
  7 23  2  0
 23 24  1  0
 24 25  2  0
 25 26  1  0
 26  2  1  0
 25  5  1  0
 22  9  1  0
 21 12  1  0
  1 27  1  0
  1 28  1  0
  4 29  1  0
  4 30  1  0
  6 31  1  0
  8 32  1  0
  8 33  1  0
 10 34  1  0
 11 35  1  0
 13 36  1  0
 19 37  1  0
 20 38  1  0
 23 39  1  0
 24 40  1  0
 26 41  1  0
M  CHG  1  11   1
M  END
>  <UniqueID>  (37) 
33

>  <SMILES>  (37) 
NC1=NCc2cc(Cc3c[nH+]c4cc(C(F)(F)F)ccc4n3)ccc2N1

>  <Energy>  (37) 
48.67141842949369

>  <Genealogy>  (37) 
NC1=NCc2cc(Cc3c[nH+]c4cc(C(F)(F)F)ccc4n3)ccc2N1 (protonated)
NC1=NCc2cc(Cc3c[nH+]c4cc(C(F)(F)F)ccc4n3)ccc2N1 (3D coordinates assigned)
NC1=NCc2cc(Cc3c[nH+]c4cc(C(F)(F)F)ccc4n3)ccc2N1 (nonaromatic ring conformer: 48.67141842949369 kcal/mol)

>  <smiles>  (37) 
NC1=NCc2cc(Cc3cnc4cc(C(F)(F)F)ccc4n3)ccc2N1

>  <score_type>  (37) 
oracle

>  <origin>  (37) 
adg

>  <m_score__min__energy>  (37) 
-8.6300000000000008

>  <m_primary>  (37) 
energy

$$$$
37:0
     RDKit          3D

 33 33  0  0  0  0  0  0  0  0999 V2000
   -0.4888   25.5322  -27.4650 H   0  0  0  0  0  0  0  0  0  0  0  0
   -1.4290   25.2340  -26.9780 C   0  0  0  0  0  0  0  0  0  0  0  0
   -2.3520   24.6130  -27.7540 C   0  0  0  0  0  0  0  0  0  0  0  0
   -2.1640   24.4030  -29.1970 C   0  0  0  0  0  0  0  0  0  0  0  0
   -1.1330   23.8080  -29.6110 O   0  0  0  0  0  0  0  0  0  0  0  0
   -3.1290   24.9310  -30.1150 N   0  0  0  0  0  0  0  0  0  0  0  0
   -4.3820   24.3300  -30.4710 C   0  0  0  0  0  0  0  0  0  0  0  0
   -5.6120   24.8800  -30.0680 C   0  0  0  0  0  0  0  0  0  0  0  0
   -5.6310   25.8083  -29.4782 H   0  0  0  0  0  0  0  0  0  0  0  0
   -6.8100   24.2500  -30.4150 C   0  0  0  0  0  0  0  0  0  0  0  0
   -7.7693   24.6904  -30.1055 H   0  0  0  0  0  0  0  0  0  0  0  0
   -6.7960   23.0620  -31.1540 C   0  0  0  0  0  0  0  0  0  0  0  0
   -8.3250   22.3000  -31.5710 Cl  0  0  0  0  0  0  0  0  0  0  0  0
   -5.5700   22.4950  -31.5390 C   0  0  0  0  0  0  0  0  0  0  0  0
   -5.5050   20.9960  -32.4550 Cl  0  0  0  0  0  0  0  0  0  0  0  0
   -4.3710   23.1280  -31.1880 C   0  0  0  0  0  0  0  0  0  0  0  0
   -3.4112   22.6760  -31.4787 H   0  0  0  0  0  0  0  0  0  0  0  0
   -3.6090   24.0980  -27.1430 C   0  0  0  0  0  0  0  0  0  0  0  0
   -4.2330   24.7850  -26.2890 O   0  0  0  0  0  0  0  0  0  0  0  0
   -4.1640   22.7560  -27.5230 C   0  0  0  0  0  0  0  0  0  0  0  0
   -4.3999   22.1856  -26.6125 H   0  0  0  0  0  0  0  0  0  0  0  0
   -5.0794   22.8927  -28.1175 H   0  0  0  0  0  0  0  0  0  0  0  0
   -3.4194   22.2063  -28.1175 H   0  0  0  0  0  0  0  0  0  0  0  0
   -1.5640   25.5430  -25.5640 N   0  0  0  0  0  0  0  0  0  0  0  0
   -2.5740   25.3870  -25.3310 H   0  0  0  0  0  0  0  0  0  0  0  0
   -0.7970   24.6300  -24.6980 C   0  0  0  0  0  0  0  0  0  0  0  0
   -0.9982   24.8695  -23.6434 H   0  0  0  0  0  0  0  0  0  0  0  0
   -1.0978   23.5918  -24.9021 H   0  0  0  0  0  0  0  0  0  0  0  0
    0.2775   24.7472  -24.9021 H   0  0  0  0  0  0  0  0  0  0  0  0
   -1.2900   26.9580  -25.2620 C   0  0  0  0  0  0  0  0  0  0  0  0
   -1.2622   27.1015  -24.1718 H   0  0  0  0  0  0  0  0  0  0  0  0
   -0.3198   27.2440  -25.6943 H   0  0  0  0  0  0  0  0  0  0  0  0
   -2.0833   27.5855  -25.6943 H   0  0  0  0  0  0  0  0  0  0  0  0
  1  2  1  0
  2  3  2  0
  3  4  1  0
  4  5  2  0
  4  6  1  0
  6  7  1  0
  7  8  2  0
  8  9  1  0
  8 10  1  0
 10 11  1  0
 10 12  2  0
 12 13  1  0
 12 14  1  0
 14 15  1  0
 14 16  2  0
 16 17  1  0
  3 18  1  0
 18 19  2  0
 18 20  1  0
 20 21  1  0
 20 22  1  0
 20 23  1  0
  2 24  1  0
 24 25  1  0
 24 26  1  0
 26 27  1  0
 26 28  1  0
 26 29  1  0
 24 30  1  0
 30 31  1  0
 30 32  1  0
 30 33  1  0
 16  7  1  0
M  CHG  2   6  -1  24   1
M  END
>  <UniqueID>  (38) 
34

>  <SMILES>  (38) 
CC(=O)/C(=C/[NH+](C)C)C(=O)[N-]c1ccc(Cl)c(Cl)c1

>  <Energy>  (38) 
47.528091575799436

>  <Genealogy>  (38) 
CC(=O)C(=C[NH+](C)C)C(=O)[N-]c1ccc(Cl)c(Cl)c1 (protonated)
CC(=O)/C(=C/[NH+](C)C)C(=O)[N-]c1ccc(Cl)c(Cl)c1 (cis-trans isomerization)
CC(=O)/C(=C/[NH+](C)C)C(=O)[N-]c1ccc(Cl)c(Cl)c1 (3D coordinates assigned)
CC(=O)/C(=C/[NH+](C)C)C(=O)[N-]c1ccc(Cl)c(Cl)c1 (optimized conformer: 47.528091575799436 kcal/mol)

>  <smiles>  (38) 
CC(=O)C(=CN(C)C)C(=O)Nc1ccc(Cl)c(Cl)c1

>  <score_type>  (38) 
oracle

>  <origin>  (38) 
adg

>  <m_score__min__energy>  (38) 
-7.8399999999999999

>  <m_primary>  (38) 
energy

$$$$
38:0
     RDKit          3D

 58 62  0  0  0  0  0  0  0  0999 V2000
   -1.6760   18.5070  -34.6070 F   0  0  0  0  0  0  0  0  0  0  0  0
   -2.3040   19.3700  -33.7720 C   0  0  0  0  0  0  0  0  0  0  0  0
   -3.1060   18.8830  -32.7370 C   0  0  0  0  0  0  0  0  0  0  0  0
   -3.7540   19.7710  -31.8750 C   0  0  0  0  0  0  0  0  0  0  0  0
   -3.6120   21.1610  -32.0350 C   0  0  0  0  0  0  0  0  0  0  0  0
   -4.3340   22.1560  -31.1240 C   0  0  2  0  0  0  0  0  0  0  0  0
   -5.6410   22.5830  -31.7760 C   0  0  0  0  0  0  0  0  0  0  0  0
   -5.7900   23.8000  -32.3310 N   0  0  0  0  0  0  0  0  0  0  0  0
   -7.0510   23.8970  -32.7150 N   0  0  0  0  0  0  0  0  0  0  0  0
   -7.6830   22.7750  -32.4100 N   0  0  0  0  0  0  0  0  0  0  0  0
   -6.8400   21.9380  -31.8210 N   0  0  0  0  0  0  0  0  0  0  0  0
   -7.2540   20.6040  -31.3740 C   0  0  0  0  0  0  0  0  0  0  0  0
   -6.8580   19.5410  -32.3590 C   0  0  0  0  0  0  0  0  0  0  0  0
   -6.8670   18.1880  -31.9790 C   0  0  0  0  0  0  0  0  0  0  0  0
   -6.4790   17.1980  -32.8890 C   0  0  0  0  0  0  0  0  0  0  0  0
   -6.0890   17.5520  -34.1830 C   0  0  0  0  0  0  0  0  0  0  0  0
   -6.0970   18.8930  -34.5750 C   0  0  0  0  0  0  0  0  0  0  0  0
   -6.4860   19.8850  -33.6700 C   0  0  0  0  0  0  0  0  0  0  0  0
   -3.5010   23.3120  -30.6870 N   0  0  0  0  0  0  0  0  0  0  0  0
   -2.1660   22.9150  -30.1600 C   0  0  0  0  0  0  0  0  0  0  0  0
   -1.5410   23.9870  -29.2610 C   0  0  0  0  0  0  0  0  0  0  0  0
   -2.4280   24.2490  -28.1190 N   0  0  0  0  0  0  0  0  0  0  0  0
   -1.8940   24.7220  -26.8630 C   0  0  0  0  0  0  0  0  0  0  0  0
   -1.0060   23.9240  -26.1160 C   0  0  0  0  0  0  0  0  0  0  0  0
   -0.4900   24.3860  -24.9000 C   0  0  0  0  0  0  0  0  0  0  0  0
   -0.8540   25.6450  -24.4170 C   0  0  0  0  0  0  0  0  0  0  0  0
   -0.3510   26.0890  -23.2390 F   0  0  0  0  0  0  0  0  0  0  0  0
   -1.7340   26.4450  -25.1490 C   0  0  0  0  0  0  0  0  0  0  0  0
   -2.2530   25.9890  -26.3640 C   0  0  0  0  0  0  0  0  0  0  0  0
   -3.8680   24.0130  -28.2830 C   0  0  0  0  0  0  0  0  0  0  0  0
   -4.2590   24.2010  -29.7550 C   0  0  0  0  0  0  0  0  0  0  0  0
   -2.7970   21.6380  -33.0810 C   0  0  0  0  0  0  0  0  0  0  0  0
   -2.1490   20.7470  -33.9430 C   0  0  0  0  0  0  0  0  0  0  0  0
   -3.2275   17.7983  -32.6005 H   0  0  0  0  0  0  0  0  0  0  0  0
   -4.3824   19.3786  -31.0619 H   0  0  0  0  0  0  0  0  0  0  0  0
   -4.5556   21.6327  -30.1822 H   0  0  0  0  0  0  0  0  0  0  0  0
   -5.0700   24.5500  -32.4310 H   0  0  0  0  0  0  0  0  0  0  0  0
   -6.7779   20.3885  -30.4061 H   0  0  0  0  0  0  0  0  0  0  0  0
   -8.3503   20.5971  -31.2838 H   0  0  0  0  0  0  0  0  0  0  0  0
   -7.1801   17.9061  -30.9629 H   0  0  0  0  0  0  0  0  0  0  0  0
   -6.4811   16.1408  -32.5853 H   0  0  0  0  0  0  0  0  0  0  0  0
   -5.7752   16.7738  -34.8943 H   0  0  0  0  0  0  0  0  0  0  0  0
   -5.7969   19.1685  -35.5968 H   0  0  0  0  0  0  0  0  0  0  0  0
   -6.5010   20.9388  -33.9851 H   0  0  0  0  0  0  0  0  0  0  0  0
   -2.2793   21.9893  -29.5768 H   0  0  0  0  0  0  0  0  0  0  0  0
   -1.4975   22.7742  -31.0222 H   0  0  0  0  0  0  0  0  0  0  0  0
   -0.5658   23.6344  -28.8941 H   0  0  0  0  0  0  0  0  0  0  0  0
   -1.4035   24.9136  -29.8377 H   0  0  0  0  0  0  0  0  0  0  0  0
   -0.7162   22.9312  -26.4907 H   0  0  0  0  0  0  0  0  0  0  0  0
    0.2036   23.7564  -24.3234 H   0  0  0  0  0  0  0  0  0  0  0  0
   -2.0195   27.4368  -24.7683 H   0  0  0  0  0  0  0  0  0  0  0  0
   -2.9467   26.6242  -26.9344 H   0  0  0  0  0  0  0  0  0  0  0  0
   -4.1083   22.9865  -27.9692 H   0  0  0  0  0  0  0  0  0  0  0  0
   -4.4273   24.7294  -27.6633 H   0  0  0  0  0  0  0  0  0  0  0  0
   -5.3322   23.9842  -29.8614 H   0  0  0  0  0  0  0  0  0  0  0  0
   -4.0165   25.2391  -30.0261 H   0  0  0  0  0  0  0  0  0  0  0  0
   -2.6691   22.7215  -33.2210 H   0  0  0  0  0  0  0  0  0  0  0  0
   -1.5165   21.1317  -34.7566 H   0  0  0  0  0  0  0  0  0  0  0  0
  1  2  1  0
  2  3  2  0
  3  4  1  0
  4  5  2  0
  5  6  1  0
  6  7  1  0
  7  8  2  0
  8  9  1  0
  9 10  2  0
 10 11  1  0
 11 12  1  0
 12 13  1  0
 13 14  2  0
 14 15  1  0
 15 16  2  0
 16 17  1  0
 17 18  2  0
  6 19  1  0
 19 20  1  0
 20 21  1  0
 21 22  1  0
 22 23  1  0
 23 24  2  0
 24 25  1  0
 25 26  2  0
 26 27  1  0
 26 28  1  0
 28 29  2  0
 22 30  1  0
 30 31  1  0
  5 32  1  0
 32 33  2  0
 33  2  1  0
 11  7  1  0
 18 13  1  0
 31 19  1  0
 29 23  1  0
  3 34  1  0
  4 35  1  0
  6 36  1  1
  8 37  1  0
 12 38  1  0
 12 39  1  0
 14 40  1  0
 15 41  1  0
 16 42  1  0
 17 43  1  0
 18 44  1  0
 20 45  1  0
 20 46  1  0
 21 47  1  0
 21 48  1  0
 24 49  1  0
 25 50  1  0
 28 51  1  0
 29 52  1  0
 30 53  1  0
 30 54  1  0
 31 55  1  0
 31 56  1  0
 32 57  1  0
 33 58  1  0
M  CHG  1   8   1
M  END
>  <UniqueID>  (39) 
35

>  <SMILES>  (39) 
Fc1ccc([C@H](c2[nH+]nnn2Cc2ccccc2)N2CCN(c3ccc(F)cc3)CC2)cc1

>  <Energy>  (39) 
121.7845997434602

>  <Genealogy>  (39) 
Fc1ccc(C(c2[nH+]nnn2Cc2ccccc2)N2CCN(c3ccc(F)cc3)CC2)cc1 (protonated)
Fc1ccc([C@H](c2[nH+]nnn2Cc2ccccc2)N2CCN(c3ccc(F)cc3)CC2)cc1 (chirality)
Fc1ccc([C@H](c2[nH+]nnn2Cc2ccccc2)N2CCN(c3ccc(F)cc3)CC2)cc1 (3D coordinates assigned)
Fc1ccc([C@H](c2[nH+]nnn2Cc2ccccc2)N2CCN(c3ccc(F)cc3)CC2)cc1 (nonaromatic ring conformer: 121.7845997434602 kcal/mol)

>  <smiles>  (39) 
Fc1ccc(C(c2nnnn2Cc2ccccc2)N2CCN(c3ccc(F)cc3)CC2)cc1

>  <score_type>  (39) 
oracle

>  <origin>  (39) 
adg

>  <m_score__min__energy>  (39) 
-9.25

>  <m_primary>  (39) 
energy

$$$$
39:0
     RDKit          3D

 59 63  0  0  0  0  0  0  0  0999 V2000
   -4.3280   24.1570  -28.6270 C   0  0  0  0  0  0  0  0  0  0  0  0
   -4.2640   24.2270  -30.4020 S   0  0  0  0  0  0  0  0  0  0  0  0
   -4.2640   25.6630  -30.8460 O   0  0  0  0  0  0  0  0  0  0  0  0
   -3.0020   23.5710  -30.8880 O   0  0  0  0  0  0  0  0  0  0  0  0
   -5.6610   23.3880  -31.0700 C   0  0  0  0  0  0  0  0  0  0  0  0
   -6.8880   24.0510  -31.2040 C   0  0  0  0  0  0  0  0  0  0  0  0
   -7.9950   23.3760  -31.7260 C   0  0  0  0  0  0  0  0  0  0  0  0
   -7.8850   22.0380  -32.1100 C   0  0  0  0  0  0  0  0  0  0  0  0
   -6.6630   21.3550  -31.9750 C   0  0  0  0  0  0  0  0  0  0  0  0
   -6.5530   19.9290  -32.3740 C   0  0  0  0  0  0  0  0  0  0  0  0
   -7.7060   19.1580  -32.5960 C   0  0  0  0  0  0  0  0  0  0  0  0
   -7.5880   17.8590  -32.9740 N   0  0  0  0  0  0  0  0  0  0  0  0
   -6.3710   17.2820  -33.1430 C   0  0  0  0  0  0  0  0  0  0  0  0
   -6.2690   15.9450  -33.5320 C   0  0  0  0  0  0  0  0  0  0  0  0
   -5.0110   15.3590  -33.7040 C   0  0  0  0  0  0  0  0  0  0  0  0
   -3.8390   16.1060  -33.4870 C   0  0  0  0  0  0  0  0  0  0  0  0
   -2.5390   15.5000  -33.6630 N   0  0  0  0  0  0  0  0  0  0  0  0
   -1.6670   15.2380  -32.5060 C   0  0  0  0  0  0  0  0  0  0  0  0
   -0.5800   16.3120  -32.3740 C   0  0  0  0  0  0  0  0  0  0  0  0
   -1.1470   17.5930  -32.0920 O   0  0  0  0  0  0  0  0  0  0  0  0
   -0.9240   18.7660  -32.8310 C   0  0  0  0  0  0  0  0  0  0  0  0
    0.0950   18.8730  -33.7980 C   0  0  0  0  0  0  0  0  0  0  0  0
    0.2630   20.0610  -34.5160 C   0  0  0  0  0  0  0  0  0  0  0  0
   -0.5750   21.1510  -34.2710 C   0  0  0  0  0  0  0  0  0  0  0  0
   -1.5800   21.0570  -33.3060 C   0  0  0  0  0  0  0  0  0  0  0  0
   -1.7530   19.8710  -32.5860 C   0  0  0  0  0  0  0  0  0  0  0  0
   -2.7400   19.7850  -31.6610 F   0  0  0  0  0  0  0  0  0  0  0  0
   -1.9900   15.3260  -35.0140 C   0  0  0  0  0  0  0  0  0  0  0  0
   -2.8620   15.9100  -36.1160 C   0  0  0  0  0  0  0  0  0  0  0  0
   -1.5920   16.6260  -35.6970 C   0  0  0  0  0  0  0  0  0  0  0  0
   -3.9480   17.4540  -33.0950 C   0  0  0  0  0  0  0  0  0  0  0  0
   -5.2080   18.0450  -32.9230 C   0  0  0  0  0  0  0  0  0  0  0  0
   -5.3260   19.3490  -32.5430 N   0  0  0  0  0  0  0  0  0  0  0  0
   -5.5520   22.0440  -31.4510 C   0  0  0  0  0  0  0  0  0  0  0  0
   -3.6424   24.9069  -28.2055 H   0  0  0  0  0  0  0  0  0  0  0  0
   -5.3535   24.3664  -28.2885 H   0  0  0  0  0  0  0  0  0  0  0  0
   -4.0277   23.1544  -28.2885 H   0  0  0  0  0  0  0  0  0  0  0  0
   -6.9802   25.1036  -30.8981 H   0  0  0  0  0  0  0  0  0  0  0  0
   -8.9558   23.9004  -31.8346 H   0  0  0  0  0  0  0  0  0  0  0  0
   -8.7606   21.5143  -32.5211 H   0  0  0  0  0  0  0  0  0  0  0  0
   -8.7022   19.6054  -32.4640 H   0  0  0  0  0  0  0  0  0  0  0  0
   -7.1794   15.3518  -33.7034 H   0  0  0  0  0  0  0  0  0  0  0  0
   -4.9374   14.3054  -34.0115 H   0  0  0  0  0  0  0  0  0  0  0  0
   -2.2776   15.2316  -31.5911 H   0  0  0  0  0  0  0  0  0  0  0  0
   -1.1773   14.2641  -32.6533 H   0  0  0  0  0  0  0  0  0  0  0  0
    0.1011   16.0338  -31.5563 H   0  0  0  0  0  0  0  0  0  0  0  0
   -0.0369   16.3753  -33.3285 H   0  0  0  0  0  0  0  0  0  0  0  0
    0.7610   18.0186  -33.9889 H   0  0  0  0  0  0  0  0  0  0  0  0
    1.0560   20.1371  -35.2745 H   0  0  0  0  0  0  0  0  0  0  0  0
   -0.4433   22.0841  -34.8385 H   0  0  0  0  0  0  0  0  0  0  0  0
   -2.2369   21.9177  -33.1119 H   0  0  0  0  0  0  0  0  0  0  0  0
   -1.5008   14.3575  -34.8333 H   0  0  0  0  0  0  0  0  0  0  0  0
   -2.9153   15.4135  -37.0961 H   0  0  0  0  0  0  0  0  0  0  0  0
   -3.9217   16.1926  -36.2011 H   0  0  0  0  0  0  0  0  0  0  0  0
   -0.7249   16.6485  -36.3735 H   0  0  0  0  0  0  0  0  0  0  0  0
   -1.3503   17.6424  -35.3528 H   0  0  0  0  0  0  0  0  0  0  0  0
   -3.0382   18.0478  -32.9224 H   0  0  0  0  0  0  0  0  0  0  0  0
   -4.4610   19.9070  -32.3600 H   0  0  0  0  0  0  0  0  0  0  0  0
   -4.5900   21.5223  -31.3398 H   0  0  0  0  0  0  0  0  0  0  0  0
  1  2  1  0
  2  3  2  0
  2  4  2  0
  2  5  1  0
  5  6  2  0
  6  7  1  0
  7  8  2  0
  8  9  1  0
  9 10  1  0
 10 11  2  0
 11 12  1  0
 12 13  2  0
 13 14  1  0
 14 15  2  0
 15 16  1  0
 16 17  1  0
 17 18  1  0
 18 19  1  0
 19 20  1  0
 20 21  1  0
 21 22  2  0
 22 23  1  0
 23 24  2  0
 24 25  1  0
 25 26  2  0
 26 27  1  0
 17 28  1  0
 28 29  1  0
 29 30  1  0
 16 31  2  0
 31 32  1  0
 32 33  2  0
  9 34  2  0
 34  5  1  0
 33 10  1  0
 32 13  1  0
 26 21  1  0
 30 28  1  0
  1 35  1  0
  1 36  1  0
  1 37  1  0
  6 38  1  0
  7 39  1  0
  8 40  1  0
 11 41  1  0
 14 42  1  0
 15 43  1  0
 18 44  1  0
 18 45  1  0
 19 46  1  0
 19 47  1  0
 22 48  1  0
 23 49  1  0
 24 50  1  0
 25 51  1  0
 28 52  1  0
 29 53  1  0
 29 54  1  0
 30 55  1  0
 30 56  1  0
 31 57  1  0
 33 58  1  0
 34 59  1  0
M  CHG  1  33   1
M  END
>  <UniqueID>  (40) 
36

>  <SMILES>  (40) 
CS(=O)(=O)c1cccc(-c2cnc3ccc(N(CCOc4ccccc4F)C4CC4)cc3[nH+]2)c1

>  <Energy>  (40) 
334.2690384248116

>  <Genealogy>  (40) 
CS(=O)(=O)c1cccc(-c2cnc3ccc(N(CCOc4ccccc4F)C4CC4)cc3[nH+]2)c1 (protonated)
CS(=O)(=O)c1cccc(-c2cnc3ccc(N(CCOc4ccccc4F)C4CC4)cc3[nH+]2)c1 (3D coordinates assigned)
CS(=O)(=O)c1cccc(-c2cnc3ccc(N(CCOc4ccccc4F)C4CC4)cc3[nH+]2)c1 (nonaromatic ring conformer: 334.2690384248116 kcal/mol)

>  <smiles>  (40) 
CS(=O)(=O)c1cccc(-c2cnc3ccc(N(CCOc4ccccc4F)C4CC4)cc3n2)c1

>  <score_type>  (40) 
oracle

>  <origin>  (40) 
adg

>  <m_score__min__energy>  (40) 
-8.8100000000000005

>  <m_primary>  (40) 
energy

$$$$
40:0
     RDKit          3D

 27 28  0  0  0  0  0  0  0  0999 V2000
   -9.8620   21.5690  -31.4160 C   0  0  0  0  0  0  0  0  0  0  0  0
   -9.0550   20.9810  -32.4320 O   0  0  0  0  0  0  0  0  0  0  0  0
   -7.6650   20.8130  -32.3430 C   0  0  0  0  0  0  0  0  0  0  0  0
   -7.0350   19.5860  -32.6210 C   0  0  0  0  0  0  0  0  0  0  0  0
   -5.6470   19.4680  -32.5220 C   0  0  0  0  0  0  0  0  0  0  0  0
   -4.8680   20.5740  -32.1580 C   0  0  0  0  0  0  0  0  0  0  0  0
   -5.4890   21.8030  -31.8600 C   0  0  0  0  0  0  0  0  0  0  0  0
   -6.8870   21.9130  -31.9610 C   0  0  0  0  0  0  0  0  0  0  0  0
   -4.6310   22.9470  -31.4460 C   0  0  0  0  0  0  0  0  0  0  0  0
   -5.2230   24.1680  -30.7900 C   0  0  0  0  0  0  0  0  0  0  0  0
   -4.3250   25.2460  -30.8050 O   0  0  0  0  0  0  0  0  0  0  0  0
   -3.3410   22.8810  -31.6320 N   0  0  0  0  0  0  0  0  0  0  0  0
   -2.6870   21.7670  -32.3210 C   0  0  0  0  0  0  0  0  0  0  0  0
   -3.3760   20.4370  -31.9930 C   0  0  0  0  0  0  0  0  0  0  0  0
   -9.4719   21.2848  -30.4276 H   0  0  0  0  0  0  0  0  0  0  0  0
   -9.8397   22.6640  -31.5180 H   0  0  0  0  0  0  0  0  0  0  0  0
  -10.8975   21.2122  -31.5180 H   0  0  0  0  0  0  0  0  0  0  0  0
   -7.6386   18.7156  -32.9177 H   0  0  0  0  0  0  0  0  0  0  0  0
   -5.1633   18.5024  -32.7307 H   0  0  0  0  0  0  0  0  0  0  0  0
   -7.3748   22.8733  -31.7376 H   0  0  0  0  0  0  0  0  0  0  0  0
   -6.1368   24.4564  -31.3302 H   0  0  0  0  0  0  0  0  0  0  0  0
   -5.4490   23.9215  -29.7421 H   0  0  0  0  0  0  0  0  0  0  0  0
   -3.5000   24.9250  -31.2550 H   0  0  0  0  0  0  0  0  0  0  0  0
   -2.7339   21.9382  -33.4066 H   0  0  0  0  0  0  0  0  0  0  0  0
   -1.6413   21.7122  -31.9842 H   0  0  0  0  0  0  0  0  0  0  0  0
   -3.0045   19.6569  -32.6737 H   0  0  0  0  0  0  0  0  0  0  0  0
   -3.1520   20.1618  -30.9518 H   0  0  0  0  0  0  0  0  0  0  0  0
  1  2  1  0
  2  3  1  0
  3  4  2  0
  4  5  1  0
  5  6  2  0
  6  7  1  0
  7  8  2  0
  7  9  1  0
  9 10  1  0
 10 11  1  0
  9 12  2  0
 12 13  1  0
 13 14  1  0
  8  3  1  0
 14  6  1  0
  1 15  1  0
  1 16  1  0
  1 17  1  0
  4 18  1  0
  5 19  1  0
  8 20  1  0
 10 21  1  0
 10 22  1  0
 11 23  1  0
 13 24  1  0
 13 25  1  0
 14 26  1  0
 14 27  1  0
M  END
>  <UniqueID>  (41) 
37

>  <SMILES>  (41) 
COc1ccc2c(c1)C(CO)=NCC2

>  <Energy>  (41) 
29.089815631303185

>  <Genealogy>  (41) 
COc1ccc2c(c1)C(CO)=NCC2 (3D coordinates assigned)
COc1ccc2c(c1)C(CO)=NCC2 (nonaromatic ring conformer: 29.089815631303185 kcal/mol)

>  <smiles>  (41) 
COc1ccc2c(c1)C(CO)=NCC2

>  <score_type>  (41) 
oracle

>  <origin>  (41) 
adg

>  <m_score__min__energy>  (41) 
-5.7599999999999998

>  <m_primary>  (41) 
energy

$$$$
41:0
     RDKit          3D

 71 75  0  0  0  0  0  0  0  0999 V2000
   -3.0292   21.6760  -33.9717 H   0  0  0  0  0  0  0  0  0  0  0  0
   -3.1880   21.7540  -32.8860 C   0  0  0  0  0  0  0  0  0  0  0  0
   -4.2370   22.4540  -32.4360 C   0  0  0  0  0  0  0  0  0  0  0  0
   -4.5282   23.3531  -32.9989 H   0  0  0  0  0  0  0  0  0  0  0  0
   -5.0550   22.0990  -31.2060 C   0  0  2  0  0  0  0  0  0  0  0  0
   -4.3328   21.3883  -30.7777 H   0  0  0  0  0  0  0  0  0  0  0  0
   -6.4220   21.4560  -31.4600 C   0  0  2  0  0  0  0  0  0  0  0  0
   -6.3107   20.5729  -30.8136 H   0  0  0  0  0  0  0  0  0  0  0  0
   -6.9210   20.8090  -32.7490 C   0  0  1  0  0  0  0  0  0  0  0  0
   -6.5570   21.3173  -33.6541 H   0  0  0  0  0  0  0  0  0  0  0  0
   -6.3920   19.3810  -32.9770 C   0  0  0  0  0  0  0  0  0  0  0  0
   -5.2940   19.4056  -32.9154 H   0  0  0  0  0  0  0  0  0  0  0  0
   -6.7555   19.0625  -33.9651 H   0  0  0  0  0  0  0  0  0  0  0  0
   -6.9100   18.3480  -31.9600 C   0  0  0  0  0  0  0  0  0  0  0  0
   -6.2442   18.3639  -31.0845 H   0  0  0  0  0  0  0  0  0  0  0  0
   -6.9178   17.3769  -32.4765 H   0  0  0  0  0  0  0  0  0  0  0  0
   -8.3530   18.5980  -31.4730 C   0  0  0  0  0  0  0  0  0  0  0  0
   -8.3110   19.0617  -30.4764 H   0  0  0  0  0  0  0  0  0  0  0  0
   -8.8660   17.6252  -31.4526 H   0  0  0  0  0  0  0  0  0  0  0  0
   -9.1500   19.5160  -32.4050 C   0  0  0  0  0  0  0  0  0  0  0  0
  -10.1538   19.6662  -31.9810 H   0  0  0  0  0  0  0  0  0  0  0  0
   -9.2008   19.0335  -33.3922 H   0  0  0  0  0  0  0  0  0  0  0  0
   -8.4750   20.8920  -32.5840 C   0  0  1  0  0  0  0  0  0  0  0  0
   -8.9325   21.2802  -33.5060 H   0  0  0  0  0  0  0  0  0  0  0  0
   -8.7380   21.8530  -31.3850 C   0  0  0  0  0  0  0  0  0  0  0  0
   -8.9869   21.2931  -30.4715 H   0  0  0  0  0  0  0  0  0  0  0  0
   -9.5882   22.5333  -31.5407 H   0  0  0  0  0  0  0  0  0  0  0  0
   -7.4060   22.5620  -31.2500 C   0  0  1  0  0  0  0  0  0  0  0  0
   -7.5172   23.4195  -31.9300 H   0  0  0  0  0  0  0  0  0  0  0  0
   -6.9210   23.2250  -29.9810 C   0  0  0  0  0  0  0  0  0  0  0  0
   -7.1879   22.6319  -29.0939 H   0  0  0  0  0  0  0  0  0  0  0  0
   -7.3630   24.2166  -29.8038 H   0  0  0  0  0  0  0  0  0  0  0  0
   -5.3790   23.2570  -30.1960 C   0  0  2  0  0  0  0  0  0  0  0  0
   -4.8443   23.0924  -29.2489 H   0  0  0  0  0  0  0  0  0  0  0  0
   -4.8740   24.6110  -30.6360 C   0  0  0  0  0  0  0  0  0  0  0  0
   -5.6440   25.4340  -31.2030 O   0  0  0  0  0  0  0  0  0  0  0  0
   -3.4860   24.9210  -30.4740 N   0  0  0  0  0  0  0  0  0  0  0  0
   -2.6910   24.4880  -29.3280 C   0  0  0  0  0  0  0  0  0  0  0  0
   -1.8508   25.1845  -29.1899 H   0  0  0  0  0  0  0  0  0  0  0  0
   -2.3217   23.4705  -29.5235 H   0  0  0  0  0  0  0  0  0  0  0  0
   -3.5350   24.4620  -28.0490 C   0  0  0  0  0  0  0  0  0  0  0  0
   -3.9167   23.4417  -27.8961 H   0  0  0  0  0  0  0  0  0  0  0  0
   -4.3586   25.1809  -28.1708 H   0  0  0  0  0  0  0  0  0  0  0  0
   -2.7260   24.8750  -26.8210 C   0  0  0  0  0  0  0  0  0  0  0  0
   -3.2744   24.5950  -25.9095 H   0  0  0  0  0  0  0  0  0  0  0  0
   -1.7521   24.3638  -26.8346 H   0  0  0  0  0  0  0  0  0  0  0  0
   -2.5689   25.9636  -26.8346 H   0  0  0  0  0  0  0  0  0  0  0  0
   -2.2380   21.0840  -31.9790 C   0  0  0  0  0  0  0  0  0  0  0  0
   -1.7190   19.8830  -32.3440 N   0  0  0  0  0  0  0  0  0  0  0  0
   -0.8450   19.2190  -31.5450 C   0  0  0  0  0  0  0  0  0  0  0  0
   -0.4468   18.2430  -31.8593 H   0  0  0  0  0  0  0  0  0  0  0  0
   -0.4490   19.7740  -30.3210 C   0  0  0  0  0  0  0  0  0  0  0  0
    0.4940   19.0640  -29.4220 C   0  0  0  0  0  0  0  0  0  0  0  0
    1.8740   19.3260  -29.4820 C   0  0  0  0  0  0  0  0  0  0  0  0
    2.2600   20.0511  -30.2136 H   0  0  0  0  0  0  0  0  0  0  0  0
    2.7600   18.6730  -28.6200 C   0  0  0  0  0  0  0  0  0  0  0  0
    3.8378   18.8842  -28.6808 H   0  0  0  0  0  0  0  0  0  0  0  0
    2.2810   17.7480  -27.6760 C   0  0  0  0  0  0  0  0  0  0  0  0
    3.1280   17.0750  -26.7830 O   0  0  0  0  0  0  0  0  0  0  0  0
    2.9490   15.7220  -26.3720 C   0  0  0  0  0  0  0  0  0  0  0  0
    2.9422   15.6704  -25.2732 H   0  0  0  0  0  0  0  0  0  0  0  0
    1.9930   15.3435  -26.7628 H   0  0  0  0  0  0  0  0  0  0  0  0
    3.7737   15.1079  -26.7628 H   0  0  0  0  0  0  0  0  0  0  0  0
    0.9070   17.4850  -27.6170 C   0  0  0  0  0  0  0  0  0  0  0  0
    0.5217   16.7627  -26.8823 H   0  0  0  0  0  0  0  0  0  0  0  0
    0.0210   18.1310  -28.4820 C   0  0  0  0  0  0  0  0  0  0  0  0
   -1.0549   17.9084  -28.4276 H   0  0  0  0  0  0  0  0  0  0  0  0
   -0.9750   21.0250  -29.9750 C   0  0  0  0  0  0  0  0  0  0  0  0
   -0.6792   21.4996  -29.0278 H   0  0  0  0  0  0  0  0  0  0  0  0
   -1.8490   21.6560  -30.8030 N   0  0  0  0  0  0  0  0  0  0  0  0
   -2.1980   22.6000  -30.5230 H   0  0  0  0  0  0  0  0  0  0  0  0
  1  2  1  0
  2  3  2  0
  3  4  1  0
  3  5  1  0
  5  6  1  1
  5  7  1  0
  7  8  1  1
  7  9  1  0
  9 10  1  6
  9 11  1  0
 11 12  1  0
 11 13  1  0
 11 14  1  0
 14 15  1  0
 14 16  1  0
 14 17  1  0
 17 18  1  0
 17 19  1  0
 17 20  1  0
 20 21  1  0
 20 22  1  0
 20 23  1  0
 23 24  1  6
 23 25  1  0
 25 26  1  0
 25 27  1  0
 25 28  1  0
 28 29  1  6
 28 30  1  0
 30 31  1  0
 30 32  1  0
 30 33  1  0
 33 34  1  1
 33 35  1  0
 35 36  2  0
 35 37  1  0
 37 38  1  0
 38 39  1  0
 38 40  1  0
 38 41  1  0
 41 42  1  0
 41 43  1  0
 41 44  1  0
 44 45  1  0
 44 46  1  0
 44 47  1  0
  2 48  1  0
 48 49  2  0
 49 50  1  0
 50 51  1  0
 50 52  2  0
 52 53  1  0
 53 54  2  0
 54 55  1  0
 54 56  1  0
 56 57  1  0
 56 58  2  0
 58 59  1  0
 59 60  1  0
 60 61  1  0
 60 62  1  0
 60 63  1  0
 58 64  1  0
 64 65  1  0
 64 66  2  0
 66 67  1  0
 52 68  1  0
 68 69  1  0
 68 70  2  0
 70 71  1  0
 33  5  1  0
 70 48  1  0
 28  7  1  0
 66 53  1  0
 23  9  1  0
M  CHG  2  37  -1  70   1
M  END
>  <UniqueID>  (42) 
38

>  <SMILES>  (42) 
CCC[N-]C(=O)[C@H]1C[C@@H]2CC3CCCCC3C2C1/C=C/c1ncc(-c2ccc(OC)cc2)c[nH+]1

>  <Energy>  (42) 
109.7594008318056

>  <Genealogy>  (42) 
CCC[N-]C(=O)C1CC2CC3CCCCC3C2C1C=Cc1ncc(-c2ccc(OC)cc2)c[nH+]1 (protonated)
CCC[N-]C(=O)[C@H]1C[C@@H]2CC3CCCCC3C2C1C=Cc1ncc(-c2ccc(OC)cc2)c[nH+]1 (chirality)
CCC[N-]C(=O)[C@H]1C[C@@H]2CC3CCCCC3C2C1/C=C/c1ncc(-c2ccc(OC)cc2)c[nH+]1 (cis-trans isomerization)
CCC[N-]C(=O)[C@H]1C[C@@H]2CC3CCCCC3C2C1/C=C/c1ncc(-c2ccc(OC)cc2)c[nH+]1 (3D coordinates assigned)
CCC[N-]C(=O)[C@H]1C[C@@H]2CC3CCCCC3C2C1/C=C/c1ncc(-c2ccc(OC)cc2)c[nH+]1 (nonaromatic ring conformer: 109.7594008318056 kcal/mol)

>  <smiles>  (42) 
CCCNC(=O)C1CC2CC3CCCCC3C2C1C=Cc1ncc(-c2ccc(OC)cc2)cn1

>  <score_type>  (42) 
oracle

>  <origin>  (42) 
adg

>  <m_score__min__energy>  (42) 
-12.050000000000001

>  <m_primary>  (42) 
energy

$$$$
42:0
     RDKit          3D

 43 45  0  0  0  0  0  0  0  0999 V2000
   -2.3010   24.1550  -29.2900 C   0  0  0  0  0  0  0  0  0  0  0  0
   -3.1850   24.9100  -30.0790 O   0  0  0  0  0  0  0  0  0  0  0  0
   -4.4950   24.5540  -30.2990 C   0  0  0  0  0  0  0  0  0  0  0  0
   -5.5630   25.3040  -29.8560 C   0  0  0  0  0  0  0  0  0  0  0  0
   -6.8580   24.9030  -30.1030 C   0  0  0  0  0  0  0  0  0  0  0  0
   -7.1540   23.7330  -30.8050 C   0  0  0  0  0  0  0  0  0  0  0  0
   -6.0680   22.9770  -31.2510 C   0  0  0  0  0  0  0  0  0  0  0  0
   -6.3890   21.7510  -31.9960 C   0  0  0  0  0  0  0  0  0  0  0  0
   -5.4260   20.9450  -32.5560 C   0  0  0  0  0  0  0  0  0  0  0  0
   -5.7990   19.8150  -33.2520 C   0  0  0  0  0  0  0  0  0  0  0  0
   -4.9160   18.9120  -33.8580 N   0  0  0  0  0  0  0  0  0  0  0  0
   -5.2860   17.9610  -34.8850 C   0  0  0  0  0  0  0  0  0  0  0  0
   -4.5570   16.6550  -34.7160 C   0  0  0  0  0  0  0  0  0  0  0  0
   -3.1500   16.8450  -34.7460 N   0  0  0  0  0  0  0  0  0  0  0  0
   -2.3830   15.7160  -34.3240 C   0  0  0  0  0  0  0  0  0  0  0  0
   -2.6490   18.1130  -34.3520 C   0  0  0  0  0  0  0  0  0  0  0  0
   -3.5150   18.8930  -33.4240 C   0  0  0  0  0  0  0  0  0  0  0  0
   -7.1320   19.5370  -33.3590 N   0  0  0  0  0  0  0  0  0  0  0  0
   -8.0680   20.3110  -32.8210 C   0  0  0  0  0  0  0  0  0  0  0  0
   -9.3040   19.9840  -32.9610 N   0  0  0  0  0  0  0  0  0  0  0  0
   -7.6960   21.4300  -32.1320 N   0  0  0  0  0  0  0  0  0  0  0  0
   -4.7830   23.3880  -30.9990 C   0  0  0  0  0  0  0  0  0  0  0  0
   -2.5132   24.3362  -28.2260 H   0  0  0  0  0  0  0  0  0  0  0  0
   -2.4322   23.0859  -29.5132 H   0  0  0  0  0  0  0  0  0  0  0  0
   -1.2656   24.4518  -29.5132 H   0  0  0  0  0  0  0  0  0  0  0  0
   -5.3794   26.2342  -29.2984 H   0  0  0  0  0  0  0  0  0  0  0  0
   -7.6866   25.5257  -29.7346 H   0  0  0  0  0  0  0  0  0  0  0  0
   -8.1915   23.4221  -30.9972 H   0  0  0  0  0  0  0  0  0  0  0  0
   -4.3616   21.2010  -32.4490 H   0  0  0  0  0  0  0  0  0  0  0  0
   -6.3688   17.7760  -34.8274 H   0  0  0  0  0  0  0  0  0  0  0  0
   -5.0126   18.3849  -35.8625 H   0  0  0  0  0  0  0  0  0  0  0  0
   -4.8384   16.2092  -33.7505 H   0  0  0  0  0  0  0  0  0  0  0  0
   -4.8366   15.9899  -35.5463 H   0  0  0  0  0  0  0  0  0  0  0  0
   -2.3583   15.6796  -33.2249 H   0  0  0  0  0  0  0  0  0  0  0  0
   -2.8430   14.7948  -34.7111 H   0  0  0  0  0  0  0  0  0  0  0  0
   -1.3572   15.8042  -34.7111 H   0  0  0  0  0  0  0  0  0  0  0  0
   -1.6803   17.9537  -33.8558 H   0  0  0  0  0  0  0  0  0  0  0  0
   -2.5868   18.7092  -35.2743 H   0  0  0  0  0  0  0  0  0  0  0  0
   -3.4603   18.4397  -32.4232 H   0  0  0  0  0  0  0  0  0  0  0  0
   -3.1505   19.9308  -33.4139 H   0  0  0  0  0  0  0  0  0  0  0  0
   -7.4300   18.6870  -33.8780 H   0  0  0  0  0  0  0  0  0  0  0  0
   -9.6210   19.5400  -33.8480 H   0  0  0  0  0  0  0  0  0  0  0  0
   -3.9490   22.7711  -31.3650 H   0  0  0  0  0  0  0  0  0  0  0  0
  1  2  1  0
  2  3  1  0
  3  4  2  0
  4  5  1  0
  5  6  2  0
  6  7  1  0
  7  8  1  0
  8  9  1  0
  9 10  2  0
 10 11  1  0
 11 12  1  0
 12 13  1  0
 13 14  1  0
 14 15  1  0
 14 16  1  0
 16 17  1  0
 10 18  1  0
 18 19  1  0
 19 20  2  3
 19 21  1  0
  7 22  2  0
 22  3  1  0
 21  8  2  0
 17 11  1  0
  1 23  1  0
  1 24  1  0
  1 25  1  0
  4 26  1  0
  5 27  1  0
  6 28  1  0
  9 29  1  0
 12 30  1  0
 12 31  1  0
 13 32  1  0
 13 33  1  0
 15 34  1  0
 15 35  1  0
 15 36  1  0
 16 37  1  0
 16 38  1  0
 17 39  1  0
 17 40  1  0
 18 41  1  0
 20 42  1  0
 22 43  1  0
M  END
>  <smiles>  (43) 
COc1cccc(-c2cc(N3CCN(C)CC3)[nH]c(=N)n2)c1

>  <score_type>  (43) 
oracle

>  <origin>  (43) 
adg

>  <m_score__min__energy>  (43) 
-8.0700000000000003

>  <m_primary>  (43) 
energy

$$$$
43:0
     RDKit          3D

 44 46  0  0  0  0  0  0  0  0999 V2000
   -1.7640   25.3050  -27.6310 C   0  0  0  0  0  0  0  0  0  0  0  0
   -2.1720   25.4090  -28.9910 O   0  0  0  0  0  0  0  0  0  0  0  0
   -2.7920   24.3790  -29.7120 C   0  0  0  0  0  0  0  0  0  0  0  0
   -2.1110   23.1630  -29.8540 C   0  0  0  0  0  0  0  0  0  0  0  0
   -2.6860   22.1060  -30.5640 C   0  0  0  0  0  0  0  0  0  0  0  0
   -3.9530   22.2520  -31.1450 C   0  0  0  0  0  0  0  0  0  0  0  0
   -4.5500   21.1610  -31.8640 N   0  0  0  0  0  0  0  0  0  0  0  0
   -5.6370   20.4190  -31.2180 C   0  0  0  0  0  0  0  0  0  0  0  0
   -6.4480   19.5430  -32.2190 C   0  0  0  0  0  0  0  0  0  0  0  0
   -7.3570   20.4680  -33.1070 C   0  0  0  0  0  0  0  0  0  0  0  0
   -8.7850   20.6100  -32.5620 C   0  0  0  0  0  0  0  0  0  0  0  0
   -9.4820   19.3090  -32.5220 N   0  0  0  0  0  0  0  0  0  0  0  0
   -8.6090   18.1660  -32.1840 C   0  0  0  0  0  0  0  0  0  0  0  0
   -7.3760   18.5950  -31.3800 C   0  0  0  0  0  0  0  0  0  0  0  0
   -5.5250   18.7680  -33.1160 N   0  0  0  0  0  0  0  0  0  0  0  0
   -4.7380   17.7020  -32.4540 C   0  0  0  0  0  0  0  0  0  0  0  0
   -4.6350   19.6490  -33.9110 C   0  0  0  0  0  0  0  0  0  0  0  0
   -3.9300   20.6600  -33.0600 C   0  0  0  0  0  0  0  0  0  0  0  0
   -2.8330   21.1380  -33.4590 O   0  0  0  0  0  0  0  0  0  0  0  0
   -4.6420   23.4660  -31.0050 C   0  0  0  0  0  0  0  0  0  0  0  0
   -5.8640   23.6280  -31.5700 F   0  0  0  0  0  0  0  0  0  0  0  0
   -4.0660   24.5240  -30.2950 C   0  0  0  0  0  0  0  0  0  0  0  0
   -2.6189   25.5229  -26.9740 H   0  0  0  0  0  0  0  0  0  0  0  0
   -1.4008   24.2855  -27.4341 H   0  0  0  0  0  0  0  0  0  0  0  0
   -0.9571   26.0262  -27.4341 H   0  0  0  0  0  0  0  0  0  0  0  0
   -1.1154   23.0394  -29.4028 H   0  0  0  0  0  0  0  0  0  0  0  0
   -2.1421   21.1555  -30.6674 H   0  0  0  0  0  0  0  0  0  0  0  0
   -5.2055   19.7637  -30.4470 H   0  0  0  0  0  0  0  0  0  0  0  0
   -6.3300   21.1559  -30.7859 H   0  0  0  0  0  0  0  0  0  0  0  0
   -6.8993   21.4671  -33.1546 H   0  0  0  0  0  0  0  0  0  0  0  0
   -7.4296   20.0009  -34.1003 H   0  0  0  0  0  0  0  0  0  0  0  0
   -8.7392   21.0222  -31.5432 H   0  0  0  0  0  0  0  0  0  0  0  0
   -9.3443   21.2802  -33.2314 H   0  0  0  0  0  0  0  0  0  0  0  0
  -10.2400   19.3750  -31.8020 H   0  0  0  0  0  0  0  0  0  0  0  0
   -9.1863   17.4437  -31.5882 H   0  0  0  0  0  0  0  0  0  0  0  0
   -8.2584   17.7195  -33.1262 H   0  0  0  0  0  0  0  0  0  0  0  0
   -7.7057   19.1260  -30.4748 H   0  0  0  0  0  0  0  0  0  0  0  0
   -6.8032   17.6936  -31.1164 H   0  0  0  0  0  0  0  0  0  0  0  0
   -4.8185   17.8110  -31.3624 H   0  0  0  0  0  0  0  0  0  0  0  0
   -5.1281   16.7182  -32.7540 H   0  0  0  0  0  0  0  0  0  0  0  0
   -3.6830   17.7851  -32.7540 H   0  0  0  0  0  0  0  0  0  0  0  0
   -3.8828   19.0272  -34.4184 H   0  0  0  0  0  0  0  0  0  0  0  0
   -5.2591   20.1940  -34.6345 H   0  0  0  0  0  0  0  0  0  0  0  0
   -4.6105   25.4742  -30.1913 H   0  0  0  0  0  0  0  0  0  0  0  0
  1  2  1  0
  2  3  1  0
  3  4  2  0
  4  5  1  0
  5  6  2  0
  6  7  1  0
  7  8  1  0
  8  9  1  0
  9 10  1  0
 10 11  1  0
 11 12  1  0
 12 13  1  0
 13 14  1  0
  9 15  1  0
 15 16  1  0
 15 17  1  0
 17 18  1  0
 18 19  2  0
  6 20  1  0
 20 21  1  0
 20 22  2  0
 22  3  1  0
 18  7  1  0
 14  9  1  0
  1 23  1  0
  1 24  1  0
  1 25  1  0
  4 26  1  0
  5 27  1  0
  8 28  1  0
  8 29  1  0
 10 30  1  0
 10 31  1  0
 11 32  1  0
 11 33  1  0
 12 34  1  0
 13 35  1  0
 13 36  1  0
 14 37  1  0
 14 38  1  0
 16 39  1  0
 16 40  1  0
 16 41  1  0
 17 42  1  0
 17 43  1  0
 22 44  1  0
M  END
>  <UniqueID>  (44) 
39

>  <SMILES>  (44) 
COc1ccc(N2CC3(CCNCC3)N(C)CC2=O)c(F)c1

>  <Energy>  (44) 
71.1893746063071

>  <Genealogy>  (44) 
COc1ccc(N2CC3(CCNCC3)N(C)CC2=O)c(F)c1 (3D coordinates assigned)
COc1ccc(N2CC3(CCNCC3)N(C)CC2=O)c(F)c1 (nonaromatic ring conformer: 71.1893746063071 kcal/mol)

>  <smiles>  (44) 
COc1ccc(N2CC3(CCNCC3)N(C)CC2=O)c(F)c1

>  <score_type>  (44) 
oracle

>  <origin>  (44) 
adg

>  <m_score__min__energy>  (44) 
-6.7599999999999998

>  <m_primary>  (44) 
energy

$$$$
44:0
     RDKit          3D

 37 39  0  0  0  0  0  0  0  0999 V2000
   -1.7360   25.2490  -28.0810 C   0  0  0  0  0  0  0  0  0  0  0  0
   -2.4070   25.2980  -29.3340 O   0  0  0  0  0  0  0  0  0  0  0  0
   -2.7770   24.1500  -30.0410 C   0  0  0  0  0  0  0  0  0  0  0  0
   -1.8830   23.0610  -30.1010 C   0  0  0  0  0  0  0  0  0  0  0  0
   -2.2370   21.8990  -30.8060 C   0  0  0  0  0  0  0  0  0  0  0  0
   -3.4800   21.8610  -31.4340 C   0  0  0  0  0  0  0  0  0  0  0  0
   -4.3290   22.9550  -31.3480 C   0  0  0  0  0  0  0  0  0  0  0  0
   -3.9910   24.0770  -30.6680 N   0  0  0  0  0  0  0  0  0  0  0  0
   -5.7710   22.6720  -32.1820 S   0  0  0  0  0  0  0  0  0  0  0  0
   -5.2990   21.1170  -32.6630 C   0  0  0  0  0  0  0  0  0  0  0  0
   -5.9870   20.1800  -33.4230 C   0  0  0  0  0  0  0  0  0  0  0  0
   -7.1440   20.4410  -33.8530 O   0  0  0  0  0  0  0  0  0  0  0  0
   -5.3830   18.9730  -33.6890 N   0  0  0  0  0  0  0  0  0  0  0  0
   -6.0790   17.9340  -34.4640 C   0  0  0  0  0  0  0  0  0  0  0  0
   -6.4320   16.7430  -33.5500 C   0  0  0  0  0  0  0  0  0  0  0  0
   -7.1440   17.1150  -32.3070 N   0  0  0  0  0  0  0  0  0  0  0  0
   -6.2340   17.4490  -31.2000 C   0  0  0  0  0  0  0  0  0  0  0  0
   -8.1450   18.1740  -32.5110 C   0  0  0  0  0  0  0  0  0  0  0  0
   -4.1310   18.7020  -33.1830 C   0  0  0  0  0  0  0  0  0  0  0  0
   -3.4600   19.6260  -32.4360 N   0  0  0  0  0  0  0  0  0  0  0  0
   -4.0380   20.8230  -32.1810 C   0  0  0  0  0  0  0  0  0  0  0  0
   -2.4743   25.3029  -27.2674 H   0  0  0  0  0  0  0  0  0  0  0  0
   -1.1728   24.3073  -28.0033 H   0  0  0  0  0  0  0  0  0  0  0  0
   -1.0420   26.0989  -28.0033 H   0  0  0  0  0  0  0  0  0  0  0  0
   -0.9080   23.1217  -29.5954 H   0  0  0  0  0  0  0  0  0  0  0  0
   -1.5506   21.0412  -30.8609 H   0  0  0  0  0  0  0  0  0  0  0  0
   -7.0028   18.3537  -34.8888 H   0  0  0  0  0  0  0  0  0  0  0  0
   -5.4211   17.5856  -35.2738 H   0  0  0  0  0  0  0  0  0  0  0  0
   -7.0709   16.0510  -34.1183 H   0  0  0  0  0  0  0  0  0  0  0  0
   -5.4778   16.2911  -33.2414 H   0  0  0  0  0  0  0  0  0  0  0  0
   -6.7397   17.2634  -30.2409 H   0  0  0  0  0  0  0  0  0  0  0  0
   -5.3315   16.8235  -31.2658 H   0  0  0  0  0  0  0  0  0  0  0  0
   -5.9505   18.5098  -31.2658 H   0  0  0  0  0  0  0  0  0  0  0  0
   -8.4932   18.5424  -31.5348 H   0  0  0  0  0  0  0  0  0  0  0  0
   -7.6924   19.0026  -33.0754 H   0  0  0  0  0  0  0  0  0  0  0  0
   -8.9978   17.7687  -33.0754 H   0  0  0  0  0  0  0  0  0  0  0  0
   -3.6650   17.7261  -33.3841 H   0  0  0  0  0  0  0  0  0  0  0  0
  1  2  1  0
  2  3  1  0
  3  4  2  0
  4  5  1  0
  5  6  2  0
  6  7  1  0
  7  8  2  0
  7  9  1  0
  9 10  1  0
 10 11  1  0
 11 12  2  0
 11 13  1  0
 13 14  1  0
 14 15  1  0
 15 16  1  0
 16 17  1  0
 16 18  1  0
 13 19  1  0
 19 20  2  0
 20 21  1  0
  8  3  1  0
 21 10  2  0
 21  6  1  0
  1 22  1  0
  1 23  1  0
  1 24  1  0
  4 25  1  0
  5 26  1  0
 14 27  1  0
 14 28  1  0
 15 29  1  0
 15 30  1  0
 17 31  1  0
 17 32  1  0
 17 33  1  0
 18 34  1  0
 18 35  1  0
 18 36  1  0
 19 37  1  0
M  END
>  <UniqueID>  (45) 
40

>  <SMILES>  (45) 
COc1ccc2c(n1)sc1c(=O)n(CCN(C)C)cnc12

>  <Energy>  (45) 
79.64335986108851

>  <Genealogy>  (45) 
COc1ccc2c(n1)sc1c(=O)n(CCN(C)C)cnc12 (3D coordinates assigned)
COc1ccc2c(n1)sc1c(=O)n(CCN(C)C)cnc12 (optimized conformer: 79.64335986108851 kcal/mol)

>  <smiles>  (45) 
COc1ccc2c(n1)sc1c(=O)n(CCN(C)C)cnc12

>  <score_type>  (45) 
oracle

>  <origin>  (45) 
adg

>  <m_score__min__energy>  (45) 
-6.9100000000000001

>  <m_primary>  (45) 
energy

$$$$
45:0
     RDKit          3D

 40 42  0  0  0  0  0  0  0  0999 V2000
   -4.1400   17.7560  -34.5260 C   0  0  0  0  0  0  0  0  0  0  0  0
   -4.7890   18.7360  -33.6390 N   0  0  0  0  0  0  0  0  0  0  0  0
   -3.9120   19.9210  -33.4900 C   0  0  0  0  0  0  0  0  0  0  0  0
   -4.5250   20.9330  -32.5730 C   0  0  0  0  0  0  0  0  0  0  0  0
   -4.7780   22.2090  -32.9060 N   0  0  0  0  0  0  0  0  0  0  0  0
   -5.3000   22.7090  -31.7710 C   0  0  0  0  0  0  0  0  0  0  0  0
   -5.6800   24.1450  -31.5790 C   0  0  0  0  0  0  0  0  0  0  0  0
   -4.6190   24.8720  -30.9610 O   0  0  0  0  0  0  0  0  0  0  0  0
   -3.9830   24.5130  -29.7600 C   0  0  0  0  0  0  0  0  0  0  0  0
   -2.6240   24.1500  -29.6990 C   0  0  0  0  0  0  0  0  0  0  0  0
   -2.0440   23.7970  -28.4750 C   0  0  0  0  0  0  0  0  0  0  0  0
   -2.8110   23.8050  -27.3080 C   0  0  0  0  0  0  0  0  0  0  0  0
   -4.1600   24.1660  -27.3610 C   0  0  0  0  0  0  0  0  0  0  0  0
   -4.7420   24.5200  -28.5820 C   0  0  0  0  0  0  0  0  0  0  0  0
   -5.3570   21.7800  -30.7950 N   0  0  0  0  0  0  0  0  0  0  0  0
   -4.8770   20.6970  -31.3320 O   0  0  0  0  0  0  0  0  0  0  0  0
   -6.1220   19.0950  -34.1790 C   0  0  0  0  0  0  0  0  0  0  0  0
   -7.1470   19.1220  -33.0870 C   0  0  0  0  0  0  0  0  0  0  0  0
   -7.8930   20.2280  -32.6990 C   0  0  0  0  0  0  0  0  0  0  0  0
   -8.7870   19.9490  -31.6570 C   0  0  0  0  0  0  0  0  0  0  0  0
   -8.7390   18.6310  -31.2200 C   0  0  0  0  0  0  0  0  0  0  0  0
   -7.5860   17.8130  -32.1280 S   0  0  0  0  0  0  0  0  0  0  0  0
   -3.6335   16.9911  -33.9190 H   0  0  0  0  0  0  0  0  0  0  0  0
   -4.8997   17.2765  -35.1608 H   0  0  0  0  0  0  0  0  0  0  0  0
   -3.4020   18.2683  -35.1608 H   0  0  0  0  0  0  0  0  0  0  0  0
   -2.9438   19.6018  -33.0770 H   0  0  0  0  0  0  0  0  0  0  0  0
   -3.7769   20.3824  -34.4794 H   0  0  0  0  0  0  0  0  0  0  0  0
   -4.5890   22.6980  -33.8110 H   0  0  0  0  0  0  0  0  0  0  0  0
   -5.9016   24.5934  -32.5587 H   0  0  0  0  0  0  0  0  0  0  0  0
   -6.5651   24.1913  -30.9275 H   0  0  0  0  0  0  0  0  0  0  0  0
   -2.0163   24.1438  -30.6159 H   0  0  0  0  0  0  0  0  0  0  0  0
   -0.9822   23.5128  -28.4322 H   0  0  0  0  0  0  0  0  0  0  0  0
   -2.3533   23.5272  -26.3471 H   0  0  0  0  0  0  0  0  0  0  0  0
   -4.7642   24.1717  -26.4418 H   0  0  0  0  0  0  0  0  0  0  0  0
   -5.8035   24.8061  -28.6182 H   0  0  0  0  0  0  0  0  0  0  0  0
   -6.0663   20.0892  -34.6463 H   0  0  0  0  0  0  0  0  0  0  0  0
   -6.4173   18.3395  -34.9220 H   0  0  0  0  0  0  0  0  0  0  0  0
   -7.7921   21.2206  -33.1623 H   0  0  0  0  0  0  0  0  0  0  0  0
   -9.4629   20.7021  -31.2257 H   0  0  0  0  0  0  0  0  0  0  0  0
   -9.3517   18.1969  -30.4162 H   0  0  0  0  0  0  0  0  0  0  0  0
  1  2  1  0
  2  3  1  0
  3  4  1  0
  4  5  2  0
  5  6  1  0
  6  7  1  0
  7  8  1  0
  8  9  1  0
  9 10  2  0
 10 11  1  0
 11 12  2  0
 12 13  1  0
 13 14  2  0
  6 15  2  0
 15 16  1  0
  2 17  1  0
 17 18  1  0
 18 19  2  0
 19 20  1  0
 20 21  2  0
 21 22  1  0
 16  4  1  0
 22 18  1  0
 14  9  1  0
  1 23  1  0
  1 24  1  0
  1 25  1  0
  3 26  1  0
  3 27  1  0
  5 28  1  0
  7 29  1  0
  7 30  1  0
 10 31  1  0
 11 32  1  0
 12 33  1  0
 13 34  1  0
 14 35  1  0
 17 36  1  0
 17 37  1  0
 19 38  1  0
 20 39  1  0
 21 40  1  0
M  CHG  1   5   1
M  END
>  <UniqueID>  (46) 
41

>  <SMILES>  (46) 
CN(Cc1[nH+]c(COc2ccccc2)no1)Cc1cccs1

>  <Energy>  (46) 
99.42028259563642

>  <Genealogy>  (46) 
CN(Cc1[nH+]c(COc2ccccc2)no1)Cc1cccs1 (protonated)
CN(Cc1[nH+]c(COc2ccccc2)no1)Cc1cccs1 (3D coordinates assigned)
CN(Cc1[nH+]c(COc2ccccc2)no1)Cc1cccs1 (optimized conformer: 99.42028259563642 kcal/mol)

>  <smiles>  (46) 
CN(Cc1nc(COc2ccccc2)no1)Cc1cccs1

>  <score_type>  (46) 
oracle

>  <origin>  (46) 
adg

>  <m_score__min__energy>  (46) 
-7.4400000000000004

>  <m_primary>  (46) 
energy

$$$$
46:0
     RDKit          3D

 53 56  0  0  0  0  0  0  0  0999 V2000
   -4.1560   25.6650  -31.6600 H   0  0  0  0  0  0  0  0  0  0  0  0
   -3.9100   25.3580  -30.7280 O   0  0  0  0  0  0  0  0  0  0  0  0
   -3.7980   24.0220  -30.3780 N   0  0  0  0  0  0  0  0  0  0  0  0
   -2.8300   23.6040  -29.4970 C   0  0  0  0  0  0  0  0  0  0  0  0
   -2.5810   22.2280  -29.3190 C   0  0  0  0  0  0  0  0  0  0  0  0
   -3.5090   21.3030  -29.8220 C   0  0  0  0  0  0  0  0  0  0  0  0
   -3.4270   20.0870  -29.4970 O   0  0  0  0  0  0  0  0  0  0  0  0
   -4.5470   21.7400  -30.6590 C   0  0  0  0  0  0  0  0  0  0  0  0
   -5.4640   20.8310  -31.2220 C   0  0  0  0  0  0  0  0  0  0  0  0
   -5.3850   19.7592  -30.9876 H   0  0  0  0  0  0  0  0  0  0  0  0
   -6.4730   21.2820  -32.0760 C   0  0  0  0  0  0  0  0  0  0  0  0
   -7.6050   20.1390  -32.7760 Cl  0  0  0  0  0  0  0  0  0  0  0  0
   -6.5790   22.6390  -32.3760 C   0  0  0  0  0  0  0  0  0  0  0  0
   -7.3715   22.9900  -33.0533 H   0  0  0  0  0  0  0  0  0  0  0  0
   -5.6830   23.5550  -31.8200 C   0  0  0  0  0  0  0  0  0  0  0  0
   -5.7754   24.6239  -32.0629 H   0  0  0  0  0  0  0  0  0  0  0  0
   -4.6610   23.1220  -30.9500 C   0  0  0  0  0  0  0  0  0  0  0  0
   -1.4070   21.8250  -28.4860 C   0  0  0  0  0  0  0  0  0  0  0  0
   -0.5370   20.9240  -28.8540 N   0  0  0  0  0  0  0  0  0  0  0  0
    0.1760   20.7920  -30.1260 C   0  0  0  0  0  0  0  0  0  0  0  0
    1.0128   20.0894  -29.9994 H   0  0  0  0  0  0  0  0  0  0  0  0
    0.5501   21.7822  -30.4254 H   0  0  0  0  0  0  0  0  0  0  0  0
   -0.7660   20.2640  -31.2290 C   0  0  0  0  0  0  0  0  0  0  0  0
   -1.7464   20.0623  -30.7728 H   0  0  0  0  0  0  0  0  0  0  0  0
   -0.2835   19.3657  -31.6416 H   0  0  0  0  0  0  0  0  0  0  0  0
   -0.9710   21.1860  -32.3710 N   0  0  0  0  0  0  0  0  0  0  0  0
   -2.2890   21.0430  -33.0060 C   0  0  0  0  0  0  0  0  0  0  0  0
   -3.0631   20.9590  -32.2291 H   0  0  0  0  0  0  0  0  0  0  0  0
   -2.4919   21.9244  -33.6321 H   0  0  0  0  0  0  0  0  0  0  0  0
   -2.2982   20.1386  -33.6321 H   0  0  0  0  0  0  0  0  0  0  0  0
    0.1130   21.1270  -33.3650 C   0  0  0  0  0  0  0  0  0  0  0  0
    1.0823   21.0742  -32.8477 H   0  0  0  0  0  0  0  0  0  0  0  0
   -0.0154   20.2345  -33.9951 H   0  0  0  0  0  0  0  0  0  0  0  0
    0.0822   22.0282  -33.9951 H   0  0  0  0  0  0  0  0  0  0  0  0
   -1.0520   22.6630  -27.2820 C   0  0  0  0  0  0  0  0  0  0  0  0
   -1.2769   22.0860  -26.3729 H   0  0  0  0  0  0  0  0  0  0  0  0
    0.0176   22.9100  -27.3525 H   0  0  0  0  0  0  0  0  0  0  0  0
   -1.8360   23.9930  -27.2300 C   0  0  1  0  0  0  0  0  0  0  0  0
   -2.8317   23.7726  -26.8175 H   0  0  0  0  0  0  0  0  0  0  0  0
   -1.1680   24.9900  -26.3010 C   0  0  0  0  0  0  0  0  0  0  0  0
   -0.7360   24.5830  -25.0270 C   0  0  0  0  0  0  0  0  0  0  0  0
   -0.8881   23.5419  -24.7061 H   0  0  0  0  0  0  0  0  0  0  0  0
   -0.1150   25.4900  -24.1650 C   0  0  0  0  0  0  0  0  0  0  0  0
    0.2174   25.1600  -23.1697 H   0  0  0  0  0  0  0  0  0  0  0  0
    0.0860   26.8160  -24.5620 C   0  0  0  0  0  0  0  0  0  0  0  0
    0.8710   27.9290  -23.4490 Cl  0  0  0  0  0  0  0  0  0  0  0  0
   -0.3370   27.2350  -25.8330 C   0  0  0  0  0  0  0  0  0  0  0  0
   -0.0990   28.8920  -26.3740 Cl  0  0  0  0  0  0  0  0  0  0  0  0
   -0.9580   26.3240  -26.6960 C   0  0  0  0  0  0  0  0  0  0  0  0
   -1.2850   26.6545  -27.6929 H   0  0  0  0  0  0  0  0  0  0  0  0
   -2.0520   24.5850  -28.6420 C   0  0  0  0  0  0  0  0  0  0  0  0
   -2.6159   25.5260  -28.5611 H   0  0  0  0  0  0  0  0  0  0  0  0
   -1.0745   24.7774  -29.1084 H   0  0  0  0  0  0  0  0  0  0  0  0
  1  2  1  0
  2  3  1  0
  3  4  1  0
  4  5  2  0
  5  6  1  0
  6  7  2  0
  6  8  1  0
  8  9  2  0
  9 10  1  0
  9 11  1  0
 11 12  1  0
 11 13  2  0
 13 14  1  0
 13 15  1  0
 15 16  1  0
 15 17  2  0
  5 18  1  0
 18 19  2  0
 19 20  1  0
 20 21  1  0
 20 22  1  0
 20 23  1  0
 23 24  1  0
 23 25  1  0
 23 26  1  0
 26 27  1  0
 27 28  1  0
 27 29  1  0
 27 30  1  0
 26 31  1  0
 31 32  1  0
 31 33  1  0
 31 34  1  0
 18 35  1  0
 35 36  1  0
 35 37  1  0
 35 38  1  0
 38 39  1  1
 38 40  1  0
 40 41  2  0
 41 42  1  0
 41 43  1  0
 43 44  1  0
 43 45  2  0
 45 46  1  0
 45 47  1  0
 47 48  1  0
 47 49  2  0
 49 50  1  0
 38 51  1  0
 51 52  1  0
 51 53  1  0
 17  3  1  0
 49 40  1  0
 51  4  1  0
 17  8  1  0
M  END
>  <UniqueID>  (47) 
42

>  <SMILES>  (47) 
CN(C)CC/N=C1/C[C@@H](c2ccc(Cl)c(Cl)c2)Cc2c1c(=O)c1cc(Cl)ccc1n2O

>  <Energy>  (47) 
86.91425710272279

>  <Genealogy>  (47) 
CN(C)CCN=C1C[C@@H](c2ccc(Cl)c(Cl)c2)Cc2c1c(=O)c1cc(Cl)ccc1n2O (chirality)
CN(C)CC/N=C1/C[C@@H](c2ccc(Cl)c(Cl)c2)Cc2c1c(=O)c1cc(Cl)ccc1n2O (cis-trans isomerization)
CN(C)CC/N=C1/C[C@@H](c2ccc(Cl)c(Cl)c2)Cc2c1c(=O)c1cc(Cl)ccc1n2O (3D coordinates assigned)
CN(C)CC/N=C1/C[C@@H](c2ccc(Cl)c(Cl)c2)Cc2c1c(=O)c1cc(Cl)ccc1n2O (nonaromatic ring conformer: 86.91425710272279 kcal/mol)

>  <smiles>  (47) 
CN(C)CCN=C1CC(c2ccc(Cl)c(Cl)c2)Cc2c1c(=O)c1cc(Cl)ccc1n2O

>  <score_type>  (47) 
oracle

>  <origin>  (47) 
adg

>  <m_score__min__energy>  (47) 
-10.029999999999999

>  <m_primary>  (47) 
energy

$$$$
47:0
     RDKit          3D

 42 43  0  0  0  0  0  0  0  0999 V2000
   -7.8847   19.2214  -33.2841 H   0  0  0  0  0  0  0  0  0  0  0  0
   -8.4630   19.9580  -32.7070 C   0  0  0  0  0  0  0  0  0  0  0  0
   -9.4950   20.1996  -33.0012 H   0  0  0  0  0  0  0  0  0  0  0  0
   -7.9120   20.5590  -31.6490 C   0  0  0  0  0  0  0  0  0  0  0  0
   -6.8794   20.3115  -31.3618 H   0  0  0  0  0  0  0  0  0  0  0  0
   -8.6830   21.5690  -30.8450 C   0  0  0  0  0  0  0  0  0  0  0  0
   -9.5881   21.8568  -31.4000 H   0  0  0  0  0  0  0  0  0  0  0  0
   -8.9536   21.1183  -29.8788 H   0  0  0  0  0  0  0  0  0  0  0  0
   -7.8740   22.7610  -30.5960 N   0  0  0  0  0  0  0  0  0  0  0  0
   -6.9320   23.2320  -31.3670 C   0  0  0  0  0  0  0  0  0  0  0  0
   -5.5670   23.3990  -30.8060 C   0  0  0  0  0  0  0  0  0  0  0  0
   -4.4550   22.8530  -31.4730 C   0  0  0  0  0  0  0  0  0  0  0  0
   -4.5990   22.3055  -32.4162 H   0  0  0  0  0  0  0  0  0  0  0  0
   -3.1680   23.0010  -30.9460 C   0  0  0  0  0  0  0  0  0  0  0  0
   -2.3050   22.5830  -31.4850 H   0  0  0  0  0  0  0  0  0  0  0  0
   -2.9710   23.6800  -29.7330 C   0  0  0  0  0  0  0  0  0  0  0  0
   -1.6530   23.8680  -29.1870 N   0  0  0  0  0  0  0  0  0  0  0  0
   -0.8460   23.4570  -29.7090 H   0  0  0  0  0  0  0  0  0  0  0  0
   -1.3720   24.5840  -27.9730 C   0  0  0  0  0  0  0  0  0  0  0  0
   -1.1390   25.9700  -27.9780 C   0  0  0  0  0  0  0  0  0  0  0  0
   -1.1924   26.5295  -28.9236 H   0  0  0  0  0  0  0  0  0  0  0  0
   -0.8400   26.6420  -26.7900 C   0  0  0  0  0  0  0  0  0  0  0  0
   -0.6707   27.7288  -26.8053 H   0  0  0  0  0  0  0  0  0  0  0  0
   -0.7540   25.9400  -25.5760 C   0  0  0  0  0  0  0  0  0  0  0  0
   -0.4320   26.6590  -24.3170 C   0  0  0  0  0  0  0  0  0  0  0  0
    0.4280   26.0490  -23.3460 N   0  0  0  0  0  0  0  0  0  0  0  0
    0.7580   25.0650  -23.4610 H   0  0  0  0  0  0  0  0  0  0  0  0
    0.6990   26.5600  -22.4770 H   0  0  0  0  0  0  0  0  0  0  0  0
   -0.9170   27.8440  -24.0880 N   0  0  0  0  0  0  0  0  0  0  0  0
   -1.9130   28.0640  -24.3110 H   0  0  0  0  0  0  0  0  0  0  0  0
   -0.3420   28.5990  -23.6530 H   0  0  0  0  0  0  0  0  0  0  0  0
   -0.9620   24.5490  -25.5770 C   0  0  0  0  0  0  0  0  0  0  0  0
   -0.8888   23.9849  -24.6355 H   0  0  0  0  0  0  0  0  0  0  0  0
   -1.2610   23.8790  -26.7660 C   0  0  0  0  0  0  0  0  0  0  0  0
   -1.4106   22.7893  -26.7552 H   0  0  0  0  0  0  0  0  0  0  0  0
   -4.0750   24.2360  -29.0740 C   0  0  0  0  0  0  0  0  0  0  0  0
   -3.9275   24.7927  -28.1368 H   0  0  0  0  0  0  0  0  0  0  0  0
   -5.3630   24.0890  -29.5980 C   0  0  0  0  0  0  0  0  0  0  0  0
   -6.2229   24.5163  -29.0613 H   0  0  0  0  0  0  0  0  0  0  0  0
   -7.1920   23.5650  -32.7410 N   0  0  0  0  0  0  0  0  0  0  0  0
   -8.1550   23.5610  -33.1430 H   0  0  0  0  0  0  0  0  0  0  0  0
   -6.4090   23.7700  -33.3990 H   0  0  0  0  0  0  0  0  0  0  0  0
  1  2  1  0
  2  3  1  0
  2  4  2  0
  4  5  1  0
  4  6  1  0
  6  7  1  0
  6  8  1  0
  6  9  1  0
  9 10  2  0
 10 11  1  0
 11 12  2  0
 12 13  1  0
 12 14  1  0
 14 15  1  0
 14 16  2  0
 16 17  1  0
 17 18  1  0
 17 19  1  0
 19 20  2  0
 20 21  1  0
 20 22  1  0
 22 23  1  0
 22 24  2  0
 24 25  1  0
 25 26  1  0
 26 27  1  0
 26 28  1  0
 25 29  2  0
 29 30  1  0
 29 31  1  0
 24 32  1  0
 32 33  1  0
 32 34  2  0
 34 35  1  0
 16 36  1  0
 36 37  1  0
 36 38  2  0
 38 39  1  0
 10 40  1  0
 40 41  1  0
 40 42  1  0
 38 11  1  0
 34 19  1  0
M  CHG  1  29   1
M  END
>  <UniqueID>  (48) 
43

>  <SMILES>  (48) 
C=CC/N=C(\N)c1ccc(Nc2ccc(C(N)=[NH2+])cc2)cc1

>  <Energy>  (48) 
49.335152293652285

>  <Genealogy>  (48) 
C=CCN=C(N)c1ccc(Nc2ccc(C(N)=[NH2+])cc2)cc1 (protonated)
C=CC/N=C(\N)c1ccc(Nc2ccc(C(N)=[NH2+])cc2)cc1 (cis-trans isomerization)
C=CC/N=C(\N)c1ccc(Nc2ccc(C(N)=[NH2+])cc2)cc1 (3D coordinates assigned)
C=CC/N=C(\N)c1ccc(Nc2ccc(C(N)=[NH2+])cc2)cc1 (optimized conformer: 49.335152293652285 kcal/mol)

>  <smiles>  (48) 
C=CCN=C(N)c1ccc(Nc2ccc(C(=N)N)cc2)cc1

>  <score_type>  (48) 
oracle

>  <origin>  (48) 
adg

>  <m_score__min__energy>  (48) 
-8.1400000000000006

>  <m_primary>  (48) 
energy

$$$$
48:0
     RDKit          3D

 54 56  0  0  0  0  0  0  0  0999 V2000
   -5.9160   24.9500  -29.6890 C   0  0  0  0  0  0  0  0  0  0  0  0
   -4.9460   25.1760  -30.8390 C   0  0  0  0  0  0  0  0  0  0  0  0
   -3.5900   25.3020  -30.3210 N   0  0  0  0  0  0  0  0  0  0  0  0
   -2.9560   24.2770  -29.5490 C   0  0  0  0  0  0  0  0  0  0  0  0
   -2.4470   24.5500  -28.4280 O   0  0  0  0  0  0  0  0  0  0  0  0
   -2.8590   22.8820  -30.1070 C   0  0  2  0  0  0  0  0  0  0  0  0
   -2.9780   21.8360  -28.9920 C   0  0  0  0  0  0  0  0  0  0  0  0
   -2.9460   20.4170  -29.5880 C   0  0  0  0  0  0  0  0  0  0  0  0
   -1.8890   20.2110  -30.6200 N   0  0  1  0  0  0  0  0  0  0  0  0
   -2.5790   19.8370  -32.1870 S   0  0  0  0  0  0  0  0  0  0  0  0
   -2.3060   18.4020  -32.5430 O   0  0  0  0  0  0  0  0  0  0  0  0
   -1.9820   20.7140  -33.2540 O   0  0  0  0  0  0  0  0  0  0  0  0
   -4.3230   20.0780  -32.1320 C   0  0  0  0  0  0  0  0  0  0  0  0
   -4.8400   21.3730  -32.0370 C   0  0  0  0  0  0  0  0  0  0  0  0
   -6.2210   21.5810  -32.0200 C   0  0  0  0  0  0  0  0  0  0  0  0
   -7.1140   20.4920  -32.0850 C   0  0  0  0  0  0  0  0  0  0  0  0
   -6.5870   19.1830  -32.2020 C   0  0  0  0  0  0  0  0  0  0  0  0
   -5.1970   18.9890  -32.2280 C   0  0  0  0  0  0  0  0  0  0  0  0
   -7.4940   17.9970  -32.4140 C   0  0  0  0  0  0  0  0  0  0  0  0
   -8.9240   18.2690  -31.9470 C   0  0  0  0  0  0  0  0  0  0  0  0
   -9.4260   19.5990  -32.5070 C   0  0  0  0  0  0  0  0  0  0  0  0
   -8.5500   20.6920  -32.0650 N   0  0  0  0  0  0  0  0  0  0  0  0
   -9.1400   21.9230  -31.6040 C   0  0  0  0  0  0  0  0  0  0  0  0
   -8.8560   23.2200  -32.2940 C   0  0  0  0  0  0  0  0  0  0  0  0
   -9.9560   21.9100  -30.6420 O   0  0  0  0  0  0  0  0  0  0  0  0
   -0.9060   21.3140  -30.7140 C   0  0  0  0  0  0  0  0  0  0  0  0
   -1.5580   22.6960  -30.9210 C   0  0  0  0  0  0  0  0  0  0  0  0
   -5.3863   25.0734  -28.7329 H   0  0  0  0  0  0  0  0  0  0  0  0
   -6.7353   25.6813  -29.7513 H   0  0  0  0  0  0  0  0  0  0  0  0
   -6.3277   23.9319  -29.7513 H   0  0  0  0  0  0  0  0  0  0  0  0
   -4.9949   24.3227  -31.5315 H   0  0  0  0  0  0  0  0  0  0  0  0
   -5.2200   26.0995  -31.3702 H   0  0  0  0  0  0  0  0  0  0  0  0
   -3.7031   22.7322  -30.7962 H   0  0  0  0  0  0  0  0  0  0  0  0
   -2.1383   21.9548  -28.2914 H   0  0  0  0  0  0  0  0  0  0  0  0
   -3.9317   21.9818  -28.4637 H   0  0  0  0  0  0  0  0  0  0  0  0
   -2.7728   19.7029  -28.7695 H   0  0  0  0  0  0  0  0  0  0  0  0
   -3.9125   20.2633  -30.0903 H   0  0  0  0  0  0  0  0  0  0  0  0
   -1.3470   19.3570  -30.3480 H   0  0  0  0  0  0  0  0  0  0  0  0
   -4.1561   22.2324  -31.9753 H   0  0  0  0  0  0  0  0  0  0  0  0
   -6.6161   22.6055  -31.9552 H   0  0  0  0  0  0  0  0  0  0  0  0
   -4.7907   17.9714  -32.3248 H   0  0  0  0  0  0  0  0  0  0  0  0
   -7.5125   17.7532  -33.4865 H   0  0  0  0  0  0  0  0  0  0  0  0
   -7.0990   17.1607  -31.8185 H   0  0  0  0  0  0  0  0  0  0  0  0
   -9.5796   17.4582  -32.2973 H   0  0  0  0  0  0  0  0  0  0  0  0
   -8.9360   18.3184  -30.8482 H   0  0  0  0  0  0  0  0  0  0  0  0
   -9.4269   19.5545  -33.6061 H   0  0  0  0  0  0  0  0  0  0  0  0
  -10.4467   19.7832  -32.1406 H   0  0  0  0  0  0  0  0  0  0  0  0
   -8.6841   24.0050  -31.5428 H   0  0  0  0  0  0  0  0  0  0  0  0
   -7.9602   23.1121  -32.9232 H   0  0  0  0  0  0  0  0  0  0  0  0
   -9.7149   23.4964  -32.9232 H   0  0  0  0  0  0  0  0  0  0  0  0
   -0.3204   21.3401  -29.7832 H   0  0  0  0  0  0  0  0  0  0  0  0
   -0.2767   21.1155  -31.5941 H   0  0  0  0  0  0  0  0  0  0  0  0
   -0.8399   23.4710  -30.6149 H   0  0  0  0  0  0  0  0  0  0  0  0
   -1.8233   22.7769  -31.9855 H   0  0  0  0  0  0  0  0  0  0  0  0
  1  2  1  0
  2  3  1  0
  3  4  1  0
  4  5  2  0
  4  6  1  0
  6  7  1  0
  7  8  1  0
  8  9  1  0
  9 10  1  0
 10 11  2  0
 10 12  2  0
 10 13  1  0
 13 14  2  0
 14 15  1  0
 15 16  2  0
 16 17  1  0
 17 18  2  0
 17 19  1  0
 19 20  1  0
 20 21  1  0
 21 22  1  0
 22 23  1  0
 23 24  1  0
 23 25  2  0
  9 26  1  0
 26 27  1  0
 27  6  1  0
 18 13  1  0
 22 16  1  0
  1 28  1  0
  1 29  1  0
  1 30  1  0
  2 31  1  0
  2 32  1  0
  6 33  1  6
  7 34  1  0
  7 35  1  0
  8 36  1  0
  8 37  1  0
  9 38  1  1
 14 39  1  0
 15 40  1  0
 18 41  1  0
 19 42  1  0
 19 43  1  0
 20 44  1  0
 20 45  1  0
 21 46  1  0
 21 47  1  0
 24 48  1  0
 24 49  1  0
 24 50  1  0
 26 51  1  0
 26 52  1  0
 27 53  1  0
 27 54  1  0
M  CHG  2   3  -1   9   1
M  END
>  <UniqueID>  (49) 
44

>  <SMILES>  (49) 
CC[N-]C(=O)C1CC[NH+](S(=O)(=O)c2ccc3c(c2)CCCN3C(C)=O)CC1

>  <Energy>  (49) 
60.39151784651479

>  <Genealogy>  (49) 
CC[N-]C(=O)C1CC[NH+](S(=O)(=O)c2ccc3c(c2)CCCN3C(C)=O)CC1 (protonated)
CC[N-]C(=O)C1CC[NH+](S(=O)(=O)c2ccc3c(c2)CCCN3C(C)=O)CC1 (3D coordinates assigned)
CC[N-]C(=O)C1CC[NH+](S(=O)(=O)c2ccc3c(c2)CCCN3C(C)=O)CC1 (nonaromatic ring conformer: 60.39151784651479 kcal/mol)

>  <smiles>  (49) 
CCNC(=O)C1CCN(S(=O)(=O)c2ccc3c(c2)CCCN3C(C)=O)CC1

>  <score_type>  (49) 
oracle

>  <origin>  (49) 
adg

>  <m_score__min__energy>  (49) 
-9.9700000000000006

>  <m_primary>  (49) 
energy

$$$$
49:0
     RDKit          3D

 48 50  0  0  0  0  0  0  0  0999 V2000
   -8.0320   18.0220  -32.1120 C   0  0  0  0  0  0  0  0  0  0  0  0
   -9.0300   19.1700  -31.9740 C   0  0  0  0  0  0  0  0  0  0  0  0
   -8.6150   20.4060  -32.7830 C   0  0  0  0  0  0  0  0  0  0  0  0
   -7.7600   21.2940  -31.9970 N   0  0  0  0  0  0  0  0  0  0  0  0
   -7.9430   22.6960  -31.7850 C   0  0  0  0  0  0  0  0  0  0  0  0
   -8.9820   23.3320  -32.1020 O   0  0  0  0  0  0  0  0  0  0  0  0
   -6.7510   23.2640  -31.1660 C   0  0  0  0  0  0  0  0  0  0  0  0
   -6.4710   24.5660  -30.7620 C   0  0  0  0  0  0  0  0  0  0  0  0
   -5.2140   24.8230  -30.1870 C   0  0  0  0  0  0  0  0  0  0  0  0
   -4.2560   23.7870  -30.0310 C   0  0  0  0  0  0  0  0  0  0  0  0
   -2.9390   24.0940  -29.4210 C   0  0  0  0  0  0  0  0  0  0  0  0
   -2.5730   25.2970  -29.3250 O   0  0  0  0  0  0  0  0  0  0  0  0
   -2.0690   23.0480  -28.9570 N   0  0  0  0  0  0  0  0  0  0  0  0
   -0.7700   23.3190  -28.3430 C   0  0  0  0  0  0  0  0  0  0  0  0
   -0.2260   22.0950  -27.5850 C   0  0  0  0  0  0  0  0  0  0  0  0
   -0.7720   20.8250  -28.1170 N   0  0  0  0  0  0  0  0  0  0  0  0
   -2.0690   20.4840  -27.4820 C   0  0  0  0  0  0  0  0  0  0  0  0
   -1.8930   19.4680  -26.3380 C   0  0  0  0  0  0  0  0  0  0  0  0
   -1.3090   18.2380  -26.7430 O   0  0  0  0  0  0  0  0  0  0  0  0
   -0.4890   18.3510  -27.8980 C   0  0  0  0  0  0  0  0  0  0  0  0
    0.2090   19.7160  -28.0180 C   0  0  0  0  0  0  0  0  0  0  0  0
   -4.5800   22.4740  -30.4450 C   0  0  0  0  0  0  0  0  0  0  0  0
   -5.8340   22.2490  -31.0090 C   0  0  0  0  0  0  0  0  0  0  0  0
   -6.4380   21.0240  -31.5250 C   0  0  0  0  0  0  0  0  0  0  0  0
   -5.8840   19.8940  -31.5710 O   0  0  0  0  0  0  0  0  0  0  0  0
   -7.7309   17.6757  -31.1123 H   0  0  0  0  0  0  0  0  0  0  0  0
   -8.5010   17.1925  -32.6616 H   0  0  0  0  0  0  0  0  0  0  0  0
   -7.1453   18.3710  -32.6616 H   0  0  0  0  0  0  0  0  0  0  0  0
  -10.0130   18.8283  -32.3302 H   0  0  0  0  0  0  0  0  0  0  0  0
   -9.0640   19.4592  -30.9133 H   0  0  0  0  0  0  0  0  0  0  0  0
   -8.0656   20.0800  -33.6785 H   0  0  0  0  0  0  0  0  0  0  0  0
   -9.5241   20.9584  -33.0632 H   0  0  0  0  0  0  0  0  0  0  0  0
   -7.2110   25.3700  -30.8888 H   0  0  0  0  0  0  0  0  0  0  0  0
   -4.9692   25.8421  -29.8530 H   0  0  0  0  0  0  0  0  0  0  0  0
   -2.3670   22.0500  -29.0320 H   0  0  0  0  0  0  0  0  0  0  0  0
   -0.0548   23.5954  -29.1317 H   0  0  0  0  0  0  0  0  0  0  0  0
   -0.8994   24.1376  -27.6197 H   0  0  0  0  0  0  0  0  0  0  0  0
    0.8698   22.0774  -27.6789 H   0  0  0  0  0  0  0  0  0  0  0  0
   -0.5339   22.1827  -26.5326 H   0  0  0  0  0  0  0  0  0  0  0  0
   -2.5201   21.4020  -27.0773 H   0  0  0  0  0  0  0  0  0  0  0  0
   -2.7168   20.0307  -28.2468 H   0  0  0  0  0  0  0  0  0  0  0  0
   -1.2489   19.9204  -25.5695 H   0  0  0  0  0  0  0  0  0  0  0  0
   -2.9000   19.2340  -25.9622 H   0  0  0  0  0  0  0  0  0  0  0  0
    0.2818   17.5673  -27.8569 H   0  0  0  0  0  0  0  0  0  0  0  0
   -1.1446   18.2424  -28.7746 H   0  0  0  0  0  0  0  0  0  0  0  0
    0.8382   19.8744  -27.1297 H   0  0  0  0  0  0  0  0  0  0  0  0
    0.8169   19.7119  -28.9348 H   0  0  0  0  0  0  0  0  0  0  0  0
   -3.8600   21.6511  -30.3247 H   0  0  0  0  0  0  0  0  0  0  0  0
  1  2  1  0
  2  3  1  0
  3  4  1  0
  4  5  1  0
  5  6  2  0
  5  7  1  0
  7  8  2  0
  8  9  1  0
  9 10  2  0
 10 11  1  0
 11 12  2  0
 11 13  1  0
 13 14  1  0
 14 15  1  0
 15 16  1  0
 16 17  1  0
 17 18  1  0
 18 19  1  0
 19 20  1  0
 20 21  1  0
 10 22  1  0
 22 23  2  0
 23 24  1  0
 24 25  2  0
 24  4  1  0
 23  7  1  0
 21 16  1  0
  1 26  1  0
  1 27  1  0
  1 28  1  0
  2 29  1  0
  2 30  1  0
  3 31  1  0
  3 32  1  0
  8 33  1  0
  9 34  1  0
 13 35  1  0
 14 36  1  0
 14 37  1  0
 15 38  1  0
 15 39  1  0
 17 40  1  0
 17 41  1  0
 18 42  1  0
 18 43  1  0
 20 44  1  0
 20 45  1  0
 21 46  1  0
 21 47  1  0
 22 48  1  0
M  END
>  <UniqueID>  (50) 
45

>  <SMILES>  (50) 
CCCN1C(=O)c2ccc(C(=O)NCCN3CCOCC3)cc2C1=O

>  <Energy>  (50) 
89.81269946463934

>  <Genealogy>  (50) 
CCCN1C(=O)c2ccc(C(=O)NCCN3CCOCC3)cc2C1=O (3D coordinates assigned)
CCCN1C(=O)c2ccc(C(=O)NCCN3CCOCC3)cc2C1=O (nonaromatic ring conformer: 89.81269946463934 kcal/mol)

>  <smiles>  (50) 
CCCN1C(=O)c2ccc(C(=O)NCCN3CCOCC3)cc2C1=O

>  <score_type>  (50) 
oracle

>  <origin>  (50) 
adg

>  <m_score__min__energy>  (50) 
-7.7300000000000004

>  <m_primary>  (50) 
energy

$$$$
