0:0
     RDKit          3D

 28 29  0  0  0  0  0  0  0  0999 V2000
   -3.7710   22.4590  -28.2960 C   0  0  0  0  0  0  0  0  0  0  0  0
   -4.5650   23.2120  -29.3230 C   0  0  0  0  0  0  0  0  0  0  0  0
   -4.9880   24.5240  -29.0670 C   0  0  0  0  0  0  0  0  0  0  0  0
   -5.7520   25.2140  -30.0100 C   0  0  0  0  0  0  0  0  0  0  0  0
   -6.1140   24.5950  -31.2090 C   0  0  0  0  0  0  0  0  0  0  0  0
   -5.7220   23.2710  -31.4710 C   0  0  0  0  0  0  0  0  0  0  0  0
   -6.0750   22.6380  -32.7170 N   0  0  0  0  0  0  0  0  0  0  0  0
   -6.9550   21.5250  -32.4610 C   0  0  0  0  0  0  0  0  0  0  0  0
   -8.2030   21.7300  -31.8460 C   0  0  0  0  0  0  0  0  0  0  0  0
   -9.0410   20.6460  -31.5710 C   0  0  0  0  0  0  0  0  0  0  0  0
   -8.6400   19.3470  -31.9000 C   0  0  0  0  0  0  0  0  0  0  0  0
   -9.4560   18.2990  -31.6280 F   0  0  0  0  0  0  0  0  0  0  0  0
   -7.3970   19.1320  -32.5030 C   0  0  0  0  0  0  0  0  0  0  0  0
   -7.0040   17.8730  -32.8180 F   0  0  0  0  0  0  0  0  0  0  0  0
   -6.5560   20.2140  -32.7810 C   0  0  0  0  0  0  0  0  0  0  0  0
   -4.9440   22.5840  -30.5200 C   0  0  0  0  0  0  0  0  0  0  0  0
   -4.0920   22.7634  -27.2889 H   0  0  0  0  0  0  0  0  0  0  0  0
   -3.9376   21.3791  -28.4232 H   0  0  0  0  0  0  0  0  0  0  0  0
   -2.7015   22.6825  -28.4232 H   0  0  0  0  0  0  0  0  0  0  0  0
   -4.7167   25.0118  -28.1191 H   0  0  0  0  0  0  0  0  0  0  0  0
   -6.0697   26.2476  -29.8085 H   0  0  0  0  0  0  0  0  0  0  0  0
   -6.7089   25.1467  -31.9518 H   0  0  0  0  0  0  0  0  0  0  0  0
   -5.2130   22.3090  -33.2120 H   0  0  0  0  0  0  0  0  0  0  0  0
   -6.5420   23.3270  -33.3520 H   0  0  0  0  0  0  0  0  0  0  0  0
   -8.5212   22.7488  -31.5801 H   0  0  0  0  0  0  0  0  0  0  0  0
  -10.0181   20.8147  -31.0948 H   0  0  0  0  0  0  0  0  0  0  0  0
   -5.5775   20.0395  -33.2523 H   0  0  0  0  0  0  0  0  0  0  0  0
   -4.6309   21.5479  -30.7162 H   0  0  0  0  0  0  0  0  0  0  0  0
  1  2  1  0
  2  3  2  0
  3  4  1  0
  4  5  2  0
  5  6  1  0
  6  7  1  0
  7  8  1  0
  8  9  2  0
  9 10  1  0
 10 11  2  0
 11 12  1  0
 11 13  1  0
 13 14  1  0
 13 15  2  0
  6 16  2  0
 16  2  1  0
 15  8  1  0
  1 17  1  0
  1 18  1  0
  1 19  1  0
  3 20  1  0
  4 21  1  0
  5 22  1  0
  7 23  1  0
  7 24  1  0
  9 25  1  0
 10 26  1  0
 15 27  1  0
 16 28  1  0
M  CHG  1   7   1
M  END
>  <UniqueID>  (1) 
1

>  <SMILES>  (1) 
Cc1cccc([NH2+]c2ccc(F)c(F)c2)c1

>  <Energy>  (1) 
29.589138093380523

>  <Genealogy>  (1) 
Cc1cccc([NH2+]c2ccc(F)c(F)c2)c1 (protonated)
Cc1cccc([NH2+]c2ccc(F)c(F)c2)c1 (3D coordinates assigned)
Cc1cccc([NH2+]c2ccc(F)c(F)c2)c1 (optimized conformer: 29.589138093380523 kcal/mol)

>  <smiles>  (1) 
Cc1cccc(Nc2ccc(F)c(F)c2)c1

>  <score_type>  (1) 
oracle

>  <origin>  (1) 
adg

>  <m_score__min__energy>  (1) 
-5.8300000000000001

>  <m_primary>  (1) 
energy

$$$$
1:0
     RDKit          3D

 55 57  0  0  0  0  0  0  0  0999 V2000
   -4.6570   16.7580  -32.9560 C   0  0  0  0  0  0  0  0  0  0  0  0
   -6.1150   16.7040  -32.5120 C   0  0  0  0  0  0  0  0  0  0  0  0
   -6.6520   18.0520  -32.2680 N   0  0  0  0  0  0  0  0  0  0  0  0
   -7.7530   18.2540  -31.3080 C   0  0  0  0  0  0  0  0  0  0  0  0
   -9.0770   18.5510  -32.0100 C   0  0  0  0  0  0  0  0  0  0  0  0
   -6.3460   19.0970  -33.2150 C   0  0  0  0  0  0  0  0  0  0  0  0
   -6.2550   18.8160  -34.4410 O   0  0  0  0  0  0  0  0  0  0  0  0
   -6.1220   20.4940  -32.7770 C   0  0  0  0  0  0  0  0  0  0  0  0
   -4.9370   21.1700  -33.1140 C   0  0  0  0  0  0  0  0  0  0  0  0
   -4.7350   22.4920  -32.7090 C   0  0  0  0  0  0  0  0  0  0  0  0
   -5.7190   23.1650  -31.9680 C   0  0  0  0  0  0  0  0  0  0  0  0
   -5.5020   24.5830  -31.5130 C   0  0  0  0  0  0  0  0  0  0  0  0
   -4.6390   24.6140  -30.3150 N   0  0  0  0  0  0  0  0  0  0  0  0
   -5.3470   24.0920  -29.1290 C   0  0  0  0  0  0  0  0  0  0  0  0
   -4.5380   24.4340  -27.8740 C   0  0  0  0  0  0  0  0  0  0  0  0
   -3.0970   24.3190  -28.1380 N   0  0  0  0  0  0  0  0  0  0  0  0
   -2.1520   25.0560  -27.3410 C   0  0  0  0  0  0  0  0  0  0  0  0
   -2.1620   24.9260  -25.9410 C   0  0  0  0  0  0  0  0  0  0  0  0
   -1.2370   25.6230  -25.1600 C   0  0  0  0  0  0  0  0  0  0  0  0
   -0.2920   26.4530  -25.7660 C   0  0  0  0  0  0  0  0  0  0  0  0
   -0.2710   26.5880  -27.1570 C   0  0  0  0  0  0  0  0  0  0  0  0
   -1.1940   25.8940  -27.9450 C   0  0  0  0  0  0  0  0  0  0  0  0
   -1.1700   26.0610  -29.2900 F   0  0  0  0  0  0  0  0  0  0  0  0
   -2.6450   23.4850  -29.2580 C   0  0  0  0  0  0  0  0  0  0  0  0
   -3.3830   23.8650  -30.5600 C   0  0  0  0  0  0  0  0  0  0  0  0
   -6.9060   22.4950  -31.6360 C   0  0  0  0  0  0  0  0  0  0  0  0
   -7.1090   21.1740  -32.0440 C   0  0  0  0  0  0  0  0  0  0  0  0
   -4.0047   16.7822  -32.0706 H   0  0  0  0  0  0  0  0  0  0  0  0
   -4.4241   15.8679  -33.5588 H   0  0  0  0  0  0  0  0  0  0  0  0
   -4.4906   17.6629  -33.5588 H   0  0  0  0  0  0  0  0  0  0  0  0
   -6.7110   16.2183  -33.2987 H   0  0  0  0  0  0  0  0  0  0  0  0
   -6.1701   16.1341  -31.5728 H   0  0  0  0  0  0  0  0  0  0  0  0
   -7.8684   17.3426  -30.7030 H   0  0  0  0  0  0  0  0  0  0  0  0
   -7.5004   19.1200  -30.6785 H   0  0  0  0  0  0  0  0  0  0  0  0
   -9.8598   18.7266  -31.2574 H   0  0  0  0  0  0  0  0  0  0  0  0
   -8.9657   19.4465  -32.6390 H   0  0  0  0  0  0  0  0  0  0  0  0
   -9.3589   17.6938  -32.6390 H   0  0  0  0  0  0  0  0  0  0  0  0
   -4.1626   20.6546  -33.7010 H   0  0  0  0  0  0  0  0  0  0  0  0
   -3.7999   23.0080  -32.9723 H   0  0  0  0  0  0  0  0  0  0  0  0
   -5.0205   25.1531  -32.3212 H   0  0  0  0  0  0  0  0  0  0  0  0
   -6.4755   25.0298  -31.2626 H   0  0  0  0  0  0  0  0  0  0  0  0
   -6.3436   24.5527  -29.0621 H   0  0  0  0  0  0  0  0  0  0  0  0
   -5.4583   23.0009  -29.2133 H   0  0  0  0  0  0  0  0  0  0  0  0
   -4.7676   25.4648  -27.5661 H   0  0  0  0  0  0  0  0  0  0  0  0
   -4.8088   23.7279  -27.0752 H   0  0  0  0  0  0  0  0  0  0  0  0
   -2.9025   24.2716  -25.4579 H   0  0  0  0  0  0  0  0  0  0  0  0
   -1.2532   25.5177  -24.0652 H   0  0  0  0  0  0  0  0  0  0  0  0
    0.4357   27.0005  -25.1490 H   0  0  0  0  0  0  0  0  0  0  0  0
    0.4741   27.2423  -27.6332 H   0  0  0  0  0  0  0  0  0  0  0  0
   -1.5640   23.6294  -29.4014 H   0  0  0  0  0  0  0  0  0  0  0  0
   -2.8640   22.4328  -29.0238 H   0  0  0  0  0  0  0  0  0  0  0  0
   -2.7157   24.4897  -31.1719 H   0  0  0  0  0  0  0  0  0  0  0  0
   -3.6518   22.9291  -31.0717 H   0  0  0  0  0  0  0  0  0  0  0  0
   -7.6810   23.0123  -31.0514 H   0  0  0  0  0  0  0  0  0  0  0  0
   -8.0489   20.6625  -31.7893 H   0  0  0  0  0  0  0  0  0  0  0  0
  1  2  1  0
  2  3  1  0
  3  4  1  0
  4  5  1  0
  3  6  1  0
  6  7  2  0
  6  8  1  0
  8  9  2  0
  9 10  1  0
 10 11  2  0
 11 12  1  0
 12 13  1  0
 13 14  1  0
 14 15  1  0
 15 16  1  0
 16 17  1  0
 17 18  2  0
 18 19  1  0
 19 20  2  0
 20 21  1  0
 21 22  2  0
 22 23  1  0
 16 24  1  0
 24 25  1  0
 11 26  1  0
 26 27  2  0
 27  8  1  0
 25 13  1  0
 22 17  1  0
  1 28  1  0
  1 29  1  0
  1 30  1  0
  2 31  1  0
  2 32  1  0
  4 33  1  0
  4 34  1  0
  5 35  1  0
  5 36  1  0
  5 37  1  0
  9 38  1  0
 10 39  1  0
 12 40  1  0
 12 41  1  0
 14 42  1  0
 14 43  1  0
 15 44  1  0
 15 45  1  0
 18 46  1  0
 19 47  1  0
 20 48  1  0
 21 49  1  0
 24 50  1  0
 24 51  1  0
 25 52  1  0
 25 53  1  0
 26 54  1  0
 27 55  1  0
M  END
>  <UniqueID>  (2) 
2

>  <SMILES>  (2) 
CCN(CC)C(=O)c1ccc(CN2CCN(c3ccccc3F)CC2)cc1

>  <Energy>  (2) 
66.84544480590148

>  <Genealogy>  (2) 
CCN(CC)C(=O)c1ccc(CN2CCN(c3ccccc3F)CC2)cc1 (3D coordinates assigned)
CCN(CC)C(=O)c1ccc(CN2CCN(c3ccccc3F)CC2)cc1 (nonaromatic ring conformer: 66.84544480590148 kcal/mol)

>  <smiles>  (2) 
CCN(CC)C(=O)c1ccc(CN2CCN(c3ccccc3F)CC2)cc1

>  <score_type>  (2) 
oracle

>  <origin>  (2) 
adg

>  <m_score__min__energy>  (2) 
-8.7699999999999996

>  <m_primary>  (2) 
energy

$$$$
2:0
     RDKit          3D

 39 41  0  0  0  0  0  0  0  0999 V2000
   -4.5110   24.1810  -28.7430 C   0  0  0  0  0  0  0  0  0  0  0  0
   -5.7640   24.7210  -29.4180 C   0  0  0  0  0  0  0  0  0  0  0  0
   -5.4910   24.9210  -31.2130 S   0  0  0  0  0  0  0  0  0  0  0  0
   -6.4140   23.4510  -31.6760 C   0  0  0  0  0  0  0  0  0  0  0  0
   -7.7390   23.4560  -31.9090 N   0  0  0  0  0  0  0  0  0  0  0  0
   -8.0650   22.2390  -32.3140 N   0  0  0  0  0  0  0  0  0  0  0  0
   -6.9330   21.5070  -32.3320 C   0  0  0  0  0  0  0  0  0  0  0  0
   -6.9010   20.0830  -32.7320 C   0  0  0  0  0  0  0  0  0  0  0  0
   -7.6050   19.1300  -31.9770 C   0  0  0  0  0  0  0  0  0  0  0  0
   -7.5770   17.7800  -32.3400 C   0  0  0  0  0  0  0  0  0  0  0  0
   -6.8380   17.3680  -33.4510 C   0  0  0  0  0  0  0  0  0  0  0  0
   -6.1180   18.3050  -34.1970 C   0  0  0  0  0  0  0  0  0  0  0  0
   -6.1420   19.6560  -33.8370 C   0  0  0  0  0  0  0  0  0  0  0  0
   -5.8700   22.2430  -31.9340 N   0  0  0  0  0  0  0  0  0  0  0  0
   -4.4710   21.9200  -32.0170 C   0  0  0  0  0  0  0  0  0  0  0  0
   -3.8500   21.7900  -33.2690 C   0  0  0  0  0  0  0  0  0  0  0  0
   -2.4930   21.4690  -33.3520 C   0  0  0  0  0  0  0  0  0  0  0  0
   -1.7350   21.2750  -32.1920 C   0  0  0  0  0  0  0  0  0  0  0  0
   -0.3760   20.9550  -32.3290 O   0  0  0  0  0  0  0  0  0  0  0  0
    0.2520   20.6380  -33.5670 C   0  0  0  0  0  0  0  0  0  0  0  0
   -2.3570   21.4070  -30.9360 C   0  0  0  0  0  0  0  0  0  0  0  0
   -3.7150   21.7270  -30.8530 C   0  0  0  0  0  0  0  0  0  0  0  0
   -4.6315   24.2329  -27.6509 H   0  0  0  0  0  0  0  0  0  0  0  0
   -4.3535   23.1351  -29.0452 H   0  0  0  0  0  0  0  0  0  0  0  0
   -3.6426   24.7847  -29.0452 H   0  0  0  0  0  0  0  0  0  0  0  0
   -6.5943   24.0182  -29.2546 H   0  0  0  0  0  0  0  0  0  0  0  0
   -6.0058   25.7025  -28.9843 H   0  0  0  0  0  0  0  0  0  0  0  0
   -8.1813   19.4476  -31.0955 H   0  0  0  0  0  0  0  0  0  0  0  0
   -8.1382   17.0410  -31.7493 H   0  0  0  0  0  0  0  0  0  0  0  0
   -6.8226   16.3064  -33.7388 H   0  0  0  0  0  0  0  0  0  0  0  0
   -5.5315   17.9793  -35.0687 H   0  0  0  0  0  0  0  0  0  0  0  0
   -5.5648   20.3883  -34.4205 H   0  0  0  0  0  0  0  0  0  0  0  0
   -4.4343   21.9415  -34.1886 H   0  0  0  0  0  0  0  0  0  0  0  0
   -2.0161   21.3678  -34.3381 H   0  0  0  0  0  0  0  0  0  0  0  0
    1.2187   20.1501  -33.3734 H   0  0  0  0  0  0  0  0  0  0  0  0
   -0.3935   19.9577  -34.1420 H   0  0  0  0  0  0  0  0  0  0  0  0
    0.4160   21.5613  -34.1420 H   0  0  0  0  0  0  0  0  0  0  0  0
   -1.7720   21.2577  -30.0165 H   0  0  0  0  0  0  0  0  0  0  0  0
   -4.1934   21.8280  -29.8676 H   0  0  0  0  0  0  0  0  0  0  0  0
  1  2  1  0
  2  3  1  0
  3  4  1  0
  4  5  2  0
  5  6  1  0
  6  7  2  0
  7  8  1  0
  8  9  2  0
  9 10  1  0
 10 11  2  0
 11 12  1  0
 12 13  2  0
  7 14  1  0
 14 15  1  0
 15 16  2  0
 16 17  1  0
 17 18  2  0
 18 19  1  0
 19 20  1  0
 18 21  1  0
 21 22  2  0
 14  4  1  0
 22 15  1  0
 13  8  1  0
  1 23  1  0
  1 24  1  0
  1 25  1  0
  2 26  1  0
  2 27  1  0
  9 28  1  0
 10 29  1  0
 11 30  1  0
 12 31  1  0
 13 32  1  0
 16 33  1  0
 17 34  1  0
 20 35  1  0
 20 36  1  0
 20 37  1  0
 21 38  1  0
 22 39  1  0
M  END
>  <UniqueID>  (3) 
3

>  <SMILES>  (3) 
CCSc1nnc(-c2ccccc2)n1-c1ccc(OC)cc1

>  <Energy>  (3) 
79.02962459462107

>  <Genealogy>  (3) 
CCSc1nnc(-c2ccccc2)n1-c1ccc(OC)cc1 (3D coordinates assigned)
CCSc1nnc(-c2ccccc2)n1-c1ccc(OC)cc1 (optimized conformer: 79.02962459462107 kcal/mol)

>  <smiles>  (3) 
CCSc1nnc(-c2ccccc2)n1-c1ccc(OC)cc1

>  <score_type>  (3) 
oracle

>  <origin>  (3) 
adg

>  <m_score__min__energy>  (3) 
-7.4000000000000004

>  <m_primary>  (3) 
energy

$$$$
3:0
     RDKit          3D

 43 44  0  0  0  0  0  0  0  0999 V2000
   -0.7720   21.0750  -27.1770 C   0  0  0  0  0  0  0  0  0  0  0  0
   -1.2340   22.3130  -26.4160 C   0  0  0  0  0  0  0  0  0  0  0  0
   -0.2560   23.4820  -26.6060 C   0  0  0  0  0  0  0  0  0  0  0  0
   -0.9500   24.6920  -27.0810 N   0  0  0  0  0  0  0  0  0  0  0  0
   -1.3550   25.7210  -26.1090 C   0  0  0  0  0  0  0  0  0  0  0  0
   -0.7820   25.4420  -24.7100 C   0  0  0  0  0  0  0  0  0  0  0  0
   -0.8200   26.6740  -23.8110 C   0  0  0  0  0  0  0  0  0  0  0  0
   -1.3260   24.8640  -28.4660 C   0  0  0  0  0  0  0  0  0  0  0  0
   -1.4160   26.0300  -28.9420 O   0  0  0  0  0  0  0  0  0  0  0  0
   -1.6450   23.7010  -29.3680 C   0  0  0  0  0  0  0  0  0  0  0  0
   -3.0160   23.8590  -29.9500 C   0  0  0  0  0  0  0  0  0  0  0  0
   -3.9410   22.8530  -30.1230 C   0  0  0  0  0  0  0  0  0  0  0  0
   -4.9970   23.4780  -30.7630 C   0  0  0  0  0  0  0  0  0  0  0  0
   -6.2690   22.8550  -31.2050 C   0  0  0  0  0  0  0  0  0  0  0  0
   -7.3940   23.6400  -31.5250 C   0  0  0  0  0  0  0  0  0  0  0  0
   -8.5850   23.0340  -31.9330 C   0  0  0  0  0  0  0  0  0  0  0  0
   -8.6700   21.6440  -32.0280 C   0  0  0  0  0  0  0  0  0  0  0  0
   -9.8290   21.0600  -32.4220 F   0  0  0  0  0  0  0  0  0  0  0  0
   -7.5620   20.8550  -31.7170 C   0  0  0  0  0  0  0  0  0  0  0  0
   -6.3660   21.4550  -31.3080 C   0  0  0  0  0  0  0  0  0  0  0  0
   -4.6930   24.7780  -30.9590 N   0  0  0  0  0  0  0  0  0  0  0  0
   -3.4840   25.0090  -30.4700 N   0  0  0  0  0  0  0  0  0  0  0  0
   -0.4800   20.2924  -26.4613 H   0  0  0  0  0  0  0  0  0  0  0  0
   -1.5928   20.7057  -27.8093 H   0  0  0  0  0  0  0  0  0  0  0  0
    0.0901   21.3338  -27.8093 H   0  0  0  0  0  0  0  0  0  0  0  0
   -2.2258   22.6118  -26.7862 H   0  0  0  0  0  0  0  0  0  0  0  0
   -1.2765   22.0664  -25.3448 H   0  0  0  0  0  0  0  0  0  0  0  0
    0.2295   23.7024  -25.6439 H   0  0  0  0  0  0  0  0  0  0  0  0
    0.4887   23.1910  -27.3615 H   0  0  0  0  0  0  0  0  0  0  0  0
   -0.9908   26.6999  -26.4542 H   0  0  0  0  0  0  0  0  0  0  0  0
   -2.4526   25.7104  -26.0372 H   0  0  0  0  0  0  0  0  0  0  0  0
   -1.3727   24.6424  -24.2391 H   0  0  0  0  0  0  0  0  0  0  0  0
    0.2707   25.1467  -24.8309 H   0  0  0  0  0  0  0  0  0  0  0  0
   -0.8103   26.3593  -22.7570 H   0  0  0  0  0  0  0  0  0  0  0  0
    0.0592   27.3032  -24.0139 H   0  0  0  0  0  0  0  0  0  0  0  0
   -1.7363   27.2478  -24.0139 H   0  0  0  0  0  0  0  0  0  0  0  0
   -0.9069   23.6598  -30.1826 H   0  0  0  0  0  0  0  0  0  0  0  0
   -1.6090   22.7712  -28.7813 H   0  0  0  0  0  0  0  0  0  0  0  0
   -3.8593   21.7981  -29.8223 H   0  0  0  0  0  0  0  0  0  0  0  0
   -7.3345   24.7360  -31.4533 H   0  0  0  0  0  0  0  0  0  0  0  0
   -9.4589   23.6546  -32.1803 H   0  0  0  0  0  0  0  0  0  0  0  0
   -7.6289   19.7597  -31.7935 H   0  0  0  0  0  0  0  0  0  0  0  0
   -5.4955   20.8279  -31.0653 H   0  0  0  0  0  0  0  0  0  0  0  0
  1  2  1  0
  2  3  1  0
  3  4  1  0
  4  5  1  0
  5  6  1  0
  6  7  1  0
  4  8  1  0
  8  9  2  0
  8 10  1  0
 10 11  1  0
 11 12  2  0
 12 13  1  0
 13 14  1  0
 14 15  2  0
 15 16  1  0
 16 17  2  0
 17 18  1  0
 17 19  1  0
 19 20  2  0
 13 21  2  0
 21 22  1  0
 22 11  1  0
 20 14  1  0
  1 23  1  0
  1 24  1  0
  1 25  1  0
  2 26  1  0
  2 27  1  0
  3 28  1  0
  3 29  1  0
  5 30  1  0
  5 31  1  0
  6 32  1  0
  6 33  1  0
  7 34  1  0
  7 35  1  0
  7 36  1  0
 10 37  1  0
 10 38  1  0
 12 39  1  0
 15 40  1  0
 16 41  1  0
 19 42  1  0
 20 43  1  0
M  CHG  1  22  -1
M  END
>  <UniqueID>  (4) 
4

>  <SMILES>  (4) 
CCCN(CCC)C(=O)Cc1cc(-c2ccc(F)cc2)n[n-]1

>  <Energy>  (4) 
64.57905668199442

>  <Genealogy>  (4) 
CCCN(CCC)C(=O)Cc1cc(-c2ccc(F)cc2)n[n-]1 (protonated)
CCCN(CCC)C(=O)Cc1cc(-c2ccc(F)cc2)n[n-]1 (3D coordinates assigned)
CCCN(CCC)C(=O)Cc1cc(-c2ccc(F)cc2)n[n-]1 (optimized conformer: 64.57905668199442 kcal/mol)

>  <smiles>  (4) 
CCCN(CCC)C(=O)Cc1cc(-c2ccc(F)cc2)n[nH]1

>  <score_type>  (4) 
oracle

>  <origin>  (4) 
adg

>  <m_score__min__energy>  (4) 
-9.6500000000000004

>  <m_primary>  (4) 
energy

$$$$
4:0
     RDKit          3D

 67 71  0  0  0  0  0  0  0  0999 V2000
   -5.1240   16.2250  -32.2330 C   0  0  0  0  0  0  0  0  0  0  0  0
   -5.7610   16.6330  -33.4990 N   0  0  0  0  0  0  0  0  0  0  0  0
   -7.1910   16.9770  -33.3070 C   0  0  0  0  0  0  0  0  0  0  0  0
   -7.4630   18.4470  -32.8510 C   0  0  0  0  0  0  0  0  0  0  0  0
   -6.2330   19.2980  -32.7070 C   0  0  0  0  0  0  0  0  0  0  0  0
   -6.2710   20.4310  -31.9590 N   0  0  0  0  0  0  0  0  0  0  0  0
   -5.1790   21.2300  -31.8190 C   0  0  0  0  0  0  0  0  0  0  0  0
   -5.2890   22.4530  -31.0750 N   0  0  0  0  0  0  0  0  0  0  0  0
   -5.9540   23.6030  -31.7010 C   0  0  0  0  0  0  0  0  0  0  0  0
   -5.3590   24.9420  -31.2280 C   0  0  0  0  0  0  0  0  0  0  0  0
   -4.7780   24.9160  -29.7940 C   0  0  0  0  0  0  0  0  0  0  0  0
   -3.3590   24.7670  -29.8790 O   0  0  0  0  0  0  0  0  0  0  0  0
   -2.4850   24.5370  -28.8050 C   0  0  0  0  0  0  0  0  0  0  0  0
   -1.1390   24.2960  -29.1010 C   0  0  0  0  0  0  0  0  0  0  0  0
   -0.2230   24.0270  -28.0790 C   0  0  0  0  0  0  0  0  0  0  0  0
   -0.6470   24.0040  -26.7480 C   0  0  0  0  0  0  0  0  0  0  0  0
    0.2880   23.6880  -25.7030 C   0  0  0  0  0  0  0  0  0  0  0  0
    1.0350   23.4280  -24.8630 N   0  0  0  0  0  0  0  0  0  0  0  0
   -1.9850   24.2740  -26.4380 C   0  0  0  0  0  0  0  0  0  0  0  0
   -2.9030   24.5380  -27.4600 C   0  0  0  0  0  0  0  0  0  0  0  0
   -5.3890   23.7700  -28.9690 C   0  0  0  0  0  0  0  0  0  0  0  0
   -5.0870   22.4130  -29.6190 C   0  0  0  0  0  0  0  0  0  0  0  0
   -3.9790   20.8680  -32.4640 C   0  0  0  0  0  0  0  0  0  0  0  0
   -2.7630   21.5930  -32.2410 N   0  0  0  0  0  0  0  0  0  0  0  0
   -1.7140   21.5310  -33.2640 C   0  0  0  0  0  0  0  0  0  0  0  0
   -2.5230   22.1210  -30.8880 C   0  0  0  0  0  0  0  0  0  0  0  0
   -1.9120   21.1160  -29.9450 C   0  0  0  0  0  0  0  0  0  0  0  0
   -2.4250   20.9660  -28.6450 C   0  0  0  0  0  0  0  0  0  0  0  0
   -1.8710   20.0210  -27.7750 C   0  0  0  0  0  0  0  0  0  0  0  0
   -0.8060   19.2230  -28.1970 C   0  0  0  0  0  0  0  0  0  0  0  0
   -0.2920   19.3650  -29.4900 C   0  0  0  0  0  0  0  0  0  0  0  0
   -0.8460   20.3040  -30.3650 C   0  0  0  0  0  0  0  0  0  0  0  0
   -3.9580   19.7500  -33.2390 N   0  0  0  0  0  0  0  0  0  0  0  0
   -5.0600   18.9680  -33.3810 C   0  0  0  0  0  0  0  0  0  0  0  0
   -5.0130   17.7050  -34.1810 C   0  0  0  0  0  0  0  0  0  0  0  0
   -5.7153   16.6037  -31.3863 H   0  0  0  0  0  0  0  0  0  0  0  0
   -5.0752   15.1272  -32.1842 H   0  0  0  0  0  0  0  0  0  0  0  0
   -4.1064   16.6398  -32.1842 H   0  0  0  0  0  0  0  0  0  0  0  0
   -7.7120   16.8144  -34.2621 H   0  0  0  0  0  0  0  0  0  0  0  0
   -7.5553   16.3314  -32.4943 H   0  0  0  0  0  0  0  0  0  0  0  0
   -8.1216   18.9199  -33.5943 H   0  0  0  0  0  0  0  0  0  0  0  0
   -7.9152   18.3830  -31.8503 H   0  0  0  0  0  0  0  0  0  0  0  0
   -5.8385   23.5290  -32.7924 H   0  0  0  0  0  0  0  0  0  0  0  0
   -7.0147   23.5813  -31.4104 H   0  0  0  0  0  0  0  0  0  0  0  0
   -4.5518   25.2229  -31.9205 H   0  0  0  0  0  0  0  0  0  0  0  0
   -6.1875   25.6654  -31.2164 H   0  0  0  0  0  0  0  0  0  0  0  0
   -5.0273   25.8585  -29.2845 H   0  0  0  0  0  0  0  0  0  0  0  0
   -0.7982   24.3183  -30.1467 H   0  0  0  0  0  0  0  0  0  0  0  0
    0.8319   23.8334  -28.3233 H   0  0  0  0  0  0  0  0  0  0  0  0
   -2.3153   24.2786  -25.3888 H   0  0  0  0  0  0  0  0  0  0  0  0
   -3.9542   24.7470  -27.2125 H   0  0  0  0  0  0  0  0  0  0  0  0
   -4.9626   23.7877  -27.9552 H   0  0  0  0  0  0  0  0  0  0  0  0
   -6.4796   23.9070  -28.9267 H   0  0  0  0  0  0  0  0  0  0  0  0
   -4.0413   22.1425  -29.4110 H   0  0  0  0  0  0  0  0  0  0  0  0
   -5.7772   21.6680  -29.1964 H   0  0  0  0  0  0  0  0  0  0  0  0
   -0.7296   21.4728  -32.7767 H   0  0  0  0  0  0  0  0  0  0  0  0
   -1.8658   20.6403  -33.8913 H   0  0  0  0  0  0  0  0  0  0  0  0
   -1.7598   22.4334  -33.8913 H   0  0  0  0  0  0  0  0  0  0  0  0
   -1.8426   22.9817  -30.9667 H   0  0  0  0  0  0  0  0  0  0  0  0
   -3.5031   22.3975  -30.4722 H   0  0  0  0  0  0  0  0  0  0  0  0
   -3.2644   21.5934  -28.3108 H   0  0  0  0  0  0  0  0  0  0  0  0
   -2.2746   19.9066  -26.7581 H   0  0  0  0  0  0  0  0  0  0  0  0
   -0.3704   18.4813  -27.5114 H   0  0  0  0  0  0  0  0  0  0  0  0
    0.5492   18.7371  -29.8188 H   0  0  0  0  0  0  0  0  0  0  0  0
   -0.4461   20.4070  -31.3845 H   0  0  0  0  0  0  0  0  0  0  0  0
   -5.4603   17.8859  -35.1695 H   0  0  0  0  0  0  0  0  0  0  0  0
   -3.9641   17.3924  -34.2905 H   0  0  0  0  0  0  0  0  0  0  0  0
  1  2  1  0
  2  3  1  0
  3  4  1  0
  4  5  1  0
  5  6  2  0
  6  7  1  0
  7  8  1  0
  8  9  1  0
  9 10  1  0
 10 11  1  0
 11 12  1  0
 12 13  1  0
 13 14  2  0
 14 15  1  0
 15 16  2  0
 16 17  1  0
 17 18  3  0
 16 19  1  0
 19 20  2  0
 11 21  1  0
 21 22  1  0
  7 23  2  0
 23 24  1  0
 24 25  1  0
 24 26  1  0
 26 27  1  0
 27 28  2  0
 28 29  1  0
 29 30  2  0
 30 31  1  0
 31 32  2  0
 23 33  1  0
 33 34  2  0
 34 35  1  0
 35  2  1  0
 34  5  1  0
 22  8  1  0
 32 27  1  0
 20 13  1  0
  1 36  1  0
  1 37  1  0
  1 38  1  0
  3 39  1  0
  3 40  1  0
  4 41  1  0
  4 42  1  0
  9 43  1  0
  9 44  1  0
 10 45  1  0
 10 46  1  0
 11 47  1  0
 14 48  1  0
 15 49  1  0
 19 50  1  0
 20 51  1  0
 21 52  1  0
 21 53  1  0
 22 54  1  0
 22 55  1  0
 25 56  1  0
 25 57  1  0
 25 58  1  0
 26 59  1  0
 26 60  1  0
 28 61  1  0
 29 62  1  0
 30 63  1  0
 31 64  1  0
 32 65  1  0
 35 66  1  0
 35 67  1  0
M  END
>  <UniqueID>  (5) 
5

>  <SMILES>  (5) 
CN1CCc2nc(N3CCC(Oc4ccc(C#N)cc4)CC3)c(N(C)Cc3ccccc3)nc2C1

>  <Energy>  (5) 
91.06695723043333

>  <Genealogy>  (5) 
CN1CCc2nc(N3CCC(Oc4ccc(C#N)cc4)CC3)c(N(C)Cc3ccccc3)nc2C1 (3D coordinates assigned)
CN1CCc2nc(N3CCC(Oc4ccc(C#N)cc4)CC3)c(N(C)Cc3ccccc3)nc2C1 (nonaromatic ring conformer: 91.06695723043333 kcal/mol)

>  <smiles>  (5) 
CN1CCc2nc(N3CCC(Oc4ccc(C#N)cc4)CC3)c(N(C)Cc3ccccc3)nc2C1

>  <score_type>  (5) 
oracle

>  <origin>  (5) 
adg

>  <m_score__min__energy>  (5) 
-9.5700000000000003

>  <m_primary>  (5) 
energy

$$$$
5:0
     RDKit          3D

 36 39  0  0  0  0  0  0  0  0999 V2000
    2.1910   25.1010  -26.6670 C   0  0  0  0  0  0  0  0  0  0  0  0
    0.8960   24.8740  -27.3900 C   0  0  0  0  0  0  0  0  0  0  0  0
    0.6010   23.6140  -27.9300 C   0  0  0  0  0  0  0  0  0  0  0  0
   -0.6210   23.3900  -28.5720 C   0  0  0  0  0  0  0  0  0  0  0  0
   -1.5730   24.4200  -28.6720 C   0  0  0  0  0  0  0  0  0  0  0  0
   -2.8670   24.1840  -29.3510 C   0  0  0  0  0  0  0  0  0  0  0  0
   -3.5500   25.1690  -30.0010 N   0  0  0  0  0  0  0  0  0  0  0  0
   -4.6330   24.5230  -30.4510 C   0  0  0  0  0  0  0  0  0  0  0  0
   -5.6950   25.0240  -31.1910 C   0  0  0  0  0  0  0  0  0  0  0  0
   -6.7190   24.1260  -31.5410 C   0  0  0  0  0  0  0  0  0  0  0  0
   -6.6380   22.7630  -31.1360 C   0  0  0  0  0  0  0  0  0  0  0  0
   -7.6940   21.7930  -31.4870 C   0  0  0  0  0  0  0  0  0  0  0  0
   -9.0150   22.0830  -31.7870 C   0  0  0  0  0  0  0  0  0  0  0  0
   -9.6710   20.9410  -32.0680 N   0  0  0  0  0  0  0  0  0  0  0  0
   -8.8090   19.9450  -31.9410 N   0  0  0  0  0  0  0  0  0  0  0  0
   -9.1290   18.5520  -32.2270 C   0  0  0  0  0  0  0  0  0  0  0  0
   -7.5960   20.4190  -31.6020 C   0  0  0  0  0  0  0  0  0  0  0  0
   -5.5600   22.3370  -30.4070 N   0  0  0  0  0  0  0  0  0  0  0  0
   -4.5860   23.2220  -30.0830 C   0  0  0  0  0  0  0  0  0  0  0  0
   -3.4760   22.9660  -29.3790 N   0  0  0  0  0  0  0  0  0  0  0  0
   -1.2800   25.6760  -28.1110 C   0  0  0  0  0  0  0  0  0  0  0  0
   -0.0580   25.8990  -27.4700 C   0  0  0  0  0  0  0  0  0  0  0  0
    2.0152   25.0702  -25.5816 H   0  0  0  0  0  0  0  0  0  0  0  0
    2.9087   24.3150  -26.9447 H   0  0  0  0  0  0  0  0  0  0  0  0
    2.5985   26.0843  -26.9447 H   0  0  0  0  0  0  0  0  0  0  0  0
    1.3342   22.7980  -27.8482 H   0  0  0  0  0  0  0  0  0  0  0  0
   -0.8390   22.4012  -29.0018 H   0  0  0  0  0  0  0  0  0  0  0  0
   -5.7341   26.0814  -31.4917 H   0  0  0  0  0  0  0  0  0  0  0  0
   -7.5817   24.4759  -32.1270 H   0  0  0  0  0  0  0  0  0  0  0  0
   -9.4589   23.0894  -31.7945 H   0  0  0  0  0  0  0  0  0  0  0  0
   -9.2551   18.0033  -31.2820 H   0  0  0  0  0  0  0  0  0  0  0  0
  -10.0621   18.5018  -32.8074 H   0  0  0  0  0  0  0  0  0  0  0  0
   -8.3114   18.0997  -32.8074 H   0  0  0  0  0  0  0  0  0  0  0  0
   -6.6874   19.8193  -31.4443 H   0  0  0  0  0  0  0  0  0  0  0  0
   -2.0180   26.4890  -28.1772 H   0  0  0  0  0  0  0  0  0  0  0  0
    0.1563   26.8825  -27.0264 H   0  0  0  0  0  0  0  0  0  0  0  0
  1  2  1  0
  2  3  2  0
  3  4  1  0
  4  5  2  0
  5  6  1  0
  6  7  2  0
  7  8  1  0
  8  9  2  0
  9 10  1  0
 10 11  2  0
 11 12  1  0
 12 13  1  0
 13 14  2  0
 14 15  1  0
 15 16  1  0
 15 17  1  0
 11 18  1  0
 18 19  2  0
 19 20  1  0
  5 21  1  0
 21 22  2  0
 22  2  1  0
 20  6  1  0
 19  8  1  0
 17 12  2  0
  1 23  1  0
  1 24  1  0
  1 25  1  0
  3 26  1  0
  4 27  1  0
  9 28  1  0
 10 29  1  0
 13 30  1  0
 16 31  1  0
 16 32  1  0
 16 33  1  0
 17 34  1  0
 21 35  1  0
 22 36  1  0
M  CHG  1  20  -1
M  END
>  <UniqueID>  (6) 
6

>  <SMILES>  (6) 
Cc1ccc(-c2nc3ccc(-c4cnn(C)c4)nc3[n-]2)cc1

>  <Energy>  (6) 
106.74399425984319

>  <Genealogy>  (6) 
Cc1ccc(-c2nc3ccc(-c4cnn(C)c4)nc3[n-]2)cc1 (protonated)
Cc1ccc(-c2nc3ccc(-c4cnn(C)c4)nc3[n-]2)cc1 (3D coordinates assigned)
Cc1ccc(-c2nc3ccc(-c4cnn(C)c4)nc3[n-]2)cc1 (optimized conformer: 106.74399425984319 kcal/mol)

>  <smiles>  (6) 
Cc1ccc(-c2nc3ccc(-c4cnn(C)c4)nc3[nH]2)cc1

>  <score_type>  (6) 
oracle

>  <origin>  (6) 
adg

>  <m_score__min__energy>  (6) 
-8.2599999999999998

>  <m_primary>  (6) 
energy

$$$$
6:0
     RDKit          3D

 41 43  0  0  0  0  0  0  0  0999 V2000
   -7.6070   20.2590  -32.3860 C   0  0  0  0  0  0  0  0  0  0  0  0
   -8.0230   21.6710  -31.9540 C   0  0  0  0  0  0  0  0  0  0  0  0
   -9.0270   21.6180  -30.7980 C   0  0  0  0  0  0  0  0  0  0  0  0
   -6.8190   22.5160  -31.5850 C   0  0  0  0  0  0  0  0  0  0  0  0
   -5.5100   22.0700  -31.8460 C   0  0  0  0  0  0  0  0  0  0  0  0
   -4.4090   22.8500  -31.4840 C   0  0  0  0  0  0  0  0  0  0  0  0
   -4.5930   24.0870  -30.8410 C   0  0  0  0  0  0  0  0  0  0  0  0
   -3.4880   24.9050  -30.4330 N   0  0  0  0  0  0  0  0  0  0  0  0
   -2.5820   24.7010  -28.9680 S   0  0  0  0  0  0  0  0  0  0  0  0
   -1.4890   25.7310  -28.9180 O   0  0  0  0  0  0  0  0  0  0  0  0
   -3.4940   24.8980  -27.7910 O   0  0  0  0  0  0  0  0  0  0  0  0
   -1.9170   23.0720  -28.9050 C   0  0  0  0  0  0  0  0  0  0  0  0
   -1.0530   22.6160  -29.9100 C   0  0  0  0  0  0  0  0  0  0  0  0
   -0.5500   21.3120  -29.8720 C   0  0  0  0  0  0  0  0  0  0  0  0
   -0.9060   20.4510  -28.8240 C   0  0  0  0  0  0  0  0  0  0  0  0
   -0.4120   19.1380  -28.7780 C   0  0  0  0  0  0  0  0  0  0  0  0
   -0.7740   18.2900  -27.7270 C   0  0  0  0  0  0  0  0  0  0  0  0
   -1.6280   18.7430  -26.7180 C   0  0  0  0  0  0  0  0  0  0  0  0
   -2.1290   20.0480  -26.7530 C   0  0  0  0  0  0  0  0  0  0  0  0
   -1.7740   20.9100  -27.8030 C   0  0  0  0  0  0  0  0  0  0  0  0
   -2.2720   22.2190  -27.8510 C   0  0  0  0  0  0  0  0  0  0  0  0
   -5.8950   24.5330  -30.5800 C   0  0  0  0  0  0  0  0  0  0  0  0
   -6.0950   25.7230  -29.9590 F   0  0  0  0  0  0  0  0  0  0  0  0
   -6.9980   23.7550  -30.9470 C   0  0  0  0  0  0  0  0  0  0  0  0
   -7.4250   19.6414  -31.4941 H   0  0  0  0  0  0  0  0  0  0  0  0
   -8.4104   19.8078  -32.9868 H   0  0  0  0  0  0  0  0  0  0  0  0
   -6.6873   20.3154  -32.9868 H   0  0  0  0  0  0  0  0  0  0  0  0
   -8.5150   22.1487  -32.8141 H   0  0  0  0  0  0  0  0  0  0  0  0
   -8.4858   21.6466  -29.8407 H   0  0  0  0  0  0  0  0  0  0  0  0
   -9.7054   22.4816  -30.8616 H   0  0  0  0  0  0  0  0  0  0  0  0
   -9.6107   20.6878  -30.8616 H   0  0  0  0  0  0  0  0  0  0  0  0
   -5.3525   21.0994  -32.3390 H   0  0  0  0  0  0  0  0  0  0  0  0
   -3.3915   22.4942  -31.7034 H   0  0  0  0  0  0  0  0  0  0  0  0
   -0.7690   23.2879  -30.7334 H   0  0  0  0  0  0  0  0  0  0  0  0
    0.1261   20.9609  -30.6655 H   0  0  0  0  0  0  0  0  0  0  0  0
    0.2605   18.7759  -29.5695 H   0  0  0  0  0  0  0  0  0  0  0  0
   -0.3848   17.2617  -27.6942 H   0  0  0  0  0  0  0  0  0  0  0  0
   -1.9071   18.0707  -25.8933 H   0  0  0  0  0  0  0  0  0  0  0  0
   -2.8020   20.3997  -25.9571 H   0  0  0  0  0  0  0  0  0  0  0  0
   -2.9444   22.5786  -27.0581 H   0  0  0  0  0  0  0  0  0  0  0  0
   -8.0149   24.1165  -30.7342 H   0  0  0  0  0  0  0  0  0  0  0  0
  1  2  1  0
  2  3  1  0
  2  4  1  0
  4  5  2  0
  5  6  1  0
  6  7  2  0
  7  8  1  0
  8  9  1  0
  9 10  2  0
  9 11  2  0
  9 12  1  0
 12 13  2  0
 13 14  1  0
 14 15  2  0
 15 16  1  0
 16 17  2  0
 17 18  1  0
 18 19  2  0
 19 20  1  0
 20 21  2  0
  7 22  1  0
 22 23  1  0
 22 24  2  0
 24  4  1  0
 21 12  1  0
 20 15  1  0
  1 25  1  0
  1 26  1  0
  1 27  1  0
  2 28  1  0
  3 29  1  0
  3 30  1  0
  3 31  1  0
  5 32  1  0
  6 33  1  0
 13 34  1  0
 14 35  1  0
 16 36  1  0
 17 37  1  0
 18 38  1  0
 19 39  1  0
 21 40  1  0
 24 41  1  0
M  CHG  1   8  -1
M  END
>  <UniqueID>  (7) 
7

>  <SMILES>  (7) 
CC(C)c1ccc([N-]S(=O)(=O)c2ccc3ccccc3c2)c(F)c1

>  <Energy>  (7) 
45.859807618911844

>  <Genealogy>  (7) 
CC(C)c1ccc([N-]S(=O)(=O)c2ccc3ccccc3c2)c(F)c1 (protonated)
CC(C)c1ccc([N-]S(=O)(=O)c2ccc3ccccc3c2)c(F)c1 (3D coordinates assigned)
CC(C)c1ccc([N-]S(=O)(=O)c2ccc3ccccc3c2)c(F)c1 (optimized conformer: 45.859807618911844 kcal/mol)

>  <smiles>  (7) 
CC(C)c1ccc(NS(=O)(=O)c2ccc3ccccc3c2)c(F)c1

>  <score_type>  (7) 
oracle

>  <origin>  (7) 
adg

>  <m_score__min__energy>  (7) 
-11.039999999999999

>  <m_primary>  (7) 
energy

$$$$
7:0
     RDKit          3D

 53 56  0  0  0  0  0  0  0  0999 V2000
   -0.5320   26.4770  -23.6460 C   0  0  0  0  0  0  0  0  0  0  0  0
   -0.0250   27.8510  -23.7870 N   0  0  0  0  0  0  0  0  0  0  0  0
   -0.7860   28.5990  -24.8010 C   0  0  0  0  0  0  0  0  0  0  0  0
    1.4400   27.9200  -23.9890 C   0  0  0  0  0  0  0  0  0  0  0  0
    2.0910   26.6190  -24.4920 C   0  0  0  0  0  0  0  0  0  0  0  0
    2.0690   26.5710  -25.9170 O   0  0  0  0  0  0  0  0  0  0  0  0
    1.0890   25.9190  -26.6760 C   0  0  0  0  0  0  0  0  0  0  0  0
   -0.0310   26.6500  -27.0840 C   0  0  0  0  0  0  0  0  0  0  0  0
   -1.0370   26.0480  -27.8440 C   0  0  0  0  0  0  0  0  0  0  0  0
   -0.9400   24.6940  -28.2110 C   0  0  0  0  0  0  0  0  0  0  0  0
   -2.0080   24.0520  -29.0200 C   0  0  0  0  0  0  0  0  0  0  0  0
   -1.7250   22.9240  -29.8110 C   0  0  0  0  0  0  0  0  0  0  0  0
   -2.7280   22.3190  -30.5710 C   0  0  0  0  0  0  0  0  0  0  0  0
   -4.0390   22.8260  -30.5580 C   0  0  0  0  0  0  0  0  0  0  0  0
   -5.1110   22.1940  -31.3600 C   0  0  0  0  0  0  0  0  0  0  0  0
   -5.0460   20.9280  -31.8280 N   0  0  0  0  0  0  0  0  0  0  0  0
   -6.1490   20.5660  -32.5400 C   0  0  0  0  0  0  0  0  0  0  0  0
   -6.2700   19.2130  -33.1450 C   0  0  0  0  0  0  0  0  0  0  0  0
   -7.0900   18.2450  -32.5340 C   0  0  0  0  0  0  0  0  0  0  0  0
   -7.2170   16.9670  -33.0890 C   0  0  0  0  0  0  0  0  0  0  0  0
   -6.5330   16.6410  -34.2610 C   0  0  0  0  0  0  0  0  0  0  0  0
   -5.7220   17.5920  -34.8820 C   0  0  0  0  0  0  0  0  0  0  0  0
   -5.5890   18.8710  -34.3320 C   0  0  0  0  0  0  0  0  0  0  0  0
   -7.1190   21.5690  -32.6470 C   0  0  0  0  0  0  0  0  0  0  0  0
   -6.5580   22.9210  -31.8220 S   0  0  0  0  0  0  0  0  0  0  0  0
   -4.3220   23.9520  -29.7670 C   0  0  0  0  0  0  0  0  0  0  0  0
   -3.3190   24.5580  -29.0060 C   0  0  0  0  0  0  0  0  0  0  0  0
    0.1860   23.9580  -27.8000 C   0  0  0  0  0  0  0  0  0  0  0  0
    1.1910   24.5630  -27.0400 C   0  0  0  0  0  0  0  0  0  0  0  0
   -0.6239   26.2278  -22.5785 H   0  0  0  0  0  0  0  0  0  0  0  0
   -1.5182   26.3989  -24.1270 H   0  0  0  0  0  0  0  0  0  0  0  0
    0.1671   25.7770  -24.1270 H   0  0  0  0  0  0  0  0  0  0  0  0
   -1.4850   29.2861  -24.3018 H   0  0  0  0  0  0  0  0  0  0  0  0
   -0.0912   29.1755  -25.4295 H   0  0  0  0  0  0  0  0  0  0  0  0
   -1.3504   27.8944  -25.4295 H   0  0  0  0  0  0  0  0  0  0  0  0
    1.6457   28.7110  -24.7252 H   0  0  0  0  0  0  0  0  0  0  0  0
    1.8770   28.1189  -22.9993 H   0  0  0  0  0  0  0  0  0  0  0  0
    3.1337   26.5773  -24.1440 H   0  0  0  0  0  0  0  0  0  0  0  0
    1.5263   25.7615  -24.0973 H   0  0  0  0  0  0  0  0  0  0  0  0
   -0.1210   27.7099  -26.8037 H   0  0  0  0  0  0  0  0  0  0  0  0
   -1.9112   26.6374  -28.1575 H   0  0  0  0  0  0  0  0  0  0  0  0
   -0.7042   22.5147  -29.8311 H   0  0  0  0  0  0  0  0  0  0  0  0
   -2.4902   21.4380  -31.1852 H   0  0  0  0  0  0  0  0  0  0  0  0
   -7.6355   18.4958  -31.6123 H   0  0  0  0  0  0  0  0  0  0  0  0
   -7.8573   16.2176  -32.6006 H   0  0  0  0  0  0  0  0  0  0  0  0
   -6.6330   15.6352  -34.6950 H   0  0  0  0  0  0  0  0  0  0  0  0
   -5.1855   17.3347  -35.8072 H   0  0  0  0  0  0  0  0  0  0  0  0
   -4.9490   19.6153  -34.8284 H   0  0  0  0  0  0  0  0  0  0  0  0
   -8.0791   21.4868  -33.1775 H   0  0  0  0  0  0  0  0  0  0  0  0
   -5.3431   24.3605  -29.7465 H   0  0  0  0  0  0  0  0  0  0  0  0
   -3.5575   25.4383  -28.3910 H   0  0  0  0  0  0  0  0  0  0  0  0
    0.2764   22.8978  -28.0789 H   0  0  0  0  0  0  0  0  0  0  0  0
    2.0664   23.9763  -26.7246 H   0  0  0  0  0  0  0  0  0  0  0  0
  1  2  1  0
  2  3  1  0
  2  4  1  0
  4  5  1  0
  5  6  1  0
  6  7  1  0
  7  8  2  0
  8  9  1  0
  9 10  2  0
 10 11  1  0
 11 12  2  0
 12 13  1  0
 13 14  2  0
 14 15  1  0
 15 16  2  0
 16 17  1  0
 17 18  1  0
 18 19  2  0
 19 20  1  0
 20 21  2  0
 21 22  1  0
 22 23  2  0
 17 24  2  0
 24 25  1  0
 14 26  1  0
 26 27  2  0
 10 28  1  0
 28 29  2  0
 29  7  1  0
 27 11  1  0
 25 15  1  0
 23 18  1  0
  1 30  1  0
  1 31  1  0
  1 32  1  0
  3 33  1  0
  3 34  1  0
  3 35  1  0
  4 36  1  0
  4 37  1  0
  5 38  1  0
  5 39  1  0
  8 40  1  0
  9 41  1  0
 12 42  1  0
 13 43  1  0
 19 44  1  0
 20 45  1  0
 21 46  1  0
 22 47  1  0
 23 48  1  0
 24 49  1  0
 26 50  1  0
 27 51  1  0
 28 52  1  0
 29 53  1  0
M  END
>  <UniqueID>  (8) 
8

>  <SMILES>  (8) 
CN(C)CCOc1ccc(-c2ccc(-c3nc(-c4ccccc4)cs3)cc2)cc1

>  <Energy>  (8) 
97.07821776804309

>  <Genealogy>  (8) 
CN(C)CCOc1ccc(-c2ccc(-c3nc(-c4ccccc4)cs3)cc2)cc1 (3D coordinates assigned)
CN(C)CCOc1ccc(-c2ccc(-c3nc(-c4ccccc4)cs3)cc2)cc1 (optimized conformer: 97.07821776804309 kcal/mol)

>  <smiles>  (8) 
CN(C)CCOc1ccc(-c2ccc(-c3nc(-c4ccccc4)cs3)cc2)cc1

>  <score_type>  (8) 
oracle

>  <origin>  (8) 
adg

>  <m_score__min__energy>  (8) 
-8.0299999999999994

>  <m_primary>  (8) 
energy

$$$$
8:0
     RDKit          3D

 41 44  0  0  0  0  0  0  0  0999 V2000
   -5.9660   18.5960  -34.1850 C   0  0  0  0  0  0  0  0  0  0  0  0
   -6.3690   18.9180  -32.8590 O   0  0  0  0  0  0  0  0  0  0  0  0
   -7.1140   20.0540  -32.5000 C   0  0  0  0  0  0  0  0  0  0  0  0
   -8.5230   20.0580  -32.5650 C   0  0  0  0  0  0  0  0  0  0  0  0
   -9.2480   21.1800  -32.1590 C   0  0  0  0  0  0  0  0  0  0  0  0
  -10.6020   21.1710  -32.2220 F   0  0  0  0  0  0  0  0  0  0  0  0
   -8.5820   22.3080  -31.6830 C   0  0  0  0  0  0  0  0  0  0  0  0
   -7.1880   22.3230  -31.6200 C   0  0  0  0  0  0  0  0  0  0  0  0
   -6.4390   21.2090  -32.0400 C   0  0  0  0  0  0  0  0  0  0  0  0
   -4.9610   21.2780  -31.9750 C   0  0  0  0  0  0  0  0  0  0  0  0
   -4.1430   21.5260  -33.0790 C   0  0  0  0  0  0  0  0  0  0  0  0
   -2.5530   21.5830  -32.5420 S   0  0  0  0  0  0  0  0  0  0  0  0
   -2.9630   21.3060  -30.9350 C   0  0  0  0  0  0  0  0  0  0  0  0
   -1.9820   21.2460  -29.7940 C   0  0  0  0  0  0  0  0  0  0  0  0
   -1.9210   22.4810  -28.9720 N   0  0  0  0  0  0  0  0  0  0  0  0
   -2.7360   22.4580  -27.7340 C   0  0  0  0  0  0  0  0  0  0  0  0
   -4.2320   22.7330  -27.9860 C   0  0  0  0  0  0  0  0  0  0  0  0
   -4.4090   23.7180  -29.0500 N   0  0  0  0  0  0  0  0  0  0  0  0
   -5.5480   24.2750  -29.4820 C   0  0  0  0  0  0  0  0  0  0  0  0
   -5.2360   25.0780  -30.5610 C   0  0  0  0  0  0  0  0  0  0  0  0
   -3.9100   25.0160  -30.8110 N   0  0  0  0  0  0  0  0  0  0  0  0
   -3.4480   24.1650  -29.8730 C   0  0  0  0  0  0  0  0  0  0  0  0
   -2.0180   23.7540  -29.7180 C   0  0  0  0  0  0  0  0  0  0  0  0
   -4.2970   21.1620  -30.7910 N   0  0  0  0  0  0  0  0  0  0  0  0
   -5.1070   17.9097  -34.1507 H   0  0  0  0  0  0  0  0  0  0  0  0
   -6.8003   18.1130  -34.7147 H   0  0  0  0  0  0  0  0  0  0  0  0
   -5.6791   19.5164  -34.7147 H   0  0  0  0  0  0  0  0  0  0  0  0
   -9.0547   19.1704  -32.9384 H   0  0  0  0  0  0  0  0  0  0  0  0
   -9.1560   23.1877  -31.3565 H   0  0  0  0  0  0  0  0  0  0  0  0
   -6.6698   23.2149  -31.2381 H   0  0  0  0  0  0  0  0  0  0  0  0
   -4.4805   21.6603  -34.1173 H   0  0  0  0  0  0  0  0  0  0  0  0
   -2.2675   20.4101  -29.1384 H   0  0  0  0  0  0  0  0  0  0  0  0
   -0.9859   21.1181  -30.2428 H   0  0  0  0  0  0  0  0  0  0  0  0
   -2.6365   21.4664  -27.2684 H   0  0  0  0  0  0  0  0  0  0  0  0
   -2.3617   23.2606  -27.0815 H   0  0  0  0  0  0  0  0  0  0  0  0
   -4.7264   21.7948  -28.2779 H   0  0  0  0  0  0  0  0  0  0  0  0
   -4.6768   23.1303  -27.0617 H   0  0  0  0  0  0  0  0  0  0  0  0
   -6.5498   24.1207  -29.0548 H   0  0  0  0  0  0  0  0  0  0  0  0
   -5.9594   25.6787  -31.1319 H   0  0  0  0  0  0  0  0  0  0  0  0
   -1.5689   23.6247  -30.7138 H   0  0  0  0  0  0  0  0  0  0  0  0
   -1.4829   24.5351  -29.1581 H   0  0  0  0  0  0  0  0  0  0  0  0
  1  2  1  0
  2  3  1  0
  3  4  2  0
  4  5  1  0
  5  6  1  0
  5  7  2  0
  7  8  1  0
  8  9  2  0
  9 10  1  0
 10 11  2  0
 11 12  1  0
 12 13  1  0
 13 14  1  0
 14 15  1  0
 15 16  1  0
 16 17  1  0
 17 18  1  0
 18 19  1  0
 19 20  2  0
 20 21  1  0
 21 22  2  0
 22 23  1  0
 13 24  2  0
  9  3  1  0
 24 10  1  0
 23 15  1  0
 22 18  1  0
  1 25  1  0
  1 26  1  0
  1 27  1  0
  4 28  1  0
  7 29  1  0
  8 30  1  0
 11 31  1  0
 14 32  1  0
 14 33  1  0
 16 34  1  0
 16 35  1  0
 17 36  1  0
 17 37  1  0
 19 38  1  0
 20 39  1  0
 23 40  1  0
 23 41  1  0
M  END
>  <UniqueID>  (9) 
9

>  <SMILES>  (9) 
COc1cc(F)ccc1-c1csc(CN2CCn3ccnc3C2)n1

>  <Energy>  (9) 
114.59561001838298

>  <Genealogy>  (9) 
COc1cc(F)ccc1-c1csc(CN2CCn3ccnc3C2)n1 (3D coordinates assigned)
COc1cc(F)ccc1-c1csc(CN2CCn3ccnc3C2)n1 (nonaromatic ring conformer: 114.59561001838298 kcal/mol)

>  <smiles>  (9) 
COc1cc(F)ccc1-c1csc(CN2CCn3ccnc3C2)n1

>  <score_type>  (9) 
oracle

>  <origin>  (9) 
adg

>  <m_score__min__energy>  (9) 
-7.5800000000000001

>  <m_primary>  (9) 
energy

$$$$
9:0
     RDKit          3D

 42 44  0  0  0  0  0  0  0  0999 V2000
   -1.9780   25.6790  -29.8630 H   0  0  0  0  0  0  0  0  0  0  0  0
   -2.6220   24.9080  -29.5710 N   0  0  0  0  0  0  0  0  0  0  0  0
   -3.6600   24.5920  -30.2730 C   0  0  0  0  0  0  0  0  0  0  0  0
   -3.7590   23.3460  -30.8080 N   0  0  0  0  0  0  0  0  0  0  0  0
   -4.8440   22.9770  -31.5390 C   0  0  0  0  0  0  0  0  0  0  0  0
   -4.9080   21.6370  -32.1460 C   0  0  0  0  0  0  0  0  0  0  0  0
   -3.8390   20.9000  -32.5850 N   0  0  0  0  0  0  0  0  0  0  0  0
   -2.3870   21.1620  -32.4910 C   0  0  0  0  0  0  0  0  0  0  0  0
   -2.2665   22.1996  -32.1462 H   0  0  0  0  0  0  0  0  0  0  0  0
   -1.6820   21.0940  -33.8540 C   0  0  0  0  0  0  0  0  0  0  0  0
   -0.5977   20.9894  -33.7012 H   0  0  0  0  0  0  0  0  0  0  0  0
   -2.0579   20.2279  -34.4185 H   0  0  0  0  0  0  0  0  0  0  0  0
   -1.8855   22.0159  -34.4185 H   0  0  0  0  0  0  0  0  0  0  0  0
   -1.7320   20.2500  -31.4520 C   0  0  0  0  0  0  0  0  0  0  0  0
   -1.9859   20.6035  -30.4418 H   0  0  0  0  0  0  0  0  0  0  0  0
   -2.0991   19.2214  -31.5836 H   0  0  0  0  0  0  0  0  0  0  0  0
   -0.6401   20.2693  -31.5836 H   0  0  0  0  0  0  0  0  0  0  0  0
   -4.4140   19.7990  -33.1270 C   0  0  0  0  0  0  0  0  0  0  0  0
   -3.8120   18.7140  -33.7720 C   0  0  0  0  0  0  0  0  0  0  0  0
   -2.7199   18.6648  -33.8944 H   0  0  0  0  0  0  0  0  0  0  0  0
   -4.6470   17.6790  -34.2640 C   0  0  0  0  0  0  0  0  0  0  0  0
   -4.1230   16.5550  -34.9220 O   0  0  0  0  0  0  0  0  0  0  0  0
   -2.8720   15.9500  -34.6120 C   0  0  0  0  0  0  0  0  0  0  0  0
   -2.7531   15.8925  -33.5200 H   0  0  0  0  0  0  0  0  0  0  0  0
   -2.8392   14.9365  -35.0383 H   0  0  0  0  0  0  0  0  0  0  0  0
   -2.0572   16.5536  -35.0383 H   0  0  0  0  0  0  0  0  0  0  0  0
   -6.0530   17.7620  -34.0990 C   0  0  0  0  0  0  0  0  0  0  0  0
   -6.8430   16.7150  -34.5990 O   0  0  0  0  0  0  0  0  0  0  0  0
   -6.7110   15.3520  -34.2100 C   0  0  0  0  0  0  0  0  0  0  0  0
   -6.7043   15.2830  -33.1122 H   0  0  0  0  0  0  0  0  0  0  0  0
   -7.5573   14.7733  -34.6086 H   0  0  0  0  0  0  0  0  0  0  0  0
   -5.7694   14.9465  -34.6086 H   0  0  0  0  0  0  0  0  0  0  0  0
   -6.6240   18.8820  -33.4480 C   0  0  0  0  0  0  0  0  0  0  0  0
   -7.7127   18.9666  -33.3156 H   0  0  0  0  0  0  0  0  0  0  0  0
   -5.7660   19.8720  -32.9810 C   0  0  0  0  0  0  0  0  0  0  0  0
   -6.0920   21.0140  -32.3620 N   0  0  0  0  0  0  0  0  0  0  0  0
   -7.0510   21.3620  -32.1320 H   0  0  0  0  0  0  0  0  0  0  0  0
   -5.8600   23.9080  -31.7770 C   0  0  0  0  0  0  0  0  0  0  0  0
   -6.7329   23.6415  -32.3911 H   0  0  0  0  0  0  0  0  0  0  0  0
   -5.7440   25.1810  -31.2200 C   0  0  0  0  0  0  0  0  0  0  0  0
   -6.5369   25.9265  -31.3799 H   0  0  0  0  0  0  0  0  0  0  0  0
   -4.6510   25.4990  -30.4800 N   0  0  0  0  0  0  0  0  0  0  0  0
  1  2  1  0
  2  3  2  0
  3  4  1  0
  4  5  2  0
  5  6  1  0
  6  7  1  0
  7  8  1  0
  8  9  1  0
  8 10  1  0
 10 11  1  0
 10 12  1  0
 10 13  1  0
  8 14  1  0
 14 15  1  0
 14 16  1  0
 14 17  1  0
  7 18  1  0
 18 19  2  0
 19 20  1  0
 19 21  1  0
 21 22  1  0
 22 23  1  0
 23 24  1  0
 23 25  1  0
 23 26  1  0
 21 27  2  0
 27 28  1  0
 28 29  1  0
 29 30  1  0
 29 31  1  0
 29 32  1  0
 27 33  1  0
 33 34  1  0
 33 35  2  0
 35 36  1  0
 36 37  1  0
  5 38  1  0
 38 39  1  0
 38 40  2  0
 40 41  1  0
 40 42  1  0
 42  3  1  0
 36  6  2  0
 35 18  1  0
M  CHG  2  36   1  42  -1
M  END
>  <UniqueID>  (10) 
10

>  <SMILES>  (10) 
[H]/N=c1/nc(-c2[nH+]c3cc(OC)c(OC)cc3n2C(C)C)cc[n-]1

>  <Energy>  (10) 
86.47037581543643

>  <Genealogy>  (10) 
COc1cc2[nH+]c(-c3cc[n-]c(=N)n3)n(C(C)C)c2cc1OC (protonated)
[H]/N=c1/nc(-c2[nH+]c3cc(OC)c(OC)cc3n2C(C)C)cc[n-]1 (cis-trans isomerization)
[H]/N=c1/nc(-c2[nH+]c3cc(OC)c(OC)cc3n2C(C)C)cc[n-]1 (3D coordinates assigned)
[H]/N=c1/nc(-c2[nH+]c3cc(OC)c(OC)cc3n2C(C)C)cc[n-]1 (optimized conformer: 86.47037581543643 kcal/mol)

>  <smiles>  (10) 
COc1cc2nc(-c3cc[nH]c(=N)n3)n(C(C)C)c2cc1OC

>  <score_type>  (10) 
oracle

>  <origin>  (10) 
adg

>  <m_score__min__energy>  (10) 
-8.6500000000000004

>  <m_primary>  (10) 
energy

$$$$
10:0
     RDKit          3D

 22 22  0  0  0  0  0  0  0  0999 V2000
   -4.1260   22.3180  -32.6740 H   0  0  0  0  0  0  0  0  0  0  0  0
   -5.1300   22.1760  -32.4250 N   0  0  0  0  0  0  0  0  0  0  0  0
   -5.6850   20.9610  -32.6850 C   0  0  0  0  0  0  0  0  0  0  0  0
   -4.6930   19.7060  -33.4200 Cl  0  0  0  0  0  0  0  0  0  0  0  0
   -7.0290   20.7220  -32.3690 C   0  0  0  0  0  0  0  0  0  0  0  0
   -7.7740   19.1580  -32.6950 Cl  0  0  0  0  0  0  0  0  0  0  0  0
   -7.7660   21.7600  -31.7860 C   0  0  0  0  0  0  0  0  0  0  0  0
   -9.4560   21.5570  -31.3540 Cl  0  0  0  0  0  0  0  0  0  0  0  0
   -7.1700   22.9560  -31.5450 N   0  0  0  0  0  0  0  0  0  0  0  0
   -5.8670   23.1780  -31.8550 C   0  0  0  0  0  0  0  0  0  0  0  0
   -5.3560   24.3480  -31.5970 N   0  0  0  0  0  0  0  0  0  0  0  0
   -5.6190   25.1550  -30.4070 C   0  0  0  0  0  0  0  0  0  0  0  0
   -6.7006   25.1726  -30.2075 H   0  0  0  0  0  0  0  0  0  0  0  0
   -5.2602   26.1815  -30.5732 H   0  0  0  0  0  0  0  0  0  0  0  0
   -4.8910   24.5490  -29.2110 C   0  0  0  0  0  0  0  0  0  0  0  0
   -5.2681   23.5304  -29.0369 H   0  0  0  0  0  0  0  0  0  0  0  0
   -5.0743   25.1797  -28.3286 H   0  0  0  0  0  0  0  0  0  0  0  0
   -3.0910   24.4780  -29.5190 S   0  0  0  0  0  0  0  0  0  0  0  0
   -3.0150   22.6790  -29.8010 C   0  0  0  0  0  0  0  0  0  0  0  0
   -2.9929   22.1568  -28.8331 H   0  0  0  0  0  0  0  0  0  0  0  0
   -3.9004   22.3593  -30.3700 H   0  0  0  0  0  0  0  0  0  0  0  0
   -2.1058   22.4351  -30.3700 H   0  0  0  0  0  0  0  0  0  0  0  0
  1  2  1  0
  2  3  1  0
  3  4  1  0
  3  5  2  0
  5  6  1  0
  5  7  1  0
  7  8  1  0
  7  9  2  0
  9 10  1  0
 10 11  2  0
 11 12  1  0
 12 13  1  0
 12 14  1  0
 12 15  1  0
 15 16  1  0
 15 17  1  0
 15 18  1  0
 18 19  1  0
 19 20  1  0
 19 21  1  0
 19 22  1  0
 10  2  1  0
M  END
>  <UniqueID>  (11) 
11

>  <SMILES>  (11) 
CSCC/N=c1/nc(Cl)c(Cl)c(Cl)[nH]1

>  <Energy>  (11) 
17.620030123077992

>  <Genealogy>  (11) 
CSCC/N=c1/nc(Cl)c(Cl)c(Cl)[nH]1 (cis-trans isomerization)
CSCC/N=c1/nc(Cl)c(Cl)c(Cl)[nH]1 (3D coordinates assigned)
CSCC/N=c1/nc(Cl)c(Cl)c(Cl)[nH]1 (optimized conformer: 17.620030123077992 kcal/mol)

>  <smiles>  (11) 
CSCCN=c1nc(Cl)c(Cl)c(Cl)[nH]1

>  <score_type>  (11) 
oracle

>  <origin>  (11) 
adg

>  <m_score__min__energy>  (11) 
-5.7800000000000002

>  <m_primary>  (11) 
energy

$$$$
11:0
     RDKit          3D

 43 44  0  0  0  0  0  0  0  0999 V2000
   -0.5400   26.0660  -23.3870 C   0  0  0  0  0  0  0  0  0  0  0  0
   -0.5800   26.8040  -24.6040 O   0  0  0  0  0  0  0  0  0  0  0  0
   -1.0570   26.2970  -25.8220 C   0  0  0  0  0  0  0  0  0  0  0  0
   -0.4640   26.7460  -27.0070 C   0  0  0  0  0  0  0  0  0  0  0  0
   -0.9050   26.2730  -28.2450 C   0  0  0  0  0  0  0  0  0  0  0  0
   -1.9580   25.3540  -28.3200 C   0  0  0  0  0  0  0  0  0  0  0  0
   -2.3650   24.8790  -29.6100 N   0  0  0  0  0  0  0  0  0  0  0  0
   -3.7080   24.7370  -30.0900 C   0  0  0  0  0  0  0  0  0  0  0  0
   -4.2220   25.6080  -30.8410 O   0  0  0  0  0  0  0  0  0  0  0  0
   -4.4780   23.4960  -29.7620 C   0  0  0  0  0  0  0  0  0  0  0  0
   -4.6430   22.6380  -30.9560 N   0  0  0  0  0  0  0  0  0  0  0  0
   -3.3290   22.2780  -31.5180 C   0  0  0  0  0  0  0  0  0  0  0  0
   -5.5400   23.2150  -31.9870 C   0  0  0  0  0  0  0  0  0  0  0  0
   -6.9790   23.3040  -31.5530 C   0  0  0  0  0  0  0  0  0  0  0  0
   -7.3260   24.1780  -30.7140 O   0  0  0  0  0  0  0  0  0  0  0  0
   -7.9440   22.4190  -32.1320 N   0  0  0  0  0  0  0  0  0  0  0  0
   -7.8350   20.9940  -32.2400 C   0  0  0  0  0  0  0  0  0  0  0  0
   -8.7590   20.1940  -31.5530 C   0  0  0  0  0  0  0  0  0  0  0  0
   -8.7030   18.8020  -31.6560 C   0  0  0  0  0  0  0  0  0  0  0  0
   -7.7330   18.1980  -32.4610 C   0  0  0  0  0  0  0  0  0  0  0  0
   -6.8220   18.9870  -33.1680 C   0  0  0  0  0  0  0  0  0  0  0  0
   -5.8960   18.4000  -33.9670 F   0  0  0  0  0  0  0  0  0  0  0  0
   -6.8750   20.3810  -33.0670 C   0  0  0  0  0  0  0  0  0  0  0  0
   -2.5410   24.8810  -27.1310 C   0  0  0  0  0  0  0  0  0  0  0  0
   -2.1000   25.3540  -25.8910 C   0  0  0  0  0  0  0  0  0  0  0  0
   -0.5777   26.7611  -22.5353 H   0  0  0  0  0  0  0  0  0  0  0  0
   -1.4025   25.3848  -23.3428 H   0  0  0  0  0  0  0  0  0  0  0  0
    0.3911   25.4820  -23.3428 H   0  0  0  0  0  0  0  0  0  0  0  0
    0.3563   27.4776  -26.9633 H   0  0  0  0  0  0  0  0  0  0  0  0
   -0.4212   26.6254  -29.1679 H   0  0  0  0  0  0  0  0  0  0  0  0
   -3.9375   22.9326  -28.9871 H   0  0  0  0  0  0  0  0  0  0  0  0
   -5.4756   23.7894  -29.4031 H   0  0  0  0  0  0  0  0  0  0  0  0
   -2.6207   22.0839  -30.6991 H   0  0  0  0  0  0  0  0  0  0  0  0
   -3.4301   21.3745  -32.1372 H   0  0  0  0  0  0  0  0  0  0  0  0
   -2.9555   23.1069  -32.1372 H   0  0  0  0  0  0  0  0  0  0  0  0
   -5.1862   24.2283  -32.2280 H   0  0  0  0  0  0  0  0  0  0  0  0
   -5.5065   22.5422  -32.8566 H   0  0  0  0  0  0  0  0  0  0  0  0
   -9.5327   20.6653  -30.9291 H   0  0  0  0  0  0  0  0  0  0  0  0
   -9.4229   18.1807  -31.1031 H   0  0  0  0  0  0  0  0  0  0  0  0
   -7.6868   17.1017  -32.5379 H   0  0  0  0  0  0  0  0  0  0  0  0
   -6.1648   20.9997  -33.6352 H   0  0  0  0  0  0  0  0  0  0  0  0
   -3.3482   24.1350  -27.1765 H   0  0  0  0  0  0  0  0  0  0  0  0
   -2.5698   24.9879  -24.9662 H   0  0  0  0  0  0  0  0  0  0  0  0
  1  2  1  0
  2  3  1  0
  3  4  2  0
  4  5  1  0
  5  6  2  0
  6  7  1  0
  7  8  1  0
  8  9  2  0
  8 10  1  0
 10 11  1  0
 11 12  1  0
 11 13  1  0
 13 14  1  0
 14 15  2  0
 14 16  1  0
 16 17  1  0
 17 18  2  0
 18 19  1  0
 19 20  2  0
 20 21  1  0
 21 22  1  0
 21 23  2  0
  6 24  1  0
 24 25  2  0
 25  3  1  0
 23 17  1  0
  1 26  1  0
  1 27  1  0
  1 28  1  0
  4 29  1  0
  5 30  1  0
 10 31  1  0
 10 32  1  0
 12 33  1  0
 12 34  1  0
 12 35  1  0
 13 36  1  0
 13 37  1  0
 18 38  1  0
 19 39  1  0
 20 40  1  0
 23 41  1  0
 24 42  1  0
 25 43  1  0
M  CHG  2   7  -1  16  -1
M  END
>  <UniqueID>  (12) 
12

>  <SMILES>  (12) 
COc1ccc([N-]C(=O)CN(C)CC(=O)[N-]c2cccc(F)c2)cc1

>  <Energy>  (12) 
49.626907839022195

>  <Genealogy>  (12) 
COc1ccc([N-]C(=O)CN(C)CC(=O)[N-]c2cccc(F)c2)cc1 (protonated)
COc1ccc([N-]C(=O)CN(C)CC(=O)[N-]c2cccc(F)c2)cc1 (3D coordinates assigned)
COc1ccc([N-]C(=O)CN(C)CC(=O)[N-]c2cccc(F)c2)cc1 (optimized conformer: 49.626907839022195 kcal/mol)

>  <smiles>  (12) 
COc1ccc(NC(=O)CN(C)CC(=O)Nc2cccc(F)c2)cc1

>  <score_type>  (12) 
oracle

>  <origin>  (12) 
adg

>  <m_score__min__energy>  (12) 
-9.4800000000000004

>  <m_primary>  (12) 
energy

$$$$
12:0
     RDKit          3D

 47 49  0  0  0  0  0  0  0  0999 V2000
   -0.8530   26.8780  -27.9760 C   0  0  0  0  0  0  0  0  0  0  0  0
   -1.4400   26.0450  -28.9700 O   0  0  0  0  0  0  0  0  0  0  0  0
   -1.8110   24.7070  -28.7690 C   0  0  0  0  0  0  0  0  0  0  0  0
   -1.1250   23.8680  -27.8700 C   0  0  0  0  0  0  0  0  0  0  0  0
   -1.5300   22.5390  -27.6840 C   0  0  0  0  0  0  0  0  0  0  0  0
   -2.6160   22.0370  -28.4230 C   0  0  0  0  0  0  0  0  0  0  0  0
   -3.2940   22.8610  -29.3230 C   0  0  0  0  0  0  0  0  0  0  0  0
   -2.8970   24.2010  -29.5020 C   0  0  0  0  0  0  0  0  0  0  0  0
   -3.5540   25.0680  -30.3920 O   0  0  0  0  0  0  0  0  0  0  0  0
   -4.9610   25.3040  -30.4430 C   0  0  0  0  0  0  0  0  0  0  0  0
   -5.6910   24.1990  -31.2230 C   0  0  0  0  0  0  0  0  0  0  0  0
   -7.1860   24.0890  -30.8800 C   0  0  0  0  0  0  0  0  0  0  0  0
   -7.6870   22.6400  -30.8720 C   0  0  0  0  0  0  0  0  0  0  0  0
   -7.0580   21.8860  -31.9090 O   0  0  0  0  0  0  0  0  0  0  0  0
   -7.2560   20.5170  -32.1580 C   0  0  0  0  0  0  0  0  0  0  0  0
   -6.3250   19.8530  -32.9680 C   0  0  0  0  0  0  0  0  0  0  0  0
   -6.4730   18.4910  -33.2500 C   0  0  0  0  0  0  0  0  0  0  0  0
   -7.5550   17.7820  -32.7250 C   0  0  0  0  0  0  0  0  0  0  0  0
   -8.4920   18.4330  -31.9180 C   0  0  0  0  0  0  0  0  0  0  0  0
   -8.3480   19.7950  -31.6340 C   0  0  0  0  0  0  0  0  0  0  0  0
   -3.0360   20.6810  -28.2460 N   0  0  0  0  0  0  0  0  0  0  0  0
   -2.4950   19.8840  -27.1900 C   0  0  0  0  0  0  0  0  0  0  0  0
   -2.8220   18.6720  -27.0870 O   0  0  0  0  0  0  0  0  0  0  0  0
   -1.6060   20.5210  -26.1620 C   0  0  0  0  0  0  0  0  0  0  0  0
   -0.7320   21.6130  -26.7950 C   0  0  0  0  0  0  0  0  0  0  0  0
   -1.1189   26.5006  -26.9776 H   0  0  0  0  0  0  0  0  0  0  0  0
    0.2409   26.8712  -28.0912 H   0  0  0  0  0  0  0  0  0  0  0  0
   -1.2274   27.9059  -28.0912 H   0  0  0  0  0  0  0  0  0  0  0  0
   -0.2636   24.2590  -27.3087 H   0  0  0  0  0  0  0  0  0  0  0  0
   -4.1437   22.4616  -29.8962 H   0  0  0  0  0  0  0  0  0  0  0  0
   -5.3551   25.3366  -29.4166 H   0  0  0  0  0  0  0  0  0  0  0  0
   -5.1315   26.2603  -30.9593 H   0  0  0  0  0  0  0  0  0  0  0  0
   -5.5955   24.4110  -32.2981 H   0  0  0  0  0  0  0  0  0  0  0  0
   -5.2242   23.2434  -30.9422 H   0  0  0  0  0  0  0  0  0  0  0  0
   -7.3511   24.5238  -29.8832 H   0  0  0  0  0  0  0  0  0  0  0  0
   -7.7456   24.6294  -31.6577 H   0  0  0  0  0  0  0  0  0  0  0  0
   -7.4538   22.1820  -29.8994 H   0  0  0  0  0  0  0  0  0  0  0  0
   -8.7738   22.6391  -31.0416 H   0  0  0  0  0  0  0  0  0  0  0  0
   -5.4713   20.4071  -33.3852 H   0  0  0  0  0  0  0  0  0  0  0  0
   -5.7363   17.9782  -33.8859 H   0  0  0  0  0  0  0  0  0  0  0  0
   -7.6700   16.7107  -32.9466 H   0  0  0  0  0  0  0  0  0  0  0  0
   -9.3443   17.8733  -31.5054 H   0  0  0  0  0  0  0  0  0  0  0  0
   -9.0887   20.3043  -31.0001 H   0  0  0  0  0  0  0  0  0  0  0  0
   -2.2297   20.9700  -25.3750 H   0  0  0  0  0  0  0  0  0  0  0  0
   -0.9494   19.7474  -25.7372 H   0  0  0  0  0  0  0  0  0  0  0  0
   -0.2682   22.2051  -25.9923 H   0  0  0  0  0  0  0  0  0  0  0  0
    0.0279   21.1185  -27.4180 H   0  0  0  0  0  0  0  0  0  0  0  0
  1  2  1  0
  2  3  1  0
  3  4  2  0
  4  5  1  0
  5  6  2  0
  6  7  1  0
  7  8  2  0
  8  9  1  0
  9 10  1  0
 10 11  1  0
 11 12  1  0
 12 13  1  0
 13 14  1  0
 14 15  1  0
 15 16  2  0
 16 17  1  0
 17 18  2  0
 18 19  1  0
 19 20  2  0
  6 21  1  0
 21 22  1  0
 22 23  2  0
 22 24  1  0
 24 25  1  0
  8  3  1  0
 20 15  1  0
 25  5  1  0
  1 26  1  0
  1 27  1  0
  1 28  1  0
  4 29  1  0
  7 30  1  0
 10 31  1  0
 10 32  1  0
 11 33  1  0
 11 34  1  0
 12 35  1  0
 12 36  1  0
 13 37  1  0
 13 38  1  0
 16 39  1  0
 17 40  1  0
 18 41  1  0
 19 42  1  0
 20 43  1  0
 24 44  1  0
 24 45  1  0
 25 46  1  0
 25 47  1  0
M  CHG  1  21  -1
M  END
>  <UniqueID>  (13) 
13

>  <SMILES>  (13) 
COc1cc2c(cc1OCCCCOc1ccccc1)[N-]C(=O)CC2

>  <Energy>  (13) 
44.53751876452881

>  <Genealogy>  (13) 
COc1cc2c(cc1OCCCCOc1ccccc1)[N-]C(=O)CC2 (protonated)
COc1cc2c(cc1OCCCCOc1ccccc1)[N-]C(=O)CC2 (3D coordinates assigned)
COc1cc2c(cc1OCCCCOc1ccccc1)[N-]C(=O)CC2 (nonaromatic ring conformer: 44.53751876452881 kcal/mol)

>  <smiles>  (13) 
COc1cc2c(cc1OCCCCOc1ccccc1)NC(=O)CC2

>  <score_type>  (13) 
oracle

>  <origin>  (13) 
adg

>  <m_score__min__energy>  (13) 
-9.1400000000000006

>  <m_primary>  (13) 
energy

$$$$
13:0
     RDKit          3D

 45 47  0  0  0  0  0  0  0  0999 V2000
   -5.0060   24.2560  -30.1250 C   0  0  0  0  0  0  0  0  0  0  0  0
   -3.9310   23.7060  -30.8790 O   0  0  0  0  0  0  0  0  0  0  0  0
   -3.9730   22.4640  -31.5280 C   0  0  0  0  0  0  0  0  0  0  0  0
   -3.3230   21.3230  -31.0200 C   0  0  0  0  0  0  0  0  0  0  0  0
   -3.3970   20.1070  -31.7040 C   0  0  0  0  0  0  0  0  0  0  0  0
   -4.1150   20.0140  -32.9040 C   0  0  0  0  0  0  0  0  0  0  0  0
   -4.2320   18.4830  -33.7710 S   0  0  0  0  0  0  0  0  0  0  0  0
   -5.2590   18.6560  -34.8550 O   0  0  0  0  0  0  0  0  0  0  0  0
   -2.9090   18.1540  -34.4050 O   0  0  0  0  0  0  0  0  0  0  0  0
   -4.7180   17.1990  -32.6700 N   0  0  2  0  0  0  0  0  0  0  0  0
   -3.9580   15.9720  -32.9540 C   0  0  0  0  0  0  0  0  0  0  0  0
   -4.7780   15.1400  -33.9390 C   0  0  0  0  0  0  0  0  0  0  0  0
   -6.1830   15.7220  -33.8960 C   0  0  0  0  0  0  0  0  0  0  0  0
   -6.1290   16.7740  -32.7920 C   0  0  2  0  0  0  0  0  0  0  0  0
   -7.1560   17.9120  -32.9820 C   0  0  0  0  0  0  0  0  0  0  0  0
   -6.8980   18.9820  -32.0720 O   0  0  0  0  0  0  0  0  0  0  0  0
   -7.7160   20.1070  -31.8800 C   0  0  0  0  0  0  0  0  0  0  0  0
   -9.0200   20.0770  -32.3850 C   0  0  0  0  0  0  0  0  0  0  0  0
   -9.8660   21.1740  -32.2180 C   0  0  0  0  0  0  0  0  0  0  0  0
   -9.3980   22.3010  -31.5440 C   0  0  0  0  0  0  0  0  0  0  0  0
   -8.1280   22.3240  -31.0590 N   0  0  0  0  0  0  0  0  0  0  0  0
   -7.2850   21.2690  -31.2090 C   0  0  0  0  0  0  0  0  0  0  0  0
   -4.7640   21.1470  -33.4090 C   0  0  0  0  0  0  0  0  0  0  0  0
   -4.6920   22.3640  -32.7260 C   0  0  0  0  0  0  0  0  0  0  0  0
   -4.7939   24.1475  -29.0511 H   0  0  0  0  0  0  0  0  0  0  0  0
   -5.1183   25.3223  -30.3706 H   0  0  0  0  0  0  0  0  0  0  0  0
   -5.9365   23.7232  -30.3706 H   0  0  0  0  0  0  0  0  0  0  0  0
   -2.7545   21.3893  -30.0806 H   0  0  0  0  0  0  0  0  0  0  0  0
   -2.8896   19.2190  -31.2990 H   0  0  0  0  0  0  0  0  0  0  0  0
   -4.5240   17.5180  -31.6910 H   0  0  0  0  0  0  0  0  0  0  0  0
   -2.9846   16.2277  -33.3980 H   0  0  0  0  0  0  0  0  0  0  0  0
   -3.7757   15.4068  -32.0281 H   0  0  0  0  0  0  0  0  0  0  0  0
   -4.3592   15.2223  -34.9528 H   0  0  0  0  0  0  0  0  0  0  0  0
   -4.7715   14.0724  -33.6739 H   0  0  0  0  0  0  0  0  0  0  0  0
   -6.4420   16.1837  -34.8603 H   0  0  0  0  0  0  0  0  0  0  0  0
   -6.9473   14.9544  -33.7044 H   0  0  0  0  0  0  0  0  0  0  0  0
   -6.4494   16.3517  -31.8282 H   0  0  0  0  0  0  0  0  0  0  0  0
   -7.0890   18.2905  -34.0127 H   0  0  0  0  0  0  0  0  0  0  0  0
   -8.1632   17.5158  -32.7856 H   0  0  0  0  0  0  0  0  0  0  0  0
   -9.3805   19.1840  -32.9166 H   0  0  0  0  0  0  0  0  0  0  0  0
  -10.8919   21.1498  -32.6142 H   0  0  0  0  0  0  0  0  0  0  0  0
  -10.0560   23.1714  -31.4046 H   0  0  0  0  0  0  0  0  0  0  0  0
   -6.2631   21.3220  -30.8055 H   0  0  0  0  0  0  0  0  0  0  0  0
   -5.3333   21.0789  -34.3478 H   0  0  0  0  0  0  0  0  0  0  0  0
   -5.2033   23.2493  -33.1318 H   0  0  0  0  0  0  0  0  0  0  0  0
  1  2  1  0
  2  3  1  0
  3  4  2  0
  4  5  1  0
  5  6  2  0
  6  7  1  0
  7  8  2  0
  7  9  2  0
  7 10  1  0
 10 11  1  0
 11 12  1  0
 12 13  1  0
 13 14  1  0
 14 15  1  0
 15 16  1  0
 16 17  1  0
 17 18  2  0
 18 19  1  0
 19 20  2  0
 20 21  1  0
 21 22  2  0
  6 23  1  0
 23 24  2  0
 24  3  1  0
 14 10  1  0
 22 17  1  0
  1 25  1  0
  1 26  1  0
  1 27  1  0
  4 28  1  0
  5 29  1  0
 10 30  1  1
 11 31  1  0
 11 32  1  0
 12 33  1  0
 12 34  1  0
 13 35  1  0
 13 36  1  0
 14 37  1  1
 15 38  1  0
 15 39  1  0
 18 40  1  0
 19 41  1  0
 20 42  1  0
 22 43  1  0
 23 44  1  0
 24 45  1  0
M  CHG  1  10   1
M  END
>  <UniqueID>  (14) 
14

>  <SMILES>  (14) 
COc1ccc(S(=O)(=O)[N@@H+]2CCC[C@@H]2COc2cccnc2)cc1

>  <Energy>  (14) 
53.206458580187615

>  <Genealogy>  (14) 
COc1ccc(S(=O)(=O)[NH+]2CCCC2COc2cccnc2)cc1 (protonated)
COc1ccc(S(=O)(=O)[N@@H+]2CCC[C@@H]2COc2cccnc2)cc1 (chirality)
COc1ccc(S(=O)(=O)[N@@H+]2CCC[C@@H]2COc2cccnc2)cc1 (3D coordinates assigned)
COc1ccc(S(=O)(=O)[N@@H+]2CCC[C@@H]2COc2cccnc2)cc1 (nonaromatic ring conformer: 53.206458580187615 kcal/mol)

>  <smiles>  (14) 
COc1ccc(S(=O)(=O)N2CCCC2COc2cccnc2)cc1

>  <score_type>  (14) 
oracle

>  <origin>  (14) 
adg

>  <m_score__min__energy>  (14) 
-7.1500000000000004

>  <m_primary>  (14) 
energy

$$$$
14:0
     RDKit          3D

 45 47  0  0  0  0  0  0  0  0999 V2000
   -5.9020   17.1890  -33.8630 C   0  0  0  0  0  0  0  0  0  0  0  0
   -6.6940   17.3330  -32.6890 O   0  0  0  0  0  0  0  0  0  0  0  0
   -7.3100   18.5280  -32.2900 C   0  0  0  0  0  0  0  0  0  0  0  0
   -8.5280   18.5490  -31.5870 C   0  0  0  0  0  0  0  0  0  0  0  0
   -9.1010   19.7650  -31.2170 C   0  0  0  0  0  0  0  0  0  0  0  0
   -8.4720   20.9700  -31.5380 C   0  0  0  0  0  0  0  0  0  0  0  0
   -7.2460   20.9750  -32.2360 C   0  0  0  0  0  0  0  0  0  0  0  0
   -6.4980   22.2540  -32.6050 C   0  0  1  0  0  0  0  0  0  0  0  0
   -7.0960   23.5710  -32.0360 C   0  0  0  0  0  0  0  0  0  0  0  0
   -6.6750   23.9240  -30.6390 N   0  0  2  0  0  0  0  0  0  0  0  0
   -6.1240   25.2930  -30.5930 C   0  0  0  0  0  0  0  0  0  0  0  0
   -5.7320   22.9750  -29.9900 C   0  0  0  0  0  0  0  0  0  0  0  0
   -4.6500   22.5210  -30.9360 C   0  0  0  0  0  0  0  0  0  0  0  0
   -3.2950   22.4240  -30.5490 C   0  0  0  0  0  0  0  0  0  0  0  0
   -2.9110   22.7550  -29.2050 N   0  0  0  0  0  0  0  0  0  0  0  0
   -2.8470   24.0690  -28.6360 C   0  0  0  0  0  0  0  0  0  0  0  0
   -3.2850   24.2770  -27.2260 C   0  0  0  0  0  0  0  0  0  0  0  0
   -2.5180   25.0610  -29.3380 O   0  0  0  0  0  0  0  0  0  0  0  0
   -2.3530   21.9380  -31.4760 C   0  0  0  0  0  0  0  0  0  0  0  0
   -2.7470   21.5860  -32.7670 C   0  0  0  0  0  0  0  0  0  0  0  0
   -4.0840   21.6950  -33.1470 C   0  0  0  0  0  0  0  0  0  0  0  0
   -5.0410   22.1540  -32.2300 C   0  0  0  0  0  0  0  0  0  0  0  0
   -6.6840   19.7380  -32.6080 C   0  0  0  0  0  0  0  0  0  0  0  0
   -4.8565   16.9989  -33.5789 H   0  0  0  0  0  0  0  0  0  0  0  0
   -6.2794   16.3448  -34.4586 H   0  0  0  0  0  0  0  0  0  0  0  0
   -5.9581   18.1121  -34.4586 H   0  0  0  0  0  0  0  0  0  0  0  0
   -9.0293   17.6046  -31.3287 H   0  0  0  0  0  0  0  0  0  0  0  0
  -10.0546   19.7754  -30.6688 H   0  0  0  0  0  0  0  0  0  0  0  0
   -8.9363   21.9229  -31.2442 H   0  0  0  0  0  0  0  0  0  0  0  0
   -6.6148   22.3262  -33.6964 H   0  0  0  0  0  0  0  0  0  0  0  0
   -6.7928   24.3946  -32.6991 H   0  0  0  0  0  0  0  0  0  0  0  0
   -8.1837   23.4131  -31.9917 H   0  0  0  0  0  0  0  0  0  0  0  0
   -7.5380   23.9420  -30.0430 H   0  0  0  0  0  0  0  0  0  0  0  0
   -5.9992   25.6030  -29.5450 H   0  0  0  0  0  0  0  0  0  0  0  0
   -5.1479   25.3126  -31.0999 H   0  0  0  0  0  0  0  0  0  0  0  0
   -6.8143   25.9833  -31.0999 H   0  0  0  0  0  0  0  0  0  0  0  0
   -5.2643   23.4726  -29.1276 H   0  0  0  0  0  0  0  0  0  0  0  0
   -6.3031   22.0890  -29.6756 H   0  0  0  0  0  0  0  0  0  0  0  0
   -2.5068   23.9074  -26.5420 H   0  0  0  0  0  0  0  0  0  0  0  0
   -3.4504   25.3498  -27.0479 H   0  0  0  0  0  0  0  0  0  0  0  0
   -4.2209   23.7272  -27.0479 H   0  0  0  0  0  0  0  0  0  0  0  0
   -1.2986   21.8352  -31.1799 H   0  0  0  0  0  0  0  0  0  0  0  0
   -2.0003   21.2212  -33.4877 H   0  0  0  0  0  0  0  0  0  0  0  0
   -4.3889   21.4206  -34.1677 H   0  0  0  0  0  0  0  0  0  0  0  0
   -5.7328   19.7232  -33.1602 H   0  0  0  0  0  0  0  0  0  0  0  0
  1  2  1  0
  2  3  1  0
  3  4  2  0
  4  5  1  0
  5  6  2  0
  6  7  1  0
  7  8  1  0
  8  9  1  0
  9 10  1  0
 10 11  1  0
 10 12  1  0
 12 13  1  0
 13 14  2  0
 14 15  1  0
 15 16  1  0
 16 17  1  0
 16 18  2  0
 14 19  1  0
 19 20  2  0
 20 21  1  0
 21 22  2  0
  7 23  2  0
 23  3  1  0
 22  8  1  0
 22 13  1  0
  1 24  1  0
  1 25  1  0
  1 26  1  0
  4 27  1  0
  5 28  1  0
  6 29  1  0
  8 30  1  6
  9 31  1  0
  9 32  1  0
 10 33  1  1
 11 34  1  0
 11 35  1  0
 11 36  1  0
 12 37  1  0
 12 38  1  0
 17 39  1  0
 17 40  1  0
 17 41  1  0
 19 42  1  0
 20 43  1  0
 21 44  1  0
 23 45  1  0
M  CHG  2  10   1  15  -1
M  END
>  <UniqueID>  (15) 
15

>  <SMILES>  (15) 
COc1cccc([C@H]2C[N@H+](C)Cc3c([N-]C(C)=O)cccc32)c1

>  <Energy>  (15) 
64.28459927706996

>  <Genealogy>  (15) 
COc1cccc(C2C[NH+](C)Cc3c([N-]C(C)=O)cccc32)c1 (protonated)
COc1cccc([C@H]2C[N@H+](C)Cc3c([N-]C(C)=O)cccc32)c1 (chirality)
COc1cccc([C@H]2C[N@H+](C)Cc3c([N-]C(C)=O)cccc32)c1 (3D coordinates assigned)
COc1cccc([C@H]2C[N@H+](C)Cc3c([N-]C(C)=O)cccc32)c1 (nonaromatic ring conformer: 64.28459927706996 kcal/mol)

>  <smiles>  (15) 
COc1cccc(C2CN(C)Cc3c(NC(C)=O)cccc32)c1

>  <score_type>  (15) 
oracle

>  <origin>  (15) 
adg

>  <m_score__min__energy>  (15) 
-7.7300000000000004

>  <m_primary>  (15) 
energy

$$$$
15:0
     RDKit          3D

 45 48  0  0  0  0  0  0  0  0999 V2000
   -5.2890   15.8480  -33.6130 C   0  0  0  0  0  0  0  0  0  0  0  0
   -6.7420   16.2900  -33.4700 C   0  0  0  0  0  0  0  0  0  0  0  0
   -6.8080   17.7220  -33.1520 N   0  0  0  0  0  0  0  0  0  0  0  0
   -7.7860   18.2100  -32.1720 C   0  0  0  0  0  0  0  0  0  0  0  0
   -8.5310   19.4220  -32.7200 C   0  0  0  0  0  0  0  0  0  0  0  0
   -6.0850   18.6600  -33.9690 C   0  0  0  0  0  0  0  0  0  0  0  0
   -6.1780   18.5890  -35.2250 O   0  0  0  0  0  0  0  0  0  0  0  0
   -5.2230   19.6970  -33.3680 C   0  0  0  0  0  0  0  0  0  0  0  0
   -3.8070   19.6160  -33.4630 C   0  0  0  0  0  0  0  0  0  0  0  0
   -2.9900   20.6210  -32.8980 C   0  0  0  0  0  0  0  0  0  0  0  0
   -1.5100   20.5480  -32.9780 C   0  0  0  0  0  0  0  0  0  0  0  0
   -0.8410   20.9480  -34.1510 C   0  0  0  0  0  0  0  0  0  0  0  0
    0.5540   20.8820  -34.2280 C   0  0  0  0  0  0  0  0  0  0  0  0
    1.2940   20.4220  -33.1360 C   0  0  0  0  0  0  0  0  0  0  0  0
    0.6420   20.0260  -31.9660 C   0  0  0  0  0  0  0  0  0  0  0  0
   -0.7530   20.0890  -31.8850 C   0  0  0  0  0  0  0  0  0  0  0  0
   -3.6450   21.6790  -32.2610 C   0  0  0  0  0  0  0  0  0  0  0  0
   -3.1220   22.7230  -31.6400 O   0  0  0  0  0  0  0  0  0  0  0  0
   -4.1410   23.4340  -31.1970 C   0  0  0  0  0  0  0  0  0  0  0  0
   -4.0690   24.5950  -30.4990 N   0  0  0  0  0  0  0  0  0  0  0  0
   -5.2280   25.2080  -30.1080 C   0  0  0  0  0  0  0  0  0  0  0  0
   -6.4870   24.6410  -30.4240 C   0  0  0  0  0  0  0  0  0  0  0  0
   -6.5530   23.4370  -31.1480 C   0  0  0  0  0  0  0  0  0  0  0  0
   -5.3470   22.8600  -31.5220 C   0  0  0  0  0  0  0  0  0  0  0  0
   -5.0170   21.7240  -32.2080 C   0  0  0  0  0  0  0  0  0  0  0  0
   -5.8070   20.7660  -32.7450 N   0  0  0  0  0  0  0  0  0  0  0  0
   -4.8467   15.7135  -32.6148 H   0  0  0  0  0  0  0  0  0  0  0  0
   -5.2476   14.8966  -34.1636 H   0  0  0  0  0  0  0  0  0  0  0  0
   -4.7249   16.6152  -34.1636 H   0  0  0  0  0  0  0  0  0  0  0  0
   -7.2733   16.1029  -34.4148 H   0  0  0  0  0  0  0  0  0  0  0  0
   -7.2119   15.7196  -32.6553 H   0  0  0  0  0  0  0  0  0  0  0  0
   -8.5083   17.4100  -31.9520 H   0  0  0  0  0  0  0  0  0  0  0  0
   -7.2547   18.5036  -31.2547 H   0  0  0  0  0  0  0  0  0  0  0  0
   -8.9054   20.0311  -31.8840 H   0  0  0  0  0  0  0  0  0  0  0  0
   -7.8474   20.0250  -33.3357 H   0  0  0  0  0  0  0  0  0  0  0  0
   -9.3777   19.0844  -33.3357 H   0  0  0  0  0  0  0  0  0  0  0  0
   -3.3432   18.7635  -33.9809 H   0  0  0  0  0  0  0  0  0  0  0  0
   -1.4192   21.3146  -35.0120 H   0  0  0  0  0  0  0  0  0  0  0  0
    1.0689   21.1925  -35.1491 H   0  0  0  0  0  0  0  0  0  0  0  0
    2.3911   20.3716  -33.1977 H   0  0  0  0  0  0  0  0  0  0  0  0
    1.2263   19.6641  -31.1071 H   0  0  0  0  0  0  0  0  0  0  0  0
   -1.2613   19.7776  -30.9605 H   0  0  0  0  0  0  0  0  0  0  0  0
   -5.1817   26.1505  -29.5427 H   0  0  0  0  0  0  0  0  0  0  0  0
   -7.4124   25.1419  -30.1034 H   0  0  0  0  0  0  0  0  0  0  0  0
   -7.5166   22.9735  -31.4062 H   0  0  0  0  0  0  0  0  0  0  0  0
  1  2  1  0
  2  3  1  0
  3  4  1  0
  4  5  1  0
  3  6  1  0
  6  7  2  0
  6  8  1  0
  8  9  2  0
  9 10  1  0
 10 11  1  0
 11 12  2  0
 12 13  1  0
 13 14  2  0
 14 15  1  0
 15 16  2  0
 10 17  2  0
 17 18  1  0
 18 19  1  0
 19 20  2  0
 20 21  1  0
 21 22  2  0
 22 23  1  0
 23 24  2  0
 24 25  1  0
 25 26  2  0
 26  8  1  0
 16 11  1  0
 25 17  1  0
 24 19  1  0
  1 27  1  0
  1 28  1  0
  1 29  1  0
  2 30  1  0
  2 31  1  0
  4 32  1  0
  4 33  1  0
  5 34  1  0
  5 35  1  0
  5 36  1  0
  9 37  1  0
 12 38  1  0
 13 39  1  0
 14 40  1  0
 15 41  1  0
 16 42  1  0
 21 43  1  0
 22 44  1  0
 23 45  1  0
M  END
>  <UniqueID>  (16) 
16

>  <SMILES>  (16) 
CCN(CC)C(=O)c1cc(-c2ccccc2)c2oc3ncccc3c2n1

>  <Energy>  (16) 
97.79709980082588

>  <Genealogy>  (16) 
CCN(CC)C(=O)c1cc(-c2ccccc2)c2oc3ncccc3c2n1 (3D coordinates assigned)
CCN(CC)C(=O)c1cc(-c2ccccc2)c2oc3ncccc3c2n1 (optimized conformer: 97.79709980082588 kcal/mol)

>  <smiles>  (16) 
CCN(CC)C(=O)c1cc(-c2ccccc2)c2oc3ncccc3c2n1

>  <score_type>  (16) 
oracle

>  <origin>  (16) 
adg

>  <m_score__min__energy>  (16) 
-8.6799999999999997

>  <m_primary>  (16) 
energy

$$$$
16:0
     RDKit          3D

 44 47  0  0  0  0  0  0  0  0999 V2000
   -5.7390   25.7140  -30.2360 C   0  0  0  0  0  0  0  0  0  0  0  0
   -5.4150   24.3730  -30.8060 C   0  0  0  0  0  0  0  0  0  0  0  0
   -4.1490   23.9000  -30.9430 N   0  0  0  0  0  0  0  0  0  0  0  0
   -4.3310   22.6730  -31.4800 C   0  0  0  0  0  0  0  0  0  0  0  0
   -3.3410   21.7450  -31.8050 C   0  0  0  0  0  0  0  0  0  0  0  0
   -1.9770   22.0040  -31.6070 C   0  0  0  0  0  0  0  0  0  0  0  0
   -1.0300   21.0310  -31.9330 C   0  0  0  0  0  0  0  0  0  0  0  0
   -1.4370   19.7970  -32.4500 C   0  0  0  0  0  0  0  0  0  0  0  0
   -2.7940   19.5280  -32.6500 C   0  0  0  0  0  0  0  0  0  0  0  0
   -3.7640   20.4990  -32.3410 C   0  0  0  0  0  0  0  0  0  0  0  0
   -5.1540   20.2610  -32.5290 C   0  0  0  0  0  0  0  0  0  0  0  0
   -5.6350   19.0310  -33.0870 N   0  0  0  0  0  0  0  0  0  0  0  0
   -5.7390   18.8890  -34.5430 C   0  0  0  0  0  0  0  0  0  0  0  0
   -5.5370   17.4230  -34.9330 C   0  0  0  0  0  0  0  0  0  0  0  0
   -6.5350   16.4730  -34.2170 C   0  0  0  0  0  0  0  0  0  0  0  0
   -5.8640   15.1320  -33.8880 C   0  0  0  0  0  0  0  0  0  0  0  0
   -7.1770   17.0970  -32.9500 C   0  0  0  0  0  0  0  0  0  0  0  0
   -6.2140   18.0200  -32.1930 C   0  0  0  0  0  0  0  0  0  0  0  0
   -6.0540   21.2230  -32.1780 N   0  0  0  0  0  0  0  0  0  0  0  0
   -5.6210   22.3780  -31.6770 N   0  0  0  0  0  0  0  0  0  0  0  0
   -6.3300   23.4380  -31.2740 C   0  0  0  0  0  0  0  0  0  0  0  0
   -7.8240   23.5220  -31.2370 C   0  0  0  0  0  0  0  0  0  0  0  0
   -5.7256   25.6585  -29.1375 H   0  0  0  0  0  0  0  0  0  0  0  0
   -4.9921   26.4468  -30.5752 H   0  0  0  0  0  0  0  0  0  0  0  0
   -6.7381   26.0249  -30.5752 H   0  0  0  0  0  0  0  0  0  0  0  0
   -1.6538   22.9717  -31.1957 H   0  0  0  0  0  0  0  0  0  0  0  0
    0.0402   21.2359  -31.7826 H   0  0  0  0  0  0  0  0  0  0  0  0
   -0.6853   19.0340  -32.7006 H   0  0  0  0  0  0  0  0  0  0  0  0
   -3.1051   18.5521  -33.0511 H   0  0  0  0  0  0  0  0  0  0  0  0
   -6.7343   19.2215  -34.8728 H   0  0  0  0  0  0  0  0  0  0  0  0
   -4.9657   19.5047  -35.0256 H   0  0  0  0  0  0  0  0  0  0  0  0
   -5.6751   17.3251  -36.0199 H   0  0  0  0  0  0  0  0  0  0  0  0
   -4.5213   17.1329  -34.6260 H   0  0  0  0  0  0  0  0  0  0  0  0
   -7.3602   16.2989  -34.9232 H   0  0  0  0  0  0  0  0  0  0  0  0
   -5.8032   15.0105  -32.7964 H   0  0  0  0  0  0  0  0  0  0  0  0
   -6.4572   14.3104  -34.3159 H   0  0  0  0  0  0  0  0  0  0  0  0
   -4.8508   15.1142  -34.3159 H   0  0  0  0  0  0  0  0  0  0  0  0
   -8.0588   17.6806  -33.2531 H   0  0  0  0  0  0  0  0  0  0  0  0
   -7.4481   16.2726  -32.2740 H   0  0  0  0  0  0  0  0  0  0  0  0
   -6.7629   18.5269  -31.3857 H   0  0  0  0  0  0  0  0  0  0  0  0
   -5.3967   17.4092  -31.7820 H   0  0  0  0  0  0  0  0  0  0  0  0
   -8.1644   23.5411  -30.1912 H   0  0  0  0  0  0  0  0  0  0  0  0
   -8.1524   24.4400  -31.7463 H   0  0  0  0  0  0  0  0  0  0  0  0
   -8.2532   22.6466  -31.7463 H   0  0  0  0  0  0  0  0  0  0  0  0
  1  2  1  0
  2  3  1  0
  3  4  2  0
  4  5  1  0
  5  6  2  0
  6  7  1  0
  7  8  2  0
  8  9  1  0
  9 10  2  0
 10 11  1  0
 11 12  1  0
 12 13  1  0
 13 14  1  0
 14 15  1  0
 15 16  1  0
 15 17  1  0
 17 18  1  0
 11 19  2  0
 19 20  1  0
 20 21  1  0
 21 22  1  0
 21  2  2  0
 20  4  1  0
 10  5  1  0
 18 12  1  0
  1 23  1  0
  1 24  1  0
  1 25  1  0
  6 26  1  0
  7 27  1  0
  8 28  1  0
  9 29  1  0
 13 30  1  0
 13 31  1  0
 14 32  1  0
 14 33  1  0
 15 34  1  0
 16 35  1  0
 16 36  1  0
 16 37  1  0
 17 38  1  0
 17 39  1  0
 18 40  1  0
 18 41  1  0
 22 42  1  0
 22 43  1  0
 22 44  1  0
M  END
>  <UniqueID>  (17) 
17

>  <SMILES>  (17) 
Cc1nc2c3ccccc3c(N3CCC(C)CC3)nn2c1C

>  <Energy>  (17) 
90.61196254076569

>  <Genealogy>  (17) 
Cc1nc2c3ccccc3c(N3CCC(C)CC3)nn2c1C (3D coordinates assigned)
Cc1nc2c3ccccc3c(N3CCC(C)CC3)nn2c1C (nonaromatic ring conformer: 90.61196254076569 kcal/mol)

>  <smiles>  (17) 
Cc1nc2c3ccccc3c(N3CCC(C)CC3)nn2c1C

>  <score_type>  (17) 
oracle

>  <origin>  (17) 
adg

>  <m_score__min__energy>  (17) 
-8.3100000000000005

>  <m_primary>  (17) 
energy

$$$$
17:0
     RDKit          3D

 23 22  0  0  0  0  0  0  0  0999 V2000
   -8.5020   21.7770  -31.6110 C   0  0  0  0  0  0  0  0  0  0  0  0
   -9.1640   20.5930  -32.3380 C   0  0  0  0  0  0  0  0  0  0  0  0
   -8.2270   19.5550  -32.8610 N   0  0  0  0  0  0  0  0  0  0  0  0
   -8.2820   18.2820  -32.0910 C   0  0  0  0  0  0  0  0  0  0  0  0
   -6.9450   17.8180  -31.5040 C   0  0  0  0  0  0  0  0  0  0  0  0
   -6.8540   20.0690  -33.1120 C   0  0  0  0  0  0  0  0  0  0  0  0
   -6.1150   19.3030  -34.2160 C   0  0  0  0  0  0  0  0  0  0  0  0
   -8.5834   21.6315  -30.5237 H   0  0  0  0  0  0  0  0  0  0  0  0
   -7.4408   21.8346  -31.8948 H   0  0  0  0  0  0  0  0  0  0  0  0
   -9.0087   22.7112  -31.8948 H   0  0  0  0  0  0  0  0  0  0  0  0
   -9.8520   20.1040  -31.6326 H   0  0  0  0  0  0  0  0  0  0  0  0
   -9.6634   21.0210  -33.2197 H   0  0  0  0  0  0  0  0  0  0  0  0
   -8.6120   19.3050  -33.8050 H   0  0  0  0  0  0  0  0  0  0  0  0
   -8.9902   18.4168  -31.2602 H   0  0  0  0  0  0  0  0  0  0  0  0
   -8.5881   17.5047  -32.8066 H   0  0  0  0  0  0  0  0  0  0  0  0
   -7.0004   17.8372  -30.4056 H   0  0  0  0  0  0  0  0  0  0  0  0
   -6.7318   16.7933  -31.8425 H   0  0  0  0  0  0  0  0  0  0  0  0
   -6.1429   18.4903  -31.8425 H   0  0  0  0  0  0  0  0  0  0  0  0
   -6.9250   21.1262  -33.4073 H   0  0  0  0  0  0  0  0  0  0  0  0
   -6.2805   19.9374  -32.1826 H   0  0  0  0  0  0  0  0  0  0  0  0
   -5.4199   18.5825  -33.7602 H   0  0  0  0  0  0  0  0  0  0  0  0
   -6.8439   18.7649  -34.8399 H   0  0  0  0  0  0  0  0  0  0  0  0
   -5.5511   20.0121  -34.8399 H   0  0  0  0  0  0  0  0  0  0  0  0
  1  2  1  0
  2  3  1  0
  3  4  1  0
  4  5  1  0
  3  6  1  0
  6  7  1  0
  1  8  1  0
  1  9  1  0
  1 10  1  0
  2 11  1  0
  2 12  1  0
  3 13  1  0
  4 14  1  0
  4 15  1  0
  5 16  1  0
  5 17  1  0
  5 18  1  0
  6 19  1  0
  6 20  1  0
  7 21  1  0
  7 22  1  0
  7 23  1  0
M  CHG  1   3   1
M  END
>  <UniqueID>  (18) 
18

>  <SMILES>  (18) 
CC[NH+](CC)CC

>  <Energy>  (18) 
24.642350538827618

>  <Genealogy>  (18) 
CC[NH+](CC)CC (protonated)
CC[NH+](CC)CC (3D coordinates assigned)
CC[NH+](CC)CC (optimized conformer: 24.642350538827618 kcal/mol)

>  <smiles>  (18) 
CCN(CC)CC

>  <score_type>  (18) 
oracle

>  <origin>  (18) 
adg

>  <m_score__min__energy>  (18) 
-2.96

>  <m_primary>  (18) 
energy

$$$$
18:0
     RDKit          3D

 37 39  0  0  0  0  0  0  0  0999 V2000
   -4.5340   14.2760  -32.7140 C   0  0  0  0  0  0  0  0  0  0  0  0
   -5.2890   15.5330  -32.9790 C   0  0  0  0  0  0  0  0  0  0  0  0
   -5.7840   15.8640  -34.1900 N   0  0  0  0  0  0  0  0  0  0  0  0
   -6.4920   17.0260  -34.1530 C   0  0  0  0  0  0  0  0  0  0  0  0
   -6.5810   17.6250  -32.8930 C   0  0  0  0  0  0  0  0  0  0  0  0
   -7.2950   18.8820  -32.5510 C   0  0  0  0  0  0  0  0  0  0  0  0
   -8.6810   18.8650  -32.3030 C   0  0  0  0  0  0  0  0  0  0  0  0
   -9.3610   20.0440  -31.9880 C   0  0  0  0  0  0  0  0  0  0  0  0
   -8.6710   21.2530  -31.9090 C   0  0  0  0  0  0  0  0  0  0  0  0
   -7.2910   21.2910  -32.1400 C   0  0  0  0  0  0  0  0  0  0  0  0
   -6.4360   22.8280  -32.0490 S   0  0  0  0  0  0  0  0  0  0  0  0
   -5.0450   22.6320  -32.5840 O   0  0  0  0  0  0  0  0  0  0  0  0
   -7.1360   23.8530  -32.8990 O   0  0  0  0  0  0  0  0  0  0  0  0
   -6.3740   23.3500  -30.3780 N   0  0  0  0  0  0  0  0  0  0  0  0
   -6.6980   24.7870  -30.2350 C   0  0  0  0  0  0  0  0  0  0  0  0
   -5.4440   25.6700  -30.0960 C   0  0  0  0  0  0  0  0  0  0  0  0
   -4.3730   25.1180  -30.8290 O   0  0  0  0  0  0  0  0  0  0  0  0
   -3.9330   23.9150  -30.2220 C   0  0  0  0  0  0  0  0  0  0  0  0
   -5.0880   23.0010  -29.7470 C   0  0  0  0  0  0  0  0  0  0  0  0
   -6.6070   20.1080  -32.4620 C   0  0  0  0  0  0  0  0  0  0  0  0
   -5.7410   16.6450  -31.8060 S   0  0  0  0  0  0  0  0  0  0  0  0
   -4.4432   14.1248  -31.6282 H   0  0  0  0  0  0  0  0  0  0  0  0
   -5.0707   13.4252  -33.1591 H   0  0  0  0  0  0  0  0  0  0  0  0
   -3.5308   14.3501  -33.1591 H   0  0  0  0  0  0  0  0  0  0  0  0
   -6.9596   17.4615  -35.0484 H   0  0  0  0  0  0  0  0  0  0  0  0
   -9.2331   17.9152  -32.3578 H   0  0  0  0  0  0  0  0  0  0  0  0
  -10.4448   20.0184  -31.8016 H   0  0  0  0  0  0  0  0  0  0  0  0
   -9.2123   22.1789  -31.6646 H   0  0  0  0  0  0  0  0  0  0  0  0
   -7.2593   25.1110  -31.1238 H   0  0  0  0  0  0  0  0  0  0  0  0
   -7.2890   24.9035  -29.3146 H   0  0  0  0  0  0  0  0  0  0  0  0
   -5.6650   26.6771  -30.4792 H   0  0  0  0  0  0  0  0  0  0  0  0
   -5.1606   25.7245  -29.0345 H   0  0  0  0  0  0  0  0  0  0  0  0
   -3.3273   23.3585  -30.9523 H   0  0  0  0  0  0  0  0  0  0  0  0
   -3.3570   24.1970  -29.3283 H   0  0  0  0  0  0  0  0  0  0  0  0
   -4.8413   21.9592  -29.9996 H   0  0  0  0  0  0  0  0  0  0  0  0
   -5.1987   23.1359  -28.6609 H   0  0  0  0  0  0  0  0  0  0  0  0
   -5.5230   20.1388  -32.6466 H   0  0  0  0  0  0  0  0  0  0  0  0
  1  2  1  0
  2  3  2  0
  3  4  1  0
  4  5  2  0
  5  6  1  0
  6  7  2  0
  7  8  1  0
  8  9  2  0
  9 10  1  0
 10 11  1  0
 11 12  2  0
 11 13  2  0
 11 14  1  0
 14 15  1  0
 15 16  1  0
 16 17  1  0
 17 18  1  0
 18 19  1  0
 10 20  2  0
  5 21  1  0
 21  2  1  0
 20  6  1  0
 19 14  1  0
  1 22  1  0
  1 23  1  0
  1 24  1  0
  4 25  1  0
  7 26  1  0
  8 27  1  0
  9 28  1  0
 15 29  1  0
 15 30  1  0
 16 31  1  0
 16 32  1  0
 18 33  1  0
 18 34  1  0
 19 35  1  0
 19 36  1  0
 20 37  1  0
M  END
>  <UniqueID>  (19) 
19

>  <SMILES>  (19) 
Cc1ncc(-c2cccc(S(=O)(=O)N3CCOCC3)c2)s1

>  <Energy>  (19) 
79.64643137689843

>  <Genealogy>  (19) 
Cc1ncc(-c2cccc(S(=O)(=O)N3CCOCC3)c2)s1 (3D coordinates assigned)
Cc1ncc(-c2cccc(S(=O)(=O)N3CCOCC3)c2)s1 (nonaromatic ring conformer: 79.64643137689843 kcal/mol)

>  <smiles>  (19) 
Cc1ncc(-c2cccc(S(=O)(=O)N3CCOCC3)c2)s1

>  <score_type>  (19) 
oracle

>  <origin>  (19) 
adg

>  <m_score__min__energy>  (19) 
-9.0999999999999996

>  <m_primary>  (19) 
energy

$$$$
19:0
     RDKit          3D

 31 33  0  0  0  0  0  0  0  0999 V2000
   -9.4500   17.7890  -31.5630 O   0  0  0  0  0  0  0  0  0  0  0  0
   -8.7240   18.6990  -32.0470 C   0  0  0  0  0  0  0  0  0  0  0  0
   -9.0300   20.0040  -31.8040 N   0  0  0  0  0  0  0  0  0  0  0  0
   -8.2650   21.0100  -32.3070 C   0  0  0  0  0  0  0  0  0  0  0  0
   -8.6580   22.7200  -31.9370 S   0  0  0  0  0  0  0  0  0  0  0  0
   -7.9670   22.6710  -30.2450 C   0  0  0  0  0  0  0  0  0  0  0  0
   -6.5880   23.2760  -30.2040 C   0  0  0  0  0  0  0  0  0  0  0  0
   -6.4180   24.6180  -29.8230 C   0  0  0  0  0  0  0  0  0  0  0  0
   -5.1360   25.1710  -29.7360 C   0  0  0  0  0  0  0  0  0  0  0  0
   -4.0160   24.3900  -30.0310 C   0  0  0  0  0  0  0  0  0  0  0  0
   -2.7740   24.9260  -29.9450 F   0  0  0  0  0  0  0  0  0  0  0  0
   -4.1760   23.0550  -30.4120 C   0  0  0  0  0  0  0  0  0  0  0  0
   -5.4550   22.4950  -30.4970 C   0  0  0  0  0  0  0  0  0  0  0  0
   -5.5890   21.1930  -30.8560 F   0  0  0  0  0  0  0  0  0  0  0  0
   -7.1810   20.7270  -33.0730 N   0  0  0  0  0  0  0  0  0  0  0  0
   -6.8290   19.4450  -33.3440 C   0  0  0  0  0  0  0  0  0  0  0  0
   -5.6980   19.1780  -34.1230 C   0  0  0  0  0  0  0  0  0  0  0  0
   -5.3320   17.8560  -34.3950 C   0  0  0  0  0  0  0  0  0  0  0  0
   -6.0930   16.7990  -33.8900 C   0  0  0  0  0  0  0  0  0  0  0  0
   -7.2260   17.0540  -33.1090 C   0  0  0  0  0  0  0  0  0  0  0  0
   -7.6010   18.3810  -32.8290 C   0  0  0  0  0  0  0  0  0  0  0  0
   -9.8620   20.2380  -31.2150 H   0  0  0  0  0  0  0  0  0  0  0  0
   -8.6274   23.2362  -29.5709 H   0  0  0  0  0  0  0  0  0  0  0  0
   -7.8969   21.6204  -29.9268 H   0  0  0  0  0  0  0  0  0  0  0  0
   -7.2976   25.2368  -29.5920 H   0  0  0  0  0  0  0  0  0  0  0  0
   -5.0098   26.2215  -29.4351 H   0  0  0  0  0  0  0  0  0  0  0  0
   -3.2929   22.4423  -30.6459 H   0  0  0  0  0  0  0  0  0  0  0  0
   -5.0965   20.0082  -34.5217 H   0  0  0  0  0  0  0  0  0  0  0  0
   -4.4427   17.6480  -35.0081 H   0  0  0  0  0  0  0  0  0  0  0  0
   -5.8003   15.7612  -34.1073 H   0  0  0  0  0  0  0  0  0  0  0  0
   -7.8225   16.2182  -32.7146 H   0  0  0  0  0  0  0  0  0  0  0  0
  1  2  2  0
  2  3  1  0
  3  4  1  0
  4  5  1  0
  5  6  1  0
  6  7  1  0
  7  8  2  0
  8  9  1  0
  9 10  2  0
 10 11  1  0
 10 12  1  0
 12 13  2  0
 13 14  1  0
  4 15  2  0
 15 16  1  0
 16 17  2  0
 17 18  1  0
 18 19  2  0
 19 20  1  0
 20 21  2  0
 21  2  1  0
 13  7  1  0
 21 16  1  0
  3 22  1  0
  6 23  1  0
  6 24  1  0
  8 25  1  0
  9 26  1  0
 12 27  1  0
 17 28  1  0
 18 29  1  0
 19 30  1  0
 20 31  1  0
M  END
>  <UniqueID>  (20) 
20

>  <SMILES>  (20) 
O=c1[nH]c(SCc2ccc(F)cc2F)nc2ccccc12

>  <Energy>  (20) 
33.06893243999826

>  <Genealogy>  (20) 
O=c1[nH]c(SCc2ccc(F)cc2F)nc2ccccc12 (3D coordinates assigned)
O=c1[nH]c(SCc2ccc(F)cc2F)nc2ccccc12 (optimized conformer: 33.06893243999826 kcal/mol)

>  <smiles>  (20) 
O=c1[nH]c(SCc2ccc(F)cc2F)nc2ccccc12

>  <score_type>  (20) 
oracle

>  <origin>  (20) 
adg

>  <m_score__min__energy>  (20) 
-7.6500000000000004

>  <m_primary>  (20) 
energy

$$$$
20:0
     RDKit          3D

 53 54  0  0  0  0  0  0  0  0999 V2000
   -6.5020   17.4210  -31.2560 C   0  0  0  0  0  0  0  0  0  0  0  0
   -5.9060   18.7790  -31.6450 C   0  0  0  0  0  0  0  0  0  0  0  0
   -6.8080   19.5970  -32.4980 N   0  0  0  0  0  0  0  0  0  0  0  0
   -6.3660   19.6750  -33.9200 C   0  0  0  0  0  0  0  0  0  0  0  0
   -5.7420   18.3850  -34.4750 C   0  0  0  0  0  0  0  0  0  0  0  0
   -8.2050   19.1170  -32.3350 C   0  0  0  0  0  0  0  0  0  0  0  0
   -9.1260   20.1330  -31.6430 C   0  0  0  0  0  0  0  0  0  0  0  0
   -8.3300   21.0760  -30.9540 O   0  0  0  0  0  0  0  0  0  0  0  0
   -8.4720   22.3620  -31.5280 C   0  0  0  0  0  0  0  0  0  0  0  0
   -7.1370   23.1120  -31.4980 C   0  0  0  0  0  0  0  0  0  0  0  0
   -6.0900   22.2440  -31.0990 O   0  0  0  0  0  0  0  0  0  0  0  0
   -4.8150   22.8070  -31.3640 C   0  0  2  0  0  0  0  0  0  0  0  0
   -3.8690   21.7630  -31.9200 C   0  0  0  0  0  0  0  0  0  0  0  0
   -3.7600   21.5820  -33.3090 C   0  0  0  0  0  0  0  0  0  0  0  0
   -2.8660   20.6440  -33.8330 C   0  0  0  0  0  0  0  0  0  0  0  0
   -2.0650   19.8840  -32.9770 C   0  0  0  0  0  0  0  0  0  0  0  0
   -0.8420   18.6050  -33.6940 Br  0  0  0  0  0  0  0  0  0  0  0  0
   -2.1540   20.0660  -31.5930 C   0  0  0  0  0  0  0  0  0  0  0  0
   -3.0470   21.0030  -31.0660 C   0  0  0  0  0  0  0  0  0  0  0  0
   -4.2340   23.3720  -30.0880 C   0  0  0  0  0  0  0  0  0  0  0  0
   -4.7280   22.9560  -28.8410 C   0  0  0  0  0  0  0  0  0  0  0  0
   -4.2140   23.5060  -27.6650 C   0  0  0  0  0  0  0  0  0  0  0  0
   -3.2180   24.4790  -27.7420 C   0  0  0  0  0  0  0  0  0  0  0  0
   -2.7600   24.8900  -28.9540 N   0  0  0  0  0  0  0  0  0  0  0  0
   -3.2410   24.3690  -30.1150 C   0  0  0  0  0  0  0  0  0  0  0  0
   -6.5388   17.3372  -30.1598 H   0  0  0  0  0  0  0  0  0  0  0  0
   -7.5198   17.3367  -31.6645 H   0  0  0  0  0  0  0  0  0  0  0  0
   -5.8750   16.6148  -31.6645 H   0  0  0  0  0  0  0  0  0  0  0  0
   -5.6910   19.3419  -30.7247 H   0  0  0  0  0  0  0  0  0  0  0  0
   -4.9973   18.5788  -32.2317 H   0  0  0  0  0  0  0  0  0  0  0  0
   -6.7780   20.5740  -32.1190 H   0  0  0  0  0  0  0  0  0  0  0  0
   -7.2420   19.9238  -34.5370 H   0  0  0  0  0  0  0  0  0  0  0  0
   -5.5765   20.4401  -33.9563 H   0  0  0  0  0  0  0  0  0  0  0  0
   -5.4300   17.7400  -33.6403 H   0  0  0  0  0  0  0  0  0  0  0  0
   -6.4832   17.8547  -35.0910 H   0  0  0  0  0  0  0  0  0  0  0  0
   -4.8661   18.6369  -35.0910 H   0  0  0  0  0  0  0  0  0  0  0  0
   -8.6159   18.8970  -33.3314 H   0  0  0  0  0  0  0  0  0  0  0  0
   -8.1673   18.2249  -31.6925 H   0  0  0  0  0  0  0  0  0  0  0  0
   -9.7400   20.6481  -32.3964 H   0  0  0  0  0  0  0  0  0  0  0  0
   -9.7877   19.6142  -30.9338 H   0  0  0  0  0  0  0  0  0  0  0  0
   -8.8058   22.2582  -32.5710 H   0  0  0  0  0  0  0  0  0  0  0  0
   -9.2134   22.9311  -30.9480 H   0  0  0  0  0  0  0  0  0  0  0  0
   -6.9193   23.5043  -32.5023 H   0  0  0  0  0  0  0  0  0  0  0  0
   -7.2090   23.9387  -30.7759 H   0  0  0  0  0  0  0  0  0  0  0  0
   -4.9388   23.6066  -32.1092 H   0  0  0  0  0  0  0  0  0  0  0  0
   -4.3824   22.1825  -33.9887 H   0  0  0  0  0  0  0  0  0  0  0  0
   -2.7929   20.5039  -34.9216 H   0  0  0  0  0  0  0  0  0  0  0  0
   -1.5205   19.4710  -30.9187 H   0  0  0  0  0  0  0  0  0  0  0  0
   -3.1081   21.1477  -29.9773 H   0  0  0  0  0  0  0  0  0  0  0  0
   -5.5212   22.1956  -28.7906 H   0  0  0  0  0  0  0  0  0  0  0  0
   -4.5914   23.1747  -26.6863 H   0  0  0  0  0  0  0  0  0  0  0  0
   -2.8026   24.9143  -26.8211 H   0  0  0  0  0  0  0  0  0  0  0  0
   -2.8521   24.7285  -31.0791 H   0  0  0  0  0  0  0  0  0  0  0  0
  1  2  1  0
  2  3  1  0
  3  4  1  0
  4  5  1  0
  3  6  1  0
  6  7  1  0
  7  8  1  0
  8  9  1  0
  9 10  1  0
 10 11  1  0
 11 12  1  0
 12 13  1  0
 13 14  2  0
 14 15  1  0
 15 16  2  0
 16 17  1  0
 16 18  1  0
 18 19  2  0
 12 20  1  0
 20 21  2  0
 21 22  1  0
 22 23  2  0
 23 24  1  0
 24 25  2  0
 19 13  1  0
 25 20  1  0
  1 26  1  0
  1 27  1  0
  1 28  1  0
  2 29  1  0
  2 30  1  0
  3 31  1  0
  4 32  1  0
  4 33  1  0
  5 34  1  0
  5 35  1  0
  5 36  1  0
  6 37  1  0
  6 38  1  0
  7 39  1  0
  7 40  1  0
  9 41  1  0
  9 42  1  0
 10 43  1  0
 10 44  1  0
 12 45  1  6
 14 46  1  0
 15 47  1  0
 18 48  1  0
 19 49  1  0
 21 50  1  0
 22 51  1  0
 23 52  1  0
 25 53  1  0
M  CHG  1   3   1
M  END
>  <UniqueID>  (21) 
21

>  <SMILES>  (21) 
CC[NH+](CC)CCOCCO[C@H](c1ccc(Br)cc1)c1cccnc1

>  <Energy>  (21) 
59.49973831240687

>  <Genealogy>  (21) 
CC[NH+](CC)CCOCCOC(c1ccc(Br)cc1)c1cccnc1 (protonated)
CC[NH+](CC)CCOCCO[C@H](c1ccc(Br)cc1)c1cccnc1 (chirality)
CC[NH+](CC)CCOCCO[C@H](c1ccc(Br)cc1)c1cccnc1 (3D coordinates assigned)
CC[NH+](CC)CCOCCO[C@H](c1ccc(Br)cc1)c1cccnc1 (optimized conformer: 59.49973831240687 kcal/mol)

>  <smiles>  (21) 
CCN(CC)CCOCCOC(c1ccc(Br)cc1)c1cccnc1

>  <score_type>  (21) 
oracle

>  <origin>  (21) 
adg

>  <m_score__min__energy>  (21) 
-7.2599999999999998

>  <m_primary>  (21) 
energy

$$$$
21:0
     RDKit          3D

 36 38  0  0  0  0  0  0  0  0999 V2000
   -6.0640   14.5700  -34.1950 C   0  0  0  0  0  0  0  0  0  0  0  0
   -6.8550   15.7410  -34.3750 O   0  0  0  0  0  0  0  0  0  0  0  0
   -6.5550   16.9910  -33.8170 C   0  0  0  0  0  0  0  0  0  0  0  0
   -6.0990   18.0060  -34.6670 C   0  0  0  0  0  0  0  0  0  0  0  0
   -5.7850   19.2700  -34.1580 C   0  0  0  0  0  0  0  0  0  0  0  0
   -5.9200   19.5320  -32.7880 C   0  0  0  0  0  0  0  0  0  0  0  0
   -5.5940   20.8330  -32.2620 N   0  0  0  0  0  0  0  0  0  0  0  0
   -4.3130   21.3180  -32.3580 C   0  0  0  0  0  0  0  0  0  0  0  0
   -2.9860   20.3530  -33.1010 S   0  0  0  0  0  0  0  0  0  0  0  0
   -1.6800   21.4630  -32.4910 C   0  0  0  0  0  0  0  0  0  0  0  0
   -0.6130   21.5460  -33.4890 C   0  0  0  0  0  0  0  0  0  0  0  0
    0.2320   21.6120  -34.2780 N   0  0  0  0  0  0  0  0  0  0  0  0
   -4.0100   22.5480  -31.8700 N   0  0  0  0  0  0  0  0  0  0  0  0
   -4.9450   23.3250  -31.2740 C   0  0  0  0  0  0  0  0  0  0  0  0
   -4.5950   24.5870  -30.7800 C   0  0  0  0  0  0  0  0  0  0  0  0
   -5.5590   25.3880  -30.1630 C   0  0  0  0  0  0  0  0  0  0  0  0
   -6.8740   24.9320  -30.0360 C   0  0  0  0  0  0  0  0  0  0  0  0
   -7.2320   23.6720  -30.5270 C   0  0  0  0  0  0  0  0  0  0  0  0
   -6.2670   22.8580  -31.1500 C   0  0  0  0  0  0  0  0  0  0  0  0
   -6.5720   21.5860  -31.6630 C   0  0  0  0  0  0  0  0  0  0  0  0
   -7.7510   21.1400  -31.5770 O   0  0  0  0  0  0  0  0  0  0  0  0
   -6.3830   18.5230  -31.9330 C   0  0  0  0  0  0  0  0  0  0  0  0
   -6.6970   17.2590  -32.4410 C   0  0  0  0  0  0  0  0  0  0  0  0
   -5.9338   14.3772  -33.1199 H   0  0  0  0  0  0  0  0  0  0  0  0
   -6.5680   13.7116  -34.6631 H   0  0  0  0  0  0  0  0  0  0  0  0
   -5.0795   14.7170  -34.6631 H   0  0  0  0  0  0  0  0  0  0  0  0
   -5.9869   17.8076  -35.7431 H   0  0  0  0  0  0  0  0  0  0  0  0
   -5.4309   20.0612  -34.8352 H   0  0  0  0  0  0  0  0  0  0  0  0
   -2.1001   22.4647  -32.3176 H   0  0  0  0  0  0  0  0  0  0  0  0
   -1.2731   21.0708  -31.5473 H   0  0  0  0  0  0  0  0  0  0  0  0
   -3.5606   24.9482  -30.8776 H   0  0  0  0  0  0  0  0  0  0  0  0
   -5.2824   26.3799  -29.7762 H   0  0  0  0  0  0  0  0  0  0  0  0
   -7.6296   25.5657  -29.5486 H   0  0  0  0  0  0  0  0  0  0  0  0
   -8.2682   23.3170  -30.4262 H   0  0  0  0  0  0  0  0  0  0  0  0
   -6.4998   18.7262  -30.8583 H   0  0  0  0  0  0  0  0  0  0  0  0
   -7.0564   16.4703  -31.7637 H   0  0  0  0  0  0  0  0  0  0  0  0
  1  2  1  0
  2  3  1  0
  3  4  2  0
  4  5  1  0
  5  6  2  0
  6  7  1  0
  7  8  1  0
  8  9  1  0
  9 10  1  0
 10 11  1  0
 11 12  3  0
  8 13  2  0
 13 14  1  0
 14 15  2  0
 15 16  1  0
 16 17  2  0
 17 18  1  0
 18 19  2  0
 19 20  1  0
 20 21  2  0
  6 22  1  0
 22 23  2  0
 23  3  1  0
 20  7  1  0
 19 14  1  0
  1 24  1  0
  1 25  1  0
  1 26  1  0
  4 27  1  0
  5 28  1  0
 10 29  1  0
 10 30  1  0
 15 31  1  0
 16 32  1  0
 17 33  1  0
 18 34  1  0
 22 35  1  0
 23 36  1  0
M  END
>  <UniqueID>  (22) 
22

>  <SMILES>  (22) 
COc1ccc(-n2c(SCC#N)nc3ccccc3c2=O)cc1

>  <Energy>  (22) 
46.33337151545527

>  <Genealogy>  (22) 
COc1ccc(-n2c(SCC#N)nc3ccccc3c2=O)cc1 (3D coordinates assigned)
COc1ccc(-n2c(SCC#N)nc3ccccc3c2=O)cc1 (optimized conformer: 46.33337151545527 kcal/mol)

>  <smiles>  (22) 
COc1ccc(-n2c(SCC#N)nc3ccccc3c2=O)cc1

>  <score_type>  (22) 
oracle

>  <origin>  (22) 
adg

>  <m_score__min__energy>  (22) 
-7.2400000000000002

>  <m_primary>  (22) 
energy

$$$$
22:0
     RDKit          3D

 31 32  0  0  0  0  0  0  0  0999 V2000
   -4.1940   22.9190  -27.9120 C   0  0  0  0  0  0  0  0  0  0  0  0
   -3.4170   21.9440  -28.7900 C   0  0  0  0  0  0  0  0  0  0  0  0
   -3.8600   22.0410  -30.1870 N   0  0  0  0  0  0  0  0  0  0  0  0
   -3.3840   21.0550  -31.1650 C   0  0  0  0  0  0  0  0  0  0  0  0
   -3.1050   21.7230  -32.5060 C   0  0  0  0  0  0  0  0  0  0  0  0
   -4.4680   23.2630  -30.6410 C   0  0  0  0  0  0  0  0  0  0  0  0
   -3.8670   24.4650  -30.5710 N   0  0  0  0  0  0  0  0  0  0  0  0
   -4.7010   25.2980  -31.1760 N   0  0  0  0  0  0  0  0  0  0  0  0
   -5.7720   24.6430  -31.6020 N   0  0  0  0  0  0  0  0  0  0  0  0
   -5.6520   23.3670  -31.2790 N   0  0  0  0  0  0  0  0  0  0  0  0
   -6.6710   22.3790  -31.5110 C   0  0  0  0  0  0  0  0  0  0  0  0
   -6.4580   21.3670  -32.4610 C   0  0  0  0  0  0  0  0  0  0  0  0
   -7.4470   20.4070  -32.7050 C   0  0  0  0  0  0  0  0  0  0  0  0
   -8.6590   20.4600  -32.0130 C   0  0  0  0  0  0  0  0  0  0  0  0
   -8.8880   21.4740  -31.0810 C   0  0  0  0  0  0  0  0  0  0  0  0
   -7.9020   22.4340  -30.8340 C   0  0  0  0  0  0  0  0  0  0  0  0
   -4.0087   22.6865  -26.8530 H   0  0  0  0  0  0  0  0  0  0  0  0
   -3.8645   23.9467  -28.1248 H   0  0  0  0  0  0  0  0  0  0  0  0
   -5.2693   22.8272  -28.1248 H   0  0  0  0  0  0  0  0  0  0  0  0
   -2.3446   22.1822  -28.7334 H   0  0  0  0  0  0  0  0  0  0  0  0
   -3.5988   20.9205  -28.4304 H   0  0  0  0  0  0  0  0  0  0  0  0
   -2.4583   20.5929  -30.7915 H   0  0  0  0  0  0  0  0  0  0  0  0
   -4.1614   20.2893  -31.3045 H   0  0  0  0  0  0  0  0  0  0  0  0
   -2.6862   22.7258  -32.3360 H   0  0  0  0  0  0  0  0  0  0  0  0
   -2.3850   21.1165  -33.0750 H   0  0  0  0  0  0  0  0  0  0  0  0
   -4.0425   21.8088  -33.0750 H   0  0  0  0  0  0  0  0  0  0  0  0
   -5.5092   21.3285  -33.0162 H   0  0  0  0  0  0  0  0  0  0  0  0
   -7.2695   19.6102  -33.4423 H   0  0  0  0  0  0  0  0  0  0  0  0
   -9.4337   19.7023  -32.2024 H   0  0  0  0  0  0  0  0  0  0  0  0
   -9.8451   21.5177  -30.5405 H   0  0  0  0  0  0  0  0  0  0  0  0
   -8.0904   23.2368  -30.1060 H   0  0  0  0  0  0  0  0  0  0  0  0
  1  2  1  0
  2  3  1  0
  3  4  1  0
  4  5  1  0
  3  6  1  0
  6  7  2  0
  7  8  1  0
  8  9  2  0
  9 10  1  0
 10 11  1  0
 11 12  2  0
 12 13  1  0
 13 14  2  0
 14 15  1  0
 15 16  2  0
 10  6  1  0
 16 11  1  0
  1 17  1  0
  1 18  1  0
  1 19  1  0
  2 20  1  0
  2 21  1  0
  4 22  1  0
  4 23  1  0
  5 24  1  0
  5 25  1  0
  5 26  1  0
 12 27  1  0
 13 28  1  0
 14 29  1  0
 15 30  1  0
 16 31  1  0
M  END
>  <UniqueID>  (23) 
23

>  <SMILES>  (23) 
CCN(CC)c1nnnn1-c1ccccc1

>  <Energy>  (23) 
71.99715572669363

>  <Genealogy>  (23) 
CCN(CC)c1nnnn1-c1ccccc1 (3D coordinates assigned)
CCN(CC)c1nnnn1-c1ccccc1 (optimized conformer: 71.99715572669363 kcal/mol)

>  <smiles>  (23) 
CCN(CC)c1nnnn1-c1ccccc1

>  <score_type>  (23) 
oracle

>  <origin>  (23) 
adg

>  <m_score__min__energy>  (23) 
-6.6500000000000004

>  <m_primary>  (23) 
energy

$$$$
23:0
     RDKit          3D

 59 61  0  0  0  0  0  0  0  0999 V2000
    0.2720   28.3800  -25.8550 C   0  0  0  0  0  0  0  0  0  0  0  0
    1.1430   27.1300  -25.7930 C   0  0  0  0  0  0  0  0  0  0  0  0
    1.5850   26.8880  -24.4090 N   0  0  0  0  0  0  0  0  0  0  0  0
    0.9610   27.6360  -23.3040 C   0  0  0  0  0  0  0  0  0  0  0  0
   -0.4590   27.1550  -22.9920 C   0  0  0  0  0  0  0  0  0  0  0  0
    2.4100   25.6990  -24.1230 C   0  0  0  0  0  0  0  0  0  0  0  0
    1.7440   24.3770  -24.5400 C   0  0  0  0  0  0  0  0  0  0  0  0
    0.3380   24.3100  -24.1140 N   0  0  0  0  0  0  0  0  0  0  0  0
   -0.5240   24.2440  -25.2680 C   0  0  0  0  0  0  0  0  0  0  0  0
   -1.5690   25.1660  -25.4310 C   0  0  0  0  0  0  0  0  0  0  0  0
   -2.4200   25.0830  -26.5320 C   0  0  0  0  0  0  0  0  0  0  0  0
   -2.2590   24.0650  -27.4860 C   0  0  0  0  0  0  0  0  0  0  0  0
   -3.1710   23.9930  -28.5950 N   0  0  0  0  0  0  0  0  0  0  0  0
   -4.1040   23.0430  -28.8110 C   0  0  0  0  0  0  0  0  0  0  0  0
   -4.8070   23.3720  -29.9560 C   0  0  0  0  0  0  0  0  0  0  0  0
   -5.9370   22.6290  -30.5690 C   0  0  0  0  0  0  0  0  0  0  0  0
   -7.2290   22.7030  -30.0140 C   0  0  0  0  0  0  0  0  0  0  0  0
   -8.2960   22.0140  -30.5990 C   0  0  0  0  0  0  0  0  0  0  0  0
   -8.0960   21.2480  -31.7550 C   0  0  0  0  0  0  0  0  0  0  0  0
   -9.2340   20.4840  -32.3660 C   0  0  0  0  0  0  0  0  0  0  0  0
   -6.8080   21.1490  -32.2980 C   0  0  0  0  0  0  0  0  0  0  0  0
   -5.7390   21.8360  -31.7140 C   0  0  0  0  0  0  0  0  0  0  0  0
   -4.2390   24.5630  -30.3840 C   0  0  0  0  0  0  0  0  0  0  0  0
   -3.2550   24.9200  -29.5370 N   0  0  0  0  0  0  0  0  0  0  0  0
   -1.2040   23.1390  -27.3430 C   0  0  0  0  0  0  0  0  0  0  0  0
   -1.0140   22.1610  -28.3330 O   0  0  0  0  0  0  0  0  0  0  0  0
   -0.6500   22.4300  -29.6830 C   0  0  0  0  0  0  0  0  0  0  0  0
   -0.3520   23.2310  -26.2250 C   0  0  0  0  0  0  0  0  0  0  0  0
    0.0384   28.7152  -24.8337 H   0  0  0  0  0  0  0  0  0  0  0  0
    0.8115   29.1768  -26.3880 H   0  0  0  0  0  0  0  0  0  0  0  0
   -0.6623   28.1498  -26.3880 H   0  0  0  0  0  0  0  0  0  0  0  0
    0.5628   26.2647  -26.1460 H   0  0  0  0  0  0  0  0  0  0  0  0
    2.0262   27.2751  -26.4324 H   0  0  0  0  0  0  0  0  0  0  0  0
    1.5798   27.5138  -22.4028 H   0  0  0  0  0  0  0  0  0  0  0  0
    0.8945   28.6898  -23.6122 H   0  0  0  0  0  0  0  0  0  0  0  0
   -0.5989   27.1076  -21.9020 H   0  0  0  0  0  0  0  0  0  0  0  0
   -1.1872   27.8566  -23.4250 H   0  0  0  0  0  0  0  0  0  0  0  0
   -0.6109   26.1553  -23.4250 H   0  0  0  0  0  0  0  0  0  0  0  0
    3.3615   25.7963  -24.6663 H   0  0  0  0  0  0  0  0  0  0  0  0
    2.5547   25.6594  -23.0333 H   0  0  0  0  0  0  0  0  0  0  0  0
    1.7878   24.2874  -25.6355 H   0  0  0  0  0  0  0  0  0  0  0  0
    2.2866   23.5543  -24.0514 H   0  0  0  0  0  0  0  0  0  0  0  0
    0.1840   23.4670  -23.5150 H   0  0  0  0  0  0  0  0  0  0  0  0
    0.0950   25.1580  -23.5480 H   0  0  0  0  0  0  0  0  0  0  0  0
   -1.7178   25.9601  -24.6845 H   0  0  0  0  0  0  0  0  0  0  0  0
   -3.2254   25.8220  -26.6548 H   0  0  0  0  0  0  0  0  0  0  0  0
   -4.2766   22.1566  -28.1829 H   0  0  0  0  0  0  0  0  0  0  0  0
   -7.4006   23.3085  -29.1118 H   0  0  0  0  0  0  0  0  0  0  0  0
   -9.2980   22.0737  -30.1491 H   0  0  0  0  0  0  0  0  0  0  0  0
   -9.8626   20.0620  -31.5680 H   0  0  0  0  0  0  0  0  0  0  0  0
   -9.8374   21.1607  -32.9889 H   0  0  0  0  0  0  0  0  0  0  0  0
   -8.8361   19.6693  -32.9889 H   0  0  0  0  0  0  0  0  0  0  0  0
   -6.6367   20.5271  -33.1890 H   0  0  0  0  0  0  0  0  0  0  0  0
   -4.7341   21.7556  -32.1540 H   0  0  0  0  0  0  0  0  0  0  0  0
   -4.5450   25.1281  -31.2768 H   0  0  0  0  0  0  0  0  0  0  0  0
    0.2345   23.0837  -29.7010 H   0  0  0  0  0  0  0  0  0  0  0  0
   -0.4179   21.4848  -30.1955 H   0  0  0  0  0  0  0  0  0  0  0  0
   -1.4855   22.9294  -30.1955 H   0  0  0  0  0  0  0  0  0  0  0  0
    0.4595   22.4990  -26.0999 H   0  0  0  0  0  0  0  0  0  0  0  0
  1  2  1  0
  2  3  1  0
  3  4  1  0
  4  5  1  0
  3  6  1  0
  6  7  1  0
  7  8  1  0
  8  9  1  0
  9 10  2  0
 10 11  1  0
 11 12  2  0
 12 13  1  0
 13 14  1  0
 14 15  2  0
 15 16  1  0
 16 17  2  0
 17 18  1  0
 18 19  2  0
 19 20  1  0
 19 21  1  0
 21 22  2  0
 15 23  1  0
 23 24  2  0
 12 25  1  0
 25 26  1  0
 26 27  1  0
 25 28  2  0
 28  9  1  0
 24 13  1  0
 22 16  1  0
  1 29  1  0
  1 30  1  0
  1 31  1  0
  2 32  1  0
  2 33  1  0
  4 34  1  0
  4 35  1  0
  5 36  1  0
  5 37  1  0
  5 38  1  0
  6 39  1  0
  6 40  1  0
  7 41  1  0
  7 42  1  0
  8 43  1  0
  8 44  1  0
 10 45  1  0
 11 46  1  0
 14 47  1  0
 17 48  1  0
 18 49  1  0
 20 50  1  0
 20 51  1  0
 20 52  1  0
 21 53  1  0
 22 54  1  0
 23 55  1  0
 27 56  1  0
 27 57  1  0
 27 58  1  0
 28 59  1  0
M  CHG  1   8   1
M  END
>  <UniqueID>  (24) 
24

>  <SMILES>  (24) 
CCN(CC)CC[NH2+]c1ccc(-n2cc(-c3ccc(C)cc3)cn2)c(OC)c1

>  <Energy>  (24) 
104.49322068164153

>  <Genealogy>  (24) 
CCN(CC)CC[NH2+]c1ccc(-n2cc(-c3ccc(C)cc3)cn2)c(OC)c1 (protonated)
CCN(CC)CC[NH2+]c1ccc(-n2cc(-c3ccc(C)cc3)cn2)c(OC)c1 (3D coordinates assigned)
CCN(CC)CC[NH2+]c1ccc(-n2cc(-c3ccc(C)cc3)cn2)c(OC)c1 (optimized conformer: 104.49322068164153 kcal/mol)

>  <smiles>  (24) 
CCN(CC)CCNc1ccc(-n2cc(-c3ccc(C)cc3)cn2)c(OC)c1

>  <score_type>  (24) 
oracle

>  <origin>  (24) 
adg

>  <m_score__min__energy>  (24) 
-7.7999999999999998

>  <m_primary>  (24) 
energy

$$$$
24:0
     RDKit          3D

 69 72  0  0  0  0  0  0  0  0999 V2000
   -6.4950   24.5390  -30.5430 C   0  0  0  0  0  0  0  0  0  0  0  0
   -5.7400   25.0270  -29.3080 C   0  0  0  0  0  0  0  0  0  0  0  0
   -4.4280   24.3510  -29.1920 N   0  0  0  0  0  0  0  0  0  0  0  0
   -4.2390   23.7430  -27.8470 C   0  0  0  0  0  0  0  0  0  0  0  0
   -4.2090   24.8420  -26.7910 C   0  0  0  0  0  0  0  0  0  0  0  0
   -4.2540   23.3560  -30.2740 C   0  0  0  0  0  0  0  0  0  0  0  0
   -3.4600   22.1380  -29.7760 C   0  0  0  0  0  0  0  0  0  0  0  0
   -2.4300   21.7300  -30.7520 N   0  0  0  0  0  0  0  0  0  0  0  0
   -1.0120   21.9690  -30.4390 C   0  0  0  0  0  0  0  0  0  0  0  0
   -0.8700   22.8370  -29.2140 C   0  0  0  0  0  0  0  0  0  0  0  0
   -1.0590   24.2250  -29.3030 C   0  0  0  0  0  0  0  0  0  0  0  0
   -0.8820   25.0380  -28.1800 C   0  0  0  0  0  0  0  0  0  0  0  0
   -0.5170   24.4770  -26.9440 C   0  0  0  0  0  0  0  0  0  0  0  0
   -0.3150   25.3410  -25.7520 C   0  0  0  0  0  0  0  0  0  0  0  0
   -1.4150   25.9330  -25.1020 C   0  0  0  0  0  0  0  0  0  0  0  0
   -1.2230   26.7370  -23.9730 C   0  0  0  0  0  0  0  0  0  0  0  0
    0.0660   26.9590  -23.4810 C   0  0  0  0  0  0  0  0  0  0  0  0
    1.1650   26.3790  -24.1190 C   0  0  0  0  0  0  0  0  0  0  0  0
    2.4150   26.5910  -23.6370 F   0  0  0  0  0  0  0  0  0  0  0  0
    0.9790   25.5740  -25.2480 C   0  0  0  0  0  0  0  0  0  0  0  0
   -0.3410   23.0850  -26.8550 C   0  0  0  0  0  0  0  0  0  0  0  0
   -0.5150   22.2740  -27.9790 C   0  0  0  0  0  0  0  0  0  0  0  0
   -2.8040   21.3020  -32.0850 C   0  0  0  0  0  0  0  0  0  0  0  0
   -2.0820   21.6160  -33.0720 O   0  0  0  0  0  0  0  0  0  0  0  0
   -4.0200   20.5030  -32.3380 C   0  0  0  0  0  0  0  0  0  0  0  0
   -3.9240   19.1470  -32.6910 C   0  0  0  0  0  0  0  0  0  0  0  0
   -5.0790   18.3950  -32.9250 C   0  0  0  0  0  0  0  0  0  0  0  0
   -6.3420   18.9880  -32.7940 C   0  0  0  0  0  0  0  0  0  0  0  0
   -6.4450   20.3470  -32.4560 C   0  0  0  0  0  0  0  0  0  0  0  0
   -5.2840   21.1050  -32.2440 C   0  0  0  0  0  0  0  0  0  0  0  0
   -7.8130   20.9610  -32.3610 C   0  0  0  0  0  0  0  0  0  0  0  0
   -8.7610   20.0210  -31.5970 C   0  0  0  0  0  0  0  0  0  0  0  0
   -8.7200   18.5470  -32.0800 C   0  0  0  0  0  0  0  0  0  0  0  0
   -7.6030   18.2210  -33.0930 C   0  0  0  0  0  0  0  0  0  0  0  0
   -7.3804   23.9667  -30.2291 H   0  0  0  0  0  0  0  0  0  0  0  0
   -6.8117   25.4037  -31.1446 H   0  0  0  0  0  0  0  0  0  0  0  0
   -5.8366   23.8951  -31.1446 H   0  0  0  0  0  0  0  0  0  0  0  0
   -5.5805   26.1124  -29.3885 H   0  0  0  0  0  0  0  0  0  0  0  0
   -6.3373   24.7927  -28.4145 H   0  0  0  0  0  0  0  0  0  0  0  0
   -5.0705   23.0545  -27.6359 H   0  0  0  0  0  0  0  0  0  0  0  0
   -3.2890   23.1888  -27.8259 H   0  0  0  0  0  0  0  0  0  0  0  0
   -4.2214   24.3882  -25.7891 H   0  0  0  0  0  0  0  0  0  0  0  0
   -3.2942   25.4409  -26.9110 H   0  0  0  0  0  0  0  0  0  0  0  0
   -5.0898   25.4899  -26.9110 H   0  0  0  0  0  0  0  0  0  0  0  0
   -5.2438   23.0237  -30.6204 H   0  0  0  0  0  0  0  0  0  0  0  0
   -3.6968   23.8261  -31.0977 H   0  0  0  0  0  0  0  0  0  0  0  0
   -2.9702   22.3946  -28.8251 H   0  0  0  0  0  0  0  0  0  0  0  0
   -4.1600   21.3003  -29.6412 H   0  0  0  0  0  0  0  0  0  0  0  0
   -0.5160   21.0043  -30.2563 H   0  0  0  0  0  0  0  0  0  0  0  0
   -0.5462   22.4853  -31.2914 H   0  0  0  0  0  0  0  0  0  0  0  0
   -1.3485   24.6762  -30.2635 H   0  0  0  0  0  0  0  0  0  0  0  0
   -1.0294   26.1248  -28.2641 H   0  0  0  0  0  0  0  0  0  0  0  0
   -2.4322   25.7622  -25.4844 H   0  0  0  0  0  0  0  0  0  0  0  0
   -2.0884   27.1952  -23.4718 H   0  0  0  0  0  0  0  0  0  0  0  0
    0.2150   27.5898  -22.5923 H   0  0  0  0  0  0  0  0  0  0  0  0
    1.8491   25.1202  -25.7451 H   0  0  0  0  0  0  0  0  0  0  0  0
   -0.0640   22.6307  -25.8923 H   0  0  0  0  0  0  0  0  0  0  0  0
   -0.3727   21.1865  -27.8952 H   0  0  0  0  0  0  0  0  0  0  0  0
   -2.9351   18.6743  -32.7838 H   0  0  0  0  0  0  0  0  0  0  0  0
   -4.9964   17.3364  -33.2123 H   0  0  0  0  0  0  0  0  0  0  0  0
   -5.3647   22.1753  -32.0032 H   0  0  0  0  0  0  0  0  0  0  0  0
   -7.7450   21.9210  -31.8283 H   0  0  0  0  0  0  0  0  0  0  0  0
   -8.2065   21.1235  -33.3753 H   0  0  0  0  0  0  0  0  0  0  0  0
   -8.4848   20.0431  -30.5325 H   0  0  0  0  0  0  0  0  0  0  0  0
   -9.7827   20.3854  -31.7797 H   0  0  0  0  0  0  0  0  0  0  0  0
   -8.5795   17.9035  -31.1990 H   0  0  0  0  0  0  0  0  0  0  0  0
   -9.6705   18.3700  -32.6047 H   0  0  0  0  0  0  0  0  0  0  0  0
   -7.3845   17.1438  -33.0490 H   0  0  0  0  0  0  0  0  0  0  0  0
   -7.9522   18.5105  -34.0951 H   0  0  0  0  0  0  0  0  0  0  0  0
  1  2  1  0
  2  3  1  0
  3  4  1  0
  4  5  1  0
  3  6  1  0
  6  7  1  0
  7  8  1  0
  8  9  1  0
  9 10  1  0
 10 11  2  0
 11 12  1  0
 12 13  2  0
 13 14  1  0
 14 15  2  0
 15 16  1  0
 16 17  2  0
 17 18  1  0
 18 19  1  0
 18 20  2  0
 13 21  1  0
 21 22  2  0
  8 23  1  0
 23 24  2  0
 23 25  1  0
 25 26  2  0
 26 27  1  0
 27 28  2  0
 28 29  1  0
 29 30  2  0
 29 31  1  0
 31 32  1  0
 32 33  1  0
 33 34  1  0
 22 10  1  0
 30 25  1  0
 20 14  1  0
 34 28  1  0
  1 35  1  0
  1 36  1  0
  1 37  1  0
  2 38  1  0
  2 39  1  0
  4 40  1  0
  4 41  1  0
  5 42  1  0
  5 43  1  0
  5 44  1  0
  6 45  1  0
  6 46  1  0
  7 47  1  0
  7 48  1  0
  9 49  1  0
  9 50  1  0
 11 51  1  0
 12 52  1  0
 15 53  1  0
 16 54  1  0
 17 55  1  0
 20 56  1  0
 21 57  1  0
 22 58  1  0
 26 59  1  0
 27 60  1  0
 30 61  1  0
 31 62  1  0
 31 63  1  0
 32 64  1  0
 32 65  1  0
 33 66  1  0
 33 67  1  0
 34 68  1  0
 34 69  1  0
M  END
>  <UniqueID>  (25) 
25

>  <SMILES>  (25) 
CCN(CC)CCN(Cc1ccc(-c2cccc(F)c2)cc1)C(=O)c1ccc2c(c1)CCCC2

>  <Energy>  (25) 
84.27976052209257

>  <Genealogy>  (25) 
CCN(CC)CCN(Cc1ccc(-c2cccc(F)c2)cc1)C(=O)c1ccc2c(c1)CCCC2 (3D coordinates assigned)
CCN(CC)CCN(Cc1ccc(-c2cccc(F)c2)cc1)C(=O)c1ccc2c(c1)CCCC2 (nonaromatic ring conformer: 84.27976052209257 kcal/mol)

>  <smiles>  (25) 
CCN(CC)CCN(Cc1ccc(-c2cccc(F)c2)cc1)C(=O)c1ccc2c(c1)CCCC2

>  <score_type>  (25) 
oracle

>  <origin>  (25) 
adg

>  <m_score__min__energy>  (25) 
-10.119999999999999

>  <m_primary>  (25) 
energy

$$$$
25:0
     RDKit          3D

 45 47  0  0  0  0  0  0  0  0999 V2000
   -4.2440   22.6260  -32.8330 O   0  0  0  0  0  0  0  0  0  0  0  0
   -4.3000   22.9070  -31.6050 C   0  0  0  0  0  0  0  0  0  0  0  0
   -3.1950   22.6130  -30.7770 C   0  0  0  0  0  0  0  0  0  0  0  0
   -2.0150   21.9650  -31.3040 N   0  0  0  0  0  0  0  0  0  0  0  0
   -2.2270   20.5230  -31.5320 C   0  0  0  0  0  0  0  0  0  0  0  0
   -2.4520   20.1760  -33.0130 C   0  0  0  0  0  0  0  0  0  0  0  0
   -2.0920   21.2460  -33.8450 O   0  0  0  0  0  0  0  0  0  0  0  0
   -3.2670   22.9450  -29.4160 C   0  0  0  0  0  0  0  0  0  0  0  0
   -4.4130   23.5410  -28.9030 C   0  0  0  0  0  0  0  0  0  0  0  0
   -5.4890   23.8020  -29.7480 C   0  0  0  0  0  0  0  0  0  0  0  0
   -5.4260   23.4930  -31.0790 N   0  0  0  0  0  0  0  0  0  0  0  0
   -6.6140   23.7370  -31.9160 C   0  0  0  0  0  0  0  0  0  0  0  0
   -7.3960   22.4610  -32.0880 C   0  0  0  0  0  0  0  0  0  0  0  0
   -8.7280   22.3880  -31.6580 C   0  0  0  0  0  0  0  0  0  0  0  0
   -9.4380   21.1910  -31.7640 C   0  0  0  0  0  0  0  0  0  0  0  0
   -8.8220   20.0530  -32.2910 C   0  0  0  0  0  0  0  0  0  0  0  0
   -7.4830   20.1020  -32.7200 C   0  0  0  0  0  0  0  0  0  0  0  0
   -6.8220   18.8900  -33.2670 C   0  0  0  0  0  0  0  0  0  0  0  0
   -7.1930   17.6080  -32.8210 C   0  0  0  0  0  0  0  0  0  0  0  0
   -6.5670   16.4700  -33.3360 C   0  0  0  0  0  0  0  0  0  0  0  0
   -5.5650   16.5960  -34.3010 C   0  0  0  0  0  0  0  0  0  0  0  0
   -5.1880   17.8630  -34.7520 C   0  0  0  0  0  0  0  0  0  0  0  0
   -5.8100   19.0050  -34.2400 C   0  0  0  0  0  0  0  0  0  0  0  0
   -6.7770   21.3140  -32.6130 C   0  0  0  0  0  0  0  0  0  0  0  0
   -1.7600   22.4130  -32.2150 H   0  0  0  0  0  0  0  0  0  0  0  0
   -1.1970   22.1040  -30.6650 H   0  0  0  0  0  0  0  0  0  0  0  0
   -1.3410   19.9776  -31.1748 H   0  0  0  0  0  0  0  0  0  0  0  0
   -3.1358   20.2332  -30.9842 H   0  0  0  0  0  0  0  0  0  0  0  0
   -1.8416   19.2985  -33.2726 H   0  0  0  0  0  0  0  0  0  0  0  0
   -3.5208   19.9630  -33.1623 H   0  0  0  0  0  0  0  0  0  0  0  0
   -2.9340   21.5970  -34.2380 H   0  0  0  0  0  0  0  0  0  0  0  0
   -2.4148   22.7332  -28.7535 H   0  0  0  0  0  0  0  0  0  0  0  0
   -4.4698   23.8048  -27.8366 H   0  0  0  0  0  0  0  0  0  0  0  0
   -6.4009   24.2624  -29.3399 H   0  0  0  0  0  0  0  0  0  0  0  0
   -7.2512   24.4920  -31.4323 H   0  0  0  0  0  0  0  0  0  0  0  0
   -6.2910   24.0977  -32.9037 H   0  0  0  0  0  0  0  0  0  0  0  0
   -9.2162   23.2783  -31.2350 H   0  0  0  0  0  0  0  0  0  0  0  0
  -10.4855   21.1434  -31.4317 H   0  0  0  0  0  0  0  0  0  0  0  0
   -9.3875   19.1129  -32.3710 H   0  0  0  0  0  0  0  0  0  0  0  0
   -7.9815   17.5010  -32.0615 H   0  0  0  0  0  0  0  0  0  0  0  0
   -6.8640   15.4723  -32.9806 H   0  0  0  0  0  0  0  0  0  0  0  0
   -5.0736   15.6987  -34.7052 H   0  0  0  0  0  0  0  0  0  0  0  0
   -4.3993   17.9623  -35.5123 H   0  0  0  0  0  0  0  0  0  0  0  0
   -5.5074   19.9997  -34.5991 H   0  0  0  0  0  0  0  0  0  0  0  0
   -5.7291   21.3644  -32.9439 H   0  0  0  0  0  0  0  0  0  0  0  0
  1  2  2  0
  2  3  1  0
  3  4  1  0
  4  5  1  0
  5  6  1  0
  6  7  1  0
  3  8  2  0
  8  9  1  0
  9 10  2  0
 10 11  1  0
 11 12  1  0
 12 13  1  0
 13 14  2  0
 14 15  1  0
 15 16  2  0
 16 17  1  0
 17 18  1  0
 18 19  2  0
 19 20  1  0
 20 21  2  0
 21 22  1  0
 22 23  2  0
 17 24  2  0
 11  2  1  0
 24 13  1  0
 23 18  1  0
  4 25  1  0
  4 26  1  0
  5 27  1  0
  5 28  1  0
  6 29  1  0
  6 30  1  0
  7 31  1  0
  8 32  1  0
  9 33  1  0
 10 34  1  0
 12 35  1  0
 12 36  1  0
 14 37  1  0
 15 38  1  0
 16 39  1  0
 19 40  1  0
 20 41  1  0
 21 42  1  0
 22 43  1  0
 23 44  1  0
 24 45  1  0
M  CHG  1   4   1
M  END
>  <UniqueID>  (26) 
26

>  <SMILES>  (26) 
O=c1c([NH2+]CCO)cccn1Cc1cccc(-c2ccccc2)c1

>  <Energy>  (26) 
54.57463731121723

>  <Genealogy>  (26) 
O=c1c([NH2+]CCO)cccn1Cc1cccc(-c2ccccc2)c1 (protonated)
O=c1c([NH2+]CCO)cccn1Cc1cccc(-c2ccccc2)c1 (3D coordinates assigned)
O=c1c([NH2+]CCO)cccn1Cc1cccc(-c2ccccc2)c1 (optimized conformer: 54.57463731121723 kcal/mol)

>  <smiles>  (26) 
O=c1c(NCCO)cccn1Cc1cccc(-c2ccccc2)c1

>  <score_type>  (26) 
oracle

>  <origin>  (26) 
adg

>  <m_score__min__energy>  (26) 
-8.6600000000000001

>  <m_primary>  (26) 
energy

$$$$
26:0
     RDKit          3D

 59 63  0  0  0  0  0  0  0  0999 V2000
   -0.7420   21.5190  -31.3010 C   0  0  0  0  0  0  0  0  0  0  0  0
    0.2500   20.7550  -31.9800 O   0  0  0  0  0  0  0  0  0  0  0  0
    0.6290   19.4490  -31.6280 C   0  0  0  0  0  0  0  0  0  0  0  0
   -0.1700   18.6540  -30.7790 C   0  0  0  0  0  0  0  0  0  0  0  0
    0.2290   17.3590  -30.4390 C   0  0  0  0  0  0  0  0  0  0  0  0
    1.4270   16.8410  -30.9340 C   0  0  0  0  0  0  0  0  0  0  0  0
    2.2300   17.6170  -31.7710 C   0  0  0  0  0  0  0  0  0  0  0  0
    1.8370   18.9180  -32.1330 C   0  0  0  0  0  0  0  0  0  0  0  0
    2.7300   19.7210  -33.0490 C   0  0  0  0  0  0  0  0  0  0  0  0
    2.1310   19.8360  -34.3850 N   0  0  0  0  0  0  0  0  0  0  0  0
    2.2750   18.7230  -35.3350 C   0  0  0  0  0  0  0  0  0  0  0  0
    0.9750   18.4990  -36.1180 C   0  0  0  0  0  0  0  0  0  0  0  0
   -0.1350   18.2180  -35.2100 N   0  0  0  0  0  0  0  0  0  0  0  0
   -0.4250   17.0190  -34.6690 C   0  0  0  0  0  0  0  0  0  0  0  0
   -1.6430   17.1100  -34.0240 C   0  0  0  0  0  0  0  0  0  0  0  0
   -2.0480   18.4230  -34.2150 C   0  0  0  0  0  0  0  0  0  0  0  0
   -3.3270   19.0210  -33.7710 C   0  0  0  0  0  0  0  0  0  0  0  0
   -4.5450   18.3690  -34.0220 C   0  0  0  0  0  0  0  0  0  0  0  0
   -5.7530   18.9340  -33.6050 C   0  0  0  0  0  0  0  0  0  0  0  0
   -5.7680   20.1620  -32.9190 C   0  0  0  0  0  0  0  0  0  0  0  0
   -7.0520   20.7580  -32.4620 C   0  0  0  0  0  0  0  0  0  0  0  0
   -7.1030   22.0960  -32.0200 C   0  0  0  0  0  0  0  0  0  0  0  0
   -8.3130   22.6550  -31.5940 C   0  0  0  0  0  0  0  0  0  0  0  0
   -9.4820   21.8900  -31.6060 C   0  0  0  0  0  0  0  0  0  0  0  0
   -9.4440   20.5640  -32.0430 C   0  0  0  0  0  0  0  0  0  0  0  0
   -8.2380   19.9980  -32.4670 C   0  0  0  0  0  0  0  0  0  0  0  0
   -4.5470   20.8130  -32.6690 C   0  0  0  0  0  0  0  0  0  0  0  0
   -3.3400   20.2510  -33.0940 C   0  0  0  0  0  0  0  0  0  0  0  0
   -1.1100   19.0690  -34.9360 N   0  0  0  0  0  0  0  0  0  0  0  0
    1.5640   21.0940  -34.8040 C   0  0  0  0  0  0  0  0  0  0  0  0
    0.2620   21.4270  -34.6790 N   0  0  0  0  0  0  0  0  0  0  0  0
   -0.0180   22.6440  -35.1630 N   0  0  0  0  0  0  0  0  0  0  0  0
    1.0060   23.3150  -35.6850 N   0  0  0  0  0  0  0  0  0  0  0  0
    2.3580   22.3590  -35.5450 S   0  0  0  0  0  0  0  0  0  0  0  0
   -0.6057   21.4140  -30.2145 H   0  0  0  0  0  0  0  0  0  0  0  0
   -0.6452   22.5781  -31.5820 H   0  0  0  0  0  0  0  0  0  0  0  0
   -1.7412   21.1549  -31.5820 H   0  0  0  0  0  0  0  0  0  0  0  0
   -1.1136   19.0567  -30.3821 H   0  0  0  0  0  0  0  0  0  0  0  0
   -0.4026   16.7459  -29.7794 H   0  0  0  0  0  0  0  0  0  0  0  0
    1.7382   15.8210  -30.6643 H   0  0  0  0  0  0  0  0  0  0  0  0
    3.1779   17.2079  -32.1506 H   0  0  0  0  0  0  0  0  0  0  0  0
    2.8689   20.7274  -32.6273 H   0  0  0  0  0  0  0  0  0  0  0  0
    3.6992   19.2084  -33.1380 H   0  0  0  0  0  0  0  0  0  0  0  0
    3.0854   18.9554  -36.0416 H   0  0  0  0  0  0  0  0  0  0  0  0
    2.5073   17.8077  -34.7709 H   0  0  0  0  0  0  0  0  0  0  0  0
    0.7445   19.4031  -36.7007 H   0  0  0  0  0  0  0  0  0  0  0  0
    1.1103   17.6367  -36.7874 H   0  0  0  0  0  0  0  0  0  0  0  0
    0.2031   16.1181  -34.7306 H   0  0  0  0  0  0  0  0  0  0  0  0
   -2.1747   16.3162  -33.4789 H   0  0  0  0  0  0  0  0  0  0  0  0
   -4.5482   17.4049  -34.5516 H   0  0  0  0  0  0  0  0  0  0  0  0
   -6.6996   18.4145  -33.8148 H   0  0  0  0  0  0  0  0  0  0  0  0
   -6.1863   22.7039  -32.0100 H   0  0  0  0  0  0  0  0  0  0  0  0
   -8.3439   23.6990  -31.2489 H   0  0  0  0  0  0  0  0  0  0  0  0
  -10.4321   22.3319  -31.2714 H   0  0  0  0  0  0  0  0  0  0  0  0
  -10.3655   19.9634  -32.0536 H   0  0  0  0  0  0  0  0  0  0  0  0
   -8.2151   18.9521  -32.8068 H   0  0  0  0  0  0  0  0  0  0  0  0
   -4.5417   21.7740  -32.1337 H   0  0  0  0  0  0  0  0  0  0  0  0
   -2.3937   20.7759  -32.8968 H   0  0  0  0  0  0  0  0  0  0  0  0
   -1.1550   20.0490  -35.2910 H   0  0  0  0  0  0  0  0  0  0  0  0
  1  2  1  0
  2  3  1  0
  3  4  2  0
  4  5  1  0
  5  6  2  0
  6  7  1  0
  7  8  2  0
  8  9  1  0
  9 10  1  0
 10 11  1  0
 11 12  1  0
 12 13  1  0
 13 14  1  0
 14 15  2  0
 15 16  1  0
 16 17  1  0
 17 18  2  0
 18 19  1  0
 19 20  2  0
 20 21  1  0
 21 22  2  0
 22 23  1  0
 23 24  2  0
 24 25  1  0
 25 26  2  0
 20 27  1  0
 27 28  2  0
 16 29  2  0
 10 30  1  0
 30 31  2  0
 31 32  1  0
 32 33  2  0
 33 34  1  0
  8  3  1  0
 29 13  1  0
 34 30  1  0
 28 17  1  0
 26 21  1  0
  1 35  1  0
  1 36  1  0
  1 37  1  0
  4 38  1  0
  5 39  1  0
  6 40  1  0
  7 41  1  0
  9 42  1  0
  9 43  1  0
 11 44  1  0
 11 45  1  0
 12 46  1  0
 12 47  1  0
 14 48  1  0
 15 49  1  0
 18 50  1  0
 19 51  1  0
 22 52  1  0
 23 53  1  0
 24 54  1  0
 25 55  1  0
 26 56  1  0
 27 57  1  0
 28 58  1  0
 29 59  1  0
M  CHG  1  29   1
M  END
>  <UniqueID>  (27) 
27

>  <SMILES>  (27) 
COc1ccccc1CN(CCn1ccc(-c2ccc(-c3ccccc3)cc2)[nH+]1)c1nnns1

>  <Energy>  (27) 
139.84969820685072

>  <Genealogy>  (27) 
COc1ccccc1CN(CCn1ccc(-c2ccc(-c3ccccc3)cc2)[nH+]1)c1nnns1 (protonated)
COc1ccccc1CN(CCn1ccc(-c2ccc(-c3ccccc3)cc2)[nH+]1)c1nnns1 (3D coordinates assigned)
COc1ccccc1CN(CCn1ccc(-c2ccc(-c3ccccc3)cc2)[nH+]1)c1nnns1 (optimized conformer: 139.84969820685072 kcal/mol)

>  <smiles>  (27) 
COc1ccccc1CN(CCn1ccc(-c2ccc(-c3ccccc3)cc2)n1)c1nnns1

>  <score_type>  (27) 
oracle

>  <origin>  (27) 
adg

>  <m_score__min__energy>  (27) 
-9.7400000000000002

>  <m_primary>  (27) 
energy

$$$$
27:0
     RDKit          3D

 56 59  0  0  0  0  0  0  0  0999 V2000
   -6.2670   25.0100  -29.7430 C   0  0  0  0  0  0  0  0  0  0  0  0
   -5.2140   25.2040  -30.8330 C   0  0  0  0  0  0  0  0  0  0  0  0
   -4.1250   24.2130  -30.6980 N   0  0  0  0  0  0  0  0  0  0  0  0
   -3.2190   24.4620  -29.5550 C   0  0  0  0  0  0  0  0  0  0  0  0
   -3.5740   23.6610  -28.3000 C   0  0  0  0  0  0  0  0  0  0  0  0
   -4.4760   22.7840  -30.9140 C   0  0  0  0  0  0  0  0  0  0  0  0
   -3.7290   22.1030  -32.0860 C   0  0  0  0  0  0  0  0  0  0  0  0
   -4.5940   21.8660  -33.2600 N   0  0  0  0  0  0  0  0  0  0  0  0
   -5.7020   20.9580  -32.9760 C   0  0  0  0  0  0  0  0  0  0  0  0
   -6.9560   21.4460  -32.5020 C   0  0  0  0  0  0  0  0  0  0  0  0
   -7.2240   22.8330  -32.3530 C   0  0  0  0  0  0  0  0  0  0  0  0
   -8.4710   23.2890  -31.9350 C   0  0  0  0  0  0  0  0  0  0  0  0
   -9.4880   22.3890  -31.6690 C   0  0  0  0  0  0  0  0  0  0  0  0
   -9.2580   21.0230  -31.7910 C   0  0  0  0  0  0  0  0  0  0  0  0
   -7.9870   20.5200  -32.1720 C   0  0  0  0  0  0  0  0  0  0  0  0
   -7.7540   19.1620  -32.2370 N   0  0  0  0  0  0  0  0  0  0  0  0
   -8.6920   18.2200  -31.5850 C   0  0  0  0  0  0  0  0  0  0  0  0
   -6.6320   18.6810  -32.8790 C   0  0  0  0  0  0  0  0  0  0  0  0
   -6.5270   17.3130  -33.2360 C   0  0  0  0  0  0  0  0  0  0  0  0
   -5.3610   16.7950  -33.8060 C   0  0  0  0  0  0  0  0  0  0  0  0
   -5.2710   15.4330  -34.1390 C   0  0  0  0  0  0  0  0  0  0  0  0
   -4.0950   14.9230  -34.6960 C   0  0  0  0  0  0  0  0  0  0  0  0
   -3.0060   15.7640  -34.9260 C   0  0  0  0  0  0  0  0  0  0  0  0
   -3.0890   17.1220  -34.6030 C   0  0  0  0  0  0  0  0  0  0  0  0
   -4.2670   17.6450  -34.0430 C   0  0  0  0  0  0  0  0  0  0  0  0
   -4.3690   19.0060  -33.7400 C   0  0  0  0  0  0  0  0  0  0  0  0
   -5.5590   19.5580  -33.2000 C   0  0  0  0  0  0  0  0  0  0  0  0
   -5.7921   25.0975  -28.7547 H   0  0  0  0  0  0  0  0  0  0  0  0
   -7.0462   25.7797  -29.8448 H   0  0  0  0  0  0  0  0  0  0  0  0
   -6.7208   24.0131  -29.8448 H   0  0  0  0  0  0  0  0  0  0  0  0
   -5.6892   25.0848  -31.8179 H   0  0  0  0  0  0  0  0  0  0  0  0
   -4.7858   26.2122  -30.7321 H   0  0  0  0  0  0  0  0  0  0  0  0
   -2.1959   24.1954  -29.8588 H   0  0  0  0  0  0  0  0  0  0  0  0
   -3.3168   25.5262  -29.2944 H   0  0  0  0  0  0  0  0  0  0  0  0
   -3.3145   24.2465  -27.4057 H   0  0  0  0  0  0  0  0  0  0  0  0
   -4.6524   23.4443  -28.2962 H   0  0  0  0  0  0  0  0  0  0  0  0
   -3.0102   22.7165  -28.2962 H   0  0  0  0  0  0  0  0  0  0  0  0
   -4.2429   22.2311  -29.9921 H   0  0  0  0  0  0  0  0  0  0  0  0
   -5.5447   22.7631  -31.1737 H   0  0  0  0  0  0  0  0  0  0  0  0
   -2.8924   22.7487  -32.3913 H   0  0  0  0  0  0  0  0  0  0  0  0
   -3.3809   21.1223  -31.7296 H   0  0  0  0  0  0  0  0  0  0  0  0
   -4.0190   21.5710  -34.0760 H   0  0  0  0  0  0  0  0  0  0  0  0
   -4.9780   22.7790  -33.5900 H   0  0  0  0  0  0  0  0  0  0  0  0
   -6.4298   23.5617  -32.5725 H   0  0  0  0  0  0  0  0  0  0  0  0
   -8.6486   24.3680  -31.8158 H   0  0  0  0  0  0  0  0  0  0  0  0
  -10.4788   22.7543  -31.3609 H   0  0  0  0  0  0  0  0  0  0  0  0
  -10.0778   20.3182  -31.5881 H   0  0  0  0  0  0  0  0  0  0  0  0
   -8.6020   18.3103  -30.4924 H   0  0  0  0  0  0  0  0  0  0  0  0
   -9.7218   18.4586  -31.8891 H   0  0  0  0  0  0  0  0  0  0  0  0
   -8.4490   17.1912  -31.8891 H   0  0  0  0  0  0  0  0  0  0  0  0
   -7.3826   16.6443  -33.0604 H   0  0  0  0  0  0  0  0  0  0  0  0
   -6.1279   14.7667  -33.9609 H   0  0  0  0  0  0  0  0  0  0  0  0
   -4.0279   13.8557  -34.9537 H   0  0  0  0  0  0  0  0  0  0  0  0
   -2.0811   15.3585  -35.3619 H   0  0  0  0  0  0  0  0  0  0  0  0
   -2.2294   17.7830  -34.7879 H   0  0  0  0  0  0  0  0  0  0  0  0
   -3.5069   19.6638  -33.9245 H   0  0  0  0  0  0  0  0  0  0  0  0
  1  2  1  0
  2  3  1  0
  3  4  1  0
  4  5  1  0
  3  6  1  0
  6  7  1  0
  7  8  1  0
  8  9  1  0
  9 10  2  0
 10 11  1  0
 11 12  2  0
 12 13  1  0
 13 14  2  0
 14 15  1  0
 15 16  2  0
 16 17  1  0
 16 18  1  0
 18 19  2  0
 19 20  1  0
 20 21  2  0
 21 22  1  0
 22 23  2  0
 23 24  1  0
 24 25  2  0
 25 26  1  0
 26 27  2  0
 27  9  1  0
 15 10  1  0
 27 18  1  0
 25 20  1  0
  1 28  1  0
  1 29  1  0
  1 30  1  0
  2 31  1  0
  2 32  1  0
  4 33  1  0
  4 34  1  0
  5 35  1  0
  5 36  1  0
  5 37  1  0
  6 38  1  0
  6 39  1  0
  7 40  1  0
  7 41  1  0
  8 42  1  0
  8 43  1  0
 11 44  1  0
 12 45  1  0
 13 46  1  0
 14 47  1  0
 17 48  1  0
 17 49  1  0
 17 50  1  0
 19 51  1  0
 21 52  1  0
 22 53  1  0
 23 54  1  0
 24 55  1  0
 26 56  1  0
M  CHG  2   8   1  16   1
M  END
>  <UniqueID>  (28) 
28

>  <SMILES>  (28) 
CCN(CC)CC[NH2+]c1c2ccccc2[n+](C)c2cc3ccccc3cc12

>  <Energy>  (28) 
97.1356747222777

>  <Genealogy>  (28) 
CCN(CC)CC[NH2+]c1c2ccccc2[n+](C)c2cc3ccccc3cc12 (protonated)
CCN(CC)CC[NH2+]c1c2ccccc2[n+](C)c2cc3ccccc3cc12 (3D coordinates assigned)
CCN(CC)CC[NH2+]c1c2ccccc2[n+](C)c2cc3ccccc3cc12 (optimized conformer: 97.1356747222777 kcal/mol)

>  <smiles>  (28) 
CCN(CC)CCNc1c2ccccc2[n+](C)c2cc3ccccc3cc12

>  <score_type>  (28) 
oracle

>  <origin>  (28) 
adg

>  <m_score__min__energy>  (28) 
-9.0299999999999994

>  <m_primary>  (28) 
energy

$$$$
28:0
     RDKit          3D

 49 52  0  0  0  0  0  0  0  0999 V2000
    0.4300   21.9921  -23.8320 H   0  0  0  0  0  0  0  0  0  0  0  0
   -0.2340   22.4720  -24.5660 C   0  0  0  0  0  0  0  0  0  0  0  0
   -0.5320   23.7720  -24.4160 C   0  0  0  0  0  0  0  0  0  0  0  0
   -0.9973   24.0925  -23.4722 H   0  0  0  0  0  0  0  0  0  0  0  0
   -0.2690   24.8010  -25.4520 C   0  0  0  0  0  0  0  0  0  0  0  0
    0.8400   25.6450  -25.2940 C   0  0  0  0  0  0  0  0  0  0  0  0
    1.4797   25.5439  -24.4049 H   0  0  0  0  0  0  0  0  0  0  0  0
    1.1390   26.6120  -26.2550 C   0  0  0  0  0  0  0  0  0  0  0  0
    2.0119   27.2676  -26.1199 H   0  0  0  0  0  0  0  0  0  0  0  0
    0.3340   26.7500  -27.3870 C   0  0  0  0  0  0  0  0  0  0  0  0
    0.5770   27.5107  -28.1435 H   0  0  0  0  0  0  0  0  0  0  0  0
   -0.7870   25.9190  -27.5630 C   0  0  0  0  0  0  0  0  0  0  0  0
   -1.6170   26.0000  -28.7310 N   0  0  0  0  0  0  0  0  0  0  0  0
   -2.3370   24.9230  -29.3390 C   0  0  0  0  0  0  0  0  0  0  0  0
   -1.9110   23.7390  -29.2520 O   0  0  0  0  0  0  0  0  0  0  0  0
   -3.4900   25.2230  -30.1340 N   0  0  0  0  0  0  0  0  0  0  0  0
   -4.5110   24.3010  -30.5400 C   0  0  0  0  0  0  0  0  0  0  0  0
   -5.8410   24.7050  -30.7540 C   0  0  0  0  0  0  0  0  0  0  0  0
   -6.1266   25.7551  -30.5938 H   0  0  0  0  0  0  0  0  0  0  0  0
   -6.8010   23.7790  -31.1690 C   0  0  0  0  0  0  0  0  0  0  0  0
   -7.8410   24.1034  -31.3213 H   0  0  0  0  0  0  0  0  0  0  0  0
   -6.4500   22.4350  -31.3940 C   0  0  0  0  0  0  0  0  0  0  0  0
   -7.4720   21.4500  -31.8340 C   0  0  0  0  0  0  0  0  0  0  0  0
   -7.0880   20.1670  -32.2660 C   0  0  0  0  0  0  0  0  0  0  0  0
   -6.0233   19.8909  -32.2796 H   0  0  0  0  0  0  0  0  0  0  0  0
   -8.0510   19.2410  -32.6780 C   0  0  0  0  0  0  0  0  0  0  0  0
   -7.7419   18.2407  -33.0153 H   0  0  0  0  0  0  0  0  0  0  0  0
   -9.4050   19.5840  -32.6620 C   0  0  0  0  0  0  0  0  0  0  0  0
  -10.1614   18.8539  -32.9857 H   0  0  0  0  0  0  0  0  0  0  0  0
   -9.7980   20.8540  -32.2350 C   0  0  0  0  0  0  0  0  0  0  0  0
  -10.8646   21.1229  -32.2222 H   0  0  0  0  0  0  0  0  0  0  0  0
   -8.8400   21.7840  -31.8240 C   0  0  0  0  0  0  0  0  0  0  0  0
   -9.1562   22.7834  -31.4905 H   0  0  0  0  0  0  0  0  0  0  0  0
   -5.1130   22.0430  -31.2020 C   0  0  0  0  0  0  0  0  0  0  0  0
   -4.8199   20.9978  -31.3799 H   0  0  0  0  0  0  0  0  0  0  0  0
   -4.1540   22.9710  -30.7870 C   0  0  0  0  0  0  0  0  0  0  0  0
   -3.1095   22.6530  -30.6534 H   0  0  0  0  0  0  0  0  0  0  0  0
   -1.0670   24.9330  -26.6070 C   0  0  0  0  0  0  0  0  0  0  0  0
   -1.9191   24.2543  -26.7595 H   0  0  0  0  0  0  0  0  0  0  0  0
   -0.7660   21.6620  -25.6820 C   0  0  0  0  0  0  0  0  0  0  0  0
   -1.6090   20.6160  -25.4450 N   0  0  0  0  0  0  0  0  0  0  0  0
   -2.1120   19.8530  -26.4520 C   0  0  0  0  0  0  0  0  0  0  0  0
   -2.7881   19.0162  -26.2226 H   0  0  0  0  0  0  0  0  0  0  0  0
   -1.7710   20.1310  -27.7760 C   0  0  0  0  0  0  0  0  0  0  0  0
   -2.1766   19.5187  -28.5949 H   0  0  0  0  0  0  0  0  0  0  0  0
   -0.9100   21.1940  -28.0500 C   0  0  0  0  0  0  0  0  0  0  0  0
   -0.6310   21.4237  -29.0889 H   0  0  0  0  0  0  0  0  0  0  0  0
   -0.4030   21.9660  -27.0020 C   0  0  0  0  0  0  0  0  0  0  0  0
    0.2759   22.8060  -27.2106 H   0  0  0  0  0  0  0  0  0  0  0  0
  1  2  1  0
  2  3  2  0
  3  4  1  0
  3  5  1  0
  5  6  2  0
  6  7  1  0
  6  8  1  0
  8  9  1  0
  8 10  2  0
 10 11  1  0
 10 12  1  0
 12 13  1  0
 13 14  1  0
 14 15  2  0
 14 16  1  0
 16 17  1  0
 17 18  2  0
 18 19  1  0
 18 20  1  0
 20 21  1  0
 20 22  2  0
 22 23  1  0
 23 24  2  0
 24 25  1  0
 24 26  1  0
 26 27  1  0
 26 28  2  0
 28 29  1  0
 28 30  1  0
 30 31  1  0
 30 32  2  0
 32 33  1  0
 22 34  1  0
 34 35  1  0
 34 36  2  0
 36 37  1  0
 12 38  2  0
 38 39  1  0
  2 40  1  0
 40 41  2  0
 41 42  1  0
 42 43  1  0
 42 44  2  0
 44 45  1  0
 44 46  1  0
 46 47  1  0
 46 48  2  0
 48 49  1  0
 38  5  1  0
 48 40  1  0
 36 17  1  0
 32 23  1  0
M  CHG  2  13  -1  16  -1
M  END
>  <UniqueID>  (29) 
29

>  <SMILES>  (29) 
O=C([N-]c1ccc(-c2ccccc2)cc1)[N-]c1cccc(/C=C/c2ccccn2)c1

>  <Energy>  (29) 
69.02498549857587

>  <Genealogy>  (29) 
O=C([N-]c1ccc(-c2ccccc2)cc1)[N-]c1cccc(C=Cc2ccccn2)c1 (protonated)
O=C([N-]c1ccc(-c2ccccc2)cc1)[N-]c1cccc(/C=C/c2ccccn2)c1 (cis-trans isomerization)
O=C([N-]c1ccc(-c2ccccc2)cc1)[N-]c1cccc(/C=C/c2ccccn2)c1 (3D coordinates assigned)
O=C([N-]c1ccc(-c2ccccc2)cc1)[N-]c1cccc(/C=C/c2ccccn2)c1 (optimized conformer: 69.02498549857587 kcal/mol)

>  <smiles>  (29) 
O=C(Nc1ccc(-c2ccccc2)cc1)Nc1cccc(C=Cc2ccccn2)c1

>  <score_type>  (29) 
oracle

>  <origin>  (29) 
adg

>  <m_score__min__energy>  (29) 
-12.5

>  <m_primary>  (29) 
energy

$$$$
29:0
     RDKit          3D

 45 48  0  0  0  0  0  0  0  0999 V2000
   -9.4870   21.6860  -31.9100 C   0  0  0  0  0  0  0  0  0  0  0  0
   -9.1050   20.2590  -31.5170 C   0  0  0  0  0  0  0  0  0  0  0  0
   -8.5740   19.4520  -32.7060 C   0  0  0  0  0  0  0  0  0  0  0  0
   -7.1360   19.6540  -32.8740 N   0  0  0  0  0  0  0  0  0  0  0  0
   -6.1820   18.7060  -32.7740 C   0  0  0  0  0  0  0  0  0  0  0  0
   -4.9470   19.3090  -32.9250 C   0  0  0  0  0  0  0  0  0  0  0  0
   -5.2310   20.6520  -33.1000 C   0  0  0  0  0  0  0  0  0  0  0  0
   -4.2200   21.7390  -33.3100 C   0  0  0  0  0  0  0  0  0  0  0  0
   -3.3220   21.8520  -32.1550 N   0  0  0  0  0  0  0  0  0  0  0  0
   -3.5450   22.4890  -30.9700 C   0  0  0  0  0  0  0  0  0  0  0  0
   -4.7610   23.2590  -30.6480 C   0  0  0  0  0  0  0  0  0  0  0  0
   -6.0150   22.6270  -30.6150 C   0  0  0  0  0  0  0  0  0  0  0  0
   -7.1660   23.3600  -30.3190 C   0  0  0  0  0  0  0  0  0  0  0  0
   -7.0780   24.7320  -30.0670 C   0  0  0  0  0  0  0  0  0  0  0  0
   -5.8360   25.3730  -30.1180 C   0  0  0  0  0  0  0  0  0  0  0  0
   -4.6800   24.6430  -30.4140 C   0  0  0  0  0  0  0  0  0  0  0  0
   -3.4820   25.2800  -30.4520 F   0  0  0  0  0  0  0  0  0  0  0  0
   -2.5340   22.3310  -30.0750 N   0  0  0  0  0  0  0  0  0  0  0  0
   -1.6470   21.5780  -30.7490 C   0  0  0  0  0  0  0  0  0  0  0  0
   -0.4110   21.1180  -30.2970 C   0  0  0  0  0  0  0  0  0  0  0  0
    0.3580   20.3360  -31.1790 C   0  0  0  0  0  0  0  0  0  0  0  0
   -0.1230   20.0330  -32.4730 C   0  0  0  0  0  0  0  0  0  0  0  0
   -1.3770   20.5100  -32.8980 C   0  0  0  0  0  0  0  0  0  0  0  0
   -2.1130   21.2860  -31.9980 C   0  0  0  0  0  0  0  0  0  0  0  0
   -6.5670   20.8290  -33.0770 N   0  0  0  0  0  0  0  0  0  0  0  0
   -9.6476   22.2858  -31.0020 H   0  0  0  0  0  0  0  0  0  0  0  0
   -8.6766   22.1318  -32.5054 H   0  0  0  0  0  0  0  0  0  0  0  0
  -10.4118   21.6673  -32.5054 H   0  0  0  0  0  0  0  0  0  0  0  0
   -8.3255   20.3020  -30.7420 H   0  0  0  0  0  0  0  0  0  0  0  0
  -10.0113   19.7573  -31.1471 H   0  0  0  0  0  0  0  0  0  0  0  0
   -8.7695   18.3836  -32.5320 H   0  0  0  0  0  0  0  0  0  0  0  0
   -9.0854   19.7930  -33.6182 H   0  0  0  0  0  0  0  0  0  0  0  0
   -6.3569   17.6338  -32.6014 H   0  0  0  0  0  0  0  0  0  0  0  0
   -3.9579   18.8278  -32.9095 H   0  0  0  0  0  0  0  0  0  0  0  0
   -3.6257   21.5092  -34.2066 H   0  0  0  0  0  0  0  0  0  0  0  0
   -4.7523   22.6935  -33.4348 H   0  0  0  0  0  0  0  0  0  0  0  0
   -6.0906   21.5496  -30.8233 H   0  0  0  0  0  0  0  0  0  0  0  0
   -8.1436   22.8569  -30.2841 H   0  0  0  0  0  0  0  0  0  0  0  0
   -7.9849   25.3072  -29.8287 H   0  0  0  0  0  0  0  0  0  0  0  0
   -5.7680   26.4538  -29.9249 H   0  0  0  0  0  0  0  0  0  0  0  0
   -0.0494   21.3579  -29.2862 H   0  0  0  0  0  0  0  0  0  0  0  0
    1.3402   19.9580  -30.8590 H   0  0  0  0  0  0  0  0  0  0  0  0
    0.4871   19.4200  -33.1527 H   0  0  0  0  0  0  0  0  0  0  0  0
   -1.7638   20.2805  -33.9018 H   0  0  0  0  0  0  0  0  0  0  0  0
   -7.0820   21.7310  -33.1790 H   0  0  0  0  0  0  0  0  0  0  0  0
  1  2  1  0
  2  3  1  0
  3  4  1  0
  4  5  1  0
  5  6  2  0
  6  7  1  0
  7  8  1  0
  8  9  1  0
  9 10  1  0
 10 11  1  0
 11 12  2  0
 12 13  1  0
 13 14  2  0
 14 15  1  0
 15 16  2  0
 16 17  1  0
 10 18  2  0
 18 19  1  0
 19 20  2  0
 20 21  1  0
 21 22  2  0
 22 23  1  0
 23 24  2  0
  7 25  2  0
 25  4  1  0
 24  9  1  0
 16 11  1  0
 24 19  1  0
  1 26  1  0
  1 27  1  0
  1 28  1  0
  2 29  1  0
  2 30  1  0
  3 31  1  0
  3 32  1  0
  5 33  1  0
  6 34  1  0
  8 35  1  0
  8 36  1  0
 12 37  1  0
 13 38  1  0
 14 39  1  0
 15 40  1  0
 20 41  1  0
 21 42  1  0
 22 43  1  0
 23 44  1  0
 25 45  1  0
M  CHG  1  25   1
M  END
>  <UniqueID>  (30) 
30

>  <SMILES>  (30) 
CCCn1ccc(Cn2c(-c3ccccc3F)nc3ccccc32)[nH+]1

>  <Energy>  (30) 
114.45014905804781

>  <Genealogy>  (30) 
CCCn1ccc(Cn2c(-c3ccccc3F)nc3ccccc32)[nH+]1 (protonated)
CCCn1ccc(Cn2c(-c3ccccc3F)nc3ccccc32)[nH+]1 (3D coordinates assigned)
CCCn1ccc(Cn2c(-c3ccccc3F)nc3ccccc32)[nH+]1 (optimized conformer: 114.45014905804781 kcal/mol)

>  <smiles>  (30) 
CCCn1ccc(Cn2c(-c3ccccc3F)nc3ccccc32)n1

>  <score_type>  (30) 
oracle

>  <origin>  (30) 
adg

>  <m_score__min__energy>  (30) 
-7.5300000000000002

>  <m_primary>  (30) 
energy

$$$$
30:0
     RDKit          3D

 52 54  0  0  0  0  0  0  0  0999 V2000
   -6.8650   15.2570  -34.2270 C   0  0  0  0  0  0  0  0  0  0  0  0
   -6.9720   16.6560  -33.6190 C   0  0  0  0  0  0  0  0  0  0  0  0
   -6.0580   16.8070  -32.4630 N   0  0  0  0  0  0  0  0  0  0  0  0
   -6.6130   17.7730  -31.4880 C   0  0  0  0  0  0  0  0  0  0  0  0
   -8.0340   18.1840  -31.8740 C   0  0  0  0  0  0  0  0  0  0  0  0
   -4.6840   17.1800  -32.8890 C   0  0  0  0  0  0  0  0  0  0  0  0
   -4.6690   17.4240  -34.3980 C   0  0  0  0  0  0  0  0  0  0  0  0
   -4.7410   18.8210  -34.6810 O   0  0  0  0  0  0  0  0  0  0  0  0
   -5.5840   19.7040  -33.9970 C   0  0  0  0  0  0  0  0  0  0  0  0
   -6.8340   19.6360  -34.1540 O   0  0  0  0  0  0  0  0  0  0  0  0
   -5.0040   20.7210  -33.0910 C   0  0  0  0  0  0  0  0  0  0  0  0
   -3.6110   20.8810  -33.0030 C   0  0  0  0  0  0  0  0  0  0  0  0
   -3.0590   21.8390  -32.1480 C   0  0  0  0  0  0  0  0  0  0  0  0
   -3.8900   22.6480  -31.3540 C   0  0  0  0  0  0  0  0  0  0  0  0
   -3.3470   23.6560  -30.4840 N   0  0  0  0  0  0  0  0  0  0  0  0
   -3.6550   23.7530  -29.0830 C   0  0  0  0  0  0  0  0  0  0  0  0
   -4.6660   23.1640  -28.6130 O   0  0  0  0  0  0  0  0  0  0  0  0
   -2.8300   24.5740  -28.1820 C   0  0  0  0  0  0  0  0  0  0  0  0
   -2.8600   24.5530  -26.7870 C   0  0  0  0  0  0  0  0  0  0  0  0
   -1.9260   25.4910  -26.4130 C   0  0  0  0  0  0  0  0  0  0  0  0
   -1.5130   25.9170  -25.1530 C   0  0  0  0  0  0  0  0  0  0  0  0
   -0.5210   26.9130  -25.0910 C   0  0  0  0  0  0  0  0  0  0  0  0
    0.0250   27.4530  -26.2770 C   0  0  0  0  0  0  0  0  0  0  0  0
   -0.4160   27.0020  -27.5360 C   0  0  0  0  0  0  0  0  0  0  0  0
   -1.3980   26.0140  -27.5630 C   0  0  0  0  0  0  0  0  0  0  0  0
   -1.9480   25.4580  -28.6150 O   0  0  0  0  0  0  0  0  0  0  0  0
   -5.2810   22.5040  -31.4580 C   0  0  0  0  0  0  0  0  0  0  0  0
   -5.8340   21.5460  -32.3120 C   0  0  0  0  0  0  0  0  0  0  0  0
   -6.8079   14.5104  -33.4212 H   0  0  0  0  0  0  0  0  0  0  0  0
   -7.7506   15.0586  -34.8486 H   0  0  0  0  0  0  0  0  0  0  0  0
   -5.9595   15.1956  -34.8486 H   0  0  0  0  0  0  0  0  0  0  0  0
   -6.7094   17.4012  -34.3843 H   0  0  0  0  0  0  0  0  0  0  0  0
   -8.0042   16.8070  -33.2700 H   0  0  0  0  0  0  0  0  0  0  0  0
   -6.6310   17.3082  -30.4912 H   0  0  0  0  0  0  0  0  0  0  0  0
   -5.9773   18.6707  -31.4826 H   0  0  0  0  0  0  0  0  0  0  0  0
   -8.6264   18.3553  -30.9631 H   0  0  0  0  0  0  0  0  0  0  0  0
   -7.9995   19.1090  -32.4683 H   0  0  0  0  0  0  0  0  0  0  0  0
   -8.4986   17.3834  -32.4683 H   0  0  0  0  0  0  0  0  0  0  0  0
   -4.3737   18.0966  -32.3659 H   0  0  0  0  0  0  0  0  0  0  0  0
   -3.9885   16.3644  -32.6417 H   0  0  0  0  0  0  0  0  0  0  0  0
   -3.7388   17.0168  -34.8210 H   0  0  0  0  0  0  0  0  0  0  0  0
   -5.5408   16.9255  -34.8468 H   0  0  0  0  0  0  0  0  0  0  0  0
   -2.9495   20.2472  -33.6119 H   0  0  0  0  0  0  0  0  0  0  0  0
   -1.9670   21.9606  -32.0962 H   0  0  0  0  0  0  0  0  0  0  0  0
   -2.7770   24.4170  -30.9180 H   0  0  0  0  0  0  0  0  0  0  0  0
   -3.4879   23.9283  -26.1347 H   0  0  0  0  0  0  0  0  0  0  0  0
   -1.9475   25.4894  -24.2374 H   0  0  0  0  0  0  0  0  0  0  0  0
   -0.1685   27.2734  -24.1133 H   0  0  0  0  0  0  0  0  0  0  0  0
    0.8001   28.2312  -26.2164 H   0  0  0  0  0  0  0  0  0  0  0  0
    0.0005   27.4156  -28.4663 H   0  0  0  0  0  0  0  0  0  0  0  0
   -5.9423   23.1505  -30.8624 H   0  0  0  0  0  0  0  0  0  0  0  0
   -6.9267   21.4366  -32.3752 H   0  0  0  0  0  0  0  0  0  0  0  0
  1  2  1  0
  2  3  1  0
  3  4  1  0
  4  5  1  0
  3  6  1  0
  6  7  1  0
  7  8  1  0
  8  9  1  0
  9 10  2  0
  9 11  1  0
 11 12  2  0
 12 13  1  0
 13 14  2  0
 14 15  1  0
 15 16  1  0
 16 17  2  0
 16 18  1  0
 18 19  2  0
 19 20  1  0
 20 21  2  0
 21 22  1  0
 22 23  2  0
 23 24  1  0
 24 25  2  0
 25 26  1  0
 14 27  1  0
 27 28  2  0
 28 11  1  0
 26 18  1  0
 25 20  1  0
  1 29  1  0
  1 30  1  0
  1 31  1  0
  2 32  1  0
  2 33  1  0
  4 34  1  0
  4 35  1  0
  5 36  1  0
  5 37  1  0
  5 38  1  0
  6 39  1  0
  6 40  1  0
  7 41  1  0
  7 42  1  0
 12 43  1  0
 13 44  1  0
 15 45  1  0
 19 46  1  0
 21 47  1  0
 22 48  1  0
 23 49  1  0
 24 50  1  0
 27 51  1  0
 28 52  1  0
M  END
>  <UniqueID>  (31) 
31

>  <SMILES>  (31) 
CCN(CC)CCOC(=O)c1ccc(NC(=O)c2cc3ccccc3o2)cc1

>  <Energy>  (31) 
87.78693079453348

>  <Genealogy>  (31) 
CCN(CC)CCOC(=O)c1ccc(NC(=O)c2cc3ccccc3o2)cc1 (3D coordinates assigned)
CCN(CC)CCOC(=O)c1ccc(NC(=O)c2cc3ccccc3o2)cc1 (optimized conformer: 87.78693079453348 kcal/mol)

>  <smiles>  (31) 
CCN(CC)CCOC(=O)c1ccc(NC(=O)c2cc3ccccc3o2)cc1

>  <score_type>  (31) 
oracle

>  <origin>  (31) 
adg

>  <m_score__min__energy>  (31) 
-7.9900000000000002

>  <m_primary>  (31) 
energy

$$$$
31:0
     RDKit          3D

 66 67  0  0  0  0  0  0  0  0999 V2000
   -3.1690   14.0930  -33.1080 C   0  0  0  0  0  0  0  0  0  0  0  0
   -4.3300   15.0740  -33.3340 C   0  0  0  0  0  0  0  0  0  0  0  0
   -4.9760   15.4250  -31.9880 C   0  0  0  0  0  0  0  0  0  0  0  0
   -3.8760   16.3680  -34.0580 C   0  0  0  0  0  0  0  0  0  0  0  0
   -4.4820   17.6110  -33.5140 N   0  0  1  0  0  0  0  0  0  0  0  0
   -3.6500   18.8200  -33.7850 C   0  0  0  0  0  0  0  0  0  0  0  0
   -3.6380   19.7920  -32.5850 C   0  0  2  0  0  0  0  0  0  0  0  0
   -4.6210   19.3960  -31.6650 O   0  0  0  0  0  0  0  0  0  0  0  0
   -3.9020   21.2450  -33.0280 C   0  0  0  0  0  0  0  0  0  0  0  0
   -5.1060   21.7660  -32.4600 O   0  0  0  0  0  0  0  0  0  0  0  0
   -5.1970   22.8840  -31.6120 C   0  0  0  0  0  0  0  0  0  0  0  0
   -6.4570   23.4540  -31.4040 C   0  0  0  0  0  0  0  0  0  0  0  0
   -6.5950   24.5950  -30.6100 C   0  0  0  0  0  0  0  0  0  0  0  0
   -5.4720   25.1750  -30.0170 C   0  0  0  0  0  0  0  0  0  0  0  0
   -4.2030   24.6180  -30.2030 C   0  0  0  0  0  0  0  0  0  0  0  0
   -3.1020   25.2570  -29.6050 O   0  0  0  0  0  0  0  0  0  0  0  0
   -2.3850   24.7700  -28.4710 C   0  0  0  0  0  0  0  0  0  0  0  0
   -1.0060   24.2270  -28.8960 C   0  0  0  0  0  0  0  0  0  0  0  0
    0.1410   24.9010  -28.2480 N   0  0  0  0  0  0  0  0  0  0  0  0
    0.9890   23.9760  -27.4780 C   0  0  0  0  0  0  0  0  0  0  0  0
   -0.2620   26.0580  -27.4320 C   0  0  0  0  0  0  0  0  0  0  0  0
   -4.0720   23.4550  -30.9870 C   0  0  0  0  0  0  0  0  0  0  0  0
   -6.0810   17.8090  -34.2010 S   0  0  0  0  0  0  0  0  0  0  0  0
   -5.9850   18.5750  -35.4920 O   0  0  0  0  0  0  0  0  0  0  0  0
   -6.6680   16.4580  -34.5070 O   0  0  0  0  0  0  0  0  0  0  0  0
   -7.1500   18.6730  -33.0930 C   0  0  0  0  0  0  0  0  0  0  0  0
   -7.3130   20.0620  -33.2000 C   0  0  0  0  0  0  0  0  0  0  0  0
   -8.1720   20.7380  -32.3280 C   0  0  0  0  0  0  0  0  0  0  0  0
   -8.8710   20.0330  -31.3450 C   0  0  0  0  0  0  0  0  0  0  0  0
   -8.7100   18.6480  -31.2310 C   0  0  0  0  0  0  0  0  0  0  0  0
   -7.8510   17.9690  -32.1010 C   0  0  0  0  0  0  0  0  0  0  0  0
   -3.0085   13.9574  -32.0283 H   0  0  0  0  0  0  0  0  0  0  0  0
   -3.4134   13.1237  -33.5670 H   0  0  0  0  0  0  0  0  0  0  0  0
   -2.2540   14.4957  -33.5670 H   0  0  0  0  0  0  0  0  0  0  0  0
   -5.0633   14.5771  -33.9863 H   0  0  0  0  0  0  0  0  0  0  0  0
   -4.3307   15.0744  -31.1691 H   0  0  0  0  0  0  0  0  0  0  0  0
   -5.1015   16.5154  -31.9148 H   0  0  0  0  0  0  0  0  0  0  0  0
   -5.9591   14.9370  -31.9148 H   0  0  0  0  0  0  0  0  0  0  0  0
   -2.7826   16.4487  -33.9684 H   0  0  0  0  0  0  0  0  0  0  0  0
   -4.2111   16.2819  -35.1022 H   0  0  0  0  0  0  0  0  0  0  0  0
   -4.6420   17.4890  -32.4890 H   0  0  0  0  0  0  0  0  0  0  0  0
   -2.6182   18.5018  -33.9951 H   0  0  0  0  0  0  0  0  0  0  0  0
   -4.0857   19.3474  -34.6464 H   0  0  0  0  0  0  0  0  0  0  0  0
   -2.6410   19.7571  -32.1215 H   0  0  0  0  0  0  0  0  0  0  0  0
   -5.1730   20.1980  -31.4690 H   0  0  0  0  0  0  0  0  0  0  0  0
   -3.0574   21.8731  -32.7084 H   0  0  0  0  0  0  0  0  0  0  0  0
   -4.0107   21.2528  -34.1226 H   0  0  0  0  0  0  0  0  0  0  0  0
   -7.3452   23.0009  -31.8686 H   0  0  0  0  0  0  0  0  0  0  0  0
   -7.5898   25.0371  -30.4518 H   0  0  0  0  0  0  0  0  0  0  0  0
   -5.5864   26.0774  -29.3985 H   0  0  0  0  0  0  0  0  0  0  0  0
   -2.2449   25.5904  -27.7517 H   0  0  0  0  0  0  0  0  0  0  0  0
   -2.9613   23.9548  -28.0092 H   0  0  0  0  0  0  0  0  0  0  0  0
   -0.9644   23.1572  -28.6433 H   0  0  0  0  0  0  0  0  0  0  0  0
   -0.9127   24.4157  -29.9757 H   0  0  0  0  0  0  0  0  0  0  0  0
    0.8337   24.1454  -26.4023 H   0  0  0  0  0  0  0  0  0  0  0  0
    0.7214   22.9388  -27.7282 H   0  0  0  0  0  0  0  0  0  0  0  0
    2.0455   24.1527  -27.7282 H   0  0  0  0  0  0  0  0  0  0  0  0
   -0.1733   25.8033  -26.3656 H   0  0  0  0  0  0  0  0  0  0  0  0
    0.3912   26.9131  -27.6603 H   0  0  0  0  0  0  0  0  0  0  0  0
   -1.3051   26.3222  -27.6603 H   0  0  0  0  0  0  0  0  0  0  0  0
   -3.0832   22.9894  -31.1118 H   0  0  0  0  0  0  0  0  0  0  0  0
   -6.7637   20.6210  -33.9719 H   0  0  0  0  0  0  0  0  0  0  0  0
   -8.2977   21.8272  -32.4162 H   0  0  0  0  0  0  0  0  0  0  0  0
   -9.5475   20.5666  -30.6611 H   0  0  0  0  0  0  0  0  0  0  0  0
   -9.2594   18.0927  -30.4566 H   0  0  0  0  0  0  0  0  0  0  0  0
   -7.7242   16.8803  -32.0078 H   0  0  0  0  0  0  0  0  0  0  0  0
  1  2  1  0
  2  3  1  0
  2  4  1  0
  4  5  1  0
  5  6  1  0
  6  7  1  0
  7  8  1  0
  7  9  1  0
  9 10  1  0
 10 11  1  0
 11 12  2  0
 12 13  1  0
 13 14  2  0
 14 15  1  0
 15 16  1  0
 16 17  1  0
 17 18  1  0
 18 19  1  0
 19 20  1  0
 19 21  1  0
 15 22  2  0
  5 23  1  0
 23 24  2  0
 23 25  2  0
 23 26  1  0
 26 27  2  0
 27 28  1  0
 28 29  2  0
 29 30  1  0
 30 31  2  0
 22 11  1  0
 31 26  1  0
  1 32  1  0
  1 33  1  0
  1 34  1  0
  2 35  1  0
  3 36  1  0
  3 37  1  0
  3 38  1  0
  4 39  1  0
  4 40  1  0
  5 41  1  1
  6 42  1  0
  6 43  1  0
  7 44  1  1
  8 45  1  0
  9 46  1  0
  9 47  1  0
 12 48  1  0
 13 49  1  0
 14 50  1  0
 17 51  1  0
 17 52  1  0
 18 53  1  0
 18 54  1  0
 20 55  1  0
 20 56  1  0
 20 57  1  0
 21 58  1  0
 21 59  1  0
 21 60  1  0
 22 61  1  0
 27 62  1  0
 28 63  1  0
 29 64  1  0
 30 65  1  0
 31 66  1  0
M  CHG  1   5   1
M  END
>  <UniqueID>  (32) 
32

>  <SMILES>  (32) 
CC(C)C[N@@H+](C[C@H](O)COc1cccc(OCCN(C)C)c1)S(=O)(=O)c1ccccc1

>  <Energy>  (32) 
59.98634594792666

>  <Genealogy>  (32) 
CC(C)C[NH+](CC(O)COc1cccc(OCCN(C)C)c1)S(=O)(=O)c1ccccc1 (protonated)
CC(C)C[N@@H+](C[C@H](O)COc1cccc(OCCN(C)C)c1)S(=O)(=O)c1ccccc1 (chirality)
CC(C)C[N@@H+](C[C@H](O)COc1cccc(OCCN(C)C)c1)S(=O)(=O)c1ccccc1 (3D coordinates assigned)
CC(C)C[N@@H+](C[C@H](O)COc1cccc(OCCN(C)C)c1)S(=O)(=O)c1ccccc1 (optimized conformer: 59.98634594792666 kcal/mol)

>  <smiles>  (32) 
CC(C)CN(CC(O)COc1cccc(OCCN(C)C)c1)S(=O)(=O)c1ccccc1

>  <score_type>  (32) 
oracle

>  <origin>  (32) 
adg

>  <m_score__min__energy>  (32) 
-8.2200000000000006

>  <m_primary>  (32) 
energy

$$$$
32:0
     RDKit          3D

 51 53  0  0  0  0  0  0  0  0999 V2000
   -6.6020   24.7450  -30.3370 C   0  0  0  0  0  0  0  0  0  0  0  0
   -5.4260   24.2380  -31.1690 C   0  0  0  0  0  0  0  0  0  0  0  0
   -4.1520   24.4170  -30.4370 N   0  0  0  0  0  0  0  0  0  0  0  0
   -4.3650   24.5430  -28.9750 C   0  0  0  0  0  0  0  0  0  0  0  0
   -3.9760   23.2600  -28.2450 C   0  0  0  0  0  0  0  0  0  0  0  0
   -3.1420   23.3910  -30.8060 C   0  0  0  0  0  0  0  0  0  0  0  0
   -3.7250   22.1510  -31.4550 C   0  0  0  0  0  0  0  0  0  0  0  0
   -3.9320   22.1090  -32.8440 C   0  0  0  0  0  0  0  0  0  0  0  0
   -4.4710   20.9700  -33.4470 C   0  0  0  0  0  0  0  0  0  0  0  0
   -4.8320   19.8610  -32.6690 C   0  0  0  0  0  0  0  0  0  0  0  0
   -5.4100   18.6950  -33.2780 N   0  0  0  0  0  0  0  0  0  0  0  0
   -4.8210   17.9110  -34.1970 C   0  0  0  0  0  0  0  0  0  0  0  0
   -5.6800   16.8790  -34.4950 C   0  0  0  0  0  0  0  0  0  0  0  0
   -6.8030   16.9960  -33.7570 N   0  0  0  0  0  0  0  0  0  0  0  0
   -6.6050   18.1100  -33.0210 C   0  0  0  0  0  0  0  0  0  0  0  0
   -7.5990   18.5830  -31.9950 C   0  0  0  0  0  0  0  0  0  0  0  0
   -8.0230   19.9670  -32.2770 N   0  0  0  0  0  0  0  0  0  0  0  0
   -9.4800   20.0850  -32.3380 C   0  0  0  0  0  0  0  0  0  0  0  0
   -9.8110   21.5320  -32.0070 C   0  0  0  0  0  0  0  0  0  0  0  0
   -8.5900   22.0660  -31.2730 C   0  0  0  0  0  0  0  0  0  0  0  0
   -7.6000   20.9130  -31.2400 C   0  0  0  0  0  0  0  0  0  0  0  0
   -4.6260   19.8990  -31.2820 C   0  0  0  0  0  0  0  0  0  0  0  0
   -4.0860   21.0380  -30.6780 C   0  0  0  0  0  0  0  0  0  0  0  0
   -6.3655   24.6430  -29.2676 H   0  0  0  0  0  0  0  0  0  0  0  0
   -6.7882   25.8033  -30.5721 H   0  0  0  0  0  0  0  0  0  0  0  0
   -7.4993   24.1538  -30.5721 H   0  0  0  0  0  0  0  0  0  0  0  0
   -5.5710   23.1693  -31.3856 H   0  0  0  0  0  0  0  0  0  0  0  0
   -5.3803   24.8142  -32.1049 H   0  0  0  0  0  0  0  0  0  0  0  0
   -3.7512   25.3724  -28.5937 H   0  0  0  0  0  0  0  0  0  0  0  0
   -5.4332   24.7345  -28.7951 H   0  0  0  0  0  0  0  0  0  0  0  0
   -4.0265   23.4264  -27.1588 H   0  0  0  0  0  0  0  0  0  0  0  0
   -4.6701   22.4539  -28.5251 H   0  0  0  0  0  0  0  0  0  0  0  0
   -2.9511   22.9751  -28.5251 H   0  0  0  0  0  0  0  0  0  0  0  0
   -2.4291   23.8459  -31.5094 H   0  0  0  0  0  0  0  0  0  0  0  0
   -2.6665   23.0641  -29.8695 H   0  0  0  0  0  0  0  0  0  0  0  0
   -3.6675   22.9800  -33.4616 H   0  0  0  0  0  0  0  0  0  0  0  0
   -4.6129   20.9431  -34.5375 H   0  0  0  0  0  0  0  0  0  0  0  0
   -3.8242   18.0676  -34.6351 H   0  0  0  0  0  0  0  0  0  0  0  0
   -5.4814   16.0798  -35.2243 H   0  0  0  0  0  0  0  0  0  0  0  0
   -8.4799   17.9245  -32.0157 H   0  0  0  0  0  0  0  0  0  0  0  0
   -7.1234   18.5546  -31.0035 H   0  0  0  0  0  0  0  0  0  0  0  0
   -9.8395   19.8343  -33.3469 H   0  0  0  0  0  0  0  0  0  0  0  0
   -9.9646   19.3948  -31.6317 H   0  0  0  0  0  0  0  0  0  0  0  0
   -9.9888   22.1068  -32.9279 H   0  0  0  0  0  0  0  0  0  0  0  0
  -10.7237   21.6148  -31.3986 H   0  0  0  0  0  0  0  0  0  0  0  0
   -8.1625   22.9245  -31.8117 H   0  0  0  0  0  0  0  0  0  0  0  0
   -8.8427   22.4162  -30.2613 H   0  0  0  0  0  0  0  0  0  0  0  0
   -6.5844   21.2788  -31.4516 H   0  0  0  0  0  0  0  0  0  0  0  0
   -7.5822   20.4340  -30.2499 H   0  0  0  0  0  0  0  0  0  0  0  0
   -4.8910   19.0271  -30.6659 H   0  0  0  0  0  0  0  0  0  0  0  0
   -3.9429   21.0629  -29.5876 H   0  0  0  0  0  0  0  0  0  0  0  0
  1  2  1  0
  2  3  1  0
  3  4  1  0
  4  5  1  0
  3  6  1  0
  6  7  1  0
  7  8  2  0
  8  9  1  0
  9 10  2  0
 10 11  1  0
 11 12  1  0
 12 13  2  0
 13 14  1  0
 14 15  2  0
 15 16  1  0
 16 17  1  0
 17 18  1  0
 18 19  1  0
 19 20  1  0
 20 21  1  0
 10 22  1  0
 22 23  2  0
 23  7  1  0
 15 11  1  0
 21 17  1  0
  1 24  1  0
  1 25  1  0
  1 26  1  0
  2 27  1  0
  2 28  1  0
  4 29  1  0
  4 30  1  0
  5 31  1  0
  5 32  1  0
  5 33  1  0
  6 34  1  0
  6 35  1  0
  8 36  1  0
  9 37  1  0
 12 38  1  0
 13 39  1  0
 16 40  1  0
 16 41  1  0
 18 42  1  0
 18 43  1  0
 19 44  1  0
 19 45  1  0
 20 46  1  0
 20 47  1  0
 21 48  1  0
 21 49  1  0
 22 50  1  0
 23 51  1  0
M  END
>  <UniqueID>  (33) 
33

>  <SMILES>  (33) 
CCN(CC)Cc1ccc(-n2ccnc2CN2CCCC2)cc1

>  <Energy>  (33) 
87.36981267248767

>  <Genealogy>  (33) 
CCN(CC)Cc1ccc(-n2ccnc2CN2CCCC2)cc1 (3D coordinates assigned)
CCN(CC)Cc1ccc(-n2ccnc2CN2CCCC2)cc1 (nonaromatic ring conformer: 87.36981267248767 kcal/mol)

>  <smiles>  (33) 
CCN(CC)Cc1ccc(-n2ccnc2CN2CCCC2)cc1

>  <score_type>  (33) 
oracle

>  <origin>  (33) 
adg

>  <m_score__min__energy>  (33) 
-7.4199999999999999

>  <m_primary>  (33) 
energy

$$$$
33:0
     RDKit          3D

 71 75  0  0  0  0  0  0  0  0999 V2000
   -4.6070   13.2840  -31.2080 C   0  0  0  0  0  0  0  0  0  0  0  0
   -3.3380   13.6520  -31.9750 C   0  0  0  0  0  0  0  0  0  0  0  0
   -3.6600   14.0690  -33.4190 C   0  0  0  0  0  0  0  0  0  0  0  0
   -3.5760   15.5540  -33.5690 N   0  0  0  0  0  0  0  0  0  0  0  0
   -4.9320   16.1030  -33.8420 C   0  0  0  0  0  0  0  0  0  0  0  0
   -5.7380   16.3300  -32.5390 C   0  0  0  0  0  0  0  0  0  0  0  0
   -6.1200   17.7580  -32.3770 N   0  0  0  0  0  0  0  0  0  0  0  0
   -5.6200   18.5820  -33.5220 C   0  0  0  0  0  0  0  0  0  0  0  0
   -6.5070   19.8010  -33.8460 C   0  0  0  0  0  0  0  0  0  0  0  0
   -7.1770   20.2800  -32.6390 N   0  0  0  0  0  0  0  0  0  0  0  0
   -6.8460   21.5730  -32.0990 C   0  0  0  0  0  0  0  0  0  0  0  0
   -5.4950   21.9110  -31.9170 C   0  0  0  0  0  0  0  0  0  0  0  0
   -5.1420   23.1570  -31.3950 C   0  0  0  0  0  0  0  0  0  0  0  0
   -6.1320   24.0770  -31.0520 C   0  0  0  0  0  0  0  0  0  0  0  0
   -5.6800   25.6420  -30.3970 Cl  0  0  0  0  0  0  0  0  0  0  0  0
   -7.4820   23.7530  -31.2280 C   0  0  0  0  0  0  0  0  0  0  0  0
   -7.8510   22.5080  -31.7650 C   0  0  0  0  0  0  0  0  0  0  0  0
   -9.3090   22.1840  -31.9450 C   0  0  0  0  0  0  0  0  0  0  0  0
   -7.9560   19.3310  -31.8360 C   0  0  0  0  0  0  0  0  0  0  0  0
   -7.5860   17.8830  -32.2030 C   0  0  0  0  0  0  0  0  0  0  0  0
   -2.5560   15.9260  -34.6080 C   0  0  2  0  0  0  0  0  0  0  0  0
   -1.1750   15.3240  -34.2570 C   0  0  0  0  0  0  0  0  0  0  0  0
   -0.6520   15.8440  -32.9040 C   0  0  0  0  0  0  0  0  0  0  0  0
   -0.8880   17.3230  -32.6850 C   0  0  0  0  0  0  0  0  0  0  0  0
   -0.2990   17.9420  -31.5540 C   0  0  0  0  0  0  0  0  0  0  0  0
   -0.5290   19.2970  -31.2710 C   0  0  0  0  0  0  0  0  0  0  0  0
   -1.3580   20.0100  -32.1300 C   0  0  0  0  0  0  0  0  0  0  0  0
   -1.7140   21.3010  -32.0260 N   0  0  0  0  0  0  0  0  0  0  0  0
   -2.5570   21.5390  -33.0560 C   0  0  0  0  0  0  0  0  0  0  0  0
   -2.7320   20.3920  -33.8220 C   0  0  0  0  0  0  0  0  0  0  0  0
   -1.9560   19.4210  -33.2160 C   0  0  0  0  0  0  0  0  0  0  0  0
   -1.7590   18.0680  -33.5260 C   0  0  0  0  0  0  0  0  0  0  0  0
   -2.3200   17.4490  -34.7830 C   0  0  0  0  0  0  0  0  0  0  0  0
   -4.4115   13.3407  -30.1270 H   0  0  0  0  0  0  0  0  0  0  0  0
   -5.4117   13.9858  -31.4724 H   0  0  0  0  0  0  0  0  0  0  0  0
   -4.9114   12.2606  -31.4724 H   0  0  0  0  0  0  0  0  0  0  0  0
   -2.8396   14.4884  -31.4631 H   0  0  0  0  0  0  0  0  0  0  0  0
   -2.6826   12.7691  -32.0063 H   0  0  0  0  0  0  0  0  0  0  0  0
   -2.9389   13.5954  -34.1014 H   0  0  0  0  0  0  0  0  0  0  0  0
   -4.6829   13.7453  -33.6619 H   0  0  0  0  0  0  0  0  0  0  0  0
   -4.8272   17.0639  -34.3670 H   0  0  0  0  0  0  0  0  0  0  0  0
   -5.4777   15.3719  -34.4566 H   0  0  0  0  0  0  0  0  0  0  0  0
   -6.6509   15.7172  -32.5719 H   0  0  0  0  0  0  0  0  0  0  0  0
   -5.1046   16.0430  -31.6866 H   0  0  0  0  0  0  0  0  0  0  0  0
   -5.6740   18.1140  -31.4960 H   0  0  0  0  0  0  0  0  0  0  0  0
   -4.6110   18.9434  -33.2745 H   0  0  0  0  0  0  0  0  0  0  0  0
   -5.6291   17.9340  -34.4109 H   0  0  0  0  0  0  0  0  0  0  0  0
   -5.8800   20.6064  -34.2561 H   0  0  0  0  0  0  0  0  0  0  0  0
   -7.2684   19.5022  -34.5815 H   0  0  0  0  0  0  0  0  0  0  0  0
   -4.7100   21.1895  -32.1874 H   0  0  0  0  0  0  0  0  0  0  0  0
   -4.0815   23.4131  -31.2542 H   0  0  0  0  0  0  0  0  0  0  0  0
   -8.2594   24.4777  -30.9441 H   0  0  0  0  0  0  0  0  0  0  0  0
   -9.7855   22.0781  -30.9592 H   0  0  0  0  0  0  0  0  0  0  0  0
   -9.7986   22.9952  -32.5037 H   0  0  0  0  0  0  0  0  0  0  0  0
   -9.4090   21.2417  -32.5037 H   0  0  0  0  0  0  0  0  0  0  0  0
   -7.7440   19.4996  -30.7699 H   0  0  0  0  0  0  0  0  0  0  0  0
   -9.0257   19.4872  -32.0395 H   0  0  0  0  0  0  0  0  0  0  0  0
   -7.9152   17.2088  -31.3986 H   0  0  0  0  0  0  0  0  0  0  0  0
   -8.0837   17.6134  -33.1462 H   0  0  0  0  0  0  0  0  0  0  0  0
   -2.9801   15.5262  -35.5409 H   0  0  0  0  0  0  0  0  0  0  0  0
   -1.2662   14.2290  -34.2065 H   0  0  0  0  0  0  0  0  0  0  0  0
   -0.4617   15.6254  -35.0383 H   0  0  0  0  0  0  0  0  0  0  0  0
   -1.1583   15.2893  -32.1002 H   0  0  0  0  0  0  0  0  0  0  0  0
    0.4371   15.6896  -32.9010 H   0  0  0  0  0  0  0  0  0  0  0  0
    0.3478   17.3515  -30.8884 H   0  0  0  0  0  0  0  0  0  0  0  0
   -0.0679   19.7801  -30.3969 H   0  0  0  0  0  0  0  0  0  0  0  0
   -1.4220   21.9780  -31.2870 H   0  0  0  0  0  0  0  0  0  0  0  0
   -3.0382   22.5069  -33.2599 H   0  0  0  0  0  0  0  0  0  0  0  0
   -3.3563   20.2804  -34.7208 H   0  0  0  0  0  0  0  0  0  0  0  0
   -3.2774   17.9340  -35.0241 H   0  0  0  0  0  0  0  0  0  0  0  0
   -1.5925   17.5953  -35.5950 H   0  0  0  0  0  0  0  0  0  0  0  0
  1  2  1  0
  2  3  1  0
  3  4  1  0
  4  5  1  0
  5  6  1  0
  6  7  1  0
  7  8  1  0
  8  9  1  0
  9 10  1  0
 10 11  1  0
 11 12  2  0
 12 13  1  0
 13 14  2  0
 14 15  1  0
 14 16  1  0
 16 17  2  0
 17 18  1  0
 10 19  1  0
 19 20  1  0
  4 21  1  0
 21 22  1  0
 22 23  1  0
 23 24  1  0
 24 25  2  0
 25 26  1  0
 26 27  2  0
 27 28  1  0
 28 29  1  0
 29 30  2  0
 30 31  1  0
 31 32  2  0
 32 33  1  0
 20  7  1  0
 33 21  1  0
 17 11  1  0
 32 24  1  0
 31 27  1  0
  1 34  1  0
  1 35  1  0
  1 36  1  0
  2 37  1  0
  2 38  1  0
  3 39  1  0
  3 40  1  0
  5 41  1  0
  5 42  1  0
  6 43  1  0
  6 44  1  0
  7 45  1  0
  8 46  1  0
  8 47  1  0
  9 48  1  0
  9 49  1  0
 12 50  1  0
 13 51  1  0
 16 52  1  0
 18 53  1  0
 18 54  1  0
 18 55  1  0
 19 56  1  0
 19 57  1  0
 20 58  1  0
 20 59  1  0
 21 60  1  6
 22 61  1  0
 22 62  1  0
 23 63  1  0
 23 64  1  0
 25 65  1  0
 26 66  1  0
 28 67  1  0
 29 68  1  0
 30 69  1  0
 33 70  1  0
 33 71  1  0
M  CHG  1   7   1
M  END
>  <UniqueID>  (34) 
34

>  <SMILES>  (34) 
CCCN(CC[NH+]1CCN(c2ccc(Cl)cc2C)CC1)[C@@H]1CCc2ccc3[nH]ccc3c2C1

>  <Energy>  (34) 
129.64483458052192

>  <Genealogy>  (34) 
CCCN(CC[NH+]1CCN(c2ccc(Cl)cc2C)CC1)C1CCc2ccc3[nH]ccc3c2C1 (protonated)
CCCN(CC[NH+]1CCN(c2ccc(Cl)cc2C)CC1)[C@@H]1CCc2ccc3[nH]ccc3c2C1 (chirality)
CCCN(CC[NH+]1CCN(c2ccc(Cl)cc2C)CC1)[C@@H]1CCc2ccc3[nH]ccc3c2C1 (3D coordinates assigned)
CCCN(CC[NH+]1CCN(c2ccc(Cl)cc2C)CC1)[C@@H]1CCc2ccc3[nH]ccc3c2C1 (nonaromatic ring conformer: 129.64483458052192 kcal/mol)

>  <smiles>  (34) 
CCCN(CCN1CCN(c2ccc(Cl)cc2C)CC1)C1CCc2ccc3[nH]ccc3c2C1

>  <score_type>  (34) 
oracle

>  <origin>  (34) 
adg

>  <m_score__min__energy>  (34) 
-9.2699999999999996

>  <m_primary>  (34) 
energy

$$$$
34:0
     RDKit          3D

 44 45  0  0  0  0  0  0  0  0999 V2000
   -5.9478   23.7965  -28.7224 H   0  0  0  0  0  0  0  0  0  0  0  0
   -5.6250   24.0730  -29.7370 C   0  0  0  0  0  0  0  0  0  0  0  0
   -4.2110   24.5000  -29.9100 C   0  0  0  0  0  0  0  0  0  0  0  0
   -3.8950   25.2920  -30.8390 O   0  0  0  0  0  0  0  0  0  0  0  0
   -3.1370   23.9870  -29.0210 C   0  0  0  0  0  0  0  0  0  0  0  0
   -3.4050   22.9130  -28.1610 C   0  0  0  0  0  0  0  0  0  0  0  0
   -4.4053   22.4554  -28.1554 H   0  0  0  0  0  0  0  0  0  0  0  0
   -2.4150   22.4200  -27.3130 C   0  0  0  0  0  0  0  0  0  0  0  0
   -2.6440   21.5756  -26.6462 H   0  0  0  0  0  0  0  0  0  0  0  0
   -1.1340   22.9830  -27.2970 C   0  0  0  0  0  0  0  0  0  0  0  0
   -0.2170   22.4340  -26.3810 O   0  0  0  0  0  0  0  0  0  0  0  0
   -0.1420   22.7290  -24.9910 C   0  0  0  0  0  0  0  0  0  0  0  0
   -0.3723   21.8232  -24.4110 H   0  0  0  0  0  0  0  0  0  0  0  0
    0.8726   23.0746  -24.7437 H   0  0  0  0  0  0  0  0  0  0  0  0
   -0.8683   23.5172  -24.7437 H   0  0  0  0  0  0  0  0  0  0  0  0
   -0.8310   24.0450  -28.1840 C   0  0  0  0  0  0  0  0  0  0  0  0
    0.4650   24.5840  -28.2100 O   0  0  0  0  0  0  0  0  0  0  0  0
    1.1340   25.1670  -27.0950 C   0  0  0  0  0  0  0  0  0  0  0  0
    0.6944   24.7839  -26.1623 H   0  0  0  0  0  0  0  0  0  0  0  0
    2.2021   24.9065  -27.1310 H   0  0  0  0  0  0  0  0  0  0  0  0
    1.0220   26.2607  -27.1310 H   0  0  0  0  0  0  0  0  0  0  0  0
   -1.8400   24.5330  -29.0420 C   0  0  0  0  0  0  0  0  0  0  0  0
   -1.6090   25.3529  -29.7380 H   0  0  0  0  0  0  0  0  0  0  0  0
   -6.5400   23.9970  -30.7160 C   0  0  0  0  0  0  0  0  0  0  0  0
   -7.0538   24.9235  -31.0119 H   0  0  0  0  0  0  0  0  0  0  0  0
   -6.9020   22.7540  -31.4210 C   0  0  0  0  0  0  0  0  0  0  0  0
   -8.2160   22.2980  -31.2410 C   0  0  0  0  0  0  0  0  0  0  0  0
   -8.9173   22.8856  -30.6303 H   0  0  0  0  0  0  0  0  0  0  0  0
   -8.6410   21.1120  -31.8260 C   0  0  0  0  0  0  0  0  0  0  0  0
   -9.6738   20.7645  -31.6756 H   0  0  0  0  0  0  0  0  0  0  0  0
   -7.7630   20.3640  -32.6010 C   0  0  0  0  0  0  0  0  0  0  0  0
   -8.1071   19.4220  -33.0530 H   0  0  0  0  0  0  0  0  0  0  0  0
   -6.4480   20.7910  -32.8150 C   0  0  0  0  0  0  0  0  0  0  0  0
   -5.6500   19.9510  -33.6160 O   0  0  0  0  0  0  0  0  0  0  0  0
   -6.0160   18.6890  -34.1650 C   0  0  0  0  0  0  0  0  0  0  0  0
   -6.2216   17.9801  -33.3494 H   0  0  0  0  0  0  0  0  0  0  0  0
   -6.9172   18.8062  -34.7848 H   0  0  0  0  0  0  0  0  0  0  0  0
   -5.1920   18.3059  -34.7848 H   0  0  0  0  0  0  0  0  0  0  0  0
   -5.9960   22.0110  -32.2360 C   0  0  0  0  0  0  0  0  0  0  0  0
   -4.6730   22.4160  -32.4980 O   0  0  0  0  0  0  0  0  0  0  0  0
   -3.4810   21.6470  -32.3820 C   0  0  0  0  0  0  0  0  0  0  0  0
   -3.2449   21.4947  -31.3185 H   0  0  0  0  0  0  0  0  0  0  0  0
   -3.6253   20.6713  -32.8689 H   0  0  0  0  0  0  0  0  0  0  0  0
   -2.6515   22.1807  -32.8689 H   0  0  0  0  0  0  0  0  0  0  0  0
  1  2  1  0
  2  3  1  0
  3  4  2  0
  3  5  1  0
  5  6  2  0
  6  7  1  0
  6  8  1  0
  8  9  1  0
  8 10  2  0
 10 11  1  0
 11 12  1  0
 12 13  1  0
 12 14  1  0
 12 15  1  0
 10 16  1  0
 16 17  1  0
 17 18  1  0
 18 19  1  0
 18 20  1  0
 18 21  1  0
 16 22  2  0
 22 23  1  0
  2 24  2  0
 24 25  1  0
 24 26  1  0
 26 27  2  0
 27 28  1  0
 27 29  1  0
 29 30  1  0
 29 31  2  0
 31 32  1  0
 31 33  1  0
 33 34  1  0
 34 35  1  0
 35 36  1  0
 35 37  1  0
 35 38  1  0
 33 39  2  0
 39 40  1  0
 40 41  1  0
 41 42  1  0
 41 43  1  0
 41 44  1  0
 22  5  1  0
 39 26  1  0
M  END
>  <UniqueID>  (35) 
35

>  <SMILES>  (35) 
COc1ccc(C(=O)/C=C\c2cccc(OC)c2OC)cc1OC

>  <Energy>  (35) 
65.98054006159086

>  <Genealogy>  (35) 
COc1ccc(C(=O)/C=C\c2cccc(OC)c2OC)cc1OC (cis-trans isomerization)
COc1ccc(C(=O)/C=C\c2cccc(OC)c2OC)cc1OC (3D coordinates assigned)
COc1ccc(C(=O)/C=C\c2cccc(OC)c2OC)cc1OC (optimized conformer: 65.98054006159086 kcal/mol)

>  <smiles>  (35) 
COc1ccc(C(=O)C=Cc2cccc(OC)c2OC)cc1OC

>  <score_type>  (35) 
oracle

>  <origin>  (35) 
adg

>  <m_score__min__energy>  (35) 
-8.4399999999999995

>  <m_primary>  (35) 
energy

$$$$
35:0
     RDKit          3D

 46 48  0  0  0  0  0  0  0  0999 V2000
   -8.9650   21.8990  -31.6410 C   0  0  0  0  0  0  0  0  0  0  0  0
   -8.6770   20.4130  -31.4290 C   0  0  0  0  0  0  0  0  0  0  0  0
   -8.2760   19.6970  -32.7280 C   0  0  0  0  0  0  0  0  0  0  0  0
   -7.5670   18.3610  -32.4710 C   0  0  0  0  0  0  0  0  0  0  0  0
   -6.4160   18.2220  -33.3600 N   0  0  0  0  0  0  0  0  0  0  0  0
   -6.4810   17.7540  -34.5950 N   0  0  0  0  0  0  0  0  0  0  0  0
   -5.2760   17.8440  -35.1320 N   0  0  0  0  0  0  0  0  0  0  0  0
   -4.4140   18.3810  -34.2810 N   0  0  0  0  0  0  0  0  0  0  0  0
   -5.1370   18.6070  -33.1670 C   0  0  0  0  0  0  0  0  0  0  0  0
   -4.5990   19.3070  -31.9480 C   0  0  0  0  0  0  0  0  0  0  0  0
   -3.8980   20.5550  -32.3180 N   0  0  0  0  0  0  0  0  0  0  0  0
   -3.1960   21.1530  -31.1520 C   0  0  0  0  0  0  0  0  0  0  0  0
   -3.0440   22.6730  -31.2650 C   0  0  0  0  0  0  0  0  0  0  0  0
   -4.3670   23.2930  -31.4060 N   0  0  0  0  0  0  0  0  0  0  0  0
   -4.6250   24.5970  -30.8420 C   0  0  0  0  0  0  0  0  0  0  0  0
   -3.6810   25.2540  -30.3230 O   0  0  0  0  0  0  0  0  0  0  0  0
   -6.0170   25.1700  -30.8160 C   0  0  0  0  0  0  0  0  0  0  0  0
   -6.4570   25.6730  -29.4480 C   0  0  0  0  0  0  0  0  0  0  0  0
   -7.0510   24.3930  -30.0090 C   0  0  0  0  0  0  0  0  0  0  0  0
   -5.4190   22.5530  -32.1180 C   0  0  0  0  0  0  0  0  0  0  0  0
   -4.8020   21.4900  -33.0360 C   0  0  0  0  0  0  0  0  0  0  0  0
   -9.0615   22.3967  -30.6648 H   0  0  0  0  0  0  0  0  0  0  0  0
   -8.1387   22.3558  -32.2054 H   0  0  0  0  0  0  0  0  0  0  0  0
   -9.9021   22.0140  -32.2054 H   0  0  0  0  0  0  0  0  0  0  0  0
   -7.8558   20.3134  -30.7040 H   0  0  0  0  0  0  0  0  0  0  0  0
   -9.6017   19.9437  -31.0621 H   0  0  0  0  0  0  0  0  0  0  0  0
   -9.1835   19.5061  -33.3195 H   0  0  0  0  0  0  0  0  0  0  0  0
   -7.5718   20.3499  -33.2644 H   0  0  0  0  0  0  0  0  0  0  0  0
   -7.2254   18.3260  -31.4260 H   0  0  0  0  0  0  0  0  0  0  0  0
   -8.2710   17.5380  -32.6635 H   0  0  0  0  0  0  0  0  0  0  0  0
   -5.0400   17.5470  -36.1050 H   0  0  0  0  0  0  0  0  0  0  0  0
   -5.4345   19.5500  -31.2750 H   0  0  0  0  0  0  0  0  0  0  0  0
   -3.8826   18.6384  -31.4483 H   0  0  0  0  0  0  0  0  0  0  0  0
   -3.7693   20.9240  -30.2416 H   0  0  0  0  0  0  0  0  0  0  0  0
   -2.1849   20.7211  -31.1176 H   0  0  0  0  0  0  0  0  0  0  0  0
   -2.5535   23.0598  -30.3596 H   0  0  0  0  0  0  0  0  0  0  0  0
   -2.4329   22.9136  -32.1474 H   0  0  0  0  0  0  0  0  0  0  0  0
   -5.9861   25.5756  -31.8380 H   0  0  0  0  0  0  0  0  0  0  0  0
   -5.7618   25.6292  -28.5967 H   0  0  0  0  0  0  0  0  0  0  0  0
   -6.8695   26.6174  -29.0634 H   0  0  0  0  0  0  0  0  0  0  0  0
   -6.7855   23.4225  -29.5644 H   0  0  0  0  0  0  0  0  0  0  0  0
   -8.0708   24.0271  -30.1991 H   0  0  0  0  0  0  0  0  0  0  0  0
   -6.0750   22.0611  -31.3847 H   0  0  0  0  0  0  0  0  0  0  0  0
   -5.9976   23.2595  -32.7312 H   0  0  0  0  0  0  0  0  0  0  0  0
   -5.6153   20.9082  -33.4943 H   0  0  0  0  0  0  0  0  0  0  0  0
   -4.1982   22.0171  -33.7894 H   0  0  0  0  0  0  0  0  0  0  0  0
  1  2  1  0
  2  3  1  0
  3  4  1  0
  4  5  1  0
  5  6  1  0
  6  7  2  0
  7  8  1  0
  8  9  2  0
  9 10  1  0
 10 11  1  0
 11 12  1  0
 12 13  1  0
 13 14  1  0
 14 15  1  0
 15 16  2  0
 15 17  1  0
 17 18  1  0
 18 19  1  0
 14 20  1  0
 20 21  1  0
  9  5  1  0
 21 11  1  0
 19 17  1  0
  1 22  1  0
  1 23  1  0
  1 24  1  0
  2 25  1  0
  2 26  1  0
  3 27  1  0
  3 28  1  0
  4 29  1  0
  4 30  1  0
  7 31  1  0
 10 32  1  0
 10 33  1  0
 12 34  1  0
 12 35  1  0
 13 36  1  0
 13 37  1  0
 17 38  1  0
 18 39  1  0
 18 40  1  0
 19 41  1  0
 19 42  1  0
 20 43  1  0
 20 44  1  0
 21 45  1  0
 21 46  1  0
M  CHG  1   7   1
M  END
>  <UniqueID>  (36) 
36

>  <SMILES>  (36) 
CCCCn1n[nH+]nc1CN1CCN(C(=O)C2CC2)CC1

>  <Energy>  (36) 
349.9332444100083

>  <Genealogy>  (36) 
CCCCn1n[nH+]nc1CN1CCN(C(=O)C2CC2)CC1 (protonated)
CCCCn1n[nH+]nc1CN1CCN(C(=O)C2CC2)CC1 (3D coordinates assigned)
CCCCn1n[nH+]nc1CN1CCN(C(=O)C2CC2)CC1 (nonaromatic ring conformer: 349.9332444100083 kcal/mol)

>  <smiles>  (36) 
CCCCn1nnnc1CN1CCN(C(=O)C2CC2)CC1

>  <score_type>  (36) 
oracle

>  <origin>  (36) 
adg

>  <m_score__min__energy>  (36) 
-7.5700000000000003

>  <m_primary>  (36) 
energy

$$$$
36:0
     RDKit          3D

 45 48  0  0  0  0  0  0  0  0999 V2000
   -1.1630   26.6010  -24.5820 C   0  0  0  0  0  0  0  0  0  0  0  0
   -0.9250   25.5490  -25.5110 O   0  0  0  0  0  0  0  0  0  0  0  0
   -1.8060   25.1900  -26.5430 C   0  0  0  0  0  0  0  0  0  0  0  0
   -1.3010   25.0900  -27.8440 C   0  0  0  0  0  0  0  0  0  0  0  0
   -2.1360   24.7310  -28.9050 C   0  0  0  0  0  0  0  0  0  0  0  0
   -3.4990   24.4710  -28.6830 C   0  0  0  0  0  0  0  0  0  0  0  0
   -4.3590   24.1040  -29.7740 N   0  0  0  0  0  0  0  0  0  0  0  0
   -4.5320   24.8230  -30.8710 N   0  0  0  0  0  0  0  0  0  0  0  0
   -5.3870   24.1970  -31.6640 N   0  0  0  0  0  0  0  0  0  0  0  0
   -5.7250   23.0690  -31.0010 C   0  0  0  0  0  0  0  0  0  0  0  0
   -6.6470   22.0330  -31.5380 C   0  0  0  0  0  0  0  0  0  0  0  0
   -7.9450   21.9410  -31.0000 C   0  0  0  0  0  0  0  0  0  0  0  0
   -8.8700   21.0300  -31.5130 C   0  0  0  0  0  0  0  0  0  0  0  0
   -8.5180   20.1980  -32.5720 C   0  0  0  0  0  0  0  0  0  0  0  0
   -7.2360   20.2640  -33.1160 C   0  0  0  0  0  0  0  0  0  0  0  0
   -6.2890   21.1700  -32.6080 C   0  0  0  0  0  0  0  0  0  0  0  0
   -4.9680   21.1880  -33.1730 N   0  0  0  0  0  0  0  0  0  0  0  0
   -3.9630   20.1810  -32.8350 C   0  0  0  0  0  0  0  0  0  0  0  0
   -3.0240   20.7160  -31.7880 C   0  0  0  0  0  0  0  0  0  0  0  0
   -3.3390   20.5970  -30.4270 C   0  0  0  0  0  0  0  0  0  0  0  0
   -2.4800   21.1460  -29.4710 C   0  0  0  0  0  0  0  0  0  0  0  0
   -1.3510   21.7960  -29.8610 N   0  0  0  0  0  0  0  0  0  0  0  0
   -1.0260   21.9340  -31.1740 C   0  0  0  0  0  0  0  0  0  0  0  0
   -1.8590   21.4010  -32.1610 C   0  0  0  0  0  0  0  0  0  0  0  0
   -5.0830   23.0000  -29.8190 N   0  0  0  0  0  0  0  0  0  0  0  0
   -4.0070   24.5710  -27.3760 C   0  0  0  0  0  0  0  0  0  0  0  0
   -3.1700   24.9280  -26.3150 C   0  0  0  0  0  0  0  0  0  0  0  0
   -1.0750   26.2118  -23.5569 H   0  0  0  0  0  0  0  0  0  0  0  0
   -0.4230   27.4002  -24.7356 H   0  0  0  0  0  0  0  0  0  0  0  0
   -2.1750   27.0039  -24.7356 H   0  0  0  0  0  0  0  0  0  0  0  0
   -0.2371   25.2959  -28.0331 H   0  0  0  0  0  0  0  0  0  0  0  0
   -1.7235   24.6513  -29.9216 H   0  0  0  0  0  0  0  0  0  0  0  0
   -8.2339   22.5956  -30.1645 H   0  0  0  0  0  0  0  0  0  0  0  0
   -9.8792   20.9695  -31.0795 H   0  0  0  0  0  0  0  0  0  0  0  0
   -9.2521   19.4877  -32.9801 H   0  0  0  0  0  0  0  0  0  0  0  0
   -6.9632   19.6011  -33.9503 H   0  0  0  0  0  0  0  0  0  0  0  0
   -4.7250   21.9220  -33.8740 H   0  0  0  0  0  0  0  0  0  0  0  0
   -4.4650   19.2821  -32.4478 H   0  0  0  0  0  0  0  0  0  0  0  0
   -3.3881   19.9298  -33.7385 H   0  0  0  0  0  0  0  0  0  0  0  0
   -4.2555   20.0754  -30.1140 H   0  0  0  0  0  0  0  0  0  0  0  0
   -2.7176   21.0521  -28.4011 H   0  0  0  0  0  0  0  0  0  0  0  0
   -0.1064   22.4658  -31.4595 H   0  0  0  0  0  0  0  0  0  0  0  0
   -1.6023   21.5181  -33.2242 H   0  0  0  0  0  0  0  0  0  0  0  0
   -5.0712   24.3668  -27.1869 H   0  0  0  0  0  0  0  0  0  0  0  0
   -3.5793   25.0046  -25.2969 H   0  0  0  0  0  0  0  0  0  0  0  0
  1  2  1  0
  2  3  1  0
  3  4  2  0
  4  5  1  0
  5  6  2  0
  6  7  1  0
  7  8  1  0
  8  9  2  0
  9 10  1  0
 10 11  1  0
 11 12  2  0
 12 13  1  0
 13 14  2  0
 14 15  1  0
 15 16  2  0
 16 17  1  0
 17 18  1  0
 18 19  1  0
 19 20  2  0
 20 21  1  0
 21 22  2  0
 22 23  1  0
 23 24  2  0
 10 25  2  0
  6 26  1  0
 26 27  2  0
 27  3  1  0
 25  7  1  0
 16 11  1  0
 24 19  1  0
  1 28  1  0
  1 29  1  0
  1 30  1  0
  4 31  1  0
  5 32  1  0
 12 33  1  0
 13 34  1  0
 14 35  1  0
 15 36  1  0
 17 37  1  0
 18 38  1  0
 18 39  1  0
 20 40  1  0
 21 41  1  0
 23 42  1  0
 24 43  1  0
 26 44  1  0
 27 45  1  0
M  END
>  <UniqueID>  (37) 
37

>  <SMILES>  (37) 
COc1ccc(-n2nnc(-c3ccccc3NCc3ccncc3)n2)cc1

>  <Energy>  (37) 
92.54905256826922

>  <Genealogy>  (37) 
COc1ccc(-n2nnc(-c3ccccc3NCc3ccncc3)n2)cc1 (3D coordinates assigned)
COc1ccc(-n2nnc(-c3ccccc3NCc3ccncc3)n2)cc1 (optimized conformer: 92.54905256826922 kcal/mol)

>  <smiles>  (37) 
COc1ccc(-n2nnc(-c3ccccc3NCc3ccncc3)n2)cc1

>  <score_type>  (37) 
oracle

>  <origin>  (37) 
adg

>  <m_score__min__energy>  (37) 
-9.5700000000000003

>  <m_primary>  (37) 
energy

$$$$
37:0
     RDKit          3D

 42 44  0  0  0  0  0  0  0  0999 V2000
   -2.7150   19.4860  -33.6130 C   0  0  0  0  0  0  0  0  0  0  0  0
   -2.6790   20.9600  -33.6620 N   0  0  2  0  0  0  0  0  0  0  0  0
   -1.5560   21.5440  -32.8780 C   0  0  0  0  0  0  0  0  0  0  0  0
   -1.4730   21.1060  -31.4040 C   0  0  0  0  0  0  0  0  0  0  0  0
   -2.6210   21.6560  -30.5660 C   0  0  0  0  0  0  0  0  0  0  0  0
   -3.9630   21.0770  -30.9220 C   0  0  0  0  0  0  0  0  0  0  0  0
   -4.6420   21.2720  -32.0690 C   0  0  0  0  0  0  0  0  0  0  0  0
   -6.1040   21.4810  -31.9690 C   0  0  0  0  0  0  0  0  0  0  0  0
   -6.5730   22.7020  -31.4570 C   0  0  0  0  0  0  0  0  0  0  0  0
   -7.9410   22.9730  -31.4130 C   0  0  0  0  0  0  0  0  0  0  0  0
   -8.8560   22.0330  -31.8870 C   0  0  0  0  0  0  0  0  0  0  0  0
   -8.4060   20.8150  -32.4000 C   0  0  0  0  0  0  0  0  0  0  0  0
   -7.0320   20.5200  -32.4410 C   0  0  0  0  0  0  0  0  0  0  0  0
   -6.6020   19.2080  -32.9650 C   0  0  0  0  0  0  0  0  0  0  0  0
   -6.6180   18.0760  -32.1330 C   0  0  0  0  0  0  0  0  0  0  0  0
   -6.1940   16.8370  -32.6220 C   0  0  0  0  0  0  0  0  0  0  0  0
   -5.7420   16.7210  -33.9390 C   0  0  0  0  0  0  0  0  0  0  0  0
   -5.7070   17.8460  -34.7670 C   0  0  0  0  0  0  0  0  0  0  0  0
   -6.1310   19.0870  -34.2830 C   0  0  0  0  0  0  0  0  0  0  0  0
   -4.0030   21.5790  -33.4180 C   0  0  0  0  0  0  0  0  0  0  0  0
   -2.7231   19.1541  -32.5643 H   0  0  0  0  0  0  0  0  0  0  0  0
   -3.6222   19.1244  -34.1191 H   0  0  0  0  0  0  0  0  0  0  0  0
   -1.8265   19.0805  -34.1191 H   0  0  0  0  0  0  0  0  0  0  0  0
   -2.4570   21.1800  -34.6630 H   0  0  0  0  0  0  0  0  0  0  0  0
   -0.6149   21.2565  -33.3697 H   0  0  0  0  0  0  0  0  0  0  0  0
   -1.7355   22.6291  -32.8591 H   0  0  0  0  0  0  0  0  0  0  0  0
   -1.4994   20.0072  -31.3605 H   0  0  0  0  0  0  0  0  0  0  0  0
   -0.5355   21.5048  -30.9892 H   0  0  0  0  0  0  0  0  0  0  0  0
   -2.4164   21.4331  -29.5084 H   0  0  0  0  0  0  0  0  0  0  0  0
   -2.6747   22.7365  -30.7653 H   0  0  0  0  0  0  0  0  0  0  0  0
   -4.4376   20.4293  -30.1702 H   0  0  0  0  0  0  0  0  0  0  0  0
   -5.8563   23.4503  -31.0879 H   0  0  0  0  0  0  0  0  0  0  0  0
   -8.2985   23.9295  -31.0039 H   0  0  0  0  0  0  0  0  0  0  0  0
   -9.9336   22.2516  -31.8566 H   0  0  0  0  0  0  0  0  0  0  0  0
   -9.1329   20.0797  -32.7754 H   0  0  0  0  0  0  0  0  0  0  0  0
   -6.9654   18.1650  -31.0931 H   0  0  0  0  0  0  0  0  0  0  0  0
   -6.2162   15.9521  -31.9690 H   0  0  0  0  0  0  0  0  0  0  0  0
   -5.4138   15.7442  -34.3239 H   0  0  0  0  0  0  0  0  0  0  0  0
   -5.3451   17.7549  -35.8018 H   0  0  0  0  0  0  0  0  0  0  0  0
   -6.0957   19.9714  -34.9361 H   0  0  0  0  0  0  0  0  0  0  0  0
   -4.6888   21.2288  -34.2035 H   0  0  0  0  0  0  0  0  0  0  0  0
   -3.8300   22.6653  -33.4255 H   0  0  0  0  0  0  0  0  0  0  0  0
  1  2  1  0
  2  3  1  0
  3  4  1  0
  4  5  1  0
  5  6  1  0
  6  7  2  0
  7  8  1  0
  8  9  2  0
  9 10  1  0
 10 11  2  0
 11 12  1  0
 12 13  2  0
 13 14  1  0
 14 15  2  0
 15 16  1  0
 16 17  2  0
 17 18  1  0
 18 19  2  0
  7 20  1  0
 20  2  1  0
 13  8  1  0
 19 14  1  0
  1 21  1  0
  1 22  1  0
  1 23  1  0
  2 24  1  6
  3 25  1  0
  3 26  1  0
  4 27  1  0
  4 28  1  0
  5 29  1  0
  5 30  1  0
  6 31  1  0
  9 32  1  0
 10 33  1  0
 11 34  1  0
 12 35  1  0
 15 36  1  0
 16 37  1  0
 17 38  1  0
 18 39  1  0
 19 40  1  0
 20 41  1  0
 20 42  1  0
M  CHG  1   2   1
M  END
>  <UniqueID>  (38) 
38

>  <SMILES>  (38) 
C[N@@H+]1CCCC=C(c2ccccc2-c2ccccc2)C1

>  <Energy>  (38) 
70.23408015353931

>  <Genealogy>  (38) 
C[NH+]1CCCC=C(c2ccccc2-c2ccccc2)C1 (protonated)
C[N@@H+]1CCCC=C(c2ccccc2-c2ccccc2)C1 (chirality)
C[N@@H+]1CCCC=C(c2ccccc2-c2ccccc2)C1 (3D coordinates assigned)
C[N@@H+]1CCCC=C(c2ccccc2-c2ccccc2)C1 (nonaromatic ring conformer: 70.23408015353931 kcal/mol)

>  <smiles>  (38) 
CN1CCCC=C(c2ccccc2-c2ccccc2)C1

>  <score_type>  (38) 
oracle

>  <origin>  (38) 
adg

>  <m_score__min__energy>  (38) 
-5.7599999999999998

>  <m_primary>  (38) 
energy

$$$$
38:0
     RDKit          3D

 67 69  0  0  0  0  0  0  0  0999 V2000
   -6.2700   25.2430  -29.4900 C   0  0  0  0  0  0  0  0  0  0  0  0
   -5.5620   25.7270  -30.7520 C   0  0  0  0  0  0  0  0  0  0  0  0
   -4.2510   25.1720  -30.8400 O   0  0  0  0  0  0  0  0  0  0  0  0
   -3.9360   23.8010  -30.8480 C   0  0  0  0  0  0  0  0  0  0  0  0
   -4.6810   22.8580  -31.5850 C   0  0  0  0  0  0  0  0  0  0  0  0
   -4.3300   21.4970  -31.5750 C   0  0  0  0  0  0  0  0  0  0  0  0
   -5.0850   20.4930  -32.3690 C   0  0  0  0  0  0  0  0  0  0  0  0
   -6.2700   20.8160  -33.0490 C   0  0  0  0  0  0  0  0  0  0  0  0
   -6.9170   19.8580  -33.7630 N   0  0  0  0  0  0  0  0  0  0  0  0
   -6.4460   18.5840  -33.8260 C   0  0  0  0  0  0  0  0  0  0  0  0
   -5.2740   18.2410  -33.1330 C   0  0  0  0  0  0  0  0  0  0  0  0
   -4.7120   16.8670  -33.1600 C   0  0  0  0  0  0  0  0  0  0  0  0
   -3.3200   16.6820  -33.1690 C   0  0  0  0  0  0  0  0  0  0  0  0
   -2.7700   15.3970  -33.1830 C   0  0  0  0  0  0  0  0  0  0  0  0
   -3.5960   14.2550  -33.1780 C   0  0  0  0  0  0  0  0  0  0  0  0
   -3.0260   12.9190  -33.1890 N   0  0  0  0  0  0  0  0  0  0  0  0
   -2.9010   12.1700  -34.4460 C   0  0  0  0  0  0  0  0  0  0  0  0
   -2.5670   12.2920  -31.9440 C   0  0  0  0  0  0  0  0  0  0  0  0
   -4.9930   14.4480  -33.1560 C   0  0  0  0  0  0  0  0  0  0  0  0
   -5.5430   15.7330  -33.1440 C   0  0  0  0  0  0  0  0  0  0  0  0
   -4.6300   19.2130  -32.4310 N   0  0  0  0  0  0  0  0  0  0  0  0
   -3.2210   21.0890  -30.8180 C   0  0  0  0  0  0  0  0  0  0  0  0
   -2.4850   22.0150  -30.0790 C   0  0  0  0  0  0  0  0  0  0  0  0
   -2.8310   23.3770  -30.0970 C   0  0  0  0  0  0  0  0  0  0  0  0
   -2.1020   24.3440  -29.3850 O   0  0  0  0  0  0  0  0  0  0  0  0
   -2.3860   24.7860  -28.0550 C   0  0  0  0  0  0  0  0  0  0  0  0
   -1.1710   24.5790  -27.1450 C   0  0  0  0  0  0  0  0  0  0  0  0
    0.0270   25.2390  -27.7130 N   0  0  0  0  0  0  0  0  0  0  0  0
    1.2450   24.4200  -27.5140 C   0  0  0  0  0  0  0  0  0  0  0  0
    2.5230   25.2520  -27.6290 C   0  0  0  0  0  0  0  0  0  0  0  0
    0.1590   26.6490  -27.2720 C   0  0  0  0  0  0  0  0  0  0  0  0
   -0.7400   27.0160  -26.0830 C   0  0  0  0  0  0  0  0  0  0  0  0
   -5.7320   25.6108  -28.6038 H   0  0  0  0  0  0  0  0  0  0  0  0
   -7.3011   25.6261  -29.4782 H   0  0  0  0  0  0  0  0  0  0  0  0
   -6.2873   24.1432  -29.4782 H   0  0  0  0  0  0  0  0  0  0  0  0
   -6.1442   25.4191  -31.6331 H   0  0  0  0  0  0  0  0  0  0  0  0
   -5.4796   26.8232  -30.7125 H   0  0  0  0  0  0  0  0  0  0  0  0
   -5.5475   23.1914  -32.1750 H   0  0  0  0  0  0  0  0  0  0  0  0
   -6.6724   21.8388  -33.0040 H   0  0  0  0  0  0  0  0  0  0  0  0
   -7.7950   20.1050  -34.2730 H   0  0  0  0  0  0  0  0  0  0  0  0
   -6.9806   17.8257  -34.4170 H   0  0  0  0  0  0  0  0  0  0  0  0
   -2.6549   17.5582  -33.1650 H   0  0  0  0  0  0  0  0  0  0  0  0
   -1.6769   15.2753  -33.1981 H   0  0  0  0  0  0  0  0  0  0  0  0
   -2.7237   11.1074  -34.2236 H   0  0  0  0  0  0  0  0  0  0  0  0
   -3.8287   12.2729  -35.0280 H   0  0  0  0  0  0  0  0  0  0  0  0
   -2.0570   12.5686  -35.0280 H   0  0  0  0  0  0  0  0  0  0  0  0
   -2.9720   12.8453  -31.0838 H   0  0  0  0  0  0  0  0  0  0  0  0
   -2.9172   11.2499  -31.9075 H   0  0  0  0  0  0  0  0  0  0  0  0
   -1.4678   12.3109  -31.9075 H   0  0  0  0  0  0  0  0  0  0  0  0
   -5.6602   13.5735  -33.1482 H   0  0  0  0  0  0  0  0  0  0  0  0
   -6.6356   15.8581  -33.1218 H   0  0  0  0  0  0  0  0  0  0  0  0
   -2.9293   20.0284  -30.8074 H   0  0  0  0  0  0  0  0  0  0  0  0
   -1.6279   21.6770  -29.4780 H   0  0  0  0  0  0  0  0  0  0  0  0
   -2.6428   25.8554  -28.0769 H   0  0  0  0  0  0  0  0  0  0  0  0
   -3.2283   24.1994  -27.6595 H   0  0  0  0  0  0  0  0  0  0  0  0
   -1.3842   25.0080  -26.1548 H   0  0  0  0  0  0  0  0  0  0  0  0
   -0.9732   23.5003  -27.0591 H   0  0  0  0  0  0  0  0  0  0  0  0
    1.2069   23.9650  -26.5132 H   0  0  0  0  0  0  0  0  0  0  0  0
    1.2690   23.6519  -28.3011 H   0  0  0  0  0  0  0  0  0  0  0  0
    2.8948   25.4940  -26.6224 H   0  0  0  0  0  0  0  0  0  0  0  0
    3.2868   24.6775  -28.1736 H   0  0  0  0  0  0  0  0  0  0  0  0
    2.3067   26.1829  -28.1736 H   0  0  0  0  0  0  0  0  0  0  0  0
    1.2055   26.8246  -26.9820 H   0  0  0  0  0  0  0  0  0  0  0  0
   -0.1566   27.2785  -28.1170 H   0  0  0  0  0  0  0  0  0  0  0  0
   -0.2110   26.8001  -25.1430 H   0  0  0  0  0  0  0  0  0  0  0  0
   -0.9871   28.0870  -26.1270 H   0  0  0  0  0  0  0  0  0  0  0  0
   -1.6660   26.4239  -26.1270 H   0  0  0  0  0  0  0  0  0  0  0  0
  1  2  1  0
  2  3  1  0
  3  4  1  0
  4  5  2  0
  5  6  1  0
  6  7  1  0
  7  8  2  0
  8  9  1  0
  9 10  2  0
 10 11  1  0
 11 12  1  0
 12 13  2  0
 13 14  1  0
 14 15  2  0
 15 16  1  0
 16 17  1  0
 16 18  1  0
 15 19  1  0
 19 20  2  0
 11 21  2  0
  6 22  2  0
 22 23  1  0
 23 24  2  0
 24 25  1  0
 25 26  1  0
 26 27  1  0
 27 28  1  0
 28 29  1  0
 29 30  1  0
 28 31  1  0
 31 32  1  0
 24  4  1  0
 21  7  1  0
 20 12  1  0
  1 33  1  0
  1 34  1  0
  1 35  1  0
  2 36  1  0
  2 37  1  0
  5 38  1  0
  8 39  1  0
  9 40  1  0
 10 41  1  0
 13 42  1  0
 14 43  1  0
 17 44  1  0
 17 45  1  0
 17 46  1  0
 18 47  1  0
 18 48  1  0
 18 49  1  0
 19 50  1  0
 20 51  1  0
 22 52  1  0
 23 53  1  0
 26 54  1  0
 26 55  1  0
 27 56  1  0
 27 57  1  0
 29 58  1  0
 29 59  1  0
 30 60  1  0
 30 61  1  0
 30 62  1  0
 31 63  1  0
 31 64  1  0
 32 65  1  0
 32 66  1  0
 32 67  1  0
M  CHG  1   9   1
M  END
>  <UniqueID>  (39) 
39

>  <SMILES>  (39) 
CCOc1cc(-c2c[nH+]cc(-c3ccc(N(C)C)cc3)n2)ccc1OCCN(CC)CC

>  <Energy>  (39) 
76.21572138214115

>  <Genealogy>  (39) 
CCOc1cc(-c2c[nH+]cc(-c3ccc(N(C)C)cc3)n2)ccc1OCCN(CC)CC (protonated)
CCOc1cc(-c2c[nH+]cc(-c3ccc(N(C)C)cc3)n2)ccc1OCCN(CC)CC (3D coordinates assigned)
CCOc1cc(-c2c[nH+]cc(-c3ccc(N(C)C)cc3)n2)ccc1OCCN(CC)CC (optimized conformer: 76.21572138214115 kcal/mol)

>  <smiles>  (39) 
CCOc1cc(-c2cncc(-c3ccc(N(C)C)cc3)n2)ccc1OCCN(CC)CC

>  <score_type>  (39) 
oracle

>  <origin>  (39) 
adg

>  <m_score__min__energy>  (39) 
-7.6100000000000003

>  <m_primary>  (39) 
energy

$$$$
39:0
     RDKit          3D

 44 47  0  0  0  0  0  0  0  0999 V2000
   -5.3750   25.4030  -30.4560 C   0  0  0  0  0  0  0  0  0  0  0  0
   -3.9890   25.0790  -30.4610 O   0  0  0  0  0  0  0  0  0  0  0  0
   -3.4770   23.7840  -30.2920 C   0  0  0  0  0  0  0  0  0  0  0  0
   -3.2770   23.2110  -29.0220 C   0  0  0  0  0  0  0  0  0  0  0  0
   -2.7600   21.9180  -28.9070 C   0  0  0  0  0  0  0  0  0  0  0  0
   -2.4420   21.1850  -30.0510 C   0  0  0  0  0  0  0  0  0  0  0  0
   -2.6510   21.7360  -31.3260 C   0  0  0  0  0  0  0  0  0  0  0  0
   -2.3200   20.9890  -32.5100 N   0  0  0  0  0  0  0  0  0  0  0  0
   -1.1080   20.9630  -33.1020 C   0  0  0  0  0  0  0  0  0  0  0  0
   -1.1460   20.0470  -34.1390 C   0  0  0  0  0  0  0  0  0  0  0  0
   -0.0310   19.6980  -35.0530 C   0  0  0  0  0  0  0  0  0  0  0  0
    0.2150   18.3570  -35.4040 C   0  0  0  0  0  0  0  0  0  0  0  0
    1.2680   18.0310  -36.2650 C   0  0  0  0  0  0  0  0  0  0  0  0
    2.0850   19.0360  -36.7860 C   0  0  0  0  0  0  0  0  0  0  0  0
    1.8520   20.3700  -36.4450 C   0  0  0  0  0  0  0  0  0  0  0  0
    0.8020   20.7020  -35.5840 C   0  0  0  0  0  0  0  0  0  0  0  0
   -2.3830   19.5090  -34.1890 N   0  0  0  0  0  0  0  0  0  0  0  0
   -3.0800   20.1010  -33.1990 C   0  0  0  0  0  0  0  0  0  0  0  0
   -4.5200   19.8480  -32.9720 C   0  0  0  0  0  0  0  0  0  0  0  0
   -5.4410   20.9100  -32.9320 C   0  0  0  0  0  0  0  0  0  0  0  0
   -6.8010   20.6580  -32.7270 C   0  0  0  0  0  0  0  0  0  0  0  0
   -7.2560   19.3460  -32.5730 C   0  0  0  0  0  0  0  0  0  0  0  0
   -9.1140   19.0040  -32.2920 Br  0  0  0  0  0  0  0  0  0  0  0  0
   -6.3490   18.2830  -32.6300 C   0  0  0  0  0  0  0  0  0  0  0  0
   -4.9880   18.5310  -32.8350 C   0  0  0  0  0  0  0  0  0  0  0  0
   -3.1560   23.0410  -31.4350 C   0  0  0  0  0  0  0  0  0  0  0  0
   -5.7285   25.4856  -29.4176 H   0  0  0  0  0  0  0  0  0  0  0  0
   -5.5294   26.3614  -30.9733 H   0  0  0  0  0  0  0  0  0  0  0  0
   -5.9383   24.6123  -30.9733 H   0  0  0  0  0  0  0  0  0  0  0  0
   -3.5286   23.7831  -28.1168 H   0  0  0  0  0  0  0  0  0  0  0  0
   -2.6032   21.4766  -27.9117 H   0  0  0  0  0  0  0  0  0  0  0  0
   -2.0259   20.1714  -29.9539 H   0  0  0  0  0  0  0  0  0  0  0  0
   -0.2367   21.5676  -32.8099 H   0  0  0  0  0  0  0  0  0  0  0  0
   -0.4254   17.5600  -34.9983 H   0  0  0  0  0  0  0  0  0  0  0  0
    1.4528   16.9801  -36.5323 H   0  0  0  0  0  0  0  0  0  0  0  0
    2.9114   18.7774  -37.4644 H   0  0  0  0  0  0  0  0  0  0  0  0
    2.4964   21.1616  -36.8550 H   0  0  0  0  0  0  0  0  0  0  0  0
    0.6250   21.7549  -35.3193 H   0  0  0  0  0  0  0  0  0  0  0  0
   -2.7510   18.8210  -34.8830 H   0  0  0  0  0  0  0  0  0  0  0  0
   -5.0897   21.9442  -33.0626 H   0  0  0  0  0  0  0  0  0  0  0  0
   -7.5142   21.4945  -32.6869 H   0  0  0  0  0  0  0  0  0  0  0  0
   -6.7069   17.2494  -32.5133 H   0  0  0  0  0  0  0  0  0  0  0  0
   -4.2806   17.6904  -32.8892 H   0  0  0  0  0  0  0  0  0  0  0  0
   -3.3015   23.4857  -32.4305 H   0  0  0  0  0  0  0  0  0  0  0  0
  1  2  1  0
  2  3  1  0
  3  4  2  0
  4  5  1  0
  5  6  2  0
  6  7  1  0
  7  8  1  0
  8  9  1  0
  9 10  2  0
 10 11  1  0
 11 12  2  0
 12 13  1  0
 13 14  2  0
 14 15  1  0
 15 16  2  0
 10 17  1  0
 17 18  2  0
 18 19  1  0
 19 20  2  0
 20 21  1  0
 21 22  2  0
 22 23  1  0
 22 24  1  0
 24 25  2  0
  7 26  2  0
 26  3  1  0
 18  8  1  0
 25 19  1  0
 16 11  1  0
  1 27  1  0
  1 28  1  0
  1 29  1  0
  4 30  1  0
  5 31  1  0
  6 32  1  0
  9 33  1  0
 12 34  1  0
 13 35  1  0
 14 36  1  0
 15 37  1  0
 16 38  1  0
 17 39  1  0
 20 40  1  0
 21 41  1  0
 24 42  1  0
 25 43  1  0
 26 44  1  0
M  CHG  1  17   1
M  END
>  <UniqueID>  (40) 
40

>  <SMILES>  (40) 
COc1cccc(-n2cc(-c3ccccc3)[nH+]c2-c2ccc(Br)cc2)c1

>  <Energy>  (40) 
89.75415884312869

>  <Genealogy>  (40) 
COc1cccc(-n2cc(-c3ccccc3)[nH+]c2-c2ccc(Br)cc2)c1 (protonated)
COc1cccc(-n2cc(-c3ccccc3)[nH+]c2-c2ccc(Br)cc2)c1 (3D coordinates assigned)
COc1cccc(-n2cc(-c3ccccc3)[nH+]c2-c2ccc(Br)cc2)c1 (optimized conformer: 89.75415884312869 kcal/mol)

>  <smiles>  (40) 
COc1cccc(-n2cc(-c3ccccc3)nc2-c2ccc(Br)cc2)c1

>  <score_type>  (40) 
oracle

>  <origin>  (40) 
adg

>  <m_score__min__energy>  (40) 
-7.7400000000000002

>  <m_primary>  (40) 
energy

$$$$
40:0
     RDKit          3D

 39 40  0  0  0  0  0  0  0  0999 V2000
   -6.5528   23.0915  -30.1993 H   0  0  0  0  0  0  0  0  0  0  0  0
   -6.6180   23.1470  -31.2960 C   0  0  0  0  0  0  0  0  0  0  0  0
   -5.5070   23.2120  -31.9710 N   0  0  0  0  0  0  0  0  0  0  0  0
   -4.2740   22.5520  -31.6430 C   0  0  0  0  0  0  0  0  0  0  0  0
   -4.0700   21.2200  -32.0440 C   0  0  0  0  0  0  0  0  0  0  0  0
   -4.8264   20.7136  -32.6617 H   0  0  0  0  0  0  0  0  0  0  0  0
   -2.9150   20.5360  -31.6640 C   0  0  0  0  0  0  0  0  0  0  0  0
   -2.7532   19.5014  -32.0009 H   0  0  0  0  0  0  0  0  0  0  0  0
   -1.9660   21.1620  -30.8580 C   0  0  0  0  0  0  0  0  0  0  0  0
   -1.0552   20.6212  -30.5613 H   0  0  0  0  0  0  0  0  0  0  0  0
   -2.1690   22.4750  -30.4260 C   0  0  0  0  0  0  0  0  0  0  0  0
   -1.4221   22.9573  -29.7782 H   0  0  0  0  0  0  0  0  0  0  0  0
   -3.3200   23.1860  -30.8120 C   0  0  0  0  0  0  0  0  0  0  0  0
   -3.4920   24.5840  -30.3470 C   0  0  0  0  0  0  0  0  0  0  0  0
   -4.4190   25.2920  -30.8250 O   0  0  0  0  0  0  0  0  0  0  0  0
   -2.6280   25.1260  -29.3400 N   0  0  0  0  0  0  0  0  0  0  0  0
   -2.5150   24.5980  -27.9860 C   0  0  0  0  0  0  0  0  0  0  0  0
   -2.1590   25.3954  -27.3171 H   0  0  0  0  0  0  0  0  0  0  0  0
   -1.8049   23.7580  -27.9947 H   0  0  0  0  0  0  0  0  0  0  0  0
   -3.8630   24.0910  -27.4850 C   0  0  0  0  0  0  0  0  0  0  0  0
   -3.8682   24.0890  -26.3850 H   0  0  0  0  0  0  0  0  0  0  0  0
   -4.6628   24.7498  -27.8543 H   0  0  0  0  0  0  0  0  0  0  0  0
   -4.0304   23.0685  -27.8543 H   0  0  0  0  0  0  0  0  0  0  0  0
   -7.9890   23.1430  -31.9240 C   0  0  0  0  0  0  0  0  0  0  0  0
   -8.6085   23.9052  -31.4287 H   0  0  0  0  0  0  0  0  0  0  0  0
   -7.8718   23.3599  -32.9960 H   0  0  0  0  0  0  0  0  0  0  0  0
   -8.6680   21.8030  -31.7920 C   0  0  0  0  0  0  0  0  0  0  0  0
   -9.8220   21.7730  -31.2840 O   0  0  0  0  0  0  0  0  0  0  0  0
   -8.0320   20.5310  -32.2340 C   0  0  0  0  0  0  0  0  0  0  0  0
   -8.4580   19.3060  -31.6830 C   0  0  0  0  0  0  0  0  0  0  0  0
   -9.2593   19.2981  -30.9295 H   0  0  0  0  0  0  0  0  0  0  0  0
   -7.8740   18.1010  -32.0830 C   0  0  0  0  0  0  0  0  0  0  0  0
   -8.2237   17.1516  -31.6514 H   0  0  0  0  0  0  0  0  0  0  0  0
   -6.8480   18.1000  -33.0290 C   0  0  0  0  0  0  0  0  0  0  0  0
   -6.0330   16.4550  -33.5530 Br  0  0  0  0  0  0  0  0  0  0  0  0
   -6.4140   19.3040  -33.5870 C   0  0  0  0  0  0  0  0  0  0  0  0
   -5.6065   19.3026  -34.3340 H   0  0  0  0  0  0  0  0  0  0  0  0
   -7.0030   20.5120  -33.1990 C   0  0  0  0  0  0  0  0  0  0  0  0
   -6.6610   21.4551  -33.6501 H   0  0  0  0  0  0  0  0  0  0  0  0
  1  2  1  0
  2  3  2  0
  3  4  1  0
  4  5  2  0
  5  6  1  0
  5  7  1  0
  7  8  1  0
  7  9  2  0
  9 10  1  0
  9 11  1  0
 11 12  1  0
 11 13  2  0
 13 14  1  0
 14 15  2  0
 14 16  1  0
 16 17  1  0
 17 18  1  0
 17 19  1  0
 17 20  1  0
 20 21  1  0
 20 22  1  0
 20 23  1  0
  2 24  1  0
 24 25  1  0
 24 26  1  0
 24 27  1  0
 27 28  2  0
 27 29  1  0
 29 30  2  0
 30 31  1  0
 30 32  1  0
 32 33  1  0
 32 34  2  0
 34 35  1  0
 34 36  1  0
 36 37  1  0
 36 38  2  0
 38 39  1  0
 13  4  1  0
 38 29  1  0
M  CHG  1  16  -1
M  END
>  <UniqueID>  (41) 
41

>  <SMILES>  (41) 
CC[N-]C(=O)c1ccccc1/N=C\CC(=O)c1ccc(Br)cc1

>  <Energy>  (41) 
42.36707125714101

>  <Genealogy>  (41) 
CC[N-]C(=O)c1ccccc1N=CCC(=O)c1ccc(Br)cc1 (protonated)
CC[N-]C(=O)c1ccccc1/N=C\CC(=O)c1ccc(Br)cc1 (cis-trans isomerization)
CC[N-]C(=O)c1ccccc1/N=C\CC(=O)c1ccc(Br)cc1 (3D coordinates assigned)
CC[N-]C(=O)c1ccccc1/N=C\CC(=O)c1ccc(Br)cc1 (optimized conformer: 42.36707125714101 kcal/mol)

>  <smiles>  (41) 
CCNC(=O)c1ccccc1N=CCC(=O)c1ccc(Br)cc1

>  <score_type>  (41) 
oracle

>  <origin>  (41) 
adg

>  <m_score__min__energy>  (41) 
-10.460000000000001

>  <m_primary>  (41) 
energy

$$$$
41:0
     RDKit          3D

 65 67  0  0  0  0  0  0  0  0999 V2000
   -0.4240   21.1500  -34.4280 C   0  0  0  0  0  0  0  0  0  0  0  0
   -0.4770   20.6630  -32.9840 C   0  0  0  0  0  0  0  0  0  0  0  0
   -1.1330   19.3400  -32.8930 N   0  0  0  0  0  0  0  0  0  0  0  0
   -0.3650   18.3510  -32.0980 C   0  0  0  0  0  0  0  0  0  0  0  0
    0.0280   18.9690  -30.7610 C   0  0  0  0  0  0  0  0  0  0  0  0
   -1.5480   18.8160  -34.2140 C   0  0  0  0  0  0  0  0  0  0  0  0
   -3.0560   18.4820  -34.3030 C   0  0  0  0  0  0  0  0  0  0  0  0
   -3.6730   18.3610  -32.9660 N   0  0  0  0  0  0  0  0  0  0  0  0
   -5.0680   18.7880  -32.9640 C   0  0  0  0  0  0  0  0  0  0  0  0
   -6.0810   17.8660  -33.3560 C   0  0  0  0  0  0  0  0  0  0  0  0
   -5.7500   16.6740  -34.1050 N   0  0  0  0  0  0  0  0  0  0  0  0
   -5.8670   15.3070  -33.5910 C   0  0  0  0  0  0  0  0  0  0  0  0
   -4.5470   14.8510  -32.9390 C   0  0  0  0  0  0  0  0  0  0  0  0
   -3.3350   15.4590  -33.5280 N   0  0  0  0  0  0  0  0  0  0  0  0
   -2.1130   15.1730  -32.7620 C   0  0  0  0  0  0  0  0  0  0  0  0
   -3.1600   15.1310  -34.9530 C   0  0  0  0  0  0  0  0  0  0  0  0
   -7.4220   18.1510  -33.0790 C   0  0  0  0  0  0  0  0  0  0  0  0
   -7.8010   19.3410  -32.4640 C   0  0  0  0  0  0  0  0  0  0  0  0
   -9.2620   19.6070  -32.2120 C   0  0  0  0  0  0  0  0  0  0  0  0
   -6.8390   20.3220  -32.1990 C   0  0  0  0  0  0  0  0  0  0  0  0
   -7.2440   21.4860  -31.6990 O   0  0  0  0  0  0  0  0  0  0  0  0
   -6.4230   22.4840  -31.4200 C   0  0  0  0  0  0  0  0  0  0  0  0
   -6.9370   23.6710  -30.8870 C   0  0  0  0  0  0  0  0  0  0  0  0
   -6.0810   24.7300  -30.5710 C   0  0  0  0  0  0  0  0  0  0  0  0
   -4.7070   24.6090  -30.7920 C   0  0  0  0  0  0  0  0  0  0  0  0
   -3.8600   25.6620  -30.4730 O   0  0  0  0  0  0  0  0  0  0  0  0
   -4.1860   23.4290  -31.3360 C   0  0  0  0  0  0  0  0  0  0  0  0
   -5.0420   22.3540  -31.6530 C   0  0  0  0  0  0  0  0  0  0  0  0
   -4.5610   21.1520  -32.2000 C   0  0  0  0  0  0  0  0  0  0  0  0
   -3.3350   21.0640  -32.4710 O   0  0  0  0  0  0  0  0  0  0  0  0
   -5.4620   20.0780  -32.4600 C   0  0  0  0  0  0  0  0  0  0  0  0
   -0.3050   22.2435  -34.4420 H   0  0  0  0  0  0  0  0  0  0  0  0
    0.4285   20.6818  -34.9418 H   0  0  0  0  0  0  0  0  0  0  0  0
   -1.3573   20.8761  -34.9418 H   0  0  0  0  0  0  0  0  0  0  0  0
    0.5483   20.5835  -32.5936 H   0  0  0  0  0  0  0  0  0  0  0  0
   -1.0603   21.3842  -32.3927 H   0  0  0  0  0  0  0  0  0  0  0  0
   -0.9861   17.4604  -31.9219 H   0  0  0  0  0  0  0  0  0  0  0  0
    0.5420   18.0622  -32.6493 H   0  0  0  0  0  0  0  0  0  0  0  0
   -0.3656   18.3501  -29.9412 H   0  0  0  0  0  0  0  0  0  0  0  0
    1.1245   19.0195  -30.6885 H   0  0  0  0  0  0  0  0  0  0  0  0
   -0.3913   19.9834  -30.6885 H   0  0  0  0  0  0  0  0  0  0  0  0
   -1.3140   19.5728  -34.9772 H   0  0  0  0  0  0  0  0  0  0  0  0
   -0.9998   17.8759  -34.3744 H   0  0  0  0  0  0  0  0  0  0  0  0
   -3.5655   19.2830  -34.8587 H   0  0  0  0  0  0  0  0  0  0  0  0
   -3.1614   17.5147  -34.8160 H   0  0  0  0  0  0  0  0  0  0  0  0
   -3.5880   17.3860  -32.6080 H   0  0  0  0  0  0  0  0  0  0  0  0
   -3.0840   18.9210  -32.3130 H   0  0  0  0  0  0  0  0  0  0  0  0
   -5.5460   16.7680  -35.1240 H   0  0  0  0  0  0  0  0  0  0  0  0
   -6.6706   15.2717  -32.8407 H   0  0  0  0  0  0  0  0  0  0  0  0
   -6.0959   14.6338  -34.4303 H   0  0  0  0  0  0  0  0  0  0  0  0
   -4.5809   15.1151  -31.8717 H   0  0  0  0  0  0  0  0  0  0  0  0
   -4.4699   13.7670  -33.1093 H   0  0  0  0  0  0  0  0  0  0  0  0
   -2.3343   15.2248  -31.6857 H   0  0  0  0  0  0  0  0  0  0  0  0
   -1.7499   14.1656  -33.0136 H   0  0  0  0  0  0  0  0  0  0  0  0
   -1.3405   15.9146  -33.0136 H   0  0  0  0  0  0  0  0  0  0  0  0
   -2.6441   14.1640  -35.0460 H   0  0  0  0  0  0  0  0  0  0  0  0
   -4.1450   15.0692  -35.4387 H   0  0  0  0  0  0  0  0  0  0  0  0
   -2.5602   15.9148  -35.4387 H   0  0  0  0  0  0  0  0  0  0  0  0
   -8.1949   17.4180  -33.3534 H   0  0  0  0  0  0  0  0  0  0  0  0
   -9.4469   19.6407  -31.1282 H   0  0  0  0  0  0  0  0  0  0  0  0
   -9.5421   20.5709  -32.6619 H   0  0  0  0  0  0  0  0  0  0  0  0
   -9.8639   18.8037  -32.6619 H   0  0  0  0  0  0  0  0  0  0  0  0
   -8.0190   23.7714  -30.7159 H   0  0  0  0  0  0  0  0  0  0  0  0
   -6.4897   25.6595  -30.1479 H   0  0  0  0  0  0  0  0  0  0  0  0
   -3.1046   23.3399  -31.5169 H   0  0  0  0  0  0  0  0  0  0  0  0
  1  2  1  0
  2  3  1  0
  3  4  1  0
  4  5  1  0
  3  6  1  0
  6  7  1  0
  7  8  1  0
  8  9  1  0
  9 10  2  0
 10 11  1  0
 11 12  1  0
 12 13  1  0
 13 14  1  0
 14 15  1  0
 14 16  1  0
 10 17  1  0
 17 18  2  0
 18 19  1  0
 18 20  1  0
 20 21  1  0
 21 22  1  0
 22 23  2  0
 23 24  1  0
 24 25  2  0
 25 26  1  0
 25 27  1  0
 27 28  2  0
 28 29  1  0
 29 30  2  0
 29 31  1  0
 31  9  1  0
 31 20  2  0
 28 22  1  0
  1 32  1  0
  1 33  1  0
  1 34  1  0
  2 35  1  0
  2 36  1  0
  4 37  1  0
  4 38  1  0
  5 39  1  0
  5 40  1  0
  5 41  1  0
  6 42  1  0
  6 43  1  0
  7 44  1  0
  7 45  1  0
  8 46  1  0
  8 47  1  0
 11 48  1  0
 12 49  1  0
 12 50  1  0
 13 51  1  0
 13 52  1  0
 15 53  1  0
 15 54  1  0
 15 55  1  0
 16 56  1  0
 16 57  1  0
 16 58  1  0
 17 59  1  0
 19 60  1  0
 19 61  1  0
 19 62  1  0
 23 63  1  0
 24 64  1  0
 27 65  1  0
M  CHG  2   8   1  26  -1
M  END
>  <UniqueID>  (42) 
42

>  <SMILES>  (42) 
CCN(CC)CC[NH2+]c1c(NCCN(C)C)cc(C)c2oc3ccc([O-])cc3c(=O)c12

>  <Energy>  (42) 
89.5806235092552

>  <Genealogy>  (42) 
CCN(CC)CC[NH2+]c1c(NCCN(C)C)cc(C)c2oc3ccc([O-])cc3c(=O)c12 (protonated)
CCN(CC)CC[NH2+]c1c(NCCN(C)C)cc(C)c2oc3ccc([O-])cc3c(=O)c12 (3D coordinates assigned)
CCN(CC)CC[NH2+]c1c(NCCN(C)C)cc(C)c2oc3ccc([O-])cc3c(=O)c12 (optimized conformer: 89.5806235092552 kcal/mol)

>  <smiles>  (42) 
CCN(CC)CCNc1c(NCCN(C)C)cc(C)c2oc3ccc(O)cc3c(=O)c12

>  <score_type>  (42) 
oracle

>  <origin>  (42) 
adg

>  <m_score__min__energy>  (42) 
-9.6600000000000001

>  <m_primary>  (42) 
energy

$$$$
42:0
     RDKit          3D

 28 29  0  0  0  0  0  0  0  0999 V2000
   -1.0382   23.3226  -26.7444 H   0  0  0  0  0  0  0  0  0  0  0  0
   -1.6410   23.6830  -27.5910 C   0  0  0  0  0  0  0  0  0  0  0  0
   -2.7510   23.0020  -27.9810 N   0  0  0  0  0  0  0  0  0  0  0  0
   -3.5090   23.4300  -29.0260 C   0  0  0  0  0  0  0  0  0  0  0  0
   -4.4039   22.8662  -29.3281 H   0  0  0  0  0  0  0  0  0  0  0  0
   -3.1430   24.5930  -29.7150 C   0  0  0  0  0  0  0  0  0  0  0  0
   -3.8720   25.0010  -30.7140 N   0  0  0  0  0  0  0  0  0  0  0  0
   -5.3030   25.1200  -30.7570 C   0  0  0  0  0  0  0  0  0  0  0  0
   -5.8870   25.6900  -29.7990 O   0  0  0  0  0  0  0  0  0  0  0  0
   -6.0630   24.5540  -31.8330 N   0  0  0  0  0  0  0  0  0  0  0  0
   -6.4140   23.1730  -32.0030 C   0  0  0  0  0  0  0  0  0  0  0  0
   -5.4590   22.1950  -32.3370 C   0  0  0  0  0  0  0  0  0  0  0  0
   -4.4093   22.4849  -32.4925 H   0  0  0  0  0  0  0  0  0  0  0  0
   -5.8390   20.8560  -32.4720 C   0  0  0  0  0  0  0  0  0  0  0  0
   -5.0890   20.0994  -32.7460 H   0  0  0  0  0  0  0  0  0  0  0  0
   -7.1770   20.4710  -32.2590 C   0  0  0  0  0  0  0  0  0  0  0  0
   -7.6070   19.1430  -32.3840 O   0  0  0  0  0  0  0  0  0  0  0  0
   -8.7370   18.5960  -31.7130 C   0  0  0  0  0  0  0  0  0  0  0  0
   -8.5880   18.6681  -30.6255 H   0  0  0  0  0  0  0  0  0  0  0  0
   -9.6394   19.1570  -31.9975 H   0  0  0  0  0  0  0  0  0  0  0  0
   -8.8567   17.5402  -31.9975 H   0  0  0  0  0  0  0  0  0  0  0  0
   -8.1170   21.4440  -31.9040 C   0  0  0  0  0  0  0  0  0  0  0  0
   -9.1634   21.1532  -31.7295 H   0  0  0  0  0  0  0  0  0  0  0  0
   -7.7380   22.7830  -31.7690 C   0  0  0  0  0  0  0  0  0  0  0  0
   -8.4854   23.5353  -31.4769 H   0  0  0  0  0  0  0  0  0  0  0  0
   -2.0300   25.2710  -29.3160 N   0  0  0  0  0  0  0  0  0  0  0  0
   -1.2730   24.8420  -28.2730 C   0  0  0  0  0  0  0  0  0  0  0  0
   -0.3776   25.4040  -27.9691 H   0  0  0  0  0  0  0  0  0  0  0  0
  1  2  1  0
  2  3  1  0
  3  4  2  0
  4  5  1  0
  4  6  1  0
  6  7  2  0
  7  8  1  0
  8  9  2  0
  8 10  1  0
 10 11  1  0
 11 12  2  0
 12 13  1  0
 12 14  1  0
 14 15  1  0
 14 16  2  0
 16 17  1  0
 17 18  1  0
 18 19  1  0
 18 20  1  0
 18 21  1  0
 16 22  1  0
 22 23  1  0
 22 24  2  0
 24 25  1  0
  6 26  1  0
 26 27  1  0
 27 28  1  0
 27  2  2  0
 24 11  1  0
M  CHG  2  10  -1  26  -1
M  END
>  <UniqueID>  (43) 
43

>  <SMILES>  (43) 
COc1ccc([N-]C(=O)/N=c2/cncc[n-]2)cc1

>  <Energy>  (43) 
35.9866463185442

>  <Genealogy>  (43) 
COc1ccc([N-]C(=O)N=c2cncc[n-]2)cc1 (protonated)
COc1ccc([N-]C(=O)/N=c2/cncc[n-]2)cc1 (cis-trans isomerization)
COc1ccc([N-]C(=O)/N=c2/cncc[n-]2)cc1 (3D coordinates assigned)
COc1ccc([N-]C(=O)/N=c2/cncc[n-]2)cc1 (optimized conformer: 35.9866463185442 kcal/mol)

>  <smiles>  (43) 
COc1ccc(NC(=O)N=c2cncc[nH]2)cc1

>  <score_type>  (43) 
oracle

>  <origin>  (43) 
adg

>  <m_score__min__energy>  (43) 
-8.3900000000000006

>  <m_primary>  (43) 
energy

$$$$
43:0
     RDKit          3D

 43 46  0  0  0  0  0  0  0  0999 V2000
   -0.1020   26.9470  -23.0740 C   0  0  0  0  0  0  0  0  0  0  0  0
   -0.6270   26.2070  -24.2690 C   0  0  0  0  0  0  0  0  0  0  0  0
   -1.4610   26.8550  -25.1890 C   0  0  0  0  0  0  0  0  0  0  0  0
   -1.9880   26.1560  -26.2760 C   0  0  0  0  0  0  0  0  0  0  0  0
   -1.6990   24.7950  -26.4540 C   0  0  0  0  0  0  0  0  0  0  0  0
   -2.2720   24.0950  -27.5720 N   0  0  0  0  0  0  0  0  0  0  0  0
   -3.6130   23.7740  -27.5450 C   0  0  0  0  0  0  0  0  0  0  0  0
   -4.1980   23.1160  -28.5900 N   0  0  0  0  0  0  0  0  0  0  0  0
   -3.4220   22.7870  -29.6480 C   0  0  0  0  0  0  0  0  0  0  0  0
   -3.7290   22.1560  -30.8320 C   0  0  0  0  0  0  0  0  0  0  0  0
   -5.0510   21.6280  -31.2340 C   0  0  0  0  0  0  0  0  0  0  0  0
   -6.1750   22.4720  -31.2370 C   0  0  0  0  0  0  0  0  0  0  0  0
   -7.4250   21.9820  -31.6270 C   0  0  0  0  0  0  0  0  0  0  0  0
   -7.5630   20.6490  -32.0270 C   0  0  0  0  0  0  0  0  0  0  0  0
   -9.1320   20.0380  -32.5180 Cl  0  0  0  0  0  0  0  0  0  0  0  0
   -6.4470   19.8070  -32.0400 C   0  0  0  0  0  0  0  0  0  0  0  0
   -5.1960   20.2930  -31.6500 C   0  0  0  0  0  0  0  0  0  0  0  0
   -2.5730   22.0970  -31.5510 N   0  0  0  0  0  0  0  0  0  0  0  0
   -2.3820   21.4890  -32.8640 C   0  0  0  0  0  0  0  0  0  0  0  0
   -1.5810   22.6780  -30.8780 N   0  0  0  0  0  0  0  0  0  0  0  0
   -2.1060   23.0980  -29.7130 C   0  0  0  0  0  0  0  0  0  0  0  0
   -1.4990   23.7670  -28.6620 C   0  0  0  0  0  0  0  0  0  0  0  0
   -0.2720   24.0560  -28.7100 O   0  0  0  0  0  0  0  0  0  0  0  0
   -0.8550   24.1340  -25.5350 C   0  0  0  0  0  0  0  0  0  0  0  0
   -0.5300   22.6730  -25.6910 C   0  0  0  0  0  0  0  0  0  0  0  0
   -0.3440   24.8430  -24.4350 C   0  0  0  0  0  0  0  0  0  0  0  0
   -0.4516   26.4542  -22.1548 H   0  0  0  0  0  0  0  0  0  0  0  0
    0.9978   26.9450  -23.0955 H   0  0  0  0  0  0  0  0  0  0  0  0
   -0.4673   27.9844  -23.0955 H   0  0  0  0  0  0  0  0  0  0  0  0
   -1.7018   27.9198  -25.0542 H   0  0  0  0  0  0  0  0  0  0  0  0
   -2.6345   26.6760  -26.9982 H   0  0  0  0  0  0  0  0  0  0  0  0
   -4.2198   24.0514  -26.6705 H   0  0  0  0  0  0  0  0  0  0  0  0
   -6.0706   23.5234  -30.9309 H   0  0  0  0  0  0  0  0  0  0  0  0
   -8.3017   22.6463  -31.6192 H   0  0  0  0  0  0  0  0  0  0  0  0
   -6.5538   18.7594  -32.3580 H   0  0  0  0  0  0  0  0  0  0  0  0
   -4.3203   19.6275  -31.6686 H   0  0  0  0  0  0  0  0  0  0  0  0
   -2.0544   20.4461  -32.7410 H   0  0  0  0  0  0  0  0  0  0  0  0
   -3.3307   21.5121  -33.4203 H   0  0  0  0  0  0  0  0  0  0  0  0
   -1.6170   22.0505  -33.4203 H   0  0  0  0  0  0  0  0  0  0  0  0
   -0.4275   22.2121  -24.6975 H   0  0  0  0  0  0  0  0  0  0  0  0
   -1.3392   22.1745  -26.2448 H   0  0  0  0  0  0  0  0  0  0  0  0
    0.4142   22.5645  -26.2448 H   0  0  0  0  0  0  0  0  0  0  0  0
    0.2843   24.3234  -23.6965 H   0  0  0  0  0  0  0  0  0  0  0  0
  1  2  1  0
  2  3  2  0
  3  4  1  0
  4  5  2  0
  5  6  1  0
  6  7  1  0
  7  8  2  0
  8  9  1  0
  9 10  2  0
 10 11  1  0
 11 12  2  0
 12 13  1  0
 13 14  2  0
 14 15  1  0
 14 16  1  0
 16 17  2  0
 10 18  1  0
 18 19  1  0
 18 20  1  0
 20 21  2  0
 21 22  1  0
 22 23  2  0
  5 24  1  0
 24 25  1  0
 24 26  2  0
 26  2  1  0
 22  6  1  0
 21  9  1  0
 17 11  1  0
  1 27  1  0
  1 28  1  0
  1 29  1  0
  3 30  1  0
  4 31  1  0
  7 32  1  0
 12 33  1  0
 13 34  1  0
 16 35  1  0
 17 36  1  0
 19 37  1  0
 19 38  1  0
 19 39  1  0
 25 40  1  0
 25 41  1  0
 25 42  1  0
 26 43  1  0
M  END
>  <UniqueID>  (44) 
44

>  <SMILES>  (44) 
Cc1ccc(-n2cnc3c(-c4ccc(Cl)cc4)n(C)nc3c2=O)c(C)c1

>  <Energy>  (44) 
102.06412956273128

>  <Genealogy>  (44) 
Cc1ccc(-n2cnc3c(-c4ccc(Cl)cc4)n(C)nc3c2=O)c(C)c1 (3D coordinates assigned)
Cc1ccc(-n2cnc3c(-c4ccc(Cl)cc4)n(C)nc3c2=O)c(C)c1 (optimized conformer: 102.06412956273128 kcal/mol)

>  <smiles>  (44) 
Cc1ccc(-n2cnc3c(-c4ccc(Cl)cc4)n(C)nc3c2=O)c(C)c1

>  <score_type>  (44) 
oracle

>  <origin>  (44) 
adg

>  <m_score__min__energy>  (44) 
-8.3300000000000001

>  <m_primary>  (44) 
energy

$$$$
44:0
     RDKit          3D

 53 55  0  0  1  0  0  0  0  0999 V2000
   -6.7880   15.9300  -33.8660 C   0  0  0  0  0  0  0  0  0  0  0  0
   -5.7070   16.8030  -34.4290 C   0  0  0  0  0  0  0  0  0  0  0  0
   -6.1080   18.1340  -34.7590 N   0  0  0  0  0  0  0  0  0  0  0  0
   -5.8920   19.1790  -34.0560 C   0  0  0  0  0  0  0  0  0  0  0  0
   -6.9250   19.8920  -33.5990 N   0  0  0  0  0  0  0  0  0  0  0  0
   -6.6430   20.9840  -32.8640 C   0  0  0  0  0  0  0  0  0  0  0  0
   -5.3890   21.3790  -32.5770 N   0  0  0  0  0  0  0  0  0  0  0  0
   -4.3660   20.6640  -33.0360 C   0  0  0  0  0  0  0  0  0  0  0  0
   -4.6050   19.5370  -33.7920 C   0  0  0  0  0  0  0  0  0  0  0  0
   -3.4370   19.0120  -34.1220 N   0  0  0  0  0  0  0  0  0  0  0  0
   -2.4900   19.7920  -33.5840 C   0  0  0  0  0  0  0  0  0  0  0  0
   -3.0330   20.8210  -32.9070 N   0  0  0  0  0  0  0  0  0  0  0  0
   -2.3770   21.8930  -32.1780 C   0  0  1  0  0  0  0  0  0  0  0  0
   -3.3980   22.5240  -31.4430 O   0  0  0  0  0  0  0  0  0  0  0  0
   -3.0690   22.5290  -30.1190 C   0  0  2  0  0  0  0  0  0  0  0  0
   -3.5010   23.8130  -29.4210 C   0  0  0  0  0  0  0  0  0  0  0  0
   -3.8210   24.7070  -30.4730 O   0  0  0  0  0  0  0  0  0  0  0  0
   -5.0910   25.1940  -30.7260 C   0  0  0  0  0  0  0  0  0  0  0  0
   -6.0690   24.2480  -31.3360 C   0  0  0  0  0  0  0  0  0  0  0  0
   -5.3680   26.3730  -30.4440 O   0  0  0  0  0  0  0  0  0  0  0  0
   -1.6240   22.2390  -29.9550 C   0  0  2  0  0  0  0  0  0  0  0  0
   -0.7920   23.3340  -29.7650 O   0  0  0  0  0  0  0  0  0  0  0  0
   -0.1750   23.6960  -28.5890 C   0  0  0  0  0  0  0  0  0  0  0  0
    0.3160   22.6590  -27.6410 C   0  0  0  0  0  0  0  0  0  0  0  0
   -0.0390   24.9370  -28.3390 O   0  0  0  0  0  0  0  0  0  0  0  0
   -1.3400   21.4560  -31.2410 C   0  0  2  0  0  0  0  0  0  0  0  0
   -0.0160   21.4590  -31.6000 O   0  0  0  0  0  0  0  0  0  0  0  0
    0.3990   20.9060  -32.8070 C   0  0  0  0  0  0  0  0  0  0  0  0
    0.9150   19.4900  -32.8150 C   0  0  0  0  0  0  0  0  0  0  0  0
    0.3440   21.5770  -33.8820 O   0  0  0  0  0  0  0  0  0  0  0  0
   -6.7494   15.9612  -32.7671 H   0  0  0  0  0  0  0  0  0  0  0  0
   -7.7682   16.2929  -34.2089 H   0  0  0  0  0  0  0  0  0  0  0  0
   -6.6396   14.8954  -34.2089 H   0  0  0  0  0  0  0  0  0  0  0  0
   -4.8989   16.8659  -33.6853 H   0  0  0  0  0  0  0  0  0  0  0  0
   -5.3990   16.3343  -35.3753 H   0  0  0  0  0  0  0  0  0  0  0  0
   -7.9290   19.6370  -33.7880 H   0  0  0  0  0  0  0  0  0  0  0  0
   -7.4804   21.5841  -32.4783 H   0  0  0  0  0  0  0  0  0  0  0  0
   -1.4089   19.6146  -33.6827 H   0  0  0  0  0  0  0  0  0  0  0  0
   -1.8617   22.5392  -32.9039 H   0  0  0  0  0  0  0  0  0  0  0  0
   -3.6301   21.7266  -29.6177 H   0  0  0  0  0  0  0  0  0  0  0  0
   -4.3805   23.6316  -28.7857 H   0  0  0  0  0  0  0  0  0  0  0  0
   -2.7158   24.2116  -28.7618 H   0  0  0  0  0  0  0  0  0  0  0  0
   -6.6144   23.7204  -30.5397 H   0  0  0  0  0  0  0  0  0  0  0  0
   -6.7815   24.8084  -31.9592 H   0  0  0  0  0  0  0  0  0  0  0  0
   -5.5326   23.5173  -31.9592 H   0  0  0  0  0  0  0  0  0  0  0  0
   -1.4065   21.6966  -29.0231 H   0  0  0  0  0  0  0  0  0  0  0  0
    0.1543   23.0006  -26.6080 H   0  0  0  0  0  0  0  0  0  0  0  0
   -0.2334   21.7207  -27.8072 H   0  0  0  0  0  0  0  0  0  0  0  0
    1.3901   22.4894  -27.8072 H   0  0  0  0  0  0  0  0  0  0  0  0
   -1.4364   20.3634  -31.1572 H   0  0  0  0  0  0  0  0  0  0  0  0
    1.0424   19.1403  -31.7799 H   0  0  0  0  0  0  0  0  0  0  0  0
    0.1957   18.8406  -33.3355 H   0  0  0  0  0  0  0  0  0  0  0  0
    1.8835   19.4556  -33.3355 H   0  0  0  0  0  0  0  0  0  0  0  0
  1  2  1  0
  2  3  1  0
  3  4  2  0
  4  5  1  0
  5  6  1  0
  6  7  2  0
  7  8  1  0
  8  9  2  0
  9 10  1  0
 10 11  2  0
 11 12  1  0
 12 13  1  0
 13 14  1  0
 14 15  1  0
 15 16  1  0
 16 17  1  0
 17 18  1  0
 18 19  1  0
 18 20  2  0
 15 21  1  0
 21 22  1  0
 22 23  1  0
 23 24  1  0
 23 25  2  0
 21 26  1  0
 26 27  1  0
 27 28  1  0
 28 29  1  0
 28 30  2  0
  9  4  1  0
 26 13  1  0
 12  8  1  0
  1 31  1  0
  1 32  1  0
  1 33  1  0
  2 34  1  0
  2 35  1  0
  5 36  1  0
  6 37  1  0
 11 38  1  0
 13 39  1  6
 15 40  1  1
 16 41  1  0
 16 42  1  0
 19 43  1  0
 19 44  1  0
 19 45  1  0
 21 46  1  1
 24 47  1  0
 24 48  1  0
 24 49  1  0
 26 50  1  1
 29 51  1  0
 29 52  1  0
 29 53  1  0
M  END
>  <smiles>  (45) 
CCN=c1[nH]cnc2c1ncn2C1OC(COC(C)=O)C(OC(C)=O)C1OC(C)=O

>  <score_type>  (45) 
oracle

>  <origin>  (45) 
adg

>  <m_score__min__energy>  (45) 
-8.3000000000000007

>  <m_primary>  (45) 
energy

$$$$
45:0
     RDKit          3D

 44 45  0  0  0  0  0  0  0  0999 V2000
   -3.2360   23.6400  -28.0630 C   0  0  0  0  0  0  0  0  0  0  0  0
   -2.4650   24.5650  -28.9980 C   0  0  0  0  0  0  0  0  0  0  0  0
   -3.3330   25.1260  -29.9840 O   0  0  0  0  0  0  0  0  0  0  0  0
   -4.6460   24.7030  -30.2590 C   0  0  0  0  0  0  0  0  0  0  0  0
   -5.7780   25.3750  -29.7550 C   0  0  0  0  0  0  0  0  0  0  0  0
   -7.0630   24.9180  -30.0570 C   0  0  0  0  0  0  0  0  0  0  0  0
   -7.2400   23.7910  -30.8620 C   0  0  0  0  0  0  0  0  0  0  0  0
   -6.1230   23.1110  -31.3770 C   0  0  0  0  0  0  0  0  0  0  0  0
   -6.2510   21.9710  -32.1930 C   0  0  0  0  0  0  0  0  0  0  0  0
   -7.3990   21.5320  -32.4810 O   0  0  0  0  0  0  0  0  0  0  0  0
   -5.1300   21.3410  -32.6720 N   0  0  0  0  0  0  0  0  0  0  0  0
   -5.2370   20.1270  -33.5030 C   0  0  0  0  0  0  0  0  0  0  0  0
   -5.8740   18.9970  -32.7220 C   0  0  0  0  0  0  0  0  0  0  0  0
   -5.3280   18.6190  -31.6930 O   0  0  0  0  0  0  0  0  0  0  0  0
   -7.1200   18.3700  -33.1370 N   0  0  0  0  0  0  0  0  0  0  0  0
   -6.8380   17.0690  -33.7940 C   0  0  0  0  0  0  0  0  0  0  0  0
   -5.5220   17.0820  -34.5820 C   0  0  0  0  0  0  0  0  0  0  0  0
   -8.0510   18.2190  -31.9940 C   0  0  0  0  0  0  0  0  0  0  0  0
   -9.1350   19.3040  -31.9780 C   0  0  0  0  0  0  0  0  0  0  0  0
   -3.8900   21.8190  -32.3530 C   0  0  0  0  0  0  0  0  0  0  0  0
   -3.7500   22.9150  -31.5680 N   0  0  0  0  0  0  0  0  0  0  0  0
   -4.8280   23.5730  -31.0720 C   0  0  0  0  0  0  0  0  0  0  0  0
   -3.0142   23.9061  -27.0190 H   0  0  0  0  0  0  0  0  0  0  0  0
   -4.3150   23.7483  -28.2477 H   0  0  0  0  0  0  0  0  0  0  0  0
   -2.9351   22.5982  -28.2477 H   0  0  0  0  0  0  0  0  0  0  0  0
   -2.0137   25.3778  -28.4101 H   0  0  0  0  0  0  0  0  0  0  0  0
   -1.6834   23.9815  -29.5065 H   0  0  0  0  0  0  0  0  0  0  0  0
   -5.6488   26.2641  -29.1204 H   0  0  0  0  0  0  0  0  0  0  0  0
   -7.9401   25.4489  -29.6585 H   0  0  0  0  0  0  0  0  0  0  0  0
   -8.2547   23.4350  -31.0934 H   0  0  0  0  0  0  0  0  0  0  0  0
   -5.8539   20.3477  -34.3866 H   0  0  0  0  0  0  0  0  0  0  0  0
   -4.2266   19.8187  -33.8097 H   0  0  0  0  0  0  0  0  0  0  0  0
   -7.5760   18.9990  -33.8430 H   0  0  0  0  0  0  0  0  0  0  0  0
   -6.7785   16.2889  -33.0208 H   0  0  0  0  0  0  0  0  0  0  0  0
   -7.6523   16.8709  -34.5065 H   0  0  0  0  0  0  0  0  0  0  0  0
   -4.6747   17.0904  -33.8806 H   0  0  0  0  0  0  0  0  0  0  0  0
   -5.4649   16.1844  -35.2153 H   0  0  0  0  0  0  0  0  0  0  0  0
   -5.4827   17.9806  -35.2153 H   0  0  0  0  0  0  0  0  0  0  0  0
   -8.5370   17.2345  -32.0615 H   0  0  0  0  0  0  0  0  0  0  0  0
   -7.4650   18.3155  -31.0681 H   0  0  0  0  0  0  0  0  0  0  0  0
   -9.3865   19.5557  -30.9371 H   0  0  0  0  0  0  0  0  0  0  0  0
   -8.7626   20.2020  -32.4927 H   0  0  0  0  0  0  0  0  0  0  0  0
  -10.0333   18.9324  -32.4927 H   0  0  0  0  0  0  0  0  0  0  0  0
   -2.9950   21.3082  -32.7379 H   0  0  0  0  0  0  0  0  0  0  0  0
  1  2  1  0
  2  3  1  0
  3  4  1  0
  4  5  2  0
  5  6  1  0
  6  7  2  0
  7  8  1  0
  8  9  1  0
  9 10  2  0
  9 11  1  0
 11 12  1  0
 12 13  1  0
 13 14  2  0
 13 15  1  0
 15 16  1  0
 16 17  1  0
 15 18  1  0
 18 19  1  0
 11 20  1  0
 20 21  2  0
 21 22  1  0
 22  4  1  0
 22  8  2  0
  1 23  1  0
  1 24  1  0
  1 25  1  0
  2 26  1  0
  2 27  1  0
  5 28  1  0
  6 29  1  0
  7 30  1  0
 12 31  1  0
 12 32  1  0
 15 33  1  0
 16 34  1  0
 16 35  1  0
 17 36  1  0
 17 37  1  0
 17 38  1  0
 18 39  1  0
 18 40  1  0
 19 41  1  0
 19 42  1  0
 19 43  1  0
 20 44  1  0
M  CHG  1  15   1
M  END
>  <UniqueID>  (46) 
45

>  <SMILES>  (46) 
CCOc1cccc2c(=O)n(CC(=O)[NH+](CC)CC)cnc12

>  <Energy>  (46) 
47.28454735988012

>  <Genealogy>  (46) 
CCOc1cccc2c(=O)n(CC(=O)[NH+](CC)CC)cnc12 (protonated)
CCOc1cccc2c(=O)n(CC(=O)[NH+](CC)CC)cnc12 (3D coordinates assigned)
CCOc1cccc2c(=O)n(CC(=O)[NH+](CC)CC)cnc12 (optimized conformer: 47.28454735988012 kcal/mol)

>  <smiles>  (46) 
CCOc1cccc2c(=O)n(CC(=O)N(CC)CC)cnc12

>  <score_type>  (46) 
oracle

>  <origin>  (46) 
adg

>  <m_score__min__energy>  (46) 
-7.21

>  <m_primary>  (46) 
energy

$$$$
46:0
     RDKit          3D

 43 45  0  0  0  0  0  0  0  0999 V2000
    0.9010   24.1200  -28.2550 C   0  0  0  0  0  0  0  0  0  0  0  0
   -0.0060   25.2160  -28.1810 O   0  0  0  0  0  0  0  0  0  0  0  0
   -1.2490   25.1190  -27.5470 C   0  0  0  0  0  0  0  0  0  0  0  0
   -2.3130   24.3950  -28.1340 C   0  0  0  0  0  0  0  0  0  0  0  0
   -2.0970   23.6420  -29.3430 N   0  0  0  0  0  0  0  0  0  0  0  0
   -3.1080   22.7770  -29.9530 C   0  0  0  0  0  0  0  0  0  0  0  0
   -4.3660   23.5460  -30.2080 C   0  0  0  0  0  0  0  0  0  0  0  0
   -5.6340   22.9980  -30.3590 C   0  0  0  0  0  0  0  0  0  0  0  0
   -6.6120   23.9530  -30.6600 C   0  0  0  0  0  0  0  0  0  0  0  0
   -6.1180   25.2470  -30.7570 C   0  0  0  0  0  0  0  0  0  0  0  0
   -4.4620   25.2040  -30.4680 S   0  0  0  0  0  0  0  0  0  0  0  0
   -3.5560   24.3500  -27.4780 C   0  0  0  0  0  0  0  0  0  0  0  0
   -3.7360   24.9920  -26.2540 C   0  0  0  0  0  0  0  0  0  0  0  0
   -2.6770   25.6750  -25.6590 C   0  0  0  0  0  0  0  0  0  0  0  0
   -1.4290   25.7410  -26.2940 C   0  0  0  0  0  0  0  0  0  0  0  0
   -0.3540   26.4640  -25.6670 N   0  0  0  0  0  0  0  0  0  0  0  0
   -0.6460   27.5390  -24.7100 C   0  0  0  0  0  0  0  0  0  0  0  0
    0.5010   27.6870  -23.6990 C   0  0  0  0  0  0  0  0  0  0  0  0
    1.0380   26.3660  -23.3430 N   0  0  0  0  0  0  0  0  0  0  0  0
    1.6810   25.6880  -24.4900 C   0  0  0  0  0  0  0  0  0  0  0  0
    1.0360   26.0340  -25.8480 C   0  0  0  0  0  0  0  0  0  0  0  0
    1.1688   23.7964  -27.2384 H   0  0  0  0  0  0  0  0  0  0  0  0
    0.4253   23.2860  -28.7919 H   0  0  0  0  0  0  0  0  0  0  0  0
    1.8092   24.4313  -28.7919 H   0  0  0  0  0  0  0  0  0  0  0  0
   -1.1900   23.7550  -29.8490 H   0  0  0  0  0  0  0  0  0  0  0  0
   -2.7229   22.3854  -30.9061 H   0  0  0  0  0  0  0  0  0  0  0  0
   -3.3297   21.9471  -29.2659 H   0  0  0  0  0  0  0  0  0  0  0  0
   -5.8472   21.9241  -30.2529 H   0  0  0  0  0  0  0  0  0  0  0  0
   -7.6729   23.7018  -30.8061 H   0  0  0  0  0  0  0  0  0  0  0  0
   -6.7089   26.1466  -30.9841 H   0  0  0  0  0  0  0  0  0  0  0  0
   -4.3939   23.8031  -27.9350 H   0  0  0  0  0  0  0  0  0  0  0  0
   -4.7165   24.9595  -25.7564 H   0  0  0  0  0  0  0  0  0  0  0  0
   -2.8213   26.1654  -24.6850 H   0  0  0  0  0  0  0  0  0  0  0  0
   -0.7712   28.4855  -25.2562 H   0  0  0  0  0  0  0  0  0  0  0  0
   -1.5690   27.2895  -24.1661 H   0  0  0  0  0  0  0  0  0  0  0  0
    1.3012   28.2965  -24.1441 H   0  0  0  0  0  0  0  0  0  0  0  0
    0.1179   28.1752  -22.7907 H   0  0  0  0  0  0  0  0  0  0  0  0
    0.2620   25.7660  -22.9730 H   0  0  0  0  0  0  0  0  0  0  0  0
    1.7430   26.4820  -22.5790 H   0  0  0  0  0  0  0  0  0  0  0  0
    2.7397   25.9849  -24.5214 H   0  0  0  0  0  0  0  0  0  0  0  0
    1.5563   24.6057  -24.3383 H   0  0  0  0  0  0  0  0  0  0  0  0
    1.6064   26.8463  -26.3222 H   0  0  0  0  0  0  0  0  0  0  0  0
    1.0486   25.1368  -26.4843 H   0  0  0  0  0  0  0  0  0  0  0  0
  1  2  1  0
  2  3  1  0
  3  4  2  0
  4  5  1  0
  5  6  1  0
  6  7  1  0
  7  8  2  0
  8  9  1  0
  9 10  2  0
 10 11  1  0
  4 12  1  0
 12 13  2  0
 13 14  1  0
 14 15  2  0
 15 16  1  0
 16 17  1  0
 17 18  1  0
 18 19  1  0
 19 20  1  0
 20 21  1  0
 15  3  1  0
 21 16  1  0
 11  7  1  0
  1 22  1  0
  1 23  1  0
  1 24  1  0
  5 25  1  0
  6 26  1  0
  6 27  1  0
  8 28  1  0
  9 29  1  0
 10 30  1  0
 12 31  1  0
 13 32  1  0
 14 33  1  0
 17 34  1  0
 17 35  1  0
 18 36  1  0
 18 37  1  0
 19 38  1  0
 19 39  1  0
 20 40  1  0
 20 41  1  0
 21 42  1  0
 21 43  1  0
M  CHG  1  19   1
M  END
>  <UniqueID>  (47) 
46

>  <SMILES>  (47) 
COc1c(NCc2cccs2)cccc1N1CC[NH2+]CC1

>  <Energy>  (47) 
83.72390696791581

>  <Genealogy>  (47) 
COc1c(NCc2cccs2)cccc1N1CC[NH2+]CC1 (protonated)
COc1c(NCc2cccs2)cccc1N1CC[NH2+]CC1 (3D coordinates assigned)
COc1c(NCc2cccs2)cccc1N1CC[NH2+]CC1 (nonaromatic ring conformer: 83.72390696791581 kcal/mol)

>  <smiles>  (47) 
COc1c(NCc2cccs2)cccc1N1CCNCC1

>  <score_type>  (47) 
oracle

>  <origin>  (47) 
adg

>  <m_score__min__energy>  (47) 
-7.2400000000000002

>  <m_primary>  (47) 
energy

$$$$
47:0
     RDKit          3D

 32 33  0  0  0  0  0  0  0  0999 V2000
   -4.9680   22.7750  -28.9690 C   0  0  0  0  0  0  0  0  0  0  0  0
   -6.0440   23.4950  -29.6700 N   0  0  0  0  0  0  0  0  0  0  0  0
   -7.2710   22.6830  -29.7150 C   0  0  0  0  0  0  0  0  0  0  0  0
   -5.6220   23.8380  -31.0150 C   0  0  0  0  0  0  0  0  0  0  0  0
   -4.6420   24.5500  -31.1890 O   0  0  0  0  0  0  0  0  0  0  0  0
   -6.3760   23.3330  -32.2180 C   0  0  0  0  0  0  0  0  0  0  0  0
   -6.1440   21.8950  -32.3900 N   0  0  0  0  0  0  0  0  0  0  0  0
   -4.9860   21.2620  -32.7240 C   0  0  0  0  0  0  0  0  0  0  0  0
   -3.6600   21.9420  -32.8770 C   0  0  0  0  0  0  0  0  0  0  0  0
   -2.5390   21.5400  -31.3520 Br  0  0  0  0  0  0  0  0  0  0  0  0
   -5.1240   19.9160  -32.8500 N   0  0  0  0  0  0  0  0  0  0  0  0
   -6.4320   19.7200  -32.6040 C   0  0  0  0  0  0  0  0  0  0  0  0
   -7.1250   18.5120  -32.6160 C   0  0  0  0  0  0  0  0  0  0  0  0
   -8.5040   18.5450  -32.3370 C   0  0  0  0  0  0  0  0  0  0  0  0
   -9.1480   19.7710  -32.0590 C   0  0  0  0  0  0  0  0  0  0  0  0
   -8.4190   20.9750  -32.0540 C   0  0  0  0  0  0  0  0  0  0  0  0
   -7.0520   20.9050  -32.3320 C   0  0  0  0  0  0  0  0  0  0  0  0
   -5.1104   22.8703  -27.8824 H   0  0  0  0  0  0  0  0  0  0  0  0
   -4.9943   21.7119  -29.2504 H   0  0  0  0  0  0  0  0  0  0  0  0
   -3.9953   23.2048  -29.2504 H   0  0  0  0  0  0  0  0  0  0  0  0
   -6.2540   24.3640  -29.1270 H   0  0  0  0  0  0  0  0  0  0  0  0
   -7.6031   22.4632  -28.6896 H   0  0  0  0  0  0  0  0  0  0  0  0
   -8.0591   23.2385  -30.2445 H   0  0  0  0  0  0  0  0  0  0  0  0
   -7.0677   21.7405  -30.2445 H   0  0  0  0  0  0  0  0  0  0  0  0
   -7.4517   23.5137  -32.0756 H   0  0  0  0  0  0  0  0  0  0  0  0
   -6.0230   23.8647  -33.1139 H   0  0  0  0  0  0  0  0  0  0  0  0
   -3.1700   21.5850  -33.7949 H   0  0  0  0  0  0  0  0  0  0  0  0
   -3.8139   23.0294  -32.9386 H   0  0  0  0  0  0  0  0  0  0  0  0
   -6.6119   17.5642  -32.8361 H   0  0  0  0  0  0  0  0  0  0  0  0
   -9.0839   17.6103  -32.3354 H   0  0  0  0  0  0  0  0  0  0  0  0
  -10.2269   19.7849  -31.8449 H   0  0  0  0  0  0  0  0  0  0  0  0
   -8.9082   21.9365  -31.8389 H   0  0  0  0  0  0  0  0  0  0  0  0
  1  2  1  0
  2  3  1  0
  2  4  1  0
  4  5  2  0
  4  6  1  0
  6  7  1  0
  7  8  1  0
  8  9  1  0
  9 10  1  0
  8 11  2  0
 11 12  1  0
 12 13  2  0
 13 14  1  0
 14 15  2  0
 15 16  1  0
 16 17  2  0
 17  7  1  0
 17 12  1  0
  1 18  1  0
  1 19  1  0
  1 20  1  0
  2 21  1  0
  3 22  1  0
  3 23  1  0
  3 24  1  0
  6 25  1  0
  6 26  1  0
  9 27  1  0
  9 28  1  0
 13 29  1  0
 14 30  1  0
 15 31  1  0
 16 32  1  0
M  CHG  1   2   1
M  END
>  <UniqueID>  (48) 
47

>  <SMILES>  (48) 
C[NH+](C)C(=O)Cn1c(CBr)nc2ccccc21

>  <Energy>  (48) 
64.82112915140921

>  <Genealogy>  (48) 
C[NH+](C)C(=O)Cn1c(CBr)nc2ccccc21 (protonated)
C[NH+](C)C(=O)Cn1c(CBr)nc2ccccc21 (3D coordinates assigned)
C[NH+](C)C(=O)Cn1c(CBr)nc2ccccc21 (optimized conformer: 64.82112915140921 kcal/mol)

>  <smiles>  (48) 
CN(C)C(=O)Cn1c(CBr)nc2ccccc21

>  <score_type>  (48) 
oracle

>  <origin>  (48) 
adg

>  <m_score__min__energy>  (48) 
-6.0999999999999996

>  <m_primary>  (48) 
energy

$$$$
