0:0
     RDKit          3D

 59 62  0  0  0  0  0  0  0  0999 V2000
   -3.0660   23.3090  -29.0240 C   0  0  0  0  0  0  0  0  0  0  0  0
   -3.4090   24.1160  -30.2360 C   0  0  0  0  0  0  0  0  0  0  0  0
   -4.7710   24.3360  -30.3810 N   0  0  0  0  0  0  0  0  0  0  0  0
   -5.4560   24.8880  -29.2350 C   0  0  0  0  0  0  0  0  0  0  0  0
   -6.8540   25.3070  -29.6990 C   0  0  0  0  0  0  0  0  0  0  0  0
   -5.4370   24.4360  -31.5920 C   0  0  0  0  0  0  0  0  0  0  0  0
   -5.9480   23.1970  -32.2590 C   0  0  0  0  0  0  0  0  0  0  0  0
   -5.4260   21.9880  -31.6930 N   0  0  0  0  0  0  0  0  0  0  0  0
   -5.4430   20.7170  -32.2960 C   0  0  0  0  0  0  0  0  0  0  0  0
   -6.6290   20.0180  -32.2260 C   0  0  0  0  0  0  0  0  0  0  0  0
   -7.7110   20.5820  -31.5730 C   0  0  0  0  0  0  0  0  0  0  0  0
   -8.8930   19.8800  -31.5080 C   0  0  0  0  0  0  0  0  0  0  0  0
   -9.0670   18.6290  -32.0650 C   0  0  0  0  0  0  0  0  0  0  0  0
   -7.9950   18.0720  -32.7100 C   0  0  0  0  0  0  0  0  0  0  0  0
   -6.8280   18.7680  -32.7730 C   0  0  0  0  0  0  0  0  0  0  0  0
   -5.7620   18.2380  -33.4070 N   0  0  0  0  0  0  0  0  0  0  0  0
   -5.9370   16.9170  -33.9960 C   0  0  0  0  0  0  0  0  0  0  0  0
   -4.6350   18.9020  -33.4740 C   0  0  0  0  0  0  0  0  0  0  0  0
   -3.1950   18.3420  -34.2830 S   0  0  0  0  0  0  0  0  0  0  0  0
   -2.2390   19.9050  -33.8560 C   0  0  0  0  0  0  0  0  0  0  0  0
   -0.8830   20.0030  -34.3010 C   0  0  0  0  0  0  0  0  0  0  0  0
   -0.0100   18.9220  -34.0800 C   0  0  0  0  0  0  0  0  0  0  0  0
    1.2910   18.9160  -34.5220 C   0  0  0  0  0  0  0  0  0  0  0  0
    1.7700   19.9940  -35.2030 C   0  0  0  0  0  0  0  0  0  0  0  0
    0.9770   21.0750  -35.4540 C   0  0  0  0  0  0  0  0  0  0  0  0
   -0.3280   21.0460  -34.9950 C   0  0  0  0  0  0  0  0  0  0  0  0
   -3.1220   20.6180  -33.1720 N   0  0  0  0  0  0  0  0  0  0  0  0
   -2.6810   21.9170  -32.5840 C   0  0  0  0  0  0  0  0  0  0  0  0
   -4.3290   20.1440  -32.9670 C   0  0  0  0  0  0  0  0  0  0  0  0
   -3.3106   23.8845  -28.1190 H   0  0  0  0  0  0  0  0  0  0  0  0
   -3.6442   22.3732  -29.0309 H   0  0  0  0  0  0  0  0  0  0  0  0
   -1.9910   23.0759  -29.0309 H   0  0  0  0  0  0  0  0  0  0  0  0
   -2.9039   25.0903  -30.1612 H   0  0  0  0  0  0  0  0  0  0  0  0
   -3.0761   23.5430  -31.1140 H   0  0  0  0  0  0  0  0  0  0  0  0
   -5.5340   24.1299  -28.4418 H   0  0  0  0  0  0  0  0  0  0  0  0
   -4.9054   25.7497  -28.8297 H   0  0  0  0  0  0  0  0  0  0  0  0
   -7.4897   25.4975  -28.8217 H   0  0  0  0  0  0  0  0  0  0  0  0
   -6.7804   26.2225  -30.3043 H   0  0  0  0  0  0  0  0  0  0  0  0
   -7.2961   24.5019  -30.3043 H   0  0  0  0  0  0  0  0  0  0  0  0
   -6.3052   25.0908  -31.4261 H   0  0  0  0  0  0  0  0  0  0  0  0
   -4.6618   24.7992  -32.2828 H   0  0  0  0  0  0  0  0  0  0  0  0
   -7.0441   23.1793  -32.1684 H   0  0  0  0  0  0  0  0  0  0  0  0
   -5.6174   23.2333  -33.3075 H   0  0  0  0  0  0  0  0  0  0  0  0
   -5.0110   22.0370  -30.7130 H   0  0  0  0  0  0  0  0  0  0  0  0
   -7.6275   21.5774  -31.1124 H   0  0  0  0  0  0  0  0  0  0  0  0
   -9.7440   20.3401  -30.9845 H   0  0  0  0  0  0  0  0  0  0  0  0
  -10.0290   18.1003  -31.9936 H   0  0  0  0  0  0  0  0  0  0  0  0
   -8.0765   17.0763  -33.1704 H   0  0  0  0  0  0  0  0  0  0  0  0
   -6.0361   16.1689  -33.1957 H   0  0  0  0  0  0  0  0  0  0  0  0
   -6.8439   16.9103  -34.6185 H   0  0  0  0  0  0  0  0  0  0  0  0
   -5.0631   16.6744  -34.6185 H   0  0  0  0  0  0  0  0  0  0  0  0
   -0.3844   18.0456  -33.5308 H   0  0  0  0  0  0  0  0  0  0  0  0
    1.9395   18.0490  -34.3277 H   0  0  0  0  0  0  0  0  0  0  0  0
    2.8119   19.9928  -35.5558 H   0  0  0  0  0  0  0  0  0  0  0  0
    1.3637   21.9447  -36.0054 H   0  0  0  0  0  0  0  0  0  0  0  0
   -0.9633   21.9200  -35.2013 H   0  0  0  0  0  0  0  0  0  0  0  0
   -2.7040   21.8492  -31.4863 H   0  0  0  0  0  0  0  0  0  0  0  0
   -1.6565   22.1408  -32.9162 H   0  0  0  0  0  0  0  0  0  0  0  0
   -3.3575   22.7183  -32.9162 H   0  0  0  0  0  0  0  0  0  0  0  0
  1  2  1  0
  2  3  1  0
  3  4  1  0
  4  5  1  0
  3  6  1  0
  6  7  1  0
  7  8  1  0
  8  9  1  0
  9 10  2  0
 10 11  1  0
 11 12  2  0
 12 13  1  0
 13 14  2  0
 14 15  1  0
 15 16  2  0
 16 17  1  0
 16 18  1  0
 18 19  1  0
 19 20  1  0
 20 21  1  0
 21 22  2  0
 22 23  1  0
 23 24  2  0
 24 25  1  0
 25 26  2  0
 20 27  2  0
 27 28  1  0
 27 29  1  0
 29  9  1  0
 15 10  1  0
 29 18  2  0
 26 21  1  0
  1 30  1  0
  1 31  1  0
  1 32  1  0
  2 33  1  0
  2 34  1  0
  4 35  1  0
  4 36  1  0
  5 37  1  0
  5 38  1  0
  5 39  1  0
  6 40  1  0
  6 41  1  0
  7 42  1  0
  7 43  1  0
  8 44  1  0
 11 45  1  0
 12 46  1  0
 13 47  1  0
 14 48  1  0
 17 49  1  0
 17 50  1  0
 17 51  1  0
 22 52  1  0
 23 53  1  0
 24 54  1  0
 25 55  1  0
 26 56  1  0
 28 57  1  0
 28 58  1  0
 28 59  1  0
M  CHG  2  16   1  27   1
M  END
>  <smiles>  (1) 
CCN(CC)CCNc1c2ccccc2[n+](C)c2sc(-c3ccccc3)[n+](C)c12

>  <score_type>  (1) 
oracle

>  <origin>  (1) 
adg

>  <m_score__min__energy>  (1) 
-8.6400000000000006

>  <m_primary>  (1) 
energy

$$$$
1:0
     RDKit          3D

 40 41  0  0  0  0  0  0  0  0999 V2000
   -5.7700   16.6870  -31.2750 C   0  0  0  0  0  0  0  0  0  0  0  0
   -6.7510   17.8060  -31.3490 C   0  0  0  0  0  0  0  0  0  0  0  0
   -7.3590   18.0230  -32.5950 N   0  0  0  0  0  0  0  0  0  0  0  0
   -6.8560   17.3960  -33.7430 C   0  0  0  0  0  0  0  0  0  0  0  0
   -5.8250   18.2210  -34.4830 C   0  0  0  0  0  0  0  0  0  0  0  0
   -8.5110   18.8090  -32.6880 C   0  0  0  0  0  0  0  0  0  0  0  0
   -8.3850   20.2140  -32.1240 C   0  0  0  0  0  0  0  0  0  0  0  0
   -7.2160   20.7470  -32.0340 O   0  0  0  0  0  0  0  0  0  0  0  0
   -6.0830   21.3480  -31.9270 C   0  0  0  0  0  0  0  0  0  0  0  0
   -4.8920   20.7900  -32.3500 C   0  0  0  0  0  0  0  0  0  0  0  0
   -3.6680   21.4020  -32.2520 C   0  0  0  0  0  0  0  0  0  0  0  0
   -2.5300   20.8190  -32.6800 F   0  0  0  0  0  0  0  0  0  0  0  0
   -3.6780   22.6810  -31.6750 C   0  0  0  0  0  0  0  0  0  0  0  0
   -4.8040   23.2910  -31.2380 C   0  0  0  0  0  0  0  0  0  0  0  0
   -6.0040   22.6350  -31.3590 C   0  0  0  0  0  0  0  0  0  0  0  0
   -7.1370   23.2890  -30.9000 O   0  0  0  0  0  0  0  0  0  0  0  0
   -7.0720   24.3370  -29.9470 C   0  0  0  0  0  0  0  0  0  0  0  0
   -5.9670   25.3170  -30.2620 C   0  0  0  0  0  0  0  0  0  0  0  0
   -4.7090   24.6330  -30.6510 C   0  0  0  0  0  0  0  0  0  0  0  0
   -3.6290   25.2120  -30.4680 O   0  0  0  0  0  0  0  0  0  0  0  0
   -5.5625   16.4504  -30.2210 H   0  0  0  0  0  0  0  0  0  0  0  0
   -6.1870   15.8002  -31.7747 H   0  0  0  0  0  0  0  0  0  0  0  0
   -4.8362   16.9843  -31.7747 H   0  0  0  0  0  0  0  0  0  0  0  0
   -7.5480   17.6008  -30.6192 H   0  0  0  0  0  0  0  0  0  0  0  0
   -6.1696   18.7174  -31.1456 H   0  0  0  0  0  0  0  0  0  0  0  0
   -6.3908   16.4451  -33.4441 H   0  0  0  0  0  0  0  0  0  0  0  0
   -7.7041   17.2503  -34.4282 H   0  0  0  0  0  0  0  0  0  0  0  0
   -5.1794   18.7376  -33.7575 H   0  0  0  0  0  0  0  0  0  0  0  0
   -5.2120   17.5612  -35.1146 H   0  0  0  0  0  0  0  0  0  0  0  0
   -6.3343   18.9637  -35.1146 H   0  0  0  0  0  0  0  0  0  0  0  0
   -8.7807   18.8924  -33.7512 H   0  0  0  0  0  0  0  0  0  0  0  0
   -9.2744   18.3036  -32.0783 H   0  0  0  0  0  0  0  0  0  0  0  0
   -8.9919   20.8733  -32.7619 H   0  0  0  0  0  0  0  0  0  0  0  0
   -8.7090   20.1091  -31.0780 H   0  0  0  0  0  0  0  0  0  0  0  0
   -4.9276   19.7853  -32.7964 H   0  0  0  0  0  0  0  0  0  0  0  0
   -2.7218   23.2150  -31.5727 H   0  0  0  0  0  0  0  0  0  0  0  0
   -8.0323   24.8734  -29.9422 H   0  0  0  0  0  0  0  0  0  0  0  0
   -6.8620   23.8910  -28.9637 H   0  0  0  0  0  0  0  0  0  0  0  0
   -6.2911   25.9624  -31.0917 H   0  0  0  0  0  0  0  0  0  0  0  0
   -5.7664   25.9049  -29.3542 H   0  0  0  0  0  0  0  0  0  0  0  0
  1  2  1  0
  2  3  1  0
  3  4  1  0
  4  5  1  0
  3  6  1  0
  6  7  1  0
  7  8  1  0
  8  9  1  0
  9 10  2  0
 10 11  1  0
 11 12  1  0
 11 13  2  0
 13 14  1  0
 14 15  2  0
 15 16  1  0
 16 17  1  0
 17 18  1  0
 18 19  1  0
 19 20  2  0
 15  9  1  0
 19 14  1  0
  1 21  1  0
  1 22  1  0
  1 23  1  0
  2 24  1  0
  2 25  1  0
  4 26  1  0
  4 27  1  0
  5 28  1  0
  5 29  1  0
  5 30  1  0
  6 31  1  0
  6 32  1  0
  7 33  1  0
  7 34  1  0
 10 35  1  0
 13 36  1  0
 17 37  1  0
 17 38  1  0
 18 39  1  0
 18 40  1  0
M  END
>  <smiles>  (2) 
CCN(CC)CCOc1cc(F)cc2c1OCCC2=O

>  <score_type>  (2) 
oracle

>  <origin>  (2) 
adg

>  <m_score__min__energy>  (2) 
-6.25

>  <m_primary>  (2) 
energy

$$$$
2:0
     RDKit          3D

 32 32  0  0  0  0  0  0  0  0999 V2000
   -2.4650   23.9130  -29.1460 C   0  0  0  0  0  0  0  0  0  0  0  0
   -3.5180   23.9980  -30.2470 C   0  0  0  0  0  0  0  0  0  0  0  0
   -3.8670   25.2980  -30.5230 O   0  0  0  0  0  0  0  0  0  0  0  0
   -5.2400   25.4940  -30.4890 C   0  0  0  0  0  0  0  0  0  0  0  0
   -5.9460   24.1640  -30.4200 C   0  0  0  0  0  0  0  0  0  0  0  0
   -6.2320   23.6340  -31.7010 O   0  0  0  0  0  0  0  0  0  0  0  0
   -7.1070   22.5710  -31.8920 C   0  0  0  0  0  0  0  0  0  0  0  0
   -8.4660   22.7590  -31.7470 C   0  0  0  0  0  0  0  0  0  0  0  0
   -9.2670   21.6440  -31.9550 C   0  0  0  0  0  0  0  0  0  0  0  0
   -8.7230   20.4170  -32.2910 C   0  0  0  0  0  0  0  0  0  0  0  0
   -7.3440   20.2620  -32.4300 C   0  0  0  0  0  0  0  0  0  0  0  0
   -6.5460   21.3570  -32.2250 C   0  0  0  0  0  0  0  0  0  0  0  0
   -4.8230   21.1800  -32.3960 S   0  0  0  0  0  0  0  0  0  0  0  0
   -4.3870   19.7660  -33.3620 C   0  0  0  0  0  0  0  0  0  0  0  0
   -4.2770   22.3940  -33.0870 O   0  0  0  0  0  0  0  0  0  0  0  0
   -4.2540   21.0200  -31.0170 O   0  0  0  0  0  0  0  0  0  0  0  0
   -2.9579   23.9528  -28.1634 H   0  0  0  0  0  0  0  0  0  0  0  0
   -1.9113   22.9672  -29.2404 H   0  0  0  0  0  0  0  0  0  0  0  0
   -1.7667   24.7577  -29.2404 H   0  0  0  0  0  0  0  0  0  0  0  0
   -3.1153   23.5363  -31.1606 H   0  0  0  0  0  0  0  0  0  0  0  0
   -4.4181   23.4699  -29.8993 H   0  0  0  0  0  0  0  0  0  0  0  0
   -5.5013   26.0921  -29.6036 H   0  0  0  0  0  0  0  0  0  0  0  0
   -5.5531   26.0236  -31.4008 H   0  0  0  0  0  0  0  0  0  0  0  0
   -5.3051   23.4523  -29.8790 H   0  0  0  0  0  0  0  0  0  0  0  0
   -6.9038   24.3209  -29.9022 H   0  0  0  0  0  0  0  0  0  0  0  0
   -8.8915   23.7380  -31.4813 H   0  0  0  0  0  0  0  0  0  0  0  0
  -10.3579   21.7383  -31.8504 H   0  0  0  0  0  0  0  0  0  0  0  0
   -9.3859   19.5537  -32.4503 H   0  0  0  0  0  0  0  0  0  0  0  0
   -6.9089   19.2876  -32.6968 H   0  0  0  0  0  0  0  0  0  0  0  0
   -4.1295   18.9308  -32.6940 H   0  0  0  0  0  0  0  0  0  0  0  0
   -5.2383   19.4788  -33.9966 H   0  0  0  0  0  0  0  0  0  0  0  0
   -3.5218   20.0081  -33.9966 H   0  0  0  0  0  0  0  0  0  0  0  0
  1  2  1  0
  2  3  1  0
  3  4  1  0
  4  5  1  0
  5  6  1  0
  6  7  1  0
  7  8  2  0
  8  9  1  0
  9 10  2  0
 10 11  1  0
 11 12  2  0
 12 13  1  0
 13 14  1  0
 13 15  2  0
 13 16  2  0
 12  7  1  0
  1 17  1  0
  1 18  1  0
  1 19  1  0
  2 20  1  0
  2 21  1  0
  4 22  1  0
  4 23  1  0
  5 24  1  0
  5 25  1  0
  8 26  1  0
  9 27  1  0
 10 28  1  0
 11 29  1  0
 14 30  1  0
 14 31  1  0
 14 32  1  0
M  END
>  <smiles>  (3) 
CCOCCOc1ccccc1S(C)(=O)=O

>  <score_type>  (3) 
oracle

>  <origin>  (3) 
adg

>  <m_score__min__energy>  (3) 
-6.1900000000000004

>  <m_primary>  (3) 
energy

$$$$
3:0
     RDKit          3D

 66 68  0  0  0  0  0  0  0  0999 V2000
   -3.0550   18.6110  -25.9310 C   0  0  0  0  0  0  0  0  0  0  0  0
   -3.1180   19.5480  -27.1030 C   0  0  0  0  0  0  0  0  0  0  0  0
   -1.8520   20.0730  -27.4360 N   0  0  0  0  0  0  0  0  0  0  0  0
   -0.8390   19.0170  -27.5700 C   0  0  0  0  0  0  0  0  0  0  0  0
   -0.0090   19.1690  -28.7910 C   0  0  0  0  0  0  0  0  0  0  0  0
   -1.2520   21.0880  -26.6710 C   0  0  0  0  0  0  0  0  0  0  0  0
   -1.5020   22.5120  -26.9830 C   0  0  0  0  0  0  0  0  0  0  0  0
   -2.2900   22.7900  -28.0480 O   0  0  0  0  0  0  0  0  0  0  0  0
   -1.7960   23.3430  -29.1670 C   0  0  0  0  0  0  0  0  0  0  0  0
   -2.0530   22.6250  -30.4740 C   0  0  0  0  0  0  0  0  0  0  0  0
   -2.7290   21.3730  -30.2580 N   0  0  0  0  0  0  0  0  0  0  0  0
   -2.4490   20.3520  -31.2570 C   0  0  0  0  0  0  0  0  0  0  0  0
   -2.2550   20.9520  -32.6140 C   0  0  0  0  0  0  0  0  0  0  0  0
   -3.4750   21.2350  -33.3020 N   0  0  0  0  0  0  0  0  0  0  0  0
   -4.7740   20.8420  -32.8590 C   0  0  0  0  0  0  0  0  0  0  0  0
   -5.3660   19.6550  -33.1760 C   0  0  0  0  0  0  0  0  0  0  0  0
   -4.6940   18.7120  -33.9340 C   0  0  0  0  0  0  0  0  0  0  0  0
   -5.2210   17.4980  -34.2810 C   0  0  0  0  0  0  0  0  0  0  0  0
   -6.4920   17.1910  -33.8540 C   0  0  0  0  0  0  0  0  0  0  0  0
   -7.1890   18.0940  -33.1030 C   0  0  0  0  0  0  0  0  0  0  0  0
   -6.6450   19.3340  -32.7510 C   0  0  0  0  0  0  0  0  0  0  0  0
   -7.3780   20.2090  -31.9850 N   0  0  0  0  0  0  0  0  0  0  0  0
   -8.6850   19.7540  -31.6160 C   0  0  0  0  0  0  0  0  0  0  0  0
   -6.8210   21.3750  -31.6620 C   0  0  0  0  0  0  0  0  0  0  0  0
   -7.5590   22.2530  -30.9030 C   0  0  0  0  0  0  0  0  0  0  0  0
   -6.9990   23.4890  -30.5560 C   0  0  0  0  0  0  0  0  0  0  0  0
   -5.7400   23.8660  -30.9430 C   0  0  0  0  0  0  0  0  0  0  0  0
   -5.2020   25.1270  -30.5900 N   0  0  0  0  0  0  0  0  0  0  0  0
   -5.8920   26.0470  -30.1070 O   0  0  0  0  0  0  0  0  0  0  0  0
   -3.8610   25.3410  -30.7870 O   0  0  0  0  0  0  0  0  0  0  0  0
   -5.0080   22.9680  -31.7110 C   0  0  0  0  0  0  0  0  0  0  0  0
   -5.5280   21.7250  -32.0790 C   0  0  0  0  0  0  0  0  0  0  0  0
   -3.0939   19.1897  -24.9964 H   0  0  0  0  0  0  0  0  0  0  0  0
   -3.9086   17.9182  -25.9691 H   0  0  0  0  0  0  0  0  0  0  0  0
   -2.1164   18.0387  -25.9691 H   0  0  0  0  0  0  0  0  0  0  0  0
   -3.5144   19.0020  -27.9718 H   0  0  0  0  0  0  0  0  0  0  0  0
   -3.7698   20.3899  -26.8267 H   0  0  0  0  0  0  0  0  0  0  0  0
   -0.1794   19.0488  -26.6903 H   0  0  0  0  0  0  0  0  0  0  0  0
   -1.3695   18.0565  -27.6472 H   0  0  0  0  0  0  0  0  0  0  0  0
    1.0353   19.3602  -28.5030 H   0  0  0  0  0  0  0  0  0  0  0  0
   -0.0618   18.2463  -29.3875 H   0  0  0  0  0  0  0  0  0  0  0  0
   -0.3854   20.0132  -29.3875 H   0  0  0  0  0  0  0  0  0  0  0  0
   -1.5758   20.9319  -25.6314 H   0  0  0  0  0  0  0  0  0  0  0  0
   -0.1825   20.9694  -26.8991 H   0  0  0  0  0  0  0  0  0  0  0  0
   -1.9723   22.9654  -26.0980 H   0  0  0  0  0  0  0  0  0  0  0  0
   -0.5152   22.9172  -27.2515 H   0  0  0  0  0  0  0  0  0  0  0  0
   -2.2276   24.3510  -29.2545 H   0  0  0  0  0  0  0  0  0  0  0  0
   -0.7041   23.3079  -29.0382 H   0  0  0  0  0  0  0  0  0  0  0  0
   -2.6772   23.2631  -31.1168 H   0  0  0  0  0  0  0  0  0  0  0  0
   -1.0847   22.4189  -30.9534 H   0  0  0  0  0  0  0  0  0  0  0  0
   -2.5080   20.9790  -29.3170 H   0  0  0  0  0  0  0  0  0  0  0  0
   -1.5341   19.8127  -30.9704 H   0  0  0  0  0  0  0  0  0  0  0  0
   -3.3089   19.6675  -31.3017 H   0  0  0  0  0  0  0  0  0  0  0  0
   -1.6955   21.8922  -32.5002 H   0  0  0  0  0  0  0  0  0  0  0  0
   -1.7134   20.2085  -33.2173 H   0  0  0  0  0  0  0  0  0  0  0  0
   -3.4710   21.7740  -34.2180 H   0  0  0  0  0  0  0  0  0  0  0  0
   -3.6770   18.9525  -34.2775 H   0  0  0  0  0  0  0  0  0  0  0  0
   -4.6424   16.7849  -34.8866 H   0  0  0  0  0  0  0  0  0  0  0  0
   -6.9447   16.2233  -34.1160 H   0  0  0  0  0  0  0  0  0  0  0  0
   -8.2048   17.8397  -32.7660 H   0  0  0  0  0  0  0  0  0  0  0  0
   -8.7673   19.7254  -30.5195 H   0  0  0  0  0  0  0  0  0  0  0  0
   -9.4410   20.4418  -32.0226 H   0  0  0  0  0  0  0  0  0  0  0  0
   -8.8505   18.7454  -32.0226 H   0  0  0  0  0  0  0  0  0  0  0  0
   -8.5745   21.9883  -30.5732 H   0  0  0  0  0  0  0  0  0  0  0  0
   -7.5945   24.1857  -29.9477 H   0  0  0  0  0  0  0  0  0  0  0  0
   -3.9941   23.2431  -32.0370 H   0  0  0  0  0  0  0  0  0  0  0  0
  1  2  1  0
  2  3  1  0
  3  4  1  0
  4  5  1  0
  3  6  1  0
  6  7  1  0
  7  8  1  0
  8  9  1  0
  9 10  1  0
 10 11  1  0
 11 12  1  0
 12 13  1  0
 13 14  1  0
 14 15  1  0
 15 16  2  0
 16 17  1  0
 17 18  2  0
 18 19  1  0
 19 20  2  0
 20 21  1  0
 21 22  2  0
 22 23  1  0
 22 24  1  0
 24 25  2  0
 25 26  1  0
 26 27  2  0
 27 28  1  0
 28 29  2  0
 28 30  1  0
 27 31  1  0
 31 32  2  0
 32 15  1  0
 21 16  1  0
 32 24  1  0
  1 33  1  0
  1 34  1  0
  1 35  1  0
  2 36  1  0
  2 37  1  0
  4 38  1  0
  4 39  1  0
  5 40  1  0
  5 41  1  0
  5 42  1  0
  6 43  1  0
  6 44  1  0
  7 45  1  0
  7 46  1  0
  9 47  1  0
  9 48  1  0
 10 49  1  0
 10 50  1  0
 11 51  1  0
 12 52  1  0
 12 53  1  0
 13 54  1  0
 13 55  1  0
 14 56  1  0
 17 57  1  0
 18 58  1  0
 19 59  1  0
 20 60  1  0
 23 61  1  0
 23 62  1  0
 23 63  1  0
 25 64  1  0
 26 65  1  0
 31 66  1  0
M  CHG  3  22   1  28   1  30  -1
M  END
>  <smiles>  (4) 
CCN(CC)CCOCCNCCNc1c2ccccc2[n+](C)c2ccc([N+](=O)[O-])cc12

>  <score_type>  (4) 
oracle

>  <origin>  (4) 
adg

>  <m_score__min__energy>  (4) 
-11.18

>  <m_primary>  (4) 
energy

$$$$
4:0
     RDKit          3D

 44 45  0  0  0  0  0  0  0  0999 V2000
   -1.2450   25.6910  -27.0470 C   0  0  0  0  0  0  0  0  0  0  0  0
   -1.1370   25.4410  -28.5150 C   0  0  0  0  0  0  0  0  0  0  0  0
   -2.0050   24.3150  -28.8450 N   0  0  0  0  0  0  0  0  0  0  0  0
   -3.0380   24.2750  -27.8350 C   0  0  0  0  0  0  0  0  0  0  0  0
   -3.9730   23.1430  -28.0920 C   0  0  0  0  0  0  0  0  0  0  0  0
   -1.3430   23.0930  -29.0780 C   0  0  0  0  0  0  0  0  0  0  0  0
   -1.6380   22.3690  -30.3670 C   0  0  0  0  0  0  0  0  0  0  0  0
   -2.6310   22.9250  -31.1430 N   0  0  0  0  0  0  0  0  0  0  0  0
   -3.6150   22.2990  -31.8620 C   0  0  0  0  0  0  0  0  0  0  0  0
   -5.0290   22.7430  -31.5820 C   0  0  0  0  0  0  0  0  0  0  0  0
   -5.3550   23.9880  -31.1190 C   0  0  0  0  0  0  0  0  0  0  0  0
   -4.3810   24.9130  -30.8430 O   0  0  0  0  0  0  0  0  0  0  0  0
   -6.7000   24.3120  -30.9230 C   0  0  0  0  0  0  0  0  0  0  0  0
   -7.7160   23.4160  -31.1820 C   0  0  0  0  0  0  0  0  0  0  0  0
   -7.3770   22.1520  -31.6520 C   0  0  0  0  0  0  0  0  0  0  0  0
   -8.4120   21.2770  -31.9080 C   0  0  0  0  0  0  0  0  0  0  0  0
   -8.1380   19.9910  -32.3910 C   0  0  0  0  0  0  0  0  0  0  0  0
   -6.8240   19.6460  -32.5930 C   0  0  0  0  0  0  0  0  0  0  0  0
   -5.7920   20.5560  -32.3240 C   0  0  0  0  0  0  0  0  0  0  0  0
   -6.0500   21.8230  -31.8480 C   0  0  0  0  0  0  0  0  0  0  0  0
   -0.8671   24.8163  -26.4973 H   0  0  0  0  0  0  0  0  0  0  0  0
   -0.6492   26.5766  -26.7811 H   0  0  0  0  0  0  0  0  0  0  0  0
   -2.2982   25.8643  -26.7811 H   0  0  0  0  0  0  0  0  0  0  0  0
   -1.4572   26.3347  -29.0706 H   0  0  0  0  0  0  0  0  0  0  0  0
   -0.0960   25.2145  -28.7888 H   0  0  0  0  0  0  0  0  0  0  0  0
   -2.5735   24.1440  -26.8465 H   0  0  0  0  0  0  0  0  0  0  0  0
   -3.6031   25.2182  -27.8653 H   0  0  0  0  0  0  0  0  0  0  0  0
   -4.3169   22.7267  -27.1337 H   0  0  0  0  0  0  0  0  0  0  0  0
   -4.8385   23.5054  -28.6660 H   0  0  0  0  0  0  0  0  0  0  0  0
   -3.4536   22.3615  -28.6660 H   0  0  0  0  0  0  0  0  0  0  0  0
   -0.2621   23.2958  -29.0554 H   0  0  0  0  0  0  0  0  0  0  0  0
   -1.7160   22.4211  -28.2910 H   0  0  0  0  0  0  0  0  0  0  0  0
   -0.7138   22.3470  -30.9631 H   0  0  0  0  0  0  0  0  0  0  0  0
   -2.0016   21.3718  -30.0782 H   0  0  0  0  0  0  0  0  0  0  0  0
   -2.6300   23.9440  -31.1790 H   0  0  0  0  0  0  0  0  0  0  0  0
   -3.4135   22.4735  -32.9292 H   0  0  0  0  0  0  0  0  0  0  0  0
   -3.5731   21.2420  -31.5602 H   0  0  0  0  0  0  0  0  0  0  0  0
   -3.4760   24.9260  -31.3140 H   0  0  0  0  0  0  0  0  0  0  0  0
   -6.9569   25.3144  -30.5500 H   0  0  0  0  0  0  0  0  0  0  0  0
   -8.7679   23.6943  -31.0208 H   0  0  0  0  0  0  0  0  0  0  0  0
   -9.4522   21.5889  -31.7329 H   0  0  0  0  0  0  0  0  0  0  0  0
   -8.9500   19.2795  -32.6020 H   0  0  0  0  0  0  0  0  0  0  0  0
   -6.5781   18.6426  -32.9708 H   0  0  0  0  0  0  0  0  0  0  0  0
   -4.7496   20.2507  -32.4974 H   0  0  0  0  0  0  0  0  0  0  0  0
  1  2  1  0
  2  3  1  0
  3  4  1  0
  4  5  1  0
  3  6  1  0
  6  7  1  0
  7  8  1  0
  8  9  1  0
  9 10  1  0
 10 11  2  0
 11 12  1  0
 11 13  1  0
 13 14  2  0
 14 15  1  0
 15 16  2  0
 16 17  1  0
 17 18  2  0
 18 19  1  0
 19 20  2  0
 20 10  1  0
 20 15  1  0
  1 21  1  0
  1 22  1  0
  1 23  1  0
  2 24  1  0
  2 25  1  0
  4 26  1  0
  4 27  1  0
  5 28  1  0
  5 29  1  0
  5 30  1  0
  6 31  1  0
  6 32  1  0
  7 33  1  0
  7 34  1  0
  8 35  1  0
  9 36  1  0
  9 37  1  0
 12 38  1  0
 13 39  1  0
 14 40  1  0
 16 41  1  0
 17 42  1  0
 18 43  1  0
 19 44  1  0
M  END
>  <smiles>  (5) 
CCN(CC)CCNCc1c(O)ccc2ccccc12

>  <score_type>  (5) 
oracle

>  <origin>  (5) 
adg

>  <m_score__min__energy>  (5) 
-7.0999999999999996

>  <m_primary>  (5) 
energy

$$$$
5:0
     RDKit          3D

 45 47  0  0  0  0  0  0  0  0999 V2000
   -6.0560   24.6340  -29.7320 C   0  0  0  0  0  0  0  0  0  0  0  0
   -5.2630   25.6660  -30.4710 C   0  0  0  0  0  0  0  0  0  0  0  0
   -3.8720   25.2480  -30.5040 N   0  0  0  0  0  0  0  0  0  0  0  0
   -3.7720   23.8410  -30.1220 C   0  0  0  0  0  0  0  0  0  0  0  0
   -3.2640   23.0040  -31.2810 C   0  0  0  0  0  0  0  0  0  0  0  0
   -4.2150   22.0240  -31.7080 N   0  0  0  0  0  0  0  0  0  0  0  0
   -5.5220   22.1550  -31.6270 N   0  0  0  0  0  0  0  0  0  0  0  0
   -6.1280   21.0440  -32.1190 C   0  0  0  0  0  0  0  0  0  0  0  0
   -7.5510   20.8090  -32.2020 C   0  0  0  0  0  0  0  0  0  0  0  0
   -8.0780   19.5920  -32.5900 C   0  0  0  0  0  0  0  0  0  0  0  0
   -9.4250   19.3510  -32.6730 C   0  0  0  0  0  0  0  0  0  0  0  0
  -10.2470   20.3790  -32.3510 N   0  0  0  0  0  0  0  0  0  0  0  0
   -9.7600   21.5730  -31.9700 C   0  0  0  0  0  0  0  0  0  0  0  0
   -8.4170   21.8560  -31.8740 C   0  0  0  0  0  0  0  0  0  0  0  0
   -5.0960   20.2170  -32.5100 C   0  0  0  0  0  0  0  0  0  0  0  0
   -5.2560   18.9060  -33.1000 C   0  0  0  0  0  0  0  0  0  0  0  0
   -5.3310   17.8210  -32.2380 C   0  0  0  0  0  0  0  0  0  0  0  0
   -5.4830   16.5240  -32.6840 C   0  0  0  0  0  0  0  0  0  0  0  0
   -5.5620   16.3140  -34.0460 C   0  0  0  0  0  0  0  0  0  0  0  0
   -5.7120   15.0630  -34.5490 F   0  0  0  0  0  0  0  0  0  0  0  0
   -5.4900   17.3880  -34.9390 C   0  0  0  0  0  0  0  0  0  0  0  0
   -5.3370   18.6740  -34.4580 C   0  0  0  0  0  0  0  0  0  0  0  0
   -3.8880   20.8320  -32.2530 C   0  0  0  0  0  0  0  0  0  0  0  0
   -2.5570   20.2530  -32.5350 C   0  0  0  0  0  0  0  0  0  0  0  0
   -5.9383   24.7872  -28.6491 H   0  0  0  0  0  0  0  0  0  0  0  0
   -7.1185   24.7254  -30.0019 H   0  0  0  0  0  0  0  0  0  0  0  0
   -5.6941   23.6309  -30.0019 H   0  0  0  0  0  0  0  0  0  0  0  0
   -5.6454   25.7615  -31.4980 H   0  0  0  0  0  0  0  0  0  0  0  0
   -5.3504   26.6391  -29.9655 H   0  0  0  0  0  0  0  0  0  0  0  0
   -3.4400   25.3940  -31.4250 H   0  0  0  0  0  0  0  0  0  0  0  0
   -3.0760   23.7455  -29.2756 H   0  0  0  0  0  0  0  0  0  0  0  0
   -4.7716   23.4805  -29.8376 H   0  0  0  0  0  0  0  0  0  0  0  0
   -3.0411   23.6711  -32.1267 H   0  0  0  0  0  0  0  0  0  0  0  0
   -2.3651   22.4702  -30.9388 H   0  0  0  0  0  0  0  0  0  0  0  0
   -7.3836   18.7777  -32.8444 H   0  0  0  0  0  0  0  0  0  0  0  0
   -9.8187   18.3725  -32.9852 H   0  0  0  0  0  0  0  0  0  0  0  0
  -10.4766   22.3694  -31.7207 H   0  0  0  0  0  0  0  0  0  0  0  0
   -8.0482   22.8434  -31.5592 H   0  0  0  0  0  0  0  0  0  0  0  0
   -5.2667   18.0023  -31.1549 H   0  0  0  0  0  0  0  0  0  0  0  0
   -5.5394   15.6838  -31.9763 H   0  0  0  0  0  0  0  0  0  0  0  0
   -5.5551   17.2091  -36.0224 H   0  0  0  0  0  0  0  0  0  0  0  0
   -5.2794   19.5178  -35.1614 H   0  0  0  0  0  0  0  0  0  0  0  0
   -2.0456   20.0305  -31.5869 H   0  0  0  0  0  0  0  0  0  0  0  0
   -2.6759   19.3253  -33.1140 H   0  0  0  0  0  0  0  0  0  0  0  0
   -1.9594   20.9725  -33.1140 H   0  0  0  0  0  0  0  0  0  0  0  0
  1  2  1  0
  2  3  1  0
  3  4  1  0
  4  5  1  0
  5  6  1  0
  6  7  1  0
  7  8  2  0
  8  9  1  0
  9 10  2  0
 10 11  1  0
 11 12  2  0
 12 13  1  0
 13 14  2  0
  8 15  1  0
 15 16  1  0
 16 17  2  0
 17 18  1  0
 18 19  2  0
 19 20  1  0
 19 21  1  0
 21 22  2  0
 15 23  2  0
 23 24  1  0
 23  6  1  0
 14  9  1  0
 22 16  1  0
  1 25  1  0
  1 26  1  0
  1 27  1  0
  2 28  1  0
  2 29  1  0
  3 30  1  0
  4 31  1  0
  4 32  1  0
  5 33  1  0
  5 34  1  0
 10 35  1  0
 11 36  1  0
 13 37  1  0
 14 38  1  0
 17 39  1  0
 18 40  1  0
 21 41  1  0
 22 42  1  0
 24 43  1  0
 24 44  1  0
 24 45  1  0
M  END
>  <smiles>  (6) 
CCNCCn1nc(-c2ccncc2)c(-c2ccc(F)cc2)c1C

>  <score_type>  (6) 
oracle

>  <origin>  (6) 
adg

>  <m_score__min__energy>  (6) 
-8.7599999999999998

>  <m_primary>  (6) 
energy

$$$$
6:0
     RDKit          3D

 54 55  0  0  0  0  0  0  0  0999 V2000
   -5.9630   18.1660  -34.5310 C   0  0  0  0  0  0  0  0  0  0  0  0
   -6.8420   17.3500  -33.6110 C   0  0  0  0  0  0  0  0  0  0  0  0
   -6.9940   18.0810  -32.3520 N   0  0  0  0  0  0  0  0  0  0  0  0
   -6.1430   17.5310  -31.3300 C   0  0  0  0  0  0  0  0  0  0  0  0
   -5.3590   16.3370  -31.8810 C   0  0  0  0  0  0  0  0  0  0  0  0
   -8.3590   18.0930  -31.9460 C   0  0  0  0  0  0  0  0  0  0  0  0
   -9.0630   19.3650  -32.3340 C   0  0  0  0  0  0  0  0  0  0  0  0
   -8.1630   20.2490  -33.0640 N   0  0  0  0  0  0  0  0  0  0  0  0
   -7.5350   21.3650  -32.4690 C   0  0  0  0  0  0  0  0  0  0  0  0
   -8.4330   22.3810  -31.9380 N   0  0  0  0  0  0  0  0  0  0  0  0
   -7.3710   23.6260  -31.2700 S   0  0  0  0  0  0  0  0  0  0  0  0
   -5.8390   22.7590  -31.7160 C   0  0  0  0  0  0  0  0  0  0  0  0
   -4.5130   23.1390  -31.5040 C   0  0  0  0  0  0  0  0  0  0  0  0
   -4.2740   24.3500  -30.8600 O   0  0  0  0  0  0  0  0  0  0  0  0
   -4.7780   24.5290  -29.5600 C   0  0  0  0  0  0  0  0  0  0  0  0
   -4.0900   23.6840  -28.5170 C   0  0  0  0  0  0  0  0  0  0  0  0
   -3.0660   24.5140  -27.8180 C   0  0  0  0  0  0  0  0  0  0  0  0
   -1.9720   24.9050  -28.6870 N   0  0  0  0  0  0  0  0  0  0  0  0
   -1.2900   23.8060  -29.2920 C   0  0  0  0  0  0  0  0  0  0  0  0
   -1.0230   25.7420  -27.9690 C   0  0  0  0  0  0  0  0  0  0  0  0
   -3.5020   22.3030  -31.9370 C   0  0  0  0  0  0  0  0  0  0  0  0
   -3.8780   21.1480  -32.5510 C   0  0  0  0  0  0  0  0  0  0  0  0
   -5.1770   20.7780  -32.7580 C   0  0  0  0  0  0  0  0  0  0  0  0
   -6.2530   21.6100  -32.3280 C   0  0  0  0  0  0  0  0  0  0  0  0
   -5.2872   18.7934  -33.9313 H   0  0  0  0  0  0  0  0  0  0  0  0
   -5.3700   17.4910  -35.1656 H   0  0  0  0  0  0  0  0  0  0  0  0
   -6.5921   18.8075  -35.1656 H   0  0  0  0  0  0  0  0  0  0  0  0
   -7.8279   17.1998  -34.0752 H   0  0  0  0  0  0  0  0  0  0  0  0
   -6.3859   16.3664  -33.4252 H   0  0  0  0  0  0  0  0  0  0  0  0
   -5.4374   18.3034  -30.9902 H   0  0  0  0  0  0  0  0  0  0  0  0
   -6.7652   17.1941  -30.4878 H   0  0  0  0  0  0  0  0  0  0  0  0
   -4.9664   15.7390  -31.0454 H   0  0  0  0  0  0  0  0  0  0  0  0
   -6.0244   15.7141  -32.4968 H   0  0  0  0  0  0  0  0  0  0  0  0
   -4.5229   16.7000  -32.4968 H   0  0  0  0  0  0  0  0  0  0  0  0
   -8.8756   17.2451  -32.4194 H   0  0  0  0  0  0  0  0  0  0  0  0
   -8.3826   18.0185  -30.8488 H   0  0  0  0  0  0  0  0  0  0  0  0
   -9.9252   19.1206  -32.9718 H   0  0  0  0  0  0  0  0  0  0  0  0
   -9.3979   19.8772  -31.4199 H   0  0  0  0  0  0  0  0  0  0  0  0
   -7.9840   20.0370  -34.0680 H   0  0  0  0  0  0  0  0  0  0  0  0
   -4.6568   25.5869  -29.2840 H   0  0  0  0  0  0  0  0  0  0  0  0
   -5.8325   24.2164  -29.5801 H   0  0  0  0  0  0  0  0  0  0  0  0
   -4.8305   23.3214  -27.7889 H   0  0  0  0  0  0  0  0  0  0  0  0
   -3.6047   22.8219  -28.9979 H   0  0  0  0  0  0  0  0  0  0  0  0
   -3.5524   25.4229  -27.4342 H   0  0  0  0  0  0  0  0  0  0  0  0
   -2.6429   23.9043  -27.0060 H   0  0  0  0  0  0  0  0  0  0  0  0
   -0.8832   23.1504  -28.5079 H   0  0  0  0  0  0  0  0  0  0  0  0
   -1.9939   23.2369  -29.9171 H   0  0  0  0  0  0  0  0  0  0  0  0
   -0.4676   24.1841  -29.9171 H   0  0  0  0  0  0  0  0  0  0  0  0
   -1.1677   25.6144  -26.8860 H   0  0  0  0  0  0  0  0  0  0  0  0
    0.0022   25.4486  -28.2390 H   0  0  0  0  0  0  0  0  0  0  0  0
   -1.1860   26.7958  -28.2390 H   0  0  0  0  0  0  0  0  0  0  0  0
   -2.4420   22.5590  -31.7922 H   0  0  0  0  0  0  0  0  0  0  0  0
   -3.0865   20.4698  -32.9027 H   0  0  0  0  0  0  0  0  0  0  0  0
   -5.3960   19.8257  -33.2631 H   0  0  0  0  0  0  0  0  0  0  0  0
  1  2  1  0
  2  3  1  0
  3  4  1  0
  4  5  1  0
  3  6  1  0
  6  7  1  0
  7  8  1  0
  8  9  1  0
  9 10  2  0
 10 11  1  0
 11 12  1  0
 12 13  2  0
 13 14  1  0
 14 15  1  0
 15 16  1  0
 16 17  1  0
 17 18  1  0
 18 19  1  0
 18 20  1  0
 13 21  1  0
 21 22  2  0
 22 23  1  0
 23 24  2  0
 24  9  1  0
 24 12  1  0
  1 25  1  0
  1 26  1  0
  1 27  1  0
  2 28  1  0
  2 29  1  0
  4 30  1  0
  4 31  1  0
  5 32  1  0
  5 33  1  0
  5 34  1  0
  6 35  1  0
  6 36  1  0
  7 37  1  0
  7 38  1  0
  8 39  1  0
 15 40  1  0
 15 41  1  0
 16 42  1  0
 16 43  1  0
 17 44  1  0
 17 45  1  0
 19 46  1  0
 19 47  1  0
 19 48  1  0
 20 49  1  0
 20 50  1  0
 20 51  1  0
 21 52  1  0
 22 53  1  0
 23 54  1  0
M  END
>  <smiles>  (7) 
CCN(CC)CCNc1nsc2c(OCCCN(C)C)cccc12

>  <score_type>  (7) 
oracle

>  <origin>  (7) 
adg

>  <m_score__min__energy>  (7) 
-7.8300000000000001

>  <m_primary>  (7) 
energy

$$$$
7:0
     RDKit          3D

 70 73  0  0  1  0  0  0  0  0999 V2000
   -0.1810   17.3990  -31.6880 C   0  0  0  0  0  0  0  0  0  0  0  0
    0.6140   18.6850  -31.5840 C   0  0  0  0  0  0  0  0  0  0  0  0
   -0.2260   19.7970  -31.4810 O   0  0  0  0  0  0  0  0  0  0  0  0
   -1.0600   20.0420  -30.4080 C   0  0  0  0  0  0  0  0  0  0  0  0
   -0.6100   19.8020  -29.1500 C   0  0  0  0  0  0  0  0  0  0  0  0
   -1.4190   20.0380  -28.0620 C   0  0  0  0  0  0  0  0  0  0  0  0
   -2.6870   20.5210  -28.2780 C   0  0  0  0  0  0  0  0  0  0  0  0
   -3.1280   20.7600  -29.5730 C   0  0  0  0  0  0  0  0  0  0  0  0
   -2.3500   20.5360  -30.6870 C   0  0  0  0  0  0  0  0  0  0  0  0
   -2.6690   20.7270  -31.9750 O   0  0  0  0  0  0  0  0  0  0  0  0
   -2.1390   21.4930  -32.9620 C   0  0  0  0  0  0  0  0  0  0  0  0
   -1.6140   20.6870  -34.1250 C   0  0  0  0  0  0  0  0  0  0  0  0
   -1.9250   19.2990  -33.8430 N   0  0  0  0  0  0  0  0  0  0  0  0
   -3.2700   18.9130  -34.0990 C   0  0  0  0  0  0  0  0  0  0  0  0
   -3.4880   17.4200  -34.2310 C   0  0  0  0  0  0  0  0  0  0  0  0
   -4.7980   17.0440  -34.5300 N   0  0  0  0  0  0  0  0  0  0  0  0
   -5.5300   16.1050  -33.8110 C   0  0  0  0  0  0  0  0  0  0  0  0
   -5.0750   15.6550  -32.4670 C   0  0  0  0  0  0  0  0  0  0  0  0
   -5.7360   16.3420  -31.4250 N   0  0  0  0  0  0  0  0  0  0  0  0
   -6.1700   17.6850  -31.6630 C   0  0  0  0  0  0  0  0  0  0  0  0
   -5.3130   18.7310  -31.8700 C   0  0  0  0  0  0  0  0  0  0  0  0
   -5.7110   20.0330  -32.0920 C   0  0  0  0  0  0  0  0  0  0  0  0
   -7.0800   20.3130  -32.1060 C   0  0  0  0  0  0  0  0  0  0  0  0
   -7.5380   21.6010  -32.3200 C   0  0  0  0  0  0  0  0  0  0  0  0
   -6.7150   22.5940  -32.5160 N   0  0  0  0  0  0  0  0  0  0  0  0
   -6.2100   23.3690  -31.4350 C   0  0  0  0  0  0  0  0  0  0  0  0
   -7.1350   24.1840  -30.7840 C   0  0  0  0  0  0  0  0  0  0  0  0
   -6.7650   24.9720  -29.7320 C   0  0  0  0  0  0  0  0  0  0  0  0
   -5.4450   24.9430  -29.3260 C   0  0  0  0  0  0  0  0  0  0  0  0
   -4.5300   24.1350  -29.9720 C   0  0  0  0  0  0  0  0  0  0  0  0
   -2.7160   24.1360  -29.3640 Br  0  0  0  0  0  0  0  0  0  0  0  0
   -4.8910   23.3390  -31.0310 C   0  0  0  0  0  0  0  0  0  0  0  0
   -8.8650   21.8390  -32.3240 N   0  0  0  0  0  0  0  0  0  0  0  0
   -9.7440   20.8360  -32.1240 C   0  0  0  0  0  0  0  0  0  0  0  0
   -9.3090   19.5800  -31.9160 N   0  0  0  0  0  0  0  0  0  0  0  0
   -7.9800   19.2880  -31.9010 C   0  0  0  0  0  0  0  0  0  0  0  0
   -7.5360   18.0000  -31.6840 C   0  0  0  0  0  0  0  0  0  0  0  0
   -0.4108   17.0273  -30.6785 H   0  0  0  0  0  0  0  0  0  0  0  0
   -1.1186   17.5904  -32.2305 H   0  0  0  0  0  0  0  0  0  0  0  0
    0.4093   16.6458  -32.2305 H   0  0  0  0  0  0  0  0  0  0  0  0
    1.2560   18.6377  -30.6921 H   0  0  0  0  0  0  0  0  0  0  0  0
    1.2198   18.7921  -32.4959 H   0  0  0  0  0  0  0  0  0  0  0  0
    0.4089   19.4160  -28.9991 H   0  0  0  0  0  0  0  0  0  0  0  0
   -1.0581   19.8441  -27.0411 H   0  0  0  0  0  0  0  0  0  0  0  0
   -3.3530   20.7184  -27.4251 H   0  0  0  0  0  0  0  0  0  0  0  0
   -4.1478   21.1468  -29.7158 H   0  0  0  0  0  0  0  0  0  0  0  0
   -2.9192   22.1740  -33.3328 H   0  0  0  0  0  0  0  0  0  0  0  0
   -1.2858   22.0369  -32.5304 H   0  0  0  0  0  0  0  0  0  0  0  0
   -2.1039   21.0035  -35.0577 H   0  0  0  0  0  0  0  0  0  0  0  0
   -0.5310   20.8325  -34.2509 H   0  0  0  0  0  0  0  0  0  0  0  0
   -1.6740   19.0160  -32.8780 H   0  0  0  0  0  0  0  0  0  0  0  0
   -3.8945   19.2781  -33.2703 H   0  0  0  0  0  0  0  0  0  0  0  0
   -3.5387   19.3524  -35.0710 H   0  0  0  0  0  0  0  0  0  0  0  0
   -2.8337   17.0483  -35.0333 H   0  0  0  0  0  0  0  0  0  0  0  0
   -3.2581   16.9854  -33.2470 H   0  0  0  0  0  0  0  0  0  0  0  0
   -5.3770   17.8780  -34.7590 H   0  0  0  0  0  0  0  0  0  0  0  0
   -6.5370   16.5270  -33.6770 H   0  0  0  0  0  0  0  0  0  0  0  0
   -5.4296   15.1955  -34.4215 H   0  0  0  0  0  0  0  0  0  0  0  0
   -5.2770   14.5784  -32.3662 H   0  0  0  0  0  0  0  0  0  0  0  0
   -3.9991   15.8685  -32.3845 H   0  0  0  0  0  0  0  0  0  0  0  0
   -5.9730   15.9690  -30.4730 H   0  0  0  0  0  0  0  0  0  0  0  0
   -4.2336   18.5196  -31.8587 H   0  0  0  0  0  0  0  0  0  0  0  0
   -4.9702   20.8299  -32.2538 H   0  0  0  0  0  0  0  0  0  0  0  0
   -8.1812   24.1924  -31.1238 H   0  0  0  0  0  0  0  0  0  0  0  0
   -7.4987   25.6130  -29.2213 H   0  0  0  0  0  0  0  0  0  0  0  0
   -5.1200   25.5684  -28.4815 H   0  0  0  0  0  0  0  0  0  0  0  0
   -4.1544   22.6997  -31.5396 H   0  0  0  0  0  0  0  0  0  0  0  0
   -9.2440   22.8100  -32.4840 H   0  0  0  0  0  0  0  0  0  0  0  0
  -10.8237   21.0462  -32.1310 H   0  0  0  0  0  0  0  0  0  0  0  0
   -8.2729   17.1993  -31.5233 H   0  0  0  0  0  0  0  0  0  0  0  0
  1  2  1  0
  2  3  1  0
  3  4  1  0
  4  5  2  0
  5  6  1  0
  6  7  2  0
  7  8  1  0
  8  9  2  0
  9 10  1  0
 10 11  1  0
 11 12  1  0
 12 13  1  0
 13 14  1  0
 14 15  1  0
 15 16  1  0
 16 17  1  0
 17 18  1  0
 18 19  1  0
 19 20  1  0
 20 21  2  0
 21 22  1  0
 22 23  2  0
 23 24  1  0
 24 25  2  0
 25 26  1  0
 26 27  2  0
 27 28  1  0
 28 29  2  0
 29 30  1  0
 30 31  1  0
 30 32  2  0
 24 33  1  0
 33 34  1  0
 34 35  2  0
 35 36  1  0
 36 37  2  0
  9  4  1  0
 37 20  1  0
 36 23  1  0
 32 26  1  0
  1 38  1  0
  1 39  1  0
  1 40  1  0
  2 41  1  0
  2 42  1  0
  5 43  1  0
  6 44  1  0
  7 45  1  0
  8 46  1  0
 11 47  1  0
 11 48  1  0
 12 49  1  0
 12 50  1  0
 13 51  1  0
 14 52  1  0
 14 53  1  0
 15 54  1  0
 15 55  1  0
 16 56  1  0
 17 57  1  0
 17 58  1  0
 18 59  1  0
 18 60  1  0
 19 61  1  0
 21 62  1  0
 22 63  1  0
 27 64  1  0
 28 65  1  0
 29 66  1  0
 32 67  1  0
 33 68  1  0
 34 69  1  0
 37 70  1  0
M  END
>  <smiles>  (8) 
CCOc1ccccc1OCCNCCNCCNc1ccc2c(=Nc3cccc(Br)c3)[nH]cnc2c1

>  <score_type>  (8) 
oracle

>  <origin>  (8) 
adg

>  <m_score__min__energy>  (8) 
-10.039999999999999

>  <m_primary>  (8) 
energy

$$$$
8:0
     RDKit          3D

 61 64  0  0  0  0  0  0  0  0999 V2000
   -6.2110   25.2510  -29.7340 C   0  0  0  0  0  0  0  0  0  0  0  0
   -4.9640   25.5530  -30.5130 C   0  0  0  0  0  0  0  0  0  0  0  0
   -3.9400   24.5670  -30.4230 N   0  0  0  0  0  0  0  0  0  0  0  0
   -3.4320   24.5160  -29.0710 C   0  0  0  0  0  0  0  0  0  0  0  0
   -3.8210   23.2040  -28.4180 C   0  0  0  0  0  0  0  0  0  0  0  0
   -4.4360   23.2610  -30.8090 C   0  0  0  0  0  0  0  0  0  0  0  0
   -3.6570   22.6820  -31.9790 C   0  0  0  0  0  0  0  0  0  0  0  0
   -4.5080   22.2160  -33.0490 N   0  0  0  0  0  0  0  0  0  0  0  0
   -5.3980   21.1510  -32.8890 C   0  0  0  0  0  0  0  0  0  0  0  0
   -6.6990   21.4980  -32.4800 C   0  0  0  0  0  0  0  0  0  0  0  0
   -6.9980   22.8440  -32.2380 C   0  0  0  0  0  0  0  0  0  0  0  0
   -8.2550   23.2460  -31.8520 C   0  0  0  0  0  0  0  0  0  0  0  0
   -9.2170   22.2890  -31.7080 C   0  0  0  0  0  0  0  0  0  0  0  0
   -8.9190   20.9400  -31.9480 C   0  0  0  0  0  0  0  0  0  0  0  0
   -7.6540   20.5290  -32.3340 C   0  0  0  0  0  0  0  0  0  0  0  0
   -7.4010   19.2030  -32.5690 N   0  0  0  0  0  0  0  0  0  0  0  0
   -8.4370   18.2630  -32.2660 C   0  0  0  0  0  0  0  0  0  0  0  0
   -6.1450   18.8400  -32.9730 C   0  0  0  0  0  0  0  0  0  0  0  0
   -5.8540   17.4840  -33.2390 C   0  0  0  0  0  0  0  0  0  0  0  0
   -4.5670   17.1870  -33.6330 C   0  0  0  0  0  0  0  0  0  0  0  0
   -3.6580   18.1700  -33.7540 N   0  0  0  0  0  0  0  0  0  0  0  0
   -3.8610   19.4590  -33.5290 C   0  0  0  0  0  0  0  0  0  0  0  0
   -2.7380   20.3910  -33.6870 C   0  0  0  0  0  0  0  0  0  0  0  0
   -5.1460   19.8180  -33.1270 C   0  0  0  0  0  0  0  0  0  0  0  0
   -4.0520   15.8220  -33.9260 C   0  0  0  0  0  0  0  0  0  0  0  0
   -5.1120   14.8200  -33.6110 C   0  0  0  0  0  0  0  0  0  0  0  0
   -6.3700   15.4150  -34.2520 C   0  0  0  0  0  0  0  0  0  0  0  0
   -6.8930   16.4480  -33.1890 C   0  0  0  0  0  0  0  0  0  0  0  0
   -5.9925   25.3039  -28.6572 H   0  0  0  0  0  0  0  0  0  0  0  0
   -6.9886   25.9868  -29.9870 H   0  0  0  0  0  0  0  0  0  0  0  0
   -6.5658   24.2410  -29.9870 H   0  0  0  0  0  0  0  0  0  0  0  0
   -5.2416   25.6599  -31.5720 H   0  0  0  0  0  0  0  0  0  0  0  0
   -4.5443   26.4704  -30.0745 H   0  0  0  0  0  0  0  0  0  0  0  0
   -2.3355   24.6017  -29.0907 H   0  0  0  0  0  0  0  0  0  0  0  0
   -3.8617   25.3474  -28.4931 H   0  0  0  0  0  0  0  0  0  0  0  0
   -3.7881   23.3149  -27.3241 H   0  0  0  0  0  0  0  0  0  0  0  0
   -4.8396   22.9279  -28.7281 H   0  0  0  0  0  0  0  0  0  0  0  0
   -3.1175   22.4173  -28.7281 H   0  0  0  0  0  0  0  0  0  0  0  0
   -4.3475   22.5790  -29.9505 H   0  0  0  0  0  0  0  0  0  0  0  0
   -5.4852   23.3730  -31.1200 H   0  0  0  0  0  0  0  0  0  0  0  0
   -2.9900   23.4615  -32.3759 H   0  0  0  0  0  0  0  0  0  0  0  0
   -3.0962   21.8136  -31.6030 H   0  0  0  0  0  0  0  0  0  0  0  0
   -4.3630   22.7280  -33.9830 H   0  0  0  0  0  0  0  0  0  0  0  0
   -6.2074   23.5991  -32.3597 H   0  0  0  0  0  0  0  0  0  0  0  0
   -8.4783   24.3067  -31.6650 H   0  0  0  0  0  0  0  0  0  0  0  0
  -10.2332   22.5778  -31.4015 H   0  0  0  0  0  0  0  0  0  0  0  0
   -9.7119   20.1873  -31.8263 H   0  0  0  0  0  0  0  0  0  0  0  0
   -8.5398   18.1697  -31.1748 H   0  0  0  0  0  0  0  0  0  0  0  0
   -9.3872   18.6136  -32.6952 H   0  0  0  0  0  0  0  0  0  0  0  0
   -8.1802   17.2833  -32.6952 H   0  0  0  0  0  0  0  0  0  0  0  0
   -2.3716   20.6951  -32.6954 H   0  0  0  0  0  0  0  0  0  0  0  0
   -1.9268   19.8970  -34.2420 H   0  0  0  0  0  0  0  0  0  0  0  0
   -3.0740   21.2793  -34.2420 H   0  0  0  0  0  0  0  0  0  0  0  0
   -3.7829   15.7508  -34.9902 H   0  0  0  0  0  0  0  0  0  0  0  0
   -3.1612   15.6232  -33.3121 H   0  0  0  0  0  0  0  0  0  0  0  0
   -4.8714   13.8415  -34.0522 H   0  0  0  0  0  0  0  0  0  0  0  0
   -5.2251   14.6416  -32.5315 H   0  0  0  0  0  0  0  0  0  0  0  0
   -6.1244   15.9194  -35.1982 H   0  0  0  0  0  0  0  0  0  0  0  0
   -7.1196   14.6488  -34.4990 H   0  0  0  0  0  0  0  0  0  0  0  0
   -7.8756   16.8524  -33.4735 H   0  0  0  0  0  0  0  0  0  0  0  0
   -7.0450   16.0181  -32.1880 H   0  0  0  0  0  0  0  0  0  0  0  0
  1  2  1  0
  2  3  1  0
  3  4  1  0
  4  5  1  0
  3  6  1  0
  6  7  1  0
  7  8  1  0
  8  9  1  0
  9 10  2  0
 10 11  1  0
 11 12  2  0
 12 13  1  0
 13 14  2  0
 14 15  1  0
 15 16  2  0
 16 17  1  0
 16 18  1  0
 18 19  2  0
 19 20  1  0
 20 21  2  0
 21 22  1  0
 22 23  1  0
 22 24  2  0
 20 25  1  0
 25 26  1  0
 26 27  1  0
 27 28  1  0
 24  9  1  0
 15 10  1  0
 24 18  1  0
 28 19  1  0
  1 29  1  0
  1 30  1  0
  1 31  1  0
  2 32  1  0
  2 33  1  0
  4 34  1  0
  4 35  1  0
  5 36  1  0
  5 37  1  0
  5 38  1  0
  6 39  1  0
  6 40  1  0
  7 41  1  0
  7 42  1  0
  8 43  1  0
 11 44  1  0
 12 45  1  0
 13 46  1  0
 14 47  1  0
 17 48  1  0
 17 49  1  0
 17 50  1  0
 23 51  1  0
 23 52  1  0
 23 53  1  0
 25 54  1  0
 25 55  1  0
 26 56  1  0
 26 57  1  0
 27 58  1  0
 27 59  1  0
 28 60  1  0
 28 61  1  0
M  CHG  1  16   1
M  END
>  <smiles>  (9) 
CCN(CC)CCNc1c2ccccc2[n+](C)c2c3c(nc(C)c12)CCCC3

>  <score_type>  (9) 
oracle

>  <origin>  (9) 
adg

>  <m_score__min__energy>  (9) 
-9.9199999999999999

>  <m_primary>  (9) 
energy

$$$$
9:0
     RDKit          3D

 48 50  0  0  0  0  0  0  0  0999 V2000
   -6.7380   17.7710  -31.6320 C   0  0  0  0  0  0  0  0  0  0  0  0
   -7.4650   18.3420  -32.8420 C   0  0  0  0  0  0  0  0  0  0  0  0
   -8.0610   19.6160  -32.5870 N   0  0  0  0  0  0  0  0  0  0  0  0
   -9.5020   19.7360  -32.7110 C   0  0  0  0  0  0  0  0  0  0  0  0
   -7.3330   20.7890  -32.2150 C   0  0  0  0  0  0  0  0  0  0  0  0
   -7.8740   21.7230  -31.3340 C   0  0  0  0  0  0  0  0  0  0  0  0
   -7.1980   22.8630  -30.9560 C   0  0  0  0  0  0  0  0  0  0  0  0
   -5.9330   23.1030  -31.4640 C   0  0  0  0  0  0  0  0  0  0  0  0
   -5.2650   24.3540  -31.0180 C   0  0  0  0  0  0  0  0  0  0  0  0
   -4.3610   24.0570  -29.9790 N   0  0  0  0  0  0  0  0  0  0  0  0
   -3.1420   23.4390  -30.2620 C   0  0  0  0  0  0  0  0  0  0  0  0
   -2.0000   23.8030  -29.3440 C   0  0  0  0  0  0  0  0  0  0  0  0
   -2.5200   24.3550  -28.0860 N   0  0  0  0  0  0  0  0  0  0  0  0
   -1.8790   25.3690  -27.3650 C   0  0  0  0  0  0  0  0  0  0  0  0
   -2.1430   25.4770  -26.0490 N   0  0  0  0  0  0  0  0  0  0  0  0
   -1.5610   26.4260  -25.3060 C   0  0  0  0  0  0  0  0  0  0  0  0
   -0.6780   27.3060  -25.8990 C   0  0  0  0  0  0  0  0  0  0  0  0
   -0.4440   27.1510  -27.2430 C   0  0  0  0  0  0  0  0  0  0  0  0
   -1.0400   26.1860  -27.9840 N   0  0  0  0  0  0  0  0  0  0  0  0
   -3.7850   23.7520  -27.6360 C   0  0  0  0  0  0  0  0  0  0  0  0
   -4.8110   24.1790  -28.6520 C   0  0  0  0  0  0  0  0  0  0  0  0
   -5.3630   22.2050  -32.3380 C   0  0  0  0  0  0  0  0  0  0  0  0
   -6.0730   21.0730  -32.6930 C   0  0  0  0  0  0  0  0  0  0  0  0
   -7.2110   18.1425  -30.7110 H   0  0  0  0  0  0  0  0  0  0  0  0
   -6.7937   16.6727  -31.6554 H   0  0  0  0  0  0  0  0  0  0  0  0
   -5.6841   18.0853  -31.6554 H   0  0  0  0  0  0  0  0  0  0  0  0
   -6.7433   18.4513  -33.6649 H   0  0  0  0  0  0  0  0  0  0  0  0
   -8.2767   17.6447  -33.0968 H   0  0  0  0  0  0  0  0  0  0  0  0
   -9.9544   19.7737  -31.7090 H   0  0  0  0  0  0  0  0  0  0  0  0
   -9.7474   20.6577  -33.2590 H   0  0  0  0  0  0  0  0  0  0  0  0
   -9.8965   18.8676  -33.2590 H   0  0  0  0  0  0  0  0  0  0  0  0
   -8.8791   21.5437  -30.9245 H   0  0  0  0  0  0  0  0  0  0  0  0
   -7.6596   23.5758  -30.2568 H   0  0  0  0  0  0  0  0  0  0  0  0
   -4.7196   24.8000  -31.8627 H   0  0  0  0  0  0  0  0  0  0  0  0
   -6.0216   25.0651  -30.6547 H   0  0  0  0  0  0  0  0  0  0  0  0
   -3.2917   22.3509  -30.2017 H   0  0  0  0  0  0  0  0  0  0  0  0
   -2.8497   23.7917  -31.2621 H   0  0  0  0  0  0  0  0  0  0  0  0
   -1.4056   22.9029  -29.1282 H   0  0  0  0  0  0  0  0  0  0  0  0
   -1.3697   24.5588  -29.8355 H   0  0  0  0  0  0  0  0  0  0  0  0
   -1.7844   26.5041  -24.2318 H   0  0  0  0  0  0  0  0  0  0  0  0
   -0.1825   28.0984  -25.3189 H   0  0  0  0  0  0  0  0  0  0  0  0
    0.2566   27.8390  -27.7388 H   0  0  0  0  0  0  0  0  0  0  0  0
   -3.7015   22.6555  -27.6098 H   0  0  0  0  0  0  0  0  0  0  0  0
   -4.0548   24.0745  -26.6195 H   0  0  0  0  0  0  0  0  0  0  0  0
   -5.7073   23.5535  -28.5279 H   0  0  0  0  0  0  0  0  0  0  0  0
   -5.0225   25.2439  -28.4752 H   0  0  0  0  0  0  0  0  0  0  0  0
   -4.3582   22.3853  -32.7476 H   0  0  0  0  0  0  0  0  0  0  0  0
   -5.6079   20.3631  -33.3928 H   0  0  0  0  0  0  0  0  0  0  0  0
  1  2  1  0
  2  3  1  0
  3  4  1  0
  3  5  1  0
  5  6  2  0
  6  7  1  0
  7  8  2  0
  8  9  1  0
  9 10  1  0
 10 11  1  0
 11 12  1  0
 12 13  1  0
 13 14  1  0
 14 15  2  0
 15 16  1  0
 16 17  2  0
 17 18  1  0
 18 19  2  0
 13 20  1  0
 20 21  1  0
  8 22  1  0
 22 23  2  0
 23  5  1  0
 21 10  1  0
 19 14  1  0
  1 24  1  0
  1 25  1  0
  1 26  1  0
  2 27  1  0
  2 28  1  0
  4 29  1  0
  4 30  1  0
  4 31  1  0
  6 32  1  0
  7 33  1  0
  9 34  1  0
  9 35  1  0
 11 36  1  0
 11 37  1  0
 12 38  1  0
 12 39  1  0
 16 40  1  0
 17 41  1  0
 18 42  1  0
 20 43  1  0
 20 44  1  0
 21 45  1  0
 21 46  1  0
 22 47  1  0
 23 48  1  0
M  END
>  <smiles>  (10) 
CCN(C)c1ccc(CN2CCN(c3ncccn3)CC2)cc1

>  <score_type>  (10) 
oracle

>  <origin>  (10) 
adg

>  <m_score__min__energy>  (10) 
-7.46

>  <m_primary>  (10) 
energy

$$$$
10:0
     RDKit          3D

 46 48  0  0  1  0  0  0  0  0999 V2000
   -5.8080   25.6150  -30.1700 C   0  0  0  0  0  0  0  0  0  0  0  0
   -5.7700   24.2670  -29.6810 N   0  0  0  0  0  0  0  0  0  0  0  0
   -4.5230   23.9430  -29.0110 C   0  0  0  0  0  0  0  0  0  0  0  0
   -6.0800   23.2740  -30.6610 C   0  0  0  0  0  0  0  0  0  0  0  0
   -5.3120   23.4200  -31.9570 C   0  0  0  0  0  0  0  0  0  0  0  0
   -4.3210   22.2930  -32.1460 C   0  0  0  0  0  0  0  0  0  0  0  0
   -4.5360   21.5410  -33.3620 N   0  0  0  0  0  0  0  0  0  0  0  0
   -4.7040   20.2620  -33.3780 C   0  0  0  0  0  0  0  0  0  0  0  0
   -3.7410   19.4110  -33.7620 N   0  0  0  0  0  0  0  0  0  0  0  0
   -4.0010   18.1080  -33.7420 C   0  0  0  0  0  0  0  0  0  0  0  0
   -5.2130   17.5600  -33.3460 C   0  0  0  0  0  0  0  0  0  0  0  0
   -5.3920   16.1180  -33.3820 C   0  0  0  0  0  0  0  0  0  0  0  0
   -6.1880   15.3350  -34.1890 C   0  0  0  0  0  0  0  0  0  0  0  0
   -6.0190   14.0500  -33.8320 N   0  0  0  0  0  0  0  0  0  0  0  0
   -5.1560   13.9550  -32.8360 N   0  0  0  0  0  0  0  0  0  0  0  0
   -4.7590   12.7130  -32.2230 C   0  0  0  0  0  0  0  0  0  0  0  0
   -4.7500   15.2070  -32.5340 C   0  0  0  0  0  0  0  0  0  0  0  0
   -6.1880   18.4490  -32.9540 C   0  0  0  0  0  0  0  0  0  0  0  0
   -7.4150   17.9770  -32.5410 C   0  0  0  0  0  0  0  0  0  0  0  0
   -8.4110   18.8310  -32.1380 C   0  0  0  0  0  0  0  0  0  0  0  0
   -8.1540   20.1940  -32.1560 C   0  0  0  0  0  0  0  0  0  0  0  0
   -9.4800   21.4620  -31.6130 Br  0  0  0  0  0  0  0  0  0  0  0  0
   -6.9260   20.6770  -32.5670 C   0  0  0  0  0  0  0  0  0  0  0  0
   -5.9430   19.8010  -32.9660 C   0  0  0  0  0  0  0  0  0  0  0  0
   -5.8277   26.3130  -29.3200 H   0  0  0  0  0  0  0  0  0  0  0  0
   -4.9149   25.8082  -30.7825 H   0  0  0  0  0  0  0  0  0  0  0  0
   -6.7105   25.7576  -30.7825 H   0  0  0  0  0  0  0  0  0  0  0  0
   -4.6713   23.9815  -27.9217 H   0  0  0  0  0  0  0  0  0  0  0  0
   -4.2024   22.9317  -29.3019 H   0  0  0  0  0  0  0  0  0  0  0  0
   -3.7507   24.6703  -29.3019 H   0  0  0  0  0  0  0  0  0  0  0  0
   -5.8525   22.2858  -30.2347 H   0  0  0  0  0  0  0  0  0  0  0  0
   -7.1446   23.3964  -30.9091 H   0  0  0  0  0  0  0  0  0  0  0  0
   -6.0232   23.4147  -32.7961 H   0  0  0  0  0  0  0  0  0  0  0  0
   -4.7538   24.3672  -31.9217 H   0  0  0  0  0  0  0  0  0  0  0  0
   -3.3077   22.7200  -32.1740 H   0  0  0  0  0  0  0  0  0  0  0  0
   -4.4542   21.5972  -31.3045 H   0  0  0  0  0  0  0  0  0  0  0  0
   -2.8380   19.8310  -34.0590 H   0  0  0  0  0  0  0  0  0  0  0  0
   -3.2043   17.4194  -34.0598 H   0  0  0  0  0  0  0  0  0  0  0  0
   -6.8492   15.6992  -34.9891 H   0  0  0  0  0  0  0  0  0  0  0  0
   -4.7923   12.8172  -31.1285 H   0  0  0  0  0  0  0  0  0  0  0  0
   -5.4463   11.9133  -32.5363 H   0  0  0  0  0  0  0  0  0  0  0  0
   -3.7353   12.4602  -32.5363 H   0  0  0  0  0  0  0  0  0  0  0  0
   -4.0287   15.4698  -31.7462 H   0  0  0  0  0  0  0  0  0  0  0  0
   -7.6001   16.8927  -32.5342 H   0  0  0  0  0  0  0  0  0  0  0  0
   -9.3872   18.4448  -31.8094 H   0  0  0  0  0  0  0  0  0  0  0  0
   -6.7349   21.7602  -32.5751 H   0  0  0  0  0  0  0  0  0  0  0  0
  1  2  1  0
  2  3  1  0
  2  4  1  0
  4  5  1  0
  5  6  1  0
  6  7  1  0
  7  8  2  0
  8  9  1  0
  9 10  1  0
 10 11  2  0
 11 12  1  0
 12 13  1  0
 13 14  2  0
 14 15  1  0
 15 16  1  0
 15 17  1  0
 11 18  1  0
 18 19  2  0
 19 20  1  0
 20 21  2  0
 21 22  1  0
 21 23  1  0
 23 24  2  0
 24  8  1  0
 17 12  2  0
 24 18  1  0
  1 25  1  0
  1 26  1  0
  1 27  1  0
  3 28  1  0
  3 29  1  0
  3 30  1  0
  4 31  1  0
  4 32  1  0
  5 33  1  0
  5 34  1  0
  6 35  1  0
  6 36  1  0
  9 37  1  0
 10 38  1  0
 13 39  1  0
 16 40  1  0
 16 41  1  0
 16 42  1  0
 17 43  1  0
 19 44  1  0
 20 45  1  0
 23 46  1  0
M  END
>  <smiles>  (11) 
CN(C)CCCN=c1[nH]cc(-c2cnn(C)c2)c2ccc(Br)cc12

>  <score_type>  (11) 
oracle

>  <origin>  (11) 
adg

>  <m_score__min__energy>  (11) 
-8.3200000000000003

>  <m_primary>  (11) 
energy

$$$$
11:0
     RDKit          3D

 47 48  0  0  0  0  0  0  0  0999 V2000
   -6.1270   25.3140  -29.5230 C   0  0  0  0  0  0  0  0  0  0  0  0
   -5.2970   25.3530  -30.7880 C   0  0  0  0  0  0  0  0  0  0  0  0
   -3.9470   25.2750  -30.5380 O   0  0  0  0  0  0  0  0  0  0  0  0
   -3.5400   24.1070  -29.9030 C   0  0  0  0  0  0  0  0  0  0  0  0
   -4.1040   22.8530  -30.5260 C   0  0  0  0  0  0  0  0  0  0  0  0
   -3.4280   22.5800  -31.6800 O   0  0  0  0  0  0  0  0  0  0  0  0
   -2.2450   21.9370  -31.6250 C   0  0  0  0  0  0  0  0  0  0  0  0
   -2.4030   20.5190  -32.1660 C   0  0  0  0  0  0  0  0  0  0  0  0
   -3.7370   20.0920  -32.3610 N   0  0  0  0  0  0  0  0  0  0  0  0
   -4.1510   19.7060  -33.6530 C   0  0  0  0  0  0  0  0  0  0  0  0
   -5.3500   18.8210  -33.6050 C   0  0  0  0  0  0  0  0  0  0  0  0
   -5.2600   17.4980  -34.0670 C   0  0  0  0  0  0  0  0  0  0  0  0
   -6.4620   16.9460  -33.8870 N   0  0  0  0  0  0  0  0  0  0  0  0
   -6.8390   15.5670  -34.2250 C   0  0  0  0  0  0  0  0  0  0  0  0
   -7.2650   17.8360  -33.3530 N   0  0  0  0  0  0  0  0  0  0  0  0
   -6.6150   19.0300  -33.1560 C   0  0  0  0  0  0  0  0  0  0  0  0
   -7.3110   20.1740  -32.6290 C   0  0  0  0  0  0  0  0  0  0  0  0
   -6.8100   21.3970  -32.3170 C   0  0  0  0  0  0  0  0  0  0  0  0
   -7.6010   22.4400  -31.8150 C   0  0  0  0  0  0  0  0  0  0  0  0
   -8.9500   22.2450  -31.6160 C   0  0  0  0  0  0  0  0  0  0  0  0
   -9.4770   21.0200  -31.9240 C   0  0  0  0  0  0  0  0  0  0  0  0
   -8.6920   20.0020  -32.4180 C   0  0  0  0  0  0  0  0  0  0  0  0
   -5.4622   25.3452  -28.6472 H   0  0  0  0  0  0  0  0  0  0  0  0
   -6.8032   26.1814  -29.5012 H   0  0  0  0  0  0  0  0  0  0  0  0
   -6.7189   24.3871  -29.5012 H   0  0  0  0  0  0  0  0  0  0  0  0
   -5.5867   24.5047  -31.4256 H   0  0  0  0  0  0  0  0  0  0  0  0
   -5.4889   26.3167  -31.2825 H   0  0  0  0  0  0  0  0  0  0  0  0
   -2.4421   24.0527  -29.9448 H   0  0  0  0  0  0  0  0  0  0  0  0
   -3.9173   24.1525  -28.8707 H   0  0  0  0  0  0  0  0  0  0  0  0
   -3.9910   22.0120  -29.8261 H   0  0  0  0  0  0  0  0  0  0  0  0
   -5.1710   23.0000  -30.7496 H   0  0  0  0  0  0  0  0  0  0  0  0
   -1.5057   22.4796  -32.2325 H   0  0  0  0  0  0  0  0  0  0  0  0
   -1.9040   21.8917  -30.5802 H   0  0  0  0  0  0  0  0  0  0  0  0
   -1.8838   20.4648  -33.1342 H   0  0  0  0  0  0  0  0  0  0  0  0
   -1.9789   19.8523  -31.4007 H   0  0  0  0  0  0  0  0  0  0  0  0
   -4.4190   20.6740  -31.8840 H   0  0  0  0  0  0  0  0  0  0  0  0
   -4.3962   20.6077  -34.2333 H   0  0  0  0  0  0  0  0  0  0  0  0
   -3.3295   19.1462  -34.1240 H   0  0  0  0  0  0  0  0  0  0  0  0
   -4.3712   17.0109  -34.4944 H   0  0  0  0  0  0  0  0  0  0  0  0
   -6.9960   14.9926  -33.3001 H   0  0  0  0  0  0  0  0  0  0  0  0
   -7.7680   15.5747  -34.8140 H   0  0  0  0  0  0  0  0  0  0  0  0
   -6.0353   15.1010  -34.8140 H   0  0  0  0  0  0  0  0  0  0  0  0
   -5.7350   21.5775  -32.4648 H   0  0  0  0  0  0  0  0  0  0  0  0
   -7.1448   23.4130  -31.5803 H   0  0  0  0  0  0  0  0  0  0  0  0
   -9.5857   23.0510  -31.2207 H   0  0  0  0  0  0  0  0  0  0  0  0
  -10.5524   20.8445  -31.7735 H   0  0  0  0  0  0  0  0  0  0  0  0
   -9.1548   19.0322  -32.6531 H   0  0  0  0  0  0  0  0  0  0  0  0
  1  2  1  0
  2  3  1  0
  3  4  1  0
  4  5  1  0
  5  6  1  0
  6  7  1  0
  7  8  1  0
  8  9  1  0
  9 10  1  0
 10 11  1  0
 11 12  2  0
 12 13  1  0
 13 14  1  0
 13 15  1  0
 15 16  2  0
 16 17  1  0
 17 18  2  0
 18 19  1  0
 19 20  2  0
 20 21  1  0
 21 22  2  0
 16 11  1  0
 22 17  1  0
  1 23  1  0
  1 24  1  0
  1 25  1  0
  2 26  1  0
  2 27  1  0
  4 28  1  0
  4 29  1  0
  5 30  1  0
  5 31  1  0
  7 32  1  0
  7 33  1  0
  8 34  1  0
  8 35  1  0
  9 36  1  0
 10 37  1  0
 10 38  1  0
 12 39  1  0
 14 40  1  0
 14 41  1  0
 14 42  1  0
 18 43  1  0
 19 44  1  0
 20 45  1  0
 21 46  1  0
 22 47  1  0
M  END
>  <smiles>  (12) 
CCOCCOCCNCc1cn(C)nc1-c1ccccc1

>  <score_type>  (12) 
oracle

>  <origin>  (12) 
adg

>  <m_score__min__energy>  (12) 
-7.5599999999999996

>  <m_primary>  (12) 
energy

$$$$
12:0
     RDKit          3D

 37 40  0  0  0  0  0  0  0  0999 V2000
   -8.9950   20.3930  -32.2540 C   0  0  0  0  0  0  0  0  0  0  0  0
   -7.8230   21.2280  -31.9510 C   0  0  0  0  0  0  0  0  0  0  0  0
   -8.0360   22.4230  -31.3620 N   0  0  0  0  0  0  0  0  0  0  0  0
   -6.9970   23.2500  -31.0530 C   0  0  0  0  0  0  0  0  0  0  0  0
   -7.2340   24.4680  -30.4500 C   0  0  0  0  0  0  0  0  0  0  0  0
   -6.2010   25.2990  -30.1380 C   0  0  0  0  0  0  0  0  0  0  0  0
   -4.8950   24.9130  -30.4300 C   0  0  0  0  0  0  0  0  0  0  0  0
   -4.6320   23.6900  -31.0360 C   0  0  0  0  0  0  0  0  0  0  0  0
   -5.7050   22.8490  -31.3510 C   0  0  0  0  0  0  0  0  0  0  0  0
   -5.4450   21.6260  -31.9570 C   0  0  0  0  0  0  0  0  0  0  0  0
   -4.1380   21.1850  -32.2750 N   0  0  0  0  0  0  0  0  0  0  0  0
   -3.2950   20.4040  -31.5760 C   0  0  0  0  0  0  0  0  0  0  0  0
   -2.1440   20.2730  -32.3270 C   0  0  0  0  0  0  0  0  0  0  0  0
   -2.2880   20.9710  -33.4770 N   0  0  0  0  0  0  0  0  0  0  0  0
   -3.5100   21.5160  -33.4220 C   0  0  0  0  0  0  0  0  0  0  0  0
   -6.5300   20.8230  -32.2520 C   0  0  0  0  0  0  0  0  0  0  0  0
   -6.3900   19.5160  -32.8890 C   0  0  0  0  0  0  0  0  0  0  0  0
   -6.6260   18.3440  -32.1560 C   0  0  0  0  0  0  0  0  0  0  0  0
   -6.4880   17.1110  -32.7820 C   0  0  0  0  0  0  0  0  0  0  0  0
   -6.1170   17.0230  -34.1270 C   0  0  0  0  0  0  0  0  0  0  0  0
   -5.8810   18.1850  -34.8540 C   0  0  0  0  0  0  0  0  0  0  0  0
   -6.0240   19.4000  -34.2180 C   0  0  0  0  0  0  0  0  0  0  0  0
   -9.4612   20.0608  -31.3147 H   0  0  0  0  0  0  0  0  0  0  0  0
   -9.7214   20.9783  -32.8370 H   0  0  0  0  0  0  0  0  0  0  0  0
   -8.6791   19.5153  -32.8370 H   0  0  0  0  0  0  0  0  0  0  0  0
   -8.2661   24.7706  -30.2192 H   0  0  0  0  0  0  0  0  0  0  0  0
   -6.3970   26.2693  -29.6582 H   0  0  0  0  0  0  0  0  0  0  0  0
   -4.0611   25.5845  -30.1778 H   0  0  0  0  0  0  0  0  0  0  0  0
   -3.5989   23.3887  -31.2638 H   0  0  0  0  0  0  0  0  0  0  0  0
   -3.4867   19.9540  -30.5907 H   0  0  0  0  0  0  0  0  0  0  0  0
   -1.2541   19.6949  -32.0373 H   0  0  0  0  0  0  0  0  0  0  0  0
   -3.9445   22.1502  -34.2087 H   0  0  0  0  0  0  0  0  0  0  0  0
   -6.9173   18.4001  -31.0967 H   0  0  0  0  0  0  0  0  0  0  0  0
   -6.6736   16.1898  -32.2102 H   0  0  0  0  0  0  0  0  0  0  0  0
   -6.0122   16.0393  -34.6081 H   0  0  0  0  0  0  0  0  0  0  0  0
   -5.5868   18.1358  -35.9128 H   0  0  0  0  0  0  0  0  0  0  0  0
   -5.8386   20.3189  -34.7936 H   0  0  0  0  0  0  0  0  0  0  0  0
  1  2  1  0
  2  3  2  0
  3  4  1  0
  4  5  2  0
  5  6  1  0
  6  7  2  0
  7  8  1  0
  8  9  2  0
  9 10  1  0
 10 11  1  0
 11 12  1  0
 12 13  2  0
 13 14  1  0
 14 15  2  0
 10 16  2  0
 16 17  1  0
 17 18  2  0
 18 19  1  0
 19 20  2  0
 20 21  1  0
 21 22  2  0
 16  2  1  0
 22 17  1  0
  9  4  1  0
 15 11  1  0
  1 23  1  0
  1 24  1  0
  1 25  1  0
  5 26  1  0
  6 27  1  0
  7 28  1  0
  8 29  1  0
 12 30  1  0
 13 31  1  0
 15 32  1  0
 18 33  1  0
 19 34  1  0
 20 35  1  0
 21 36  1  0
 22 37  1  0
M  END
>  <smiles>  (13) 
Cc1nc2ccccc2c(-n2ccnc2)c1-c1ccccc1

>  <score_type>  (13) 
oracle

>  <origin>  (13) 
adg

>  <m_score__min__energy>  (13) 
-8.3800000000000008

>  <m_primary>  (13) 
energy

$$$$
13:0
     RDKit          3D

 59 61  0  0  0  0  0  0  0  0999 V2000
   -6.0910   25.3630  -29.9170 C   0  0  0  0  0  0  0  0  0  0  0  0
   -4.8110   24.8670  -30.5580 C   0  0  0  0  0  0  0  0  0  0  0  0
   -3.9380   24.3920  -29.5340 N   0  0  0  0  0  0  0  0  0  0  0  0
   -4.6000   24.1340  -28.2950 C   0  0  0  0  0  0  0  0  0  0  0  0
   -3.7400   24.5460  -27.1360 C   0  0  0  0  0  0  0  0  0  0  0  0
   -2.8530   23.5770  -29.8830 C   0  0  0  0  0  0  0  0  0  0  0  0
   -2.9120   22.1260  -29.5930 C   0  0  0  0  0  0  0  0  0  0  0  0
   -2.2710   21.3100  -30.4820 O   0  0  0  0  0  0  0  0  0  0  0  0
   -3.0190   20.8390  -31.5180 C   0  0  0  0  0  0  0  0  0  0  0  0
   -3.2820   21.7570  -32.6530 C   0  0  0  0  0  0  0  0  0  0  0  0
   -4.4530   21.5250  -33.4530 N   0  0  0  0  0  0  0  0  0  0  0  0
   -5.5520   20.7460  -33.0070 C   0  0  0  0  0  0  0  0  0  0  0  0
   -6.6970   21.2390  -32.4420 C   0  0  0  0  0  0  0  0  0  0  0  0
   -6.8050   22.5780  -32.1690 C   0  0  0  0  0  0  0  0  0  0  0  0
   -7.9040   23.1660  -31.5860 C   0  0  0  0  0  0  0  0  0  0  0  0
   -8.9580   22.3390  -31.2630 C   0  0  0  0  0  0  0  0  0  0  0  0
   -8.8870   20.9620  -31.5240 C   0  0  0  0  0  0  0  0  0  0  0  0
   -7.7720   20.4060  -32.1070 C   0  0  0  0  0  0  0  0  0  0  0  0
   -7.7370   19.0800  -32.3180 N   0  0  0  0  0  0  0  0  0  0  0  0
   -8.7780   18.1590  -32.0170 C   0  0  0  0  0  0  0  0  0  0  0  0
   -6.6020   18.5590  -32.8800 C   0  0  0  0  0  0  0  0  0  0  0  0
   -6.5220   17.1810  -33.1070 C   0  0  0  0  0  0  0  0  0  0  0  0
   -5.4060   16.5910  -33.6600 C   0  0  0  0  0  0  0  0  0  0  0  0
   -4.3370   17.3890  -33.9970 C   0  0  0  0  0  0  0  0  0  0  0  0
   -3.1140   16.7570  -34.6000 C   0  0  0  0  0  0  0  0  0  0  0  0
   -4.4170   18.7510  -33.7720 C   0  0  0  0  0  0  0  0  0  0  0  0
   -5.5280   19.3580  -33.2200 C   0  0  0  0  0  0  0  0  0  0  0  0
   -5.9916   25.3245  -28.8222 H   0  0  0  0  0  0  0  0  0  0  0  0
   -6.2808   26.3998  -30.2317 H   0  0  0  0  0  0  0  0  0  0  0  0
   -6.9299   24.7248  -30.2317 H   0  0  0  0  0  0  0  0  0  0  0  0
   -5.0404   24.0492  -31.2570 H   0  0  0  0  0  0  0  0  0  0  0  0
   -4.3279   25.6863  -31.1107 H   0  0  0  0  0  0  0  0  0  0  0  0
   -5.5422   24.7009  -28.2645 H   0  0  0  0  0  0  0  0  0  0  0  0
   -4.8001   23.0550  -28.2199 H   0  0  0  0  0  0  0  0  0  0  0  0
   -4.2522   24.3006  -26.1939 H   0  0  0  0  0  0  0  0  0  0  0  0
   -2.7807   24.0097  -27.1823 H   0  0  0  0  0  0  0  0  0  0  0  0
   -3.5568   25.6296  -27.1823 H   0  0  0  0  0  0  0  0  0  0  0  0
   -2.7097   23.6814  -30.9686 H   0  0  0  0  0  0  0  0  0  0  0  0
   -2.0387   23.9381  -29.2377 H   0  0  0  0  0  0  0  0  0  0  0  0
   -2.4630   21.9625  -28.6022 H   0  0  0  0  0  0  0  0  0  0  0  0
   -3.9761   21.8545  -29.6560 H   0  0  0  0  0  0  0  0  0  0  0  0
   -2.5011   19.9568  -31.9224 H   0  0  0  0  0  0  0  0  0  0  0  0
   -4.0099   20.6476  -31.0804 H   0  0  0  0  0  0  0  0  0  0  0  0
   -3.3650   22.7728  -32.2392 H   0  0  0  0  0  0  0  0  0  0  0  0
   -2.4415   21.5883  -33.3423 H   0  0  0  0  0  0  0  0  0  0  0  0
   -4.5580   21.9290  -34.4290 H   0  0  0  0  0  0  0  0  0  0  0  0
   -5.9563   23.2258  -32.4337 H   0  0  0  0  0  0  0  0  0  0  0  0
   -7.9396   24.2472  -31.3868 H   0  0  0  0  0  0  0  0  0  0  0  0
   -9.8609   22.7610  -30.7975 H   0  0  0  0  0  0  0  0  0  0  0  0
   -9.7371   20.3165  -31.2580 H   0  0  0  0  0  0  0  0  0  0  0  0
   -8.8820   18.0670  -30.9258 H   0  0  0  0  0  0  0  0  0  0  0  0
   -9.7237   18.5215  -32.4462 H   0  0  0  0  0  0  0  0  0  0  0  0
   -8.5335   17.1761  -32.4462 H   0  0  0  0  0  0  0  0  0  0  0  0
   -7.3787   16.5469  -32.8349 H   0  0  0  0  0  0  0  0  0  0  0  0
   -5.3706   15.5046  -33.8285 H   0  0  0  0  0  0  0  0  0  0  0  0
   -2.4460   16.4118  -33.7972 H   0  0  0  0  0  0  0  0  0  0  0  0
   -3.4128   15.9004  -35.2221 H   0  0  0  0  0  0  0  0  0  0  0  0
   -2.5881   17.4962  -35.2221 H   0  0  0  0  0  0  0  0  0  0  0  0
   -3.5566   19.3796  -34.0451 H   0  0  0  0  0  0  0  0  0  0  0  0
  1  2  1  0
  2  3  1  0
  3  4  1  0
  4  5  1  0
  3  6  1  0
  6  7  1  0
  7  8  1  0
  8  9  1  0
  9 10  1  0
 10 11  1  0
 11 12  1  0
 12 13  2  0
 13 14  1  0
 14 15  2  0
 15 16  1  0
 16 17  2  0
 17 18  1  0
 18 19  2  0
 19 20  1  0
 19 21  1  0
 21 22  2  0
 22 23  1  0
 23 24  2  0
 24 25  1  0
 24 26  1  0
 26 27  2  0
 27 12  1  0
 18 13  1  0
 27 21  1  0
  1 28  1  0
  1 29  1  0
  1 30  1  0
  2 31  1  0
  2 32  1  0
  4 33  1  0
  4 34  1  0
  5 35  1  0
  5 36  1  0
  5 37  1  0
  6 38  1  0
  6 39  1  0
  7 40  1  0
  7 41  1  0
  9 42  1  0
  9 43  1  0
 10 44  1  0
 10 45  1  0
 11 46  1  0
 14 47  1  0
 15 48  1  0
 16 49  1  0
 17 50  1  0
 20 51  1  0
 20 52  1  0
 20 53  1  0
 22 54  1  0
 23 55  1  0
 25 56  1  0
 25 57  1  0
 25 58  1  0
 26 59  1  0
M  CHG  1  19   1
M  END
>  <smiles>  (14) 
CCN(CC)CCOCCNc1c2ccccc2[n+](C)c2ccc(C)cc12

>  <score_type>  (14) 
oracle

>  <origin>  (14) 
adg

>  <m_score__min__energy>  (14) 
-8.9399999999999995

>  <m_primary>  (14) 
energy

$$$$
14:0
     RDKit          3D

 55 58  0  0  0  0  0  0  0  0999 V2000
   -6.4410   15.7270  -33.9670 C   0  0  0  0  0  0  0  0  0  0  0  0
   -5.5770   16.5610  -33.0490 C   0  0  0  0  0  0  0  0  0  0  0  0
   -5.9160   17.9560  -33.1900 N   0  0  0  0  0  0  0  0  0  0  0  0
   -5.1640   18.8540  -33.8470 C   0  0  0  0  0  0  0  0  0  0  0  0
   -3.8740   18.7060  -34.5530 C   0  0  0  0  0  0  0  0  0  0  0  0
   -2.7420   19.1060  -33.7530 N   0  0  0  0  0  0  0  0  0  0  0  0
   -2.9400   18.9390  -32.3560 C   0  0  0  0  0  0  0  0  0  0  0  0
   -2.6750   20.1170  -31.4840 C   0  0  0  0  0  0  0  0  0  0  0  0
   -3.0440   21.3480  -32.0500 N   0  0  0  0  0  0  0  0  0  0  0  0
   -2.9810   22.5280  -31.2800 C   0  0  0  0  0  0  0  0  0  0  0  0
   -4.2200   23.2360  -30.9880 C   0  0  0  0  0  0  0  0  0  0  0  0
   -5.4090   22.6740  -31.4450 C   0  0  0  0  0  0  0  0  0  0  0  0
   -6.6400   23.2510  -31.2500 C   0  0  0  0  0  0  0  0  0  0  0  0
   -6.7420   24.4520  -30.5700 C   0  0  0  0  0  0  0  0  0  0  0  0
   -5.5640   25.0040  -30.1200 C   0  0  0  0  0  0  0  0  0  0  0  0
   -4.3250   24.4330  -30.3100 C   0  0  0  0  0  0  0  0  0  0  0  0
   -3.1760   25.0390  -29.8290 O   0  0  0  0  0  0  0  0  0  0  0  0
   -2.5960   24.5240  -28.6480 C   0  0  0  0  0  0  0  0  0  0  0  0
   -2.8900   21.5250  -33.4550 C   0  0  0  0  0  0  0  0  0  0  0  0
   -2.1670   20.3730  -34.1170 C   0  0  0  0  0  0  0  0  0  0  0  0
   -5.8070   20.0550  -33.7660 N   0  0  0  0  0  0  0  0  0  0  0  0
   -6.9410   19.8970  -33.0670 C   0  0  0  0  0  0  0  0  0  0  0  0
   -7.9370   20.7950  -32.7060 C   0  0  0  0  0  0  0  0  0  0  0  0
   -9.0060   20.3280  -31.9700 C   0  0  0  0  0  0  0  0  0  0  0  0
   -9.1160   19.0030  -31.5820 C   0  0  0  0  0  0  0  0  0  0  0  0
   -8.1140   18.1200  -31.9500 C   0  0  0  0  0  0  0  0  0  0  0  0
   -7.0300   18.5710  -32.6910 C   0  0  0  0  0  0  0  0  0  0  0  0
   -7.1038   15.0873  -33.3658 H   0  0  0  0  0  0  0  0  0  0  0  0
   -7.0478   16.3896  -34.6016 H   0  0  0  0  0  0  0  0  0  0  0  0
   -5.8002   15.0972  -34.6016 H   0  0  0  0  0  0  0  0  0  0  0  0
   -5.7436   16.2485  -32.0076 H   0  0  0  0  0  0  0  0  0  0  0  0
   -4.5197   16.4162  -33.3157 H   0  0  0  0  0  0  0  0  0  0  0  0
   -3.7481   17.6501  -34.8346 H   0  0  0  0  0  0  0  0  0  0  0  0
   -3.9038   19.3660  -35.4325 H   0  0  0  0  0  0  0  0  0  0  0  0
   -3.9887   18.6441  -32.2036 H   0  0  0  0  0  0  0  0  0  0  0  0
   -2.1949   18.1889  -32.0523 H   0  0  0  0  0  0  0  0  0  0  0  0
   -3.2368   19.9860  -30.5474 H   0  0  0  0  0  0  0  0  0  0  0  0
   -1.5869   20.1552  -31.3272 H   0  0  0  0  0  0  0  0  0  0  0  0
   -2.5243   22.2619  -30.3153 H   0  0  0  0  0  0  0  0  0  0  0  0
   -2.4128   23.2291  -31.9090 H   0  0  0  0  0  0  0  0  0  0  0  0
   -5.3600   21.7196  -31.9898 H   0  0  0  0  0  0  0  0  0  0  0  0
   -7.5452   22.7583  -31.6345 H   0  0  0  0  0  0  0  0  0  0  0  0
   -7.7129   24.9396  -30.3982 H   0  0  0  0  0  0  0  0  0  0  0  0
   -5.6152   25.9586  -29.5759 H   0  0  0  0  0  0  0  0  0  0  0  0
   -3.0937   24.9659  -27.7722 H   0  0  0  0  0  0  0  0  0  0  0  0
   -2.7177   23.4310  -28.6262 H   0  0  0  0  0  0  0  0  0  0  0  0
   -1.5250   24.7742  -28.6262 H   0  0  0  0  0  0  0  0  0  0  0  0
   -3.8877   21.6204  -33.9083 H   0  0  0  0  0  0  0  0  0  0  0  0
   -2.2825   22.4289  -33.6095 H   0  0  0  0  0  0  0  0  0  0  0  0
   -2.2296   20.4927  -35.2087 H   0  0  0  0  0  0  0  0  0  0  0  0
   -1.1202   20.3849  -33.7791 H   0  0  0  0  0  0  0  0  0  0  0  0
   -7.8749   21.8532  -32.9999 H   0  0  0  0  0  0  0  0  0  0  0  0
   -9.7994   21.0330  -31.6809 H   0  0  0  0  0  0  0  0  0  0  0  0
   -9.9801   18.6593  -30.9945 H   0  0  0  0  0  0  0  0  0  0  0  0
   -8.1772   17.0621  -31.6553 H   0  0  0  0  0  0  0  0  0  0  0  0
  1  2  1  0
  2  3  1  0
  3  4  1  0
  4  5  1  0
  5  6  1  0
  6  7  1  0
  7  8  1  0
  8  9  1  0
  9 10  1  0
 10 11  1  0
 11 12  2  0
 12 13  1  0
 13 14  2  0
 14 15  1  0
 15 16  2  0
 16 17  1  0
 17 18  1  0
  9 19  1  0
 19 20  1  0
  4 21  2  0
 21 22  1  0
 22 23  2  0
 23 24  1  0
 24 25  2  0
 25 26  1  0
 26 27  2  0
 27  3  1  0
 20  6  1  0
 27 22  1  0
 16 11  1  0
  1 28  1  0
  1 29  1  0
  1 30  1  0
  2 31  1  0
  2 32  1  0
  5 33  1  0
  5 34  1  0
  7 35  1  0
  7 36  1  0
  8 37  1  0
  8 38  1  0
 10 39  1  0
 10 40  1  0
 12 41  1  0
 13 42  1  0
 14 43  1  0
 15 44  1  0
 18 45  1  0
 18 46  1  0
 18 47  1  0
 19 48  1  0
 19 49  1  0
 20 50  1  0
 20 51  1  0
 23 52  1  0
 24 53  1  0
 25 54  1  0
 26 55  1  0
M  END
>  <smiles>  (15) 
CCn1c(CN2CCN(Cc3ccccc3OC)CC2)nc2ccccc21

>  <score_type>  (15) 
oracle

>  <origin>  (15) 
adg

>  <m_score__min__energy>  (15) 
-9.0500000000000007

>  <m_primary>  (15) 
energy

$$$$
15:0
     RDKit          3D

 69 72  0  0  0  0  0  0  0  0999 V2000
   -0.8970   26.7680  -24.0760 C   0  0  0  0  0  0  0  0  0  0  0  0
   -1.7010   26.3910  -25.2970 C   0  0  0  0  0  0  0  0  0  0  0  0
   -1.4060   24.9810  -25.5830 N   0  0  0  0  0  0  0  0  0  0  0  0
   -0.4650   24.4740  -24.6080 C   0  0  0  0  0  0  0  0  0  0  0  0
   -0.1490   23.0450  -24.8100 C   0  0  0  0  0  0  0  0  0  0  0  0
   -0.9440   24.8250  -26.9410 C   0  0  0  0  0  0  0  0  0  0  0  0
   -1.0560   26.0740  -27.7790 C   0  0  0  0  0  0  0  0  0  0  0  0
   -1.6510   25.6890  -28.9760 O   0  0  0  0  0  0  0  0  0  0  0  0
   -2.1090   24.3570  -28.9390 C   0  0  0  0  0  0  0  0  0  0  0  0
   -3.5650   24.4140  -29.2680 C   0  0  0  0  0  0  0  0  0  0  0  0
   -3.8840   24.9360  -30.5050 O   0  0  0  0  0  0  0  0  0  0  0  0
   -4.9460   24.2640  -31.0540 C   0  0  0  0  0  0  0  0  0  0  0  0
   -4.7080   22.7730  -31.1610 C   0  0  0  0  0  0  0  0  0  0  0  0
   -4.8780   22.4260  -32.5920 N   0  0  0  0  0  0  0  0  0  0  0  0
   -4.8970   21.0500  -32.8820 C   0  0  0  0  0  0  0  0  0  0  0  0
   -3.6350   20.5400  -33.2700 C   0  0  0  0  0  0  0  0  0  0  0  0
   -2.5430   21.4140  -33.3690 C   0  0  0  0  0  0  0  0  0  0  0  0
   -1.2870   20.9950  -33.7400 C   0  0  0  0  0  0  0  0  0  0  0  0
   -1.1120   19.6700  -34.0210 C   0  0  0  0  0  0  0  0  0  0  0  0
   -2.2050   18.7980  -33.9200 C   0  0  0  0  0  0  0  0  0  0  0  0
   -3.4520   19.2180  -33.5510 C   0  0  0  0  0  0  0  0  0  0  0  0
   -4.4610   18.3390  -33.4740 N   0  0  0  0  0  0  0  0  0  0  0  0
   -4.3440   16.9310  -33.7450 C   0  0  0  0  0  0  0  0  0  0  0  0
   -5.6890   18.8040  -33.1030 C   0  0  0  0  0  0  0  0  0  0  0  0
   -6.7150   17.8870  -33.0280 C   0  0  0  0  0  0  0  0  0  0  0  0
   -7.9820   18.2780  -32.6620 C   0  0  0  0  0  0  0  0  0  0  0  0
   -8.1660   19.6200  -32.3830 C   0  0  0  0  0  0  0  0  0  0  0  0
   -9.4800   19.9620  -32.0370 C   0  0  0  0  0  0  0  0  0  0  0  0
   -9.7350   21.2790  -31.7670 C   0  0  0  0  0  0  0  0  0  0  0  0
   -8.7890   22.2560  -31.8180 C   0  0  0  0  0  0  0  0  0  0  0  0
   -7.4910   21.8540  -32.1700 C   0  0  0  0  0  0  0  0  0  0  0  0
   -7.1630   20.5570  -32.4490 C   0  0  0  0  0  0  0  0  0  0  0  0
   -5.9010   20.1550  -32.8110 C   0  0  0  0  0  0  0  0  0  0  0  0
   -1.4611   26.5035  -23.1695 H   0  0  0  0  0  0  0  0  0  0  0  0
    0.0593   26.2244  -24.0845 H   0  0  0  0  0  0  0  0  0  0  0  0
   -0.7033   27.8508  -24.0845 H   0  0  0  0  0  0  0  0  0  0  0  0
   -2.7750   26.5199  -25.0974 H   0  0  0  0  0  0  0  0  0  0  0  0
   -1.4394   27.0297  -26.1535 H   0  0  0  0  0  0  0  0  0  0  0  0
    0.4664   25.0544  -24.6829 H   0  0  0  0  0  0  0  0  0  0  0  0
   -0.9283   24.5747  -23.6154 H   0  0  0  0  0  0  0  0  0  0  0  0
   -0.0400   22.5519  -23.8328 H   0  0  0  0  0  0  0  0  0  0  0  0
   -0.9628   22.5656  -25.3738 H   0  0  0  0  0  0  0  0  0  0  0  0
    0.7911   22.9535  -25.3738 H   0  0  0  0  0  0  0  0  0  0  0  0
    0.1130   24.5218  -26.9132 H   0  0  0  0  0  0  0  0  0  0  0  0
   -1.5915   24.0699  -27.4106 H   0  0  0  0  0  0  0  0  0  0  0  0
   -1.6795   26.8216  -27.2669 H   0  0  0  0  0  0  0  0  0  0  0  0
   -0.0697   26.5297  -27.9512 H   0  0  0  0  0  0  0  0  0  0  0  0
   -1.5728   23.7475  -29.6813 H   0  0  0  0  0  0  0  0  0  0  0  0
   -1.9357   23.8981  -27.9544 H   0  0  0  0  0  0  0  0  0  0  0  0
   -3.9610   23.3888  -29.2227 H   0  0  0  0  0  0  0  0  0  0  0  0
   -4.0095   25.1001  -28.5321 H   0  0  0  0  0  0  0  0  0  0  0  0
   -5.8320   24.4337  -30.4246 H   0  0  0  0  0  0  0  0  0  0  0  0
   -5.0887   24.6495  -32.0743 H   0  0  0  0  0  0  0  0  0  0  0  0
   -3.6896   22.5250  -30.8274 H   0  0  0  0  0  0  0  0  0  0  0  0
   -5.4088   22.2099  -30.5272 H   0  0  0  0  0  0  0  0  0  0  0  0
   -4.9310   23.1910  -33.3270 H   0  0  0  0  0  0  0  0  0  0  0  0
   -2.6975   22.4788  -33.1404 H   0  0  0  0  0  0  0  0  0  0  0  0
   -0.4494   21.7048  -33.8083 H   0  0  0  0  0  0  0  0  0  0  0  0
   -0.1245   19.2913  -34.3232 H   0  0  0  0  0  0  0  0  0  0  0  0
   -2.0527   17.7325  -34.1470 H   0  0  0  0  0  0  0  0  0  0  0  0
   -4.2980   16.3774  -32.7955 H   0  0  0  0  0  0  0  0  0  0  0  0
   -5.2173   16.5951  -34.3233 H   0  0  0  0  0  0  0  0  0  0  0  0
   -3.4272   16.7439  -34.3233 H   0  0  0  0  0  0  0  0  0  0  0  0
   -6.5186   16.8306  -33.2634 H   0  0  0  0  0  0  0  0  0  0  0  0
   -8.8101   17.5571  -32.5944 H   0  0  0  0  0  0  0  0  0  0  0  0
  -10.2742   19.2027  -31.9846 H   0  0  0  0  0  0  0  0  0  0  0  0
  -10.7617   21.5638  -31.4935 H   0  0  0  0  0  0  0  0  0  0  0  0
   -9.0290   23.3061  -31.5950 H   0  0  0  0  0  0  0  0  0  0  0  0
   -6.7015   22.6181  -32.2237 H   0  0  0  0  0  0  0  0  0  0  0  0
  1  2  1  0
  2  3  1  0
  3  4  1  0
  4  5  1  0
  3  6  1  0
  6  7  1  0
  7  8  1  0
  8  9  1  0
  9 10  1  0
 10 11  1  0
 11 12  1  0
 12 13  1  0
 13 14  1  0
 14 15  1  0
 15 16  2  0
 16 17  1  0
 17 18  2  0
 18 19  1  0
 19 20  2  0
 20 21  1  0
 21 22  2  0
 22 23  1  0
 22 24  1  0
 24 25  2  0
 25 26  1  0
 26 27  2  0
 27 28  1  0
 28 29  2  0
 29 30  1  0
 30 31  2  0
 31 32  1  0
 32 33  2  0
 33 15  1  0
 21 16  1  0
 33 24  1  0
 32 27  1  0
  1 34  1  0
  1 35  1  0
  1 36  1  0
  2 37  1  0
  2 38  1  0
  4 39  1  0
  4 40  1  0
  5 41  1  0
  5 42  1  0
  5 43  1  0
  6 44  1  0
  6 45  1  0
  7 46  1  0
  7 47  1  0
  9 48  1  0
  9 49  1  0
 10 50  1  0
 10 51  1  0
 12 52  1  0
 12 53  1  0
 13 54  1  0
 13 55  1  0
 14 56  1  0
 17 57  1  0
 18 58  1  0
 19 59  1  0
 20 60  1  0
 23 61  1  0
 23 62  1  0
 23 63  1  0
 25 64  1  0
 26 65  1  0
 28 66  1  0
 29 67  1  0
 30 68  1  0
 31 69  1  0
M  CHG  1  22   1
M  END
>  <smiles>  (16) 
CCN(CC)CCOCCOCCNc1c2ccccc2[n+](C)c2ccc3ccccc3c12

>  <score_type>  (16) 
oracle

>  <origin>  (16) 
adg

>  <m_score__min__energy>  (16) 
-10.74

>  <m_primary>  (16) 
energy

$$$$
16:0
     RDKit          3D

 36 38  0  0  0  0  0  0  0  0999 V2000
   -9.1540   18.4380  -31.5980 C   0  0  0  0  0  0  0  0  0  0  0  0
   -9.0350   19.7900  -32.2890 C   0  0  0  0  0  0  0  0  0  0  0  0
   -7.6820   20.1950  -32.5010 N   0  0  0  0  0  0  0  0  0  0  0  0
   -6.8220   19.3410  -33.1080 C   0  0  0  0  0  0  0  0  0  0  0  0
   -5.5020   19.6580  -33.3500 C   0  0  0  0  0  0  0  0  0  0  0  0
   -4.3470   18.3890  -34.2160 Br  0  0  0  0  0  0  0  0  0  0  0  0
   -4.9920   20.8850  -32.9760 C   0  0  0  0  0  0  0  0  0  0  0  0
   -3.7910   21.1590  -33.2030 O   0  0  0  0  0  0  0  0  0  0  0  0
   -5.8660   21.7570  -32.3580 C   0  0  0  0  0  0  0  0  0  0  0  0
   -5.3810   22.9980  -31.9700 C   0  0  0  0  0  0  0  0  0  0  0  0
   -6.2420   23.8980  -31.3430 C   0  0  0  0  0  0  0  0  0  0  0  0
   -5.7010   25.2300  -30.9330 C   0  0  0  0  0  0  0  0  0  0  0  0
   -4.2910   25.2360  -30.8550 N   0  0  0  0  0  0  0  0  0  0  0  0
   -3.6820   24.7700  -29.6760 C   0  0  0  0  0  0  0  0  0  0  0  0
   -4.2060   23.5580  -28.9420 C   0  0  0  0  0  0  0  0  0  0  0  0
   -2.9980   23.4000  -29.7970 C   0  0  0  0  0  0  0  0  0  0  0  0
   -7.5550   23.5500  -31.1160 C   0  0  0  0  0  0  0  0  0  0  0  0
   -7.9930   22.3010  -31.5200 C   0  0  0  0  0  0  0  0  0  0  0  0
   -7.1750   21.3880  -32.1410 C   0  0  0  0  0  0  0  0  0  0  0  0
   -9.1414   18.5812  -30.5074 H   0  0  0  0  0  0  0  0  0  0  0  0
  -10.0980   17.9569  -31.8937 H   0  0  0  0  0  0  0  0  0  0  0  0
   -8.3086   17.7994  -31.8937 H   0  0  0  0  0  0  0  0  0  0  0  0
   -9.5391   19.7297  -33.2648 H   0  0  0  0  0  0  0  0  0  0  0  0
   -9.5009   20.5370  -31.6294 H   0  0  0  0  0  0  0  0  0  0  0  0
   -7.1926   18.3536  -33.4207 H   0  0  0  0  0  0  0  0  0  0  0  0
   -4.3308   23.2682  -32.1547 H   0  0  0  0  0  0  0  0  0  0  0  0
   -6.0175   25.9823  -31.6705 H   0  0  0  0  0  0  0  0  0  0  0  0
   -6.0939   25.4584  -29.9313 H   0  0  0  0  0  0  0  0  0  0  0  0
   -3.7470   25.6490  -31.5930 H   0  0  0  0  0  0  0  0  0  0  0  0
   -3.4313   25.7912  -29.3529 H   0  0  0  0  0  0  0  0  0  0  0  0
   -4.1111   23.4998  -27.8476 H   0  0  0  0  0  0  0  0  0  0  0  0
   -5.1822   23.0536  -28.8907 H   0  0  0  0  0  0  0  0  0  0  0  0
   -2.0142   23.2334  -29.3341 H   0  0  0  0  0  0  0  0  0  0  0  0
   -2.7161   22.7418  -30.6321 H   0  0  0  0  0  0  0  0  0  0  0  0
   -8.2431   24.2521  -30.6225 H   0  0  0  0  0  0  0  0  0  0  0  0
   -9.0423   22.0269  -31.3359 H   0  0  0  0  0  0  0  0  0  0  0  0
  1  2  1  0
  2  3  1  0
  3  4  1  0
  4  5  2  0
  5  6  1  0
  5  7  1  0
  7  8  2  0
  7  9  1  0
  9 10  2  0
 10 11  1  0
 11 12  1  0
 12 13  1  0
 13 14  1  0
 14 15  1  0
 15 16  1  0
 11 17  2  0
 17 18  1  0
 18 19  2  0
 19  3  1  0
 19  9  1  0
 16 14  1  0
  1 20  1  0
  1 21  1  0
  1 22  1  0
  2 23  1  0
  2 24  1  0
  4 25  1  0
 10 26  1  0
 12 27  1  0
 12 28  1  0
 13 29  1  0
 14 30  1  0
 15 31  1  0
 15 32  1  0
 16 33  1  0
 16 34  1  0
 17 35  1  0
 18 36  1  0
M  END
>  <smiles>  (17) 
CCn1cc(Br)c(=O)c2cc(CNC3CC3)ccc21

>  <score_type>  (17) 
oracle

>  <origin>  (17) 
adg

>  <m_score__min__energy>  (17) 
-8.8100000000000005

>  <m_primary>  (17) 
energy

$$$$
17:0
     RDKit          3D

 19 19  0  0  0  0  0  0  0  0999 V2000
   -8.7460   18.5730  -31.6360 C   0  0  0  0  0  0  0  0  0  0  0  0
   -7.5390   18.6660  -32.1870 C   0  0  0  0  0  0  0  0  0  0  0  0
   -7.2300   19.8020  -33.1020 C   0  0  0  0  0  0  0  0  0  0  0  0
   -7.1090   21.0540  -32.3600 N   0  0  0  0  0  0  0  0  0  0  0  0
   -8.2000   21.6920  -31.9380 N   0  0  0  0  0  0  0  0  0  0  0  0
   -8.1280   22.8590  -31.2450 C   0  0  0  0  0  0  0  0  0  0  0  0
   -6.9240   23.4280  -30.9530 C   0  0  0  0  0  0  0  0  0  0  0  0
   -6.8630   24.9300  -30.0600 Cl  0  0  0  0  0  0  0  0  0  0  0  0
   -5.7810   22.7860  -31.3800 C   0  0  0  0  0  0  0  0  0  0  0  0
   -4.5140   23.3730  -31.0800 C   0  0  0  0  0  0  0  0  0  0  0  0
   -3.5020   23.8400  -30.8370 N   0  0  0  0  0  0  0  0  0  0  0  0
   -5.9080   21.6020  -32.0800 C   0  0  0  0  0  0  0  0  0  0  0  0
   -4.8830   20.9910  -32.4840 O   0  0  0  0  0  0  0  0  0  0  0  0
   -8.9792   17.7369  -30.9603 H   0  0  0  0  0  0  0  0  0  0  0  0
   -9.5110   19.3321  -31.8560 H   0  0  0  0  0  0  0  0  0  0  0  0
   -6.7722   17.9082  -31.9686 H   0  0  0  0  0  0  0  0  0  0  0  0
   -6.2816   19.5983  -33.6208 H   0  0  0  0  0  0  0  0  0  0  0  0
   -8.0519   19.9020  -33.8263 H   0  0  0  0  0  0  0  0  0  0  0  0
   -9.0546   23.3515  -30.9150 H   0  0  0  0  0  0  0  0  0  0  0  0
  1  2  2  0
  2  3  1  0
  3  4  1  0
  4  5  1  0
  5  6  2  0
  6  7  1  0
  7  8  1  0
  7  9  2  0
  9 10  1  0
 10 11  3  0
  9 12  1  0
 12 13  2  0
 12  4  1  0
  1 14  1  0
  1 15  1  0
  2 16  1  0
  3 17  1  0
  3 18  1  0
  6 19  1  0
M  END
>  <smiles>  (18) 
C=CCn1ncc(Cl)c(C#N)c1=O

>  <score_type>  (18) 
oracle

>  <origin>  (18) 
adg

>  <m_score__min__energy>  (18) 
-5.2300000000000004

>  <m_primary>  (18) 
energy

$$$$
18:0
     RDKit          3D

 44 46  0  0  1  0  0  0  0  0999 V2000
   -0.8200   26.0080  -27.8430 C   0  0  0  0  0  0  0  0  0  0  0  0
   -1.7100   24.8410  -28.0110 C   0  0  0  0  0  0  0  0  0  0  0  0
   -1.6400   23.7060  -27.2410 C   0  0  0  0  0  0  0  0  0  0  0  0
   -2.5050   22.6580  -27.4610 C   0  0  0  0  0  0  0  0  0  0  0  0
   -3.4700   22.7360  -28.4710 C   0  0  0  0  0  0  0  0  0  0  0  0
   -3.5270   23.8670  -29.2240 C   0  0  0  0  0  0  0  0  0  0  0  0
   -4.4520   24.1470  -30.3000 C   0  0  0  0  0  0  0  0  0  0  0  0
   -4.3340   25.3090  -30.8480 O   0  0  0  0  0  0  0  0  0  0  0  0
   -5.4570   23.3320  -30.8270 N   0  0  0  0  0  0  0  0  0  0  0  0
   -5.5810   23.3530  -32.2890 C   0  0  0  0  0  0  0  0  0  0  0  0
   -7.0120   23.8050  -32.5160 C   0  0  0  0  0  0  0  0  0  0  0  0
   -7.9850   22.8140  -31.9930 C   0  0  0  0  0  0  0  0  0  0  0  0
   -7.4410   21.8820  -30.9420 C   0  0  1  0  0  0  0  0  0  0  0  0
   -7.1010   20.6190  -31.5650 N   0  0  0  0  0  0  0  0  0  0  0  0
   -5.9570   19.9890  -31.6960 N   0  0  0  0  0  0  0  0  0  0  0  0
   -6.0740   18.8570  -32.3700 C   0  0  0  0  0  0  0  0  0  0  0  0
   -4.9990   17.9130  -32.7240 C   0  0  0  0  0  0  0  0  0  0  0  0
   -7.4020   18.7380  -32.7020 C   0  0  0  0  0  0  0  0  0  0  0  0
   -8.0280   19.8550  -32.1850 C   0  0  0  0  0  0  0  0  0  0  0  0
   -9.4980   20.1030  -32.3270 C   0  0  0  0  0  0  0  0  0  0  0  0
   -6.3500   22.4820  -30.1150 C   0  0  0  0  0  0  0  0  0  0  0  0
   -2.6380   24.8850  -28.9640 N   0  0  0  0  0  0  0  0  0  0  0  0
   -0.6706   26.2039  -26.7709 H   0  0  0  0  0  0  0  0  0  0  0  0
    0.1508   25.7999  -28.3165 H   0  0  0  0  0  0  0  0  0  0  0  0
   -1.2775   26.8892  -28.3165 H   0  0  0  0  0  0  0  0  0  0  0  0
   -0.8870   23.6338  -26.4424 H   0  0  0  0  0  0  0  0  0  0  0  0
   -2.4371   21.7535  -26.8387 H   0  0  0  0  0  0  0  0  0  0  0  0
   -4.1654   21.9031  -28.6516 H   0  0  0  0  0  0  0  0  0  0  0  0
   -4.8688   24.0635  -32.7340 H   0  0  0  0  0  0  0  0  0  0  0  0
   -5.3602   22.3799  -32.7520 H   0  0  0  0  0  0  0  0  0  0  0  0
   -7.1691   24.7653  -32.0030 H   0  0  0  0  0  0  0  0  0  0  0  0
   -7.1734   23.9086  -33.5991 H   0  0  0  0  0  0  0  0  0  0  0  0
   -8.8313   23.3644  -31.5561 H   0  0  0  0  0  0  0  0  0  0  0  0
   -8.2696   22.1820  -32.8471 H   0  0  0  0  0  0  0  0  0  0  0  0
   -8.2254   21.6892  -30.1953 H   0  0  0  0  0  0  0  0  0  0  0  0
   -4.5444   17.5138  -31.8053 H   0  0  0  0  0  0  0  0  0  0  0  0
   -5.4178   17.0855  -33.3154 H   0  0  0  0  0  0  0  0  0  0  0  0
   -4.2325   18.4352  -33.3154 H   0  0  0  0  0  0  0  0  0  0  0  0
   -7.8716   17.9185  -33.2658 H   0  0  0  0  0  0  0  0  0  0  0  0
   -9.9549   20.1801  -31.3293 H   0  0  0  0  0  0  0  0  0  0  0  0
   -9.6600   21.0412  -32.8780 H   0  0  0  0  0  0  0  0  0  0  0  0
   -9.9589   19.2699  -32.8780 H   0  0  0  0  0  0  0  0  0  0  0  0
   -6.8152   23.0716  -29.3113 H   0  0  0  0  0  0  0  0  0  0  0  0
   -5.7458   21.6410  -29.7440 H   0  0  0  0  0  0  0  0  0  0  0  0
  1  2  1  0
  2  3  2  0
  3  4  1  0
  4  5  2  0
  5  6  1  0
  6  7  1  0
  7  8  2  0
  7  9  1  0
  9 10  1  0
 10 11  1  0
 11 12  1  0
 12 13  1  0
 13 14  1  0
 14 15  1  0
 15 16  2  0
 16 17  1  0
 16 18  1  0
 18 19  2  0
 19 20  1  0
 13 21  1  0
  6 22  2  0
 22  2  1  0
 21  9  1  0
 19 14  1  0
  1 23  1  0
  1 24  1  0
  1 25  1  0
  3 26  1  0
  4 27  1  0
  5 28  1  0
 10 29  1  0
 10 30  1  0
 11 31  1  0
 11 32  1  0
 12 33  1  0
 12 34  1  0
 13 35  1  1
 17 36  1  0
 17 37  1  0
 17 38  1  0
 18 39  1  0
 20 40  1  0
 20 41  1  0
 20 42  1  0
 21 43  1  0
 21 44  1  0
M  END
>  <smiles>  (19) 
Cc1cccc(C(=O)N2CCCC(n3nc(C)cc3C)C2)n1

>  <score_type>  (19) 
oracle

>  <origin>  (19) 
adg

>  <m_score__min__energy>  (19) 
-8.5899999999999999

>  <m_primary>  (19) 
energy

$$$$
19:0
     RDKit          3D

 66 70  0  0  0  0  0  0  0  0999 V2000
   -1.5540   25.5250  -27.1830 C   0  0  0  0  0  0  0  0  0  0  0  0
   -2.6260   24.6150  -27.3390 N   0  0  0  0  0  0  0  0  0  0  0  0
   -3.7870   24.8900  -26.5430 C   0  0  0  0  0  0  0  0  0  0  0  0
   -2.3460   23.2580  -27.5890 C   0  0  0  0  0  0  0  0  0  0  0  0
   -1.3530   22.9100  -28.6340 C   0  0  0  0  0  0  0  0  0  0  0  0
   -1.6660   23.2490  -29.9770 N   0  0  0  0  0  0  0  0  0  0  0  0
   -2.3760   22.3820  -30.8510 C   0  0  0  0  0  0  0  0  0  0  0  0
   -1.6790   21.3600  -31.4550 C   0  0  0  0  0  0  0  0  0  0  0  0
   -0.3240   21.2420  -31.2000 C   0  0  0  0  0  0  0  0  0  0  0  0
    0.4300   20.2540  -31.7630 C   0  0  0  0  0  0  0  0  0  0  0  0
   -0.2060   19.3660  -32.6050 C   0  0  0  0  0  0  0  0  0  0  0  0
   -1.5560   19.4850  -32.8580 C   0  0  0  0  0  0  0  0  0  0  0  0
   -2.3470   20.4750  -32.3020 C   0  0  0  0  0  0  0  0  0  0  0  0
   -3.6690   20.5870  -32.5560 N   0  0  0  0  0  0  0  0  0  0  0  0
   -4.3440   19.6770  -33.4010 C   0  0  0  0  0  0  0  0  0  0  0  0
   -4.3760   21.5820  -31.9760 C   0  0  0  0  0  0  0  0  0  0  0  0
   -3.7210   22.4800  -31.1200 C   0  0  0  0  0  0  0  0  0  0  0  0
   -4.6270   23.3990  -30.6390 C   0  0  0  0  0  0  0  0  0  0  0  0
   -4.5620   24.4750  -29.7970 C   0  0  0  0  0  0  0  0  0  0  0  0
   -5.6860   25.2510  -29.4820 C   0  0  0  0  0  0  0  0  0  0  0  0
   -6.8930   24.9060  -30.0490 C   0  0  0  0  0  0  0  0  0  0  0  0
   -6.9460   23.8200  -30.8970 C   0  0  0  0  0  0  0  0  0  0  0  0
   -5.8340   23.0610  -31.2010 C   0  0  0  0  0  0  0  0  0  0  0  0
   -5.6880   21.9650  -32.0090 N   0  0  0  0  0  0  0  0  0  0  0  0
   -6.7570   21.3710  -32.7220 C   0  0  0  0  0  0  0  0  0  0  0  0
   -7.8000   20.6850  -31.8290 C   0  0  0  0  0  0  0  0  0  0  0  0
   -8.2600   19.3860  -32.4550 C   0  0  0  0  0  0  0  0  0  0  0  0
   -7.2580   18.3200  -32.4370 C   0  0  0  0  0  0  0  0  0  0  0  0
   -6.6740   17.7880  -31.3130 C   0  0  0  0  0  0  0  0  0  0  0  0
   -5.7430   16.7780  -31.4220 C   0  0  0  0  0  0  0  0  0  0  0  0
   -5.3520   16.2550  -32.6440 C   0  0  0  0  0  0  0  0  0  0  0  0
   -5.9320   16.7820  -33.7770 C   0  0  0  0  0  0  0  0  0  0  0  0
   -6.8590   17.7880  -33.6600 C   0  0  0  0  0  0  0  0  0  0  0  0
   -1.3634   25.6868  -26.1118 H   0  0  0  0  0  0  0  0  0  0  0  0
   -0.6513   25.1131  -27.6580 H   0  0  0  0  0  0  0  0  0  0  0  0
   -1.8138   26.4826  -27.6580 H   0  0  0  0  0  0  0  0  0  0  0  0
   -3.5237   24.8276  -25.4768 H   0  0  0  0  0  0  0  0  0  0  0  0
   -4.1568   25.9006  -26.7709 H   0  0  0  0  0  0  0  0  0  0  0  0
   -4.5709   24.1527  -26.7709 H   0  0  0  0  0  0  0  0  0  0  0  0
   -1.9859   22.8238  -26.6447 H   0  0  0  0  0  0  0  0  0  0  0  0
   -3.2934   22.8610  -27.9824 H   0  0  0  0  0  0  0  0  0  0  0  0
   -0.4124   23.4189  -28.3767 H   0  0  0  0  0  0  0  0  0  0  0  0
   -1.3120   21.8108  -28.6256 H   0  0  0  0  0  0  0  0  0  0  0  0
   -1.3830   24.1750  -30.4220 H   0  0  0  0  0  0  0  0  0  0  0  0
    0.1583   21.9644  -30.5251 H   0  0  0  0  0  0  0  0  0  0  0  0
    1.5064   20.1688  -31.5529 H   0  0  0  0  0  0  0  0  0  0  0  0
    0.3685   18.5562  -33.0785 H   0  0  0  0  0  0  0  0  0  0  0  0
   -2.0274   18.7574  -33.5350 H   0  0  0  0  0  0  0  0  0  0  0  0
   -4.8885   18.9430  -32.7889 H   0  0  0  0  0  0  0  0  0  0  0  0
   -5.0558   20.2250  -34.0359 H   0  0  0  0  0  0  0  0  0  0  0  0
   -3.6131   19.1548  -34.0359 H   0  0  0  0  0  0  0  0  0  0  0  0
   -3.5924   24.7410  -29.3508 H   0  0  0  0  0  0  0  0  0  0  0  0
   -5.6064   26.1113  -28.8011 H   0  0  0  0  0  0  0  0  0  0  0  0
   -7.8003   25.4877  -29.8288 H   0  0  0  0  0  0  0  0  0  0  0  0
   -7.9115   23.5481  -31.3485 H   0  0  0  0  0  0  0  0  0  0  0  0
   -7.2627   22.1557  -33.3038 H   0  0  0  0  0  0  0  0  0  0  0  0
   -6.3184   20.5876  -33.3575 H   0  0  0  0  0  0  0  0  0  0  0  0
   -7.3533   20.4751  -30.8459 H   0  0  0  0  0  0  0  0  0  0  0  0
   -8.6669   21.3527  -31.7162 H   0  0  0  0  0  0  0  0  0  0  0  0
   -9.1465   19.0345  -31.9068 H   0  0  0  0  0  0  0  0  0  0  0  0
   -8.4692   19.6033  -33.5128 H   0  0  0  0  0  0  0  0  0  0  0  0
   -6.9514   18.1707  -30.3197 H   0  0  0  0  0  0  0  0  0  0  0  0
   -5.2932   16.3716  -30.5041 H   0  0  0  0  0  0  0  0  0  0  0  0
   -4.6062   15.4489  -32.7071 H   0  0  0  0  0  0  0  0  0  0  0  0
   -5.6540   16.3989  -34.7699 H   0  0  0  0  0  0  0  0  0  0  0  0
   -7.3087   18.1938  -34.5782 H   0  0  0  0  0  0  0  0  0  0  0  0
  1  2  1  0
  2  3  1  0
  2  4  1  0
  4  5  1  0
  5  6  1  0
  6  7  1  0
  7  8  2  0
  8  9  1  0
  9 10  2  0
 10 11  1  0
 11 12  2  0
 12 13  1  0
 13 14  2  0
 14 15  1  0
 14 16  1  0
 16 17  2  0
 17 18  1  0
 18 19  2  0
 19 20  1  0
 20 21  2  0
 21 22  1  0
 22 23  2  0
 23 24  1  0
 24 25  1  0
 25 26  1  0
 26 27  1  0
 27 28  1  0
 28 29  2  0
 29 30  1  0
 30 31  2  0
 31 32  1  0
 32 33  2  0
 17  7  1  0
 23 18  1  0
 33 28  1  0
 13  8  1  0
 24 16  1  0
  1 34  1  0
  1 35  1  0
  1 36  1  0
  3 37  1  0
  3 38  1  0
  3 39  1  0
  4 40  1  0
  4 41  1  0
  5 42  1  0
  5 43  1  0
  6 44  1  0
  9 45  1  0
 10 46  1  0
 11 47  1  0
 12 48  1  0
 15 49  1  0
 15 50  1  0
 15 51  1  0
 19 52  1  0
 20 53  1  0
 21 54  1  0
 22 55  1  0
 25 56  1  0
 25 57  1  0
 26 58  1  0
 26 59  1  0
 27 60  1  0
 27 61  1  0
 29 62  1  0
 30 63  1  0
 31 64  1  0
 32 65  1  0
 33 66  1  0
M  CHG  1  14   1
M  END
>  <smiles>  (20) 
CN(C)CCNc1c2ccccc2[n+](C)c2c1c1ccccc1n2CCCc1ccccc1

>  <score_type>  (20) 
oracle

>  <origin>  (20) 
adg

>  <m_score__min__energy>  (20) 
-9.3399999999999999

>  <m_primary>  (20) 
energy

$$$$
21:0
     RDKit          3D

 59 62  0  0  0  0  0  0  0  0999 V2000
   -3.4310   21.7210  -29.3180 C   0  0  0  0  0  0  0  0  0  0  0  0
   -4.4040   22.7180  -28.6720 C   0  0  0  0  0  0  0  0  0  0  0  0
   -4.2890   24.0090  -29.2280 N   0  0  0  0  0  0  0  0  0  0  0  0
   -2.9870   24.5460  -29.3240 C   0  0  0  0  0  0  0  0  0  0  0  0
   -2.3410   24.6490  -27.9670 C   0  0  0  0  0  0  0  0  0  0  0  0
   -5.3670   24.8790  -29.2500 C   0  0  0  0  0  0  0  0  0  0  0  0
   -6.2590   24.7870  -30.5150 C   0  0  0  0  0  0  0  0  0  0  0  0
   -5.5950   23.9330  -31.4410 N   0  0  0  0  0  0  0  0  0  0  0  0
   -5.8330   22.6700  -31.9520 C   0  0  0  0  0  0  0  0  0  0  0  0
   -7.0040   21.9730  -32.0380 C   0  0  0  0  0  0  0  0  0  0  0  0
   -8.1560   22.5370  -31.5820 C   0  0  0  0  0  0  0  0  0  0  0  0
   -9.3790   21.9000  -31.6250 C   0  0  0  0  0  0  0  0  0  0  0  0
   -9.4900   20.6360  -32.1430 C   0  0  0  0  0  0  0  0  0  0  0  0
   -8.3310   20.0440  -32.6120 C   0  0  0  0  0  0  0  0  0  0  0  0
   -7.0940   20.6810  -32.5720 C   0  0  0  0  0  0  0  0  0  0  0  0
   -5.9940   20.0640  -33.0340 N   0  0  0  0  0  0  0  0  0  0  0  0
   -6.0310   18.7430  -33.6230 C   0  0  0  0  0  0  0  0  0  0  0  0
   -4.8220   20.6970  -32.9740 C   0  0  0  0  0  0  0  0  0  0  0  0
   -4.7090   21.9630  -32.4550 C   0  0  0  0  0  0  0  0  0  0  0  0
   -3.4480   22.3170  -32.5260 O   0  0  0  0  0  0  0  0  0  0  0  0
   -2.6860   21.4170  -33.0430 C   0  0  0  0  0  0  0  0  0  0  0  0
   -1.3360   21.3900  -33.2890 C   0  0  0  0  0  0  0  0  0  0  0  0
   -0.7520   20.2790  -33.8620 C   0  0  0  0  0  0  0  0  0  0  0  0
    0.6380   20.1850  -34.1400 N   0  0  0  0  0  0  0  0  0  0  0  0
    1.3160   21.2740  -34.7380 C   0  0  0  0  0  0  0  0  0  0  0  0
    2.7680   21.1540  -35.0170 C   0  0  0  0  0  0  0  0  0  0  0  0
    0.7210   22.3350  -35.0340 O   0  0  0  0  0  0  0  0  0  0  0  0
   -1.5590   19.2080  -34.1750 C   0  0  0  0  0  0  0  0  0  0  0  0
   -2.9170   19.2620  -33.9150 C   0  0  0  0  0  0  0  0  0  0  0  0
   -3.5350   20.3480  -33.3490 C   0  0  0  0  0  0  0  0  0  0  0  0
   -2.8940   21.1707  -28.5314 H   0  0  0  0  0  0  0  0  0  0  0  0
   -3.9938   21.0118  -29.9427 H   0  0  0  0  0  0  0  0  0  0  0  0
   -2.7083   22.2664  -29.9427 H   0  0  0  0  0  0  0  0  0  0  0  0
   -5.4324   22.3577  -28.8221 H   0  0  0  0  0  0  0  0  0  0  0  0
   -4.1569   22.7871  -27.6023 H   0  0  0  0  0  0  0  0  0  0  0  0
   -2.3755   23.8932  -29.9643 H   0  0  0  0  0  0  0  0  0  0  0  0
   -3.0566   25.5556  -29.7552 H   0  0  0  0  0  0  0  0  0  0  0  0
   -3.1063   24.5270  -27.1864 H   0  0  0  0  0  0  0  0  0  0  0  0
   -1.5811   23.8607  -27.8619 H   0  0  0  0  0  0  0  0  0  0  0  0
   -1.8639   25.6346  -27.8619 H   0  0  0  0  0  0  0  0  0  0  0  0
   -5.9957   24.6652  -28.3731 H   0  0  0  0  0  0  0  0  0  0  0  0
   -4.9426   25.8938  -29.2468 H   0  0  0  0  0  0  0  0  0  0  0  0
   -7.2412   24.3667  -30.2531 H   0  0  0  0  0  0  0  0  0  0  0  0
   -6.4196   25.7839  -30.9512 H   0  0  0  0  0  0  0  0  0  0  0  0
   -4.6930   24.4090  -31.8310 H   0  0  0  0  0  0  0  0  0  0  0  0
   -8.1094   23.5510  -31.1582 H   0  0  0  0  0  0  0  0  0  0  0  0
  -10.2735   22.4114  -31.2399 H   0  0  0  0  0  0  0  0  0  0  0  0
  -10.4580   20.1152  -32.1840 H   0  0  0  0  0  0  0  0  0  0  0  0
   -8.3893   19.0295  -33.0333 H   0  0  0  0  0  0  0  0  0  0  0  0
   -6.0522   17.9862  -32.8250 H   0  0  0  0  0  0  0  0  0  0  0  0
   -6.9323   18.6444  -34.2459 H   0  0  0  0  0  0  0  0  0  0  0  0
   -5.1367   18.5941  -34.2459 H   0  0  0  0  0  0  0  0  0  0  0  0
   -0.7155   22.2599  -33.0276 H   0  0  0  0  0  0  0  0  0  0  0  0
    1.1120   19.2810  -33.8790 H   0  0  0  0  0  0  0  0  0  0  0  0
    3.3213   21.1083  -34.0674 H   0  0  0  0  0  0  0  0  0  0  0  0
    2.9557   20.2373  -35.5953 H   0  0  0  0  0  0  0  0  0  0  0  0
    3.1037   22.0275  -35.5953 H   0  0  0  0  0  0  0  0  0  0  0  0
   -1.1232   18.3077  -34.6327 H   0  0  0  0  0  0  0  0  0  0  0  0
   -3.5330   18.3887  -34.1757 H   0  0  0  0  0  0  0  0  0  0  0  0
  1  2  1  0
  2  3  1  0
  3  4  1  0
  4  5  1  0
  3  6  1  0
  6  7  1  0
  7  8  1  0
  8  9  1  0
  9 10  2  0
 10 11  1  0
 11 12  2  0
 12 13  1  0
 13 14  2  0
 14 15  1  0
 15 16  2  0
 16 17  1  0
 16 18  1  0
 18 19  2  0
 19 20  1  0
 20 21  1  0
 21 22  2  0
 22 23  1  0
 23 24  1  0
 24 25  1  0
 25 26  1  0
 25 27  2  0
 23 28  2  0
 28 29  1  0
 29 30  2  0
 19  9  1  0
 30 21  1  0
 15 10  1  0
 30 18  1  0
  1 31  1  0
  1 32  1  0
  1 33  1  0
  2 34  1  0
  2 35  1  0
  4 36  1  0
  4 37  1  0
  5 38  1  0
  5 39  1  0
  5 40  1  0
  6 41  1  0
  6 42  1  0
  7 43  1  0
  7 44  1  0
  8 45  1  0
 11 46  1  0
 12 47  1  0
 13 48  1  0
 14 49  1  0
 17 50  1  0
 17 51  1  0
 17 52  1  0
 22 53  1  0
 24 54  1  0
 26 55  1  0
 26 56  1  0
 26 57  1  0
 28 58  1  0
 29 59  1  0
M  CHG  1  16   1
M  END
>  <smiles>  (21) 
CCN(CC)CCNc1c2ccccc2[n+](C)c2c1oc1cc(NC(C)=O)ccc12

>  <score_type>  (21) 
oracle

>  <origin>  (21) 
adg

>  <m_score__min__energy>  (21) 
-9.2400000000000002

>  <m_primary>  (21) 
energy

$$$$
22:0
     RDKit          3D

 43 45  0  0  0  0  0  0  0  0999 V2000
   -3.1710   18.8680  -26.0030 C   0  0  0  0  0  0  0  0  0  0  0  0
   -1.8860   18.5840  -26.7330 C   0  0  0  0  0  0  0  0  0  0  0  0
   -1.4840   19.7910  -27.4630 N   0  0  0  0  0  0  0  0  0  0  0  0
   -1.9710   20.9680  -26.7910 C   0  0  0  0  0  0  0  0  0  0  0  0
   -2.4230   22.0220  -27.7080 C   0  0  0  0  0  0  0  0  0  0  0  0
   -1.6470   22.4970  -28.7490 C   0  0  0  0  0  0  0  0  0  0  0  0
   -2.0690   23.4880  -29.6130 C   0  0  0  0  0  0  0  0  0  0  0  0
   -3.3180   24.0560  -29.4620 C   0  0  0  0  0  0  0  0  0  0  0  0
   -3.7910   25.0820  -30.3270 N   0  0  0  0  0  0  0  0  0  0  0  0
   -5.2220   25.2490  -30.4830 C   0  0  0  0  0  0  0  0  0  0  0  0
   -5.8920   24.0310  -31.0080 C   0  0  0  0  0  0  0  0  0  0  0  0
   -7.2350   23.7730  -30.8450 C   0  0  0  0  0  0  0  0  0  0  0  0
   -7.7270   22.5900  -31.3910 C   0  0  0  0  0  0  0  0  0  0  0  0
   -6.8760   21.7140  -32.0720 C   0  0  0  0  0  0  0  0  0  0  0  0
   -7.3530   20.5280  -32.6220 C   0  0  0  0  0  0  0  0  0  0  0  0
   -6.4800   19.6750  -33.2940 C   0  0  0  0  0  0  0  0  0  0  0  0
   -5.1440   19.9780  -33.4290 C   0  0  0  0  0  0  0  0  0  0  0  0
   -4.6630   21.1670  -32.8780 C   0  0  0  0  0  0  0  0  0  0  0  0
   -5.5240   22.0160  -32.2110 C   0  0  0  0  0  0  0  0  0  0  0  0
   -5.1020   23.1540  -31.6740 N   0  0  0  0  0  0  0  0  0  0  0  0
   -4.0990   23.5800  -28.4190 C   0  0  0  0  0  0  0  0  0  0  0  0
   -3.6760   22.6000  -27.5690 C   0  0  0  0  0  0  0  0  0  0  0  0
   -2.9929   18.8286  -24.9182 H   0  0  0  0  0  0  0  0  0  0  0  0
   -3.5359   19.8685  -26.2786 H   0  0  0  0  0  0  0  0  0  0  0  0
   -3.9235   18.1145  -26.2786 H   0  0  0  0  0  0  0  0  0  0  0  0
   -1.1027   18.3099  -26.0109 H   0  0  0  0  0  0  0  0  0  0  0  0
   -2.0305   17.7508  -27.4365 H   0  0  0  0  0  0  0  0  0  0  0  0
   -1.8410   19.7260  -28.4400 H   0  0  0  0  0  0  0  0  0  0  0  0
   -2.8167   20.6780  -26.1501 H   0  0  0  0  0  0  0  0  0  0  0  0
   -1.1312   21.3809  -26.2128 H   0  0  0  0  0  0  0  0  0  0  0  0
   -0.6461   22.0650  -28.8959 H   0  0  0  0  0  0  0  0  0  0  0  0
   -1.4076   23.8260  -30.4244 H   0  0  0  0  0  0  0  0  0  0  0  0
   -3.0810   25.6710  -30.8100 H   0  0  0  0  0  0  0  0  0  0  0  0
   -5.6559   25.4932  -29.5022 H   0  0  0  0  0  0  0  0  0  0  0  0
   -5.3827   26.0554  -31.2137 H   0  0  0  0  0  0  0  0  0  0  0  0
   -7.8915   24.4720  -30.3062 H   0  0  0  0  0  0  0  0  0  0  0  0
   -8.7937   22.3427  -31.2857 H   0  0  0  0  0  0  0  0  0  0  0  0
   -8.4167   20.2646  -32.5264 H   0  0  0  0  0  0  0  0  0  0  0  0
   -6.8664   18.7399  -33.7257 H   0  0  0  0  0  0  0  0  0  0  0  0
   -4.4667   19.2946  -33.9622 H   0  0  0  0  0  0  0  0  0  0  0  0
   -3.5987   21.4275  -32.9751 H   0  0  0  0  0  0  0  0  0  0  0  0
   -5.1005   24.0103  -28.2711 H   0  0  0  0  0  0  0  0  0  0  0  0
   -4.3402   22.2626  -26.7597 H   0  0  0  0  0  0  0  0  0  0  0  0
  1  2  1  0
  2  3  1  0
  3  4  1  0
  4  5  1  0
  5  6  2  0
  6  7  1  0
  7  8  2  0
  8  9  1  0
  9 10  1  0
 10 11  1  0
 11 12  2  0
 12 13  1  0
 13 14  2  0
 14 15  1  0
 15 16  2  0
 16 17  1  0
 17 18  2  0
 18 19  1  0
 19 20  2  0
  8 21  1  0
 21 22  2  0
 22  5  1  0
 20 11  1  0
 19 14  1  0
  1 23  1  0
  1 24  1  0
  1 25  1  0
  2 26  1  0
  2 27  1  0
  3 28  1  0
  4 29  1  0
  4 30  1  0
  6 31  1  0
  7 32  1  0
  9 33  1  0
 10 34  1  0
 10 35  1  0
 12 36  1  0
 13 37  1  0
 15 38  1  0
 16 39  1  0
 17 40  1  0
 18 41  1  0
 21 42  1  0
 22 43  1  0
M  END
>  <smiles>  (22) 
CCNCc1ccc(NCc2ccc3ccccc3n2)cc1

>  <score_type>  (22) 
oracle

>  <origin>  (22) 
adg

>  <m_score__min__energy>  (22) 
-9.1799999999999997

>  <m_primary>  (22) 
energy

$$$$
23:0
     RDKit          3D

 56 58  0  0  0  0  0  0  0  0999 V2000
   -2.4680   19.0160  -33.4870 C   0  0  0  0  0  0  0  0  0  0  0  0
   -3.1260   17.9670  -34.2870 C   0  0  0  0  0  0  0  0  0  0  0  0
   -3.8080   16.9890  -33.7110 O   0  0  0  0  0  0  0  0  0  0  0  0
   -4.6660   16.1990  -34.3550 C   0  0  0  0  0  0  0  0  0  0  0  0
   -5.6950   15.5340  -33.5240 C   0  0  0  0  0  0  0  0  0  0  0  0
   -6.8490   16.4910  -33.3060 C   0  0  0  0  0  0  0  0  0  0  0  0
   -6.3470   17.8740  -33.2040 N   0  0  0  0  0  0  0  0  0  0  0  0
   -6.8310   18.7950  -32.2660 C   0  0  0  0  0  0  0  0  0  0  0  0
   -7.7340   18.5160  -31.4340 O   0  0  0  0  0  0  0  0  0  0  0  0
   -6.2820   20.1750  -32.2150 C   0  0  0  0  0  0  0  0  0  0  0  0
   -5.5510   20.5860  -33.4530 C   0  0  0  0  0  0  0  0  0  0  0  0
   -4.6130   21.7130  -33.0540 C   0  0  0  0  0  0  0  0  0  0  0  0
   -5.3900   22.5990  -32.1820 N   0  0  0  0  0  0  0  0  0  0  0  0
   -4.7700   23.4440  -31.2190 C   0  0  0  0  0  0  0  0  0  0  0  0
   -3.9750   23.1230  -30.1800 N   0  0  0  0  0  0  0  0  0  0  0  0
   -3.6180   24.2620  -29.5340 C   0  0  0  0  0  0  0  0  0  0  0  0
   -2.7720   24.4170  -28.3580 C   0  0  0  0  0  0  0  0  0  0  0  0
   -1.4140   24.1390  -28.5470 C   0  0  0  0  0  0  0  0  0  0  0  0
   -0.5460   24.2630  -27.4730 C   0  0  0  0  0  0  0  0  0  0  0  0
   -1.0220   24.6550  -26.2390 C   0  0  0  0  0  0  0  0  0  0  0  0
   -0.1660   24.7840  -25.1550 O   0  0  0  0  0  0  0  0  0  0  0  0
   -0.5030   25.6980  -24.1060 C   0  0  0  0  0  0  0  0  0  0  0  0
   -2.3630   24.9240  -26.0700 C   0  0  0  0  0  0  0  0  0  0  0  0
   -3.2540   24.8090  -27.1250 C   0  0  0  0  0  0  0  0  0  0  0  0
   -4.2220   25.2600  -30.2170 N   0  0  0  0  0  0  0  0  0  0  0  0
   -4.9010   24.7490  -31.2150 O   0  0  0  0  0  0  0  0  0  0  0  0
   -6.8290   22.5600  -32.3620 C   0  0  0  0  0  0  0  0  0  0  0  0
   -7.3310   21.2000  -31.9050 C   0  0  0  0  0  0  0  0  0  0  0  0
   -2.6034   18.8001  -32.4169 H   0  0  0  0  0  0  0  0  0  0  0  0
   -1.3940   19.0380  -33.7236 H   0  0  0  0  0  0  0  0  0  0  0  0
   -2.9157   19.9925  -33.7236 H   0  0  0  0  0  0  0  0  0  0  0  0
   -3.8281   18.4823  -34.9590 H   0  0  0  0  0  0  0  0  0  0  0  0
   -2.2720   17.4337  -34.7300 H   0  0  0  0  0  0  0  0  0  0  0  0
   -5.1861   16.8111  -35.1065 H   0  0  0  0  0  0  0  0  0  0  0  0
   -4.0570   15.3851  -34.7752 H   0  0  0  0  0  0  0  0  0  0  0  0
   -6.0569   14.6313  -34.0379 H   0  0  0  0  0  0  0  0  0  0  0  0
   -5.2613   15.2487  -32.5542 H   0  0  0  0  0  0  0  0  0  0  0  0
   -7.5469   16.4186  -34.1532 H   0  0  0  0  0  0  0  0  0  0  0  0
   -7.3660   16.2254  -32.3721 H   0  0  0  0  0  0  0  0  0  0  0  0
   -5.5830   18.2160  -33.8580 H   0  0  0  0  0  0  0  0  0  0  0  0
   -5.5532   20.1373  -31.3919 H   0  0  0  0  0  0  0  0  0  0  0  0
   -4.9757   19.7378  -33.8525 H   0  0  0  0  0  0  0  0  0  0  0  0
   -6.2516   20.9133  -34.2353 H   0  0  0  0  0  0  0  0  0  0  0  0
   -3.7429   21.3122  -32.5133 H   0  0  0  0  0  0  0  0  0  0  0  0
   -4.2318   22.2497  -33.9353 H   0  0  0  0  0  0  0  0  0  0  0  0
   -1.0403   23.8266  -29.5333 H   0  0  0  0  0  0  0  0  0  0  0  0
    0.5247   24.0483  -27.6052 H   0  0  0  0  0  0  0  0  0  0  0  0
   -0.3264   25.2191  -23.1316 H   0  0  0  0  0  0  0  0  0  0  0  0
    0.1219   26.5993  -24.1902 H   0  0  0  0  0  0  0  0  0  0  0  0
   -1.5635   25.9779  -24.1902 H   0  0  0  0  0  0  0  0  0  0  0  0
   -2.7321   25.2351  -25.0816 H   0  0  0  0  0  0  0  0  0  0  0  0
   -4.3231   25.0255  -26.9831 H   0  0  0  0  0  0  0  0  0  0  0  0
   -7.3005   23.3516  -31.7611 H   0  0  0  0  0  0  0  0  0  0  0  0
   -7.0829   22.7215  -33.4200 H   0  0  0  0  0  0  0  0  0  0  0  0
   -7.5212   21.2199  -30.8218 H   0  0  0  0  0  0  0  0  0  0  0  0
   -8.2669   20.9499  -32.4262 H   0  0  0  0  0  0  0  0  0  0  0  0
  1  2  1  0
  2  3  1  0
  3  4  1  0
  4  5  1  0
  5  6  1  0
  6  7  1  0
  7  8  1  0
  8  9  2  0
  8 10  1  0
 10 11  1  0
 11 12  1  0
 12 13  1  0
 13 14  1  0
 14 15  2  0
 15 16  1  0
 16 17  1  0
 17 18  2  0
 18 19  1  0
 19 20  2  0
 20 21  1  0
 21 22  1  0
 20 23  1  0
 23 24  2  0
 16 25  2  0
 25 26  1  0
 13 27  1  0
 27 28  1  0
 28 10  1  0
 26 14  1  0
 24 17  1  0
  1 29  1  0
  1 30  1  0
  1 31  1  0
  2 32  1  0
  2 33  1  0
  4 34  1  0
  4 35  1  0
  5 36  1  0
  5 37  1  0
  6 38  1  0
  6 39  1  0
  7 40  1  0
 10 41  1  0
 11 42  1  0
 11 43  1  0
 12 44  1  0
 12 45  1  0
 18 46  1  0
 19 47  1  0
 22 48  1  0
 22 49  1  0
 22 50  1  0
 23 51  1  0
 24 52  1  0
 27 53  1  0
 27 54  1  0
 28 55  1  0
 28 56  1  0
M  END
>  <smiles>  (23) 
CCOCCCNC(=O)C1CCN(c2nc(-c3ccc(OC)cc3)no2)CC1

>  <score_type>  (23) 
oracle

>  <origin>  (23) 
adg

>  <m_score__min__energy>  (23) 
-7.8099999999999996

>  <m_primary>  (23) 
energy

$$$$
24:0
     RDKit          3D

 42 43  0  0  1  0  0  0  0  0999 V2000
   -8.0020   18.8060  -32.3420 C   0  0  0  0  0  0  0  0  0  0  0  0
   -6.6590   18.1940  -32.4030 N   0  0  0  0  0  0  0  0  0  0  0  0
   -6.4410   17.5770  -31.2000 C   0  0  0  0  0  0  0  0  0  0  0  0
   -6.8100   17.0990  -33.3990 C   0  0  0  0  0  0  0  0  0  0  0  0
   -5.5510   17.0790  -34.2790 C   0  0  0  0  0  0  0  0  0  0  0  0
   -5.5880   18.1090  -35.2330 O   0  0  0  0  0  0  0  0  0  0  0  0
   -6.1280   19.2260  -34.5810 C   0  0  0  0  0  0  0  0  0  0  0  0
   -5.8630   19.0870  -33.0760 C   0  0  0  0  0  0  0  0  0  0  0  0
   -4.8820   19.8510  -32.5750 C   0  0  0  0  0  0  0  0  0  0  0  0
   -4.5780   21.2100  -32.9200 C   0  0  0  0  0  0  0  0  0  0  0  0
   -5.5220   22.2040  -32.3420 C   0  0  0  0  0  0  0  0  0  0  0  0
   -5.0940   23.2160  -31.5180 N   0  0  0  0  0  0  0  0  0  0  0  0
   -5.8720   24.0330  -30.7110 C   0  0  0  0  0  0  0  0  0  0  0  0
   -5.2120   25.4310  -30.7370 C   0  0  0  0  0  0  0  0  0  0  0  0
   -3.8650   25.3180  -30.4800 O   0  0  0  0  0  0  0  0  0  0  0  0
   -3.4380   24.1130  -29.9840 C   0  0  0  0  0  0  0  0  0  0  0  0
   -3.8380   22.9330  -30.8700 C   0  0  0  0  0  0  0  0  0  0  0  0
   -8.2964   18.9402  -31.2907 H   0  0  0  0  0  0  0  0  0  0  0  0
   -7.9824   19.7841  -32.8450 H   0  0  0  0  0  0  0  0  0  0  0  0
   -8.7273   18.1495  -32.8450 H   0  0  0  0  0  0  0  0  0  0  0  0
   -6.6861   18.2708  -30.3823 H   0  0  0  0  0  0  0  0  0  0  0  0
   -7.0777   16.6831  -31.1257 H   0  0  0  0  0  0  0  0  0  0  0  0
   -5.3840   17.2815  -31.1257 H   0  0  0  0  0  0  0  0  0  0  0  0
   -6.9179   16.1351  -32.8802 H   0  0  0  0  0  0  0  0  0  0  0  0
   -7.7047   17.2658  -34.0168 H   0  0  0  0  0  0  0  0  0  0  0  0
   -4.6643   17.2107  -33.6415 H   0  0  0  0  0  0  0  0  0  0  0  0
   -5.5067   16.1144  -34.8059 H   0  0  0  0  0  0  0  0  0  0  0  0
   -5.6510   20.1425  -34.9586 H   0  0  0  0  0  0  0  0  0  0  0  0
   -7.2102   19.2854  -34.7691 H   0  0  0  0  0  0  0  0  0  0  0  0
   -4.2385   19.3840  -31.8148 H   0  0  0  0  0  0  0  0  0  0  0  0
   -3.5659   21.4415  -32.5567 H   0  0  0  0  0  0  0  0  0  0  0  0
   -4.6620   21.2883  -34.0140 H   0  0  0  0  0  0  0  0  0  0  0  0
   -6.0191   22.6896  -33.1947 H   0  0  0  0  0  0  0  0  0  0  0  0
   -6.1215   21.5851  -31.6582 H   0  0  0  0  0  0  0  0  0  0  0  0
   -6.8979   24.0896  -31.1039 H   0  0  0  0  0  0  0  0  0  0  0  0
   -5.9311   23.6396  -29.6854 H   0  0  0  0  0  0  0  0  0  0  0  0
   -5.3573   25.8845  -31.7286 H   0  0  0  0  0  0  0  0  0  0  0  0
   -5.6757   26.0647  -29.9666 H   0  0  0  0  0  0  0  0  0  0  0  0
   -2.3413   24.1353  -29.9021 H   0  0  0  0  0  0  0  0  0  0  0  0
   -3.9172   23.9693  -29.0043 H   0  0  0  0  0  0  0  0  0  0  0  0
   -3.0622   22.7686  -31.6323 H   0  0  0  0  0  0  0  0  0  0  0  0
   -3.9433   22.0308  -30.2496 H   0  0  0  0  0  0  0  0  0  0  0  0
  1  2  1  0
  2  3  1  0
  2  4  1  0
  4  5  1  0
  5  6  1  0
  6  7  1  0
  7  8  1  0
  8  9  2  0
  9 10  1  0
 10 11  1  0
 11 12  1  0
 12 13  1  0
 13 14  1  0
 14 15  1  0
 15 16  1  0
 16 17  1  0
  8  2  1  0
 17 12  1  0
  1 18  1  0
  1 19  1  0
  1 20  1  0
  3 21  1  0
  3 22  1  0
  3 23  1  0
  4 24  1  0
  4 25  1  0
  5 26  1  0
  5 27  1  0
  7 28  1  0
  7 29  1  0
  9 30  1  0
 10 31  1  0
 10 32  1  0
 11 33  1  0
 11 34  1  0
 13 35  1  0
 13 36  1  0
 14 37  1  0
 14 38  1  0
 16 39  1  0
 16 40  1  0
 17 41  1  0
 17 42  1  0
M  CHG  1   2   1
M  END
>  <smiles>  (24) 
C[N+]1(C)CCOCC1=CCCN1CCOCC1

>  <score_type>  (24) 
oracle

>  <origin>  (24) 
adg

>  <m_score__min__energy>  (24) 
-6.6500000000000004

>  <m_primary>  (24) 
energy

$$$$
25:0
     RDKit          3D

 50 53  0  0  0  0  0  0  0  0999 V2000
   -6.1230   25.3840  -29.8270 C   0  0  0  0  0  0  0  0  0  0  0  0
   -5.0760   24.9690  -30.8440 C   0  0  0  0  0  0  0  0  0  0  0  0
   -4.2070   23.9710  -30.4160 N   0  0  0  0  0  0  0  0  0  0  0  0
   -3.0780   24.2760  -29.6360 C   0  0  0  0  0  0  0  0  0  0  0  0
   -4.3180   22.6280  -30.8560 C   0  0  0  0  0  0  0  0  0  0  0  0
   -3.6240   22.3100  -32.1630 C   0  0  0  0  0  0  0  0  0  0  0  0
   -4.5890   21.9070  -33.1510 N   0  0  0  0  0  0  0  0  0  0  0  0
   -5.6890   21.0580  -32.9390 C   0  0  0  0  0  0  0  0  0  0  0  0
   -6.9230   21.5630  -32.5220 C   0  0  0  0  0  0  0  0  0  0  0  0
   -7.1380   22.9140  -32.3350 C   0  0  0  0  0  0  0  0  0  0  0  0
   -8.3600   23.4150  -31.9250 C   0  0  0  0  0  0  0  0  0  0  0  0
   -9.4270   22.5780  -31.6840 C   0  0  0  0  0  0  0  0  0  0  0  0
   -9.2270   21.2280  -31.8670 C   0  0  0  0  0  0  0  0  0  0  0  0
   -8.0030   20.7350  -32.2770 C   0  0  0  0  0  0  0  0  0  0  0  0
   -7.9070   19.4080  -32.4310 N   0  0  0  0  0  0  0  0  0  0  0  0
   -9.0560   18.5500  -32.1690 C   0  0  0  0  0  0  0  0  0  0  0  0
   -6.7430   18.8690  -32.8290 C   0  0  0  0  0  0  0  0  0  0  0  0
   -6.7150   17.5280  -32.9520 N   0  0  0  0  0  0  0  0  0  0  0  0
   -5.5770   16.9230  -33.3340 C   0  0  0  0  0  0  0  0  0  0  0  0
   -5.5280   15.5540  -33.4640 C   0  0  0  0  0  0  0  0  0  0  0  0
   -4.3350   14.9850  -33.8590 C   0  0  0  0  0  0  0  0  0  0  0  0
   -3.2520   15.7890  -34.1060 C   0  0  0  0  0  0  0  0  0  0  0  0
   -3.3090   17.1590  -33.9740 C   0  0  0  0  0  0  0  0  0  0  0  0
   -4.4970   17.7400  -33.5800 C   0  0  0  0  0  0  0  0  0  0  0  0
   -4.5170   19.0710  -33.4610 N   0  0  0  0  0  0  0  0  0  0  0  0
   -5.6470   19.6770  -33.0820 C   0  0  0  0  0  0  0  0  0  0  0  0
   -5.7298   25.2282  -28.8115 H   0  0  0  0  0  0  0  0  0  0  0  0
   -6.3681   26.4473  -29.9661 H   0  0  0  0  0  0  0  0  0  0  0  0
   -7.0300   24.7774  -29.9661 H   0  0  0  0  0  0  0  0  0  0  0  0
   -5.5971   24.6062  -31.7422 H   0  0  0  0  0  0  0  0  0  0  0  0
   -4.4564   25.8588  -31.0295 H   0  0  0  0  0  0  0  0  0  0  0  0
   -3.3391   24.2055  -28.5698 H   0  0  0  0  0  0  0  0  0  0  0  0
   -2.2715   23.5635  -29.8639 H   0  0  0  0  0  0  0  0  0  0  0  0
   -2.7400   25.2977  -29.8639 H   0  0  0  0  0  0  0  0  0  0  0  0
   -3.8882   21.9800  -30.0779 H   0  0  0  0  0  0  0  0  0  0  0  0
   -5.3899   22.4567  -31.0343 H   0  0  0  0  0  0  0  0  0  0  0  0
   -3.0911   23.2041  -32.5187 H   0  0  0  0  0  0  0  0  0  0  0  0
   -2.9108   21.4884  -32.0008 H   0  0  0  0  0  0  0  0  0  0  0  0
   -4.4460   22.3030  -34.1110 H   0  0  0  0  0  0  0  0  0  0  0  0
   -6.3101   23.6148  -32.5182 H   0  0  0  0  0  0  0  0  0  0  0  0
   -8.4819   24.4997  -31.7891 H   0  0  0  0  0  0  0  0  0  0  0  0
  -10.4007   22.9725  -31.3581 H   0  0  0  0  0  0  0  0  0  0  0  0
  -10.0566   20.5294  -31.6835 H   0  0  0  0  0  0  0  0  0  0  0  0
   -9.1957   18.4457  -31.0829 H   0  0  0  0  0  0  0  0  0  0  0  0
   -9.9571   18.9981  -32.6132 H   0  0  0  0  0  0  0  0  0  0  0  0
   -8.8823   17.5588  -32.6132 H   0  0  0  0  0  0  0  0  0  0  0  0
   -6.4124   14.9328  -33.2594 H   0  0  0  0  0  0  0  0  0  0  0  0
   -4.2531   13.8942  -33.9750 H   0  0  0  0  0  0  0  0  0  0  0  0
   -2.3058   15.3243  -34.4201 H   0  0  0  0  0  0  0  0  0  0  0  0
   -2.4235   17.7786  -34.1790 H   0  0  0  0  0  0  0  0  0  0  0  0
  1  2  1  0
  2  3  1  0
  3  4  1  0
  3  5  1  0
  5  6  1  0
  6  7  1  0
  7  8  1  0
  8  9  2  0
  9 10  1  0
 10 11  2  0
 11 12  1  0
 12 13  2  0
 13 14  1  0
 14 15  2  0
 15 16  1  0
 15 17  1  0
 17 18  2  0
 18 19  1  0
 19 20  2  0
 20 21  1  0
 21 22  2  0
 22 23  1  0
 23 24  2  0
 24 25  1  0
 25 26  2  0
 26  8  1  0
 14  9  1  0
 26 17  1  0
 24 19  1  0
  1 27  1  0
  1 28  1  0
  1 29  1  0
  2 30  1  0
  2 31  1  0
  4 32  1  0
  4 33  1  0
  4 34  1  0
  5 35  1  0
  5 36  1  0
  6 37  1  0
  6 38  1  0
  7 39  1  0
 10 40  1  0
 11 41  1  0
 12 42  1  0
 13 43  1  0
 16 44  1  0
 16 45  1  0
 16 46  1  0
 20 47  1  0
 21 48  1  0
 22 49  1  0
 23 50  1  0
M  CHG  1  15   1
M  END
>  <smiles>  (25) 
CCN(C)CCNc1c2ccccc2[n+](C)c2nc3ccccc3nc12

>  <score_type>  (25) 
oracle

>  <origin>  (25) 
adg

>  <m_score__min__energy>  (25) 
-8.7100000000000009

>  <m_primary>  (25) 
energy

$$$$
26:0
     RDKit          3D

 63 65  0  0  0  0  0  0  0  0999 V2000
   -6.8740   24.9320  -29.9000 C   0  0  0  0  0  0  0  0  0  0  0  0
   -5.4740   25.3950  -30.1460 C   0  0  0  0  0  0  0  0  0  0  0  0
   -4.6140   24.5170  -30.8670 N   0  0  0  0  0  0  0  0  0  0  0  0
   -3.6100   23.8930  -30.0450 C   0  0  0  0  0  0  0  0  0  0  0  0
   -4.0820   23.2820  -28.7740 C   0  0  0  0  0  0  0  0  0  0  0  0
   -5.3310   23.5630  -31.6770 C   0  0  0  0  0  0  0  0  0  0  0  0
   -4.5270   22.4650  -32.2480 C   0  0  0  0  0  0  0  0  0  0  0  0
   -4.4950   21.1840  -31.5290 N   0  0  0  0  0  0  0  0  0  0  0  0
   -5.0310   20.0930  -32.3110 C   0  0  0  0  0  0  0  0  0  0  0  0
   -6.3980   19.9630  -32.2540 C   0  0  0  0  0  0  0  0  0  0  0  0
   -7.1760   20.9780  -31.7560 C   0  0  0  0  0  0  0  0  0  0  0  0
   -8.5490   20.9500  -31.6920 C   0  0  0  0  0  0  0  0  0  0  0  0
   -9.1680   19.8180  -32.1680 C   0  0  0  0  0  0  0  0  0  0  0  0
   -8.4170   18.7800  -32.6780 C   0  0  0  0  0  0  0  0  0  0  0  0
   -7.0460   18.8450  -32.7270 C   0  0  0  0  0  0  0  0  0  0  0  0
   -6.2730   17.8790  -33.2540 N   0  0  0  0  0  0  0  0  0  0  0  0
   -6.8580   16.6570  -33.7590 C   0  0  0  0  0  0  0  0  0  0  0  0
   -4.9200   17.9870  -33.3300 C   0  0  0  0  0  0  0  0  0  0  0  0
   -4.2410   16.9510  -33.9210 C   0  0  0  0  0  0  0  0  0  0  0  0
   -2.8820   17.0610  -34.0370 C   0  0  0  0  0  0  0  0  0  0  0  0
   -2.2260   18.1820  -33.5780 C   0  0  0  0  0  0  0  0  0  0  0  0
   -0.3340   18.2080  -33.8260 Br  0  0  0  0  0  0  0  0  0  0  0  0
   -2.9040   19.2580  -32.9700 C   0  0  0  0  0  0  0  0  0  0  0  0
   -2.0970   20.3770  -32.7070 N   0  0  0  0  0  0  0  0  0  0  0  0
   -1.4970   20.4110  -31.3480 C   0  0  0  0  0  0  0  0  0  0  0  0
   -1.1600   21.7100  -30.7810 C   0  0  0  0  0  0  0  0  0  0  0  0
   -1.8230   21.5360  -33.4900 C   0  0  0  0  0  0  0  0  0  0  0  0
   -0.4720   21.5480  -34.1810 C   0  0  0  0  0  0  0  0  0  0  0  0
   -4.2530   19.1290  -32.8510 C   0  0  0  0  0  0  0  0  0  0  0  0
   -7.0553   24.8720  -28.8167 H   0  0  0  0  0  0  0  0  0  0  0  0
   -7.5804   25.6444  -30.3511 H   0  0  0  0  0  0  0  0  0  0  0  0
   -7.0164   23.9389  -30.3511 H   0  0  0  0  0  0  0  0  0  0  0  0
   -5.5317   26.3379  -30.7095 H   0  0  0  0  0  0  0  0  0  0  0  0
   -5.0226   25.4754  -29.1461 H   0  0  0  0  0  0  0  0  0  0  0  0
   -3.1347   23.1001  -30.6412 H   0  0  0  0  0  0  0  0  0  0  0  0
   -2.9321   24.7055  -29.7445 H   0  0  0  0  0  0  0  0  0  0  0  0
   -3.6565   23.8328  -27.9222 H   0  0  0  0  0  0  0  0  0  0  0  0
   -5.1801   23.3297  -28.7298 H   0  0  0  0  0  0  0  0  0  0  0  0
   -3.7585   22.2316  -28.7298 H   0  0  0  0  0  0  0  0  0  0  0  0
   -6.1172   23.1145  -31.0520 H   0  0  0  0  0  0  0  0  0  0  0  0
   -5.7104   24.1317  -32.5387 H   0  0  0  0  0  0  0  0  0  0  0  0
   -4.9182   22.2639  -33.2562 H   0  0  0  0  0  0  0  0  0  0  0  0
   -3.4909   22.8313  -32.2004 H   0  0  0  0  0  0  0  0  0  0  0  0
   -4.0940   21.1360  -30.6150 H   0  0  0  0  0  0  0  0  0  0  0  0
   -6.6650   21.8773  -31.3817 H   0  0  0  0  0  0  0  0  0  0  0  0
   -9.1245   21.7921  -31.2801 H   0  0  0  0  0  0  0  0  0  0  0  0
  -10.2649   19.7403  -32.1419 H   0  0  0  0  0  0  0  0  0  0  0  0
   -8.9269   17.8806  -33.0536 H   0  0  0  0  0  0  0  0  0  0  0  0
   -7.1628   16.0204  -32.9153 H   0  0  0  0  0  0  0  0  0  0  0  0
   -7.7383   16.8983  -34.3730 H   0  0  0  0  0  0  0  0  0  0  0  0
   -6.1180   16.1226  -34.3730 H   0  0  0  0  0  0  0  0  0  0  0  0
   -4.7721   16.0610  -34.2895 H   0  0  0  0  0  0  0  0  0  0  0  0
   -2.3075   16.2460  -34.5015 H   0  0  0  0  0  0  0  0  0  0  0  0
   -2.2112   19.9306  -30.6631 H   0  0  0  0  0  0  0  0  0  0  0  0
   -0.5287   19.9019  -31.4626 H   0  0  0  0  0  0  0  0  0  0  0  0
   -1.1765   21.6462  -29.6830 H   0  0  0  0  0  0  0  0  0  0  0  0
   -0.1551   22.0067  -31.1160 H   0  0  0  0  0  0  0  0  0  0  0  0
   -1.8939   22.4578  -31.1160 H   0  0  0  0  0  0  0  0  0  0  0  0
   -2.6010   21.6150  -34.2636 H   0  0  0  0  0  0  0  0  0  0  0  0
   -1.8124   22.3821  -32.7871 H   0  0  0  0  0  0  0  0  0  0  0  0
    0.3267   21.5551  -33.4246 H   0  0  0  0  0  0  0  0  0  0  0  0
   -0.3737   20.6507  -34.8096 H   0  0  0  0  0  0  0  0  0  0  0  0
   -0.3897   22.4469  -34.8096 H   0  0  0  0  0  0  0  0  0  0  0  0
  1  2  1  0
  2  3  1  0
  3  4  1  0
  4  5  1  0
  3  6  1  0
  6  7  1  0
  7  8  1  0
  8  9  1  0
  9 10  2  0
 10 11  1  0
 11 12  2  0
 12 13  1  0
 13 14  2  0
 14 15  1  0
 15 16  2  0
 16 17  1  0
 16 18  1  0
 18 19  2  0
 19 20  1  0
 20 21  2  0
 21 22  1  0
 21 23  1  0
 23 24  1  0
 24 25  1  0
 25 26  1  0
 24 27  1  0
 27 28  1  0
 23 29  2  0
 29  9  1  0
 15 10  1  0
 29 18  1  0
  1 30  1  0
  1 31  1  0
  1 32  1  0
  2 33  1  0
  2 34  1  0
  4 35  1  0
  4 36  1  0
  5 37  1  0
  5 38  1  0
  5 39  1  0
  6 40  1  0
  6 41  1  0
  7 42  1  0
  7 43  1  0
  8 44  1  0
 11 45  1  0
 12 46  1  0
 13 47  1  0
 14 48  1  0
 17 49  1  0
 17 50  1  0
 17 51  1  0
 19 52  1  0
 20 53  1  0
 25 54  1  0
 25 55  1  0
 26 56  1  0
 26 57  1  0
 26 58  1  0
 27 59  1  0
 27 60  1  0
 28 61  1  0
 28 62  1  0
 28 63  1  0
M  CHG  1  16   1
M  END
>  <smiles>  (26) 
CCN(CC)CCNc1c2ccccc2[n+](C)c2ccc(Br)c(N(CC)CC)c12

>  <score_type>  (26) 
oracle

>  <origin>  (26) 
adg

>  <m_score__min__energy>  (26) 
-8.0500000000000007

>  <m_primary>  (26) 
energy

$$$$
27:0
     RDKit          3D

 61 64  0  0  0  0  0  0  0  0999 V2000
   -6.1760   24.6140  -29.7260 C   0  0  0  0  0  0  0  0  0  0  0  0
   -5.5250   25.7710  -30.4770 C   0  0  0  0  0  0  0  0  0  0  0  0
   -4.1330   25.6460  -30.4720 O   0  0  0  0  0  0  0  0  0  0  0  0
   -3.5050   24.5200  -29.9930 C   0  0  0  0  0  0  0  0  0  0  0  0
   -2.9080   24.4550  -28.7400 C   0  0  0  0  0  0  0  0  0  0  0  0
   -2.2990   23.2800  -28.3420 C   0  0  0  0  0  0  0  0  0  0  0  0
   -2.2630   22.1660  -29.1480 C   0  0  0  0  0  0  0  0  0  0  0  0
   -1.6320   20.9090  -28.7660 C   0  0  0  0  0  0  0  0  0  0  0  0
   -1.5490   20.4920  -27.4560 C   0  0  0  0  0  0  0  0  0  0  0  0
   -0.9330   19.2790  -27.1440 C   0  0  0  0  0  0  0  0  0  0  0  0
   -0.4000   18.4880  -28.1520 C   0  0  0  0  0  0  0  0  0  0  0  0
    0.1650   17.3920  -27.9430 O   0  0  0  0  0  0  0  0  0  0  0  0
   -0.5210   18.9660  -29.4140 N   0  0  0  0  0  0  0  0  0  0  0  0
    0.0100   18.2110  -30.5580 C   0  0  0  0  0  0  0  0  0  0  0  0
   -0.2790   18.8720  -31.8770 C   0  0  0  0  0  0  0  0  0  0  0  0
   -1.2210   18.0790  -32.7380 C   0  0  0  0  0  0  0  0  0  0  0  0
   -2.1790   18.8280  -33.4680 N   0  0  0  0  0  0  0  0  0  0  0  0
   -3.3940   18.1840  -33.8120 C   0  0  0  0  0  0  0  0  0  0  0  0
   -4.5080   18.3650  -32.7810 C   0  0  0  0  0  0  0  0  0  0  0  0
   -4.7970   19.7970  -32.7840 N   0  0  0  0  0  0  0  0  0  0  0  0
   -6.0850   20.3240  -32.5080 C   0  0  0  0  0  0  0  0  0  0  0  0
   -6.2830   21.6440  -32.1470 C   0  0  0  0  0  0  0  0  0  0  0  0
   -7.5140   22.1820  -31.8710 C   0  0  0  0  0  0  0  0  0  0  0  0
   -8.6350   21.3880  -31.9490 C   0  0  0  0  0  0  0  0  0  0  0  0
   -9.8260   21.9480  -31.6720 F   0  0  0  0  0  0  0  0  0  0  0  0
   -8.4820   20.0530  -32.3090 C   0  0  0  0  0  0  0  0  0  0  0  0
   -7.2320   19.5310  -32.5830 C   0  0  0  0  0  0  0  0  0  0  0  0
   -3.7320   20.7090  -33.0760 C   0  0  0  0  0  0  0  0  0  0  0  0
   -2.3600   20.1420  -32.9570 C   0  0  0  0  0  0  0  0  0  0  0  0
   -1.1030   20.1080  -29.7030 N   0  0  0  0  0  0  0  0  0  0  0  0
   -2.8660   22.2680  -30.3850 C   0  0  0  0  0  0  0  0  0  0  0  0
   -3.4870   23.4110  -30.8360 C   0  0  0  0  0  0  0  0  0  0  0  0
   -6.0821   24.7809  -28.6428 H   0  0  0  0  0  0  0  0  0  0  0  0
   -7.2404   24.5538  -29.9968 H   0  0  0  0  0  0  0  0  0  0  0  0
   -5.6750   23.6729  -29.9968 H   0  0  0  0  0  0  0  0  0  0  0  0
   -5.8831   25.7727  -31.5171 H   0  0  0  0  0  0  0  0  0  0  0  0
   -5.7960   26.7125  -29.9769 H   0  0  0  0  0  0  0  0  0  0  0  0
   -2.9200   25.3291  -28.0723 H   0  0  0  0  0  0  0  0  0  0  0  0
   -1.8280   23.2342  -27.3490 H   0  0  0  0  0  0  0  0  0  0  0  0
   -1.9692   21.1164  -26.6537 H   0  0  0  0  0  0  0  0  0  0  0  0
   -0.8699   18.9492  -26.0965 H   0  0  0  0  0  0  0  0  0  0  0  0
    1.1000   18.1185  -30.4426 H   0  0  0  0  0  0  0  0  0  0  0  0
   -0.4845   17.2284  -30.5646 H   0  0  0  0  0  0  0  0  0  0  0  0
   -0.7266   19.8581  -31.6841 H   0  0  0  0  0  0  0  0  0  0  0  0
    0.6741   18.9524  -32.4202 H   0  0  0  0  0  0  0  0  0  0  0  0
   -0.6177   17.5099  -33.4606 H   0  0  0  0  0  0  0  0  0  0  0  0
   -1.8013   17.4540  -32.0433 H   0  0  0  0  0  0  0  0  0  0  0  0
   -3.7419   18.5924  -34.7723 H   0  0  0  0  0  0  0  0  0  0  0  0
   -3.1794   17.1063  -33.8624 H   0  0  0  0  0  0  0  0  0  0  0  0
   -5.3999   17.7900  -33.0706 H   0  0  0  0  0  0  0  0  0  0  0  0
   -4.2112   18.0055  -31.7847 H   0  0  0  0  0  0  0  0  0  0  0  0
   -5.4029   22.3001  -32.0772 H   0  0  0  0  0  0  0  0  0  0  0  0
   -7.6045   23.2414  -31.5891 H   0  0  0  0  0  0  0  0  0  0  0  0
   -9.3677   19.4042  -32.3765 H   0  0  0  0  0  0  0  0  0  0  0  0
   -7.1389   18.4719  -32.8652 H   0  0  0  0  0  0  0  0  0  0  0  0
   -3.8639   21.0668  -34.1078 H   0  0  0  0  0  0  0  0  0  0  0  0
   -3.7986   21.5070  -32.3218 H   0  0  0  0  0  0  0  0  0  0  0  0
   -1.6725   20.8099  -33.4967 H   0  0  0  0  0  0  0  0  0  0  0  0
   -2.1639   20.0683  -31.8771 H   0  0  0  0  0  0  0  0  0  0  0  0
   -2.8496   21.3890  -31.0461 H   0  0  0  0  0  0  0  0  0  0  0  0
   -3.9544   23.4474  -31.8311 H   0  0  0  0  0  0  0  0  0  0  0  0
  1  2  1  0
  2  3  1  0
  3  4  1  0
  4  5  2  0
  5  6  1  0
  6  7  2  0
  7  8  1  0
  8  9  1  0
  9 10  2  0
 10 11  1  0
 11 12  2  0
 11 13  1  0
 13 14  1  0
 14 15  1  0
 15 16  1  0
 16 17  1  0
 17 18  1  0
 18 19  1  0
 19 20  1  0
 20 21  1  0
 21 22  2  0
 22 23  1  0
 23 24  2  0
 24 25  1  0
 24 26  1  0
 26 27  2  0
 20 28  1  0
 28 29  1  0
 13 30  1  0
  7 31  1  0
 31 32  2  0
 32  4  1  0
 30  8  2  0
 29 17  1  0
 27 21  1  0
  1 33  1  0
  1 34  1  0
  1 35  1  0
  2 36  1  0
  2 37  1  0
  5 38  1  0
  6 39  1  0
  9 40  1  0
 10 41  1  0
 14 42  1  0
 14 43  1  0
 15 44  1  0
 15 45  1  0
 16 46  1  0
 16 47  1  0
 18 48  1  0
 18 49  1  0
 19 50  1  0
 19 51  1  0
 22 52  1  0
 23 53  1  0
 26 54  1  0
 27 55  1  0
 28 56  1  0
 28 57  1  0
 29 58  1  0
 29 59  1  0
 31 60  1  0
 32 61  1  0
M  END
>  <smiles>  (27) 
CCOc1ccc(-c2ccc(=O)n(CCCN3CCN(c4ccc(F)cc4)CC3)n2)cc1

>  <score_type>  (27) 
oracle

>  <origin>  (27) 
adg

>  <m_score__min__energy>  (27) 
-9.9299999999999997

>  <m_primary>  (27) 
energy

$$$$
28:0
     RDKit          3D

 61 64  0  0  0  0  0  0  0  0999 V2000
   -4.0620   13.2760  -30.9150 C   0  0  0  0  0  0  0  0  0  0  0  0
   -4.5720   13.9490  -32.1640 C   0  0  0  0  0  0  0  0  0  0  0  0
   -4.5050   12.9960  -33.3200 N   0  0  0  0  0  0  0  0  0  0  0  0
   -5.6250   13.1120  -34.1740 C   0  0  0  0  0  0  0  0  0  0  0  0
   -6.7470   12.1380  -33.7940 C   0  0  0  0  0  0  0  0  0  0  0  0
   -3.2020   13.1430  -33.8020 C   0  0  0  0  0  0  0  0  0  0  0  0
   -2.3820   14.3700  -33.7100 C   0  0  0  0  0  0  0  0  0  0  0  0
   -2.8890   15.2200  -34.8510 N   0  0  0  0  0  0  0  0  0  0  0  0
   -3.6810   16.3840  -34.5390 C   0  0  0  0  0  0  0  0  0  0  0  0
   -5.0270   16.3160  -34.5080 C   0  0  0  0  0  0  0  0  0  0  0  0
   -5.8750   17.3730  -34.1560 C   0  0  0  0  0  0  0  0  0  0  0  0
   -5.2530   18.5520  -33.8280 C   0  0  0  0  0  0  0  0  0  0  0  0
   -3.8670   18.6310  -33.8670 C   0  0  0  0  0  0  0  0  0  0  0  0
   -3.0510   17.5600  -34.2160 C   0  0  0  0  0  0  0  0  0  0  0  0
   -3.4540   20.0080  -33.5130 C   0  0  0  0  0  0  0  0  0  0  0  0
   -4.7200   20.5490  -32.9480 C   0  0  0  0  0  0  0  0  0  0  0  0
   -4.7970   21.7490  -32.2000 C   0  0  0  0  0  0  0  0  0  0  0  0
   -6.0560   22.1650  -31.7100 C   0  0  0  0  0  0  0  0  0  0  0  0
   -6.3150   23.2850  -30.9700 N   0  0  0  0  0  0  0  0  0  0  0  0
   -6.5660   24.3980  -30.2380 C   0  0  0  0  0  0  0  0  0  0  0  0
   -5.7300   25.6080  -30.2220 C   0  0  0  0  0  0  0  0  0  0  0  0
   -4.3730   25.6440  -30.5610 N   0  0  0  0  0  0  0  0  0  0  0  0
   -7.1600   21.3310  -32.0380 C   0  0  0  0  0  0  0  0  0  0  0  0
   -8.4350   21.6690  -31.5970 C   0  0  0  0  0  0  0  0  0  0  0  0
   -9.5460   20.9080  -31.8720 C   0  0  0  0  0  0  0  0  0  0  0  0
   -9.4450   19.7260  -32.6410 C   0  0  0  0  0  0  0  0  0  0  0  0
   -8.1310   19.4780  -33.0400 C   0  0  0  0  0  0  0  0  0  0  0  0
   -7.0230   20.1880  -32.7830 C   0  0  0  0  0  0  0  0  0  0  0  0
   -5.7760   19.7950  -33.2340 C   0  0  0  0  0  0  0  0  0  0  0  0
   -4.4569   13.7971  -30.0304 H   0  0  0  0  0  0  0  0  0  0  0  0
   -4.3943   12.2275  -30.9017 H   0  0  0  0  0  0  0  0  0  0  0  0
   -2.9627   13.3124  -30.9017 H   0  0  0  0  0  0  0  0  0  0  0  0
   -5.6150   14.2626  -32.0096 H   0  0  0  0  0  0  0  0  0  0  0  0
   -3.9482   14.8283  -32.3825 H   0  0  0  0  0  0  0  0  0  0  0  0
   -6.0123   14.1397  -34.1126 H   0  0  0  0  0  0  0  0  0  0  0  0
   -5.2975   12.8677  -35.1953 H   0  0  0  0  0  0  0  0  0  0  0  0
   -6.8212   12.0736  -32.6984 H   0  0  0  0  0  0  0  0  0  0  0  0
   -7.7011   12.4991  -34.2055 H   0  0  0  0  0  0  0  0  0  0  0  0
   -6.5235   11.1427  -34.2055 H   0  0  0  0  0  0  0  0  0  0  0  0
   -2.6153   12.3634  -33.2941 H   0  0  0  0  0  0  0  0  0  0  0  0
   -3.3955   13.1233  -34.8847 H   0  0  0  0  0  0  0  0  0  0  0  0
   -2.5367   14.8747  -32.7449 H   0  0  0  0  0  0  0  0  0  0  0  0
   -1.3023   14.1692  -33.7725 H   0  0  0  0  0  0  0  0  0  0  0  0
   -2.6370   14.9260  -35.8060 H   0  0  0  0  0  0  0  0  0  0  0  0
   -5.4942   15.3579  -34.7797 H   0  0  0  0  0  0  0  0  0  0  0  0
   -6.9697   17.2656  -34.1431 H   0  0  0  0  0  0  0  0  0  0  0  0
   -1.9549   17.6509  -34.2324 H   0  0  0  0  0  0  0  0  0  0  0  0
   -2.6462   20.0079  -32.7664 H   0  0  0  0  0  0  0  0  0  0  0  0
   -3.0483   20.5896  -34.3539 H   0  0  0  0  0  0  0  0  0  0  0  0
   -3.8942   22.3461  -32.0040 H   0  0  0  0  0  0  0  0  0  0  0  0
   -4.9890   23.6030  -30.9790 H   0  0  0  0  0  0  0  0  0  0  0  0
   -7.5641   24.7363  -30.5532 H   0  0  0  0  0  0  0  0  0  0  0  0
   -6.3750   24.0140  -29.2250 H   0  0  0  0  0  0  0  0  0  0  0  0
   -6.2230   26.3157  -30.9047 H   0  0  0  0  0  0  0  0  0  0  0  0
   -5.6721   25.7982  -29.1401 H   0  0  0  0  0  0  0  0  0  0  0  0
   -4.1440   25.7010  -31.6050 H   0  0  0  0  0  0  0  0  0  0  0  0
   -3.8630   26.4690  -30.0860 H   0  0  0  0  0  0  0  0  0  0  0  0
   -8.5597   22.5857  -31.0019 H   0  0  0  0  0  0  0  0  0  0  0  0
  -10.5276   21.2231  -31.4883 H   0  0  0  0  0  0  0  0  0  0  0  0
  -10.2987   19.0801  -32.8941 H   0  0  0  0  0  0  0  0  0  0  0  0
   -7.9838   18.5746  -33.6501 H   0  0  0  0  0  0  0  0  0  0  0  0
  1  2  1  0
  2  3  1  0
  3  4  1  0
  4  5  1  0
  3  6  1  0
  6  7  1  0
  7  8  1  0
  8  9  1  0
  9 10  2  0
 10 11  1  0
 11 12  2  0
 12 13  1  0
 13 14  2  0
 13 15  1  0
 15 16  1  0
 16 17  2  0
 17 18  1  0
 18 19  1  0
 19 20  1  0
 20 21  1  0
 21 22  1  0
 18 23  2  0
 23 24  1  0
 24 25  2  0
 25 26  1  0
 26 27  2  0
 27 28  1  0
 28 29  2  0
 14  9  1  0
 29 16  1  0
 29 12  1  0
 28 23  1  0
  1 30  1  0
  1 31  1  0
  1 32  1  0
  2 33  1  0
  2 34  1  0
  4 35  1  0
  4 36  1  0
  5 37  1  0
  5 38  1  0
  5 39  1  0
  6 40  1  0
  6 41  1  0
  7 42  1  0
  7 43  1  0
  8 44  1  0
 10 45  1  0
 11 46  1  0
 14 47  1  0
 15 48  1  0
 15 49  1  0
 17 50  1  0
 19 51  1  0
 20 52  1  0
 20 53  1  0
 21 54  1  0
 21 55  1  0
 22 56  1  0
 22 57  1  0
 24 58  1  0
 25 59  1  0
 26 60  1  0
 27 61  1  0
M  END
>  <smiles>  (28) 
CCN(CC)CCNc1ccc2c(c1)Cc1cc(NCCN)c3ccccc3c1-2

>  <score_type>  (28) 
oracle

>  <origin>  (28) 
adg

>  <m_score__min__energy>  (28) 
-9.2799999999999994

>  <m_primary>  (28) 
energy

$$$$
29:0
     RDKit          3D

 39 41  0  0  0  0  0  0  0  0999 V2000
   -6.1830   17.5030  -33.9390 C   0  0  0  0  0  0  0  0  0  0  0  0
   -5.7270   18.7470  -34.6740 C   0  0  0  0  0  0  0  0  0  0  0  0
   -5.4600   19.7990  -33.7390 N   0  0  0  0  0  0  0  0  0  0  0  0
   -4.2680   20.3060  -33.4690 N   0  0  0  0  0  0  0  0  0  0  0  0
   -4.3550   21.2920  -32.5380 C   0  0  0  0  0  0  0  0  0  0  0  0
   -3.2630   22.1200  -31.9620 C   0  0  0  0  0  0  0  0  0  0  0  0
   -5.6700   21.3860  -32.2260 C   0  0  0  0  0  0  0  0  0  0  0  0
   -6.3680   22.1830  -31.3700 C   0  0  0  0  0  0  0  0  0  0  0  0
   -5.8040   23.1680  -30.5240 N   0  0  0  0  0  0  0  0  0  0  0  0
   -6.2270   24.5610  -30.5090 C   0  0  0  0  0  0  0  0  0  0  0  0
   -5.0460   25.3530  -31.0080 C   0  0  0  0  0  0  0  0  0  0  0  0
   -3.8170   24.9070  -30.4350 N   0  0  0  0  0  0  0  0  0  0  0  0
   -3.9420   24.1130  -29.2510 C   0  0  0  0  0  0  0  0  0  0  0  0
   -4.7180   22.8490  -29.5740 C   0  0  0  0  0  0  0  0  0  0  0  0
   -7.7240   22.0330  -31.2830 N   0  0  0  0  0  0  0  0  0  0  0  0
   -8.3870   21.1200  -32.0210 C   0  0  0  0  0  0  0  0  0  0  0  0
   -9.8750   20.9850  -31.9000 C   0  0  0  0  0  0  0  0  0  0  0  0
   -7.7080   20.3120  -32.8840 N   0  0  0  0  0  0  0  0  0  0  0  0
   -6.3570   20.4540  -32.9770 C   0  0  0  0  0  0  0  0  0  0  0  0
   -6.1202   17.6743  -32.8542 H   0  0  0  0  0  0  0  0  0  0  0  0
   -7.2232   17.2749  -34.2146 H   0  0  0  0  0  0  0  0  0  0  0  0
   -5.5366   16.6567  -34.2146 H   0  0  0  0  0  0  0  0  0  0  0  0
   -4.8108   18.5208  -35.2391 H   0  0  0  0  0  0  0  0  0  0  0  0
   -6.5208   19.0700  -35.3636 H   0  0  0  0  0  0  0  0  0  0  0  0
   -3.3139   22.0814  -30.8639 H   0  0  0  0  0  0  0  0  0  0  0  0
   -2.2909   21.7300  -32.2980 H   0  0  0  0  0  0  0  0  0  0  0  0
   -3.3762   23.1613  -32.2980 H   0  0  0  0  0  0  0  0  0  0  0  0
   -7.0930   24.7057  -31.1716 H   0  0  0  0  0  0  0  0  0  0  0  0
   -6.5331   24.8808  -29.5020 H   0  0  0  0  0  0  0  0  0  0  0  0
   -4.9857   25.2484  -32.1014 H   0  0  0  0  0  0  0  0  0  0  0  0
   -5.1946   26.4025  -30.7140 H   0  0  0  0  0  0  0  0  0  0  0  0
   -3.1100   25.6640  -30.3230 H   0  0  0  0  0  0  0  0  0  0  0  0
   -2.9414   23.8453  -28.8808 H   0  0  0  0  0  0  0  0  0  0  0  0
   -4.4757   24.6856  -28.4781 H   0  0  0  0  0  0  0  0  0  0  0  0
   -4.0414   22.1085  -30.0255 H   0  0  0  0  0  0  0  0  0  0  0  0
   -5.1484   22.4362  -28.6497 H   0  0  0  0  0  0  0  0  0  0  0  0
  -10.1556   20.9595  -30.8367 H   0  0  0  0  0  0  0  0  0  0  0  0
  -10.3618   21.8427  -32.3873 H   0  0  0  0  0  0  0  0  0  0  0  0
  -10.1995   20.0537  -32.3873 H   0  0  0  0  0  0  0  0  0  0  0  0
  1  2  1  0
  2  3  1  0
  3  4  1  0
  4  5  2  0
  5  6  1  0
  5  7  1  0
  7  8  2  0
  8  9  1  0
  9 10  1  0
 10 11  1  0
 11 12  1  0
 12 13  1  0
 13 14  1  0
  8 15  1  0
 15 16  2  0
 16 17  1  0
 16 18  1  0
 18 19  2  0
 19  3  1  0
 19  7  1  0
 14  9  1  0
  1 20  1  0
  1 21  1  0
  1 22  1  0
  2 23  1  0
  2 24  1  0
  6 25  1  0
  6 26  1  0
  6 27  1  0
 10 28  1  0
 10 29  1  0
 11 30  1  0
 11 31  1  0
 12 32  1  0
 13 33  1  0
 13 34  1  0
 14 35  1  0
 14 36  1  0
 17 37  1  0
 17 38  1  0
 17 39  1  0
M  END
>  <smiles>  (29) 
CCn1nc(C)c2c(N3CCNCC3)nc(C)nc21

>  <score_type>  (29) 
oracle

>  <origin>  (29) 
adg

>  <m_score__min__energy>  (29) 
-7.5499999999999998

>  <m_primary>  (29) 
energy

$$$$
30:0
     RDKit          3D

 50 51  0  0  1  0  0  0  0  0999 V2000
   -6.4540   25.2990  -29.7720 C   0  0  0  0  0  0  0  0  0  0  0  0
   -5.0820   24.6700  -29.8780 C   0  0  0  0  0  0  0  0  0  0  0  0
   -4.8540   24.1400  -31.2130 N   0  0  0  0  0  0  0  0  0  0  0  0
   -6.1240   24.1490  -31.9630 C   0  0  0  0  0  0  0  0  0  0  0  0
   -4.5430   22.7150  -31.0700 C   0  0  0  0  0  0  0  0  0  0  0  0
   -3.5200   22.2350  -32.0020 C   0  0  0  0  0  0  0  0  0  0  0  0
   -2.8600   21.0880  -31.9090 C   0  0  0  0  0  0  0  0  0  0  0  0
   -3.0370   19.9500  -32.8530 C   0  0  0  0  0  0  0  0  0  0  0  0
   -4.3730   19.3970  -32.8460 N   0  0  0  0  0  0  0  0  0  0  0  0
   -4.3440   17.9860  -32.8460 C   0  0  0  0  0  0  0  0  0  0  0  0
   -5.4320   17.3390  -33.6750 C   0  0  0  0  0  0  0  0  0  0  0  0
   -6.6850   18.0650  -33.5180 N   0  0  0  0  0  0  0  0  0  0  0  0
   -7.0400   18.2870  -32.1500 C   0  0  0  0  0  0  0  0  0  0  0  0
   -7.8890   19.4920  -31.9990 C   0  0  0  0  0  0  0  0  0  0  0  0
   -9.1530   19.6260  -32.4980 C   0  0  0  0  0  0  0  0  0  0  0  0
   -9.8560   20.8090  -32.2930 C   0  0  0  0  0  0  0  0  0  0  0  0
   -9.2990   21.8740  -31.5850 C   0  0  0  0  0  0  0  0  0  0  0  0
   -8.0280   21.7390  -31.0850 C   0  0  0  0  0  0  0  0  0  0  0  0
   -7.3220   20.5520  -31.2890 C   0  0  0  0  0  0  0  0  0  0  0  0
   -6.4610   19.3310  -34.1820 C   0  0  0  0  0  0  0  0  0  0  0  0
   -5.2450   20.0680  -33.7320 C   0  0  0  0  0  0  0  0  0  0  0  0
   -6.7204   25.4211  -28.7118 H   0  0  0  0  0  0  0  0  0  0  0  0
   -6.4452   26.2830  -30.2636 H   0  0  0  0  0  0  0  0  0  0  0  0
   -7.1938   24.6501  -30.2636 H   0  0  0  0  0  0  0  0  0  0  0  0
   -4.3191   25.4313  -29.6580 H   0  0  0  0  0  0  0  0  0  0  0  0
   -5.0191   23.8421  -29.1565 H   0  0  0  0  0  0  0  0  0  0  0  0
   -6.9671   24.1550  -31.2564 H   0  0  0  0  0  0  0  0  0  0  0  0
   -6.1697   25.0475  -32.5959 H   0  0  0  0  0  0  0  0  0  0  0  0
   -6.1824   23.2512  -32.5959 H   0  0  0  0  0  0  0  0  0  0  0  0
   -4.1869   22.5393  -30.0442 H   0  0  0  0  0  0  0  0  0  0  0  0
   -5.4665   22.1620  -31.2966 H   0  0  0  0  0  0  0  0  0  0  0  0
   -3.2771   22.8842  -32.8561 H   0  0  0  0  0  0  0  0  0  0  0  0
   -2.1395   20.9706  -31.0861 H   0  0  0  0  0  0  0  0  0  0  0  0
   -2.8117   20.3031  -33.8701 H   0  0  0  0  0  0  0  0  0  0  0  0
   -2.3545   19.1509  -32.5280 H   0  0  0  0  0  0  0  0  0  0  0  0
   -3.3705   17.6618  -33.2425 H   0  0  0  0  0  0  0  0  0  0  0  0
   -4.5105   17.6683  -31.8061 H   0  0  0  0  0  0  0  0  0  0  0  0
   -5.1363   17.3501  -34.7344 H   0  0  0  0  0  0  0  0  0  0  0  0
   -5.5734   16.3026  -33.3346 H   0  0  0  0  0  0  0  0  0  0  0  0
   -7.5920   17.4116  -31.7772 H   0  0  0  0  0  0  0  0  0  0  0  0
   -6.1158   18.4410  -31.5738 H   0  0  0  0  0  0  0  0  0  0  0  0
   -9.6142   18.8008  -33.0605 H   0  0  0  0  0  0  0  0  0  0  0  0
  -10.8739   20.9067  -32.6983 H   0  0  0  0  0  0  0  0  0  0  0  0
   -9.8670   22.8033  -31.4305 H   0  0  0  0  0  0  0  0  0  0  0  0
   -7.5662   22.5650  -30.5242 H   0  0  0  0  0  0  0  0  0  0  0  0
   -6.3042   20.4504  -30.8844 H   0  0  0  0  0  0  0  0  0  0  0  0
   -6.3648   19.1390  -35.2608 H   0  0  0  0  0  0  0  0  0  0  0  0
   -7.3205   19.9691  -33.9290 H   0  0  0  0  0  0  0  0  0  0  0  0
   -4.6663   20.3306  -34.6299 H   0  0  0  0  0  0  0  0  0  0  0  0
   -5.6292   20.9235  -33.1571 H   0  0  0  0  0  0  0  0  0  0  0  0
  1  2  1  0
  2  3  1  0
  3  4  1  0
  3  5  1  0
  5  6  1  0
  6  7  2  0
  7  8  1  0
  8  9  1  0
  9 10  1  0
 10 11  1  0
 11 12  1  0
 12 13  1  0
 13 14  1  0
 14 15  2  0
 15 16  1  0
 16 17  2  0
 17 18  1  0
 18 19  2  0
 12 20  1  0
 20 21  1  0
 21  9  1  0
 19 14  1  0
  1 22  1  0
  1 23  1  0
  1 24  1  0
  2 25  1  0
  2 26  1  0
  4 27  1  0
  4 28  1  0
  4 29  1  0
  5 30  1  0
  5 31  1  0
  6 32  1  0
  7 33  1  0
  8 34  1  0
  8 35  1  0
 10 36  1  0
 10 37  1  0
 11 38  1  0
 11 39  1  0
 13 40  1  0
 13 41  1  0
 15 42  1  0
 16 43  1  0
 17 44  1  0
 18 45  1  0
 19 46  1  0
 20 47  1  0
 20 48  1  0
 21 49  1  0
 21 50  1  0
M  END
>  <smiles>  (30) 
CCN(C)CC=CCN1CCN(Cc2ccccc2)CC1

>  <score_type>  (30) 
oracle

>  <origin>  (30) 
adg

>  <m_score__min__energy>  (30) 
-7.5899999999999999

>  <m_primary>  (30) 
energy

$$$$
