0:0
     RDKit          3D

 69 72  0  0  0  0  0  0  0  0999 V2000
    0.0930   20.6791  -28.7968 H   0  0  0  0  0  0  0  0  0  0  0  0
   -0.7510   21.3790  -28.8850 C   0  0  0  0  0  0  0  0  0  0  0  0
   -2.0600   20.9000  -28.8520 C   0  0  0  0  0  0  0  0  0  0  0  0
   -2.2474   19.8217  -28.7414 H   0  0  0  0  0  0  0  0  0  0  0  0
   -3.1330   21.7860  -28.9590 C   0  0  0  0  0  0  0  0  0  0  0  0
   -4.1626   21.3995  -28.9374 H   0  0  0  0  0  0  0  0  0  0  0  0
   -2.9110   23.1670  -29.0940 C   0  0  0  0  0  0  0  0  0  0  0  0
   -4.0980   24.0930  -29.2120 C   0  0  0  0  0  0  0  0  0  0  0  0
   -5.0146   23.4980  -29.3374 H   0  0  0  0  0  0  0  0  0  0  0  0
   -4.1751   24.7036  -28.3003 H   0  0  0  0  0  0  0  0  0  0  0  0
   -3.9260   24.9740  -30.3730 N   0  0  0  0  0  0  0  0  0  0  0  0
   -3.3930   24.4440  -31.1030 H   0  0  0  0  0  0  0  0  0  0  0  0
   -5.2300   25.3360  -30.9380 C   0  0  0  0  0  0  0  0  0  0  0  0
   -5.8501   25.7924  -30.1524 H   0  0  0  0  0  0  0  0  0  0  0  0
   -5.0739   26.0481  -31.7618 H   0  0  0  0  0  0  0  0  0  0  0  0
   -5.9440   24.0960  -31.4860 C   0  0  0  0  0  0  0  0  0  0  0  0
   -6.1973   24.2690  -32.5424 H   0  0  0  0  0  0  0  0  0  0  0  0
   -5.2668   23.2360  -31.3768 H   0  0  0  0  0  0  0  0  0  0  0  0
   -7.2330   23.7890  -30.7100 C   0  0  0  0  0  0  0  0  0  0  0  0
   -7.0197   23.8213  -29.6314 H   0  0  0  0  0  0  0  0  0  0  0  0
   -7.9897   24.5417  -30.9764 H   0  0  0  0  0  0  0  0  0  0  0  0
   -7.7760   22.4020  -31.0720 C   0  0  0  0  0  0  0  0  0  0  0  0
   -7.0497   21.8889  -31.7194 H   0  0  0  0  0  0  0  0  0  0  0  0
   -7.9330   21.8334  -30.1436 H   0  0  0  0  0  0  0  0  0  0  0  0
   -9.1170   22.5130  -31.8110 C   0  0  0  0  0  0  0  0  0  0  0  0
   -9.7491   23.2448  -31.2866 H   0  0  0  0  0  0  0  0  0  0  0  0
   -8.9043   22.8279  -32.8433 H   0  0  0  0  0  0  0  0  0  0  0  0
   -9.8660   21.1730  -31.8770 C   0  0  0  0  0  0  0  0  0  0  0  0
  -10.7183   21.2107  -31.1826 H   0  0  0  0  0  0  0  0  0  0  0  0
  -10.1967   21.0259  -32.9158 H   0  0  0  0  0  0  0  0  0  0  0  0
   -8.9720   19.9780  -31.4970 C   0  0  0  0  0  0  0  0  0  0  0  0
   -8.1846   20.3276  -30.8130 H   0  0  0  0  0  0  0  0  0  0  0  0
   -9.6079   19.2182  -31.0191 H   0  0  0  0  0  0  0  0  0  0  0  0
   -8.3110   19.3360  -32.7260 C   0  0  0  0  0  0  0  0  0  0  0  0
   -7.7356   18.4593  -32.3938 H   0  0  0  0  0  0  0  0  0  0  0  0
   -9.1177   19.0656  -33.4232 H   0  0  0  0  0  0  0  0  0  0  0  0
   -7.3630   20.2840  -33.4770 C   0  0  0  0  0  0  0  0  0  0  0  0
   -7.9296   20.8265  -34.2481 H   0  0  0  0  0  0  0  0  0  0  0  0
   -6.9260   20.9929  -32.7583 H   0  0  0  0  0  0  0  0  0  0  0  0
   -6.2800   19.5280  -34.1160 N   0  0  0  0  0  0  0  0  0  0  0  0
   -5.1950   18.9440  -33.6620 C   0  0  0  0  0  0  0  0  0  0  0  0
   -4.1650   19.7900  -33.1840 C   0  0  0  0  0  0  0  0  0  0  0  0
   -4.3910   21.1620  -32.9290 C   0  0  0  0  0  0  0  0  0  0  0  0
   -5.3983   21.5826  -33.0649 H   0  0  0  0  0  0  0  0  0  0  0  0
   -3.3470   21.9890  -32.5060 C   0  0  0  0  0  0  0  0  0  0  0  0
   -3.5387   23.0523  -32.2995 H   0  0  0  0  0  0  0  0  0  0  0  0
   -2.0630   21.4700  -32.3450 C   0  0  0  0  0  0  0  0  0  0  0  0
   -1.2440   22.1247  -32.0123 H   0  0  0  0  0  0  0  0  0  0  0  0
   -1.8150   20.1220  -32.6050 C   0  0  0  0  0  0  0  0  0  0  0  0
   -0.7984   19.7198  -32.4832 H   0  0  0  0  0  0  0  0  0  0  0  0
   -2.8570   19.2740  -33.0220 C   0  0  0  0  0  0  0  0  0  0  0  0
   -2.5990   17.9670  -33.2910 N   0  0  0  0  0  0  0  0  0  0  0  0
   -1.6190   17.6110  -33.1930 H   0  0  0  0  0  0  0  0  0  0  0  0
   -3.5930   17.0910  -33.6050 C   0  0  0  0  0  0  0  0  0  0  0  0
   -3.2920   15.7250  -33.7440 C   0  0  0  0  0  0  0  0  0  0  0  0
   -2.2438   15.3919  -33.7272 H   0  0  0  0  0  0  0  0  0  0  0  0
   -4.3130   14.7900  -33.9030 C   0  0  0  0  0  0  0  0  0  0  0  0
   -3.9310   13.0840  -34.0470 Cl  0  0  0  0  0  0  0  0  0  0  0  0
   -5.6430   15.2060  -33.8730 C   0  0  0  0  0  0  0  0  0  0  0  0
   -6.4521   14.4638  -33.9401 H   0  0  0  0  0  0  0  0  0  0  0  0
   -5.9500   16.5630  -33.7580 C   0  0  0  0  0  0  0  0  0  0  0  0
   -7.0027   16.8744  -33.6887 H   0  0  0  0  0  0  0  0  0  0  0  0
   -4.9350   17.5420  -33.7290 C   0  0  0  0  0  0  0  0  0  0  0  0
   -1.5780   23.6530  -29.1410 C   0  0  0  0  0  0  0  0  0  0  0  0
   -1.2880   25.0480  -29.3050 N   0  0  0  0  0  0  0  0  0  0  0  0
   -1.9880   25.6840  -29.7480 H   0  0  0  0  0  0  0  0  0  0  0  0
   -0.3970   25.4790  -28.9760 H   0  0  0  0  0  0  0  0  0  0  0  0
   -0.5110   22.7470  -29.0300 C   0  0  0  0  0  0  0  0  0  0  0  0
    0.5240   23.1185  -29.0575 H   0  0  0  0  0  0  0  0  0  0  0  0
  1  2  1  0
  2  3  2  0
  3  4  1  0
  3  5  1  0
  5  6  1  0
  5  7  2  0
  7  8  1  0
  8  9  1  0
  8 10  1  0
  8 11  1  0
 11 12  1  0
 11 13  1  0
 13 14  1  0
 13 15  1  0
 13 16  1  0
 16 17  1  0
 16 18  1  0
 16 19  1  0
 19 20  1  0
 19 21  1  0
 19 22  1  0
 22 23  1  0
 22 24  1  0
 22 25  1  0
 25 26  1  0
 25 27  1  0
 25 28  1  0
 28 29  1  0
 28 30  1  0
 28 31  1  0
 31 32  1  0
 31 33  1  0
 31 34  1  0
 34 35  1  0
 34 36  1  0
 34 37  1  0
 37 38  1  0
 37 39  1  0
 37 40  1  0
 40 41  2  0
 41 42  1  0
 42 43  2  0
 43 44  1  0
 43 45  1  0
 45 46  1  0
 45 47  2  0
 47 48  1  0
 47 49  1  0
 49 50  1  0
 49 51  2  0
 51 52  1  0
 52 53  1  0
 52 54  1  0
 54 55  2  0
 55 56  1  0
 55 57  1  0
 57 58  1  0
 57 59  2  0
 59 60  1  0
 59 61  1  0
 61 62  1  0
 61 63  2  0
  7 64  1  0
 64 65  1  0
 65 66  1  0
 65 67  1  0
 64 68  2  0
 68 69  1  0
 68  2  1  0
 63 41  1  0
 51 42  1  0
 63 54  1  0
M  END
>  <UniqueID>  (1) 
1

>  <SMILES>  (1) 
Nc1ccccc1CNCCCCCCCCC/N=c1/c2ccccc2[nH]c2cc(Cl)ccc12

>  <Energy>  (1) 
88.28042291428889

>  <Genealogy>  (1) 
Nc1ccccc1CNCCCCCCCCC/N=c1/c2ccccc2[nH]c2cc(Cl)ccc12 (cis-trans isomerization)
Nc1ccccc1CNCCCCCCCCC/N=c1/c2ccccc2[nH]c2cc(Cl)ccc12 (3D coordinates assigned)
Nc1ccccc1CNCCCCCCCCC/N=c1/c2ccccc2[nH]c2cc(Cl)ccc12 (optimized conformer: 88.28042291428889 kcal/mol)

>  <smiles>  (1) 
Nc1ccccc1CNCCCCCCCCCN=c1c2ccccc2[nH]c2cc(Cl)ccc12

>  <score_type>  (1) 
oracle

>  <origin>  (1) 
adg

>  <m_score__min__energy>  (1) 
-10.16

>  <m_primary>  (1) 
energy

$$$$
1:0
     RDKit          3D

 23 25  0  0  0  0  0  0  0  0999 V2000
   -1.3560   25.7210  -29.8780 H   0  0  0  0  0  0  0  0  0  0  0  0
   -2.1080   25.2300  -29.3430 N   0  0  0  0  0  0  0  0  0  0  0  0
   -3.1110   24.6830  -29.9470 C   0  0  0  0  0  0  0  0  0  0  0  0
   -3.1040   23.3900  -30.3540 N   0  0  0  0  0  0  0  0  0  0  0  0
   -4.3190   23.2590  -30.9120 C   0  0  0  0  0  0  0  0  0  0  0  0
   -5.0000   24.4370  -30.8390 C   0  0  0  0  0  0  0  0  0  0  0  0
   -4.2570   25.3580  -30.2060 N   0  0  0  0  0  0  0  0  0  0  0  0
   -6.4380   24.5690  -31.2380 C   0  0  0  0  0  0  0  0  0  0  0  0
   -6.6148   25.5859  -31.6183 H   0  0  0  0  0  0  0  0  0  0  0  0
   -7.0674   24.3746  -30.3571 H   0  0  0  0  0  0  0  0  0  0  0  0
   -6.7990   23.5450  -32.3410 C   0  0  0  0  0  0  0  0  0  0  0  0
   -6.4577   23.9417  -33.3085 H   0  0  0  0  0  0  0  0  0  0  0  0
   -7.8896   23.4056  -32.3063 H   0  0  0  0  0  0  0  0  0  0  0  0
   -6.1670   22.1730  -32.1330 C   0  0  0  0  0  0  0  0  0  0  0  0
   -6.7660   21.0320  -32.6880 C   0  0  0  0  0  0  0  0  0  0  0  0
   -7.7322   21.1177  -33.2068 H   0  0  0  0  0  0  0  0  0  0  0  0
   -6.1390   19.7860  -32.5840 C   0  0  0  0  0  0  0  0  0  0  0  0
   -6.6213   18.8933  -33.0089 H   0  0  0  0  0  0  0  0  0  0  0  0
   -4.9030   19.6700  -31.9430 C   0  0  0  0  0  0  0  0  0  0  0  0
   -4.4151   18.6872  -31.8655 H   0  0  0  0  0  0  0  0  0  0  0  0
   -4.2850   20.8000  -31.4000 C   0  0  0  0  0  0  0  0  0  0  0  0
   -3.3099   20.7081  -30.8993 H   0  0  0  0  0  0  0  0  0  0  0  0
   -4.9110   22.0510  -31.4950 C   0  0  0  0  0  0  0  0  0  0  0  0
  1  2  1  0
  2  3  2  0
  3  4  1  0
  4  5  1  0
  5  6  2  0
  6  7  1  0
  6  8  1  0
  8  9  1  0
  8 10  1  0
  8 11  1  0
 11 12  1  0
 11 13  1  0
 11 14  1  0
 14 15  2  0
 15 16  1  0
 15 17  1  0
 17 18  1  0
 17 19  2  0
 19 20  1  0
 19 21  1  0
 21 22  1  0
 21 23  2  0
  7  3  1  0
 23 14  1  0
 23  5  1  0
M  CHG  2   4  -1   7  -1
M  END
>  <UniqueID>  (2) 
2

>  <SMILES>  (2) 
[H]/N=c1/[n-]c2c([n-]1)-c1ccccc1CC2

>  <Energy>  (2) 
58.42792190868765

>  <Genealogy>  (2) 
N=c1[n-]c2c([n-]1)-c1ccccc1CC2 (protonated)
[H]/N=c1/[n-]c2c([n-]1)-c1ccccc1CC2 (cis-trans isomerization)
[H]/N=c1/[n-]c2c([n-]1)-c1ccccc1CC2 (3D coordinates assigned)
[H]/N=c1/[n-]c2c([n-]1)-c1ccccc1CC2 (nonaromatic ring conformer: 58.42792190868765 kcal/mol)

>  <smiles>  (2) 
N=c1[nH]c2c([nH]1)-c1ccccc1CC2

>  <score_type>  (2) 
oracle

>  <origin>  (2) 
adg

>  <m_score__min__energy>  (2) 
-9.1500000000000004

>  <m_primary>  (2) 
energy

$$$$
2:0
     RDKit          3D

 30 31  0  0  0  0  0  0  0  0999 V2000
   -9.1910   20.5750  -31.9820 C   0  0  0  0  0  0  0  0  0  0  0  0
   -8.6620   21.7980  -31.8900 C   0  0  0  0  0  0  0  0  0  0  0  0
   -7.8330   22.2160  -30.7090 C   0  0  0  0  0  0  0  0  0  0  0  0
   -7.3360   23.9660  -30.8560 S   0  0  0  0  0  0  0  0  0  0  0  0
   -5.5990   23.5910  -31.0670 C   0  0  0  0  0  0  0  0  0  0  0  0
   -4.6050   24.4680  -30.8350 N   0  0  0  0  0  0  0  0  0  0  0  0
   -3.4820   23.8410  -31.1480 N   0  0  0  0  0  0  0  0  0  0  0  0
   -3.8410   22.6080  -31.5560 C   0  0  0  0  0  0  0  0  0  0  0  0
   -2.8850   21.5860  -32.0790 C   0  0  0  0  0  0  0  0  0  0  0  0
   -3.3620   21.0660  -33.3610 N   0  0  0  0  0  0  0  0  0  0  0  0
   -4.3090   19.9880  -33.4940 C   0  0  0  0  0  0  0  0  0  0  0  0
   -3.8500   18.7130  -33.8660 C   0  0  0  0  0  0  0  0  0  0  0  0
   -4.7490   17.6540  -34.0270 C   0  0  0  0  0  0  0  0  0  0  0  0
   -6.1140   17.8550  -33.8120 C   0  0  0  0  0  0  0  0  0  0  0  0
   -6.5820   19.1150  -33.4290 C   0  0  0  0  0  0  0  0  0  0  0  0
   -5.6870   20.1760  -33.2660 C   0  0  0  0  0  0  0  0  0  0  0  0
   -5.1400   22.4450  -31.5010 O   0  0  0  0  0  0  0  0  0  0  0  0
   -9.7934   20.3010  -32.8607 H   0  0  0  0  0  0  0  0  0  0  0  0
   -9.0243   19.8418  -31.1791 H   0  0  0  0  0  0  0  0  0  0  0  0
   -8.8383   22.5192  -32.7016 H   0  0  0  0  0  0  0  0  0  0  0  0
   -8.4222   22.0841  -29.7895 H   0  0  0  0  0  0  0  0  0  0  0  0
   -6.9271   21.5930  -30.6748 H   0  0  0  0  0  0  0  0  0  0  0  0
   -1.8969   22.0488  -32.2183 H   0  0  0  0  0  0  0  0  0  0  0  0
   -2.8104   20.7584  -31.3583 H   0  0  0  0  0  0  0  0  0  0  0  0
   -3.0640   21.5770  -34.2240 H   0  0  0  0  0  0  0  0  0  0  0  0
   -2.7754   18.5467  -34.0318 H   0  0  0  0  0  0  0  0  0  0  0  0
   -4.3802   16.6610  -34.3235 H   0  0  0  0  0  0  0  0  0  0  0  0
   -6.8205   17.0222  -33.9440 H   0  0  0  0  0  0  0  0  0  0  0  0
   -7.6568   19.2719  -33.2555 H   0  0  0  0  0  0  0  0  0  0  0  0
   -6.0604   21.1638  -32.9579 H   0  0  0  0  0  0  0  0  0  0  0  0
  1  2  2  0
  2  3  1  0
  3  4  1  0
  4  5  1  0
  5  6  2  0
  6  7  1  0
  7  8  2  0
  8  9  1  0
  9 10  1  0
 10 11  1  0
 11 12  2  0
 12 13  1  0
 13 14  2  0
 14 15  1  0
 15 16  2  0
  8 17  1  0
 17  5  1  0
 16 11  1  0
  1 18  1  0
  1 19  1  0
  2 20  1  0
  3 21  1  0
  3 22  1  0
  9 23  1  0
  9 24  1  0
 10 25  1  0
 12 26  1  0
 13 27  1  0
 14 28  1  0
 15 29  1  0
 16 30  1  0
M  END
>  <UniqueID>  (3) 
3

>  <SMILES>  (3) 
C=CCSc1nnc(CNc2ccccc2)o1

>  <Energy>  (3) 
55.99390278272257

>  <Genealogy>  (3) 
C=CCSc1nnc(CNc2ccccc2)o1 (3D coordinates assigned)
C=CCSc1nnc(CNc2ccccc2)o1 (optimized conformer: 55.99390278272257 kcal/mol)

>  <smiles>  (3) 
C=CCSc1nnc(CNc2ccccc2)o1

>  <score_type>  (3) 
oracle

>  <origin>  (3) 
adg

>  <m_score__min__energy>  (3) 
-6.9400000000000004

>  <m_primary>  (3) 
energy

$$$$
3:0
     RDKit          3D

 31 32  0  0  0  0  0  0  0  0999 V2000
   -7.8303   23.7723  -29.5492 H   0  0  0  0  0  0  0  0  0  0  0  0
   -7.1770   23.5940  -30.4160 C   0  0  0  0  0  0  0  0  0  0  0  0
   -7.7230   23.1050  -31.5390 C   0  0  0  0  0  0  0  0  0  0  0  0
   -8.4939   23.7040  -32.0460 H   0  0  0  0  0  0  0  0  0  0  0  0
   -7.3440   21.8000  -32.1350 C   0  0  0  0  0  0  0  0  0  0  0  0
   -8.2690   20.7480  -32.0930 C   0  0  0  0  0  0  0  0  0  0  0  0
   -9.2542   20.9084  -31.6307 H   0  0  0  0  0  0  0  0  0  0  0  0
   -7.9540   19.4970  -32.6320 C   0  0  0  0  0  0  0  0  0  0  0  0
   -8.6972   18.6869  -32.5951 H   0  0  0  0  0  0  0  0  0  0  0  0
   -6.6960   19.2610  -33.2220 C   0  0  0  0  0  0  0  0  0  0  0  0
   -6.3680   17.9620  -33.7840 N   0  0  0  0  0  0  0  0  0  0  0  0
   -6.8250   16.7290  -33.1300 C   0  0  0  0  0  0  0  0  0  0  0  0
   -6.7786   16.8542  -32.0381 H   0  0  0  0  0  0  0  0  0  0  0  0
   -7.8615   16.5168  -33.4310 H   0  0  0  0  0  0  0  0  0  0  0  0
   -6.1772   15.8925  -33.4310 H   0  0  0  0  0  0  0  0  0  0  0  0
   -5.5730   17.8610  -35.0140 C   0  0  0  0  0  0  0  0  0  0  0  0
   -4.5124   17.7263  -34.7551 H   0  0  0  0  0  0  0  0  0  0  0  0
   -5.9186   16.9995  -35.6043 H   0  0  0  0  0  0  0  0  0  0  0  0
   -5.6922   18.7815  -35.6043 H   0  0  0  0  0  0  0  0  0  0  0  0
   -5.7630   20.3170  -33.2460 C   0  0  0  0  0  0  0  0  0  0  0  0
   -4.7719   20.1553  -33.6950 H   0  0  0  0  0  0  0  0  0  0  0  0
   -6.0800   21.5670  -32.7070 C   0  0  0  0  0  0  0  0  0  0  0  0
   -5.3347   22.3757  -32.7303 H   0  0  0  0  0  0  0  0  0  0  0  0
   -5.7390   23.9040  -30.2900 C   0  0  0  0  0  0  0  0  0  0  0  0
   -4.7780   22.9690  -30.4320 N   0  0  0  0  0  0  0  0  0  0  0  0
   -3.6260   23.6460  -30.2400 C   0  0  0  0  0  0  0  0  0  0  0  0
   -2.6306   23.1802  -30.2877 H   0  0  0  0  0  0  0  0  0  0  0  0
   -3.8260   24.9520  -29.9840 N   0  0  0  0  0  0  0  0  0  0  0  0
   -3.0990   25.6780  -29.8010 H   0  0  0  0  0  0  0  0  0  0  0  0
   -5.1560   25.1260  -30.0130 C   0  0  0  0  0  0  0  0  0  0  0  0
   -5.6884   26.0739  -29.8458 H   0  0  0  0  0  0  0  0  0  0  0  0
  1  2  1  0
  2  3  2  0
  3  4  1  0
  3  5  1  0
  5  6  2  0
  6  7  1  0
  6  8  1  0
  8  9  1  0
  8 10  2  0
 10 11  1  0
 11 12  1  0
 12 13  1  0
 12 14  1  0
 12 15  1  0
 11 16  1  0
 16 17  1  0
 16 18  1  0
 16 19  1  0
 10 20  1  0
 20 21  1  0
 20 22  2  0
 22 23  1  0
  2 24  1  0
 24 25  1  0
 25 26  2  0
 26 27  1  0
 26 28  1  0
 28 29  1  0
 28 30  1  0
 30 31  1  0
 22  5  1  0
 30 24  2  0
M  END
>  <UniqueID>  (4) 
4

>  <SMILES>  (4) 
CN(C)c1ccc(/C=C/c2c[nH]cn2)cc1

>  <Energy>  (4) 
63.28626359820575

>  <Genealogy>  (4) 
CN(C)c1ccc(/C=C/c2c[nH]cn2)cc1 (cis-trans isomerization)
CN(C)c1ccc(/C=C/c2c[nH]cn2)cc1 (3D coordinates assigned)
CN(C)c1ccc(/C=C/c2c[nH]cn2)cc1 (optimized conformer: 63.28626359820575 kcal/mol)

>  <smiles>  (4) 
CN(C)c1ccc(C=Cc2c[nH]cn2)cc1

>  <score_type>  (4) 
oracle

>  <origin>  (4) 
adg

>  <m_score__min__energy>  (4) 
-6.7699999999999996

>  <m_primary>  (4) 
energy

$$$$
4:0
     RDKit          3D

 30 32  0  0  0  0  0  0  0  0999 V2000
   -1.1130   24.7630  -27.7970 C   0  0  0  0  0  0  0  0  0  0  0  0
   -2.3520   24.2820  -28.3880 N   0  0  0  0  0  0  0  0  0  0  0  0
   -3.1690   23.3500  -27.8610 C   0  0  0  0  0  0  0  0  0  0  0  0
   -4.2800   23.2390  -28.6680 C   0  0  0  0  0  0  0  0  0  0  0  0
   -4.0640   24.1540  -29.6850 C   0  0  0  0  0  0  0  0  0  0  0  0
   -4.9880   24.4930  -30.7820 C   0  0  0  0  0  0  0  0  0  0  0  0
   -4.9810   25.6720  -31.2280 O   0  0  0  0  0  0  0  0  0  0  0  0
   -5.8730   23.5210  -31.3680 N   0  0  0  0  0  0  0  0  0  0  0  0
   -7.3200   23.4690  -31.1240 C   0  0  0  0  0  0  0  0  0  0  0  0
   -7.7010   22.1310  -31.6340 C   0  0  0  0  0  0  0  0  0  0  0  0
   -8.9590   21.5340  -31.6620 C   0  0  0  0  0  0  0  0  0  0  0  0
   -9.0690   20.2470  -32.2090 C   0  0  0  0  0  0  0  0  0  0  0  0
   -7.9200   19.6020  -32.7080 C   0  0  0  0  0  0  0  0  0  0  0  0
   -6.7050   20.2250  -32.6630 N   0  0  0  0  0  0  0  0  0  0  0  0
   -6.6070   21.4730  -32.1330 C   0  0  0  0  0  0  0  0  0  0  0  0
   -5.3800   22.2880  -31.9930 C   0  0  0  0  0  0  0  0  0  0  0  0
   -2.8960   24.7940  -29.4810 N   0  0  0  0  0  0  0  0  0  0  0  0
   -1.1935   24.7318  -26.7004 H   0  0  0  0  0  0  0  0  0  0  0  0
   -0.2792   24.1232  -28.1218 H   0  0  0  0  0  0  0  0  0  0  0  0
   -0.9293   25.7978  -28.1218 H   0  0  0  0  0  0  0  0  0  0  0  0
   -2.9811   22.7751  -26.9422 H   0  0  0  0  0  0  0  0  0  0  0  0
   -5.1450   22.5728  -28.5345 H   0  0  0  0  0  0  0  0  0  0  0  0
   -7.5426   23.5602  -30.0506 H   0  0  0  0  0  0  0  0  0  0  0  0
   -7.8694   24.2887  -31.6102 H   0  0  0  0  0  0  0  0  0  0  0  0
   -9.8419   22.0573  -31.2661 H   0  0  0  0  0  0  0  0  0  0  0  0
  -10.0466   19.7442  -32.2481 H   0  0  0  0  0  0  0  0  0  0  0  0
   -8.0017   18.5919  -33.1359 H   0  0  0  0  0  0  0  0  0  0  0  0
   -5.8550   19.7430  -33.0330 H   0  0  0  0  0  0  0  0  0  0  0  0
   -4.6429   21.7857  -31.3493 H   0  0  0  0  0  0  0  0  0  0  0  0
   -4.8638   22.4625  -32.9486 H   0  0  0  0  0  0  0  0  0  0  0  0
  1  2  1  0
  2  3  1  0
  3  4  2  0
  4  5  1  0
  5  6  1  0
  6  7  2  0
  6  8  1  0
  8  9  1  0
  9 10  1  0
 10 11  2  0
 11 12  1  0
 12 13  2  0
 13 14  1  0
 14 15  2  0
 15 16  1  0
  5 17  2  0
 17  2  1  0
 16  8  1  0
 15 10  1  0
  1 18  1  0
  1 19  1  0
  1 20  1  0
  3 21  1  0
  4 22  1  0
  9 23  1  0
  9 24  1  0
 11 25  1  0
 12 26  1  0
 13 27  1  0
 14 28  1  0
 16 29  1  0
 16 30  1  0
M  CHG  1  14   1
M  END
>  <UniqueID>  (5) 
5

>  <SMILES>  (5) 
Cn1ccc(C(=O)N2Cc3ccc[nH+]c3C2)n1

>  <Energy>  (5) 
74.11641690842534

>  <Genealogy>  (5) 
Cn1ccc(C(=O)N2Cc3ccc[nH+]c3C2)n1 (protonated)
Cn1ccc(C(=O)N2Cc3ccc[nH+]c3C2)n1 (3D coordinates assigned)
Cn1ccc(C(=O)N2Cc3ccc[nH+]c3C2)n1 (nonaromatic ring conformer: 74.11641690842534 kcal/mol)

>  <smiles>  (5) 
Cn1ccc(C(=O)N2Cc3cccnc3C2)n1

>  <score_type>  (5) 
oracle

>  <origin>  (5) 
adg

>  <m_score__min__energy>  (5) 
-6.2199999999999998

>  <m_primary>  (5) 
energy

$$$$
5:0
     RDKit          3D

 40 43  0  0  0  0  0  0  0  0999 V2000
   -5.0510   20.7450  -33.4360 C   0  0  0  0  0  0  0  0  0  0  0  0
   -5.7090   19.4070  -33.2540 C   0  0  0  0  0  0  0  0  0  0  0  0
   -5.1550   18.2660  -33.8660 C   0  0  0  0  0  0  0  0  0  0  0  0
   -5.8140   17.0300  -33.7380 C   0  0  0  0  0  0  0  0  0  0  0  0
   -6.9770   16.9360  -33.0330 N   0  0  0  0  0  0  0  0  0  0  0  0
   -7.4740   18.0480  -32.4410 C   0  0  0  0  0  0  0  0  0  0  0  0
   -8.6150   18.1030  -31.7340 N   0  0  0  0  0  0  0  0  0  0  0  0
   -8.7330   19.3650  -31.3360 N   0  0  0  0  0  0  0  0  0  0  0  0
   -7.6640   20.0460  -31.8080 C   0  0  0  0  0  0  0  0  0  0  0  0
   -7.4280   21.4630  -31.4900 C   0  0  0  0  0  0  0  0  0  0  0  0
   -8.2170   22.4530  -32.0860 C   0  0  0  0  0  0  0  0  0  0  0  0
   -8.0050   23.7990  -31.7750 C   0  0  0  0  0  0  0  0  0  0  0  0
   -7.0220   24.1590  -30.8490 C   0  0  0  0  0  0  0  0  0  0  0  0
   -6.2570   23.1700  -30.2050 C   0  0  0  0  0  0  0  0  0  0  0  0
   -5.2280   23.5110  -29.2620 N   0  0  0  0  0  0  0  0  0  0  0  0
   -4.0380   24.2470  -29.5980 C   0  0  0  0  0  0  0  0  0  0  0  0
   -3.8550   24.6550  -30.7770 O   0  0  0  0  0  0  0  0  0  0  0  0
   -3.0100   24.5340  -28.5740 C   0  0  0  0  0  0  0  0  0  0  0  0
   -1.6850   24.7750  -28.9770 C   0  0  0  0  0  0  0  0  0  0  0  0
   -0.6940   25.0450  -28.0280 C   0  0  0  0  0  0  0  0  0  0  0  0
   -1.0180   25.0910  -26.6710 C   0  0  0  0  0  0  0  0  0  0  0  0
   -2.3350   24.8730  -26.2600 C   0  0  0  0  0  0  0  0  0  0  0  0
   -3.3330   24.6010  -27.2040 C   0  0  0  0  0  0  0  0  0  0  0  0
   -4.6130   24.4580  -26.7770 F   0  0  0  0  0  0  0  0  0  0  0  0
   -6.4610   21.8230  -30.5400 C   0  0  0  0  0  0  0  0  0  0  0  0
   -6.8520   19.2330  -32.5230 N   0  0  0  0  0  0  0  0  0  0  0  0
   -4.8349   21.1844  -32.4510 H   0  0  0  0  0  0  0  0  0  0  0  0
   -4.1121   20.6189  -33.9952 H   0  0  0  0  0  0  0  0  0  0  0  0
   -5.7241   21.4116  -33.9952 H   0  0  0  0  0  0  0  0  0  0  0  0
   -4.2180   18.3405  -34.4374 H   0  0  0  0  0  0  0  0  0  0  0  0
   -5.3878   16.1326  -34.2102 H   0  0  0  0  0  0  0  0  0  0  0  0
   -9.0050   22.1716  -32.8001 H   0  0  0  0  0  0  0  0  0  0  0  0
   -8.6131   24.5767  -32.2601 H   0  0  0  0  0  0  0  0  0  0  0  0
   -6.8458   25.2210  -30.6228 H   0  0  0  0  0  0  0  0  0  0  0  0
   -5.3900   23.2430  -28.2650 H   0  0  0  0  0  0  0  0  0  0  0  0
   -1.4260   24.7510  -30.0458 H   0  0  0  0  0  0  0  0  0  0  0  0
    0.3425   25.2214  -28.3514 H   0  0  0  0  0  0  0  0  0  0  0  0
   -0.2363   25.2989  -25.9255 H   0  0  0  0  0  0  0  0  0  0  0  0
   -2.5893   24.9151  -25.1906 H   0  0  0  0  0  0  0  0  0  0  0  0
   -5.8574   21.0426  -30.0535 H   0  0  0  0  0  0  0  0  0  0  0  0
  1  2  1  0
  2  3  2  0
  3  4  1  0
  4  5  2  0
  5  6  1  0
  6  7  2  0
  7  8  1  0
  8  9  2  0
  9 10  1  0
 10 11  2  0
 11 12  1  0
 12 13  2  0
 13 14  1  0
 14 15  1  0
 15 16  1  0
 16 17  2  0
 16 18  1  0
 18 19  2  0
 19 20  1  0
 20 21  2  0
 21 22  1  0
 22 23  2  0
 23 24  1  0
 14 25  2  0
  9 26  1  0
 26  2  1  0
 26  6  1  0
 25 10  1  0
 23 18  1  0
  1 27  1  0
  1 28  1  0
  1 29  1  0
  3 30  1  0
  4 31  1  0
 11 32  1  0
 12 33  1  0
 13 34  1  0
 15 35  1  0
 19 36  1  0
 20 37  1  0
 21 38  1  0
 22 39  1  0
 25 40  1  0
M  END
>  <UniqueID>  (6) 
6

>  <SMILES>  (6) 
Cc1ccnc2nnc(-c3cccc(NC(=O)c4ccccc4F)c3)n12

>  <Energy>  (6) 
103.7410595730247

>  <Genealogy>  (6) 
Cc1ccnc2nnc(-c3cccc(NC(=O)c4ccccc4F)c3)n12 (3D coordinates assigned)
Cc1ccnc2nnc(-c3cccc(NC(=O)c4ccccc4F)c3)n12 (optimized conformer: 103.7410595730247 kcal/mol)

>  <smiles>  (6) 
Cc1ccnc2nnc(-c3cccc(NC(=O)c4ccccc4F)c3)n12

>  <score_type>  (6) 
oracle

>  <origin>  (6) 
adg

>  <m_score__min__energy>  (6) 
-9.2200000000000006

>  <m_primary>  (6) 
energy

$$$$
6:0
     RDKit          3D

 28 30  0  0  0  0  0  0  0  0999 V2000
   -0.8900   18.8600  -27.1320 N   0  0  0  0  0  0  0  0  0  0  0  0
   -2.0510   19.6860  -27.0510 C   0  0  0  0  0  0  0  0  0  0  0  0
   -3.0780   19.2450  -26.4680 O   0  0  0  0  0  0  0  0  0  0  0  0
   -2.0500   21.0440  -27.6410 C   0  0  0  0  0  0  0  0  0  0  0  0
   -1.0280   21.9710  -27.3050 C   0  0  0  0  0  0  0  0  0  0  0  0
   -1.0240   23.2670  -27.8470 C   0  0  0  0  0  0  0  0  0  0  0  0
   -2.0410   23.6140  -28.7300 C   0  0  0  0  0  0  0  0  0  0  0  0
   -2.2100   24.8130  -29.3200 N   0  0  0  0  0  0  0  0  0  0  0  0
   -3.3340   24.6600  -30.0590 C   0  0  0  0  0  0  0  0  0  0  0  0
   -3.8560   25.6750  -30.8500 O   0  0  0  0  0  0  0  0  0  0  0  0
   -3.8730   23.3830  -29.9450 C   0  0  0  0  0  0  0  0  0  0  0  0
   -5.0830   22.8620  -30.6170 C   0  0  0  0  0  0  0  0  0  0  0  0
   -4.9750   21.9270  -31.6600 C   0  0  0  0  0  0  0  0  0  0  0  0
   -6.1220   21.4440  -32.2970 C   0  0  0  0  0  0  0  0  0  0  0  0
   -7.3850   21.8930  -31.9010 C   0  0  0  0  0  0  0  0  0  0  0  0
   -7.5020   22.8290  -30.8720 C   0  0  0  0  0  0  0  0  0  0  0  0
   -6.3570   23.3160  -30.2330 C   0  0  0  0  0  0  0  0  0  0  0  0
   -3.0240   22.7230  -29.0780 C   0  0  0  0  0  0  0  0  0  0  0  0
   -3.0690   21.4340  -28.5400 C   0  0  0  0  0  0  0  0  0  0  0  0
   -0.7390   18.0770  -26.4570 H   0  0  0  0  0  0  0  0  0  0  0  0
   -0.2291   21.6703  -26.6113 H   0  0  0  0  0  0  0  0  0  0  0  0
   -0.2374   23.9882  -27.5801 H   0  0  0  0  0  0  0  0  0  0  0  0
   -3.9829   21.5731  -31.9771 H   0  0  0  0  0  0  0  0  0  0  0  0
   -6.0303   20.7097  -33.1109 H   0  0  0  0  0  0  0  0  0  0  0  0
   -8.2868   21.5088  -32.4002 H   0  0  0  0  0  0  0  0  0  0  0  0
   -8.4962   23.1842  -30.5632 H   0  0  0  0  0  0  0  0  0  0  0  0
   -6.4538   24.0576  -29.4263 H   0  0  0  0  0  0  0  0  0  0  0  0
   -3.8781   20.7393  -28.8096 H   0  0  0  0  0  0  0  0  0  0  0  0
  1  2  1  0
  2  3  2  0
  2  4  1  0
  4  5  2  0
  5  6  1  0
  6  7  2  0
  7  8  1  0
  8  9  1  0
  9 10  1  0
  9 11  2  0
 11 12  1  0
 12 13  2  0
 13 14  1  0
 14 15  2  0
 15 16  1  0
 16 17  2  0
 11 18  1  0
 18 19  2  0
 19  4  1  0
 18  7  1  0
 17 12  1  0
  1 20  1  0
  5 21  1  0
  6 22  1  0
 13 23  1  0
 14 24  1  0
 15 25  1  0
 16 26  1  0
 17 27  1  0
 19 28  1  0
M  CHG  3   1  -1   8  -1  10  -1
M  END
>  <UniqueID>  (7) 
7

>  <SMILES>  (7) 
[NH-]C(=O)c1ccc2[n-]c([O-])c(-c3ccccc3)c2c1

>  <Energy>  (7) 
68.84058671657635

>  <Genealogy>  (7) 
[NH-]C(=O)c1ccc2[n-]c([O-])c(-c3ccccc3)c2c1 (protonated)
[NH-]C(=O)c1ccc2[n-]c([O-])c(-c3ccccc3)c2c1 (3D coordinates assigned)
[NH-]C(=O)c1ccc2[n-]c([O-])c(-c3ccccc3)c2c1 (optimized conformer: 68.84058671657635 kcal/mol)

>  <smiles>  (7) 
NC(=O)c1ccc2[nH]c(O)c(-c3ccccc3)c2c1

>  <score_type>  (7) 
oracle

>  <origin>  (7) 
adg

>  <m_score__min__energy>  (7) 
-11.25

>  <m_primary>  (7) 
energy

$$$$
7:0
     RDKit          3D

 58 61  0  0  0  0  0  0  0  0999 V2000
   -4.1870   13.9670  -33.0860 C   0  0  0  0  0  0  0  0  0  0  0  0
   -4.8650   14.7910  -32.1420 O   0  0  0  0  0  0  0  0  0  0  0  0
   -5.3960   16.0540  -32.4350 C   0  0  0  0  0  0  0  0  0  0  0  0
   -5.9510   16.8860  -31.4450 C   0  0  0  0  0  0  0  0  0  0  0  0
   -6.4810   18.1320  -31.7870 C   0  0  0  0  0  0  0  0  0  0  0  0
   -6.4470   18.5810  -33.1240 C   0  0  0  0  0  0  0  0  0  0  0  0
   -6.9950   19.9280  -33.5490 C   0  0  0  0  0  0  0  0  0  0  0  0
   -7.0400   20.9170  -32.4420 N   0  0  0  0  0  0  0  0  0  0  0  0
   -8.2610   21.2970  -31.9150 C   0  0  0  0  0  0  0  0  0  0  0  0
   -9.5600   20.6490  -32.3390 C   0  0  0  0  0  0  0  0  0  0  0  0
   -8.3330   22.3250  -30.9680 C   0  0  0  0  0  0  0  0  0  0  0  0
   -7.1760   22.9270  -30.4960 C   0  0  0  0  0  0  0  0  0  0  0  0
   -7.2700   23.8540  -29.6440 O   0  0  0  0  0  0  0  0  0  0  0  0
   -5.9260   22.4840  -30.9510 C   0  0  0  0  0  0  0  0  0  0  0  0
   -4.7390   23.0300  -30.4280 C   0  0  0  0  0  0  0  0  0  0  0  0
   -3.4840   22.5410  -30.8090 C   0  0  0  0  0  0  0  0  0  0  0  0
   -2.3010   23.0840  -30.1910 N   0  0  0  0  0  0  0  0  0  0  0  0
   -1.3090   22.3610  -29.9660 O   0  0  0  0  0  0  0  0  0  0  0  0
   -2.3030   24.3740  -29.7050 O   0  0  0  0  0  0  0  0  0  0  0  0
   -3.4120   21.4980  -31.7590 C   0  0  0  0  0  0  0  0  0  0  0  0
   -2.1480   20.9680  -32.1960 N   0  0  0  0  0  0  0  0  0  0  0  0
   -1.5490   21.5100  -33.4260 C   0  0  0  0  0  0  0  0  0  0  0  0
   -0.2190   20.8230  -33.7610 C   0  0  0  0  0  0  0  0  0  0  0  0
    0.5870   20.5970  -32.4820 C   0  0  0  0  0  0  0  0  0  0  0  0
   -0.1410   19.6330  -31.5150 C   0  0  1  0  0  0  0  0  0  0  0  0
    0.2890   19.8960  -30.0650 C   0  0  0  0  0  0  0  0  0  0  0  0
   -1.6860   19.6790  -31.6610 C   0  0  0  0  0  0  0  0  0  0  0  0
   -4.5920   20.9750  -32.3070 C   0  0  0  0  0  0  0  0  0  0  0  0
   -5.8690   21.4520  -31.9240 C   0  0  0  0  0  0  0  0  0  0  0  0
   -5.8850   17.7480  -34.1050 C   0  0  0  0  0  0  0  0  0  0  0  0
   -5.3660   16.4950  -33.7660 C   0  0  0  0  0  0  0  0  0  0  0  0
   -3.5759   13.2243  -32.5522 H   0  0  0  0  0  0  0  0  0  0  0  0
   -4.9244   13.4496  -33.7173 H   0  0  0  0  0  0  0  0  0  0  0  0
   -3.5373   14.5909  -33.7173 H   0  0  0  0  0  0  0  0  0  0  0  0
   -5.9675   16.5533  -30.3966 H   0  0  0  0  0  0  0  0  0  0  0  0
   -6.9281   18.7677  -31.0085 H   0  0  0  0  0  0  0  0  0  0  0  0
   -6.3560   20.3285  -34.3498 H   0  0  0  0  0  0  0  0  0  0  0  0
   -8.0296   19.7682  -33.8868 H   0  0  0  0  0  0  0  0  0  0  0  0
  -10.1351   20.3621  -31.4463 H   0  0  0  0  0  0  0  0  0  0  0  0
  -10.1458   21.3605  -32.9396 H   0  0  0  0  0  0  0  0  0  0  0  0
   -9.3439   19.7531  -32.9396 H   0  0  0  0  0  0  0  0  0  0  0  0
   -9.3132   22.6576  -30.5957 H   0  0  0  0  0  0  0  0  0  0  0  0
   -4.7986   23.8574  -29.7056 H   0  0  0  0  0  0  0  0  0  0  0  0
   -2.2491   21.3572  -34.2606 H   0  0  0  0  0  0  0  0  0  0  0  0
   -1.3512   22.5804  -33.2677 H   0  0  0  0  0  0  0  0  0  0  0  0
   -0.4199   19.8541  -34.2414 H   0  0  0  0  0  0  0  0  0  0  0  0
    0.3578   21.4643  -34.4437 H   0  0  0  0  0  0  0  0  0  0  0  0
    1.5642   20.1670  -32.7468 H   0  0  0  0  0  0  0  0  0  0  0  0
    0.7094   21.5659  -31.9758 H   0  0  0  0  0  0  0  0  0  0  0  0
    0.1617   18.6130  -31.7943 H   0  0  0  0  0  0  0  0  0  0  0  0
   -0.4440   19.4477  -29.3781 H   0  0  0  0  0  0  0  0  0  0  0  0
    1.2782   19.4482  -29.8889 H   0  0  0  0  0  0  0  0  0  0  0  0
    0.3409   20.9806  -29.8889 H   0  0  0  0  0  0  0  0  0  0  0  0
   -2.0027   18.8766  -32.3435 H   0  0  0  0  0  0  0  0  0  0  0  0
   -2.1269   19.5469  -30.6619 H   0  0  0  0  0  0  0  0  0  0  0  0
   -4.5237   20.1717  -33.0554 H   0  0  0  0  0  0  0  0  0  0  0  0
   -5.8528   18.0851  -35.1516 H   0  0  0  0  0  0  0  0  0  0  0  0
   -4.9323   15.8524  -34.5463 H   0  0  0  0  0  0  0  0  0  0  0  0
  1  2  1  0
  2  3  1  0
  3  4  2  0
  4  5  1  0
  5  6  2  0
  6  7  1  0
  7  8  1  0
  8  9  1  0
  9 10  1  0
  9 11  2  0
 11 12  1  0
 12 13  2  0
 12 14  1  0
 14 15  2  0
 15 16  1  0
 16 17  1  0
 17 18  2  0
 17 19  1  0
 16 20  2  0
 20 21  1  0
 21 22  1  0
 22 23  1  0
 23 24  1  0
 24 25  1  0
 25 26  1  0
 25 27  1  0
 20 28  1  0
 28 29  2  0
  6 30  1  0
 30 31  2  0
 31  3  1  0
 29  8  1  0
 29 14  1  0
 27 21  1  0
  1 32  1  0
  1 33  1  0
  1 34  1  0
  4 35  1  0
  5 36  1  0
  7 37  1  0
  7 38  1  0
 10 39  1  0
 10 40  1  0
 10 41  1  0
 11 42  1  0
 15 43  1  0
 22 44  1  0
 22 45  1  0
 23 46  1  0
 23 47  1  0
 24 48  1  0
 24 49  1  0
 25 50  1  6
 26 51  1  0
 26 52  1  0
 26 53  1  0
 27 54  1  0
 27 55  1  0
 28 56  1  0
 30 57  1  0
 31 58  1  0
M  CHG  2  17   1  19  -1
M  END
>  <UniqueID>  (8) 
8

>  <SMILES>  (8) 
COc1ccc(Cn2c(C)cc(=O)c3cc([N+](=O)[O-])c(N4CCC[C@@H](C)C4)cc32)cc1

>  <Energy>  (8) 
83.0923917976026

>  <Genealogy>  (8) 
COc1ccc(Cn2c(C)cc(=O)c3cc([N+](=O)[O-])c(N4CCC[C@@H](C)C4)cc32)cc1 (chirality)
COc1ccc(Cn2c(C)cc(=O)c3cc([N+](=O)[O-])c(N4CCC[C@@H](C)C4)cc32)cc1 (3D coordinates assigned)
COc1ccc(Cn2c(C)cc(=O)c3cc([N+](=O)[O-])c(N4CCC[C@@H](C)C4)cc32)cc1 (nonaromatic ring conformer: 83.0923917976026 kcal/mol)

>  <smiles>  (8) 
COc1ccc(Cn2c(C)cc(=O)c3cc([N+](=O)[O-])c(N4CCCC(C)C4)cc32)cc1

>  <score_type>  (8) 
oracle

>  <origin>  (8) 
adg

>  <m_score__min__energy>  (8) 
-10.26

>  <m_primary>  (8) 
energy

$$$$
8:0
     RDKit          3D

 47 48  0  0  0  0  0  0  0  0999 V2000
   -2.2240   19.3830  -33.8570 C   0  0  0  0  0  0  0  0  0  0  0  0
   -2.5790   20.8120  -33.4480 C   0  0  0  0  0  0  0  0  0  0  0  0
   -3.8610   20.8980  -32.5980 C   0  0  0  0  0  0  0  0  0  0  0  0
   -4.4600   22.3110  -32.4740 C   0  0  0  0  0  0  0  0  0  0  0  0
   -4.9080   22.6470  -31.0400 C   0  0  0  0  0  0  0  0  0  0  0  0
   -6.1400   23.4700  -31.0430 N   0  0  0  0  0  0  0  0  0  0  0  0
   -6.8560   23.3730  -32.3450 C   0  0  0  0  0  0  0  0  0  0  0  0
   -8.3870   23.4030  -32.1990 C   0  0  0  0  0  0  0  0  0  0  0  0
   -8.8760   22.3360  -31.2970 N   0  0  0  0  0  0  0  0  0  0  0  0
   -9.4480   21.1520  -31.9820 C   0  0  0  0  0  0  0  0  0  0  0  0
   -8.4330   20.0660  -32.2850 C   0  0  0  0  0  0  0  0  0  0  0  0
   -7.3970   20.2930  -33.2080 C   0  0  0  0  0  0  0  0  0  0  0  0
   -6.4830   19.2810  -33.5130 C   0  0  0  0  0  0  0  0  0  0  0  0
   -6.5830   18.0270  -32.8920 C   0  0  0  0  0  0  0  0  0  0  0  0
   -5.5890   16.9460  -33.1940 C   0  0  0  0  0  0  0  0  0  0  0  0
   -7.5810   17.8140  -31.9310 C   0  0  0  0  0  0  0  0  0  0  0  0
   -8.4950   18.8260  -31.6260 C   0  0  0  0  0  0  0  0  0  0  0  0
   -7.9650   22.0010  -30.1800 C   0  0  0  0  0  0  0  0  0  0  0  0
   -6.9980   23.1520  -29.8750 C   0  0  0  0  0  0  0  0  0  0  0  0
   -2.0719   18.7708  -32.9559 H   0  0  0  0  0  0  0  0  0  0  0  0
   -3.0439   18.9583  -34.4548 H   0  0  0  0  0  0  0  0  0  0  0  0
   -1.3006   19.3914  -34.4548 H   0  0  0  0  0  0  0  0  0  0  0  0
   -1.7438   21.2265  -32.8644 H   0  0  0  0  0  0  0  0  0  0  0  0
   -2.7597   21.3816  -34.3716 H   0  0  0  0  0  0  0  0  0  0  0  0
   -4.6186   20.2440  -33.0543 H   0  0  0  0  0  0  0  0  0  0  0  0
   -3.5788   20.5909  -31.5801 H   0  0  0  0  0  0  0  0  0  0  0  0
   -3.7002   23.0431  -32.7851 H   0  0  0  0  0  0  0  0  0  0  0  0
   -5.3520   22.3494  -33.1165 H   0  0  0  0  0  0  0  0  0  0  0  0
   -5.1031   21.7109  -30.4963 H   0  0  0  0  0  0  0  0  0  0  0  0
   -4.1072   23.2202  -30.5500 H   0  0  0  0  0  0  0  0  0  0  0  0
   -6.5485   24.2193  -32.9768 H   0  0  0  0  0  0  0  0  0  0  0  0
   -6.5895   22.4043  -32.7929 H   0  0  0  0  0  0  0  0  0  0  0  0
   -8.6863   24.3793  -31.7901 H   0  0  0  0  0  0  0  0  0  0  0  0
   -8.8278   23.2378  -33.1932 H   0  0  0  0  0  0  0  0  0  0  0  0
  -10.2308   20.7243  -31.3383 H   0  0  0  0  0  0  0  0  0  0  0  0
   -9.8396   21.5012  -32.9488 H   0  0  0  0  0  0  0  0  0  0  0  0
   -7.3052   21.2755  -33.6941 H   0  0  0  0  0  0  0  0  0  0  0  0
   -5.6818   19.4684  -34.2430 H   0  0  0  0  0  0  0  0  0  0  0  0
   -5.2045   16.5279  -32.2520 H   0  0  0  0  0  0  0  0  0  0  0  0
   -6.0777   16.1506  -33.7758 H   0  0  0  0  0  0  0  0  0  0  0  0
   -4.7555   17.3664  -33.7758 H   0  0  0  0  0  0  0  0  0  0  0  0
   -7.6450   16.8451  -31.4142 H   0  0  0  0  0  0  0  0  0  0  0  0
   -9.2690   18.6509  -30.8643 H   0  0  0  0  0  0  0  0  0  0  0  0
   -8.5640   21.7906  -29.2817 H   0  0  0  0  0  0  0  0  0  0  0  0
   -7.3719   21.1217  -30.4718 H   0  0  0  0  0  0  0  0  0  0  0  0
   -7.5805   24.0456  -29.6064 H   0  0  0  0  0  0  0  0  0  0  0  0
   -6.3467   22.8426  -29.0443 H   0  0  0  0  0  0  0  0  0  0  0  0
  1  2  1  0
  2  3  1  0
  3  4  1  0
  4  5  1  0
  5  6  1  0
  6  7  1  0
  7  8  1  0
  8  9  1  0
  9 10  1  0
 10 11  1  0
 11 12  2  0
 12 13  1  0
 13 14  2  0
 14 15  1  0
 14 16  1  0
 16 17  2  0
  9 18  1  0
 18 19  1  0
 19  6  1  0
 17 11  1  0
  1 20  1  0
  1 21  1  0
  1 22  1  0
  2 23  1  0
  2 24  1  0
  3 25  1  0
  3 26  1  0
  4 27  1  0
  4 28  1  0
  5 29  1  0
  5 30  1  0
  7 31  1  0
  7 32  1  0
  8 33  1  0
  8 34  1  0
 10 35  1  0
 10 36  1  0
 12 37  1  0
 13 38  1  0
 15 39  1  0
 15 40  1  0
 15 41  1  0
 16 42  1  0
 17 43  1  0
 18 44  1  0
 18 45  1  0
 19 46  1  0
 19 47  1  0
M  END
>  <UniqueID>  (9) 
9

>  <SMILES>  (9) 
CCCCCN1CCN(Cc2ccc(C)cc2)CC1

>  <Energy>  (9) 
52.41692348056416

>  <Genealogy>  (9) 
CCCCCN1CCN(Cc2ccc(C)cc2)CC1 (3D coordinates assigned)
CCCCCN1CCN(Cc2ccc(C)cc2)CC1 (nonaromatic ring conformer: 52.41692348056416 kcal/mol)

>  <smiles>  (9) 
CCCCCN1CCN(Cc2ccc(C)cc2)CC1

>  <score_type>  (9) 
oracle

>  <origin>  (9) 
adg

>  <m_score__min__energy>  (9) 
-7.6100000000000003

>  <m_primary>  (9) 
energy

$$$$
9:0
     RDKit          3D

 34 36  0  0  0  0  0  0  0  0999 V2000
  -10.1398   22.0044  -31.7204 H   0  0  0  0  0  0  0  0  0  0  0  0
   -9.0700   21.9520  -31.9710 C   0  0  0  0  0  0  0  0  0  0  0  0
   -8.3740   23.0970  -32.0180 C   0  0  0  0  0  0  0  0  0  0  0  0
   -8.7928   23.9414  -32.5851 H   0  0  0  0  0  0  0  0  0  0  0  0
   -7.0720   23.2790  -31.3450 C   0  0  0  0  0  0  0  0  0  0  0  0
   -6.8520   23.8250  -30.0770 C   0  0  0  0  0  0  0  0  0  0  0  0
   -7.6056   24.2033  -29.3706 H   0  0  0  0  0  0  0  0  0  0  0  0
   -5.4850   23.7860  -29.9050 C   0  0  0  0  0  0  0  0  0  0  0  0
   -4.6950   24.1970  -28.8330 C   0  0  0  0  0  0  0  0  0  0  0  0
   -5.1455   24.6365  -27.9308 H   0  0  0  0  0  0  0  0  0  0  0  0
   -3.3010   24.0310  -28.9430 C   0  0  0  0  0  0  0  0  0  0  0  0
   -2.2570   24.5290  -27.6260 Cl  0  0  0  0  0  0  0  0  0  0  0  0
   -2.7400   23.4630  -30.1110 C   0  0  0  0  0  0  0  0  0  0  0  0
   -1.6499   23.3370  -30.1873 H   0  0  0  0  0  0  0  0  0  0  0  0
   -3.5660   23.0580  -31.1760 C   0  0  0  0  0  0  0  0  0  0  0  0
   -3.1408   22.6152  -32.0888 H   0  0  0  0  0  0  0  0  0  0  0  0
   -4.9420   23.2370  -31.0350 C   0  0  0  0  0  0  0  0  0  0  0  0
   -5.9000   22.9230  -31.9230 N   0  0  0  0  0  0  0  0  0  0  0  0
   -5.7650   22.4940  -32.8660 H   0  0  0  0  0  0  0  0  0  0  0  0
   -8.4780   20.6190  -32.2380 C   0  0  0  0  0  0  0  0  0  0  0  0
   -7.3420   20.4440  -33.0520 C   0  0  0  0  0  0  0  0  0  0  0  0
   -6.8570   21.3194  -33.5085 H   0  0  0  0  0  0  0  0  0  0  0  0
   -6.8260   19.1640  -33.2840 C   0  0  0  0  0  0  0  0  0  0  0  0
   -5.9339   19.0400  -33.9155 H   0  0  0  0  0  0  0  0  0  0  0  0
   -7.4420   18.0350  -32.7140 C   0  0  0  0  0  0  0  0  0  0  0  0
   -6.9610   16.7320  -32.9160 O   0  0  0  0  0  0  0  0  0  0  0  0
   -6.0280   16.3680  -33.9280 C   0  0  0  0  0  0  0  0  0  0  0  0
   -5.1010   16.0063  -33.4591 H   0  0  0  0  0  0  0  0  0  0  0  0
   -6.4575   15.5715  -34.5534 H   0  0  0  0  0  0  0  0  0  0  0  0
   -5.8047   17.2449  -34.5534 H   0  0  0  0  0  0  0  0  0  0  0  0
   -8.5790   18.2080  -31.9190 C   0  0  0  0  0  0  0  0  0  0  0  0
   -9.0708   17.3313  -31.4724 H   0  0  0  0  0  0  0  0  0  0  0  0
   -9.0960   19.4860  -31.6870 C   0  0  0  0  0  0  0  0  0  0  0  0
   -9.9963   19.6047  -31.0663 H   0  0  0  0  0  0  0  0  0  0  0  0
  1  2  1  0
  2  3  2  0
  3  4  1  0
  3  5  1  0
  5  6  2  0
  6  7  1  0
  6  8  1  0
  8  9  2  0
  9 10  1  0
  9 11  1  0
 11 12  1  0
 11 13  2  0
 13 14  1  0
 13 15  1  0
 15 16  1  0
 15 17  2  0
 17 18  1  0
 18 19  1  0
  2 20  1  0
 20 21  2  0
 21 22  1  0
 21 23  1  0
 23 24  1  0
 23 25  2  0
 25 26  1  0
 26 27  1  0
 27 28  1  0
 27 29  1  0
 27 30  1  0
 25 31  1  0
 31 32  1  0
 31 33  2  0
 33 34  1  0
 18  5  1  0
 33 20  1  0
 17  8  1  0
M  END
>  <UniqueID>  (10) 
10

>  <SMILES>  (10) 
COc1ccc(/C=C/c2cc3cc(Cl)ccc3[nH]2)cc1

>  <Energy>  (10) 
70.70946392070033

>  <Genealogy>  (10) 
COc1ccc(/C=C/c2cc3cc(Cl)ccc3[nH]2)cc1 (cis-trans isomerization)
COc1ccc(/C=C/c2cc3cc(Cl)ccc3[nH]2)cc1 (3D coordinates assigned)
COc1ccc(/C=C/c2cc3cc(Cl)ccc3[nH]2)cc1 (optimized conformer: 70.70946392070033 kcal/mol)

>  <smiles>  (10) 
COc1ccc(C=Cc2cc3cc(Cl)ccc3[nH]2)cc1

>  <score_type>  (10) 
oracle

>  <origin>  (10) 
adg

>  <m_score__min__energy>  (10) 
-9.0999999999999996

>  <m_primary>  (10) 
energy

$$$$
10:0
     RDKit          3D

 31 32  0  0  0  0  0  0  0  0999 V2000
   -6.4061   21.1006  -33.5886 H   0  0  0  0  0  0  0  0  0  0  0  0
   -6.7620   21.5440  -32.6470 C   0  0  0  0  0  0  0  0  0  0  0  0
   -6.0470   22.5900  -32.0550 C   0  0  0  0  0  0  0  0  0  0  0  0
   -5.1237   22.9585  -32.5259 H   0  0  0  0  0  0  0  0  0  0  0  0
   -6.5030   23.1700  -30.8640 C   0  0  0  0  0  0  0  0  0  0  0  0
   -5.6050   24.4970  -30.1310 S   0  0  0  0  0  0  0  0  0  0  0  0
   -4.5980   25.0560  -31.0970 O   0  0  0  0  0  0  0  0  0  0  0  0
   -6.5720   25.5830  -29.7510 O   0  0  0  0  0  0  0  0  0  0  0  0
   -4.7810   23.9490  -28.7030 N   0  0  0  0  0  0  0  0  0  0  0  0
   -3.5010   24.0160  -28.4780 C   0  0  0  0  0  0  0  0  0  0  0  0
   -2.9430   23.1140  -27.6290 N   0  0  0  0  0  0  0  0  0  0  0  0
   -1.6130   23.1240  -27.3500 C   0  0  0  0  0  0  0  0  0  0  0  0
   -1.0350   22.0890  -26.4380 C   0  0  0  0  0  0  0  0  0  0  0  0
   -1.2016   22.3874  -25.3924 H   0  0  0  0  0  0  0  0  0  0  0  0
   -1.5233   21.1213  -26.6254 H   0  0  0  0  0  0  0  0  0  0  0  0
    0.0450   21.9971  -26.6254 H   0  0  0  0  0  0  0  0  0  0  0  0
   -0.7890   24.0690  -27.9640 C   0  0  0  0  0  0  0  0  0  0  0  0
    0.2932   24.0837  -27.7676 H   0  0  0  0  0  0  0  0  0  0  0  0
   -1.3680   24.9930  -28.8310 C   0  0  0  0  0  0  0  0  0  0  0  0
   -0.7414   25.7531  -29.3205 H   0  0  0  0  0  0  0  0  0  0  0  0
   -2.7060   24.9580  -29.0740 N   0  0  0  0  0  0  0  0  0  0  0  0
   -3.0930   25.6720  -29.7280 H   0  0  0  0  0  0  0  0  0  0  0  0
   -7.6770   22.6940  -30.2660 C   0  0  0  0  0  0  0  0  0  0  0  0
   -8.0367   23.1442  -29.3290 H   0  0  0  0  0  0  0  0  0  0  0  0
   -8.3930   21.6480  -30.8570 C   0  0  0  0  0  0  0  0  0  0  0  0
   -9.3208   21.2866  -30.3895 H   0  0  0  0  0  0  0  0  0  0  0  0
   -7.9330   21.0580  -32.0430 C   0  0  0  0  0  0  0  0  0  0  0  0
   -8.7250   19.9660  -32.6990 C   0  0  0  0  0  0  0  0  0  0  0  0
   -9.1849   19.3319  -31.9267 H   0  0  0  0  0  0  0  0  0  0  0  0
   -9.5125   20.4100  -33.3257 H   0  0  0  0  0  0  0  0  0  0  0  0
   -8.0584   19.3553  -33.3257 H   0  0  0  0  0  0  0  0  0  0  0  0
  1  2  1  0
  2  3  2  0
  3  4  1  0
  3  5  1  0
  5  6  1  0
  6  7  2  0
  6  8  2  0
  6  9  1  0
  9 10  2  0
 10 11  1  0
 11 12  2  0
 12 13  1  0
 13 14  1  0
 13 15  1  0
 13 16  1  0
 12 17  1  0
 17 18  1  0
 17 19  2  0
 19 20  1  0
 19 21  1  0
 21 22  1  0
  5 23  2  0
 23 24  1  0
 23 25  1  0
 25 26  1  0
 25 27  2  0
 27 28  1  0
 28 29  1  0
 28 30  1  0
 28 31  1  0
 27  2  1  0
 21 10  1  0
M  END
>  <UniqueID>  (11) 
11

>  <SMILES>  (11) 
Cc1ccc(S(=O)(=O)/N=c2/nc(C)cc[nH]2)cc1

>  <Energy>  (11) 
34.49952218906979

>  <Genealogy>  (11) 
Cc1ccc(S(=O)(=O)/N=c2/nc(C)cc[nH]2)cc1 (cis-trans isomerization)
Cc1ccc(S(=O)(=O)/N=c2/nc(C)cc[nH]2)cc1 (3D coordinates assigned)
Cc1ccc(S(=O)(=O)/N=c2/nc(C)cc[nH]2)cc1 (optimized conformer: 34.49952218906979 kcal/mol)

>  <smiles>  (11) 
Cc1ccc(S(=O)(=O)N=c2nc(C)cc[nH]2)cc1

>  <score_type>  (11) 
oracle

>  <origin>  (11) 
adg

>  <m_score__min__energy>  (11) 
-7.8300000000000001

>  <m_primary>  (11) 
energy

$$$$
11:0
     RDKit          3D

 32 33  0  0  0  0  0  0  0  0999 V2000
   -2.2980   25.4170  -28.9690 O   0  0  0  0  0  0  0  0  0  0  0  0
   -2.9930   24.5910  -29.6220 C   0  0  0  0  0  0  0  0  0  0  0  0
   -3.8650   25.0580  -30.6590 N   0  0  0  0  0  0  0  0  0  0  0  0
   -5.1550   25.6910  -30.4070 C   0  0  0  0  0  0  0  0  0  0  0  0
   -6.2880   24.6730  -30.5490 C   0  0  0  0  0  0  0  0  0  0  0  0
   -5.7970   23.4460  -31.1720 N   0  0  0  0  0  0  0  0  0  0  0  0
   -6.6660   22.5300  -31.8590 C   0  0  0  0  0  0  0  0  0  0  0  0
   -7.9070   22.7520  -31.9000 O   0  0  0  0  0  0  0  0  0  0  0  0
   -6.1270   21.3260  -32.5150 C   0  0  0  0  0  0  0  0  0  0  0  0
   -6.8790   20.2690  -33.0150 C   0  0  0  0  0  0  0  0  0  0  0  0
   -6.1020   19.2570  -33.5920 C   0  0  0  0  0  0  0  0  0  0  0  0
   -4.7370   19.5100  -33.5510 C   0  0  0  0  0  0  0  0  0  0  0  0
   -4.5000   20.9930  -32.7960 S   0  0  0  0  0  0  0  0  0  0  0  0
   -2.9010   23.1430  -29.3210 C   0  0  0  0  0  0  0  0  0  0  0  0
   -3.2450   22.6520  -28.0470 C   0  0  0  0  0  0  0  0  0  0  0  0
   -3.1550   21.2840  -27.7670 C   0  0  0  0  0  0  0  0  0  0  0  0
   -2.7210   20.3940  -28.7510 C   0  0  0  0  0  0  0  0  0  0  0  0
   -2.3770   20.8690  -30.0190 C   0  0  0  0  0  0  0  0  0  0  0  0
   -2.4640   22.2350  -30.3040 C   0  0  0  0  0  0  0  0  0  0  0  0
   -5.1634   26.1020  -29.3867 H   0  0  0  0  0  0  0  0  0  0  0  0
   -5.3058   26.4960  -31.1413 H   0  0  0  0  0  0  0  0  0  0  0  0
   -6.6902   24.4374  -29.5526 H   0  0  0  0  0  0  0  0  0  0  0  0
   -7.0765   25.1038  -31.1836 H   0  0  0  0  0  0  0  0  0  0  0  0
   -4.7850   23.2120  -31.0600 H   0  0  0  0  0  0  0  0  0  0  0  0
   -7.9771   20.2313  -32.9625 H   0  0  0  0  0  0  0  0  0  0  0  0
   -6.5323   18.3472  -34.0360 H   0  0  0  0  0  0  0  0  0  0  0  0
   -3.9473   18.8532  -33.9447 H   0  0  0  0  0  0  0  0  0  0  0  0
   -3.5867   23.3482  -27.2669 H   0  0  0  0  0  0  0  0  0  0  0  0
   -3.4268   20.9090  -26.7693 H   0  0  0  0  0  0  0  0  0  0  0  0
   -2.6499   19.3192  -28.5281 H   0  0  0  0  0  0  0  0  0  0  0  0
   -2.0371   20.1670  -30.7946 H   0  0  0  0  0  0  0  0  0  0  0  0
   -2.1890   22.6029  -31.3035 H   0  0  0  0  0  0  0  0  0  0  0  0
  1  2  2  0
  2  3  1  0
  3  4  1  0
  4  5  1  0
  5  6  1  0
  6  7  1  0
  7  8  2  0
  7  9  1  0
  9 10  2  0
 10 11  1  0
 11 12  2  0
 12 13  1  0
  2 14  1  0
 14 15  2  0
 15 16  1  0
 16 17  2  0
 17 18  1  0
 18 19  2  0
 13  9  1  0
 19 14  1  0
  4 20  1  0
  4 21  1  0
  5 22  1  0
  5 23  1  0
  6 24  1  0
 10 25  1  0
 11 26  1  0
 12 27  1  0
 15 28  1  0
 16 29  1  0
 17 30  1  0
 18 31  1  0
 19 32  1  0
M  CHG  1   3  -1
M  END
>  <UniqueID>  (12) 
12

>  <SMILES>  (12) 
O=C([N-]CCNC(=O)c1cccs1)c1ccccc1

>  <Energy>  (12) 
52.69988696923215

>  <Genealogy>  (12) 
O=C([N-]CCNC(=O)c1cccs1)c1ccccc1 (protonated)
O=C([N-]CCNC(=O)c1cccs1)c1ccccc1 (3D coordinates assigned)
O=C([N-]CCNC(=O)c1cccs1)c1ccccc1 (optimized conformer: 52.69988696923215 kcal/mol)

>  <smiles>  (12) 
O=C(NCCNC(=O)c1cccs1)c1ccccc1

>  <score_type>  (12) 
oracle

>  <origin>  (12) 
adg

>  <m_score__min__energy>  (12) 
-8.5500000000000007

>  <m_primary>  (12) 
energy

$$$$
12:0
     RDKit          3D

 30 31  0  0  0  0  0  0  0  0999 V2000
   -5.3740   25.6660  -30.5040 C   0  0  0  0  0  0  0  0  0  0  0  0
   -3.9680   25.4460  -30.5400 O   0  0  0  0  0  0  0  0  0  0  0  0
   -3.3280   24.2780  -30.0950 C   0  0  0  0  0  0  0  0  0  0  0  0
   -3.8140   22.9950  -30.4220 C   0  0  0  0  0  0  0  0  0  0  0  0
   -3.1190   21.8520  -30.0190 C   0  0  0  0  0  0  0  0  0  0  0  0
   -1.9330   21.9720  -29.2950 C   0  0  0  0  0  0  0  0  0  0  0  0
   -1.4460   23.2370  -28.9570 C   0  0  0  0  0  0  0  0  0  0  0  0
   -2.1500   24.3900  -29.3240 C   0  0  0  0  0  0  0  0  0  0  0  0
   -1.6110   25.6690  -28.9630 N   0  0  0  0  0  0  0  0  0  0  0  0
   -1.0950   25.9930  -27.6680 C   0  0  0  0  0  0  0  0  0  0  0  0
    0.1200   26.2990  -27.5210 O   0  0  0  0  0  0  0  0  0  0  0  0
   -1.9910   25.9230  -26.4770 C   0  0  0  0  0  0  0  0  0  0  0  0
   -1.2370   26.2790  -25.2790 N   0  0  0  0  0  0  0  0  0  0  0  0
   -0.9010   27.5190  -24.8770 C   0  0  0  0  0  0  0  0  0  0  0  0
   -0.0840   27.4040  -23.7710 C   0  0  0  0  0  0  0  0  0  0  0  0
    0.0930   26.0970  -23.5020 N   0  0  0  0  0  0  0  0  0  0  0  0
   -0.6110   25.4330  -24.4380 C   0  0  0  0  0  0  0  0  0  0  0  0
   -5.7102   25.7186  -29.4580 H   0  0  0  0  0  0  0  0  0  0  0  0
   -5.6103   26.6120  -31.0131 H   0  0  0  0  0  0  0  0  0  0  0  0
   -5.8879   24.8373  -31.0131 H   0  0  0  0  0  0  0  0  0  0  0  0
   -4.7458   22.8937  -30.9978 H   0  0  0  0  0  0  0  0  0  0  0  0
   -3.5081   20.8551  -30.2733 H   0  0  0  0  0  0  0  0  0  0  0  0
   -1.3811   21.0706  -28.9901 H   0  0  0  0  0  0  0  0  0  0  0  0
   -0.5027   23.3277  -28.3985 H   0  0  0  0  0  0  0  0  0  0  0  0
   -2.8276   26.6254  -26.6058 H   0  0  0  0  0  0  0  0  0  0  0  0
   -2.3832   24.9006  -26.3729 H   0  0  0  0  0  0  0  0  0  0  0  0
   -1.2218   28.4599  -25.3481 H   0  0  0  0  0  0  0  0  0  0  0  0
    0.3501   28.2406  -23.2039 H   0  0  0  0  0  0  0  0  0  0  0  0
    0.6720   25.6830  -22.7380 H   0  0  0  0  0  0  0  0  0  0  0  0
   -0.6679   24.3367  -24.5074 H   0  0  0  0  0  0  0  0  0  0  0  0
  1  2  1  0
  2  3  1  0
  3  4  2  0
  4  5  1  0
  5  6  2  0
  6  7  1  0
  7  8  2  0
  8  9  1  0
  9 10  1  0
 10 11  2  0
 10 12  1  0
 12 13  1  0
 13 14  1  0
 14 15  2  0
 15 16  1  0
 16 17  2  0
  8  3  1  0
 17 13  1  0
  1 18  1  0
  1 19  1  0
  1 20  1  0
  4 21  1  0
  5 22  1  0
  6 23  1  0
  7 24  1  0
 12 25  1  0
 12 26  1  0
 14 27  1  0
 15 28  1  0
 16 29  1  0
 17 30  1  0
M  CHG  2   9  -1  16   1
M  END
>  <UniqueID>  (13) 
13

>  <SMILES>  (13) 
COc1ccccc1[N-]C(=O)Cn1cc[nH+]c1

>  <Energy>  (13) 
62.19966946571663

>  <Genealogy>  (13) 
COc1ccccc1[N-]C(=O)Cn1cc[nH+]c1 (protonated)
COc1ccccc1[N-]C(=O)Cn1cc[nH+]c1 (3D coordinates assigned)
COc1ccccc1[N-]C(=O)Cn1cc[nH+]c1 (optimized conformer: 62.19966946571663 kcal/mol)

>  <smiles>  (13) 
COc1ccccc1NC(=O)Cn1ccnc1

>  <score_type>  (13) 
oracle

>  <origin>  (13) 
adg

>  <m_score__min__energy>  (13) 
-8.1400000000000006

>  <m_primary>  (13) 
energy

$$$$
13:0
     RDKit          3D

 29 29  0  0  0  0  0  0  0  0999 V2000
   -6.5730   25.2880  -29.7170 C   0  0  0  0  0  0  0  0  0  0  0  0
   -5.3090   25.4200  -30.5560 C   0  0  0  0  0  0  0  0  0  0  0  0
   -5.0040   24.1220  -31.2020 N   0  0  0  0  0  0  0  0  0  0  0  0
   -4.8640   23.0040  -30.2420 C   0  0  0  0  0  0  0  0  0  0  0  0
   -3.8100   23.3140  -29.1810 C   0  0  0  0  0  0  0  0  0  0  0  0
   -5.9080   23.7990  -32.3320 C   0  0  0  0  0  0  0  0  0  0  0  0
   -6.7480   22.5550  -32.1100 C   0  0  0  0  0  0  0  0  0  0  0  0
   -6.3490   21.3190  -32.6480 C   0  0  0  0  0  0  0  0  0  0  0  0
   -7.1260   20.1740  -32.4440 C   0  0  0  0  0  0  0  0  0  0  0  0
   -8.3150   20.2530  -31.7150 C   0  0  0  0  0  0  0  0  0  0  0  0
   -9.0650   19.1400  -31.5210 F   0  0  0  0  0  0  0  0  0  0  0  0
   -8.7340   21.4820  -31.1960 C   0  0  0  0  0  0  0  0  0  0  0  0
   -9.8950   21.5640  -30.5010 F   0  0  0  0  0  0  0  0  0  0  0  0
   -7.9590   22.6280  -31.3960 C   0  0  0  0  0  0  0  0  0  0  0  0
   -6.3091   25.3156  -28.6495 H   0  0  0  0  0  0  0  0  0  0  0  0
   -7.2548   26.1198  -29.9477 H   0  0  0  0  0  0  0  0  0  0  0  0
   -7.0682   24.3333  -29.9477 H   0  0  0  0  0  0  0  0  0  0  0  0
   -5.4614   26.1871  -31.3295 H   0  0  0  0  0  0  0  0  0  0  0  0
   -4.4693   25.7122  -29.9083 H   0  0  0  0  0  0  0  0  0  0  0  0
   -5.8314   22.8330  -29.7472 H   0  0  0  0  0  0  0  0  0  0  0  0
   -4.5470   22.1079  -30.7956 H   0  0  0  0  0  0  0  0  0  0  0  0
   -4.2481   23.1851  -28.1803 H   0  0  0  0  0  0  0  0  0  0  0  0
   -2.9580   22.6284  -29.2993 H   0  0  0  0  0  0  0  0  0  0  0  0
   -3.4648   24.3517  -29.2993 H   0  0  0  0  0  0  0  0  0  0  0  0
   -6.5856   24.6513  -32.4882 H   0  0  0  0  0  0  0  0  0  0  0  0
   -5.2696   23.6019  -33.2059 H   0  0  0  0  0  0  0  0  0  0  0  0
   -5.4199   21.2519  -33.2331 H   0  0  0  0  0  0  0  0  0  0  0  0
   -6.7999   19.2088  -32.8587 H   0  0  0  0  0  0  0  0  0  0  0  0
   -8.2978   23.5937  -30.9926 H   0  0  0  0  0  0  0  0  0  0  0  0
  1  2  1  0
  2  3  1  0
  3  4  1  0
  4  5  1  0
  3  6  1  0
  6  7  1  0
  7  8  2  0
  8  9  1  0
  9 10  2  0
 10 11  1  0
 10 12  1  0
 12 13  1  0
 12 14  2  0
 14  7  1  0
  1 15  1  0
  1 16  1  0
  1 17  1  0
  2 18  1  0
  2 19  1  0
  4 20  1  0
  4 21  1  0
  5 22  1  0
  5 23  1  0
  5 24  1  0
  6 25  1  0
  6 26  1  0
  8 27  1  0
  9 28  1  0
 14 29  1  0
M  END
>  <UniqueID>  (14) 
14

>  <SMILES>  (14) 
CCN(CC)Cc1ccc(F)c(F)c1

>  <Energy>  (14) 
28.76021799895538

>  <Genealogy>  (14) 
CCN(CC)Cc1ccc(F)c(F)c1 (3D coordinates assigned)
CCN(CC)Cc1ccc(F)c(F)c1 (optimized conformer: 28.76021799895538 kcal/mol)

>  <smiles>  (14) 
CCN(CC)Cc1ccc(F)c(F)c1

>  <score_type>  (14) 
oracle

>  <origin>  (14) 
adg

>  <m_score__min__energy>  (14) 
-5.2400000000000002

>  <m_primary>  (14) 
energy

$$$$
14:0
     RDKit          3D

 39 41  0  0  0  0  0  0  0  0999 V2000
   -8.8770   23.1060  -31.9570 C   0  0  0  0  0  0  0  0  0  0  0  0
   -7.7570   22.6570  -31.0180 C   0  0  0  0  0  0  0  0  0  0  0  0
   -6.5610   22.2090  -31.7710 N   0  0  0  0  0  0  0  0  0  0  0  0
   -5.4550   23.0360  -31.8700 C   0  0  0  0  0  0  0  0  0  0  0  0
   -5.4740   24.5110  -31.4820 C   0  0  0  0  0  0  0  0  0  0  0  0
   -4.3310   24.8560  -30.6190 N   0  0  0  0  0  0  0  0  0  0  0  0
   -4.0470   23.8210  -29.6100 C   0  0  0  0  0  0  0  0  0  0  0  0
   -3.2510   24.3930  -28.4750 C   0  0  0  0  0  0  0  0  0  0  0  0
   -3.6740   24.5130  -27.1570 C   0  0  0  0  0  0  0  0  0  0  0  0
   -2.7420   25.1570  -26.3360 C   0  0  0  0  0  0  0  0  0  0  0  0
   -1.5830   25.5390  -27.0010 C   0  0  0  0  0  0  0  0  0  0  0  0
   -1.7240   25.0810  -28.6140 S   0  0  0  0  0  0  0  0  0  0  0  0
   -4.2350   22.5220  -32.3270 C   0  0  0  0  0  0  0  0  0  0  0  0
   -4.1550   21.2340  -32.8280 C   0  0  0  0  0  0  0  0  0  0  0  0
   -3.0480   20.8090  -33.2580 O   0  0  0  0  0  0  0  0  0  0  0  0
   -5.3020   20.4350  -32.8690 C   0  0  0  0  0  0  0  0  0  0  0  0
   -5.2530   19.1440  -33.4320 C   0  0  0  0  0  0  0  0  0  0  0  0
   -6.3980   18.3510  -33.4840 C   0  0  0  0  0  0  0  0  0  0  0  0
   -6.3250   16.7480  -34.1950 Cl  0  0  0  0  0  0  0  0  0  0  0  0
   -7.6000   18.8330  -32.9780 C   0  0  0  0  0  0  0  0  0  0  0  0
   -7.6680   20.1070  -32.4110 C   0  0  0  0  0  0  0  0  0  0  0  0
   -6.5210   20.9390  -32.3340 C   0  0  0  0  0  0  0  0  0  0  0  0
   -9.7368   23.4507  -31.3637 H   0  0  0  0  0  0  0  0  0  0  0  0
   -8.5158   23.9288  -32.5914 H   0  0  0  0  0  0  0  0  0  0  0  0
   -9.1842   22.2615  -32.5914 H   0  0  0  0  0  0  0  0  0  0  0  0
   -7.4756   23.4996  -30.3693 H   0  0  0  0  0  0  0  0  0  0  0  0
   -8.1263   21.8092  -30.4223 H   0  0  0  0  0  0  0  0  0  0  0  0
   -5.4294   25.1218  -32.3958 H   0  0  0  0  0  0  0  0  0  0  0  0
   -6.4008   24.7096  -30.9238 H   0  0  0  0  0  0  0  0  0  0  0  0
   -3.4890   24.9270  -31.2380 H   0  0  0  0  0  0  0  0  0  0  0  0
   -4.9968   23.4248  -29.2216 H   0  0  0  0  0  0  0  0  0  0  0  0
   -3.4633   23.0170  -30.0821 H   0  0  0  0  0  0  0  0  0  0  0  0
   -4.6435   24.1395  -26.7956 H   0  0  0  0  0  0  0  0  0  0  0  0
   -2.9107   25.3434  -25.2651 H   0  0  0  0  0  0  0  0  0  0  0  0
   -0.7211   26.0527  -26.5501 H   0  0  0  0  0  0  0  0  0  0  0  0
   -3.3314   23.1480  -32.2874 H   0  0  0  0  0  0  0  0  0  0  0  0
   -4.3039   18.7593  -33.8334 H   0  0  0  0  0  0  0  0  0  0  0  0
   -8.5030   18.2066  -33.0247 H   0  0  0  0  0  0  0  0  0  0  0  0
   -8.6278   20.4724  -32.0169 H   0  0  0  0  0  0  0  0  0  0  0  0
  1  2  1  0
  2  3  1  0
  3  4  1  0
  4  5  1  0
  5  6  1  0
  6  7  1  0
  7  8  1  0
  8  9  2  0
  9 10  1  0
 10 11  2  0
 11 12  1  0
  4 13  2  0
 13 14  1  0
 14 15  2  0
 14 16  1  0
 16 17  2  0
 17 18  1  0
 18 19  1  0
 18 20  2  0
 20 21  1  0
 21 22  2  0
 22  3  1  0
 12  8  1  0
 22 16  1  0
  1 23  1  0
  1 24  1  0
  1 25  1  0
  2 26  1  0
  2 27  1  0
  5 28  1  0
  5 29  1  0
  6 30  1  0
  7 31  1  0
  7 32  1  0
  9 33  1  0
 10 34  1  0
 11 35  1  0
 13 36  1  0
 17 37  1  0
 20 38  1  0
 21 39  1  0
M  END
>  <UniqueID>  (15) 
15

>  <SMILES>  (15) 
CCn1c(CNCc2cccs2)cc(=O)c2cc(Cl)ccc21

>  <Energy>  (15) 
76.4711202451314

>  <Genealogy>  (15) 
CCn1c(CNCc2cccs2)cc(=O)c2cc(Cl)ccc21 (3D coordinates assigned)
CCn1c(CNCc2cccs2)cc(=O)c2cc(Cl)ccc21 (optimized conformer: 76.4711202451314 kcal/mol)

>  <smiles>  (15) 
CCn1c(CNCc2cccs2)cc(=O)c2cc(Cl)ccc21

>  <score_type>  (15) 
oracle

>  <origin>  (15) 
adg

>  <m_score__min__energy>  (15) 
-8.7699999999999996

>  <m_primary>  (15) 
energy

$$$$
15:0
     RDKit          3D

 23 23  0  0  0  0  0  0  0  0999 V2000
   -8.7940   19.1680  -31.9790 C   0  0  0  0  0  0  0  0  0  0  0  0
   -9.4690   20.5070  -32.2710 C   0  0  0  0  0  0  0  0  0  0  0  0
   -8.6190   21.6970  -31.8180 C   0  0  0  0  0  0  0  0  0  0  0  0
   -6.8490   21.2410  -31.6880 S   0  0  0  0  0  0  0  0  0  0  0  0
   -6.2990   22.8580  -31.1260 C   0  0  0  0  0  0  0  0  0  0  0  0
   -7.1960   23.6880  -30.5300 N   0  0  0  0  0  0  0  0  0  0  0  0
   -6.8360   24.9190  -30.0850 C   0  0  0  0  0  0  0  0  0  0  0  0
   -5.5190   25.3470  -30.2440 C   0  0  0  0  0  0  0  0  0  0  0  0
   -4.6170   24.5260  -30.8430 N   0  0  0  0  0  0  0  0  0  0  0  0
   -4.9690   23.2910  -31.2930 C   0  0  0  0  0  0  0  0  0  0  0  0
   -3.9320   22.4250  -31.9420 C   0  0  0  0  0  0  0  0  0  0  0  0
   -8.7212   19.0236  -30.8909 H   0  0  0  0  0  0  0  0  0  0  0  0
   -9.3894   18.3538  -32.4179 H   0  0  0  0  0  0  0  0  0  0  0  0
   -7.7854   19.1624  -32.4179 H   0  0  0  0  0  0  0  0  0  0  0  0
   -9.6414   20.5874  -33.3544 H   0  0  0  0  0  0  0  0  0  0  0  0
  -10.4150   20.5363  -31.7105 H   0  0  0  0  0  0  0  0  0  0  0  0
   -8.7261   22.5124  -32.5485 H   0  0  0  0  0  0  0  0  0  0  0  0
   -8.9690   22.0152  -30.8249 H   0  0  0  0  0  0  0  0  0  0  0  0
   -7.5774   25.5732  -29.6030 H   0  0  0  0  0  0  0  0  0  0  0  0
   -5.2123   26.3414  -29.8874 H   0  0  0  0  0  0  0  0  0  0  0  0
   -3.3336   21.9253  -31.1659 H   0  0  0  0  0  0  0  0  0  0  0  0
   -4.4264   21.6677  -32.5682 H   0  0  0  0  0  0  0  0  0  0  0  0
   -3.2750   23.0464  -32.5682 H   0  0  0  0  0  0  0  0  0  0  0  0
  1  2  1  0
  2  3  1  0
  3  4  1  0
  4  5  1  0
  5  6  2  0
  6  7  1  0
  7  8  2  0
  8  9  1  0
  9 10  2  0
 10 11  1  0
 10  5  1  0
  1 12  1  0
  1 13  1  0
  1 14  1  0
  2 15  1  0
  2 16  1  0
  3 17  1  0
  3 18  1  0
  7 19  1  0
  8 20  1  0
 11 21  1  0
 11 22  1  0
 11 23  1  0
M  END
>  <UniqueID>  (16) 
16

>  <SMILES>  (16) 
CCCSc1nccnc1C

>  <Energy>  (16) 
15.509162681976

>  <Genealogy>  (16) 
CCCSc1nccnc1C (3D coordinates assigned)
CCCSc1nccnc1C (optimized conformer: 15.509162681976 kcal/mol)

>  <smiles>  (16) 
CCCSc1nccnc1C

>  <score_type>  (16) 
oracle

>  <origin>  (16) 
adg

>  <m_score__min__energy>  (16) 
-5.0499999999999998

>  <m_primary>  (16) 
energy

$$$$
16:0
     RDKit          3D

 53 56  0  0  0  0  0  0  0  0999 V2000
   -9.7530   21.5240  -31.6440 C   0  0  0  0  0  0  0  0  0  0  0  0
   -8.6220   20.7250  -31.0110 C   0  0  0  0  0  0  0  0  0  0  0  0
   -7.5210   20.5550  -31.9660 N   0  0  0  0  0  0  0  0  0  0  0  0
   -6.7730   21.5180  -32.5770 C   0  0  0  0  0  0  0  0  0  0  0  0
   -6.9020   22.9990  -32.3430 C   0  0  0  0  0  0  0  0  0  0  0  0
   -5.5910   23.5790  -31.9870 N   0  0  0  0  0  0  0  0  0  0  0  0
   -4.5780   22.5300  -31.6900 C   0  0  0  0  0  0  0  0  0  0  0  0
   -4.2490   22.4020  -30.1970 C   0  0  0  0  0  0  0  0  0  0  0  0
   -3.8400   23.7050  -29.6570 N   0  0  0  0  0  0  0  0  0  0  0  0
   -2.9170   23.7900  -28.5480 C   0  0  0  0  0  0  0  0  0  0  0  0
   -1.6750   23.1320  -28.5970 C   0  0  0  0  0  0  0  0  0  0  0  0
   -0.7840   23.2160  -27.5240 C   0  0  0  0  0  0  0  0  0  0  0  0
   -1.1100   23.9570  -26.3840 C   0  0  0  0  0  0  0  0  0  0  0  0
   -0.1810   24.0100  -25.3340 O   0  0  0  0  0  0  0  0  0  0  0  0
   -0.3370   24.8010  -24.1610 C   0  0  0  0  0  0  0  0  0  0  0  0
   -2.3500   24.6200  -26.3280 C   0  0  0  0  0  0  0  0  0  0  0  0
   -3.2430   24.5360  -27.4000 C   0  0  0  0  0  0  0  0  0  0  0  0
   -4.4240   24.9230  -30.2340 C   0  0  0  0  0  0  0  0  0  0  0  0
   -5.7530   24.5970  -30.9230 C   0  0  0  0  0  0  0  0  0  0  0  0
   -5.8850   21.0010  -33.4620 N   0  0  0  0  0  0  0  0  0  0  0  0
   -6.0960   19.6760  -33.4130 C   0  0  0  0  0  0  0  0  0  0  0  0
   -5.4640   18.6780  -34.1510 C   0  0  0  0  0  0  0  0  0  0  0  0
   -5.8850   17.3510  -33.9460 C   0  0  0  0  0  0  0  0  0  0  0  0
   -6.9170   17.0620  -33.0250 C   0  0  0  0  0  0  0  0  0  0  0  0
   -7.5370   18.0950  -32.2980 C   0  0  0  0  0  0  0  0  0  0  0  0
   -7.0900   19.4010  -32.5170 C   0  0  0  0  0  0  0  0  0  0  0  0
  -10.3775   21.9652  -30.8532 H   0  0  0  0  0  0  0  0  0  0  0  0
   -9.3311   22.3256  -32.2680 H   0  0  0  0  0  0  0  0  0  0  0  0
  -10.3675   20.8585  -32.2680 H   0  0  0  0  0  0  0  0  0  0  0  0
   -8.2529   21.2595  -30.1233 H   0  0  0  0  0  0  0  0  0  0  0  0
   -9.0021   19.7336  -30.7234 H   0  0  0  0  0  0  0  0  0  0  0  0
   -7.2745   23.4799  -33.2595 H   0  0  0  0  0  0  0  0  0  0  0  0
   -7.6052   23.1699  -31.5146 H   0  0  0  0  0  0  0  0  0  0  0  0
   -4.9635   21.5631  -32.0457 H   0  0  0  0  0  0  0  0  0  0  0  0
   -3.6495   22.8228  -32.2019 H   0  0  0  0  0  0  0  0  0  0  0  0
   -5.1396   22.0478  -29.6572 H   0  0  0  0  0  0  0  0  0  0  0  0
   -3.4247   21.6848  -30.0701 H   0  0  0  0  0  0  0  0  0  0  0  0
   -1.4028   22.5464  -29.4875 H   0  0  0  0  0  0  0  0  0  0  0  0
    0.1830   22.6943  -27.5766 H   0  0  0  0  0  0  0  0  0  0  0  0
   -0.2118   24.1662  -23.2714 H   0  0  0  0  0  0  0  0  0  0  0  0
    0.4213   25.5978  -24.1525 H   0  0  0  0  0  0  0  0  0  0  0  0
   -1.3410   25.2502  -24.1525 H   0  0  0  0  0  0  0  0  0  0  0  0
   -2.6176   25.2068  -25.4369 H   0  0  0  0  0  0  0  0  0  0  0  0
   -4.2098   25.0579  -27.3459 H   0  0  0  0  0  0  0  0  0  0  0  0
   -4.6001   25.6562  -29.4331 H   0  0  0  0  0  0  0  0  0  0  0  0
   -3.7269   25.3384  -30.9766 H   0  0  0  0  0  0  0  0  0  0  0  0
   -6.4589   24.2153  -30.1707 H   0  0  0  0  0  0  0  0  0  0  0  0
   -6.1293   25.5194  -31.3895 H   0  0  0  0  0  0  0  0  0  0  0  0
   -5.2040   21.5180  -34.0610 H   0  0  0  0  0  0  0  0  0  0  0  0
   -4.6650   18.9184  -34.8678 H   0  0  0  0  0  0  0  0  0  0  0  0
   -5.4077   16.5335  -34.5062 H   0  0  0  0  0  0  0  0  0  0  0  0
   -7.2384   16.0207  -32.8751 H   0  0  0  0  0  0  0  0  0  0  0  0
   -8.3450   17.8822  -31.5826 H   0  0  0  0  0  0  0  0  0  0  0  0
  1  2  1  0
  2  3  1  0
  3  4  1  0
  4  5  1  0
  5  6  1  0
  6  7  1  0
  7  8  1  0
  8  9  1  0
  9 10  1  0
 10 11  2  0
 11 12  1  0
 12 13  2  0
 13 14  1  0
 14 15  1  0
 13 16  1  0
 16 17  2  0
  9 18  1  0
 18 19  1  0
  4 20  2  0
 20 21  1  0
 21 22  2  0
 22 23  1  0
 23 24  2  0
 24 25  1  0
 25 26  2  0
 26  3  1  0
 19  6  1  0
 26 21  1  0
 17 10  1  0
  1 27  1  0
  1 28  1  0
  1 29  1  0
  2 30  1  0
  2 31  1  0
  5 32  1  0
  5 33  1  0
  7 34  1  0
  7 35  1  0
  8 36  1  0
  8 37  1  0
 11 38  1  0
 12 39  1  0
 15 40  1  0
 15 41  1  0
 15 42  1  0
 16 43  1  0
 17 44  1  0
 18 45  1  0
 18 46  1  0
 19 47  1  0
 19 48  1  0
 20 49  1  0
 22 50  1  0
 23 51  1  0
 24 52  1  0
 25 53  1  0
M  CHG  1  20   1
M  END
>  <UniqueID>  (17) 
17

>  <SMILES>  (17) 
CCn1c(CN2CCN(c3ccc(OC)cc3)CC2)[nH+]c2ccccc21

>  <Energy>  (17) 
100.79957923400299

>  <Genealogy>  (17) 
CCn1c(CN2CCN(c3ccc(OC)cc3)CC2)[nH+]c2ccccc21 (protonated)
CCn1c(CN2CCN(c3ccc(OC)cc3)CC2)[nH+]c2ccccc21 (3D coordinates assigned)
CCn1c(CN2CCN(c3ccc(OC)cc3)CC2)[nH+]c2ccccc21 (nonaromatic ring conformer: 100.79957923400299 kcal/mol)

>  <smiles>  (17) 
CCn1c(CN2CCN(c3ccc(OC)cc3)CC2)nc2ccccc21

>  <score_type>  (17) 
oracle

>  <origin>  (17) 
adg

>  <m_score__min__energy>  (17) 
-8.0299999999999994

>  <m_primary>  (17) 
energy

$$$$
17:0
     RDKit          3D

 35 38  0  0  0  0  0  0  0  0999 V2000
   -5.9550   24.3740  -30.4710 C   0  0  0  0  0  0  0  0  0  0  0  0
   -6.6340   23.1570  -31.0160 C   0  0  0  0  0  0  0  0  0  0  0  0
   -7.9760   23.0670  -31.1330 N   0  0  0  0  0  0  0  0  0  0  0  0
   -8.1810   21.8510  -31.6750 C   0  0  0  0  0  0  0  0  0  0  0  0
   -9.7780   21.1910  -31.9800 Cl  0  0  0  0  0  0  0  0  0  0  0  0
   -6.9700   21.2150  -31.8710 C   0  0  0  0  0  0  0  0  0  0  0  0
   -6.7710   19.8470  -32.3980 C   0  0  0  0  0  0  0  0  0  0  0  0
   -6.2900   19.6510  -33.7040 C   0  0  0  0  0  0  0  0  0  0  0  0
   -6.0890   18.3570  -34.1950 C   0  0  0  0  0  0  0  0  0  0  0  0
   -6.3660   17.2510  -33.3870 C   0  0  0  0  0  0  0  0  0  0  0  0
   -6.8470   17.4360  -32.0880 C   0  0  0  0  0  0  0  0  0  0  0  0
   -7.0500   18.7290  -31.5950 C   0  0  0  0  0  0  0  0  0  0  0  0
   -5.9930   22.0410  -31.4430 N   0  0  0  0  0  0  0  0  0  0  0  0
   -4.5730   21.8260  -31.5130 C   0  0  0  0  0  0  0  0  0  0  0  0
   -3.8180   21.6420  -30.3240 C   0  0  0  0  0  0  0  0  0  0  0  0
   -2.4310   21.4120  -30.3810 C   0  0  0  0  0  0  0  0  0  0  0  0
   -1.8370   21.3690  -31.6370 C   0  0  0  0  0  0  0  0  0  0  0  0
   -0.5790   21.1680  -31.9450 O   0  0  0  0  0  0  0  0  0  0  0  0
   -0.5290   21.2190  -33.2660 C   0  0  0  0  0  0  0  0  0  0  0  0
    0.5320   21.0670  -33.9260 O   0  0  0  0  0  0  0  0  0  0  0  0
   -1.7340   21.4510  -33.8410 N   0  0  0  0  0  0  0  0  0  0  0  0
   -2.5550   21.5440  -32.7840 C   0  0  0  0  0  0  0  0  0  0  0  0
   -3.9270   21.7760  -32.7700 C   0  0  0  0  0  0  0  0  0  0  0  0
   -5.9727   24.3424  -29.3716 H   0  0  0  0  0  0  0  0  0  0  0  0
   -4.9123   24.3995  -30.8204 H   0  0  0  0  0  0  0  0  0  0  0  0
   -6.4809   25.2747  -30.8204 H   0  0  0  0  0  0  0  0  0  0  0  0
   -6.0707   20.5192  -34.3428 H   0  0  0  0  0  0  0  0  0  0  0  0
   -5.7126   18.2097  -35.2180 H   0  0  0  0  0  0  0  0  0  0  0  0
   -6.2053   16.2339  -33.7738 H   0  0  0  0  0  0  0  0  0  0  0  0
   -7.0659   16.5647  -31.4533 H   0  0  0  0  0  0  0  0  0  0  0  0
   -7.4303   18.8711  -30.5727 H   0  0  0  0  0  0  0  0  0  0  0  0
   -4.3233   21.6797  -29.3477 H   0  0  0  0  0  0  0  0  0  0  0  0
   -1.8384   21.2714  -29.4650 H   0  0  0  0  0  0  0  0  0  0  0  0
   -1.9660   21.5350  -34.8560 H   0  0  0  0  0  0  0  0  0  0  0  0
   -4.4898   21.9157  -33.7047 H   0  0  0  0  0  0  0  0  0  0  0  0
  1  2  1  0
  2  3  2  0
  3  4  1  0
  4  5  1  0
  4  6  2  0
  6  7  1  0
  7  8  2  0
  8  9  1  0
  9 10  2  0
 10 11  1  0
 11 12  2  0
  6 13  1  0
 13 14  1  0
 14 15  2  0
 15 16  1  0
 16 17  2  0
 17 18  1  0
 18 19  1  0
 19 20  2  0
 19 21  1  0
 21 22  1  0
 22 23  2  0
 13  2  1  0
 23 14  1  0
 12  7  1  0
 22 17  1  0
  1 24  1  0
  1 25  1  0
  1 26  1  0
  8 27  1  0
  9 28  1  0
 10 29  1  0
 11 30  1  0
 12 31  1  0
 15 32  1  0
 16 33  1  0
 21 34  1  0
 23 35  1  0
M  END
>  <UniqueID>  (18) 
18

>  <SMILES>  (18) 
Cc1nc(Cl)c(-c2ccccc2)n1-c1ccc2oc(=O)[nH]c2c1

>  <Energy>  (18) 
118.99674055435169

>  <Genealogy>  (18) 
Cc1nc(Cl)c(-c2ccccc2)n1-c1ccc2oc(=O)[nH]c2c1 (3D coordinates assigned)
Cc1nc(Cl)c(-c2ccccc2)n1-c1ccc2oc(=O)[nH]c2c1 (optimized conformer: 118.99674055435169 kcal/mol)

>  <smiles>  (18) 
Cc1nc(Cl)c(-c2ccccc2)n1-c1ccc2oc(=O)[nH]c2c1

>  <score_type>  (18) 
oracle

>  <origin>  (18) 
adg

>  <m_score__min__energy>  (18) 
-8.4199999999999999

>  <m_primary>  (18) 
energy

$$$$
18:0
     RDKit          3D

 34 37  0  0  0  0  0  0  0  0999 V2000
   -9.1030   18.8230  -31.8050 C   0  0  0  0  0  0  0  0  0  0  0  0
   -8.9350   20.0350  -32.7190 C   0  0  0  0  0  0  0  0  0  0  0  0
   -7.7960   20.8620  -32.2830 N   0  0  0  0  0  0  0  0  0  0  0  0
   -6.4970   20.5440  -32.6090 C   0  0  0  0  0  0  0  0  0  0  0  0
   -5.4430   21.4000  -32.2950 C   0  0  0  0  0  0  0  0  0  0  0  0
   -5.6570   22.5770  -31.5690 C   0  0  0  0  0  0  0  0  0  0  0  0
   -4.6150   23.4550  -31.2180 C   0  0  0  0  0  0  0  0  0  0  0  0
   -4.8840   24.6080  -30.4770 C   0  0  0  0  0  0  0  0  0  0  0  0
   -6.1890   24.8970  -30.0780 C   0  0  0  0  0  0  0  0  0  0  0  0
   -7.2340   24.0380  -30.4190 C   0  0  0  0  0  0  0  0  0  0  0  0
   -6.9850   22.8700  -31.1690 C   0  0  0  0  0  0  0  0  0  0  0  0
   -8.0390   21.9960  -31.5350 C   0  0  0  0  0  0  0  0  0  0  0  0
   -9.2180   22.2680  -31.1670 O   0  0  0  0  0  0  0  0  0  0  0  0
   -4.2110   20.8290  -32.8430 C   0  0  0  0  0  0  0  0  0  0  0  0
   -3.0500   21.3140  -32.7820 O   0  0  0  0  0  0  0  0  0  0  0  0
   -4.5690   19.5740  -33.4740 C   0  0  0  0  0  0  0  0  0  0  0  0
   -3.7330   18.6430  -34.0880 C   0  0  0  0  0  0  0  0  0  0  0  0
   -4.2980   17.4520  -34.5630 C   0  0  0  0  0  0  0  0  0  0  0  0
   -5.6710   17.2070  -34.3970 C   0  0  0  0  0  0  0  0  0  0  0  0
   -6.4970   18.1540  -33.7690 C   0  0  0  0  0  0  0  0  0  0  0  0
   -5.9340   19.3670  -33.3320 C   0  0  0  0  0  0  0  0  0  0  0  0
   -9.0581   19.1468  -30.7547 H   0  0  0  0  0  0  0  0  0  0  0  0
  -10.0756   18.3480  -32.0010 H   0  0  0  0  0  0  0  0  0  0  0  0
   -8.2963   18.1013  -32.0010 H   0  0  0  0  0  0  0  0  0  0  0  0
   -8.7573   19.6894  -33.7481 H   0  0  0  0  0  0  0  0  0  0  0  0
   -9.8511   20.6422  -32.6732 H   0  0  0  0  0  0  0  0  0  0  0  0
   -3.5836   23.2323  -31.5287 H   0  0  0  0  0  0  0  0  0  0  0  0
   -4.0643   25.2902  -30.2073 H   0  0  0  0  0  0  0  0  0  0  0  0
   -6.3948   25.8052  -29.4925 H   0  0  0  0  0  0  0  0  0  0  0  0
   -8.2602   24.2736  -30.1004 H   0  0  0  0  0  0  0  0  0  0  0  0
   -2.6560   18.8385  -34.1970 H   0  0  0  0  0  0  0  0  0  0  0  0
   -3.6647   16.7071  -35.0671 H   0  0  0  0  0  0  0  0  0  0  0  0
   -6.1039   16.2641  -34.7624 H   0  0  0  0  0  0  0  0  0  0  0  0
   -7.5678   17.9502  -33.6212 H   0  0  0  0  0  0  0  0  0  0  0  0
  1  2  1  0
  2  3  1  0
  3  4  1  0
  4  5  2  0
  5  6  1  0
  6  7  2  0
  7  8  1  0
  8  9  2  0
  9 10  1  0
 10 11  2  0
 11 12  1  0
 12 13  2  0
  5 14  1  0
 14 15  2  0
 14 16  1  0
 16 17  2  0
 17 18  1  0
 18 19  2  0
 19 20  1  0
 20 21  2  0
 12  3  1  0
 21 16  1  0
 21  4  1  0
 11  6  1  0
  1 22  1  0
  1 23  1  0
  1 24  1  0
  2 25  1  0
  2 26  1  0
  7 27  1  0
  8 28  1  0
  9 29  1  0
 10 30  1  0
 17 31  1  0
 18 32  1  0
 19 33  1  0
 20 34  1  0
M  END
>  <UniqueID>  (19) 
19

>  <SMILES>  (19) 
CCn1c2c(c3ccccc3c1=O)C(=O)c1ccccc1-2

>  <Energy>  (19) 
84.69278747446947

>  <Genealogy>  (19) 
CCn1c2c(c3ccccc3c1=O)C(=O)c1ccccc1-2 (3D coordinates assigned)
CCn1c2c(c3ccccc3c1=O)C(=O)c1ccccc1-2 (nonaromatic ring conformer: 84.69278747446947 kcal/mol)

>  <smiles>  (19) 
CCn1c2c(c3ccccc3c1=O)C(=O)c1ccccc1-2

>  <score_type>  (19) 
oracle

>  <origin>  (19) 
adg

>  <m_score__min__energy>  (19) 
-8.6999999999999993

>  <m_primary>  (19) 
energy

$$$$
19:0
     RDKit          3D

 33 34  0  0  0  0  0  0  0  0999 V2000
   -3.0860   19.2720  -34.2000 C   0  0  0  0  0  0  0  0  0  0  0  0
   -3.9680   18.0860  -33.9750 C   0  0  0  0  0  0  0  0  0  0  0  0
   -3.5420   16.8050  -34.3450 C   0  0  0  0  0  0  0  0  0  0  0  0
   -4.3950   15.7180  -34.1490 C   0  0  0  0  0  0  0  0  0  0  0  0
   -5.6550   15.9150  -33.5820 C   0  0  0  0  0  0  0  0  0  0  0  0
   -6.0450   17.2090  -33.2030 C   0  0  0  0  0  0  0  0  0  0  0  0
   -7.3380   17.4600  -32.6400 N   0  0  0  0  0  0  0  0  0  0  0  0
   -7.8950   18.7720  -32.4560 C   0  0  0  0  0  0  0  0  0  0  0  0
   -9.0970   18.9590  -31.3520 S   0  0  0  0  0  0  0  0  0  0  0  0
   -7.6380   19.8250  -33.4070 N   0  0  0  0  0  0  0  0  0  0  0  0
   -7.1390   20.9920  -32.7220 C   0  0  0  0  0  0  0  0  0  0  0  0
   -5.7640   21.2760  -32.7040 C   0  0  0  0  0  0  0  0  0  0  0  0
   -5.2850   22.4240  -32.0660 C   0  0  0  0  0  0  0  0  0  0  0  0
   -6.1730   23.3110  -31.4300 C   0  0  0  0  0  0  0  0  0  0  0  0
   -5.6840   24.4940  -30.7710 N   0  0  0  0  0  0  0  0  0  0  0  0
   -6.4530   25.2120  -30.1000 O   0  0  0  0  0  0  0  0  0  0  0  0
   -4.3580   24.8500  -30.8660 O   0  0  0  0  0  0  0  0  0  0  0  0
   -7.5490   23.0240  -31.4460 C   0  0  0  0  0  0  0  0  0  0  0  0
   -8.0270   21.8770  -32.0880 C   0  0  0  0  0  0  0  0  0  0  0  0
   -5.2040   18.2550  -33.4280 N   0  0  0  0  0  0  0  0  0  0  0  0
   -2.7765   19.6881  -33.2299 H   0  0  0  0  0  0  0  0  0  0  0  0
   -2.1956   18.9643  -34.7678 H   0  0  0  0  0  0  0  0  0  0  0  0
   -3.6370   20.0362  -34.7678 H   0  0  0  0  0  0  0  0  0  0  0  0
   -2.5451   16.6566  -34.7857 H   0  0  0  0  0  0  0  0  0  0  0  0
   -4.0746   14.7070  -34.4411 H   0  0  0  0  0  0  0  0  0  0  0  0
   -6.3361   15.0641  -33.4335 H   0  0  0  0  0  0  0  0  0  0  0  0
   -7.9330   16.6340  -32.4070 H   0  0  0  0  0  0  0  0  0  0  0  0
   -8.5060   20.0590  -33.9370 H   0  0  0  0  0  0  0  0  0  0  0  0
   -6.9340   19.5090  -34.1160 H   0  0  0  0  0  0  0  0  0  0  0  0
   -5.0584   20.5900  -33.1956 H   0  0  0  0  0  0  0  0  0  0  0  0
   -4.2055   22.6355  -32.0612 H   0  0  0  0  0  0  0  0  0  0  0  0
   -8.2549   23.7064  -30.9500 H   0  0  0  0  0  0  0  0  0  0  0  0
   -9.1066   21.6662  -32.0966 H   0  0  0  0  0  0  0  0  0  0  0  0
  1  2  1  0
  2  3  2  0
  3  4  1  0
  4  5  2  0
  5  6  1  0
  6  7  1  0
  7  8  1  0
  8  9  2  0
  8 10  1  0
 10 11  1  0
 11 12  2  0
 12 13  1  0
 13 14  2  0
 14 15  1  0
 15 16  2  0
 15 17  1  0
 14 18  1  0
 18 19  2  0
  6 20  2  0
 20  2  1  0
 19 11  1  0
  1 21  1  0
  1 22  1  0
  1 23  1  0
  3 24  1  0
  4 25  1  0
  5 26  1  0
  7 27  1  0
 10 28  1  0
 10 29  1  0
 12 30  1  0
 13 31  1  0
 18 32  1  0
 19 33  1  0
M  CHG  3  10   1  15   1  17  -1
M  END
>  <UniqueID>  (20) 
20

>  <SMILES>  (20) 
Cc1cccc(NC(=S)[NH2+]c2ccc([N+](=O)[O-])cc2)n1

>  <Energy>  (20) 
39.35035297199393

>  <Genealogy>  (20) 
Cc1cccc(NC(=S)[NH2+]c2ccc([N+](=O)[O-])cc2)n1 (protonated)
Cc1cccc(NC(=S)[NH2+]c2ccc([N+](=O)[O-])cc2)n1 (3D coordinates assigned)
Cc1cccc(NC(=S)[NH2+]c2ccc([N+](=O)[O-])cc2)n1 (optimized conformer: 39.35035297199393 kcal/mol)

>  <smiles>  (20) 
Cc1cccc(NC(=S)Nc2ccc([N+](=O)[O-])cc2)n1

>  <score_type>  (20) 
oracle

>  <origin>  (20) 
adg

>  <m_score__min__energy>  (20) 
-7.6500000000000004

>  <m_primary>  (20) 
energy

$$$$
20:0
     RDKit          3D

 31 33  0  0  0  0  0  0  0  0999 V2000
   -7.0250   22.9910  -28.6460 H   0  0  0  0  0  0  0  0  0  0  0  0
   -6.2480   22.6810  -29.2710 N   0  0  0  0  0  0  0  0  0  0  0  0
   -5.2970   23.4850  -29.6280 C   0  0  0  0  0  0  0  0  0  0  0  0
   -4.1700   23.8000  -28.9060 C   0  0  0  0  0  0  0  0  0  0  0  0
   -3.6720   23.4200  -27.6640 C   0  0  0  0  0  0  0  0  0  0  0  0
   -4.2087   22.7035  -27.0248 H   0  0  0  0  0  0  0  0  0  0  0  0
   -2.4530   23.9920  -27.2620 C   0  0  0  0  0  0  0  0  0  0  0  0
   -2.0143   23.7237  -26.2896 H   0  0  0  0  0  0  0  0  0  0  0  0
   -1.7870   24.9160  -28.1100 C   0  0  0  0  0  0  0  0  0  0  0  0
   -0.4970   25.5340  -27.6780 C   0  0  0  0  0  0  0  0  0  0  0  0
   -0.4509   25.5561  -26.5792 H   0  0  0  0  0  0  0  0  0  0  0  0
    0.3428   24.9404  -28.0684 H   0  0  0  0  0  0  0  0  0  0  0  0
   -0.4333   26.5604  -28.0684 H   0  0  0  0  0  0  0  0  0  0  0  0
   -2.3310   25.2560  -29.3210 N   0  0  0  0  0  0  0  0  0  0  0  0
   -3.5050   24.6930  -29.6970 C   0  0  0  0  0  0  0  0  0  0  0  0
   -4.1730   24.9280  -30.8440 N   0  0  0  0  0  0  0  0  0  0  0  0
   -5.2670   24.1720  -30.7960 N   0  0  0  0  0  0  0  0  0  0  0  0
   -6.2990   24.1860  -31.8310 C   0  0  0  0  0  0  0  0  0  0  0  0
   -7.1320   24.8275  -31.5077 H   0  0  0  0  0  0  0  0  0  0  0  0
   -5.8713   24.5777  -32.7657 H   0  0  0  0  0  0  0  0  0  0  0  0
   -6.8050   22.7900  -32.0630 C   0  0  0  0  0  0  0  0  0  0  0  0
   -8.0970   22.4290  -31.6530 C   0  0  0  0  0  0  0  0  0  0  0  0
   -8.7364   23.1560  -31.1309 H   0  0  0  0  0  0  0  0  0  0  0  0
   -8.5650   21.1390  -31.9130 C   0  0  0  0  0  0  0  0  0  0  0  0
   -9.5740   20.8424  -31.5907 H   0  0  0  0  0  0  0  0  0  0  0  0
   -7.7480   20.2280  -32.5830 C   0  0  0  0  0  0  0  0  0  0  0  0
   -8.1057   19.2085  -32.7894 H   0  0  0  0  0  0  0  0  0  0  0  0
   -6.4720   20.6230  -32.9890 C   0  0  0  0  0  0  0  0  0  0  0  0
   -5.8213   19.9125  -33.5199 H   0  0  0  0  0  0  0  0  0  0  0  0
   -6.0300   21.8850  -32.7300 N   0  0  0  0  0  0  0  0  0  0  0  0
   -5.0740   22.1560  -33.0540 H   0  0  0  0  0  0  0  0  0  0  0  0
  1  2  1  0
  2  3  2  0
  3  4  1  0
  4  5  2  0
  5  6  1  0
  5  7  1  0
  7  8  1  0
  7  9  2  0
  9 10  1  0
 10 11  1  0
 10 12  1  0
 10 13  1  0
  9 14  1  0
 14 15  2  0
 15 16  1  0
 16 17  1  0
 17 18  1  0
 18 19  1  0
 18 20  1  0
 18 21  1  0
 21 22  2  0
 22 23  1  0
 22 24  1  0
 24 25  1  0
 24 26  2  0
 26 27  1  0
 26 28  1  0
 28 29  1  0
 28 30  2  0
 30 31  1  0
 17  3  1  0
 30 21  1  0
 15  4  1  0
M  CHG  2  16  -1  30   1
M  END
>  <UniqueID>  (21) 
21

>  <SMILES>  (21) 
[H]/N=c1\c2ccc(C)nc2[n-]n1Cc1cccc[nH+]1

>  <Energy>  (21) 
73.59099827727862

>  <Genealogy>  (21) 
Cc1ccc2c(=N)n(Cc3cccc[nH+]3)[n-]c2n1 (protonated)
[H]/N=c1\c2ccc(C)nc2[n-]n1Cc1cccc[nH+]1 (cis-trans isomerization)
[H]/N=c1\c2ccc(C)nc2[n-]n1Cc1cccc[nH+]1 (3D coordinates assigned)
[H]/N=c1\c2ccc(C)nc2[n-]n1Cc1cccc[nH+]1 (optimized conformer: 73.59099827727862 kcal/mol)

>  <smiles>  (21) 
Cc1ccc2c(=N)n(Cc3ccccn3)[nH]c2n1

>  <score_type>  (21) 
oracle

>  <origin>  (21) 
adg

>  <m_score__min__energy>  (21) 
-7.8399999999999999

>  <m_primary>  (21) 
energy

$$$$
21:0
     RDKit          3D

 54 57  0  0  0  0  0  0  0  0999 V2000
   -2.7250   20.3520  -29.3020 O   0  0  0  0  0  0  0  0  0  0  0  0
   -3.1410   21.5090  -29.5870 C   0  0  0  0  0  0  0  0  0  0  0  0
   -3.2810   21.9180  -30.9580 N   0  0  0  0  0  0  0  0  0  0  0  0
   -3.1640   21.0240  -32.0790 C   0  0  0  0  0  0  0  0  0  0  0  0
   -1.9230   20.7710  -32.6880 C   0  0  0  0  0  0  0  0  0  0  0  0
   -1.8320   19.8720  -33.7510 C   0  0  0  0  0  0  0  0  0  0  0  0
   -2.9720   19.2120  -34.2150 C   0  0  0  0  0  0  0  0  0  0  0  0
   -4.2220   19.4540  -33.6230 C   0  0  0  0  0  0  0  0  0  0  0  0
   -5.4420   18.6970  -34.0840 C   0  0  0  0  0  0  0  0  0  0  0  0
   -6.4640   19.5700  -34.4130 F   0  0  0  0  0  0  0  0  0  0  0  0
   -5.9010   17.8530  -33.0850 F   0  0  0  0  0  0  0  0  0  0  0  0
   -5.1180   17.9430  -35.1960 F   0  0  0  0  0  0  0  0  0  0  0  0
   -4.3030   20.3410  -32.5340 C   0  0  0  0  0  0  0  0  0  0  0  0
   -3.4970   22.4640  -28.4770 C   0  0  1  0  0  0  0  0  0  0  0  0
   -2.5530   22.2630  -27.2610 C   0  0  0  0  0  0  0  0  0  0  0  0
   -1.7870   23.5350  -27.2110 C   0  0  0  0  0  0  0  0  0  0  0  0
   -0.7290   23.8570  -26.3590 C   0  0  0  0  0  0  0  0  0  0  0  0
   -0.1140   25.1100  -26.4970 C   0  0  0  0  0  0  0  0  0  0  0  0
   -0.5570   26.0100  -27.4830 C   0  0  0  0  0  0  0  0  0  0  0  0
   -1.6240   25.6650  -28.3290 C   0  0  0  0  0  0  0  0  0  0  0  0
   -2.2420   24.4180  -28.1570 C   0  0  0  0  0  0  0  0  0  0  0  0
   -3.3120   23.8580  -28.9150 N   0  0  0  0  0  0  0  0  0  0  0  0
   -4.2200   24.5800  -29.7790 C   0  0  0  0  0  0  0  0  0  0  0  0
   -3.7840   25.0940  -30.8410 O   0  0  0  0  0  0  0  0  0  0  0  0
   -5.6470   24.7520  -29.4040 C   0  0  0  0  0  0  0  0  0  0  0  0
   -6.7080   24.2200  -30.0360 C   0  0  0  0  0  0  0  0  0  0  0  0
   -6.7520   23.7720  -31.4740 C   0  0  0  0  0  0  0  0  0  0  0  0
   -7.5580   22.5070  -31.6480 C   0  0  0  0  0  0  0  0  0  0  0  0
   -8.9330   22.5690  -31.9390 C   0  0  0  0  0  0  0  0  0  0  0  0
   -9.6820   21.3940  -32.0660 C   0  0  0  0  0  0  0  0  0  0  0  0
   -9.0700   20.1500  -31.8870 C   0  0  0  0  0  0  0  0  0  0  0  0
   -7.7100   20.0790  -31.5740 C   0  0  0  0  0  0  0  0  0  0  0  0
   -6.9580   21.2510  -31.4460 C   0  0  0  0  0  0  0  0  0  0  0  0
   -3.3820   22.9390  -31.1540 H   0  0  0  0  0  0  0  0  0  0  0  0
   -1.0200   21.2837  -32.3252 H   0  0  0  0  0  0  0  0  0  0  0  0
   -0.8581   19.6822  -34.2258 H   0  0  0  0  0  0  0  0  0  0  0  0
   -2.8902   18.4989  -35.0485 H   0  0  0  0  0  0  0  0  0  0  0  0
   -5.2694   20.5011  -32.0336 H   0  0  0  0  0  0  0  0  0  0  0  0
   -4.5446   22.2661  -28.2062 H   0  0  0  0  0  0  0  0  0  0  0  0
   -3.1285   22.1126  -26.3357 H   0  0  0  0  0  0  0  0  0  0  0  0
   -1.9097   21.3759  -27.3567 H   0  0  0  0  0  0  0  0  0  0  0  0
   -0.3851   23.1434  -25.5958 H   0  0  0  0  0  0  0  0  0  0  0  0
    0.7168   25.3895  -25.8325 H   0  0  0  0  0  0  0  0  0  0  0  0
   -0.0658   26.9882  -27.5921 H   0  0  0  0  0  0  0  0  0  0  0  0
   -1.9677   26.3588  -29.1104 H   0  0  0  0  0  0  0  0  0  0  0  0
   -5.8564   25.3759  -28.5226 H   0  0  0  0  0  0  0  0  0  0  0  0
   -7.6301   24.1007  -29.4482 H   0  0  0  0  0  0  0  0  0  0  0  0
   -7.2067   24.5691  -32.0805 H   0  0  0  0  0  0  0  0  0  0  0  0
   -5.7211   23.5651  -31.7971 H   0  0  0  0  0  0  0  0  0  0  0  0
   -9.4217   23.5461  -32.0673 H   0  0  0  0  0  0  0  0  0  0  0  0
  -10.7538   21.4492  -32.3070 H   0  0  0  0  0  0  0  0  0  0  0  0
   -9.6590   19.2270  -31.9925 H   0  0  0  0  0  0  0  0  0  0  0  0
   -7.2303   19.0999  -31.4281 H   0  0  0  0  0  0  0  0  0  0  0  0
   -5.8909   21.1903  -31.1858 H   0  0  0  0  0  0  0  0  0  0  0  0
  1  2  2  0
  2  3  1  0
  3  4  1  0
  4  5  2  0
  5  6  1  0
  6  7  2  0
  7  8  1  0
  8  9  1  0
  9 10  1  0
  9 11  1  0
  9 12  1  0
  8 13  2  0
  2 14  1  0
 14 15  1  0
 15 16  1  0
 16 17  2  0
 17 18  1  0
 18 19  2  0
 19 20  1  0
 20 21  2  0
 21 22  1  0
 22 23  1  0
 23 24  2  0
 23 25  1  0
 25 26  2  3
 26 27  1  0
 27 28  1  0
 28 29  2  0
 29 30  1  0
 30 31  2  0
 31 32  1  0
 32 33  2  0
 13  4  1  0
 22 14  1  0
 33 28  1  0
 21 16  1  0
  3 34  1  0
  5 35  1  0
  6 36  1  0
  7 37  1  0
 13 38  1  0
 14 39  1  1
 15 40  1  0
 15 41  1  0
 17 42  1  0
 18 43  1  0
 19 44  1  0
 20 45  1  0
 25 46  1  0
 26 47  1  0
 27 48  1  0
 27 49  1  0
 29 50  1  0
 30 51  1  0
 31 52  1  0
 32 53  1  0
 33 54  1  0
M  END
>  <UniqueID>  (22) 
22

>  <SMILES>  (22) 
O=C(Nc1cccc(C(F)(F)F)c1)[C@H]1Cc2ccccc2N1C(=O)C=CCc1ccccc1

>  <Energy>  (22) 
80.89985976714709

>  <Genealogy>  (22) 
O=C(Nc1cccc(C(F)(F)F)c1)[C@H]1Cc2ccccc2N1C(=O)C=CCc1ccccc1 (chirality)
O=C(Nc1cccc(C(F)(F)F)c1)[C@H]1Cc2ccccc2N1C(=O)C=CCc1ccccc1 (3D coordinates assigned)
O=C(Nc1cccc(C(F)(F)F)c1)[C@H]1Cc2ccccc2N1C(=O)C=CCc1ccccc1 (nonaromatic ring conformer: 80.89985976714709 kcal/mol)

>  <smiles>  (22) 
O=C(Nc1cccc(C(F)(F)F)c1)C1Cc2ccccc2N1C(=O)C=CCc1ccccc1

>  <score_type>  (22) 
oracle

>  <origin>  (22) 
adg

>  <m_score__min__energy>  (22) 
-9.6500000000000004

>  <m_primary>  (22) 
energy

$$$$
22:0
     RDKit          3D

 40 42  0  0  0  0  0  0  0  0999 V2000
    0.9550   23.1010  -24.2990 C   0  0  0  0  0  0  0  0  0  0  0  0
   -0.2560   23.6010  -24.9500 N   0  0  0  0  0  0  0  0  0  0  0  0
   -0.8190   24.8850  -24.5240 C   0  0  0  0  0  0  0  0  0  0  0  0
   -0.8940   22.7990  -25.9630 C   0  0  0  0  0  0  0  0  0  0  0  0
   -0.8750   21.5430  -25.8570 O   0  0  0  0  0  0  0  0  0  0  0  0
   -1.5610   23.4110  -27.1370 C   0  0  0  0  0  0  0  0  0  0  0  0
   -2.9620   23.4730  -27.2000 C   0  0  0  0  0  0  0  0  0  0  0  0
   -3.5970   24.0450  -28.3060 C   0  0  0  0  0  0  0  0  0  0  0  0
   -2.8440   24.5650  -29.3640 C   0  0  0  0  0  0  0  0  0  0  0  0
   -3.5280   25.1390  -30.4880 N   0  0  0  0  0  0  0  0  0  0  0  0
   -4.9300   25.0290  -30.7690 C   0  0  0  0  0  0  0  0  0  0  0  0
   -5.6550   26.0490  -30.6210 O   0  0  0  0  0  0  0  0  0  0  0  0
   -5.5360   23.7750  -31.2750 C   0  0  0  0  0  0  0  0  0  0  0  0
   -4.7470   22.7830  -31.8800 C   0  0  0  0  0  0  0  0  0  0  0  0
   -5.3140   21.6370  -32.3410 N   0  0  0  0  0  0  0  0  0  0  0  0
   -6.6500   21.4090  -32.2430 C   0  0  0  0  0  0  0  0  0  0  0  0
   -7.1970   20.2140  -32.7260 C   0  0  0  0  0  0  0  0  0  0  0  0
   -8.5730   19.9850  -32.6270 C   0  0  0  0  0  0  0  0  0  0  0  0
   -9.4070   20.9470  -32.0470 C   0  0  0  0  0  0  0  0  0  0  0  0
   -8.8690   22.1430  -31.5620 C   0  0  0  0  0  0  0  0  0  0  0  0
   -7.4890   22.3820  -31.6570 C   0  0  0  0  0  0  0  0  0  0  0  0
   -6.9220   23.5690  -31.1800 C   0  0  0  0  0  0  0  0  0  0  0  0
   -1.4430   24.4630  -29.3270 C   0  0  0  0  0  0  0  0  0  0  0  0
   -0.8070   23.8930  -28.2200 C   0  0  0  0  0  0  0  0  0  0  0  0
    0.8320   23.1518  -23.2071 H   0  0  0  0  0  0  0  0  0  0  0  0
    1.1290   22.0575  -24.6002 H   0  0  0  0  0  0  0  0  0  0  0  0
    1.8146   23.7178  -24.6002 H   0  0  0  0  0  0  0  0  0  0  0  0
   -0.8388   24.9302  -23.4251 H   0  0  0  0  0  0  0  0  0  0  0  0
   -0.1979   25.7050  -24.9135 H   0  0  0  0  0  0  0  0  0  0  0  0
   -1.8430   24.9837  -24.9135 H   0  0  0  0  0  0  0  0  0  0  0  0
   -3.5643   23.0686  -26.3732 H   0  0  0  0  0  0  0  0  0  0  0  0
   -4.6955   24.0865  -28.3447 H   0  0  0  0  0  0  0  0  0  0  0  0
   -3.6622   22.9347  -31.9815 H   0  0  0  0  0  0  0  0  0  0  0  0
   -6.5446   19.4555  -33.1832 H   0  0  0  0  0  0  0  0  0  0  0  0
   -9.0010   19.0454  -33.0064 H   0  0  0  0  0  0  0  0  0  0  0  0
  -10.4888   20.7620  -31.9723 H   0  0  0  0  0  0  0  0  0  0  0  0
   -9.5274   22.8969  -31.1058 H   0  0  0  0  0  0  0  0  0  0  0  0
   -7.5626   24.3417  -30.7301 H   0  0  0  0  0  0  0  0  0  0  0  0
   -0.8443   24.8331  -30.1723 H   0  0  0  0  0  0  0  0  0  0  0  0
    0.2904   23.8215  -28.1969 H   0  0  0  0  0  0  0  0  0  0  0  0
  1  2  1  0
  2  3  1  0
  2  4  1  0
  4  5  2  0
  4  6  1  0
  6  7  2  0
  7  8  1  0
  8  9  2  0
  9 10  1  0
 10 11  1  0
 11 12  2  0
 11 13  1  0
 13 14  2  0
 14 15  1  0
 15 16  2  0
 16 17  1  0
 17 18  2  0
 18 19  1  0
 19 20  2  0
 20 21  1  0
 21 22  2  0
  9 23  1  0
 23 24  2  0
 24  6  1  0
 22 13  1  0
 21 16  1  0
  1 25  1  0
  1 26  1  0
  1 27  1  0
  3 28  1  0
  3 29  1  0
  3 30  1  0
  7 31  1  0
  8 32  1  0
 14 33  1  0
 17 34  1  0
 18 35  1  0
 19 36  1  0
 20 37  1  0
 22 38  1  0
 23 39  1  0
 24 40  1  0
M  CHG  1  10  -1
M  END
>  <UniqueID>  (23) 
23

>  <SMILES>  (23) 
CN(C)C(=O)c1ccc([N-]C(=O)c2cnc3ccccc3c2)cc1

>  <Energy>  (23) 
55.47356648346418

>  <Genealogy>  (23) 
CN(C)C(=O)c1ccc([N-]C(=O)c2cnc3ccccc3c2)cc1 (protonated)
CN(C)C(=O)c1ccc([N-]C(=O)c2cnc3ccccc3c2)cc1 (3D coordinates assigned)
CN(C)C(=O)c1ccc([N-]C(=O)c2cnc3ccccc3c2)cc1 (optimized conformer: 55.47356648346418 kcal/mol)

>  <smiles>  (23) 
CN(C)C(=O)c1ccc(NC(=O)c2cnc3ccccc3c2)cc1

>  <score_type>  (23) 
oracle

>  <origin>  (23) 
adg

>  <m_score__min__energy>  (23) 
-10.34

>  <m_primary>  (23) 
energy

$$$$
23:0
     RDKit          3D

 46 47  0  0  0  0  0  0  0  0999 V2000
    0.5796   22.8020  -27.7908 H   0  0  0  0  0  0  0  0  0  0  0  0
   -0.3040   23.0300  -28.4050 C   0  0  0  0  0  0  0  0  0  0  0  0
   -0.7480   22.2240  -29.4070 N   0  0  0  0  0  0  0  0  0  0  0  0
   -1.8270   22.8830  -29.8770 C   0  0  0  0  0  0  0  0  0  0  0  0
   -2.6870   22.5650  -30.9370 C   0  0  0  0  0  0  0  0  0  0  0  0
   -2.5680   21.3590  -31.7310 N   0  0  0  0  0  0  0  0  0  0  0  0
   -1.2680   20.8880  -32.2250 C   0  0  0  0  0  0  0  0  0  0  0  0
   -0.6153   20.6515  -31.3717 H   0  0  0  0  0  0  0  0  0  0  0  0
   -1.4133   19.9854  -32.8367 H   0  0  0  0  0  0  0  0  0  0  0  0
   -0.8014   21.6742  -32.8367 H   0  0  0  0  0  0  0  0  0  0  0  0
   -3.7580   20.5320  -31.9810 C   0  0  0  0  0  0  0  0  0  0  0  0
   -3.4403   19.5222  -32.2800 H   0  0  0  0  0  0  0  0  0  0  0  0
   -4.3573   20.4848  -31.0598 H   0  0  0  0  0  0  0  0  0  0  0  0
   -4.6090   21.1390  -33.0910 C   0  0  0  0  0  0  0  0  0  0  0  0
   -5.4283   21.7234  -32.6469 H   0  0  0  0  0  0  0  0  0  0  0  0
   -3.9848   21.7970  -33.7134 H   0  0  0  0  0  0  0  0  0  0  0  0
   -5.0279   20.3346  -33.7134 H   0  0  0  0  0  0  0  0  0  0  0  0
   -3.6760   23.4700  -31.2130 N   0  0  0  0  0  0  0  0  0  0  0  0
   -3.8340   24.6330  -30.4970 C   0  0  0  0  0  0  0  0  0  0  0  0
   -4.7850   25.4670  -30.7880 N   0  0  0  0  0  0  0  0  0  0  0  0
   -6.0530   25.5450  -30.0640 C   0  0  0  0  0  0  0  0  0  0  0  0
   -6.6770   26.3340  -30.5090 H   0  0  0  0  0  0  0  0  0  0  0  0
   -5.8487   25.7768  -29.0083 H   0  0  0  0  0  0  0  0  0  0  0  0
   -6.7940   24.2090  -30.1460 C   0  0  0  0  0  0  0  0  0  0  0  0
   -7.8107   24.3406  -29.7472 H   0  0  0  0  0  0  0  0  0  0  0  0
   -6.2314   23.4692  -29.5577 H   0  0  0  0  0  0  0  0  0  0  0  0
   -6.8890   23.6980  -31.5900 C   0  0  0  0  0  0  0  0  0  0  0  0
   -5.9044   23.3202  -31.9029 H   0  0  0  0  0  0  0  0  0  0  0  0
   -7.2066   24.5306  -32.2350 H   0  0  0  0  0  0  0  0  0  0  0  0
   -7.9150   22.5740  -31.7090 C   0  0  0  0  0  0  0  0  0  0  0  0
   -8.2159   22.2443  -30.7036 H   0  0  0  0  0  0  0  0  0  0  0  0
   -8.7975   22.9394  -32.2546 H   0  0  0  0  0  0  0  0  0  0  0  0
   -7.4709   21.7284  -32.2546 H   0  0  0  0  0  0  0  0  0  0  0  0
   -2.9850   24.9210  -29.4690 N   0  0  0  0  0  0  0  0  0  0  0  0
   -2.0030   24.0340  -29.1830 C   0  0  0  0  0  0  0  0  0  0  0  0
   -1.0610   24.1430  -28.2400 N   0  0  0  0  0  0  0  0  0  0  0  0
   -0.8180   25.2570  -27.3280 C   0  0  0  0  0  0  0  0  0  0  0  0
    0.1419   25.1029  -26.8133 H   0  0  0  0  0  0  0  0  0  0  0  0
   -0.7881   26.1936  -27.9041 H   0  0  0  0  0  0  0  0  0  0  0  0
   -1.9400   25.3430  -26.2910 C   0  0  0  0  0  0  0  0  0  0  0  0
   -2.8778   25.6126  -26.7989 H   0  0  0  0  0  0  0  0  0  0  0  0
   -2.0330   24.3644  -25.7973 H   0  0  0  0  0  0  0  0  0  0  0  0
   -1.6310   26.3920  -25.2280 C   0  0  0  0  0  0  0  0  0  0  0  0
   -1.7610   25.9508  -24.2288 H   0  0  0  0  0  0  0  0  0  0  0  0
   -0.5930   26.7371  -25.3443 H   0  0  0  0  0  0  0  0  0  0  0  0
   -2.3161   27.2447  -25.3443 H   0  0  0  0  0  0  0  0  0  0  0  0
  1  2  1  0
  2  3  2  0
  3  4  1  0
  4  5  1  0
  5  6  1  0
  6  7  1  0
  7  8  1  0
  7  9  1  0
  7 10  1  0
  6 11  1  0
 11 12  1  0
 11 13  1  0
 11 14  1  0
 14 15  1  0
 14 16  1  0
 14 17  1  0
  5 18  2  0
 18 19  1  0
 19 20  2  0
 20 21  1  0
 21 22  1  0
 21 23  1  0
 21 24  1  0
 24 25  1  0
 24 26  1  0
 24 27  1  0
 27 28  1  0
 27 29  1  0
 27 30  1  0
 30 31  1  0
 30 32  1  0
 30 33  1  0
 19 34  1  0
 34 35  1  0
 35 36  1  0
 36 37  1  0
 37 38  1  0
 37 39  1  0
 37 40  1  0
 40 41  1  0
 40 42  1  0
 40 43  1  0
 43 44  1  0
 43 45  1  0
 43 46  1  0
 36  2  1  0
 35  4  2  0
M  CHG  1  34  -1
M  END
>  <UniqueID>  (24) 
24

>  <SMILES>  (24) 
CCCC/N=c1\nc(N(C)CC)c2ncn(CCC)c2[n-]1

>  <Energy>  (24) 
69.26542105921659

>  <Genealogy>  (24) 
CCCCN=c1nc(N(C)CC)c2ncn(CCC)c2[n-]1 (protonated)
CCCC/N=c1\nc(N(C)CC)c2ncn(CCC)c2[n-]1 (cis-trans isomerization)
CCCC/N=c1\nc(N(C)CC)c2ncn(CCC)c2[n-]1 (3D coordinates assigned)
CCCC/N=c1\nc(N(C)CC)c2ncn(CCC)c2[n-]1 (optimized conformer: 69.26542105921659 kcal/mol)

>  <smiles>  (24) 
CCCCN=c1nc(N(C)CC)c2ncn(CCC)c2[nH]1

>  <score_type>  (24) 
oracle

>  <origin>  (24) 
adg

>  <m_score__min__energy>  (24) 
-7.1600000000000001

>  <m_primary>  (24) 
energy

$$$$
24:0
     RDKit          3D

 39 42  0  0  0  0  0  0  0  0999 V2000
   -9.8630   21.6160  -30.5050 O   0  0  0  0  0  0  0  0  0  0  0  0
   -8.8780   21.5470  -31.2230 C   0  0  0  0  0  0  0  0  0  0  0  0
   -7.8720   22.6690  -31.2150 C   0  0  0  0  0  0  0  0  0  0  0  0
   -6.9040   22.5610  -32.4010 C   0  0  0  0  0  0  0  0  0  0  0  0
   -6.3800   21.1500  -32.5510 C   0  0  0  0  0  0  0  0  0  0  0  0
   -7.2290   20.1000  -32.4090 C   0  0  0  0  0  0  0  0  0  0  0  0
   -6.7880   18.6660  -32.6760 C   0  0  0  0  0  0  0  0  0  0  0  0
   -5.2590   18.4660  -32.6330 C   0  0  0  0  0  0  0  0  0  0  0  0
   -4.5760   19.5570  -33.4550 C   0  0  1  0  0  0  0  0  0  0  0  0
   -4.9670   20.8820  -32.8980 C   0  0  0  0  0  0  0  0  0  0  0  0
   -3.9210   21.6070  -32.5000 C   0  0  0  0  0  0  0  0  0  0  0  0
   -2.6440   20.8430  -32.6170 C   0  0  2  0  0  0  0  0  0  0  0  0
   -1.9620   20.4240  -30.8500 Br  0  0  0  0  0  0  0  0  0  0  0  0
   -1.5860   21.5480  -33.4330 C   0  0  0  0  0  0  0  0  0  0  0  0
   -0.7120   20.8220  -34.1550 C   0  0  0  0  0  0  0  0  0  0  0  0
   -0.7930   19.2990  -34.1620 C   0  0  2  0  0  0  0  0  0  0  0  0
   -0.1200   18.7240  -35.4150 C   0  0  0  0  0  0  0  0  0  0  0  0
    1.8160   18.7500  -35.2490 Br  0  0  0  0  0  0  0  0  0  0  0  0
   -2.2450   18.8620  -34.0590 C   0  0  0  0  0  0  0  0  0  0  0  0
   -3.0910   19.5900  -33.3100 C   0  0  0  0  0  0  0  0  0  0  0  0
   -8.6920   20.3510  -32.1220 C   0  0  0  0  0  0  0  0  0  0  0  0
   -8.4059   23.6289  -31.2749 H   0  0  0  0  0  0  0  0  0  0  0  0
   -7.2886   22.6045  -30.2847 H   0  0  0  0  0  0  0  0  0  0  0  0
   -7.4318   22.8479  -33.3225 H   0  0  0  0  0  0  0  0  0  0  0  0
   -6.0518   23.2320  -32.2180 H   0  0  0  0  0  0  0  0  0  0  0  0
   -7.2443   18.0156  -31.9152 H   0  0  0  0  0  0  0  0  0  0  0  0
   -7.1151   18.4151  -33.6958 H   0  0  0  0  0  0  0  0  0  0  0  0
   -4.9118   18.5215  -31.5907 H   0  0  0  0  0  0  0  0  0  0  0  0
   -5.0076   17.4809  -33.0530 H   0  0  0  0  0  0  0  0  0  0  0  0
   -4.8701   19.3537  -34.4953 H   0  0  0  0  0  0  0  0  0  0  0  0
   -3.9906   22.6409  -32.1309 H   0  0  0  0  0  0  0  0  0  0  0  0
   -1.5302   22.6466  -33.4372 H   0  0  0  0  0  0  0  0  0  0  0  0
    0.0657   21.3305  -34.7438 H   0  0  0  0  0  0  0  0  0  0  0  0
   -0.2500   18.9052  -33.2902 H   0  0  0  0  0  0  0  0  0  0  0  0
   -0.4539   17.6855  -35.5569 H   0  0  0  0  0  0  0  0  0  0  0  0
   -0.4035   19.3444  -36.2780 H   0  0  0  0  0  0  0  0  0  0  0  0
   -2.5977   17.9648  -34.5887 H   0  0  0  0  0  0  0  0  0  0  0  0
   -9.2173   20.5316  -33.0715 H   0  0  0  0  0  0  0  0  0  0  0  0
   -9.1018   19.4668  -31.6118 H   0  0  0  0  0  0  0  0  0  0  0  0
  1  2  2  0
  2  3  1  0
  3  4  1  0
  4  5  1  0
  5  6  2  0
  6  7  1  0
  7  8  1  0
  8  9  1  0
  9 10  1  0
 10 11  2  0
 11 12  1  0
 12 13  1  1
 12 14  1  0
 14 15  2  0
 15 16  1  0
 16 17  1  0
 17 18  1  0
 16 19  1  0
 19 20  2  0
  6 21  1  0
 21  2  1  0
 10  5  1  0
 20 12  1  0
 20  9  1  0
  3 22  1  0
  3 23  1  0
  4 24  1  0
  4 25  1  0
  7 26  1  0
  7 27  1  0
  8 28  1  0
  8 29  1  0
  9 30  1  6
 11 31  1  0
 14 32  1  0
 15 33  1  0
 16 34  1  1
 17 35  1  0
 17 36  1  0
 19 37  1  0
 21 38  1  0
 21 39  1  0
M  END
>  <UniqueID>  (25) 
25

>  <SMILES>  (25) 
O=C1CCC2=C(CC[C@H]3C2=C[C@]2(Br)C=CC(CBr)C=C32)C1

>  <Energy>  (25) 
55.12892635870113

>  <Genealogy>  (25) 
O=C1CCC2=C(CC[C@H]3C2=C[C@]2(Br)C=CC(CBr)C=C32)C1 (chirality)
O=C1CCC2=C(CC[C@H]3C2=C[C@]2(Br)C=CC(CBr)C=C32)C1 (3D coordinates assigned)
O=C1CCC2=C(CC[C@H]3C2=C[C@]2(Br)C=CC(CBr)C=C32)C1 (nonaromatic ring conformer: 55.12892635870113 kcal/mol)

>  <smiles>  (25) 
O=C1CCC2=C(CCC3C2=CC2(Br)C=CC(CBr)C=C32)C1

>  <score_type>  (25) 
oracle

>  <origin>  (25) 
adg

>  <m_score__min__energy>  (25) 
-9.1300000000000008

>  <m_primary>  (25) 
energy

$$$$
25:0
     RDKit          3D

 40 43  0  0  0  0  0  0  0  0999 V2000
   -6.5090   17.2460  -32.5150 C   0  0  0  0  0  0  0  0  0  0  0  0
   -7.1300   18.2270  -33.4230 N   0  0  0  0  0  0  0  0  0  0  0  0
   -6.1480   18.9850  -34.2050 C   0  0  0  0  0  0  0  0  0  0  0  0
   -5.2720   19.9050  -33.3440 C   0  0  0  0  0  0  0  0  0  0  0  0
   -5.9600   20.5210  -32.1880 N   0  0  0  0  0  0  0  0  0  0  0  0
   -5.2240   21.4740  -31.3540 C   0  0  0  0  0  0  0  0  0  0  0  0
   -3.9750   21.1430  -30.7870 C   0  0  0  0  0  0  0  0  0  0  0  0
   -3.2770   22.0520  -29.9900 C   0  0  0  0  0  0  0  0  0  0  0  0
   -3.7950   23.3280  -29.7220 C   0  0  0  0  0  0  0  0  0  0  0  0
   -3.0140   24.2440  -28.8500 C   0  0  0  0  0  0  0  0  0  0  0  0
   -3.1730   24.3140  -27.4990 N   0  0  0  0  0  0  0  0  0  0  0  0
   -2.2620   25.2280  -27.1410 C   0  0  0  0  0  0  0  0  0  0  0  0
   -1.9690   25.7100  -25.8700 C   0  0  0  0  0  0  0  0  0  0  0  0
   -0.9500   26.6740  -25.7680 C   0  0  0  0  0  0  0  0  0  0  0  0
   -0.2750   27.1080  -26.9350 C   0  0  0  0  0  0  0  0  0  0  0  0
   -0.6060   26.5950  -28.1590 N   0  0  0  0  0  0  0  0  0  0  0  0
   -1.5930   25.6670  -28.2320 C   0  0  0  0  0  0  0  0  0  0  0  0
   -2.0390   25.0620  -29.3400 N   0  0  0  0  0  0  0  0  0  0  0  0
   -5.0340   23.6860  -30.2980 C   0  0  0  0  0  0  0  0  0  0  0  0
   -5.7460   25.2880  -30.1110 Cl  0  0  0  0  0  0  0  0  0  0  0  0
   -5.7290   22.7700  -31.0980 C   0  0  0  0  0  0  0  0  0  0  0  0
   -7.3080   20.0880  -31.7560 C   0  0  0  0  0  0  0  0  0  0  0  0
   -8.0340   19.1530  -32.7330 C   0  0  0  0  0  0  0  0  0  0  0  0
   -6.6962   17.5418  -31.4722 H   0  0  0  0  0  0  0  0  0  0  0  0
   -6.9425   16.2517  -32.6976 H   0  0  0  0  0  0  0  0  0  0  0  0
   -5.4248   17.2124  -32.6976 H   0  0  0  0  0  0  0  0  0  0  0  0
   -5.4955   18.2731  -34.7318 H   0  0  0  0  0  0  0  0  0  0  0  0
   -6.7083   19.6249  -34.9025 H   0  0  0  0  0  0  0  0  0  0  0  0
   -4.4272   19.3128  -32.9624 H   0  0  0  0  0  0  0  0  0  0  0  0
   -4.9638   20.7352  -33.9965 H   0  0  0  0  0  0  0  0  0  0  0  0
   -3.5429   20.1494  -30.9767 H   0  0  0  0  0  0  0  0  0  0  0  0
   -2.3045   21.7630  -29.5649 H   0  0  0  0  0  0  0  0  0  0  0  0
   -2.5111   25.3525  -24.9821 H   0  0  0  0  0  0  0  0  0  0  0  0
   -0.6785   27.0891  -24.7862 H   0  0  0  0  0  0  0  0  0  0  0  0
    0.5211   27.8630  -26.8565 H   0  0  0  0  0  0  0  0  0  0  0  0
   -6.6924   23.0663  -31.5385 H   0  0  0  0  0  0  0  0  0  0  0  0
   -7.2060   19.5638  -30.7943 H   0  0  0  0  0  0  0  0  0  0  0  0
   -7.9185   21.0009  -31.6937 H   0  0  0  0  0  0  0  0  0  0  0  0
   -8.7743   18.5653  -32.1703 H   0  0  0  0  0  0  0  0  0  0  0  0
   -8.5059   19.7836  -33.5009 H   0  0  0  0  0  0  0  0  0  0  0  0
  1  2  1  0
  2  3  1  0
  3  4  1  0
  4  5  1  0
  5  6  1  0
  6  7  2  0
  7  8  1  0
  8  9  2  0
  9 10  1  0
 10 11  2  0
 11 12  1  0
 12 13  2  0
 13 14  1  0
 14 15  2  0
 15 16  1  0
 16 17  2  0
 17 18  1  0
  9 19  1  0
 19 20  1  0
 19 21  2  0
  5 22  1  0
 22 23  1  0
 23  2  1  0
 21  6  1  0
 18 10  1  0
 17 12  1  0
  1 24  1  0
  1 25  1  0
  1 26  1  0
  3 27  1  0
  3 28  1  0
  4 29  1  0
  4 30  1  0
  7 31  1  0
  8 32  1  0
 13 33  1  0
 14 34  1  0
 15 35  1  0
 21 36  1  0
 22 37  1  0
 22 38  1  0
 23 39  1  0
 23 40  1  0
M  CHG  1  18  -1
M  END
>  <UniqueID>  (26) 
26

>  <SMILES>  (26) 
CN1CCN(c2ccc(-c3nc4cccnc4[n-]3)c(Cl)c2)CC1

>  <Energy>  (26) 
96.12855223100661

>  <Genealogy>  (26) 
CN1CCN(c2ccc(-c3nc4cccnc4[n-]3)c(Cl)c2)CC1 (protonated)
CN1CCN(c2ccc(-c3nc4cccnc4[n-]3)c(Cl)c2)CC1 (3D coordinates assigned)
CN1CCN(c2ccc(-c3nc4cccnc4[n-]3)c(Cl)c2)CC1 (nonaromatic ring conformer: 96.12855223100661 kcal/mol)

>  <smiles>  (26) 
CN1CCN(c2ccc(-c3nc4cccnc4[nH]3)c(Cl)c2)CC1

>  <score_type>  (26) 
oracle

>  <origin>  (26) 
adg

>  <m_score__min__energy>  (26) 
-9.1600000000000001

>  <m_primary>  (26) 
energy

$$$$
26:0
     RDKit          3D

 43 45  0  0  0  0  0  0  0  0999 V2000
   -1.0120   24.9260  -26.7940 C   0  0  0  0  0  0  0  0  0  0  0  0
   -2.3190   24.8040  -26.3170 C   0  0  0  0  0  0  0  0  0  0  0  0
   -3.3670   24.5320  -27.2020 C   0  0  0  0  0  0  0  0  0  0  0  0
   -3.1160   24.3810  -28.5800 C   0  0  0  0  0  0  0  0  0  0  0  0
   -4.2280   24.0950  -29.5230 C   0  0  0  0  0  0  0  0  0  0  0  0
   -5.5230   24.5780  -29.2670 C   0  0  0  0  0  0  0  0  0  0  0  0
   -6.5670   24.3140  -30.1570 C   0  0  0  0  0  0  0  0  0  0  0  0
   -6.3330   23.5690  -31.3240 C   0  0  0  0  0  0  0  0  0  0  0  0
   -7.4570   23.3050  -32.2940 C   0  0  0  0  0  0  0  0  0  0  0  0
   -7.7390   21.8660  -32.4510 N   0  0  0  0  0  0  0  0  0  0  0  0
   -6.6250   20.9520  -32.7650 C   0  0  0  0  0  0  0  0  0  0  0  0
   -6.3780   19.9180  -31.6530 C   0  0  0  0  0  0  0  0  0  0  0  0
   -7.2130   18.6360  -31.7970 C   0  0  0  0  0  0  0  0  0  0  0  0
   -8.7280   18.8040  -31.5870 C   0  0  0  0  0  0  0  0  0  0  0  0
   -9.3580   19.9330  -32.4150 C   0  0  0  0  0  0  0  0  0  0  0  0
   -8.9870   21.3250  -31.8780 C   0  0  0  0  0  0  0  0  0  0  0  0
   -5.0460   23.0750  -31.5760 C   0  0  0  0  0  0  0  0  0  0  0  0
   -4.0020   23.3380  -30.6860 C   0  0  0  0  0  0  0  0  0  0  0  0
   -1.7940   24.5070  -29.0480 C   0  0  0  0  0  0  0  0  0  0  0  0
   -0.7500   24.7780  -28.1580 C   0  0  0  0  0  0  0  0  0  0  0  0
   -0.1891   25.1386  -26.0957 H   0  0  0  0  0  0  0  0  0  0  0  0
   -2.5245   24.9221  -25.2428 H   0  0  0  0  0  0  0  0  0  0  0  0
   -4.3939   24.4353  -26.8198 H   0  0  0  0  0  0  0  0  0  0  0  0
   -5.7158   25.1683  -28.3591 H   0  0  0  0  0  0  0  0  0  0  0  0
   -7.5776   24.6917  -29.9424 H   0  0  0  0  0  0  0  0  0  0  0  0
   -8.3653   23.8047  -31.9264 H   0  0  0  0  0  0  0  0  0  0  0  0
   -7.1509   23.6954  -33.2758 H   0  0  0  0  0  0  0  0  0  0  0  0
   -6.8596   20.4176  -33.6974 H   0  0  0  0  0  0  0  0  0  0  0  0
   -5.7132   21.5592  -32.8644 H   0  0  0  0  0  0  0  0  0  0  0  0
   -5.3135   19.6413  -31.6678 H   0  0  0  0  0  0  0  0  0  0  0  0
   -6.6790   20.3900  -30.7061 H   0  0  0  0  0  0  0  0  0  0  0  0
   -7.0534   18.2399  -32.8107 H   0  0  0  0  0  0  0  0  0  0  0  0
   -6.8707   17.9618  -30.9980 H   0  0  0  0  0  0  0  0  0  0  0  0
   -9.2208   17.8594  -31.8608 H   0  0  0  0  0  0  0  0  0  0  0  0
   -8.8724   19.0699  -30.5294 H   0  0  0  0  0  0  0  0  0  0  0  0
   -9.0062   19.8489  -33.4538 H   0  0  0  0  0  0  0  0  0  0  0  0
  -10.4511   19.8277  -32.3522 H   0  0  0  0  0  0  0  0  0  0  0  0
   -9.8074   22.0188  -32.1140 H   0  0  0  0  0  0  0  0  0  0  0  0
   -8.8259   21.2205  -30.7949 H   0  0  0  0  0  0  0  0  0  0  0  0
   -4.8569   22.4769  -32.4796 H   0  0  0  0  0  0  0  0  0  0  0  0
   -2.9947   22.9496  -30.8968 H   0  0  0  0  0  0  0  0  0  0  0  0
   -1.5810   24.3915  -30.1210 H   0  0  0  0  0  0  0  0  0  0  0  0
    0.2796   24.8748  -28.5328 H   0  0  0  0  0  0  0  0  0  0  0  0
  1  2  2  0
  2  3  1  0
  3  4  2  0
  4  5  1  0
  5  6  2  0
  6  7  1  0
  7  8  2  0
  8  9  1  0
  9 10  1  0
 10 11  1  0
 11 12  1  0
 12 13  1  0
 13 14  1  0
 14 15  1  0
 15 16  1  0
  8 17  1  0
 17 18  2  0
  4 19  1  0
 19 20  2  0
 20  1  1  0
 18  5  1  0
 16 10  1  0
  1 21  1  0
  2 22  1  0
  3 23  1  0
  6 24  1  0
  7 25  1  0
  9 26  1  0
  9 27  1  0
 11 28  1  0
 11 29  1  0
 12 30  1  0
 12 31  1  0
 13 32  1  0
 13 33  1  0
 14 34  1  0
 14 35  1  0
 15 36  1  0
 15 37  1  0
 16 38  1  0
 16 39  1  0
 17 40  1  0
 18 41  1  0
 19 42  1  0
 20 43  1  0
M  END
>  <UniqueID>  (27) 
27

>  <SMILES>  (27) 
c1ccc(-c2ccc(CN3CCCCCC3)cc2)cc1

>  <Energy>  (27) 
64.1249693637537

>  <Genealogy>  (27) 
c1ccc(-c2ccc(CN3CCCCCC3)cc2)cc1 (3D coordinates assigned)
c1ccc(-c2ccc(CN3CCCCCC3)cc2)cc1 (nonaromatic ring conformer: 64.1249693637537 kcal/mol)

>  <smiles>  (27) 
c1ccc(-c2ccc(CN3CCCCCC3)cc2)cc1

>  <score_type>  (27) 
oracle

>  <origin>  (27) 
adg

>  <m_score__min__energy>  (27) 
-6.3399999999999999

>  <m_primary>  (27) 
energy

$$$$
27:0
     RDKit          3D

 27 28  0  0  0  0  0  0  0  0999 V2000
   -5.5880   26.1180  -30.4530 O   0  0  0  0  0  0  0  0  0  0  0  0
   -4.9020   25.0880  -30.6900 C   0  0  0  0  0  0  0  0  0  0  0  0
   -3.4890   25.1360  -30.4510 N   0  0  0  0  0  0  0  0  0  0  0  0
   -2.7940   24.5260  -29.3530 C   0  0  0  0  0  0  0  0  0  0  0  0
   -1.8280   25.2280  -28.6090 C   0  0  0  0  0  0  0  0  0  0  0  0
   -1.1580   24.5980  -27.5560 C   0  0  0  0  0  0  0  0  0  0  0  0
   -1.4340   23.2630  -27.2480 C   0  0  0  0  0  0  0  0  0  0  0  0
   -2.3760   22.5530  -28.0000 C   0  0  0  0  0  0  0  0  0  0  0  0
   -2.7140   20.8730  -27.6220 Cl  0  0  0  0  0  0  0  0  0  0  0  0
   -3.0480   23.1820  -29.0540 C   0  0  0  0  0  0  0  0  0  0  0  0
   -5.5640   23.8880  -31.2560 C   0  0  0  0  0  0  0  0  0  0  0  0
   -4.8040   22.8070  -31.7330 C   0  0  0  0  0  0  0  0  0  0  0  0
   -5.4350   21.6830  -32.2670 C   0  0  0  0  0  0  0  0  0  0  0  0
   -6.8280   21.6280  -32.3420 C   0  0  0  0  0  0  0  0  0  0  0  0
   -7.6090   22.7040  -31.8840 C   0  0  0  0  0  0  0  0  0  0  0  0
   -9.0460   22.6530  -31.9630 N   0  0  0  0  0  0  0  0  0  0  0  0
   -9.6720   21.6610  -31.5330 O   0  0  0  0  0  0  0  0  0  0  0  0
   -9.7540   23.6960  -32.5140 O   0  0  0  0  0  0  0  0  0  0  0  0
   -6.9660   23.8340  -31.3470 C   0  0  0  0  0  0  0  0  0  0  0  0
   -1.5993   26.2751  -28.8564 H   0  0  0  0  0  0  0  0  0  0  0  0
   -0.4123   25.1540  -26.9689 H   0  0  0  0  0  0  0  0  0  0  0  0
   -0.9109   22.7709  -26.4148 H   0  0  0  0  0  0  0  0  0  0  0  0
   -3.7796   22.6176  -29.6507 H   0  0  0  0  0  0  0  0  0  0  0  0
   -3.7058   22.8470  -31.6852 H   0  0  0  0  0  0  0  0  0  0  0  0
   -4.8328   20.8372  -32.6302 H   0  0  0  0  0  0  0  0  0  0  0  0
   -7.3178   20.7372  -32.7621 H   0  0  0  0  0  0  0  0  0  0  0  0
   -7.5669   24.6851  -30.9942 H   0  0  0  0  0  0  0  0  0  0  0  0
  1  2  2  0
  2  3  1  0
  3  4  1  0
  4  5  2  0
  5  6  1  0
  6  7  2  0
  7  8  1  0
  8  9  1  0
  8 10  2  0
  2 11  1  0
 11 12  2  0
 12 13  1  0
 13 14  2  0
 14 15  1  0
 15 16  1  0
 16 17  2  0
 16 18  1  0
 15 19  2  0
 10  4  1  0
 19 11  1  0
  5 20  1  0
  6 21  1  0
  7 22  1  0
 10 23  1  0
 12 24  1  0
 13 25  1  0
 14 26  1  0
 19 27  1  0
M  CHG  3   3  -1  16   1  18  -1
M  END
>  <UniqueID>  (28) 
28

>  <SMILES>  (28) 
O=C([N-]c1cccc(Cl)c1)c1cccc([N+](=O)[O-])c1

>  <Energy>  (28) 
35.95010499140785

>  <Genealogy>  (28) 
O=C([N-]c1cccc(Cl)c1)c1cccc([N+](=O)[O-])c1 (protonated)
O=C([N-]c1cccc(Cl)c1)c1cccc([N+](=O)[O-])c1 (3D coordinates assigned)
O=C([N-]c1cccc(Cl)c1)c1cccc([N+](=O)[O-])c1 (optimized conformer: 35.95010499140785 kcal/mol)

>  <smiles>  (28) 
O=C(Nc1cccc(Cl)c1)c1cccc([N+](=O)[O-])c1

>  <score_type>  (28) 
oracle

>  <origin>  (28) 
adg

>  <m_score__min__energy>  (28) 
-8.75

>  <m_primary>  (28) 
energy

$$$$
28:0
     RDKit          3D

 34 36  0  0  0  0  0  0  0  0999 V2000
   -4.1950   24.5500  -26.7760 C   0  0  0  0  0  0  0  0  0  0  0  0
   -2.9130   24.6120  -27.5450 C   0  0  0  0  0  0  0  0  0  0  0  0
   -1.7420   25.2020  -27.1160 C   0  0  0  0  0  0  0  0  0  0  0  0
   -0.8690   25.0450  -28.1770 C   0  0  0  0  0  0  0  0  0  0  0  0
   -1.4880   24.3990  -29.1850 N   0  0  0  0  0  0  0  0  0  0  0  0
   -2.7250   24.1340  -28.7930 N   0  0  0  0  0  0  0  0  0  0  0  0
   -3.7160   23.4820  -29.6490 C   0  0  0  0  0  0  0  0  0  0  0  0
   -4.3300   24.4640  -30.6150 C   0  0  0  0  0  0  0  0  0  0  0  0
   -3.8760   25.6380  -30.6790 O   0  0  0  0  0  0  0  0  0  0  0  0
   -5.3060   24.0540  -31.5800 N   0  0  0  0  0  0  0  0  0  0  0  0
   -5.4490   22.7350  -32.1270 C   0  0  0  0  0  0  0  0  0  0  0  0
   -4.3250   22.0440  -32.6070 C   0  0  0  0  0  0  0  0  0  0  0  0
   -4.4460   20.7470  -33.1040 C   0  0  0  0  0  0  0  0  0  0  0  0
   -5.6860   20.1080  -33.1110 C   0  0  0  0  0  0  0  0  0  0  0  0
   -6.8180   20.7640  -32.6070 C   0  0  0  0  0  0  0  0  0  0  0  0
   -8.0640   20.1160  -32.5980 C   0  0  0  0  0  0  0  0  0  0  0  0
   -9.1910   20.7680  -32.0920 C   0  0  0  0  0  0  0  0  0  0  0  0
   -9.0850   22.0680  -31.5940 C   0  0  0  0  0  0  0  0  0  0  0  0
   -7.8520   22.7260  -31.5970 C   0  0  0  0  0  0  0  0  0  0  0  0
   -6.7040   22.0850  -32.1010 C   0  0  0  0  0  0  0  0  0  0  0  0
   -3.9768   24.5606  -25.6979 H   0  0  0  0  0  0  0  0  0  0  0  0
   -4.8188   25.4190  -27.0324 H   0  0  0  0  0  0  0  0  0  0  0  0
   -4.7320   23.6248  -27.0324 H   0  0  0  0  0  0  0  0  0  0  0  0
   -1.5468   25.6876  -26.1485 H   0  0  0  0  0  0  0  0  0  0  0  0
    0.1738   25.3947  -28.1955 H   0  0  0  0  0  0  0  0  0  0  0  0
   -3.2260   22.6777  -30.2174 H   0  0  0  0  0  0  0  0  0  0  0  0
   -4.5141   23.0743  -29.0111 H   0  0  0  0  0  0  0  0  0  0  0  0
   -3.3388   22.5309  -32.5908 H   0  0  0  0  0  0  0  0  0  0  0  0
   -3.5592   20.2249  -33.4926 H   0  0  0  0  0  0  0  0  0  0  0  0
   -5.7758   19.0879  -33.5126 H   0  0  0  0  0  0  0  0  0  0  0  0
   -8.1527   19.0922  -32.9905 H   0  0  0  0  0  0  0  0  0  0  0  0
  -10.1645   20.2559  -32.0859 H   0  0  0  0  0  0  0  0  0  0  0  0
   -9.9760   22.5767  -31.1974 H   0  0  0  0  0  0  0  0  0  0  0  0
   -7.7779   23.7505  -31.2034 H   0  0  0  0  0  0  0  0  0  0  0  0
  1  2  1  0
  2  3  2  0
  3  4  1  0
  4  5  2  0
  5  6  1  0
  6  7  1  0
  7  8  1  0
  8  9  2  0
  8 10  1  0
 10 11  1  0
 11 12  2  0
 12 13  1  0
 13 14  2  0
 14 15  1  0
 15 16  2  0
 16 17  1  0
 17 18  2  0
 18 19  1  0
 19 20  2  0
  6  2  1  0
 20 11  1  0
 20 15  1  0
  1 21  1  0
  1 22  1  0
  1 23  1  0
  3 24  1  0
  4 25  1  0
  7 26  1  0
  7 27  1  0
 12 28  1  0
 13 29  1  0
 14 30  1  0
 16 31  1  0
 17 32  1  0
 18 33  1  0
 19 34  1  0
M  CHG  1  10  -1
M  END
>  <UniqueID>  (29) 
29

>  <SMILES>  (29) 
Cc1ccnn1CC(=O)[N-]c1cccc2ccccc12

>  <Energy>  (29) 
73.88108108455296

>  <Genealogy>  (29) 
Cc1ccnn1CC(=O)[N-]c1cccc2ccccc12 (protonated)
Cc1ccnn1CC(=O)[N-]c1cccc2ccccc12 (3D coordinates assigned)
Cc1ccnn1CC(=O)[N-]c1cccc2ccccc12 (optimized conformer: 73.88108108455296 kcal/mol)

>  <smiles>  (29) 
Cc1ccnn1CC(=O)Nc1cccc2ccccc12

>  <score_type>  (29) 
oracle

>  <origin>  (29) 
adg

>  <m_score__min__energy>  (29) 
-9.1600000000000001

>  <m_primary>  (29) 
energy

$$$$
29:0
     RDKit          3D

 36 38  0  0  0  0  0  0  0  0999 V2000
   -5.7060   18.6940  -34.9130 O   0  0  0  0  0  0  0  0  0  0  0  0
   -5.6760   18.8340  -33.6590 C   0  0  0  0  0  0  0  0  0  0  0  0
   -4.5240   18.4900  -32.9430 O   0  0  0  0  0  0  0  0  0  0  0  0
   -3.5420   19.4440  -32.5380 C   0  0  1  0  0  0  0  0  0  0  0  0
   -3.4120   20.4950  -33.5820 C   0  0  0  0  0  0  0  0  0  0  0  0
   -3.7040   21.7020  -33.1290 C   0  0  0  0  0  0  0  0  0  0  0  0
   -4.1170   21.6800  -31.6970 C   0  0  2  0  0  0  0  0  0  0  0  0
   -3.2860   22.5820  -30.8650 N   0  0  0  0  0  0  0  0  0  0  0  0
   -2.1370   22.0820  -30.3130 C   0  0  0  0  0  0  0  0  0  0  0  0
   -1.3160   22.8860  -29.5270 C   0  0  0  0  0  0  0  0  0  0  0  0
   -0.1820   22.3810  -28.9810 F   0  0  0  0  0  0  0  0  0  0  0  0
   -1.6820   24.2120  -29.3170 C   0  0  0  0  0  0  0  0  0  0  0  0
   -0.9580   24.9630  -28.6110 O   0  0  0  0  0  0  0  0  0  0  0  0
   -2.8200   24.6940  -29.8800 N   0  0  0  0  0  0  0  0  0  0  0  0
   -3.6180   23.9000  -30.6470 C   0  0  0  0  0  0  0  0  0  0  0  0
   -4.6610   24.3950  -31.1550 O   0  0  0  0  0  0  0  0  0  0  0  0
   -3.9850   20.2050  -31.2760 C   0  0  0  0  0  0  0  0  0  0  0  0
   -6.8570   19.3600  -32.9410 C   0  0  0  0  0  0  0  0  0  0  0  0
   -7.8010   18.4780  -32.3840 C   0  0  0  0  0  0  0  0  0  0  0  0
   -8.9200   18.9730  -31.7060 C   0  0  0  0  0  0  0  0  0  0  0  0
   -9.1080   20.3510  -31.5760 C   0  0  0  0  0  0  0  0  0  0  0  0
   -8.1780   21.2370  -32.1250 C   0  0  0  0  0  0  0  0  0  0  0  0
   -7.0580   20.7470  -32.8050 C   0  0  0  0  0  0  0  0  0  0  0  0
   -2.6106   18.8850  -32.3644 H   0  0  0  0  0  0  0  0  0  0  0  0
   -3.1061   20.2903  -34.6186 H   0  0  0  0  0  0  0  0  0  0  0  0
   -3.6486   22.6163  -33.7380 H   0  0  0  0  0  0  0  0  0  0  0  0
   -5.1428   22.0517  -31.5572 H   0  0  0  0  0  0  0  0  0  0  0  0
   -1.8594   21.0329  -30.4927 H   0  0  0  0  0  0  0  0  0  0  0  0
   -3.0870   25.6930  -29.7210 H   0  0  0  0  0  0  0  0  0  0  0  0
   -3.2315   20.0999  -30.4816 H   0  0  0  0  0  0  0  0  0  0  0  0
   -4.9327   19.8120  -30.8793 H   0  0  0  0  0  0  0  0  0  0  0  0
   -7.6582   17.3917  -32.4823 H   0  0  0  0  0  0  0  0  0  0  0  0
   -9.6532   18.2758  -31.2744 H   0  0  0  0  0  0  0  0  0  0  0  0
   -9.9880   20.7383  -31.0416 H   0  0  0  0  0  0  0  0  0  0  0  0
   -8.3266   22.3221  -32.0224 H   0  0  0  0  0  0  0  0  0  0  0  0
   -6.3297   21.4497  -33.2362 H   0  0  0  0  0  0  0  0  0  0  0  0
  1  2  2  0
  2  3  1  0
  3  4  1  0
  4  5  1  0
  5  6  2  0
  6  7  1  0
  7  8  1  0
  8  9  1  0
  9 10  2  0
 10 11  1  0
 10 12  1  0
 12 13  2  0
 12 14  1  0
 14 15  1  0
 15 16  2  0
  7 17  1  0
  2 18  1  0
 18 19  2  0
 19 20  1  0
 20 21  2  0
 21 22  1  0
 22 23  2  0
 17  4  1  0
 23 18  1  0
 15  8  1  0
  4 24  1  1
  5 25  1  0
  6 26  1  0
  7 27  1  6
  9 28  1  0
 14 29  1  0
 17 30  1  0
 17 31  1  0
 19 32  1  0
 20 33  1  0
 21 34  1  0
 22 35  1  0
 23 36  1  0
M  END
>  <UniqueID>  (30) 
30

>  <SMILES>  (30) 
O=C(O[C@H]1C=C[C@H](n2cc(F)c(=O)[nH]c2=O)C1)c1ccccc1

>  <Energy>  (30) 
46.72209450533031

>  <Genealogy>  (30) 
O=C(O[C@H]1C=C[C@H](n2cc(F)c(=O)[nH]c2=O)C1)c1ccccc1 (chirality)
O=C(O[C@H]1C=C[C@H](n2cc(F)c(=O)[nH]c2=O)C1)c1ccccc1 (3D coordinates assigned)
O=C(O[C@H]1C=C[C@H](n2cc(F)c(=O)[nH]c2=O)C1)c1ccccc1 (nonaromatic ring conformer: 46.72209450533031 kcal/mol)

>  <smiles>  (30) 
O=C(OC1C=CC(n2cc(F)c(=O)[nH]c2=O)C1)c1ccccc1

>  <score_type>  (30) 
oracle

>  <origin>  (30) 
adg

>  <m_score__min__energy>  (30) 
-8.5899999999999999

>  <m_primary>  (30) 
energy

$$$$
30:0
     RDKit          3D

 44 46  0  0  0  0  0  0  0  0999 V2000
   -6.1720   19.6270  -33.8470 C   0  0  0  0  0  0  0  0  0  0  0  0
   -6.7860   18.3870  -33.1970 C   0  0  0  0  0  0  0  0  0  0  0  0
   -7.6020   18.7120  -31.9330 C   0  0  0  0  0  0  0  0  0  0  0  0
   -9.0450   19.1770  -32.1970 C   0  0  0  0  0  0  0  0  0  0  0  0
   -9.1670   20.6990  -32.3510 C   0  0  0  0  0  0  0  0  0  0  0  0
   -8.0850   21.3830  -31.6430 N   0  0  0  0  0  0  0  0  0  0  0  0
   -7.8660   22.7920  -31.7990 C   0  0  0  0  0  0  0  0  0  0  0  0
   -8.5630   23.4460  -32.6210 O   0  0  0  0  0  0  0  0  0  0  0  0
   -6.8420   23.4880  -30.9870 C   0  0  0  0  0  0  0  0  0  0  0  0
   -7.1880   24.6280  -30.2300 C   0  0  0  0  0  0  0  0  0  0  0  0
   -6.2140   25.3360  -29.5000 C   0  0  0  0  0  0  0  0  0  0  0  0
   -4.8780   24.9120  -29.4910 C   0  0  0  0  0  0  0  0  0  0  0  0
   -4.5480   23.7580  -30.2040 C   0  0  0  0  0  0  0  0  0  0  0  0
   -5.4950   23.0790  -30.9560 C   0  0  0  0  0  0  0  0  0  0  0  0
   -4.9350   22.0400  -31.6170 N   0  0  0  0  0  0  0  0  0  0  0  0
   -3.6270   22.0750  -31.2890 C   0  0  0  0  0  0  0  0  0  0  0  0
   -2.6340   21.2290  -31.7790 C   0  0  0  0  0  0  0  0  0  0  0  0
   -1.3150   21.4420  -31.3530 C   0  0  0  0  0  0  0  0  0  0  0  0
   -1.0160   22.4670  -30.4350 C   0  0  0  0  0  0  0  0  0  0  0  0
   -2.0320   23.3030  -29.9230 C   0  0  0  0  0  0  0  0  0  0  0  0
   -1.7010   24.2710  -28.8680 C   0  0  0  0  0  0  0  0  0  0  0  0
   -1.6120   25.6620  -29.1740 N   0  0  0  0  0  0  0  0  0  0  0  0
   -1.5740   23.8840  -27.6760 O   0  0  0  0  0  0  0  0  0  0  0  0
   -3.3410   23.0980  -30.4020 C   0  0  0  0  0  0  0  0  0  0  0  0
   -5.8291   20.3196  -33.0642 H   0  0  0  0  0  0  0  0  0  0  0  0
   -5.3177   19.3283  -34.4722 H   0  0  0  0  0  0  0  0  0  0  0  0
   -6.9274   20.1254  -34.4722 H   0  0  0  0  0  0  0  0  0  0  0  0
   -7.4496   17.9007  -33.9272 H   0  0  0  0  0  0  0  0  0  0  0  0
   -5.9574   17.7301  -32.8938 H   0  0  0  0  0  0  0  0  0  0  0  0
   -7.6431   17.8062  -31.3102 H   0  0  0  0  0  0  0  0  0  0  0  0
   -7.0907   19.5536  -31.4428 H   0  0  0  0  0  0  0  0  0  0  0  0
   -9.4026   18.7015  -33.1222 H   0  0  0  0  0  0  0  0  0  0  0  0
   -9.6488   18.8856  -31.3250 H   0  0  0  0  0  0  0  0  0  0  0  0
   -9.1190   20.9580  -33.4190 H   0  0  0  0  0  0  0  0  0  0  0  0
  -10.1271   21.0202  -31.9209 H   0  0  0  0  0  0  0  0  0  0  0  0
   -7.4420   20.8330  -31.0290 H   0  0  0  0  0  0  0  0  0  0  0  0
   -8.2338   24.9683  -30.2100 H   0  0  0  0  0  0  0  0  0  0  0  0
   -6.5047   26.2313  -28.9308 H   0  0  0  0  0  0  0  0  0  0  0  0
   -4.1107   25.4731  -28.9374 H   0  0  0  0  0  0  0  0  0  0  0  0
   -5.3940   21.3540  -32.2540 H   0  0  0  0  0  0  0  0  0  0  0  0
   -2.8778   20.4172  -32.4800 H   0  0  0  0  0  0  0  0  0  0  0  0
   -0.5072   20.8030  -31.7392 H   0  0  0  0  0  0  0  0  0  0  0  0
    0.0245   22.6186  -30.1120 H   0  0  0  0  0  0  0  0  0  0  0  0
   -1.2260   25.9860  -30.0880 H   0  0  0  0  0  0  0  0  0  0  0  0
  1  2  1  0
  2  3  1  0
  3  4  1  0
  4  5  1  0
  5  6  1  0
  6  7  1  0
  7  8  2  0
  7  9  1  0
  9 10  2  0
 10 11  1  0
 11 12  2  0
 12 13  1  0
 13 14  2  0
 14 15  1  0
 15 16  1  0
 16 17  2  0
 17 18  1  0
 18 19  2  0
 19 20  1  0
 20 21  1  0
 21 22  1  0
 21 23  2  0
 20 24  2  0
 14  9  1  0
 24 16  1  0
 24 13  1  0
  1 25  1  0
  1 26  1  0
  1 27  1  0
  2 28  1  0
  2 29  1  0
  3 30  1  0
  3 31  1  0
  4 32  1  0
  4 33  1  0
  5 34  1  0
  5 35  1  0
  6 36  1  0
 10 37  1  0
 11 38  1  0
 12 39  1  0
 15 40  1  0
 17 41  1  0
 18 42  1  0
 19 43  1  0
 22 44  1  0
M  CHG  1  22  -1
M  END
>  <UniqueID>  (31) 
31

>  <SMILES>  (31) 
CCCCCNC(=O)c1cccc2c1[nH]c1cccc(C([NH-])=O)c12

>  <Energy>  (31) 
88.25829190799283

>  <Genealogy>  (31) 
CCCCCNC(=O)c1cccc2c1[nH]c1cccc(C([NH-])=O)c12 (protonated)
CCCCCNC(=O)c1cccc2c1[nH]c1cccc(C([NH-])=O)c12 (3D coordinates assigned)
CCCCCNC(=O)c1cccc2c1[nH]c1cccc(C([NH-])=O)c12 (optimized conformer: 88.25829190799283 kcal/mol)

>  <smiles>  (31) 
CCCCCNC(=O)c1cccc2c1[nH]c1cccc(C(N)=O)c12

>  <score_type>  (31) 
oracle

>  <origin>  (31) 
adg

>  <m_score__min__energy>  (31) 
-10.380000000000001

>  <m_primary>  (31) 
energy

$$$$
31:0
     RDKit          3D

 51 54  0  0  0  0  0  0  0  0999 V2000
   -9.0960   19.1470  -31.9040 C   0  0  0  0  0  0  0  0  0  0  0  0
   -8.8470   20.4150  -32.7160 C   0  0  0  0  0  0  0  0  0  0  0  0
   -7.6570   21.1810  -32.1650 C   0  0  0  0  0  0  0  0  0  0  0  0
   -6.3470   20.6420  -32.2050 C   0  0  0  0  0  0  0  0  0  0  0  0
   -6.0840   19.2830  -32.7200 C   0  0  0  0  0  0  0  0  0  0  0  0
   -5.8720   19.0840  -34.0900 C   0  0  0  0  0  0  0  0  0  0  0  0
   -5.6020   17.8030  -34.5820 C   0  0  0  0  0  0  0  0  0  0  0  0
   -5.5330   16.7050  -33.7060 C   0  0  0  0  0  0  0  0  0  0  0  0
   -5.2400   15.3870  -34.2110 N   0  0  0  0  0  0  0  0  0  0  0  0
   -3.9070   15.0430  -34.7120 C   0  0  0  0  0  0  0  0  0  0  0  0
   -3.3570   13.8120  -33.9670 C   0  0  0  0  0  0  0  0  0  0  0  0
   -4.4050   12.8500  -33.5340 N   0  0  0  0  0  0  0  0  0  0  0  0
   -4.6610   12.9350  -32.0860 C   0  0  0  0  0  0  0  0  0  0  0  0
   -5.6530   12.9510  -34.3200 C   0  0  0  0  0  0  0  0  0  0  0  0
   -6.2800   14.3520  -34.2200 C   0  0  0  0  0  0  0  0  0  0  0  0
   -5.7180   16.9160  -32.3290 C   0  0  0  0  0  0  0  0  0  0  0  0
   -5.9900   18.1960  -31.8390 C   0  0  0  0  0  0  0  0  0  0  0  0
   -5.2880   21.3860  -31.7780 N   0  0  0  0  0  0  0  0  0  0  0  0
   -5.4400   22.6520  -31.2960 C   0  0  0  0  0  0  0  0  0  0  0  0
   -4.3220   23.3800  -30.8580 C   0  0  0  0  0  0  0  0  0  0  0  0
   -4.4740   24.6790  -30.3670 C   0  0  0  0  0  0  0  0  0  0  0  0
   -5.7420   25.2620  -30.3100 C   0  0  0  0  0  0  0  0  0  0  0  0
   -6.8630   24.5500  -30.7440 C   0  0  0  0  0  0  0  0  0  0  0  0
   -6.7240   23.2380  -31.2400 C   0  0  0  0  0  0  0  0  0  0  0  0
   -7.8320   22.4970  -31.6880 C   0  0  0  0  0  0  0  0  0  0  0  0
   -8.9840   23.0120  -31.6680 O   0  0  0  0  0  0  0  0  0  0  0  0
   -9.0495   19.3838  -30.8308 H   0  0  0  0  0  0  0  0  0  0  0  0
  -10.0903   18.7447  -32.1480 H   0  0  0  0  0  0  0  0  0  0  0  0
   -8.3277   18.3986  -32.1480 H   0  0  0  0  0  0  0  0  0  0  0  0
   -8.6464   20.1402  -33.7621 H   0  0  0  0  0  0  0  0  0  0  0  0
   -9.7391   21.0555  -32.6536 H   0  0  0  0  0  0  0  0  0  0  0  0
   -5.9180   19.9382  -34.7815 H   0  0  0  0  0  0  0  0  0  0  0  0
   -5.4427   17.6535  -35.6601 H   0  0  0  0  0  0  0  0  0  0  0  0
   -3.9702   14.8183  -35.7869 H   0  0  0  0  0  0  0  0  0  0  0  0
   -3.2310   15.8944  -34.5441 H   0  0  0  0  0  0  0  0  0  0  0  0
   -2.6594   13.2861  -34.6354 H   0  0  0  0  0  0  0  0  0  0  0  0
   -2.8690   14.1839  -33.0540 H   0  0  0  0  0  0  0  0  0  0  0  0
   -3.7571   12.6349  -31.5356 H   0  0  0  0  0  0  0  0  0  0  0  0
   -4.9255   13.9692  -31.8205 H   0  0  0  0  0  0  0  0  0  0  0  0
   -5.4916   12.2644  -31.8205 H   0  0  0  0  0  0  0  0  0  0  0  0
   -5.4275   12.7364  -35.3750 H   0  0  0  0  0  0  0  0  0  0  0  0
   -6.3724   12.2249  -33.9135 H   0  0  0  0  0  0  0  0  0  0  0  0
   -6.9424   14.5134  -35.0832 H   0  0  0  0  0  0  0  0  0  0  0  0
   -6.8515   14.4172  -33.2824 H   0  0  0  0  0  0  0  0  0  0  0  0
   -5.6482   16.0677  -31.6322 H   0  0  0  0  0  0  0  0  0  0  0  0
   -6.1308   18.3514  -30.7592 H   0  0  0  0  0  0  0  0  0  0  0  0
   -4.3300   20.9670  -31.8180 H   0  0  0  0  0  0  0  0  0  0  0  0
   -3.3214   22.9251  -30.9017 H   0  0  0  0  0  0  0  0  0  0  0  0
   -3.5940   25.2434  -30.0249 H   0  0  0  0  0  0  0  0  0  0  0  0
   -5.8583   26.2848  -29.9222 H   0  0  0  0  0  0  0  0  0  0  0  0
   -7.8586   25.0155  -30.6984 H   0  0  0  0  0  0  0  0  0  0  0  0
  1  2  1  0
  2  3  1  0
  3  4  2  0
  4  5  1  0
  5  6  2  0
  6  7  1  0
  7  8  2  0
  8  9  1  0
  9 10  1  0
 10 11  1  0
 11 12  1  0
 12 13  1  0
 12 14  1  0
 14 15  1  0
  8 16  1  0
 16 17  2  0
  4 18  1  0
 18 19  1  0
 19 20  2  0
 20 21  1  0
 21 22  2  0
 22 23  1  0
 23 24  2  0
 24 25  1  0
 25 26  2  0
 25  3  1  0
 17  5  1  0
 24 19  1  0
 15  9  1  0
  1 27  1  0
  1 28  1  0
  1 29  1  0
  2 30  1  0
  2 31  1  0
  6 32  1  0
  7 33  1  0
 10 34  1  0
 10 35  1  0
 11 36  1  0
 11 37  1  0
 13 38  1  0
 13 39  1  0
 13 40  1  0
 14 41  1  0
 14 42  1  0
 15 43  1  0
 15 44  1  0
 16 45  1  0
 17 46  1  0
 18 47  1  0
 20 48  1  0
 21 49  1  0
 22 50  1  0
 23 51  1  0
M  END
>  <UniqueID>  (32) 
32

>  <SMILES>  (32) 
CCc1c(-c2ccc(N3CCN(C)CC3)cc2)[nH]c2ccccc2c1=O

>  <Energy>  (32) 
76.47465377457054

>  <Genealogy>  (32) 
CCc1c(-c2ccc(N3CCN(C)CC3)cc2)[nH]c2ccccc2c1=O (3D coordinates assigned)
CCc1c(-c2ccc(N3CCN(C)CC3)cc2)[nH]c2ccccc2c1=O (nonaromatic ring conformer: 76.47465377457054 kcal/mol)

>  <smiles>  (32) 
CCc1c(-c2ccc(N3CCN(C)CC3)cc2)[nH]c2ccccc2c1=O

>  <score_type>  (32) 
oracle

>  <origin>  (32) 
adg

>  <m_score__min__energy>  (32) 
-8.7400000000000002

>  <m_primary>  (32) 
energy

$$$$
32:0
     RDKit          3D

 30 33  0  0  0  0  0  0  0  0999 V2000
   -1.4630   24.1560  -27.8600 C   0  0  0  0  0  0  0  0  0  0  0  0
   -2.1950   23.0640  -27.3380 C   0  0  0  0  0  0  0  0  0  0  0  0
   -3.4430   22.7160  -27.8880 C   0  0  0  0  0  0  0  0  0  0  0  0
   -3.9170   23.4830  -28.9510 C   0  0  0  0  0  0  0  0  0  0  0  0
   -5.0660   23.3290  -29.6260 N   0  0  0  0  0  0  0  0  0  0  0  0
   -5.0070   24.3380  -30.5340 C   0  0  0  0  0  0  0  0  0  0  0  0
   -6.0620   24.5510  -31.5680 C   0  0  0  0  0  0  0  0  0  0  0  0
   -7.4700   23.4490  -31.2260 S   0  0  0  0  0  0  0  0  0  0  0  0
   -6.6860   22.0230  -31.9800 C   0  0  0  0  0  0  0  0  0  0  0  0
   -5.4130   22.1290  -32.4610 N   0  0  0  0  0  0  0  0  0  0  0  0
   -4.7770   21.0670  -33.0420 C   0  0  0  0  0  0  0  0  0  0  0  0
   -5.4080   19.8640  -33.1560 N   0  0  0  0  0  0  0  0  0  0  0  0
   -6.6720   19.7440  -32.6820 C   0  0  0  0  0  0  0  0  0  0  0  0
   -7.6450   18.3780  -32.7100 S   0  0  0  0  0  0  0  0  0  0  0  0
   -8.9580   19.1300  -31.9510 C   0  0  0  0  0  0  0  0  0  0  0  0
   -8.6350   20.4580  -31.6720 C   0  0  0  0  0  0  0  0  0  0  0  0
   -7.3400   20.7930  -32.0900 C   0  0  0  0  0  0  0  0  0  0  0  0
   -3.8800   25.0950  -30.4700 N   0  0  0  0  0  0  0  0  0  0  0  0
   -3.2130   24.5330  -29.4530 C   0  0  0  0  0  0  0  0  0  0  0  0
   -1.9740   24.9070  -28.9350 C   0  0  0  0  0  0  0  0  0  0  0  0
   -0.4886   24.4198  -27.4231 H   0  0  0  0  0  0  0  0  0  0  0  0
   -1.7867   22.4835  -26.4976 H   0  0  0  0  0  0  0  0  0  0  0  0
   -4.0234   21.8691  -27.4931 H   0  0  0  0  0  0  0  0  0  0  0  0
   -6.3990   25.5977  -31.5390 H   0  0  0  0  0  0  0  0  0  0  0  0
   -5.6524   24.3275  -32.5641 H   0  0  0  0  0  0  0  0  0  0  0  0
   -3.7505   21.1841  -33.4195 H   0  0  0  0  0  0  0  0  0  0  0  0
   -4.9240   19.0520  -33.6010 H   0  0  0  0  0  0  0  0  0  0  0  0
   -9.9172   18.6464  -31.7145 H   0  0  0  0  0  0  0  0  0  0  0  0
   -9.3201   21.1634  -31.1790 H   0  0  0  0  0  0  0  0  0  0  0  0
   -1.4158   25.7584  -29.3515 H   0  0  0  0  0  0  0  0  0  0  0  0
  1  2  2  0
  2  3  1  0
  3  4  2  0
  4  5  1  0
  5  6  1  0
  6  7  1  0
  7  8  1  0
  8  9  1  0
  9 10  2  0
 10 11  1  0
 11 12  2  0
 12 13  1  0
 13 14  1  0
 14 15  1  0
 15 16  2  0
 16 17  1  0
  6 18  2  0
 18 19  1  0
 19 20  2  0
 20  1  1  0
 19  4  1  0
 17  9  1  0
 17 13  2  0
  1 21  1  0
  2 22  1  0
  3 23  1  0
  7 24  1  0
  7 25  1  0
 11 26  1  0
 12 27  1  0
 15 28  1  0
 16 29  1  0
 20 30  1  0
M  CHG  2   5  -1  12   1
M  END
>  <UniqueID>  (33) 
33

>  <SMILES>  (33) 
c1ccc2[n-]c(CSc3nc[nH+]c4sccc34)nc2c1

>  <Energy>  (33) 
96.98214266766854

>  <Genealogy>  (33) 
c1ccc2[n-]c(CSc3nc[nH+]c4sccc34)nc2c1 (protonated)
c1ccc2[n-]c(CSc3nc[nH+]c4sccc34)nc2c1 (3D coordinates assigned)
c1ccc2[n-]c(CSc3nc[nH+]c4sccc34)nc2c1 (optimized conformer: 96.98214266766854 kcal/mol)

>  <smiles>  (33) 
c1ccc2[nH]c(CSc3ncnc4sccc34)nc2c1

>  <score_type>  (33) 
oracle

>  <origin>  (33) 
adg

>  <m_score__min__energy>  (33) 
-8.3900000000000006

>  <m_primary>  (33) 
energy

$$$$
33:0
     RDKit          3D

 24 25  0  0  1  0  0  0  0  0999 V2000
   -5.0510   23.6470  -32.0670 O   0  0  0  0  0  0  0  0  0  0  0  0
   -6.0820   23.7780  -31.3360 C   0  0  0  0  0  0  0  0  0  0  0  0
   -7.3950   23.4500  -31.9190 C   0  0  0  0  0  0  0  0  0  0  0  0
   -7.4700   21.9500  -31.9980 C   0  0  0  0  0  0  0  0  0  0  0  0
   -8.5760   21.3440  -31.4870 C   0  0  0  0  0  0  0  0  0  0  0  0
   -8.7200   19.9540  -31.5230 C   0  0  0  0  0  0  0  0  0  0  0  0
   -7.7000   19.2160  -32.0960 C   0  0  0  0  0  0  0  0  0  0  0  0
   -6.5660   19.8480  -32.6160 C   0  0  0  0  0  0  0  0  0  0  0  0
   -6.4310   21.2190  -32.5770 C   0  0  0  0  0  0  0  0  0  0  0  0
   -5.8890   24.2330  -30.0050 N   0  0  0  0  0  0  0  0  0  0  0  0
   -4.6880   24.3700  -29.5920 C   0  0  0  0  0  0  0  0  0  0  0  0
   -3.5500   24.7000  -30.1660 N   0  0  0  0  0  0  0  0  0  0  0  0
   -2.4960   24.7440  -29.4380 N   0  0  0  0  0  0  0  0  0  0  0  0
   -2.4430   24.5060  -28.2440 C   0  0  0  0  0  0  0  0  0  0  0  0
   -4.2250   24.0860  -27.8120 S   0  0  0  0  0  0  0  0  0  0  0  0
   -8.2015   23.8367  -31.2786 H   0  0  0  0  0  0  0  0  0  0  0  0
   -7.5111   23.9050  -32.9137 H   0  0  0  0  0  0  0  0  0  0  0  0
   -9.3703   21.9584  -31.0379 H   0  0  0  0  0  0  0  0  0  0  0  0
   -9.6139   19.4639  -31.1098 H   0  0  0  0  0  0  0  0  0  0  0  0
   -7.7817   18.1201  -32.1432 H   0  0  0  0  0  0  0  0  0  0  0  0
   -5.7669   19.2395  -33.0645 H   0  0  0  0  0  0  0  0  0  0  0  0
   -5.5398   21.7176  -32.9859 H   0  0  0  0  0  0  0  0  0  0  0  0
   -3.5130   24.9250  -31.2200 H   0  0  0  0  0  0  0  0  0  0  0  0
   -1.5662   24.5308  -27.5802 H   0  0  0  0  0  0  0  0  0  0  0  0
  1  2  2  0
  2  3  1  0
  3  4  1  0
  4  5  2  0
  5  6  1  0
  6  7  2  0
  7  8  1  0
  8  9  2  0
  2 10  1  0
 10 11  2  0
 11 12  1  0
 12 13  1  0
 13 14  2  0
 14 15  1  0
  9  4  1  0
 15 11  1  0
  3 16  1  0
  3 17  1  0
  5 18  1  0
  6 19  1  0
  7 20  1  0
  8 21  1  0
  9 22  1  0
 12 23  1  0
 14 24  1  0
M  END
>  <smiles>  (34) 
O=C(Cc1ccccc1)N=c1[nH]ncs1

>  <score_type>  (34) 
oracle

>  <origin>  (34) 
adg

>  <m_score__min__energy>  (34) 
-6.9900000000000002

>  <m_primary>  (34) 
energy

$$$$
34:0
     RDKit          3D

 28 29  0  0  0  0  0  0  0  0999 V2000
   -2.3560   24.4090  -29.0060 C   0  0  0  0  0  0  0  0  0  0  0  0
   -3.1640   24.9220  -30.0600 O   0  0  0  0  0  0  0  0  0  0  0  0
   -4.4350   24.4290  -30.3950 C   0  0  0  0  0  0  0  0  0  0  0  0
   -5.6230   25.0680  -29.9990 C   0  0  0  0  0  0  0  0  0  0  0  0
   -6.8640   24.5360  -30.3580 C   0  0  0  0  0  0  0  0  0  0  0  0
   -6.9490   23.3540  -31.1180 C   0  0  0  0  0  0  0  0  0  0  0  0
   -8.2830   22.8020  -31.4840 C   0  0  0  0  0  0  0  0  0  0  0  0
   -8.9770   23.3830  -32.3620 O   0  0  0  0  0  0  0  0  0  0  0  0
   -8.8640   21.5810  -30.8210 C   0  0  0  0  0  0  0  0  0  0  0  0
   -8.5300   20.3770  -31.5800 N   0  0  0  0  0  0  0  0  0  0  0  0
   -8.7460   19.0940  -31.2310 C   0  0  0  0  0  0  0  0  0  0  0  0
   -8.2490   18.2490  -32.1580 N   0  0  0  0  0  0  0  0  0  0  0  0
   -7.7060   19.0080  -33.0970 N   0  0  0  0  0  0  0  0  0  0  0  0
   -7.8680   20.2950  -32.7480 C   0  0  0  0  0  0  0  0  0  0  0  0
   -5.7530   22.7210  -31.5120 C   0  0  0  0  0  0  0  0  0  0  0  0
   -4.5130   23.2560  -31.1510 C   0  0  0  0  0  0  0  0  0  0  0  0
   -2.7961   24.6884  -28.0374 H   0  0  0  0  0  0  0  0  0  0  0  0
   -2.3052   23.3129  -29.0831 H   0  0  0  0  0  0  0  0  0  0  0  0
   -1.3424   24.8293  -29.0831 H   0  0  0  0  0  0  0  0  0  0  0  0
   -5.5752   25.9916  -29.4034 H   0  0  0  0  0  0  0  0  0  0  0  0
   -7.7858   25.0469  -30.0430 H   0  0  0  0  0  0  0  0  0  0  0  0
   -8.4549   21.4925  -29.8037 H   0  0  0  0  0  0  0  0  0  0  0  0
   -9.9584   21.6845  -30.7825 H   0  0  0  0  0  0  0  0  0  0  0  0
   -9.2598   18.7770  -30.3115 H   0  0  0  0  0  0  0  0  0  0  0  0
   -7.2300   18.6480  -33.9530 H   0  0  0  0  0  0  0  0  0  0  0  0
   -7.5113   21.1561  -33.3321 H   0  0  0  0  0  0  0  0  0  0  0  0
   -5.7957   21.7979  -32.1088 H   0  0  0  0  0  0  0  0  0  0  0  0
   -3.5890   22.7485  -31.4652 H   0  0  0  0  0  0  0  0  0  0  0  0
  1  2  1  0
  2  3  1  0
  3  4  2  0
  4  5  1  0
  5  6  2  0
  6  7  1  0
  7  8  2  0
  7  9  1  0
  9 10  1  0
 10 11  1  0
 11 12  2  0
 12 13  1  0
 13 14  2  0
  6 15  1  0
 15 16  2  0
 16  3  1  0
 14 10  1  0
  1 17  1  0
  1 18  1  0
  1 19  1  0
  4 20  1  0
  5 21  1  0
  9 22  1  0
  9 23  1  0
 11 24  1  0
 13 25  1  0
 14 26  1  0
 15 27  1  0
 16 28  1  0
M  CHG  1  13   1
M  END
>  <UniqueID>  (35) 
34

>  <SMILES>  (35) 
COc1ccc(C(=O)Cn2cn[nH+]c2)cc1

>  <Energy>  (35) 
62.74083531861071

>  <Genealogy>  (35) 
COc1ccc(C(=O)Cn2cn[nH+]c2)cc1 (protonated)
COc1ccc(C(=O)Cn2cn[nH+]c2)cc1 (3D coordinates assigned)
COc1ccc(C(=O)Cn2cn[nH+]c2)cc1 (optimized conformer: 62.74083531861071 kcal/mol)

>  <smiles>  (35) 
COc1ccc(C(=O)Cn2cnnc2)cc1

>  <score_type>  (35) 
oracle

>  <origin>  (35) 
adg

>  <m_score__min__energy>  (35) 
-6.25

>  <m_primary>  (35) 
energy

$$$$
35:0
     RDKit          3D

 38 40  0  0  0  0  0  0  0  0999 V2000
   -6.4920   18.4390  -33.7870 C   0  0  0  0  0  0  0  0  0  0  0  0
   -6.5290   19.6980  -32.9630 C   0  0  0  0  0  0  0  0  0  0  0  0
   -5.3110   20.2850  -32.5480 C   0  0  0  0  0  0  0  0  0  0  0  0
   -5.3640   21.4460  -31.7860 C   0  0  0  0  0  0  0  0  0  0  0  0
   -4.3530   22.1330  -31.3120 O   0  0  0  0  0  0  0  0  0  0  0  0
   -4.8390   23.1620  -30.6390 C   0  0  0  0  0  0  0  0  0  0  0  0
   -3.9720   24.1420  -29.9650 C   0  0  0  0  0  0  0  0  0  0  0  0
   -3.8570   25.2890  -30.4750 O   0  0  0  0  0  0  0  0  0  0  0  0
   -3.2520   23.8020  -28.7680 N   0  0  0  0  0  0  0  0  0  0  0  0
   -2.4380   24.7250  -28.0270 C   0  0  0  0  0  0  0  0  0  0  0  0
   -2.7530   24.9950  -26.6860 C   0  0  0  0  0  0  0  0  0  0  0  0
   -1.9630   25.8720  -25.9360 C   0  0  0  0  0  0  0  0  0  0  0  0
   -0.8420   26.4720  -26.5130 C   0  0  0  0  0  0  0  0  0  0  0  0
   -0.5040   26.1900  -27.8390 C   0  0  0  0  0  0  0  0  0  0  0  0
   -1.2920   25.3150  -28.5930 C   0  0  0  0  0  0  0  0  0  0  0  0
   -6.2380   23.1540  -30.7020 C   0  0  0  0  0  0  0  0  0  0  0  0
   -7.2040   24.1560  -30.1450 C   0  0  0  0  0  0  0  0  0  0  0  0
   -6.5500   22.0270  -31.4340 C   0  0  0  0  0  0  0  0  0  0  0  0
   -7.7740   21.4860  -31.8210 C   0  0  0  0  0  0  0  0  0  0  0  0
   -7.7710   20.3040  -32.5960 C   0  0  0  0  0  0  0  0  0  0  0  0
   -9.0840   19.7040  -33.0220 C   0  0  0  0  0  0  0  0  0  0  0  0
   -6.4663   17.5648  -33.1199 H   0  0  0  0  0  0  0  0  0  0  0  0
   -7.3891   18.3897  -34.4217 H   0  0  0  0  0  0  0  0  0  0  0  0
   -5.5936   18.4424  -34.4217 H   0  0  0  0  0  0  0  0  0  0  0  0
   -4.3458   19.8338  -32.8216 H   0  0  0  0  0  0  0  0  0  0  0  0
   -3.3620   22.8440  -28.3710 H   0  0  0  0  0  0  0  0  0  0  0  0
   -3.6267   24.5138  -26.2222 H   0  0  0  0  0  0  0  0  0  0  0  0
   -2.2251   26.0894  -24.8900 H   0  0  0  0  0  0  0  0  0  0  0  0
   -0.2252   27.1665  -25.9238 H   0  0  0  0  0  0  0  0  0  0  0  0
    0.3836   26.6572  -28.2906 H   0  0  0  0  0  0  0  0  0  0  0  0
   -1.0153   25.0867  -29.6329 H   0  0  0  0  0  0  0  0  0  0  0  0
   -7.1728   24.1237  -29.0459 H   0  0  0  0  0  0  0  0  0  0  0  0
   -6.9274   25.1631  -30.4902 H   0  0  0  0  0  0  0  0  0  0  0  0
   -8.2206   23.9164  -30.4902 H   0  0  0  0  0  0  0  0  0  0  0  0
   -8.7197   21.9669  -31.5305 H   0  0  0  0  0  0  0  0  0  0  0  0
   -9.6708   19.4358  -32.1311 H   0  0  0  0  0  0  0  0  0  0  0  0
   -9.6437   20.4357  -33.6231 H   0  0  0  0  0  0  0  0  0  0  0  0
   -8.8971   18.8019  -33.6231 H   0  0  0  0  0  0  0  0  0  0  0  0
  1  2  1  0
  2  3  2  0
  3  4  1  0
  4  5  1  0
  5  6  1  0
  6  7  1  0
  7  8  2  0
  7  9  1  0
  9 10  1  0
 10 11  2  0
 11 12  1  0
 12 13  2  0
 13 14  1  0
 14 15  2  0
  6 16  2  0
 16 17  1  0
 16 18  1  0
 18 19  1  0
 19 20  2  0
 20 21  1  0
 20  2  1  0
 18  4  2  0
 15 10  1  0
  1 22  1  0
  1 23  1  0
  1 24  1  0
  3 25  1  0
  9 26  1  0
 11 27  1  0
 12 28  1  0
 13 29  1  0
 14 30  1  0
 15 31  1  0
 17 32  1  0
 17 33  1  0
 17 34  1  0
 19 35  1  0
 21 36  1  0
 21 37  1  0
 21 38  1  0
M  END
>  <UniqueID>  (36) 
35

>  <SMILES>  (36) 
Cc1cc2oc(C(=O)Nc3ccccc3)c(C)c2cc1C

>  <Energy>  (36) 
80.49006496024288

>  <Genealogy>  (36) 
Cc1cc2oc(C(=O)Nc3ccccc3)c(C)c2cc1C (3D coordinates assigned)
Cc1cc2oc(C(=O)Nc3ccccc3)c(C)c2cc1C (optimized conformer: 80.49006496024288 kcal/mol)

>  <smiles>  (36) 
Cc1cc2oc(C(=O)Nc3ccccc3)c(C)c2cc1C

>  <score_type>  (36) 
oracle

>  <origin>  (36) 
adg

>  <m_score__min__energy>  (36) 
-8.2799999999999994

>  <m_primary>  (36) 
energy

$$$$
36:0
     RDKit          3D

 25 27  0  0  0  0  0  0  0  0999 V2000
   -5.5260   15.5890  -33.8630 C   0  0  0  0  0  0  0  0  0  0  0  0
   -5.9350   16.9960  -33.5440 C   0  0  0  0  0  0  0  0  0  0  0  0
   -4.9960   18.0510  -33.6310 C   0  0  0  0  0  0  0  0  0  0  0  0
   -5.3640   19.3650  -33.2960 C   0  0  0  0  0  0  0  0  0  0  0  0
   -6.6720   19.5760  -32.8680 C   0  0  0  0  0  0  0  0  0  0  0  0
   -7.3150   20.7300  -32.4710 C   0  0  0  0  0  0  0  0  0  0  0  0
   -6.8550   22.0430  -32.3830 C   0  0  0  0  0  0  0  0  0  0  0  0
   -7.7630   23.0160  -31.9360 C   0  0  0  0  0  0  0  0  0  0  0  0
   -9.0830   22.6590  -31.5950 C   0  0  0  0  0  0  0  0  0  0  0  0
   -9.4880   21.3190  -31.7030 C   0  0  0  0  0  0  0  0  0  0  0  0
   -8.5820   20.4090  -32.1390 N   0  0  0  0  0  0  0  0  0  0  0  0
   -8.7130   19.0780  -32.3280 C   0  0  0  0  0  0  0  0  0  0  0  0
   -7.5510   18.5560  -32.7750 N   0  0  0  0  0  0  0  0  0  0  0  0
   -7.2380   17.2740  -33.0870 C   0  0  0  0  0  0  0  0  0  0  0  0
   -5.3644   15.0331  -32.9276 H   0  0  0  0  0  0  0  0  0  0  0  0
   -6.3192   15.1002  -34.4477 H   0  0  0  0  0  0  0  0  0  0  0  0
   -4.5943   15.6016  -34.4477 H   0  0  0  0  0  0  0  0  0  0  0  0
   -3.9689   17.8406  -33.9638 H   0  0  0  0  0  0  0  0  0  0  0  0
   -4.6461   20.1953  -33.3691 H   0  0  0  0  0  0  0  0  0  0  0  0
   -5.8217   22.3062  -32.6531 H   0  0  0  0  0  0  0  0  0  0  0  0
   -7.4418   24.0646  -31.8513 H   0  0  0  0  0  0  0  0  0  0  0  0
   -9.7913   23.4251  -31.2465 H   0  0  0  0  0  0  0  0  0  0  0  0
  -10.5124   21.0155  -31.4411 H   0  0  0  0  0  0  0  0  0  0  0  0
   -9.6326   18.5031  -32.1444 H   0  0  0  0  0  0  0  0  0  0  0  0
   -7.9831   16.4712  -32.9857 H   0  0  0  0  0  0  0  0  0  0  0  0
  1  2  1  0
  2  3  1  0
  3  4  2  0
  4  5  1  0
  5  6  2  0
  6  7  1  0
  7  8  2  0
  8  9  1  0
  9 10  2  0
 10 11  1  0
 11 12  2  0
 12 13  1  0
 13 14  1  0
 14  2  2  0
 13  5  1  0
 11  6  1  0
  1 15  1  0
  1 16  1  0
  1 17  1  0
  3 18  1  0
  4 19  1  0
  7 20  1  0
  8 21  1  0
  9 22  1  0
 10 23  1  0
 12 24  1  0
 14 25  1  0
M  CHG  1  11   1
M  END
>  <UniqueID>  (37) 
36

>  <SMILES>  (37) 
Cc1ccc2c3cccc[n+]3cn2c1

>  <Energy>  (37) 
70.20023090476883

>  <Genealogy>  (37) 
Cc1ccc2c3cccc[n+]3cn2c1 (3D coordinates assigned)
Cc1ccc2c3cccc[n+]3cn2c1 (optimized conformer: 70.20023090476883 kcal/mol)

>  <smiles>  (37) 
Cc1ccc2c3cccc[n+]3cn2c1

>  <score_type>  (37) 
oracle

>  <origin>  (37) 
adg

>  <m_score__min__energy>  (37) 
-5.5899999999999999

>  <m_primary>  (37) 
energy

$$$$
37:0
     RDKit          3D

 37 39  0  0  0  0  0  0  0  0999 V2000
   -7.7801   24.7770  -30.9078 H   0  0  0  0  0  0  0  0  0  0  0  0
   -6.7090   24.5810  -30.7520 C   0  0  0  0  0  0  0  0  0  0  0  0
   -5.5940   25.6610  -30.1000 S   0  0  0  0  0  0  0  0  0  0  0  0
   -4.3180   24.5870  -30.2480 C   0  0  0  0  0  0  0  0  0  0  0  0
   -3.1090   24.8480  -29.8470 N   0  0  0  0  0  0  0  0  0  0  0  0
   -2.1750   23.9150  -29.2750 C   0  0  0  0  0  0  0  0  0  0  0  0
   -1.9810   23.8940  -27.8800 C   0  0  0  0  0  0  0  0  0  0  0  0
   -2.7080   24.7850  -27.0170 N   0  0  0  0  0  0  0  0  0  0  0  0
   -1.9880   25.8270  -26.2840 C   0  0  0  0  0  0  0  0  0  0  0  0
   -2.1029   25.6607  -25.2027 H   0  0  0  0  0  0  0  0  0  0  0  0
   -0.9210   25.7912  -26.5491 H   0  0  0  0  0  0  0  0  0  0  0  0
   -2.3988   26.8123  -26.5491 H   0  0  0  0  0  0  0  0  0  0  0  0
   -4.1430   24.6020  -26.7920 C   0  0  0  0  0  0  0  0  0  0  0  0
   -4.3443   24.5763  -25.7109 H   0  0  0  0  0  0  0  0  0  0  0  0
   -4.6951   25.4370  -27.2480 H   0  0  0  0  0  0  0  0  0  0  0  0
   -4.4678   23.6552  -27.2480 H   0  0  0  0  0  0  0  0  0  0  0  0
   -1.0850   22.9690  -27.3260 C   0  0  0  0  0  0  0  0  0  0  0  0
   -0.9435   22.9219  -26.2362 H   0  0  0  0  0  0  0  0  0  0  0  0
   -0.3740   22.1090  -28.1620 C   0  0  0  0  0  0  0  0  0  0  0  0
    0.3263   21.3792  -27.7296 H   0  0  0  0  0  0  0  0  0  0  0  0
   -0.5430   22.1690  -29.5090 N   0  0  0  0  0  0  0  0  0  0  0  0
    0.0110   21.5300  -30.1210 H   0  0  0  0  0  0  0  0  0  0  0  0
   -1.4120   23.0470  -30.0770 C   0  0  0  0  0  0  0  0  0  0  0  0
   -1.5191   23.0788  -31.1713 H   0  0  0  0  0  0  0  0  0  0  0  0
   -4.7100   23.4040  -30.7690 N   0  0  0  0  0  0  0  0  0  0  0  0
   -6.0400   23.3910  -31.0620 C   0  0  0  0  0  0  0  0  0  0  0  0
   -6.6870   22.1870  -31.6500 C   0  0  0  0  0  0  0  0  0  0  0  0
   -8.0530   21.9400  -31.4110 C   0  0  0  0  0  0  0  0  0  0  0  0
   -8.6333   22.6403  -30.7922 H   0  0  0  0  0  0  0  0  0  0  0  0
   -8.6780   20.8130  -31.9530 C   0  0  0  0  0  0  0  0  0  0  0  0
   -9.7459   20.6323  -31.7607 H   0  0  0  0  0  0  0  0  0  0  0  0
   -7.9510   19.9170  -32.7370 C   0  0  0  0  0  0  0  0  0  0  0  0
   -8.4458   19.0323  -33.1642 H   0  0  0  0  0  0  0  0  0  0  0  0
   -6.5950   20.1440  -32.9790 C   0  0  0  0  0  0  0  0  0  0  0  0
   -6.0216   19.4359  -33.5953 H   0  0  0  0  0  0  0  0  0  0  0  0
   -5.9640   21.2690  -32.4400 C   0  0  0  0  0  0  0  0  0  0  0  0
   -4.8947   21.4397  -32.6336 H   0  0  0  0  0  0  0  0  0  0  0  0
  1  2  1  0
  2  3  1  0
  3  4  1  0
  4  5  2  0
  5  6  1  0
  6  7  2  0
  7  8  1  0
  8  9  1  0
  9 10  1  0
  9 11  1  0
  9 12  1  0
  8 13  1  0
 13 14  1  0
 13 15  1  0
 13 16  1  0
  7 17  1  0
 17 18  1  0
 17 19  2  0
 19 20  1  0
 19 21  1  0
 21 22  1  0
 21 23  2  0
 23 24  1  0
  4 25  1  0
 25 26  1  0
 26 27  1  0
 27 28  2  0
 28 29  1  0
 28 30  1  0
 30 31  1  0
 30 32  2  0
 32 33  1  0
 32 34  1  0
 34 35  1  0
 34 36  2  0
 36 37  1  0
 26  2  2  0
 36 27  1  0
 23  6  1  0
M  CHG  2  21   1  25  -1
M  END
>  <UniqueID>  (38) 
37

>  <SMILES>  (38) 
CN(C)c1cc[nH+]cc1/N=c1\[n-]c(-c2ccccc2)cs1

>  <Energy>  (38) 
80.39839029577749

>  <Genealogy>  (38) 
CN(C)c1cc[nH+]cc1N=c1[n-]c(-c2ccccc2)cs1 (protonated)
CN(C)c1cc[nH+]cc1/N=c1\[n-]c(-c2ccccc2)cs1 (cis-trans isomerization)
CN(C)c1cc[nH+]cc1/N=c1\[n-]c(-c2ccccc2)cs1 (3D coordinates assigned)
CN(C)c1cc[nH+]cc1/N=c1\[n-]c(-c2ccccc2)cs1 (optimized conformer: 80.39839029577749 kcal/mol)

>  <smiles>  (38) 
CN(C)c1ccncc1N=c1[nH]c(-c2ccccc2)cs1

>  <score_type>  (38) 
oracle

>  <origin>  (38) 
adg

>  <m_score__min__energy>  (38) 
-7.9299999999999997

>  <m_primary>  (38) 
energy

$$$$
38:0
     RDKit          3D

 49 51  0  0  0  0  0  0  0  0999 V2000
   -5.0630   15.7010  -33.4090 C   0  0  0  0  0  0  0  0  0  0  0  0
   -5.2130   16.7190  -32.4260 O   0  0  0  0  0  0  0  0  0  0  0  0
   -6.1090   17.7930  -32.5330 C   0  0  0  0  0  0  0  0  0  0  0  0
   -5.9380   18.8330  -33.4660 C   0  0  0  0  0  0  0  0  0  0  0  0
   -6.8630   19.8790  -33.5350 C   0  0  0  0  0  0  0  0  0  0  0  0
   -7.9840   19.8940  -32.6870 C   0  0  0  0  0  0  0  0  0  0  0  0
   -8.9430   20.9180  -32.7140 O   0  0  0  0  0  0  0  0  0  0  0  0
   -9.1390   21.8910  -31.7230 C   0  0  0  0  0  0  0  0  0  0  0  0
   -9.5990   21.5890  -30.5870 O   0  0  0  0  0  0  0  0  0  0  0  0
   -8.6900   23.2930  -31.9820 C   0  0  0  0  0  0  0  0  0  0  0  0
   -7.2550   23.4600  -31.5690 C   0  0  0  0  0  0  0  0  0  0  0  0
   -6.9270   24.1990  -30.4220 C   0  0  0  0  0  0  0  0  0  0  0  0
   -5.5940   24.3350  -30.0260 C   0  0  0  0  0  0  0  0  0  0  0  0
   -4.5700   23.7240  -30.7590 C   0  0  0  0  0  0  0  0  0  0  0  0
   -3.2450   23.8960  -30.3260 O   0  0  0  0  0  0  0  0  0  0  0  0
   -2.4880   22.9180  -29.6680 C   0  0  0  0  0  0  0  0  0  0  0  0
   -2.8300   21.5770  -29.8620 C   0  0  0  0  0  0  0  0  0  0  0  0
   -2.1460   20.5640  -29.1890 C   0  0  0  0  0  0  0  0  0  0  0  0
   -1.1030   20.8740  -28.3150 C   0  0  0  0  0  0  0  0  0  0  0  0
   -0.4560   19.8200  -27.6530 O   0  0  0  0  0  0  0  0  0  0  0  0
   -1.1180   18.6820  -27.1100 C   0  0  0  0  0  0  0  0  0  0  0  0
   -0.7330   22.2210  -28.1350 C   0  0  0  0  0  0  0  0  0  0  0  0
   -1.4010   23.2500  -28.8280 C   0  0  0  0  0  0  0  0  0  0  0  0
   -0.9510   24.6090  -28.6910 N   0  0  0  0  0  0  0  0  0  0  0  0
    0.2460   24.8550  -28.4380 O   0  0  0  0  0  0  0  0  0  0  0  0
   -1.8030   25.6570  -28.9630 O   0  0  0  0  0  0  0  0  0  0  0  0
   -4.8960   22.9750  -31.9070 C   0  0  0  0  0  0  0  0  0  0  0  0
   -6.2300   22.8390  -32.3030 C   0  0  0  0  0  0  0  0  0  0  0  0
   -8.1400   18.8680  -31.7480 C   0  0  0  0  0  0  0  0  0  0  0  0
   -7.2140   17.8250  -31.6740 C   0  0  0  0  0  0  0  0  0  0  0  0
   -4.9199   14.7300  -32.9124 H   0  0  0  0  0  0  0  0  0  0  0  0
   -5.9651   15.6621  -34.0372 H   0  0  0  0  0  0  0  0  0  0  0  0
   -4.1880   15.9240  -34.0372 H   0  0  0  0  0  0  0  0  0  0  0  0
   -5.0721   18.8227  -34.1443 H   0  0  0  0  0  0  0  0  0  0  0  0
   -6.7127   20.6951  -34.2571 H   0  0  0  0  0  0  0  0  0  0  0  0
   -8.7879   23.5140  -33.0551 H   0  0  0  0  0  0  0  0  0  0  0  0
   -9.3154   23.9850  -31.3989 H   0  0  0  0  0  0  0  0  0  0  0  0
   -7.7241   24.6740  -29.8312 H   0  0  0  0  0  0  0  0  0  0  0  0
   -5.3475   24.9264  -29.1319 H   0  0  0  0  0  0  0  0  0  0  0  0
   -3.6464   21.3175  -30.5520 H   0  0  0  0  0  0  0  0  0  0  0  0
   -2.4309   19.5136  -29.3484 H   0  0  0  0  0  0  0  0  0  0  0  0
   -1.0896   18.7308  -26.0115 H   0  0  0  0  0  0  0  0  0  0  0  0
   -2.1642   18.6697  -27.4496 H   0  0  0  0  0  0  0  0  0  0  0  0
   -0.6115   17.7665  -27.4496 H   0  0  0  0  0  0  0  0  0  0  0  0
    0.0866   22.4725  -27.4458 H   0  0  0  0  0  0  0  0  0  0  0  0
   -4.0984   22.4957  -32.4936 H   0  0  0  0  0  0  0  0  0  0  0  0
   -6.4785   22.2430  -33.1935 H   0  0  0  0  0  0  0  0  0  0  0  0
   -8.9997   18.8832  -31.0620 H   0  0  0  0  0  0  0  0  0  0  0  0
   -7.3540   17.0224  -30.9350 H   0  0  0  0  0  0  0  0  0  0  0  0
  1  2  1  0
  2  3  1  0
  3  4  2  0
  4  5  1  0
  5  6  2  0
  6  7  1  0
  7  8  1  0
  8  9  2  0
  8 10  1  0
 10 11  1  0
 11 12  2  0
 12 13  1  0
 13 14  2  0
 14 15  1  0
 15 16  1  0
 16 17  2  0
 17 18  1  0
 18 19  2  0
 19 20  1  0
 20 21  1  0
 19 22  1  0
 22 23  2  0
 23 24  1  0
 24 25  2  0
 24 26  1  0
 14 27  1  0
 27 28  2  0
  6 29  1  0
 29 30  2  0
 30  3  1  0
 28 11  1  0
 23 16  1  0
  1 31  1  0
  1 32  1  0
  1 33  1  0
  4 34  1  0
  5 35  1  0
 10 36  1  0
 10 37  1  0
 12 38  1  0
 13 39  1  0
 17 40  1  0
 18 41  1  0
 21 42  1  0
 21 43  1  0
 21 44  1  0
 22 45  1  0
 27 46  1  0
 28 47  1  0
 29 48  1  0
 30 49  1  0
M  CHG  2  24   1  26  -1
M  END
>  <UniqueID>  (39) 
38

>  <SMILES>  (39) 
COc1ccc(OC(=O)Cc2ccc(Oc3ccc(OC)cc3[N+](=O)[O-])cc2)cc1

>  <Energy>  (39) 
64.26739248625816

>  <Genealogy>  (39) 
COc1ccc(OC(=O)Cc2ccc(Oc3ccc(OC)cc3[N+](=O)[O-])cc2)cc1 (3D coordinates assigned)
COc1ccc(OC(=O)Cc2ccc(Oc3ccc(OC)cc3[N+](=O)[O-])cc2)cc1 (optimized conformer: 64.26739248625816 kcal/mol)

>  <smiles>  (39) 
COc1ccc(OC(=O)Cc2ccc(Oc3ccc(OC)cc3[N+](=O)[O-])cc2)cc1

>  <score_type>  (39) 
oracle

>  <origin>  (39) 
adg

>  <m_score__min__energy>  (39) 
-9.3499999999999996

>  <m_primary>  (39) 
energy

$$$$
39:0
     RDKit          3D

 33 34  0  0  0  0  0  0  0  0999 V2000
   -5.6710   26.6920  -30.1740 O   0  0  0  0  0  0  0  0  0  0  0  0
   -5.2550   25.5460  -30.4950 C   0  0  0  0  0  0  0  0  0  0  0  0
   -6.2410   24.4640  -30.7960 C   0  0  0  0  0  0  0  0  0  0  0  0
   -5.7520   23.5440  -32.2960 S   0  0  0  0  0  0  0  0  0  0  0  0
   -7.0490   22.3080  -32.1600 C   0  0  0  0  0  0  0  0  0  0  0  0
   -6.8220   21.0010  -32.6090 C   0  0  0  0  0  0  0  0  0  0  0  0
   -7.8350   20.0420  -32.5110 C   0  0  0  0  0  0  0  0  0  0  0  0
   -9.0770   20.3870  -31.9690 C   0  0  0  0  0  0  0  0  0  0  0  0
   -9.3060   21.6920  -31.5210 C   0  0  0  0  0  0  0  0  0  0  0  0
   -8.2950   22.6540  -31.6210 C   0  0  0  0  0  0  0  0  0  0  0  0
   -3.8560   25.2360  -30.4800 N   0  0  0  0  0  0  0  0  0  0  0  0
   -3.2170   24.1370  -29.8110 C   0  0  0  0  0  0  0  0  0  0  0  0
   -3.7320   22.8290  -29.8770 C   0  0  0  0  0  0  0  0  0  0  0  0
   -3.0910   21.7840  -29.2070 C   0  0  0  0  0  0  0  0  0  0  0  0
   -1.9430   22.0350  -28.4570 C   0  0  0  0  0  0  0  0  0  0  0  0
   -1.4380   23.3330  -28.3610 C   0  0  0  0  0  0  0  0  0  0  0  0
   -2.0780   24.3970  -29.0280 C   0  0  0  0  0  0  0  0  0  0  0  0
   -1.6110   25.7190  -28.9440 O   0  0  0  0  0  0  0  0  0  0  0  0
   -0.8930   26.2600  -27.8380 C   0  0  0  0  0  0  0  0  0  0  0  0
   -1.6150   26.0780  -26.6720 F   0  0  0  0  0  0  0  0  0  0  0  0
   -0.7040   27.6130  -28.0390 F   0  0  0  0  0  0  0  0  0  0  0  0
   -6.2855   23.7690  -29.9446 H   0  0  0  0  0  0  0  0  0  0  0  0
   -7.2266   24.9214  -30.9672 H   0  0  0  0  0  0  0  0  0  0  0  0
   -5.8467   20.7288  -33.0388 H   0  0  0  0  0  0  0  0  0  0  0  0
   -7.6546   19.0148  -32.8608 H   0  0  0  0  0  0  0  0  0  0  0  0
   -9.8737   19.6322  -31.8950 H   0  0  0  0  0  0  0  0  0  0  0  0
  -10.2813   21.9621  -31.0899 H   0  0  0  0  0  0  0  0  0  0  0  0
   -8.4785   23.6823  -31.2763 H   0  0  0  0  0  0  0  0  0  0  0  0
   -4.6437   22.6284  -30.4589 H   0  0  0  0  0  0  0  0  0  0  0  0
   -3.4926   20.7620  -29.2713 H   0  0  0  0  0  0  0  0  0  0  0  0
   -1.4339   21.2085  -27.9397 H   0  0  0  0  0  0  0  0  0  0  0  0
   -0.5360   23.5263  -27.7618 H   0  0  0  0  0  0  0  0  0  0  0  0
    0.0770   25.7484  -27.7521 H   0  0  0  0  0  0  0  0  0  0  0  0
  1  2  2  0
  2  3  1  0
  3  4  1  0
  4  5  1  0
  5  6  2  0
  6  7  1  0
  7  8  2  0
  8  9  1  0
  9 10  2  0
  2 11  1  0
 11 12  1  0
 12 13  2  0
 13 14  1  0
 14 15  2  0
 15 16  1  0
 16 17  2  0
 17 18  1  0
 18 19  1  0
 19 20  1  0
 19 21  1  0
 10  5  1  0
 17 12  1  0
  3 22  1  0
  3 23  1  0
  6 24  1  0
  7 25  1  0
  8 26  1  0
  9 27  1  0
 10 28  1  0
 13 29  1  0
 14 30  1  0
 15 31  1  0
 16 32  1  0
 19 33  1  0
M  CHG  1  11  -1
M  END
>  <UniqueID>  (40) 
39

>  <SMILES>  (40) 
O=C(CSc1ccccc1)[N-]c1ccccc1OC(F)F

>  <Energy>  (40) 
29.835448406996655

>  <Genealogy>  (40) 
O=C(CSc1ccccc1)[N-]c1ccccc1OC(F)F (protonated)
O=C(CSc1ccccc1)[N-]c1ccccc1OC(F)F (3D coordinates assigned)
O=C(CSc1ccccc1)[N-]c1ccccc1OC(F)F (optimized conformer: 29.835448406996655 kcal/mol)

>  <smiles>  (40) 
O=C(CSc1ccccc1)Nc1ccccc1OC(F)F

>  <score_type>  (40) 
oracle

>  <origin>  (40) 
adg

>  <m_score__min__energy>  (40) 
-9.3300000000000001

>  <m_primary>  (40) 
energy

$$$$
40:0
     RDKit          3D

 36 39  0  0  0  0  0  0  0  0999 V2000
   -1.1700   25.6810  -25.4810 C   0  0  0  0  0  0  0  0  0  0  0  0
   -1.7380   25.3800  -26.8040 C   0  0  0  0  0  0  0  0  0  0  0  0
   -2.7460   24.4900  -27.0780 C   0  0  0  0  0  0  0  0  0  0  0  0
   -2.9880   24.4970  -28.4400 C   0  0  0  0  0  0  0  0  0  0  0  0
   -3.9700   23.7030  -29.1450 C   0  0  0  0  0  0  0  0  0  0  0  0
   -3.7270   22.6820  -29.9780 N   0  0  0  0  0  0  0  0  0  0  0  0
   -4.8920   22.1790  -30.4520 C   0  0  0  0  0  0  0  0  0  0  0  0
   -5.2490   21.1690  -31.3060 C   0  0  0  0  0  0  0  0  0  0  0  0
   -6.5900   20.9140  -31.5830 C   0  0  0  0  0  0  0  0  0  0  0  0
   -7.5540   21.7010  -30.9790 C   0  0  0  0  0  0  0  0  0  0  0  0
   -7.2260   22.7340  -30.1080 C   0  0  0  0  0  0  0  0  0  0  0  0
   -5.8880   22.9380  -29.8740 C   0  0  0  0  0  0  0  0  0  0  0  0
   -5.3040   23.8610  -29.0810 N   0  0  0  0  0  0  0  0  0  0  0  0
   -8.8470   21.2770  -31.3940 N   0  0  0  0  0  0  0  0  0  0  0  0
   -8.6580   20.1850  -32.2890 C   0  0  0  0  0  0  0  0  0  0  0  0
   -9.5470   19.5170  -32.8860 O   0  0  0  0  0  0  0  0  0  0  0  0
   -7.2070   19.8970  -32.4540 C   0  0  0  0  0  0  0  0  0  0  0  0
   -6.9790   18.5020  -31.9200 C   0  0  0  0  0  0  0  0  0  0  0  0
   -6.8490   20.0280  -33.9010 C   0  0  0  0  0  0  0  0  0  0  0  0
   -2.1260   25.3860  -28.9670 N   0  0  0  0  0  0  0  0  0  0  0  0
   -1.3800   25.9130  -27.9830 N   0  0  0  0  0  0  0  0  0  0  0  0
   -1.8526   25.3192  -24.6980 H   0  0  0  0  0  0  0  0  0  0  0  0
   -0.1957   25.1808  -25.3778 H   0  0  0  0  0  0  0  0  0  0  0  0
   -1.0368   26.7680  -25.3778 H   0  0  0  0  0  0  0  0  0  0  0  0
   -3.2745   23.8727  -26.3367 H   0  0  0  0  0  0  0  0  0  0  0  0
   -4.4689   20.5534  -31.7776 H   0  0  0  0  0  0  0  0  0  0  0  0
   -7.9981   23.3556  -29.6310 H   0  0  0  0  0  0  0  0  0  0  0  0
   -5.7820   24.5960  -28.4960 H   0  0  0  0  0  0  0  0  0  0  0  0
   -9.7810   21.6790  -31.1080 H   0  0  0  0  0  0  0  0  0  0  0  0
   -6.9828   18.5252  -30.8203 H   0  0  0  0  0  0  0  0  0  0  0  0
   -7.7805   17.8378  -32.2755 H   0  0  0  0  0  0  0  0  0  0  0  0
   -6.0077   18.1275  -32.2755 H   0  0  0  0  0  0  0  0  0  0  0  0
   -5.8195   20.4047  -33.9914 H   0  0  0  0  0  0  0  0  0  0  0  0
   -6.9235   19.0443  -34.3877 H   0  0  0  0  0  0  0  0  0  0  0  0
   -7.5408   20.7312  -34.3877 H   0  0  0  0  0  0  0  0  0  0  0  0
   -2.0160   25.6620  -29.9870 H   0  0  0  0  0  0  0  0  0  0  0  0
  1  2  1  0
  2  3  1  0
  3  4  2  0
  4  5  1  0
  5  6  2  0
  6  7  1  0
  7  8  2  0
  8  9  1  0
  9 10  2  0
 10 11  1  0
 11 12  2  0
 12 13  1  0
 10 14  1  0
 14 15  1  0
 15 16  2  0
 15 17  1  0
 17 18  1  0
 17 19  1  0
  4 20  1  0
 20 21  1  0
 21  2  2  0
 13  5  1  0
 12  7  1  0
 17  9  1  0
  1 22  1  0
  1 23  1  0
  1 24  1  0
  3 25  1  0
  8 26  1  0
 11 27  1  0
 13 28  1  0
 14 29  1  0
 18 30  1  0
 18 31  1  0
 18 32  1  0
 19 33  1  0
 19 34  1  0
 19 35  1  0
 20 36  1  0
M  END
>  <smiles>  (41) 
Cc1cc(-c2nc3cc4c(cc3[nH]2)NC(=O)C4(C)C)[nH]n1

>  <score_type>  (41) 
oracle

>  <origin>  (41) 
adg

>  <m_score__min__energy>  (41) 
-8.5199999999999996

>  <m_primary>  (41) 
energy

$$$$
41:0
     RDKit          3D

 47 50  0  0  1  0  0  0  0  0999 V2000
   -8.8370   21.1900  -31.4970 C   0  0  0  0  0  0  0  0  0  0  0  0
   -8.5400   19.6720  -32.3670 S   0  0  0  0  0  0  0  0  0  0  0  0
   -8.1370   18.5750  -31.4260 O   0  0  0  0  0  0  0  0  0  0  0  0
   -9.8300   19.2980  -33.0700 O   0  0  0  0  0  0  0  0  0  0  0  0
   -7.3400   19.9280  -33.5550 N   0  0  0  0  0  0  0  0  0  0  0  0
   -6.0080   20.3010  -33.2350 C   0  0  0  0  0  0  0  0  0  0  0  0
   -4.9790   19.5730  -33.8040 C   0  0  0  0  0  0  0  0  0  0  0  0
   -3.6600   19.9120  -33.5100 C   0  0  0  0  0  0  0  0  0  0  0  0
   -3.3920   20.9640  -32.6610 C   0  0  0  0  0  0  0  0  0  0  0  0
   -4.4270   21.7000  -32.0840 C   0  0  0  0  0  0  0  0  0  0  0  0
   -4.0360   22.7860  -31.2080 C   0  0  0  0  0  0  0  0  0  0  0  0
   -4.8260   23.8950  -31.2110 N   0  0  0  0  0  0  0  0  0  0  0  0
   -4.5250   24.9490  -30.4220 C   0  0  0  0  0  0  0  0  0  0  0  0
   -5.3100   25.9790  -30.4630 N   0  0  0  0  0  0  0  0  0  0  0  0
   -3.4470   24.9120  -29.6300 N   0  0  0  0  0  0  0  0  0  0  0  0
   -2.6230   23.8420  -29.5810 C   0  0  0  0  0  0  0  0  0  0  0  0
   -2.9280   22.7590  -30.3890 C   0  0  0  0  0  0  0  0  0  0  0  0
   -1.9700   21.7880  -30.1900 C   0  0  0  0  0  0  0  0  0  0  0  0
   -1.1030   22.3020  -29.2640 C   0  0  0  0  0  0  0  0  0  0  0  0
   -1.4900   23.5500  -28.8870 N   0  0  0  0  0  0  0  0  0  0  0  0
   -0.8770   24.4470  -27.9460 C   0  0  1  0  0  0  0  0  0  0  0  0
   -1.7340   24.8070  -26.7880 C   0  0  0  0  0  0  0  0  0  0  0  0
   -0.8250   24.7590  -25.5530 C   0  0  0  0  0  0  0  0  0  0  0  0
    0.5780   24.8810  -26.1650 C   0  0  0  0  0  0  0  0  0  0  0  0
    1.5390   24.4210  -25.2940 F   0  0  0  0  0  0  0  0  0  0  0  0
    0.8140   26.1790  -26.5720 F   0  0  0  0  0  0  0  0  0  0  0  0
    0.4110   23.9760  -27.3680 C   0  0  0  0  0  0  0  0  0  0  0  0
   -5.7240   21.3620  -32.3760 C   0  0  0  0  0  0  0  0  0  0  0  0
   -8.8007   21.0047  -30.4133 H   0  0  0  0  0  0  0  0  0  0  0  0
   -8.0657   21.9256  -31.7692 H   0  0  0  0  0  0  0  0  0  0  0  0
   -9.8286   21.5807  -31.7692 H   0  0  0  0  0  0  0  0  0  0  0  0
   -7.5410   19.8200  -34.5940 H   0  0  0  0  0  0  0  0  0  0  0  0
   -5.1996   18.7351  -34.4816 H   0  0  0  0  0  0  0  0  0  0  0  0
   -2.8327   19.3401  -33.9554 H   0  0  0  0  0  0  0  0  0  0  0  0
   -2.3480   21.2268  -32.4353 H   0  0  0  0  0  0  0  0  0  0  0  0
   -5.3670   26.5810  -29.6110 H   0  0  0  0  0  0  0  0  0  0  0  0
   -3.2620   25.7500  -29.0440 H   0  0  0  0  0  0  0  0  0  0  0  0
   -1.9139   20.8026  -30.6756 H   0  0  0  0  0  0  0  0  0  0  0  0
   -0.2160   21.7782  -28.8782 H   0  0  0  0  0  0  0  0  0  0  0  0
   -0.7038   25.3221  -28.5897 H   0  0  0  0  0  0  0  0  0  0  0  0
   -2.1469   25.8181  -26.9187 H   0  0  0  0  0  0  0  0  0  0  0  0
   -2.5841   24.1161  -26.6877 H   0  0  0  0  0  0  0  0  0  0  0  0
   -1.0355   25.5970  -24.8722 H   0  0  0  0  0  0  0  0  0  0  0  0
   -0.9600   23.8521  -24.9453 H   0  0  0  0  0  0  0  0  0  0  0  0
    1.2383   24.1055  -28.0813 H   0  0  0  0  0  0  0  0  0  0  0  0
    0.4142   22.9052  -27.1162 H   0  0  0  0  0  0  0  0  0  0  0  0
   -6.5493   21.9344  -31.9274 H   0  0  0  0  0  0  0  0  0  0  0  0
  1  2  1  0
  2  3  2  0
  2  4  2  0
  2  5  1  0
  5  6  1  0
  6  7  2  0
  7  8  1  0
  8  9  2  0
  9 10  1  0
 10 11  1  0
 11 12  2  0
 12 13  1  0
 13 14  2  3
 13 15  1  0
 15 16  1  0
 16 17  2  0
 17 18  1  0
 18 19  2  0
 19 20  1  0
 20 21  1  0
 21 22  1  0
 22 23  1  0
 23 24  1  0
 24 25  1  0
 24 26  1  0
 24 27  1  0
 10 28  2  0
 28  6  1  0
 17 11  1  0
 27 21  1  0
 20 16  1  0
  1 29  1  0
  1 30  1  0
  1 31  1  0
  5 32  1  0
  7 33  1  0
  8 34  1  0
  9 35  1  0
 14 36  1  0
 15 37  1  0
 18 38  1  0
 19 39  1  0
 21 40  1  6
 22 41  1  0
 22 42  1  0
 23 43  1  0
 23 44  1  0
 27 45  1  0
 27 46  1  0
 28 47  1  0
M  END
>  <smiles>  (42) 
CS(=O)(=O)Nc1cccc(-c2nc(=N)[nH]c3c2ccn3C2CCC(F)(F)C2)c1

>  <score_type>  (42) 
oracle

>  <origin>  (42) 
adg

>  <m_score__min__energy>  (42) 
-9.4100000000000001

>  <m_primary>  (42) 
energy

$$$$
42:0
     RDKit          3D

 34 35  0  0  0  0  0  0  0  0999 V2000
   -5.7550   24.0890  -31.1160 C   0  0  0  0  0  0  0  0  0  0  0  0
   -6.4810   23.8010  -32.2740 C   0  0  0  0  0  0  0  0  0  0  0  0
   -7.5850   22.9460  -32.2150 C   0  0  0  0  0  0  0  0  0  0  0  0
   -7.9730   22.3750  -30.9910 C   0  0  0  0  0  0  0  0  0  0  0  0
   -9.1460   21.4300  -30.9330 C   0  0  0  0  0  0  0  0  0  0  0  0
   -9.4810   20.8270  -32.3100 C   0  0  0  0  0  0  0  0  0  0  0  0
   -8.6070   19.6140  -32.7160 C   0  0  0  0  0  0  0  0  0  0  0  0
   -8.3930   18.6820  -31.4950 C   0  0  0  0  0  0  0  0  0  0  0  0
   -7.1350   17.7950  -31.6020 C   0  0  0  0  0  0  0  0  0  0  0  0
   -6.7500   17.5240  -33.0570 C   0  0  0  0  0  0  0  0  0  0  0  0
   -6.4350   18.8320  -33.8100 C   0  0  0  0  0  0  0  0  0  0  0  0
   -7.2500   20.0430  -33.3110 C   0  0  0  0  0  0  0  0  0  0  0  0
   -7.2360   22.6670  -29.8310 C   0  0  0  0  0  0  0  0  0  0  0  0
   -6.1320   23.5220  -29.8960 C   0  0  0  0  0  0  0  0  0  0  0  0
   -4.8864   24.7622  -31.1646 H   0  0  0  0  0  0  0  0  0  0  0  0
   -6.1833   24.2479  -33.2340 H   0  0  0  0  0  0  0  0  0  0  0  0
   -8.1522   22.7192  -33.1298 H   0  0  0  0  0  0  0  0  0  0  0  0
   -8.9069   20.6120  -30.2376 H   0  0  0  0  0  0  0  0  0  0  0  0
  -10.0223   22.0025  -30.5947 H   0  0  0  0  0  0  0  0  0  0  0  0
  -10.5319   20.5024  -32.2953 H   0  0  0  0  0  0  0  0  0  0  0  0
   -9.2816   21.6152  -33.0509 H   0  0  0  0  0  0  0  0  0  0  0  0
   -9.1456   19.0675  -33.5042 H   0  0  0  0  0  0  0  0  0  0  0  0
   -8.3017   19.3063  -30.5939 H   0  0  0  0  0  0  0  0  0  0  0  0
   -9.2594   18.0056  -31.4523 H   0  0  0  0  0  0  0  0  0  0  0  0
   -6.2978   18.3035  -31.1015 H   0  0  0  0  0  0  0  0  0  0  0  0
   -7.3567   16.8300  -31.1228 H   0  0  0  0  0  0  0  0  0  0  0  0
   -5.8608   16.8768  -33.0771 H   0  0  0  0  0  0  0  0  0  0  0  0
   -7.6007   17.0352  -33.5543 H   0  0  0  0  0  0  0  0  0  0  0  0
   -5.3656   19.0568  -33.6843 H   0  0  0  0  0  0  0  0  0  0  0  0
   -6.7075   18.6716  -34.8636 H   0  0  0  0  0  0  0  0  0  0  0  0
   -6.6711   20.5669  -32.5362 H   0  0  0  0  0  0  0  0  0  0  0  0
   -7.4461   20.7009  -34.1705 H   0  0  0  0  0  0  0  0  0  0  0  0
   -7.5286   22.2215  -28.8688 H   0  0  0  0  0  0  0  0  0  0  0  0
   -5.5590   23.7488  -28.9849 H   0  0  0  0  0  0  0  0  0  0  0  0
  1  2  2  0
  2  3  1  0
  3  4  2  0
  4  5  1  0
  5  6  1  0
  6  7  1  0
  7  8  1  0
  8  9  1  0
  9 10  1  0
 10 11  1  0
 11 12  1  0
  4 13  1  0
 13 14  2  0
 14  1  1  0
 12  7  1  0
  1 15  1  0
  2 16  1  0
  3 17  1  0
  5 18  1  0
  5 19  1  0
  6 20  1  0
  6 21  1  0
  7 22  1  0
  8 23  1  0
  8 24  1  0
  9 25  1  0
  9 26  1  0
 10 27  1  0
 10 28  1  0
 11 29  1  0
 11 30  1  0
 12 31  1  0
 12 32  1  0
 13 33  1  0
 14 34  1  0
M  END
>  <UniqueID>  (43) 
40

>  <SMILES>  (43) 
c1ccc(CCC2CCCCC2)cc1

>  <Energy>  (43) 
31.59693124442379

>  <Genealogy>  (43) 
c1ccc(CCC2CCCCC2)cc1 (3D coordinates assigned)
c1ccc(CCC2CCCCC2)cc1 (nonaromatic ring conformer: 31.59693124442379 kcal/mol)

>  <smiles>  (43) 
c1ccc(CCC2CCCCC2)cc1

>  <score_type>  (43) 
oracle

>  <origin>  (43) 
adg

>  <m_score__min__energy>  (43) 
-7.04

>  <m_primary>  (43) 
energy

$$$$
43:0
     RDKit          3D

 40 43  0  0  0  0  0  0  0  0999 V2000
   -8.6400   23.4090  -32.3440 C   0  0  0  0  0  0  0  0  0  0  0  0
   -7.7330   22.6880  -31.6690 C   0  0  0  0  0  0  0  0  0  0  0  0
   -6.6450   23.3460  -30.9010 C   0  0  0  0  0  0  0  0  0  0  0  0
   -6.8410   24.5640  -30.2240 C   0  0  0  0  0  0  0  0  0  0  0  0
   -5.8000   25.1360  -29.4860 C   0  0  0  0  0  0  0  0  0  0  0  0
   -4.5610   24.4990  -29.4130 C   0  0  0  0  0  0  0  0  0  0  0  0
   -4.3560   23.2860  -30.0720 C   0  0  0  0  0  0  0  0  0  0  0  0
   -5.3970   22.6920  -30.8060 C   0  0  0  0  0  0  0  0  0  0  0  0
   -5.1440   21.4100  -31.5780 C   0  0  2  0  0  0  0  0  0  0  0  0
   -4.6010   21.7600  -32.9810 C   0  0  0  0  0  0  0  0  0  0  0  0
   -3.5220   20.8050  -33.4260 C   0  0  0  0  0  0  0  0  0  0  0  0
   -3.8470   19.4940  -33.8120 C   0  0  0  0  0  0  0  0  0  0  0  0
   -2.8390   18.6000  -34.1830 C   0  0  0  0  0  0  0  0  0  0  0  0
   -1.5010   19.0050  -34.1690 C   0  0  0  0  0  0  0  0  0  0  0  0
   -1.1690   20.3070  -33.7800 C   0  0  0  0  0  0  0  0  0  0  0  0
   -2.1750   21.2040  -33.4080 C   0  0  0  0  0  0  0  0  0  0  0  0
   -6.4140   20.5780  -31.6740 C   0  0  0  0  0  0  0  0  0  0  0  0
   -6.3270   19.1760  -31.7240 C   0  0  0  0  0  0  0  0  0  0  0  0
   -7.4780   18.4000  -31.8570 C   0  0  0  0  0  0  0  0  0  0  0  0
   -8.7300   19.0120  -31.9250 C   0  0  0  0  0  0  0  0  0  0  0  0
   -9.8460   18.2490  -32.0210 F   0  0  0  0  0  0  0  0  0  0  0  0
   -8.8380   20.4060  -31.8720 C   0  0  0  0  0  0  0  0  0  0  0  0
  -10.0770   20.9590  -31.8530 F   0  0  0  0  0  0  0  0  0  0  0  0
   -7.6780   21.2050  -31.7740 C   0  0  0  0  0  0  0  0  0  0  0  0
   -9.4378   22.9018  -32.9064 H   0  0  0  0  0  0  0  0  0  0  0  0
   -8.5863   24.5077  -32.3353 H   0  0  0  0  0  0  0  0  0  0  0  0
   -7.8172   25.0683  -30.2755 H   0  0  0  0  0  0  0  0  0  0  0  0
   -5.9584   26.0901  -28.9620 H   0  0  0  0  0  0  0  0  0  0  0  0
   -3.7435   24.9540  -28.8345 H   0  0  0  0  0  0  0  0  0  0  0  0
   -3.3746   22.7923  -30.0167 H   0  0  0  0  0  0  0  0  0  0  0  0
   -4.3952   20.8059  -31.0448 H   0  0  0  0  0  0  0  0  0  0  0  0
   -5.4303   21.7195  -33.7026 H   0  0  0  0  0  0  0  0  0  0  0  0
   -4.1628   22.7678  -32.9330 H   0  0  0  0  0  0  0  0  0  0  0  0
   -4.8982   19.1701  -33.8223 H   0  0  0  0  0  0  0  0  0  0  0  0
   -3.0990   17.5752  -34.4868 H   0  0  0  0  0  0  0  0  0  0  0  0
   -0.7096   18.3001  -34.4638 H   0  0  0  0  0  0  0  0  0  0  0  0
   -0.1161   20.6253  -33.7668 H   0  0  0  0  0  0  0  0  0  0  0  0
   -1.9107   22.2264  -33.1000 H   0  0  0  0  0  0  0  0  0  0  0  0
   -5.3437   18.6873  -31.6577 H   0  0  0  0  0  0  0  0  0  0  0  0
   -7.3987   17.3041  -31.9084 H   0  0  0  0  0  0  0  0  0  0  0  0
  1  2  2  0
  2  3  1  0
  3  4  2  0
  4  5  1  0
  5  6  2  0
  6  7  1  0
  7  8  2  0
  8  9  1  0
  9 10  1  0
 10 11  1  0
 11 12  2  0
 12 13  1  0
 13 14  2  0
 14 15  1  0
 15 16  2  0
  9 17  1  0
 17 18  2  0
 18 19  1  0
 19 20  2  0
 20 21  1  0
 20 22  1  0
 22 23  1  0
 22 24  2  0
 24  2  1  0
  8  3  1  0
 16 11  1  0
 24 17  1  0
  1 25  1  0
  1 26  1  0
  4 27  1  0
  5 28  1  0
  6 29  1  0
  7 30  1  0
  9 31  1  1
 10 32  1  0
 10 33  1  0
 12 34  1  0
 13 35  1  0
 14 36  1  0
 15 37  1  0
 16 38  1  0
 18 39  1  0
 19 40  1  0
M  END
>  <UniqueID>  (44) 
41

>  <SMILES>  (44) 
C=C1c2ccccc2[C@H](Cc2ccccc2)c2ccc(F)c(F)c21

>  <Energy>  (44) 
53.58347504804294

>  <Genealogy>  (44) 
C=C1c2ccccc2[C@H](Cc2ccccc2)c2ccc(F)c(F)c21 (chirality)
C=C1c2ccccc2[C@H](Cc2ccccc2)c2ccc(F)c(F)c21 (3D coordinates assigned)
C=C1c2ccccc2[C@H](Cc2ccccc2)c2ccc(F)c(F)c21 (nonaromatic ring conformer: 53.58347504804294 kcal/mol)

>  <smiles>  (44) 
C=C1c2ccccc2C(Cc2ccccc2)c2ccc(F)c(F)c21

>  <score_type>  (44) 
oracle

>  <origin>  (44) 
adg

>  <m_score__min__energy>  (44) 
-8.9299999999999997

>  <m_primary>  (44) 
energy

$$$$
44:0
     RDKit          3D

 30 31  0  0  0  0  0  0  0  0999 V2000
   -2.6570   20.7120  -33.3930 C   0  0  0  0  0  0  0  0  0  0  0  0
   -3.6120   21.9120  -33.4030 C   0  0  0  0  0  0  0  0  0  0  0  0
   -4.9240   21.5880  -32.7900 N   0  0  1  0  0  0  0  0  0  0  0  0
   -5.2630   20.1570  -32.9770 C   0  0  0  0  0  0  0  0  0  0  0  0
   -6.6690   19.8500  -32.5400 C   0  0  0  0  0  0  0  0  0  0  0  0
   -7.1830   18.5880  -32.2710 C   0  0  0  0  0  0  0  0  0  0  0  0
   -8.5370   18.6100  -31.9140 C   0  0  0  0  0  0  0  0  0  0  0  0
   -9.0900   19.8850  -31.9050 C   0  0  0  0  0  0  0  0  0  0  0  0
   -7.8950   20.9840  -32.3430 S   0  0  0  0  0  0  0  0  0  0  0  0
   -4.9000   21.8920  -31.3710 C   0  0  0  0  0  0  0  0  0  0  0  0
   -4.4140   21.0540  -30.5600 O   0  0  0  0  0  0  0  0  0  0  0  0
   -5.4110   23.1730  -30.8340 C   0  0  0  0  0  0  0  0  0  0  0  0
   -6.7360   23.5310  -30.5890 C   0  0  0  0  0  0  0  0  0  0  0  0
   -6.8780   24.8340  -30.0960 C   0  0  0  0  0  0  0  0  0  0  0  0
   -5.6770   25.5130  -29.9520 C   0  0  0  0  0  0  0  0  0  0  0  0
   -4.4370   24.4910  -30.4410 S   0  0  0  0  0  0  0  0  0  0  0  0
   -2.4329   20.4304  -32.3535 H   0  0  0  0  0  0  0  0  0  0  0  0
   -3.1293   19.8632  -33.9091 H   0  0  0  0  0  0  0  0  0  0  0  0
   -1.7238   20.9817  -33.9091 H   0  0  0  0  0  0  0  0  0  0  0  0
   -3.1512   22.7364  -32.8391 H   0  0  0  0  0  0  0  0  0  0  0  0
   -3.7891   22.1946  -34.4512 H   0  0  0  0  0  0  0  0  0  0  0  0
   -5.6650   22.1510  -33.2640 H   0  0  0  0  0  0  0  0  0  0  0  0
   -5.1587   19.9035  -34.0423 H   0  0  0  0  0  0  0  0  0  0  0  0
   -4.5766   19.5611  -32.3575 H   0  0  0  0  0  0  0  0  0  0  0  0
   -6.5873   17.6653  -32.3321 H   0  0  0  0  0  0  0  0  0  0  0  0
   -9.1087   17.7040  -31.6644 H   0  0  0  0  0  0  0  0  0  0  0  0
  -10.1319   20.1330  -31.6541 H   0  0  0  0  0  0  0  0  0  0  0  0
   -7.5865   22.8561  -30.7656 H   0  0  0  0  0  0  0  0  0  0  0  0
   -7.8527   25.2784  -29.8458 H   0  0  0  0  0  0  0  0  0  0  0  0
   -5.5575   26.5419  -29.5819 H   0  0  0  0  0  0  0  0  0  0  0  0
  1  2  1  0
  2  3  1  0
  3  4  1  0
  4  5  1  0
  5  6  2  0
  6  7  1  0
  7  8  2  0
  8  9  1  0
  3 10  1  0
 10 11  2  0
 10 12  1  0
 12 13  2  0
 13 14  1  0
 14 15  2  0
 15 16  1  0
  9  5  1  0
 16 12  1  0
  1 17  1  0
  1 18  1  0
  1 19  1  0
  2 20  1  0
  2 21  1  0
  3 22  1  6
  4 23  1  0
  4 24  1  0
  6 25  1  0
  7 26  1  0
  8 27  1  0
 13 28  1  0
 14 29  1  0
 15 30  1  0
M  CHG  1   3   1
M  END
>  <UniqueID>  (45) 
42

>  <SMILES>  (45) 
CC[N@@H+](Cc1cccs1)C(=O)c1cccs1

>  <Energy>  (45) 
82.74973482443555

>  <Genealogy>  (45) 
CC[NH+](Cc1cccs1)C(=O)c1cccs1 (protonated)
CC[N@@H+](Cc1cccs1)C(=O)c1cccs1 (chirality)
CC[N@@H+](Cc1cccs1)C(=O)c1cccs1 (3D coordinates assigned)
CC[N@@H+](Cc1cccs1)C(=O)c1cccs1 (optimized conformer: 82.74973482443555 kcal/mol)

>  <smiles>  (45) 
CCN(Cc1cccs1)C(=O)c1cccs1

>  <score_type>  (45) 
oracle

>  <origin>  (45) 
adg

>  <m_score__min__energy>  (45) 
-5.5700000000000003

>  <m_primary>  (45) 
energy

$$$$
45:0
     RDKit          3D

 22 23  0  0  0  0  0  0  0  0999 V2000
   -5.6710   24.0560  -29.2790 O   0  0  0  0  0  0  0  0  0  0  0  0
   -5.1010   24.3120  -30.6460 S   0  0  0  0  0  0  0  0  0  0  0  0
   -5.9310   25.3550  -31.3390 O   0  0  0  0  0  0  0  0  0  0  0  0
   -3.4850   24.9190  -30.4670 N   0  0  0  0  0  0  0  0  0  0  0  0
   -2.6530   24.6610  -29.3320 C   0  0  0  0  0  0  0  0  0  0  0  0
   -2.7530   23.5220  -28.5340 C   0  0  0  0  0  0  0  0  0  0  0  0
   -1.5750   23.6390  -27.3420 S   0  0  0  0  0  0  0  0  0  0  0  0
   -0.9940   25.1190  -27.8840 C   0  0  0  0  0  0  0  0  0  0  0  0
   -1.6790   25.5380  -28.9690 N   0  0  0  0  0  0  0  0  0  0  0  0
   -5.1210   22.8300  -31.6120 C   0  0  0  0  0  0  0  0  0  0  0  0
   -3.9050   22.2480  -32.0130 C   0  0  0  0  0  0  0  0  0  0  0  0
   -3.8970   21.0760  -32.7720 C   0  0  0  0  0  0  0  0  0  0  0  0
   -5.1010   20.4770  -33.1470 C   0  0  0  0  0  0  0  0  0  0  0  0
   -6.3150   21.0530  -32.7690 C   0  0  0  0  0  0  0  0  0  0  0  0
   -6.3350   22.2280  -32.0080 C   0  0  0  0  0  0  0  0  0  0  0  0
   -7.8990   22.9200  -31.5910 Cl  0  0  0  0  0  0  0  0  0  0  0  0
   -3.4710   22.6985  -28.6615 H   0  0  0  0  0  0  0  0  0  0  0  0
   -0.1660   25.6727  -27.4172 H   0  0  0  0  0  0  0  0  0  0  0  0
   -2.9533   22.7195  -31.7266 H   0  0  0  0  0  0  0  0  0  0  0  0
   -2.9409   20.6241  -33.0748 H   0  0  0  0  0  0  0  0  0  0  0  0
   -5.0930   19.5509  -33.7405 H   0  0  0  0  0  0  0  0  0  0  0  0
   -7.2616   20.5809  -33.0708 H   0  0  0  0  0  0  0  0  0  0  0  0
  1  2  2  0
  2  3  2  0
  2  4  1  0
  4  5  1  0
  5  6  2  0
  6  7  1  0
  7  8  1  0
  8  9  2  0
  2 10  1  0
 10 11  2  0
 11 12  1  0
 12 13  2  0
 13 14  1  0
 14 15  2  0
 15 16  1  0
  9  5  1  0
 15 10  1  0
  6 17  1  0
  8 18  1  0
 11 19  1  0
 12 20  1  0
 13 21  1  0
 14 22  1  0
M  CHG  1   4  -1
M  END
>  <UniqueID>  (46) 
43

>  <SMILES>  (46) 
O=S(=O)([N-]c1cscn1)c1ccccc1Cl

>  <Energy>  (46) 
56.31117923003105

>  <Genealogy>  (46) 
O=S(=O)([N-]c1cscn1)c1ccccc1Cl (protonated)
O=S(=O)([N-]c1cscn1)c1ccccc1Cl (3D coordinates assigned)
O=S(=O)([N-]c1cscn1)c1ccccc1Cl (optimized conformer: 56.31117923003105 kcal/mol)

>  <smiles>  (46) 
O=S(=O)(Nc1cscn1)c1ccccc1Cl

>  <score_type>  (46) 
oracle

>  <origin>  (46) 
adg

>  <m_score__min__energy>  (46) 
-8.1600000000000001

>  <m_primary>  (46) 
energy

$$$$
46:0
     RDKit          3D

 41 43  0  0  0  0  0  0  0  0999 V2000
   -0.6190   23.9190  -25.2350 C   0  0  0  0  0  0  0  0  0  0  0  0
   -0.9620   25.3320  -25.4860 N   0  0  2  0  0  0  0  0  0  0  0  0
   -2.4220   25.5120  -25.6530 C   0  0  0  0  0  0  0  0  0  0  0  0
   -2.9550   24.9010  -26.9670 C   0  0  0  0  0  0  0  0  0  0  0  0
   -1.9730   25.0360  -28.1480 C   0  0  1  0  0  0  0  0  0  0  0  0
   -2.7140   25.2900  -29.3440 O   0  0  0  0  0  0  0  0  0  0  0  0
   -3.7870   24.5220  -29.8280 C   0  0  0  0  0  0  0  0  0  0  0  0
   -3.4970   23.2830  -30.4100 C   0  0  0  0  0  0  0  0  0  0  0  0
   -4.5210   22.4720  -30.9100 C   0  0  0  0  0  0  0  0  0  0  0  0
   -5.8630   22.8870  -30.8330 C   0  0  0  0  0  0  0  0  0  0  0  0
   -6.9660   22.0460  -31.3640 C   0  0  0  0  0  0  0  0  0  0  0  0
   -6.7160   20.9310  -32.1880 C   0  0  0  0  0  0  0  0  0  0  0  0
   -7.7880   20.1700  -32.6600 C   0  0  0  0  0  0  0  0  0  0  0  0
   -9.0930   20.5120  -32.3080 C   0  0  0  0  0  0  0  0  0  0  0  0
   -9.3090   21.6140  -31.4800 C   0  0  0  0  0  0  0  0  0  0  0  0
   -8.2550   22.3460  -31.0330 N   0  0  0  0  0  0  0  0  0  0  0  0
   -6.1510   24.1400  -30.2630 C   0  0  0  0  0  0  0  0  0  0  0  0
   -5.1260   24.9490  -29.7630 C   0  0  0  0  0  0  0  0  0  0  0  0
   -0.9720   26.1690  -27.8930 C   0  0  0  0  0  0  0  0  0  0  0  0
   -0.1620   25.9070  -26.6080 C   0  0  0  0  0  0  0  0  0  0  0  0
   -0.5754   23.7393  -24.1507 H   0  0  0  0  0  0  0  0  0  0  0  0
   -1.3858   23.2703  -25.6836 H   0  0  0  0  0  0  0  0  0  0  0  0
    0.3598   23.6940  -25.6836 H   0  0  0  0  0  0  0  0  0  0  0  0
   -0.6980   25.8510  -24.6140 H   0  0  0  0  0  0  0  0  0  0  0  0
   -2.9344   25.0290  -24.8079 H   0  0  0  0  0  0  0  0  0  0  0  0
   -2.6201   26.5935  -25.6870 H   0  0  0  0  0  0  0  0  0  0  0  0
   -3.1535   23.8322  -26.7991 H   0  0  0  0  0  0  0  0  0  0  0  0
   -3.8656   25.4558  -27.2370 H   0  0  0  0  0  0  0  0  0  0  0  0
   -1.4058   24.0998  -28.2561 H   0  0  0  0  0  0  0  0  0  0  0  0
   -2.4528   22.9433  -30.4750 H   0  0  0  0  0  0  0  0  0  0  0  0
   -4.2751   21.5021  -31.3670 H   0  0  0  0  0  0  0  0  0  0  0  0
   -5.6841   20.6617  -32.4577 H   0  0  0  0  0  0  0  0  0  0  0  0
   -7.6027   19.3014  -33.3090 H   0  0  0  0  0  0  0  0  0  0  0  0
   -9.9426   19.9198  -32.6788 H   0  0  0  0  0  0  0  0  0  0  0  0
  -10.3331   21.8904  -31.1889 H   0  0  0  0  0  0  0  0  0  0  0  0
   -7.1934   24.4872  -30.2100 H   0  0  0  0  0  0  0  0  0  0  0  0
   -5.3679   25.9247  -29.3164 H   0  0  0  0  0  0  0  0  0  0  0  0
   -0.2814   26.2386  -28.7464 H   0  0  0  0  0  0  0  0  0  0  0  0
   -1.5288   27.1100  -27.7723 H   0  0  0  0  0  0  0  0  0  0  0  0
    0.6490   25.2040  -26.8489 H   0  0  0  0  0  0  0  0  0  0  0  0
    0.2085   26.8838  -26.2635 H   0  0  0  0  0  0  0  0  0  0  0  0
  1  2  1  0
  2  3  1  0
  3  4  1  0
  4  5  1  0
  5  6  1  0
  6  7  1  0
  7  8  2  0
  8  9  1  0
  9 10  2  0
 10 11  1  0
 11 12  2  0
 12 13  1  0
 13 14  2  0
 14 15  1  0
 15 16  2  0
 10 17  1  0
 17 18  2  0
  5 19  1  0
 19 20  1  0
 20  2  1  0
 18  7  1  0
 16 11  1  0
  1 21  1  0
  1 22  1  0
  1 23  1  0
  2 24  1  1
  3 25  1  0
  3 26  1  0
  4 27  1  0
  4 28  1  0
  5 29  1  6
  8 30  1  0
  9 31  1  0
 12 32  1  0
 13 33  1  0
 14 34  1  0
 15 35  1  0
 17 36  1  0
 18 37  1  0
 19 38  1  0
 19 39  1  0
 20 40  1  0
 20 41  1  0
M  CHG  1   2   1
M  END
>  <UniqueID>  (47) 
44

>  <SMILES>  (47) 
C[NH+]1CCC(Oc2ccc(-c3ccccn3)cc2)CC1

>  <Energy>  (47) 
56.22634832719684

>  <Genealogy>  (47) 
C[NH+]1CCC(Oc2ccc(-c3ccccn3)cc2)CC1 (protonated)
C[NH+]1CCC(Oc2ccc(-c3ccccn3)cc2)CC1 (3D coordinates assigned)
C[NH+]1CCC(Oc2ccc(-c3ccccn3)cc2)CC1 (nonaromatic ring conformer: 56.22634832719684 kcal/mol)

>  <smiles>  (47) 
CN1CCC(Oc2ccc(-c3ccccn3)cc2)CC1

>  <score_type>  (47) 
oracle

>  <origin>  (47) 
adg

>  <m_score__min__energy>  (47) 
-7.3899999999999997

>  <m_primary>  (47) 
energy

$$$$
47:0
     RDKit          3D

 23 24  0  0  1  0  0  0  0  0999 V2000
   -6.2110   25.3230  -29.3490 C   0  0  0  0  0  0  0  0  0  0  0  0
   -5.4670   25.4390  -30.6750 C   0  0  0  0  0  0  0  0  0  0  0  0
   -4.6100   24.3120  -30.8450 N   0  0  0  0  0  0  0  0  0  0  0  0
   -4.9360   23.2370  -31.4810 C   0  0  0  0  0  0  0  0  0  0  0  0
   -3.9780   22.6600  -32.2200 N   0  0  0  0  0  0  0  0  0  0  0  0
   -4.3210   21.5430  -32.8790 C   0  0  0  0  0  0  0  0  0  0  0  0
   -3.5060   20.8790  -33.6270 N   0  0  0  0  0  0  0  0  0  0  0  0
   -5.6050   21.0500  -32.7720 C   0  0  0  0  0  0  0  0  0  0  0  0
   -6.3870   19.6050  -33.5050 S   0  0  0  0  0  0  0  0  0  0  0  0
   -8.0650   19.9180  -32.6980 C   0  0  0  0  0  0  0  0  0  0  0  0
   -7.8120   21.0940  -31.9660 C   0  0  0  0  0  0  0  0  0  0  0  0
   -6.6150   21.6430  -32.0040 C   0  0  0  0  0  0  0  0  0  0  0  0
   -6.1840   22.7860  -31.3570 N   0  0  0  0  0  0  0  0  0  0  0  0
   -5.4988   25.4340  -28.5180 H   0  0  0  0  0  0  0  0  0  0  0  0
   -6.9738   26.1131  -29.2862 H   0  0  0  0  0  0  0  0  0  0  0  0
   -6.6971   24.3382  -29.2862 H   0  0  0  0  0  0  0  0  0  0  0  0
   -6.1935   25.4737  -31.5002 H   0  0  0  0  0  0  0  0  0  0  0  0
   -4.8638   26.3589  -30.6752 H   0  0  0  0  0  0  0  0  0  0  0  0
   -3.0140   23.0350  -32.2970 H   0  0  0  0  0  0  0  0  0  0  0  0
   -3.1140   21.2360  -34.5220 H   0  0  0  0  0  0  0  0  0  0  0  0
   -8.9947   19.3355  -32.7784 H   0  0  0  0  0  0  0  0  0  0  0  0
   -8.6108   21.5526  -31.3647 H   0  0  0  0  0  0  0  0  0  0  0  0
   -6.8300   23.3330  -30.7500 H   0  0  0  0  0  0  0  0  0  0  0  0
  1  2  1  0
  2  3  1  0
  3  4  2  0
  4  5  1  0
  5  6  1  0
  6  7  2  3
  6  8  1  0
  8  9  1  0
  9 10  1  0
 10 11  2  0
 11 12  1  0
 12 13  1  0
 13  4  1  0
 12  8  2  0
  1 14  1  0
  1 15  1  0
  1 16  1  0
  2 17  1  0
  2 18  1  0
  5 19  1  0
  7 20  1  0
 10 21  1  0
 11 22  1  0
 13 23  1  0
M  END
>  <smiles>  (48) 
CCN=c1[nH]c(=N)c2sccc2[nH]1

>  <score_type>  (48) 
oracle

>  <origin>  (48) 
adg

>  <m_score__min__energy>  (48) 
-5.2800000000000002

>  <m_primary>  (48) 
energy

$$$$
48:0
     RDKit          3D

 33 34  0  0  0  0  0  0  0  0999 V2000
   -8.7240   18.7500  -31.5940 C   0  0  0  0  0  0  0  0  0  0  0  0
   -8.2040   18.9710  -32.9410 N   0  0  0  0  0  0  0  0  0  0  0  0
   -6.8040   18.8580  -33.2870 C   0  0  0  0  0  0  0  0  0  0  0  0
   -6.2960   17.6430  -33.7920 C   0  0  0  0  0  0  0  0  0  0  0  0
   -4.9510   17.5130  -34.1300 C   0  0  0  0  0  0  0  0  0  0  0  0
   -4.0850   18.5880  -33.9730 C   0  0  0  0  0  0  0  0  0  0  0  0
   -4.5580   19.8020  -33.4750 C   0  0  0  0  0  0  0  0  0  0  0  0
   -5.9190   19.9630  -33.1230 C   0  0  0  0  0  0  0  0  0  0  0  0
   -6.4470   21.2850  -32.5770 C   0  0  0  0  0  0  0  0  0  0  0  0
   -6.4240   21.4470  -31.0490 C   0  0  0  0  0  0  0  0  0  0  0  0
   -6.1860   22.8870  -30.6760 C   0  0  0  0  0  0  0  0  0  0  0  0
   -7.2660   23.7190  -30.3370 C   0  0  0  0  0  0  0  0  0  0  0  0
   -7.0470   25.0640  -30.0220 C   0  0  0  0  0  0  0  0  0  0  0  0
   -5.7520   25.5890  -30.0530 C   0  0  0  0  0  0  0  0  0  0  0  0
   -4.6740   24.7720  -30.4040 C   0  0  0  0  0  0  0  0  0  0  0  0
   -3.3880   25.2970  -30.4410 O   0  0  0  0  0  0  0  0  0  0  0  0
   -4.8890   23.4250  -30.7180 C   0  0  0  0  0  0  0  0  0  0  0  0
   -7.9744   19.0686  -30.8547 H   0  0  0  0  0  0  0  0  0  0  0  0
   -9.6459   19.3341  -31.4565 H   0  0  0  0  0  0  0  0  0  0  0  0
   -8.9433   17.6809  -31.4565 H   0  0  0  0  0  0  0  0  0  0  0  0
   -8.9130   19.2210  -33.6640 H   0  0  0  0  0  0  0  0  0  0  0  0
   -6.9723   16.7851  -33.9209 H   0  0  0  0  0  0  0  0  0  0  0  0
   -4.5736   16.5571  -34.5221 H   0  0  0  0  0  0  0  0  0  0  0  0
   -3.0238   18.4815  -34.2421 H   0  0  0  0  0  0  0  0  0  0  0  0
   -3.8632   20.6462  -33.3542 H   0  0  0  0  0  0  0  0  0  0  0  0
   -5.8387   22.0932  -33.0091 H   0  0  0  0  0  0  0  0  0  0  0  0
   -7.5096   21.3163  -32.8598 H   0  0  0  0  0  0  0  0  0  0  0  0
   -7.3896   21.1205  -30.6355 H   0  0  0  0  0  0  0  0  0  0  0  0
   -5.6092   20.8330  -30.6378 H   0  0  0  0  0  0  0  0  0  0  0  0
   -8.2875   23.3112  -30.3192 H   0  0  0  0  0  0  0  0  0  0  0  0
   -7.8950   25.7095  -29.7495 H   0  0  0  0  0  0  0  0  0  0  0  0
   -5.5813   26.6460  -29.8009 H   0  0  0  0  0  0  0  0  0  0  0  0
   -4.0392   22.7854  -30.9987 H   0  0  0  0  0  0  0  0  0  0  0  0
  1  2  1  0
  2  3  1  0
  3  4  2  0
  4  5  1  0
  5  6  2  0
  6  7  1  0
  7  8  2  0
  8  9  1  0
  9 10  1  0
 10 11  1  0
 11 12  2  0
 12 13  1  0
 13 14  2  0
 14 15  1  0
 15 16  1  0
 15 17  2  0
  8  3  1  0
 17 11  1  0
  1 18  1  0
  1 19  1  0
  1 20  1  0
  2 21  1  0
  4 22  1  0
  5 23  1  0
  6 24  1  0
  7 25  1  0
  9 26  1  0
  9 27  1  0
 10 28  1  0
 10 29  1  0
 12 30  1  0
 13 31  1  0
 14 32  1  0
 17 33  1  0
M  CHG  1  16  -1
M  END
>  <UniqueID>  (49) 
45

>  <SMILES>  (49) 
CNc1ccccc1CCc1cccc([O-])c1

>  <Energy>  (49) 
35.63469191315881

>  <Genealogy>  (49) 
CNc1ccccc1CCc1cccc([O-])c1 (protonated)
CNc1ccccc1CCc1cccc([O-])c1 (3D coordinates assigned)
CNc1ccccc1CCc1cccc([O-])c1 (optimized conformer: 35.63469191315881 kcal/mol)

>  <smiles>  (49) 
CNc1ccccc1CCc1cccc(O)c1

>  <score_type>  (49) 
oracle

>  <origin>  (49) 
adg

>  <m_score__min__energy>  (49) 
-10.359999999999999

>  <m_primary>  (49) 
energy

$$$$
