0:0
     RDKit          3D

 42 44  0  0  0  0  0  0  0  0999 V2000
   -1.8170   25.2340  -29.2380 O   0  0  0  0  0  0  0  0  0  0  0  0
   -2.7500   24.5370  -29.7180 C   0  0  0  0  0  0  0  0  0  0  0  0
   -2.6570   23.0390  -29.6390 C   0  0  0  0  0  0  0  0  0  0  0  0
   -3.2290   22.4270  -30.8330 N   0  0  0  0  0  0  0  0  0  0  0  0
   -3.0770   21.1580  -31.1680 N   0  0  0  0  0  0  0  0  0  0  0  0
   -3.7320   21.0460  -32.3430 C   0  0  0  0  0  0  0  0  0  0  0  0
   -3.8490   19.7960  -33.1330 C   0  0  0  0  0  0  0  0  0  0  0  0
   -2.6710   19.1100  -33.4860 C   0  0  0  0  0  0  0  0  0  0  0  0
   -2.7270   17.9340  -34.2370 C   0  0  0  0  0  0  0  0  0  0  0  0
   -3.9590   17.4200  -34.6400 C   0  0  0  0  0  0  0  0  0  0  0  0
   -4.0110   16.2760  -35.3670 F   0  0  0  0  0  0  0  0  0  0  0  0
   -5.1380   18.0780  -34.2900 C   0  0  0  0  0  0  0  0  0  0  0  0
   -5.0980   19.2590  -33.5370 C   0  0  0  0  0  0  0  0  0  0  0  0
   -6.6420   19.9830  -33.0890 Cl  0  0  0  0  0  0  0  0  0  0  0  0
   -4.2850   22.2260  -32.7080 N   0  0  0  0  0  0  0  0  0  0  0  0
   -3.9460   23.0620  -31.7410 N   0  0  0  0  0  0  0  0  0  0  0  0
   -3.8600   25.2000  -30.3370 N   0  0  0  0  0  0  0  0  0  0  0  0
   -5.1970   25.2970  -29.7630 C   0  0  0  0  0  0  0  0  0  0  0  0
   -6.2720   25.0500  -30.8430 C   0  0  0  0  0  0  0  0  0  0  0  0
   -6.3540   23.6540  -31.3410 N   0  0  0  0  0  0  0  0  0  0  0  0
   -6.6170   22.6570  -30.2980 C   0  0  0  0  0  0  0  0  0  0  0  0
   -8.0720   22.2400  -30.4150 C   0  0  0  0  0  0  0  0  0  0  0  0
   -8.4590   22.5520  -31.8470 C   0  0  0  0  0  0  0  0  0  0  0  0
   -7.3620   23.4580  -32.3950 C   0  0  0  0  0  0  0  0  0  0  0  0
   -1.6002   22.7461  -29.5532 H   0  0  0  0  0  0  0  0  0  0  0  0
   -3.2193   22.6940  -28.7588 H   0  0  0  0  0  0  0  0  0  0  0  0
   -1.6954   19.5050  -33.1665 H   0  0  0  0  0  0  0  0  0  0  0  0
   -1.7981   17.4125  -34.5110 H   0  0  0  0  0  0  0  0  0  0  0  0
   -6.1073   17.6663  -34.6078 H   0  0  0  0  0  0  0  0  0  0  0  0
   -4.2040   24.0730  -31.7100 H   0  0  0  0  0  0  0  0  0  0  0  0
   -5.3043   24.5447  -28.9677 H   0  0  0  0  0  0  0  0  0  0  0  0
   -5.3336   26.3081  -29.3519 H   0  0  0  0  0  0  0  0  0  0  0  0
   -7.2504   25.3183  -30.4178 H   0  0  0  0  0  0  0  0  0  0  0  0
   -5.9861   25.6676  -31.7072 H   0  0  0  0  0  0  0  0  0  0  0  0
   -5.9641   21.7834  -30.4415 H   0  0  0  0  0  0  0  0  0  0  0  0
   -6.4158   23.0787  -29.3022 H   0  0  0  0  0  0  0  0  0  0  0  0
   -8.1831   21.1649  -30.2106 H   0  0  0  0  0  0  0  0  0  0  0  0
   -8.7110   22.7673  -29.6914 H   0  0  0  0  0  0  0  0  0  0  0  0
   -8.5185   21.6253  -32.4367 H   0  0  0  0  0  0  0  0  0  0  0  0
   -9.4444   23.0379  -31.8996 H   0  0  0  0  0  0  0  0  0  0  0  0
   -6.8953   22.9875  -33.2729 H   0  0  0  0  0  0  0  0  0  0  0  0
   -7.7868   24.4265  -32.6975 H   0  0  0  0  0  0  0  0  0  0  0  0
  1  2  2  0
  2  3  1  0
  3  4  1  0
  4  5  1  0
  5  6  2  0
  6  7  1  0
  7  8  2  0
  8  9  1  0
  9 10  2  0
 10 11  1  0
 10 12  1  0
 12 13  2  0
 13 14  1  0
  6 15  1  0
 15 16  2  0
  2 17  1  0
 17 18  1  0
 18 19  1  0
 19 20  1  0
 20 21  1  0
 21 22  1  0
 22 23  1  0
 23 24  1  0
 16  4  1  0
 24 20  1  0
 13  7  1  0
  3 25  1  0
  3 26  1  0
  8 27  1  0
  9 28  1  0
 12 29  1  0
 16 30  1  0
 18 31  1  0
 18 32  1  0
 19 33  1  0
 19 34  1  0
 21 35  1  0
 21 36  1  0
 22 37  1  0
 22 38  1  0
 23 39  1  0
 23 40  1  0
 24 41  1  0
 24 42  1  0
M  CHG  2  16   1  17  -1
M  END
>  <UniqueID>  (1) 
1

>  <SMILES>  (1) 
O=C(Cn1nc(-c2ccc(F)cc2Cl)n[nH+]1)[N-]CCN1CCCC1

>  <Energy>  (1) 
86.33146851638217

>  <Genealogy>  (1) 
O=C(Cn1nc(-c2ccc(F)cc2Cl)n[nH+]1)[N-]CCN1CCCC1 (protonated)
O=C(Cn1nc(-c2ccc(F)cc2Cl)n[nH+]1)[N-]CCN1CCCC1 (3D coordinates assigned)
O=C(Cn1nc(-c2ccc(F)cc2Cl)n[nH+]1)[N-]CCN1CCCC1 (nonaromatic ring conformer: 86.33146851638217 kcal/mol)

>  <smiles>  (1) 
O=C(Cn1nnc(-c2ccc(F)cc2Cl)n1)NCCN1CCCC1

>  <score_type>  (1) 
oracle

>  <origin>  (1) 
adg

>  <m_score__min__energy>  (1) 
-9.1999999999999993

>  <m_primary>  (1) 
energy

$$$$
1:0
     RDKit          3D

 23 24  0  0  0  0  0  0  0  0999 V2000
   -4.0100   24.1570  -30.8690 O   0  0  0  0  0  0  0  0  0  0  0  0
   -4.3630   24.2060  -29.6590 C   0  0  0  0  0  0  0  0  0  0  0  0
   -5.7340   23.9870  -29.2900 N   0  0  0  0  0  0  0  0  0  0  0  0
   -6.7290   23.4470  -30.1760 C   0  0  0  0  0  0  0  0  0  0  0  0
   -7.5720   22.4210  -29.7190 C   0  0  0  0  0  0  0  0  0  0  0  0
   -8.5330   21.8640  -30.5680 C   0  0  0  0  0  0  0  0  0  0  0  0
   -8.6510   22.3160  -31.8850 C   0  0  0  0  0  0  0  0  0  0  0  0
   -9.5810   21.7720  -32.7090 F   0  0  0  0  0  0  0  0  0  0  0  0
   -7.8010   23.3190  -32.3570 C   0  0  0  0  0  0  0  0  0  0  0  0
   -6.8390   23.8810  -31.5100 C   0  0  0  0  0  0  0  0  0  0  0  0
   -3.3660   24.5310  -28.6280 C   0  0  0  0  0  0  0  0  0  0  0  0
   -3.3430   24.0400  -27.3360 C   0  0  0  0  0  0  0  0  0  0  0  0
   -2.2420   24.6140  -26.7360 C   0  0  0  0  0  0  0  0  0  0  0  0
   -1.6670   25.4170  -27.6990 C   0  0  0  0  0  0  0  0  0  0  0  0
   -0.1010   26.4790  -27.4670 Br  0  0  0  0  0  0  0  0  0  0  0  0
   -2.3550   25.3500  -28.8140 O   0  0  0  0  0  0  0  0  0  0  0  0
   -6.0450   24.3200  -28.3490 H   0  0  0  0  0  0  0  0  0  0  0  0
   -7.4756   22.0534  -28.6867 H   0  0  0  0  0  0  0  0  0  0  0  0
   -9.1972   21.0687  -30.1987 H   0  0  0  0  0  0  0  0  0  0  0  0
   -7.8879   23.6678  -33.3966 H   0  0  0  0  0  0  0  0  0  0  0  0
   -6.1664   24.6648  -31.8885 H   0  0  0  0  0  0  0  0  0  0  0  0
   -4.0557   23.3367  -26.8806 H   0  0  0  0  0  0  0  0  0  0  0  0
   -1.8943   24.4628  -25.7034 H   0  0  0  0  0  0  0  0  0  0  0  0
  1  2  2  0
  2  3  1  0
  3  4  1  0
  4  5  2  0
  5  6  1  0
  6  7  2  0
  7  8  1  0
  7  9  1  0
  9 10  2  0
  2 11  1  0
 11 12  2  0
 12 13  1  0
 13 14  2  0
 14 15  1  0
 14 16  1  0
 10  4  1  0
 16 11  1  0
  3 17  1  0
  5 18  1  0
  6 19  1  0
  9 20  1  0
 10 21  1  0
 12 22  1  0
 13 23  1  0
M  END
>  <UniqueID>  (2) 
2

>  <SMILES>  (2) 
O=C(Nc1ccc(F)cc1)c1ccc(Br)o1

>  <Energy>  (2) 
52.13154233001429

>  <Genealogy>  (2) 
O=C(Nc1ccc(F)cc1)c1ccc(Br)o1 (3D coordinates assigned)
O=C(Nc1ccc(F)cc1)c1ccc(Br)o1 (optimized conformer: 52.13154233001429 kcal/mol)

>  <smiles>  (2) 
O=C(Nc1ccc(F)cc1)c1ccc(Br)o1

>  <score_type>  (2) 
oracle

>  <origin>  (2) 
adg

>  <m_score__min__energy>  (2) 
-6.75

>  <m_primary>  (2) 
energy

$$$$
2:0
     RDKit          3D

 32 34  0  0  0  0  0  0  0  0999 V2000
   -9.2190   18.9060  -32.4100 C   0  0  0  0  0  0  0  0  0  0  0  0
   -9.1310   20.3010  -32.6810 O   0  0  0  0  0  0  0  0  0  0  0  0
   -8.1450   21.1490  -32.1550 C   0  0  0  0  0  0  0  0  0  0  0  0
   -8.4480   22.4020  -31.5960 C   0  0  0  0  0  0  0  0  0  0  0  0
   -7.4280   23.2110  -31.0840 C   0  0  0  0  0  0  0  0  0  0  0  0
   -6.0890   22.7850  -31.1200 C   0  0  0  0  0  0  0  0  0  0  0  0
   -5.0210   23.6580  -30.5730 C   0  0  0  0  0  0  0  0  0  0  0  0
   -4.3710   23.5210  -29.3580 C   0  0  0  0  0  0  0  0  0  0  0  0
   -3.4760   24.5760  -29.3280 C   0  0  0  0  0  0  0  0  0  0  0  0
   -2.5190   24.9090  -28.2440 C   0  0  0  0  0  0  0  0  0  0  0  0
   -1.1810   25.2120  -28.5600 C   0  0  0  0  0  0  0  0  0  0  0  0
   -0.2680   25.5270  -27.5490 C   0  0  0  0  0  0  0  0  0  0  0  0
   -0.6770   25.5460  -26.2130 C   0  0  0  0  0  0  0  0  0  0  0  0
    0.4710   25.9430  -24.9480 Cl  0  0  0  0  0  0  0  0  0  0  0  0
   -2.0020   25.2490  -25.8880 C   0  0  0  0  0  0  0  0  0  0  0  0
   -2.9200   24.9320  -26.8950 C   0  0  0  0  0  0  0  0  0  0  0  0
   -3.5950   25.2910  -30.4650 N   0  0  0  0  0  0  0  0  0  0  0  0
   -4.5310   24.7350  -31.2180 N   0  0  0  0  0  0  0  0  0  0  0  0
   -5.7920   21.5290  -31.6820 C   0  0  0  0  0  0  0  0  0  0  0  0
   -6.8140   20.7230  -32.1930 C   0  0  0  0  0  0  0  0  0  0  0  0
   -9.2292   18.7438  -31.3221 H   0  0  0  0  0  0  0  0  0  0  0  0
  -10.1442   18.5048  -32.8493 H   0  0  0  0  0  0  0  0  0  0  0  0
   -8.3515   18.3917  -32.8493 H   0  0  0  0  0  0  0  0  0  0  0  0
   -9.4915   22.7482  -31.5608 H   0  0  0  0  0  0  0  0  0  0  0  0
   -7.6763   24.1903  -30.6489 H   0  0  0  0  0  0  0  0  0  0  0  0
   -4.5300   22.7489  -28.5909 H   0  0  0  0  0  0  0  0  0  0  0  0
   -0.8516   25.2009  -29.6095 H   0  0  0  0  0  0  0  0  0  0  0  0
    0.7757   25.7606  -27.8062 H   0  0  0  0  0  0  0  0  0  0  0  0
   -2.3252   25.2643  -24.8367 H   0  0  0  0  0  0  0  0  0  0  0  0
   -3.9621   24.6992  -26.6308 H   0  0  0  0  0  0  0  0  0  0  0  0
   -4.7497   21.1795  -31.7194 H   0  0  0  0  0  0  0  0  0  0  0  0
   -6.5682   19.7436  -32.6294 H   0  0  0  0  0  0  0  0  0  0  0  0
  1  2  1  0
  2  3  1  0
  3  4  2  0
  4  5  1  0
  5  6  2  0
  6  7  1  0
  7  8  1  0
  8  9  2  0
  9 10  1  0
 10 11  2  0
 11 12  1  0
 12 13  2  0
 13 14  1  0
 13 15  1  0
 15 16  2  0
  9 17  1  0
 17 18  1  0
  6 19  1  0
 19 20  2  0
 20  3  1  0
 18  7  2  0
 16 10  1  0
  1 21  1  0
  1 22  1  0
  1 23  1  0
  4 24  1  0
  5 25  1  0
  8 26  1  0
 11 27  1  0
 12 28  1  0
 15 29  1  0
 16 30  1  0
 19 31  1  0
 20 32  1  0
M  CHG  1  17  -1
M  END
>  <UniqueID>  (3) 
3

>  <SMILES>  (3) 
COc1ccc(-c2cc(-c3ccc(Cl)cc3)[n-]n2)cc1

>  <Energy>  (3) 
66.315257129004

>  <Genealogy>  (3) 
COc1ccc(-c2cc(-c3ccc(Cl)cc3)[n-]n2)cc1 (protonated)
COc1ccc(-c2cc(-c3ccc(Cl)cc3)[n-]n2)cc1 (3D coordinates assigned)
COc1ccc(-c2cc(-c3ccc(Cl)cc3)[n-]n2)cc1 (optimized conformer: 66.315257129004 kcal/mol)

>  <smiles>  (3) 
COc1ccc(-c2cc(-c3ccc(Cl)cc3)[nH]n2)cc1

>  <score_type>  (3) 
oracle

>  <origin>  (3) 
adg

>  <m_score__min__energy>  (3) 
-9.6699999999999999

>  <m_primary>  (3) 
energy

$$$$
3:0
     RDKit          3D

 49 52  0  0  0  0  0  0  0  0999 V2000
   -5.3970   24.6510  -30.2450 C   0  0  0  0  0  0  0  0  0  0  0  0
   -4.1740   24.2580  -30.8590 O   0  0  0  0  0  0  0  0  0  0  0  0
   -3.9400   22.9930  -31.4180 C   0  0  0  0  0  0  0  0  0  0  0  0
   -2.9660   22.1120  -30.9120 C   0  0  0  0  0  0  0  0  0  0  0  0
   -2.7700   20.8610  -31.5050 C   0  0  0  0  0  0  0  0  0  0  0  0
   -3.5440   20.4670  -32.6090 C   0  0  0  0  0  0  0  0  0  0  0  0
   -3.3440   19.1780  -33.2190 N   0  0  0  0  0  0  0  0  0  0  0  0
   -2.3120   18.2830  -32.6820 C   0  0  0  0  0  0  0  0  0  0  0  0
   -2.3420   16.9230  -33.3900 C   0  0  0  0  0  0  0  0  0  0  0  0
   -3.7280   16.4840  -33.6700 N   0  0  0  0  0  0  0  0  0  0  0  0
   -4.5310   16.2390  -32.4510 C   0  0  0  0  0  0  0  0  0  0  0  0
   -5.7990   17.0330  -32.4630 C   0  0  0  0  0  0  0  0  0  0  0  0
   -5.9070   18.3070  -32.0510 N   0  0  0  0  0  0  0  0  0  0  0  0
   -7.2190   18.5680  -32.2260 C   0  0  0  0  0  0  0  0  0  0  0  0
   -7.8850   19.8570  -31.9160 C   0  0  0  0  0  0  0  0  0  0  0  0
   -9.2290   20.0910  -32.2680 C   0  0  0  0  0  0  0  0  0  0  0  0
   -9.8370   21.3140  -31.9670 C   0  0  0  0  0  0  0  0  0  0  0  0
   -9.1160   22.3150  -31.3140 C   0  0  0  0  0  0  0  0  0  0  0  0
   -7.7820   22.0960  -30.9610 C   0  0  0  0  0  0  0  0  0  0  0  0
   -7.1700   20.8750  -31.2600 C   0  0  0  0  0  0  0  0  0  0  0  0
   -7.8690   17.4930  -32.7230 N   0  0  0  0  0  0  0  0  0  0  0  0
   -6.9620   16.5690  -32.8530 O   0  0  0  0  0  0  0  0  0  0  0  0
   -4.4180   17.4040  -34.6080 C   0  0  0  0  0  0  0  0  0  0  0  0
   -3.9510   18.8750  -34.5210 C   0  0  0  0  0  0  0  0  0  0  0  0
   -4.5140   21.3490  -33.1120 C   0  0  0  0  0  0  0  0  0  0  0  0
   -4.7080   22.6000  -32.5200 C   0  0  0  0  0  0  0  0  0  0  0  0
   -5.2862   24.6154  -29.1512 H   0  0  0  0  0  0  0  0  0  0  0  0
   -5.6501   25.6757  -30.5547 H   0  0  0  0  0  0  0  0  0  0  0  0
   -6.1996   23.9655  -30.5547 H   0  0  0  0  0  0  0  0  0  0  0  0
   -2.3562   22.4090  -30.0460 H   0  0  0  0  0  0  0  0  0  0  0  0
   -2.0043   20.1806  -31.1041 H   0  0  0  0  0  0  0  0  0  0  0  0
   -1.3240   18.7437  -32.8294 H   0  0  0  0  0  0  0  0  0  0  0  0
   -2.5074   18.1252  -31.6111 H   0  0  0  0  0  0  0  0  0  0  0  0
   -1.7942   17.0034  -34.3405 H   0  0  0  0  0  0  0  0  0  0  0  0
   -1.8733   16.1802  -32.7277 H   0  0  0  0  0  0  0  0  0  0  0  0
   -4.7795   15.1689  -32.3954 H   0  0  0  0  0  0  0  0  0  0  0  0
   -3.9375   16.5482  -31.5780 H   0  0  0  0  0  0  0  0  0  0  0  0
   -5.1480   18.9210  -31.6840 H   0  0  0  0  0  0  0  0  0  0  0  0
   -9.8037   19.3069  -32.7828 H   0  0  0  0  0  0  0  0  0  0  0  0
  -10.8868   21.4876  -32.2458 H   0  0  0  0  0  0  0  0  0  0  0  0
   -9.5976   23.2753  -31.0775 H   0  0  0  0  0  0  0  0  0  0  0  0
   -7.2128   22.8848  -30.4474 H   0  0  0  0  0  0  0  0  0  0  0  0
   -6.1194   20.7090  -30.9795 H   0  0  0  0  0  0  0  0  0  0  0  0
   -4.2401   17.0469  -35.6331 H   0  0  0  0  0  0  0  0  0  0  0  0
   -5.4820   17.3960  -34.3290 H   0  0  0  0  0  0  0  0  0  0  0  0
   -3.2090   19.0604  -35.3116 H   0  0  0  0  0  0  0  0  0  0  0  0
   -4.8321   19.5215  -34.6464 H   0  0  0  0  0  0  0  0  0  0  0  0
   -5.1251   21.0534  -33.9775 H   0  0  0  0  0  0  0  0  0  0  0  0
   -5.4710   23.2818  -32.9237 H   0  0  0  0  0  0  0  0  0  0  0  0
  1  2  1  0
  2  3  1  0
  3  4  2  0
  4  5  1  0
  5  6  2  0
  6  7  1  0
  7  8  1  0
  8  9  1  0
  9 10  1  0
 10 11  1  0
 11 12  1  0
 12 13  2  0
 13 14  1  0
 14 15  1  0
 15 16  2  0
 16 17  1  0
 17 18  2  0
 18 19  1  0
 19 20  2  0
 14 21  2  0
 21 22  1  0
 10 23  1  0
 23 24  1  0
  6 25  1  0
 25 26  2  0
 26  3  1  0
 24  7  1  0
 22 12  1  0
 20 15  1  0
  1 27  1  0
  1 28  1  0
  1 29  1  0
  4 30  1  0
  5 31  1  0
  8 32  1  0
  8 33  1  0
  9 34  1  0
  9 35  1  0
 11 36  1  0
 11 37  1  0
 13 38  1  0
 16 39  1  0
 17 40  1  0
 18 41  1  0
 19 42  1  0
 20 43  1  0
 23 44  1  0
 23 45  1  0
 24 46  1  0
 24 47  1  0
 25 48  1  0
 26 49  1  0
M  CHG  1  13   1
M  END
>  <UniqueID>  (4) 
4

>  <SMILES>  (4) 
COc1ccc(N2CCN(Cc3[nH+]c(-c4ccccc4)no3)CC2)cc1

>  <Energy>  (4) 
99.77669691633406

>  <Genealogy>  (4) 
COc1ccc(N2CCN(Cc3[nH+]c(-c4ccccc4)no3)CC2)cc1 (protonated)
COc1ccc(N2CCN(Cc3[nH+]c(-c4ccccc4)no3)CC2)cc1 (3D coordinates assigned)
COc1ccc(N2CCN(Cc3[nH+]c(-c4ccccc4)no3)CC2)cc1 (nonaromatic ring conformer: 99.77669691633406 kcal/mol)

>  <smiles>  (4) 
COc1ccc(N2CCN(Cc3nc(-c4ccccc4)no3)CC2)cc1

>  <score_type>  (4) 
oracle

>  <origin>  (4) 
adg

>  <m_score__min__energy>  (4) 
-8.1899999999999995

>  <m_primary>  (4) 
energy

$$$$
4:0
     RDKit          3D

 55 57  0  0  0  0  0  0  0  0999 V2000
   -4.7010   17.5550  -32.6890 H   0  0  0  0  0  0  0  0  0  0  0  0
   -4.3790   16.8360  -33.2970 O   0  0  0  0  0  0  0  0  0  0  0  0
   -4.1720   17.4270  -34.5540 C   0  0  2  0  0  0  0  0  0  0  0  0
   -4.1070   16.6590  -35.3388 H   0  0  0  0  0  0  0  0  0  0  0  0
   -2.8480   18.2070  -34.5280 C   0  0  0  0  0  0  0  0  0  0  0  0
   -2.0831   17.6377  -35.0765 H   0  0  0  0  0  0  0  0  0  0  0  0
   -3.0071   19.1877  -35.0001 H   0  0  0  0  0  0  0  0  0  0  0  0
   -2.2820   18.4690  -32.8070 S   0  0  0  0  0  0  0  0  0  0  0  0
   -3.3380   19.8840  -32.4800 C   0  0  0  0  0  0  0  0  0  0  0  0
   -4.3150   19.8150  -31.4800 C   0  0  0  0  0  0  0  0  0  0  0  0
   -4.4577   18.8819  -30.9153 H   0  0  0  0  0  0  0  0  0  0  0  0
   -5.1090   20.9290  -31.1980 C   0  0  0  0  0  0  0  0  0  0  0  0
   -5.8755   20.8672  -30.4114 H   0  0  0  0  0  0  0  0  0  0  0  0
   -4.9370   22.1290  -31.9110 C   0  0  0  0  0  0  0  0  0  0  0  0
   -5.7290   23.2780  -31.5540 N   0  0  0  0  0  0  0  0  0  0  0  0
   -6.6760   23.3690  -31.9870 H   0  0  0  0  0  0  0  0  0  0  0  0
   -5.3020   24.3120  -30.6520 C   0  0  0  0  0  0  0  0  0  0  0  0
   -6.4120   25.4090  -30.1400 S   0  0  0  0  0  0  0  0  0  0  0  0
   -3.8990   24.5970  -30.5100 N   0  0  0  0  0  0  0  0  0  0  0  0
   -3.0740   24.0840  -29.6410 C   0  0  0  0  0  0  0  0  0  0  0  0
   -2.6017   23.1216  -29.8875 H   0  0  0  0  0  0  0  0  0  0  0  0
   -2.7300   24.7110  -28.3430 C   0  0  0  0  0  0  0  0  0  0  0  0
   -3.4520   24.4060  -27.1730 C   0  0  0  0  0  0  0  0  0  0  0  0
   -4.3079   23.7168  -27.2219 H   0  0  0  0  0  0  0  0  0  0  0  0
   -3.0860   24.9750  -25.9500 C   0  0  0  0  0  0  0  0  0  0  0  0
   -3.6644   24.7454  -25.0430 H   0  0  0  0  0  0  0  0  0  0  0  0
   -1.9880   25.8340  -25.8770 C   0  0  0  0  0  0  0  0  0  0  0  0
   -1.7092   26.2905  -24.9158 H   0  0  0  0  0  0  0  0  0  0  0  0
   -1.2420   26.1140  -27.0280 C   0  0  0  0  0  0  0  0  0  0  0  0
   -0.3698   26.7815  -26.9675 H   0  0  0  0  0  0  0  0  0  0  0  0
   -1.6030   25.5470  -28.2550 C   0  0  0  0  0  0  0  0  0  0  0  0
   -0.8700   25.8340  -29.3610 F   0  0  0  0  0  0  0  0  0  0  0  0
   -3.9330   22.1990  -32.8950 C   0  0  0  0  0  0  0  0  0  0  0  0
   -3.7670   23.1392  -33.4413 H   0  0  0  0  0  0  0  0  0  0  0  0
   -3.1450   21.0790  -33.1820 C   0  0  0  0  0  0  0  0  0  0  0  0
   -2.3714   21.1381  -33.9618 H   0  0  0  0  0  0  0  0  0  0  0  0
   -5.3660   18.3540  -34.8800 C   0  0  0  0  0  0  0  0  0  0  0  0
   -4.9799   19.2914  -35.3069 H   0  0  0  0  0  0  0  0  0  0  0  0
   -6.0170   17.8263  -35.5925 H   0  0  0  0  0  0  0  0  0  0  0  0
   -6.1730   18.6740  -33.6800 N   0  0  0  0  0  0  0  0  0  0  0  0
   -6.8760   19.9740  -33.8260 C   0  0  0  0  0  0  0  0  0  0  0  0
   -6.1366   20.7842  -33.7432 H   0  0  0  0  0  0  0  0  0  0  0  0
   -7.3730   19.9723  -34.8073 H   0  0  0  0  0  0  0  0  0  0  0  0
   -7.9680   20.1910  -32.7530 C   0  0  0  0  0  0  0  0  0  0  0  0
   -7.9158   21.2301  -32.3959 H   0  0  0  0  0  0  0  0  0  0  0  0
   -8.9459   19.9809  -33.2107 H   0  0  0  0  0  0  0  0  0  0  0  0
   -7.7850   19.2470  -31.5620 C   0  0  0  0  0  0  0  0  0  0  0  0
   -6.8273   19.4706  -31.0693 H   0  0  0  0  0  0  0  0  0  0  0  0
   -8.6214   19.3972  -30.8635 H   0  0  0  0  0  0  0  0  0  0  0  0
   -7.7850   17.7780  -32.0190 C   0  0  0  0  0  0  0  0  0  0  0  0
   -7.2238   17.1803  -31.2856 H   0  0  0  0  0  0  0  0  0  0  0  0
   -8.8325   17.4502  -32.0909 H   0  0  0  0  0  0  0  0  0  0  0  0
   -7.1400   17.5920  -33.4050 C   0  0  0  0  0  0  0  0  0  0  0  0
   -6.6171   16.6246  -33.4331 H   0  0  0  0  0  0  0  0  0  0  0  0
   -7.9302   17.6210  -34.1697 H   0  0  0  0  0  0  0  0  0  0  0  0
  1  2  1  0
  2  3  1  0
  3  4  1  6
  3  5  1  0
  5  6  1  0
  5  7  1  0
  5  8  1  0
  8  9  1  0
  9 10  2  0
 10 11  1  0
 10 12  1  0
 12 13  1  0
 12 14  2  0
 14 15  1  0
 15 16  1  0
 15 17  1  0
 17 18  2  0
 17 19  1  0
 19 20  2  0
 20 21  1  0
 20 22  1  0
 22 23  2  0
 23 24  1  0
 23 25  1  0
 25 26  1  0
 25 27  2  0
 27 28  1  0
 27 29  1  0
 29 30  1  0
 29 31  2  0
 31 32  1  0
 14 33  1  0
 33 34  1  0
 33 35  2  0
 35 36  1  0
  3 37  1  0
 37 38  1  0
 37 39  1  0
 37 40  1  0
 40 41  1  0
 41 42  1  0
 41 43  1  0
 41 44  1  0
 44 45  1  0
 44 46  1  0
 44 47  1  0
 47 48  1  0
 47 49  1  0
 47 50  1  0
 50 51  1  0
 50 52  1  0
 50 53  1  0
 53 54  1  0
 53 55  1  0
 35  9  1  0
 53 40  1  0
 31 22  1  0
M  END
>  <UniqueID>  (5) 
5

>  <SMILES>  (5) 
O[C@H](CSc1ccc(NC(=S)/N=C\c2ccccc2F)cc1)CN1CCCCC1

>  <Energy>  (5) 
70.35564425324655

>  <Genealogy>  (5) 
O[C@H](CSc1ccc(NC(=S)N=Cc2ccccc2F)cc1)CN1CCCCC1 (chirality)
O[C@H](CSc1ccc(NC(=S)/N=C\c2ccccc2F)cc1)CN1CCCCC1 (cis-trans isomerization)
O[C@H](CSc1ccc(NC(=S)/N=C\c2ccccc2F)cc1)CN1CCCCC1 (3D coordinates assigned)
O[C@H](CSc1ccc(NC(=S)/N=C\c2ccccc2F)cc1)CN1CCCCC1 (nonaromatic ring conformer: 70.35564425324655 kcal/mol)

>  <smiles>  (5) 
OC(CSc1ccc(NC(=S)N=Cc2ccccc2F)cc1)CN1CCCCC1

>  <score_type>  (5) 
oracle

>  <origin>  (5) 
adg

>  <m_score__min__energy>  (5) 
-8.9399999999999995

>  <m_primary>  (5) 
energy

$$$$
5:0
     RDKit          3D

 39 40  0  0  0  0  0  0  0  0999 V2000
   -1.9190   21.3370  -32.3360 C   0  0  0  0  0  0  0  0  0  0  0  0
   -2.4070   22.4260  -31.5590 O   0  0  0  0  0  0  0  0  0  0  0  0
   -3.7620   22.6610  -31.2730 C   0  0  0  0  0  0  0  0  0  0  0  0
   -4.7730   21.7740  -31.6940 C   0  0  0  0  0  0  0  0  0  0  0  0
   -6.1190   22.0010  -31.3540 C   0  0  0  0  0  0  0  0  0  0  0  0
   -7.1790   21.0630  -31.8020 C   0  0  0  0  0  0  0  0  0  0  0  0
   -8.5140   21.4930  -31.9060 C   0  0  0  0  0  0  0  0  0  0  0  0
   -9.5140   20.6050  -32.3080 C   0  0  0  0  0  0  0  0  0  0  0  0
   -9.1940   19.2830  -32.6210 C   0  0  0  0  0  0  0  0  0  0  0  0
   -7.8660   18.8380  -32.5510 C   0  0  0  0  0  0  0  0  0  0  0  0
   -7.5670   17.4660  -32.8650 N   0  0  0  0  0  0  0  0  0  0  0  0
   -6.5410   17.0550  -33.7820 C   0  0  0  0  0  0  0  0  0  0  0  0
   -6.1730   15.6110  -33.8870 C   0  0  0  0  0  0  0  0  0  0  0  0
   -6.0050   17.8870  -34.5620 O   0  0  0  0  0  0  0  0  0  0  0  0
   -6.8650   19.7290  -32.1220 C   0  0  0  0  0  0  0  0  0  0  0  0
   -6.4450   23.1250  -30.5790 C   0  0  0  0  0  0  0  0  0  0  0  0
   -5.4500   24.0120  -30.1650 C   0  0  0  0  0  0  0  0  0  0  0  0
   -4.1140   23.8040  -30.5270 C   0  0  0  0  0  0  0  0  0  0  0  0
   -3.1190   24.7360  -30.0770 N   0  0  0  0  0  0  0  0  0  0  0  0
   -2.0980   24.4120  -29.1200 C   0  0  0  0  0  0  0  0  0  0  0  0
   -1.7250   23.0530  -28.8690 N   0  0  0  0  0  0  0  0  0  0  0  0
   -1.2570   25.6200  -28.4030 S   0  0  0  0  0  0  0  0  0  0  0  0
   -1.5619   20.5402  -31.6670 H   0  0  0  0  0  0  0  0  0  0  0  0
   -2.7287   20.9475  -32.9706 H   0  0  0  0  0  0  0  0  0  0  0  0
   -1.0894   21.6821  -32.9706 H   0  0  0  0  0  0  0  0  0  0  0  0
   -4.5062   20.8930  -32.2961 H   0  0  0  0  0  0  0  0  0  0  0  0
   -8.7722   22.5357  -31.6691 H   0  0  0  0  0  0  0  0  0  0  0  0
  -10.5567   20.9483  -32.3782 H   0  0  0  0  0  0  0  0  0  0  0  0
   -9.9887   18.5856  -32.9246 H   0  0  0  0  0  0  0  0  0  0  0  0
   -8.1860   16.7250  -32.4640 H   0  0  0  0  0  0  0  0  0  0  0  0
   -6.0647   15.1859  -32.8782 H   0  0  0  0  0  0  0  0  0  0  0  0
   -6.9620   15.0701  -34.4300 H   0  0  0  0  0  0  0  0  0  0  0  0
   -5.2213   15.5137  -34.4300 H   0  0  0  0  0  0  0  0  0  0  0  0
   -5.8257   19.3790  -32.0358 H   0  0  0  0  0  0  0  0  0  0  0  0
   -7.4921   23.3081  -30.2959 H   0  0  0  0  0  0  0  0  0  0  0  0
   -5.7183   24.8826  -29.5485 H   0  0  0  0  0  0  0  0  0  0  0  0
   -3.0830   25.6740  -30.5370 H   0  0  0  0  0  0  0  0  0  0  0  0
   -0.9870   22.8280  -28.1660 H   0  0  0  0  0  0  0  0  0  0  0  0
   -2.1480   22.2690  -29.4120 H   0  0  0  0  0  0  0  0  0  0  0  0
  1  2  1  0
  2  3  1  0
  3  4  2  0
  4  5  1  0
  5  6  1  0
  6  7  2  0
  7  8  1  0
  8  9  2  0
  9 10  1  0
 10 11  1  0
 11 12  1  0
 12 13  1  0
 12 14  2  0
 10 15  2  0
  5 16  2  0
 16 17  1  0
 17 18  2  0
 18 19  1  0
 19 20  1  0
 20 21  1  0
 20 22  2  0
 18  3  1  0
 15  6  1  0
  1 23  1  0
  1 24  1  0
  1 25  1  0
  4 26  1  0
  7 27  1  0
  8 28  1  0
  9 29  1  0
 11 30  1  0
 13 31  1  0
 13 32  1  0
 13 33  1  0
 15 34  1  0
 16 35  1  0
 17 36  1  0
 19 37  1  0
 21 38  1  0
 21 39  1  0
M  END
>  <UniqueID>  (6) 
6

>  <SMILES>  (6) 
COc1cc(-c2cccc(NC(C)=O)c2)ccc1NC(N)=S

>  <Energy>  (6) 
48.986411039105874

>  <Genealogy>  (6) 
COc1cc(-c2cccc(NC(C)=O)c2)ccc1NC(N)=S (3D coordinates assigned)
COc1cc(-c2cccc(NC(C)=O)c2)ccc1NC(N)=S (optimized conformer: 48.986411039105874 kcal/mol)

>  <smiles>  (6) 
COc1cc(-c2cccc(NC(C)=O)c2)ccc1NC(N)=S

>  <score_type>  (6) 
oracle

>  <origin>  (6) 
adg

>  <m_score__min__energy>  (6) 
-7.9800000000000004

>  <m_primary>  (6) 
energy

$$$$
6:0
     RDKit          3D

 38 40  0  0  0  0  0  0  0  0999 V2000
   -4.6300   24.1650  -31.2110 O   0  0  0  0  0  0  0  0  0  0  0  0
   -4.4080   23.4510  -30.1950 C   0  0  0  0  0  0  0  0  0  0  0  0
   -4.9180   22.1060  -30.1360 N   0  0  0  0  0  0  0  0  0  0  0  0
   -5.5960   21.4590  -31.2270 C   0  0  0  0  0  0  0  0  0  0  0  0
   -4.8850   20.7820  -32.2350 C   0  0  0  0  0  0  0  0  0  0  0  0
   -5.5710   20.1380  -33.2700 C   0  0  0  0  0  0  0  0  0  0  0  0
   -4.8800   19.4890  -34.2390 F   0  0  0  0  0  0  0  0  0  0  0  0
   -6.9680   20.1500  -33.3000 C   0  0  0  0  0  0  0  0  0  0  0  0
   -7.6840   20.8010  -32.2890 C   0  0  0  0  0  0  0  0  0  0  0  0
   -9.4380   20.8030  -32.3190 Cl  0  0  0  0  0  0  0  0  0  0  0  0
   -6.9990   21.4440  -31.2520 C   0  0  0  0  0  0  0  0  0  0  0  0
   -3.6260   24.0270  -29.0730 C   0  0  0  0  0  0  0  0  0  0  0  0
   -4.1640   24.1220  -27.7760 C   0  0  0  0  0  0  0  0  0  0  0  0
   -3.4110   24.6710  -26.7340 C   0  0  0  0  0  0  0  0  0  0  0  0
   -2.1060   25.1270  -26.9680 C   0  0  0  0  0  0  0  0  0  0  0  0
   -1.3100   25.7260  -25.8800 C   0  0  0  0  0  0  0  0  0  0  0  0
   -1.5500   27.0300  -25.5660 N   0  0  0  0  0  0  0  0  0  0  0  0
   -0.8970   27.6680  -24.5610 C   0  0  0  0  0  0  0  0  0  0  0  0
    0.0470   26.9840  -23.8010 C   0  0  0  0  0  0  0  0  0  0  0  0
    0.3310   25.6530  -24.0980 C   0  0  0  0  0  0  0  0  0  0  0  0
   -0.3180   25.0030  -25.1640 C   0  0  0  0  0  0  0  0  0  0  0  0
    0.0380   23.5640  -25.4860 C   0  0  0  0  0  0  0  0  0  0  0  0
    0.7440   23.4850  -26.6730 F   0  0  0  0  0  0  0  0  0  0  0  0
    0.8290   23.0140  -24.4920 F   0  0  0  0  0  0  0  0  0  0  0  0
   -1.1180   22.8150  -25.5910 F   0  0  0  0  0  0  0  0  0  0  0  0
   -1.5780   25.0680  -28.2650 C   0  0  0  0  0  0  0  0  0  0  0  0
   -2.3300   24.5200  -29.3070 C   0  0  0  0  0  0  0  0  0  0  0  0
   -4.8460   21.5700  -29.2440 H   0  0  0  0  0  0  0  0  0  0  0  0
   -3.7855   20.7591  -32.2090 H   0  0  0  0  0  0  0  0  0  0  0  0
   -7.5049   19.6478  -34.1182 H   0  0  0  0  0  0  0  0  0  0  0  0
   -7.5646   21.9415  -30.4503 H   0  0  0  0  0  0  0  0  0  0  0  0
   -5.1847   23.7615  -27.5807 H   0  0  0  0  0  0  0  0  0  0  0  0
   -3.8444   24.7456  -25.7257 H   0  0  0  0  0  0  0  0  0  0  0  0
   -1.1140   28.7251  -24.3476 H   0  0  0  0  0  0  0  0  0  0  0  0
    0.5645   27.4901  -22.9727 H   0  0  0  0  0  0  0  0  0  0  0  0
    1.0692   25.1052  -23.4938 H   0  0  0  0  0  0  0  0  0  0  0  0
   -0.5675   25.4547  -28.4632 H   0  0  0  0  0  0  0  0  0  0  0  0
   -1.9043   24.4737  -30.3202 H   0  0  0  0  0  0  0  0  0  0  0  0
  1  2  2  0
  2  3  1  0
  3  4  1  0
  4  5  2  0
  5  6  1  0
  6  7  1  0
  6  8  2  0
  8  9  1  0
  9 10  1  0
  9 11  2  0
  2 12  1  0
 12 13  2  0
 13 14  1  0
 14 15  2  0
 15 16  1  0
 16 17  2  0
 17 18  1  0
 18 19  2  0
 19 20  1  0
 20 21  2  0
 21 22  1  0
 22 23  1  0
 22 24  1  0
 22 25  1  0
 15 26  1  0
 26 27  2  0
 11  4  1  0
 27 12  1  0
 21 16  1  0
  3 28  1  0
  5 29  1  0
  8 30  1  0
 11 31  1  0
 13 32  1  0
 14 33  1  0
 18 34  1  0
 19 35  1  0
 20 36  1  0
 26 37  1  0
 27 38  1  0
M  END
>  <UniqueID>  (7) 
7

>  <SMILES>  (7) 
O=C(Nc1cc(F)cc(Cl)c1)c1ccc(-c2ncccc2C(F)(F)F)cc1

>  <Energy>  (7) 
58.04153113159978

>  <Genealogy>  (7) 
O=C(Nc1cc(F)cc(Cl)c1)c1ccc(-c2ncccc2C(F)(F)F)cc1 (3D coordinates assigned)
O=C(Nc1cc(F)cc(Cl)c1)c1ccc(-c2ncccc2C(F)(F)F)cc1 (optimized conformer: 58.04153113159978 kcal/mol)

>  <smiles>  (7) 
O=C(Nc1cc(F)cc(Cl)c1)c1ccc(-c2ncccc2C(F)(F)F)cc1

>  <score_type>  (7) 
oracle

>  <origin>  (7) 
adg

>  <m_score__min__energy>  (7) 
-7.8300000000000001

>  <m_primary>  (7) 
energy

$$$$
7:0
     RDKit          3D

 28 29  0  0  0  0  0  0  0  0999 V2000
   -5.8520   16.2810  -33.1870 C   0  0  0  0  0  0  0  0  0  0  0  0
   -6.1750   17.6700  -32.8260 N   0  0  0  0  0  0  0  0  0  0  0  0
   -7.6040   17.7970  -32.4880 C   0  0  0  0  0  0  0  0  0  0  0  0
   -7.8460   19.1650  -31.8420 C   0  0  0  0  0  0  0  0  0  0  0  0
   -7.0170   20.1970  -32.4810 N   0  0  0  0  0  0  0  0  0  0  0  0
   -6.7890   21.4530  -31.8110 C   0  0  0  0  0  0  0  0  0  0  0  0
   -7.8500   22.3380  -31.5730 C   0  0  0  0  0  0  0  0  0  0  0  0
   -7.6100   23.5250  -30.9600 N   0  0  0  0  0  0  0  0  0  0  0  0
   -6.3600   23.8830  -30.5720 C   0  0  0  0  0  0  0  0  0  0  0  0
   -6.1090   25.5720  -29.7110 Br  0  0  0  0  0  0  0  0  0  0  0  0
   -5.2910   23.0080  -30.8150 C   0  0  0  0  0  0  0  0  0  0  0  0
   -3.6480   23.4190  -30.3370 Cl  0  0  0  0  0  0  0  0  0  0  0  0
   -5.5300   21.8180  -31.4320 N   0  0  0  0  0  0  0  0  0  0  0  0
   -6.5080   19.9560  -33.8370 C   0  0  0  0  0  0  0  0  0  0  0  0
   -5.7900   18.5920  -33.9200 C   0  0  0  0  0  0  0  0  0  0  0  0
   -5.7138   15.6869  -32.2716 H   0  0  0  0  0  0  0  0  0  0  0  0
   -6.6751   15.8553  -33.7797 H   0  0  0  0  0  0  0  0  0  0  0  0
   -4.9255   16.2622  -33.7797 H   0  0  0  0  0  0  0  0  0  0  0  0
   -8.2082   17.7095  -33.4030 H   0  0  0  0  0  0  0  0  0  0  0  0
   -7.8915   16.9997  -31.7869 H   0  0  0  0  0  0  0  0  0  0  0  0
   -8.9067   19.4341  -31.9536 H   0  0  0  0  0  0  0  0  0  0  0  0
   -7.5766   19.1051  -30.7772 H   0  0  0  0  0  0  0  0  0  0  0  0
   -8.8717   22.0718  -31.8815 H   0  0  0  0  0  0  0  0  0  0  0  0
   -4.7280   21.1700  -31.5990 H   0  0  0  0  0  0  0  0  0  0  0  0
   -7.3501   19.9637  -34.5447 H   0  0  0  0  0  0  0  0  0  0  0  0
   -5.7881   20.7487  -34.0889 H   0  0  0  0  0  0  0  0  0  0  0  0
   -6.0422   18.1206  -34.8813 H   0  0  0  0  0  0  0  0  0  0  0  0
   -4.7104   18.7812  -33.8275 H   0  0  0  0  0  0  0  0  0  0  0  0
  1  2  1  0
  2  3  1  0
  3  4  1  0
  4  5  1  0
  5  6  1  0
  6  7  2  0
  7  8  1  0
  8  9  2  0
  9 10  1  0
  9 11  1  0
 11 12  1  0
 11 13  2  0
  5 14  1  0
 14 15  1  0
 15  2  1  0
 13  6  1  0
  1 16  1  0
  1 17  1  0
  1 18  1  0
  3 19  1  0
  3 20  1  0
  4 21  1  0
  4 22  1  0
  7 23  1  0
 13 24  1  0
 14 25  1  0
 14 26  1  0
 15 27  1  0
 15 28  1  0
M  CHG  1  13   1
M  END
>  <UniqueID>  (8) 
8

>  <SMILES>  (8) 
CN1CCN(c2cnc(Br)c(Cl)[nH+]2)CC1

>  <Energy>  (8) 
38.09104902980476

>  <Genealogy>  (8) 
CN1CCN(c2cnc(Br)c(Cl)[nH+]2)CC1 (protonated)
CN1CCN(c2cnc(Br)c(Cl)[nH+]2)CC1 (3D coordinates assigned)
CN1CCN(c2cnc(Br)c(Cl)[nH+]2)CC1 (nonaromatic ring conformer: 38.09104902980476 kcal/mol)

>  <smiles>  (8) 
CN1CCN(c2cnc(Br)c(Cl)n2)CC1

>  <score_type>  (8) 
oracle

>  <origin>  (8) 
adg

>  <m_score__min__energy>  (8) 
-5.4900000000000002

>  <m_primary>  (8) 
energy

$$$$
8:0
     RDKit          3D

 24 25  0  0  0  0  0  0  0  0999 V2000
   -0.5056   26.1681  -28.1132 H   0  0  0  0  0  0  0  0  0  0  0  0
   -1.4470   25.6000  -28.1440 C   0  0  0  0  0  0  0  0  0  0  0  0
   -1.9920   25.2520  -29.3410 N   0  0  0  0  0  0  0  0  0  0  0  0
   -3.1560   24.5470  -29.4260 C   0  0  0  0  0  0  0  0  0  0  0  0
   -3.6690   24.2190  -30.5780 N   0  0  0  0  0  0  0  0  0  0  0  0
   -5.0060   24.4850  -31.0400 C   0  0  0  0  0  0  0  0  0  0  0  0
   -5.3970   25.6700  -31.2160 O   0  0  0  0  0  0  0  0  0  0  0  0
   -5.9130   23.3450  -31.3390 C   0  0  0  0  0  0  0  0  0  0  0  0
   -7.2600   23.4260  -30.9350 C   0  0  0  0  0  0  0  0  0  0  0  0
   -7.6195   24.3289  -30.4197 H   0  0  0  0  0  0  0  0  0  0  0  0
   -8.1450   22.3730  -31.1810 C   0  0  0  0  0  0  0  0  0  0  0  0
   -9.1931   22.4493  -30.8561 H   0  0  0  0  0  0  0  0  0  0  0  0
   -7.7020   21.2270  -31.8370 C   0  0  0  0  0  0  0  0  0  0  0  0
   -8.3999   20.3981  -32.0266 H   0  0  0  0  0  0  0  0  0  0  0  0
   -6.3740   21.1290  -32.2540 C   0  0  0  0  0  0  0  0  0  0  0  0
   -6.0304   20.2230  -32.7747 H   0  0  0  0  0  0  0  0  0  0  0  0
   -5.4750   22.1770  -32.0140 C   0  0  0  0  0  0  0  0  0  0  0  0
   -3.8360   21.9870  -32.6340 Cl  0  0  0  0  0  0  0  0  0  0  0  0
   -3.8180   24.1670  -28.2520 C   0  0  0  0  0  0  0  0  0  0  0  0
   -4.7583   23.5986  -28.3046 H   0  0  0  0  0  0  0  0  0  0  0  0
   -3.2740   24.5160  -27.0130 C   0  0  0  0  0  0  0  0  0  0  0  0
   -3.7855   24.2228  -26.0844 H   0  0  0  0  0  0  0  0  0  0  0  0
   -2.0810   25.2370  -26.9560 C   0  0  0  0  0  0  0  0  0  0  0  0
   -1.6454   25.5160  -25.9852 H   0  0  0  0  0  0  0  0  0  0  0  0
  1  2  1  0
  2  3  1  0
  3  4  1  0
  4  5  2  0
  5  6  1  0
  6  7  2  0
  6  8  1  0
  8  9  2  0
  9 10  1  0
  9 11  1  0
 11 12  1  0
 11 13  2  0
 13 14  1  0
 13 15  1  0
 15 16  1  0
 15 17  2  0
 17 18  1  0
  4 19  1  0
 19 20  1  0
 19 21  2  0
 21 22  1  0
 21 23  1  0
 23 24  1  0
 23  2  2  0
 17  8  1  0
M  CHG  1   3  -1
M  END
>  <UniqueID>  (9) 
9

>  <SMILES>  (9) 
O=C(/N=c1/cccc[n-]1)c1ccccc1Cl

>  <Energy>  (9) 
32.887639002558764

>  <Genealogy>  (9) 
O=C(N=c1cccc[n-]1)c1ccccc1Cl (protonated)
O=C(/N=c1/cccc[n-]1)c1ccccc1Cl (cis-trans isomerization)
O=C(/N=c1/cccc[n-]1)c1ccccc1Cl (3D coordinates assigned)
O=C(/N=c1/cccc[n-]1)c1ccccc1Cl (optimized conformer: 32.887639002558764 kcal/mol)

>  <smiles>  (9) 
O=C(N=c1cccc[nH]1)c1ccccc1Cl

>  <score_type>  (9) 
oracle

>  <origin>  (9) 
adg

>  <m_score__min__energy>  (9) 
-8.4299999999999997

>  <m_primary>  (9) 
energy

$$$$
9:0
     RDKit          3D

 48 50  0  0  0  0  0  0  0  0999 V2000
   -3.5090   22.6440  -31.5010 C   0  0  0  0  0  0  0  0  0  0  0  0
   -4.7680   23.2090  -31.0170 N   0  0  0  0  0  0  0  0  0  0  0  0
   -5.8320   22.4080  -30.9100 N   0  0  0  0  0  0  0  0  0  0  0  0
   -7.0420   22.8600  -30.4840 C   0  0  0  0  0  0  0  0  0  0  0  0
   -8.2210   21.9270  -30.4780 C   0  0  0  0  0  0  0  0  0  0  0  0
   -8.6300   21.5210  -31.9020 C   0  0  0  0  0  0  0  0  0  0  0  0
   -7.8480   20.3250  -32.3830 C   0  0  0  0  0  0  0  0  0  0  0  0
   -8.2700   19.0260  -32.0570 C   0  0  0  0  0  0  0  0  0  0  0  0
   -7.6230   17.9160  -32.6040 C   0  0  0  0  0  0  0  0  0  0  0  0
   -6.5400   18.0840  -33.4830 C   0  0  0  0  0  0  0  0  0  0  0  0
   -5.9170   16.9430  -34.1040 N   0  0  0  0  0  0  0  0  0  0  0  0
   -4.5580   17.0120  -34.6480 C   0  0  0  0  0  0  0  0  0  0  0  0
   -3.6380   16.0120  -33.9200 C   0  0  0  0  0  0  0  0  0  0  0  0
   -4.3470   14.8020  -33.4120 N   0  0  0  0  0  0  0  0  0  0  0  0
   -4.6200   14.9040  -31.9640 C   0  0  0  0  0  0  0  0  0  0  0  0
   -5.5790   14.4950  -34.1770 C   0  0  0  0  0  0  0  0  0  0  0  0
   -6.6000   15.6450  -34.1080 C   0  0  0  0  0  0  0  0  0  0  0  0
   -6.1150   19.3840  -33.8020 C   0  0  0  0  0  0  0  0  0  0  0  0
   -6.7640   20.4960  -33.2570 C   0  0  0  0  0  0  0  0  0  0  0  0
   -7.1870   24.2100  -30.1580 C   0  0  0  0  0  0  0  0  0  0  0  0
   -6.0830   25.0520  -30.2530 C   0  0  0  0  0  0  0  0  0  0  0  0
   -4.8630   24.5350  -30.6900 C   0  0  0  0  0  0  0  0  0  0  0  0
   -3.8620   25.2970  -30.7810 O   0  0  0  0  0  0  0  0  0  0  0  0
   -2.8802   22.3618  -30.6437 H   0  0  0  0  0  0  0  0  0  0  0  0
   -3.7176   21.7532  -32.1117 H   0  0  0  0  0  0  0  0  0  0  0  0
   -2.9822   23.3920  -32.1117 H   0  0  0  0  0  0  0  0  0  0  0  0
   -7.9569   21.0221  -29.9111 H   0  0  0  0  0  0  0  0  0  0  0  0
   -9.0699   22.4493  -30.0126 H   0  0  0  0  0  0  0  0  0  0  0  0
   -9.7017   21.2734  -31.9089 H   0  0  0  0  0  0  0  0  0  0  0  0
   -8.4181   22.3647  -32.5752 H   0  0  0  0  0  0  0  0  0  0  0  0
   -9.1146   18.8821  -31.3672 H   0  0  0  0  0  0  0  0  0  0  0  0
   -7.9638   16.9027  -32.3448 H   0  0  0  0  0  0  0  0  0  0  0  0
   -4.5836   16.7671  -35.7201 H   0  0  0  0  0  0  0  0  0  0  0  0
   -4.1660   18.0295  -34.5027 H   0  0  0  0  0  0  0  0  0  0  0  0
   -2.8555   15.6866  -34.6213 H   0  0  0  0  0  0  0  0  0  0  0  0
   -3.2269   16.5342  -33.0435 H   0  0  0  0  0  0  0  0  0  0  0  0
   -3.7030   13.9840  -33.5340 H   0  0  0  0  0  0  0  0  0  0  0  0
   -3.7354   14.5735  -31.3999 H   0  0  0  0  0  0  0  0  0  0  0  0
   -4.8496   15.9486  -31.7069 H   0  0  0  0  0  0  0  0  0  0  0  0
   -5.4783   14.2659  -31.7069 H   0  0  0  0  0  0  0  0  0  0  0  0
   -5.3100   14.3212  -35.2293 H   0  0  0  0  0  0  0  0  0  0  0  0
   -6.0419   13.6015  -33.7328 H   0  0  0  0  0  0  0  0  0  0  0  0
   -7.2661   15.5898  -34.9817 H   0  0  0  0  0  0  0  0  0  0  0  0
   -7.1812   15.5476  -33.1792 H   0  0  0  0  0  0  0  0  0  0  0  0
   -5.2654   19.5284  -34.4856 H   0  0  0  0  0  0  0  0  0  0  0  0
   -6.4231   21.5096  -33.5147 H   0  0  0  0  0  0  0  0  0  0  0  0
   -8.1609   24.6027  -29.8305 H   0  0  0  0  0  0  0  0  0  0  0  0
   -6.1714   26.1154  -29.9860 H   0  0  0  0  0  0  0  0  0  0  0  0
  1  2  1  0
  2  3  1  0
  3  4  2  0
  4  5  1  0
  5  6  1  0
  6  7  1  0
  7  8  2  0
  8  9  1  0
  9 10  2  0
 10 11  1  0
 11 12  1  0
 12 13  1  0
 13 14  1  0
 14 15  1  0
 14 16  1  0
 16 17  1  0
 10 18  1  0
 18 19  2  0
  4 20  1  0
 20 21  2  0
 21 22  1  0
 22 23  2  0
 22  2  1  0
 19  7  1  0
 17 11  1  0
  1 24  1  0
  1 25  1  0
  1 26  1  0
  5 27  1  0
  5 28  1  0
  6 29  1  0
  6 30  1  0
  8 31  1  0
  9 32  1  0
 12 33  1  0
 12 34  1  0
 13 35  1  0
 13 36  1  0
 14 37  1  0
 15 38  1  0
 15 39  1  0
 15 40  1  0
 16 41  1  0
 16 42  1  0
 17 43  1  0
 17 44  1  0
 18 45  1  0
 19 46  1  0
 20 47  1  0
 21 48  1  0
M  CHG  1  14   1
M  END
>  <UniqueID>  (10) 
10

>  <SMILES>  (10) 
Cn1nc(CCc2ccc(N3CC[NH+](C)CC3)cc2)ccc1=O

>  <Energy>  (10) 
56.132438155833235

>  <Genealogy>  (10) 
Cn1nc(CCc2ccc(N3CC[NH+](C)CC3)cc2)ccc1=O (protonated)
Cn1nc(CCc2ccc(N3CC[NH+](C)CC3)cc2)ccc1=O (3D coordinates assigned)
Cn1nc(CCc2ccc(N3CC[NH+](C)CC3)cc2)ccc1=O (nonaromatic ring conformer: 56.132438155833235 kcal/mol)

>  <smiles>  (10) 
CN1CCN(c2ccc(CCc3ccc(=O)n(C)n3)cc2)CC1

>  <score_type>  (10) 
oracle

>  <origin>  (10) 
adg

>  <m_score__min__energy>  (10) 
-8.3399999999999999

>  <m_primary>  (10) 
energy

$$$$
10:0
     RDKit          3D

 34 37  0  0  0  0  0  0  0  0999 V2000
   -9.2290   21.4050  -31.9670 C   0  0  0  0  0  0  0  0  0  0  0  0
   -7.7310   21.3500  -31.9870 C   0  0  0  0  0  0  0  0  0  0  0  0
   -6.9500   22.3450  -31.3600 C   0  0  0  0  0  0  0  0  0  0  0  0
   -5.5320   22.2780  -31.4090 C   0  0  0  0  0  0  0  0  0  0  0  0
   -4.7050   23.3220  -30.7710 C   0  0  0  0  0  0  0  0  0  0  0  0
   -4.6450   24.6000  -31.2150 N   0  0  0  0  0  0  0  0  0  0  0  0
   -3.8180   25.2960  -30.4410 N   0  0  0  0  0  0  0  0  0  0  0  0
   -3.3460   24.4560  -29.5050 C   0  0  0  0  0  0  0  0  0  0  0  0
   -2.4240   24.7390  -28.5000 C   0  0  0  0  0  0  0  0  0  0  0  0
   -2.0300   23.6830  -27.6570 C   0  0  0  0  0  0  0  0  0  0  0  0
   -2.5490   22.3830  -27.8490 C   0  0  0  0  0  0  0  0  0  0  0  0
   -3.4760   22.1290  -28.8770 C   0  0  0  0  0  0  0  0  0  0  0  0
   -3.8680   23.2040  -29.6770 C   0  0  0  0  0  0  0  0  0  0  0  0
   -4.9190   21.2630  -32.0990 N   0  0  0  0  0  0  0  0  0  0  0  0
   -5.6830   20.3130  -32.6950 C   0  0  0  0  0  0  0  0  0  0  0  0
   -5.3020   19.2150  -33.4350 C   0  0  0  0  0  0  0  0  0  0  0  0
   -3.9140   18.8040  -33.8060 C   0  0  0  0  0  0  0  0  0  0  0  0
   -6.4910   18.6130  -33.8340 C   0  0  0  0  0  0  0  0  0  0  0  0
   -7.5550   19.2970  -33.3500 N   0  0  0  0  0  0  0  0  0  0  0  0
   -7.0460   20.3340  -32.6560 C   0  0  0  0  0  0  0  0  0  0  0  0
   -9.5816   21.4179  -30.9251 H   0  0  0  0  0  0  0  0  0  0  0  0
   -9.5693   22.3162  -32.4806 H   0  0  0  0  0  0  0  0  0  0  0  0
   -9.6353   20.5212  -32.4806 H   0  0  0  0  0  0  0  0  0  0  0  0
   -7.4414   23.1752  -30.8316 H   0  0  0  0  0  0  0  0  0  0  0  0
   -2.0178   25.7529  -28.3697 H   0  0  0  0  0  0  0  0  0  0  0  0
   -1.3136   23.8710  -26.8437 H   0  0  0  0  0  0  0  0  0  0  0  0
   -2.2262   21.5634  -27.1902 H   0  0  0  0  0  0  0  0  0  0  0  0
   -3.8777   21.1187  -29.0444 H   0  0  0  0  0  0  0  0  0  0  0  0
   -3.8780   21.2090  -32.1580 H   0  0  0  0  0  0  0  0  0  0  0  0
   -3.3266   18.6301  -32.8924 H   0  0  0  0  0  0  0  0  0  0  0  0
   -3.9519   17.8785  -34.3993 H   0  0  0  0  0  0  0  0  0  0  0  0
   -3.4419   19.6009  -34.3993 H   0  0  0  0  0  0  0  0  0  0  0  0
   -6.5576   17.7080  -34.4557 H   0  0  0  0  0  0  0  0  0  0  0  0
   -8.5630   19.0700  -33.5040 H   0  0  0  0  0  0  0  0  0  0  0  0
  1  2  1  0
  2  3  2  0
  3  4  1  0
  4  5  1  0
  5  6  1  0
  6  7  1  0
  7  8  2  0
  8  9  1  0
  9 10  2  0
 10 11  1  0
 11 12  2  0
 12 13  1  0
  4 14  2  0
 14 15  1  0
 15 16  1  0
 16 17  1  0
 16 18  2  0
 18 19  1  0
 19 20  1  0
 20  2  1  0
 13  5  2  0
 20 15  2  0
 13  8  1  0
  1 21  1  0
  1 22  1  0
  1 23  1  0
  3 24  1  0
  9 25  1  0
 10 26  1  0
 11 27  1  0
 12 28  1  0
 14 29  1  0
 17 30  1  0
 17 31  1  0
 17 32  1  0
 18 33  1  0
 19 34  1  0
M  CHG  2   6  -1  14   1
M  END
>  <UniqueID>  (11) 
11

>  <SMILES>  (11) 
Cc1cc(-c2[n-]nc3ccccc23)[nH+]c2c(C)c[nH]c12

>  <Energy>  (11) 
113.2984917288283

>  <Genealogy>  (11) 
Cc1cc(-c2[n-]nc3ccccc23)[nH+]c2c(C)c[nH]c12 (protonated)
Cc1cc(-c2[n-]nc3ccccc23)[nH+]c2c(C)c[nH]c12 (3D coordinates assigned)
Cc1cc(-c2[n-]nc3ccccc23)[nH+]c2c(C)c[nH]c12 (optimized conformer: 113.2984917288283 kcal/mol)

>  <smiles>  (11) 
Cc1c[nH]c2c(C)cc(-c3[nH]nc4ccccc34)nc12

>  <score_type>  (11) 
oracle

>  <origin>  (11) 
adg

>  <m_score__min__energy>  (11) 
-9.1600000000000001

>  <m_primary>  (11) 
energy

$$$$
11:0
     RDKit          3D

 33 36  0  0  0  0  0  0  0  0999 V2000
   -3.9850   24.1640  -28.0380 C   0  0  0  0  0  0  0  0  0  0  0  0
   -4.7230   24.0580  -29.3410 C   0  0  0  0  0  0  0  0  0  0  0  0
   -5.7450   24.9680  -29.6500 C   0  0  0  0  0  0  0  0  0  0  0  0
   -6.4610   24.8420  -30.8430 C   0  0  0  0  0  0  0  0  0  0  0  0
   -6.1670   23.8040  -31.7320 C   0  0  0  0  0  0  0  0  0  0  0  0
   -5.1460   22.8870  -31.4360 C   0  0  0  0  0  0  0  0  0  0  0  0
   -4.8590   21.7980  -32.3260 N   0  0  0  0  0  0  0  0  0  0  0  0
   -3.5320   21.5460  -32.9010 C   0  0  0  0  0  0  0  0  0  0  0  0
   -3.5650   20.0990  -33.4660 C   0  0  0  0  0  0  0  0  0  0  0  0
   -4.9570   19.6620  -33.1880 C   0  0  0  0  0  0  0  0  0  0  0  0
   -5.5400   18.4840  -33.5620 N   0  0  0  0  0  0  0  0  0  0  0  0
   -6.8650   18.2780  -33.2880 C   0  0  0  0  0  0  0  0  0  0  0  0
   -7.5650   19.2720  -32.6700 N   0  0  0  0  0  0  0  0  0  0  0  0
   -8.8610   19.3540  -32.3450 C   0  0  0  0  0  0  0  0  0  0  0  0
   -9.0580   20.6080  -31.7870 C   0  0  0  0  0  0  0  0  0  0  0  0
   -7.8920   21.3020  -31.7640 N   0  0  0  0  0  0  0  0  0  0  0  0
   -7.0100   20.4390  -32.3060 C   0  0  0  0  0  0  0  0  0  0  0  0
   -5.6550   20.6450  -32.5430 C   0  0  0  0  0  0  0  0  0  0  0  0
   -4.4430   23.0070  -30.2280 C   0  0  0  0  0  0  0  0  0  0  0  0
   -4.6958   24.0619  -27.2047 H   0  0  0  0  0  0  0  0  0  0  0  0
   -3.2316   23.3649  -27.9773 H   0  0  0  0  0  0  0  0  0  0  0  0
   -3.4869   25.1429  -27.9773 H   0  0  0  0  0  0  0  0  0  0  0  0
   -5.9833   25.7831  -28.9509 H   0  0  0  0  0  0  0  0  0  0  0  0
   -7.2579   25.5612  -31.0833 H   0  0  0  0  0  0  0  0  0  0  0  0
   -6.7379   23.7053  -32.6671 H   0  0  0  0  0  0  0  0  0  0  0  0
   -3.3244   22.2645  -33.7076 H   0  0  0  0  0  0  0  0  0  0  0  0
   -2.7418   21.6602  -32.1443 H   0  0  0  0  0  0  0  0  0  0  0  0
   -3.3568   20.0917  -34.5461 H   0  0  0  0  0  0  0  0  0  0  0  0
   -2.8067   19.4412  -33.0162 H   0  0  0  0  0  0  0  0  0  0  0  0
   -7.3546   17.3314  -33.5603 H   0  0  0  0  0  0  0  0  0  0  0  0
   -9.6239   18.5754  -32.4924 H   0  0  0  0  0  0  0  0  0  0  0  0
  -10.0219   20.9863  -31.4159 H   0  0  0  0  0  0  0  0  0  0  0  0
   -3.6658   22.2712  -29.9738 H   0  0  0  0  0  0  0  0  0  0  0  0
  1  2  1  0
  2  3  2  0
  3  4  1  0
  4  5  2  0
  5  6  1  0
  6  7  1  0
  7  8  1  0
  8  9  1  0
  9 10  1  0
 10 11  1  0
 11 12  2  0
 12 13  1  0
 13 14  1  0
 14 15  2  0
 15 16  1  0
 16 17  2  0
 17 18  1  0
  6 19  2  0
 19  2  1  0
 18  7  1  0
 18 10  2  0
 17 13  1  0
  1 20  1  0
  1 21  1  0
  1 22  1  0
  3 23  1  0
  4 24  1  0
  5 25  1  0
  8 26  1  0
  8 27  1  0
  9 28  1  0
  9 29  1  0
 12 30  1  0
 14 31  1  0
 15 32  1  0
 19 33  1  0
M  END
>  <UniqueID>  (12) 
12

>  <SMILES>  (12) 
Cc1cccc(N2CCc3ncn4ccnc4c32)c1

>  <Energy>  (12) 
93.97101867778746

>  <Genealogy>  (12) 
Cc1cccc(N2CCc3ncn4ccnc4c32)c1 (3D coordinates assigned)
Cc1cccc(N2CCc3ncn4ccnc4c32)c1 (nonaromatic ring conformer: 93.97101867778746 kcal/mol)

>  <smiles>  (12) 
Cc1cccc(N2CCc3ncn4ccnc4c32)c1

>  <score_type>  (12) 
oracle

>  <origin>  (12) 
adg

>  <m_score__min__energy>  (12) 
-7.0999999999999996

>  <m_primary>  (12) 
energy

$$$$
12:0
     RDKit          3D

 31 32  0  0  0  0  0  0  0  0999 V2000
   -4.1368   20.8133  -33.2893 H   0  0  0  0  0  0  0  0  0  0  0  0
   -4.8060   21.4510  -32.6930 C   0  0  0  0  0  0  0  0  0  0  0  0
   -4.3370   22.6590  -32.1740 C   0  0  0  0  0  0  0  0  0  0  0  0
   -3.2981   22.9675  -32.3626 H   0  0  0  0  0  0  0  0  0  0  0  0
   -5.1780   23.4800  -31.4160 C   0  0  0  0  0  0  0  0  0  0  0  0
   -4.6550   24.6780  -30.9070 O   0  0  0  0  0  0  0  0  0  0  0  0
   -5.4260   25.6730  -30.2410 C   0  0  0  0  0  0  0  0  0  0  0  0
   -5.3274   25.5458  -29.1528 H   0  0  0  0  0  0  0  0  0  0  0  0
   -5.0631   26.6710  -30.5279 H   0  0  0  0  0  0  0  0  0  0  0  0
   -6.4830   25.5708  -30.5279 H   0  0  0  0  0  0  0  0  0  0  0  0
   -6.5090   23.0800  -31.1880 C   0  0  0  0  0  0  0  0  0  0  0  0
   -7.1812   23.7294  -30.6079 H   0  0  0  0  0  0  0  0  0  0  0  0
   -6.9870   21.8580  -31.6950 C   0  0  0  0  0  0  0  0  0  0  0  0
   -8.4130   21.4190  -31.4120 C   0  0  2  0  0  0  0  0  0  0  0  0
   -8.5448   21.3483  -30.3222 H   0  0  0  0  0  0  0  0  0  0  0  0
   -8.7030   20.0330  -31.9670 C   0  0  0  0  0  0  0  0  0  0  0  0
   -9.5130   19.9040  -32.9250 O   0  0  0  0  0  0  0  0  0  0  0  0
   -8.0550   18.8570  -31.4620 N   0  0  0  0  0  0  0  0  0  0  0  0
   -7.2390   18.0850  -32.1190 C   0  0  0  0  0  0  0  0  0  0  0  0
   -6.1090   17.0910  -31.4270 S   0  0  0  0  0  0  0  0  0  0  0  0
   -5.4730   16.4860  -32.8420 N   0  0  0  0  0  0  0  0  0  0  0  0
   -6.1720   17.0990  -33.8370 C   0  0  0  0  0  0  0  0  0  0  0  0
   -5.9659   16.8880  -34.8967 H   0  0  0  0  0  0  0  0  0  0  0  0
   -7.1420   17.9890  -33.4620 N   0  0  0  0  0  0  0  0  0  0  0  0
   -7.6950   18.5420  -34.1510 H   0  0  0  0  0  0  0  0  0  0  0  0
   -9.3940   22.4660  -31.9630 C   0  0  0  0  0  0  0  0  0  0  0  0
   -9.8822   22.9871  -31.1263 H   0  0  0  0  0  0  0  0  0  0  0  0
   -8.8455   23.1942  -32.5785 H   0  0  0  0  0  0  0  0  0  0  0  0
  -10.1563   21.9660  -32.5785 H   0  0  0  0  0  0  0  0  0  0  0  0
   -6.1230   21.0500  -32.4570 C   0  0  0  0  0  0  0  0  0  0  0  0
   -6.4868   20.0972  -32.8691 H   0  0  0  0  0  0  0  0  0  0  0  0
  1  2  1  0
  2  3  2  0
  3  4  1  0
  3  5  1  0
  5  6  1  0
  6  7  1  0
  7  8  1  0
  7  9  1  0
  7 10  1  0
  5 11  2  0
 11 12  1  0
 11 13  1  0
 13 14  1  0
 14 15  1  1
 14 16  1  0
 16 17  2  0
 16 18  1  0
 18 19  2  0
 19 20  1  0
 20 21  1  0
 21 22  2  0
 22 23  1  0
 22 24  1  0
 24 25  1  0
 14 26  1  0
 26 27  1  0
 26 28  1  0
 26 29  1  0
 13 30  2  0
 30 31  1  0
 30  2  1  0
 24 19  1  0
M  END
>  <UniqueID>  (13) 
13

>  <SMILES>  (13) 
COc1cccc([C@@H](C)C(=O)/N=c2\[nH]cns2)c1

>  <Energy>  (13) 
73.98975783242255

>  <Genealogy>  (13) 
COc1cccc([C@@H](C)C(=O)N=c2[nH]cns2)c1 (chirality)
COc1cccc([C@@H](C)C(=O)/N=c2\[nH]cns2)c1 (cis-trans isomerization)
COc1cccc([C@@H](C)C(=O)/N=c2\[nH]cns2)c1 (3D coordinates assigned)
COc1cccc([C@@H](C)C(=O)/N=c2\[nH]cns2)c1 (optimized conformer: 73.98975783242255 kcal/mol)

>  <smiles>  (13) 
COc1cccc(C(C)C(=O)N=c2[nH]cns2)c1

>  <score_type>  (13) 
oracle

>  <origin>  (13) 
adg

>  <m_score__min__energy>  (13) 
-7.0300000000000002

>  <m_primary>  (13) 
energy

$$$$
13:0
     RDKit          3D

 27 29  0  0  0  0  0  0  0  0999 V2000
   -1.2830   25.6750  -29.3220 O   0  0  0  0  0  0  0  0  0  0  0  0
   -0.9460   24.9320  -28.3640 C   0  0  0  0  0  0  0  0  0  0  0  0
    0.1070   25.3660  -27.4920 N   0  0  0  0  0  0  0  0  0  0  0  0
   -0.0550   25.9540  -26.1930 C   0  0  0  0  0  0  0  0  0  0  0  0
   -0.6820   27.1970  -26.0100 C   0  0  0  0  0  0  0  0  0  0  0  0
   -0.8170   27.7250  -24.7260 C   0  0  0  0  0  0  0  0  0  0  0  0
   -0.3070   27.0160  -23.6370 C   0  0  0  0  0  0  0  0  0  0  0  0
    0.3220   25.8250  -23.8310 N   0  0  0  0  0  0  0  0  0  0  0  0
    0.4640   25.2910  -25.0750 C   0  0  0  0  0  0  0  0  0  0  0  0
   -1.6410   23.6440  -28.1830 C   0  0  0  0  0  0  0  0  0  0  0  0
   -0.9670   22.3270  -27.3790 S   0  0  0  0  0  0  0  0  0  0  0  0
   -2.2110   21.2430  -27.6910 C   0  0  0  0  0  0  0  0  0  0  0  0
   -3.1850   21.9000  -28.4300 C   0  0  0  0  0  0  0  0  0  0  0  0
   -2.8830   23.2450  -28.6940 C   0  0  0  0  0  0  0  0  0  0  0  0
   -3.8060   24.1110  -29.3690 N   0  0  0  0  0  0  0  0  0  0  0  0
   -5.0160   24.5260  -28.9590 C   0  0  0  0  0  0  0  0  0  0  0  0
   -5.5890   25.2700  -29.9240 N   0  0  0  0  0  0  0  0  0  0  0  0
   -4.7120   25.2870  -30.9190 N   0  0  0  0  0  0  0  0  0  0  0  0
   -3.6410   24.5810  -30.5930 N   0  0  0  0  0  0  0  0  0  0  0  0
   -1.0661   27.7534  -26.8777 H   0  0  0  0  0  0  0  0  0  0  0  0
   -1.3206   28.6909  -24.5730 H   0  0  0  0  0  0  0  0  0  0  0  0
   -0.4138   27.4209  -22.6198 H   0  0  0  0  0  0  0  0  0  0  0  0
    0.7050   25.3100  -23.0070 H   0  0  0  0  0  0  0  0  0  0  0  0
    0.9896   24.3331  -25.2023 H   0  0  0  0  0  0  0  0  0  0  0  0
   -2.2477   20.1929  -27.3657 H   0  0  0  0  0  0  0  0  0  0  0  0
   -4.1079   21.4119  -28.7766 H   0  0  0  0  0  0  0  0  0  0  0  0
   -5.4694   24.2936  -27.9841 H   0  0  0  0  0  0  0  0  0  0  0  0
  1  2  2  0
  2  3  1  0
  3  4  1  0
  4  5  2  0
  5  6  1  0
  6  7  2  0
  7  8  1  0
  8  9  2  0
  2 10  1  0
 10 11  1  0
 11 12  1  0
 12 13  2  0
 13 14  1  0
 14 15  1  0
 15 16  1  0
 16 17  2  0
 17 18  1  0
 18 19  2  0
  9  4  1  0
 14 10  2  0
 19 15  1  0
  5 20  1  0
  6 21  1  0
  7 22  1  0
  8 23  1  0
  9 24  1  0
 12 25  1  0
 13 26  1  0
 16 27  1  0
M  CHG  2   3  -1   8   1
M  END
>  <UniqueID>  (14) 
14

>  <SMILES>  (14) 
O=C([N-]c1ccc[nH+]c1)c1sccc1-n1cnnn1

>  <Energy>  (14) 
104.598681478971

>  <Genealogy>  (14) 
O=C([N-]c1ccc[nH+]c1)c1sccc1-n1cnnn1 (protonated)
O=C([N-]c1ccc[nH+]c1)c1sccc1-n1cnnn1 (3D coordinates assigned)
O=C([N-]c1ccc[nH+]c1)c1sccc1-n1cnnn1 (optimized conformer: 104.598681478971 kcal/mol)

>  <smiles>  (14) 
O=C(Nc1cccnc1)c1sccc1-n1cnnn1

>  <score_type>  (14) 
oracle

>  <origin>  (14) 
adg

>  <m_score__min__energy>  (14) 
-8.8200000000000003

>  <m_primary>  (14) 
energy

$$$$
14:0
     RDKit          3D

 43 47  0  0  0  0  0  0  0  0999 V2000
   -6.0330   14.3150  -34.2080 C   0  0  0  0  0  0  0  0  0  0  0  0
   -6.8510   15.4320  -34.5420 O   0  0  0  0  0  0  0  0  0  0  0  0
   -6.7080   16.7120  -33.9860 C   0  0  0  0  0  0  0  0  0  0  0  0
   -6.0230   17.6840  -34.7220 C   0  0  0  0  0  0  0  0  0  0  0  0
   -5.8560   18.9750  -34.2140 C   0  0  0  0  0  0  0  0  0  0  0  0
   -6.3830   19.3200  -32.9560 C   0  0  0  0  0  0  0  0  0  0  0  0
   -6.2090   20.6800  -32.3920 C   0  0  0  0  0  0  0  0  0  0  0  0
   -7.1970   21.6080  -32.5360 N   0  0  0  0  0  0  0  0  0  0  0  0
   -7.0930   22.8800  -32.0420 C   0  0  0  0  0  0  0  0  0  0  0  0
   -8.0550   23.6760  -32.2170 O   0  0  0  0  0  0  0  0  0  0  0  0
   -5.9570   23.2830  -31.3700 N   0  0  0  0  0  0  0  0  0  0  0  0
   -5.8290   24.6450  -30.8340 C   0  0  0  0  0  0  0  0  0  0  0  0
   -4.9520   22.3630  -31.2300 C   0  0  0  0  0  0  0  0  0  0  0  0
   -5.0530   21.0830  -31.7280 C   0  0  0  0  0  0  0  0  0  0  0  0
   -3.9550   20.3920  -31.5030 O   0  0  0  0  0  0  0  0  0  0  0  0
   -3.1380   21.1950  -30.8590 C   0  0  0  0  0  0  0  0  0  0  0  0
   -1.8920   20.8800  -30.4310 N   0  0  0  0  0  0  0  0  0  0  0  0
   -1.1500   21.8190  -29.7750 C   0  0  0  0  0  0  0  0  0  0  0  0
   -1.6660   23.1220  -29.5340 C   0  0  0  0  0  0  0  0  0  0  0  0
   -0.8520   24.1390  -28.8210 C   0  0  0  0  0  0  0  0  0  0  0  0
   -1.2080   25.4340  -28.4940 C   0  0  0  0  0  0  0  0  0  0  0  0
   -0.1860   26.0260  -27.8490 N   0  0  0  0  0  0  0  0  0  0  0  0
    0.8090   25.1580  -27.7490 N   0  0  0  0  0  0  0  0  0  0  0  0
    0.4350   24.0050  -28.3310 C   0  0  0  0  0  0  0  0  0  0  0  0
   -2.9700   23.4330  -29.9880 C   0  0  0  0  0  0  0  0  0  0  0  0
   -3.6900   22.4380  -30.6540 C   0  0  0  0  0  0  0  0  0  0  0  0
   -7.0580   18.3380  -32.2110 C   0  0  0  0  0  0  0  0  0  0  0  0
   -7.2250   17.0470  -32.7220 C   0  0  0  0  0  0  0  0  0  0  0  0
   -5.9661   14.2237  -33.1138 H   0  0  0  0  0  0  0  0  0  0  0  0
   -6.4752   13.3987  -34.6261 H   0  0  0  0  0  0  0  0  0  0  0  0
   -5.0259   14.4600  -34.6261 H   0  0  0  0  0  0  0  0  0  0  0  0
   -5.6118   17.4299  -35.7101 H   0  0  0  0  0  0  0  0  0  0  0  0
   -5.3087   19.7267  -34.8017 H   0  0  0  0  0  0  0  0  0  0  0  0
   -5.8325   24.6082  -29.7346 H   0  0  0  0  0  0  0  0  0  0  0  0
   -4.8852   25.0892  -31.1830 H   0  0  0  0  0  0  0  0  0  0  0  0
   -6.6736   25.2573  -31.1830 H   0  0  0  0  0  0  0  0  0  0  0  0
   -1.5010   19.9270  -30.6050 H   0  0  0  0  0  0  0  0  0  0  0  0
   -0.1379   21.5641  -29.4276 H   0  0  0  0  0  0  0  0  0  0  0  0
   -2.1743   25.9062  -28.7246 H   0  0  0  0  0  0  0  0  0  0  0  0
    1.0541   23.0988  -28.4057 H   0  0  0  0  0  0  0  0  0  0  0  0
   -3.4042   24.4298  -29.8212 H   0  0  0  0  0  0  0  0  0  0  0  0
   -7.4585   18.5870  -31.2172 H   0  0  0  0  0  0  0  0  0  0  0  0
   -7.7632   16.2902  -32.1325 H   0  0  0  0  0  0  0  0  0  0  0  0
  1  2  1  0
  2  3  1  0
  3  4  2  0
  4  5  1  0
  5  6  2  0
  6  7  1  0
  7  8  2  0
  8  9  1  0
  9 10  2  0
  9 11  1  0
 11 12  1  0
 11 13  1  0
 13 14  2  0
 14 15  1  0
 15 16  1  0
 16 17  2  0
 17 18  1  0
 18 19  2  0
 19 20  1  0
 20 21  1  0
 21 22  2  0
 22 23  1  0
 23 24  1  0
 19 25  1  0
 25 26  2  0
  6 27  1  0
 27 28  2  0
 28  3  1  0
 14  7  1  0
 26 16  1  0
 26 13  1  0
 24 20  2  0
  1 29  1  0
  1 30  1  0
  1 31  1  0
  4 32  1  0
  5 33  1  0
 12 34  1  0
 12 35  1  0
 12 36  1  0
 17 37  1  0
 18 38  1  0
 21 39  1  0
 24 40  1  0
 25 41  1  0
 27 42  1  0
 28 43  1  0
M  CHG  2  17   1  23  -1
M  END
>  <UniqueID>  (15) 
15

>  <SMILES>  (15) 
COc1ccc(-c2nc(=O)n(C)c3c2oc2[nH+]cc(-c4cn[n-]c4)cc23)cc1

>  <Energy>  (15) 
134.9374894514149

>  <Genealogy>  (15) 
COc1ccc(-c2nc(=O)n(C)c3c2oc2[nH+]cc(-c4cn[n-]c4)cc23)cc1 (protonated)
COc1ccc(-c2nc(=O)n(C)c3c2oc2[nH+]cc(-c4cn[n-]c4)cc23)cc1 (3D coordinates assigned)
COc1ccc(-c2nc(=O)n(C)c3c2oc2[nH+]cc(-c4cn[n-]c4)cc23)cc1 (optimized conformer: 134.9374894514149 kcal/mol)

>  <smiles>  (15) 
COc1ccc(-c2nc(=O)n(C)c3c2oc2ncc(-c4cn[nH]c4)cc23)cc1

>  <score_type>  (15) 
oracle

>  <origin>  (15) 
adg

>  <m_score__min__energy>  (15) 
-8.1699999999999999

>  <m_primary>  (15) 
energy

$$$$
15:0
     RDKit          3D

 38 40  0  0  0  0  0  0  0  0999 V2000
   -1.2050   26.9270  -24.9080 C   0  0  0  0  0  0  0  0  0  0  0  0
   -1.6220   26.1540  -26.1230 C   0  0  0  0  0  0  0  0  0  0  0  0
   -0.8640   26.2240  -27.3030 C   0  0  0  0  0  0  0  0  0  0  0  0
   -1.2560   25.5050  -28.4360 C   0  0  0  0  0  0  0  0  0  0  0  0
   -2.4030   24.6950  -28.4000 C   0  0  0  0  0  0  0  0  0  0  0  0
   -2.9100   24.0430  -29.6570 C   0  0  0  0  0  0  0  0  0  0  0  0
   -3.5160   25.0430  -30.5300 N   0  0  0  0  0  0  0  0  0  0  0  0
   -4.9220   25.2990  -30.5180 C   0  0  0  0  0  0  0  0  0  0  0  0
   -5.3360   26.4840  -30.4220 O   0  0  0  0  0  0  0  0  0  0  0  0
   -5.8820   24.1860  -30.5810 C   0  0  0  0  0  0  0  0  0  0  0  0
   -5.8610   23.1380  -31.4800 C   0  0  0  0  0  0  0  0  0  0  0  0
   -6.8780   22.3020  -31.0430 C   0  0  0  0  0  0  0  0  0  0  0  0
   -7.2640   20.9920  -31.6090 C   0  0  0  0  0  0  0  0  0  0  0  0
   -8.5020   20.3980  -31.2970 C   0  0  0  0  0  0  0  0  0  0  0  0
   -8.8580   19.1680  -31.8620 C   0  0  0  0  0  0  0  0  0  0  0  0
   -7.9860   18.5210  -32.7410 C   0  0  0  0  0  0  0  0  0  0  0  0
   -6.7570   19.1050  -33.0590 C   0  0  0  0  0  0  0  0  0  0  0  0
   -6.3970   20.3340  -32.4990 C   0  0  0  0  0  0  0  0  0  0  0  0
   -7.4500   22.8520  -29.9940 O   0  0  0  0  0  0  0  0  0  0  0  0
   -6.8750   23.9810  -29.6980 N   0  0  0  0  0  0  0  0  0  0  0  0
   -3.1390   24.5990  -27.2090 C   0  0  0  0  0  0  0  0  0  0  0  0
   -2.7460   25.3170  -26.0760 C   0  0  0  0  0  0  0  0  0  0  0  0
   -1.5021   26.3763  -24.0033 H   0  0  0  0  0  0  0  0  0  0  0  0
   -0.1130   27.0595  -24.9146 H   0  0  0  0  0  0  0  0  0  0  0  0
   -1.6940   27.9123  -24.9146 H   0  0  0  0  0  0  0  0  0  0  0  0
    0.0419   26.8471  -27.3360 H   0  0  0  0  0  0  0  0  0  0  0  0
   -0.6634   25.5739  -29.3601 H   0  0  0  0  0  0  0  0  0  0  0  0
   -2.0711   23.5622  -30.1815 H   0  0  0  0  0  0  0  0  0  0  0  0
   -3.6665   23.2895  -29.3924 H   0  0  0  0  0  0  0  0  0  0  0  0
   -5.1928   22.9985  -32.3426 H   0  0  0  0  0  0  0  0  0  0  0  0
   -9.1927   20.9032  -30.6058 H   0  0  0  0  0  0  0  0  0  0  0  0
   -9.8266   18.7097  -31.6134 H   0  0  0  0  0  0  0  0  0  0  0  0
   -8.2665   17.5532  -33.1822 H   0  0  0  0  0  0  0  0  0  0  0  0
   -6.0709   18.5961  -33.7520 H   0  0  0  0  0  0  0  0  0  0  0  0
   -5.4292   20.7893  -32.7562 H   0  0  0  0  0  0  0  0  0  0  0  0
   -7.1350   24.5870  -28.8890 H   0  0  0  0  0  0  0  0  0  0  0  0
   -4.0300   23.9553  -27.1669 H   0  0  0  0  0  0  0  0  0  0  0  0
   -3.3213   25.2250  -25.1429 H   0  0  0  0  0  0  0  0  0  0  0  0
  1  2  1  0
  2  3  2  0
  3  4  1  0
  4  5  2  0
  5  6  1  0
  6  7  1  0
  7  8  1  0
  8  9  2  0
  8 10  1  0
 10 11  1  0
 11 12  2  0
 12 13  1  0
 13 14  2  0
 14 15  1  0
 15 16  2  0
 16 17  1  0
 17 18  2  0
 12 19  1  0
 19 20  1  0
  5 21  1  0
 21 22  2  0
 22  2  1  0
 20 10  2  0
 18 13  1  0
  1 23  1  0
  1 24  1  0
  1 25  1  0
  3 26  1  0
  4 27  1  0
  6 28  1  0
  6 29  1  0
 11 30  1  0
 14 31  1  0
 15 32  1  0
 16 33  1  0
 17 34  1  0
 18 35  1  0
 20 36  1  0
 21 37  1  0
 22 38  1  0
M  CHG  2   7  -1  20   1
M  END
>  <UniqueID>  (16) 
16

>  <SMILES>  (16) 
Cc1ccc(C[N-]C(=O)c2cc(-c3ccccc3)o[nH+]2)cc1

>  <Energy>  (16) 
73.2972634904769

>  <Genealogy>  (16) 
Cc1ccc(C[N-]C(=O)c2cc(-c3ccccc3)o[nH+]2)cc1 (protonated)
Cc1ccc(C[N-]C(=O)c2cc(-c3ccccc3)o[nH+]2)cc1 (3D coordinates assigned)
Cc1ccc(C[N-]C(=O)c2cc(-c3ccccc3)o[nH+]2)cc1 (optimized conformer: 73.2972634904769 kcal/mol)

>  <smiles>  (16) 
Cc1ccc(CNC(=O)c2cc(-c3ccccc3)on2)cc1

>  <score_type>  (16) 
oracle

>  <origin>  (16) 
adg

>  <m_score__min__energy>  (16) 
-10.300000000000001

>  <m_primary>  (16) 
energy

$$$$
16:0
     RDKit          3D

 33 36  0  0  0  0  0  0  0  0999 V2000
   -6.8320   25.1370  -29.8780 C   0  0  0  0  0  0  0  0  0  0  0  0
   -5.5390   25.6150  -30.0860 C   0  0  0  0  0  0  0  0  0  0  0  0
   -4.6660   24.9050  -30.8480 N   0  0  0  0  0  0  0  0  0  0  0  0
   -5.0130   23.7230  -31.4230 C   0  0  0  0  0  0  0  0  0  0  0  0
   -6.3060   23.1980  -31.2410 C   0  0  0  0  0  0  0  0  0  0  0  0
   -6.7220   21.9150  -31.8500 C   0  0  0  0  0  0  0  0  0  0  0  0
   -5.9060   20.8830  -32.1440 N   0  0  0  0  0  0  0  0  0  0  0  0
   -6.7500   19.9700  -32.6710 C   0  0  0  0  0  0  0  0  0  0  0  0
   -6.3600   18.6280  -33.1700 C   0  0  0  0  0  0  0  0  0  0  0  0
   -7.2270   17.5220  -33.0550 C   0  0  0  0  0  0  0  0  0  0  0  0
   -6.8390   16.2620  -33.5240 C   0  0  0  0  0  0  0  0  0  0  0  0
   -5.5840   16.0930  -34.1110 C   0  0  0  0  0  0  0  0  0  0  0  0
   -4.7260   17.1890  -34.2580 C   0  0  0  0  0  0  0  0  0  0  0  0
   -5.1030   18.4460  -33.7780 C   0  0  0  0  0  0  0  0  0  0  0  0
   -3.4920   17.0050  -34.8900 O   0  0  0  0  0  0  0  0  0  0  0  0
   -3.2080   15.8120  -35.6240 C   0  0  0  0  0  0  0  0  0  0  0  0
   -3.8000   14.5920  -34.9030 C   0  0  0  0  0  0  0  0  0  0  0  0
   -5.1660   14.8360  -34.5590 O   0  0  0  0  0  0  0  0  0  0  0  0
   -8.0180   20.4350  -32.6950 N   0  0  0  0  0  0  0  0  0  0  0  0
   -7.9580   21.6280  -32.1830 O   0  0  0  0  0  0  0  0  0  0  0  0
   -7.2150   23.9260  -30.4560 C   0  0  0  0  0  0  0  0  0  0  0  0
   -7.5434   25.7089  -29.2642 H   0  0  0  0  0  0  0  0  0  0  0  0
   -5.2253   26.5671  -29.6332 H   0  0  0  0  0  0  0  0  0  0  0  0
   -4.2801   23.1747  -32.0331 H   0  0  0  0  0  0  0  0  0  0  0  0
   -4.8760   20.8100  -32.0000 H   0  0  0  0  0  0  0  0  0  0  0  0
   -8.2168   17.6507  -32.5927 H   0  0  0  0  0  0  0  0  0  0  0  0
   -7.5226   15.4053  -33.4301 H   0  0  0  0  0  0  0  0  0  0  0  0
   -4.4141   19.2980  -33.8756 H   0  0  0  0  0  0  0  0  0  0  0  0
   -3.6492   15.8898  -36.6286 H   0  0  0  0  0  0  0  0  0  0  0  0
   -2.1176   15.6891  -35.7012 H   0  0  0  0  0  0  0  0  0  0  0  0
   -3.7432   13.7157  -35.5654 H   0  0  0  0  0  0  0  0  0  0  0  0
   -3.2262   14.4056  -33.9832 H   0  0  0  0  0  0  0  0  0  0  0  0
   -8.2326   23.5402  -30.2962 H   0  0  0  0  0  0  0  0  0  0  0  0
  1  2  2  0
  2  3  1  0
  3  4  2  0
  4  5  1  0
  5  6  1  0
  6  7  2  0
  7  8  1  0
  8  9  1  0
  9 10  2  0
 10 11  1  0
 11 12  2  0
 12 13  1  0
 13 14  2  0
 13 15  1  0
 15 16  1  0
 16 17  1  0
 17 18  1  0
  8 19  2  0
 19 20  1  0
  5 21  2  0
 21  1  1  0
 20  6  1  0
 14  9  1  0
 18 12  1  0
  1 22  1  0
  2 23  1  0
  4 24  1  0
  7 25  1  0
 10 26  1  0
 11 27  1  0
 14 28  1  0
 16 29  1  0
 16 30  1  0
 17 31  1  0
 17 32  1  0
 21 33  1  0
M  CHG  1   7   1
M  END
>  <UniqueID>  (17) 
17

>  <SMILES>  (17) 
c1cncc(-c2[nH+]c(-c3ccc4c(c3)OCCO4)no2)c1

>  <Energy>  (17) 
76.20204034471885

>  <Genealogy>  (17) 
c1cncc(-c2[nH+]c(-c3ccc4c(c3)OCCO4)no2)c1 (protonated)
c1cncc(-c2[nH+]c(-c3ccc4c(c3)OCCO4)no2)c1 (3D coordinates assigned)
c1cncc(-c2[nH+]c(-c3ccc4c(c3)OCCO4)no2)c1 (nonaromatic ring conformer: 76.20204034471885 kcal/mol)

>  <smiles>  (17) 
c1cncc(-c2nc(-c3ccc4c(c3)OCCO4)no2)c1

>  <score_type>  (17) 
oracle

>  <origin>  (17) 
adg

>  <m_score__min__energy>  (17) 
-7.0300000000000002

>  <m_primary>  (17) 
energy

$$$$
17:0
     RDKit          3D

 43 44  0  0  0  0  0  0  0  0999 V2000
   -1.6240   25.6330  -25.6350 C   0  0  0  0  0  0  0  0  0  0  0  0
   -1.3790   26.3850  -26.9390 C   0  0  0  0  0  0  0  0  0  0  0  0
   -1.6290   25.5390  -28.0600 O   0  0  0  0  0  0  0  0  0  0  0  0
   -0.8800   24.3900  -28.3430 C   0  0  0  0  0  0  0  0  0  0  0  0
    0.1970   24.4820  -28.9960 O   0  0  0  0  0  0  0  0  0  0  0  0
   -1.3640   23.0710  -27.8730 C   0  0  0  0  0  0  0  0  0  0  0  0
   -0.4390   22.1660  -27.3220 C   0  0  0  0  0  0  0  0  0  0  0  0
   -0.8480   20.9070  -26.8780 C   0  0  0  0  0  0  0  0  0  0  0  0
   -2.1900   20.5310  -26.9740 C   0  0  0  0  0  0  0  0  0  0  0  0
   -2.6110   19.2330  -26.5090 C   0  0  0  0  0  0  0  0  0  0  0  0
   -2.9500   18.1910  -26.1360 N   0  0  0  0  0  0  0  0  0  0  0  0
   -3.1260   21.4230  -27.5090 C   0  0  0  0  0  0  0  0  0  0  0  0
   -2.7270   22.6920  -27.9540 C   0  0  0  0  0  0  0  0  0  0  0  0
   -3.7270   23.6060  -28.4200 N   0  0  0  0  0  0  0  0  0  0  0  0
   -4.3220   24.5560  -27.4800 C   0  0  0  0  0  0  0  0  0  0  0  0
   -3.9130   23.8260  -30.1340 S   0  0  0  0  0  0  0  0  0  0  0  0
   -2.8120   23.1020  -30.8610 O   0  0  0  0  0  0  0  0  0  0  0  0
   -3.8320   25.2880  -30.4820 O   0  0  0  0  0  0  0  0  0  0  0  0
   -5.4810   23.2000  -30.6340 C   0  0  0  0  0  0  0  0  0  0  0  0
   -6.4130   22.7890  -29.6710 C   0  0  0  0  0  0  0  0  0  0  0  0
   -7.6880   22.3660  -30.0610 C   0  0  0  0  0  0  0  0  0  0  0  0
   -8.0370   22.3320  -31.4200 C   0  0  0  0  0  0  0  0  0  0  0  0
   -9.4200   21.9300  -31.8410 C   0  0  0  0  0  0  0  0  0  0  0  0
   -7.1040   22.7530  -32.3820 C   0  0  0  0  0  0  0  0  0  0  0  0
   -5.8340   23.1840  -31.9910 C   0  0  0  0  0  0  0  0  0  0  0  0
   -1.4082   26.2953  -24.7837 H   0  0  0  0  0  0  0  0  0  0  0  0
   -2.6742   25.3089  -25.5904 H   0  0  0  0  0  0  0  0  0  0  0  0
   -0.9663   24.7524  -25.5904 H   0  0  0  0  0  0  0  0  0  0  0  0
   -2.0499   27.2555  -26.9861 H   0  0  0  0  0  0  0  0  0  0  0  0
   -0.3292   26.7122  -26.9683 H   0  0  0  0  0  0  0  0  0  0  0  0
    0.6196   22.4536  -27.2399 H   0  0  0  0  0  0  0  0  0  0  0  0
   -0.1119   20.2096  -26.4517 H   0  0  0  0  0  0  0  0  0  0  0  0
   -4.1829   21.1268  -27.5812 H   0  0  0  0  0  0  0  0  0  0  0  0
   -4.1174   24.2293  -26.4497 H   0  0  0  0  0  0  0  0  0  0  0  0
   -3.8868   25.5532  -27.6417 H   0  0  0  0  0  0  0  0  0  0  0  0
   -5.4092   24.5998  -27.6417 H   0  0  0  0  0  0  0  0  0  0  0  0
   -6.1409   22.7991  -28.6052 H   0  0  0  0  0  0  0  0  0  0  0  0
   -8.4200   22.0588  -29.2996 H   0  0  0  0  0  0  0  0  0  0  0  0
  -10.0374   21.7506  -30.9484 H   0  0  0  0  0  0  0  0  0  0  0  0
   -9.8689   22.7348  -32.4416 H   0  0  0  0  0  0  0  0  0  0  0  0
   -9.3676   21.0099  -32.4416 H   0  0  0  0  0  0  0  0  0  0  0  0
   -7.3746   22.7433  -33.4481 H   0  0  0  0  0  0  0  0  0  0  0  0
   -5.1085   23.5119  -32.7501 H   0  0  0  0  0  0  0  0  0  0  0  0
  1  2  1  0
  2  3  1  0
  3  4  1  0
  4  5  2  0
  4  6  1  0
  6  7  2  0
  7  8  1  0
  8  9  2  0
  9 10  1  0
 10 11  3  0
  9 12  1  0
 12 13  2  0
 13 14  1  0
 14 15  1  0
 14 16  1  0
 16 17  2  0
 16 18  2  0
 16 19  1  0
 19 20  2  0
 20 21  1  0
 21 22  2  0
 22 23  1  0
 22 24  1  0
 24 25  2  0
 13  6  1  0
 25 19  1  0
  1 26  1  0
  1 27  1  0
  1 28  1  0
  2 29  1  0
  2 30  1  0
  7 31  1  0
  8 32  1  0
 12 33  1  0
 15 34  1  0
 15 35  1  0
 15 36  1  0
 20 37  1  0
 21 38  1  0
 23 39  1  0
 23 40  1  0
 23 41  1  0
 24 42  1  0
 25 43  1  0
M  END
>  <UniqueID>  (18) 
18

>  <SMILES>  (18) 
CCOC(=O)c1ccc(C#N)cc1N(C)S(=O)(=O)c1ccc(C)cc1

>  <Energy>  (18) 
43.72407888742251

>  <Genealogy>  (18) 
CCOC(=O)c1ccc(C#N)cc1N(C)S(=O)(=O)c1ccc(C)cc1 (3D coordinates assigned)
CCOC(=O)c1ccc(C#N)cc1N(C)S(=O)(=O)c1ccc(C)cc1 (optimized conformer: 43.72407888742251 kcal/mol)

>  <smiles>  (18) 
CCOC(=O)c1ccc(C#N)cc1N(C)S(=O)(=O)c1ccc(C)cc1

>  <score_type>  (18) 
oracle

>  <origin>  (18) 
adg

>  <m_score__min__energy>  (18) 
-9.0999999999999996

>  <m_primary>  (18) 
energy

$$$$
18:0
     RDKit          3D

 38 38  0  0  0  0  0  0  0  0999 V2000
   -7.2690   18.0940  -31.9930 C   0  0  0  0  0  0  0  0  0  0  0  0
   -8.6650   18.5860  -31.6110 C   0  0  0  0  0  0  0  0  0  0  0  0
   -9.1930   19.6760  -32.5580 C   0  0  0  0  0  0  0  0  0  0  0  0
   -9.1060   21.0830  -31.9420 C   0  0  0  0  0  0  0  0  0  0  0  0
   -7.6560   21.5120  -31.6650 C   0  0  0  0  0  0  0  0  0  0  0  0
   -7.5630   22.6500  -30.6320 C   0  0  0  0  0  0  0  0  0  0  0  0
   -6.9530   23.9370  -31.2250 C   0  0  0  0  0  0  0  0  0  0  0  0
   -6.0720   24.7130  -30.2330 C   0  0  0  0  0  0  0  0  0  0  0  0
   -4.6060   24.4250  -30.4100 C   0  0  0  0  0  0  0  0  0  0  0  0
   -3.8670   25.3010  -30.8360 O   0  0  0  0  0  0  0  0  0  0  0  0
   -4.0320   23.0840  -30.0440 C   0  0  0  0  0  0  0  0  0  0  0  0
   -3.5890   22.3540  -31.2760 C   0  0  0  0  0  0  0  0  0  0  0  0
   -4.4440   22.0710  -32.3520 C   0  0  0  0  0  0  0  0  0  0  0  0
   -3.8360   21.3450  -33.3660 C   0  0  0  0  0  0  0  0  0  0  0  0
   -2.2440   21.0470  -32.9140 S   0  0  0  0  0  0  0  0  0  0  0  0
   -2.3070   21.8370  -31.4310 C   0  0  0  0  0  0  0  0  0  0  0  0
   -6.6897   17.8898  -31.0804 H   0  0  0  0  0  0  0  0  0  0  0  0
   -7.3549   17.1720  -32.5867 H   0  0  0  0  0  0  0  0  0  0  0  0
   -6.7578   18.8661  -32.5867 H   0  0  0  0  0  0  0  0  0  0  0  0
   -9.3579   17.7320  -31.6372 H   0  0  0  0  0  0  0  0  0  0  0  0
   -8.5971   19.0260  -30.6051 H   0  0  0  0  0  0  0  0  0  0  0  0
   -8.5980   19.6583  -33.4830 H   0  0  0  0  0  0  0  0  0  0  0  0
  -10.2538   19.4623  -32.7558 H   0  0  0  0  0  0  0  0  0  0  0  0
   -9.5604   21.8026  -32.6389 H   0  0  0  0  0  0  0  0  0  0  0  0
   -9.6394   21.0620  -30.9802 H   0  0  0  0  0  0  0  0  0  0  0  0
   -7.0983   20.6438  -31.2841 H   0  0  0  0  0  0  0  0  0  0  0  0
   -7.2320   21.8836  -32.6095 H   0  0  0  0  0  0  0  0  0  0  0  0
   -8.5747   22.8761  -30.2640 H   0  0  0  0  0  0  0  0  0  0  0  0
   -6.9037   22.3110  -29.8193 H   0  0  0  0  0  0  0  0  0  0  0  0
   -6.3384   23.6620  -32.0948 H   0  0  0  0  0  0  0  0  0  0  0  0
   -7.7908   24.5960  -31.4969 H   0  0  0  0  0  0  0  0  0  0  0  0
   -6.2395   25.7900  -30.3815 H   0  0  0  0  0  0  0  0  0  0  0  0
   -6.3532   24.3936  -29.2186 H   0  0  0  0  0  0  0  0  0  0  0  0
   -3.1688   23.2284  -29.3776 H   0  0  0  0  0  0  0  0  0  0  0  0
   -4.8057   22.4904  -29.5351 H   0  0  0  0  0  0  0  0  0  0  0  0
   -5.4950   22.3936  -32.3881 H   0  0  0  0  0  0  0  0  0  0  0  0
   -4.3126   21.0207  -34.3029 H   0  0  0  0  0  0  0  0  0  0  0  0
   -1.4806   21.9287  -30.7108 H   0  0  0  0  0  0  0  0  0  0  0  0
  1  2  1  0
  2  3  1  0
  3  4  1  0
  4  5  1  0
  5  6  1  0
  6  7  1  0
  7  8  1  0
  8  9  1  0
  9 10  2  0
  9 11  1  0
 11 12  1  0
 12 13  1  0
 13 14  2  0
 14 15  1  0
 15 16  1  0
 16 12  2  0
  1 17  1  0
  1 18  1  0
  1 19  1  0
  2 20  1  0
  2 21  1  0
  3 22  1  0
  3 23  1  0
  4 24  1  0
  4 25  1  0
  5 26  1  0
  5 27  1  0
  6 28  1  0
  6 29  1  0
  7 30  1  0
  7 31  1  0
  8 32  1  0
  8 33  1  0
 11 34  1  0
 11 35  1  0
 13 36  1  0
 14 37  1  0
 16 38  1  0
M  END
>  <UniqueID>  (19) 
19

>  <SMILES>  (19) 
CCCCCCCCC(=O)Cc1ccsc1

>  <Energy>  (19) 
46.43053182968714

>  <Genealogy>  (19) 
CCCCCCCCC(=O)Cc1ccsc1 (3D coordinates assigned)
CCCCCCCCC(=O)Cc1ccsc1 (optimized conformer: 46.43053182968714 kcal/mol)

>  <smiles>  (19) 
CCCCCCCCC(=O)Cc1ccsc1

>  <score_type>  (19) 
oracle

>  <origin>  (19) 
adg

>  <m_score__min__energy>  (19) 
-6.7699999999999996

>  <m_primary>  (19) 
energy

$$$$
19:0
     RDKit          3D

 49 51  0  0  0  0  0  0  0  0999 V2000
   -1.1720   26.1770  -27.1160 C   0  0  0  0  0  0  0  0  0  0  0  0
   -1.0840   25.3500  -28.3610 C   0  0  0  0  0  0  0  0  0  0  0  0
   -0.0320   24.7020  -28.6010 O   0  0  0  0  0  0  0  0  0  0  0  0
   -2.1710   25.2820  -29.2910 N   0  0  0  0  0  0  0  0  0  0  0  0
   -2.8050   24.0360  -29.7080 C   0  0  0  0  0  0  0  0  0  0  0  0
   -3.9730   23.7190  -28.7780 C   0  0  0  0  0  0  0  0  0  0  0  0
   -5.2300   24.2200  -29.3420 N   0  0  0  0  0  0  0  0  0  0  0  0
   -5.7710   25.3710  -28.9700 N   0  0  0  0  0  0  0  0  0  0  0  0
   -6.9150   25.5630  -29.6460 C   0  0  0  0  0  0  0  0  0  0  0  0
   -7.1210   24.4880  -30.4850 C   0  0  0  0  0  0  0  0  0  0  0  0
   -6.0360   23.6500  -30.2760 C   0  0  0  0  0  0  0  0  0  0  0  0
   -5.8820   22.2920  -30.9310 C   0  0  0  0  0  0  0  0  0  0  0  0
   -7.2430   21.6340  -31.2900 C   0  0  0  0  0  0  0  0  0  0  0  0
   -7.2690   21.0090  -32.6940 C   0  0  0  0  0  0  0  0  0  0  0  0
   -6.0110   20.3100  -32.9710 N   0  0  0  0  0  0  0  0  0  0  0  0
   -6.0440   18.9720  -33.4820 C   0  0  0  0  0  0  0  0  0  0  0  0
   -5.3190   18.6740  -34.5940 N   0  0  0  0  0  0  0  0  0  0  0  0
   -5.3100   17.4280  -35.1360 C   0  0  0  0  0  0  0  0  0  0  0  0
   -6.0630   16.4090  -34.5550 C   0  0  0  0  0  0  0  0  0  0  0  0
   -6.8120   16.6800  -33.4100 C   0  0  0  0  0  0  0  0  0  0  0  0
   -6.7990   17.9630  -32.8460 C   0  0  0  0  0  0  0  0  0  0  0  0
   -7.6240   18.2470  -31.6220 C   0  0  0  0  0  0  0  0  0  0  0  0
   -4.7140   20.9510  -32.7210 C   0  0  0  0  0  0  0  0  0  0  0  0
   -4.8870   22.3450  -32.1070 C   0  0  0  0  0  0  0  0  0  0  0  0
   -1.1023   25.5220  -26.2350 H   0  0  0  0  0  0  0  0  0  0  0  0
   -0.3461   26.9033  -27.0991 H   0  0  0  0  0  0  0  0  0  0  0  0
   -2.1323   26.7133  -27.0991 H   0  0  0  0  0  0  0  0  0  0  0  0
   -3.1756   24.1409  -30.7384 H   0  0  0  0  0  0  0  0  0  0  0  0
   -2.0698   23.2191  -29.6622 H   0  0  0  0  0  0  0  0  0  0  0  0
   -4.0447   22.6294  -28.6456 H   0  0  0  0  0  0  0  0  0  0  0  0
   -3.7984   24.2085  -27.8085 H   0  0  0  0  0  0  0  0  0  0  0  0
   -5.3700   26.0170  -28.2540 H   0  0  0  0  0  0  0  0  0  0  0  0
   -7.5789   26.4345  -29.5469 H   0  0  0  0  0  0  0  0  0  0  0  0
   -7.9649   24.3293  -31.1725 H   0  0  0  0  0  0  0  0  0  0  0  0
   -5.4400   21.6172  -30.1831 H   0  0  0  0  0  0  0  0  0  0  0  0
   -7.4535   20.8447  -30.5533 H   0  0  0  0  0  0  0  0  0  0  0  0
   -8.0018   22.4303  -31.2756 H   0  0  0  0  0  0  0  0  0  0  0  0
   -8.1016   20.2928  -32.7555 H   0  0  0  0  0  0  0  0  0  0  0  0
   -7.4004   21.8101  -33.4363 H   0  0  0  0  0  0  0  0  0  0  0  0
   -4.7082   17.2234  -36.0337 H   0  0  0  0  0  0  0  0  0  0  0  0
   -6.0665   15.4009  -34.9952 H   0  0  0  0  0  0  0  0  0  0  0  0
   -7.4148   15.8842  -32.9482 H   0  0  0  0  0  0  0  0  0  0  0  0
   -7.0267   18.0414  -30.7214 H   0  0  0  0  0  0  0  0  0  0  0  0
   -7.9322   19.3030  -31.6244 H   0  0  0  0  0  0  0  0  0  0  0  0
   -8.5168   17.6045  -31.6244 H   0  0  0  0  0  0  0  0  0  0  0  0
   -4.1330   20.3246  -32.0282 H   0  0  0  0  0  0  0  0  0  0  0  0
   -4.1907   21.0592  -33.6825 H   0  0  0  0  0  0  0  0  0  0  0  0
   -3.9133   22.7043  -31.7426 H   0  0  0  0  0  0  0  0  0  0  0  0
   -5.2774   23.0284  -32.8754 H   0  0  0  0  0  0  0  0  0  0  0  0
  1  2  1  0
  2  3  2  0
  2  4  1  0
  4  5  1  0
  5  6  1  0
  6  7  1  0
  7  8  1  0
  8  9  2  0
  9 10  1  0
 10 11  2  0
 11 12  1  0
 12 13  1  0
 13 14  1  0
 14 15  1  0
 15 16  1  0
 16 17  2  0
 17 18  1  0
 18 19  2  0
 19 20  1  0
 20 21  2  0
 21 22  1  0
 15 23  1  0
 23 24  1  0
 11  7  1  0
 24 12  1  0
 21 16  1  0
  1 25  1  0
  1 26  1  0
  1 27  1  0
  5 28  1  0
  5 29  1  0
  6 30  1  0
  6 31  1  0
  8 32  1  0
  9 33  1  0
 10 34  1  0
 12 35  1  0
 13 36  1  0
 13 37  1  0
 14 38  1  0
 14 39  1  0
 18 40  1  0
 19 41  1  0
 20 42  1  0
 22 43  1  0
 22 44  1  0
 22 45  1  0
 23 46  1  0
 23 47  1  0
 24 48  1  0
 24 49  1  0
M  CHG  2   4  -1   8   1
M  END
>  <UniqueID>  (20) 
20

>  <SMILES>  (20) 
CC(=O)[N-]CCn1[nH+]ccc1C1CCN(c2ncccc2C)CC1

>  <Energy>  (20) 
83.36290871655847

>  <Genealogy>  (20) 
CC(=O)[N-]CCn1[nH+]ccc1C1CCN(c2ncccc2C)CC1 (protonated)
CC(=O)[N-]CCn1[nH+]ccc1C1CCN(c2ncccc2C)CC1 (3D coordinates assigned)
CC(=O)[N-]CCn1[nH+]ccc1C1CCN(c2ncccc2C)CC1 (nonaromatic ring conformer: 83.36290871655847 kcal/mol)

>  <smiles>  (20) 
CC(=O)NCCn1nccc1C1CCN(c2ncccc2C)CC1

>  <score_type>  (20) 
oracle

>  <origin>  (20) 
adg

>  <m_score__min__energy>  (20) 
-10.42

>  <m_primary>  (20) 
energy

$$$$
20:0
     RDKit          3D

 36 38  0  0  0  0  0  0  0  0999 V2000
   -9.1380   20.5500  -32.3440 C   0  0  0  0  0  0  0  0  0  0  0  0
   -9.3830   21.5830  -31.5370 C   0  0  0  0  0  0  0  0  0  0  0  0
   -8.3460   21.9440  -30.5060 C   0  0  0  0  0  0  0  0  0  0  0  0
   -6.9700   21.9720  -31.0830 N   0  0  2  0  0  0  0  0  0  0  0  0
   -6.6710   23.3220  -31.6230 C   0  0  0  0  0  0  0  0  0  0  0  0
   -5.3780   23.8740  -31.0800 C   0  0  0  0  0  0  0  0  0  0  0  0
   -5.0670   25.2120  -30.8860 C   0  0  0  0  0  0  0  0  0  0  0  0
   -3.8600   25.3180  -30.3700 O   0  0  0  0  0  0  0  0  0  0  0  0
   -3.3700   24.1100  -30.2160 C   0  0  0  0  0  0  0  0  0  0  0  0
   -4.2650   23.1690  -30.6650 C   0  0  0  0  0  0  0  0  0  0  0  0
   -4.0510   21.6870  -30.5620 C   0  0  0  0  0  0  0  0  0  0  0  0
   -2.5600   21.3730  -30.3300 C   0  0  0  0  0  0  0  0  0  0  0  0
   -1.9420   22.2960  -29.2590 C   0  0  0  0  0  0  0  0  0  0  0  0
   -2.0120   23.7780  -29.6760 C   0  0  0  0  0  0  0  0  0  0  0  0
   -6.7040   20.9000  -32.1030 C   0  0  0  0  0  0  0  0  0  0  0  0
   -7.8200   19.8470  -32.2150 C   0  0  0  0  0  0  0  0  0  0  0  0
   -9.8828   20.2225  -33.0843 H   0  0  0  0  0  0  0  0  0  0  0  0
  -10.3179   22.1564  -31.6221 H   0  0  0  0  0  0  0  0  0  0  0  0
   -8.5808   22.9387  -30.0993 H   0  0  0  0  0  0  0  0  0  0  0  0
   -8.3685   21.1765  -29.7183 H   0  0  0  0  0  0  0  0  0  0  0  0
   -6.3200   21.8110  -30.2780 H   0  0  0  0  0  0  0  0  0  0  0  0
   -6.5974   23.2579  -32.7187 H   0  0  0  0  0  0  0  0  0  0  0  0
   -7.4836   23.9976  -31.3175 H   0  0  0  0  0  0  0  0  0  0  0  0
   -5.7288   26.0570  -31.1269 H   0  0  0  0  0  0  0  0  0  0  0  0
   -4.6393   21.2937  -29.7198 H   0  0  0  0  0  0  0  0  0  0  0  0
   -4.3726   21.2144  -31.5018 H   0  0  0  0  0  0  0  0  0  0  0  0
   -2.4630   20.3284  -29.9992 H   0  0  0  0  0  0  0  0  0  0  0  0
   -2.0236   21.5385  -31.2760 H   0  0  0  0  0  0  0  0  0  0  0  0
   -2.4913   22.1648  -28.3151 H   0  0  0  0  0  0  0  0  0  0  0  0
   -0.8832   22.0226  -29.1397 H   0  0  0  0  0  0  0  0  0  0  0  0
   -1.8069   24.4103  -28.7996 H   0  0  0  0  0  0  0  0  0  0  0  0
   -1.2635   23.9615  -30.4609 H   0  0  0  0  0  0  0  0  0  0  0  0
   -6.5828   21.3804  -33.0851 H   0  0  0  0  0  0  0  0  0  0  0  0
   -5.7987   20.3683  -31.7748 H   0  0  0  0  0  0  0  0  0  0  0  0
   -7.6479   19.2190  -33.1016 H   0  0  0  0  0  0  0  0  0  0  0  0
   -7.8231   19.2096  -31.3185 H   0  0  0  0  0  0  0  0  0  0  0  0
  1  2  2  0
  2  3  1  0
  3  4  1  0
  4  5  1  0
  5  6  1  0
  6  7  2  0
  7  8  1  0
  8  9  1  0
  9 10  2  0
 10 11  1  0
 11 12  1  0
 12 13  1  0
 13 14  1  0
  4 15  1  0
 15 16  1  0
 16  1  1  0
 10  6  1  0
 14  9  1  0
  1 17  1  0
  2 18  1  0
  3 19  1  0
  3 20  1  0
  4 21  1  1
  5 22  1  0
  5 23  1  0
  7 24  1  0
 11 25  1  0
 11 26  1  0
 12 27  1  0
 12 28  1  0
 13 29  1  0
 13 30  1  0
 14 31  1  0
 14 32  1  0
 15 33  1  0
 15 34  1  0
 16 35  1  0
 16 36  1  0
M  CHG  1   4   1
M  END
>  <UniqueID>  (21) 
21

>  <SMILES>  (21) 
C1=CC[N@H+](Cc2coc3c2CCCC3)CC1

>  <Energy>  (21) 
71.05430129366643

>  <Genealogy>  (21) 
C1=CC[NH+](Cc2coc3c2CCCC3)CC1 (protonated)
C1=CC[N@H+](Cc2coc3c2CCCC3)CC1 (chirality)
C1=CC[N@H+](Cc2coc3c2CCCC3)CC1 (3D coordinates assigned)
C1=CC[N@H+](Cc2coc3c2CCCC3)CC1 (nonaromatic ring conformer: 71.05430129366643 kcal/mol)

>  <smiles>  (21) 
C1=CCN(Cc2coc3c2CCCC3)CC1

>  <score_type>  (21) 
oracle

>  <origin>  (21) 
adg

>  <m_score__min__energy>  (21) 
-6.71

>  <m_primary>  (21) 
energy

$$$$
21:0
     RDKit          3D

 33 36  0  0  0  0  0  0  0  0999 V2000
   -4.3137   21.5364  -31.3471 H   0  0  0  0  0  0  0  0  0  0  0  0
   -4.4750   22.5940  -31.0910 C   0  0  0  0  0  0  0  0  0  0  0  0
   -3.4980   23.2910  -30.3750 C   0  0  0  0  0  0  0  0  0  0  0  0
   -2.5824   22.7723  -30.0547 H   0  0  0  0  0  0  0  0  0  0  0  0
   -3.6750   24.6440  -30.0620 C   0  0  0  0  0  0  0  0  0  0  0  0
   -2.6670   25.2980  -29.3400 O   0  0  0  0  0  0  0  0  0  0  0  0
   -2.0820   24.7980  -28.1420 C   0  0  0  0  0  0  0  0  0  0  0  0
   -2.5947   25.2362  -27.2730 H   0  0  0  0  0  0  0  0  0  0  0  0
   -2.1832   23.7030  -28.1138 H   0  0  0  0  0  0  0  0  0  0  0  0
   -1.0162   25.0685  -28.1138 H   0  0  0  0  0  0  0  0  0  0  0  0
   -4.8480   25.2960  -30.4840 C   0  0  0  0  0  0  0  0  0  0  0  0
   -4.9956   26.3607  -30.2503 H   0  0  0  0  0  0  0  0  0  0  0  0
   -5.8280   24.5990  -31.1990 C   0  0  0  0  0  0  0  0  0  0  0  0
   -6.7344   25.1215  -31.5387 H   0  0  0  0  0  0  0  0  0  0  0  0
   -5.6580   23.2320  -31.4850 C   0  0  0  0  0  0  0  0  0  0  0  0
   -6.6240   22.4850  -32.2460 N   0  0  0  0  0  0  0  0  0  0  0  0
   -6.5400   21.2350  -32.5970 C   0  0  0  0  0  0  0  0  0  0  0  0
   -5.4170   20.7190  -33.1860 N   0  0  0  0  0  0  0  0  0  0  0  0
   -5.3430   19.4100  -33.5800 C   0  0  0  0  0  0  0  0  0  0  0  0
   -4.1800   18.9040  -34.1730 C   0  0  0  0  0  0  0  0  0  0  0  0
   -3.3102   19.5595  -34.3273 H   0  0  0  0  0  0  0  0  0  0  0  0
   -4.1260   17.5630  -34.5690 C   0  0  0  0  0  0  0  0  0  0  0  0
   -3.2122   17.1668  -35.0358 H   0  0  0  0  0  0  0  0  0  0  0  0
   -5.2300   16.7220  -34.3740 C   0  0  0  0  0  0  0  0  0  0  0  0
   -5.1777   15.6689  -34.6873 H   0  0  0  0  0  0  0  0  0  0  0  0
   -6.3980   17.2150  -33.7830 C   0  0  0  0  0  0  0  0  0  0  0  0
   -7.2637   16.5534  -33.6315 H   0  0  0  0  0  0  0  0  0  0  0  0
   -6.4580   18.5580  -33.3850 C   0  0  0  0  0  0  0  0  0  0  0  0
   -7.5570   19.1040  -32.8080 N   0  0  0  0  0  0  0  0  0  0  0  0
   -8.7190   18.5500  -32.5210 N   0  0  0  0  0  0  0  0  0  0  0  0
   -9.4850   19.4860  -31.9680 N   0  0  0  0  0  0  0  0  0  0  0  0
   -8.8320   20.6450  -31.8920 N   0  0  0  0  0  0  0  0  0  0  0  0
   -7.6260   20.3780  -32.4260 C   0  0  0  0  0  0  0  0  0  0  0  0
  1  2  1  0
  2  3  2  0
  3  4  1  0
  3  5  1  0
  5  6  1  0
  6  7  1  0
  7  8  1  0
  7  9  1  0
  7 10  1  0
  5 11  2  0
 11 12  1  0
 11 13  1  0
 13 14  1  0
 13 15  2  0
 15 16  1  0
 16 17  2  0
 17 18  1  0
 18 19  1  0
 19 20  2  0
 20 21  1  0
 20 22  1  0
 22 23  1  0
 22 24  2  0
 24 25  1  0
 24 26  1  0
 26 27  1  0
 26 28  2  0
 28 29  1  0
 29 30  1  0
 30 31  2  0
 31 32  1  0
 32 33  2  0
 15  2  1  0
 33 17  1  0
 28 19  1  0
 33 29  1  0
M  CHG  1  18  -1
M  END
>  <UniqueID>  (22) 
22

>  <SMILES>  (22) 
COc1ccc(/N=c2\[n-]c3ccccc3n3nnnc23)cc1

>  <Energy>  (22) 
94.69729369278521

>  <Genealogy>  (22) 
COc1ccc(N=c2[n-]c3ccccc3n3nnnc23)cc1 (protonated)
COc1ccc(/N=c2\[n-]c3ccccc3n3nnnc23)cc1 (cis-trans isomerization)
COc1ccc(/N=c2\[n-]c3ccccc3n3nnnc23)cc1 (3D coordinates assigned)
COc1ccc(/N=c2\[n-]c3ccccc3n3nnnc23)cc1 (optimized conformer: 94.69729369278521 kcal/mol)

>  <smiles>  (22) 
COc1ccc(N=c2[nH]c3ccccc3n3nnnc23)cc1

>  <score_type>  (22) 
oracle

>  <origin>  (22) 
adg

>  <m_score__min__energy>  (22) 
-8.9199999999999999

>  <m_primary>  (22) 
energy

$$$$
22:0
     RDKit          3D

 39 40  0  0  0  0  0  0  0  0999 V2000
   -2.4520   23.2350  -27.1350 C   0  0  0  0  0  0  0  0  0  0  0  0
   -3.0230   23.0000  -28.5010 C   0  0  0  0  0  0  0  0  0  0  0  0
   -2.9120   21.7450  -29.1070 C   0  0  0  0  0  0  0  0  0  0  0  0
   -3.4140   21.5540  -30.3950 C   0  0  0  0  0  0  0  0  0  0  0  0
   -3.9930   22.5860  -31.0850 N   0  0  0  0  0  0  0  0  0  0  0  0
   -4.4900   22.3280  -32.4490 C   0  0  0  0  0  0  0  0  0  0  0  0
   -4.8330   20.8370  -32.6840 C   0  0  0  0  0  0  0  0  0  0  0  0
   -6.2500   20.4690  -32.4610 N   0  0  0  0  0  0  0  0  0  0  0  0
   -6.4660   19.0200  -32.2650 C   0  0  0  0  0  0  0  0  0  0  0  0
   -7.8380   18.6830  -31.6450 C   0  0  0  0  0  0  0  0  0  0  0  0
   -9.0430   19.2740  -32.3990 C   0  0  0  0  0  0  0  0  0  0  0  0
   -9.4180   20.6780  -31.8870 C   0  0  0  0  0  0  0  0  0  0  0  0
   -8.3210   21.7280  -32.1090 C   0  0  0  0  0  0  0  0  0  0  0  0
   -6.9720   21.3320  -31.5060 C   0  0  0  0  0  0  0  0  0  0  0  0
   -4.1090   23.8250  -30.5000 C   0  0  0  0  0  0  0  0  0  0  0  0
   -4.6560   24.7810  -31.1140 O   0  0  0  0  0  0  0  0  0  0  0  0
   -3.6150   24.0480  -29.2100 C   0  0  0  0  0  0  0  0  0  0  0  0
   -3.1862   22.9328  -26.3737 H   0  0  0  0  0  0  0  0  0  0  0  0
   -1.5336   22.6418  -27.0145 H   0  0  0  0  0  0  0  0  0  0  0  0
   -2.2172   24.3029  -27.0145 H   0  0  0  0  0  0  0  0  0  0  0  0
   -2.4317   20.9128  -28.5715 H   0  0  0  0  0  0  0  0  0  0  0  0
   -3.3438   20.5609  -30.8627 H   0  0  0  0  0  0  0  0  0  0  0  0
   -5.3969   22.9285  -32.6133 H   0  0  0  0  0  0  0  0  0  0  0  0
   -3.6902   22.6014  -33.1529 H   0  0  0  0  0  0  0  0  0  0  0  0
   -4.5779   20.5900  -33.7251 H   0  0  0  0  0  0  0  0  0  0  0  0
   -4.2521   20.2713  -31.9407 H   0  0  0  0  0  0  0  0  0  0  0  0
   -6.3933   18.5213  -33.2428 H   0  0  0  0  0  0  0  0  0  0  0  0
   -5.6968   18.6695  -31.5611 H   0  0  0  0  0  0  0  0  0  0  0  0
   -7.9473   17.5886  -31.6272 H   0  0  0  0  0  0  0  0  0  0  0  0
   -7.8462   19.1331  -30.6413 H   0  0  0  0  0  0  0  0  0  0  0  0
   -8.7934   19.3418  -33.4682 H   0  0  0  0  0  0  0  0  0  0  0  0
   -9.9049   18.6116  -32.2304 H   0  0  0  0  0  0  0  0  0  0  0  0
  -10.3264   21.0082  -32.4122 H   0  0  0  0  0  0  0  0  0  0  0  0
   -9.5687   20.5948  -30.8006 H   0  0  0  0  0  0  0  0  0  0  0  0
   -8.1903   21.8726  -33.1916 H   0  0  0  0  0  0  0  0  0  0  0  0
   -8.6455   22.6494  -31.6034 H   0  0  0  0  0  0  0  0  0  0  0  0
   -6.3786   22.2363  -31.3055 H   0  0  0  0  0  0  0  0  0  0  0  0
   -7.1331   20.7878  -30.5637 H   0  0  0  0  0  0  0  0  0  0  0  0
   -3.6926   25.0465  -28.7551 H   0  0  0  0  0  0  0  0  0  0  0  0
  1  2  1  0
  2  3  1  0
  3  4  2  0
  4  5  1  0
  5  6  1  0
  6  7  1  0
  7  8  1  0
  8  9  1  0
  9 10  1  0
 10 11  1  0
 11 12  1  0
 12 13  1  0
 13 14  1  0
  5 15  1  0
 15 16  2  0
 15 17  1  0
 17  2  2  0
 14  8  1  0
  1 18  1  0
  1 19  1  0
  1 20  1  0
  3 21  1  0
  4 22  1  0
  6 23  1  0
  6 24  1  0
  7 25  1  0
  7 26  1  0
  9 27  1  0
  9 28  1  0
 10 29  1  0
 10 30  1  0
 11 31  1  0
 11 32  1  0
 12 33  1  0
 12 34  1  0
 13 35  1  0
 13 36  1  0
 14 37  1  0
 14 38  1  0
 17 39  1  0
M  END
>  <UniqueID>  (23) 
23

>  <SMILES>  (23) 
Cc1ccn(CCN2CCCCCC2)c(=O)c1

>  <Energy>  (23) 
45.641113571309624

>  <Genealogy>  (23) 
Cc1ccn(CCN2CCCCCC2)c(=O)c1 (3D coordinates assigned)
Cc1ccn(CCN2CCCCCC2)c(=O)c1 (nonaromatic ring conformer: 45.641113571309624 kcal/mol)

>  <smiles>  (23) 
Cc1ccn(CCN2CCCCCC2)c(=O)c1

>  <score_type>  (23) 
oracle

>  <origin>  (23) 
adg

>  <m_score__min__energy>  (23) 
-4.96

>  <m_primary>  (23) 
energy

$$$$
23:0
     RDKit          3D

 48 52  0  0  0  0  0  0  0  0999 V2000
   -5.5940   24.7930  -29.4590 O   0  0  0  0  0  0  0  0  0  0  0  0
   -4.8670   24.5130  -30.4510 C   0  0  0  0  0  0  0  0  0  0  0  0
   -3.4750   24.8550  -30.4580 N   0  0  0  0  0  0  0  0  0  0  0  0
   -2.4690   24.3560  -29.5650 C   0  0  0  0  0  0  0  0  0  0  0  0
   -1.6350   23.2750  -29.9070 C   0  0  0  0  0  0  0  0  0  0  0  0
   -0.6820   22.8070  -28.9960 C   0  0  0  0  0  0  0  0  0  0  0  0
   -0.5640   23.4020  -27.7370 C   0  0  0  0  0  0  0  0  0  0  0  0
   -1.4050   24.4600  -27.3830 C   0  0  0  0  0  0  0  0  0  0  0  0
   -2.3590   24.9300  -28.2910 C   0  0  0  0  0  0  0  0  0  0  0  0
   -5.4470   23.7550  -31.6120 C   0  0  2  0  0  0  0  0  0  0  0  0
   -6.9260   24.1550  -31.8750 C   0  0  0  0  0  0  0  0  0  0  0  0
   -7.6530   22.8590  -31.7790 C   0  0  0  0  0  0  0  0  0  0  0  0
   -9.0120   22.6260  -32.0000 C   0  0  0  0  0  0  0  0  0  0  0  0
   -9.4880   21.3090  -31.9180 C   0  0  0  0  0  0  0  0  0  0  0  0
   -8.6030   20.2520  -31.6370 C   0  0  0  0  0  0  0  0  0  0  0  0
   -7.2380   20.5090  -31.4250 C   0  0  0  0  0  0  0  0  0  0  0  0
   -6.7920   21.8360  -31.4780 C   0  0  0  0  0  0  0  0  0  0  0  0
   -5.4610   22.3140  -31.3300 N   0  0  0  0  0  0  0  0  0  0  0  0
   -4.2820   21.5350  -31.0650 C   0  0  0  0  0  0  0  0  0  0  0  0
   -3.9740   21.2690  -29.8720 O   0  0  0  0  0  0  0  0  0  0  0  0
   -3.4960   20.9370  -32.1680 C   0  0  0  0  0  0  0  0  0  0  0  0
   -2.3440   21.6100  -32.6010 C   0  0  0  0  0  0  0  0  0  0  0  0
   -1.5990   21.1090  -33.6680 C   0  0  0  0  0  0  0  0  0  0  0  0
   -1.9830   19.9660  -34.2900 N   0  0  0  0  0  0  0  0  0  0  0  0
   -3.0830   19.2700  -33.9000 C   0  0  0  0  0  0  0  0  0  0  0  0
   -3.4240   18.0890  -34.5680 C   0  0  0  0  0  0  0  0  0  0  0  0
   -4.5320   17.3470  -34.1600 C   0  0  0  0  0  0  0  0  0  0  0  0
   -5.3020   17.7750  -33.0780 C   0  0  0  0  0  0  0  0  0  0  0  0
   -4.9760   18.9560  -32.4040 C   0  0  0  0  0  0  0  0  0  0  0  0
   -3.8730   19.7330  -32.8160 C   0  0  0  0  0  0  0  0  0  0  0  0
   -1.7328   22.7970  -30.8929 H   0  0  0  0  0  0  0  0  0  0  0  0
   -0.0244   21.9692  -29.2712 H   0  0  0  0  0  0  0  0  0  0  0  0
    0.1909   23.0374  -27.0248 H   0  0  0  0  0  0  0  0  0  0  0  0
   -1.3167   24.9236  -26.3894 H   0  0  0  0  0  0  0  0  0  0  0  0
   -3.0272   25.7552  -28.0037 H   0  0  0  0  0  0  0  0  0  0  0  0
   -4.8181   23.9953  -32.4819 H   0  0  0  0  0  0  0  0  0  0  0  0
   -7.2836   24.8648  -31.1145 H   0  0  0  0  0  0  0  0  0  0  0  0
   -7.0704   24.6592  -32.8419 H   0  0  0  0  0  0  0  0  0  0  0  0
   -9.6942   23.4568  -32.2332 H   0  0  0  0  0  0  0  0  0  0  0  0
  -10.5570   21.1019  -32.0740 H   0  0  0  0  0  0  0  0  0  0  0  0
   -8.9811   19.2204  -31.5831 H   0  0  0  0  0  0  0  0  0  0  0  0
   -6.5357   19.6871  -31.2221 H   0  0  0  0  0  0  0  0  0  0  0  0
   -2.0274   22.5354  -32.0976 H   0  0  0  0  0  0  0  0  0  0  0  0
   -0.6980   21.6417  -34.0062 H   0  0  0  0  0  0  0  0  0  0  0  0
   -2.8162   17.7446  -35.4177 H   0  0  0  0  0  0  0  0  0  0  0  0
   -4.7995   16.4223  -34.6923 H   0  0  0  0  0  0  0  0  0  0  0  0
   -6.1691   17.1809  -32.7538 H   0  0  0  0  0  0  0  0  0  0  0  0
   -5.5837   19.2814  -31.5468 H   0  0  0  0  0  0  0  0  0  0  0  0
  1  2  2  0
  2  3  1  0
  3  4  1  0
  4  5  2  0
  5  6  1  0
  6  7  2  0
  7  8  1  0
  8  9  2  0
  2 10  1  0
 10 11  1  0
 11 12  1  0
 12 13  2  0
 13 14  1  0
 14 15  2  0
 15 16  1  0
 16 17  2  0
 17 18  1  0
 18 19  1  0
 19 20  2  0
 19 21  1  0
 21 22  2  0
 22 23  1  0
 23 24  2  0
 24 25  1  0
 25 26  2  0
 26 27  1  0
 27 28  2  0
 28 29  1  0
 29 30  2  0
  9  4  1  0
 18 10  1  0
 30 21  1  0
 17 12  1  0
 30 25  1  0
  5 31  1  0
  6 32  1  0
  7 33  1  0
  8 34  1  0
  9 35  1  0
 10 36  1  6
 11 37  1  0
 11 38  1  0
 13 39  1  0
 14 40  1  0
 15 41  1  0
 16 42  1  0
 22 43  1  0
 23 44  1  0
 26 45  1  0
 27 46  1  0
 28 47  1  0
 29 48  1  0
M  CHG  1   3  -1
M  END
>  <UniqueID>  (24) 
24

>  <SMILES>  (24) 
O=C([N-]c1ccccc1)[C@@H]1Cc2ccccc2N1C(=O)c1ccnc2ccccc12

>  <Energy>  (24) 
84.94555684195933

>  <Genealogy>  (24) 
O=C([N-]c1ccccc1)C1Cc2ccccc2N1C(=O)c1ccnc2ccccc12 (protonated)
O=C([N-]c1ccccc1)[C@@H]1Cc2ccccc2N1C(=O)c1ccnc2ccccc12 (chirality)
O=C([N-]c1ccccc1)[C@@H]1Cc2ccccc2N1C(=O)c1ccnc2ccccc12 (3D coordinates assigned)
O=C([N-]c1ccccc1)[C@@H]1Cc2ccccc2N1C(=O)c1ccnc2ccccc12 (nonaromatic ring conformer: 84.94555684195933 kcal/mol)

>  <smiles>  (24) 
O=C(Nc1ccccc1)C1Cc2ccccc2N1C(=O)c1ccnc2ccccc12

>  <score_type>  (24) 
oracle

>  <origin>  (24) 
adg

>  <m_score__min__energy>  (24) 
-11.73

>  <m_primary>  (24) 
energy

$$$$
24:0
     RDKit          3D

 28 29  0  0  0  0  0  0  0  0999 V2000
   -6.0850   25.6350  -29.7150 C   0  0  0  0  0  0  0  0  0  0  0  0
   -5.4790   25.2200  -30.9340 O   0  0  0  0  0  0  0  0  0  0  0  0
   -5.2110   23.8780  -31.2260 C   0  0  0  0  0  0  0  0  0  0  0  0
   -4.0220   23.4560  -31.2240 O   0  0  0  0  0  0  0  0  0  0  0  0
   -6.3270   22.9580  -31.5370 C   0  0  0  0  0  0  0  0  0  0  0  0
   -7.6570   23.3510  -31.3100 C   0  0  0  0  0  0  0  0  0  0  0  0
   -8.6960   22.4740  -31.6130 C   0  0  0  0  0  0  0  0  0  0  0  0
   -8.4130   21.2140  -32.1370 C   0  0  0  0  0  0  0  0  0  0  0  0
   -7.0770   20.8380  -32.3570 C   0  0  0  0  0  0  0  0  0  0  0  0
   -6.7580   19.4960  -32.9060 C   0  0  0  0  0  0  0  0  0  0  0  0
   -6.0320   19.3730  -34.1050 C   0  0  0  0  0  0  0  0  0  0  0  0
   -5.7320   18.1110  -34.6250 C   0  0  0  0  0  0  0  0  0  0  0  0
   -6.1530   16.9590  -33.9560 C   0  0  0  0  0  0  0  0  0  0  0  0
   -6.8740   17.0680  -32.7660 C   0  0  0  0  0  0  0  0  0  0  0  0
   -7.1760   18.3280  -32.2400 C   0  0  0  0  0  0  0  0  0  0  0  0
   -6.0740   21.7160  -32.0520 N   0  0  0  0  0  0  0  0  0  0  0  0
   -5.5082   25.2400  -28.8657 H   0  0  0  0  0  0  0  0  0  0  0  0
   -6.1001   26.7339  -29.6685 H   0  0  0  0  0  0  0  0  0  0  0  0
   -7.1151   25.2518  -29.6685 H   0  0  0  0  0  0  0  0  0  0  0  0
   -7.8764   24.3459  -30.8952 H   0  0  0  0  0  0  0  0  0  0  0  0
   -9.7393   22.7758  -31.4388 H   0  0  0  0  0  0  0  0  0  0  0  0
   -9.2304   20.5181  -32.3769 H   0  0  0  0  0  0  0  0  0  0  0  0
   -5.6983   20.2763  -34.6367 H   0  0  0  0  0  0  0  0  0  0  0  0
   -5.1634   18.0245  -35.5627 H   0  0  0  0  0  0  0  0  0  0  0  0
   -5.9163   15.9665  -34.3670 H   0  0  0  0  0  0  0  0  0  0  0  0
   -7.2056   16.1603  -32.2404 H   0  0  0  0  0  0  0  0  0  0  0  0
   -7.7432   18.4071  -31.3008 H   0  0  0  0  0  0  0  0  0  0  0  0
   -5.0850   21.4370  -32.2400 H   0  0  0  0  0  0  0  0  0  0  0  0
  1  2  1  0
  2  3  1  0
  3  4  2  0
  3  5  1  0
  5  6  2  0
  6  7  1  0
  7  8  2  0
  8  9  1  0
  9 10  1  0
 10 11  2  0
 11 12  1  0
 12 13  2  0
 13 14  1  0
 14 15  2  0
  9 16  2  0
 16  5  1  0
 15 10  1  0
  1 17  1  0
  1 18  1  0
  1 19  1  0
  6 20  1  0
  7 21  1  0
  8 22  1  0
 11 23  1  0
 12 24  1  0
 13 25  1  0
 14 26  1  0
 15 27  1  0
 16 28  1  0
M  CHG  1  16   1
M  END
>  <UniqueID>  (25) 
25

>  <SMILES>  (25) 
COC(=O)c1cccc(-c2ccccc2)[nH+]1

>  <Energy>  (25) 
32.011362184777816

>  <Genealogy>  (25) 
COC(=O)c1cccc(-c2ccccc2)[nH+]1 (protonated)
COC(=O)c1cccc(-c2ccccc2)[nH+]1 (3D coordinates assigned)
COC(=O)c1cccc(-c2ccccc2)[nH+]1 (optimized conformer: 32.011362184777816 kcal/mol)

>  <smiles>  (25) 
COC(=O)c1cccc(-c2ccccc2)n1

>  <score_type>  (25) 
oracle

>  <origin>  (25) 
adg

>  <m_score__min__energy>  (25) 
-6.2400000000000002

>  <m_primary>  (25) 
energy

$$$$
25:0
     RDKit          3D

 52 54  0  0  0  0  0  0  0  0999 V2000
   -2.2100   20.9990  -27.0960 C   0  0  0  0  0  0  0  0  0  0  0  0
   -2.7010   21.3020  -28.4730 C   0  0  0  0  0  0  0  0  0  0  0  0
   -2.6280   20.4450  -29.4750 O   0  0  0  0  0  0  0  0  0  0  0  0
   -3.1440   21.0250  -30.5330 C   0  0  0  0  0  0  0  0  0  0  0  0
   -3.2710   20.4890  -31.8100 C   0  0  0  0  0  0  0  0  0  0  0  0
   -3.8550   21.2900  -32.8040 C   0  0  0  0  0  0  0  0  0  0  0  0
   -4.2960   22.5980  -32.5050 C   0  0  0  0  0  0  0  0  0  0  0  0
   -4.1540   23.1260  -31.1980 C   0  0  0  0  0  0  0  0  0  0  0  0
   -4.5730   24.4180  -30.8400 O   0  0  0  0  0  0  0  0  0  0  0  0
   -5.9280   24.8550  -30.7660 C   0  0  0  0  0  0  0  0  0  0  0  0
   -6.8570   23.6770  -30.4570 C   0  0  0  0  0  0  0  0  0  0  0  0
   -7.6170   23.2290  -31.7130 C   0  0  0  0  0  0  0  0  0  0  0  0
   -8.5000   21.9990  -31.4430 C   0  0  0  0  0  0  0  0  0  0  0  0
   -8.3550   20.9600  -32.4890 N   0  0  0  0  0  0  0  0  0  0  0  0
   -6.9270   20.6070  -32.7150 C   0  0  0  0  0  0  0  0  0  0  0  0
   -6.7670   19.2190  -33.3480 C   0  0  0  0  0  0  0  0  0  0  0  0
   -7.3410   18.1110  -32.4320 C   0  0  0  0  0  0  0  0  0  0  0  0
   -6.2410   17.4600  -31.5850 C   0  0  0  0  0  0  0  0  0  0  0  0
   -8.4780   18.6420  -31.5290 C   0  0  0  0  0  0  0  0  0  0  0  0
   -9.2300   19.7900  -32.2140 C   0  0  0  0  0  0  0  0  0  0  0  0
   -3.5690   22.2960  -30.2350 C   0  0  0  0  0  0  0  0  0  0  0  0
   -3.2880   22.4930  -28.8960 C   0  0  0  0  0  0  0  0  0  0  0  0
   -3.5540   23.7250  -28.0850 C   0  0  0  0  0  0  0  0  0  0  0  0
   -2.9034   21.4269  -26.3570 H   0  0  0  0  0  0  0  0  0  0  0  0
   -2.1541   19.9091  -26.9582 H   0  0  0  0  0  0  0  0  0  0  0  0
   -1.2107   21.4377  -26.9582 H   0  0  0  0  0  0  0  0  0  0  0  0
   -2.9247   19.4693  -32.0342 H   0  0  0  0  0  0  0  0  0  0  0  0
   -3.9701   20.8956  -33.8244 H   0  0  0  0  0  0  0  0  0  0  0  0
   -4.7539   23.2124  -33.2942 H   0  0  0  0  0  0  0  0  0  0  0  0
   -6.0221   25.6084  -29.9700 H   0  0  0  0  0  0  0  0  0  0  0  0
   -6.2147   25.2886  -31.7354 H   0  0  0  0  0  0  0  0  0  0  0  0
   -6.2570   22.8353  -30.0807 H   0  0  0  0  0  0  0  0  0  0  0  0
   -7.5891   23.9980  -29.7013 H   0  0  0  0  0  0  0  0  0  0  0  0
   -8.2556   24.0564  -32.0559 H   0  0  0  0  0  0  0  0  0  0  0  0
   -6.8766   22.9547  -32.4788 H   0  0  0  0  0  0  0  0  0  0  0  0
   -8.2154   21.5658  -30.4728 H   0  0  0  0  0  0  0  0  0  0  0  0
   -9.5484   22.3318  -31.4435 H   0  0  0  0  0  0  0  0  0  0  0  0
   -6.4786   21.3557  -33.3847 H   0  0  0  0  0  0  0  0  0  0  0  0
   -6.4236   20.5925  -31.7370 H   0  0  0  0  0  0  0  0  0  0  0  0
   -7.3007   19.2005  -34.3097 H   0  0  0  0  0  0  0  0  0  0  0  0
   -5.6938   19.0264  -33.4935 H   0  0  0  0  0  0  0  0  0  0  0  0
   -7.7685   17.3419  -33.0921 H   0  0  0  0  0  0  0  0  0  0  0  0
   -6.4710   17.5961  -30.5180 H   0  0  0  0  0  0  0  0  0  0  0  0
   -6.1889   16.3855  -31.8147 H   0  0  0  0  0  0  0  0  0  0  0  0
   -5.2740   17.9314  -31.8147 H   0  0  0  0  0  0  0  0  0  0  0  0
   -9.1830   17.8241  -31.3192 H   0  0  0  0  0  0  0  0  0  0  0  0
   -8.0375   19.0188  -30.5941 H   0  0  0  0  0  0  0  0  0  0  0  0
   -9.6397   19.4242  -33.1671 H   0  0  0  0  0  0  0  0  0  0  0  0
  -10.0267   20.1216  -31.5319 H   0  0  0  0  0  0  0  0  0  0  0  0
   -3.5006   23.4779  -27.0145 H   0  0  0  0  0  0  0  0  0  0  0  0
   -2.8004   24.4902  -28.3227 H   0  0  0  0  0  0  0  0  0  0  0  0
   -4.5562   24.1111  -28.3227 H   0  0  0  0  0  0  0  0  0  0  0  0
  1  2  1  0
  2  3  1  0
  3  4  1  0
  4  5  2  0
  5  6  1  0
  6  7  2  0
  7  8  1  0
  8  9  1  0
  9 10  1  0
 10 11  1  0
 11 12  1  0
 12 13  1  0
 13 14  1  0
 14 15  1  0
 15 16  1  0
 16 17  1  0
 17 18  1  0
 17 19  1  0
 19 20  1  0
  8 21  2  0
 21 22  1  0
 22 23  1  0
 22  2  2  0
 21  4  1  0
 20 14  1  0
  1 24  1  0
  1 25  1  0
  1 26  1  0
  5 27  1  0
  6 28  1  0
  7 29  1  0
 10 30  1  0
 10 31  1  0
 11 32  1  0
 11 33  1  0
 12 34  1  0
 12 35  1  0
 13 36  1  0
 13 37  1  0
 15 38  1  0
 15 39  1  0
 16 40  1  0
 16 41  1  0
 17 42  1  0
 18 43  1  0
 18 44  1  0
 18 45  1  0
 19 46  1  0
 19 47  1  0
 20 48  1  0
 20 49  1  0
 23 50  1  0
 23 51  1  0
 23 52  1  0
M  END
>  <UniqueID>  (26) 
26

>  <SMILES>  (26) 
Cc1oc2cccc(OCCCCN3CCC(C)CC3)c2c1C

>  <Energy>  (26) 
85.54405206602465

>  <Genealogy>  (26) 
Cc1oc2cccc(OCCCCN3CCC(C)CC3)c2c1C (3D coordinates assigned)
Cc1oc2cccc(OCCCCN3CCC(C)CC3)c2c1C (nonaromatic ring conformer: 85.54405206602465 kcal/mol)

>  <smiles>  (26) 
Cc1oc2cccc(OCCCCN3CCC(C)CC3)c2c1C

>  <score_type>  (26) 
oracle

>  <origin>  (26) 
adg

>  <m_score__min__energy>  (26) 
-8.4299999999999997

>  <m_primary>  (26) 
energy

$$$$
26:0
     RDKit          3D

 32 34  0  0  0  0  0  0  0  0999 V2000
   -7.1390   19.7610  -31.6710 C   0  0  0  0  0  0  0  0  0  0  0  0
   -7.3260   21.2470  -31.7780 C   0  0  0  0  0  0  0  0  0  0  0  0
   -6.3420   22.2240  -31.6790 C   0  0  0  0  0  0  0  0  0  0  0  0
   -4.8860   22.0730  -31.4440 C   0  0  0  0  0  0  0  0  0  0  0  0
   -4.1850   22.8270  -30.5650 N   0  0  0  0  0  0  0  0  0  0  0  0
   -2.8610   22.5030  -30.5220 C   0  0  0  0  0  0  0  0  0  0  0  0
   -1.8960   23.2030  -29.6410 C   0  0  0  0  0  0  0  0  0  0  0  0
   -0.8090   22.4960  -29.0950 C   0  0  0  0  0  0  0  0  0  0  0  0
    0.1180   23.1430  -28.2720 C   0  0  0  0  0  0  0  0  0  0  0  0
   -0.0310   24.5010  -27.9830 C   0  0  0  0  0  0  0  0  0  0  0  0
   -1.1100   25.2120  -28.5100 C   0  0  0  0  0  0  0  0  0  0  0  0
   -2.0460   24.5710  -29.3310 C   0  0  0  0  0  0  0  0  0  0  0  0
   -3.1330   25.2980  -29.8060 O   0  0  0  0  0  0  0  0  0  0  0  0
   -2.4880   21.4770  -31.3890 C   0  0  0  0  0  0  0  0  0  0  0  0
   -3.8670   20.9710  -32.2050 S   0  0  0  0  0  0  0  0  0  0  0  0
   -7.0190   23.4200  -31.8470 C   0  0  0  0  0  0  0  0  0  0  0  0
   -8.3300   23.1750  -32.0330 N   0  0  0  0  0  0  0  0  0  0  0  0
   -8.5100   21.8650  -31.9900 N   0  0  0  0  0  0  0  0  0  0  0  0
   -9.8140   21.2330  -32.1550 C   0  0  0  0  0  0  0  0  0  0  0  0
   -7.1026   19.4715  -30.6104 H   0  0  0  0  0  0  0  0  0  0  0  0
   -7.9798   19.2493  -32.1621 H   0  0  0  0  0  0  0  0  0  0  0  0
   -6.1976   19.4736  -32.1621 H   0  0  0  0  0  0  0  0  0  0  0  0
   -4.6050   23.6010  -30.0050 H   0  0  0  0  0  0  0  0  0  0  0  0
   -0.6874   21.4256  -29.3173 H   0  0  0  0  0  0  0  0  0  0  0  0
    0.9655   22.5816  -27.8518 H   0  0  0  0  0  0  0  0  0  0  0  0
    0.7020   25.0102  -27.3401 H   0  0  0  0  0  0  0  0  0  0  0  0
   -1.2258   26.2813  -28.2793 H   0  0  0  0  0  0  0  0  0  0  0  0
   -1.4734   21.0716  -31.5161 H   0  0  0  0  0  0  0  0  0  0  0  0
   -6.5566   24.4179  -31.8310 H   0  0  0  0  0  0  0  0  0  0  0  0
  -10.2474   21.0229  -31.1660 H   0  0  0  0  0  0  0  0  0  0  0  0
  -10.4808   21.9079  -32.7117 H   0  0  0  0  0  0  0  0  0  0  0  0
   -9.6973   20.2915  -32.7117 H   0  0  0  0  0  0  0  0  0  0  0  0
  1  2  1  0
  2  3  2  0
  3  4  1  0
  4  5  2  0
  5  6  1  0
  6  7  1  0
  7  8  2  0
  8  9  1  0
  9 10  2  0
 10 11  1  0
 11 12  2  0
 12 13  1  0
  6 14  2  0
 14 15  1  0
  3 16  1  0
 16 17  2  0
 17 18  1  0
 18 19  1  0
 18  2  1  0
 15  4  1  0
 12  7  1  0
  1 20  1  0
  1 21  1  0
  1 22  1  0
  5 23  1  0
  8 24  1  0
  9 25  1  0
 10 26  1  0
 11 27  1  0
 14 28  1  0
 16 29  1  0
 19 30  1  0
 19 31  1  0
 19 32  1  0
M  CHG  2   5   1  13  -1
M  END
>  <UniqueID>  (27) 
27

>  <SMILES>  (27) 
Cc1c(-c2[nH+]c(-c3ccccc3[O-])cs2)cnn1C

>  <Energy>  (27) 
99.03073802247248

>  <Genealogy>  (27) 
Cc1c(-c2[nH+]c(-c3ccccc3[O-])cs2)cnn1C (protonated)
Cc1c(-c2[nH+]c(-c3ccccc3[O-])cs2)cnn1C (3D coordinates assigned)
Cc1c(-c2[nH+]c(-c3ccccc3[O-])cs2)cnn1C (optimized conformer: 99.03073802247248 kcal/mol)

>  <smiles>  (27) 
Cc1c(-c2nc(-c3ccccc3O)cs2)cnn1C

>  <score_type>  (27) 
oracle

>  <origin>  (27) 
adg

>  <m_score__min__energy>  (27) 
-9.5600000000000005

>  <m_primary>  (27) 
energy

$$$$
27:0
     RDKit          3D

 54 58  0  0  0  0  0  0  0  0999 V2000
   -0.5300   24.5410  -29.4100 O   0  0  0  0  0  0  0  0  0  0  0  0
   -1.6280   24.0830  -28.9980 C   0  0  0  0  0  0  0  0  0  0  0  0
   -2.8460   24.8090  -29.2170 N   0  0  0  0  0  0  0  0  0  0  0  0
   -3.7720   24.6350  -30.3390 C   0  0  0  0  0  0  0  0  0  0  0  0
   -5.1730   25.1610  -29.9970 C   0  0  0  0  0  0  0  0  0  0  0  0
   -6.1320   24.9310  -31.1760 C   0  0  0  0  0  0  0  0  0  0  0  0
   -6.1870   23.5110  -31.5880 N   0  0  0  0  0  0  0  0  0  0  0  0
   -6.9160   22.6680  -30.6160 C   0  0  0  0  0  0  0  0  0  0  0  0
   -7.5360   21.4780  -31.2990 C   0  0  0  0  0  0  0  0  0  0  0  0
   -6.7450   20.3650  -31.6300 C   0  0  0  0  0  0  0  0  0  0  0  0
   -7.3220   19.2520  -32.2510 C   0  0  0  0  0  0  0  0  0  0  0  0
   -8.6900   19.2380  -32.5370 C   0  0  0  0  0  0  0  0  0  0  0  0
   -9.4840   20.3390  -32.2020 C   0  0  0  0  0  0  0  0  0  0  0  0
   -8.9130   21.4550  -31.5840 C   0  0  0  0  0  0  0  0  0  0  0  0
   -4.8420   22.9930  -31.9360 C   0  0  0  0  0  0  0  0  0  0  0  0
   -3.8200   23.1720  -30.8020 C   0  0  0  0  0  0  0  0  0  0  0  0
   -1.6760   22.7790  -28.3110 C   0  0  0  0  0  0  0  0  0  0  0  0
   -1.7900   22.6390  -26.9110 C   0  0  0  0  0  0  0  0  0  0  0  0
   -1.8690   21.2810  -26.7490 C   0  0  0  0  0  0  0  0  0  0  0  0
   -1.9570   20.4280  -25.7650 O   0  0  0  0  0  0  0  0  0  0  0  0
   -1.9480   19.2250  -26.3420 C   0  0  0  0  0  0  0  0  0  0  0  0
   -1.8480   19.3310  -27.7410 C   0  0  0  0  0  0  0  0  0  0  0  0
   -1.8160   20.6880  -27.9180 C   0  0  0  0  0  0  0  0  0  0  0  0
   -1.6840   21.5530  -28.9330 N   0  0  0  0  0  0  0  0  0  0  0  0
   -1.4970   21.2240  -30.3180 C   0  0  0  0  0  0  0  0  0  0  0  0
   -2.4810   20.5040  -31.0110 C   0  0  0  0  0  0  0  0  0  0  0  0
   -2.2930   20.1650  -32.3550 C   0  0  0  0  0  0  0  0  0  0  0  0
   -1.1160   20.5360  -33.0130 C   0  0  0  0  0  0  0  0  0  0  0  0
   -0.8830   20.1130  -34.7000 Cl  0  0  0  0  0  0  0  0  0  0  0  0
   -0.1230   21.2400  -32.3240 C   0  0  0  0  0  0  0  0  0  0  0  0
   -0.3080   21.5770  -30.9800 C   0  0  0  0  0  0  0  0  0  0  0  0
   -3.3910   25.2354  -31.1782 H   0  0  0  0  0  0  0  0  0  0  0  0
   -5.5533   24.6310  -29.1113 H   0  0  0  0  0  0  0  0  0  0  0  0
   -5.1099   26.2400  -29.7925 H   0  0  0  0  0  0  0  0  0  0  0  0
   -7.1412   25.2521  -30.8786 H   0  0  0  0  0  0  0  0  0  0  0  0
   -5.7595   25.5146  -32.0308 H   0  0  0  0  0  0  0  0  0  0  0  0
   -6.2138   22.3163  -29.8458 H   0  0  0  0  0  0  0  0  0  0  0  0
   -7.7163   23.2686  -30.1592 H   0  0  0  0  0  0  0  0  0  0  0  0
   -5.6693   20.3687  -31.4003 H   0  0  0  0  0  0  0  0  0  0  0  0
   -6.6975   18.3858  -32.5148 H   0  0  0  0  0  0  0  0  0  0  0  0
   -9.1415   18.3617  -33.0251 H   0  0  0  0  0  0  0  0  0  0  0  0
  -10.5610   20.3268  -32.4254 H   0  0  0  0  0  0  0  0  0  0  0  0
   -9.5423   22.3177  -31.3198 H   0  0  0  0  0  0  0  0  0  0  0  0
   -4.9275   21.9206  -32.1653 H   0  0  0  0  0  0  0  0  0  0  0  0
   -4.4800   23.5690  -32.8004 H   0  0  0  0  0  0  0  0  0  0  0  0
   -4.1074   22.5341  -29.9532 H   0  0  0  0  0  0  0  0  0  0  0  0
   -2.8252   22.8868  -31.1749 H   0  0  0  0  0  0  0  0  0  0  0  0
   -1.8103   23.4248  -26.1415 H   0  0  0  0  0  0  0  0  0  0  0  0
   -2.0107   18.2731  -25.7943 H   0  0  0  0  0  0  0  0  0  0  0  0
   -1.8064   18.5320  -28.4959 H   0  0  0  0  0  0  0  0  0  0  0  0
   -3.4052   20.2044  -30.4951 H   0  0  0  0  0  0  0  0  0  0  0  0
   -3.0716   19.6061  -32.8949 H   0  0  0  0  0  0  0  0  0  0  0  0
    0.8044   21.5288  -32.8402 H   0  0  0  0  0  0  0  0  0  0  0  0
    0.4800   22.1206  -30.4381 H   0  0  0  0  0  0  0  0  0  0  0  0
  1  2  2  0
  2  3  1  0
  3  4  1  0
  4  5  1  0
  5  6  1  0
  6  7  1  0
  7  8  1  0
  8  9  1  0
  9 10  2  0
 10 11  1  0
 11 12  2  0
 12 13  1  0
 13 14  2  0
  7 15  1  0
 15 16  1  0
  2 17  1  0
 17 18  2  0
 18 19  1  0
 19 20  1  0
 20 21  1  0
 21 22  2  0
 22 23  1  0
 23 24  1  0
 24 25  1  0
 25 26  2  0
 26 27  1  0
 27 28  2  0
 28 29  1  0
 28 30  1  0
 30 31  2  0
 16  4  1  0
 24 17  1  0
 31 25  1  0
 14  9  1  0
 23 19  2  0
  4 32  1  0
  5 33  1  0
  5 34  1  0
  6 35  1  0
  6 36  1  0
  8 37  1  0
  8 38  1  0
 10 39  1  0
 11 40  1  0
 12 41  1  0
 13 42  1  0
 14 43  1  0
 15 44  1  0
 15 45  1  0
 16 46  1  0
 16 47  1  0
 18 48  1  0
 21 49  1  0
 22 50  1  0
 26 51  1  0
 27 52  1  0
 30 53  1  0
 31 54  1  0
M  CHG  1   3  -1
M  END
>  <UniqueID>  (28) 
28

>  <SMILES>  (28) 
O=C([N-]C1CCN(Cc2ccccc2)CC1)c1cc2occc2n1-c1ccc(Cl)cc1

>  <Energy>  (28) 
150.3880309689495

>  <Genealogy>  (28) 
O=C([N-]C1CCN(Cc2ccccc2)CC1)c1cc2occc2n1-c1ccc(Cl)cc1 (protonated)
O=C([N-]C1CCN(Cc2ccccc2)CC1)c1cc2occc2n1-c1ccc(Cl)cc1 (3D coordinates assigned)
O=C([N-]C1CCN(Cc2ccccc2)CC1)c1cc2occc2n1-c1ccc(Cl)cc1 (nonaromatic ring conformer: 150.3880309689495 kcal/mol)

>  <smiles>  (28) 
O=C(NC1CCN(Cc2ccccc2)CC1)c1cc2occc2n1-c1ccc(Cl)cc1

>  <score_type>  (28) 
oracle

>  <origin>  (28) 
adg

>  <m_score__min__energy>  (28) 
-12.32

>  <m_primary>  (28) 
energy

$$$$
28:0
     RDKit          3D

 45 46  0  0  0  0  0  0  0  0999 V2000
   -5.2360   24.0580  -30.1920 C   0  0  0  0  0  0  0  0  0  0  0  0
   -5.1860   23.3340  -31.4150 O   0  0  0  0  0  0  0  0  0  0  0  0
   -6.3010   23.1720  -32.2430 C   0  0  0  0  0  0  0  0  0  0  0  0
   -6.8280   24.1690  -32.8080 O   0  0  0  0  0  0  0  0  0  0  0  0
   -6.8480   21.7890  -32.5090 C   0  0  2  0  0  0  0  0  0  0  0  0
   -7.5150   21.1600  -31.3010 C   0  0  0  0  0  0  0  0  0  0  0  0
   -8.2220   21.9800  -30.2590 C   0  0  0  0  0  0  0  0  0  0  0  0
   -7.6460   19.8680  -31.2470 N   0  0  0  0  0  0  0  0  0  0  0  0
   -7.1070   18.9630  -32.2260 C   0  0  0  0  0  0  0  0  0  0  0  0
   -7.6050   17.5480  -32.1910 C   0  0  0  0  0  0  0  0  0  0  0  0
   -6.2050   19.4040  -33.1360 C   0  0  0  0  0  0  0  0  0  0  0  0
   -5.6050   18.5300  -34.1850 C   0  0  0  0  0  0  0  0  0  0  0  0
   -6.0120   18.6890  -35.3700 O   0  0  0  0  0  0  0  0  0  0  0  0
   -4.5880   17.5290  -33.8840 N   0  0  0  0  0  0  0  0  0  0  0  0
   -5.0500   16.1660  -34.2120 C   0  0  0  0  0  0  0  0  0  0  0  0
   -3.3380   17.8040  -34.6140 C   0  0  0  0  0  0  0  0  0  0  0  0
   -5.7540   20.8540  -33.0980 C   0  0  2  0  0  0  0  0  0  0  0  0
   -4.4090   20.9650  -32.3890 C   0  0  0  0  0  0  0  0  0  0  0  0
   -4.2660   20.6440  -31.0270 C   0  0  0  0  0  0  0  0  0  0  0  0
   -3.0180   20.7710  -30.4130 C   0  0  0  0  0  0  0  0  0  0  0  0
   -1.9470   21.2080  -31.1250 N   0  0  0  0  0  0  0  0  0  0  0  0
   -2.0530   21.5290  -32.4410 C   0  0  0  0  0  0  0  0  0  0  0  0
   -3.2810   21.4160  -33.0950 C   0  0  0  0  0  0  0  0  0  0  0  0
   -5.1874   23.3549  -29.3474 H   0  0  0  0  0  0  0  0  0  0  0  0
   -4.3836   24.7514  -30.1413 H   0  0  0  0  0  0  0  0  0  0  0  0
   -6.1756   24.6277  -30.1413 H   0  0  0  0  0  0  0  0  0  0  0  0
   -7.6405   21.9165  -33.2611 H   0  0  0  0  0  0  0  0  0  0  0  0
   -7.9249   21.6354  -29.2575 H   0  0  0  0  0  0  0  0  0  0  0  0
   -7.9491   23.0389  -30.3784 H   0  0  0  0  0  0  0  0  0  0  0  0
   -9.3095   21.8659  -30.3784 H   0  0  0  0  0  0  0  0  0  0  0  0
   -7.7187   17.2250  -31.1456 H   0  0  0  0  0  0  0  0  0  0  0  0
   -8.5779   17.4890  -32.7009 H   0  0  0  0  0  0  0  0  0  0  0  0
   -6.8835   16.8926  -32.7009 H   0  0  0  0  0  0  0  0  0  0  0  0
   -4.3870   17.5410  -32.8600 H   0  0  0  0  0  0  0  0  0  0  0  0
   -5.2387   15.6092  -33.2823 H   0  0  0  0  0  0  0  0  0  0  0  0
   -5.9784   16.2249  -34.7991 H   0  0  0  0  0  0  0  0  0  0  0  0
   -4.2772   15.6482  -34.7991 H   0  0  0  0  0  0  0  0  0  0  0  0
   -2.5251   17.9828  -33.8948 H   0  0  0  0  0  0  0  0  0  0  0  0
   -3.0849   16.9401  -35.2461 H   0  0  0  0  0  0  0  0  0  0  0  0
   -3.4708   18.6944  -35.2461 H   0  0  0  0  0  0  0  0  0  0  0  0
   -5.6052   21.2072  -34.1291 H   0  0  0  0  0  0  0  0  0  0  0  0
   -5.1334   20.2944  -30.4479 H   0  0  0  0  0  0  0  0  0  0  0  0
   -2.9020   20.5163  -29.3492 H   0  0  0  0  0  0  0  0  0  0  0  0
   -1.1682   21.8791  -32.9929 H   0  0  0  0  0  0  0  0  0  0  0  0
   -3.3654   21.6792  -34.1597 H   0  0  0  0  0  0  0  0  0  0  0  0
  1  2  1  0
  2  3  1  0
  3  4  2  0
  3  5  1  0
  5  6  1  0
  6  7  1  0
  6  8  2  0
  8  9  1  0
  9 10  1  0
  9 11  2  0
 11 12  1  0
 12 13  2  0
 12 14  1  0
 14 15  1  0
 14 16  1  0
 11 17  1  0
 17 18  1  0
 18 19  2  0
 19 20  1  0
 20 21  2  0
 21 22  1  0
 22 23  2  0
 17  5  1  0
 23 18  1  0
  1 24  1  0
  1 25  1  0
  1 26  1  0
  5 27  1  6
  7 28  1  0
  7 29  1  0
  7 30  1  0
 10 31  1  0
 10 32  1  0
 10 33  1  0
 14 34  1  0
 15 35  1  0
 15 36  1  0
 15 37  1  0
 16 38  1  0
 16 39  1  0
 16 40  1  0
 17 41  1  6
 19 42  1  0
 20 43  1  0
 22 44  1  0
 23 45  1  0
M  CHG  1  14   1
M  END
>  <UniqueID>  (29) 
29

>  <SMILES>  (29) 
COC(=O)[C@@H]1C(C)=NC(C)=C(C(=O)[NH+](C)C)[C@@H]1c1ccncc1

>  <Energy>  (29) 
55.28759028698492

>  <Genealogy>  (29) 
COC(=O)C1C(C)=NC(C)=C(C(=O)[NH+](C)C)C1c1ccncc1 (protonated)
COC(=O)[C@@H]1C(C)=NC(C)=C(C(=O)[NH+](C)C)[C@@H]1c1ccncc1 (chirality)
COC(=O)[C@@H]1C(C)=NC(C)=C(C(=O)[NH+](C)C)[C@@H]1c1ccncc1 (3D coordinates assigned)
COC(=O)[C@@H]1C(C)=NC(C)=C(C(=O)[NH+](C)C)[C@@H]1c1ccncc1 (nonaromatic ring conformer: 55.28759028698492 kcal/mol)

>  <smiles>  (29) 
COC(=O)C1C(C)=NC(C)=C(C(=O)N(C)C)C1c1ccncc1

>  <score_type>  (29) 
oracle

>  <origin>  (29) 
adg

>  <m_score__min__energy>  (29) 
-6.0300000000000002

>  <m_primary>  (29) 
energy

$$$$
29:0
     RDKit          3D

 38 40  0  0  0  0  0  0  0  0999 V2000
   -3.7570   19.9560  -32.4230 C   0  0  0  0  0  0  0  0  0  0  0  0
   -4.8380   20.7820  -32.9490 N   0  0  0  0  0  0  0  0  0  0  0  0
   -5.4170   21.8820  -32.2210 C   0  0  0  0  0  0  0  0  0  0  0  0
   -4.6520   23.0360  -31.9220 C   0  0  0  0  0  0  0  0  0  0  0  0
   -5.2610   24.0650  -31.2140 C   0  0  0  0  0  0  0  0  0  0  0  0
   -6.5510   23.9960  -30.8100 C   0  0  0  0  0  0  0  0  0  0  0  0
   -7.3490   22.8920  -31.0810 C   0  0  0  0  0  0  0  0  0  0  0  0
   -6.7770   21.8190  -31.7930 C   0  0  0  0  0  0  0  0  0  0  0  0
   -7.5920   20.6840  -32.1150 N   0  0  0  0  0  0  0  0  0  0  0  0
   -8.7000   20.3250  -31.2300 C   0  0  0  0  0  0  0  0  0  0  0  0
   -7.4750   20.0630  -33.4360 C   0  0  0  0  0  0  0  0  0  0  0  0
   -6.8510   18.7020  -33.3080 C   0  0  0  0  0  0  0  0  0  0  0  0
   -6.5960   18.1630  -32.0380 C   0  0  0  0  0  0  0  0  0  0  0  0
   -5.9250   16.9450  -31.9300 C   0  0  0  0  0  0  0  0  0  0  0  0
   -5.5100   16.2780  -33.0810 C   0  0  0  0  0  0  0  0  0  0  0  0
   -5.7740   16.8440  -34.3320 C   0  0  0  0  0  0  0  0  0  0  0  0
   -6.4280   18.0340  -34.4220 N   0  0  0  0  0  0  0  0  0  0  0  0
   -6.8860   25.1500  -30.1290 O   0  0  0  0  0  0  0  0  0  0  0  0
   -5.7290   25.9950  -30.0960 C   0  0  0  0  0  0  0  0  0  0  0  0
   -4.7160   25.2670  -30.8050 O   0  0  0  0  0  0  0  0  0  0  0  0
   -3.7824   19.9754  -31.3235 H   0  0  0  0  0  0  0  0  0  0  0  0
   -3.8820   18.9212  -32.7744 H   0  0  0  0  0  0  0  0  0  0  0  0
   -2.7914   20.3485  -32.7744 H   0  0  0  0  0  0  0  0  0  0  0  0
   -5.1520   20.5860  -33.9260 H   0  0  0  0  0  0  0  0  0  0  0  0
   -3.6026   23.1156  -32.2421 H   0  0  0  0  0  0  0  0  0  0  0  0
   -8.3972   22.8563  -30.7494 H   0  0  0  0  0  0  0  0  0  0  0  0
   -8.3808   20.4284  -30.1824 H   0  0  0  0  0  0  0  0  0  0  0  0
   -9.5530   20.9927  -31.4210 H   0  0  0  0  0  0  0  0  0  0  0  0
   -8.9993   19.2839  -31.4210 H   0  0  0  0  0  0  0  0  0  0  0  0
   -8.4754   19.9650  -33.8828 H   0  0  0  0  0  0  0  0  0  0  0  0
   -6.8413   20.6930  -34.0775 H   0  0  0  0  0  0  0  0  0  0  0  0
   -6.9230   18.6973  -31.1338 H   0  0  0  0  0  0  0  0  0  0  0  0
   -5.7239   16.5121  -30.9390 H   0  0  0  0  0  0  0  0  0  0  0  0
   -4.9805   15.3167  -33.0062 H   0  0  0  0  0  0  0  0  0  0  0  0
   -5.4518   16.3254  -35.2470 H   0  0  0  0  0  0  0  0  0  0  0  0
   -6.5880   18.4430  -35.3690 H   0  0  0  0  0  0  0  0  0  0  0  0
   -5.9362   26.9536  -30.5942 H   0  0  0  0  0  0  0  0  0  0  0  0
   -5.4218   26.2342  -29.0672 H   0  0  0  0  0  0  0  0  0  0  0  0
  1  2  1  0
  2  3  1  0
  3  4  2  0
  4  5  1  0
  5  6  2  0
  6  7  1  0
  7  8  2  0
  8  9  1  0
  9 10  1  0
  9 11  1  0
 11 12  1  0
 12 13  2  0
 13 14  1  0
 14 15  2  0
 15 16  1  0
 16 17  2  0
  6 18  1  0
 18 19  1  0
 19 20  1  0
  8  3  1  0
 17 12  1  0
 20  5  1  0
  1 21  1  0
  1 22  1  0
  1 23  1  0
  2 24  1  0
  4 25  1  0
  7 26  1  0
 10 27  1  0
 10 28  1  0
 10 29  1  0
 11 30  1  0
 11 31  1  0
 13 32  1  0
 14 33  1  0
 15 34  1  0
 16 35  1  0
 17 36  1  0
 19 37  1  0
 19 38  1  0
M  CHG  1  17   1
M  END
>  <UniqueID>  (30) 
30

>  <SMILES>  (30) 
CNc1cc2c(cc1N(C)Cc1cccc[nH+]1)OCO2

>  <Energy>  (30) 
68.1922662184192

>  <Genealogy>  (30) 
CNc1cc2c(cc1N(C)Cc1cccc[nH+]1)OCO2 (protonated)
CNc1cc2c(cc1N(C)Cc1cccc[nH+]1)OCO2 (3D coordinates assigned)
CNc1cc2c(cc1N(C)Cc1cccc[nH+]1)OCO2 (nonaromatic ring conformer: 68.1922662184192 kcal/mol)

>  <smiles>  (30) 
CNc1cc2c(cc1N(C)Cc1ccccn1)OCO2

>  <score_type>  (30) 
oracle

>  <origin>  (30) 
adg

>  <m_score__min__energy>  (30) 
-6.2699999999999996

>  <m_primary>  (30) 
energy

$$$$
30:0
     RDKit          3D

 39 42  0  0  0  0  0  0  0  0999 V2000
   -8.9570   22.6570  -31.6820 C   0  0  0  0  0  0  0  0  0  0  0  0
   -7.9470   22.7330  -30.6820 O   0  0  0  0  0  0  0  0  0  0  0  0
   -6.5840   22.9110  -30.9560 C   0  0  0  0  0  0  0  0  0  0  0  0
   -5.7680   21.9090  -31.5360 C   0  0  0  0  0  0  0  0  0  0  0  0
   -4.3880   22.1670  -31.7870 C   0  0  0  0  0  0  0  0  0  0  0  0
   -3.5150   21.1360  -32.3990 C   0  0  0  0  0  0  0  0  0  0  0  0
   -2.1690   21.4300  -32.6720 C   0  0  0  0  0  0  0  0  0  0  0  0
   -1.3420   20.4730  -33.2630 C   0  0  0  0  0  0  0  0  0  0  0  0
   -1.8490   19.2150  -33.5900 C   0  0  0  0  0  0  0  0  0  0  0  0
   -3.1870   18.8920  -33.3200 C   0  0  0  0  0  0  0  0  0  0  0  0
   -3.6800   17.5890  -33.6790 N   0  0  0  0  0  0  0  0  0  0  0  0
   -5.2690   17.2940  -34.3160 S   0  0  0  0  0  0  0  0  0  0  0  0
   -5.5120   15.8120  -34.3710 O   0  0  0  0  0  0  0  0  0  0  0  0
   -5.3610   17.8620  -35.7040 O   0  0  0  0  0  0  0  0  0  0  0  0
   -6.4800   18.0670  -33.3080 C   0  0  0  0  0  0  0  0  0  0  0  0
   -7.1740   17.4640  -32.2720 C   0  0  0  0  0  0  0  0  0  0  0  0
   -8.1130   18.3150  -31.6770 C   0  0  0  0  0  0  0  0  0  0  0  0
   -8.1550   19.5820  -32.2460 C   0  0  0  0  0  0  0  0  0  0  0  0
   -7.0270   19.6440  -33.4930 S   0  0  0  0  0  0  0  0  0  0  0  0
   -4.0090   19.8540  -32.7040 C   0  0  0  0  0  0  0  0  0  0  0  0
   -3.8610   23.3940  -31.4780 N   0  0  0  0  0  0  0  0  0  0  0  0
   -4.6560   24.3380  -30.9240 C   0  0  0  0  0  0  0  0  0  0  0  0
   -4.2930   25.5780  -30.5630 N   0  0  0  0  0  0  0  0  0  0  0  0
   -5.3800   26.1650  -30.0660 N   0  0  0  0  0  0  0  0  0  0  0  0
   -6.4220   25.2980  -30.1150 C   0  0  0  0  0  0  0  0  0  0  0  0
   -5.9690   24.1210  -30.6610 C   0  0  0  0  0  0  0  0  0  0  0  0
   -9.9438   22.5827  -31.2016 H   0  0  0  0  0  0  0  0  0  0  0  0
   -8.9213   23.5604  -32.3086 H   0  0  0  0  0  0  0  0  0  0  0  0
   -8.7865   21.7691  -32.3086 H   0  0  0  0  0  0  0  0  0  0  0  0
   -6.1993   20.9303  -31.7932 H   0  0  0  0  0  0  0  0  0  0  0  0
   -1.7638   22.4207  -32.4185 H   0  0  0  0  0  0  0  0  0  0  0  0
   -0.2885   20.7113  -33.4713 H   0  0  0  0  0  0  0  0  0  0  0  0
   -1.1934   18.4696  -34.0639 H   0  0  0  0  0  0  0  0  0  0  0  0
   -3.0320   16.7710  -33.6330 H   0  0  0  0  0  0  0  0  0  0  0  0
   -7.0051   16.4257  -31.9506 H   0  0  0  0  0  0  0  0  0  0  0  0
   -8.7564   18.0097  -30.8387 H   0  0  0  0  0  0  0  0  0  0  0  0
   -8.8143   20.4054  -31.9339 H   0  0  0  0  0  0  0  0  0  0  0  0
   -5.0507   19.6007  -32.4578 H   0  0  0  0  0  0  0  0  0  0  0  0
   -7.4489   25.5012  -29.7772 H   0  0  0  0  0  0  0  0  0  0  0  0
  1  2  1  0
  2  3  1  0
  3  4  2  0
  4  5  1  0
  5  6  1  0
  6  7  2  0
  7  8  1  0
  8  9  2  0
  9 10  1  0
 10 11  1  0
 11 12  1  0
 12 13  2  0
 12 14  2  0
 12 15  1  0
 15 16  2  0
 16 17  1  0
 17 18  2  0
 18 19  1  0
 10 20  2  0
  5 21  2  0
 21 22  1  0
 22 23  1  0
 23 24  1  0
 24 25  2  0
 25 26  1  0
 26  3  1  0
 20  6  1  0
 26 22  2  0
 19 15  1  0
  1 27  1  0
  1 28  1  0
  1 29  1  0
  4 30  1  0
  7 31  1  0
  8 32  1  0
  9 33  1  0
 11 34  1  0
 16 35  1  0
 17 36  1  0
 18 37  1  0
 20 38  1  0
 25 39  1  0
M  CHG  1  23  -1
M  END
>  <UniqueID>  (31) 
31

>  <SMILES>  (31) 
COc1cc(-c2cccc(NS(=O)(=O)c3cccs3)c2)nc2[n-]ncc12

>  <Energy>  (31) 
112.93531399866089

>  <Genealogy>  (31) 
COc1cc(-c2cccc(NS(=O)(=O)c3cccs3)c2)nc2[n-]ncc12 (protonated)
COc1cc(-c2cccc(NS(=O)(=O)c3cccs3)c2)nc2[n-]ncc12 (3D coordinates assigned)
COc1cc(-c2cccc(NS(=O)(=O)c3cccs3)c2)nc2[n-]ncc12 (optimized conformer: 112.93531399866089 kcal/mol)

>  <smiles>  (31) 
COc1cc(-c2cccc(NS(=O)(=O)c3cccs3)c2)nc2[nH]ncc12

>  <score_type>  (31) 
oracle

>  <origin>  (31) 
adg

>  <m_score__min__energy>  (31) 
-10.42

>  <m_primary>  (31) 
energy

$$$$
31:0
     RDKit          3D

 45 47  0  0  0  0  0  0  0  0999 V2000
   -3.2370   21.9460  -29.0700 C   0  0  0  0  0  0  0  0  0  0  0  0
   -3.0570   21.4380  -30.4960 C   0  0  0  0  0  0  0  0  0  0  0  0
   -3.9070   22.1990  -31.4260 N   0  0  0  0  0  0  0  0  0  0  0  0
   -3.8220   21.9330  -32.8730 C   0  0  0  0  0  0  0  0  0  0  0  0
   -4.0400   20.4440  -33.1910 C   0  0  0  0  0  0  0  0  0  0  0  0
   -5.3300   20.2180  -33.7600 O   0  0  0  0  0  0  0  0  0  0  0  0
   -6.5260   20.0760  -33.0390 C   0  0  0  0  0  0  0  0  0  0  0  0
   -7.3070   21.1900  -32.6760 C   0  0  0  0  0  0  0  0  0  0  0  0
   -8.4780   21.0200  -31.9360 C   0  0  0  0  0  0  0  0  0  0  0  0
   -8.8830   19.7420  -31.5500 C   0  0  0  0  0  0  0  0  0  0  0  0
   -8.1190   18.6290  -31.9020 C   0  0  0  0  0  0  0  0  0  0  0  0
   -6.9400   18.7820  -32.6530 C   0  0  0  0  0  0  0  0  0  0  0  0
   -6.1080   17.5940  -32.9640 C   0  0  0  0  0  0  0  0  0  0  0  0
   -5.6910   17.3480  -34.2860 C   0  0  0  0  0  0  0  0  0  0  0  0
   -4.9400   16.2090  -34.5900 C   0  0  0  0  0  0  0  0  0  0  0  0
   -4.5930   15.3080  -33.5800 C   0  0  0  0  0  0  0  0  0  0  0  0
   -4.9910   15.5480  -32.2630 C   0  0  0  0  0  0  0  0  0  0  0  0
   -5.7400   16.6870  -31.9530 C   0  0  0  0  0  0  0  0  0  0  0  0
   -4.7950   23.2190  -30.9200 C   0  0  0  0  0  0  0  0  0  0  0  0
   -4.3960   24.5220  -30.8850 N   0  0  0  0  0  0  0  0  0  0  0  0
   -5.2250   25.5000  -30.4390 C   0  0  0  0  0  0  0  0  0  0  0  0
   -6.5090   25.1800  -30.0070 C   0  0  0  0  0  0  0  0  0  0  0  0
   -6.9060   23.8440  -30.0420 C   0  0  0  0  0  0  0  0  0  0  0  0
   -6.0480   22.8940  -30.4960 N   0  0  0  0  0  0  0  0  0  0  0  0
   -2.9563   21.1538  -28.3604 H   0  0  0  0  0  0  0  0  0  0  0  0
   -2.5957   22.8254  -28.9103 H   0  0  0  0  0  0  0  0  0  0  0  0
   -4.2889   22.2254  -28.9103 H   0  0  0  0  0  0  0  0  0  0  0  0
   -2.0037   21.5538  -30.7912 H   0  0  0  0  0  0  0  0  0  0  0  0
   -3.3477   20.3778  -30.5351 H   0  0  0  0  0  0  0  0  0  0  0  0
   -4.5919   22.5245  -33.3901 H   0  0  0  0  0  0  0  0  0  0  0  0
   -2.8146   22.2129  -33.2147 H   0  0  0  0  0  0  0  0  0  0  0  0
   -3.2708   20.1138  -33.9047 H   0  0  0  0  0  0  0  0  0  0  0  0
   -3.9703   19.8749  -32.2523 H   0  0  0  0  0  0  0  0  0  0  0  0
   -6.9924   22.2000  -32.9774 H   0  0  0  0  0  0  0  0  0  0  0  0
   -9.0828   21.8953  -31.6566 H   0  0  0  0  0  0  0  0  0  0  0  0
   -9.8066   19.6116  -30.9669 H   0  0  0  0  0  0  0  0  0  0  0  0
   -8.4412   17.6246  -31.5899 H   0  0  0  0  0  0  0  0  0  0  0  0
   -5.9577   18.0562  -35.0843 H   0  0  0  0  0  0  0  0  0  0  0  0
   -4.6216   16.0216  -35.6261 H   0  0  0  0  0  0  0  0  0  0  0  0
   -4.0063   14.4096  -33.8222 H   0  0  0  0  0  0  0  0  0  0  0  0
   -4.7146   14.8396  -31.4682 H   0  0  0  0  0  0  0  0  0  0  0  0
   -6.0435   16.8753  -30.9126 H   0  0  0  0  0  0  0  0  0  0  0  0
   -4.8822   26.5450  -30.4190 H   0  0  0  0  0  0  0  0  0  0  0  0
   -7.1936   25.9620  -29.6468 H   0  0  0  0  0  0  0  0  0  0  0  0
   -7.9129   23.5596  -29.7023 H   0  0  0  0  0  0  0  0  0  0  0  0
  1  2  1  0
  2  3  1  0
  3  4  1  0
  4  5  1  0
  5  6  1  0
  6  7  1  0
  7  8  2  0
  8  9  1  0
  9 10  2  0
 10 11  1  0
 11 12  2  0
 12 13  1  0
 13 14  2  0
 14 15  1  0
 15 16  2  0
 16 17  1  0
 17 18  2  0
  3 19  1  0
 19 20  2  0
 20 21  1  0
 21 22  2  0
 22 23  1  0
 23 24  2  0
 12  7  1  0
 18 13  1  0
 24 19  1  0
  1 25  1  0
  1 26  1  0
  1 27  1  0
  2 28  1  0
  2 29  1  0
  4 30  1  0
  4 31  1  0
  5 32  1  0
  5 33  1  0
  8 34  1  0
  9 35  1  0
 10 36  1  0
 11 37  1  0
 14 38  1  0
 15 39  1  0
 16 40  1  0
 17 41  1  0
 18 42  1  0
 21 43  1  0
 22 44  1  0
 23 45  1  0
M  END
>  <UniqueID>  (32) 
32

>  <SMILES>  (32) 
CCN(CCOc1ccccc1-c1ccccc1)c1ncccn1

>  <Energy>  (32) 
46.49703346201602

>  <Genealogy>  (32) 
CCN(CCOc1ccccc1-c1ccccc1)c1ncccn1 (3D coordinates assigned)
CCN(CCOc1ccccc1-c1ccccc1)c1ncccn1 (optimized conformer: 46.49703346201602 kcal/mol)

>  <smiles>  (32) 
CCN(CCOc1ccccc1-c1ccccc1)c1ncccn1

>  <score_type>  (32) 
oracle

>  <origin>  (32) 
adg

>  <m_score__min__energy>  (32) 
-8.3499999999999996

>  <m_primary>  (32) 
energy

$$$$
32:0
     RDKit          3D

 37 39  0  0  0  0  0  0  0  0999 V2000
   -2.2890   24.7160  -28.6930 C   0  0  0  0  0  0  0  0  0  0  0  0
   -3.1180   25.2900  -29.6980 O   0  0  0  0  0  0  0  0  0  0  0  0
   -4.2830   24.6940  -30.2010 C   0  0  0  0  0  0  0  0  0  0  0  0
   -4.1650   23.4870  -30.8970 C   0  0  0  0  0  0  0  0  0  0  0  0
   -5.2960   22.8540  -31.4200 C   0  0  0  0  0  0  0  0  0  0  0  0
   -6.5700   23.4280  -31.2630 C   0  0  0  0  0  0  0  0  0  0  0  0
   -7.7800   22.7620  -31.7960 C   0  0  0  0  0  0  0  0  0  0  0  0
   -8.8260   23.4420  -31.9740 O   0  0  0  0  0  0  0  0  0  0  0  0
   -7.8060   21.3270  -32.1390 C   0  0  0  0  0  0  0  0  0  0  0  0
   -6.7660   20.5550  -32.6220 C   0  0  0  0  0  0  0  0  0  0  0  0
   -7.2720   19.3270  -32.8450 N   0  0  0  0  0  0  0  0  0  0  0  0
   -6.5690   18.1780  -33.3530 C   0  0  0  0  0  0  0  0  0  0  0  0
   -7.1700   16.9080  -33.3340 C   0  0  0  0  0  0  0  0  0  0  0  0
   -6.4890   15.7950  -33.8290 C   0  0  0  0  0  0  0  0  0  0  0  0
   -5.2010   15.9320  -34.3480 C   0  0  0  0  0  0  0  0  0  0  0  0
   -4.5760   17.1900  -34.3800 C   0  0  0  0  0  0  0  0  0  0  0  0
   -3.2460   17.3280  -34.9140 N   0  0  0  0  0  0  0  0  0  0  0  0
   -2.7840   16.4770  -35.7020 O   0  0  0  0  0  0  0  0  0  0  0  0
   -2.4610   18.4020  -34.5640 O   0  0  0  0  0  0  0  0  0  0  0  0
   -5.2700   18.3080  -33.8810 C   0  0  0  0  0  0  0  0  0  0  0  0
   -8.5570   19.3610  -32.5200 N   0  0  0  0  0  0  0  0  0  0  0  0
   -8.9170   20.5620  -32.0930 N   0  0  0  0  0  0  0  0  0  0  0  0
   -6.6910   24.6300  -30.5470 C   0  0  0  0  0  0  0  0  0  0  0  0
   -5.5590   25.2630  -30.0250 C   0  0  0  0  0  0  0  0  0  0  0  0
   -2.6774   24.9849  -27.6996 H   0  0  0  0  0  0  0  0  0  0  0  0
   -2.2858   23.6214  -28.8014 H   0  0  0  0  0  0  0  0  0  0  0  0
   -1.2632   25.0982  -28.8014 H   0  0  0  0  0  0  0  0  0  0  0  0
   -3.1731   23.0316  -31.0341 H   0  0  0  0  0  0  0  0  0  0  0  0
   -5.1888   21.9005  -31.9580 H   0  0  0  0  0  0  0  0  0  0  0  0
   -5.7288   20.8799  -32.7910 H   0  0  0  0  0  0  0  0  0  0  0  0
   -8.1847   16.7902  -32.9260 H   0  0  0  0  0  0  0  0  0  0  0  0
   -6.9695   14.8057  -33.8100 H   0  0  0  0  0  0  0  0  0  0  0  0
   -4.6712   15.0490  -34.7348 H   0  0  0  0  0  0  0  0  0  0  0  0
   -4.7908   19.2979  -33.9037 H   0  0  0  0  0  0  0  0  0  0  0  0
   -9.2120   18.5490  -32.5690 H   0  0  0  0  0  0  0  0  0  0  0  0
   -7.6846   25.0771  -30.3956 H   0  0  0  0  0  0  0  0  0  0  0  0
   -5.6655   26.2094  -29.4746 H   0  0  0  0  0  0  0  0  0  0  0  0
  1  2  1  0
  2  3  1  0
  3  4  2  0
  4  5  1  0
  5  6  2  0
  6  7  1  0
  7  8  2  0
  7  9  1  0
  9 10  2  0
 10 11  1  0
 11 12  1  0
 12 13  2  0
 13 14  1  0
 14 15  2  0
 15 16  1  0
 16 17  1  0
 17 18  2  0
 17 19  1  0
 16 20  2  0
 11 21  1  0
 21 22  2  0
  6 23  1  0
 23 24  2  0
 24  3  1  0
 22  9  1  0
 20 12  1  0
  1 25  1  0
  1 26  1  0
  1 27  1  0
  4 28  1  0
  5 29  1  0
 10 30  1  0
 13 31  1  0
 14 32  1  0
 15 33  1  0
 20 34  1  0
 21 35  1  0
 23 36  1  0
 24 37  1  0
M  CHG  3  17   1  19  -1  21   1
M  END
>  <UniqueID>  (33) 
33

>  <SMILES>  (33) 
COc1ccc(C(=O)c2cn(-c3cccc([N+](=O)[O-])c3)[nH+]n2)cc1

>  <Energy>  (33) 
82.71970513911546

>  <Genealogy>  (33) 
COc1ccc(C(=O)c2cn(-c3cccc([N+](=O)[O-])c3)[nH+]n2)cc1 (protonated)
COc1ccc(C(=O)c2cn(-c3cccc([N+](=O)[O-])c3)[nH+]n2)cc1 (3D coordinates assigned)
COc1ccc(C(=O)c2cn(-c3cccc([N+](=O)[O-])c3)[nH+]n2)cc1 (optimized conformer: 82.71970513911546 kcal/mol)

>  <smiles>  (33) 
COc1ccc(C(=O)c2cn(-c3cccc([N+](=O)[O-])c3)nn2)cc1

>  <score_type>  (33) 
oracle

>  <origin>  (33) 
adg

>  <m_score__min__energy>  (33) 
-8.6500000000000004

>  <m_primary>  (33) 
energy

$$$$
33:0
     RDKit          3D

 43 46  0  0  1  0  0  0  0  0999 V2000
   -0.0070   23.0150  -24.9140 C   0  0  0  0  0  0  0  0  0  0  0  0
    0.3140   22.7320  -26.2630 O   0  0  0  0  0  0  0  0  0  0  0  0
   -0.5670   23.1860  -27.2360 C   0  0  0  0  0  0  0  0  0  0  0  0
   -0.1900   23.1300  -28.5650 C   0  0  0  0  0  0  0  0  0  0  0  0
   -1.0590   23.5790  -29.5360 C   0  0  0  0  0  0  0  0  0  0  0  0
   -2.3150   24.0900  -29.2210 C   0  0  0  0  0  0  0  0  0  0  0  0
   -3.1250   24.5220  -30.2920 N   0  0  0  0  0  0  0  0  0  0  0  0
   -4.3450   24.0920  -30.3340 C   0  0  0  0  0  0  0  0  0  0  0  0
   -5.3000   24.7790  -29.7080 N   0  0  0  0  0  0  0  0  0  0  0  0
   -6.5920   24.3620  -29.7280 C   0  0  0  0  0  0  0  0  0  0  0  0
   -6.8970   23.2250  -30.4020 N   0  0  0  0  0  0  0  0  0  0  0  0
   -5.9560   22.4960  -31.0530 C   0  0  0  0  0  0  0  0  0  0  0  0
   -4.6470   22.9340  -31.0220 C   0  0  0  0  0  0  0  0  0  0  0  0
   -3.9080   22.0150  -31.7570 C   0  0  0  0  0  0  0  0  0  0  0  0
   -4.7690   21.0950  -32.1840 N   0  0  0  0  0  0  0  0  0  0  0  0
   -6.0030   21.3650  -31.7730 N   0  0  0  0  0  0  0  0  0  0  0  0
   -7.2070   20.6430  -32.0070 C   0  0  0  0  0  0  0  0  0  0  0  0
   -7.0880   19.2590  -32.1190 C   0  0  0  0  0  0  0  0  0  0  0  0
   -8.1790   18.4440  -32.3460 C   0  0  0  0  0  0  0  0  0  0  0  0
   -9.4070   19.0620  -32.4590 C   0  0  0  0  0  0  0  0  0  0  0  0
   -9.5290   20.4310  -32.3490 C   0  0  0  0  0  0  0  0  0  0  0  0
   -8.4400   21.2490  -32.1220 C   0  0  0  0  0  0  0  0  0  0  0  0
   -2.6870   24.1440  -27.8960 C   0  0  0  0  0  0  0  0  0  0  0  0
   -3.9350   24.6510  -27.5690 O   0  0  0  0  0  0  0  0  0  0  0  0
   -4.3100   24.9200  -26.2340 C   0  0  0  0  0  0  0  0  0  0  0  0
   -1.8100   23.6910  -26.9230 C   0  0  0  0  0  0  0  0  0  0  0  0
    0.6514   22.4346  -24.2509 H   0  0  0  0  0  0  0  0  0  0  0  0
    0.1330   24.0889  -24.7213 H   0  0  0  0  0  0  0  0  0  0  0  0
   -1.0549   22.7415  -24.7213 H   0  0  0  0  0  0  0  0  0  0  0  0
    0.7957   22.7302  -28.8452 H   0  0  0  0  0  0  0  0  0  0  0  0
   -0.7510   23.5322  -30.5910 H   0  0  0  0  0  0  0  0  0  0  0  0
   -5.1070   25.6460  -29.1860 H   0  0  0  0  0  0  0  0  0  0  0  0
   -7.3749   24.9341  -29.2086 H   0  0  0  0  0  0  0  0  0  0  0  0
   -2.8251   22.0427  -31.9480 H   0  0  0  0  0  0  0  0  0  0  0  0
   -6.0924   18.8011  -32.0234 H   0  0  0  0  0  0  0  0  0  0  0  0
   -8.0739   17.3525  -32.4327 H   0  0  0  0  0  0  0  0  0  0  0  0
  -10.3044   18.4522  -32.6400 H   0  0  0  0  0  0  0  0  0  0  0  0
  -10.5258   20.8861  -32.4452 H   0  0  0  0  0  0  0  0  0  0  0  0
   -8.5517   22.3400  -32.0364 H   0  0  0  0  0  0  0  0  0  0  0  0
   -3.6109   24.4185  -25.5486 H   0  0  0  0  0  0  0  0  0  0  0  0
   -4.2821   26.0053  -26.0569 H   0  0  0  0  0  0  0  0  0  0  0  0
   -5.3291   24.5457  -26.0569 H   0  0  0  0  0  0  0  0  0  0  0  0
   -2.1161   23.7361  -25.8674 H   0  0  0  0  0  0  0  0  0  0  0  0
  1  2  1  0
  2  3  1  0
  3  4  2  0
  4  5  1  0
  5  6  2  0
  6  7  1  0
  7  8  2  0
  8  9  1  0
  9 10  1  0
 10 11  2  0
 11 12  1  0
 12 13  2  0
 13 14  1  0
 14 15  2  0
 15 16  1  0
 16 17  1  0
 17 18  2  0
 18 19  1  0
 19 20  2  0
 20 21  1  0
 21 22  2  0
  6 23  1  0
 23 24  1  0
 24 25  1  0
 23 26  2  0
 26  3  1  0
 13  8  1  0
 22 17  1  0
 16 12  1  0
  1 27  1  0
  1 28  1  0
  1 29  1  0
  4 30  1  0
  5 31  1  0
  9 32  1  0
 10 33  1  0
 14 34  1  0
 18 35  1  0
 19 36  1  0
 20 37  1  0
 21 38  1  0
 22 39  1  0
 25 40  1  0
 25 41  1  0
 25 42  1  0
 26 43  1  0
M  END
>  <smiles>  (34) 
COc1ccc(N=c2[nH]cnc3c2cnn3-c2ccccc2)c(OC)c1

>  <score_type>  (34) 
oracle

>  <origin>  (34) 
adg

>  <m_score__min__energy>  (34) 
-8.7300000000000004

>  <m_primary>  (34) 
energy

$$$$
34:0
     RDKit          3D

 46 49  0  0  0  0  0  0  0  0999 V2000
   -4.2080   24.5290  -27.0810 C   0  0  0  0  0  0  0  0  0  0  0  0
   -2.7040   24.7630  -27.1940 C   0  0  0  0  0  0  0  0  0  0  0  0
   -2.2010   24.3470  -28.5110 N   0  0  0  0  0  0  0  0  0  0  0  0
   -0.8680   24.7990  -28.9430 C   0  0  0  0  0  0  0  0  0  0  0  0
    0.2230   24.1730  -28.0780 C   0  0  0  0  0  0  0  0  0  0  0  0
   -3.0100   23.5070  -29.3680 C   0  0  0  0  0  0  0  0  0  0  0  0
   -3.7730   24.0720  -30.4080 C   0  0  0  0  0  0  0  0  0  0  0  0
   -4.5620   23.2640  -31.2300 C   0  0  0  0  0  0  0  0  0  0  0  0
   -4.5950   21.8790  -31.0340 C   0  0  0  0  0  0  0  0  0  0  0  0
   -5.4210   21.0540  -31.8650 N   0  0  0  0  0  0  0  0  0  0  0  0
   -4.9820   20.1380  -32.7610 C   0  0  0  0  0  0  0  0  0  0  0  0
   -3.6580   19.8290  -33.0910 C   0  0  0  0  0  0  0  0  0  0  0  0
   -3.4330   18.8250  -34.0500 C   0  0  0  0  0  0  0  0  0  0  0  0
   -4.5180   18.1520  -34.6520 C   0  0  0  0  0  0  0  0  0  0  0  0
   -5.8410   18.4730  -34.3010 C   0  0  0  0  0  0  0  0  0  0  0  0
   -6.0350   19.4720  -33.3480 C   0  0  0  0  0  0  0  0  0  0  0  0
   -7.1810   19.9980  -32.7960 C   0  0  0  0  0  0  0  0  0  0  0  0
   -8.5220   19.7000  -33.0250 C   0  0  0  0  0  0  0  0  0  0  0  0
   -9.4860   20.4260  -32.3090 C   0  0  0  0  0  0  0  0  0  0  0  0
   -9.0960   21.4280  -31.3960 C   0  0  0  0  0  0  0  0  0  0  0  0
   -7.7350   21.7170  -31.1780 C   0  0  0  0  0  0  0  0  0  0  0  0
   -7.3180   23.0180  -30.0720 Cl  0  0  0  0  0  0  0  0  0  0  0  0
   -6.7800   20.9670  -31.8920 C   0  0  0  0  0  0  0  0  0  0  0  0
   -3.8480   21.3080  -29.9980 C   0  0  0  0  0  0  0  0  0  0  0  0
   -3.0580   22.1130  -29.1740 C   0  0  0  0  0  0  0  0  0  0  0  0
   -4.4934   24.4846  -26.0196 H   0  0  0  0  0  0  0  0  0  0  0  0
   -4.7453   25.3543  -27.5710 H   0  0  0  0  0  0  0  0  0  0  0  0
   -4.4692   23.5794  -27.5710 H   0  0  0  0  0  0  0  0  0  0  0  0
   -2.4953   25.8336  -27.0516 H   0  0  0  0  0  0  0  0  0  0  0  0
   -2.1984   24.1644  -26.4220 H   0  0  0  0  0  0  0  0  0  0  0  0
   -0.7099   24.5056  -29.9913 H   0  0  0  0  0  0  0  0  0  0  0  0
   -0.8158   25.8929  -28.8396 H   0  0  0  0  0  0  0  0  0  0  0  0
   -0.0247   24.3151  -27.0157 H   0  0  0  0  0  0  0  0  0  0  0  0
    0.2929   23.0974  -28.2975 H   0  0  0  0  0  0  0  0  0  0  0  0
    1.1869   24.6554  -28.2975 H   0  0  0  0  0  0  0  0  0  0  0  0
   -3.7474   25.1590  -30.5745 H   0  0  0  0  0  0  0  0  0  0  0  0
   -5.1595   23.7181  -32.0342 H   0  0  0  0  0  0  0  0  0  0  0  0
   -2.8179   20.3556  -32.6146 H   0  0  0  0  0  0  0  0  0  0  0  0
   -2.4031   18.5621  -34.3332 H   0  0  0  0  0  0  0  0  0  0  0  0
   -4.3268   17.3701  -35.4018 H   0  0  0  0  0  0  0  0  0  0  0  0
   -6.6939   17.9537  -34.7625 H   0  0  0  0  0  0  0  0  0  0  0  0
   -8.8159   18.9209  -33.7437 H   0  0  0  0  0  0  0  0  0  0  0  0
  -10.5542   20.2120  -32.4609 H   0  0  0  0  0  0  0  0  0  0  0  0
   -9.8651   21.9911  -30.8470 H   0  0  0  0  0  0  0  0  0  0  0  0
   -3.8829   20.2212  -29.8318 H   0  0  0  0  0  0  0  0  0  0  0  0
   -2.4683   21.6542  -28.3667 H   0  0  0  0  0  0  0  0  0  0  0  0
  1  2  1  0
  2  3  1  0
  3  4  1  0
  4  5  1  0
  3  6  1  0
  6  7  2  0
  7  8  1  0
  8  9  2  0
  9 10  1  0
 10 11  1  0
 11 12  2  0
 12 13  1  0
 13 14  2  0
 14 15  1  0
 15 16  2  0
 16 17  1  0
 17 18  2  0
 18 19  1  0
 19 20  2  0
 20 21  1  0
 21 22  1  0
 21 23  2  0
  9 24  1  0
 24 25  2  0
 25  6  1  0
 23 10  1  0
 16 11  1  0
 23 17  1  0
  1 26  1  0
  1 27  1  0
  1 28  1  0
  2 29  1  0
  2 30  1  0
  4 31  1  0
  4 32  1  0
  5 33  1  0
  5 34  1  0
  5 35  1  0
  7 36  1  0
  8 37  1  0
 12 38  1  0
 13 39  1  0
 14 40  1  0
 15 41  1  0
 18 42  1  0
 19 43  1  0
 20 44  1  0
 24 45  1  0
 25 46  1  0
M  END
>  <UniqueID>  (35) 
34

>  <SMILES>  (35) 
CCN(CC)c1ccc(-n2c3ccccc3c3cccc(Cl)c32)cc1

>  <Energy>  (35) 
98.28842253004032

>  <Genealogy>  (35) 
CCN(CC)c1ccc(-n2c3ccccc3c3cccc(Cl)c32)cc1 (3D coordinates assigned)
CCN(CC)c1ccc(-n2c3ccccc3c3cccc(Cl)c32)cc1 (optimized conformer: 98.28842253004032 kcal/mol)

>  <smiles>  (35) 
CCN(CC)c1ccc(-n2c3ccccc3c3cccc(Cl)c32)cc1

>  <score_type>  (35) 
oracle

>  <origin>  (35) 
adg

>  <m_score__min__energy>  (35) 
-8.4600000000000009

>  <m_primary>  (35) 
energy

$$$$
35:0
     RDKit          3D

 42 45  0  0  0  0  0  0  0  0999 V2000
   -1.0680   20.7420  -34.2320 C   0  0  0  0  0  0  0  0  0  0  0  0
   -1.6480   19.5760  -33.4330 C   0  0  0  0  0  0  0  0  0  0  0  0
   -2.8070   18.8860  -34.1660 C   0  0  0  0  0  0  0  0  0  0  0  0
   -4.1090   19.3100  -33.6300 N   0  0  0  0  0  0  0  0  0  0  0  0
   -4.2800   20.5940  -33.1610 C   0  0  0  0  0  0  0  0  0  0  0  0
   -5.5350   21.0250  -32.6660 C   0  0  0  0  0  0  0  0  0  0  0  0
   -5.7850   22.3110  -32.1780 C   0  0  0  0  0  0  0  0  0  0  0  0
   -4.8490   23.1600  -32.1520 O   0  0  0  0  0  0  0  0  0  0  0  0
   -7.0430   22.6480  -31.7280 N   0  0  0  0  0  0  0  0  0  0  0  0
   -7.2850   24.0050  -31.1950 C   0  0  0  0  0  0  0  0  0  0  0  0
   -6.3020   24.3020  -30.0550 C   0  0  0  0  0  0  0  0  0  0  0  0
   -6.4840   25.6370  -29.3490 C   0  0  0  0  0  0  0  0  0  0  0  0
   -5.3360   25.4440  -30.3300 C   0  0  0  0  0  0  0  0  0  0  0  0
   -8.0630   21.7180  -31.7230 C   0  0  0  0  0  0  0  0  0  0  0  0
   -9.2050   22.0210  -31.2850 O   0  0  0  0  0  0  0  0  0  0  0  0
   -7.8640   20.4570  -32.1870 N   0  0  0  0  0  0  0  0  0  0  0  0
   -6.6580   20.0740  -32.6580 C   0  0  0  0  0  0  0  0  0  0  0  0
   -6.4070   18.8020  -33.1420 C   0  0  0  0  0  0  0  0  0  0  0  0
   -7.1960   17.6870  -33.2950 C   0  0  0  0  0  0  0  0  0  0  0  0
   -6.4130   16.7200  -33.8290 N   0  0  0  0  0  0  0  0  0  0  0  0
   -6.8600   15.3910  -34.2180 C   0  0  0  0  0  0  0  0  0  0  0  0
   -5.1800   17.1730  -34.0370 N   0  0  0  0  0  0  0  0  0  0  0  0
   -5.1720   18.4500  -33.6080 C   0  0  0  0  0  0  0  0  0  0  0  0
   -0.6873   21.5074  -33.5398 H   0  0  0  0  0  0  0  0  0  0  0  0
   -0.2454   20.3790  -34.8657 H   0  0  0  0  0  0  0  0  0  0  0  0
   -1.8537   21.1790  -34.8657 H   0  0  0  0  0  0  0  0  0  0  0  0
   -0.8519   18.8378  -33.2562 H   0  0  0  0  0  0  0  0  0  0  0  0
   -2.0403   19.9785  -32.4874 H   0  0  0  0  0  0  0  0  0  0  0  0
   -2.7587   19.1435  -35.2343 H   0  0  0  0  0  0  0  0  0  0  0  0
   -2.7103   17.7998  -34.0216 H   0  0  0  0  0  0  0  0  0  0  0  0
   -3.4310   21.2934  -33.1711 H   0  0  0  0  0  0  0  0  0  0  0  0
   -7.1449   24.7428  -31.9988 H   0  0  0  0  0  0  0  0  0  0  0  0
   -8.3138   24.0645  -30.8104 H   0  0  0  0  0  0  0  0  0  0  0  0
   -6.2109   23.2580  -29.7206 H   0  0  0  0  0  0  0  0  0  0  0  0
   -7.3300   26.2884  -29.6135 H   0  0  0  0  0  0  0  0  0  0  0  0
   -6.5654   25.9576  -28.2999 H   0  0  0  0  0  0  0  0  0  0  0  0
   -5.3524   25.9560  -31.3035 H   0  0  0  0  0  0  0  0  0  0  0  0
   -4.2439   25.5674  -30.2835 H   0  0  0  0  0  0  0  0  0  0  0  0
   -8.2607   17.5973  -33.0335 H   0  0  0  0  0  0  0  0  0  0  0  0
   -7.0610   14.7933  -33.3167 H   0  0  0  0  0  0  0  0  0  0  0  0
   -7.7797   15.4738  -34.8157 H   0  0  0  0  0  0  0  0  0  0  0  0
   -6.0772   14.9012  -34.8157 H   0  0  0  0  0  0  0  0  0  0  0  0
  1  2  1  0
  2  3  1  0
  3  4  1  0
  4  5  1  0
  5  6  2  0
  6  7  1  0
  7  8  2  0
  7  9  1  0
  9 10  1  0
 10 11  1  0
 11 12  1  0
 12 13  1  0
  9 14  1  0
 14 15  2  0
 14 16  1  0
 16 17  2  0
 17 18  1  0
 18 19  2  0
 19 20  1  0
 20 21  1  0
 20 22  1  0
 22 23  2  0
 23  4  1  0
 17  6  1  0
 23 18  1  0
 13 11  1  0
  1 24  1  0
  1 25  1  0
  1 26  1  0
  2 27  1  0
  2 28  1  0
  3 29  1  0
  3 30  1  0
  5 31  1  0
 10 32  1  0
 10 33  1  0
 11 34  1  0
 12 35  1  0
 12 36  1  0
 13 37  1  0
 13 38  1  0
 19 39  1  0
 21 40  1  0
 21 41  1  0
 21 42  1  0
M  END
>  <UniqueID>  (36) 
35

>  <SMILES>  (36) 
CCCn1cc2c(=O)n(CC3CC3)c(=O)nc-2c2cn(C)nc21

>  <Energy>  (36) 
347.7424919271154

>  <Genealogy>  (36) 
CCCn1cc2c(=O)n(CC3CC3)c(=O)nc-2c2cn(C)nc21 (3D coordinates assigned)
CCCn1cc2c(=O)n(CC3CC3)c(=O)nc-2c2cn(C)nc21 (nonaromatic ring conformer: 347.7424919271154 kcal/mol)

>  <smiles>  (36) 
CCCn1cc2c(=O)n(CC3CC3)c(=O)nc-2c2cn(C)nc21

>  <score_type>  (36) 
oracle

>  <origin>  (36) 
adg

>  <m_score__min__energy>  (36) 
-7.4699999999999998

>  <m_primary>  (36) 
energy

$$$$
36:0
     RDKit          3D

 33 34  0  0  0  0  0  0  0  0999 V2000
   -6.8800   17.6170  -32.9440 C   0  0  0  0  0  0  0  0  0  0  0  0
   -7.3120   18.1930  -31.6000 C   0  0  0  0  0  0  0  0  0  0  0  0
   -7.9140   19.5510  -31.7790 C   0  0  0  0  0  0  0  0  0  0  0  0
   -9.1290   19.8250  -32.3770 C   0  0  0  0  0  0  0  0  0  0  0  0
   -9.2860   21.1920  -32.2940 C   0  0  0  0  0  0  0  0  0  0  0  0
   -8.1590   21.6600  -31.6440 C   0  0  0  0  0  0  0  0  0  0  0  0
   -7.8610   23.0990  -31.3290 C   0  0  0  0  0  0  0  0  0  0  0  0
   -6.5790   23.2500  -30.6000 N   0  0  0  0  0  0  0  0  0  0  0  0
   -6.5210   24.5320  -29.8380 C   0  0  0  0  0  0  0  0  0  0  0  0
   -5.6880   25.6050  -30.5570 C   0  0  0  0  0  0  0  0  0  0  0  0
   -4.2970   25.1660  -30.7610 N   0  0  0  0  0  0  0  0  0  0  0  0
   -4.1580   23.7150  -30.9900 C   0  0  0  0  0  0  0  0  0  0  0  0
   -5.4450   23.0890  -31.5470 C   0  0  0  0  0  0  0  0  0  0  0  0
   -7.3590   20.6610  -31.3480 O   0  0  0  0  0  0  0  0  0  0  0  0
   -6.2276   16.7471  -32.7775 H   0  0  0  0  0  0  0  0  0  0  0  0
   -7.7689   17.3053  -33.5121 H   0  0  0  0  0  0  0  0  0  0  0  0
   -6.3318   18.3830  -33.5121 H   0  0  0  0  0  0  0  0  0  0  0  0
   -8.0565   17.5248  -31.1426 H   0  0  0  0  0  0  0  0  0  0  0  0
   -6.4286   18.2792  -30.9503 H   0  0  0  0  0  0  0  0  0  0  0  0
   -9.8263   19.1024  -32.8261 H   0  0  0  0  0  0  0  0  0  0  0  0
  -10.1324   21.7871  -32.6675 H   0  0  0  0  0  0  0  0  0  0  0  0
   -7.8038   23.6649  -32.2705 H   0  0  0  0  0  0  0  0  0  0  0  0
   -8.6669   23.4816  -30.6854 H   0  0  0  0  0  0  0  0  0  0  0  0
   -6.5060   22.4660  -29.9080 H   0  0  0  0  0  0  0  0  0  0  0  0
   -7.5453   24.9104  -29.7052 H   0  0  0  0  0  0  0  0  0  0  0  0
   -6.0385   24.3255  -28.8713 H   0  0  0  0  0  0  0  0  0  0  0  0
   -6.1436   25.8137  -31.5362 H   0  0  0  0  0  0  0  0  0  0  0  0
   -5.6749   26.5080  -29.9290 H   0  0  0  0  0  0  0  0  0  0  0  0
   -3.9180   25.6740  -31.5960 H   0  0  0  0  0  0  0  0  0  0  0  0
   -3.3424   23.5464  -31.7086 H   0  0  0  0  0  0  0  0  0  0  0  0
   -3.9433   23.2396  -30.0215 H   0  0  0  0  0  0  0  0  0  0  0  0
   -5.6998   23.5803  -32.4976 H   0  0  0  0  0  0  0  0  0  0  0  0
   -5.2700   22.0136  -31.6986 H   0  0  0  0  0  0  0  0  0  0  0  0
  1  2  1  0
  2  3  1  0
  3  4  2  0
  4  5  1  0
  5  6  2  0
  6  7  1  0
  7  8  1  0
  8  9  1  0
  9 10  1  0
 10 11  1  0
 11 12  1  0
 12 13  1  0
  6 14  1  0
 14  3  1  0
 13  8  1  0
  1 15  1  0
  1 16  1  0
  1 17  1  0
  2 18  1  0
  2 19  1  0
  4 20  1  0
  5 21  1  0
  7 22  1  0
  7 23  1  0
  8 24  1  0
  9 25  1  0
  9 26  1  0
 10 27  1  0
 10 28  1  0
 11 29  1  0
 12 30  1  0
 12 31  1  0
 13 32  1  0
 13 33  1  0
M  CHG  1   8   1
M  END
>  <UniqueID>  (37) 
36

>  <SMILES>  (37) 
CCc1ccc(C[NH+]2CCNCC2)o1

>  <Energy>  (37) 
64.10671644740485

>  <Genealogy>  (37) 
CCc1ccc(C[NH+]2CCNCC2)o1 (protonated)
CCc1ccc(C[NH+]2CCNCC2)o1 (3D coordinates assigned)
CCc1ccc(C[NH+]2CCNCC2)o1 (nonaromatic ring conformer: 64.10671644740485 kcal/mol)

>  <smiles>  (37) 
CCc1ccc(CN2CCNCC2)o1

>  <score_type>  (37) 
oracle

>  <origin>  (37) 
adg

>  <m_score__min__energy>  (37) 
-5.75

>  <m_primary>  (37) 
energy

$$$$
37:0
     RDKit          3D

 50 54  0  0  0  0  0  0  0  0999 V2000
    0.6274   21.8001  -27.6175 H   0  0  0  0  0  0  0  0  0  0  0  0
    0.3360   22.8560  -27.5170 C   0  0  0  0  0  0  0  0  0  0  0  0
    0.9010   23.6430  -26.5130 C   0  0  0  0  0  0  0  0  0  0  0  0
    1.6289   23.2029  -25.8155 H   0  0  0  0  0  0  0  0  0  0  0  0
    0.5450   24.9880  -26.3910 C   0  0  0  0  0  0  0  0  0  0  0  0
    0.9992   25.6048  -25.6015 H   0  0  0  0  0  0  0  0  0  0  0  0
   -0.3930   25.5590  -27.2740 C   0  0  0  0  0  0  0  0  0  0  0  0
   -0.7390   26.9190  -27.2140 O   0  0  0  0  0  0  0  0  0  0  0  0
   -0.5730   27.7440  -26.0650 C   0  0  0  0  0  0  0  0  0  0  0  0
   -0.6953   27.1361  -25.1564 H   0  0  0  0  0  0  0  0  0  0  0  0
    0.4328   28.1894  -26.0756 H   0  0  0  0  0  0  0  0  0  0  0  0
   -1.3282   28.5437  -26.0756 H   0  0  0  0  0  0  0  0  0  0  0  0
   -0.9910   24.7480  -28.2610 C   0  0  0  0  0  0  0  0  0  0  0  0
   -1.9440   25.2850  -29.1910 N   0  0  0  0  0  0  0  0  0  0  0  0
   -3.1060   24.7660  -29.4520 C   0  0  0  0  0  0  0  0  0  0  0  0
   -3.8430   25.1650  -30.5180 N   0  0  0  0  0  0  0  0  0  0  0  0
   -4.9970   24.4540  -30.5950 C   0  0  0  0  0  0  0  0  0  0  0  0
   -5.9720   24.6190  -31.5740 C   0  0  0  0  0  0  0  0  0  0  0  0
   -5.8545   25.3735  -32.3658 H   0  0  0  0  0  0  0  0  0  0  0  0
   -7.1090   23.7980  -31.5250 C   0  0  0  0  0  0  0  0  0  0  0  0
   -7.8949   23.9010  -32.2878 H   0  0  0  0  0  0  0  0  0  0  0  0
   -7.2450   22.8370  -30.4940 C   0  0  0  0  0  0  0  0  0  0  0  0
   -8.4420   21.9270  -30.4720 C   0  0  0  0  0  0  0  0  0  0  0  0
   -9.3459   22.5093  -30.7039 H   0  0  0  0  0  0  0  0  0  0  0  0
   -8.5331   21.4762  -29.4727 H   0  0  0  0  0  0  0  0  0  0  0  0
   -8.2800   20.8380  -31.4880 C   0  0  0  0  0  0  0  0  0  0  0  0
   -9.3040   20.1820  -32.1660 C   0  0  0  0  0  0  0  0  0  0  0  0
  -10.3776   20.3377  -31.9842 H   0  0  0  0  0  0  0  0  0  0  0  0
   -8.7920   19.3260  -33.0800 N   0  0  0  0  0  0  0  0  0  0  0  0
   -9.3300   18.7130  -33.7320 H   0  0  0  0  0  0  0  0  0  0  0  0
   -7.4560   19.4470  -32.9940 C   0  0  0  0  0  0  0  0  0  0  0  0
   -6.4990   18.7830  -33.7570 C   0  0  0  0  0  0  0  0  0  0  0  0
   -6.7930   18.0488  -34.5215 H   0  0  0  0  0  0  0  0  0  0  0  0
   -5.1450   19.0800  -33.5200 C   0  0  0  0  0  0  0  0  0  0  0  0
   -4.3667   18.5696  -34.1063 H   0  0  0  0  0  0  0  0  0  0  0  0
   -4.7710   20.0260  -32.5380 C   0  0  0  0  0  0  0  0  0  0  0  0
   -3.4050   20.2850  -32.3530 O   0  0  0  0  0  0  0  0  0  0  0  0
   -2.8390   21.5890  -32.2700 C   0  0  0  0  0  0  0  0  0  0  0  0
   -2.7173   21.8693  -31.2133 H   0  0  0  0  0  0  0  0  0  0  0  0
   -1.8573   21.5949  -32.7663 H   0  0  0  0  0  0  0  0  0  0  0  0
   -3.5051   22.3101  -32.7663 H   0  0  0  0  0  0  0  0  0  0  0  0
   -5.7710   20.6810  -31.7790 C   0  0  0  0  0  0  0  0  0  0  0  0
   -5.5042   21.4188  -31.0079 H   0  0  0  0  0  0  0  0  0  0  0  0
   -7.1050   20.3630  -32.0380 C   0  0  0  0  0  0  0  0  0  0  0  0
   -6.2600   22.7020  -29.5520 N   0  0  0  0  0  0  0  0  0  0  0  0
   -6.3410   21.9930  -28.7890 H   0  0  0  0  0  0  0  0  0  0  0  0
   -5.1660   23.5010  -29.6110 C   0  0  0  0  0  0  0  0  0  0  0  0
   -3.8460   23.5030  -28.5760 S   0  0  0  0  0  0  0  0  0  0  0  0
   -0.6000   23.4090  -28.3950 C   0  0  0  0  0  0  0  0  0  0  0  0
   -1.0320   22.7902  -29.1953 H   0  0  0  0  0  0  0  0  0  0  0  0
  1  2  1  0
  2  3  2  0
  3  4  1  0
  3  5  1  0
  5  6  1  0
  5  7  2  0
  7  8  1  0
  8  9  1  0
  9 10  1  0
  9 11  1  0
  9 12  1  0
  7 13  1  0
 13 14  1  0
 14 15  2  0
 15 16  1  0
 16 17  1  0
 17 18  2  0
 18 19  1  0
 18 20  1  0
 20 21  1  0
 20 22  2  0
 22 23  1  0
 23 24  1  0
 23 25  1  0
 23 26  1  0
 26 27  2  0
 27 28  1  0
 27 29  1  0
 29 30  1  0
 29 31  1  0
 31 32  2  0
 32 33  1  0
 32 34  1  0
 34 35  1  0
 34 36  2  0
 36 37  1  0
 37 38  1  0
 38 39  1  0
 38 40  1  0
 38 41  1  0
 36 42  1  0
 42 43  1  0
 42 44  2  0
 22 45  1  0
 45 46  1  0
 45 47  2  0
 47 48  1  0
 13 49  2  0
 49 50  1  0
 49  2  1  0
 48 15  1  0
 47 17  1  0
 44 26  1  0
 44 31  1  0
M  CHG  2  16  -1  45   1
M  END
>  <UniqueID>  (38) 
37

>  <SMILES>  (38) 
COc1ccc2[nH]cc(Cc3ccc4[n-]/c(=N/c5ccccc5OC)sc4[nH+]3)c2c1

>  <Energy>  (38) 
129.34736028421045

>  <Genealogy>  (38) 
COc1ccc2[nH]cc(Cc3ccc4[n-]c(=Nc5ccccc5OC)sc4[nH+]3)c2c1 (protonated)
COc1ccc2[nH]cc(Cc3ccc4[n-]/c(=N/c5ccccc5OC)sc4[nH+]3)c2c1 (cis-trans isomerization)
COc1ccc2[nH]cc(Cc3ccc4[n-]/c(=N/c5ccccc5OC)sc4[nH+]3)c2c1 (3D coordinates assigned)
COc1ccc2[nH]cc(Cc3ccc4[n-]/c(=N/c5ccccc5OC)sc4[nH+]3)c2c1 (optimized conformer: 129.34736028421045 kcal/mol)

>  <smiles>  (38) 
COc1ccc2[nH]cc(Cc3ccc4[nH]c(=Nc5ccccc5OC)sc4n3)c2c1

>  <score_type>  (38) 
oracle

>  <origin>  (38) 
adg

>  <m_score__min__energy>  (38) 
-11.31

>  <m_primary>  (38) 
energy

$$$$
38:0
     RDKit          3D

 40 42  0  0  1  0  0  0  0  0999 V2000
   -4.9300   17.5280  -34.9990 C   0  0  0  0  0  0  0  0  0  0  0  0
   -5.6450   18.6400  -34.4730 O   0  0  0  0  0  0  0  0  0  0  0  0
   -5.7470   18.9200  -33.1200 C   0  0  0  0  0  0  0  0  0  0  0  0
   -4.8630   18.5510  -32.3260 O   0  0  0  0  0  0  0  0  0  0  0  0
   -6.9160   19.6630  -32.6210 C   0  0  0  0  0  0  0  0  0  0  0  0
   -8.0480   19.0180  -32.2170 C   0  0  0  0  0  0  0  0  0  0  0  0
   -9.1150   19.7640  -31.7580 C   0  0  0  0  0  0  0  0  0  0  0  0
   -2.1890   21.6990  -30.2150 C   0  0  0  0  0  0  0  0  0  0  0  0
   -2.8720   22.4580  -31.1400 C   0  0  0  0  0  0  0  0  0  0  0  0
   -7.7800   23.2020  -32.0840 N   0  0  0  0  0  0  0  0  0  0  0  0
   -6.8460   23.6990  -31.3750 C   0  0  0  0  0  0  0  0  0  0  0  0
   -7.2150   24.5760  -30.3630 C   0  0  0  0  0  0  0  0  0  0  0  0
   -6.2840   25.1660  -29.5420 C   0  0  0  0  0  0  0  0  0  0  0  0
   -4.9910   24.8570  -29.7590 N   0  0  0  0  0  0  0  0  0  0  0  0
   -4.6130   24.0110  -30.7340 C   0  0  0  0  0  0  0  0  0  0  0  0
   -3.3480   23.7770  -30.8640 N   0  0  0  0  0  0  0  0  0  0  0  0
   -7.9600   21.7900  -32.0930 C   0  0  0  0  0  0  0  0  0  0  0  0
   -9.0870   21.1490  -31.6900 C   0  0  0  0  0  0  0  0  0  0  0  0
   -1.7500   20.4180  -30.5520 C   0  0  0  0  0  0  0  0  0  0  0  0
   -2.0020   19.9080  -31.8180 C   0  0  0  0  0  0  0  0  0  0  0  0
   -2.6950   20.6660  -32.7690 C   0  0  0  0  0  0  0  0  0  0  0  0
   -2.9420   20.1640  -34.0150 F   0  0  0  0  0  0  0  0  0  0  0  0
   -3.1170   21.9340  -32.4070 C   0  0  0  0  0  0  0  0  0  0  0  0
   -5.5420   23.4340  -31.5380 N   0  0  0  0  0  0  0  0  0  0  0  0
   -6.8900   21.0390  -32.5530 C   0  0  0  0  0  0  0  0  0  0  0  0
   -4.5384   16.9190  -34.1709 H   0  0  0  0  0  0  0  0  0  0  0  0
   -5.6049   16.9169  -35.6164 H   0  0  0  0  0  0  0  0  0  0  0  0
   -4.0940   17.8884  -35.6164 H   0  0  0  0  0  0  0  0  0  0  0  0
   -8.1097   17.9204  -32.2563 H   0  0  0  0  0  0  0  0  0  0  0  0
  -10.0249   19.2383  -31.4328 H   0  0  0  0  0  0  0  0  0  0  0  0
   -1.9898   22.1026  -29.2113 H   0  0  0  0  0  0  0  0  0  0  0  0
   -8.2808   24.8044  -30.2147 H   0  0  0  0  0  0  0  0  0  0  0  0
   -6.5818   25.8603  -28.7425 H   0  0  0  0  0  0  0  0  0  0  0  0
   -4.3020   25.3280  -29.1110 H   0  0  0  0  0  0  0  0  0  0  0  0
   -9.9553   21.7134  -31.3192 H   0  0  0  0  0  0  0  0  0  0  0  0
   -1.2040   19.8121  -29.8139 H   0  0  0  0  0  0  0  0  0  0  0  0
   -1.6534   18.8973  -32.0768 H   0  0  0  0  0  0  0  0  0  0  0  0
   -3.6617   22.5454  -33.1415 H   0  0  0  0  0  0  0  0  0  0  0  0
   -5.2650   22.7890  -32.2820 H   0  0  0  0  0  0  0  0  0  0  0  0
   -5.9799   21.5644  -32.8781 H   0  0  0  0  0  0  0  0  0  0  0  0
  1  2  1  0
  2  3  1  0
  3  4  2  0
  3  5  1  0
  5  6  2  0
  6  7  1  0
  7  8  2  0
  8  9  1  0
  9 10  1  0
 10 11  2  0
 11 12  1  0
 12 13  2  0
 13 14  1  0
 14 15  1  0
 15 16  2  0
 16 17  1  0
 17 18  2  0
 18 19  1  0
 19 20  2  0
 20 21  1  0
 21 22  1  0
 21 23  2  0
 15 24  1  0
  9 25  2  0
 25  5  1  0
 24 11  1  0
 23 17  1  0
  1 26  1  0
  1 27  1  0
  1 28  1  0
  6 29  1  0
  7 30  1  0
  8 31  1  0
 12 32  1  0
 13 33  1  0
 14 34  1  0
 18 35  1  0
 19 36  1  0
 20 37  1  0
 23 38  1  0
 24 39  1  0
 25 40  1  0
M  END
>  <smiles>  (39) 
COC(=O)c1cccc(N=c2cc[nH]c(=Nc3cccc(F)c3)[nH]2)c1

>  <score_type>  (39) 
oracle

>  <origin>  (39) 
adg

>  <m_score__min__energy>  (39) 
-8.1899999999999995

>  <m_primary>  (39) 
energy

$$$$
39:0
     RDKit          3D

 46 49  0  0  0  0  0  0  0  0999 V2000
   -3.3950   21.4690  -33.4410 C   0  0  0  0  0  0  0  0  0  0  0  0
   -4.7600   20.9010  -33.2160 C   0  0  0  0  0  0  0  0  0  0  0  0
   -5.2820   19.7230  -33.7350 C   0  0  0  0  0  0  0  0  0  0  0  0
   -4.5970   18.8510  -34.5850 O   0  0  0  0  0  0  0  0  0  0  0  0
   -3.3650   18.2360  -34.2190 C   0  0  0  0  0  0  0  0  0  0  0  0
   -3.6250   16.8850  -33.5280 C   0  0  0  0  0  0  0  0  0  0  0  0
   -5.0560   16.6710  -33.1770 N   0  0  0  0  0  0  0  0  0  0  0  0
   -5.2430   15.9350  -31.9020 C   0  0  0  0  0  0  0  0  0  0  0  0
   -4.7260   14.4860  -31.9720 C   0  0  0  0  0  0  0  0  0  0  0  0
   -4.9970   13.8230  -33.3340 C   0  0  0  0  0  0  0  0  0  0  0  0
   -6.1150   14.5320  -34.0950 C   0  0  0  0  0  0  0  0  0  0  0  0
   -5.8010   16.0310  -34.3030 C   0  0  0  0  0  0  0  0  0  0  0  0
   -6.5200   19.5320  -33.3160 O   0  0  0  0  0  0  0  0  0  0  0  0
   -6.8290   20.5420  -32.5390 C   0  0  0  0  0  0  0  0  0  0  0  0
   -8.0330   20.7580  -31.8720 C   0  0  0  0  0  0  0  0  0  0  0  0
   -8.1550   21.9150  -31.0800 C   0  0  0  0  0  0  0  0  0  0  0  0
   -7.0750   22.8250  -30.9720 C   0  0  0  0  0  0  0  0  0  0  0  0
   -7.1650   23.9810  -30.1930 C   0  0  0  0  0  0  0  0  0  0  0  0
   -6.0720   24.8450  -30.1190 C   0  0  0  0  0  0  0  0  0  0  0  0
   -4.9070   24.5330  -30.8300 C   0  0  0  0  0  0  0  0  0  0  0  0
   -3.9120   25.3030  -30.7730 O   0  0  0  0  0  0  0  0  0  0  0  0
   -4.8410   23.4270  -31.5660 O   0  0  0  0  0  0  0  0  0  0  0  0
   -5.8600   22.5770  -31.6630 C   0  0  0  0  0  0  0  0  0  0  0  0
   -5.7760   21.4210  -32.4400 C   0  0  0  0  0  0  0  0  0  0  0  0
   -2.9163   21.6682  -32.4709 H   0  0  0  0  0  0  0  0  0  0  0  0
   -2.7873   20.7491  -34.0088 H   0  0  0  0  0  0  0  0  0  0  0  0
   -3.4774   22.4075  -34.0088 H   0  0  0  0  0  0  0  0  0  0  0  0
   -2.7598   18.0706  -35.1225 H   0  0  0  0  0  0  0  0  0  0  0  0
   -2.8293   18.8967  -33.5215 H   0  0  0  0  0  0  0  0  0  0  0  0
   -3.3070   16.0789  -34.2056 H   0  0  0  0  0  0  0  0  0  0  0  0
   -3.0543   16.8839  -32.5876 H   0  0  0  0  0  0  0  0  0  0  0  0
   -5.4760   17.6210  -33.0390 H   0  0  0  0  0  0  0  0  0  0  0  0
   -4.6988   16.4650  -31.1064 H   0  0  0  0  0  0  0  0  0  0  0  0
   -6.3230   15.8934  -31.6972 H   0  0  0  0  0  0  0  0  0  0  0  0
   -3.6407   14.4907  -31.7928 H   0  0  0  0  0  0  0  0  0  0  0  0
   -5.2625   13.9049  -31.2074 H   0  0  0  0  0  0  0  0  0  0  0  0
   -4.0775   13.8582  -33.9368 H   0  0  0  0  0  0  0  0  0  0  0  0
   -5.3105   12.7842  -33.1533 H   0  0  0  0  0  0  0  0  0  0  0  0
   -6.2370   14.0533  -35.0778 H   0  0  0  0  0  0  0  0  0  0  0  0
   -7.0381   14.4533  -33.5019 H   0  0  0  0  0  0  0  0  0  0  0  0
   -5.1960   16.1316  -35.2161 H   0  0  0  0  0  0  0  0  0  0  0  0
   -6.7702   16.5469  -34.3695 H   0  0  0  0  0  0  0  0  0  0  0  0
   -8.8651   20.0441  -31.9619 H   0  0  0  0  0  0  0  0  0  0  0  0
   -9.0938   22.1136  -30.5422 H   0  0  0  0  0  0  0  0  0  0  0  0
   -8.0898   24.2082  -29.6425 H   0  0  0  0  0  0  0  0  0  0  0  0
   -6.1249   25.7595  -29.5099 H   0  0  0  0  0  0  0  0  0  0  0  0
  1  2  1  0
  2  3  2  0
  3  4  1  0
  4  5  1  0
  5  6  1  0
  6  7  1  0
  7  8  1  0
  8  9  1  0
  9 10  1  0
 10 11  1  0
 11 12  1  0
  3 13  1  0
 13 14  1  0
 14 15  2  0
 15 16  1  0
 16 17  2  0
 17 18  1  0
 18 19  2  0
 19 20  1  0
 20 21  2  0
 20 22  1  0
 22 23  1  0
 23 24  2  0
 24  2  1  0
 12  7  1  0
 24 14  1  0
 23 17  1  0
  1 25  1  0
  1 26  1  0
  1 27  1  0
  5 28  1  0
  5 29  1  0
  6 30  1  0
  6 31  1  0
  7 32  1  0
  8 33  1  0
  8 34  1  0
  9 35  1  0
  9 36  1  0
 10 37  1  0
 10 38  1  0
 11 39  1  0
 11 40  1  0
 12 41  1  0
 12 42  1  0
 15 43  1  0
 16 44  1  0
 18 45  1  0
 19 46  1  0
M  CHG  1   7   1
M  END
>  <UniqueID>  (40) 
38

>  <SMILES>  (40) 
Cc1c(OCC[NH+]2CCCCC2)oc2ccc3ccc(=O)oc3c12

>  <Energy>  (40) 
93.21746277697342

>  <Genealogy>  (40) 
Cc1c(OCC[NH+]2CCCCC2)oc2ccc3ccc(=O)oc3c12 (protonated)
Cc1c(OCC[NH+]2CCCCC2)oc2ccc3ccc(=O)oc3c12 (3D coordinates assigned)
Cc1c(OCC[NH+]2CCCCC2)oc2ccc3ccc(=O)oc3c12 (nonaromatic ring conformer: 93.21746277697342 kcal/mol)

>  <smiles>  (40) 
Cc1c(OCCN2CCCCC2)oc2ccc3ccc(=O)oc3c12

>  <score_type>  (40) 
oracle

>  <origin>  (40) 
adg

>  <m_score__min__energy>  (40) 
-7.46

>  <m_primary>  (40) 
energy

$$$$
40:0
     RDKit          3D

 41 43  0  0  0  0  0  0  0  0999 V2000
   -6.8760   19.0100  -31.2500 O   0  0  0  0  0  0  0  0  0  0  0  0
   -6.9020   19.3800  -32.4540 C   0  0  0  0  0  0  0  0  0  0  0  0
   -5.6250   19.4430  -33.2310 C   0  0  0  0  0  0  0  0  0  0  0  0
   -4.7430   20.5070  -32.6610 C   0  0  0  0  0  0  0  0  0  0  0  0
   -4.0200   21.4330  -33.3760 C   0  0  0  0  0  0  0  0  0  0  0  0
   -3.4400   22.2270  -32.5110 O   0  0  0  0  0  0  0  0  0  0  0  0
   -3.7920   21.8210  -31.3100 C   0  0  0  0  0  0  0  0  0  0  0  0
   -3.3630   22.4870  -30.0640 C   0  0  0  0  0  0  0  0  0  0  0  0
   -3.4340   21.8050  -28.8380 C   0  0  0  0  0  0  0  0  0  0  0  0
   -3.0040   22.4240  -27.6600 C   0  0  0  0  0  0  0  0  0  0  0  0
   -2.5010   23.7270  -27.6960 C   0  0  0  0  0  0  0  0  0  0  0  0
   -2.4250   24.4130  -28.9110 C   0  0  0  0  0  0  0  0  0  0  0  0
   -1.9320   25.6750  -28.9460 F   0  0  0  0  0  0  0  0  0  0  0  0
   -2.8540   23.7970  -30.0920 C   0  0  0  0  0  0  0  0  0  0  0  0
   -4.6120   20.7490  -31.3430 N   0  0  0  0  0  0  0  0  0  0  0  0
   -8.1360   19.7900  -33.0630 N   0  0  0  0  0  0  0  0  0  0  0  0
   -9.3940   19.8830  -32.3230 C   0  0  0  0  0  0  0  0  0  0  0  0
   -9.7590   21.3440  -32.0480 C   0  0  0  0  0  0  0  0  0  0  0  0
   -8.5840   22.1340  -31.5240 C   0  0  0  0  0  0  0  0  0  0  0  0
   -8.1380   21.9530  -30.2040 C   0  0  0  0  0  0  0  0  0  0  0  0
   -7.0420   22.6790  -29.7260 C   0  0  0  0  0  0  0  0  0  0  0  0
   -6.4010   23.6050  -30.5510 C   0  0  0  0  0  0  0  0  0  0  0  0
   -6.8450   23.7990  -31.8610 C   0  0  0  0  0  0  0  0  0  0  0  0
   -7.9290   23.0630  -32.3500 C   0  0  0  0  0  0  0  0  0  0  0  0
   -5.1121   18.4717  -33.1717 H   0  0  0  0  0  0  0  0  0  0  0  0
   -5.8482   19.6780  -34.2822 H   0  0  0  0  0  0  0  0  0  0  0  0
   -3.9431   21.4952  -34.4715 H   0  0  0  0  0  0  0  0  0  0  0  0
   -3.8297   20.7792  -28.8044 H   0  0  0  0  0  0  0  0  0  0  0  0
   -3.0619   21.8841  -26.7034 H   0  0  0  0  0  0  0  0  0  0  0  0
   -2.1649   24.2127  -26.7681 H   0  0  0  0  0  0  0  0  0  0  0  0
   -2.7926   24.3403  -31.0465 H   0  0  0  0  0  0  0  0  0  0  0  0
   -8.1220   20.1250  -34.0540 H   0  0  0  0  0  0  0  0  0  0  0  0
  -10.1954   19.4168  -32.9150 H   0  0  0  0  0  0  0  0  0  0  0  0
   -9.2751   19.3632  -31.3609 H   0  0  0  0  0  0  0  0  0  0  0  0
  -10.1071   21.8049  -32.9842 H   0  0  0  0  0  0  0  0  0  0  0  0
  -10.5460   21.3577  -31.2796 H   0  0  0  0  0  0  0  0  0  0  0  0
   -8.6522   21.2383  -29.5445 H   0  0  0  0  0  0  0  0  0  0  0  0
   -6.6845   22.5199  -28.6980 H   0  0  0  0  0  0  0  0  0  0  0  0
   -5.5459   24.1821  -30.1692 H   0  0  0  0  0  0  0  0  0  0  0  0
   -6.3414   24.5316  -32.5089 H   0  0  0  0  0  0  0  0  0  0  0  0
   -8.2701   23.2119  -33.3851 H   0  0  0  0  0  0  0  0  0  0  0  0
  1  2  2  0
  2  3  1  0
  3  4  1  0
  4  5  2  0
  5  6  1  0
  6  7  1  0
  7  8  1  0
  8  9  2  0
  9 10  1  0
 10 11  2  0
 11 12  1  0
 12 13  1  0
 12 14  2  0
  7 15  2  0
  2 16  1  0
 16 17  1  0
 17 18  1  0
 18 19  1  0
 19 20  2  0
 20 21  1  0
 21 22  2  0
 22 23  1  0
 23 24  2  0
 15  4  1  0
 24 19  1  0
 14  8  1  0
  3 25  1  0
  3 26  1  0
  5 27  1  0
  9 28  1  0
 10 29  1  0
 11 30  1  0
 14 31  1  0
 16 32  1  0
 17 33  1  0
 17 34  1  0
 18 35  1  0
 18 36  1  0
 20 37  1  0
 21 38  1  0
 22 39  1  0
 23 40  1  0
 24 41  1  0
M  END
>  <UniqueID>  (41) 
39

>  <SMILES>  (41) 
O=C(Cc1coc(-c2cccc(F)c2)n1)NCCc1ccccc1

>  <Energy>  (41) 
61.6271175709253

>  <Genealogy>  (41) 
O=C(Cc1coc(-c2cccc(F)c2)n1)NCCc1ccccc1 (3D coordinates assigned)
O=C(Cc1coc(-c2cccc(F)c2)n1)NCCc1ccccc1 (optimized conformer: 61.6271175709253 kcal/mol)

>  <smiles>  (41) 
O=C(Cc1coc(-c2cccc(F)c2)n1)NCCc1ccccc1

>  <score_type>  (41) 
oracle

>  <origin>  (41) 
adg

>  <m_score__min__energy>  (41) 
-7.8700000000000001

>  <m_primary>  (41) 
energy

$$$$
41:0
     RDKit          3D

 39 41  0  0  0  0  0  0  0  0999 V2000
   -2.1270   24.8770  -28.6110 C   0  0  0  0  0  0  0  0  0  0  0  0
   -2.9720   25.2990  -29.6760 O   0  0  0  0  0  0  0  0  0  0  0  0
   -4.1140   24.6020  -30.1040 C   0  0  0  0  0  0  0  0  0  0  0  0
   -5.4110   25.1350  -29.9870 C   0  0  0  0  0  0  0  0  0  0  0  0
   -6.5160   24.4020  -30.4300 C   0  0  0  0  0  0  0  0  0  0  0  0
   -6.3440   23.1290  -30.9990 C   0  0  0  0  0  0  0  0  0  0  0  0
   -7.5050   22.3630  -31.4940 C   0  0  0  0  0  0  0  0  0  0  0  0
   -7.4100   21.1390  -32.0550 N   0  0  0  0  0  0  0  0  0  0  0  0
   -8.6920   20.8200  -32.3120 C   0  0  0  0  0  0  0  0  0  0  0  0
   -9.1300   19.5110  -32.8860 C   0  0  0  0  0  0  0  0  0  0  0  0
   -9.0930   18.2030  -31.6060 S   0  0  0  0  0  0  0  0  0  0  0  0
   -7.2860   18.2170  -31.3000 C   0  0  0  0  0  0  0  0  0  0  0  0
   -6.4930   18.0670  -32.5710 C   0  0  0  0  0  0  0  0  0  0  0  0
   -5.5390   19.0330  -32.9350 C   0  0  0  0  0  0  0  0  0  0  0  0
   -4.8150   18.8970  -34.1240 C   0  0  0  0  0  0  0  0  0  0  0  0
   -5.0210   17.7870  -34.9470 C   0  0  0  0  0  0  0  0  0  0  0  0
   -5.9480   16.8080  -34.5800 C   0  0  0  0  0  0  0  0  0  0  0  0
   -6.6800   16.9440  -33.3970 C   0  0  0  0  0  0  0  0  0  0  0  0
   -9.5130   21.8520  -31.9150 C   0  0  0  0  0  0  0  0  0  0  0  0
   -8.7480   22.7880  -31.4130 O   0  0  0  0  0  0  0  0  0  0  0  0
   -5.0490   22.6000  -31.1140 C   0  0  0  0  0  0  0  0  0  0  0  0
   -3.9450   23.3330  -30.6690 C   0  0  0  0  0  0  0  0  0  0  0  0
   -2.6035   25.1150  -27.6485 H   0  0  0  0  0  0  0  0  0  0  0  0
   -1.9635   23.7915  -28.6807 H   0  0  0  0  0  0  0  0  0  0  0  0
   -1.1610   25.3985  -28.6807 H   0  0  0  0  0  0  0  0  0  0  0  0
   -5.5560   26.1320  -29.5454 H   0  0  0  0  0  0  0  0  0  0  0  0
   -7.5268   24.8248  -30.3324 H   0  0  0  0  0  0  0  0  0  0  0  0
  -10.1552   19.6103  -33.2722 H   0  0  0  0  0  0  0  0  0  0  0  0
   -8.4432   19.2320  -33.6987 H   0  0  0  0  0  0  0  0  0  0  0  0
   -7.0147   19.1707  -30.8236 H   0  0  0  0  0  0  0  0  0  0  0  0
   -7.0469   17.3625  -30.6498 H   0  0  0  0  0  0  0  0  0  0  0  0
   -5.3610   19.8999  -32.2818 H   0  0  0  0  0  0  0  0  0  0  0  0
   -4.0822   19.6653  -34.4116 H   0  0  0  0  0  0  0  0  0  0  0  0
   -4.4536   17.6838  -35.8837 H   0  0  0  0  0  0  0  0  0  0  0  0
   -6.1019   15.9289  -35.2231 H   0  0  0  0  0  0  0  0  0  0  0  0
   -7.4060   16.1688  -33.1105 H   0  0  0  0  0  0  0  0  0  0  0  0
  -10.6090   21.8838  -32.0034 H   0  0  0  0  0  0  0  0  0  0  0  0
   -4.9021   21.6037  -31.5565 H   0  0  0  0  0  0  0  0  0  0  0  0
   -2.9346   22.9086  -30.7638 H   0  0  0  0  0  0  0  0  0  0  0  0
  1  2  1  0
  2  3  1  0
  3  4  2  0
  4  5  1  0
  5  6  2  0
  6  7  1  0
  7  8  2  0
  8  9  1  0
  9 10  1  0
 10 11  1  0
 11 12  1  0
 12 13  1  0
 13 14  2  0
 14 15  1  0
 15 16  2  0
 16 17  1  0
 17 18  2  0
  9 19  2  0
 19 20  1  0
  6 21  1  0
 21 22  2  0
 22  3  1  0
 20  7  1  0
 18 13  1  0
  1 23  1  0
  1 24  1  0
  1 25  1  0
  4 26  1  0
  5 27  1  0
 10 28  1  0
 10 29  1  0
 12 30  1  0
 12 31  1  0
 14 32  1  0
 15 33  1  0
 16 34  1  0
 17 35  1  0
 18 36  1  0
 19 37  1  0
 21 38  1  0
 22 39  1  0
M  END
>  <UniqueID>  (42) 
40

>  <SMILES>  (42) 
COc1ccc(-c2nc(CSCc3ccccc3)co2)cc1

>  <Energy>  (42) 
62.81224576669848

>  <Genealogy>  (42) 
COc1ccc(-c2nc(CSCc3ccccc3)co2)cc1 (3D coordinates assigned)
COc1ccc(-c2nc(CSCc3ccccc3)co2)cc1 (optimized conformer: 62.81224576669848 kcal/mol)

>  <smiles>  (42) 
COc1ccc(-c2nc(CSCc3ccccc3)co2)cc1

>  <score_type>  (42) 
oracle

>  <origin>  (42) 
adg

>  <m_score__min__energy>  (42) 
-8.2799999999999994

>  <m_primary>  (42) 
energy

$$$$
42:0
     RDKit          3D

 56 60  0  0  0  0  0  0  0  0999 V2000
    0.3070   19.9120  -30.2440 C   0  0  0  0  0  0  0  0  0  0  0  0
   -0.7710   19.9700  -29.1930 C   0  0  0  0  0  0  0  0  0  0  0  0
   -0.6240   19.1830  -28.0380 C   0  0  0  0  0  0  0  0  0  0  0  0
   -1.5930   19.2030  -27.0340 C   0  0  0  0  0  0  0  0  0  0  0  0
   -2.7210   20.0100  -27.1680 C   0  0  0  0  0  0  0  0  0  0  0  0
   -2.8930   20.7850  -28.3150 C   0  0  0  0  0  0  0  0  0  0  0  0
   -1.9450   20.7540  -29.3550 C   0  0  0  0  0  0  0  0  0  0  0  0
   -2.1960   21.5920  -30.5970 C   0  0  0  0  0  0  0  0  0  0  0  0
   -3.6060   22.0190  -30.7030 N   0  0  0  0  0  0  0  0  0  0  0  0
   -4.1830   23.0080  -29.9580 C   0  0  0  0  0  0  0  0  0  0  0  0
   -3.4570   23.9900  -29.1310 C   0  0  0  0  0  0  0  0  0  0  0  0
   -2.8240   24.9260  -29.6900 O   0  0  0  0  0  0  0  0  0  0  0  0
   -3.4910   23.8980  -27.7000 N   0  0  0  0  0  0  0  0  0  0  0  0
   -2.7790   24.8400  -26.8410 C   0  0  0  0  0  0  0  0  0  0  0  0
   -1.3060   24.7560  -27.0910 C   0  0  0  0  0  0  0  0  0  0  0  0
   -0.4440   23.8000  -26.6000 C   0  0  0  0  0  0  0  0  0  0  0  0
    0.8070   24.1640  -27.0570 C   0  0  0  0  0  0  0  0  0  0  0  0
    0.7170   25.2640  -27.7720 O   0  0  0  0  0  0  0  0  0  0  0  0
   -0.5380   25.6490  -27.8090 C   0  0  0  0  0  0  0  0  0  0  0  0
   -5.5590   23.0100  -30.1070 C   0  0  0  0  0  0  0  0  0  0  0  0
   -5.8250   22.0160  -31.0130 C   0  0  0  0  0  0  0  0  0  0  0  0
   -7.0560   21.6100  -31.5130 C   0  0  0  0  0  0  0  0  0  0  0  0
   -7.0880   20.5670  -32.4640 C   0  0  0  0  0  0  0  0  0  0  0  0
   -8.3720   20.0210  -33.0680 C   0  0  0  0  0  0  0  0  0  0  0  0
   -9.6750   20.3620  -32.3590 C   0  0  0  0  0  0  0  0  0  0  0  0
   -9.1130   18.9480  -32.2820 C   0  0  0  0  0  0  0  0  0  0  0  0
   -5.8670   20.0090  -32.9070 C   0  0  0  0  0  0  0  0  0  0  0  0
   -4.6200   20.4550  -32.4160 C   0  0  0  0  0  0  0  0  0  0  0  0
   -3.3740   19.9110  -33.0560 C   0  0  0  0  0  0  0  0  0  0  0  0
   -4.6310   21.4440  -31.3980 C   0  0  0  0  0  0  0  0  0  0  0  0
    1.2917   19.8590  -29.7567 H   0  0  0  0  0  0  0  0  0  0  0  0
    0.1599   19.0205  -30.8713 H   0  0  0  0  0  0  0  0  0  0  0  0
    0.2564   20.8142  -30.8713 H   0  0  0  0  0  0  0  0  0  0  0  0
    0.2644   18.5444  -27.9241 H   0  0  0  0  0  0  0  0  0  0  0  0
   -1.4662   18.5809  -26.1357 H   0  0  0  0  0  0  0  0  0  0  0  0
   -3.4763   20.0359  -26.3688 H   0  0  0  0  0  0  0  0  0  0  0  0
   -3.7804   21.4283  -28.4079 H   0  0  0  0  0  0  0  0  0  0  0  0
   -1.5566   22.4862  -30.5569 H   0  0  0  0  0  0  0  0  0  0  0  0
   -1.9622   20.9735  -31.4761 H   0  0  0  0  0  0  0  0  0  0  0  0
   -3.9870   23.0960  -27.2520 H   0  0  0  0  0  0  0  0  0  0  0  0
   -3.1263   25.8614  -27.0557 H   0  0  0  0  0  0  0  0  0  0  0  0
   -2.9794   24.5884  -25.7891 H   0  0  0  0  0  0  0  0  0  0  0  0
   -0.6986   22.9307  -25.9759 H   0  0  0  0  0  0  0  0  0  0  0  0
    1.7389   23.6162  -26.8536 H   0  0  0  0  0  0  0  0  0  0  0  0
   -0.9164   26.5412  -28.3295 H   0  0  0  0  0  0  0  0  0  0  0  0
   -6.2840   23.6682  -29.6058 H   0  0  0  0  0  0  0  0  0  0  0  0
   -7.9858   22.0909  -31.1752 H   0  0  0  0  0  0  0  0  0  0  0  0
   -7.9996   20.1119  -34.0990 H   0  0  0  0  0  0  0  0  0  0  0  0
   -9.6640   21.0075  -31.4684 H   0  0  0  0  0  0  0  0  0  0  0  0
  -10.6355   20.8017  -32.6657 H   0  0  0  0  0  0  0  0  0  0  0  0
   -8.6960   18.5725  -31.3359 H   0  0  0  0  0  0  0  0  0  0  0  0
   -9.4994   17.9437  -32.5101 H   0  0  0  0  0  0  0  0  0  0  0  0
   -5.8887   19.2038  -33.6561 H   0  0  0  0  0  0  0  0  0  0  0  0
   -2.6652   19.6015  -32.2738 H   0  0  0  0  0  0  0  0  0  0  0  0
   -3.6317   19.0435  -33.6813 H   0  0  0  0  0  0  0  0  0  0  0  0
   -2.9130   20.6897  -33.6813 H   0  0  0  0  0  0  0  0  0  0  0  0
  1  2  1  0
  2  3  2  0
  3  4  1  0
  4  5  2  0
  5  6  1  0
  6  7  2  0
  7  8  1  0
  8  9  1  0
  9 10  1  0
 10 11  1  0
 11 12  2  0
 11 13  1  0
 13 14  1  0
 14 15  1  0
 15 16  1  0
 16 17  2  0
 17 18  1  0
 18 19  1  0
 10 20  2  0
 20 21  1  0
 21 22  2  0
 22 23  1  0
 23 24  1  0
 24 25  1  0
 25 26  1  0
 23 27  2  0
 27 28  1  0
 28 29  1  0
 28 30  2  0
  7  2  1  0
 30  9  1  0
 19 15  2  0
 30 21  1  0
 26 24  1  0
  1 31  1  0
  1 32  1  0
  1 33  1  0
  3 34  1  0
  4 35  1  0
  5 36  1  0
  6 37  1  0
  8 38  1  0
  8 39  1  0
 13 40  1  0
 14 41  1  0
 14 42  1  0
 16 43  1  0
 17 44  1  0
 19 45  1  0
 20 46  1  0
 22 47  1  0
 24 48  1  0
 25 49  1  0
 25 50  1  0
 26 51  1  0
 26 52  1  0
 27 53  1  0
 29 54  1  0
 29 55  1  0
 29 56  1  0
M  END
>  <UniqueID>  (43) 
41

>  <SMILES>  (43) 
Cc1ccccc1Cn1c(C(=O)NCc2ccoc2)cc2cc(C3CC3)cc(C)c21

>  <Energy>  (43) 
394.6914398726242

>  <Genealogy>  (43) 
Cc1ccccc1Cn1c(C(=O)NCc2ccoc2)cc2cc(C3CC3)cc(C)c21 (3D coordinates assigned)
Cc1ccccc1Cn1c(C(=O)NCc2ccoc2)cc2cc(C3CC3)cc(C)c21 (nonaromatic ring conformer: 394.6914398726242 kcal/mol)

>  <smiles>  (43) 
Cc1ccccc1Cn1c(C(=O)NCc2ccoc2)cc2cc(C3CC3)cc(C)c21

>  <score_type>  (43) 
oracle

>  <origin>  (43) 
adg

>  <m_score__min__energy>  (43) 
-9.4000000000000004

>  <m_primary>  (43) 
energy

$$$$
43:0
     RDKit          3D

 36 39  0  0  0  0  0  0  0  0999 V2000
   -6.1260   16.8910  -33.8330 C   0  0  0  0  0  0  0  0  0  0  0  0
   -5.7580   18.0140  -34.5800 C   0  0  0  0  0  0  0  0  0  0  0  0
   -6.0730   19.2970  -34.1220 C   0  0  0  0  0  0  0  0  0  0  0  0
   -6.7540   19.4640  -32.9040 C   0  0  0  0  0  0  0  0  0  0  0  0
   -7.0890   20.8240  -32.4170 C   0  0  0  0  0  0  0  0  0  0  0  0
   -8.4450   21.1870  -32.3280 C   0  0  0  0  0  0  0  0  0  0  0  0
   -8.8170   22.4210  -31.7950 C   0  0  0  0  0  0  0  0  0  0  0  0
   -7.8440   23.3080  -31.3390 C   0  0  0  0  0  0  0  0  0  0  0  0
   -6.4920   22.9720  -31.4300 C   0  0  0  0  0  0  0  0  0  0  0  0
   -6.0940   21.7410  -31.9820 C   0  0  0  0  0  0  0  0  0  0  0  0
   -4.6440   21.4710  -32.1240 C   0  0  0  0  0  0  0  0  0  0  0  0
   -3.7880   21.0040  -31.1310 C   0  0  0  0  0  0  0  0  0  0  0  0
   -2.5740   20.8650  -31.6880 N   0  0  0  0  0  0  0  0  0  0  0  0
   -1.4050   20.4460  -31.1400 C   0  0  0  0  0  0  0  0  0  0  0  0
   -0.2710   20.3930  -31.9620 C   0  0  0  0  0  0  0  0  0  0  0  0
   -0.3760   20.7700  -33.3160 C   0  0  0  0  0  0  0  0  0  0  0  0
   -1.6080   21.1950  -33.8410 C   0  0  0  0  0  0  0  0  0  0  0  0
   -2.7000   21.2270  -32.9760 C   0  0  0  0  0  0  0  0  0  0  0  0
   -3.9560   21.5980  -33.2840 N   0  0  0  0  0  0  0  0  0  0  0  0
   -7.1340   18.3300  -32.1650 C   0  0  0  0  0  0  0  0  0  0  0  0
   -6.8150   17.0500  -32.6280 C   0  0  0  0  0  0  0  0  0  0  0  0
   -5.8733   15.8830  -34.1937 H   0  0  0  0  0  0  0  0  0  0  0  0
   -5.2192   17.8879  -35.5307 H   0  0  0  0  0  0  0  0  0  0  0  0
   -5.7872   20.1775  -34.7162 H   0  0  0  0  0  0  0  0  0  0  0  0
   -9.2196   20.4909  -32.6822 H   0  0  0  0  0  0  0  0  0  0  0  0
   -9.8807   22.6946  -31.7345 H   0  0  0  0  0  0  0  0  0  0  0  0
   -8.1416   24.2747  -30.9066 H   0  0  0  0  0  0  0  0  0  0  0  0
   -5.7302   23.6772  -31.0663 H   0  0  0  0  0  0  0  0  0  0  0  0
   -4.0556   20.7891  -30.0859 H   0  0  0  0  0  0  0  0  0  0  0  0
   -1.3492   20.1561  -30.0803 H   0  0  0  0  0  0  0  0  0  0  0  0
    0.6942   20.0595  -31.5532 H   0  0  0  0  0  0  0  0  0  0  0  0
    0.5112   20.7313  -33.9651 H   0  0  0  0  0  0  0  0  0  0  0  0
   -1.7068   21.4915  -34.8957 H   0  0  0  0  0  0  0  0  0  0  0  0
   -4.3140   21.9240  -34.2100 H   0  0  0  0  0  0  0  0  0  0  0  0
   -7.6838   18.4502  -31.2199 H   0  0  0  0  0  0  0  0  0  0  0  0
   -7.1072   16.1660  -32.0422 H   0  0  0  0  0  0  0  0  0  0  0  0
  1  2  2  0
  2  3  1  0
  3  4  2  0
  4  5  1  0
  5  6  2  0
  6  7  1  0
  7  8  2  0
  8  9  1  0
  9 10  2  0
 10 11  1  0
 11 12  2  0
 12 13  1  0
 13 14  1  0
 14 15  2  0
 15 16  1  0
 16 17  2  0
 17 18  1  0
 18 19  2  0
  4 20  1  0
 20 21  2  0
 21  1  1  0
 10  5  1  0
 19 11  1  0
 18 13  1  0
  1 22  1  0
  2 23  1  0
  3 24  1  0
  6 25  1  0
  7 26  1  0
  8 27  1  0
  9 28  1  0
 12 29  1  0
 14 30  1  0
 15 31  1  0
 16 32  1  0
 17 33  1  0
 19 34  1  0
 20 35  1  0
 21 36  1  0
M  CHG  1  19   1
M  END
>  <UniqueID>  (44) 
42

>  <SMILES>  (44) 
c1ccc(-c2ccccc2-c2cn3ccccc3[nH+]2)cc1

>  <Energy>  (44) 
87.775997508062

>  <Genealogy>  (44) 
c1ccc(-c2ccccc2-c2cn3ccccc3[nH+]2)cc1 (protonated)
c1ccc(-c2ccccc2-c2cn3ccccc3[nH+]2)cc1 (3D coordinates assigned)
c1ccc(-c2ccccc2-c2cn3ccccc3[nH+]2)cc1 (optimized conformer: 87.775997508062 kcal/mol)

>  <smiles>  (44) 
c1ccc(-c2ccccc2-c2cn3ccccc3n2)cc1

>  <score_type>  (44) 
oracle

>  <origin>  (44) 
adg

>  <m_score__min__energy>  (44) 
-7.6500000000000004

>  <m_primary>  (44) 
energy

$$$$
44:0
     RDKit          3D

 43 45  0  0  0  0  0  0  0  0999 V2000
   -2.7560   24.5680  -29.3610 C   0  0  0  0  0  0  0  0  0  0  0  0
   -3.5030   25.2030  -30.4420 N   0  0  0  0  0  0  0  0  0  0  0  0
   -5.1520   24.6600  -30.4130 S   0  0  0  0  0  0  0  0  0  0  0  0
   -5.9850   25.5690  -31.2700 O   0  0  0  0  0  0  0  0  0  0  0  0
   -5.6820   24.7150  -29.0060 O   0  0  0  0  0  0  0  0  0  0  0  0
   -5.2670   23.0170  -31.0390 C   0  0  0  0  0  0  0  0  0  0  0  0
   -4.4330   22.0060  -30.5560 C   0  0  0  0  0  0  0  0  0  0  0  0
   -4.5280   20.7150  -31.0780 C   0  0  0  0  0  0  0  0  0  0  0  0
   -5.4630   20.4420  -32.0920 C   0  0  0  0  0  0  0  0  0  0  0  0
   -5.5840   19.0730  -32.6540 C   0  0  0  0  0  0  0  0  0  0  0  0
   -5.7390   17.9610  -31.8090 C   0  0  0  0  0  0  0  0  0  0  0  0
   -5.8500   16.6740  -32.3430 C   0  0  0  0  0  0  0  0  0  0  0  0
   -5.8140   16.4730  -33.7320 C   0  0  0  0  0  0  0  0  0  0  0  0
   -5.9150   15.1440  -34.2800 N   0  0  0  0  0  0  0  0  0  0  0  0
   -7.2210   14.5480  -34.5860 C   0  0  0  0  0  0  0  0  0  0  0  0
   -7.3360   13.1440  -33.9570 C   0  0  0  0  0  0  0  0  0  0  0  0
   -6.0380   12.4620  -33.7750 N   0  0  0  0  0  0  0  0  0  0  0  0
   -5.0350   12.8860  -34.7600 C   0  0  0  0  0  0  0  0  0  0  0  0
   -4.7010   14.3740  -34.5790 C   0  0  0  0  0  0  0  0  0  0  0  0
   -5.6490   17.5820  -34.5770 C   0  0  0  0  0  0  0  0  0  0  0  0
   -5.5370   18.8700  -34.0430 C   0  0  0  0  0  0  0  0  0  0  0  0
   -6.2650   21.4510  -32.5500 N   0  0  0  0  0  0  0  0  0  0  0  0
   -6.1820   22.7150  -32.0530 C   0  0  0  0  0  0  0  0  0  0  0  0
   -3.1536   24.9060  -28.3927 H   0  0  0  0  0  0  0  0  0  0  0  0
   -2.8574   23.4754  -29.4378 H   0  0  0  0  0  0  0  0  0  0  0  0
   -1.6940   24.8440  -29.4378 H   0  0  0  0  0  0  0  0  0  0  0  0
   -3.7017   22.2271  -29.7646 H   0  0  0  0  0  0  0  0  0  0  0  0
   -3.8749   19.9155  -30.6982 H   0  0  0  0  0  0  0  0  0  0  0  0
   -5.7732   18.1044  -30.7189 H   0  0  0  0  0  0  0  0  0  0  0  0
   -5.9665   15.8120  -31.6697 H   0  0  0  0  0  0  0  0  0  0  0  0
   -8.0161   15.1918  -34.1818 H   0  0  0  0  0  0  0  0  0  0  0  0
   -7.3235   14.4579  -35.6775 H   0  0  0  0  0  0  0  0  0  0  0  0
   -7.8160   13.2438  -32.9723 H   0  0  0  0  0  0  0  0  0  0  0  0
   -7.9252   12.5292  -34.6533 H   0  0  0  0  0  0  0  0  0  0  0  0
   -5.6740   12.6790  -32.8170 H   0  0  0  0  0  0  0  0  0  0  0  0
   -4.1202   12.2903  -34.6249 H   0  0  0  0  0  0  0  0  0  0  0  0
   -5.4409   12.7323  -35.7707 H   0  0  0  0  0  0  0  0  0  0  0  0
   -3.9883   14.4860  -33.7486 H   0  0  0  0  0  0  0  0  0  0  0  0
   -4.2609   14.7545  -35.5125 H   0  0  0  0  0  0  0  0  0  0  0  0
   -5.6075   17.4370  -35.6666 H   0  0  0  0  0  0  0  0  0  0  0  0
   -5.4111   19.7307  -34.7163 H   0  0  0  0  0  0  0  0  0  0  0  0
   -6.9480   21.2700  -33.3200 H   0  0  0  0  0  0  0  0  0  0  0  0
   -6.8379   23.5034  -32.4507 H   0  0  0  0  0  0  0  0  0  0  0  0
  1  2  1  0
  2  3  1  0
  3  4  2  0
  3  5  2  0
  3  6  1  0
  6  7  2  0
  7  8  1  0
  8  9  2  0
  9 10  1  0
 10 11  2  0
 11 12  1  0
 12 13  2  0
 13 14  1  0
 14 15  1  0
 15 16  1  0
 16 17  1  0
 17 18  1  0
 18 19  1  0
 13 20  1  0
 20 21  2  0
  9 22  1  0
 22 23  2  0
 23  6  1  0
 21 10  1  0
 19 14  1  0
  1 24  1  0
  1 25  1  0
  1 26  1  0
  7 27  1  0
  8 28  1  0
 11 29  1  0
 12 30  1  0
 15 31  1  0
 15 32  1  0
 16 33  1  0
 16 34  1  0
 17 35  1  0
 18 36  1  0
 18 37  1  0
 19 38  1  0
 19 39  1  0
 20 40  1  0
 21 41  1  0
 22 42  1  0
 23 43  1  0
M  CHG  2   2  -1  22   1
M  END
>  <UniqueID>  (45) 
43

>  <SMILES>  (45) 
C[N-]S(=O)(=O)c1ccc(-c2ccc(N3CCNCC3)cc2)[nH+]c1

>  <Energy>  (45) 
55.6740121624463

>  <Genealogy>  (45) 
C[N-]S(=O)(=O)c1ccc(-c2ccc(N3CCNCC3)cc2)[nH+]c1 (protonated)
C[N-]S(=O)(=O)c1ccc(-c2ccc(N3CCNCC3)cc2)[nH+]c1 (3D coordinates assigned)
C[N-]S(=O)(=O)c1ccc(-c2ccc(N3CCNCC3)cc2)[nH+]c1 (nonaromatic ring conformer: 55.6740121624463 kcal/mol)

>  <smiles>  (45) 
CNS(=O)(=O)c1ccc(-c2ccc(N3CCNCC3)cc2)nc1

>  <score_type>  (45) 
oracle

>  <origin>  (45) 
adg

>  <m_score__min__energy>  (45) 
-7.7599999999999998

>  <m_primary>  (45) 
energy

$$$$
45:0
     RDKit          3D

 48 50  0  0  0  0  0  0  0  0999 V2000
   -5.2854   18.7762  -31.2208 H   0  0  0  0  0  0  0  0  0  0  0  0
   -5.3500   18.3120  -32.2160 C   0  0  0  0  0  0  0  0  0  0  0  0
   -4.3110   18.0950  -33.0460 N   0  0  0  0  0  0  0  0  0  0  0  0
   -4.7890   17.5390  -34.1490 N   0  0  0  0  0  0  0  0  0  0  0  0
   -3.9600   17.0900  -35.2590 C   0  0  0  0  0  0  0  0  0  0  0  0
   -3.0562   16.6005  -34.8671 H   0  0  0  0  0  0  0  0  0  0  0  0
   -4.5265   16.3754  -35.8742 H   0  0  0  0  0  0  0  0  0  0  0  0
   -3.6711   17.9549  -35.8742 H   0  0  0  0  0  0  0  0  0  0  0  0
   -6.1200   17.3730  -34.0460 C   0  0  0  0  0  0  0  0  0  0  0  0
   -6.7792   16.9299  -34.8070 H   0  0  0  0  0  0  0  0  0  0  0  0
   -6.5100   17.8580  -32.8150 C   0  0  0  0  0  0  0  0  0  0  0  0
   -7.8990   17.8930  -32.2540 C   0  0  0  0  0  0  0  0  0  0  0  0
   -7.8442   17.9840  -31.1591 H   0  0  0  0  0  0  0  0  0  0  0  0
   -8.4172   16.9640  -32.5340 H   0  0  0  0  0  0  0  0  0  0  0  0
   -8.6460   19.0300  -32.7940 N   0  0  0  0  0  0  0  0  0  0  0  0
   -9.4260   18.8160  -33.4570 H   0  0  0  0  0  0  0  0  0  0  0  0
   -8.4250   20.4030  -32.4130 C   0  0  0  0  0  0  0  0  0  0  0  0
   -9.5160   21.1840  -32.0000 C   0  0  0  0  0  0  0  0  0  0  0  0
  -10.5236   20.7435  -31.9722 H   0  0  0  0  0  0  0  0  0  0  0  0
   -9.3310   22.5170  -31.6240 C   0  0  0  0  0  0  0  0  0  0  0  0
  -10.1925   23.1207  -31.3026 H   0  0  0  0  0  0  0  0  0  0  0  0
   -8.0560   23.0850  -31.6550 C   0  0  0  0  0  0  0  0  0  0  0  0
   -7.9177   24.1355  -31.3595 H   0  0  0  0  0  0  0  0  0  0  0  0
   -6.9530   22.3250  -32.0600 C   0  0  0  0  0  0  0  0  0  0  0  0
   -5.6910   22.9400  -32.1000 O   0  0  0  0  0  0  0  0  0  0  0  0
   -4.4640   22.2590  -32.1290 C   0  0  0  0  0  0  0  0  0  0  0  0
   -3.8160   21.8360  -30.9500 C   0  0  0  0  0  0  0  0  0  0  0  0
   -4.3350   22.0980  -29.7860 N   0  0  0  0  0  0  0  0  0  0  0  0
   -4.1790   23.3590  -29.0610 C   0  0  0  0  0  0  0  0  0  0  0  0
   -3.8215   23.1483  -28.0423 H   0  0  0  0  0  0  0  0  0  0  0  0
   -5.1526   23.8698  -29.0249 H   0  0  0  0  0  0  0  0  0  0  0  0
   -3.1710   24.2680  -29.7700 C   0  0  0  0  0  0  0  0  0  0  0  0
   -2.5603   23.6666  -30.4595 H   0  0  0  0  0  0  0  0  0  0  0  0
   -2.5249   24.7455  -29.0186 H   0  0  0  0  0  0  0  0  0  0  0  0
   -3.8530   25.2710  -30.5010 O   0  0  0  0  0  0  0  0  0  0  0  0
   -5.2320   25.2400  -30.2110 C   0  0  0  0  0  0  0  0  0  0  0  0
   -5.3774   25.2367  -29.1207 H   0  0  0  0  0  0  0  0  0  0  0  0
   -5.7176   26.1275  -30.6430 H   0  0  0  0  0  0  0  0  0  0  0  0
   -5.6772   24.3316  -30.6430 H   0  0  0  0  0  0  0  0  0  0  0  0
   -2.6370   21.1610  -31.0510 N   0  0  0  0  0  0  0  0  0  0  0  0
   -2.0670   20.9040  -32.2550 C   0  0  0  0  0  0  0  0  0  0  0  0
   -1.1200   20.3473  -32.3127 H   0  0  0  0  0  0  0  0  0  0  0  0
   -2.6910   21.3510  -33.4180 C   0  0  0  0  0  0  0  0  0  0  0  0
   -2.2334   21.1606  -34.4000 H   0  0  0  0  0  0  0  0  0  0  0  0
   -3.8690   22.0240  -33.3310 N   0  0  0  0  0  0  0  0  0  0  0  0
   -4.3340   22.3510  -34.2070 H   0  0  0  0  0  0  0  0  0  0  0  0
   -7.1450   20.9870  -32.4480 C   0  0  0  0  0  0  0  0  0  0  0  0
   -6.2842   20.3896  -32.7829 H   0  0  0  0  0  0  0  0  0  0  0  0
  1  2  1  0
  2  3  2  0
  3  4  1  0
  4  5  1  0
  5  6  1  0
  5  7  1  0
  5  8  1  0
  4  9  1  0
  9 10  1  0
  9 11  2  0
 11 12  1  0
 12 13  1  0
 12 14  1  0
 12 15  1  0
 15 16  1  0
 15 17  1  0
 17 18  2  0
 18 19  1  0
 18 20  1  0
 20 21  1  0
 20 22  2  0
 22 23  1  0
 22 24  1  0
 24 25  1  0
 25 26  1  0
 26 27  1  0
 27 28  2  0
 28 29  1  0
 29 30  1  0
 29 31  1  0
 29 32  1  0
 32 33  1  0
 32 34  1  0
 32 35  1  0
 35 36  1  0
 36 37  1  0
 36 38  1  0
 36 39  1  0
 27 40  1  0
 40 41  1  0
 41 42  1  0
 41 43  2  0
 43 44  1  0
 43 45  1  0
 45 46  1  0
 24 47  2  0
 47 48  1  0
 11  2  1  0
 47 17  1  0
 45 26  2  0
M  CHG  2  40  -1  45   1
M  END
>  <UniqueID>  (46) 
44

>  <SMILES>  (46) 
COCC/N=c1\[n-]cc[nH+]c1Oc1cccc(NCc2cnn(C)c2)c1

>  <Energy>  (46) 
84.74875860304005

>  <Genealogy>  (46) 
COCCN=c1[n-]cc[nH+]c1Oc1cccc(NCc2cnn(C)c2)c1 (protonated)
COCC/N=c1\[n-]cc[nH+]c1Oc1cccc(NCc2cnn(C)c2)c1 (cis-trans isomerization)
COCC/N=c1\[n-]cc[nH+]c1Oc1cccc(NCc2cnn(C)c2)c1 (3D coordinates assigned)
COCC/N=c1\[n-]cc[nH+]c1Oc1cccc(NCc2cnn(C)c2)c1 (optimized conformer: 84.74875860304005 kcal/mol)

>  <smiles>  (46) 
COCCN=c1[nH]ccnc1Oc1cccc(NCc2cnn(C)c2)c1

>  <score_type>  (46) 
oracle

>  <origin>  (46) 
adg

>  <m_score__min__energy>  (46) 
-8.0899999999999999

>  <m_primary>  (46) 
energy

$$$$
46:0
     RDKit          3D

 37 39  0  0  1  0  0  0  0  0999 V2000
   -2.9710   18.9860  -26.6510 C   0  0  0  0  0  0  0  0  0  0  0  0
   -2.0520   20.1580  -26.9460 C   0  0  0  0  0  0  0  0  0  0  0  0
   -1.5700   20.0850  -28.3930 C   0  0  0  0  0  0  0  0  0  0  0  0
   -2.3250   21.0350  -29.1800 N   0  0  0  0  0  0  0  0  0  0  0  0
   -3.1320   20.6690  -30.2010 C   0  0  0  0  0  0  0  0  0  0  0  0
   -3.7010   21.7740  -30.7440 N   0  0  0  0  0  0  0  0  0  0  0  0
   -3.2530   22.8350  -30.0640 C   0  0  0  0  0  0  0  0  0  0  0  0
   -3.4600   24.1900  -30.1390 C   0  0  0  0  0  0  0  0  0  0  0  0
   -4.2350   24.6970  -31.0070 N   0  0  0  0  0  0  0  0  0  0  0  0
   -5.6410   24.9100  -30.9080 C   0  0  0  0  0  0  0  0  0  0  0  0
   -6.3740   23.6350  -31.1720 C   0  0  0  0  0  0  0  0  0  0  0  0
   -6.1620   22.9040  -32.3480 C   0  0  0  0  0  0  0  0  0  0  0  0
   -6.8350   21.7260  -32.6010 C   0  0  0  0  0  0  0  0  0  0  0  0
   -7.7440   21.2250  -31.6950 C   0  0  0  0  0  0  0  0  0  0  0  0
   -7.9700   21.9170  -30.5390 C   0  0  0  0  0  0  0  0  0  0  0  0
   -7.2880   23.1000  -30.2970 C   0  0  0  0  0  0  0  0  0  0  0  0
   -2.8420   25.0270  -29.2840 N   0  0  0  0  0  0  0  0  0  0  0  0
   -2.0180   24.5750  -28.3470 C   0  0  0  0  0  0  0  0  0  0  0  0
   -1.7840   23.2360  -28.2400 N   0  0  0  0  0  0  0  0  0  0  0  0
   -2.3960   22.3620  -29.0910 C   0  0  0  0  0  0  0  0  0  0  0  0
   -3.0686   18.8615  -25.5624 H   0  0  0  0  0  0  0  0  0  0  0  0
   -3.9619   19.1779  -27.0884 H   0  0  0  0  0  0  0  0  0  0  0  0
   -2.5483   18.0695  -27.0884 H   0  0  0  0  0  0  0  0  0  0  0  0
   -2.5992   21.0995  -26.7903 H   0  0  0  0  0  0  0  0  0  0  0  0
   -1.1841   20.1181  -26.2713 H   0  0  0  0  0  0  0  0  0  0  0  0
   -0.4994   20.3331  -28.4398 H   0  0  0  0  0  0  0  0  0  0  0  0
   -1.7182   19.0689  -28.7873 H   0  0  0  0  0  0  0  0  0  0  0  0
   -3.3009   19.6359  -30.5388 H   0  0  0  0  0  0  0  0  0  0  0  0
   -5.8845   25.2667  -29.8963 H   0  0  0  0  0  0  0  0  0  0  0  0
   -5.9445   25.6603  -31.6529 H   0  0  0  0  0  0  0  0  0  0  0  0
   -5.4404   23.2786  -33.0890 H   0  0  0  0  0  0  0  0  0  0  0  0
   -6.6434   21.1807  -33.5369 H   0  0  0  0  0  0  0  0  0  0  0  0
   -8.2780   20.2851  -31.8987 H   0  0  0  0  0  0  0  0  0  0  0  0
   -8.6918   21.5364  -29.8013 H   0  0  0  0  0  0  0  0  0  0  0  0
   -7.4888   23.6365  -29.3580 H   0  0  0  0  0  0  0  0  0  0  0  0
   -3.0040   26.0500  -29.3460 H   0  0  0  0  0  0  0  0  0  0  0  0
   -1.5256   25.2781  -27.6591 H   0  0  0  0  0  0  0  0  0  0  0  0
  1  2  1  0
  2  3  1  0
  3  4  1  0
  4  5  1  0
  5  6  2  0
  6  7  1  0
  7  8  1  0
  8  9  2  0
  9 10  1  0
 10 11  1  0
 11 12  2  0
 12 13  1  0
 13 14  2  0
 14 15  1  0
 15 16  2  0
  8 17  1  0
 17 18  1  0
 18 19  2  0
 19 20  1  0
 20  4  1  0
 20  7  2  0
 16 11  1  0
  1 21  1  0
  1 22  1  0
  1 23  1  0
  2 24  1  0
  2 25  1  0
  3 26  1  0
  3 27  1  0
  5 28  1  0
 10 29  1  0
 10 30  1  0
 12 31  1  0
 13 32  1  0
 14 33  1  0
 15 34  1  0
 16 35  1  0
 17 36  1  0
 18 37  1  0
M  END
>  <smiles>  (47) 
CCCn1cnc2c(=NCc3ccccc3)[nH]cnc21

>  <score_type>  (47) 
oracle

>  <origin>  (47) 
adg

>  <m_score__min__energy>  (47) 
-7.04

>  <m_primary>  (47) 
energy

$$$$
47:0
     RDKit          3D

 59 61  0  0  0  0  0  0  0  0999 V2000
   -9.1250   21.9020  -30.8440 C   0  0  0  0  0  0  0  0  0  0  0  0
   -9.4290   20.8780  -31.9360 C   0  0  0  0  0  0  0  0  0  0  0  0
   -8.7660   19.5040  -31.6940 C   0  0  0  0  0  0  0  0  0  0  0  0
   -7.6590   19.2040  -32.6510 N   0  0  0  0  0  0  0  0  0  0  0  0
   -6.6020   18.3460  -32.0370 C   0  0  0  0  0  0  0  0  0  0  0  0
   -6.4680   16.9820  -32.7450 C   0  0  0  0  0  0  0  0  0  0  0  0
   -6.1040   17.1660  -34.2160 C   0  0  0  0  0  0  0  0  0  0  0  0
   -7.0730   20.4430  -33.2330 C   0  0  0  0  0  0  0  0  0  0  0  0
   -5.5370   20.3880  -33.4490 C   0  0  0  0  0  0  0  0  0  0  0  0
   -4.8110   21.1190  -32.3590 C   0  0  0  0  0  0  0  0  0  0  0  0
   -3.6050   20.7450  -31.7760 C   0  0  0  0  0  0  0  0  0  0  0  0
   -3.2320   21.6640  -30.8560 N   0  0  0  0  0  0  0  0  0  0  0  0
   -1.8230   21.5770  -29.8440 S   0  0  0  0  0  0  0  0  0  0  0  0
   -1.8720   20.3300  -29.0070 O   0  0  0  0  0  0  0  0  0  0  0  0
   -0.6000   21.5360  -30.7180 O   0  0  0  0  0  0  0  0  0  0  0  0
   -1.7650   22.9780  -28.7760 C   0  0  0  0  0  0  0  0  0  0  0  0
   -2.4880   22.9780  -27.5770 C   0  0  0  0  0  0  0  0  0  0  0  0
   -2.4370   24.0890  -26.7280 C   0  0  0  0  0  0  0  0  0  0  0  0
   -1.6540   25.2040  -27.0640 C   0  0  0  0  0  0  0  0  0  0  0  0
   -1.6360   26.4140  -26.1780 C   0  0  0  0  0  0  0  0  0  0  0  0
   -0.9510   25.2110  -28.2770 C   0  0  0  0  0  0  0  0  0  0  0  0
   -1.0050   24.1010  -29.1300 C   0  0  0  0  0  0  0  0  0  0  0  0
   -4.1810   22.6220  -30.8580 C   0  0  0  0  0  0  0  0  0  0  0  0
   -4.2370   23.7810  -30.0830 C   0  0  0  0  0  0  0  0  0  0  0  0
   -5.3360   24.6430  -30.2650 C   0  0  0  0  0  0  0  0  0  0  0  0
   -6.3420   24.3330  -31.2070 C   0  0  0  0  0  0  0  0  0  0  0  0
   -6.2580   23.1560  -31.9750 C   0  0  0  0  0  0  0  0  0  0  0  0
   -5.1610   22.3210  -31.7710 C   0  0  0  0  0  0  0  0  0  0  0  0
   -9.2630   21.4371  -29.8567 H   0  0  0  0  0  0  0  0  0  0  0  0
   -8.0855   22.2475  -30.9445 H   0  0  0  0  0  0  0  0  0  0  0  0
   -9.8075   22.7588  -30.9445 H   0  0  0  0  0  0  0  0  0  0  0  0
  -10.5185   20.7350  -31.9856 H   0  0  0  0  0  0  0  0  0  0  0  0
   -9.0172   21.2750  -32.8756 H   0  0  0  0  0  0  0  0  0  0  0  0
   -8.3580   19.4885  -30.6726 H   0  0  0  0  0  0  0  0  0  0  0  0
   -9.5413   18.7380  -31.8430 H   0  0  0  0  0  0  0  0  0  0  0  0
   -8.0710   18.6820  -33.4630 H   0  0  0  0  0  0  0  0  0  0  0  0
   -5.6385   18.8729  -32.0998 H   0  0  0  0  0  0  0  0  0  0  0  0
   -6.8893   18.1552  -30.9925 H   0  0  0  0  0  0  0  0  0  0  0  0
   -5.6806   16.3948  -32.2497 H   0  0  0  0  0  0  0  0  0  0  0  0
   -7.4332   16.4579  -32.6844 H   0  0  0  0  0  0  0  0  0  0  0  0
   -5.1247   17.6611  -34.2922 H   0  0  0  0  0  0  0  0  0  0  0  0
   -6.0573   16.1832  -34.7079 H   0  0  0  0  0  0  0  0  0  0  0  0
   -6.8677   17.7863  -34.7079 H   0  0  0  0  0  0  0  0  0  0  0  0
   -7.5507   20.6244  -34.2071 H   0  0  0  0  0  0  0  0  0  0  0  0
   -7.2584   21.2481  -32.5067 H   0  0  0  0  0  0  0  0  0  0  0  0
   -5.2125   19.3370  -33.4543 H   0  0  0  0  0  0  0  0  0  0  0  0
   -5.3021   20.8705  -34.4092 H   0  0  0  0  0  0  0  0  0  0  0  0
   -3.0381   19.8361  -32.0260 H   0  0  0  0  0  0  0  0  0  0  0  0
   -3.0966   22.1039  -27.3022 H   0  0  0  0  0  0  0  0  0  0  0  0
   -3.0141   24.0884  -25.7916 H   0  0  0  0  0  0  0  0  0  0  0  0
   -1.6407   26.0972  -25.1246 H   0  0  0  0  0  0  0  0  0  0  0  0
   -0.7290   27.0028  -26.3798 H   0  0  0  0  0  0  0  0  0  0  0  0
   -2.5251   27.0295  -26.3798 H   0  0  0  0  0  0  0  0  0  0  0  0
   -0.3549   26.0911  -28.5599 H   0  0  0  0  0  0  0  0  0  0  0  0
   -0.4498   24.1109  -30.0795 H   0  0  0  0  0  0  0  0  0  0  0  0
   -3.4478   24.0141  -29.3530 H   0  0  0  0  0  0  0  0  0  0  0  0
   -5.4115   25.5645  -29.6691 H   0  0  0  0  0  0  0  0  0  0  0  0
   -7.1950   25.0144  -31.3411 H   0  0  0  0  0  0  0  0  0  0  0  0
   -7.0338   22.9034  -32.7128 H   0  0  0  0  0  0  0  0  0  0  0  0
  1  2  1  0
  2  3  1  0
  3  4  1  0
  4  5  1  0
  5  6  1  0
  6  7  1  0
  4  8  1  0
  8  9  1  0
  9 10  1  0
 10 11  2  0
 11 12  1  0
 12 13  1  0
 13 14  2  0
 13 15  2  0
 13 16  1  0
 16 17  2  0
 17 18  1  0
 18 19  2  0
 19 20  1  0
 19 21  1  0
 21 22  2  0
 12 23  1  0
 23 24  2  0
 24 25  1  0
 25 26  2  0
 26 27  1  0
 27 28  2  0
 28 10  1  0
 22 16  1  0
 28 23  1  0
  1 29  1  0
  1 30  1  0
  1 31  1  0
  2 32  1  0
  2 33  1  0
  3 34  1  0
  3 35  1  0
  4 36  1  0
  5 37  1  0
  5 38  1  0
  6 39  1  0
  6 40  1  0
  7 41  1  0
  7 42  1  0
  7 43  1  0
  8 44  1  0
  8 45  1  0
  9 46  1  0
  9 47  1  0
 11 48  1  0
 17 49  1  0
 18 50  1  0
 20 51  1  0
 20 52  1  0
 20 53  1  0
 21 54  1  0
 22 55  1  0
 24 56  1  0
 25 57  1  0
 26 58  1  0
 27 59  1  0
M  CHG  1   4   1
M  END
>  <UniqueID>  (48) 
45

>  <SMILES>  (48) 
CCC[NH+](CCC)CCc1cn(S(=O)(=O)c2ccc(C)cc2)c2ccccc12

>  <Energy>  (48) 
95.52821235546216

>  <Genealogy>  (48) 
CCC[NH+](CCC)CCc1cn(S(=O)(=O)c2ccc(C)cc2)c2ccccc12 (protonated)
CCC[NH+](CCC)CCc1cn(S(=O)(=O)c2ccc(C)cc2)c2ccccc12 (3D coordinates assigned)
CCC[NH+](CCC)CCc1cn(S(=O)(=O)c2ccc(C)cc2)c2ccccc12 (optimized conformer: 95.52821235546216 kcal/mol)

>  <smiles>  (48) 
CCCN(CCC)CCc1cn(S(=O)(=O)c2ccc(C)cc2)c2ccccc12

>  <score_type>  (48) 
oracle

>  <origin>  (48) 
adg

>  <m_score__min__energy>  (48) 
-8.5099999999999998

>  <m_primary>  (48) 
energy

$$$$
48:0
     RDKit          3D

 42 44  0  0  0  0  0  0  0  0999 V2000
   -2.6800   19.3210  -26.6930 C   0  0  0  0  0  0  0  0  0  0  0  0
   -1.8060   20.4450  -26.6850 O   0  0  0  0  0  0  0  0  0  0  0  0
   -1.8540   21.4950  -27.6140 C   0  0  0  0  0  0  0  0  0  0  0  0
   -2.9380   21.6760  -28.4920 C   0  0  0  0  0  0  0  0  0  0  0  0
   -2.9470   22.7490  -29.4010 C   0  0  0  0  0  0  0  0  0  0  0  0
   -4.0360   22.9400  -30.3210 N   0  0  0  0  0  0  0  0  0  0  0  0
   -4.5130   24.2260  -30.7450 C   0  0  0  0  0  0  0  0  0  0  0  0
   -3.8680   25.2730  -30.4690 O   0  0  0  0  0  0  0  0  0  0  0  0
   -5.7410   24.3290  -31.6000 C   0  0  0  0  0  0  0  0  0  0  0  0
   -6.4640   23.0480  -31.6050 N   0  0  0  0  0  0  0  0  0  0  0  0
   -7.6630   22.9650  -30.9540 C   0  0  0  0  0  0  0  0  0  0  0  0
   -8.3780   21.8120  -30.9590 N   0  0  0  0  0  0  0  0  0  0  0  0
   -7.9330   20.7120  -31.6130 C   0  0  0  0  0  0  0  0  0  0  0  0
   -8.6910   19.5350  -31.6020 C   0  0  0  0  0  0  0  0  0  0  0  0
   -8.2340   18.4020  -32.2800 C   0  0  0  0  0  0  0  0  0  0  0  0
   -7.0190   18.4400  -32.9720 C   0  0  0  0  0  0  0  0  0  0  0  0
   -6.2560   19.6110  -32.9880 C   0  0  0  0  0  0  0  0  0  0  0  0
   -6.7070   20.7580  -32.3070 C   0  0  0  0  0  0  0  0  0  0  0  0
   -5.9800   21.9610  -32.2910 C   0  0  0  0  0  0  0  0  0  0  0  0
   -4.8810   22.0370  -32.9080 O   0  0  0  0  0  0  0  0  0  0  0  0
   -1.8460   23.6160  -29.4520 C   0  0  0  0  0  0  0  0  0  0  0  0
   -0.7590   23.4430  -28.5780 C   0  0  0  0  0  0  0  0  0  0  0  0
    0.3550   24.2960  -28.5850 O   0  0  0  0  0  0  0  0  0  0  0  0
    1.1860   24.5450  -27.4550 C   0  0  0  0  0  0  0  0  0  0  0  0
   -0.7770   22.3860  -27.6630 C   0  0  0  0  0  0  0  0  0  0  0  0
   -2.9086   19.0269  -25.6580 H   0  0  0  0  0  0  0  0  0  0  0  0
   -3.6123   19.5852  -27.2136 H   0  0  0  0  0  0  0  0  0  0  0  0
   -2.1943   18.4825  -27.2136 H   0  0  0  0  0  0  0  0  0  0  0  0
   -3.7842   20.9736  -28.4674 H   0  0  0  0  0  0  0  0  0  0  0  0
   -4.4420   22.0920  -30.7790 H   0  0  0  0  0  0  0  0  0  0  0  0
   -6.3977   25.1156  -31.1999 H   0  0  0  0  0  0  0  0  0  0  0  0
   -5.4426   24.5773  -32.6292 H   0  0  0  0  0  0  0  0  0  0  0  0
   -8.0530   23.8438  -30.4195 H   0  0  0  0  0  0  0  0  0  0  0  0
   -9.6471   19.5022  -31.0591 H   0  0  0  0  0  0  0  0  0  0  0  0
   -8.8310   17.4781  -32.2696 H   0  0  0  0  0  0  0  0  0  0  0  0
   -6.6631   17.5460  -33.5050 H   0  0  0  0  0  0  0  0  0  0  0  0
   -5.3012   19.6366  -33.5337 H   0  0  0  0  0  0  0  0  0  0  0  0
   -1.8330   24.4385  -30.1823 H   0  0  0  0  0  0  0  0  0  0  0  0
    0.6119   24.3730  -26.5326 H   0  0  0  0  0  0  0  0  0  0  0  0
    2.0517   23.8668  -27.4799 H   0  0  0  0  0  0  0  0  0  0  0  0
    1.5361   25.5875  -27.4799 H   0  0  0  0  0  0  0  0  0  0  0  0
    0.0682   22.2532  -26.9716 H   0  0  0  0  0  0  0  0  0  0  0  0
  1  2  1  0
  2  3  1  0
  3  4  2  0
  4  5  1  0
  5  6  1  0
  6  7  1  0
  7  8  2  0
  7  9  1  0
  9 10  1  0
 10 11  1  0
 11 12  2  0
 12 13  1  0
 13 14  2  0
 14 15  1  0
 15 16  2  0
 16 17  1  0
 17 18  2  0
 18 19  1  0
 19 20  2  0
  5 21  2  0
 21 22  1  0
 22 23  1  0
 23 24  1  0
 22 25  2  0
 25  3  1  0
 19 10  1  0
 18 13  1  0
  1 26  1  0
  1 27  1  0
  1 28  1  0
  4 29  1  0
  6 30  1  0
  9 31  1  0
  9 32  1  0
 11 33  1  0
 14 34  1  0
 15 35  1  0
 16 36  1  0
 17 37  1  0
 21 38  1  0
 24 39  1  0
 24 40  1  0
 24 41  1  0
 25 42  1  0
M  END
>  <UniqueID>  (49) 
46

>  <SMILES>  (49) 
COc1cc(NC(=O)Cn2cnc3ccccc3c2=O)cc(OC)c1

>  <Energy>  (49) 
51.48377626765467

>  <Genealogy>  (49) 
COc1cc(NC(=O)Cn2cnc3ccccc3c2=O)cc(OC)c1 (3D coordinates assigned)
COc1cc(NC(=O)Cn2cnc3ccccc3c2=O)cc(OC)c1 (optimized conformer: 51.48377626765467 kcal/mol)

>  <smiles>  (49) 
COc1cc(NC(=O)Cn2cnc3ccccc3c2=O)cc(OC)c1

>  <score_type>  (49) 
oracle

>  <origin>  (49) 
adg

>  <m_score__min__energy>  (49) 
-8.5500000000000007

>  <m_primary>  (49) 
energy

$$$$
