0:0
     RDKit          3D

 80 82  0  0  0  0  0  0  0  0999 V2000
    0.3110   21.9440  -35.3720 C   0  0  0  0  0  0  0  0  0  0  0  0
   -0.5680   21.4560  -34.2300 C   0  0  0  0  0  0  0  0  0  0  0  0
   -0.9130   20.0970  -34.4400 O   0  0  0  0  0  0  0  0  0  0  0  0
   -0.1050   19.5330  -35.4580 C   0  0  0  0  0  0  0  0  0  0  0  0
    0.6500   18.3350  -34.8940 C   0  0  0  0  0  0  0  0  0  0  0  0
   -0.1710   17.6750  -33.9550 O   0  0  0  0  0  0  0  0  0  0  0  0
    0.4750   17.6390  -32.7010 C   0  0  0  0  0  0  0  0  0  0  0  0
   -0.5470   17.9420  -31.6020 C   0  0  0  0  0  0  0  0  0  0  0  0
   -1.5850   18.9000  -32.0540 N   0  0  0  0  0  0  0  0  0  0  0  0
   -1.5200   20.1920  -31.3480 C   0  0  0  0  0  0  0  0  0  0  0  0
   -2.6350   21.1560  -31.7920 C   0  0  0  0  0  0  0  0  0  0  0  0
   -3.4220   20.5630  -32.8740 N   0  0  0  0  0  0  0  0  0  0  0  0
   -4.8500   20.4480  -32.7750 C   0  0  0  0  0  0  0  0  0  0  0  0
   -5.6040   21.5560  -32.3460 C   0  0  0  0  0  0  0  0  0  0  0  0
   -4.9740   22.7760  -32.0120 C   0  0  0  0  0  0  0  0  0  0  0  0
   -5.7210   23.8740  -31.5940 C   0  0  0  0  0  0  0  0  0  0  0  0
   -7.1010   23.7690  -31.4640 C   0  0  0  0  0  0  0  0  0  0  0  0
   -7.7440   22.5690  -31.7650 C   0  0  0  0  0  0  0  0  0  0  0  0
   -7.0160   21.4470  -32.2350 C   0  0  0  0  0  0  0  0  0  0  0  0
   -7.6430   20.2570  -32.5460 N   0  0  0  0  0  0  0  0  0  0  0  0
   -9.1150   20.2140  -32.6780 C   0  0  0  0  0  0  0  0  0  0  0  0
   -6.8940   19.1130  -32.7480 C   0  0  0  0  0  0  0  0  0  0  0  0
   -7.4950   17.8310  -32.7210 C   0  0  0  0  0  0  0  0  0  0  0  0
   -6.7570   16.6850  -32.9860 C   0  0  0  0  0  0  0  0  0  0  0  0
   -5.4160   16.7800  -33.3190 C   0  0  0  0  0  0  0  0  0  0  0  0
   -4.7700   18.0270  -33.3560 C   0  0  0  0  0  0  0  0  0  0  0  0
   -3.4340   18.1310  -33.7880 O   0  0  0  0  0  0  0  0  0  0  0  0
   -2.8540   17.4820  -34.9250 C   0  0  0  0  0  0  0  0  0  0  0  0
   -2.6850   15.9670  -34.7020 C   0  0  0  0  0  0  0  0  0  0  0  0
   -2.3660   15.6010  -33.2230 C   0  0  0  0  0  0  0  0  0  0  0  0
   -2.5790   14.1700  -32.8500 N   0  0  0  0  0  0  0  0  0  0  0  0
   -2.6440   13.3760  -34.1020 C   0  0  0  0  0  0  0  0  0  0  0  0
   -1.4520   13.6610  -32.0320 C   0  0  0  0  0  0  0  0  0  0  0  0
   -3.8610   13.9890  -32.1230 C   0  0  0  0  0  0  0  0  0  0  0  0
   -5.4880   19.1970  -32.9640 C   0  0  0  0  0  0  0  0  0  0  0  0
    1.2034   22.4394  -34.9619 H   0  0  0  0  0  0  0  0  0  0  0  0
    0.6185   21.0874  -35.9899 H   0  0  0  0  0  0  0  0  0  0  0  0
   -0.2534   22.6579  -35.9899 H   0  0  0  0  0  0  0  0  0  0  0  0
   -0.0208   21.5519  -33.2806 H   0  0  0  0  0  0  0  0  0  0  0  0
   -1.4847   22.0628  -34.1908 H   0  0  0  0  0  0  0  0  0  0  0  0
   -0.7412   19.2064  -36.2938 H   0  0  0  0  0  0  0  0  0  0  0  0
    0.6123   20.2848  -35.8189 H   0  0  0  0  0  0  0  0  0  0  0  0
    0.9066   17.6434  -35.7100 H   0  0  0  0  0  0  0  0  0  0  0  0
    1.5747   18.6752  -34.4049 H   0  0  0  0  0  0  0  0  0  0  0  0
    0.9066   16.6405  -32.5375 H   0  0  0  0  0  0  0  0  0  0  0  0
    1.2789   18.3895  -32.6766 H   0  0  0  0  0  0  0  0  0  0  0  0
   -1.0365   17.0030  -31.3043 H   0  0  0  0  0  0  0  0  0  0  0  0
   -0.0104   18.3979  -30.7569 H   0  0  0  0  0  0  0  0  0  0  0  0
   -2.5250   18.4800  -31.8620 H   0  0  0  0  0  0  0  0  0  0  0  0
   -1.5460   19.0660  -33.0870 H   0  0  0  0  0  0  0  0  0  0  0  0
   -1.6187   20.0103  -30.2676 H   0  0  0  0  0  0  0  0  0  0  0  0
   -0.5542   20.6598  -31.5896 H   0  0  0  0  0  0  0  0  0  0  0  0
   -3.2946   21.3655  -30.9370 H   0  0  0  0  0  0  0  0  0  0  0  0
   -2.1770   22.0884  -32.1538 H   0  0  0  0  0  0  0  0  0  0  0  0
   -2.9780   20.3420  -33.7960 H   0  0  0  0  0  0  0  0  0  0  0  0
   -3.8795   22.8592  -32.0832 H   0  0  0  0  0  0  0  0  0  0  0  0
   -5.2186   24.8257  -31.3663 H   0  0  0  0  0  0  0  0  0  0  0  0
   -7.6873   24.6349  -31.1228 H   0  0  0  0  0  0  0  0  0  0  0  0
   -8.8336   22.4916  -31.6357 H   0  0  0  0  0  0  0  0  0  0  0  0
   -9.5726   20.2006  -31.6778 H   0  0  0  0  0  0  0  0  0  0  0  0
   -9.4600   21.1025  -33.2272 H   0  0  0  0  0  0  0  0  0  0  0  0
   -9.4075   19.3069  -33.2272 H   0  0  0  0  0  0  0  0  0  0  0  0
   -8.5658   17.7414  -32.4858 H   0  0  0  0  0  0  0  0  0  0  0  0
   -7.2393   15.6979  -32.9312 H   0  0  0  0  0  0  0  0  0  0  0  0
   -4.8497   15.8677  -33.5575 H   0  0  0  0  0  0  0  0  0  0  0  0
   -3.5063   17.6420  -35.7961 H   0  0  0  0  0  0  0  0  0  0  0  0
   -1.8560   17.9142  -35.0900 H   0  0  0  0  0  0  0  0  0  0  0  0
   -3.6184   15.4636  -34.9940 H   0  0  0  0  0  0  0  0  0  0  0  0
   -1.8318   15.6379  -35.3134 H   0  0  0  0  0  0  0  0  0  0  0  0
   -1.3104   15.8461  -33.0342 H   0  0  0  0  0  0  0  0  0  0  0  0
   -3.0741   16.1792  -32.6113 H   0  0  0  0  0  0  0  0  0  0  0  0
   -2.7315   12.3078  -33.8546 H   0  0  0  0  0  0  0  0  0  0  0  0
   -3.5195   13.6891  -34.6897 H   0  0  0  0  0  0  0  0  0  0  0  0
   -1.7292   13.5426  -34.6897 H   0  0  0  0  0  0  0  0  0  0  0  0
   -1.6947   13.7706  -30.9647 H   0  0  0  0  0  0  0  0  0  0  0  0
   -1.2822   12.5988  -32.2622 H   0  0  0  0  0  0  0  0  0  0  0  0
   -0.5429   14.2359  -32.2622 H   0  0  0  0  0  0  0  0  0  0  0  0
   -3.6748   14.0153  -31.0392 H   0  0  0  0  0  0  0  0  0  0  0  0
   -4.5545   14.7981  -32.3956 H   0  0  0  0  0  0  0  0  0  0  0  0
   -4.3034   13.0195  -32.3956 H   0  0  0  0  0  0  0  0  0  0  0  0
  1  2  1  0
  2  3  1  0
  3  4  1  0
  4  5  1  0
  5  6  1  0
  6  7  1  0
  7  8  1  0
  8  9  1  0
  9 10  1  0
 10 11  1  0
 11 12  1  0
 12 13  1  0
 13 14  2  0
 14 15  1  0
 15 16  2  0
 16 17  1  0
 17 18  2  0
 18 19  1  0
 19 20  2  0
 20 21  1  0
 20 22  1  0
 22 23  2  0
 23 24  1  0
 24 25  2  0
 25 26  1  0
 26 27  1  0
 27 28  1  0
 28 29  1  0
 29 30  1  0
 30 31  1  0
 31 32  1  0
 31 33  1  0
 31 34  1  0
 26 35  2  0
 35 13  1  0
 19 14  1  0
 35 22  1  0
  1 36  1  0
  1 37  1  0
  1 38  1  0
  2 39  1  0
  2 40  1  0
  4 41  1  0
  4 42  1  0
  5 43  1  0
  5 44  1  0
  7 45  1  0
  7 46  1  0
  8 47  1  0
  8 48  1  0
  9 49  1  0
  9 50  1  0
 10 51  1  0
 10 52  1  0
 11 53  1  0
 11 54  1  0
 12 55  1  0
 15 56  1  0
 16 57  1  0
 17 58  1  0
 18 59  1  0
 21 60  1  0
 21 61  1  0
 21 62  1  0
 23 63  1  0
 24 64  1  0
 25 65  1  0
 28 66  1  0
 28 67  1  0
 29 68  1  0
 29 69  1  0
 30 70  1  0
 30 71  1  0
 32 72  1  0
 32 73  1  0
 32 74  1  0
 33 75  1  0
 33 76  1  0
 33 77  1  0
 34 78  1  0
 34 79  1  0
 34 80  1  0
M  CHG  3   9   1  20   1  31   1
M  END
>  <UniqueID>  (1) 
1

>  <SMILES>  (1) 
CCOCCOCC[NH2+]CCNc1c2ccccc2[n+](C)c2cccc(OCCC[N+](C)(C)C)c12

>  <Energy>  (1) 
106.84101943326944

>  <Genealogy>  (1) 
CCOCCOCC[NH2+]CCNc1c2ccccc2[n+](C)c2cccc(OCCC[N+](C)(C)C)c12 (protonated)
CCOCCOCC[NH2+]CCNc1c2ccccc2[n+](C)c2cccc(OCCC[N+](C)(C)C)c12 (3D coordinates assigned)
CCOCCOCC[NH2+]CCNc1c2ccccc2[n+](C)c2cccc(OCCC[N+](C)(C)C)c12 (optimized conformer: 106.84101943326944 kcal/mol)

>  <smiles>  (1) 
CCOCCOCCNCCNc1c2ccccc2[n+](C)c2cccc(OCCC[N+](C)(C)C)c12

>  <score_type>  (1) 
oracle

>  <origin>  (1) 
adg

>  <m_score__min__energy>  (1) 
-7.3399999999999999

>  <m_primary>  (1) 
energy

$$$$
1:0
     RDKit          3D

 44 45  0  0  0  0  0  0  0  0999 V2000
   -6.1150   21.4650  -32.2430 C   0  0  0  0  0  0  0  0  0  0  0  0
   -6.8920   22.7780  -32.3540 C   0  0  0  0  0  0  0  0  0  0  0  0
   -8.2030   22.6870  -31.5550 C   0  0  0  0  0  0  0  0  0  0  0  0
   -6.0360   23.8830  -31.8830 N   0  0  0  0  0  0  0  0  0  0  0  0
   -6.5670   24.5310  -30.6750 C   0  0  0  0  0  0  0  0  0  0  0  0
   -5.4230   25.0100  -29.7790 C   0  0  0  0  0  0  0  0  0  0  0  0
   -4.1600   25.0420  -30.5350 N   0  0  0  0  0  0  0  0  0  0  0  0
   -3.2340   23.9930  -30.0910 C   0  0  0  0  0  0  0  0  0  0  0  0
   -2.5050   24.4530  -28.8610 C   0  0  0  0  0  0  0  0  0  0  0  0
   -3.1540   24.4570  -27.6170 C   0  0  0  0  0  0  0  0  0  0  0  0
   -2.4910   24.9190  -26.4760 C   0  0  0  0  0  0  0  0  0  0  0  0
   -1.1710   25.3960  -26.5600 C   0  0  0  0  0  0  0  0  0  0  0  0
   -0.4660   25.8860  -25.3490 C   0  0  0  0  0  0  0  0  0  0  0  0
    0.9220   25.7160  -25.2080 C   0  0  0  0  0  0  0  0  0  0  0  0
    1.5650   26.1840  -24.0590 C   0  0  0  0  0  0  0  0  0  0  0  0
    0.8540   26.8010  -23.0790 N   0  0  0  0  0  0  0  0  0  0  0  0
   -0.4910   26.9800  -23.1860 C   0  0  0  0  0  0  0  0  0  0  0  0
   -1.1730   26.5280  -24.3170 C   0  0  0  0  0  0  0  0  0  0  0  0
   -0.5310   25.4040  -27.8130 C   0  0  0  0  0  0  0  0  0  0  0  0
   -1.1940   24.9410  -28.9530 C   0  0  0  0  0  0  0  0  0  0  0  0
   -5.9671   21.2150  -31.1820 H   0  0  0  0  0  0  0  0  0  0  0  0
   -6.6825   20.6605  -32.7336 H   0  0  0  0  0  0  0  0  0  0  0  0
   -5.1366   21.5753  -32.7336 H   0  0  0  0  0  0  0  0  0  0  0  0
   -7.1633   22.9716  -33.4023 H   0  0  0  0  0  0  0  0  0  0  0  0
   -7.9781   22.7026  -30.4784 H   0  0  0  0  0  0  0  0  0  0  0  0
   -8.8465   23.5426  -31.8076 H   0  0  0  0  0  0  0  0  0  0  0  0
   -8.7221   21.7507  -31.8076 H   0  0  0  0  0  0  0  0  0  0  0  0
   -5.0790   23.5110  -31.6740 H   0  0  0  0  0  0  0  0  0  0  0  0
   -7.1834   25.3937  -30.9678 H   0  0  0  0  0  0  0  0  0  0  0  0
   -7.1752   23.8030  -30.1180 H   0  0  0  0  0  0  0  0  0  0  0  0
   -5.6504   26.0209  -29.4096 H   0  0  0  0  0  0  0  0  0  0  0  0
   -5.3160   24.3147  -28.9334 H   0  0  0  0  0  0  0  0  0  0  0  0
   -4.3750   24.8700  -31.5460 H   0  0  0  0  0  0  0  0  0  0  0  0
   -3.8000   23.0784  -29.8607 H   0  0  0  0  0  0  0  0  0  0  0  0
   -2.5074   23.7845  -30.8901 H   0  0  0  0  0  0  0  0  0  0  0  0
   -4.1897   24.0948  -27.5390 H   0  0  0  0  0  0  0  0  0  0  0  0
   -3.0065   24.9092  -25.5043 H   0  0  0  0  0  0  0  0  0  0  0  0
    1.5001   25.2163  -25.9993 H   0  0  0  0  0  0  0  0  0  0  0  0
    2.6514   26.0524  -23.9473 H   0  0  0  0  0  0  0  0  0  0  0  0
    1.3490   27.1450  -22.2260 H   0  0  0  0  0  0  0  0  0  0  0  0
   -1.0427   27.4828  -22.3781 H   0  0  0  0  0  0  0  0  0  0  0  0
   -2.2601   26.6736  -24.4006 H   0  0  0  0  0  0  0  0  0  0  0  0
    0.5002   25.7779  -27.8961 H   0  0  0  0  0  0  0  0  0  0  0  0
   -0.6844   24.9596  -29.9276 H   0  0  0  0  0  0  0  0  0  0  0  0
  1  2  1  0
  2  3  1  0
  2  4  1  0
  4  5  1  0
  5  6  1  0
  6  7  1  0
  7  8  1  0
  8  9  1  0
  9 10  2  0
 10 11  1  0
 11 12  2  0
 12 13  1  0
 13 14  2  0
 14 15  1  0
 15 16  2  0
 16 17  1  0
 17 18  2  0
 12 19  1  0
 19 20  2  0
 20  9  1  0
 18 13  1  0
  1 21  1  0
  1 22  1  0
  1 23  1  0
  2 24  1  0
  3 25  1  0
  3 26  1  0
  3 27  1  0
  4 28  1  0
  5 29  1  0
  5 30  1  0
  6 31  1  0
  6 32  1  0
  7 33  1  0
  8 34  1  0
  8 35  1  0
 10 36  1  0
 11 37  1  0
 14 38  1  0
 15 39  1  0
 16 40  1  0
 17 41  1  0
 18 42  1  0
 19 43  1  0
 20 44  1  0
M  CHG  1  16   1
M  END
>  <UniqueID>  (2) 
2

>  <SMILES>  (2) 
CC(C)NCCNCc1ccc(-c2cc[nH+]cc2)cc1

>  <Energy>  (2) 
42.74403366032092

>  <Genealogy>  (2) 
CC(C)NCCNCc1ccc(-c2cc[nH+]cc2)cc1 (protonated)
CC(C)NCCNCc1ccc(-c2cc[nH+]cc2)cc1 (3D coordinates assigned)
CC(C)NCCNCc1ccc(-c2cc[nH+]cc2)cc1 (optimized conformer: 42.74403366032092 kcal/mol)

>  <smiles>  (2) 
CC(C)NCCNCc1ccc(-c2ccncc2)cc1

>  <score_type>  (2) 
oracle

>  <origin>  (2) 
adg

>  <m_score__min__energy>  (2) 
-7.8799999999999999

>  <m_primary>  (2) 
energy

$$$$
2:0
     RDKit          3D

 45 46  0  0  0  0  0  0  0  0999 V2000
   -7.5390   23.4450  -32.4010 C   0  0  0  0  0  0  0  0  0  0  0  0
   -8.5280   22.6590  -31.5490 C   0  0  0  0  0  0  0  0  0  0  0  0
   -7.8760   21.4890  -30.9630 N   0  0  0  0  0  0  0  0  0  0  0  0
   -7.4510   20.3490  -31.7340 C   0  0  0  0  0  0  0  0  0  0  0  0
   -8.3570   19.3040  -31.9950 C   0  0  0  0  0  0  0  0  0  0  0  0
   -7.9530   18.1620  -32.6840 C   0  0  0  0  0  0  0  0  0  0  0  0
   -6.6380   18.0340  -33.1230 C   0  0  0  0  0  0  0  0  0  0  0  0
   -5.7110   19.0590  -32.8860 C   0  0  0  0  0  0  0  0  0  0  0  0
   -4.3920   18.9280  -33.3400 C   0  0  0  0  0  0  0  0  0  0  0  0
   -3.4690   19.9500  -33.1260 C   0  0  0  0  0  0  0  0  0  0  0  0
   -3.8430   21.1220  -32.4630 C   0  0  0  0  0  0  0  0  0  0  0  0
   -2.8640   22.1120  -32.2820 O   0  0  0  0  0  0  0  0  0  0  0  0
   -1.9640   22.2060  -31.1750 C   0  0  0  0  0  0  0  0  0  0  0  0
   -2.7110   22.3130  -29.8370 C   0  0  0  0  0  0  0  0  0  0  0  0
   -3.3340   23.6990  -29.6180 C   0  0  0  0  0  0  0  0  0  0  0  0
   -3.8980   24.2080  -30.8660 N   0  0  0  0  0  0  0  0  0  0  0  0
   -4.2190   25.5150  -30.6780 O   0  0  0  0  0  0  0  0  0  0  0  0
   -5.6130   25.5980  -30.8260 C   0  0  0  0  0  0  0  0  0  0  0  0
   -6.2620   25.6730  -29.4530 C   0  0  0  0  0  0  0  0  0  0  0  0
   -5.1680   21.2660  -32.0100 C   0  0  0  0  0  0  0  0  0  0  0  0
   -6.1120   20.2330  -32.1950 C   0  0  0  0  0  0  0  0  0  0  0  0
   -6.8470   23.9949  -31.7462 H   0  0  0  0  0  0  0  0  0  0  0  0
   -6.9692   22.7506  -33.0359 H   0  0  0  0  0  0  0  0  0  0  0  0
   -8.0868   24.1569  -33.0359 H   0  0  0  0  0  0  0  0  0  0  0  0
   -8.9062   23.3052  -30.7431 H   0  0  0  0  0  0  0  0  0  0  0  0
   -9.3602   22.3234  -32.1852 H   0  0  0  0  0  0  0  0  0  0  0  0
   -7.7810   21.4670  -29.9230 H   0  0  0  0  0  0  0  0  0  0  0  0
   -9.3981   19.3899  -31.6505 H   0  0  0  0  0  0  0  0  0  0  0  0
   -8.6768   17.3576  -32.8820 H   0  0  0  0  0  0  0  0  0  0  0  0
   -6.3250   17.1252  -33.6579 H   0  0  0  0  0  0  0  0  0  0  0  0
   -4.0834   18.0137  -33.8681 H   0  0  0  0  0  0  0  0  0  0  0  0
   -2.4351   19.8329  -33.4827 H   0  0  0  0  0  0  0  0  0  0  0  0
   -1.3281   21.3086  -31.1565 H   0  0  0  0  0  0  0  0  0  0  0  0
   -1.3608   23.1170  -31.3025 H   0  0  0  0  0  0  0  0  0  0  0  0
   -3.5124   21.5597  -29.8197 H   0  0  0  0  0  0  0  0  0  0  0  0
   -1.9795   22.1456  -29.0327 H   0  0  0  0  0  0  0  0  0  0  0  0
   -4.1318   23.6226  -28.8645 H   0  0  0  0  0  0  0  0  0  0  0  0
   -2.5517   24.3907  -29.2722 H   0  0  0  0  0  0  0  0  0  0  0  0
   -3.1510   24.1790  -31.5980 H   0  0  0  0  0  0  0  0  0  0  0  0
   -5.8680   26.4995  -31.4024 H   0  0  0  0  0  0  0  0  0  0  0  0
   -5.9801   24.7081  -31.3583 H   0  0  0  0  0  0  0  0  0  0  0  0
   -5.4882   25.5836  -28.6763 H   0  0  0  0  0  0  0  0  0  0  0  0
   -6.7805   26.6370  -29.3447 H   0  0  0  0  0  0  0  0  0  0  0  0
   -6.9868   24.8526  -29.3447 H   0  0  0  0  0  0  0  0  0  0  0  0
   -5.4715   22.1952  -31.5055 H   0  0  0  0  0  0  0  0  0  0  0  0
  1  2  1  0
  2  3  1  0
  3  4  1  0
  4  5  2  0
  5  6  1  0
  6  7  2  0
  7  8  1  0
  8  9  2  0
  9 10  1  0
 10 11  2  0
 11 12  1  0
 12 13  1  0
 13 14  1  0
 14 15  1  0
 15 16  1  0
 16 17  1  0
 17 18  1  0
 18 19  1  0
 11 20  1  0
 20 21  2  0
 21  4  1  0
 21  8  1  0
  1 22  1  0
  1 23  1  0
  1 24  1  0
  2 25  1  0
  2 26  1  0
  3 27  1  0
  5 28  1  0
  6 29  1  0
  7 30  1  0
  9 31  1  0
 10 32  1  0
 13 33  1  0
 13 34  1  0
 14 35  1  0
 14 36  1  0
 15 37  1  0
 15 38  1  0
 16 39  1  0
 18 40  1  0
 18 41  1  0
 19 42  1  0
 19 43  1  0
 19 44  1  0
 20 45  1  0
M  END
>  <UniqueID>  (3) 
3

>  <SMILES>  (3) 
CCNc1cccc2ccc(OCCCNOCC)cc12

>  <Energy>  (3) 
38.937836755958095

>  <Genealogy>  (3) 
CCNc1cccc2ccc(OCCCNOCC)cc12 (3D coordinates assigned)
CCNc1cccc2ccc(OCCCNOCC)cc12 (optimized conformer: 38.937836755958095 kcal/mol)

>  <smiles>  (3) 
CCNc1cccc2ccc(OCCCNOCC)cc12

>  <score_type>  (3) 
oracle

>  <origin>  (3) 
adg

>  <m_score__min__energy>  (3) 
-8.1799999999999997

>  <m_primary>  (3) 
energy

$$$$
3:0
     RDKit          3D

 53 55  0  0  0  0  0  0  0  0999 V2000
   -2.9280   22.0240  -27.4830 C   0  0  0  0  0  0  0  0  0  0  0  0
   -4.2370   22.7480  -27.8160 C   0  0  0  0  0  0  0  0  0  0  0  0
   -4.0570   24.2750  -28.0090 C   0  0  2  0  0  0  0  0  0  0  0  0
   -3.6800   24.9160  -26.6550 C   0  0  0  0  0  0  0  0  0  0  0  0
   -5.2870   24.8850  -28.5690 N   0  0  0  0  0  0  0  0  0  0  0  0
   -5.3060   24.8770  -30.0450 C   0  0  0  0  0  0  0  0  0  0  0  0
   -6.1660   23.7290  -30.6000 C   0  0  0  0  0  0  0  0  0  0  0  0
   -5.5570   23.1370  -31.7930 N   0  0  0  0  0  0  0  0  0  0  0  0
   -5.6620   21.7330  -32.0780 C   0  0  0  0  0  0  0  0  0  0  0  0
   -6.9360   21.1440  -32.1680 C   0  0  0  0  0  0  0  0  0  0  0  0
   -8.0910   21.8330  -31.7350 C   0  0  0  0  0  0  0  0  0  0  0  0
   -9.3450   21.2290  -31.7980 C   0  0  0  0  0  0  0  0  0  0  0  0
   -9.4710   19.9330  -32.2830 C   0  0  0  0  0  0  0  0  0  0  0  0
   -8.3490   19.2470  -32.7450 C   0  0  0  0  0  0  0  0  0  0  0  0
   -7.0660   19.8530  -32.7370 C   0  0  0  0  0  0  0  0  0  0  0  0
   -5.9650   19.2340  -33.2920 N   0  0  0  0  0  0  0  0  0  0  0  0
   -6.1510   18.0890  -34.2140 C   0  0  0  0  0  0  0  0  0  0  0  0
   -4.6930   19.6980  -33.0090 C   0  0  0  0  0  0  0  0  0  0  0  0
   -3.5450   18.9330  -33.3330 C   0  0  0  0  0  0  0  0  0  0  0  0
   -2.2580   19.4100  -33.0810 C   0  0  0  0  0  0  0  0  0  0  0  0
   -1.0530   18.5830  -33.4340 C   0  0  0  0  0  0  0  0  0  0  0  0
   -2.0940   20.6150  -32.4060 C   0  0  0  0  0  0  0  0  0  0  0  0
   -3.1960   21.3770  -32.0170 C   0  0  0  0  0  0  0  0  0  0  0  0
   -2.7800   22.8490  -30.8470 Br  0  0  0  0  0  0  0  0  0  0  0  0
   -4.5150   20.9580  -32.3650 C   0  0  0  0  0  0  0  0  0  0  0  0
   -2.8120   21.9598  -26.3910 H   0  0  0  0  0  0  0  0  0  0  0  0
   -2.9509   21.0103  -27.9095 H   0  0  0  0  0  0  0  0  0  0  0  0
   -2.0815   22.5822  -27.9095 H   0  0  0  0  0  0  0  0  0  0  0  0
   -4.6448   22.3237  -28.7453 H   0  0  0  0  0  0  0  0  0  0  0  0
   -4.9168   22.6038  -26.9633 H   0  0  0  0  0  0  0  0  0  0  0  0
   -3.2462   24.4588  -28.7293 H   0  0  0  0  0  0  0  0  0  0  0  0
   -4.0514   24.2846  -25.8344 H   0  0  0  0  0  0  0  0  0  0  0  0
   -2.5859   25.0046  -26.5832 H   0  0  0  0  0  0  0  0  0  0  0  0
   -4.1343   25.9152  -26.5832 H   0  0  0  0  0  0  0  0  0  0  0  0
   -6.1120   24.3510  -28.2230 H   0  0  0  0  0  0  0  0  0  0  0  0
   -5.3820   25.8720  -28.2290 H   0  0  0  0  0  0  0  0  0  0  0  0
   -5.7167   25.8334  -30.4008 H   0  0  0  0  0  0  0  0  0  0  0  0
   -4.2745   24.7329  -30.3990 H   0  0  0  0  0  0  0  0  0  0  0  0
   -6.2692   22.9527  -29.8275 H   0  0  0  0  0  0  0  0  0  0  0  0
   -7.1500   24.1350  -30.8774 H   0  0  0  0  0  0  0  0  0  0  0  0
   -4.9040   23.7230  -32.3630 H   0  0  0  0  0  0  0  0  0  0  0  0
   -7.9992   22.8571  -31.3440 H   0  0  0  0  0  0  0  0  0  0  0  0
  -10.2368   21.7791  -31.4632 H   0  0  0  0  0  0  0  0  0  0  0  0
  -10.4579   19.4475  -32.3024 H   0  0  0  0  0  0  0  0  0  0  0  0
   -8.4599   18.2195  -33.1218 H   0  0  0  0  0  0  0  0  0  0  0  0
   -6.3005   17.1687  -33.6303 H   0  0  0  0  0  0  0  0  0  0  0  0
   -7.0318   18.2682  -34.8481 H   0  0  0  0  0  0  0  0  0  0  0  0
   -5.2588   17.9801  -34.8481 H   0  0  0  0  0  0  0  0  0  0  0  0
   -3.6711   17.9418  -33.7931 H   0  0  0  0  0  0  0  0  0  0  0  0
   -0.5584   18.2435  -32.5120 H   0  0  0  0  0  0  0  0  0  0  0  0
   -1.3677   17.7097  -34.0241 H   0  0  0  0  0  0  0  0  0  0  0  0
   -0.3513   19.1907  -34.0241 H   0  0  0  0  0  0  0  0  0  0  0  0
   -1.0797   20.9727  -32.1753 H   0  0  0  0  0  0  0  0  0  0  0  0
  1  2  1  0
  2  3  1  0
  3  4  1  0
  3  5  1  0
  5  6  1  0
  6  7  1  0
  7  8  1  0
  8  9  1  0
  9 10  2  0
 10 11  1  0
 11 12  2  0
 12 13  1  0
 13 14  2  0
 14 15  1  0
 15 16  2  0
 16 17  1  0
 16 18  1  0
 18 19  2  0
 19 20  1  0
 20 21  1  0
 20 22  2  0
 22 23  1  0
 23 24  1  0
 23 25  2  0
 25  9  1  0
 15 10  1  0
 25 18  1  0
  1 26  1  0
  1 27  1  0
  1 28  1  0
  2 29  1  0
  2 30  1  0
  3 31  1  6
  4 32  1  0
  4 33  1  0
  4 34  1  0
  5 35  1  0
  5 36  1  0
  6 37  1  0
  6 38  1  0
  7 39  1  0
  7 40  1  0
  8 41  1  0
 11 42  1  0
 12 43  1  0
 13 44  1  0
 14 45  1  0
 17 46  1  0
 17 47  1  0
 17 48  1  0
 19 49  1  0
 21 50  1  0
 21 51  1  0
 21 52  1  0
 22 53  1  0
M  CHG  2   5   1  16   1
M  END
>  <UniqueID>  (4) 
4

>  <SMILES>  (4) 
CC[C@H](C)[NH2+]CCNc1c2ccccc2[n+](C)c2cc(C)cc(Br)c12

>  <Energy>  (4) 
80.220187004866

>  <Genealogy>  (4) 
CCC(C)[NH2+]CCNc1c2ccccc2[n+](C)c2cc(C)cc(Br)c12 (protonated)
CC[C@H](C)[NH2+]CCNc1c2ccccc2[n+](C)c2cc(C)cc(Br)c12 (chirality)
CC[C@H](C)[NH2+]CCNc1c2ccccc2[n+](C)c2cc(C)cc(Br)c12 (3D coordinates assigned)
CC[C@H](C)[NH2+]CCNc1c2ccccc2[n+](C)c2cc(C)cc(Br)c12 (optimized conformer: 80.220187004866 kcal/mol)

>  <smiles>  (4) 
CCC(C)NCCNc1c2ccccc2[n+](C)c2cc(C)cc(Br)c12

>  <score_type>  (4) 
oracle

>  <origin>  (4) 
adg

>  <m_score__min__energy>  (4) 
-7.8399999999999999

>  <m_primary>  (4) 
energy

$$$$
4:0
     RDKit          3D

 49 51  0  0  0  0  0  0  0  0999 V2000
   -9.4810   21.9670  -31.9600 C   0  0  0  0  0  0  0  0  0  0  0  0
   -8.8840   20.7380  -31.2830 C   0  0  0  0  0  0  0  0  0  0  0  0
   -9.0230   19.6040  -32.1180 O   0  0  0  0  0  0  0  0  0  0  0  0
   -8.3570   18.4910  -31.5580 C   0  0  0  0  0  0  0  0  0  0  0  0
   -7.1810   18.1450  -32.4250 C   0  0  0  0  0  0  0  0  0  0  0  0
   -7.2140   17.0330  -33.2740 C   0  0  0  0  0  0  0  0  0  0  0  0
   -6.1530   16.7560  -34.0790 N   0  0  0  0  0  0  0  0  0  0  0  0
   -5.0460   17.5450  -34.1120 C   0  0  0  0  0  0  0  0  0  0  0  0
   -3.7110   17.0590  -35.1420 Cl  0  0  0  0  0  0  0  0  0  0  0  0
   -4.9770   18.6920  -33.2990 C   0  0  0  0  0  0  0  0  0  0  0  0
   -3.8430   19.5800  -33.3400 N   0  0  0  0  0  0  0  0  0  0  0  0
   -4.0470   21.0280  -33.4570 C   0  0  0  0  0  0  0  0  0  0  0  0
   -2.9420   21.7950  -32.7080 C   0  0  0  0  0  0  0  0  0  0  0  0
   -2.5620   21.1210  -31.4420 N   0  0  0  0  0  0  0  0  0  0  0  0
   -3.6880   21.1400  -30.4720 C   0  0  0  0  0  0  0  0  0  0  0  0
   -4.5540   22.3750  -30.6180 C   0  0  0  0  0  0  0  0  0  0  0  0
   -5.9200   22.2480  -30.9210 C   0  0  0  0  0  0  0  0  0  0  0  0
   -6.7220   23.3840  -31.0580 C   0  0  0  0  0  0  0  0  0  0  0  0
   -6.1690   24.6550  -30.8960 C   0  0  0  0  0  0  0  0  0  0  0  0
   -4.8100   24.7950  -30.6000 C   0  0  0  0  0  0  0  0  0  0  0  0
   -4.2750   26.0320  -30.4480 F   0  0  0  0  0  0  0  0  0  0  0  0
   -4.0000   23.6610  -30.4620 C   0  0  0  0  0  0  0  0  0  0  0  0
   -2.6800   23.8150  -30.1870 F   0  0  0  0  0  0  0  0  0  0  0  0
   -2.0270   19.7450  -31.6750 C   0  0  0  0  0  0  0  0  0  0  0  0
   -2.5080   19.0940  -32.9880 C   0  0  0  0  0  0  0  0  0  0  0  0
   -6.0550   18.9760  -32.4480 C   0  0  0  0  0  0  0  0  0  0  0  0
   -9.8257   22.6767  -31.1935 H   0  0  0  0  0  0  0  0  0  0  0  0
   -8.7161   22.4479  -32.5874 H   0  0  0  0  0  0  0  0  0  0  0  0
  -10.3318   21.6630  -32.5874 H   0  0  0  0  0  0  0  0  0  0  0  0
   -7.8165   20.9148  -31.0851 H   0  0  0  0  0  0  0  0  0  0  0  0
   -9.4160   20.5550  -30.3378 H   0  0  0  0  0  0  0  0  0  0  0  0
   -8.0089   18.7398  -30.5446 H   0  0  0  0  0  0  0  0  0  0  0  0
   -9.0442   17.6340  -31.5005 H   0  0  0  0  0  0  0  0  0  0  0  0
   -8.1000   16.3813  -33.2904 H   0  0  0  0  0  0  0  0  0  0  0  0
   -4.0263   21.3110  -34.5198 H   0  0  0  0  0  0  0  0  0  0  0  0
   -5.0198   21.2853  -33.0127 H   0  0  0  0  0  0  0  0  0  0  0  0
   -2.0550   21.8629  -33.3550 H   0  0  0  0  0  0  0  0  0  0  0  0
   -3.3288   22.7943  -32.4596 H   0  0  0  0  0  0  0  0  0  0  0  0
   -1.7840   21.6950  -31.0360 H   0  0  0  0  0  0  0  0  0  0  0  0
   -4.3119   20.2492  -30.6372 H   0  0  0  0  0  0  0  0  0  0  0  0
   -3.2588   21.1486  -29.4592 H   0  0  0  0  0  0  0  0  0  0  0  0
   -6.3607   21.2486  -31.0511 H   0  0  0  0  0  0  0  0  0  0  0  0
   -7.7910   23.2763  -31.2939 H   0  0  0  0  0  0  0  0  0  0  0  0
   -6.8032   25.5476  -31.0013 H   0  0  0  0  0  0  0  0  0  0  0  0
   -0.9287   19.8015  -31.7000 H   0  0  0  0  0  0  0  0  0  0  0  0
   -2.4027   19.1164  -30.8542 H   0  0  0  0  0  0  0  0  0  0  0  0
   -1.8057   19.3465  -33.7961 H   0  0  0  0  0  0  0  0  0  0  0  0
   -2.5503   18.0034  -32.8506 H   0  0  0  0  0  0  0  0  0  0  0  0
   -6.0152   19.8590  -31.7933 H   0  0  0  0  0  0  0  0  0  0  0  0
  1  2  1  0
  2  3  1  0
  3  4  1  0
  4  5  1  0
  5  6  2  0
  6  7  1  0
  7  8  2  0
  8  9  1  0
  8 10  1  0
 10 11  1  0
 11 12  1  0
 12 13  1  0
 13 14  1  0
 14 15  1  0
 15 16  1  0
 16 17  2  0
 17 18  1  0
 18 19  2  0
 19 20  1  0
 20 21  1  0
 20 22  2  0
 22 23  1  0
 14 24  1  0
 24 25  1  0
 10 26  2  0
 26  5  1  0
 25 11  1  0
 22 16  1  0
  1 27  1  0
  1 28  1  0
  1 29  1  0
  2 30  1  0
  2 31  1  0
  4 32  1  0
  4 33  1  0
  6 34  1  0
 12 35  1  0
 12 36  1  0
 13 37  1  0
 13 38  1  0
 14 39  1  0
 15 40  1  0
 15 41  1  0
 17 42  1  0
 18 43  1  0
 19 44  1  0
 24 45  1  0
 24 46  1  0
 25 47  1  0
 25 48  1  0
 26 49  1  0
M  CHG  1  14   1
M  END
>  <UniqueID>  (5) 
5

>  <SMILES>  (5) 
CCOCc1cnc(Cl)c(N2CC[NH+](Cc3cccc(F)c3F)CC2)c1

>  <Energy>  (5) 
63.493654650052235

>  <Genealogy>  (5) 
CCOCc1cnc(Cl)c(N2CC[NH+](Cc3cccc(F)c3F)CC2)c1 (protonated)
CCOCc1cnc(Cl)c(N2CC[NH+](Cc3cccc(F)c3F)CC2)c1 (3D coordinates assigned)
CCOCc1cnc(Cl)c(N2CC[NH+](Cc3cccc(F)c3F)CC2)c1 (nonaromatic ring conformer: 63.493654650052235 kcal/mol)

>  <smiles>  (5) 
CCOCc1cnc(Cl)c(N2CCN(Cc3cccc(F)c3F)CC2)c1

>  <score_type>  (5) 
oracle

>  <origin>  (5) 
adg

>  <m_score__min__energy>  (5) 
-6.9199999999999999

>  <m_primary>  (5) 
energy

$$$$
5:0
     RDKit          3D

 56 58  0  0  0  0  0  0  0  0999 V2000
   -1.8590   21.3530  -30.1040 C   0  0  0  0  0  0  0  0  0  0  0  0
   -3.2800   20.8910  -29.8050 C   0  0  0  0  0  0  0  0  0  0  0  0
   -4.1970   21.9440  -30.0400 O   0  0  0  0  0  0  0  0  0  0  0  0
   -3.8650   23.0730  -29.2590 C   0  0  0  0  0  0  0  0  0  0  0  0
   -3.4870   24.2290  -30.1780 C   0  0  0  0  0  0  0  0  0  0  0  0
   -4.6300   24.6480  -30.8940 O   0  0  0  0  0  0  0  0  0  0  0  0
   -5.3410   25.5990  -30.1310 C   0  0  0  0  0  0  0  0  0  0  0  0
   -6.7920   25.1380  -29.9890 C   0  0  0  0  0  0  0  0  0  0  0  0
   -6.9870   23.6070  -30.1430 C   0  0  0  0  0  0  0  0  0  0  0  0
   -6.4050   22.9420  -31.3450 N   0  0  0  0  0  0  0  0  0  0  0  0
   -7.1330   21.8110  -31.8980 C   0  0  0  0  0  0  0  0  0  0  0  0
   -8.5230   21.8270  -31.6790 C   0  0  0  0  0  0  0  0  0  0  0  0
   -9.5090   20.9070  -32.0150 C   0  0  0  0  0  0  0  0  0  0  0  0
   -9.3880   19.6110  -32.4920 C   0  0  0  0  0  0  0  0  0  0  0  0
   -8.2370   18.8820  -32.7360 C   0  0  0  0  0  0  0  0  0  0  0  0
   -6.9180   19.3380  -32.7120 C   0  0  0  0  0  0  0  0  0  0  0  0
   -5.8660   18.5370  -33.0450 N   0  0  0  0  0  0  0  0  0  0  0  0
   -5.8990   17.0950  -33.3370 C   0  0  0  0  0  0  0  0  0  0  0  0
   -5.3740   16.2940  -32.1500 C   0  0  0  0  0  0  0  0  0  0  0  0
   -4.7830   19.3320  -33.1580 C   0  0  0  0  0  0  0  0  0  0  0  0
   -3.5040   18.9450  -33.5860 C   0  0  0  0  0  0  0  0  0  0  0  0
   -2.5160   19.9270  -33.7230 C   0  0  0  0  0  0  0  0  0  0  0  0
   -2.8170   21.2720  -33.4620 C   0  0  0  0  0  0  0  0  0  0  0  0
   -4.1030   21.6430  -33.0450 C   0  0  0  0  0  0  0  0  0  0  0  0
   -5.0800   20.6470  -32.8590 C   0  0  0  0  0  0  0  0  0  0  0  0
   -6.4380   20.7230  -32.4940 C   0  0  0  0  0  0  0  0  0  0  0  0
   -1.3236   21.5271  -29.1590 H   0  0  0  0  0  0  0  0  0  0  0  0
   -1.3361   20.5786  -30.6844 H   0  0  0  0  0  0  0  0  0  0  0  0
   -1.8915   22.2868  -30.6844 H   0  0  0  0  0  0  0  0  0  0  0  0
   -3.5297   20.0400  -30.4557 H   0  0  0  0  0  0  0  0  0  0  0  0
   -3.3441   20.5886  -28.7493 H   0  0  0  0  0  0  0  0  0  0  0  0
   -4.7299   23.3609  -28.6433 H   0  0  0  0  0  0  0  0  0  0  0  0
   -3.0152   22.8305  -28.6040 H   0  0  0  0  0  0  0  0  0  0  0  0
   -3.1026   25.0661  -29.5767 H   0  0  0  0  0  0  0  0  0  0  0  0
   -2.7097   23.9003  -30.8836 H   0  0  0  0  0  0  0  0  0  0  0  0
   -4.8834   25.6894  -29.1348 H   0  0  0  0  0  0  0  0  0  0  0  0
   -5.3090   26.5774  -30.6327 H   0  0  0  0  0  0  0  0  0  0  0  0
   -7.1527   25.4339  -28.9928 H   0  0  0  0  0  0  0  0  0  0  0  0
   -7.3576   25.6138  -30.8037 H   0  0  0  0  0  0  0  0  0  0  0  0
   -6.5408   23.1302  -29.2578 H   0  0  0  0  0  0  0  0  0  0  0  0
   -8.0734   23.4798  -30.2590 H   0  0  0  0  0  0  0  0  0  0  0  0
   -5.4510   22.5990  -31.0820 H   0  0  0  0  0  0  0  0  0  0  0  0
   -6.1710   23.6410  -32.0810 H   0  0  0  0  0  0  0  0  0  0  0  0
   -8.8919   22.7195  -31.1523 H   0  0  0  0  0  0  0  0  0  0  0  0
  -10.5421   21.2608  -31.8823 H   0  0  0  0  0  0  0  0  0  0  0  0
  -10.3342   19.0921  -32.7053 H   0  0  0  0  0  0  0  0  0  0  0  0
   -8.3784   17.8181  -32.9772 H   0  0  0  0  0  0  0  0  0  0  0  0
   -6.9355   16.7925  -33.5470 H   0  0  0  0  0  0  0  0  0  0  0  0
   -5.2597   16.8955  -34.2096 H   0  0  0  0  0  0  0  0  0  0  0  0
   -5.6902   16.7765  -31.2134 H   0  0  0  0  0  0  0  0  0  0  0  0
   -5.7777   15.2716  -32.1902 H   0  0  0  0  0  0  0  0  0  0  0  0
   -4.2754   16.2562  -32.1902 H   0  0  0  0  0  0  0  0  0  0  0  0
   -3.2822   17.8910  -33.8094 H   0  0  0  0  0  0  0  0  0  0  0  0
   -1.5005   19.6432  -34.0363 H   0  0  0  0  0  0  0  0  0  0  0  0
   -2.0394   22.0402  -33.5853 H   0  0  0  0  0  0  0  0  0  0  0  0
   -4.3458   22.7007  -32.8652 H   0  0  0  0  0  0  0  0  0  0  0  0
  1  2  1  0
  2  3  1  0
  3  4  1  0
  4  5  1  0
  5  6  1  0
  6  7  1  0
  7  8  1  0
  8  9  1  0
  9 10  1  0
 10 11  1  0
 11 12  2  0
 12 13  1  0
 13 14  2  0
 14 15  1  0
 15 16  2  0
 16 17  1  0
 17 18  1  0
 18 19  1  0
 17 20  2  0
 20 21  1  0
 21 22  2  0
 22 23  1  0
 23 24  2  0
 24 25  1  0
 25 26  2  0
 26 11  1  0
 26 16  1  0
 25 20  1  0
  1 27  1  0
  1 28  1  0
  1 29  1  0
  2 30  1  0
  2 31  1  0
  4 32  1  0
  4 33  1  0
  5 34  1  0
  5 35  1  0
  7 36  1  0
  7 37  1  0
  8 38  1  0
  8 39  1  0
  9 40  1  0
  9 41  1  0
 10 42  1  0
 10 43  1  0
 12 44  1  0
 13 45  1  0
 14 46  1  0
 15 47  1  0
 18 48  1  0
 18 49  1  0
 19 50  1  0
 19 51  1  0
 19 52  1  0
 21 53  1  0
 22 54  1  0
 23 55  1  0
 24 56  1  0
M  CHG  2  10   1  17   1
M  END
>  <UniqueID>  (6) 
6

>  <SMILES>  (6) 
CCOCCOCCC[NH2+]c1ccccc2[n+](CC)c3ccccc3c1-2

>  <Energy>  (6) 
118.57766609515788

>  <Genealogy>  (6) 
CCOCCOCCC[NH2+]c1ccccc2[n+](CC)c3ccccc3c1-2 (protonated)
CCOCCOCCC[NH2+]c1ccccc2[n+](CC)c3ccccc3c1-2 (3D coordinates assigned)
CCOCCOCCC[NH2+]c1ccccc2[n+](CC)c3ccccc3c1-2 (optimized conformer: 118.57766609515788 kcal/mol)

>  <smiles>  (6) 
CCOCCOCCCNc1ccccc2[n+](CC)c3ccccc3c1-2

>  <score_type>  (6) 
oracle

>  <origin>  (6) 
adg

>  <m_score__min__energy>  (6) 
-7.9199999999999999

>  <m_primary>  (6) 
energy

$$$$
6:0
     RDKit          3D

 78 81  0  0  0  0  0  0  0  0999 V2000
   -6.3230   25.0660  -29.7210 C   0  0  0  0  0  0  0  0  0  0  0  0
   -5.3300   25.3600  -30.8410 C   0  0  0  0  0  0  0  0  0  0  0  0
   -4.6980   24.1650  -31.2630 O   0  0  0  0  0  0  0  0  0  0  0  0
   -4.4750   23.3090  -30.1620 C   0  0  0  0  0  0  0  0  0  0  0  0
   -4.0270   21.9310  -30.6640 C   0  0  0  0  0  0  0  0  0  0  0  0
   -3.4930   21.9490  -32.1090 C   0  0  0  0  0  0  0  0  0  0  0  0
   -4.5570   22.0680  -33.1320 N   0  0  0  0  0  0  0  0  0  0  0  0
   -5.6240   21.0910  -32.9390 C   0  0  0  0  0  0  0  0  0  0  0  0
   -6.9030   21.5090  -32.4500 C   0  0  0  0  0  0  0  0  0  0  0  0
   -7.2040   22.8660  -32.1410 C   0  0  0  0  0  0  0  0  0  0  0  0
   -8.4730   23.2560  -31.7250 C   0  0  0  0  0  0  0  0  0  0  0  0
   -9.4850   22.3200  -31.6080 C   0  0  0  0  0  0  0  0  0  0  0  0
   -9.2240   20.9820  -31.8710 C   0  0  0  0  0  0  0  0  0  0  0  0
   -7.9290   20.5430  -32.2550 C   0  0  0  0  0  0  0  0  0  0  0  0
   -7.6720   19.2080  -32.4480 N   0  0  0  0  0  0  0  0  0  0  0  0
   -8.6000   18.1940  -31.8960 C   0  0  0  0  0  0  0  0  0  0  0  0
   -6.5340   18.8080  -33.1140 C   0  0  0  0  0  0  0  0  0  0  0  0
   -6.4460   17.4960  -33.6350 C   0  0  0  0  0  0  0  0  0  0  0  0
   -5.2870   17.0310  -34.2280 C   0  0  0  0  0  0  0  0  0  0  0  0
   -4.1770   17.8470  -34.3080 C   0  0  0  0  0  0  0  0  0  0  0  0
   -4.2130   19.1730  -33.8410 C   0  0  0  0  0  0  0  0  0  0  0  0
   -3.0410   19.9480  -33.8970 O   0  0  0  0  0  0  0  0  0  0  0  0
   -1.6940   19.4720  -33.8600 C   0  0  0  0  0  0  0  0  0  0  0  0
   -1.3880   18.8430  -32.4790 C   0  0  0  0  0  0  0  0  0  0  0  0
   -0.3850   19.5800  -31.6440 N   0  0  0  0  0  0  0  0  0  0  0  0
    0.2580   20.6420  -32.4670 C   0  0  0  0  0  0  0  0  0  0  0  0
    0.6870   18.6100  -31.2280 C   0  0  0  0  0  0  0  0  0  0  0  0
    0.4110   17.9770  -29.8510 C   0  0  0  0  0  0  0  0  0  0  0  0
    0.3840   19.0000  -28.7560 N   0  0  0  0  0  0  0  0  0  0  0  0
    1.7460   19.1550  -28.1860 C   0  0  0  0  0  0  0  0  0  0  0  0
   -0.5110   18.5210  -27.6730 C   0  0  0  0  0  0  0  0  0  0  0  0
   -0.0930   20.3320  -29.2500 C   0  0  0  0  0  0  0  0  0  0  0  0
   -1.0490   20.1980  -30.4510 C   0  0  0  0  0  0  0  0  0  0  0  0
   -5.4390   19.7090  -33.3000 C   0  0  0  0  0  0  0  0  0  0  0  0
   -5.8316   25.2115  -28.7477 H   0  0  0  0  0  0  0  0  0  0  0  0
   -7.1817   25.7484  -29.8038 H   0  0  0  0  0  0  0  0  0  0  0  0
   -6.6718   24.0261  -29.8038 H   0  0  0  0  0  0  0  0  0  0  0  0
   -5.8645   25.8079  -31.6917 H   0  0  0  0  0  0  0  0  0  0  0  0
   -4.5652   26.0570  -30.4677 H   0  0  0  0  0  0  0  0  0  0  0  0
   -3.6919   23.7366  -29.5186 H   0  0  0  0  0  0  0  0  0  0  0  0
   -5.4068   23.2031  -29.5871 H   0  0  0  0  0  0  0  0  0  0  0  0
   -3.2297   21.5614  -30.0024 H   0  0  0  0  0  0  0  0  0  0  0  0
   -4.9125   21.2785  -30.6536 H   0  0  0  0  0  0  0  0  0  0  0  0
   -2.8096   22.8042  -32.2167 H   0  0  0  0  0  0  0  0  0  0  0  0
   -2.9881   20.9866  -32.2787 H   0  0  0  0  0  0  0  0  0  0  0  0
   -4.1620   21.9720  -34.0910 H   0  0  0  0  0  0  0  0  0  0  0  0
   -4.8980   23.0460  -33.1910 H   0  0  0  0  0  0  0  0  0  0  0  0
   -6.4133   23.6251  -32.2335 H   0  0  0  0  0  0  0  0  0  0  0  0
   -8.6723   24.3116  -31.4884 H   0  0  0  0  0  0  0  0  0  0  0  0
  -10.4949   22.6354  -31.3070 H   0  0  0  0  0  0  0  0  0  0  0  0
  -10.0370   20.2467  -31.7801 H   0  0  0  0  0  0  0  0  0  0  0  0
   -8.5688   18.2281  -30.7970 H   0  0  0  0  0  0  0  0  0  0  0  0
   -9.6227   18.4068  -32.2406 H   0  0  0  0  0  0  0  0  0  0  0  0
   -8.2976   17.1941  -32.2406 H   0  0  0  0  0  0  0  0  0  0  0  0
   -7.3194   16.8307  -33.5668 H   0  0  0  0  0  0  0  0  0  0  0  0
   -5.2496   16.0102  -34.6362 H   0  0  0  0  0  0  0  0  0  0  0  0
   -3.2474   17.4532  -34.7449 H   0  0  0  0  0  0  0  0  0  0  0  0
   -1.5550   18.7130  -34.6440 H   0  0  0  0  0  0  0  0  0  0  0  0
   -1.0097   20.3164  -34.0298 H   0  0  0  0  0  0  0  0  0  0  0  0
   -2.3297   18.7933  -31.9127 H   0  0  0  0  0  0  0  0  0  0  0  0
   -0.9439   17.8583  -32.6866 H   0  0  0  0  0  0  0  0  0  0  0  0
    0.7131   21.3936  -31.8052 H   0  0  0  0  0  0  0  0  0  0  0  0
    1.0362   20.1932  -33.1018 H   0  0  0  0  0  0  0  0  0  0  0  0
   -0.5004   21.1235  -33.1018 H   0  0  0  0  0  0  0  0  0  0  0  0
    0.7472   17.8082  -31.9787 H   0  0  0  0  0  0  0  0  0  0  0  0
    1.6317   19.1687  -31.1546 H   0  0  0  0  0  0  0  0  0  0  0  0
   -0.5629   17.4667  -29.8839 H   0  0  0  0  0  0  0  0  0  0  0  0
    1.2248   17.2695  -29.6339 H   0  0  0  0  0  0  0  0  0  0  0  0
    1.6868   19.1483  -27.0876 H   0  0  0  0  0  0  0  0  0  0  0  0
    2.3818   18.3234  -28.5240 H   0  0  0  0  0  0  0  0  0  0  0  0
    2.1787   20.1082  -28.5240 H   0  0  0  0  0  0  0  0  0  0  0  0
   -0.0650   18.7597  -26.6962 H   0  0  0  0  0  0  0  0  0  0  0  0
   -1.4895   19.0160  -27.7601 H   0  0  0  0  0  0  0  0  0  0  0  0
   -0.6418   17.4323  -27.7601 H   0  0  0  0  0  0  0  0  0  0  0  0
   -0.6207   20.8450  -28.4325 H   0  0  0  0  0  0  0  0  0  0  0  0
    0.7862   20.9049  -29.5800 H   0  0  0  0  0  0  0  0  0  0  0  0
   -1.9012   19.5684  -30.1555 H   0  0  0  0  0  0  0  0  0  0  0  0
   -1.3744   21.2097  -30.7350 H   0  0  0  0  0  0  0  0  0  0  0  0
  1  2  1  0
  2  3  1  0
  3  4  1  0
  4  5  1  0
  5  6  1  0
  6  7  1  0
  7  8  1  0
  8  9  2  0
  9 10  1  0
 10 11  2  0
 11 12  1  0
 12 13  2  0
 13 14  1  0
 14 15  2  0
 15 16  1  0
 15 17  1  0
 17 18  2  0
 18 19  1  0
 19 20  2  0
 20 21  1  0
 21 22  1  0
 22 23  1  0
 23 24  1  0
 24 25  1  0
 25 26  1  0
 25 27  1  0
 27 28  1  0
 28 29  1  0
 29 30  1  0
 29 31  1  0
 29 32  1  0
 32 33  1  0
 21 34  2  0
 34  8  1  0
 14  9  1  0
 34 17  1  0
 33 25  1  0
  1 35  1  0
  1 36  1  0
  1 37  1  0
  2 38  1  0
  2 39  1  0
  4 40  1  0
  4 41  1  0
  5 42  1  0
  5 43  1  0
  6 44  1  0
  6 45  1  0
  7 46  1  0
  7 47  1  0
 10 48  1  0
 11 49  1  0
 12 50  1  0
 13 51  1  0
 16 52  1  0
 16 53  1  0
 16 54  1  0
 18 55  1  0
 19 56  1  0
 20 57  1  0
 23 58  1  0
 23 59  1  0
 24 60  1  0
 24 61  1  0
 26 62  1  0
 26 63  1  0
 26 64  1  0
 27 65  1  0
 27 66  1  0
 28 67  1  0
 28 68  1  0
 30 69  1  0
 30 70  1  0
 30 71  1  0
 31 72  1  0
 31 73  1  0
 31 74  1  0
 32 75  1  0
 32 76  1  0
 33 77  1  0
 33 78  1  0
M  CHG  4   7   1  15   1  25   1  29   1
M  END
>  <UniqueID>  (7) 
7

>  <SMILES>  (7) 
CCOCCC[NH2+]c1c2ccccc2[n+](C)c2cccc(OCC[N+]3(C)CC[N+](C)(C)CC3)c12

>  <Energy>  (7) 
140.88929011920365

>  <Genealogy>  (7) 
CCOCCC[NH2+]c1c2ccccc2[n+](C)c2cccc(OCC[N+]3(C)CC[N+](C)(C)CC3)c12 (protonated)
CCOCCC[NH2+]c1c2ccccc2[n+](C)c2cccc(OCC[N+]3(C)CC[N+](C)(C)CC3)c12 (3D coordinates assigned)
CCOCCC[NH2+]c1c2ccccc2[n+](C)c2cccc(OCC[N+]3(C)CC[N+](C)(C)CC3)c12 (nonaromatic ring conformer: 140.88929011920365 kcal/mol)

>  <smiles>  (7) 
CCOCCCNc1c2ccccc2[n+](C)c2cccc(OCC[N+]3(C)CC[N+](C)(C)CC3)c12

>  <score_type>  (7) 
oracle

>  <origin>  (7) 
adg

>  <m_score__min__energy>  (7) 
-8.4199999999999999

>  <m_primary>  (7) 
energy

$$$$
7:0
     RDKit          3D

 40 41  0  0  0  0  0  0  0  0999 V2000
    0.4420   25.1600  -27.4050 C   0  0  0  0  0  0  0  0  0  0  0  0
   -0.5790   26.2520  -27.7250 C   0  0  0  0  0  0  0  0  0  0  0  0
   -1.5740   26.4050  -26.5700 C   0  0  0  0  0  0  0  0  0  0  0  0
   -1.2880   25.8950  -28.9510 N   0  0  0  0  0  0  0  0  0  0  0  0
   -1.6930   24.5740  -29.3330 C   0  0  0  0  0  0  0  0  0  0  0  0
   -0.8050   23.7470  -29.6740 O   0  0  0  0  0  0  0  0  0  0  0  0
   -3.1420   24.1770  -29.4340 C   0  0  0  0  0  0  0  0  0  0  0  0
   -3.6990   24.5930  -30.6800 O   0  0  0  0  0  0  0  0  0  0  0  0
   -5.0700   24.7970  -30.8750 C   0  0  0  0  0  0  0  0  0  0  0  0
   -5.5630   25.9560  -30.8030 O   0  0  0  0  0  0  0  0  0  0  0  0
   -5.9380   23.6500  -31.1650 C   0  0  0  0  0  0  0  0  0  0  0  0
   -5.6050   22.5450  -31.9370 C   0  0  0  0  0  0  0  0  0  0  0  0
   -6.6410   21.6020  -32.0340 C   0  0  0  0  0  0  0  0  0  0  0  0
   -7.7990   21.9770  -31.3420 C   0  0  0  0  0  0  0  0  0  0  0  0
   -7.5100   23.4610  -30.6040 S   0  0  0  0  0  0  0  0  0  0  0  0
   -9.0980   21.2210  -31.2070 C   0  0  0  0  0  0  0  0  0  0  0  0
   -9.4440   20.2640  -32.3670 C   0  0  0  0  0  0  0  0  0  0  0  0
   -8.6590   18.9410  -32.3300 C   0  0  0  0  0  0  0  0  0  0  0  0
   -7.1480   19.1280  -32.0670 C   0  0  0  0  0  0  0  0  0  0  0  0
   -6.5000   20.3160  -32.7970 C   0  0  0  0  0  0  0  0  0  0  0  0
    0.5386   25.0567  -26.3141 H   0  0  0  0  0  0  0  0  0  0  0  0
    0.1049   24.2054  -27.8353 H   0  0  0  0  0  0  0  0  0  0  0  0
    1.4171   25.4322  -27.8353 H   0  0  0  0  0  0  0  0  0  0  0  0
   -0.0577   27.2107  -27.8631 H   0  0  0  0  0  0  0  0  0  0  0  0
   -1.0394   26.3228  -25.6122 H   0  0  0  0  0  0  0  0  0  0  0  0
   -2.0620   27.3887  -26.6343 H   0  0  0  0  0  0  0  0  0  0  0  0
   -2.3350   25.6133  -26.6343 H   0  0  0  0  0  0  0  0  0  0  0  0
   -3.2222   23.0831  -29.3512 H   0  0  0  0  0  0  0  0  0  0  0  0
   -3.6976   24.6661  -28.6203 H   0  0  0  0  0  0  0  0  0  0  0  0
   -4.6267   22.4206  -32.4243 H   0  0  0  0  0  0  0  0  0  0  0  0
   -9.0475   20.6263  -30.2830 H   0  0  0  0  0  0  0  0  0  0  0  0
   -9.8889   21.9856  -31.2056 H   0  0  0  0  0  0  0  0  0  0  0  0
  -10.5182   20.0323  -32.3179 H   0  0  0  0  0  0  0  0  0  0  0  0
   -9.1684   20.7763  -33.3006 H   0  0  0  0  0  0  0  0  0  0  0  0
   -9.0762   18.3109  -31.5307 H   0  0  0  0  0  0  0  0  0  0  0  0
   -8.7597   18.4772  -33.3223 H   0  0  0  0  0  0  0  0  0  0  0  0
   -7.0060   19.2740  -30.9860 H   0  0  0  0  0  0  0  0  0  0  0  0
   -6.6557   18.2245  -32.4560 H   0  0  0  0  0  0  0  0  0  0  0  0
   -5.4298   20.1036  -32.9369 H   0  0  0  0  0  0  0  0  0  0  0  0
   -7.0155   20.4393  -33.7609 H   0  0  0  0  0  0  0  0  0  0  0  0
  1  2  1  0
  2  3  1  0
  2  4  1  0
  4  5  1  0
  5  6  2  0
  5  7  1  0
  7  8  1  0
  8  9  1  0
  9 10  2  0
  9 11  1  0
 11 12  2  0
 12 13  1  0
 13 14  2  0
 14 15  1  0
 14 16  1  0
 16 17  1  0
 17 18  1  0
 18 19  1  0
 19 20  1  0
 15 11  1  0
 20 13  1  0
  1 21  1  0
  1 22  1  0
  1 23  1  0
  2 24  1  0
  3 25  1  0
  3 26  1  0
  3 27  1  0
  7 28  1  0
  7 29  1  0
 12 30  1  0
 16 31  1  0
 16 32  1  0
 17 33  1  0
 17 34  1  0
 18 35  1  0
 18 36  1  0
 19 37  1  0
 19 38  1  0
 20 39  1  0
 20 40  1  0
M  CHG  1   4  -1
M  END
>  <UniqueID>  (8) 
8

>  <SMILES>  (8) 
CC(C)[N-]C(=O)COC(=O)c1cc2c(s1)CCCCC2

>  <Energy>  (8) 
60.47118390247295

>  <Genealogy>  (8) 
CC(C)[N-]C(=O)COC(=O)c1cc2c(s1)CCCCC2 (protonated)
CC(C)[N-]C(=O)COC(=O)c1cc2c(s1)CCCCC2 (3D coordinates assigned)
CC(C)[N-]C(=O)COC(=O)c1cc2c(s1)CCCCC2 (nonaromatic ring conformer: 60.47118390247295 kcal/mol)

>  <smiles>  (8) 
CC(C)NC(=O)COC(=O)c1cc2c(s1)CCCCC2

>  <score_type>  (8) 
oracle

>  <origin>  (8) 
adg

>  <m_score__min__energy>  (8) 
-8.2899999999999991

>  <m_primary>  (8) 
energy

$$$$
8:0
     RDKit          3D

 47 49  0  0  0  0  0  0  0  0999 V2000
   -5.9110   24.9740  -29.3670 C   0  0  0  0  0  0  0  0  0  0  0  0
   -5.1240   25.7140  -30.4370 C   0  0  0  0  0  0  0  0  0  0  0  0
   -3.8710   25.0650  -30.6340 O   0  0  0  0  0  0  0  0  0  0  0  0
   -3.1870   24.3290  -29.6530 C   0  0  0  0  0  0  0  0  0  0  0  0
   -2.2140   24.9220  -28.8230 C   0  0  0  0  0  0  0  0  0  0  0  0
   -1.5530   24.1630  -27.8560 C   0  0  0  0  0  0  0  0  0  0  0  0
   -1.8510   22.8100  -27.7020 C   0  0  0  0  0  0  0  0  0  0  0  0
   -2.8130   22.2090  -28.5160 C   0  0  0  0  0  0  0  0  0  0  0  0
   -3.4870   22.9590  -29.4960 C   0  0  0  0  0  0  0  0  0  0  0  0
   -4.5430   22.2960  -30.3540 C   0  0  0  0  0  0  0  0  0  0  0  0
   -4.5730   22.8570  -31.7300 N   0  0  0  0  0  0  0  0  0  0  0  0
   -3.6370   22.1720  -32.6330 C   0  0  0  0  0  0  0  0  0  0  0  0
   -4.0020   20.6990  -32.8600 C   0  0  0  0  0  0  0  0  0  0  0  0
   -5.4520   20.4250  -32.9450 N   0  0  0  0  0  0  0  0  0  0  0  0
   -5.8970   19.0640  -33.2460 C   0  0  0  0  0  0  0  0  0  0  0  0
   -6.8720   18.4140  -32.4470 C   0  0  0  0  0  0  0  0  0  0  0  0
   -7.2950   17.1140  -32.7380 C   0  0  0  0  0  0  0  0  0  0  0  0
   -6.7620   16.4300  -33.8290 C   0  0  0  0  0  0  0  0  0  0  0  0
   -5.8080   17.0470  -34.6350 C   0  0  0  0  0  0  0  0  0  0  0  0
   -5.3790   18.3470  -34.3530 C   0  0  0  0  0  0  0  0  0  0  0  0
   -6.4660   21.4440  -32.5890 C   0  0  0  0  0  0  0  0  0  0  0  0
   -5.9110   22.8550  -32.3430 C   0  0  0  0  0  0  0  0  0  0  0  0
   -5.5691   25.2955  -28.3721 H   0  0  0  0  0  0  0  0  0  0  0  0
   -6.9819   25.1999  -29.4774 H   0  0  0  0  0  0  0  0  0  0  0  0
   -5.7514   23.8913  -29.4774 H   0  0  0  0  0  0  0  0  0  0  0  0
   -5.6918   25.7103  -31.3791 H   0  0  0  0  0  0  0  0  0  0  0  0
   -4.9545   26.7528  -30.1173 H   0  0  0  0  0  0  0  0  0  0  0  0
   -1.9743   25.9894  -28.9381 H   0  0  0  0  0  0  0  0  0  0  0  0
   -0.7945   24.6340  -27.2134 H   0  0  0  0  0  0  0  0  0  0  0  0
   -1.3278   22.2154  -26.9386 H   0  0  0  0  0  0  0  0  0  0  0  0
   -3.0453   21.1412  -28.3898 H   0  0  0  0  0  0  0  0  0  0  0  0
   -4.3276   21.2190  -30.4139 H   0  0  0  0  0  0  0  0  0  0  0  0
   -5.5233   22.4797  -29.8900 H   0  0  0  0  0  0  0  0  0  0  0  0
   -4.2570   23.8560  -31.6800 H   0  0  0  0  0  0  0  0  0  0  0  0
   -3.6426   22.6893  -33.6037 H   0  0  0  0  0  0  0  0  0  0  0  0
   -2.6429   22.1987  -32.1628 H   0  0  0  0  0  0  0  0  0  0  0  0
   -3.5364   20.3724  -33.8016 H   0  0  0  0  0  0  0  0  0  0  0  0
   -3.6345   20.1501  -31.9804 H   0  0  0  0  0  0  0  0  0  0  0  0
   -7.3027   18.9420  -31.5835 H   0  0  0  0  0  0  0  0  0  0  0  0
   -8.0514   16.6290  -32.1035 H   0  0  0  0  0  0  0  0  0  0  0  0
   -7.0938   15.4055  -34.0531 H   0  0  0  0  0  0  0  0  0  0  0  0
   -5.3900   16.5082  -35.4981 H   0  0  0  0  0  0  0  0  0  0  0  0
   -4.6271   18.8212  -35.0009 H   0  0  0  0  0  0  0  0  0  0  0  0
   -7.1941   21.5025  -33.4114 H   0  0  0  0  0  0  0  0  0  0  0  0
   -6.9080   21.1175  -31.6361 H   0  0  0  0  0  0  0  0  0  0  0  0
   -5.8536   23.3804  -33.3077 H   0  0  0  0  0  0  0  0  0  0  0  0
   -6.5923   23.3541  -31.6383 H   0  0  0  0  0  0  0  0  0  0  0  0
  1  2  1  0
  2  3  1  0
  3  4  1  0
  4  5  2  0
  5  6  1  0
  6  7  2  0
  7  8  1  0
  8  9  2  0
  9 10  1  0
 10 11  1  0
 11 12  1  0
 12 13  1  0
 13 14  1  0
 14 15  1  0
 15 16  2  0
 16 17  1  0
 17 18  2  0
 18 19  1  0
 19 20  2  0
 14 21  1  0
 21 22  1  0
  9  4  1  0
 22 11  1  0
 20 15  1  0
  1 23  1  0
  1 24  1  0
  1 25  1  0
  2 26  1  0
  2 27  1  0
  5 28  1  0
  6 29  1  0
  7 30  1  0
  8 31  1  0
 10 32  1  0
 10 33  1  0
 11 34  1  0
 12 35  1  0
 12 36  1  0
 13 37  1  0
 13 38  1  0
 16 39  1  0
 17 40  1  0
 18 41  1  0
 19 42  1  0
 20 43  1  0
 21 44  1  0
 21 45  1  0
 22 46  1  0
 22 47  1  0
M  CHG  1  11   1
M  END
>  <UniqueID>  (9) 
9

>  <SMILES>  (9) 
CCOc1ccccc1C[NH+]1CCN(c2ccccc2)CC1

>  <Energy>  (9) 
56.381691785466344

>  <Genealogy>  (9) 
CCOc1ccccc1C[NH+]1CCN(c2ccccc2)CC1 (protonated)
CCOc1ccccc1C[NH+]1CCN(c2ccccc2)CC1 (3D coordinates assigned)
CCOc1ccccc1C[NH+]1CCN(c2ccccc2)CC1 (nonaromatic ring conformer: 56.381691785466344 kcal/mol)

>  <smiles>  (9) 
CCOc1ccccc1CN1CCN(c2ccccc2)CC1

>  <score_type>  (9) 
oracle

>  <origin>  (9) 
adg

>  <m_score__min__energy>  (9) 
-6.8300000000000001

>  <m_primary>  (9) 
energy

$$$$
9:0
     RDKit          3D

 25 26  0  0  0  0  0  0  0  0999 V2000
   -5.4650   25.0560  -29.9590 C   0  0  0  0  0  0  0  0  0  0  0  0
   -4.8820   24.4680  -31.1190 O   0  0  0  0  0  0  0  0  0  0  0  0
   -5.1970   23.1900  -31.6040 C   0  0  0  0  0  0  0  0  0  0  0  0
   -4.2090   22.2670  -31.9830 C   0  0  0  0  0  0  0  0  0  0  0  0
   -4.5690   21.0080  -32.4650 C   0  0  0  0  0  0  0  0  0  0  0  0
   -3.5920   20.1380  -32.8230 F   0  0  0  0  0  0  0  0  0  0  0  0
   -5.9200   20.6490  -32.5900 C   0  0  0  0  0  0  0  0  0  0  0  0
   -6.9280   21.5670  -32.1840 C   0  0  0  0  0  0  0  0  0  0  0  0
   -6.5450   22.8290  -31.7050 C   0  0  0  0  0  0  0  0  0  0  0  0
   -7.4990   23.7130  -31.3170 F   0  0  0  0  0  0  0  0  0  0  0  0
   -8.3080   21.2880  -32.1760 O   0  0  0  0  0  0  0  0  0  0  0  0
   -8.9920   20.3100  -31.3970 C   0  0  0  0  0  0  0  0  0  0  0  0
   -8.6750   18.8770  -31.8500 C   0  0  0  0  0  0  0  0  0  0  0  0
   -7.1940   18.4910  -31.7320 C   0  0  0  0  0  0  0  0  0  0  0  0
   -6.2740   18.9970  -33.2220 S   0  0  0  0  0  0  0  0  0  0  0  0
   -5.0207   24.6079  -29.0580 H   0  0  0  0  0  0  0  0  0  0  0  0
   -5.2744   26.1394  -29.9618 H   0  0  0  0  0  0  0  0  0  0  0  0
   -6.5499   24.8746  -29.9618 H   0  0  0  0  0  0  0  0  0  0  0  0
   -3.1461   22.5378  -31.8995 H   0  0  0  0  0  0  0  0  0  0  0  0
   -8.6918   20.4228  -30.3448 H   0  0  0  0  0  0  0  0  0  0  0  0
  -10.0722   20.4724  -31.5265 H   0  0  0  0  0  0  0  0  0  0  0  0
   -9.2625   18.1822  -31.2319 H   0  0  0  0  0  0  0  0  0  0  0  0
   -8.9316   18.8199  -32.9181 H   0  0  0  0  0  0  0  0  0  0  0  0
   -6.7599   18.9901  -30.8531 H   0  0  0  0  0  0  0  0  0  0  0  0
   -7.1212   17.3985  -31.6261 H   0  0  0  0  0  0  0  0  0  0  0  0
  1  2  1  0
  2  3  1  0
  3  4  2  0
  4  5  1  0
  5  6  1  0
  5  7  2  0
  7  8  1  0
  8  9  2  0
  9 10  1  0
  8 11  1  0
 11 12  1  0
 12 13  1  0
 13 14  1  0
 14 15  1  0
  9  3  1  0
 15  7  1  0
  1 16  1  0
  1 17  1  0
  1 18  1  0
  4 19  1  0
 12 20  1  0
 12 21  1  0
 13 22  1  0
 13 23  1  0
 14 24  1  0
 14 25  1  0
M  END
>  <UniqueID>  (10) 
10

>  <SMILES>  (10) 
COc1cc(F)c2c(c1F)OCCCS2

>  <Energy>  (10) 
32.19307978519002

>  <Genealogy>  (10) 
COc1cc(F)c2c(c1F)OCCCS2 (3D coordinates assigned)
COc1cc(F)c2c(c1F)OCCCS2 (nonaromatic ring conformer: 32.19307978519002 kcal/mol)

>  <smiles>  (10) 
COc1cc(F)c2c(c1F)OCCCS2

>  <score_type>  (10) 
oracle

>  <origin>  (10) 
adg

>  <m_score__min__energy>  (10) 
-4.2999999999999998

>  <m_primary>  (10) 
energy

$$$$
10:0
     RDKit          3D

 66 68  0  0  0  0  0  0  0  0999 V2000
   -0.4880   26.8300  -23.2390 C   0  0  0  0  0  0  0  0  0  0  0  0
   -1.2390   26.6330  -24.5640 C   0  0  0  0  0  0  0  0  0  0  0  0
   -0.8360   25.4260  -25.3190 N   0  0  0  0  0  0  0  0  0  0  0  0
   -0.4600   24.2420  -24.5190 C   0  0  0  0  0  0  0  0  0  0  0  0
   -0.4730   22.9790  -25.3760 C   0  0  0  0  0  0  0  0  0  0  0  0
   -1.5020   25.1860  -26.6200 C   0  0  0  0  0  0  0  0  0  0  0  0
   -0.9620   26.0140  -27.7960 C   0  0  0  0  0  0  0  0  0  0  0  0
   -1.6100   25.6530  -28.9980 O   0  0  0  0  0  0  0  0  0  0  0  0
   -1.9170   24.2700  -29.0110 C   0  0  0  0  0  0  0  0  0  0  0  0
   -3.2550   24.0160  -29.7000 C   0  0  0  0  0  0  0  0  0  0  0  0
   -3.7620   25.2250  -30.2110 O   0  0  0  0  0  0  0  0  0  0  0  0
   -4.6070   24.8870  -31.2230 N   0  0  0  0  0  0  0  0  0  0  0  0
   -5.9660   24.8180  -30.6820 C   0  0  0  0  0  0  0  0  0  0  0  0
   -6.7140   23.5910  -31.2420 C   0  0  0  0  0  0  0  0  0  0  0  0
   -6.2150   23.1520  -32.5620 N   0  0  0  0  0  0  0  0  0  0  0  0
   -5.9630   21.7130  -32.6170 C   0  0  0  0  0  0  0  0  0  0  0  0
   -7.0500   20.7960  -32.5440 C   0  0  0  0  0  0  0  0  0  0  0  0
   -8.3630   21.2190  -32.2090 C   0  0  0  0  0  0  0  0  0  0  0  0
   -9.4130   20.3090  -32.1190 C   0  0  0  0  0  0  0  0  0  0  0  0
   -9.1860   18.9600  -32.3420 C   0  0  0  0  0  0  0  0  0  0  0  0
   -7.9130   18.5140  -32.6780 C   0  0  0  0  0  0  0  0  0  0  0  0
   -6.8280   19.4180  -32.8180 C   0  0  0  0  0  0  0  0  0  0  0  0
   -5.5800   18.9780  -33.2030 N   0  0  0  0  0  0  0  0  0  0  0  0
   -5.4210   17.6360  -33.8100 C   0  0  0  0  0  0  0  0  0  0  0  0
   -4.4800   19.7940  -33.0430 C   0  0  0  0  0  0  0  0  0  0  0  0
   -3.1660   19.2680  -33.1350 C   0  0  0  0  0  0  0  0  0  0  0  0
   -2.0490   20.0910  -33.0580 C   0  0  0  0  0  0  0  0  0  0  0  0
   -0.4370   19.4100  -33.1960 Cl  0  0  0  0  0  0  0  0  0  0  0  0
   -2.2090   21.4550  -32.8760 C   0  0  0  0  0  0  0  0  0  0  0  0
   -3.4820   22.0010  -32.7370 C   0  0  0  0  0  0  0  0  0  0  0  0
   -4.6470   21.1880  -32.7920 C   0  0  0  0  0  0  0  0  0  0  0  0
   -1.1742   26.6500  -22.3983 H   0  0  0  0  0  0  0  0  0  0  0  0
    0.3520   26.1218  -23.1848 H   0  0  0  0  0  0  0  0  0  0  0  0
   -0.1038   27.8593  -23.1848 H   0  0  0  0  0  0  0  0  0  0  0  0
   -2.3139   26.5580  -24.3428 H   0  0  0  0  0  0  0  0  0  0  0  0
   -0.9921   27.4977  -25.1975 H   0  0  0  0  0  0  0  0  0  0  0  0
    0.5506   24.3896  -24.1104 H   0  0  0  0  0  0  0  0  0  0  0  0
   -1.1899   24.1218  -23.7048 H   0  0  0  0  0  0  0  0  0  0  0  0
   -0.4821   22.0933  -24.7237 H   0  0  0  0  0  0  0  0  0  0  0  0
   -1.3712   22.9760  -26.0110 H   0  0  0  0  0  0  0  0  0  0  0  0
    0.4250   22.9575  -26.0110 H   0  0  0  0  0  0  0  0  0  0  0  0
   -1.3839   24.1216  -26.8711 H   0  0  0  0  0  0  0  0  0  0  0  0
   -2.5497   25.4935  -26.4869 H   0  0  0  0  0  0  0  0  0  0  0  0
   -1.1378   27.0815  -27.5972 H   0  0  0  0  0  0  0  0  0  0  0  0
    0.1153   25.8186  -27.9017 H   0  0  0  0  0  0  0  0  0  0  0  0
   -1.1254   23.7303  -29.5514 H   0  0  0  0  0  0  0  0  0  0  0  0
   -1.9835   23.9148  -27.9721 H   0  0  0  0  0  0  0  0  0  0  0  0
   -3.1121   23.3019  -30.5244 H   0  0  0  0  0  0  0  0  0  0  0  0
   -3.9671   23.6012  -28.9714 H   0  0  0  0  0  0  0  0  0  0  0  0
   -4.5700   25.6690  -31.9180 H   0  0  0  0  0  0  0  0  0  0  0  0
   -5.9148   24.7404  -29.5859 H   0  0  0  0  0  0  0  0  0  0  0  0
   -6.5100   25.7280  -30.9752 H   0  0  0  0  0  0  0  0  0  0  0  0
   -6.5999   22.7589  -30.5317 H   0  0  0  0  0  0  0  0  0  0  0  0
   -7.7661   23.8840  -31.3734 H   0  0  0  0  0  0  0  0  0  0  0  0
   -6.8710   23.5000  -33.2860 H   0  0  0  0  0  0  0  0  0  0  0  0
   -5.3410   23.6720  -32.7920 H   0  0  0  0  0  0  0  0  0  0  0  0
   -8.5544   22.2851  -32.0170 H   0  0  0  0  0  0  0  0  0  0  0  0
  -10.4249   20.6615  -31.8704 H   0  0  0  0  0  0  0  0  0  0  0  0
  -10.0141   18.2415  -32.2530 H   0  0  0  0  0  0  0  0  0  0  0  0
   -7.7433   17.4391  -32.8386 H   0  0  0  0  0  0  0  0  0  0  0  0
   -5.3317   16.8819  -33.0142 H   0  0  0  0  0  0  0  0  0  0  0  0
   -6.2986   17.4092  -34.4333 H   0  0  0  0  0  0  0  0  0  0  0  0
   -4.5147   17.6205  -34.4333 H   0  0  0  0  0  0  0  0  0  0  0  0
   -3.0282   18.1851  -33.2702 H   0  0  0  0  0  0  0  0  0  0  0  0
   -1.3258   22.1098  -32.8412 H   0  0  0  0  0  0  0  0  0  0  0  0
   -3.5888   23.0847  -32.5813 H   0  0  0  0  0  0  0  0  0  0  0  0
  1  2  1  0
  2  3  1  0
  3  4  1  0
  4  5  1  0
  3  6  1  0
  6  7  1  0
  7  8  1  0
  8  9  1  0
  9 10  1  0
 10 11  1  0
 11 12  1  0
 12 13  1  0
 13 14  1  0
 14 15  1  0
 15 16  1  0
 16 17  2  0
 17 18  1  0
 18 19  2  0
 19 20  1  0
 20 21  2  0
 21 22  1  0
 22 23  2  0
 23 24  1  0
 23 25  1  0
 25 26  2  0
 26 27  1  0
 27 28  1  0
 27 29  2  0
 29 30  1  0
 30 31  2  0
 31 16  1  0
 22 17  1  0
 31 25  1  0
  1 32  1  0
  1 33  1  0
  1 34  1  0
  2 35  1  0
  2 36  1  0
  4 37  1  0
  4 38  1  0
  5 39  1  0
  5 40  1  0
  5 41  1  0
  6 42  1  0
  6 43  1  0
  7 44  1  0
  7 45  1  0
  9 46  1  0
  9 47  1  0
 10 48  1  0
 10 49  1  0
 12 50  1  0
 13 51  1  0
 13 52  1  0
 14 53  1  0
 14 54  1  0
 15 55  1  0
 15 56  1  0
 18 57  1  0
 19 58  1  0
 20 59  1  0
 21 60  1  0
 24 61  1  0
 24 62  1  0
 24 63  1  0
 26 64  1  0
 29 65  1  0
 30 66  1  0
M  CHG  2  15   1  23   1
M  END
>  <UniqueID>  (11) 
11

>  <SMILES>  (11) 
CCN(CC)CCOCCONCC[NH2+]c1c2ccccc2[n+](C)c2cc(Cl)ccc12

>  <Energy>  (11) 
95.78937882313292

>  <Genealogy>  (11) 
CCN(CC)CCOCCONCC[NH2+]c1c2ccccc2[n+](C)c2cc(Cl)ccc12 (protonated)
CCN(CC)CCOCCONCC[NH2+]c1c2ccccc2[n+](C)c2cc(Cl)ccc12 (3D coordinates assigned)
CCN(CC)CCOCCONCC[NH2+]c1c2ccccc2[n+](C)c2cc(Cl)ccc12 (optimized conformer: 95.78937882313292 kcal/mol)

>  <smiles>  (11) 
CCN(CC)CCOCCONCCNc1c2ccccc2[n+](C)c2cc(Cl)ccc12

>  <score_type>  (11) 
oracle

>  <origin>  (11) 
adg

>  <m_score__min__energy>  (11) 
-10.08

>  <m_primary>  (11) 
energy

$$$$
12:0
     RDKit          3D

 43 46  0  0  0  0  0  0  0  0999 V2000
    0.5013   26.4137  -26.4490 H   0  0  0  0  0  0  0  0  0  0  0  0
   -0.4580   25.9590  -26.7370 C   0  0  0  0  0  0  0  0  0  0  0  0
   -1.3880   25.5830  -25.7310 C   0  0  0  0  0  0  0  0  0  0  0  0
   -1.1410   25.7690  -24.3620 O   0  0  0  0  0  0  0  0  0  0  0  0
   -0.8670   27.0200  -23.7300 C   0  0  0  0  0  0  0  0  0  0  0  0
   -1.4345   27.0808  -22.7897 H   0  0  0  0  0  0  0  0  0  0  0  0
   -1.1650   27.8313  -24.4104 H   0  0  0  0  0  0  0  0  0  0  0  0
    0.6200   27.1590  -23.4260 C   0  0  0  0  0  0  0  0  0  0  0  0
    0.7718   27.1732  -22.3366 H   0  0  0  0  0  0  0  0  0  0  0  0
    1.1643   26.3078  -23.8610 H   0  0  0  0  0  0  0  0  0  0  0  0
    0.9971   28.0963  -23.8610 H   0  0  0  0  0  0  0  0  0  0  0  0
   -2.6150   25.0050  -26.1060 C   0  0  0  0  0  0  0  0  0  0  0  0
   -3.3537   24.7132  -25.3449 H   0  0  0  0  0  0  0  0  0  0  0  0
   -2.8750   24.8100  -27.4590 C   0  0  0  0  0  0  0  0  0  0  0  0
   -4.2370   24.1400  -28.1780 S   0  0  0  0  0  0  0  0  0  0  0  0
   -3.5980   24.3530  -29.7280 C   0  0  0  0  0  0  0  0  0  0  0  0
   -4.2270   24.0000  -30.8100 N   0  0  0  0  0  0  0  0  0  0  0  0
   -5.6340   24.1510  -31.0580 C   0  0  0  0  0  0  0  0  0  0  0  0
   -6.3990   24.6590  -30.1940 O   0  0  0  0  0  0  0  0  0  0  0  0
   -6.1930   23.7120  -32.3750 C   0  0  0  0  0  0  0  0  0  0  0  0
   -6.6988   24.5624  -32.8557 H   0  0  0  0  0  0  0  0  0  0  0  0
   -5.3698   23.3536  -33.0104 H   0  0  0  0  0  0  0  0  0  0  0  0
   -7.1860   22.5880  -32.1780 C   0  0  0  0  0  0  0  0  0  0  0  0
   -8.4360   22.9030  -31.6140 C   0  0  0  0  0  0  0  0  0  0  0  0
   -8.6646   23.9468  -31.3529 H   0  0  0  0  0  0  0  0  0  0  0  0
   -9.3890   21.9130  -31.3810 C   0  0  0  0  0  0  0  0  0  0  0  0
  -10.3625   22.1817  -30.9449 H   0  0  0  0  0  0  0  0  0  0  0  0
   -9.1140   20.5850  -31.6980 C   0  0  0  0  0  0  0  0  0  0  0  0
   -9.8731   19.8099  -31.5160 H   0  0  0  0  0  0  0  0  0  0  0  0
   -7.8740   20.2320  -32.2480 C   0  0  0  0  0  0  0  0  0  0  0  0
   -7.6030   18.8880  -32.5520 C   0  0  0  0  0  0  0  0  0  0  0  0
   -8.3667   18.1191  -32.3636 H   0  0  0  0  0  0  0  0  0  0  0  0
   -6.3690   18.5240  -33.0920 C   0  0  0  0  0  0  0  0  0  0  0  0
   -6.1634   17.4700  -33.3302 H   0  0  0  0  0  0  0  0  0  0  0  0
   -5.3970   19.4930  -33.3300 C   0  0  0  0  0  0  0  0  0  0  0  0
   -4.4255   19.1997  -33.7545 H   0  0  0  0  0  0  0  0  0  0  0  0
   -5.6480   20.8350  -33.0330 C   0  0  0  0  0  0  0  0  0  0  0  0
   -4.8713   21.5901  -33.2246 H   0  0  0  0  0  0  0  0  0  0  0  0
   -6.8900   21.2310  -32.4890 C   0  0  0  0  0  0  0  0  0  0  0  0
   -2.3660   24.9240  -29.7160 N   0  0  0  0  0  0  0  0  0  0  0  0
   -1.9710   25.1750  -28.4430 C   0  0  0  0  0  0  0  0  0  0  0  0
   -0.7510   25.7560  -28.0960 C   0  0  0  0  0  0  0  0  0  0  0  0
   -0.0305   26.0502  -28.8734 H   0  0  0  0  0  0  0  0  0  0  0  0
  1  2  1  0
  2  3  2  0
  3  4  1  0
  4  5  1  0
  5  6  1  0
  5  7  1  0
  5  8  1  0
  8  9  1  0
  8 10  1  0
  8 11  1  0
  3 12  1  0
 12 13  1  0
 12 14  2  0
 14 15  1  0
 15 16  1  0
 16 17  2  0
 17 18  1  0
 18 19  2  0
 18 20  1  0
 20 21  1  0
 20 22  1  0
 20 23  1  0
 23 24  2  0
 24 25  1  0
 24 26  1  0
 26 27  1  0
 26 28  2  0
 28 29  1  0
 28 30  1  0
 30 31  2  0
 31 32  1  0
 31 33  1  0
 33 34  1  0
 33 35  2  0
 35 36  1  0
 35 37  1  0
 37 38  1  0
 37 39  2  0
 16 40  1  0
 40 41  1  0
 41 42  2  0
 42 43  1  0
 42  2  1  0
 41 14  1  0
 39 23  1  0
 39 30  1  0
M  CHG  1  40  -1
M  END
>  <UniqueID>  (12) 
12

>  <SMILES>  (12) 
CCOc1ccc2[n-]/c(=N\C(=O)Cc3cccc4ccccc34)sc2c1

>  <Energy>  (12) 
85.98577580836411

>  <Genealogy>  (12) 
CCOc1ccc2[n-]c(=NC(=O)Cc3cccc4ccccc34)sc2c1 (protonated)
CCOc1ccc2[n-]/c(=N\C(=O)Cc3cccc4ccccc34)sc2c1 (cis-trans isomerization)
CCOc1ccc2[n-]/c(=N\C(=O)Cc3cccc4ccccc34)sc2c1 (3D coordinates assigned)
CCOc1ccc2[n-]/c(=N\C(=O)Cc3cccc4ccccc34)sc2c1 (optimized conformer: 85.98577580836411 kcal/mol)

>  <smiles>  (12) 
CCOc1ccc2[nH]c(=NC(=O)Cc3cccc4ccccc34)sc2c1

>  <score_type>  (12) 
oracle

>  <origin>  (12) 
adg

>  <m_score__min__energy>  (12) 
-10.77

>  <m_primary>  (12) 
energy

$$$$
13:0
     RDKit          3D

 50 51  0  0  0  0  0  0  0  0999 V2000
   -2.1400   22.4740  -30.9060 C   0  0  0  0  0  0  0  0  0  0  0  0
   -3.4890   23.1140  -30.9310 C   0  0  0  0  0  0  0  0  0  0  0  0
   -3.7300   24.3470  -30.4420 N   0  0  0  0  0  0  0  0  0  0  0  0
   -5.0520   24.5380  -30.6450 C   0  0  0  0  0  0  0  0  0  0  0  0
   -5.7450   25.8090  -30.2640 C   0  0  0  0  0  0  0  0  0  0  0  0
   -5.6530   23.4890  -31.2570 N   0  0  0  0  0  0  0  0  0  0  0  0
   -7.0720   23.3820  -31.6170 C   0  0  0  0  0  0  0  0  0  0  0  0
   -7.7270   22.2200  -30.8630 C   0  0  0  0  0  0  0  0  0  0  0  0
   -9.0220   21.7730  -31.5590 C   0  0  0  0  0  0  0  0  0  0  0  0
   -9.0070   20.2840  -31.9410 C   0  0  0  0  0  0  0  0  0  0  0  0
   -8.0200   19.9820  -33.0970 C   0  0  0  0  0  0  0  0  0  0  0  0
   -6.8500   19.1480  -32.7190 N   0  0  0  0  0  0  0  0  0  0  0  0
   -7.1860   18.1420  -31.6790 C   0  0  0  0  0  0  0  0  0  0  0  0
   -6.1120   17.0500  -31.6070 C   0  0  0  0  0  0  0  0  0  0  0  0
   -6.0400   16.2830  -32.8720 N   0  0  0  0  0  0  0  0  0  0  0  0
   -4.7230   15.6400  -33.0090 C   0  0  0  0  0  0  0  0  0  0  0  0
   -6.3830   17.0780  -34.0780 C   0  0  0  0  0  0  0  0  0  0  0  0
   -6.1170   18.5830  -33.8880 C   0  0  0  0  0  0  0  0  0  0  0  0
   -4.6660   22.5790  -31.4280 C   0  0  0  0  0  0  0  0  0  0  0  0
   -4.8160   21.2810  -32.0350 N   0  0  0  0  0  0  0  0  0  0  0  0
   -4.9110   21.1580  -33.2710 O   0  0  0  0  0  0  0  0  0  0  0  0
   -4.9090   20.1540  -31.2520 O   0  0  0  0  0  0  0  0  0  0  0  0
   -1.8245   22.3243  -29.8629 H   0  0  0  0  0  0  0  0  0  0  0  0
   -2.1859   21.5017  -31.4183 H   0  0  0  0  0  0  0  0  0  0  0  0
   -1.4160   23.1246  -31.4183 H   0  0  0  0  0  0  0  0  0  0  0  0
   -5.7884   25.8886  -29.1677 H   0  0  0  0  0  0  0  0  0  0  0  0
   -5.1894   26.6661  -30.6721 H   0  0  0  0  0  0  0  0  0  0  0  0
   -6.7665   25.8063  -30.6721 H   0  0  0  0  0  0  0  0  0  0  0  0
   -7.5844   24.3193  -31.3546 H   0  0  0  0  0  0  0  0  0  0  0  0
   -7.1534   23.1974  -32.6983 H   0  0  0  0  0  0  0  0  0  0  0  0
   -7.0262   21.3729  -30.8285 H   0  0  0  0  0  0  0  0  0  0  0  0
   -7.9741   22.5571  -29.8455 H   0  0  0  0  0  0  0  0  0  0  0  0
   -9.8674   21.9532  -30.8787 H   0  0  0  0  0  0  0  0  0  0  0  0
   -9.1169   22.3534  -32.4886 H   0  0  0  0  0  0  0  0  0  0  0  0
   -8.7101   19.6960  -31.0600 H   0  0  0  0  0  0  0  0  0  0  0  0
  -10.0173   20.0146  -32.2828 H   0  0  0  0  0  0  0  0  0  0  0  0
   -8.5726   19.4562  -33.8895 H   0  0  0  0  0  0  0  0  0  0  0  0
   -7.6155   20.9530  -33.4188 H   0  0  0  0  0  0  0  0  0  0  0  0
   -6.1820   19.8130  -32.2590 H   0  0  0  0  0  0  0  0  0  0  0  0
   -7.2560   18.6432  -30.7023 H   0  0  0  0  0  0  0  0  0  0  0  0
   -8.1465   17.6737  -31.9402 H   0  0  0  0  0  0  0  0  0  0  0  0
   -5.1356   17.5195  -31.4163 H   0  0  0  0  0  0  0  0  0  0  0  0
   -6.3752   16.3566  -30.7946 H   0  0  0  0  0  0  0  0  0  0  0  0
   -4.3082   15.4375  -32.0105 H   0  0  0  0  0  0  0  0  0  0  0  0
   -4.8323   14.6939  -33.5594 H   0  0  0  0  0  0  0  0  0  0  0  0
   -4.0443   16.3081  -33.5594 H   0  0  0  0  0  0  0  0  0  0  0  0
   -5.7778   16.7167  -34.9225 H   0  0  0  0  0  0  0  0  0  0  0  0
   -7.4590   16.9502  -34.2675 H   0  0  0  0  0  0  0  0  0  0  0  0
   -5.0383   18.7342  -33.7349 H   0  0  0  0  0  0  0  0  0  0  0  0
   -6.4736   19.1024  -34.7897 H   0  0  0  0  0  0  0  0  0  0  0  0
  1  2  1  0
  2  3  1  0
  3  4  2  0
  4  5  1  0
  4  6  1  0
  6  7  1  0
  7  8  1  0
  8  9  1  0
  9 10  1  0
 10 11  1  0
 11 12  1  0
 12 13  1  0
 13 14  1  0
 14 15  1  0
 15 16  1  0
 15 17  1  0
 17 18  1  0
  6 19  1  0
 19 20  1  0
 20 21  2  0
 20 22  1  0
 19  2  2  0
 18 12  1  0
  1 23  1  0
  1 24  1  0
  1 25  1  0
  5 26  1  0
  5 27  1  0
  5 28  1  0
  7 29  1  0
  7 30  1  0
  8 31  1  0
  8 32  1  0
  9 33  1  0
  9 34  1  0
 10 35  1  0
 10 36  1  0
 11 37  1  0
 11 38  1  0
 12 39  1  0
 13 40  1  0
 13 41  1  0
 14 42  1  0
 14 43  1  0
 16 44  1  0
 16 45  1  0
 16 46  1  0
 17 47  1  0
 17 48  1  0
 18 49  1  0
 18 50  1  0
M  CHG  3  12   1  20   1  22  -1
M  END
>  <UniqueID>  (13) 
13

>  <SMILES>  (13) 
Cc1nc(C)n(CCCCC[NH+]2CCN(C)CC2)c1[N+](=O)[O-]

>  <Energy>  (13) 
88.13601540687723

>  <Genealogy>  (13) 
Cc1nc(C)n(CCCCC[NH+]2CCN(C)CC2)c1[N+](=O)[O-] (protonated)
Cc1nc(C)n(CCCCC[NH+]2CCN(C)CC2)c1[N+](=O)[O-] (3D coordinates assigned)
Cc1nc(C)n(CCCCC[NH+]2CCN(C)CC2)c1[N+](=O)[O-] (nonaromatic ring conformer: 88.13601540687723 kcal/mol)

>  <smiles>  (13) 
Cc1nc(C)n(CCCCCN2CCN(C)CC2)c1[N+](=O)[O-]

>  <score_type>  (13) 
oracle

>  <origin>  (13) 
adg

>  <m_score__min__energy>  (13) 
-8.3599999999999994

>  <m_primary>  (13) 
energy

$$$$
14:0
     RDKit          3D

 72 74  0  0  0  0  0  0  0  0999 V2000
   -3.8520   24.0450  -27.3890 C   0  0  0  0  0  0  0  0  0  0  0  0
   -4.2440   22.6430  -27.8520 C   0  0  0  0  0  0  0  0  0  0  0  0
   -3.6020   22.3090  -29.1430 N   0  0  0  0  0  0  0  0  0  0  0  0
   -2.7870   21.0750  -29.0980 C   0  0  0  0  0  0  0  0  0  0  0  0
   -2.7500   20.4040  -27.7210 C   0  0  0  0  0  0  0  0  0  0  0  0
   -2.9650   23.4390  -29.8610 C   0  0  0  0  0  0  0  0  0  0  0  0
   -3.8520   24.0170  -30.8850 N   0  0  0  0  0  0  0  0  0  0  0  0
   -4.4470   25.2980  -30.4680 C   0  0  0  0  0  0  0  0  0  0  0  0
   -5.9810   25.3560  -30.6190 C   0  0  0  0  0  0  0  0  0  0  0  0
   -6.7120   24.3590  -29.7090 C   0  0  0  0  0  0  0  0  0  0  0  0
   -6.5160   23.0390  -30.1790 O   0  0  0  0  0  0  0  0  0  0  0  0
   -7.6710   22.5740  -30.8490 C   0  0  0  0  0  0  0  0  0  0  0  0
   -7.3820   22.4370  -32.3440 C   0  0  0  0  0  0  0  0  0  0  0  0
   -5.8770   22.2850  -32.6200 C   0  0  0  0  0  0  0  0  0  0  0  0
   -5.2040   21.4080  -31.6380 N   0  0  0  0  0  0  0  0  0  0  0  0
   -4.6310   20.2200  -32.2550 C   0  0  0  0  0  0  0  0  0  0  0  0
   -3.2500   20.1560  -32.5980 C   0  0  0  0  0  0  0  0  0  0  0  0
   -2.7170   18.9550  -33.1180 C   0  0  0  0  0  0  0  0  0  0  0  0
   -3.4870   17.8170  -33.1910 N   0  0  0  0  0  0  0  0  0  0  0  0
   -2.8370   16.5070  -33.4210 C   0  0  0  0  0  0  0  0  0  0  0  0
   -4.8540   17.8980  -33.0400 C   0  0  0  0  0  0  0  0  0  0  0  0
   -5.6970   16.8080  -33.3800 C   0  0  0  0  0  0  0  0  0  0  0  0
   -7.0730   16.8700  -33.1800 C   0  0  0  0  0  0  0  0  0  0  0  0
   -7.6470   18.0150  -32.6490 C   0  0  0  0  0  0  0  0  0  0  0  0
   -6.8530   19.1170  -32.3370 C   0  0  0  0  0  0  0  0  0  0  0  0
   -5.4500   19.0920  -32.5430 C   0  0  0  0  0  0  0  0  0  0  0  0
   -1.2600   18.9660  -33.5550 C   0  0  0  0  0  0  0  0  0  0  0  0
   -0.9380   20.2650  -34.2940 C   0  0  0  0  0  0  0  0  0  0  0  0
   -1.2780   21.5210  -33.4710 C   0  0  0  0  0  0  0  0  0  0  0  0
   -2.2540   21.2730  -32.3070 C   0  0  0  0  0  0  0  0  0  0  0  0
   -3.8426   24.0788  -26.2896 H   0  0  0  0  0  0  0  0  0  0  0  0
   -2.8506   24.2910  -27.7720 H   0  0  0  0  0  0  0  0  0  0  0  0
   -4.5806   24.7747  -27.7720 H   0  0  0  0  0  0  0  0  0  0  0  0
   -3.9267   21.9124  -27.0934 H   0  0  0  0  0  0  0  0  0  0  0  0
   -5.3353   22.6119  -27.9863 H   0  0  0  0  0  0  0  0  0  0  0  0
   -3.2037   20.3584  -29.8211 H   0  0  0  0  0  0  0  0  0  0  0  0
   -1.7539   21.3663  -29.3386 H   0  0  0  0  0  0  0  0  0  0  0  0
   -2.7925   21.1740  -26.9366 H   0  0  0  0  0  0  0  0  0  0  0  0
   -3.6123   19.7287  -27.6189 H   0  0  0  0  0  0  0  0  0  0  0  0
   -1.8187   19.8276  -27.6189 H   0  0  0  0  0  0  0  0  0  0  0  0
   -2.7074   24.2218  -29.1324 H   0  0  0  0  0  0  0  0  0  0  0  0
   -2.0680   23.0545  -30.3686 H   0  0  0  0  0  0  0  0  0  0  0  0
   -4.6040   23.3410  -31.1430 H   0  0  0  0  0  0  0  0  0  0  0  0
   -4.1969   25.4675  -29.4103 H   0  0  0  0  0  0  0  0  0  0  0  0
   -4.0325   26.0721  -31.1306 H   0  0  0  0  0  0  0  0  0  0  0  0
   -6.3196   26.3722  -30.3687 H   0  0  0  0  0  0  0  0  0  0  0  0
   -6.2194   25.0879  -31.6588 H   0  0  0  0  0  0  0  0  0  0  0  0
   -6.3175   24.4433  -28.6857 H   0  0  0  0  0  0  0  0  0  0  0  0
   -7.7880   24.5876  -29.7149 H   0  0  0  0  0  0  0  0  0  0  0  0
   -7.9600   21.5940  -30.4415 H   0  0  0  0  0  0  0  0  0  0  0  0
   -8.4906   23.2927  -30.7017 H   0  0  0  0  0  0  0  0  0  0  0  0
   -7.9065   21.5500  -32.7288 H   0  0  0  0  0  0  0  0  0  0  0  0
   -7.7325   23.3506  -32.8465 H   0  0  0  0  0  0  0  0  0  0  0  0
   -5.7447   21.8560  -33.6242 H   0  0  0  0  0  0  0  0  0  0  0  0
   -5.4217   23.2833  -32.5418 H   0  0  0  0  0  0  0  0  0  0  0  0
   -4.5120   21.9480  -31.0750 H   0  0  0  0  0  0  0  0  0  0  0  0
   -5.8970   21.1160  -30.9130 H   0  0  0  0  0  0  0  0  0  0  0  0
   -2.6044   16.0382  -32.4535 H   0  0  0  0  0  0  0  0  0  0  0  0
   -3.5164   15.8555  -33.9902 H   0  0  0  0  0  0  0  0  0  0  0  0
   -1.9073   16.6539  -33.9902 H   0  0  0  0  0  0  0  0  0  0  0  0
   -5.2546   15.8971  -33.8096 H   0  0  0  0  0  0  0  0  0  0  0  0
   -7.7058   16.0097  -33.4435 H   0  0  0  0  0  0  0  0  0  0  0  0
   -8.7322   18.0537  -32.4735 H   0  0  0  0  0  0  0  0  0  0  0  0
   -7.3226   20.0219  -31.9238 H   0  0  0  0  0  0  0  0  0  0  0  0
   -0.6145   18.8833  -32.6682 H   0  0  0  0  0  0  0  0  0  0  0  0
   -1.0824   18.1163  -34.2306 H   0  0  0  0  0  0  0  0  0  0  0  0
    0.1367   20.2788  -34.5281 H   0  0  0  0  0  0  0  0  0  0  0  0
   -1.5549   20.2892  -35.2044 H   0  0  0  0  0  0  0  0  0  0  0  0
   -0.3425   21.9240  -33.0557 H   0  0  0  0  0  0  0  0  0  0  0  0
   -1.7786   22.2201  -34.1571 H   0  0  0  0  0  0  0  0  0  0  0  0
   -1.6731   21.0017  -31.4132 H   0  0  0  0  0  0  0  0  0  0  0  0
   -2.8294   22.1981  -32.1549 H   0  0  0  0  0  0  0  0  0  0  0  0
  1  2  1  0
  2  3  1  0
  3  4  1  0
  4  5  1  0
  3  6  1  0
  6  7  1  0
  7  8  1  0
  8  9  1  0
  9 10  1  0
 10 11  1  0
 11 12  1  0
 12 13  1  0
 13 14  1  0
 14 15  1  0
 15 16  1  0
 16 17  2  0
 17 18  1  0
 18 19  2  0
 19 20  1  0
 19 21  1  0
 21 22  2  0
 22 23  1  0
 23 24  2  0
 24 25  1  0
 25 26  2  0
 18 27  1  0
 27 28  1  0
 28 29  1  0
 29 30  1  0
 26 16  1  0
 30 17  1  0
 26 21  1  0
  1 31  1  0
  1 32  1  0
  1 33  1  0
  2 34  1  0
  2 35  1  0
  4 36  1  0
  4 37  1  0
  5 38  1  0
  5 39  1  0
  5 40  1  0
  6 41  1  0
  6 42  1  0
  7 43  1  0
  8 44  1  0
  8 45  1  0
  9 46  1  0
  9 47  1  0
 10 48  1  0
 10 49  1  0
 12 50  1  0
 12 51  1  0
 13 52  1  0
 13 53  1  0
 14 54  1  0
 14 55  1  0
 15 56  1  0
 15 57  1  0
 20 58  1  0
 20 59  1  0
 20 60  1  0
 22 61  1  0
 23 62  1  0
 24 63  1  0
 25 64  1  0
 27 65  1  0
 27 66  1  0
 28 67  1  0
 28 68  1  0
 29 69  1  0
 29 70  1  0
 30 71  1  0
 30 72  1  0
M  CHG  2  15   1  19   1
M  END
>  <UniqueID>  (14) 
14

>  <SMILES>  (14) 
CCN(CC)CNCCCOCCC[NH2+]c1c2c([n+](C)c3ccccc13)CCCC2

>  <Energy>  (14) 
100.55772422052083

>  <Genealogy>  (14) 
CCN(CC)CNCCCOCCC[NH2+]c1c2c([n+](C)c3ccccc13)CCCC2 (protonated)
CCN(CC)CNCCCOCCC[NH2+]c1c2c([n+](C)c3ccccc13)CCCC2 (3D coordinates assigned)
CCN(CC)CNCCCOCCC[NH2+]c1c2c([n+](C)c3ccccc13)CCCC2 (nonaromatic ring conformer: 100.55772422052083 kcal/mol)

>  <smiles>  (14) 
CCN(CC)CNCCCOCCCNc1c2c([n+](C)c3ccccc13)CCCC2

>  <score_type>  (14) 
oracle

>  <origin>  (14) 
adg

>  <m_score__min__energy>  (14) 
-8.9900000000000002

>  <m_primary>  (14) 
energy

$$$$
15:0
     RDKit          3D

 66 69  0  0  0  0  0  0  0  0999 V2000
    0.4890   26.3720  -35.7410 C   0  0  0  0  0  0  0  0  0  0  0  0
    0.4870   25.6220  -37.0730 C   0  0  0  0  0  0  0  0  0  0  0  0
    1.3930   24.5360  -37.0660 O   0  0  0  0  0  0  0  0  0  0  0  0
    1.3600   23.8440  -35.8290 C   0  0  0  0  0  0  0  0  0  0  0  0
    1.0510   22.3610  -36.0750 C   0  0  0  0  0  0  0  0  0  0  0  0
    0.3710   21.7410  -34.9170 N   0  0  0  0  0  0  0  0  0  0  0  0
   -0.4980   20.6410  -35.3690 C   0  0  0  0  0  0  0  0  0  0  0  0
   -1.3670   20.1210  -34.2030 C   0  0  0  0  0  0  0  0  0  0  0  0
   -0.7450   20.3180  -32.8710 N   0  0  0  0  0  0  0  0  0  0  0  0
   -1.2330   21.5510  -32.2070 C   0  0  0  0  0  0  0  0  0  0  0  0
   -2.5040   21.2960  -31.3730 C   0  0  0  0  0  0  0  0  0  0  0  0
   -3.7520   22.0260  -31.9070 C   0  0  0  0  0  0  0  0  0  0  0  0
   -4.2630   21.4910  -33.1880 N   0  0  0  0  0  0  0  0  0  0  0  0
   -5.5210   20.7610  -33.0460 C   0  0  0  0  0  0  0  0  0  0  0  0
   -5.6110   19.4000  -33.4460 C   0  0  0  0  0  0  0  0  0  0  0  0
   -4.6310   18.8030  -34.2760 C   0  0  0  0  0  0  0  0  0  0  0  0
   -4.7240   17.4670  -34.6530 C   0  0  0  0  0  0  0  0  0  0  0  0
   -5.8020   16.6990  -34.2360 C   0  0  0  0  0  0  0  0  0  0  0  0
   -6.7960   17.2650  -33.4420 C   0  0  0  0  0  0  0  0  0  0  0  0
   -6.7200   18.6180  -33.0240 C   0  0  0  0  0  0  0  0  0  0  0  0
   -7.7060   19.1840  -32.2470 N   0  0  0  0  0  0  0  0  0  0  0  0
   -8.6790   18.3230  -31.5380 C   0  0  0  0  0  0  0  0  0  0  0  0
   -7.8000   20.5560  -32.1550 C   0  0  0  0  0  0  0  0  0  0  0  0
   -9.0010   21.1760  -31.7260 C   0  0  0  0  0  0  0  0  0  0  0  0
   -9.1040   22.5600  -31.6290 C   0  0  0  0  0  0  0  0  0  0  0  0
   -8.0240   23.3600  -31.9650 C   0  0  0  0  0  0  0  0  0  0  0  0
   -6.8400   22.7870  -32.4200 C   0  0  0  0  0  0  0  0  0  0  0  0
   -6.6970   21.3790  -32.5280 C   0  0  0  0  0  0  0  0  0  0  0  0
    0.7280   20.2150  -32.9500 C   0  0  0  0  0  0  0  0  0  0  0  0
    1.3400   21.2590  -33.9040 C   0  0  0  0  0  0  0  0  0  0  0  0
    0.4871   25.6482  -34.9127 H   0  0  0  0  0  0  0  0  0  0  0  0
    1.3888   27.0013  -35.6759 H   0  0  0  0  0  0  0  0  0  0  0  0
   -0.4075   27.0061  -35.6759 H   0  0  0  0  0  0  0  0  0  0  0  0
   -0.5263   25.2391  -37.2644 H   0  0  0  0  0  0  0  0  0  0  0  0
    0.8001   26.3232  -37.8605 H   0  0  0  0  0  0  0  0  0  0  0  0
    2.3369   23.9365  -35.3319 H   0  0  0  0  0  0  0  0  0  0  0  0
    0.5777   24.2782  -35.1890 H   0  0  0  0  0  0  0  0  0  0  0  0
    0.4004   22.2748  -36.9578 H   0  0  0  0  0  0  0  0  0  0  0  0
    2.0042   21.8352  -36.2328 H   0  0  0  0  0  0  0  0  0  0  0  0
   -1.1534   21.0053  -36.1739 H   0  0  0  0  0  0  0  0  0  0  0  0
    0.1331   19.8180  -35.7356 H   0  0  0  0  0  0  0  0  0  0  0  0
   -2.3292   20.6538  -34.2207 H   0  0  0  0  0  0  0  0  0  0  0  0
   -1.4889   19.0373  -34.3472 H   0  0  0  0  0  0  0  0  0  0  0  0
   -0.4435   21.9324  -31.5428 H   0  0  0  0  0  0  0  0  0  0  0  0
   -1.4828   22.2816  -32.9905 H   0  0  0  0  0  0  0  0  0  0  0  0
   -2.7077   20.2150  -31.3721 H   0  0  0  0  0  0  0  0  0  0  0  0
   -2.3100   21.6873  -30.3634 H   0  0  0  0  0  0  0  0  0  0  0  0
   -4.5499   21.9415  -31.1546 H   0  0  0  0  0  0  0  0  0  0  0  0
   -3.4537   23.0680  -32.0950 H   0  0  0  0  0  0  0  0  0  0  0  0
   -3.5460   20.8610  -33.6120 H   0  0  0  0  0  0  0  0  0  0  0  0
   -4.3150   22.2950  -33.8400 H   0  0  0  0  0  0  0  0  0  0  0  0
   -3.7814   19.4061  -34.6288 H   0  0  0  0  0  0  0  0  0  0  0  0
   -3.9415   17.0186  -35.2828 H   0  0  0  0  0  0  0  0  0  0  0  0
   -5.8713   15.6421  -34.5330 H   0  0  0  0  0  0  0  0  0  0  0  0
   -7.6555   16.6517  -33.1335 H   0  0  0  0  0  0  0  0  0  0  0  0
   -8.5480   18.4389  -30.4520 H   0  0  0  0  0  0  0  0  0  0  0  0
   -9.7013   18.6177  -31.8175 H   0  0  0  0  0  0  0  0  0  0  0  0
   -8.5109   17.2725  -31.8175 H   0  0  0  0  0  0  0  0  0  0  0  0
   -9.8676   20.5508  -31.4650 H   0  0  0  0  0  0  0  0  0  0  0  0
  -10.0428   23.0190  -31.2856 H   0  0  0  0  0  0  0  0  0  0  0  0
   -8.1026   24.4532  -31.8717 H   0  0  0  0  0  0  0  0  0  0  0  0
   -5.9990   23.4378  -32.7013 H   0  0  0  0  0  0  0  0  0  0  0  0
    1.1471   20.3670  -31.9444 H   0  0  0  0  0  0  0  0  0  0  0  0
    0.9737   19.2173  -33.3428 H   0  0  0  0  0  0  0  0  0  0  0  0
    1.6866   22.1181  -33.3109 H   0  0  0  0  0  0  0  0  0  0  0  0
    2.1701   20.7754  -34.4398 H   0  0  0  0  0  0  0  0  0  0  0  0
  1  2  1  0
  2  3  1  0
  3  4  1  0
  4  5  1  0
  5  6  1  0
  6  7  1  0
  7  8  1  0
  8  9  1  0
  9 10  1  0
 10 11  1  0
 11 12  1  0
 12 13  1  0
 13 14  1  0
 14 15  1  0
 15 16  2  0
 16 17  1  0
 17 18  2  0
 18 19  1  0
 19 20  2  0
 20 21  1  0
 21 22  1  0
 21 23  2  0
 23 24  1  0
 24 25  2  0
 25 26  1  0
 26 27  2  0
 27 28  1  0
  9 29  1  0
 29 30  1  0
 30  6  1  0
 28 14  2  0
 20 15  1  0
 28 23  1  0
  1 31  1  0
  1 32  1  0
  1 33  1  0
  2 34  1  0
  2 35  1  0
  4 36  1  0
  4 37  1  0
  5 38  1  0
  5 39  1  0
  7 40  1  0
  7 41  1  0
  8 42  1  0
  8 43  1  0
 10 44  1  0
 10 45  1  0
 11 46  1  0
 11 47  1  0
 12 48  1  0
 12 49  1  0
 13 50  1  0
 13 51  1  0
 16 52  1  0
 17 53  1  0
 18 54  1  0
 19 55  1  0
 22 56  1  0
 22 57  1  0
 22 58  1  0
 24 59  1  0
 25 60  1  0
 26 61  1  0
 27 62  1  0
 29 63  1  0
 29 64  1  0
 30 65  1  0
 30 66  1  0
M  CHG  2  13   1  21   1
M  END
>  <UniqueID>  (15) 
15

>  <SMILES>  (15) 
CCOCCN1CCN(CCC[NH2+]c2c3ccccc3[n+](C)c3ccccc23)CC1

>  <Energy>  (15) 
107.84335114985744

>  <Genealogy>  (15) 
CCOCCN1CCN(CCC[NH2+]c2c3ccccc3[n+](C)c3ccccc23)CC1 (protonated)
CCOCCN1CCN(CCC[NH2+]c2c3ccccc3[n+](C)c3ccccc23)CC1 (3D coordinates assigned)
CCOCCN1CCN(CCC[NH2+]c2c3ccccc3[n+](C)c3ccccc23)CC1 (nonaromatic ring conformer: 107.84335114985744 kcal/mol)

>  <smiles>  (15) 
CCOCCN1CCN(CCCNc2c3ccccc3[n+](C)c3ccccc23)CC1

>  <score_type>  (15) 
oracle

>  <origin>  (15) 
adg

>  <m_score__min__energy>  (15) 
-8.8800000000000008

>  <m_primary>  (15) 
energy

$$$$
16:0
     RDKit          3D

 49 52  0  0  0  0  0  0  0  0999 V2000
   -4.9850   21.4960  -31.7500 C   0  0  0  0  0  0  0  0  0  0  0  0
   -5.4700   22.7380  -31.0400 C   0  0  0  0  0  0  0  0  0  0  0  0
   -6.8080   23.1630  -31.1890 C   0  0  0  0  0  0  0  0  0  0  0  0
   -7.6810   22.4140  -31.9960 O   0  0  0  0  0  0  0  0  0  0  0  0
   -8.8860   21.8050  -31.5440 C   0  0  0  0  0  0  0  0  0  0  0  0
   -9.1170   20.5150  -32.3320 C   0  0  0  0  0  0  0  0  0  0  0  0
   -7.8570   19.7520  -32.7130 C   0  0  0  0  0  0  0  0  0  0  0  0
   -8.7560   19.2320  -31.6010 C   0  0  0  0  0  0  0  0  0  0  0  0
   -7.2370   24.3270  -30.5270 C   0  0  0  0  0  0  0  0  0  0  0  0
   -6.3400   25.0500  -29.7470 C   0  0  0  0  0  0  0  0  0  0  0  0
   -5.0530   24.6400  -29.6340 N   0  0  0  0  0  0  0  0  0  0  0  0
   -4.5850   23.5260  -30.2610 C   0  0  0  0  0  0  0  0  0  0  0  0
   -3.1430   23.1580  -30.0560 C   0  0  0  0  0  0  0  0  0  0  0  0
   -2.9760   22.1600  -28.5400 S   0  0  0  0  0  0  0  0  0  0  0  0
   -2.9340   23.5970  -27.4660 C   0  0  0  0  0  0  0  0  0  0  0  0
   -4.0150   24.3270  -27.1540 N   0  0  0  0  0  0  0  0  0  0  0  0
   -3.6320   25.3020  -26.3450 N   0  0  0  0  0  0  0  0  0  0  0  0
   -2.3000   25.1590  -26.1810 C   0  0  0  0  0  0  0  0  0  0  0  0
   -1.4960   26.0720  -25.3410 C   0  0  0  0  0  0  0  0  0  0  0  0
   -1.2570   27.3860  -25.7780 C   0  0  0  0  0  0  0  0  0  0  0  0
   -0.4830   28.2580  -25.0060 C   0  0  0  0  0  0  0  0  0  0  0  0
    0.0700   27.8220  -23.7990 C   0  0  0  0  0  0  0  0  0  0  0  0
   -0.1430   26.5110  -23.3680 C   0  0  0  0  0  0  0  0  0  0  0  0
   -0.9160   25.6360  -24.1370 C   0  0  0  0  0  0  0  0  0  0  0  0
   -1.8320   24.0830  -26.8600 N   0  0  0  0  0  0  0  0  0  0  0  0
   -0.4720   23.5500  -26.9290 C   0  0  0  0  0  0  0  0  0  0  0  0
   -4.6900   20.7405  -31.0069 H   0  0  0  0  0  0  0  0  0  0  0  0
   -5.7925   21.0949  -32.3800 H   0  0  0  0  0  0  0  0  0  0  0  0
   -4.1193   21.7483  -32.3800 H   0  0  0  0  0  0  0  0  0  0  0  0
   -8.8024   21.5726  -30.4721 H   0  0  0  0  0  0  0  0  0  0  0  0
   -9.7309   22.4920  -31.6992 H   0  0  0  0  0  0  0  0  0  0  0  0
  -10.0017   20.8800  -32.8743 H   0  0  0  0  0  0  0  0  0  0  0  0
   -7.8060   19.2189  -33.6739 H   0  0  0  0  0  0  0  0  0  0  0  0
   -6.7897   20.0046  -32.7968 H   0  0  0  0  0  0  0  0  0  0  0  0
   -9.3547   18.3226  -31.7578 H   0  0  0  0  0  0  0  0  0  0  0  0
   -8.6075   18.9527  -30.5475 H   0  0  0  0  0  0  0  0  0  0  0  0
   -8.2791   24.6651  -30.6256 H   0  0  0  0  0  0  0  0  0  0  0  0
   -6.6758   25.9559  -29.2211 H   0  0  0  0  0  0  0  0  0  0  0  0
   -2.7877   22.5754  -30.9188 H   0  0  0  0  0  0  0  0  0  0  0  0
   -2.5426   24.0744  -29.9579 H   0  0  0  0  0  0  0  0  0  0  0  0
   -4.9960   24.1680  -27.4750 H   0  0  0  0  0  0  0  0  0  0  0  0
   -1.6811   27.7306  -26.7327 H   0  0  0  0  0  0  0  0  0  0  0  0
   -0.3092   29.2885  -25.3493 H   0  0  0  0  0  0  0  0  0  0  0  0
    0.6726   28.5110  -23.1889 H   0  0  0  0  0  0  0  0  0  0  0  0
    0.2984   26.1660  -22.4214 H   0  0  0  0  0  0  0  0  0  0  0  0
   -1.0712   24.6010  -23.7982 H   0  0  0  0  0  0  0  0  0  0  0  0
   -0.0854   23.3985  -25.9104 H   0  0  0  0  0  0  0  0  0  0  0  0
   -0.4815   22.5891  -27.4643 H   0  0  0  0  0  0  0  0  0  0  0  0
    0.1740   24.2615  -27.4643 H   0  0  0  0  0  0  0  0  0  0  0  0
  1  2  1  0
  2  3  2  0
  3  4  1  0
  4  5  1  0
  5  6  1  0
  6  7  1  0
  7  8  1  0
  3  9  1  0
  9 10  2  0
 10 11  1  0
 11 12  2  0
 12 13  1  0
 13 14  1  0
 14 15  1  0
 15 16  2  0
 16 17  1  0
 17 18  2  0
 18 19  1  0
 19 20  2  0
 20 21  1  0
 21 22  2  0
 22 23  1  0
 23 24  2  0
 18 25  1  0
 25 26  1  0
 12  2  1  0
 25 15  1  0
  8  6  1  0
 24 19  1  0
  1 27  1  0
  1 28  1  0
  1 29  1  0
  5 30  1  0
  5 31  1  0
  6 32  1  0
  7 33  1  0
  7 34  1  0
  8 35  1  0
  8 36  1  0
  9 37  1  0
 10 38  1  0
 13 39  1  0
 13 40  1  0
 16 41  1  0
 20 42  1  0
 21 43  1  0
 22 44  1  0
 23 45  1  0
 24 46  1  0
 26 47  1  0
 26 48  1  0
 26 49  1  0
M  CHG  1  16   1
M  END
>  <UniqueID>  (16) 
16

>  <SMILES>  (16) 
Cc1c(OCC2CC2)ccnc1CSc1[nH+]nc(-c2ccccc2)n1C

>  <Energy>  (16) 
351.39875731237777

>  <Genealogy>  (16) 
Cc1c(OCC2CC2)ccnc1CSc1[nH+]nc(-c2ccccc2)n1C (protonated)
Cc1c(OCC2CC2)ccnc1CSc1[nH+]nc(-c2ccccc2)n1C (3D coordinates assigned)
Cc1c(OCC2CC2)ccnc1CSc1[nH+]nc(-c2ccccc2)n1C (nonaromatic ring conformer: 351.39875731237777 kcal/mol)

>  <smiles>  (16) 
Cc1c(OCC2CC2)ccnc1CSc1nnc(-c2ccccc2)n1C

>  <score_type>  (16) 
oracle

>  <origin>  (16) 
adg

>  <m_score__min__energy>  (16) 
-8.5

>  <m_primary>  (16) 
energy

$$$$
17:0
     RDKit          3D

 59 61  0  0  0  0  0  0  0  0999 V2000
   -3.1290   18.9120  -26.2980 C   0  0  0  0  0  0  0  0  0  0  0  0
   -2.2860   19.5580  -27.4000 C   0  0  0  0  0  0  0  0  0  0  0  0
   -2.3430   21.0950  -27.3770 C   0  0  0  0  0  0  0  0  0  0  0  0
   -3.1520   21.6690  -28.5550 C   0  0  0  0  0  0  0  0  0  0  0  0
   -4.2150   22.6850  -28.1040 C   0  0  0  0  0  0  0  0  0  0  0  0
   -4.1260   24.0790  -28.7720 C   0  0  0  0  0  0  0  0  0  0  0  0
   -5.3330   24.9150  -28.6220 N   0  0  0  0  0  0  0  0  0  0  0  0
   -5.8160   25.4670  -29.9040 C   0  0  0  0  0  0  0  0  0  0  0  0
   -6.8350   24.5350  -30.5990 C   0  0  0  0  0  0  0  0  0  0  0  0
   -6.3220   23.8000  -31.8560 C   0  0  0  0  0  0  0  0  0  0  0  0
   -5.4160   22.6930  -31.5360 N   0  0  0  0  0  0  0  0  0  0  0  0
   -5.4910   21.4000  -32.1620 C   0  0  0  0  0  0  0  0  0  0  0  0
   -6.7000   20.6880  -32.1380 C   0  0  0  0  0  0  0  0  0  0  0  0
   -7.8280   21.2040  -31.4630 C   0  0  0  0  0  0  0  0  0  0  0  0
   -9.0230   20.4890  -31.4220 C   0  0  0  0  0  0  0  0  0  0  0  0
   -9.1100   19.2460  -32.0360 C   0  0  0  0  0  0  0  0  0  0  0  0
   -8.0120   18.7220  -32.7180 C   0  0  0  0  0  0  0  0  0  0  0  0
   -6.7960   19.4460  -32.8200 C   0  0  0  0  0  0  0  0  0  0  0  0
   -5.7260   18.9760  -33.5580 N   0  0  0  0  0  0  0  0  0  0  0  0
   -5.9140   17.8300  -34.4730 C   0  0  0  0  0  0  0  0  0  0  0  0
   -4.4900   19.5820  -33.4490 C   0  0  0  0  0  0  0  0  0  0  0  0
   -3.3140   18.9880  -33.9810 C   0  0  0  0  0  0  0  0  0  0  0  0
   -2.0750   19.6150  -33.8670 C   0  0  0  0  0  0  0  0  0  0  0  0
   -1.9630   20.8270  -33.1980 C   0  0  0  0  0  0  0  0  0  0  0  0
   -3.0880   21.4180  -32.6340 C   0  0  0  0  0  0  0  0  0  0  0  0
   -4.3580   20.8170  -32.7550 C   0  0  0  0  0  0  0  0  0  0  0  0
   -2.7382   19.2114  -25.3143 H   0  0  0  0  0  0  0  0  0  0  0  0
   -4.1736   19.2430  -26.3938 H   0  0  0  0  0  0  0  0  0  0  0  0
   -3.0810   17.8172  -26.3938 H   0  0  0  0  0  0  0  0  0  0  0  0
   -1.2397   19.2440  -27.2706 H   0  0  0  0  0  0  0  0  0  0  0  0
   -2.6973   19.2278  -28.3653 H   0  0  0  0  0  0  0  0  0  0  0  0
   -2.8121   21.4173  -26.4357 H   0  0  0  0  0  0  0  0  0  0  0  0
   -1.3127   21.4706  -27.4624 H   0  0  0  0  0  0  0  0  0  0  0  0
   -2.4590   22.1685  -29.2479 H   0  0  0  0  0  0  0  0  0  0  0  0
   -3.6761   20.8314  -29.0384 H   0  0  0  0  0  0  0  0  0  0  0  0
   -5.2054   22.2629  -28.3298 H   0  0  0  0  0  0  0  0  0  0  0  0
   -4.0399   22.8511  -27.0308 H   0  0  0  0  0  0  0  0  0  0  0  0
   -3.2780   24.6190  -28.3255 H   0  0  0  0  0  0  0  0  0  0  0  0
   -4.0061   23.8987  -29.8505 H   0  0  0  0  0  0  0  0  0  0  0  0
   -6.0710   24.2810  -28.2380 H   0  0  0  0  0  0  0  0  0  0  0  0
   -5.1800   25.6750  -27.9240 H   0  0  0  0  0  0  0  0  0  0  0  0
   -6.2979   26.4370  -29.7120 H   0  0  0  0  0  0  0  0  0  0  0  0
   -4.9485   25.5737  -30.5719 H   0  0  0  0  0  0  0  0  0  0  0  0
   -7.1508   23.7754  -29.8688 H   0  0  0  0  0  0  0  0  0  0  0  0
   -7.6501   25.1875  -30.9453 H   0  0  0  0  0  0  0  0  0  0  0  0
   -7.1862   23.3992  -32.4061 H   0  0  0  0  0  0  0  0  0  0  0  0
   -5.7571   24.5272  -32.4577 H   0  0  0  0  0  0  0  0  0  0  0  0
   -4.6850   22.8390  -30.8000 H   0  0  0  0  0  0  0  0  0  0  0  0
   -7.7623   22.1820  -30.9637 H   0  0  0  0  0  0  0  0  0  0  0  0
   -9.8976   20.9087  -30.9034 H   0  0  0  0  0  0  0  0  0  0  0  0
  -10.0477   18.6732  -31.9842 H   0  0  0  0  0  0  0  0  0  0  0  0
   -8.0902   17.7293  -33.1853 H   0  0  0  0  0  0  0  0  0  0  0  0
   -6.0645   16.9124  -33.8853 H   0  0  0  0  0  0  0  0  0  0  0  0
   -6.7950   18.0079  -35.1072 H   0  0  0  0  0  0  0  0  0  0  0  0
   -5.0224   17.7171  -35.1072 H   0  0  0  0  0  0  0  0  0  0  0  0
   -3.3830   18.0162  -34.4918 H   0  0  0  0  0  0  0  0  0  0  0  0
   -1.1821   19.1483  -34.3085 H   0  0  0  0  0  0  0  0  0  0  0  0
   -0.9832   21.3198  -33.1143 H   0  0  0  0  0  0  0  0  0  0  0  0
   -2.9862   22.3665  -32.0864 H   0  0  0  0  0  0  0  0  0  0  0  0
  1  2  1  0
  2  3  1  0
  3  4  1  0
  4  5  1  0
  5  6  1  0
  6  7  1  0
  7  8  1  0
  8  9  1  0
  9 10  1  0
 10 11  1  0
 11 12  1  0
 12 13  2  0
 13 14  1  0
 14 15  2  0
 15 16  1  0
 16 17  2  0
 17 18  1  0
 18 19  2  0
 19 20  1  0
 19 21  1  0
 21 22  2  0
 22 23  1  0
 23 24  2  0
 24 25  1  0
 25 26  2  0
 26 12  1  0
 18 13  1  0
 26 21  1  0
  1 27  1  0
  1 28  1  0
  1 29  1  0
  2 30  1  0
  2 31  1  0
  3 32  1  0
  3 33  1  0
  4 34  1  0
  4 35  1  0
  5 36  1  0
  5 37  1  0
  6 38  1  0
  6 39  1  0
  7 40  1  0
  7 41  1  0
  8 42  1  0
  8 43  1  0
  9 44  1  0
  9 45  1  0
 10 46  1  0
 10 47  1  0
 11 48  1  0
 14 49  1  0
 15 50  1  0
 16 51  1  0
 17 52  1  0
 20 53  1  0
 20 54  1  0
 20 55  1  0
 22 56  1  0
 23 57  1  0
 24 58  1  0
 25 59  1  0
M  CHG  2   7   1  19   1
M  END
>  <UniqueID>  (17) 
17

>  <SMILES>  (17) 
CCCCCC[NH2+]CCCNc1c2ccccc2[n+](C)c2ccccc12

>  <Energy>  (17) 
77.33836260552144

>  <Genealogy>  (17) 
CCCCCC[NH2+]CCCNc1c2ccccc2[n+](C)c2ccccc12 (protonated)
CCCCCC[NH2+]CCCNc1c2ccccc2[n+](C)c2ccccc12 (3D coordinates assigned)
CCCCCC[NH2+]CCCNc1c2ccccc2[n+](C)c2ccccc12 (optimized conformer: 77.33836260552144 kcal/mol)

>  <smiles>  (17) 
CCCCCCNCCCNc1c2ccccc2[n+](C)c2ccccc12

>  <score_type>  (17) 
oracle

>  <origin>  (17) 
adg

>  <m_score__min__energy>  (17) 
-8.2899999999999991

>  <m_primary>  (17) 
energy

$$$$
18:0
     RDKit          3D

 62 64  0  0  0  0  0  0  0  0999 V2000
   -2.7900   19.6010  -27.3050 C   0  0  0  0  0  0  0  0  0  0  0  0
   -2.3580   20.2720  -28.6000 C   0  0  0  0  0  0  0  0  0  0  0  0
   -3.1100   21.4550  -28.7840 O   0  0  0  0  0  0  0  0  0  0  0  0
   -3.3300   22.1030  -27.5450 C   0  0  0  0  0  0  0  0  0  0  0  0
   -2.0130   22.6640  -27.0160 C   0  0  0  0  0  0  0  0  0  0  0  0
   -1.1660   22.9960  -28.1010 O   0  0  0  0  0  0  0  0  0  0  0  0
   -0.5810   24.2630  -27.9090 C   0  0  0  0  0  0  0  0  0  0  0  0
   -1.6510   25.3400  -28.0540 C   0  0  0  0  0  0  0  0  0  0  0  0
   -2.1710   25.2940  -29.3580 O   0  0  0  0  0  0  0  0  0  0  0  0
   -3.2270   24.4370  -29.3300 N   0  0  0  0  0  0  0  0  0  0  0  0
   -4.2380   24.9220  -30.2740 C   0  0  0  0  0  0  0  0  0  0  0  0
   -5.3740   23.9080  -30.4690 C   0  0  0  0  0  0  0  0  0  0  0  0
   -4.8560   22.5390  -30.4380 N   0  0  0  0  0  0  0  0  0  0  0  0
   -5.2830   21.5740  -31.4130 C   0  0  0  0  0  0  0  0  0  0  0  0
   -6.6550   21.3290  -31.5920 C   0  0  0  0  0  0  0  0  0  0  0  0
   -7.6280   22.1330  -30.9580 C   0  0  0  0  0  0  0  0  0  0  0  0
   -8.9850   21.9030  -31.1620 C   0  0  0  0  0  0  0  0  0  0  0  0
   -9.3970   20.8830  -32.0100 C   0  0  0  0  0  0  0  0  0  0  0  0
   -8.4560   20.0640  -32.6290 C   0  0  0  0  0  0  0  0  0  0  0  0
   -7.0690   20.2450  -32.4050 C   0  0  0  0  0  0  0  0  0  0  0  0
   -6.1300   19.3920  -32.9460 N   0  0  0  0  0  0  0  0  0  0  0  0
   -6.5500   18.0820  -33.4950 C   0  0  0  0  0  0  0  0  0  0  0  0
   -4.7980   19.7510  -32.9620 C   0  0  0  0  0  0  0  0  0  0  0  0
   -3.8620   19.0530  -33.7610 C   0  0  0  0  0  0  0  0  0  0  0  0
   -2.5140   19.3970  -33.7640 C   0  0  0  0  0  0  0  0  0  0  0  0
   -2.0600   20.4590  -32.9920 C   0  0  0  0  0  0  0  0  0  0  0  0
   -2.9550   21.2080  -32.2100 C   0  0  0  0  0  0  0  0  0  0  0  0
   -2.4980   22.3200  -31.4850 O   0  0  0  0  0  0  0  0  0  0  0  0
   -1.2220   22.4330  -30.8680 C   0  0  0  0  0  0  0  0  0  0  0  0
   -4.3380   20.8500  -32.1780 C   0  0  0  0  0  0  0  0  0  0  0  0
   -2.4162   20.1816  -26.4488 H   0  0  0  0  0  0  0  0  0  0  0  0
   -3.8883   19.5543  -27.2649 H   0  0  0  0  0  0  0  0  0  0  0  0
   -2.3779   18.5819  -27.2649 H   0  0  0  0  0  0  0  0  0  0  0  0
   -1.2879   20.5209  -28.5462 H   0  0  0  0  0  0  0  0  0  0  0  0
   -2.5302   19.5894  -29.4452 H   0  0  0  0  0  0  0  0  0  0  0  0
   -4.0475   22.9250  -27.6848 H   0  0  0  0  0  0  0  0  0  0  0  0
   -3.7336   21.3787  -26.8221 H   0  0  0  0  0  0  0  0  0  0  0  0
   -2.2132   23.5660  -26.4190 H   0  0  0  0  0  0  0  0  0  0  0  0
   -1.5207   21.9071  -26.3877 H   0  0  0  0  0  0  0  0  0  0  0  0
   -0.1408   24.3156  -26.9023 H   0  0  0  0  0  0  0  0  0  0  0  0
    0.2064   24.4227  -28.6603 H   0  0  0  0  0  0  0  0  0  0  0  0
   -2.4577   25.1587  -27.3285 H   0  0  0  0  0  0  0  0  0  0  0  0
   -1.2107   26.3299  -27.8637 H   0  0  0  0  0  0  0  0  0  0  0  0
   -2.8930   23.5010  -29.6610 H   0  0  0  0  0  0  0  0  0  0  0  0
   -4.6621   25.8612  -29.8891 H   0  0  0  0  0  0  0  0  0  0  0  0
   -3.7488   25.0765  -31.2471 H   0  0  0  0  0  0  0  0  0  0  0  0
   -6.1122   24.0332  -29.6631 H   0  0  0  0  0  0  0  0  0  0  0  0
   -5.8436   24.0866  -31.4475 H   0  0  0  0  0  0  0  0  0  0  0  0
   -3.9940   22.3490  -29.8800 H   0  0  0  0  0  0  0  0  0  0  0  0
   -7.3091   22.9508  -30.2950 H   0  0  0  0  0  0  0  0  0  0  0  0
   -9.7317   22.5291  -30.6516 H   0  0  0  0  0  0  0  0  0  0  0  0
  -10.4696   20.7217  -32.1932 H   0  0  0  0  0  0  0  0  0  0  0  0
   -8.7953   19.2635  -33.3029 H   0  0  0  0  0  0  0  0  0  0  0  0
   -6.7713   17.3917  -32.6677 H   0  0  0  0  0  0  0  0  0  0  0  0
   -7.4506   18.2149  -34.1125 H   0  0  0  0  0  0  0  0  0  0  0  0
   -5.7400   17.6665  -34.1125 H   0  0  0  0  0  0  0  0  0  0  0  0
   -4.2072   18.2213  -34.3928 H   0  0  0  0  0  0  0  0  0  0  0  0
   -1.8045   18.8255  -34.3804 H   0  0  0  0  0  0  0  0  0  0  0  0
   -0.9904   20.7157  -32.9931 H   0  0  0  0  0  0  0  0  0  0  0  0
   -1.3412   22.4224  -29.7745 H   0  0  0  0  0  0  0  0  0  0  0  0
   -0.5896   21.5873  -31.1761 H   0  0  0  0  0  0  0  0  0  0  0  0
   -0.7480   23.3766  -31.1761 H   0  0  0  0  0  0  0  0  0  0  0  0
  1  2  1  0
  2  3  1  0
  3  4  1  0
  4  5  1  0
  5  6  1  0
  6  7  1  0
  7  8  1  0
  8  9  1  0
  9 10  1  0
 10 11  1  0
 11 12  1  0
 12 13  1  0
 13 14  1  0
 14 15  2  0
 15 16  1  0
 16 17  2  0
 17 18  1  0
 18 19  2  0
 19 20  1  0
 20 21  2  0
 21 22  1  0
 21 23  1  0
 23 24  2  0
 24 25  1  0
 25 26  2  0
 26 27  1  0
 27 28  1  0
 28 29  1  0
 27 30  2  0
 30 14  1  0
 20 15  1  0
 30 23  1  0
  1 31  1  0
  1 32  1  0
  1 33  1  0
  2 34  1  0
  2 35  1  0
  4 36  1  0
  4 37  1  0
  5 38  1  0
  5 39  1  0
  7 40  1  0
  7 41  1  0
  8 42  1  0
  8 43  1  0
 10 44  1  0
 11 45  1  0
 11 46  1  0
 12 47  1  0
 12 48  1  0
 13 49  1  0
 16 50  1  0
 17 51  1  0
 18 52  1  0
 19 53  1  0
 22 54  1  0
 22 55  1  0
 22 56  1  0
 24 57  1  0
 25 58  1  0
 26 59  1  0
 29 60  1  0
 29 61  1  0
 29 62  1  0
M  CHG  1  21   1
M  END
>  <UniqueID>  (18) 
18

>  <SMILES>  (18) 
CCOCCOCCONCCNc1c2ccccc2[n+](C)c2cccc(OC)c12

>  <Energy>  (18) 
86.80333175967661

>  <Genealogy>  (18) 
CCOCCOCCONCCNc1c2ccccc2[n+](C)c2cccc(OC)c12 (3D coordinates assigned)
CCOCCOCCONCCNc1c2ccccc2[n+](C)c2cccc(OC)c12 (optimized conformer: 86.80333175967661 kcal/mol)

>  <smiles>  (18) 
CCOCCOCCONCCNc1c2ccccc2[n+](C)c2cccc(OC)c12

>  <score_type>  (18) 
oracle

>  <origin>  (18) 
adg

>  <m_score__min__energy>  (18) 
-8.7400000000000002

>  <m_primary>  (18) 
energy

$$$$
19:0
     RDKit          3D

 60 62  0  0  0  0  0  0  0  0999 V2000
   -2.7010   21.1040  -28.4380 C   0  0  0  0  0  0  0  0  0  0  0  0
   -3.4830   22.3810  -28.1580 C   0  0  0  0  0  0  0  0  0  0  0  0
   -4.2700   22.7440  -29.2910 O   0  0  0  0  0  0  0  0  0  0  0  0
   -4.3990   24.0610  -29.7450 C   0  0  0  0  0  0  0  0  0  0  0  0
   -3.6420   24.5070  -30.6510 O   0  0  0  0  0  0  0  0  0  0  0  0
   -5.4620   24.9420  -29.1620 C   0  0  0  0  0  0  0  0  0  0  0  0
   -6.8070   24.7560  -29.8770 C   0  0  0  0  0  0  0  0  0  0  0  0
   -6.8240   23.5280  -30.6880 N   0  0  0  0  0  0  0  0  0  0  0  0
   -6.6620   23.7920  -32.1310 C   0  0  0  0  0  0  0  0  0  0  0  0
   -5.5280   22.9360  -32.7090 C   0  0  0  0  0  0  0  0  0  0  0  0
   -4.9230   22.0170  -31.7180 N   0  0  0  0  0  0  0  0  0  0  0  0
   -4.5890   20.7220  -32.3040 C   0  0  0  0  0  0  0  0  0  0  0  0
   -3.2690   20.4760  -32.8020 C   0  0  0  0  0  0  0  0  0  0  0  0
   -2.2400   21.4580  -32.7670 C   0  0  0  0  0  0  0  0  0  0  0  0
   -0.9810   21.2150  -33.3080 C   0  0  0  0  0  0  0  0  0  0  0  0
   -0.7050   20.0000  -33.9110 C   0  0  0  0  0  0  0  0  0  0  0  0
   -1.6770   19.0080  -33.9440 C   0  0  0  0  0  0  0  0  0  0  0  0
   -2.9560   19.2060  -33.3610 C   0  0  0  0  0  0  0  0  0  0  0  0
   -3.8850   18.1930  -33.3500 N   0  0  0  0  0  0  0  0  0  0  0  0
   -3.4540   16.7980  -33.6010 C   0  0  0  0  0  0  0  0  0  0  0  0
   -5.2060   18.4650  -33.0740 C   0  0  0  0  0  0  0  0  0  0  0  0
   -6.2080   17.5240  -33.4160 C   0  0  0  0  0  0  0  0  0  0  0  0
   -7.5320   17.7220  -33.0690 C   0  0  0  0  0  0  0  0  0  0  0  0
   -7.9000   18.8480  -32.3610 C   0  0  0  0  0  0  0  0  0  0  0  0
   -6.9580   19.8360  -32.0290 C   0  0  0  0  0  0  0  0  0  0  0  0
   -7.3750   20.9360  -31.2600 O   0  0  0  0  0  0  0  0  0  0  0  0
   -8.7080   21.1980  -30.8280 C   0  0  0  0  0  0  0  0  0  0  0  0
   -9.4790   21.8670  -31.9520 C   0  0  0  0  0  0  0  0  0  0  0  0
   -5.5880   19.6960  -32.4560 C   0  0  0  0  0  0  0  0  0  0  0  0
   -2.4132   20.6341  -27.4860 H   0  0  0  0  0  0  0  0  0  0  0  0
   -3.3285   20.4089  -29.0151 H   0  0  0  0  0  0  0  0  0  0  0  0
   -1.7966   21.3470  -29.0151 H   0  0  0  0  0  0  0  0  0  0  0  0
   -4.1450   22.2181  -27.2947 H   0  0  0  0  0  0  0  0  0  0  0  0
   -2.7727   23.1931  -27.9436 H   0  0  0  0  0  0  0  0  0  0  0  0
   -5.5866   24.6940  -28.0976 H   0  0  0  0  0  0  0  0  0  0  0  0
   -5.1479   25.9886  -29.2882 H   0  0  0  0  0  0  0  0  0  0  0  0
   -7.6066   24.6975  -29.1239 H   0  0  0  0  0  0  0  0  0  0  0  0
   -6.9615   25.6138  -30.5481 H   0  0  0  0  0  0  0  0  0  0  0  0
   -7.7580   23.0810  -30.5420 H   0  0  0  0  0  0  0  0  0  0  0  0
   -7.6003   23.5491  -32.6512 H   0  0  0  0  0  0  0  0  0  0  0  0
   -6.4142   24.8543  -32.2730 H   0  0  0  0  0  0  0  0  0  0  0  0
   -5.9310   22.3376  -33.5394 H   0  0  0  0  0  0  0  0  0  0  0  0
   -4.7366   23.6247  -33.0396 H   0  0  0  0  0  0  0  0  0  0  0  0
   -4.0700   22.4390  -31.2960 H   0  0  0  0  0  0  0  0  0  0  0  0
   -5.5210   21.9550  -30.8720 H   0  0  0  0  0  0  0  0  0  0  0  0
   -2.4446   22.4331  -32.3009 H   0  0  0  0  0  0  0  0  0  0  0  0
   -0.2029   21.9908  -33.2563 H   0  0  0  0  0  0  0  0  0  0  0  0
    0.2816   19.8204  -34.3630 H   0  0  0  0  0  0  0  0  0  0  0  0
   -1.4507   18.0487  -34.4323 H   0  0  0  0  0  0  0  0  0  0  0  0
   -3.2955   16.2849  -32.6410 H   0  0  0  0  0  0  0  0  0  0  0  0
   -4.2314   16.2716  -34.1742 H   0  0  0  0  0  0  0  0  0  0  0  0
   -2.5151   16.8018  -34.1742 H   0  0  0  0  0  0  0  0  0  0  0  0
   -5.9269   16.6160  -33.9696 H   0  0  0  0  0  0  0  0  0  0  0  0
   -8.2924   16.9814  -33.3576 H   0  0  0  0  0  0  0  0  0  0  0  0
   -8.9480   18.9740  -32.0516 H   0  0  0  0  0  0  0  0  0  0  0  0
   -9.1993   20.2515  -30.5583 H   0  0  0  0  0  0  0  0  0  0  0  0
   -8.6867   21.8614  -29.9508 H   0  0  0  0  0  0  0  0  0  0  0  0
  -10.2451   22.5317  -31.5262 H   0  0  0  0  0  0  0  0  0  0  0  0
   -8.7866   22.4553  -32.5721 H   0  0  0  0  0  0  0  0  0  0  0  0
   -9.9639   21.0986  -32.5721 H   0  0  0  0  0  0  0  0  0  0  0  0
  1  2  1  0
  2  3  1  0
  3  4  1  0
  4  5  2  0
  4  6  1  0
  6  7  1  0
  7  8  1  0
  8  9  1  0
  9 10  1  0
 10 11  1  0
 11 12  1  0
 12 13  2  0
 13 14  1  0
 14 15  2  0
 15 16  1  0
 16 17  2  0
 17 18  1  0
 18 19  2  0
 19 20  1  0
 19 21  1  0
 21 22  2  0
 22 23  1  0
 23 24  2  0
 24 25  1  0
 25 26  1  0
 26 27  1  0
 27 28  1  0
 25 29  2  0
 29 12  1  0
 18 13  1  0
 29 21  1  0
  1 30  1  0
  1 31  1  0
  1 32  1  0
  2 33  1  0
  2 34  1  0
  6 35  1  0
  6 36  1  0
  7 37  1  0
  7 38  1  0
  8 39  1  0
  9 40  1  0
  9 41  1  0
 10 42  1  0
 10 43  1  0
 11 44  1  0
 11 45  1  0
 14 46  1  0
 15 47  1  0
 16 48  1  0
 17 49  1  0
 20 50  1  0
 20 51  1  0
 20 52  1  0
 22 53  1  0
 23 54  1  0
 24 55  1  0
 27 56  1  0
 27 57  1  0
 28 58  1  0
 28 59  1  0
 28 60  1  0
M  CHG  2  11   1  19   1
M  END
>  <UniqueID>  (19) 
19

>  <SMILES>  (19) 
CCOC(=O)CCNCC[NH2+]c1c2ccccc2[n+](C)c2cccc(OCC)c12

>  <Energy>  (19) 
86.58514838497157

>  <Genealogy>  (19) 
CCOC(=O)CCNCC[NH2+]c1c2ccccc2[n+](C)c2cccc(OCC)c12 (protonated)
CCOC(=O)CCNCC[NH2+]c1c2ccccc2[n+](C)c2cccc(OCC)c12 (3D coordinates assigned)
CCOC(=O)CCNCC[NH2+]c1c2ccccc2[n+](C)c2cccc(OCC)c12 (optimized conformer: 86.58514838497157 kcal/mol)

>  <smiles>  (19) 
CCOC(=O)CCNCCNc1c2ccccc2[n+](C)c2cccc(OCC)c12

>  <score_type>  (19) 
oracle

>  <origin>  (19) 
adg

>  <m_score__min__energy>  (19) 
-8.5299999999999994

>  <m_primary>  (19) 
energy

$$$$
20:0
     RDKit          3D

 53 55  0  0  0  0  0  0  0  0999 V2000
   -8.6010   23.2110  -31.9760 C   0  0  0  0  0  0  0  0  0  0  0  0
   -7.1790   23.7580  -31.8500 C   0  0  0  0  0  0  0  0  0  0  0  0
   -6.8910   24.3190  -30.4480 C   0  0  0  0  0  0  0  0  0  0  0  0
   -5.7700   25.3630  -30.4650 C   0  0  0  0  0  0  0  0  0  0  0  0
   -4.6140   24.8350  -31.1990 N   0  0  0  0  0  0  0  0  0  0  0  0
   -3.6950   24.1110  -30.3070 C   0  0  0  0  0  0  0  0  0  0  0  0
   -3.5790   22.6470  -30.7390 C   0  0  0  0  0  0  0  0  0  0  0  0
   -4.3400   22.4070  -31.9650 N   0  0  0  0  0  0  0  0  0  0  0  0
   -4.2920   21.1240  -32.6060 C   0  0  0  0  0  0  0  0  0  0  0  0
   -5.4290   20.3000  -32.6240 C   0  0  0  0  0  0  0  0  0  0  0  0
   -6.6120   20.6890  -31.9610 C   0  0  0  0  0  0  0  0  0  0  0  0
   -7.7230   19.8500  -31.9390 C   0  0  0  0  0  0  0  0  0  0  0  0
   -7.6700   18.6070  -32.5590 C   0  0  0  0  0  0  0  0  0  0  0  0
   -6.5110   18.2030  -33.2230 C   0  0  0  0  0  0  0  0  0  0  0  0
   -5.3770   19.0510  -33.2980 C   0  0  0  0  0  0  0  0  0  0  0  0
   -4.2340   18.6810  -33.9850 N   0  0  0  0  0  0  0  0  0  0  0  0
   -4.2740   17.5330  -34.9200 C   0  0  0  0  0  0  0  0  0  0  0  0
   -3.0630   19.3990  -33.8170 C   0  0  0  0  0  0  0  0  0  0  0  0
   -1.8140   18.9080  -34.2760 C   0  0  0  0  0  0  0  0  0  0  0  0
   -0.6390   19.6720  -34.1510 C   0  0  0  0  0  0  0  0  0  0  0  0
    0.6090   19.2200  -34.6080 O   0  0  0  0  0  0  0  0  0  0  0  0
    1.8610   19.7560  -34.1970 C   0  0  0  0  0  0  0  0  0  0  0  0
   -0.7020   20.9250  -33.5500 C   0  0  0  0  0  0  0  0  0  0  0  0
   -1.9070   21.4140  -33.0510 C   0  0  0  0  0  0  0  0  0  0  0  0
   -3.0890   20.6540  -33.1560 C   0  0  0  0  0  0  0  0  0  0  0  0
   -9.0218   23.0491  -30.9727 H   0  0  0  0  0  0  0  0  0  0  0  0
   -9.2246   23.9334  -32.5230 H   0  0  0  0  0  0  0  0  0  0  0  0
   -8.5797   22.2569  -32.5230 H   0  0  0  0  0  0  0  0  0  0  0  0
   -6.4677   22.9453  -32.0586 H   0  0  0  0  0  0  0  0  0  0  0  0
   -7.0707   24.5820  -32.5706 H   0  0  0  0  0  0  0  0  0  0  0  0
   -7.8067   24.7878  -30.0584 H   0  0  0  0  0  0  0  0  0  0  0  0
   -6.5674   23.4844  -29.8087 H   0  0  0  0  0  0  0  0  0  0  0  0
   -6.1298   26.2779  -30.9585 H   0  0  0  0  0  0  0  0  0  0  0  0
   -5.4713   25.5939  -29.4318 H   0  0  0  0  0  0  0  0  0  0  0  0
   -4.0950   25.6530  -31.5940 H   0  0  0  0  0  0  0  0  0  0  0  0
   -2.7017   24.5818  -30.3496 H   0  0  0  0  0  0  0  0  0  0  0  0
   -4.0871   24.1512  -29.2801 H   0  0  0  0  0  0  0  0  0  0  0  0
   -2.5207   22.4063  -30.9181 H   0  0  0  0  0  0  0  0  0  0  0  0
   -3.9859   22.0096  -29.9401 H   0  0  0  0  0  0  0  0  0  0  0  0
   -4.9770   23.1380  -32.3560 H   0  0  0  0  0  0  0  0  0  0  0  0
   -6.6571   21.6653  -31.4562 H   0  0  0  0  0  0  0  0  0  0  0  0
   -8.6439   20.1712  -31.4303 H   0  0  0  0  0  0  0  0  0  0  0  0
   -8.5441   17.9400  -32.5261 H   0  0  0  0  0  0  0  0  0  0  0  0
   -6.4765   17.2105  -33.6960 H   0  0  0  0  0  0  0  0  0  0  0  0
   -4.3067   16.5945  -34.3471 H   0  0  0  0  0  0  0  0  0  0  0  0
   -5.1701   17.6072  -35.5536 H   0  0  0  0  0  0  0  0  0  0  0  0
   -3.3749   17.5447  -35.5536 H   0  0  0  0  0  0  0  0  0  0  0  0
   -1.7629   17.9112  -34.7384 H   0  0  0  0  0  0  0  0  0  0  0  0
    1.9082   19.7762  -33.0982 H   0  0  0  0  0  0  0  0  0  0  0  0
    2.6749   19.1275  -34.5875 H   0  0  0  0  0  0  0  0  0  0  0  0
    1.9679   20.7788  -34.5875 H   0  0  0  0  0  0  0  0  0  0  0  0
    0.2091   21.5359  -33.4680 H   0  0  0  0  0  0  0  0  0  0  0  0
   -1.9362   22.4030  -32.5703 H   0  0  0  0  0  0  0  0  0  0  0  0
  1  2  1  0
  2  3  1  0
  3  4  1  0
  4  5  1  0
  5  6  1  0
  6  7  1  0
  7  8  1  0
  8  9  1  0
  9 10  2  0
 10 11  1  0
 11 12  2  0
 12 13  1  0
 13 14  2  0
 14 15  1  0
 15 16  2  0
 16 17  1  0
 16 18  1  0
 18 19  2  0
 19 20  1  0
 20 21  1  0
 21 22  1  0
 20 23  2  0
 23 24  1  0
 24 25  2  0
 25  9  1  0
 15 10  1  0
 25 18  1  0
  1 26  1  0
  1 27  1  0
  1 28  1  0
  2 29  1  0
  2 30  1  0
  3 31  1  0
  3 32  1  0
  4 33  1  0
  4 34  1  0
  5 35  1  0
  6 36  1  0
  6 37  1  0
  7 38  1  0
  7 39  1  0
  8 40  1  0
 11 41  1  0
 12 42  1  0
 13 43  1  0
 14 44  1  0
 17 45  1  0
 17 46  1  0
 17 47  1  0
 19 48  1  0
 22 49  1  0
 22 50  1  0
 22 51  1  0
 23 52  1  0
 24 53  1  0
M  CHG  1  16   1
M  END
>  <UniqueID>  (20) 
20

>  <SMILES>  (20) 
CCCCNCCNc1c2ccccc2[n+](C)c2cc(OC)ccc12

>  <Energy>  (20) 
72.01569906554806

>  <Genealogy>  (20) 
CCCCNCCNc1c2ccccc2[n+](C)c2cc(OC)ccc12 (3D coordinates assigned)
CCCCNCCNc1c2ccccc2[n+](C)c2cc(OC)ccc12 (optimized conformer: 72.01569906554806 kcal/mol)

>  <smiles>  (20) 
CCCCNCCNc1c2ccccc2[n+](C)c2cc(OC)ccc12

>  <score_type>  (20) 
oracle

>  <origin>  (20) 
adg

>  <m_score__min__energy>  (20) 
-8.7599999999999998

>  <m_primary>  (20) 
energy

$$$$
21:0
     RDKit          3D

 54 58  0  0  0  0  0  0  0  0999 V2000
   -4.2460   22.6990  -28.3660 C   0  0  0  0  0  0  0  0  0  0  0  0
   -4.1270   24.2060  -28.1850 C   0  0  0  0  0  0  0  0  0  0  0  0
   -5.2930   24.8720  -28.7800 N   0  0  0  0  0  0  0  0  0  0  0  0
   -5.0230   25.3650  -30.1400 C   0  0  0  0  0  0  0  0  0  0  0  0
   -5.7510   24.5430  -31.2190 C   0  0  0  0  0  0  0  0  0  0  0  0
   -6.0400   23.1870  -30.7470 N   0  0  0  0  0  0  0  0  0  0  0  0
   -6.0090   22.0160  -31.5850 C   0  0  0  0  0  0  0  0  0  0  0  0
   -4.8060   21.4900  -32.0630 C   0  0  0  0  0  0  0  0  0  0  0  0
   -4.7810   20.3010  -32.7630 C   0  0  0  0  0  0  0  0  0  0  0  0
   -5.9070   19.5360  -32.9420 N   0  0  0  0  0  0  0  0  0  0  0  0
   -5.7970   18.1300  -33.3590 C   0  0  0  0  0  0  0  0  0  0  0  0
   -7.1350   20.0970  -32.6370 C   0  0  0  0  0  0  0  0  0  0  0  0
   -8.3070   19.4890  -33.0160 N   0  0  0  0  0  0  0  0  0  0  0  0
   -9.5240   20.0050  -32.6940 C   0  0  0  0  0  0  0  0  0  0  0  0
   -9.6210   21.1900  -31.9760 C   0  0  0  0  0  0  0  0  0  0  0  0
   -8.4620   21.8610  -31.5980 C   0  0  0  0  0  0  0  0  0  0  0  0
   -7.2000   21.3340  -31.9240 C   0  0  0  0  0  0  0  0  0  0  0  0
   -3.3750   20.0290  -33.0830 C   0  0  0  0  0  0  0  0  0  0  0  0
   -2.8210   19.0770  -33.9460 C   0  0  0  0  0  0  0  0  0  0  0  0
   -1.4270   19.0610  -34.1230 C   0  0  0  0  0  0  0  0  0  0  0  0
   -0.8270   18.1000  -34.9520 C   0  0  0  0  0  0  0  0  0  0  0  0
    0.5590   18.0880  -35.1250 C   0  0  0  0  0  0  0  0  0  0  0  0
    1.3580   19.0350  -34.4800 C   0  0  0  0  0  0  0  0  0  0  0  0
    0.7770   20.0050  -33.6590 C   0  0  0  0  0  0  0  0  0  0  0  0
   -0.6180   20.0310  -33.4710 C   0  0  0  0  0  0  0  0  0  0  0  0
   -1.2410   21.0130  -32.6740 C   0  0  0  0  0  0  0  0  0  0  0  0
   -0.5650   21.9210  -32.1160 O   0  0  0  0  0  0  0  0  0  0  0  0
   -2.5940   20.9800  -32.5210 N   0  0  0  0  0  0  0  0  0  0  0  0
   -3.4070   21.9900  -31.8470 C   0  0  0  0  0  0  0  0  0  0  0  0
   -4.2844   22.2132  -27.3799 H   0  0  0  0  0  0  0  0  0  0  0  0
   -5.1652   22.4682  -28.9245 H   0  0  0  0  0  0  0  0  0  0  0  0
   -3.3744   22.3268  -28.9245 H   0  0  0  0  0  0  0  0  0  0  0  0
   -4.0797   24.4423  -27.1117 H   0  0  0  0  0  0  0  0  0  0  0  0
   -3.2126   24.5606  -28.6832 H   0  0  0  0  0  0  0  0  0  0  0  0
   -5.5790   25.6750  -28.1700 H   0  0  0  0  0  0  0  0  0  0  0  0
   -5.3558   26.4112  -30.2088 H   0  0  0  0  0  0  0  0  0  0  0  0
   -3.9420   25.2724  -30.3212 H   0  0  0  0  0  0  0  0  0  0  0  0
   -6.6969   25.0434  -31.4739 H   0  0  0  0  0  0  0  0  0  0  0  0
   -5.0990   24.4727  -32.1022 H   0  0  0  0  0  0  0  0  0  0  0  0
   -6.4350   23.0910  -29.7840 H   0  0  0  0  0  0  0  0  0  0  0  0
   -5.7466   17.4863  -32.4684 H   0  0  0  0  0  0  0  0  0  0  0  0
   -6.6765   17.8560  -33.9602 H   0  0  0  0  0  0  0  0  0  0  0  0
   -4.8856   17.9961  -33.9602 H   0  0  0  0  0  0  0  0  0  0  0  0
   -8.3100   18.6320  -33.6090 H   0  0  0  0  0  0  0  0  0  0  0  0
  -10.4388   19.4793  -33.0049 H   0  0  0  0  0  0  0  0  0  0  0  0
  -10.6077   21.5955  -31.7079 H   0  0  0  0  0  0  0  0  0  0  0  0
   -8.5335   22.8074  -31.0420 H   0  0  0  0  0  0  0  0  0  0  0  0
   -3.4628   18.3567  -34.4745 H   0  0  0  0  0  0  0  0  0  0  0  0
   -1.4503   17.3541  -35.4669 H   0  0  0  0  0  0  0  0  0  0  0  0
    1.0234   17.3293  -35.7721 H   0  0  0  0  0  0  0  0  0  0  0  0
    2.4490   19.0171  -34.6190 H   0  0  0  0  0  0  0  0  0  0  0  0
    1.4117   20.7507  -33.1579 H   0  0  0  0  0  0  0  0  0  0  0  0
   -3.1659   22.0418  -30.7750 H   0  0  0  0  0  0  0  0  0  0  0  0
   -3.2442   23.0076  -32.2317 H   0  0  0  0  0  0  0  0  0  0  0  0
  1  2  1  0
  2  3  1  0
  3  4  1  0
  4  5  1  0
  5  6  1  0
  6  7  1  0
  7  8  2  0
  8  9  1  0
  9 10  2  0
 10 11  1  0
 10 12  1  0
 12 13  2  0
 13 14  1  0
 14 15  2  0
 15 16  1  0
 16 17  2  0
  9 18  1  0
 18 19  2  0
 19 20  1  0
 20 21  2  0
 21 22  1  0
 22 23  2  0
 23 24  1  0
 24 25  2  0
 25 26  1  0
 26 27  2  0
 26 28  1  0
 28 29  1  0
 17  7  1  0
 28 18  1  0
 29  8  1  0
 17 12  1  0
 25 20  1  0
  1 30  1  0
  1 31  1  0
  1 32  1  0
  2 33  1  0
  2 34  1  0
  3 35  1  0
  4 36  1  0
  4 37  1  0
  5 38  1  0
  5 39  1  0
  6 40  1  0
 11 41  1  0
 11 42  1  0
 11 43  1  0
 13 44  1  0
 14 45  1  0
 15 46  1  0
 16 47  1  0
 19 48  1  0
 21 49  1  0
 22 50  1  0
 23 51  1  0
 24 52  1  0
 29 53  1  0
 29 54  1  0
M  CHG  2  10   1  13   1
M  END
>  <UniqueID>  (21) 
21

>  <SMILES>  (21) 
CCNCCNc1c2c([n+](C)c3[nH+]cccc13)-c1cc3ccccc3c(=O)n1C2

>  <Energy>  (21) 
104.33214343797877

>  <Genealogy>  (21) 
CCNCCNc1c2c([n+](C)c3[nH+]cccc13)-c1cc3ccccc3c(=O)n1C2 (protonated)
CCNCCNc1c2c([n+](C)c3[nH+]cccc13)-c1cc3ccccc3c(=O)n1C2 (3D coordinates assigned)
CCNCCNc1c2c([n+](C)c3[nH+]cccc13)-c1cc3ccccc3c(=O)n1C2 (nonaromatic ring conformer: 104.33214343797877 kcal/mol)

>  <smiles>  (21) 
CCNCCNc1c2c([n+](C)c3ncccc13)-c1cc3ccccc3c(=O)n1C2

>  <score_type>  (21) 
oracle

>  <origin>  (21) 
adg

>  <m_score__min__energy>  (21) 
-8.8000000000000007

>  <m_primary>  (21) 
energy

$$$$
22:0
     RDKit          3D

 38 39  0  0  0  0  0  0  0  0999 V2000
   -8.3690   18.5690  -31.6440 C   0  0  0  0  0  0  0  0  0  0  0  0
   -9.1230   19.5720  -32.5090 C   0  0  0  0  0  0  0  0  0  0  0  0
   -8.2300   20.5420  -33.0570 O   0  0  0  0  0  0  0  0  0  0  0  0
   -7.4500   21.4510  -32.3190 C   0  0  0  0  0  0  0  0  0  0  0  0
   -8.0250   22.4710  -31.5350 C   0  0  0  0  0  0  0  0  0  0  0  0
   -7.2170   23.3470  -30.8090 C   0  0  0  0  0  0  0  0  0  0  0  0
   -5.8240   23.2190  -30.8460 C   0  0  0  0  0  0  0  0  0  0  0  0
   -4.8080   24.3130  -29.9060 S   0  0  0  0  0  0  0  0  0  0  0  0
   -4.0780   25.2360  -30.8420 O   0  0  0  0  0  0  0  0  0  0  0  0
   -5.6910   25.1570  -29.0280 O   0  0  0  0  0  0  0  0  0  0  0  0
   -3.6490   23.4620  -28.9050 N   0  0  0  0  0  0  0  0  0  0  0  0
   -2.4270   23.0790  -29.6450 C   0  0  0  0  0  0  0  0  0  0  0  0
   -1.2350   24.0060  -29.3520 C   0  0  0  0  0  0  0  0  0  0  0  0
   -1.6860   25.3020  -29.0380 O   0  0  0  0  0  0  0  0  0  0  0  0
   -2.3280   25.2910  -27.7790 C   0  0  0  0  0  0  0  0  0  0  0  0
   -3.3760   24.1610  -27.6360 C   0  0  0  0  0  0  0  0  0  0  0  0
   -5.2440   22.2140  -31.6290 C   0  0  0  0  0  0  0  0  0  0  0  0
   -6.0480   21.3270  -32.3630 C   0  0  0  0  0  0  0  0  0  0  0  0
   -5.4120   20.2390  -33.1830 C   0  0  0  0  0  0  0  0  0  0  0  0
   -8.5413   18.7982  -30.5820 H   0  0  0  0  0  0  0  0  0  0  0  0
   -8.7287   17.5528  -31.8628 H   0  0  0  0  0  0  0  0  0  0  0  0
   -7.2928   18.6321  -31.8628 H   0  0  0  0  0  0  0  0  0  0  0  0
   -9.6218   19.0366  -33.3303 H   0  0  0  0  0  0  0  0  0  0  0  0
   -9.8646   20.0898  -31.8829 H   0  0  0  0  0  0  0  0  0  0  0  0
   -9.1191   22.5775  -31.4950 H   0  0  0  0  0  0  0  0  0  0  0  0
   -7.6775   24.1423  -30.2045 H   0  0  0  0  0  0  0  0  0  0  0  0
   -2.1517   22.0526  -29.3608 H   0  0  0  0  0  0  0  0  0  0  0  0
   -2.6521   23.1598  -30.7187 H   0  0  0  0  0  0  0  0  0  0  0  0
   -0.6646   23.6048  -28.5013 H   0  0  0  0  0  0  0  0  0  0  0  0
   -0.5956   24.0578  -30.2455 H   0  0  0  0  0  0  0  0  0  0  0  0
   -1.5640   25.1594  -26.9986 H   0  0  0  0  0  0  0  0  0  0  0  0
   -2.8634   26.2466  -27.6780 H   0  0  0  0  0  0  0  0  0  0  0  0
   -3.0030   23.4279  -26.9056 H   0  0  0  0  0  0  0  0  0  0  0  0
   -4.3175   24.6261  -27.3084 H   0  0  0  0  0  0  0  0  0  0  0  0
   -4.1489   22.1182  -31.6697 H   0  0  0  0  0  0  0  0  0  0  0  0
   -4.9715   19.4854  -32.5137 H   0  0  0  0  0  0  0  0  0  0  0  0
   -6.1750   19.7646  -33.8176 H   0  0  0  0  0  0  0  0  0  0  0  0
   -4.6242   20.6711  -33.8176 H   0  0  0  0  0  0  0  0  0  0  0  0
  1  2  1  0
  2  3  1  0
  3  4  1  0
  4  5  2  0
  5  6  1  0
  6  7  2  0
  7  8  1  0
  8  9  2  0
  8 10  2  0
  8 11  1  0
 11 12  1  0
 12 13  1  0
 13 14  1  0
 14 15  1  0
 15 16  1  0
  7 17  1  0
 17 18  2  0
 18 19  1  0
 18  4  1  0
 16 11  1  0
  1 20  1  0
  1 21  1  0
  1 22  1  0
  2 23  1  0
  2 24  1  0
  5 25  1  0
  6 26  1  0
 12 27  1  0
 12 28  1  0
 13 29  1  0
 13 30  1  0
 15 31  1  0
 15 32  1  0
 16 33  1  0
 16 34  1  0
 17 35  1  0
 19 36  1  0
 19 37  1  0
 19 38  1  0
M  END
>  <UniqueID>  (22) 
22

>  <SMILES>  (22) 
CCOc1ccc(S(=O)(=O)N2CCOCC2)cc1C

>  <Energy>  (22) 
45.04996196774801

>  <Genealogy>  (22) 
CCOc1ccc(S(=O)(=O)N2CCOCC2)cc1C (3D coordinates assigned)
CCOc1ccc(S(=O)(=O)N2CCOCC2)cc1C (nonaromatic ring conformer: 45.04996196774801 kcal/mol)

>  <smiles>  (22) 
CCOc1ccc(S(=O)(=O)N2CCOCC2)cc1C

>  <score_type>  (22) 
oracle

>  <origin>  (22) 
adg

>  <m_score__min__energy>  (22) 
-7.9199999999999999

>  <m_primary>  (22) 
energy

$$$$
23:0
     RDKit          3D

 41 44  0  0  0  0  0  0  0  0999 V2000
   -6.8570   25.5410  -29.6300 C   0  0  0  0  0  0  0  0  0  0  0  0
   -5.7430   25.0860  -29.5730 C   0  0  0  0  0  0  0  0  0  0  0  0
   -4.3880   24.5330  -29.5040 C   0  0  0  0  0  0  0  0  0  0  0  0
   -3.8830   24.3000  -30.8620 N   0  0  0  0  0  0  0  0  0  0  0  0
   -3.5450   22.8860  -31.0860 C   0  0  0  0  0  0  0  0  0  0  0  0
   -4.7060   22.1070  -31.6820 C   0  0  0  0  0  0  0  0  0  0  0  0
   -5.9990   22.3970  -31.2190 C   0  0  0  0  0  0  0  0  0  0  0  0
   -7.0920   21.6390  -31.6460 C   0  0  0  0  0  0  0  0  0  0  0  0
   -8.3890   21.9210  -31.1890 C   0  0  0  0  0  0  0  0  0  0  0  0
   -9.4680   21.1450  -31.6220 C   0  0  0  0  0  0  0  0  0  0  0  0
   -9.2580   20.0840  -32.5070 C   0  0  0  0  0  0  0  0  0  0  0  0
   -7.9690   19.7950  -32.9650 C   0  0  0  0  0  0  0  0  0  0  0  0
   -6.8780   20.5690  -32.5380 C   0  0  0  0  0  0  0  0  0  0  0  0
   -5.6170   20.2940  -32.9780 N   0  0  0  0  0  0  0  0  0  0  0  0
   -4.5370   21.0360  -32.5960 C   0  0  0  0  0  0  0  0  0  0  0  0
   -3.2170   20.6610  -33.1380 C   0  0  0  0  0  0  0  0  0  0  0  0
   -2.1230   21.5110  -33.2930 C   0  0  0  0  0  0  0  0  0  0  0  0
   -1.1560   20.7160  -33.8610 C   0  0  0  0  0  0  0  0  0  0  0  0
    0.1520   21.0030  -34.2470 C   0  0  0  0  0  0  0  0  0  0  0  0
    0.9100   19.9610  -34.8140 C   0  0  0  0  0  0  0  0  0  0  0  0
    0.3460   18.6750  -34.9810 C   0  0  0  0  0  0  0  0  0  0  0  0
   -0.9780   18.4200  -34.5840 C   0  0  0  0  0  0  0  0  0  0  0  0
   -1.7030   19.4710  -34.0240 C   0  0  0  0  0  0  0  0  0  0  0  0
   -2.9400   19.4530  -33.5940 O   0  0  0  0  0  0  0  0  0  0  0  0
   -7.8742   25.9565  -29.6820 H   0  0  0  0  0  0  0  0  0  0  0  0
   -3.7283   25.2438  -28.9848 H   0  0  0  0  0  0  0  0  0  0  0  0
   -4.4090   23.5811  -28.9531 H   0  0  0  0  0  0  0  0  0  0  0  0
   -4.6130   24.5950  -31.5530 H   0  0  0  0  0  0  0  0  0  0  0  0
   -2.6899   22.8309  -31.7757 H   0  0  0  0  0  0  0  0  0  0  0  0
   -3.3018   22.4378  -30.1113 H   0  0  0  0  0  0  0  0  0  0  0  0
   -6.1528   23.2276  -30.5144 H   0  0  0  0  0  0  0  0  0  0  0  0
   -8.5564   22.7533  -30.4896 H   0  0  0  0  0  0  0  0  0  0  0  0
  -10.4841   21.3698  -31.2656 H   0  0  0  0  0  0  0  0  0  0  0  0
  -10.1093   19.4745  -32.8442 H   0  0  0  0  0  0  0  0  0  0  0  0
   -7.8091   18.9590  -33.6618 H   0  0  0  0  0  0  0  0  0  0  0  0
   -5.4740   19.4980  -33.6430 H   0  0  0  0  0  0  0  0  0  0  0  0
   -2.0502   22.5748  -33.0226 H   0  0  0  0  0  0  0  0  0  0  0  0
    0.5773   22.0086  -34.1133 H   0  0  0  0  0  0  0  0  0  0  0  0
    1.9472   20.1482  -35.1290 H   0  0  0  0  0  0  0  0  0  0  0  0
    0.9479   17.8683  -35.4249 H   0  0  0  0  0  0  0  0  0  0  0  0
   -1.4274   17.4240  -34.7110 H   0  0  0  0  0  0  0  0  0  0  0  0
  1  2  3  0
  2  3  1  0
  3  4  1  0
  4  5  1  0
  5  6  1  0
  6  7  2  0
  7  8  1  0
  8  9  2  0
  9 10  1  0
 10 11  2  0
 11 12  1  0
 12 13  2  0
 13 14  1  0
 14 15  2  0
 15 16  1  0
 16 17  2  0
 17 18  1  0
 18 19  2  0
 19 20  1  0
 20 21  2  0
 21 22  1  0
 22 23  2  0
 23 24  1  0
 15  6  1  0
 24 16  1  0
 13  8  1  0
 23 18  1  0
  1 25  1  0
  3 26  1  0
  3 27  1  0
  4 28  1  0
  5 29  1  0
  5 30  1  0
  7 31  1  0
  9 32  1  0
 10 33  1  0
 11 34  1  0
 12 35  1  0
 14 36  1  0
 17 37  1  0
 19 38  1  0
 20 39  1  0
 21 40  1  0
 22 41  1  0
M  CHG  1  14   1
M  END
>  <UniqueID>  (23) 
23

>  <SMILES>  (23) 
C#CCNCc1cc2ccccc2[nH+]c1-c1cc2ccccc2o1

>  <Energy>  (23) 
86.5840214943372

>  <Genealogy>  (23) 
C#CCNCc1cc2ccccc2[nH+]c1-c1cc2ccccc2o1 (protonated)
C#CCNCc1cc2ccccc2[nH+]c1-c1cc2ccccc2o1 (3D coordinates assigned)
C#CCNCc1cc2ccccc2[nH+]c1-c1cc2ccccc2o1 (optimized conformer: 86.5840214943372 kcal/mol)

>  <smiles>  (23) 
C#CCNCc1cc2ccccc2nc1-c1cc2ccccc2o1

>  <score_type>  (23) 
oracle

>  <origin>  (23) 
adg

>  <m_score__min__energy>  (23) 
-7.2400000000000002

>  <m_primary>  (23) 
energy

$$$$
24:0
     RDKit          3D

119120  0  0  0  0  0  0  0  0999 V2000
    1.4630   16.6140  -32.6190 C   0  0  0  0  0  0  0  0  0  0  0  0
    2.0570   17.9540  -33.0280 C   0  0  0  0  0  0  0  0  0  0  0  0
    2.0470   18.0510  -34.4310 O   0  0  0  0  0  0  0  0  0  0  0  0
    1.8370   19.3640  -34.7190 N   0  0  0  0  0  0  0  0  0  0  0  0
    3.0430   19.8910  -35.3660 C   0  0  0  0  0  0  0  0  0  0  0  0
    2.9650   21.4180  -35.5270 C   0  0  0  0  0  0  0  0  0  0  0  0
    1.7170   21.8670  -36.3050 C   0  0  0  0  0  0  0  0  0  0  0  0
    0.6010   22.3140  -35.3540 C   0  0  0  0  0  0  0  0  0  0  0  0
   -0.1370   21.1390  -34.8580 N   0  0  0  0  0  0  0  0  0  0  0  0
   -0.8300   21.3710  -33.5800 C   0  0  0  0  0  0  0  0  0  0  0  0
   -0.3350   20.4810  -32.4190 C   0  0  0  0  0  0  0  0  0  0  0  0
   -0.9820   19.0840  -32.3400 C   0  0  0  0  0  0  0  0  0  0  0  0
   -1.7190   18.6550  -33.6210 C   0  0  0  0  0  0  0  0  0  0  0  0
   -0.8350   18.6080  -34.7960 N   0  0  0  0  0  0  0  0  0  0  0  0
   -0.6770   17.2370  -35.3140 C   0  0  0  0  0  0  0  0  0  0  0  0
   -1.8320   16.3320  -34.8550 C   0  0  0  0  0  0  0  0  0  0  0  0
   -1.6600   14.8720  -35.3220 C   0  0  0  0  0  0  0  0  0  0  0  0
   -1.5850   13.9270  -34.1950 N   0  0  0  0  0  0  0  0  0  0  0  0
   -1.4010   14.6130  -32.9050 C   0  0  0  0  0  0  0  0  0  0  0  0
   -1.7010   13.6680  -31.7320 C   0  0  0  0  0  0  0  0  0  0  0  0
   -3.1970   13.3590  -31.5420 C   0  0  0  0  0  0  0  0  0  0  0  0
   -3.9990   13.8750  -32.6680 N   0  0  0  0  0  0  0  0  0  0  0  0
   -4.6310   15.1600  -32.3360 C   0  0  0  0  0  0  0  0  0  0  0  0
   -5.6440   15.5970  -33.4070 C   0  0  0  0  0  0  0  0  0  0  0  0
   -4.9560   16.2620  -34.6050 C   0  0  0  0  0  0  0  0  0  0  0  0
   -5.4260   17.6440  -34.8050 N   0  0  0  0  0  0  0  0  0  0  0  0
   -4.8140   18.6130  -33.8770 C   0  0  0  0  0  0  0  0  0  0  0  0
   -5.5930   19.9370  -33.8910 C   0  0  0  0  0  0  0  0  0  0  0  0
   -6.5360   19.9770  -32.7610 N   0  0  0  0  0  0  0  0  0  0  0  0
   -6.2860   18.8770  -31.8200 C   0  0  0  0  0  0  0  0  0  0  0  0
   -7.4440   17.8700  -31.8720 C   0  0  0  0  0  0  0  0  0  0  0  0
   -8.8150   18.5600  -31.7920 C   0  0  0  0  0  0  0  0  0  0  0  0
   -8.7160   19.9590  -31.3270 N   0  0  0  0  0  0  0  0  0  0  0  0
   -9.5390   20.8990  -32.1080 C   0  0  0  0  0  0  0  0  0  0  0  0
   -9.4670   22.3090  -31.5000 C   0  0  0  0  0  0  0  0  0  0  0  0
   -8.3090   23.1160  -32.0990 C   0  0  0  0  0  0  0  0  0  0  0  0
   -7.0310   22.4090  -31.9320 N   0  0  0  0  0  0  0  0  0  0  0  0
   -6.1000   23.2180  -31.1730 C   0  0  0  0  0  0  0  0  0  0  0  0
   -6.4700   24.5400  -30.8540 C   0  0  0  0  0  0  0  0  0  0  0  0
   -5.6070   25.3790  -30.1470 C   0  0  0  0  0  0  0  0  0  0  0  0
   -4.3420   24.9330  -29.7760 C   0  0  0  0  0  0  0  0  0  0  0  0
   -3.9280   23.6340  -30.1030 C   0  0  0  0  0  0  0  0  0  0  0  0
   -2.6500   23.1990  -29.7210 C   0  0  0  0  0  0  0  0  0  0  0  0
   -2.2200   21.9150  -30.0440 C   0  0  0  0  0  0  0  0  0  0  0  0
   -3.0580   21.0510  -30.7460 C   0  0  0  0  0  0  0  0  0  0  0  0
   -4.3390   21.4580  -31.1230 C   0  0  0  0  0  0  0  0  0  0  0  0
   -4.8030   22.7550  -30.8030 C   0  0  0  0  0  0  0  0  0  0  0  0
    1.4328   16.5460  -31.5215 H   0  0  0  0  0  0  0  0  0  0  0  0
    0.4423   16.5277  -33.0199 H   0  0  0  0  0  0  0  0  0  0  0  0
    2.0845   15.7997  -33.0199 H   0  0  0  0  0  0  0  0  0  0  0  0
    1.4574   18.7697  -32.5978 H   0  0  0  0  0  0  0  0  0  0  0  0
    3.0900   18.0307  -32.6579 H   0  0  0  0  0  0  0  0  0  0  0  0
    1.0690   19.3950  -35.4340 H   0  0  0  0  0  0  0  0  0  0  0  0
    3.9194   19.6393  -34.7508 H   0  0  0  0  0  0  0  0  0  0  0  0
    3.1281   19.4391  -36.3653 H   0  0  0  0  0  0  0  0  0  0  0  0
    2.9413   21.8770  -34.5276 H   0  0  0  0  0  0  0  0  0  0  0  0
    3.8480   21.7384  -36.0995 H   0  0  0  0  0  0  0  0  0  0  0  0
    1.9867   22.7073  -36.9616 H   0  0  0  0  0  0  0  0  0  0  0  0
    1.3501   21.0149  -36.8959 H   0  0  0  0  0  0  0  0  0  0  0  0
    1.0417   22.8537  -34.5028 H   0  0  0  0  0  0  0  0  0  0  0  0
   -0.0923   22.9748  -35.8950 H   0  0  0  0  0  0  0  0  0  0  0  0
    0.4970   20.3080  -34.8020 H   0  0  0  0  0  0  0  0  0  0  0  0
   -0.6834   22.4231  -33.2945 H   0  0  0  0  0  0  0  0  0  0  0  0
   -1.8875   21.1164  -33.7439 H   0  0  0  0  0  0  0  0  0  0  0  0
    0.7509   20.3470  -32.5322 H   0  0  0  0  0  0  0  0  0  0  0  0
   -0.6197   21.0017  -31.4928 H   0  0  0  0  0  0  0  0  0  0  0  0
   -0.1901   18.3485  -32.1353 H   0  0  0  0  0  0  0  0  0  0  0  0
   -1.7378   19.1311  -31.5421 H   0  0  0  0  0  0  0  0  0  0  0  0
   -2.1469   17.6542  -33.4623 H   0  0  0  0  0  0  0  0  0  0  0  0
   -2.4992   19.4039  -33.8220 H   0  0  0  0  0  0  0  0  0  0  0  0
    0.1070   18.9460  -34.4780 H   0  0  0  0  0  0  0  0  0  0  0  0
   -0.6612   17.2686  -36.4134 H   0  0  0  0  0  0  0  0  0  0  0  0
    0.2649   16.8240  -34.9239 H   0  0  0  0  0  0  0  0  0  0  0  0
   -1.8772   16.3478  -33.7560 H   0  0  0  0  0  0  0  0  0  0  0  0
   -2.7587   16.7194  -35.3036 H   0  0  0  0  0  0  0  0  0  0  0  0
   -2.5179   14.6001  -35.9545 H   0  0  0  0  0  0  0  0  0  0  0  0
   -0.7129   14.8071  -35.8776 H   0  0  0  0  0  0  0  0  0  0  0  0
   -2.4750   13.3730  -34.1640 H   0  0  0  0  0  0  0  0  0  0  0  0
   -0.3608   14.9626  -32.8285 H   0  0  0  0  0  0  0  0  0  0  0  0
   -2.0974   15.4631  -32.8574 H   0  0  0  0  0  0  0  0  0  0  0  0
   -1.1718   12.7198  -31.9080 H   0  0  0  0  0  0  0  0  0  0  0  0
   -1.3636   14.1789  -30.8182 H   0  0  0  0  0  0  0  0  0  0  0  0
   -3.3321   12.2693  -31.4758 H   0  0  0  0  0  0  0  0  0  0  0  0
   -3.5383   13.8507  -30.6191 H   0  0  0  0  0  0  0  0  0  0  0  0
   -3.3440   14.0670  -33.4670 H   0  0  0  0  0  0  0  0  0  0  0  0
   -5.1530   15.0608  -31.3728 H   0  0  0  0  0  0  0  0  0  0  0  0
   -3.8411   15.9238  -32.2835 H   0  0  0  0  0  0  0  0  0  0  0  0
   -6.1941   14.7118  -33.7588 H   0  0  0  0  0  0  0  0  0  0  0  0
   -6.3252   16.3318  -32.9532 H   0  0  0  0  0  0  0  0  0  0  0  0
   -3.8702   16.2766  -34.4296 H   0  0  0  0  0  0  0  0  0  0  0  0
   -5.2018   15.6822  -35.5069 H   0  0  0  0  0  0  0  0  0  0  0  0
   -6.4600   17.6470  -34.6310 H   0  0  0  0  0  0  0  0  0  0  0  0
   -4.8261   18.1966  -32.8589 H   0  0  0  0  0  0  0  0  0  0  0  0
   -3.7789   18.8058  -34.1955 H   0  0  0  0  0  0  0  0  0  0  0  0
   -4.8869   20.7762  -33.8064 H   0  0  0  0  0  0  0  0  0  0  0  0
   -6.1545   20.0162  -34.8336 H   0  0  0  0  0  0  0  0  0  0  0  0
   -7.5000   19.8540  -33.1410 H   0  0  0  0  0  0  0  0  0  0  0  0
   -5.3490   18.3695  -32.0931 H   0  0  0  0  0  0  0  0  0  0  0  0
   -6.2059   19.2838  -30.8011 H   0  0  0  0  0  0  0  0  0  0  0  0
   -7.3839   17.3090  -32.8163 H   0  0  0  0  0  0  0  0  0  0  0  0
   -7.3504   17.2014  -31.0036 H   0  0  0  0  0  0  0  0  0  0  0  0
   -9.2733   18.5518  -32.7919 H   0  0  0  0  0  0  0  0  0  0  0  0
   -9.4263   18.0072  -31.0635 H   0  0  0  0  0  0  0  0  0  0  0  0
   -9.0570   19.9800  -30.3370 H   0  0  0  0  0  0  0  0  0  0  0  0
   -9.1681   20.9315  -33.1431 H   0  0  0  0  0  0  0  0  0  0  0  0
  -10.5842   20.5566  -32.0909 H   0  0  0  0  0  0  0  0  0  0  0  0
  -10.4120   22.8347  -31.7016 H   0  0  0  0  0  0  0  0  0  0  0  0
   -9.2987   22.2118  -30.4173 H   0  0  0  0  0  0  0  0  0  0  0  0
   -8.4963   23.2716  -33.1717 H   0  0  0  0  0  0  0  0  0  0  0  0
   -8.2465   24.0807  -31.5742 H   0  0  0  0  0  0  0  0  0  0  0  0
   -6.6280   22.1530  -32.8590 H   0  0  0  0  0  0  0  0  0  0  0  0
   -7.1950   21.5030  -31.4310 H   0  0  0  0  0  0  0  0  0  0  0  0
   -7.4548   24.9168  -31.1672 H   0  0  0  0  0  0  0  0  0  0  0  0
   -5.9282   26.3971  -29.8820 H   0  0  0  0  0  0  0  0  0  0  0  0
   -3.6648   25.6017  -29.2245 H   0  0  0  0  0  0  0  0  0  0  0  0
   -1.9850   23.8754  -29.1639 H   0  0  0  0  0  0  0  0  0  0  0  0
   -1.2156   21.5815  -29.7441 H   0  0  0  0  0  0  0  0  0  0  0  0
   -2.7076   20.0410  -31.0050 H   0  0  0  0  0  0  0  0  0  0  0  0
   -4.9923   20.7647  -31.6730 H   0  0  0  0  0  0  0  0  0  0  0  0
  1  2  1  0
  2  3  1  0
  3  4  1  0
  4  5  1  0
  5  6  1  0
  6  7  1  0
  7  8  1  0
  8  9  1  0
  9 10  1  0
 10 11  1  0
 11 12  1  0
 12 13  1  0
 13 14  1  0
 14 15  1  0
 15 16  1  0
 16 17  1  0
 17 18  1  0
 18 19  1  0
 19 20  1  0
 20 21  1  0
 21 22  1  0
 22 23  1  0
 23 24  1  0
 24 25  1  0
 25 26  1  0
 26 27  1  0
 27 28  1  0
 28 29  1  0
 29 30  1  0
 30 31  1  0
 31 32  1  0
 32 33  1  0
 33 34  1  0
 34 35  1  0
 35 36  1  0
 36 37  1  0
 37 38  1  0
 38 39  2  0
 39 40  1  0
 40 41  2  0
 41 42  1  0
 42 43  2  0
 43 44  1  0
 44 45  2  0
 45 46  1  0
 46 47  2  0
 47 38  1  0
 47 42  1  0
  1 48  1  0
  1 49  1  0
  1 50  1  0
  2 51  1  0
  2 52  1  0
  4 53  1  0
  5 54  1  0
  5 55  1  0
  6 56  1  0
  6 57  1  0
  7 58  1  0
  7 59  1  0
  8 60  1  0
  8 61  1  0
  9 62  1  0
 10 63  1  0
 10 64  1  0
 11 65  1  0
 11 66  1  0
 12 67  1  0
 12 68  1  0
 13 69  1  0
 13 70  1  0
 14 71  1  0
 15 72  1  0
 15 73  1  0
 16 74  1  0
 16 75  1  0
 17 76  1  0
 17 77  1  0
 18 78  1  0
 19 79  1  0
 19 80  1  0
 20 81  1  0
 20 82  1  0
 21 83  1  0
 21 84  1  0
 22 85  1  0
 23 86  1  0
 23 87  1  0
 24 88  1  0
 24 89  1  0
 25 90  1  0
 25 91  1  0
 26 92  1  0
 27 93  1  0
 27 94  1  0
 28 95  1  0
 28 96  1  0
 29 97  1  0
 30 98  1  0
 30 99  1  0
 31100  1  0
 31101  1  0
 32102  1  0
 32103  1  0
 33104  1  0
 34105  1  0
 34106  1  0
 35107  1  0
 35108  1  0
 36109  1  0
 36110  1  0
 37111  1  0
 37112  1  0
 39113  1  0
 40114  1  0
 41115  1  0
 43116  1  0
 44117  1  0
 45118  1  0
 46119  1  0
M  CHG  1  37   1
M  END
>  <UniqueID>  (24) 
24

>  <SMILES>  (24) 
CCONCCCCNCCCCNCCCNCCCNCCCNCCNCCCNCCC[NH2+]c1cccc2ccccc12

>  <Energy>  (24) 
96.13128032528034

>  <Genealogy>  (24) 
CCONCCCCNCCCCNCCCNCCCNCCCNCCNCCCNCCC[NH2+]c1cccc2ccccc12 (protonated)
CCONCCCCNCCCCNCCCNCCCNCCCNCCNCCCNCCC[NH2+]c1cccc2ccccc12 (3D coordinates assigned)
CCONCCCCNCCCCNCCCNCCCNCCCNCCNCCCNCCC[NH2+]c1cccc2ccccc12 (optimized conformer: 96.13128032528034 kcal/mol)

>  <smiles>  (24) 
CCONCCCCNCCCCNCCCNCCCNCCCNCCNCCCNCCCNc1cccc2ccccc12

>  <score_type>  (24) 
oracle

>  <origin>  (24) 
adg

>  <m_score__min__energy>  (24) 
-6.3200000000000003

>  <m_primary>  (24) 
energy

$$$$
