0:0
     RDKit          3D

 51 55  0  0  0  0  0  0  0  0999 V2000
    0.3455   26.6855  -22.9043 H   0  0  0  0  0  0  0  0  0  0  0  0
   -0.0830   26.2140  -23.8010 C   0  0  0  0  0  0  0  0  0  0  0  0
    0.5420   25.1530  -24.3750 N   0  0  0  0  0  0  0  0  0  0  0  0
    0.0410   24.5390  -25.4800 C   0  0  0  0  0  0  0  0  0  0  0  0
    0.5730   23.6818  -25.9182 H   0  0  0  0  0  0  0  0  0  0  0  0
   -1.1530   24.9940  -26.0650 C   0  0  0  0  0  0  0  0  0  0  0  0
   -1.7060   24.3410  -27.2770 C   0  0  0  0  0  0  0  0  0  0  0  0
   -2.3320   25.1170  -28.2680 C   0  0  0  0  0  0  0  0  0  0  0  0
   -2.4087   26.2065  -28.1374 H   0  0  0  0  0  0  0  0  0  0  0  0
   -2.8620   24.5160  -29.4260 C   0  0  0  0  0  0  0  0  0  0  0  0
   -3.4880   25.2630  -30.4360 O   0  0  0  0  0  0  0  0  0  0  0  0
   -4.8720   25.5970  -30.4540 C   0  0  0  0  0  0  0  0  0  0  0  0
   -5.2411   25.6861  -29.4216 H   0  0  0  0  0  0  0  0  0  0  0  0
   -5.0113   26.5546  -30.9771 H   0  0  0  0  0  0  0  0  0  0  0  0
   -5.4327   24.8084  -30.9771 H   0  0  0  0  0  0  0  0  0  0  0  0
   -2.7640   23.1240  -29.5830 C   0  0  0  0  0  0  0  0  0  0  0  0
   -3.3060   22.4870  -30.7580 N   0  0  0  0  0  0  0  0  0  0  0  0
   -2.4350   22.0480  -31.7240 C   0  0  0  0  0  0  0  0  0  0  0  0
   -1.1890   22.1880  -31.5780 O   0  0  0  0  0  0  0  0  0  0  0  0
   -2.9100   21.4420  -32.8890 C   0  0  0  0  0  0  0  0  0  0  0  0
   -2.2038   21.0894  -33.6551 H   0  0  0  0  0  0  0  0  0  0  0  0
   -4.2780   21.2860  -33.0770 C   0  0  0  0  0  0  0  0  0  0  0  0
   -4.6566   20.8158  -33.9965 H   0  0  0  0  0  0  0  0  0  0  0  0
   -5.1720   21.7260  -32.0990 C   0  0  0  0  0  0  0  0  0  0  0  0
   -6.5540   21.5690  -32.2820 C   0  0  0  0  0  0  0  0  0  0  0  0
   -6.9342   21.0958  -33.1994 H   0  0  0  0  0  0  0  0  0  0  0  0
   -7.4510   22.0110  -31.3040 C   0  0  0  0  0  0  0  0  0  0  0  0
   -9.1840   21.8290  -31.5580 S   0  0  0  0  0  0  0  0  0  0  0  0
   -9.7110   22.9350  -32.4280 O   0  0  0  0  0  0  0  0  0  0  0  0
   -9.8780   21.8810  -30.2270 O   0  0  0  0  0  0  0  0  0  0  0  0
   -9.5190   20.3040  -32.3150 N   0  0  0  0  0  0  0  0  0  0  0  0
   -8.6460   19.3530  -32.4640 C   0  0  0  0  0  0  0  0  0  0  0  0
   -7.7150   19.3650  -33.4330 N   0  0  0  0  0  0  0  0  0  0  0  0
   -7.0250   18.2700  -33.2910 O   0  0  0  0  0  0  0  0  0  0  0  0
   -7.4630   17.5530  -32.2800 C   0  0  0  0  0  0  0  0  0  0  0  0
   -7.0502   16.5872  -31.9531 H   0  0  0  0  0  0  0  0  0  0  0  0
   -8.5250   18.2110  -31.6970 C   0  0  0  0  0  0  0  0  0  0  0  0
   -9.1291   17.9016  -30.8314 H   0  0  0  0  0  0  0  0  0  0  0  0
   -6.9650   22.5970  -30.1310 C   0  0  0  0  0  0  0  0  0  0  0  0
   -7.6692   22.9341  -29.3561 H   0  0  0  0  0  0  0  0  0  0  0  0
   -5.5910   22.7570  -29.9370 C   0  0  0  0  0  0  0  0  0  0  0  0
   -5.2231   23.2182  -29.0086 H   0  0  0  0  0  0  0  0  0  0  0  0
   -4.6680   22.3330  -30.9200 C   0  0  0  0  0  0  0  0  0  0  0  0
   -2.1450   22.3490  -28.5970 C   0  0  0  0  0  0  0  0  0  0  0  0
   -2.0713   21.2592  -28.7267 H   0  0  0  0  0  0  0  0  0  0  0  0
   -1.6200   22.9460  -27.4500 C   0  0  0  0  0  0  0  0  0  0  0  0
   -1.0640   22.1590  -26.4950 F   0  0  0  0  0  0  0  0  0  0  0  0
   -1.8030   26.0960  -25.4840 C   0  0  0  0  0  0  0  0  0  0  0  0
   -2.7352   26.4785  -25.9253 H   0  0  0  0  0  0  0  0  0  0  0  0
   -1.2690   26.7060  -24.3490 C   0  0  0  0  0  0  0  0  0  0  0  0
   -1.7776   27.5666  -23.8900 H   0  0  0  0  0  0  0  0  0  0  0  0
  1  2  1  0
  2  3  2  0
  3  4  1  0
  4  5  1  0
  4  6  2  0
  6  7  1  0
  7  8  2  0
  8  9  1  0
  8 10  1  0
 10 11  1  0
 11 12  1  0
 12 13  1  0
 12 14  1  0
 12 15  1  0
 10 16  2  0
 16 17  1  0
 17 18  1  0
 18 19  2  0
 18 20  1  0
 20 21  1  0
 20 22  2  0
 22 23  1  0
 22 24  1  0
 24 25  2  0
 25 26  1  0
 25 27  1  0
 27 28  1  0
 28 29  2  0
 28 30  2  0
 28 31  1  0
 31 32  2  0
 32 33  1  0
 33 34  1  0
 34 35  1  0
 35 36  1  0
 35 37  2  0
 37 38  1  0
 27 39  2  0
 39 40  1  0
 39 41  1  0
 41 42  1  0
 41 43  2  0
 16 44  1  0
 44 45  1  0
 44 46  2  0
 46 47  1  0
  6 48  1  0
 48 49  1  0
 48 50  2  0
 50 51  1  0
 50  2  1  0
 46  7  1  0
 43 17  1  0
 43 24  1  0
 37 32  1  0
M  CHG  1  33  -1
M  END
>  <UniqueID>  (1) 
1

>  <SMILES>  (1) 
COc1cc(-c2cccnc2)c(F)cc1-n1c(=O)ccc2cc(S(=O)(=O)/N=c3\cco[n-]3)ccc21

>  <Energy>  (1) 
113.38847374119536

>  <Genealogy>  (1) 
COc1cc(-c2cccnc2)c(F)cc1-n1c(=O)ccc2cc(S(=O)(=O)N=c3cco[n-]3)ccc21 (protonated)
COc1cc(-c2cccnc2)c(F)cc1-n1c(=O)ccc2cc(S(=O)(=O)/N=c3\cco[n-]3)ccc21 (cis-trans isomerization)
COc1cc(-c2cccnc2)c(F)cc1-n1c(=O)ccc2cc(S(=O)(=O)/N=c3\cco[n-]3)ccc21 (3D coordinates assigned)
COc1cc(-c2cccnc2)c(F)cc1-n1c(=O)ccc2cc(S(=O)(=O)/N=c3\cco[n-]3)ccc21 (optimized conformer: 113.38847374119536 kcal/mol)

>  <smiles>  (1) 
COc1cc(-c2cccnc2)c(F)cc1-n1c(=O)ccc2cc(S(=O)(=O)N=c3cco[nH]3)ccc21

>  <score_type>  (1) 
oracle

>  <origin>  (1) 
adg

>  <m_score__min__energy>  (1) 
-11.039999999999999

>  <m_primary>  (1) 
energy

$$$$
1:0
     RDKit          3D

 37 39  0  0  0  0  0  0  0  0999 V2000
   -5.3260   25.5770  -30.4740 C   0  0  0  0  0  0  0  0  0  0  0  0
   -5.7870   24.1700  -30.0960 C   0  0  0  0  0  0  0  0  0  0  0  0
   -7.1260   23.7870  -30.7550 C   0  0  0  0  0  0  0  0  0  0  0  0
   -6.9840   23.2650  -32.1980 C   0  0  0  0  0  0  0  0  0  0  0  0
   -6.5490   21.8590  -32.2330 N   0  0  0  0  0  0  0  0  0  0  0  0
   -5.2890   21.4390  -32.5480 C   0  0  0  0  0  0  0  0  0  0  0  0
   -4.1310   22.2140  -32.7210 C   0  0  0  0  0  0  0  0  0  0  0  0
   -2.9400   21.5640  -33.0870 C   0  0  0  0  0  0  0  0  0  0  0  0
   -2.9120   20.1670  -33.2770 C   0  0  0  0  0  0  0  0  0  0  0  0
   -4.0780   19.4040  -33.1050 C   0  0  0  0  0  0  0  0  0  0  0  0
   -5.2450   20.0740  -32.7390 C   0  0  0  0  0  0  0  0  0  0  0  0
   -6.5170   19.6140  -32.5290 C   0  0  0  0  0  0  0  0  0  0  0  0
   -7.0400   18.3320  -32.6200 C   0  0  0  0  0  0  0  0  0  0  0  0
   -8.4010   18.1740  -32.3520 C   0  0  0  0  0  0  0  0  0  0  0  0
   -9.1760   19.2860  -31.9710 C   0  0  0  0  0  0  0  0  0  0  0  0
   -8.6290   20.5450  -31.8680 N   0  0  0  0  0  0  0  0  0  0  0  0
   -9.4630   21.6060  -31.2890 C   0  0  0  0  0  0  0  0  0  0  0  0
   -7.2980   20.7070  -32.1980 C   0  0  0  0  0  0  0  0  0  0  0  0
   -5.1355   26.1584  -29.5598 H   0  0  0  0  0  0  0  0  0  0  0  0
   -4.4018   25.5131  -31.0671 H   0  0  0  0  0  0  0  0  0  0  0  0
   -6.1088   26.0724  -31.0671 H   0  0  0  0  0  0  0  0  0  0  0  0
   -5.0189   23.4502  -30.4152 H   0  0  0  0  0  0  0  0  0  0  0  0
   -5.9348   24.1499  -29.0062 H   0  0  0  0  0  0  0  0  0  0  0  0
   -7.5991   23.0015  -30.1474 H   0  0  0  0  0  0  0  0  0  0  0  0
   -7.7316   24.7039  -30.8049 H   0  0  0  0  0  0  0  0  0  0  0  0
   -7.9572   23.3488  -32.7039 H   0  0  0  0  0  0  0  0  0  0  0  0
   -6.2194   23.8711  -32.7060 H   0  0  0  0  0  0  0  0  0  0  0  0
   -4.1555   23.3038  -32.5736 H   0  0  0  0  0  0  0  0  0  0  0  0
   -2.0202   22.1509  -33.2267 H   0  0  0  0  0  0  0  0  0  0  0  0
   -1.9716   19.6724  -33.5615 H   0  0  0  0  0  0  0  0  0  0  0  0
   -4.0712   18.3142  -33.2540 H   0  0  0  0  0  0  0  0  0  0  0  0
   -6.4074   17.4743  -32.8925 H   0  0  0  0  0  0  0  0  0  0  0  0
   -8.8675   17.1816  -32.4384 H   0  0  0  0  0  0  0  0  0  0  0  0
  -10.2444   19.1453  -31.7503 H   0  0  0  0  0  0  0  0  0  0  0  0
   -9.4185   21.5494  -30.1914 H   0  0  0  0  0  0  0  0  0  0  0  0
   -9.0915   22.5867  -31.6210 H   0  0  0  0  0  0  0  0  0  0  0  0
  -10.5037   21.4766  -31.6210 H   0  0  0  0  0  0  0  0  0  0  0  0
  1  2  1  0
  2  3  1  0
  3  4  1  0
  4  5  1  0
  5  6  1  0
  6  7  2  0
  7  8  1  0
  8  9  2  0
  9 10  1  0
 10 11  2  0
 11 12  1  0
 12 13  2  0
 13 14  1  0
 14 15  2  0
 15 16  1  0
 16 17  1  0
 16 18  2  0
 18  5  1  0
 11  6  1  0
 18 12  1  0
  1 19  1  0
  1 20  1  0
  1 21  1  0
  2 22  1  0
  2 23  1  0
  3 24  1  0
  3 25  1  0
  4 26  1  0
  4 27  1  0
  7 28  1  0
  8 29  1  0
  9 30  1  0
 10 31  1  0
 13 32  1  0
 14 33  1  0
 15 34  1  0
 17 35  1  0
 17 36  1  0
 17 37  1  0
M  CHG  1  16   1
M  END
>  <UniqueID>  (2) 
2

>  <SMILES>  (2) 
CCCCn1c2ccccc2c2ccc[n+](C)c21

>  <Energy>  (2) 
85.6841659697358

>  <Genealogy>  (2) 
CCCCn1c2ccccc2c2ccc[n+](C)c21 (3D coordinates assigned)
CCCCn1c2ccccc2c2ccc[n+](C)c21 (optimized conformer: 85.6841659697358 kcal/mol)

>  <smiles>  (2) 
CCCCn1c2ccccc2c2ccc[n+](C)c21

>  <score_type>  (2) 
oracle

>  <origin>  (2) 
adg

>  <m_score__min__energy>  (2) 
-6.7000000000000002

>  <m_primary>  (2) 
energy

$$$$
2:0
     RDKit          3D

 43 45  0  0  0  0  0  0  0  0999 V2000
   -1.5220   25.4190  -27.6630 C   0  0  0  0  0  0  0  0  0  0  0  0
   -2.0870   25.5380  -28.9650 O   0  0  0  0  0  0  0  0  0  0  0  0
   -2.8170   24.5270  -29.6070 C   0  0  0  0  0  0  0  0  0  0  0  0
   -2.3250   23.2160  -29.7510 C   0  0  0  0  0  0  0  0  0  0  0  0
   -3.0910   22.2420  -30.4000 C   0  0  0  0  0  0  0  0  0  0  0  0
   -4.3590   22.5590  -30.9170 C   0  0  0  0  0  0  0  0  0  0  0  0
   -5.1700   21.5210  -31.6030 C   0  0  0  0  0  0  0  0  0  0  0  0
   -4.5420   20.4700  -32.2850 C   0  0  0  0  0  0  0  0  0  0  0  0
   -5.3330   19.5010  -32.9170 C   0  0  0  0  0  0  0  0  0  0  0  0
   -4.7350   18.3610  -33.6590 C   0  0  0  0  0  0  0  0  0  0  0  0
   -5.4950   17.1980  -33.8840 C   0  0  0  0  0  0  0  0  0  0  0  0
   -4.9470   16.1130  -34.5730 C   0  0  0  0  0  0  0  0  0  0  0  0
   -3.6320   16.1710  -35.0410 C   0  0  0  0  0  0  0  0  0  0  0  0
   -2.8610   17.3140  -34.8150 C   0  0  0  0  0  0  0  0  0  0  0  0
   -3.4050   18.4020  -34.1260 C   0  0  0  0  0  0  0  0  0  0  0  0
   -6.6850   19.6200  -32.8600 N   0  0  0  0  0  0  0  0  0  0  0  0
   -7.2980   20.6380  -32.2000 C   0  0  0  0  0  0  0  0  0  0  0  0
   -8.7440   20.7030  -32.1810 N   0  0  0  0  0  0  0  0  0  0  0  0
   -9.5150   19.5660  -32.6960 C   0  0  0  0  0  0  0  0  0  0  0  0
   -9.4460   21.8780  -31.6510 C   0  0  0  0  0  0  0  0  0  0  0  0
   -6.5340   21.5810  -31.5710 N   0  0  0  0  0  0  0  0  0  0  0  0
   -4.8450   23.8710  -30.7700 C   0  0  0  0  0  0  0  0  0  0  0  0
   -4.0790   24.8420  -30.1210 C   0  0  0  0  0  0  0  0  0  0  0  0
   -2.3042   25.5838  -26.9074 H   0  0  0  0  0  0  0  0  0  0  0  0
   -1.0978   24.4118  -27.5380 H   0  0  0  0  0  0  0  0  0  0  0  0
   -0.7276   26.1695  -27.5380 H   0  0  0  0  0  0  0  0  0  0  0  0
   -1.3336   22.9563  -29.3513 H   0  0  0  0  0  0  0  0  0  0  0  0
   -2.6980   21.2201  -30.5066 H   0  0  0  0  0  0  0  0  0  0  0  0
   -3.4445   20.4066  -32.3237 H   0  0  0  0  0  0  0  0  0  0  0  0
   -6.5295   17.1427  -33.5142 H   0  0  0  0  0  0  0  0  0  0  0  0
   -5.5523   15.2112  -34.7473 H   0  0  0  0  0  0  0  0  0  0  0  0
   -3.2039   15.3174  -35.5870 H   0  0  0  0  0  0  0  0  0  0  0  0
   -1.8242   17.3579  -35.1798 H   0  0  0  0  0  0  0  0  0  0  0  0
   -2.7909   19.2969  -33.9468 H   0  0  0  0  0  0  0  0  0  0  0  0
   -9.9120   18.9805  -31.8536 H   0  0  0  0  0  0  0  0  0  0  0  0
  -10.3489   19.9366  -33.3103 H   0  0  0  0  0  0  0  0  0  0  0  0
   -8.8622   18.9284  -33.3103 H   0  0  0  0  0  0  0  0  0  0  0  0
   -9.4293   21.8500  -30.5515 H   0  0  0  0  0  0  0  0  0  0  0  0
   -8.9464   22.7929  -32.0022 H   0  0  0  0  0  0  0  0  0  0  0  0
  -10.4884   21.8716  -32.0022 H   0  0  0  0  0  0  0  0  0  0  0  0
   -6.9860   22.3820  -31.0790 H   0  0  0  0  0  0  0  0  0  0  0  0
   -5.8357   24.1341  -31.1692 H   0  0  0  0  0  0  0  0  0  0  0  0
   -4.4719   25.8638  -30.0132 H   0  0  0  0  0  0  0  0  0  0  0  0
  1  2  1  0
  2  3  1  0
  3  4  2  0
  4  5  1  0
  5  6  2  0
  6  7  1  0
  7  8  2  0
  8  9  1  0
  9 10  1  0
 10 11  2  0
 11 12  1  0
 12 13  2  0
 13 14  1  0
 14 15  2  0
  9 16  2  0
 16 17  1  0
 17 18  1  0
 18 19  1  0
 18 20  1  0
 17 21  2  0
  6 22  1  0
 22 23  2  0
 23  3  1  0
 21  7  1  0
 15 10  1  0
  1 24  1  0
  1 25  1  0
  1 26  1  0
  4 27  1  0
  5 28  1  0
  8 29  1  0
 11 30  1  0
 12 31  1  0
 13 32  1  0
 14 33  1  0
 15 34  1  0
 19 35  1  0
 19 36  1  0
 19 37  1  0
 20 38  1  0
 20 39  1  0
 20 40  1  0
 21 41  1  0
 22 42  1  0
 23 43  1  0
M  CHG  1  21   1
M  END
>  <UniqueID>  (3) 
3

>  <SMILES>  (3) 
COc1ccc(-c2cc(-c3ccccc3)nc(N(C)C)[nH+]2)cc1

>  <Energy>  (3) 
52.36896177183507

>  <Genealogy>  (3) 
COc1ccc(-c2cc(-c3ccccc3)nc(N(C)C)[nH+]2)cc1 (protonated)
COc1ccc(-c2cc(-c3ccccc3)nc(N(C)C)[nH+]2)cc1 (3D coordinates assigned)
COc1ccc(-c2cc(-c3ccccc3)nc(N(C)C)[nH+]2)cc1 (optimized conformer: 52.36896177183507 kcal/mol)

>  <smiles>  (3) 
COc1ccc(-c2cc(-c3ccccc3)nc(N(C)C)n2)cc1

>  <score_type>  (3) 
oracle

>  <origin>  (3) 
adg

>  <m_score__min__energy>  (3) 
-7.0199999999999996

>  <m_primary>  (3) 
energy

$$$$
3:0
     RDKit          3D

 39 39  0  0  0  0  0  0  0  0999 V2000
   -5.3410   17.8410  -34.8950 C   0  0  0  0  0  0  0  0  0  0  0  0
   -4.7930   16.8850  -33.8370 C   0  0  0  0  0  0  0  0  0  0  0  0
   -5.5100   17.0090  -32.4850 C   0  0  0  0  0  0  0  0  0  0  0  0
   -6.4050   18.1760  -32.4570 N   0  0  0  0  0  0  0  0  0  0  0  0
   -7.8470   17.9830  -32.6820 C   0  0  0  0  0  0  0  0  0  0  0  0
   -8.6910   18.7730  -31.6690 C   0  0  0  0  0  0  0  0  0  0  0  0
   -9.4870   19.9030  -32.3170 C   0  0  0  0  0  0  0  0  0  0  0  0
   -5.8820   19.4650  -32.0740 C   0  0  0  0  0  0  0  0  0  0  0  0
   -5.0280   19.5380  -31.1490 O   0  0  0  0  0  0  0  0  0  0  0  0
   -6.2820   20.7210  -32.7940 C   0  0  0  0  0  0  0  0  0  0  0  0
   -5.9150   21.9030  -32.0140 N   0  0  0  0  0  0  0  0  0  0  0  0
   -4.6590   22.2620  -31.7950 N   0  0  0  0  0  0  0  0  0  0  0  0
   -4.6810   23.3860  -31.0550 C   0  0  0  0  0  0  0  0  0  0  0  0
   -3.4940   24.0630  -30.6250 N   0  0  0  0  0  0  0  0  0  0  0  0
   -3.5080   25.3000  -30.4620 O   0  0  0  0  0  0  0  0  0  0  0  0
   -2.3330   23.3680  -30.3730 O   0  0  0  0  0  0  0  0  0  0  0  0
   -5.9900   23.7550  -30.7870 C   0  0  0  0  0  0  0  0  0  0  0  0
   -6.6300   25.2260  -29.7400 Br  0  0  0  0  0  0  0  0  0  0  0  0
   -6.7500   22.7920  -31.4270 C   0  0  0  0  0  0  0  0  0  0  0  0
   -8.2430   22.6670  -31.3610 C   0  0  0  0  0  0  0  0  0  0  0  0
   -5.8297   18.6936  -34.4009 H   0  0  0  0  0  0  0  0  0  0  0  0
   -4.5147   18.2055  -35.5230 H   0  0  0  0  0  0  0  0  0  0  0  0
   -6.0731   17.3122  -35.5230 H   0  0  0  0  0  0  0  0  0  0  0  0
   -4.9101   15.8540  -34.2023 H   0  0  0  0  0  0  0  0  0  0  0  0
   -3.7370   17.1463  -33.6738 H   0  0  0  0  0  0  0  0  0  0  0  0
   -6.1027   16.0991  -32.3095 H   0  0  0  0  0  0  0  0  0  0  0  0
   -4.7497   17.1370  -31.7005 H   0  0  0  0  0  0  0  0  0  0  0  0
   -8.0981   18.3232  -33.6975 H   0  0  0  0  0  0  0  0  0  0  0  0
   -8.0735   16.9138  -32.5573 H   0  0  0  0  0  0  0  0  0  0  0  0
   -9.3945   18.0815  -31.1824 H   0  0  0  0  0  0  0  0  0  0  0  0
   -7.9995   19.2278  -30.9445 H   0  0  0  0  0  0  0  0  0  0  0  0
   -9.9317   20.5343  -31.5336 H   0  0  0  0  0  0  0  0  0  0  0  0
   -8.8172   20.5117  -32.9422 H   0  0  0  0  0  0  0  0  0  0  0  0
  -10.2857   19.4772  -32.9422 H   0  0  0  0  0  0  0  0  0  0  0  0
   -5.7709   20.7577  -33.7674 H   0  0  0  0  0  0  0  0  0  0  0  0
   -7.3728   20.7154  -32.9358 H   0  0  0  0  0  0  0  0  0  0  0  0
   -8.5625   22.6402  -30.3088 H   0  0  0  0  0  0  0  0  0  0  0  0
   -8.7057   23.5295  -31.8629 H   0  0  0  0  0  0  0  0  0  0  0  0
   -8.5558   21.7395  -31.8629 H   0  0  0  0  0  0  0  0  0  0  0  0
  1  2  1  0
  2  3  1  0
  3  4  1  0
  4  5  1  0
  5  6  1  0
  6  7  1  0
  4  8  1  0
  8  9  2  0
  8 10  1  0
 10 11  1  0
 11 12  1  0
 12 13  2  0
 13 14  1  0
 14 15  2  0
 14 16  1  0
 13 17  1  0
 17 18  1  0
 17 19  2  0
 19 20  1  0
 19 11  1  0
  1 21  1  0
  1 22  1  0
  1 23  1  0
  2 24  1  0
  2 25  1  0
  3 26  1  0
  3 27  1  0
  5 28  1  0
  5 29  1  0
  6 30  1  0
  6 31  1  0
  7 32  1  0
  7 33  1  0
  7 34  1  0
 10 35  1  0
 10 36  1  0
 20 37  1  0
 20 38  1  0
 20 39  1  0
M  CHG  2  14   1  16  -1
M  END
>  <UniqueID>  (4) 
4

>  <SMILES>  (4) 
CCCN(CCC)C(=O)Cn1nc([N+](=O)[O-])c(Br)c1C

>  <Energy>  (4) 
58.284835615775506

>  <Genealogy>  (4) 
CCCN(CCC)C(=O)Cn1nc([N+](=O)[O-])c(Br)c1C (3D coordinates assigned)
CCCN(CCC)C(=O)Cn1nc([N+](=O)[O-])c(Br)c1C (optimized conformer: 58.284835615775506 kcal/mol)

>  <smiles>  (4) 
CCCN(CCC)C(=O)Cn1nc([N+](=O)[O-])c(Br)c1C

>  <score_type>  (4) 
oracle

>  <origin>  (4) 
adg

>  <m_score__min__energy>  (4) 
-8.0299999999999994

>  <m_primary>  (4) 
energy

$$$$
4:0
     RDKit          3D

 31 31  0  0  0  0  0  0  0  0999 V2000
   -5.3280   17.8640  -34.9210 C   0  0  0  0  0  0  0  0  0  0  0  0
   -6.2800   17.3450  -33.8440 C   0  0  0  0  0  0  0  0  0  0  0  0
   -7.0580   18.4480  -33.2550 N   0  0  0  0  0  0  0  0  0  0  0  0
   -7.6090   18.0910  -31.9320 C   0  0  0  0  0  0  0  0  0  0  0  0
   -9.0690   18.5480  -31.7420 C   0  0  0  0  0  0  0  0  0  0  0  0
   -9.3840   19.9340  -32.3280 C   0  0  0  0  0  0  0  0  0  0  0  0
   -8.2150   20.5410  -32.8850 O   0  0  0  0  0  0  0  0  0  0  0  0
   -7.4840   21.6120  -32.3410 C   0  0  0  0  0  0  0  0  0  0  0  0
   -6.0750   21.6740  -32.3540 C   0  0  0  0  0  0  0  0  0  0  0  0
   -5.4120   22.7730  -31.7970 C   0  0  0  0  0  0  0  0  0  0  0  0
   -6.1430   23.8160  -31.2200 C   0  0  0  0  0  0  0  0  0  0  0  0
   -5.2340   25.3140  -30.4610 Br  0  0  0  0  0  0  0  0  0  0  0  0
   -7.5390   23.7580  -31.1980 C   0  0  0  0  0  0  0  0  0  0  0  0
   -8.2040   22.6620  -31.7560 C   0  0  0  0  0  0  0  0  0  0  0  0
   -4.4579   18.3384  -34.4436 H   0  0  0  0  0  0  0  0  0  0  0  0
   -4.9905   17.0250  -35.5473 H   0  0  0  0  0  0  0  0  0  0  0  0
   -5.8503   18.6022  -35.5473 H   0  0  0  0  0  0  0  0  0  0  0  0
   -6.9710   16.6172  -34.2944 H   0  0  0  0  0  0  0  0  0  0  0  0
   -5.6863   16.8699  -33.0492 H   0  0  0  0  0  0  0  0  0  0  0  0
   -6.4600   19.3030  -33.1910 H   0  0  0  0  0  0  0  0  0  0  0  0
   -7.8610   18.6630  -33.8930 H   0  0  0  0  0  0  0  0  0  0  0  0
   -7.5667   16.9977  -31.8185 H   0  0  0  0  0  0  0  0  0  0  0  0
   -7.0022   18.6074  -31.1736 H   0  0  0  0  0  0  0  0  0  0  0  0
   -9.7257   17.8118  -32.2286 H   0  0  0  0  0  0  0  0  0  0  0  0
   -9.2354   18.6216  -30.6571 H   0  0  0  0  0  0  0  0  0  0  0  0
  -10.1420   19.8252  -33.1176 H   0  0  0  0  0  0  0  0  0  0  0  0
   -9.7561   20.5773  -31.5170 H   0  0  0  0  0  0  0  0  0  0  0  0
   -5.4949   20.8548  -32.8040 H   0  0  0  0  0  0  0  0  0  0  0  0
   -4.3130   22.8166  -31.8131 H   0  0  0  0  0  0  0  0  0  0  0  0
   -8.1155   24.5758  -30.7410 H   0  0  0  0  0  0  0  0  0  0  0  0
   -9.3031   22.6237  -31.7355 H   0  0  0  0  0  0  0  0  0  0  0  0
  1  2  1  0
  2  3  1  0
  3  4  1  0
  4  5  1  0
  5  6  1  0
  6  7  1  0
  7  8  1  0
  8  9  2  0
  9 10  1  0
 10 11  2  0
 11 12  1  0
 11 13  1  0
 13 14  2  0
 14  8  1  0
  1 15  1  0
  1 16  1  0
  1 17  1  0
  2 18  1  0
  2 19  1  0
  3 20  1  0
  3 21  1  0
  4 22  1  0
  4 23  1  0
  5 24  1  0
  5 25  1  0
  6 26  1  0
  6 27  1  0
  9 28  1  0
 10 29  1  0
 13 30  1  0
 14 31  1  0
M  CHG  1   3   1
M  END
>  <UniqueID>  (5) 
5

>  <SMILES>  (5) 
CC[NH2+]CCCOc1ccc(Br)cc1

>  <Energy>  (5) 
26.700805489232536

>  <Genealogy>  (5) 
CC[NH2+]CCCOc1ccc(Br)cc1 (protonated)
CC[NH2+]CCCOc1ccc(Br)cc1 (3D coordinates assigned)
CC[NH2+]CCCOc1ccc(Br)cc1 (optimized conformer: 26.700805489232536 kcal/mol)

>  <smiles>  (5) 
CCNCCCOc1ccc(Br)cc1

>  <score_type>  (5) 
oracle

>  <origin>  (5) 
adg

>  <m_score__min__energy>  (5) 
-5.3399999999999999

>  <m_primary>  (5) 
energy

$$$$
5:0
     RDKit          3D

 63 67  0  0  1  0  0  0  0  0999 V2000
   -1.1500   26.7340  -26.2170 C   0  0  0  0  0  0  0  0  0  0  0  0
   -0.2870   26.6770  -27.4780 C   0  0  0  0  0  0  0  0  0  0  0  0
   -0.0460   25.2740  -27.7940 N   0  0  0  0  0  0  0  0  0  0  0  0
   -0.8660   24.9430  -28.9580 C   0  0  0  0  0  0  0  0  0  0  0  0
   -0.7980   23.4580  -29.2470 C   0  0  0  0  0  0  0  0  0  0  0  0
   -1.2850   22.6620  -28.1650 N   0  0  0  0  0  0  0  0  0  0  0  0
   -2.7040   22.6230  -28.0110 C   0  0  0  0  0  0  0  0  0  0  0  0
   -3.3990   23.9420  -28.0320 C   0  0  0  0  0  0  0  0  0  0  0  0
   -4.1620   24.1610  -29.2440 N   0  0  0  0  0  0  0  0  0  0  0  0
   -5.4440   23.8030  -29.4040 C   0  0  0  0  0  0  0  0  0  0  0  0
   -5.8130   24.1860  -30.7020 C   0  0  0  0  0  0  0  0  0  0  0  0
   -7.1700   23.9670  -31.2820 C   0  0  0  0  0  0  0  0  0  0  0  0
   -7.3570   22.9040  -32.1430 N   0  0  0  0  0  0  0  0  0  0  0  0
   -6.7180   21.8650  -32.2990 C   0  0  0  0  0  0  0  0  0  0  0  0
   -5.3740   21.9350  -32.4270 N   0  0  0  0  0  0  0  0  0  0  0  0
   -4.5660   20.8820  -32.5650 C   0  0  0  0  0  0  0  0  0  0  0  0
   -3.1180   20.9600  -32.6990 C   0  0  0  0  0  0  0  0  0  0  0  0
   -2.4470   20.5870  -33.8540 C   0  0  0  0  0  0  0  0  0  0  0  0
   -1.0690   20.6650  -33.9710 C   0  0  0  0  0  0  0  0  0  0  0  0
   -0.3550   21.1330  -32.8890 C   0  0  0  0  0  0  0  0  0  0  0  0
   -0.9740   21.5220  -31.7020 C   0  0  0  0  0  0  0  0  0  0  0  0
   -2.3430   21.4160  -31.6630 C   0  0  0  0  0  0  0  0  0  0  0  0
   -5.1340   19.6650  -32.5770 N   0  0  0  0  0  0  0  0  0  0  0  0
   -6.4670   19.5490  -32.4540 C   0  0  0  0  0  0  0  0  0  0  0  0
   -6.9850   18.2790  -32.4790 C   0  0  0  0  0  0  0  0  0  0  0  0
   -8.3520   18.1700  -32.3590 C   0  0  0  0  0  0  0  0  0  0  0  0
   -9.2100   19.2170  -32.2220 C   0  0  0  0  0  0  0  0  0  0  0  0
   -8.6620   20.5210  -32.1970 C   0  0  0  0  0  0  0  0  0  0  0  0
   -7.3150   20.6400  -32.3110 C   0  0  0  0  0  0  0  0  0  0  0  0
   -4.7070   24.7420  -31.2040 N   0  0  0  0  0  0  0  0  0  0  0  0
   -3.7210   24.7310  -30.3440 N   0  0  0  0  0  0  0  0  0  0  0  0
   -0.6870   23.0530  -26.9260 C   0  0  0  0  0  0  0  0  0  0  0  0
   -0.6090   24.5250  -26.6880 C   0  0  0  0  0  0  0  0  0  0  0  0
   -0.5035   26.6913  -25.3280 H   0  0  0  0  0  0  0  0  0  0  0  0
   -1.7244   27.6720  -26.2079 H   0  0  0  0  0  0  0  0  0  0  0  0
   -1.8428   25.8797  -26.2079 H   0  0  0  0  0  0  0  0  0  0  0  0
   -0.8130   27.1630  -28.3130 H   0  0  0  0  0  0  0  0  0  0  0  0
    0.6658   27.2016  -27.3139 H   0  0  0  0  0  0  0  0  0  0  0  0
   -1.9100   25.2258  -28.7580 H   0  0  0  0  0  0  0  0  0  0  0  0
   -0.4855   25.4940  -29.8307 H   0  0  0  0  0  0  0  0  0  0  0  0
   -1.4035   23.2454  -30.1404 H   0  0  0  0  0  0  0  0  0  0  0  0
    0.2597   23.1979  -29.4006 H   0  0  0  0  0  0  0  0  0  0  0  0
   -3.1149   22.0128  -28.8288 H   0  0  0  0  0  0  0  0  0  0  0  0
   -2.8827   22.2089  -27.0077 H   0  0  0  0  0  0  0  0  0  0  0  0
   -4.0842   23.9908  -27.1729 H   0  0  0  0  0  0  0  0  0  0  0  0
   -2.6251   24.7223  -27.9851 H   0  0  0  0  0  0  0  0  0  0  0  0
   -6.0835   23.3048  -28.6605 H   0  0  0  0  0  0  0  0  0  0  0  0
   -7.8640   23.8282  -30.4399 H   0  0  0  0  0  0  0  0  0  0  0  0
   -7.3395   24.8540  -31.9102 H   0  0  0  0  0  0  0  0  0  0  0  0
   -4.9100   22.8800  -32.4210 H   0  0  0  0  0  0  0  0  0  0  0  0
   -3.0308   20.2154  -34.7090 H   0  0  0  0  0  0  0  0  0  0  0  0
   -0.5605   20.3629  -34.8984 H   0  0  0  0  0  0  0  0  0  0  0  0
    0.7402   21.2019  -32.9646 H   0  0  0  0  0  0  0  0  0  0  0  0
   -0.3970   21.8940  -30.8425 H   0  0  0  0  0  0  0  0  0  0  0  0
   -2.8534   21.7178  -30.7365 H   0  0  0  0  0  0  0  0  0  0  0  0
   -6.3415   17.3937  -32.5892 H   0  0  0  0  0  0  0  0  0  0  0  0
   -8.7839   17.1585  -32.3751 H   0  0  0  0  0  0  0  0  0  0  0  0
  -10.2944   19.0548  -32.1336 H   0  0  0  0  0  0  0  0  0  0  0  0
   -9.3049   21.4070  -32.0890 H   0  0  0  0  0  0  0  0  0  0  0  0
   -1.2755   22.6082  -26.1100 H   0  0  0  0  0  0  0  0  0  0  0  0
    0.3531   22.6973  -26.9663 H   0  0  0  0  0  0  0  0  0  0  0  0
   -1.6262   24.8989  -26.4997 H   0  0  0  0  0  0  0  0  0  0  0  0
    0.0633   24.6725  -25.8299 H   0  0  0  0  0  0  0  0  0  0  0  0
  1  2  1  0
  2  3  1  0
  3  4  1  0
  4  5  1  0
  5  6  1  0
  6  7  1  0
  7  8  1  0
  8  9  1  0
  9 10  1  0
 10 11  2  0
 11 12  1  0
 12 13  1  0
 13 14  2  0
 14 15  1  0
 15 16  1  0
 16 17  1  0
 17 18  2  0
 18 19  1  0
 19 20  2  0
 20 21  1  0
 21 22  2  0
 16 23  2  0
 23 24  1  0
 24 25  2  0
 25 26  1  0
 26 27  2  0
 27 28  1  0
 28 29  2  0
 11 30  1  0
 30 31  2  0
  6 32  1  0
 32 33  1  0
 33  3  1  0
 31  9  1  0
 29 14  1  0
 22 17  1  0
 29 24  1  0
  1 34  1  0
  1 35  1  0
  1 36  1  0
  2 37  1  0
  2 38  1  0
  4 39  1  0
  4 40  1  0
  5 41  1  0
  5 42  1  0
  7 43  1  0
  7 44  1  0
  8 45  1  0
  8 46  1  0
 10 47  1  0
 12 48  1  0
 12 49  1  0
 15 50  1  0
 18 51  1  0
 19 52  1  0
 20 53  1  0
 21 54  1  0
 22 55  1  0
 25 56  1  0
 26 57  1  0
 27 58  1  0
 28 59  1  0
 32 60  1  0
 32 61  1  0
 33 62  1  0
 33 63  1  0
M  END
>  <smiles>  (6) 
CCN1CCN(CCn2cc(CN=c3[nH]c(-c4ccccc4)nc4ccccc34)nn2)CC1

>  <score_type>  (6) 
oracle

>  <origin>  (6) 
adg

>  <m_score__min__energy>  (6) 
-11.1

>  <m_primary>  (6) 
energy

$$$$
6:0
     RDKit          3D

 31 32  0  0  0  0  0  0  0  0999 V2000
   -8.4430   21.2340  -31.5370 C   0  0  0  0  0  0  0  0  0  0  0  0
   -8.3570   22.6430  -31.3480 O   0  0  0  0  0  0  0  0  0  0  0  0
   -7.1790   23.3270  -31.0160 C   0  0  0  0  0  0  0  0  0  0  0  0
   -5.9640   22.8420  -31.5160 C   0  0  0  0  0  0  0  0  0  0  0  0
   -4.7630   23.4870  -31.2110 C   0  0  0  0  0  0  0  0  0  0  0  0
   -4.7550   24.6160  -30.3830 C   0  0  0  0  0  0  0  0  0  0  0  0
   -3.5080   25.2700  -30.1130 N   0  0  0  0  0  0  0  0  0  0  0  0
   -2.4090   24.7500  -29.3520 C   0  0  0  0  0  0  0  0  0  0  0  0
   -1.4750   25.5310  -29.0280 O   0  0  0  0  0  0  0  0  0  0  0  0
   -2.2750   23.2840  -29.0350 C   0  0  0  0  0  0  0  0  0  0  0  0
   -1.9650   23.0610  -27.5530 C   0  0  0  0  0  0  0  0  0  0  0  0
   -2.6620   24.0530  -26.7420 N   0  0  0  0  0  0  0  0  0  0  0  0
   -2.1180   25.0040  -25.9660 C   0  0  0  0  0  0  0  0  0  0  0  0
   -3.1040   25.7600  -25.4570 N   0  0  0  0  0  0  0  0  0  0  0  0
   -4.2390   25.2730  -25.9360 N   0  0  0  0  0  0  0  0  0  0  0  0
   -3.9710   24.2400  -26.7220 N   0  0  0  0  0  0  0  0  0  0  0  0
   -5.9740   25.1250  -29.9040 C   0  0  0  0  0  0  0  0  0  0  0  0
   -7.1760   24.4800  -30.2090 C   0  0  0  0  0  0  0  0  0  0  0  0
   -8.4735   20.7339  -30.5577 H   0  0  0  0  0  0  0  0  0  0  0  0
   -9.3574   20.9947  -32.0996 H   0  0  0  0  0  0  0  0  0  0  0  0
   -7.5645   20.8852  -32.0996 H   0  0  0  0  0  0  0  0  0  0  0  0
   -5.9553   21.9460  -32.1540 H   0  0  0  0  0  0  0  0  0  0  0  0
   -3.8176   23.1055  -31.6240 H   0  0  0  0  0  0  0  0  0  0  0  0
   -3.2183   22.7760  -29.2840 H   0  0  0  0  0  0  0  0  0  0  0  0
   -1.4440   22.8752  -29.6286 H   0  0  0  0  0  0  0  0  0  0  0  0
   -2.2952   22.0536  -27.2595 H   0  0  0  0  0  0  0  0  0  0  0  0
   -0.8814   23.1605  -27.3922 H   0  0  0  0  0  0  0  0  0  0  0  0
   -1.0428   25.1411  -25.7783 H   0  0  0  0  0  0  0  0  0  0  0  0
   -3.0170   26.5820  -24.8190 H   0  0  0  0  0  0  0  0  0  0  0  0
   -5.9824   26.0351  -29.2862 H   0  0  0  0  0  0  0  0  0  0  0  0
   -8.1243   24.8756  -29.8163 H   0  0  0  0  0  0  0  0  0  0  0  0
  1  2  1  0
  2  3  1  0
  3  4  2  0
  4  5  1  0
  5  6  2  0
  6  7  1  0
  7  8  1  0
  8  9  2  0
  8 10  1  0
 10 11  1  0
 11 12  1  0
 12 13  1  0
 13 14  2  0
 14 15  1  0
 15 16  2  0
  6 17  1  0
 17 18  2  0
 18  3  1  0
 16 12  1  0
  1 19  1  0
  1 20  1  0
  1 21  1  0
  4 22  1  0
  5 23  1  0
 10 24  1  0
 10 25  1  0
 11 26  1  0
 11 27  1  0
 13 28  1  0
 14 29  1  0
 17 30  1  0
 18 31  1  0
M  CHG  2   7  -1  14   1
M  END
>  <UniqueID>  (7) 
6

>  <SMILES>  (7) 
COc1ccc([N-]C(=O)CCn2c[nH+]nn2)cc1

>  <Energy>  (7) 
72.34312625160125

>  <Genealogy>  (7) 
COc1ccc([N-]C(=O)CCn2c[nH+]nn2)cc1 (protonated)
COc1ccc([N-]C(=O)CCn2c[nH+]nn2)cc1 (3D coordinates assigned)
COc1ccc([N-]C(=O)CCn2c[nH+]nn2)cc1 (optimized conformer: 72.34312625160125 kcal/mol)

>  <smiles>  (7) 
COc1ccc(NC(=O)CCn2cnnn2)cc1

>  <score_type>  (7) 
oracle

>  <origin>  (7) 
adg

>  <m_score__min__energy>  (7) 
-8.1099999999999994

>  <m_primary>  (7) 
energy

$$$$
7:0
     RDKit          3D

 38 41  0  0  0  0  0  0  0  0999 V2000
   -2.7710   19.8100  -34.3350 F   0  0  0  0  0  0  0  0  0  0  0  0
   -2.4300   20.4850  -33.2100 C   0  0  0  0  0  0  0  0  0  0  0  0
   -1.0850   20.6030  -32.8460 C   0  0  0  0  0  0  0  0  0  0  0  0
   -0.7340   21.2840  -31.6780 C   0  0  0  0  0  0  0  0  0  0  0  0
   -1.7260   21.8550  -30.8740 C   0  0  0  0  0  0  0  0  0  0  0  0
   -3.0780   21.7490  -31.2360 C   0  0  0  0  0  0  0  0  0  0  0  0
   -4.1450   22.3520  -30.3610 C   0  0  0  0  0  0  0  0  0  0  0  0
   -4.9820   23.7430  -31.1980 S   0  0  0  0  0  0  0  0  0  0  0  0
   -6.4590   22.8120  -31.5990 C   0  0  0  0  0  0  0  0  0  0  0  0
   -7.7400   23.3710  -31.4000 C   0  0  0  0  0  0  0  0  0  0  0  0
   -8.8870   22.6320  -31.7390 C   0  0  0  0  0  0  0  0  0  0  0  0
   -8.6850   21.3650  -32.2690 C   0  0  0  0  0  0  0  0  0  0  0  0
   -9.6210   20.4730  -32.6490 N   0  0  0  0  0  0  0  0  0  0  0  0
   -8.9420   19.4080  -33.0690 N   0  0  0  0  0  0  0  0  0  0  0  0
   -7.6160   19.6560  -32.9480 C   0  0  0  0  0  0  0  0  0  0  0  0
   -6.5380   18.7050  -33.3210 C   0  0  0  0  0  0  0  0  0  0  0  0
   -6.0840   17.7310  -32.4130 C   0  0  0  0  0  0  0  0  0  0  0  0
   -5.0580   16.8520  -32.7690 C   0  0  0  0  0  0  0  0  0  0  0  0
   -4.4730   16.9330  -34.0360 C   0  0  0  0  0  0  0  0  0  0  0  0
   -3.1850   15.8290  -34.4810 Cl  0  0  0  0  0  0  0  0  0  0  0  0
   -4.9140   17.8990  -34.9450 C   0  0  0  0  0  0  0  0  0  0  0  0
   -5.9390   18.7820  -34.5910 C   0  0  0  0  0  0  0  0  0  0  0  0
   -7.4480   20.8890  -32.4430 N   0  0  0  0  0  0  0  0  0  0  0  0
   -6.3440   21.5540  -32.1150 N   0  0  0  0  0  0  0  0  0  0  0  0
   -3.4240   21.0540  -32.4080 C   0  0  0  0  0  0  0  0  0  0  0  0
   -0.3030   20.1593  -33.4798 H   0  0  0  0  0  0  0  0  0  0  0  0
    0.3240   21.3714  -31.3901 H   0  0  0  0  0  0  0  0  0  0  0  0
   -1.4454   22.3893  -29.9543 H   0  0  0  0  0  0  0  0  0  0  0  0
   -4.8894   21.5790  -30.1194 H   0  0  0  0  0  0  0  0  0  0  0  0
   -3.6688   22.7334  -29.4457 H   0  0  0  0  0  0  0  0  0  0  0  0
   -7.8405   24.3829  -30.9805 H   0  0  0  0  0  0  0  0  0  0  0  0
   -9.8981   23.0391  -31.5910 H   0  0  0  0  0  0  0  0  0  0  0  0
   -9.3900   18.5440  -33.4460 H   0  0  0  0  0  0  0  0  0  0  0  0
   -6.5405   17.6609  -31.4147 H   0  0  0  0  0  0  0  0  0  0  0  0
   -4.7099   16.0948  -32.0510 H   0  0  0  0  0  0  0  0  0  0  0  0
   -4.4534   17.9648  -35.9418 H   0  0  0  0  0  0  0  0  0  0  0  0
   -6.2788   19.5415  -35.3104 H   0  0  0  0  0  0  0  0  0  0  0  0
   -4.4814   20.9574  -32.6954 H   0  0  0  0  0  0  0  0  0  0  0  0
  1  2  1  0
  2  3  2  0
  3  4  1  0
  4  5  2  0
  5  6  1  0
  6  7  1  0
  7  8  1  0
  8  9  1  0
  9 10  1  0
 10 11  2  0
 11 12  1  0
 12 13  2  0
 13 14  1  0
 14 15  2  0
 15 16  1  0
 16 17  2  0
 17 18  1  0
 18 19  2  0
 19 20  1  0
 19 21  1  0
 21 22  2  0
 15 23  1  0
 23 24  1  0
  6 25  2  0
 25  2  1  0
 24  9  2  0
 23 12  1  0
 22 16  1  0
  3 26  1  0
  4 27  1  0
  5 28  1  0
  7 29  1  0
  7 30  1  0
 10 31  1  0
 11 32  1  0
 14 33  1  0
 17 34  1  0
 18 35  1  0
 21 36  1  0
 22 37  1  0
 25 38  1  0
M  CHG  1  14   1
M  END
>  <UniqueID>  (8) 
7

>  <SMILES>  (8) 
Fc1cccc(CSc2ccc3n[nH+]c(-c4ccc(Cl)cc4)n3n2)c1

>  <Energy>  (8) 
82.59475027267942

>  <Genealogy>  (8) 
Fc1cccc(CSc2ccc3n[nH+]c(-c4ccc(Cl)cc4)n3n2)c1 (protonated)
Fc1cccc(CSc2ccc3n[nH+]c(-c4ccc(Cl)cc4)n3n2)c1 (3D coordinates assigned)
Fc1cccc(CSc2ccc3n[nH+]c(-c4ccc(Cl)cc4)n3n2)c1 (optimized conformer: 82.59475027267942 kcal/mol)

>  <smiles>  (8) 
Fc1cccc(CSc2ccc3nnc(-c4ccc(Cl)cc4)n3n2)c1

>  <score_type>  (8) 
oracle

>  <origin>  (8) 
adg

>  <m_score__min__energy>  (8) 
-8.75

>  <m_primary>  (8) 
energy

$$$$
8:0
     RDKit          3D

 29 30  0  0  1  0  0  0  0  0999 V2000
   -9.4870   21.5730  -31.0450 C   0  0  0  0  0  0  0  0  0  0  0  0
   -8.5550   22.4020  -31.9480 C   0  0  0  0  0  0  0  0  0  0  0  0
   -7.3580   21.7390  -32.3010 N   0  0  0  0  0  0  0  0  0  0  0  0
   -7.5510   20.4190  -32.7440 C   0  0  0  0  0  0  0  0  0  0  0  0
   -6.4030   19.8230  -33.0280 N   0  0  0  0  0  0  0  0  0  0  0  0
   -5.4310   20.6740  -32.7990 C   0  0  0  0  0  0  0  0  0  0  0  0
   -4.1130   20.5230  -32.9410 N   0  0  0  0  0  0  0  0  0  0  0  0
   -3.2950   21.5340  -32.6470 C   0  0  0  0  0  0  0  0  0  0  0  0
   -3.8500   22.6690  -32.2170 N   0  0  0  0  0  0  0  0  0  0  0  0
   -5.1830   22.8490  -32.0640 C   0  0  0  0  0  0  0  0  0  0  0  0
   -5.5790   23.9220  -31.6650 N   0  0  0  0  0  0  0  0  0  0  0  0
   -6.1760   24.3490  -30.5050 C   0  0  0  0  0  0  0  0  0  0  0  0
   -4.9430   25.0770  -29.7990 C   0  0  0  0  0  0  0  0  0  0  0  0
   -3.8950   25.2180  -30.7410 N   0  0  0  0  0  0  0  0  0  0  0  0
   -6.0530   21.8450  -32.3520 C   0  0  0  0  0  0  0  0  0  0  0  0
   -9.2545   21.7798  -29.9899 H   0  0  0  0  0  0  0  0  0  0  0  0
  -10.5330   21.8446  -31.2500 H   0  0  0  0  0  0  0  0  0  0  0  0
   -9.3392   20.5024  -31.2500 H   0  0  0  0  0  0  0  0  0  0  0  0
   -9.0986   22.6497  -32.8717 H   0  0  0  0  0  0  0  0  0  0  0  0
   -8.2669   23.2949  -31.3738 H   0  0  0  0  0  0  0  0  0  0  0  0
   -8.5360   19.9393  -32.8428 H   0  0  0  0  0  0  0  0  0  0  0  0
   -2.2046   21.4364  -32.7547 H   0  0  0  0  0  0  0  0  0  0  0  0
   -3.2270   23.4520  -31.9890 H   0  0  0  0  0  0  0  0  0  0  0  0
   -7.0008   25.0486  -30.7057 H   0  0  0  0  0  0  0  0  0  0  0  0
   -6.6428   23.5520  -29.9077 H   0  0  0  0  0  0  0  0  0  0  0  0
   -5.2550   26.0696  -29.4419 H   0  0  0  0  0  0  0  0  0  0  0  0
   -4.5973   24.4797  -28.9424 H   0  0  0  0  0  0  0  0  0  0  0  0
   -4.2010   25.6790  -31.6230 H   0  0  0  0  0  0  0  0  0  0  0  0
   -3.4810   24.2770  -30.9410 H   0  0  0  0  0  0  0  0  0  0  0  0
  1  2  1  0
  2  3  1  0
  3  4  1  0
  4  5  2  0
  5  6  1  0
  6  7  1  0
  7  8  2  0
  8  9  1  0
  9 10  1  0
 10 11  2  0
 11 12  1  0
 12 13  1  0
 13 14  1  0
 10 15  1  0
 15  3  1  0
 15  6  2  0
  1 16  1  0
  1 17  1  0
  1 18  1  0
  2 19  1  0
  2 20  1  0
  4 21  1  0
  8 22  1  0
  9 23  1  0
 12 24  1  0
 12 25  1  0
 13 26  1  0
 13 27  1  0
 14 28  1  0
 14 29  1  0
M  END
>  <smiles>  (9) 
CCn1cnc2nc[nH]c(=NCCN)c21

>  <score_type>  (9) 
oracle

>  <origin>  (9) 
adg

>  <m_score__min__energy>  (9) 
-5.5300000000000002

>  <m_primary>  (9) 
energy

$$$$
9:0
     RDKit          3D

 43 46  0  0  1  0  0  0  0  0999 V2000
   -8.2920   20.9260  -31.9240 C   0  0  0  0  0  0  0  0  0  0  0  0
   -2.6620   21.2200  -29.5240 C   0  0  0  0  0  0  0  0  0  0  0  0
   -2.4850   21.0860  -30.9620 C   0  0  0  0  0  0  0  0  0  0  0  0
   -7.2560   23.8790  -31.2070 C   0  0  0  0  0  0  0  0  0  0  0  0
   -6.2990   24.8570  -31.1710 C   0  0  0  0  0  0  0  0  0  0  0  0
   -5.0530   24.6760  -30.6070 C   0  0  0  0  0  0  0  0  0  0  0  0
   -3.9480   25.4210  -30.4290 N   0  0  0  0  0  0  0  0  0  0  0  0
   -3.0420   24.6900  -29.8070 N   0  0  0  0  0  0  0  0  0  0  0  0
   -3.5170   23.4580  -29.5610 C   0  0  0  0  0  0  0  0  0  0  0  0
   -2.8320   22.3680  -28.9010 C   0  0  0  0  0  0  0  0  0  0  0  0
   -8.0420   21.6310  -30.8680 C   0  0  0  0  0  0  0  0  0  0  0  0
   -7.0270   22.6270  -30.6710 C   0  0  0  0  0  0  0  0  0  0  0  0
   -3.5680   20.7680  -31.7910 C   0  0  0  0  0  0  0  0  0  0  0  0
   -3.4220   20.6340  -33.1580 C   0  0  0  0  0  0  0  0  0  0  0  0
   -2.1970   20.8100  -33.7660 C   0  0  0  0  0  0  0  0  0  0  0  0
   -1.1200   21.1220  -32.9720 C   0  0  0  0  0  0  0  0  0  0  0  0
   -1.2780   21.2540  -31.6040 C   0  0  0  0  0  0  0  0  0  0  0  0
   -4.8060   23.4310  -30.0670 C   0  0  0  0  0  0  0  0  0  0  0  0
   -5.7860   22.4300  -30.1060 C   0  0  0  0  0  0  0  0  0  0  0  0
   -7.6340   19.7570  -32.4170 C   0  0  0  0  0  0  0  0  0  0  0  0
   -7.6080   18.4960  -31.8970 C   0  0  0  0  0  0  0  0  0  0  0  0
   -6.8460   17.4550  -32.4020 C   0  0  0  0  0  0  0  0  0  0  0  0
   -6.0460   17.6590  -33.5030 C   0  0  0  0  0  0  0  0  0  0  0  0
   -6.0560   18.9230  -34.0500 C   0  0  0  0  0  0  0  0  0  0  0  0
   -6.8140   19.9510  -33.5430 C   0  0  0  0  0  0  0  0  0  0  0  0
   -9.1371   21.2792  -32.5331 H   0  0  0  0  0  0  0  0  0  0  0  0
   -2.6533   20.3024  -28.9174 H   0  0  0  0  0  0  0  0  0  0  0  0
   -8.2287   24.0950  -31.6730 H   0  0  0  0  0  0  0  0  0  0  0  0
   -6.5351   25.8359  -31.6138 H   0  0  0  0  0  0  0  0  0  0  0  0
   -3.8630   26.4190  -30.7480 H   0  0  0  0  0  0  0  0  0  0  0  0
   -2.4524   22.4982  -27.8768 H   0  0  0  0  0  0  0  0  0  0  0  0
   -8.6960   21.4414  -30.0041 H   0  0  0  0  0  0  0  0  0  0  0  0
   -4.5612   20.6210  -31.3416 H   0  0  0  0  0  0  0  0  0  0  0  0
   -4.2988   20.3823  -33.7727 H   0  0  0  0  0  0  0  0  0  0  0  0
   -2.0853   20.7037  -34.8551 H   0  0  0  0  0  0  0  0  0  0  0  0
   -0.1285   21.2674  -33.4257 H   0  0  0  0  0  0  0  0  0  0  0  0
   -0.3950   21.5059  -30.9983 H   0  0  0  0  0  0  0  0  0  0  0  0
   -5.5552   21.4477  -29.6680 H   0  0  0  0  0  0  0  0  0  0  0  0
   -8.2350   18.2918  -31.0165 H   0  0  0  0  0  0  0  0  0  0  0  0
   -6.8804   16.4654  -31.9229 H   0  0  0  0  0  0  0  0  0  0  0  0
   -5.4289   16.8523  -33.9254 H   0  0  0  0  0  0  0  0  0  0  0  0
   -5.4290   19.1184  -34.9324 H   0  0  0  0  0  0  0  0  0  0  0  0
   -6.7789   20.9394  -34.0246 H   0  0  0  0  0  0  0  0  0  0  0  0
  1  2  2  0
  2  3  1  0
  3  4  2  0
  4  5  1  0
  5  6  2  0
  6  7  1  0
  7  8  1  0
  8  9  2  0
  9 10  1  0
 10 11  2  0
 11 12  1  0
 12 13  2  0
 13 14  1  0
 14 15  2  0
 15 16  1  0
 16 17  2  0
  9 18  1  0
 18 19  2  0
  1 20  1  0
 20 21  2  0
 21 22  1  0
 22 23  2  0
 23 24  1  0
 24 25  2  0
 19  3  1  0
 25 20  1  0
 18  6  1  0
 17 12  1  0
  1 26  1  0
  2 27  1  0
  4 28  1  0
  5 29  1  0
  7 30  1  0
 10 31  1  0
 11 32  1  0
 13 33  1  0
 14 34  1  0
 15 35  1  0
 16 36  1  0
 17 37  1  0
 19 38  1  0
 21 39  1  0
 22 40  1  0
 23 41  1  0
 24 42  1  0
 25 43  1  0
M  END
>  <smiles>  (10) 
C(=Cc1ccc2[nH]nc(C=Cc3ccccc3)c2c1)c1ccccc1

>  <score_type>  (10) 
oracle

>  <origin>  (10) 
adg

>  <m_score__min__energy>  (10) 
-10.41

>  <m_primary>  (10) 
energy

$$$$
10:0
     RDKit          3D

 42 44  0  0  0  0  0  0  0  0999 V2000
   -3.3376   23.1862  -27.9697 H   0  0  0  0  0  0  0  0  0  0  0  0
   -3.3190   23.2440  -29.0680 C   0  0  0  0  0  0  0  0  0  0  0  0
   -3.0870   24.5570  -29.7110 C   0  0  0  0  0  0  0  0  0  0  0  0
   -2.1160   25.2730  -29.3450 O   0  0  0  0  0  0  0  0  0  0  0  0
   -3.9510   25.0530  -30.7430 N   0  0  0  0  0  0  0  0  0  0  0  0
   -5.3800   24.7730  -30.8640 C   0  0  0  0  0  0  0  0  0  0  0  0
   -5.9148   25.7092  -31.0819 H   0  0  0  0  0  0  0  0  0  0  0  0
   -5.7387   24.3418  -29.9177 H   0  0  0  0  0  0  0  0  0  0  0  0
   -5.6380   23.7720  -31.9920 C   0  0  0  0  0  0  0  0  0  0  0  0
   -4.7173   23.2041  -32.1917 H   0  0  0  0  0  0  0  0  0  0  0  0
   -5.9443   24.3198  -32.8954 H   0  0  0  0  0  0  0  0  0  0  0  0
   -6.7050   22.8450  -31.6100 N   0  0  0  0  0  0  0  0  0  0  0  0
   -7.6200   23.0550  -30.6340 C   0  0  0  0  0  0  0  0  0  0  0  0
   -7.7089   23.9811  -30.0471 H   0  0  0  0  0  0  0  0  0  0  0  0
   -8.4320   21.9360  -30.4770 C   0  0  0  0  0  0  0  0  0  0  0  0
   -9.2652   21.8102  -29.7699 H   0  0  0  0  0  0  0  0  0  0  0  0
   -7.9700   21.0190  -31.3960 C   0  0  0  0  0  0  0  0  0  0  0  0
   -8.3930   19.7200  -31.6620 C   0  0  0  0  0  0  0  0  0  0  0  0
   -9.2337   19.2731  -31.1111 H   0  0  0  0  0  0  0  0  0  0  0  0
   -7.7120   18.9970  -32.6570 C   0  0  0  0  0  0  0  0  0  0  0  0
   -8.0158   17.9644  -32.8837 H   0  0  0  0  0  0  0  0  0  0  0  0
   -6.6380   19.5850  -33.3710 C   0  0  0  0  0  0  0  0  0  0  0  0
   -5.8960   18.7910  -34.4030 C   0  0  0  0  0  0  0  0  0  0  0  0
   -5.2269   18.0750  -33.9035 H   0  0  0  0  0  0  0  0  0  0  0  0
   -6.6145   18.2444  -35.0315 H   0  0  0  0  0  0  0  0  0  0  0  0
   -5.3021   19.4709  -35.0315 H   0  0  0  0  0  0  0  0  0  0  0  0
   -6.2250   20.8990  -33.0610 C   0  0  0  0  0  0  0  0  0  0  0  0
   -5.3785   21.3641  -33.5874 H   0  0  0  0  0  0  0  0  0  0  0  0
   -6.9210   21.5930  -32.0670 C   0  0  0  0  0  0  0  0  0  0  0  0
   -3.5070   22.1240  -29.7780 C   0  0  0  0  0  0  0  0  0  0  0  0
   -4.3082   21.4369  -29.4681 H   0  0  0  0  0  0  0  0  0  0  0  0
   -2.6880   21.7640  -30.9620 C   0  0  0  0  0  0  0  0  0  0  0  0
   -3.2680   21.5220  -32.2260 C   0  0  0  0  0  0  0  0  0  0  0  0
   -4.3570   21.6101  -32.3535 H   0  0  0  0  0  0  0  0  0  0  0  0
   -2.4670   21.1710  -33.3170 C   0  0  0  0  0  0  0  0  0  0  0  0
   -2.9276   20.9851  -34.2984 H   0  0  0  0  0  0  0  0  0  0  0  0
   -1.0850   21.0560  -33.1640 C   0  0  0  0  0  0  0  0  0  0  0  0
   -0.4565   20.7895  -34.0265 H   0  0  0  0  0  0  0  0  0  0  0  0
   -0.5000   21.2790  -31.9170 C   0  0  0  0  0  0  0  0  0  0  0  0
    0.5892   21.1825  -31.7975 H   0  0  0  0  0  0  0  0  0  0  0  0
   -1.2940   21.6250  -30.8180 C   0  0  0  0  0  0  0  0  0  0  0  0
   -0.6970   21.8400  -29.6180 F   0  0  0  0  0  0  0  0  0  0  0  0
  1  2  1  0
  2  3  1  0
  3  4  2  0
  3  5  1  0
  5  6  1  0
  6  7  1  0
  6  8  1  0
  6  9  1  0
  9 10  1  0
  9 11  1  0
  9 12  1  0
 12 13  1  0
 13 14  1  0
 13 15  2  0
 15 16  1  0
 15 17  1  0
 17 18  2  0
 18 19  1  0
 18 20  1  0
 20 21  1  0
 20 22  2  0
 22 23  1  0
 23 24  1  0
 23 25  1  0
 23 26  1  0
 22 27  1  0
 27 28  1  0
 27 29  2  0
  2 30  2  0
 30 31  1  0
 30 32  1  0
 32 33  2  0
 33 34  1  0
 33 35  1  0
 35 36  1  0
 35 37  2  0
 37 38  1  0
 37 39  1  0
 39 40  1  0
 39 41  2  0
 41 42  1  0
 29 12  1  0
 41 32  1  0
 29 17  1  0
M  CHG  1   5  -1
M  END
>  <UniqueID>  (11) 
8

>  <SMILES>  (11) 
Cc1ccc2ccn(CC[N-]C(=O)/C=C/c3ccccc3F)c2c1

>  <Energy>  (11) 
73.04948214985481

>  <Genealogy>  (11) 
Cc1ccc2ccn(CC[N-]C(=O)C=Cc3ccccc3F)c2c1 (protonated)
Cc1ccc2ccn(CC[N-]C(=O)/C=C/c3ccccc3F)c2c1 (cis-trans isomerization)
Cc1ccc2ccn(CC[N-]C(=O)/C=C/c3ccccc3F)c2c1 (3D coordinates assigned)
Cc1ccc2ccn(CC[N-]C(=O)/C=C/c3ccccc3F)c2c1 (optimized conformer: 73.04948214985481 kcal/mol)

>  <smiles>  (11) 
Cc1ccc2ccn(CCNC(=O)C=Cc3ccccc3F)c2c1

>  <score_type>  (11) 
oracle

>  <origin>  (11) 
adg

>  <m_score__min__energy>  (11) 
-10.4

>  <m_primary>  (11) 
energy

$$$$
11:0
     RDKit          3D

 45 48  0  0  0  0  0  0  0  0999 V2000
   -0.8504   28.4819  -23.8362 H   0  0  0  0  0  0  0  0  0  0  0  0
   -0.8600   27.4310  -24.1610 C   0  0  0  0  0  0  0  0  0  0  0  0
   -1.3180   26.9720  -25.3430 N   0  0  0  0  0  0  0  0  0  0  0  0
   -1.1420   25.6610  -25.3220 N   0  0  0  0  0  0  0  0  0  0  0  0
   -1.5040   24.7910  -26.4010 C   0  0  0  0  0  0  0  0  0  0  0  0
   -2.1570   25.2860  -27.4820 N   0  0  0  0  0  0  0  0  0  0  0  0
   -2.5110   24.4670  -28.5080 C   0  0  0  0  0  0  0  0  0  0  0  0
   -3.1180   24.9270  -29.5630 N   0  0  0  0  0  0  0  0  0  0  0  0
   -4.3780   24.4840  -30.0960 C   0  0  0  0  0  0  0  0  0  0  0  0
   -4.3970   23.3570  -30.9280 C   0  0  0  0  0  0  0  0  0  0  0  0
   -3.4548   22.8474  -31.1780 H   0  0  0  0  0  0  0  0  0  0  0  0
   -5.6040   22.8750  -31.4430 C   0  0  0  0  0  0  0  0  0  0  0  0
   -5.6059   21.9935  -32.1010 H   0  0  0  0  0  0  0  0  0  0  0  0
   -6.8120   23.5110  -31.1240 C   0  0  0  0  0  0  0  0  0  0  0  0
   -8.1110   22.9690  -31.6440 C   0  0  0  0  0  0  0  0  0  0  0  0
   -8.7601   22.6982  -30.7982 H   0  0  0  0  0  0  0  0  0  0  0  0
   -8.6084   23.7346  -32.2575 H   0  0  0  0  0  0  0  0  0  0  0  0
   -7.9167   22.0769  -32.2575 H   0  0  0  0  0  0  0  0  0  0  0  0
   -6.8030   24.6080  -30.2500 C   0  0  0  0  0  0  0  0  0  0  0  0
   -7.7501   25.0911  -29.9679 H   0  0  0  0  0  0  0  0  0  0  0  0
   -5.5960   25.0900  -29.7360 C   0  0  0  0  0  0  0  0  0  0  0  0
   -5.5981   25.9472  -29.0467 H   0  0  0  0  0  0  0  0  0  0  0  0
   -2.1880   23.1510  -28.4520 N   0  0  0  0  0  0  0  0  0  0  0  0
   -1.5330   22.6420  -27.3740 C   0  0  0  0  0  0  0  0  0  0  0  0
   -1.1930   21.2410  -27.3160 N   0  0  0  0  0  0  0  0  0  0  0  0
   -2.2530   20.2530  -27.0560 C   0  0  0  0  0  0  0  0  0  0  0  0
   -2.8660   20.6011  -26.2116 H   0  0  0  0  0  0  0  0  0  0  0  0
   -2.8604   20.1525  -27.9676 H   0  0  0  0  0  0  0  0  0  0  0  0
   -1.6710   18.8770  -26.7140 C   0  0  0  0  0  0  0  0  0  0  0  0
   -1.1563   18.9381  -25.7438 H   0  0  0  0  0  0  0  0  0  0  0  0
   -2.4985   18.1533  -26.6745 H   0  0  0  0  0  0  0  0  0  0  0  0
   -0.6710   18.4060  -27.7800 C   0  0  0  0  0  0  0  0  0  0  0  0
   -0.0605   17.5983  -27.3500 H   0  0  0  0  0  0  0  0  0  0  0  0
   -1.2603   18.0725  -28.6469 H   0  0  0  0  0  0  0  0  0  0  0  0
    0.2760   19.5180  -28.2810 C   0  0  0  0  0  0  0  0  0  0  0  0
    1.3078   19.1380  -28.2511 H   0  0  0  0  0  0  0  0  0  0  0  0
   -0.0391   19.7797  -29.3019 H   0  0  0  0  0  0  0  0  0  0  0  0
    0.2040   20.7970  -27.4410 C   0  0  0  0  0  0  0  0  0  0  0  0
    0.6137   20.5983  -26.4397 H   0  0  0  0  0  0  0  0  0  0  0  0
    0.7900   21.5860  -27.9350 H   0  0  0  0  0  0  0  0  0  0  0  0
   -1.1940   23.4700  -26.3510 N   0  0  0  0  0  0  0  0  0  0  0  0
   -0.5950   25.2590  -24.1850 N   0  0  0  0  0  0  0  0  0  0  0  0
   -0.3600   24.2730  -23.9310 H   0  0  0  0  0  0  0  0  0  0  0  0
   -0.4050   26.3520  -23.4290 C   0  0  0  0  0  0  0  0  0  0  0  0
    0.0301   26.3823  -22.4192 H   0  0  0  0  0  0  0  0  0  0  0  0
  1  2  1  0
  2  3  2  0
  3  4  1  0
  4  5  1  0
  5  6  2  0
  6  7  1  0
  7  8  2  0
  8  9  1  0
  9 10  2  0
 10 11  1  0
 10 12  1  0
 12 13  1  0
 12 14  2  0
 14 15  1  0
 15 16  1  0
 15 17  1  0
 15 18  1  0
 14 19  1  0
 19 20  1  0
 19 21  2  0
 21 22  1  0
  7 23  1  0
 23 24  2  0
 24 25  1  0
 25 26  1  0
 26 27  1  0
 26 28  1  0
 26 29  1  0
 29 30  1  0
 29 31  1  0
 29 32  1  0
 32 33  1  0
 32 34  1  0
 32 35  1  0
 35 36  1  0
 35 37  1  0
 35 38  1  0
 38 39  1  0
 38 40  1  0
 24 41  1  0
  4 42  1  0
 42 43  1  0
 42 44  2  0
 44 45  1  0
 44  2  1  0
 41  5  1  0
 21  9  1  0
 38 25  1  0
M  CHG  2  41  -1  42   1
M  END
>  <UniqueID>  (12) 
9

>  <SMILES>  (12) 
Cc1ccc(/N=c2/nc(N3CCCCC3)[n-]c(-n3ncc[nH+]3)n2)cc1

>  <Energy>  (12) 
89.00562589889867

>  <Genealogy>  (12) 
Cc1ccc(N=c2nc(N3CCCCC3)[n-]c(-n3ncc[nH+]3)n2)cc1 (protonated)
Cc1ccc(/N=c2/nc(N3CCCCC3)[n-]c(-n3ncc[nH+]3)n2)cc1 (cis-trans isomerization)
Cc1ccc(/N=c2/nc(N3CCCCC3)[n-]c(-n3ncc[nH+]3)n2)cc1 (3D coordinates assigned)
Cc1ccc(/N=c2/nc(N3CCCCC3)[n-]c(-n3ncc[nH+]3)n2)cc1 (nonaromatic ring conformer: 89.00562589889867 kcal/mol)

>  <smiles>  (12) 
Cc1ccc(N=c2nc(N3CCCCC3)[nH]c(-n3nccn3)n2)cc1

>  <score_type>  (12) 
oracle

>  <origin>  (12) 
adg

>  <m_score__min__energy>  (12) 
-8.5899999999999999

>  <m_primary>  (12) 
energy

$$$$
12:0
     RDKit          3D

 44 45  0  0  0  0  0  0  0  0999 V2000
   -3.3050   16.0010  -33.2850 C   0  0  0  0  0  0  0  0  0  0  0  0
   -4.5290   16.7140  -32.7080 C   0  0  0  0  0  0  0  0  0  0  0  0
   -4.9950   17.8260  -33.5740 N   0  0  0  0  0  0  0  0  0  0  0  0
   -6.0590   17.4580  -34.5430 C   0  0  0  0  0  0  0  0  0  0  0  0
   -6.8320   16.1810  -34.1720 C   0  0  0  0  0  0  0  0  0  0  0  0
   -3.8650   18.5490  -34.2100 C   0  0  0  0  0  0  0  0  0  0  0  0
   -3.6090   19.8740  -33.4830 C   0  0  0  0  0  0  0  0  0  0  0  0
   -4.4170   19.9630  -32.2640 N   0  0  0  0  0  0  0  0  0  0  0  0
   -5.3090   21.0720  -32.0730 C   0  0  0  0  0  0  0  0  0  0  0  0
   -4.7680   22.3290  -31.7700 C   0  0  0  0  0  0  0  0  0  0  0  0
   -5.5940   23.4290  -31.5080 C   0  0  0  0  0  0  0  0  0  0  0  0
   -4.9850   24.6580  -31.2180 O   0  0  0  0  0  0  0  0  0  0  0  0
   -5.5760   25.6780  -30.4240 C   0  0  0  0  0  0  0  0  0  0  0  0
   -6.9900   23.2690  -31.5420 C   0  0  0  0  0  0  0  0  0  0  0  0
   -7.5460   22.0230  -31.8570 C   0  0  0  0  0  0  0  0  0  0  0  0
   -8.9340   21.8610  -31.9110 C   0  0  0  0  0  0  0  0  0  0  0  0
   -9.4780   20.6380  -32.2960 C   0  0  0  0  0  0  0  0  0  0  0  0
   -8.6280   19.5750  -32.6070 C   0  0  0  0  0  0  0  0  0  0  0  0
   -7.2780   19.7280  -32.5320 N   0  0  0  0  0  0  0  0  0  0  0  0
   -6.7110   20.9150  -32.1480 C   0  0  0  0  0  0  0  0  0  0  0  0
   -2.6735   15.6332  -32.4629 H   0  0  0  0  0  0  0  0  0  0  0  0
   -3.6327   15.1525  -33.9036 H   0  0  0  0  0  0  0  0  0  0  0  0
   -2.7285   16.7046  -33.9036 H   0  0  0  0  0  0  0  0  0  0  0  0
   -5.3450   15.9842  -32.6000 H   0  0  0  0  0  0  0  0  0  0  0  0
   -4.2413   17.1425  -31.7366 H   0  0  0  0  0  0  0  0  0  0  0  0
   -6.7754   18.2906  -34.6020 H   0  0  0  0  0  0  0  0  0  0  0  0
   -5.5592   17.2587  -35.5024 H   0  0  0  0  0  0  0  0  0  0  0  0
   -6.8867   16.0906  -33.0771 H   0  0  0  0  0  0  0  0  0  0  0  0
   -7.8494   16.2347  -34.5868 H   0  0  0  0  0  0  0  0  0  0  0  0
   -6.3127   15.3045  -34.5868 H   0  0  0  0  0  0  0  0  0  0  0  0
   -2.9600   17.9257  -34.1591 H   0  0  0  0  0  0  0  0  0  0  0  0
   -4.1179   18.7583  -35.2599 H   0  0  0  0  0  0  0  0  0  0  0  0
   -2.5440   19.9386  -33.2153 H   0  0  0  0  0  0  0  0  0  0  0  0
   -3.8866   20.7024  -34.1514 H   0  0  0  0  0  0  0  0  0  0  0  0
   -4.6410   19.0710  -31.7850 H   0  0  0  0  0  0  0  0  0  0  0  0
   -3.6756   22.4536  -31.7374 H   0  0  0  0  0  0  0  0  0  0  0  0
   -5.4380   25.4398  -29.3590 H   0  0  0  0  0  0  0  0  0  0  0  0
   -5.0966   26.6421  -30.6493 H   0  0  0  0  0  0  0  0  0  0  0  0
   -6.6508   25.7415  -30.6493 H   0  0  0  0  0  0  0  0  0  0  0  0
   -7.6465   24.1235  -31.3209 H   0  0  0  0  0  0  0  0  0  0  0  0
   -9.5962   22.6995  -31.6494 H   0  0  0  0  0  0  0  0  0  0  0  0
  -10.5690   20.5106  -32.3546 H   0  0  0  0  0  0  0  0  0  0  0  0
   -9.0522   18.6078  -32.9146 H   0  0  0  0  0  0  0  0  0  0  0  0
   -6.6820   18.9130  -32.8020 H   0  0  0  0  0  0  0  0  0  0  0  0
  1  2  1  0
  2  3  1  0
  3  4  1  0
  4  5  1  0
  3  6  1  0
  6  7  1  0
  7  8  1  0
  8  9  1  0
  9 10  2  0
 10 11  1  0
 11 12  1  0
 12 13  1  0
 11 14  2  0
 14 15  1  0
 15 16  2  0
 16 17  1  0
 17 18  2  0
 18 19  1  0
 19 20  2  0
 20  9  1  0
 20 15  1  0
  1 21  1  0
  1 22  1  0
  1 23  1  0
  2 24  1  0
  2 25  1  0
  4 26  1  0
  4 27  1  0
  5 28  1  0
  5 29  1  0
  5 30  1  0
  6 31  1  0
  6 32  1  0
  7 33  1  0
  7 34  1  0
  8 35  1  0
 10 36  1  0
 13 37  1  0
 13 38  1  0
 13 39  1  0
 14 40  1  0
 16 41  1  0
 17 42  1  0
 18 43  1  0
 19 44  1  0
M  CHG  1  19   1
M  END
>  <UniqueID>  (13) 
10

>  <SMILES>  (13) 
CCN(CC)CCNc1cc(OC)cc2ccc[nH+]c12

>  <Energy>  (13) 
53.53137531070323

>  <Genealogy>  (13) 
CCN(CC)CCNc1cc(OC)cc2ccc[nH+]c12 (protonated)
CCN(CC)CCNc1cc(OC)cc2ccc[nH+]c12 (3D coordinates assigned)
CCN(CC)CCNc1cc(OC)cc2ccc[nH+]c12 (optimized conformer: 53.53137531070323 kcal/mol)

>  <smiles>  (13) 
CCN(CC)CCNc1cc(OC)cc2cccnc12

>  <score_type>  (13) 
oracle

>  <origin>  (13) 
adg

>  <m_score__min__energy>  (13) 
-5.9000000000000004

>  <m_primary>  (13) 
energy

$$$$
13:0
     RDKit          3D

 38 40  0  0  0  0  0  0  0  0999 V2000
   -8.7315   22.2104  -31.4819 H   0  0  0  0  0  0  0  0  0  0  0  0
   -7.7990   22.7610  -31.2890 C   0  0  0  0  0  0  0  0  0  0  0  0
   -7.1650   23.4480  -32.3280 C   0  0  0  0  0  0  0  0  0  0  0  0
   -7.5944   23.4311  -33.3406 H   0  0  0  0  0  0  0  0  0  0  0  0
   -5.9850   24.1570  -32.0810 C   0  0  0  0  0  0  0  0  0  0  0  0
   -5.4798   24.6812  -32.9056 H   0  0  0  0  0  0  0  0  0  0  0  0
   -5.4420   24.2040  -30.7900 C   0  0  0  0  0  0  0  0  0  0  0  0
   -4.2120   24.9190  -30.5840 N   0  0  0  0  0  0  0  0  0  0  0  0
   -3.1180   24.4510  -30.0570 C   0  0  0  0  0  0  0  0  0  0  0  0
   -2.3230   25.2890  -29.3150 N   0  0  0  0  0  0  0  0  0  0  0  0
   -1.1730   24.8480  -28.7250 C   0  0  0  0  0  0  0  0  0  0  0  0
   -0.4510   25.6320  -28.0560 O   0  0  0  0  0  0  0  0  0  0  0  0
   -0.8310   23.5140  -28.8910 C   0  0  0  0  0  0  0  0  0  0  0  0
    0.2470   22.8410  -28.4420 N   0  0  0  0  0  0  0  0  0  0  0  0
    0.0430   21.5880  -28.9340 C   0  0  0  0  0  0  0  0  0  0  0  0
    0.7394   20.7527  -28.7689 H   0  0  0  0  0  0  0  0  0  0  0  0
   -1.1060   21.4720  -29.6490 N   0  0  0  0  0  0  0  0  0  0  0  0
   -1.5970   20.3000  -30.3720 C   0  0  0  0  0  0  0  0  0  0  0  0
   -2.6970   20.3050  -30.3635 H   0  0  0  0  0  0  0  0  0  0  0  0
   -1.2159   19.3941  -29.8779 H   0  0  0  0  0  0  0  0  0  0  0  0
   -1.1060   20.3140  -31.8200 C   0  0  0  0  0  0  0  0  0  0  0  0
   -1.3609   19.3579  -32.3006 H   0  0  0  0  0  0  0  0  0  0  0  0
   -0.0154   20.4571  -31.8306 H   0  0  0  0  0  0  0  0  0  0  0  0
   -1.7470   21.4180  -32.5580 N   0  0  0  0  0  0  0  0  0  0  0  0
   -2.1170   22.1070  -31.8610 H   0  0  0  0  0  0  0  0  0  0  0  0
   -2.8770   20.9710  -33.3840 C   0  0  0  0  0  0  0  0  0  0  0  0
   -2.8232   19.8792  -33.5069 H   0  0  0  0  0  0  0  0  0  0  0  0
   -2.8167   21.4720  -34.3614 H   0  0  0  0  0  0  0  0  0  0  0  0
   -4.2080   21.3350  -32.7320 C   0  0  0  0  0  0  0  0  0  0  0  0
   -4.1004   21.3056  -31.6377 H   0  0  0  0  0  0  0  0  0  0  0  0
   -4.5045   22.3472  -33.0442 H   0  0  0  0  0  0  0  0  0  0  0  0
   -4.9784   20.6146  -33.0442 H   0  0  0  0  0  0  0  0  0  0  0  0
   -1.6310   22.7010  -29.6130 C   0  0  0  0  0  0  0  0  0  0  0  0
   -2.7710   23.1330  -30.2030 N   0  0  0  0  0  0  0  0  0  0  0  0
   -6.0690   23.4820  -29.7550 C   0  0  0  0  0  0  0  0  0  0  0  0
   -5.6295   23.4755  -28.7466 H   0  0  0  0  0  0  0  0  0  0  0  0
   -7.2480   22.7740  -30.0060 C   0  0  0  0  0  0  0  0  0  0  0  0
   -7.7429   22.2258  -29.1908 H   0  0  0  0  0  0  0  0  0  0  0  0
  1  2  1  0
  2  3  2  0
  3  4  1  0
  3  5  1  0
  5  6  1  0
  5  7  2  0
  7  8  1  0
  8  9  2  0
  9 10  1  0
 10 11  1  0
 11 12  2  0
 11 13  1  0
 13 14  1  0
 14 15  2  0
 15 16  1  0
 15 17  1  0
 17 18  1  0
 18 19  1  0
 18 20  1  0
 18 21  1  0
 21 22  1  0
 21 23  1  0
 21 24  1  0
 24 25  1  0
 24 26  1  0
 26 27  1  0
 26 28  1  0
 26 29  1  0
 29 30  1  0
 29 31  1  0
 29 32  1  0
 17 33  1  0
 33 34  1  0
  7 35  1  0
 35 36  1  0
 35 37  2  0
 37 38  1  0
 37  2  1  0
 34  9  1  0
 33 13  2  0
M  CHG  2  10  -1  34  -1
M  END
>  <UniqueID>  (14) 
11

>  <SMILES>  (14) 
CCNCCn1cnc2c(=O)[n-]/c(=N/c3ccccc3)[n-]c21

>  <Energy>  (14) 
82.59140061615716

>  <Genealogy>  (14) 
CCNCCn1cnc2c(=O)[n-]c(=Nc3ccccc3)[n-]c21 (protonated)
CCNCCn1cnc2c(=O)[n-]/c(=N/c3ccccc3)[n-]c21 (cis-trans isomerization)
CCNCCn1cnc2c(=O)[n-]/c(=N/c3ccccc3)[n-]c21 (3D coordinates assigned)
CCNCCn1cnc2c(=O)[n-]/c(=N/c3ccccc3)[n-]c21 (optimized conformer: 82.59140061615716 kcal/mol)

>  <smiles>  (14) 
CCNCCn1cnc2c(=O)[nH]c(=Nc3ccccc3)[nH]c21

>  <score_type>  (14) 
oracle

>  <origin>  (14) 
adg

>  <m_score__min__energy>  (14) 
-8.5199999999999996

>  <m_primary>  (14) 
energy

$$$$
14:0
     RDKit          3D

 45 46  0  0  0  0  0  0  0  0999 V2000
   -4.2660   17.0560  -34.9660 C   0  0  0  0  0  0  0  0  0  0  0  0
   -5.6840   17.6100  -34.8020 C   0  0  0  0  0  0  0  0  0  0  0  0
   -5.7310   18.7510  -33.8500 N   0  0  2  0  0  0  0  0  0  0  0  0
   -4.3760   19.1180  -33.3770 C   0  0  0  0  0  0  0  0  0  0  0  0
   -4.3890   20.3940  -32.5660 C   0  0  0  0  0  0  0  0  0  0  0  0
   -3.8500   20.4090  -31.2730 C   0  0  0  0  0  0  0  0  0  0  0  0
   -3.8640   21.5820  -30.5130 C   0  0  0  0  0  0  0  0  0  0  0  0
   -4.4170   22.7720  -31.0310 C   0  0  0  0  0  0  0  0  0  0  0  0
   -4.4330   23.9900  -30.2420 N   0  0  0  0  0  0  0  0  0  0  0  0
   -3.5110   24.1610  -29.1130 C   0  0  0  0  0  0  0  0  0  0  0  0
   -5.3720   25.0730  -30.5610 C   0  0  0  0  0  0  0  0  0  0  0  0
   -4.9530   22.7460  -32.3350 C   0  0  0  0  0  0  0  0  0  0  0  0
   -4.9370   21.5710  -33.0920 C   0  0  0  0  0  0  0  0  0  0  0  0
   -6.7240   18.3480  -32.4640 S   0  0  0  0  0  0  0  0  0  0  0  0
   -7.5950   17.1600  -32.7610 O   0  0  0  0  0  0  0  0  0  0  0  0
   -5.8440   18.0130  -31.2890 O   0  0  0  0  0  0  0  0  0  0  0  0
   -7.7660   19.7120  -32.0670 C   0  0  0  0  0  0  0  0  0  0  0  0
   -7.3160   20.7410  -31.2250 C   0  0  0  0  0  0  0  0  0  0  0  0
   -8.1480   21.8260  -30.9370 C   0  0  0  0  0  0  0  0  0  0  0  0
   -9.4310   21.8920  -31.4880 C   0  0  0  0  0  0  0  0  0  0  0  0
   -9.8830   20.8720  -32.3290 C   0  0  0  0  0  0  0  0  0  0  0  0
   -9.0530   19.7830  -32.6190 C   0  0  0  0  0  0  0  0  0  0  0  0
   -3.8230   16.8829  -33.9741 H   0  0  0  0  0  0  0  0  0  0  0  0
   -4.3050   16.1070  -35.5208 H   0  0  0  0  0  0  0  0  0  0  0  0
   -3.6513   17.7801  -35.5208 H   0  0  0  0  0  0  0  0  0  0  0  0
   -6.0475   17.9509  -35.7827 H   0  0  0  0  0  0  0  0  0  0  0  0
   -6.3178   16.8061  -34.3994 H   0  0  0  0  0  0  0  0  0  0  0  0
   -6.1680   19.5860  -34.3050 H   0  0  0  0  0  0  0  0  0  0  0  0
   -3.9848   18.3025  -32.7509 H   0  0  0  0  0  0  0  0  0  0  0  0
   -3.7392   19.2808  -34.2590 H   0  0  0  0  0  0  0  0  0  0  0  0
   -3.4127   19.4912  -30.8529 H   0  0  0  0  0  0  0  0  0  0  0  0
   -3.4386   21.5772  -29.4986 H   0  0  0  0  0  0  0  0  0  0  0  0
   -4.0651   24.0582  -28.1683 H   0  0  0  0  0  0  0  0  0  0  0  0
   -2.7247   23.3934  -29.1623 H   0  0  0  0  0  0  0  0  0  0  0  0
   -3.0522   25.1595  -29.1623 H   0  0  0  0  0  0  0  0  0  0  0  0
   -5.7540   25.5136  -29.6283 H   0  0  0  0  0  0  0  0  0  0  0  0
   -4.8541   25.8467  -31.1468 H   0  0  0  0  0  0  0  0  0  0  0  0
   -6.2113   24.6699  -31.1468 H   0  0  0  0  0  0  0  0  0  0  0  0
   -5.3890   23.6614  -32.7617 H   0  0  0  0  0  0  0  0  0  0  0  0
   -5.3579   21.5706  -34.1083 H   0  0  0  0  0  0  0  0  0  0  0  0
   -6.3064   20.6931  -30.7910 H   0  0  0  0  0  0  0  0  0  0  0  0
   -7.7927   22.6298  -30.2754 H   0  0  0  0  0  0  0  0  0  0  0  0
  -10.0846   22.7468  -31.2595 H   0  0  0  0  0  0  0  0  0  0  0  0
  -10.8921   20.9249  -32.7636 H   0  0  0  0  0  0  0  0  0  0  0  0
   -9.4111   18.9811  -33.2814 H   0  0  0  0  0  0  0  0  0  0  0  0
  1  2  1  0
  2  3  1  0
  3  4  1  0
  4  5  1  0
  5  6  2  0
  6  7  1  0
  7  8  2  0
  8  9  1  0
  9 10  1  0
  9 11  1  0
  8 12  1  0
 12 13  2  0
  3 14  1  0
 14 15  2  0
 14 16  2  0
 14 17  1  0
 17 18  2  0
 18 19  1  0
 19 20  2  0
 20 21  1  0
 21 22  2  0
 13  5  1  0
 22 17  1  0
  1 23  1  0
  1 24  1  0
  1 25  1  0
  2 26  1  0
  2 27  1  0
  3 28  1  6
  4 29  1  0
  4 30  1  0
  6 31  1  0
  7 32  1  0
 10 33  1  0
 10 34  1  0
 10 35  1  0
 11 36  1  0
 11 37  1  0
 11 38  1  0
 12 39  1  0
 13 40  1  0
 18 41  1  0
 19 42  1  0
 20 43  1  0
 21 44  1  0
 22 45  1  0
M  CHG  1   3   1
M  END
>  <UniqueID>  (15) 
12

>  <SMILES>  (15) 
CC[N@H+](Cc1ccc(N(C)C)cc1)S(=O)(=O)c1ccccc1

>  <Energy>  (15) 
45.9723772263077

>  <Genealogy>  (15) 
CC[NH+](Cc1ccc(N(C)C)cc1)S(=O)(=O)c1ccccc1 (protonated)
CC[N@H+](Cc1ccc(N(C)C)cc1)S(=O)(=O)c1ccccc1 (chirality)
CC[N@H+](Cc1ccc(N(C)C)cc1)S(=O)(=O)c1ccccc1 (3D coordinates assigned)
CC[N@H+](Cc1ccc(N(C)C)cc1)S(=O)(=O)c1ccccc1 (optimized conformer: 45.9723772263077 kcal/mol)

>  <smiles>  (15) 
CCN(Cc1ccc(N(C)C)cc1)S(=O)(=O)c1ccccc1

>  <score_type>  (15) 
oracle

>  <origin>  (15) 
adg

>  <m_score__min__energy>  (15) 
-6.71

>  <m_primary>  (15) 
energy

$$$$
15:0
     RDKit          3D

 56 59  0  0  0  0  0  0  0  0999 V2000
   -0.2690   21.4290  -34.2670 C   0  0  0  0  0  0  0  0  0  0  0  0
   -0.9400   20.0850  -34.1620 C   0  0  0  0  0  0  0  0  0  0  0  0
   -0.5030   19.0290  -34.9780 C   0  0  0  0  0  0  0  0  0  0  0  0
   -1.1110   17.7750  -34.9010 C   0  0  0  0  0  0  0  0  0  0  0  0
   -2.1550   17.5460  -33.9930 C   0  0  0  0  0  0  0  0  0  0  0  0
   -2.8370   16.1970  -33.9450 C   0  0  0  0  0  0  0  0  0  0  0  0
   -4.3100   16.3130  -34.0930 N   0  0  0  0  0  0  0  0  0  0  0  0
   -4.6720   17.5020  -34.9140 C   0  0  0  0  0  0  0  0  0  0  0  0
   -6.0970   17.9950  -34.6380 C   0  0  0  0  0  0  0  0  0  0  0  0
   -6.2410   18.3360  -33.2180 N   0  0  0  0  0  0  0  0  0  0  0  0
   -7.2100   19.3200  -32.7920 C   0  0  0  0  0  0  0  0  0  0  0  0
   -6.8070   20.6290  -32.4650 C   0  0  0  0  0  0  0  0  0  0  0  0
   -7.7460   21.5800  -32.0550 C   0  0  0  0  0  0  0  0  0  0  0  0
   -9.0970   21.2360  -31.9650 C   0  0  0  0  0  0  0  0  0  0  0  0
   -9.5100   19.9420  -32.2860 C   0  0  0  0  0  0  0  0  0  0  0  0
   -8.5750   18.9880  -32.6970 C   0  0  0  0  0  0  0  0  0  0  0  0
   -5.3680   17.6700  -32.2420 C   0  0  0  0  0  0  0  0  0  0  0  0
   -4.9740   16.2790  -32.7570 C   0  0  0  0  0  0  0  0  0  0  0  0
   -2.5870   18.5920  -33.1650 C   0  0  0  0  0  0  0  0  0  0  0  0
   -1.9920   19.8610  -33.2450 C   0  0  0  0  0  0  0  0  0  0  0  0
   -2.4790   20.9350  -32.3520 C   0  0  0  0  0  0  0  0  0  0  0  0
   -3.6390   21.6330  -32.7260 C   0  0  0  0  0  0  0  0  0  0  0  0
   -4.1250   22.6730  -31.9340 C   0  0  0  0  0  0  0  0  0  0  0  0
   -3.4570   23.0340  -30.7670 C   0  0  0  0  0  0  0  0  0  0  0  0
   -2.3020   22.3500  -30.3800 C   0  0  0  0  0  0  0  0  0  0  0  0
   -1.8040   21.2800  -31.1510 C   0  0  0  0  0  0  0  0  0  0  0  0
   -0.5410   20.5630  -30.7130 C   0  0  0  0  0  0  0  0  0  0  0  0
    0.4950   20.8250  -31.5920 F   0  0  0  0  0  0  0  0  0  0  0  0
   -0.1840   20.9920  -29.4480 F   0  0  0  0  0  0  0  0  0  0  0  0
   -0.7240   19.1910  -30.6750 F   0  0  0  0  0  0  0  0  0  0  0  0
   -0.0733   21.8210  -33.2580 H   0  0  0  0  0  0  0  0  0  0  0  0
    0.6818   21.3227  -34.8098 H   0  0  0  0  0  0  0  0  0  0  0  0
   -0.9253   22.1251  -34.8098 H   0  0  0  0  0  0  0  0  0  0  0  0
    0.3251   19.1914  -35.6836 H   0  0  0  0  0  0  0  0  0  0  0  0
   -0.7690   16.9609  -35.5569 H   0  0  0  0  0  0  0  0  0  0  0  0
   -2.4461   15.5721  -34.7616 H   0  0  0  0  0  0  0  0  0  0  0  0
   -2.6285   15.7455  -32.9638 H   0  0  0  0  0  0  0  0  0  0  0  0
   -4.6370   15.4620  -34.6130 H   0  0  0  0  0  0  0  0  0  0  0  0
   -3.9672   18.3154  -34.6866 H   0  0  0  0  0  0  0  0  0  0  0  0
   -4.6203   17.2055  -35.9720 H   0  0  0  0  0  0  0  0  0  0  0  0
   -6.2994   18.8866  -35.2496 H   0  0  0  0  0  0  0  0  0  0  0  0
   -6.8117   17.1988  -34.8936 H   0  0  0  0  0  0  0  0  0  0  0  0
   -5.7445   20.9055  -32.5327 H   0  0  0  0  0  0  0  0  0  0  0  0
   -7.4208   22.6002  -31.8030 H   0  0  0  0  0  0  0  0  0  0  0  0
   -9.8350   21.9847  -31.6413 H   0  0  0  0  0  0  0  0  0  0  0  0
  -10.5741   19.6724  -32.2153 H   0  0  0  0  0  0  0  0  0  0  0  0
   -8.9080   17.9701  -32.9481 H   0  0  0  0  0  0  0  0  0  0  0  0
   -4.4609   18.2739  -32.0924 H   0  0  0  0  0  0  0  0  0  0  0  0
   -5.9058   17.5640  -31.2883 H   0  0  0  0  0  0  0  0  0  0  0  0
   -4.2822   15.8217  -32.0343 H   0  0  0  0  0  0  0  0  0  0  0  0
   -5.9007   15.6967  -32.8673 H   0  0  0  0  0  0  0  0  0  0  0  0
   -3.4003   18.4164  -32.4455 H   0  0  0  0  0  0  0  0  0  0  0  0
   -4.1680   21.3574  -33.6502 H   0  0  0  0  0  0  0  0  0  0  0  0
   -5.0381   23.2092  -32.2320 H   0  0  0  0  0  0  0  0  0  0  0  0
   -3.8394   23.8594  -30.1485 H   0  0  0  0  0  0  0  0  0  0  0  0
   -1.7747   22.6500  -29.4624 H   0  0  0  0  0  0  0  0  0  0  0  0
  1  2  1  0
  2  3  2  0
  3  4  1  0
  4  5  2  0
  5  6  1  0
  6  7  1  0
  7  8  1  0
  8  9  1  0
  9 10  1  0
 10 11  1  0
 11 12  2  0
 12 13  1  0
 13 14  2  0
 14 15  1  0
 15 16  2  0
 10 17  1  0
 17 18  1  0
  5 19  1  0
 19 20  2  0
 20 21  1  0
 21 22  2  0
 22 23  1  0
 23 24  2  0
 24 25  1  0
 25 26  2  0
 26 27  1  0
 27 28  1  0
 27 29  1  0
 27 30  1  0
 20  2  1  0
 26 21  1  0
 18  7  1  0
 16 11  1  0
  1 31  1  0
  1 32  1  0
  1 33  1  0
  3 34  1  0
  4 35  1  0
  6 36  1  0
  6 37  1  0
  7 38  1  0
  8 39  1  0
  8 40  1  0
  9 41  1  0
  9 42  1  0
 12 43  1  0
 13 44  1  0
 14 45  1  0
 15 46  1  0
 16 47  1  0
 17 48  1  0
 17 49  1  0
 18 50  1  0
 18 51  1  0
 19 52  1  0
 22 53  1  0
 23 54  1  0
 24 55  1  0
 25 56  1  0
M  CHG  1   7   1
M  END
>  <UniqueID>  (16) 
13

>  <SMILES>  (16) 
Cc1ccc(C[NH+]2CCN(c3ccccc3)CC2)cc1-c1ccccc1C(F)(F)F

>  <Energy>  (16) 
79.60410740743953

>  <Genealogy>  (16) 
Cc1ccc(C[NH+]2CCN(c3ccccc3)CC2)cc1-c1ccccc1C(F)(F)F (protonated)
Cc1ccc(C[NH+]2CCN(c3ccccc3)CC2)cc1-c1ccccc1C(F)(F)F (3D coordinates assigned)
Cc1ccc(C[NH+]2CCN(c3ccccc3)CC2)cc1-c1ccccc1C(F)(F)F (nonaromatic ring conformer: 79.60410740743953 kcal/mol)

>  <smiles>  (16) 
Cc1ccc(CN2CCN(c3ccccc3)CC2)cc1-c1ccccc1C(F)(F)F

>  <score_type>  (16) 
oracle

>  <origin>  (16) 
adg

>  <m_score__min__energy>  (16) 
-8.0899999999999999

>  <m_primary>  (16) 
energy

$$$$
16:0
     RDKit          3D

 33 34  0  0  0  0  0  0  0  0999 V2000
   -9.3310   20.4190  -32.3200 C   0  0  0  0  0  0  0  0  0  0  0  0
   -9.0620   21.4380  -31.2230 C   0  0  0  0  0  0  0  0  0  0  0  0
   -8.6390   23.0520  -31.9640 S   0  0  0  0  0  0  0  0  0  0  0  0
   -7.2450   23.4280  -30.8390 C   0  0  0  0  0  0  0  0  0  0  0  0
   -5.9940   23.8220  -31.6300 C   0  0  0  0  0  0  0  0  0  0  0  0
   -5.0120   22.7290  -31.6600 N   0  0  0  0  0  0  0  0  0  0  0  0
   -3.6570   22.9430  -31.1430 C   0  0  0  0  0  0  0  0  0  0  0  0
   -5.3610   21.4260  -32.1730 C   0  0  0  0  0  0  0  0  0  0  0  0
   -5.9790   20.4800  -31.4120 N   0  0  0  0  0  0  0  0  0  0  0  0
   -6.1010   19.4470  -32.2640 C   0  0  0  0  0  0  0  0  0  0  0  0
   -6.6660   18.1990  -32.0130 C   0  0  0  0  0  0  0  0  0  0  0  0
   -6.6810   17.2650  -33.0680 C   0  0  0  0  0  0  0  0  0  0  0  0
   -6.1360   17.6000  -34.3290 C   0  0  0  0  0  0  0  0  0  0  0  0
   -5.5740   18.8720  -34.5460 C   0  0  0  0  0  0  0  0  0  0  0  0
   -5.5760   19.7680  -33.4790 C   0  0  0  0  0  0  0  0  0  0  0  0
   -5.1030   21.0180  -33.4440 N   0  0  0  0  0  0  0  0  0  0  0  0
   -9.5867   19.4503  -31.8659 H   0  0  0  0  0  0  0  0  0  0  0  0
  -10.1688   20.7642  -32.9437 H   0  0  0  0  0  0  0  0  0  0  0  0
   -8.4320   20.3057  -32.9437 H   0  0  0  0  0  0  0  0  0  0  0  0
   -9.9610   21.5477  -30.5987 H   0  0  0  0  0  0  0  0  0  0  0  0
   -8.2203   21.0914  -30.6054 H   0  0  0  0  0  0  0  0  0  0  0  0
   -7.5300   24.2600  -30.1783 H   0  0  0  0  0  0  0  0  0  0  0  0
   -7.0180   22.5282  -30.2484 H   0  0  0  0  0  0  0  0  0  0  0  0
   -6.2859   24.0693  -32.6613 H   0  0  0  0  0  0  0  0  0  0  0  0
   -5.5314   24.6895  -31.1365 H   0  0  0  0  0  0  0  0  0  0  0  0
   -3.6794   22.9395  -30.0432 H   0  0  0  0  0  0  0  0  0  0  0  0
   -2.9973   22.1379  -31.4989 H   0  0  0  0  0  0  0  0  0  0  0  0
   -3.2776   23.9122  -31.4989 H   0  0  0  0  0  0  0  0  0  0  0  0
   -7.0854   17.9513  -31.0267 H   0  0  0  0  0  0  0  0  0  0  0  0
   -7.1196   16.2687  -32.9095 H   0  0  0  0  0  0  0  0  0  0  0  0
   -6.1513   16.8624  -35.1449 H   0  0  0  0  0  0  0  0  0  0  0  0
   -5.1488   19.1486  -35.5221 H   0  0  0  0  0  0  0  0  0  0  0  0
   -4.6480   21.5420  -34.2230 H   0  0  0  0  0  0  0  0  0  0  0  0
  1  2  1  0
  2  3  1  0
  3  4  1  0
  4  5  1  0
  5  6  1  0
  6  7  1  0
  6  8  1  0
  8  9  2  0
  9 10  1  0
 10 11  2  0
 11 12  1  0
 12 13  2  0
 13 14  1  0
 14 15  2  0
 15 16  1  0
 16  8  1  0
 15 10  1  0
  1 17  1  0
  1 18  1  0
  1 19  1  0
  2 20  1  0
  2 21  1  0
  4 22  1  0
  4 23  1  0
  5 24  1  0
  5 25  1  0
  7 26  1  0
  7 27  1  0
  7 28  1  0
 11 29  1  0
 12 30  1  0
 13 31  1  0
 14 32  1  0
 16 33  1  0
M  END
>  <UniqueID>  (17) 
14

>  <SMILES>  (17) 
CCSCCN(C)c1nc2ccccc2[nH]1

>  <Energy>  (17) 
58.46104582021234

>  <Genealogy>  (17) 
CCSCCN(C)c1nc2ccccc2[nH]1 (3D coordinates assigned)
CCSCCN(C)c1nc2ccccc2[nH]1 (optimized conformer: 58.46104582021234 kcal/mol)

>  <smiles>  (17) 
CCSCCN(C)c1nc2ccccc2[nH]1

>  <score_type>  (17) 
oracle

>  <origin>  (17) 
adg

>  <m_score__min__energy>  (17) 
-6

>  <m_primary>  (17) 
energy

$$$$
17:0
     RDKit          3D

 37 38  0  0  0  0  0  0  0  0999 V2000
   -9.1860   18.1650  -31.6220 C   0  0  0  0  0  0  0  0  0  0  0  0
   -8.3690   19.4220  -31.5800 C   0  0  0  0  0  0  0  0  0  0  0  0
   -7.0180   19.3990  -31.9580 C   0  0  0  0  0  0  0  0  0  0  0  0
   -6.2730   20.5810  -31.9790 C   0  0  0  0  0  0  0  0  0  0  0  0
   -6.8690   21.7970  -31.6220 C   0  0  0  0  0  0  0  0  0  0  0  0
   -5.9380   23.2900  -31.7030 S   0  0  2  0  0  5  0  0  0  0  0  0
   -6.5510   24.2180  -32.7140 O   0  0  0  0  0  0  0  0  0  0  0  0
   -4.3500   22.9660  -32.1550 O   0  0  0  0  0  0  0  0  0  0  0  0
   -5.9610   24.0650  -30.0960 C   0  0  0  0  0  0  0  0  0  0  0  0
   -5.1520   25.3650  -30.1090 C   0  0  0  0  0  0  0  0  0  0  0  0
   -3.7780   25.1090  -30.5270 N   0  0  0  0  0  0  0  0  0  0  0  0
   -2.7620   24.5540  -29.6820 C   0  0  0  0  0  0  0  0  0  0  0  0
   -1.8020   25.2830  -29.3210 O   0  0  0  0  0  0  0  0  0  0  0  0
   -2.8250   23.1660  -29.1950 C   0  0  0  0  0  0  0  0  0  0  0  0
   -3.4290   22.7180  -27.6920 S   0  0  0  0  0  0  0  0  0  0  0  0
   -3.0950   21.0860  -27.9130 C   0  0  0  0  0  0  0  0  0  0  0  0
   -2.5110   20.8680  -29.1120 N   0  0  0  0  0  0  0  0  0  0  0  0
   -2.3490   22.0130  -29.8290 C   0  0  0  0  0  0  0  0  0  0  0  0
   -1.6610   21.9880  -31.1590 C   0  0  0  0  0  0  0  0  0  0  0  0
   -8.2220   21.8250  -31.2590 C   0  0  0  0  0  0  0  0  0  0  0  0
   -8.9700   20.6450  -31.2460 C   0  0  0  0  0  0  0  0  0  0  0  0
   -9.4016   17.8333  -30.5956 H   0  0  0  0  0  0  0  0  0  0  0  0
  -10.1309   18.3593  -32.1506 H   0  0  0  0  0  0  0  0  0  0  0  0
   -8.6248   17.3804  -32.1506 H   0  0  0  0  0  0  0  0  0  0  0  0
   -6.5436   18.4471  -32.2388 H   0  0  0  0  0  0  0  0  0  0  0  0
   -5.2144   20.5563  -32.2771 H   0  0  0  0  0  0  0  0  0  0  0  0
   -3.8510   23.7970  -31.9500 H   0  0  0  0  0  0  0  0  0  0  0  0
   -7.0014   24.2902  -29.8188 H   0  0  0  0  0  0  0  0  0  0  0  0
   -5.5112   23.3765  -29.3655 H   0  0  0  0  0  0  0  0  0  0  0  0
   -5.6173   26.0737  -30.8099 H   0  0  0  0  0  0  0  0  0  0  0  0
   -5.1415   25.7870  -29.0932 H   0  0  0  0  0  0  0  0  0  0  0  0
   -3.3218   20.2991  -27.1786 H   0  0  0  0  0  0  0  0  0  0  0  0
   -0.5721   21.9484  -31.0079 H   0  0  0  0  0  0  0  0  0  0  0  0
   -1.9854   21.1010  -31.7230 H   0  0  0  0  0  0  0  0  0  0  0  0
   -1.9201   22.8962  -31.7230 H   0  0  0  0  0  0  0  0  0  0  0  0
   -8.6965   22.7784  -30.9836 H   0  0  0  0  0  0  0  0  0  0  0  0
  -10.0351   20.6750  -30.9726 H   0  0  0  0  0  0  0  0  0  0  0  0
  1  2  1  0
  2  3  2  0
  3  4  1  0
  4  5  2  0
  5  6  1  0
  6  7  2  0
  6  8  1  6
  6  9  1  0
  9 10  1  0
 10 11  1  0
 11 12  1  0
 12 13  2  0
 12 14  1  0
 14 15  1  0
 15 16  1  0
 16 17  2  0
 17 18  1  0
 18 19  1  0
  5 20  1  0
 20 21  2  0
 21  2  1  0
 18 14  2  0
  1 22  1  0
  1 23  1  0
  1 24  1  0
  3 25  1  0
  4 26  1  0
  8 27  1  0
  9 28  1  0
  9 29  1  0
 10 30  1  0
 10 31  1  0
 16 32  1  0
 19 33  1  0
 19 34  1  0
 19 35  1  0
 20 36  1  0
 21 37  1  0
M  CHG  2   6   1  11  -1
M  END
>  <UniqueID>  (18) 
15

>  <SMILES>  (18) 
Cc1ccc([S@+](=O)(O)CC[N-]C(=O)c2scnc2C)cc1

>  <Energy>  (18) 
60.920160266183096

>  <Genealogy>  (18) 
Cc1ccc([S+](=O)(O)CC[N-]C(=O)c2scnc2C)cc1 (protonated)
Cc1ccc([S@+](=O)(O)CC[N-]C(=O)c2scnc2C)cc1 (chirality)
Cc1ccc([S@+](=O)(O)CC[N-]C(=O)c2scnc2C)cc1 (3D coordinates assigned)
Cc1ccc([S@+](=O)(O)CC[N-]C(=O)c2scnc2C)cc1 (optimized conformer: 60.920160266183096 kcal/mol)

>  <smiles>  (18) 
Cc1ccc([S+](=O)([O-])CCNC(=O)c2scnc2C)cc1

>  <score_type>  (18) 
oracle

>  <origin>  (18) 
adg

>  <m_score__min__energy>  (18) 
-9.0600000000000005

>  <m_primary>  (18) 
energy

$$$$
18:0
     RDKit          3D

 35 36  0  0  0  0  0  0  0  0999 V2000
   -2.5530   20.9960  -27.6160 C   0  0  0  0  0  0  0  0  0  0  0  0
   -3.6230   22.0590  -27.8600 C   0  0  0  0  0  0  0  0  0  0  0  0
   -3.1710   23.4490  -27.3950 C   0  0  0  0  0  0  0  0  0  0  0  0
   -3.6650   24.4950  -28.2890 N   0  0  0  0  0  0  0  0  0  0  0  0
   -3.3690   24.5220  -29.6890 C   0  0  0  0  0  0  0  0  0  0  0  0
   -2.5940   23.6630  -30.1930 O   0  0  0  0  0  0  0  0  0  0  0  0
   -3.9440   25.5140  -30.4890 O   0  0  0  0  0  0  0  0  0  0  0  0
   -5.3520   25.6700  -30.6520 C   0  0  0  0  0  0  0  0  0  0  0  0
   -5.9950   24.3420  -30.9440 C   0  0  0  0  0  0  0  0  0  0  0  0
   -6.8750   23.7710  -30.0140 C   0  0  0  0  0  0  0  0  0  0  0  0
   -7.4570   22.5250  -30.2610 C   0  0  0  0  0  0  0  0  0  0  0  0
   -7.1650   21.8240  -31.4460 C   0  0  0  0  0  0  0  0  0  0  0  0
   -7.7730   20.5010  -31.7190 C   0  0  0  0  0  0  0  0  0  0  0  0
   -7.1020   19.3320  -31.5970 N   0  0  0  0  0  0  0  0  0  0  0  0
   -7.8780   18.2580  -31.9040 C   0  0  0  0  0  0  0  0  0  0  0  0
   -9.1830   18.5570  -32.2740 C   0  0  0  0  0  0  0  0  0  0  0  0
   -9.3610   20.2270  -32.2140 S   0  0  0  0  0  0  0  0  0  0  0  0
   -6.2790   22.3980  -32.3750 C   0  0  0  0  0  0  0  0  0  0  0  0
   -5.6990   23.6450  -32.1250 C   0  0  0  0  0  0  0  0  0  0  0  0
   -2.4137   20.8576  -26.5337 H   0  0  0  0  0  0  0  0  0  0  0  0
   -2.8705   20.0454  -28.0693 H   0  0  0  0  0  0  0  0  0  0  0  0
   -1.6045   21.3197  -28.0693 H   0  0  0  0  0  0  0  0  0  0  0  0
   -3.8438   22.0995  -28.9368 H   0  0  0  0  0  0  0  0  0  0  0  0
   -4.5155   21.7811  -27.2801 H   0  0  0  0  0  0  0  0  0  0  0  0
   -3.5583   23.6313  -26.3817 H   0  0  0  0  0  0  0  0  0  0  0  0
   -2.0714   23.4769  -27.4023 H   0  0  0  0  0  0  0  0  0  0  0  0
   -4.2360   25.2720  -27.8860 H   0  0  0  0  0  0  0  0  0  0  0  0
   -5.7803   26.0849  -29.7277 H   0  0  0  0  0  0  0  0  0  0  0  0
   -5.5409   26.3515  -31.4945 H   0  0  0  0  0  0  0  0  0  0  0  0
   -7.1090   24.3079  -29.0829 H   0  0  0  0  0  0  0  0  0  0  0  0
   -8.1480   22.0891  -29.5244 H   0  0  0  0  0  0  0  0  0  0  0  0
   -7.4991   17.2262  -31.8622 H   0  0  0  0  0  0  0  0  0  0  0  0
   -9.9602   17.8312  -32.5556 H   0  0  0  0  0  0  0  0  0  0  0  0
   -6.0406   21.8617  -33.3053 H   0  0  0  0  0  0  0  0  0  0  0  0
   -5.0062   24.0825  -32.8588 H   0  0  0  0  0  0  0  0  0  0  0  0
  1  2  1  0
  2  3  1  0
  3  4  1  0
  4  5  1  0
  5  6  2  0
  5  7  1  0
  7  8  1  0
  8  9  1  0
  9 10  2  0
 10 11  1  0
 11 12  2  0
 12 13  1  0
 13 14  2  0
 14 15  1  0
 15 16  2  0
 16 17  1  0
 12 18  1  0
 18 19  2  0
 19  9  1  0
 17 13  1  0
  1 20  1  0
  1 21  1  0
  1 22  1  0
  2 23  1  0
  2 24  1  0
  3 25  1  0
  3 26  1  0
  4 27  1  0
  8 28  1  0
  8 29  1  0
 10 30  1  0
 11 31  1  0
 15 32  1  0
 16 33  1  0
 18 34  1  0
 19 35  1  0
M  END
>  <UniqueID>  (19) 
16

>  <SMILES>  (19) 
CCCNC(=O)OCc1ccc(-c2nccs2)cc1

>  <Energy>  (19) 
56.34133877776761

>  <Genealogy>  (19) 
CCCNC(=O)OCc1ccc(-c2nccs2)cc1 (3D coordinates assigned)
CCCNC(=O)OCc1ccc(-c2nccs2)cc1 (optimized conformer: 56.34133877776761 kcal/mol)

>  <smiles>  (19) 
CCCNC(=O)OCc1ccc(-c2nccs2)cc1

>  <score_type>  (19) 
oracle

>  <origin>  (19) 
adg

>  <m_score__min__energy>  (19) 
-7.75

>  <m_primary>  (19) 
energy

$$$$
19:0
     RDKit          3D

 50 52  0  0  0  0  0  0  0  0999 V2000
   -6.3810   15.7840  -34.1300 Cl  0  0  0  0  0  0  0  0  0  0  0  0
   -6.5620   17.4130  -33.5040 C   0  0  0  0  0  0  0  0  0  0  0  0
   -6.0400   18.4970  -34.2140 C   0  0  0  0  0  0  0  0  0  0  0  0
   -6.1840   19.7960  -33.7170 C   0  0  0  0  0  0  0  0  0  0  0  0
   -6.8550   20.0260  -32.5010 C   0  0  0  0  0  0  0  0  0  0  0  0
   -7.0040   21.3680  -31.9840 N   0  0  0  0  0  0  0  0  0  0  0  0
   -7.7860   21.6220  -30.7680 C   0  0  0  0  0  0  0  0  0  0  0  0
   -7.2360   22.8580  -30.0450 C   0  0  0  0  0  0  0  0  0  0  0  0
   -7.2310   24.0760  -30.9000 N   0  0  0  0  0  0  0  0  0  0  0  0
   -6.1780   25.0310  -30.4860 C   0  0  0  0  0  0  0  0  0  0  0  0
   -5.3910   24.5090  -29.2730 C   0  0  0  0  0  0  0  0  0  0  0  0
   -3.8770   24.5320  -29.5450 C   0  0  0  0  0  0  0  0  0  0  0  0
   -3.5230   23.8620  -30.8090 N   0  0  0  0  0  0  0  0  0  0  0  0
   -3.7130   22.4050  -30.7560 C   0  0  0  0  0  0  0  0  0  0  0  0
   -2.7930   21.7160  -31.7290 C   0  0  0  0  0  0  0  0  0  0  0  0
   -3.3060   21.1740  -32.9190 C   0  0  0  0  0  0  0  0  0  0  0  0
   -2.4540   20.5490  -33.8330 C   0  0  0  0  0  0  0  0  0  0  0  0
   -1.0840   20.4640  -33.5690 C   0  0  0  0  0  0  0  0  0  0  0  0
   -0.5650   21.0050  -32.3900 C   0  0  0  0  0  0  0  0  0  0  0  0
   -1.4140   21.6310  -31.4720 C   0  0  0  0  0  0  0  0  0  0  0  0
   -7.1650   23.7970  -32.3590 C   0  0  0  0  0  0  0  0  0  0  0  0
   -6.4010   22.5080  -32.6870 C   0  0  0  0  0  0  0  0  0  0  0  0
   -7.3760   18.9250  -31.7950 C   0  0  0  0  0  0  0  0  0  0  0  0
   -7.2300   17.6270  -32.2960 C   0  0  0  0  0  0  0  0  0  0  0  0
   -5.5148   18.3283  -35.1657 H   0  0  0  0  0  0  0  0  0  0  0  0
   -5.7697   20.6449  -34.2806 H   0  0  0  0  0  0  0  0  0  0  0  0
   -8.8376   21.7958  -31.0398 H   0  0  0  0  0  0  0  0  0  0  0  0
   -7.7146   20.7498  -30.1016 H   0  0  0  0  0  0  0  0  0  0  0  0
   -7.8596   23.0532  -29.1601 H   0  0  0  0  0  0  0  0  0  0  0  0
   -6.1924   22.6428  -29.7718 H   0  0  0  0  0  0  0  0  0  0  0  0
   -5.4829   25.1828  -31.3249 H   0  0  0  0  0  0  0  0  0  0  0  0
   -6.6617   25.9775  -30.2029 H   0  0  0  0  0  0  0  0  0  0  0  0
   -5.6095   25.1446  -28.4022 H   0  0  0  0  0  0  0  0  0  0  0  0
   -5.6959   23.4701  -29.0789 H   0  0  0  0  0  0  0  0  0  0  0  0
   -3.5428   25.5788  -29.5944 H   0  0  0  0  0  0  0  0  0  0  0  0
   -3.3810   23.9888  -28.7271 H   0  0  0  0  0  0  0  0  0  0  0  0
   -4.1030   24.2510  -31.5890 H   0  0  0  0  0  0  0  0  0  0  0  0
   -3.4956   22.0486  -29.7383 H   0  0  0  0  0  0  0  0  0  0  0  0
   -4.7538   22.1725  -31.0258 H   0  0  0  0  0  0  0  0  0  0  0  0
   -4.3830   21.2419  -33.1322 H   0  0  0  0  0  0  0  0  0  0  0  0
   -2.8619   20.1232  -34.7616 H   0  0  0  0  0  0  0  0  0  0  0  0
   -0.4145   19.9712  -34.2894 H   0  0  0  0  0  0  0  0  0  0  0  0
    0.5134   20.9384  -32.1835 H   0  0  0  0  0  0  0  0  0  0  0  0
   -1.0013   22.0581  -30.5461 H   0  0  0  0  0  0  0  0  0  0  0  0
   -8.1908   23.7048  -32.7453 H   0  0  0  0  0  0  0  0  0  0  0  0
   -6.6231   24.6304  -32.8300 H   0  0  0  0  0  0  0  0  0  0  0  0
   -6.4404   22.3282  -33.7715 H   0  0  0  0  0  0  0  0  0  0  0  0
   -5.3558   22.6178  -32.3622 H   0  0  0  0  0  0  0  0  0  0  0  0
   -7.9018   19.0866  -30.8424 H   0  0  0  0  0  0  0  0  0  0  0  0
   -7.6419   16.7734  -31.7377 H   0  0  0  0  0  0  0  0  0  0  0  0
  1  2  1  0
  2  3  2  0
  3  4  1  0
  4  5  2  0
  5  6  1  0
  6  7  1  0
  7  8  1  0
  8  9  1  0
  9 10  1  0
 10 11  1  0
 11 12  1  0
 12 13  1  0
 13 14  1  0
 14 15  1  0
 15 16  2  0
 16 17  1  0
 17 18  2  0
 18 19  1  0
 19 20  2  0
  9 21  1  0
 21 22  1  0
  5 23  1  0
 23 24  2  0
 24  2  1  0
 22  6  1  0
 20 15  1  0
  3 25  1  0
  4 26  1  0
  7 27  1  0
  7 28  1  0
  8 29  1  0
  8 30  1  0
 10 31  1  0
 10 32  1  0
 11 33  1  0
 11 34  1  0
 12 35  1  0
 12 36  1  0
 13 37  1  0
 14 38  1  0
 14 39  1  0
 16 40  1  0
 17 41  1  0
 18 42  1  0
 19 43  1  0
 20 44  1  0
 21 45  1  0
 21 46  1  0
 22 47  1  0
 22 48  1  0
 23 49  1  0
 24 50  1  0
M  END
>  <UniqueID>  (20) 
17

>  <SMILES>  (20) 
Clc1ccc(N2CCN(CCCNCc3ccccc3)CC2)cc1

>  <Energy>  (20) 
59.602246331730875

>  <Genealogy>  (20) 
Clc1ccc(N2CCN(CCCNCc3ccccc3)CC2)cc1 (3D coordinates assigned)
Clc1ccc(N2CCN(CCCNCc3ccccc3)CC2)cc1 (nonaromatic ring conformer: 59.602246331730875 kcal/mol)

>  <smiles>  (20) 
Clc1ccc(N2CCN(CCCNCc3ccccc3)CC2)cc1

>  <score_type>  (20) 
oracle

>  <origin>  (20) 
adg

>  <m_score__min__energy>  (20) 
-8.6500000000000004

>  <m_primary>  (20) 
energy

$$$$
20:0
     RDKit          3D

 25 25  0  0  0  0  0  0  0  0999 V2000
   -5.6390   17.7910  -34.9650 C   0  0  0  0  0  0  0  0  0  0  0  0
   -5.8640   19.1030  -34.2210 C   0  0  0  0  0  0  0  0  0  0  0  0
   -6.9180   18.9510  -33.2060 N   0  0  0  0  0  0  0  0  0  0  0  0
   -7.1810   17.6140  -32.6510 C   0  0  0  0  0  0  0  0  0  0  0  0
   -6.4890   17.4420  -31.3010 C   0  0  0  0  0  0  0  0  0  0  0  0
   -7.6510   20.0940  -32.7040 C   0  0  0  0  0  0  0  0  0  0  0  0
   -9.0350   20.0320  -32.4570 C   0  0  0  0  0  0  0  0  0  0  0  0
   -9.6990   21.1580  -31.9620 C   0  0  0  0  0  0  0  0  0  0  0  0
   -8.9880   22.3300  -31.7130 C   0  0  0  0  0  0  0  0  0  0  0  0
   -7.6150   22.3600  -31.9590 C   0  0  0  0  0  0  0  0  0  0  0  0
   -6.9860   21.2550  -32.4410 N   0  0  0  0  0  0  0  0  0  0  0  0
   -5.4994   16.9768  -34.2386 H   0  0  0  0  0  0  0  0  0  0  0  0
   -6.5129   17.5731  -35.5965 H   0  0  0  0  0  0  0  0  0  0  0  0
   -4.7424   17.8767  -35.5965 H   0  0  0  0  0  0  0  0  0  0  0  0
   -4.9280   19.4033  -33.7274 H   0  0  0  0  0  0  0  0  0  0  0  0
   -6.1774   19.8704  -34.9441 H   0  0  0  0  0  0  0  0  0  0  0  0
   -8.2655   17.4850  -32.5195 H   0  0  0  0  0  0  0  0  0  0  0  0
   -6.7875   16.8592  -33.3478 H   0  0  0  0  0  0  0  0  0  0  0  0
   -7.2128   17.6219  -30.4924 H   0  0  0  0  0  0  0  0  0  0  0  0
   -6.0945   16.4185  -31.2190 H   0  0  0  0  0  0  0  0  0  0  0  0
   -5.6612   18.1617  -31.2190 H   0  0  0  0  0  0  0  0  0  0  0  0
   -9.5909   19.1031  -32.6523 H   0  0  0  0  0  0  0  0  0  0  0  0
  -10.7813   21.1188  -31.7693 H   0  0  0  0  0  0  0  0  0  0  0  0
   -9.5034   23.2217  -31.3268 H   0  0  0  0  0  0  0  0  0  0  0  0
   -7.0412   23.2778  -31.7630 H   0  0  0  0  0  0  0  0  0  0  0  0
  1  2  1  0
  2  3  1  0
  3  4  1  0
  4  5  1  0
  3  6  1  0
  6  7  2  0
  7  8  1  0
  8  9  2  0
  9 10  1  0
 10 11  2  0
 11  6  1  0
  1 12  1  0
  1 13  1  0
  1 14  1  0
  2 15  1  0
  2 16  1  0
  4 17  1  0
  4 18  1  0
  5 19  1  0
  5 20  1  0
  5 21  1  0
  7 22  1  0
  8 23  1  0
  9 24  1  0
 10 25  1  0
M  END
>  <UniqueID>  (21) 
18

>  <SMILES>  (21) 
CCN(CC)c1ccccn1

>  <Energy>  (21) 
19.293888816181205

>  <Genealogy>  (21) 
CCN(CC)c1ccccn1 (3D coordinates assigned)
CCN(CC)c1ccccn1 (optimized conformer: 19.293888816181205 kcal/mol)

>  <smiles>  (21) 
CCN(CC)c1ccccn1

>  <score_type>  (21) 
oracle

>  <origin>  (21) 
adg

>  <m_score__min__energy>  (21) 
-4.2999999999999998

>  <m_primary>  (21) 
energy

$$$$
21:0
     RDKit          3D

 35 38  0  0  0  0  0  0  0  0999 V2000
   -6.1120   26.3790  -30.0900 O   0  0  0  0  0  0  0  0  0  0  0  0
   -5.4020   25.3390  -30.1090 C   0  0  0  0  0  0  0  0  0  0  0  0
   -5.8160   24.1890  -29.4360 C   0  0  0  0  0  0  0  0  0  0  0  0
   -5.0080   23.0540  -29.4760 C   0  0  0  0  0  0  0  0  0  0  0  0
   -3.8070   23.0920  -30.1940 C   0  0  0  0  0  0  0  0  0  0  0  0
   -2.9140   21.9140  -30.2470 C   0  0  0  0  0  0  0  0  0  0  0  0
   -2.0610   21.6690  -29.1550 C   0  0  0  0  0  0  0  0  0  0  0  0
   -1.1580   20.6050  -29.1800 C   0  0  0  0  0  0  0  0  0  0  0  0
   -1.0900   19.7750  -30.2970 C   0  0  0  0  0  0  0  0  0  0  0  0
   -1.9350   19.9960  -31.3850 C   0  0  0  0  0  0  0  0  0  0  0  0
   -2.8660   21.0480  -31.3700 C   0  0  0  0  0  0  0  0  0  0  0  0
   -3.9730   21.2210  -32.7460 S   0  0  0  0  0  0  0  0  0  0  0  0
   -3.4180   20.4630  -33.9190 O   0  0  0  0  0  0  0  0  0  0  0  0
   -4.1200   22.6700  -33.1240 O   0  0  0  0  0  0  0  0  0  0  0  0
   -5.5800   20.6120  -32.3370 C   0  0  0  0  0  0  0  0  0  0  0  0
   -5.8000   19.2320  -32.1750 C   0  0  0  0  0  0  0  0  0  0  0  0
   -7.0720   18.7420  -31.8350 C   0  0  0  0  0  0  0  0  0  0  0  0
   -8.1480   19.6180  -31.6470 C   0  0  0  0  0  0  0  0  0  0  0  0
   -7.9410   20.9890  -31.8030 C   0  0  0  0  0  0  0  0  0  0  0  0
   -8.9120   21.9170  -31.6370 N   0  0  0  0  0  0  0  0  0  0  0  0
   -8.0960   23.3190  -31.9320 S   0  0  0  0  0  0  0  0  0  0  0  0
   -6.5450   22.8450  -32.2710 N   0  0  0  0  0  0  0  0  0  0  0  0
   -6.6550   21.4930  -32.1490 C   0  0  0  0  0  0  0  0  0  0  0  0
   -3.4510   24.2460  -30.8230 N   0  0  0  0  0  0  0  0  0  0  0  0
   -4.2240   25.3320  -30.7840 N   0  0  0  0  0  0  0  0  0  0  0  0
   -6.7662   24.1783  -28.8819 H   0  0  0  0  0  0  0  0  0  0  0  0
   -5.3111   22.1375  -28.9486 H   0  0  0  0  0  0  0  0  0  0  0  0
   -2.1064   22.3233  -28.2719 H   0  0  0  0  0  0  0  0  0  0  0  0
   -0.5000   20.4217  -28.3178 H   0  0  0  0  0  0  0  0  0  0  0  0
   -0.3692   18.9444  -30.3211 H   0  0  0  0  0  0  0  0  0  0  0  0
   -1.8715   19.3388  -32.2648 H   0  0  0  0  0  0  0  0  0  0  0  0
   -4.9663   18.5284  -32.3162 H   0  0  0  0  0  0  0  0  0  0  0  0
   -7.2242   17.6592  -31.7153 H   0  0  0  0  0  0  0  0  0  0  0  0
   -9.1424   19.2308  -31.3801 H   0  0  0  0  0  0  0  0  0  0  0  0
   -9.9150   21.7790  -31.3830 H   0  0  0  0  0  0  0  0  0  0  0  0
  1  2  2  0
  2  3  1  0
  3  4  2  0
  4  5  1  0
  5  6  1  0
  6  7  2  0
  7  8  1  0
  8  9  2  0
  9 10  1  0
 10 11  2  0
 11 12  1  0
 12 13  2  0
 12 14  2  0
 12 15  1  0
 15 16  2  0
 16 17  1  0
 17 18  2  0
 18 19  1  0
 19 20  2  0
 20 21  1  0
 21 22  1  0
 22 23  2  0
  5 24  2  0
 24 25  1  0
 25  2  1  0
 11  6  1  0
 23 15  1  0
 23 19  1  0
  3 26  1  0
  4 27  1  0
  7 28  1  0
  8 29  1  0
  9 30  1  0
 10 31  1  0
 16 32  1  0
 17 33  1  0
 18 34  1  0
 20 35  1  0
M  CHG  2  20   1  25  -1
M  END
>  <UniqueID>  (22) 
19

>  <SMILES>  (22) 
O=c1ccc(-c2ccccc2S(=O)(=O)c2cccc3[nH+]snc23)n[n-]1

>  <Energy>  (22) 
91.61747069004785

>  <Genealogy>  (22) 
O=c1ccc(-c2ccccc2S(=O)(=O)c2cccc3[nH+]snc23)n[n-]1 (protonated)
O=c1ccc(-c2ccccc2S(=O)(=O)c2cccc3[nH+]snc23)n[n-]1 (3D coordinates assigned)
O=c1ccc(-c2ccccc2S(=O)(=O)c2cccc3[nH+]snc23)n[n-]1 (optimized conformer: 91.61747069004785 kcal/mol)

>  <smiles>  (22) 
O=c1ccc(-c2ccccc2S(=O)(=O)c2cccc3nsnc23)n[nH]1

>  <score_type>  (22) 
oracle

>  <origin>  (22) 
adg

>  <m_score__min__energy>  (22) 
-11.08

>  <m_primary>  (22) 
energy

$$$$
22:0
     RDKit          3D

 36 37  0  0  0  0  0  0  0  0999 V2000
   -8.7240   18.3870  -31.7100 C   0  0  0  0  0  0  0  0  0  0  0  0
   -7.3540   17.7740  -31.9940 C   0  0  0  0  0  0  0  0  0  0  0  0
   -6.8330   18.0940  -33.4100 C   0  0  0  0  0  0  0  0  0  0  0  0
   -7.0960   19.4800  -33.8380 N   0  0  0  0  0  0  0  0  0  0  0  0
   -6.3100   20.4340  -33.0910 C   0  0  0  0  0  0  0  0  0  0  0  0
   -4.9810   20.7030  -33.4570 C   0  0  0  0  0  0  0  0  0  0  0  0
   -4.2150   21.6160  -32.7280 C   0  0  0  0  0  0  0  0  0  0  0  0
   -4.7720   22.3040  -31.6350 C   0  0  0  0  0  0  0  0  0  0  0  0
   -3.9260   23.2720  -30.8190 C   0  0  0  0  0  0  0  0  0  0  0  0
   -4.4680   24.6440  -30.6250 N   0  0  0  0  0  0  0  0  0  0  0  0
   -5.7430   24.9130  -31.3040 C   0  0  0  0  0  0  0  0  0  0  0  0
   -6.4850   25.1180  -29.9960 C   0  0  0  0  0  0  0  0  0  0  0  0
   -5.1390   24.8750  -29.3390 C   0  0  0  0  0  0  0  0  0  0  0  0
   -6.0860   21.9990  -31.2430 C   0  0  0  0  0  0  0  0  0  0  0  0
   -6.8530   21.0870  -31.9710 C   0  0  0  0  0  0  0  0  0  0  0  0
   -8.8768   18.4554  -30.6228 H   0  0  0  0  0  0  0  0  0  0  0  0
   -8.7740   19.3933  -32.1513 H   0  0  0  0  0  0  0  0  0  0  0  0
   -9.5077   17.7537  -32.1513 H   0  0  0  0  0  0  0  0  0  0  0  0
   -6.6354   18.1659  -31.2591 H   0  0  0  0  0  0  0  0  0  0  0  0
   -7.4606   16.6816  -31.9215 H   0  0  0  0  0  0  0  0  0  0  0  0
   -5.7461   17.9255  -33.4266 H   0  0  0  0  0  0  0  0  0  0  0  0
   -7.3702   17.4343  -34.1073 H   0  0  0  0  0  0  0  0  0  0  0  0
   -6.8430   19.5630  -34.8500 H   0  0  0  0  0  0  0  0  0  0  0  0
   -8.1160   19.6980  -33.7680 H   0  0  0  0  0  0  0  0  0  0  0  0
   -4.5397   20.1907  -34.3246 H   0  0  0  0  0  0  0  0  0  0  0  0
   -3.1678   21.7983  -33.0111 H   0  0  0  0  0  0  0  0  0  0  0  0
   -3.7816   22.8282  -29.8229 H   0  0  0  0  0  0  0  0  0  0  0  0
   -3.0042   23.4088  -31.4035 H   0  0  0  0  0  0  0  0  0  0  0  0
   -5.7196   25.8108  -31.9391 H   0  0  0  0  0  0  0  0  0  0  0  0
   -6.1279   24.1740  -32.0222 H   0  0  0  0  0  0  0  0  0  0  0  0
   -6.9019   26.1252  -29.8483 H   0  0  0  0  0  0  0  0  0  0  0  0
   -7.3909   24.5543  -29.7284 H   0  0  0  0  0  0  0  0  0  0  0  0
   -4.7533   25.7500  -28.7954 H   0  0  0  0  0  0  0  0  0  0  0  0
   -5.0624   24.1068  -28.5554 H   0  0  0  0  0  0  0  0  0  0  0  0
   -6.5151   22.4835  -30.3535 H   0  0  0  0  0  0  0  0  0  0  0  0
   -7.8890   20.8782  -31.6659 H   0  0  0  0  0  0  0  0  0  0  0  0
  1  2  1  0
  2  3  1  0
  3  4  1  0
  4  5  1  0
  5  6  2  0
  6  7  1  0
  7  8  2  0
  8  9  1  0
  9 10  1  0
 10 11  1  0
 11 12  1  0
 12 13  1  0
  8 14  1  0
 14 15  2  0
 15  5  1  0
 13 10  1  0
  1 16  1  0
  1 17  1  0
  1 18  1  0
  2 19  1  0
  2 20  1  0
  3 21  1  0
  3 22  1  0
  4 23  1  0
  4 24  1  0
  6 25  1  0
  7 26  1  0
  9 27  1  0
  9 28  1  0
 11 29  1  0
 11 30  1  0
 12 31  1  0
 12 32  1  0
 13 33  1  0
 13 34  1  0
 14 35  1  0
 15 36  1  0
M  CHG  1   4   1
M  END
>  <UniqueID>  (23) 
20

>  <SMILES>  (23) 
CCC[NH2+]c1ccc(CN2CCC2)cc1

>  <Energy>  (23) 
108.44236830162468

>  <Genealogy>  (23) 
CCC[NH2+]c1ccc(CN2CCC2)cc1 (protonated)
CCC[NH2+]c1ccc(CN2CCC2)cc1 (3D coordinates assigned)
CCC[NH2+]c1ccc(CN2CCC2)cc1 (nonaromatic ring conformer: 108.44236830162468 kcal/mol)

>  <smiles>  (23) 
CCCNc1ccc(CN2CCC2)cc1

>  <score_type>  (23) 
oracle

>  <origin>  (23) 
adg

>  <m_score__min__energy>  (23) 
-5.9299999999999997

>  <m_primary>  (23) 
energy

$$$$
23:0
     RDKit          3D

 48 51  0  0  0  0  0  0  0  0999 V2000
   -9.2043   22.6073  -32.6216 H   0  0  0  0  0  0  0  0  0  0  0  0
   -8.2790   22.5460  -32.0300 C   0  0  0  0  0  0  0  0  0  0  0  0
   -7.6120   23.7850  -31.1040 S   0  0  0  0  0  0  0  0  0  0  0  0
   -6.3040   22.8530  -30.6200 C   0  0  0  0  0  0  0  0  0  0  0  0
   -5.3850   23.2690  -29.8020 N   0  0  0  0  0  0  0  0  0  0  0  0
   -4.3280   24.1790  -30.1390 C   0  0  0  0  0  0  0  0  0  0  0  0
   -4.4810   24.9470  -31.1250 O   0  0  0  0  0  0  0  0  0  0  0  0
   -3.0460   24.1780  -29.4030 C   0  0  0  0  0  0  0  0  0  0  0  0
   -2.4220   25.2840  -29.0370 O   0  0  0  0  0  0  0  0  0  0  0  0
   -1.3280   24.9360  -28.4020 C   0  0  0  0  0  0  0  0  0  0  0  0
   -0.3700   25.7790  -27.8430 C   0  0  0  0  0  0  0  0  0  0  0  0
   -0.4777   26.8726  -27.8932 H   0  0  0  0  0  0  0  0  0  0  0  0
    0.7400   25.1870  -27.2120 C   0  0  0  0  0  0  0  0  0  0  0  0
    1.5188   25.8230  -26.7660 H   0  0  0  0  0  0  0  0  0  0  0  0
    0.8600   23.7810  -27.1480 C   0  0  0  0  0  0  0  0  0  0  0  0
    1.7315   23.3292  -26.6517 H   0  0  0  0  0  0  0  0  0  0  0  0
   -0.1280   22.9540  -27.7150 C   0  0  0  0  0  0  0  0  0  0  0  0
   -0.0477   21.8580  -27.6676 H   0  0  0  0  0  0  0  0  0  0  0  0
   -1.2140   23.5720  -28.3400 C   0  0  0  0  0  0  0  0  0  0  0  0
   -2.3240   23.0560  -28.9820 C   0  0  0  0  0  0  0  0  0  0  0  0
   -2.6620   21.6140  -29.2080 C   0  0  0  0  0  0  0  0  0  0  0  0
   -2.7804   21.1088  -28.2381 H   0  0  0  0  0  0  0  0  0  0  0  0
   -3.6013   21.5422  -29.7759 H   0  0  0  0  0  0  0  0  0  0  0  0
   -1.8524   21.1323  -29.7759 H   0  0  0  0  0  0  0  0  0  0  0  0
   -6.3560   21.6020  -31.1290 N   0  0  0  0  0  0  0  0  0  0  0  0
   -7.4530   21.4300  -31.9150 C   0  0  0  0  0  0  0  0  0  0  0  0
   -7.7260   20.1280  -32.6150 C   0  0  0  0  0  0  0  0  0  0  0  0
   -8.6464   19.6891  -32.2025 H   0  0  0  0  0  0  0  0  0  0  0  0
   -7.8316   20.3356  -33.6901 H   0  0  0  0  0  0  0  0  0  0  0  0
   -6.6160   19.1620  -32.4420 N   0  0  2  0  0  0  0  0  0  0  0  0
   -6.0920   19.4280  -31.5750 H   0  0  0  0  0  0  0  0  0  0  0  0
   -5.7260   19.2170  -33.5830 C   0  0  0  0  0  0  0  0  0  0  0  0
   -6.1160   18.7810  -34.7020 O   0  0  0  0  0  0  0  0  0  0  0  0
   -4.3470   19.7590  -33.4730 C   0  0  0  0  0  0  0  0  0  0  0  0
   -4.1040   21.0630  -32.9990 C   0  0  0  0  0  0  0  0  0  0  0  0
   -4.9484   21.7033  -32.7040 H   0  0  0  0  0  0  0  0  0  0  0  0
   -2.7960   21.5490  -32.9010 C   0  0  0  0  0  0  0  0  0  0  0  0
   -2.6162   22.5703  -32.5342 H   0  0  0  0  0  0  0  0  0  0  0  0
   -1.7170   20.7400  -33.2680 C   0  0  0  0  0  0  0  0  0  0  0  0
   -0.6896   21.1262  -33.1946 H   0  0  0  0  0  0  0  0  0  0  0  0
   -1.9440   19.4410  -33.7280 C   0  0  0  0  0  0  0  0  0  0  0  0
   -1.0944   18.8024  -34.0113 H   0  0  0  0  0  0  0  0  0  0  0  0
   -3.2500   18.9510  -33.8290 C   0  0  0  0  0  0  0  0  0  0  0  0
   -3.4217   17.9260  -34.1895 H   0  0  0  0  0  0  0  0  0  0  0  0
   -7.1200   17.7860  -32.2850 C   0  0  0  0  0  0  0  0  0  0  0  0
   -7.2074   17.5474  -31.2147 H   0  0  0  0  0  0  0  0  0  0  0  0
   -8.1077   17.7007  -32.7615 H   0  0  0  0  0  0  0  0  0  0  0  0
   -6.4210   17.0829  -32.7615 H   0  0  0  0  0  0  0  0  0  0  0  0
  1  2  1  0
  2  3  1  0
  3  4  1  0
  4  5  2  0
  5  6  1  0
  6  7  2  0
  6  8  1  0
  8  9  1  0
  9 10  1  0
 10 11  2  0
 11 12  1  0
 11 13  1  0
 13 14  1  0
 13 15  2  0
 15 16  1  0
 15 17  1  0
 17 18  1  0
 17 19  2  0
 19 20  1  0
 20 21  1  0
 21 22  1  0
 21 23  1  0
 21 24  1  0
  4 25  1  0
 25 26  1  0
 26 27  1  0
 27 28  1  0
 27 29  1  0
 27 30  1  0
 30 31  1  1
 30 32  1  0
 32 33  2  0
 32 34  1  0
 34 35  2  0
 35 36  1  0
 35 37  1  0
 37 38  1  0
 37 39  2  0
 39 40  1  0
 39 41  1  0
 41 42  1  0
 41 43  2  0
 43 44  1  0
 30 45  1  0
 45 46  1  0
 45 47  1  0
 45 48  1  0
 26  2  2  0
 43 34  1  0
 20  8  2  0
 19 10  1  0
M  CHG  2  25  -1  30   1
M  END
>  <UniqueID>  (24) 
21

>  <SMILES>  (24) 
Cc1c(C(=O)/N=c2\[n-]c(C[N@@H+](C)C(=O)c3ccccc3)cs2)oc2ccccc12

>  <Energy>  (24) 
124.02785044804703

>  <Genealogy>  (24) 
Cc1c(C(=O)N=c2[n-]c(C[NH+](C)C(=O)c3ccccc3)cs2)oc2ccccc12 (protonated)
Cc1c(C(=O)N=c2[n-]c(C[N@@H+](C)C(=O)c3ccccc3)cs2)oc2ccccc12 (chirality)
Cc1c(C(=O)/N=c2\[n-]c(C[N@@H+](C)C(=O)c3ccccc3)cs2)oc2ccccc12 (cis-trans isomerization)
Cc1c(C(=O)/N=c2\[n-]c(C[N@@H+](C)C(=O)c3ccccc3)cs2)oc2ccccc12 (3D coordinates assigned)
Cc1c(C(=O)/N=c2\[n-]c(C[N@@H+](C)C(=O)c3ccccc3)cs2)oc2ccccc12 (optimized conformer: 124.02785044804703 kcal/mol)

>  <smiles>  (24) 
Cc1c(C(=O)N=c2[nH]c(CN(C)C(=O)c3ccccc3)cs2)oc2ccccc12

>  <score_type>  (24) 
oracle

>  <origin>  (24) 
adg

>  <m_score__min__energy>  (24) 
-10.68

>  <m_primary>  (24) 
energy

$$$$
24:0
     RDKit          3D

 46 49  0  0  0  0  0  0  0  0999 V2000
   -3.1470   18.5990  -26.5690 C   0  0  0  0  0  0  0  0  0  0  0  0
   -2.8030   19.9740  -26.4100 O   0  0  0  0  0  0  0  0  0  0  0  0
   -1.8990   20.6650  -27.2300 C   0  0  0  0  0  0  0  0  0  0  0  0
   -0.7350   21.2740  -26.7220 C   0  0  0  0  0  0  0  0  0  0  0  0
    0.1410   21.9420  -27.5810 C   0  0  0  0  0  0  0  0  0  0  0  0
   -0.1300   22.0050  -28.9510 C   0  0  0  0  0  0  0  0  0  0  0  0
   -1.2930   21.4150  -29.4670 C   0  0  0  0  0  0  0  0  0  0  0  0
   -1.5580   21.4440  -30.9170 C   0  0  0  0  0  0  0  0  0  0  0  0
   -0.5680   21.2480  -31.8960 C   0  0  0  0  0  0  0  0  0  0  0  0
   -1.2750   21.3240  -33.4580 S   0  0  0  0  0  0  0  0  0  0  0  0
   -2.7870   21.5890  -32.7870 C   0  0  0  0  0  0  0  0  0  0  0  0
   -3.9840   21.8880  -33.3090 N   0  0  0  0  0  0  0  0  0  0  0  0
   -4.7850   22.1440  -32.2750 N   0  0  0  0  0  0  0  0  0  0  0  0
   -4.0370   21.9860  -31.1490 C   0  0  0  0  0  0  0  0  0  0  0  0
   -4.6330   22.3770  -29.5010 S   0  0  0  0  0  0  0  0  0  0  0  0
   -5.5840   23.8500  -30.0180 C   0  0  0  0  0  0  0  0  0  0  0  0
   -4.6790   24.9830  -30.3870 C   0  0  0  0  0  0  0  0  0  0  0  0
   -5.1680   26.0620  -30.8130 O   0  0  0  0  0  0  0  0  0  0  0  0
   -3.2670   24.8470  -30.1920 N   0  0  0  0  0  0  0  0  0  0  0  0
   -2.5910   24.9060  -28.9290 C   0  0  0  0  0  0  0  0  0  0  0  0
   -3.2920   24.5500  -27.7700 C   0  0  0  0  0  0  0  0  0  0  0  0
   -2.6610   24.5750  -26.5220 C   0  0  0  0  0  0  0  0  0  0  0  0
   -1.3090   24.9400  -26.4220 C   0  0  0  0  0  0  0  0  0  0  0  0
   -0.6240   24.9860  -25.0880 C   0  0  0  0  0  0  0  0  0  0  0  0
   -0.6010   25.2830  -27.5840 C   0  0  0  0  0  0  0  0  0  0  0  0
   -1.2340   25.2630  -28.8310 C   0  0  0  0  0  0  0  0  0  0  0  0
   -2.7790   21.6300  -31.4730 N   0  0  0  0  0  0  0  0  0  0  0  0
   -2.1670   20.7390  -28.6020 C   0  0  0  0  0  0  0  0  0  0  0  0
   -3.2635   18.1334  -25.5792 H   0  0  0  0  0  0  0  0  0  0  0  0
   -4.0927   18.5196  -27.1252 H   0  0  0  0  0  0  0  0  0  0  0  0
   -2.3501   18.0836  -27.1252 H   0  0  0  0  0  0  0  0  0  0  0  0
   -0.5150   21.2235  -25.6454 H   0  0  0  0  0  0  0  0  0  0  0  0
    1.0464   22.4197  -27.1784 H   0  0  0  0  0  0  0  0  0  0  0  0
    0.5706   22.5185  -29.6259 H   0  0  0  0  0  0  0  0  0  0  0  0
    0.4985   21.0725  -31.6916 H   0  0  0  0  0  0  0  0  0  0  0  0
   -4.2480   21.9560  -34.3160 H   0  0  0  0  0  0  0  0  0  0  0  0
   -6.2033   23.5886  -30.8887 H   0  0  0  0  0  0  0  0  0  0  0  0
   -6.2123   24.1700  -29.1737 H   0  0  0  0  0  0  0  0  0  0  0  0
   -4.3474   24.2483  -27.8418 H   0  0  0  0  0  0  0  0  0  0  0  0
   -3.2255   24.3080  -25.6165 H   0  0  0  0  0  0  0  0  0  0  0  0
   -1.3767   24.9355  -24.2874 H   0  0  0  0  0  0  0  0  0  0  0  0
    0.0636   24.1320  -24.9993 H   0  0  0  0  0  0  0  0  0  0  0  0
   -0.0567   25.9243  -24.9993 H   0  0  0  0  0  0  0  0  0  0  0  0
    0.4587   25.5695  -27.5137 H   0  0  0  0  0  0  0  0  0  0  0  0
   -0.6693   25.5271  -29.7373 H   0  0  0  0  0  0  0  0  0  0  0  0
   -3.0722   20.2623  -29.0062 H   0  0  0  0  0  0  0  0  0  0  0  0
  1  2  1  0
  2  3  1  0
  3  4  2  0
  4  5  1  0
  5  6  2  0
  6  7  1  0
  7  8  1  0
  8  9  2  0
  9 10  1  0
 10 11  1  0
 11 12  2  0
 12 13  1  0
 13 14  2  0
 14 15  1  0
 15 16  1  0
 16 17  1  0
 17 18  2  0
 17 19  1  0
 19 20  1  0
 20 21  2  0
 21 22  1  0
 22 23  2  0
 23 24  1  0
 23 25  1  0
 25 26  2  0
 14 27  1  0
  7 28  2  0
 28  3  1  0
 27  8  1  0
 27 11  1  0
 26 20  1  0
  1 29  1  0
  1 30  1  0
  1 31  1  0
  4 32  1  0
  5 33  1  0
  6 34  1  0
  9 35  1  0
 12 36  1  0
 16 37  1  0
 16 38  1  0
 21 39  1  0
 22 40  1  0
 24 41  1  0
 24 42  1  0
 24 43  1  0
 25 44  1  0
 26 45  1  0
 28 46  1  0
M  CHG  2  12   1  19  -1
M  END
>  <UniqueID>  (25) 
22

>  <SMILES>  (25) 
COc1cccc(-c2csc3[nH+]nc(SCC(=O)[N-]c4ccc(C)cc4)n23)c1

>  <Energy>  (25) 
138.96586852649585

>  <Genealogy>  (25) 
COc1cccc(-c2csc3[nH+]nc(SCC(=O)[N-]c4ccc(C)cc4)n23)c1 (protonated)
COc1cccc(-c2csc3[nH+]nc(SCC(=O)[N-]c4ccc(C)cc4)n23)c1 (3D coordinates assigned)
COc1cccc(-c2csc3[nH+]nc(SCC(=O)[N-]c4ccc(C)cc4)n23)c1 (optimized conformer: 138.96586852649585 kcal/mol)

>  <smiles>  (25) 
COc1cccc(-c2csc3nnc(SCC(=O)Nc4ccc(C)cc4)n23)c1

>  <score_type>  (25) 
oracle

>  <origin>  (25) 
adg

>  <m_score__min__energy>  (25) 
-10.779999999999999

>  <m_primary>  (25) 
energy

$$$$
25:0
     RDKit          3D

 32 33  0  0  0  0  0  0  0  0999 V2000
   -6.2180   16.2940  -33.8670 C   0  0  0  0  0  0  0  0  0  0  0  0
   -5.4110   17.4660  -33.8260 O   0  0  0  0  0  0  0  0  0  0  0  0
   -5.8540   18.7180  -33.3730 C   0  0  0  0  0  0  0  0  0  0  0  0
   -4.9790   19.8050  -33.1870 C   0  0  0  0  0  0  0  0  0  0  0  0
   -5.4640   21.0340  -32.7290 C   0  0  0  0  0  0  0  0  0  0  0  0
   -6.8300   21.1940  -32.4410 C   0  0  0  0  0  0  0  0  0  0  0  0
   -7.3760   22.3980  -31.9490 C   0  0  0  0  0  0  0  0  0  0  0  0
   -6.3630   23.8460  -31.6090 S   0  0  0  0  0  0  0  0  0  0  0  0
   -6.2590   23.5740  -29.7980 C   0  0  0  0  0  0  0  0  0  0  0  0
   -4.8820   23.0420  -29.3610 C   0  0  0  0  0  0  0  0  0  0  0  0
   -4.0540   24.1060  -28.6290 C   0  0  0  0  0  0  0  0  0  0  0  0
   -3.2680   24.9220  -29.6060 C   0  0  0  0  0  0  0  0  0  0  0  0
   -2.0970   25.2920  -29.3260 O   0  0  0  0  0  0  0  0  0  0  0  0
   -3.8460   25.3150  -30.8060 O   0  0  0  0  0  0  0  0  0  0  0  0
   -8.7140   22.4830  -31.7250 N   0  0  0  0  0  0  0  0  0  0  0  0
   -9.5380   21.4280  -31.9390 C   0  0  0  0  0  0  0  0  0  0  0  0
   -9.0350   20.2500  -32.3880 N   0  0  0  0  0  0  0  0  0  0  0  0
   -7.7090   20.1070  -32.6420 C   0  0  0  0  0  0  0  0  0  0  0  0
   -7.2170   18.8810  -33.1020 C   0  0  0  0  0  0  0  0  0  0  0  0
   -6.4428   15.9675  -32.8409 H   0  0  0  0  0  0  0  0  0  0  0  0
   -7.1571   16.5138  -34.3959 H   0  0  0  0  0  0  0  0  0  0  0  0
   -5.6777   15.4951  -34.3959 H   0  0  0  0  0  0  0  0  0  0  0  0
   -3.9070   19.6868  -33.4033 H   0  0  0  0  0  0  0  0  0  0  0  0
   -4.7732   21.8792  -32.5936 H   0  0  0  0  0  0  0  0  0  0  0  0
   -6.4469   24.5294  -29.2862 H   0  0  0  0  0  0  0  0  0  0  0  0
   -7.0108   22.8173  -29.5295 H   0  0  0  0  0  0  0  0  0  0  0  0
   -5.0310   22.1846  -28.6882 H   0  0  0  0  0  0  0  0  0  0  0  0
   -4.3305   22.7498  -30.2668 H   0  0  0  0  0  0  0  0  0  0  0  0
   -4.7299   24.7669  -28.0665 H   0  0  0  0  0  0  0  0  0  0  0  0
   -3.3565   23.6038  -27.9425 H   0  0  0  0  0  0  0  0  0  0  0  0
  -10.6168   21.5269  -31.7483 H   0  0  0  0  0  0  0  0  0  0  0  0
   -7.9075   18.0379  -33.2520 H   0  0  0  0  0  0  0  0  0  0  0  0
  1  2  1  0
  2  3  1  0
  3  4  2  0
  4  5  1  0
  5  6  2  0
  6  7  1  0
  7  8  1  0
  8  9  1  0
  9 10  1  0
 10 11  1  0
 11 12  1  0
 12 13  2  0
 12 14  1  0
  7 15  2  0
 15 16  1  0
 16 17  2  0
 17 18  1  0
 18 19  2  0
 19  3  1  0
 18  6  1  0
  1 20  1  0
  1 21  1  0
  1 22  1  0
  4 23  1  0
  5 24  1  0
  9 25  1  0
  9 26  1  0
 10 27  1  0
 10 28  1  0
 11 29  1  0
 11 30  1  0
 16 31  1  0
 19 32  1  0
M  CHG  1  14  -1
M  END
>  <UniqueID>  (26) 
23

>  <SMILES>  (26) 
COc1ccc2c(SCCCC(=O)[O-])ncnc2c1

>  <Energy>  (26) 
29.847896927341072

>  <Genealogy>  (26) 
COc1ccc2c(SCCCC(=O)[O-])ncnc2c1 (protonated)
COc1ccc2c(SCCCC(=O)[O-])ncnc2c1 (3D coordinates assigned)
COc1ccc2c(SCCCC(=O)[O-])ncnc2c1 (optimized conformer: 29.847896927341072 kcal/mol)

>  <smiles>  (26) 
COc1ccc2c(SCCCC(=O)O)ncnc2c1

>  <score_type>  (26) 
oracle

>  <origin>  (26) 
adg

>  <m_score__min__energy>  (26) 
-9.8900000000000006

>  <m_primary>  (26) 
energy

$$$$
26:0
     RDKit          3D

 41 44  0  0  1  0  0  0  0  0999 V2000
   -1.8090   20.6010  -28.8740 C   0  0  0  0  0  0  0  0  0  0  0  0
   -2.3360   21.9410  -29.1960 C   0  0  0  0  0  0  0  0  0  0  0  0
   -1.6320   23.0920  -28.9080 C   0  0  0  0  0  0  0  0  0  0  0  0
   -2.1640   24.3190  -29.2270 C   0  0  0  0  0  0  0  0  0  0  0  0
   -1.5670   25.4180  -28.9890 N   0  0  0  0  0  0  0  0  0  0  0  0
   -1.3430   25.8680  -27.6530 C   0  0  0  0  0  0  0  0  0  0  0  0
   -2.3950   25.2670  -26.7070 C   0  0  0  0  0  0  0  0  0  0  0  0
   -1.7780   25.6320  -25.3680 C   0  0  0  0  0  0  0  0  0  0  0  0
   -0.2920   25.6850  -25.5810 C   0  0  0  0  0  0  0  0  0  0  0  0
   -0.1130   25.2130  -27.0190 C   0  0  0  0  0  0  0  0  0  0  0  0
   -3.3810   24.3780  -29.8230 N   0  0  0  0  0  0  0  0  0  0  0  0
   -4.1180   25.4120  -30.2320 N   0  0  0  0  0  0  0  0  0  0  0  0
   -5.2690   24.9790  -30.7730 C   0  0  0  0  0  0  0  0  0  0  0  0
   -5.2710   23.5920  -30.7060 C   0  0  0  0  0  0  0  0  0  0  0  0
   -6.3410   22.7210  -31.1860 C   0  0  0  0  0  0  0  0  0  0  0  0
   -7.5320   22.6920  -30.4790 C   0  0  0  0  0  0  0  0  0  0  0  0
   -8.5520   21.8720  -30.9230 C   0  0  0  0  0  0  0  0  0  0  0  0
   -8.3620   21.1010  -32.0580 C   0  0  0  0  0  0  0  0  0  0  0  0
   -9.3380   20.2750  -32.5370 F   0  0  0  0  0  0  0  0  0  0  0  0
   -7.1810   21.1550  -32.7240 N   0  0  0  0  0  0  0  0  0  0  0  0
   -6.1710   21.9450  -32.3130 C   0  0  0  0  0  0  0  0  0  0  0  0
   -4.0790   23.2480  -30.1090 C   0  0  0  0  0  0  0  0  0  0  0  0
   -3.5380   22.0590  -29.7880 N   0  0  0  0  0  0  0  0  0  0  0  0
   -1.7609   20.4786  -27.7819 H   0  0  0  0  0  0  0  0  0  0  0  0
   -2.4724   19.8340  -29.3000 H   0  0  0  0  0  0  0  0  0  0  0  0
   -0.8008   20.4914  -29.3000 H   0  0  0  0  0  0  0  0  0  0  0  0
   -0.6464   23.0281  -28.4238 H   0  0  0  0  0  0  0  0  0  0  0  0
   -1.3064   26.9637  -27.7434 H   0  0  0  0  0  0  0  0  0  0  0  0
   -3.3818   25.7336  -26.8434 H   0  0  0  0  0  0  0  0  0  0  0  0
   -2.5917   24.1944  -26.8515 H   0  0  0  0  0  0  0  0  0  0  0  0
   -2.1488   26.6122  -25.0337 H   0  0  0  0  0  0  0  0  0  0  0  0
   -2.0422   24.8951  -24.5952 H   0  0  0  0  0  0  0  0  0  0  0  0
    0.0854   26.7106  -25.4555 H   0  0  0  0  0  0  0  0  0  0  0  0
    0.2632   25.0682  -24.8589 H   0  0  0  0  0  0  0  0  0  0  0  0
    0.8236   25.5852  -27.4598 H   0  0  0  0  0  0  0  0  0  0  0  0
   -0.0426   24.1230  -27.1494 H   0  0  0  0  0  0  0  0  0  0  0  0
   -3.8680   26.4290  -30.1600 H   0  0  0  0  0  0  0  0  0  0  0  0
   -6.0663   25.6096  -31.1933 H   0  0  0  0  0  0  0  0  0  0  0  0
   -7.6636   23.3112  -29.5794 H   0  0  0  0  0  0  0  0  0  0  0  0
   -9.5074   21.8319  -30.3793 H   0  0  0  0  0  0  0  0  0  0  0  0
   -5.2224   21.9710  -32.8693 H   0  0  0  0  0  0  0  0  0  0  0  0
  1  2  1  0
  2  3  2  0
  3  4  1  0
  4  5  2  0
  5  6  1  0
  6  7  1  0
  7  8  1  0
  8  9  1  0
  9 10  1  0
  4 11  1  0
 11 12  1  0
 12 13  1  0
 13 14  2  0
 14 15  1  0
 15 16  2  0
 16 17  1  0
 17 18  2  0
 18 19  1  0
 18 20  1  0
 20 21  2  0
 14 22  1  0
 22 23  2  0
 23  2  1  0
 10  6  1  0
 22 11  1  0
 21 15  1  0
  1 24  1  0
  1 25  1  0
  1 26  1  0
  3 27  1  0
  6 28  1  0
  7 29  1  0
  7 30  1  0
  8 31  1  0
  8 32  1  0
  9 33  1  0
  9 34  1  0
 10 35  1  0
 10 36  1  0
 12 37  1  0
 13 38  1  0
 16 39  1  0
 17 40  1  0
 21 41  1  0
M  END
>  <smiles>  (27) 
Cc1cc(=NC2CCCC2)n2[nH]cc(-c3ccc(F)nc3)c2n1

>  <score_type>  (27) 
oracle

>  <origin>  (27) 
adg

>  <m_score__min__energy>  (27) 
-8.3900000000000006

>  <m_primary>  (27) 
energy

$$$$
27:0
     RDKit          3D

 40 43  0  0  0  0  0  0  0  0999 V2000
   -9.8380   19.2940  -32.7420 C   0  0  0  0  0  0  0  0  0  0  0  0
   -8.9400   20.2880  -32.1680 N   0  0  0  0  0  0  0  0  0  0  0  0
   -9.2740   21.4090  -31.4880 C   0  0  0  0  0  0  0  0  0  0  0  0
   -8.1980   22.1770  -31.1690 N   0  0  0  0  0  0  0  0  0  0  0  0
   -7.1570   21.4980  -31.6950 C   0  0  0  0  0  0  0  0  0  0  0  0
   -5.7810   21.7980  -31.6930 C   0  0  0  0  0  0  0  0  0  0  0  0
   -5.2260   22.9930  -31.0540 N   0  0  0  0  0  0  0  0  0  0  0  0
   -5.9040   24.2910  -31.2620 C   0  0  0  0  0  0  0  0  0  0  0  0
   -5.2670   25.4500  -30.4910 C   0  0  0  0  0  0  0  0  0  0  0  0
   -3.8640   25.3330  -30.4720 O   0  0  0  0  0  0  0  0  0  0  0  0
   -3.5250   24.2320  -29.6660 C   0  0  0  0  0  0  0  0  0  0  0  0
   -3.9410   22.9160  -30.3290 C   0  0  0  0  0  0  0  0  0  0  0  0
   -4.9620   20.8850  -32.3260 N   0  0  0  0  0  0  0  0  0  0  0  0
   -5.4580   19.7590  -32.9500 C   0  0  0  0  0  0  0  0  0  0  0  0
   -4.5540   18.8030  -33.6380 C   0  0  0  0  0  0  0  0  0  0  0  0
   -5.0940   17.7440  -34.3910 C   0  0  0  0  0  0  0  0  0  0  0  0
   -4.2530   16.8410  -35.0500 C   0  0  0  0  0  0  0  0  0  0  0  0
   -2.8670   16.9910  -34.9710 C   0  0  0  0  0  0  0  0  0  0  0  0
   -2.3170   18.0460  -34.2380 C   0  0  0  0  0  0  0  0  0  0  0  0
   -0.9720   18.1980  -34.1750 F   0  0  0  0  0  0  0  0  0  0  0  0
   -3.1550   18.9500  -33.5770 C   0  0  0  0  0  0  0  0  0  0  0  0
   -6.7980   19.4990  -32.9260 N   0  0  0  0  0  0  0  0  0  0  0  0
   -7.6120   20.3720  -32.2960 C   0  0  0  0  0  0  0  0  0  0  0  0
  -10.3378   18.7408  -31.9332 H   0  0  0  0  0  0  0  0  0  0  0  0
  -10.5935   19.7975  -33.3630 H   0  0  0  0  0  0  0  0  0  0  0  0
   -9.2606   18.5934  -33.3630 H   0  0  0  0  0  0  0  0  0  0  0  0
  -10.3082   21.6718  -31.2210 H   0  0  0  0  0  0  0  0  0  0  0  0
   -5.8740   24.5301  -32.3353 H   0  0  0  0  0  0  0  0  0  0  0  0
   -6.9313   24.1806  -30.8844 H   0  0  0  0  0  0  0  0  0  0  0  0
   -5.5423   26.3985  -30.9753 H   0  0  0  0  0  0  0  0  0  0  0  0
   -5.6347   25.4254  -29.4546 H   0  0  0  0  0  0  0  0  0  0  0  0
   -2.4368   24.2254  -29.5056 H   0  0  0  0  0  0  0  0  0  0  0  0
   -4.0560   24.3238  -28.7070 H   0  0  0  0  0  0  0  0  0  0  0  0
   -3.1569   22.6246  -31.0433 H   0  0  0  0  0  0  0  0  0  0  0  0
   -4.0718   22.1789  -29.5231 H   0  0  0  0  0  0  0  0  0  0  0  0
   -3.9300   21.0150  -32.3170 H   0  0  0  0  0  0  0  0  0  0  0  0
   -6.1853   17.6254  -34.4620 H   0  0  0  0  0  0  0  0  0  0  0  0
   -4.6839   16.0122  -35.6308 H   0  0  0  0  0  0  0  0  0  0  0  0
   -2.2071   16.2777  -35.4865 H   0  0  0  0  0  0  0  0  0  0  0  0
   -2.7179   19.7819  -33.0053 H   0  0  0  0  0  0  0  0  0  0  0  0
  1  2  1  0
  2  3  1  0
  3  4  2  0
  4  5  1  0
  5  6  2  0
  6  7  1  0
  7  8  1  0
  8  9  1  0
  9 10  1  0
 10 11  1  0
 11 12  1  0
  6 13  1  0
 13 14  2  0
 14 15  1  0
 15 16  2  0
 16 17  1  0
 17 18  2  0
 18 19  1  0
 19 20  1  0
 19 21  2  0
 14 22  1  0
 22 23  2  0
 23  2  1  0
 23  5  1  0
 12  7  1  0
 21 15  1  0
  1 24  1  0
  1 25  1  0
  1 26  1  0
  3 27  1  0
  8 28  1  0
  8 29  1  0
  9 30  1  0
  9 31  1  0
 11 32  1  0
 11 33  1  0
 12 34  1  0
 12 35  1  0
 13 36  1  0
 16 37  1  0
 17 38  1  0
 18 39  1  0
 21 40  1  0
M  CHG  1  13   1
M  END
>  <UniqueID>  (28) 
24

>  <SMILES>  (28) 
Cn1cnc2c(N3CCOCC3)[nH+]c(-c3cccc(F)c3)nc21

>  <Energy>  (28) 
95.14455511930394

>  <Genealogy>  (28) 
Cn1cnc2c(N3CCOCC3)[nH+]c(-c3cccc(F)c3)nc21 (protonated)
Cn1cnc2c(N3CCOCC3)[nH+]c(-c3cccc(F)c3)nc21 (3D coordinates assigned)
Cn1cnc2c(N3CCOCC3)[nH+]c(-c3cccc(F)c3)nc21 (nonaromatic ring conformer: 95.14455511930394 kcal/mol)

>  <smiles>  (28) 
Cn1cnc2c(N3CCOCC3)nc(-c3cccc(F)c3)nc21

>  <score_type>  (28) 
oracle

>  <origin>  (28) 
adg

>  <m_score__min__energy>  (28) 
-7.29

>  <m_primary>  (28) 
energy

$$$$
28:0
     RDKit          3D

 65 69  0  0  0  0  0  0  0  0999 V2000
   -3.1350   20.8980  -29.8270 C   0  0  0  0  0  0  0  0  0  0  0  0
   -4.1520   21.3500  -30.7170 O   0  0  0  0  0  0  0  0  0  0  0  0
   -4.8860   22.5420  -30.5830 C   0  0  0  0  0  0  0  0  0  0  0  0
   -4.3030   23.6530  -29.9390 C   0  0  0  0  0  0  0  0  0  0  0  0
   -5.0190   24.8310  -29.7500 C   0  0  0  0  0  0  0  0  0  0  0  0
   -6.3300   24.9260  -30.1960 C   0  0  0  0  0  0  0  0  0  0  0  0
   -6.9290   23.8490  -30.8450 C   0  0  0  0  0  0  0  0  0  0  0  0
   -6.2300   22.6320  -31.0740 C   0  0  0  0  0  0  0  0  0  0  0  0
   -6.8930   21.5280  -31.7830 N   0  0  0  0  0  0  0  0  0  0  0  0
   -8.0660   20.8740  -31.1470 C   0  0  0  0  0  0  0  0  0  0  0  0
   -8.7260   19.7190  -31.9380 C   0  0  0  0  0  0  0  0  0  0  0  0
   -7.8370   19.0640  -32.9150 N   0  0  0  0  0  0  0  0  0  0  0  0
   -6.7970   18.2470  -32.3010 C   0  0  0  0  0  0  0  0  0  0  0  0
   -6.8470   17.9780  -31.0670 O   0  0  0  0  0  0  0  0  0  0  0  0
   -5.6410   17.7240  -33.0850 C   0  0  0  0  0  0  0  0  0  0  0  0
   -5.7280   16.5410  -33.8260 C   0  0  0  0  0  0  0  0  0  0  0  0
   -4.6310   16.0710  -34.5420 C   0  0  0  0  0  0  0  0  0  0  0  0
   -3.3880   16.7500  -34.5220 C   0  0  0  0  0  0  0  0  0  0  0  0
   -3.2790   17.9440  -33.7590 C   0  0  0  0  0  0  0  0  0  0  0  0
   -4.4260   18.4240  -33.0740 C   0  0  0  0  0  0  0  0  0  0  0  0
   -2.0390   18.6460  -33.7210 C   0  0  0  0  0  0  0  0  0  0  0  0
   -1.0230   18.2630  -34.6440 C   0  0  0  0  0  0  0  0  0  0  0  0
   -1.1610   17.0380  -35.3330 C   0  0  0  0  0  0  0  0  0  0  0  0
   -0.2080   16.6380  -36.0600 O   0  0  0  0  0  0  0  0  0  0  0  0
   -2.3020   16.2790  -35.2250 N   0  0  0  0  0  0  0  0  0  0  0  0
   -2.3680   14.9790  -35.9300 C   0  0  0  0  0  0  0  0  0  0  0  0
    0.2440   19.0780  -34.9130 C   0  0  0  0  0  0  0  0  0  0  0  0
   -0.0030   20.5680  -35.1790 C   0  0  0  0  0  0  0  0  0  0  0  0
   -0.2340   21.3550  -33.8860 C   0  0  0  0  0  0  0  0  0  0  0  0
   -1.6520   21.1940  -33.3370 C   0  0  0  0  0  0  0  0  0  0  0  0
   -1.8790   19.8060  -32.7290 C   0  0  0  0  0  0  0  0  0  0  0  0
   -7.2880   20.0930  -33.8120 C   0  0  0  0  0  0  0  0  0  0  0  0
   -6.3510   21.0430  -33.0680 C   0  0  0  0  0  0  0  0  0  0  0  0
   -3.4652   21.0448  -28.7880 H   0  0  0  0  0  0  0  0  0  0  0  0
   -2.9421   19.8294  -30.0030 H   0  0  0  0  0  0  0  0  0  0  0  0
   -2.2126   21.4709  -30.0030 H   0  0  0  0  0  0  0  0  0  0  0  0
   -3.2652   23.5872  -29.5802 H   0  0  0  0  0  0  0  0  0  0  0  0
   -4.5459   25.6873  -29.2470 H   0  0  0  0  0  0  0  0  0  0  0  0
   -6.8976   25.8546  -30.0364 H   0  0  0  0  0  0  0  0  0  0  0  0
   -7.9696   23.9422  -31.1893 H   0  0  0  0  0  0  0  0  0  0  0  0
   -7.7387   20.4707  -30.1774 H   0  0  0  0  0  0  0  0  0  0  0  0
   -8.8351   21.6575  -31.0799 H   0  0  0  0  0  0  0  0  0  0  0  0
   -9.0656   18.9594  -31.2186 H   0  0  0  0  0  0  0  0  0  0  0  0
   -9.5512   20.1639  -32.5134 H   0  0  0  0  0  0  0  0  0  0  0  0
   -8.4480   18.4320  -33.4810 H   0  0  0  0  0  0  0  0  0  0  0  0
   -6.6722   15.9769  -33.8430 H   0  0  0  0  0  0  0  0  0  0  0  0
   -4.7315   15.1513  -35.1370 H   0  0  0  0  0  0  0  0  0  0  0  0
   -4.3598   19.3715  -32.5191 H   0  0  0  0  0  0  0  0  0  0  0  0
   -2.4094   14.1637  -35.1927 H   0  0  0  0  0  0  0  0  0  0  0  0
   -3.2688   14.9492  -36.5606 H   0  0  0  0  0  0  0  0  0  0  0  0
   -1.4748   14.8581  -36.5606 H   0  0  0  0  0  0  0  0  0  0  0  0
    0.9019   18.9900  -34.0358 H   0  0  0  0  0  0  0  0  0  0  0  0
    0.6920   18.6666  -35.8295 H   0  0  0  0  0  0  0  0  0  0  0  0
    0.8733   20.9857  -35.6964 H   0  0  0  0  0  0  0  0  0  0  0  0
   -0.9103   20.6556  -35.7947 H   0  0  0  0  0  0  0  0  0  0  0  0
    0.4787   21.0001  -33.1270 H   0  0  0  0  0  0  0  0  0  0  0  0
   -0.0885   22.4205  -34.1175 H   0  0  0  0  0  0  0  0  0  0  0  0
   -1.8200   21.9539  -32.5596 H   0  0  0  0  0  0  0  0  0  0  0  0
   -2.3557   21.3173  -34.1734 H   0  0  0  0  0  0  0  0  0  0  0  0
   -1.0180   19.5783  -32.0833 H   0  0  0  0  0  0  0  0  0  0  0  0
   -2.8403   19.8723  -32.1984 H   0  0  0  0  0  0  0  0  0  0  0  0
   -6.7287   19.6003  -34.6210 H   0  0  0  0  0  0  0  0  0  0  0  0
   -8.1254   20.6808  -34.2160 H   0  0  0  0  0  0  0  0  0  0  0  0
   -5.4071   20.5143  -32.8691 H   0  0  0  0  0  0  0  0  0  0  0  0
   -6.2116   21.9248  -33.7107 H   0  0  0  0  0  0  0  0  0  0  0  0
  1  2  1  0
  2  3  1  0
  3  4  2  0
  4  5  1  0
  5  6  2  0
  6  7  1  0
  7  8  2  0
  8  9  1  0
  9 10  1  0
 10 11  1  0
 11 12  1  0
 12 13  1  0
 13 14  2  0
 13 15  1  0
 15 16  2  0
 16 17  1  0
 17 18  2  0
 18 19  1  0
 19 20  2  0
 19 21  1  0
 21 22  2  0
 22 23  1  0
 23 24  2  0
 23 25  1  0
 25 26  1  0
 22 27  1  0
 27 28  1  0
 28 29  1  0
 29 30  1  0
 30 31  1  0
 12 32  1  0
 32 33  1  0
  8  3  1  0
 33  9  1  0
 20 15  1  0
 31 21  1  0
 25 18  1  0
  1 34  1  0
  1 35  1  0
  1 36  1  0
  4 37  1  0
  5 38  1  0
  6 39  1  0
  7 40  1  0
 10 41  1  0
 10 42  1  0
 11 43  1  0
 11 44  1  0
 12 45  1  0
 16 46  1  0
 17 47  1  0
 20 48  1  0
 26 49  1  0
 26 50  1  0
 26 51  1  0
 27 52  1  0
 27 53  1  0
 28 54  1  0
 28 55  1  0
 29 56  1  0
 29 57  1  0
 30 58  1  0
 30 59  1  0
 31 60  1  0
 31 61  1  0
 32 62  1  0
 32 63  1  0
 33 64  1  0
 33 65  1  0
M  CHG  1  12   1
M  END
>  <UniqueID>  (29) 
25

>  <SMILES>  (29) 
COc1ccccc1N1CC[NH+](C(=O)c2ccc3c(c2)c2c(c(=O)n3C)CCCCC2)CC1

>  <Energy>  (29) 
116.94752628412192

>  <Genealogy>  (29) 
COc1ccccc1N1CC[NH+](C(=O)c2ccc3c(c2)c2c(c(=O)n3C)CCCCC2)CC1 (protonated)
COc1ccccc1N1CC[NH+](C(=O)c2ccc3c(c2)c2c(c(=O)n3C)CCCCC2)CC1 (3D coordinates assigned)
COc1ccccc1N1CC[NH+](C(=O)c2ccc3c(c2)c2c(c(=O)n3C)CCCCC2)CC1 (nonaromatic ring conformer: 116.94752628412192 kcal/mol)

>  <smiles>  (29) 
COc1ccccc1N1CCN(C(=O)c2ccc3c(c2)c2c(c(=O)n3C)CCCCC2)CC1

>  <score_type>  (29) 
oracle

>  <origin>  (29) 
adg

>  <m_score__min__energy>  (29) 
-8.4299999999999997

>  <m_primary>  (29) 
energy

$$$$
29:0
     RDKit          3D

 42 43  0  0  0  0  0  0  0  0999 V2000
   -6.4680   17.7970  -31.2470 C   0  0  0  0  0  0  0  0  0  0  0  0
   -7.7040   18.2790  -32.0120 C   0  0  0  0  0  0  0  0  0  0  0  0
   -7.5690   19.6320  -32.6000 N   0  0  0  0  0  0  0  0  0  0  0  0
   -6.6780   19.7160  -33.7820 C   0  0  0  0  0  0  0  0  0  0  0  0
   -5.1840   19.8520  -33.4490 C   0  0  0  0  0  0  0  0  0  0  0  0
   -8.8160   20.4260  -32.6830 C   0  0  0  0  0  0  0  0  0  0  0  0
   -8.9390   21.4200  -31.5190 C   0  0  0  0  0  0  0  0  0  0  0  0
   -8.0730   22.6700  -31.7350 C   0  0  0  0  0  0  0  0  0  0  0  0
   -6.6550   22.3120  -31.7620 N   0  0  0  0  0  0  0  0  0  0  0  0
   -5.6020   23.0960  -31.1660 C   0  0  0  0  0  0  0  0  0  0  0  0
   -5.7220   24.4880  -30.9750 C   0  0  0  0  0  0  0  0  0  0  0  0
   -4.6830   25.2150  -30.3860 C   0  0  0  0  0  0  0  0  0  0  0  0
   -3.5140   24.5650  -29.9850 C   0  0  0  0  0  0  0  0  0  0  0  0
   -3.3820   23.1820  -30.1700 C   0  0  0  0  0  0  0  0  0  0  0  0
   -4.4240   22.4520  -30.7470 C   0  0  0  0  0  0  0  0  0  0  0  0
   -2.2140   22.5300  -29.7520 O   0  0  0  0  0  0  0  0  0  0  0  0
   -0.9950   23.2230  -29.4570 C   0  0  0  0  0  0  0  0  0  0  0  0
   -1.2520   24.6250  -28.9830 C   0  0  0  0  0  0  0  0  0  0  0  0
   -0.3700   25.2440  -28.3310 O   0  0  0  0  0  0  0  0  0  0  0  0
   -2.4660   25.2880  -29.3390 N   0  0  0  0  0  0  0  0  0  0  0  0
   -6.6547   17.8698  -30.1654 H   0  0  0  0  0  0  0  0  0  0  0  0
   -6.2570   16.7507  -31.5130 H   0  0  0  0  0  0  0  0  0  0  0  0
   -5.6044   18.4243  -31.5130 H   0  0  0  0  0  0  0  0  0  0  0  0
   -7.9035   17.5677  -32.8270 H   0  0  0  0  0  0  0  0  0  0  0  0
   -8.5245   18.3340  -31.2814 H   0  0  0  0  0  0  0  0  0  0  0  0
   -6.8144   18.8029  -34.3800 H   0  0  0  0  0  0  0  0  0  0  0  0
   -6.9616   20.6317  -34.3215 H   0  0  0  0  0  0  0  0  0  0  0  0
   -5.0513   19.8641  -32.3571 H   0  0  0  0  0  0  0  0  0  0  0  0
   -4.6342   19.0002  -33.8758 H   0  0  0  0  0  0  0  0  0  0  0  0
   -4.7970   20.7891  -33.8758 H   0  0  0  0  0  0  0  0  0  0  0  0
   -8.8195   20.9851  -33.6303 H   0  0  0  0  0  0  0  0  0  0  0  0
   -9.6673   19.7313  -32.6302 H   0  0  0  0  0  0  0  0  0  0  0  0
   -9.9907   21.7286  -31.4253 H   0  0  0  0  0  0  0  0  0  0  0  0
   -8.5884   20.9178  -30.6053 H   0  0  0  0  0  0  0  0  0  0  0  0
   -8.3463   23.1389  -32.6918 H   0  0  0  0  0  0  0  0  0  0  0  0
   -8.2473   23.3714  -30.9057 H   0  0  0  0  0  0  0  0  0  0  0  0
   -6.3990   21.4200  -32.2410 H   0  0  0  0  0  0  0  0  0  0  0  0
   -6.6395   25.0056  -31.2916 H   0  0  0  0  0  0  0  0  0  0  0  0
   -4.7866   26.3001  -30.2384 H   0  0  0  0  0  0  0  0  0  0  0  0
   -4.3223   21.3642  -30.8747 H   0  0  0  0  0  0  0  0  0  0  0  0
   -0.4547   22.6747  -28.6712 H   0  0  0  0  0  0  0  0  0  0  0  0
   -0.4002   23.2776  -30.3807 H   0  0  0  0  0  0  0  0  0  0  0  0
  1  2  1  0
  2  3  1  0
  3  4  1  0
  4  5  1  0
  3  6  1  0
  6  7  1  0
  7  8  1  0
  8  9  1  0
  9 10  1  0
 10 11  2  0
 11 12  1  0
 12 13  2  0
 13 14  1  0
 14 15  2  0
 14 16  1  0
 16 17  1  0
 17 18  1  0
 18 19  2  0
 18 20  1  0
 15 10  1  0
 20 13  1  0
  1 21  1  0
  1 22  1  0
  1 23  1  0
  2 24  1  0
  2 25  1  0
  4 26  1  0
  4 27  1  0
  5 28  1  0
  5 29  1  0
  5 30  1  0
  6 31  1  0
  6 32  1  0
  7 33  1  0
  7 34  1  0
  8 35  1  0
  8 36  1  0
  9 37  1  0
 11 38  1  0
 12 39  1  0
 15 40  1  0
 17 41  1  0
 17 42  1  0
M  CHG  1  20  -1
M  END
>  <UniqueID>  (30) 
26

>  <SMILES>  (30) 
CCN(CC)CCCNc1ccc2c(c1)OCC(=O)[N-]2

>  <Energy>  (30) 
45.519793326645164

>  <Genealogy>  (30) 
CCN(CC)CCCNc1ccc2c(c1)OCC(=O)[N-]2 (protonated)
CCN(CC)CCCNc1ccc2c(c1)OCC(=O)[N-]2 (3D coordinates assigned)
CCN(CC)CCCNc1ccc2c(c1)OCC(=O)[N-]2 (nonaromatic ring conformer: 45.519793326645164 kcal/mol)

>  <smiles>  (30) 
CCN(CC)CCCNc1ccc2c(c1)OCC(=O)N2

>  <score_type>  (30) 
oracle

>  <origin>  (30) 
adg

>  <m_score__min__energy>  (30) 
-8.4399999999999995

>  <m_primary>  (30) 
energy

$$$$
30:0
     RDKit          3D

 41 43  0  0  0  0  0  0  0  0999 V2000
    0.4500   24.5550  -27.0110 C   0  0  0  0  0  0  0  0  0  0  0  0
   -0.0770   24.5430  -28.3340 O   0  0  0  0  0  0  0  0  0  0  0  0
   -1.4080   24.2360  -28.6540 C   0  0  0  0  0  0  0  0  0  0  0  0
   -2.4250   24.7950  -27.8730 C   0  0  0  0  0  0  0  0  0  0  0  0
   -3.7670   24.5200  -28.1520 C   0  0  0  0  0  0  0  0  0  0  0  0
   -4.1130   23.6660  -29.2090 C   0  0  0  0  0  0  0  0  0  0  0  0
   -5.5010   23.4150  -29.4890 N   0  0  0  0  0  0  0  0  0  0  0  0
   -5.9640   22.5060  -30.5020 C   0  0  0  0  0  0  0  0  0  0  0  0
   -5.1610   22.2020  -31.5310 C   0  0  0  0  0  0  0  0  0  0  0  0
   -5.6060   21.2740  -32.5870 C   0  0  0  0  0  0  0  0  0  0  0  0
   -4.8270   21.0050  -33.5400 O   0  0  0  0  0  0  0  0  0  0  0  0
   -6.9600   20.6660  -32.5210 C   0  0  0  0  0  0  0  0  0  0  0  0
   -7.3840   19.7040  -33.5110 N   0  0  0  0  0  0  0  0  0  0  0  0
   -6.6890   18.4570  -33.3090 C   0  0  0  0  0  0  0  0  0  0  0  0
   -6.0610   17.8060  -34.3860 C   0  0  0  0  0  0  0  0  0  0  0  0
   -5.3610   16.6130  -34.1800 C   0  0  0  0  0  0  0  0  0  0  0  0
   -5.2770   16.0610  -32.8980 C   0  0  0  0  0  0  0  0  0  0  0  0
   -4.3180   14.4330  -32.6210 Br  0  0  0  0  0  0  0  0  0  0  0  0
   -5.8930   16.7030  -31.8210 C   0  0  0  0  0  0  0  0  0  0  0  0
   -6.5940   17.8950  -32.0220 C   0  0  0  0  0  0  0  0  0  0  0  0
   -7.7720   20.9940  -31.5010 C   0  0  0  0  0  0  0  0  0  0  0  0
   -7.3390   21.9490  -30.4650 C   0  0  0  0  0  0  0  0  0  0  0  0
   -8.1530   22.3050  -29.5720 O   0  0  0  0  0  0  0  0  0  0  0  0
   -3.0930   23.1190  -30.0080 C   0  0  0  0  0  0  0  0  0  0  0  0
   -1.7520   23.3950  -29.7300 C   0  0  0  0  0  0  0  0  0  0  0  0
   -0.3775   24.5362  -26.2865 H   0  0  0  0  0  0  0  0  0  0  0  0
    1.0877   23.6711  -26.8623 H   0  0  0  0  0  0  0  0  0  0  0  0
    1.0468   25.4670  -26.8623 H   0  0  0  0  0  0  0  0  0  0  0  0
   -2.1668   25.4562  -27.0327 H   0  0  0  0  0  0  0  0  0  0  0  0
   -4.5571   24.9768  -27.5380 H   0  0  0  0  0  0  0  0  0  0  0  0
   -6.2160   23.9630  -28.9580 H   0  0  0  0  0  0  0  0  0  0  0  0
   -4.1580   22.6501  -31.5885 H   0  0  0  0  0  0  0  0  0  0  0  0
   -7.1960   20.0710  -34.4730 H   0  0  0  0  0  0  0  0  0  0  0  0
   -8.4190   19.5490  -33.4510 H   0  0  0  0  0  0  0  0  0  0  0  0
   -6.1208   18.2376  -35.3960 H   0  0  0  0  0  0  0  0  0  0  0  0
   -4.8756   16.1079  -35.0281 H   0  0  0  0  0  0  0  0  0  0  0  0
   -5.8261   16.2692  -30.8124 H   0  0  0  0  0  0  0  0  0  0  0  0
   -7.0745   18.3971  -31.1693 H   0  0  0  0  0  0  0  0  0  0  0  0
   -8.7735   20.5434  -31.4386 H   0  0  0  0  0  0  0  0  0  0  0  0
   -3.3527   22.4698  -30.8571 H   0  0  0  0  0  0  0  0  0  0  0  0
   -0.9613   22.9535  -30.3543 H   0  0  0  0  0  0  0  0  0  0  0  0
  1  2  1  0
  2  3  1  0
  3  4  2  0
  4  5  1  0
  5  6  2  0
  6  7  1  0
  7  8  1  0
  8  9  2  0
  9 10  1  0
 10 11  2  0
 10 12  1  0
 12 13  1  0
 13 14  1  0
 14 15  2  0
 15 16  1  0
 16 17  2  0
 17 18  1  0
 17 19  1  0
 19 20  2  0
 12 21  2  0
 21 22  1  0
 22 23  2  0
  6 24  1  0
 24 25  2  0
 25  3  1  0
 22  8  1  0
 20 14  1  0
  1 26  1  0
  1 27  1  0
  1 28  1  0
  4 29  1  0
  5 30  1  0
  7 31  1  0
  9 32  1  0
 13 33  1  0
 13 34  1  0
 15 35  1  0
 16 36  1  0
 19 37  1  0
 20 38  1  0
 21 39  1  0
 24 40  1  0
 25 41  1  0
M  CHG  1  13   1
M  END
>  <UniqueID>  (31) 
27

>  <SMILES>  (31) 
COc1ccc(NC2=CC(=O)C([NH2+]c3ccc(Br)cc3)=CC2=O)cc1

>  <Energy>  (31) 
49.02027681808388

>  <Genealogy>  (31) 
COc1ccc(NC2=CC(=O)C([NH2+]c3ccc(Br)cc3)=CC2=O)cc1 (protonated)
COc1ccc(NC2=CC(=O)C([NH2+]c3ccc(Br)cc3)=CC2=O)cc1 (3D coordinates assigned)
COc1ccc(NC2=CC(=O)C([NH2+]c3ccc(Br)cc3)=CC2=O)cc1 (nonaromatic ring conformer: 49.02027681808388 kcal/mol)

>  <smiles>  (31) 
COc1ccc(NC2=CC(=O)C(Nc3ccc(Br)cc3)=CC2=O)cc1

>  <score_type>  (31) 
oracle

>  <origin>  (31) 
adg

>  <m_score__min__energy>  (31) 
-8.1500000000000004

>  <m_primary>  (31) 
energy

$$$$
31:0
     RDKit          3D

 48 50  0  0  0  0  0  0  0  0999 V2000
   -5.1490   25.6750  -30.4920 C   0  0  0  0  0  0  0  0  0  0  0  0
   -3.8610   25.0710  -30.4880 O   0  0  0  0  0  0  0  0  0  0  0  0
   -3.3830   24.2100  -29.4850 C   0  0  0  0  0  0  0  0  0  0  0  0
   -2.4140   24.6230  -28.5500 C   0  0  0  0  0  0  0  0  0  0  0  0
   -1.9660   23.7410  -27.5610 C   0  0  0  0  0  0  0  0  0  0  0  0
   -2.4880   22.4500  -27.4850 C   0  0  0  0  0  0  0  0  0  0  0  0
   -3.4490   22.0290  -28.4040 C   0  0  0  0  0  0  0  0  0  0  0  0
   -3.8880   22.8950  -29.4160 C   0  0  0  0  0  0  0  0  0  0  0  0
   -4.8940   22.4250  -30.3900 C   0  0  0  0  0  0  0  0  0  0  0  0
   -6.2270   22.8440  -30.2430 C   0  0  0  0  0  0  0  0  0  0  0  0
   -7.1830   22.5090  -31.2040 C   0  0  0  0  0  0  0  0  0  0  0  0
   -6.8170   21.7610  -32.3240 C   0  0  0  0  0  0  0  0  0  0  0  0
   -5.4970   21.3290  -32.4760 C   0  0  0  0  0  0  0  0  0  0  0  0
   -4.5340   21.6290  -31.5040 C   0  0  0  0  0  0  0  0  0  0  0  0
   -3.2420   21.1150  -31.6790 O   0  0  0  0  0  0  0  0  0  0  0  0
   -2.1470   21.8780  -32.1930 C   0  0  2  0  0  0  0  0  0  0  0  0
   -2.0210   21.6810  -33.5940 O   0  0  0  0  0  0  0  0  0  0  0  0
   -1.3300   20.5010  -34.0040 C   0  0  1  0  0  0  0  0  0  0  0  0
   -0.0330   20.9030  -34.7260 C   0  0  0  0  0  0  0  0  0  0  0  0
   -0.0190   22.2840  -34.9740 O   0  0  0  0  0  0  0  0  0  0  0  0
   -1.0580   19.4410  -32.8950 C   0  0  2  0  0  0  0  0  0  0  0  0
   -2.2610   18.7930  -32.5570 O   0  0  0  0  0  0  0  0  0  0  0  0
   -0.4070   20.0770  -31.6420 C   0  0  2  0  0  0  0  0  0  0  0  0
   -0.6190   19.2860  -30.4970 O   0  0  0  0  0  0  0  0  0  0  0  0
   -0.8430   21.5510  -31.4360 C   0  0  2  0  0  0  0  0  0  0  0  0
   -0.9130   21.9040  -30.0750 O   0  0  0  0  0  0  0  0  0  0  0  0
   -5.4836   25.8319  -29.4559 H   0  0  0  0  0  0  0  0  0  0  0  0
   -5.0983   26.6432  -31.0116 H   0  0  0  0  0  0  0  0  0  0  0  0
   -5.8610   25.0169  -31.0116 H   0  0  0  0  0  0  0  0  0  0  0  0
   -2.0076   25.6440  -28.5977 H   0  0  0  0  0  0  0  0  0  0  0  0
   -1.2002   24.0665  -26.8415 H   0  0  0  0  0  0  0  0  0  0  0  0
   -2.1413   21.7628  -26.6992 H   0  0  0  0  0  0  0  0  0  0  0  0
   -3.8646   21.0129  -28.3347 H   0  0  0  0  0  0  0  0  0  0  0  0
   -6.5193   23.4395  -29.3656 H   0  0  0  0  0  0  0  0  0  0  0  0
   -8.2260   22.8351  -31.0782 H   0  0  0  0  0  0  0  0  0  0  0  0
   -7.5683   21.5114  -33.0877 H   0  0  0  0  0  0  0  0  0  0  0  0
   -5.2118   20.7488  -33.3659 H   0  0  0  0  0  0  0  0  0  0  0  0
   -2.3503   22.9464  -32.0283 H   0  0  0  0  0  0  0  0  0  0  0  0
   -2.0166   19.9768  -34.6850 H   0  0  0  0  0  0  0  0  0  0  0  0
    0.8292   20.6392  -34.0960 H   0  0  0  0  0  0  0  0  0  0  0  0
    0.0219   20.3677  -35.6854 H   0  0  0  0  0  0  0  0  0  0  0  0
   -0.9690   22.5800  -34.9840 H   0  0  0  0  0  0  0  0  0  0  0  0
   -0.3450   18.7024  -33.2901 H   0  0  0  0  0  0  0  0  0  0  0  0
   -2.5010   19.0840  -31.6380 H   0  0  0  0  0  0  0  0  0  0  0  0
    0.6787   20.1052  -31.8167 H   0  0  0  0  0  0  0  0  0  0  0  0
   -1.0930   18.4610  -30.7760 H   0  0  0  0  0  0  0  0  0  0  0  0
   -0.0541   22.1779  -31.8772 H   0  0  0  0  0  0  0  0  0  0  0  0
   -1.2720   21.1300  -29.5680 H   0  0  0  0  0  0  0  0  0  0  0  0
  1  2  1  0
  2  3  1  0
  3  4  2  0
  4  5  1  0
  5  6  2  0
  6  7  1  0
  7  8  2  0
  8  9  1  0
  9 10  2  0
 10 11  1  0
 11 12  2  0
 12 13  1  0
 13 14  2  0
 14 15  1  0
 15 16  1  0
 16 17  1  0
 17 18  1  0
 18 19  1  0
 19 20  1  0
 18 21  1  0
 21 22  1  0
 21 23  1  0
 23 24  1  0
 23 25  1  0
 25 26  1  0
  8  3  1  0
 14  9  1  0
 25 16  1  0
  1 27  1  0
  1 28  1  0
  1 29  1  0
  4 30  1  0
  5 31  1  0
  6 32  1  0
  7 33  1  0
 10 34  1  0
 11 35  1  0
 12 36  1  0
 13 37  1  0
 16 38  1  6
 18 39  1  6
 19 40  1  0
 19 41  1  0
 20 42  1  0
 21 43  1  6
 22 44  1  0
 23 45  1  6
 24 46  1  0
 25 47  1  6
 26 48  1  0
M  END
>  <UniqueID>  (32) 
28

>  <SMILES>  (32) 
COc1ccccc1-c1ccccc1O[C@@H]1O[C@@H](CO)C(O)C(O)C1O

>  <Energy>  (32) 
76.93959178729503

>  <Genealogy>  (32) 
COc1ccccc1-c1ccccc1O[C@@H]1O[C@@H](CO)C(O)C(O)C1O (chirality)
COc1ccccc1-c1ccccc1O[C@@H]1O[C@@H](CO)C(O)C(O)C1O (3D coordinates assigned)
COc1ccccc1-c1ccccc1O[C@@H]1O[C@@H](CO)C(O)C(O)C1O (nonaromatic ring conformer: 76.93959178729503 kcal/mol)

>  <smiles>  (32) 
COc1ccccc1-c1ccccc1OC1OC(CO)C(O)C(O)C1O

>  <score_type>  (32) 
oracle

>  <origin>  (32) 
adg

>  <m_score__min__energy>  (32) 
-7.04

>  <m_primary>  (32) 
energy

$$$$
32:0
     RDKit          3D

 30 32  0  0  0  0  0  0  0  0999 V2000
   -8.7340   22.9130  -31.9510 C   0  0  0  0  0  0  0  0  0  0  0  0
   -8.6590   21.4310  -32.1620 C   0  0  0  0  0  0  0  0  0  0  0  0
   -9.7530   20.6070  -32.3360 C   0  0  0  0  0  0  0  0  0  0  0  0
   -9.2580   19.3330  -32.5260 C   0  0  0  0  0  0  0  0  0  0  0  0
   -7.8800   19.4240  -32.4450 C   0  0  0  0  0  0  0  0  0  0  0  0
   -6.9660   18.2680  -32.5560 C   0  0  0  0  0  0  0  0  0  0  0  0
   -6.4930   17.6830  -33.7290 C   0  0  0  0  0  0  0  0  0  0  0  0
   -5.6050   16.6250  -33.5020 C   0  0  0  0  0  0  0  0  0  0  0  0
   -5.3620   16.3770  -32.1580 C   0  0  0  0  0  0  0  0  0  0  0  0
   -6.2510   17.4800  -31.2540 S   0  0  0  0  0  0  0  0  0  0  0  0
   -7.5150   20.7100  -32.2200 N   0  0  0  0  0  0  0  0  0  0  0  0
   -6.1810   21.2450  -32.1880 C   0  0  0  0  0  0  0  0  0  0  0  0
   -5.2160   20.7950  -33.1030 C   0  0  0  0  0  0  0  0  0  0  0  0
   -3.9200   21.3200  -33.0720 C   0  0  0  0  0  0  0  0  0  0  0  0
   -3.5820   22.2950  -32.1290 C   0  0  0  0  0  0  0  0  0  0  0  0
   -4.5380   22.7450  -31.2130 C   0  0  0  0  0  0  0  0  0  0  0  0
   -4.0760   24.0790  -29.9270 Br  0  0  0  0  0  0  0  0  0  0  0  0
   -5.8330   22.2200  -31.2390 C   0  0  0  0  0  0  0  0  0  0  0  0
   -8.7450   23.1297  -30.8726 H   0  0  0  0  0  0  0  0  0  0  0  0
   -7.8590   23.3939  -32.4128 H   0  0  0  0  0  0  0  0  0  0  0  0
   -9.6530   23.3031  -32.4128 H   0  0  0  0  0  0  0  0  0  0  0  0
  -10.8112   20.9071  -32.3253 H   0  0  0  0  0  0  0  0  0  0  0  0
   -9.8458   18.4210  -32.7070 H   0  0  0  0  0  0  0  0  0  0  0  0
   -6.7882   18.0193  -34.7339 H   0  0  0  0  0  0  0  0  0  0  0  0
   -5.1426   16.0439  -34.3135 H   0  0  0  0  0  0  0  0  0  0  0  0
   -4.7023   15.5946  -31.7548 H   0  0  0  0  0  0  0  0  0  0  0  0
   -5.4797   20.0279  -33.8459 H   0  0  0  0  0  0  0  0  0  0  0  0
   -3.1661   20.9654  -33.7902 H   0  0  0  0  0  0  0  0  0  0  0  0
   -2.5630   22.7087  -32.1075 H   0  0  0  0  0  0  0  0  0  0  0  0
   -6.5819   22.5715  -30.5140 H   0  0  0  0  0  0  0  0  0  0  0  0
  1  2  1  0
  2  3  2  0
  3  4  1  0
  4  5  2  0
  5  6  1  0
  6  7  2  0
  7  8  1  0
  8  9  2  0
  9 10  1  0
  5 11  1  0
 11 12  1  0
 12 13  2  0
 13 14  1  0
 14 15  2  0
 15 16  1  0
 16 17  1  0
 16 18  2  0
 11  2  1  0
 18 12  1  0
 10  6  1  0
  1 19  1  0
  1 20  1  0
  1 21  1  0
  3 22  1  0
  4 23  1  0
  7 24  1  0
  8 25  1  0
  9 26  1  0
 13 27  1  0
 14 28  1  0
 15 29  1  0
 18 30  1  0
M  END
>  <UniqueID>  (33) 
29

>  <SMILES>  (33) 
Cc1ccc(-c2cccs2)n1-c1cccc(Br)c1

>  <Energy>  (33) 
91.34114302274901

>  <Genealogy>  (33) 
Cc1ccc(-c2cccs2)n1-c1cccc(Br)c1 (3D coordinates assigned)
Cc1ccc(-c2cccs2)n1-c1cccc(Br)c1 (optimized conformer: 91.34114302274901 kcal/mol)

>  <smiles>  (33) 
Cc1ccc(-c2cccs2)n1-c1cccc(Br)c1

>  <score_type>  (33) 
oracle

>  <origin>  (33) 
adg

>  <m_score__min__energy>  (33) 
-7.7800000000000002

>  <m_primary>  (33) 
energy

$$$$
33:0
     RDKit          3D

 50 52  0  0  0  0  0  0  0  0999 V2000
   -7.0478   20.8688  -33.6537 H   0  0  0  0  0  0  0  0  0  0  0  0
   -7.2100   19.9610  -33.0540 C   0  0  0  0  0  0  0  0  0  0  0  0
   -8.1290   20.0060  -32.0820 C   0  0  0  0  0  0  0  0  0  0  0  0
   -8.0770   19.2837  -31.2540 H   0  0  0  0  0  0  0  0  0  0  0  0
   -9.2310   21.0280  -32.1040 C   0  0  0  0  0  0  0  0  0  0  0  0
  -10.1549   20.5674  -31.7241 H   0  0  0  0  0  0  0  0  0  0  0  0
   -9.3661   21.3717  -33.1402 H   0  0  0  0  0  0  0  0  0  0  0  0
   -8.8940   22.1980  -31.2630 N   0  0  0  0  0  0  0  0  0  0  0  0
   -7.7530   21.8990  -30.3580 C   0  0  0  0  0  0  0  0  0  0  0  0
   -7.0022   21.3170  -30.9126 H   0  0  0  0  0  0  0  0  0  0  0  0
   -8.1391   21.3313  -29.4986 H   0  0  0  0  0  0  0  0  0  0  0  0
   -7.0950   23.1780  -29.8260 C   0  0  0  0  0  0  0  0  0  0  0  0
   -6.2783   22.9023  -29.1426 H   0  0  0  0  0  0  0  0  0  0  0  0
   -7.8611   23.7684  -29.3021 H   0  0  0  0  0  0  0  0  0  0  0  0
   -6.5200   24.0390  -30.9750 C   0  0  0  0  0  0  0  0  0  0  0  0
   -6.7149   25.0923  -30.7250 H   0  0  0  0  0  0  0  0  0  0  0  0
   -5.0180   23.8550  -31.0910 C   0  0  0  0  0  0  0  0  0  0  0  0
   -4.2580   24.8310  -30.8440 O   0  0  0  0  0  0  0  0  0  0  0  0
   -4.4170   22.5730  -31.5410 C   0  0  0  0  0  0  0  0  0  0  0  0
   -4.2660   22.2710  -32.9080 C   0  0  0  0  0  0  0  0  0  0  0  0
   -4.6040   22.9923  -33.6666 H   0  0  0  0  0  0  0  0  0  0  0  0
   -3.6900   21.0620  -33.3090 C   0  0  0  0  0  0  0  0  0  0  0  0
   -3.5841   20.8357  -34.3803 H   0  0  0  0  0  0  0  0  0  0  0  0
   -3.2450   20.1330  -32.3510 C   0  0  0  0  0  0  0  0  0  0  0  0
   -2.6610   18.9080  -32.7050 O   0  0  0  0  0  0  0  0  0  0  0  0
   -1.8590   18.7040  -33.8630 C   0  0  0  0  0  0  0  0  0  0  0  0
   -0.8347   18.4434  -33.5583 H   0  0  0  0  0  0  0  0  0  0  0  0
   -2.2827   17.8850  -34.4628 H   0  0  0  0  0  0  0  0  0  0  0  0
   -1.8399   19.6259  -34.4628 H   0  0  0  0  0  0  0  0  0  0  0  0
   -3.3840   20.4370  -30.9930 C   0  0  0  0  0  0  0  0  0  0  0  0
   -3.0358   19.7192  -30.2357 H   0  0  0  0  0  0  0  0  0  0  0  0
   -3.9610   21.6440  -30.5890 C   0  0  0  0  0  0  0  0  0  0  0  0
   -4.0593   21.8693  -29.5168 H   0  0  0  0  0  0  0  0  0  0  0  0
   -7.2310   23.7610  -32.3220 C   0  0  0  0  0  0  0  0  0  0  0  0
   -6.7410   22.9126  -32.8221 H   0  0  0  0  0  0  0  0  0  0  0  0
   -7.1658   24.6603  -32.9521 H   0  0  0  0  0  0  0  0  0  0  0  0
   -8.7100   23.4240  -32.0870 C   0  0  0  0  0  0  0  0  0  0  0  0
   -9.1953   23.2693  -33.0620 H   0  0  0  0  0  0  0  0  0  0  0  0
   -9.1601   24.2646  -31.5386 H   0  0  0  0  0  0  0  0  0  0  0  0
   -6.3970   18.7620  -33.3720 C   0  0  0  0  0  0  0  0  0  0  0  0
   -6.2250   17.7830  -32.3770 C   0  0  0  0  0  0  0  0  0  0  0  0
   -6.6974   17.9172  -31.3927 H   0  0  0  0  0  0  0  0  0  0  0  0
   -5.4590   16.6410  -32.6280 C   0  0  0  0  0  0  0  0  0  0  0  0
   -5.3382   15.8776  -31.8453 H   0  0  0  0  0  0  0  0  0  0  0  0
   -4.8470   16.4680  -33.8710 C   0  0  0  0  0  0  0  0  0  0  0  0
   -4.2469   15.5675  -34.0682 H   0  0  0  0  0  0  0  0  0  0  0  0
   -4.9970   17.4380  -34.8630 C   0  0  0  0  0  0  0  0  0  0  0  0
   -4.5115   17.3020  -35.8406 H   0  0  0  0  0  0  0  0  0  0  0  0
   -5.7630   18.5830  -34.6180 C   0  0  0  0  0  0  0  0  0  0  0  0
   -5.8709   19.3473  -35.4017 H   0  0  0  0  0  0  0  0  0  0  0  0
  1  2  1  0
  2  3  2  0
  3  4  1  0
  3  5  1  0
  5  6  1  0
  5  7  1  0
  5  8  1  0
  8  9  1  0
  9 10  1  0
  9 11  1  0
  9 12  1  0
 12 13  1  0
 12 14  1  0
 12 15  1  0
 15 16  1  0
 15 17  1  0
 17 18  2  0
 17 19  1  0
 19 20  2  0
 20 21  1  0
 20 22  1  0
 22 23  1  0
 22 24  2  0
 24 25  1  0
 25 26  1  0
 26 27  1  0
 26 28  1  0
 26 29  1  0
 24 30  1  0
 30 31  1  0
 30 32  2  0
 32 33  1  0
 15 34  1  0
 34 35  1  0
 34 36  1  0
 34 37  1  0
 37 38  1  0
 37 39  1  0
  2 40  1  0
 40 41  2  0
 41 42  1  0
 41 43  1  0
 43 44  1  0
 43 45  2  0
 45 46  1  0
 45 47  1  0
 47 48  1  0
 47 49  2  0
 49 50  1  0
 37  8  1  0
 49 40  1  0
 32 19  1  0
M  END
>  <UniqueID>  (34) 
30

>  <SMILES>  (34) 
COc1ccc(C(=O)C2CCN(C/C=C/c3ccccc3)CC2)cc1

>  <Energy>  (34) 
62.56517932579549

>  <Genealogy>  (34) 
COc1ccc(C(=O)C2CCN(C/C=C/c3ccccc3)CC2)cc1 (cis-trans isomerization)
COc1ccc(C(=O)C2CCN(C/C=C/c3ccccc3)CC2)cc1 (3D coordinates assigned)
COc1ccc(C(=O)C2CCN(C/C=C/c3ccccc3)CC2)cc1 (nonaromatic ring conformer: 62.56517932579549 kcal/mol)

>  <smiles>  (34) 
COc1ccc(C(=O)C2CCN(CC=Cc3ccccc3)CC2)cc1

>  <score_type>  (34) 
oracle

>  <origin>  (34) 
adg

>  <m_score__min__energy>  (34) 
-9.4299999999999997

>  <m_primary>  (34) 
energy

$$$$
34:0
     RDKit          3D

 33 36  0  0  0  0  0  0  0  0999 V2000
   -6.1070   17.8540  -34.5610 Cl  0  0  0  0  0  0  0  0  0  0  0  0
   -5.7780   19.3150  -33.6480 C   0  0  0  0  0  0  0  0  0  0  0  0
   -4.4640   19.7610  -33.4920 C   0  0  0  0  0  0  0  0  0  0  0  0
   -4.2010   20.9240  -32.7650 C   0  0  0  0  0  0  0  0  0  0  0  0
   -5.2500   21.6550  -32.1790 C   0  0  0  0  0  0  0  0  0  0  0  0
   -4.9450   22.8960  -31.4340 C   0  0  0  0  0  0  0  0  0  0  0  0
   -5.6130   24.0560  -31.7170 N   0  0  0  0  0  0  0  0  0  0  0  0
   -5.3540   25.2210  -31.0410 C   0  0  0  0  0  0  0  0  0  0  0  0
   -4.4070   25.2550  -30.0560 N   0  0  0  0  0  0  0  0  0  0  0  0
   -3.7240   24.1170  -29.7840 C   0  0  0  0  0  0  0  0  0  0  0  0
   -3.9760   22.9490  -30.4310 C   0  0  0  0  0  0  0  0  0  0  0  0
   -3.1740   22.0100  -29.8160 C   0  0  0  0  0  0  0  0  0  0  0  0
   -2.4720   22.6290  -28.8330 N   0  0  0  0  0  0  0  0  0  0  0  0
   -2.8060   23.9180  -28.8190 N   0  0  0  0  0  0  0  0  0  0  0  0
   -2.2720   24.8710  -27.8810 C   0  0  0  0  0  0  0  0  0  0  0  0
   -1.1960   25.7110  -28.2250 C   0  0  0  0  0  0  0  0  0  0  0  0
   -0.6870   26.6240  -27.2980 C   0  0  0  0  0  0  0  0  0  0  0  0
   -1.2370   26.7020  -26.0160 C   0  0  0  0  0  0  0  0  0  0  0  0
   -2.2940   25.8630  -25.6580 C   0  0  0  0  0  0  0  0  0  0  0  0
   -2.8070   24.9480  -26.5830 C   0  0  0  0  0  0  0  0  0  0  0  0
   -6.5770   21.2010  -32.3430 C   0  0  0  0  0  0  0  0  0  0  0  0
   -7.9440   22.0290  -31.6030 Cl  0  0  0  0  0  0  0  0  0  0  0  0
   -6.8310   20.0340  -33.0740 C   0  0  0  0  0  0  0  0  0  0  0  0
   -3.6349   19.1955  -33.9424 H   0  0  0  0  0  0  0  0  0  0  0  0
   -3.1638   21.2716  -32.6496 H   0  0  0  0  0  0  0  0  0  0  0  0
   -5.9124   26.1345  -31.2934 H   0  0  0  0  0  0  0  0  0  0  0  0
   -3.1138   20.9432  -30.0773 H   0  0  0  0  0  0  0  0  0  0  0  0
   -0.7532   25.6482  -29.2300 H   0  0  0  0  0  0  0  0  0  0  0  0
    0.1483   27.2827  -27.5780 H   0  0  0  0  0  0  0  0  0  0  0  0
   -0.8373   27.4242  -25.2889 H   0  0  0  0  0  0  0  0  0  0  0  0
   -2.7238   25.9217  -24.6472 H   0  0  0  0  0  0  0  0  0  0  0  0
   -3.6347   24.2840  -26.2931 H   0  0  0  0  0  0  0  0  0  0  0  0
   -7.8654   19.6807  -33.1975 H   0  0  0  0  0  0  0  0  0  0  0  0
  1  2  1  0
  2  3  2  0
  3  4  1  0
  4  5  2  0
  5  6  1  0
  6  7  2  0
  7  8  1  0
  8  9  2  0
  9 10  1  0
 10 11  2  0
 11 12  1  0
 12 13  2  0
 13 14  1  0
 14 15  1  0
 15 16  2  0
 16 17  1  0
 17 18  2  0
 18 19  1  0
 19 20  2  0
  5 21  1  0
 21 22  1  0
 21 23  2  0
 23  2  1  0
 11  6  1  0
 20 15  1  0
 14 10  1  0
  3 24  1  0
  4 25  1  0
  8 26  1  0
 12 27  1  0
 16 28  1  0
 17 29  1  0
 18 30  1  0
 19 31  1  0
 20 32  1  0
 23 33  1  0
M  END
>  <UniqueID>  (35) 
31

>  <SMILES>  (35) 
Clc1ccc(-c2ncnc3c2cnn3-c2ccccc2)c(Cl)c1

>  <Energy>  (35) 
91.24318391232079

>  <Genealogy>  (35) 
Clc1ccc(-c2ncnc3c2cnn3-c2ccccc2)c(Cl)c1 (3D coordinates assigned)
Clc1ccc(-c2ncnc3c2cnn3-c2ccccc2)c(Cl)c1 (optimized conformer: 91.24318391232079 kcal/mol)

>  <smiles>  (35) 
Clc1ccc(-c2ncnc3c2cnn3-c2ccccc2)c(Cl)c1

>  <score_type>  (35) 
oracle

>  <origin>  (35) 
adg

>  <m_score__min__energy>  (35) 
-8.4600000000000009

>  <m_primary>  (35) 
energy

$$$$
35:0
     RDKit          3D

 47 50  0  0  0  0  0  0  0  0999 V2000
   -1.9930   25.2240  -27.6850 C   0  0  0  0  0  0  0  0  0  0  0  0
   -2.6210   25.2990  -28.9610 O   0  0  0  0  0  0  0  0  0  0  0  0
   -3.2360   24.2150  -29.6070 C   0  0  0  0  0  0  0  0  0  0  0  0
   -2.8610   22.8800  -29.3610 C   0  0  0  0  0  0  0  0  0  0  0  0
   -3.5110   21.8310  -30.0200 C   0  0  0  0  0  0  0  0  0  0  0  0
   -4.5290   22.1020  -30.9470 C   0  0  0  0  0  0  0  0  0  0  0  0
   -4.8890   23.4360  -31.2050 C   0  0  0  0  0  0  0  0  0  0  0  0
   -4.2550   24.4820  -30.5280 C   0  0  0  0  0  0  0  0  0  0  0  0
   -6.1120   23.7890  -32.4720 S   0  0  0  0  0  0  0  0  0  0  0  0
   -7.2440   22.5190  -31.8960 C   0  0  0  0  0  0  0  0  0  0  0  0
   -8.6170   22.7800  -31.8240 C   0  0  0  0  0  0  0  0  0  0  0  0
   -9.5050   21.7560  -31.4870 C   0  0  0  0  0  0  0  0  0  0  0  0
   -9.0230   20.4710  -31.2180 C   0  0  0  0  0  0  0  0  0  0  0  0
   -7.6490   20.2110  -31.2640 C   0  0  0  0  0  0  0  0  0  0  0  0
   -6.7490   21.2360  -31.5980 C   0  0  0  0  0  0  0  0  0  0  0  0
   -5.3220   21.0340  -31.5050 N   0  0  0  0  0  0  0  0  0  0  0  0
   -4.6850   19.8610  -32.1190 C   0  0  0  0  0  0  0  0  0  0  0  0
   -3.2790   20.2010  -32.5290 C   0  0  0  0  0  0  0  0  0  0  0  0
   -3.0360   21.1960  -33.4880 C   0  0  0  0  0  0  0  0  0  0  0  0
   -1.7240   21.5450  -33.8210 C   0  0  0  0  0  0  0  0  0  0  0  0
   -0.6390   20.9150  -33.2000 C   0  0  0  0  0  0  0  0  0  0  0  0
    0.6880   21.3110  -33.5750 N   0  0  0  0  0  0  0  0  0  0  0  0
    1.1920   21.7950  -35.1630 S   0  0  0  0  0  0  0  0  0  0  0  0
    2.9460   21.5500  -35.3500 C   0  0  0  0  0  0  0  0  0  0  0  0
    0.4760   20.9470  -36.1760 O   0  0  0  0  0  0  0  0  0  0  0  0
    0.8360   23.2350  -35.3990 O   0  0  0  0  0  0  0  0  0  0  0  0
   -0.8830   19.9280  -32.2290 C   0  0  0  0  0  0  0  0  0  0  0  0
   -2.1950   19.5770  -31.8950 C   0  0  0  0  0  0  0  0  0  0  0  0
   -2.7540   25.3149  -26.8959 H   0  0  0  0  0  0  0  0  0  0  0  0
   -1.4765   24.2578  -27.5868 H   0  0  0  0  0  0  0  0  0  0  0  0
   -1.2635   26.0414  -27.5868 H   0  0  0  0  0  0  0  0  0  0  0  0
   -2.0531   22.6610  -28.6473 H   0  0  0  0  0  0  0  0  0  0  0  0
   -3.2231   20.7902  -29.8108 H   0  0  0  0  0  0  0  0  0  0  0  0
   -4.5591   25.5214  -30.7205 H   0  0  0  0  0  0  0  0  0  0  0  0
   -8.9966   23.7911  -32.0327 H   0  0  0  0  0  0  0  0  0  0  0  0
  -10.5845   21.9604  -31.4331 H   0  0  0  0  0  0  0  0  0  0  0  0
   -9.7261   19.6624  -30.9695 H   0  0  0  0  0  0  0  0  0  0  0  0
   -7.2731   19.2022  -31.0382 H   0  0  0  0  0  0  0  0  0  0  0  0
   -4.6640   19.0350  -31.3929 H   0  0  0  0  0  0  0  0  0  0  0  0
   -5.2594   19.5592  -33.0073 H   0  0  0  0  0  0  0  0  0  0  0  0
   -3.8800   21.7026  -33.9790 H   0  0  0  0  0  0  0  0  0  0  0  0
   -1.5424   22.3220  -34.5782 H   0  0  0  0  0  0  0  0  0  0  0  0
    3.4150   21.4845  -34.3571 H   0  0  0  0  0  0  0  0  0  0  0  0
    3.1290   20.6176  -35.9042 H   0  0  0  0  0  0  0  0  0  0  0  0
    3.3775   22.3966  -35.9042 H   0  0  0  0  0  0  0  0  0  0  0  0
   -0.0387   19.4299  -31.7300 H   0  0  0  0  0  0  0  0  0  0  0  0
   -2.3776   18.8072  -31.1308 H   0  0  0  0  0  0  0  0  0  0  0  0
  1  2  1  0
  2  3  1  0
  3  4  2  0
  4  5  1  0
  5  6  2  0
  6  7  1  0
  7  8  2  0
  7  9  1  0
  9 10  1  0
 10 11  2  0
 11 12  1  0
 12 13  2  0
 13 14  1  0
 14 15  2  0
 15 16  1  0
 16 17  1  0
 17 18  1  0
 18 19  2  0
 19 20  1  0
 20 21  2  0
 21 22  1  0
 22 23  1  0
 23 24  1  0
 23 25  2  0
 23 26  2  0
 21 27  1  0
 27 28  2  0
  8  3  1  0
 15 10  1  0
 28 18  1  0
 16  6  1  0
  1 29  1  0
  1 30  1  0
  1 31  1  0
  4 32  1  0
  5 33  1  0
  8 34  1  0
 11 35  1  0
 12 36  1  0
 13 37  1  0
 14 38  1  0
 17 39  1  0
 17 40  1  0
 19 41  1  0
 20 42  1  0
 24 43  1  0
 24 44  1  0
 24 45  1  0
 27 46  1  0
 28 47  1  0
M  CHG  1  22  -1
M  END
>  <UniqueID>  (36) 
32

>  <SMILES>  (36) 
COc1ccc2c(c1)Sc1ccccc1N2Cc1ccc([N-]S(C)(=O)=O)cc1

>  <Energy>  (36) 
65.99405115380493

>  <Genealogy>  (36) 
COc1ccc2c(c1)Sc1ccccc1N2Cc1ccc([N-]S(C)(=O)=O)cc1 (protonated)
COc1ccc2c(c1)Sc1ccccc1N2Cc1ccc([N-]S(C)(=O)=O)cc1 (3D coordinates assigned)
COc1ccc2c(c1)Sc1ccccc1N2Cc1ccc([N-]S(C)(=O)=O)cc1 (nonaromatic ring conformer: 65.99405115380493 kcal/mol)

>  <smiles>  (36) 
COc1ccc2c(c1)Sc1ccccc1N2Cc1ccc(NS(C)(=O)=O)cc1

>  <score_type>  (36) 
oracle

>  <origin>  (36) 
adg

>  <m_score__min__energy>  (36) 
-10.460000000000001

>  <m_primary>  (36) 
energy

$$$$
36:0
     RDKit          3D

 33 33  0  0  0  0  0  0  0  0999 V2000
  -10.1980   20.6752  -32.6198 H   0  0  0  0  0  0  0  0  0  0  0  0
   -9.1350   20.7170  -32.3400 C   0  0  0  0  0  0  0  0  0  0  0  0
   -8.5820   21.8810  -32.1580 N   0  0  0  0  0  0  0  0  0  0  0  0
   -7.3170   22.1510  -31.5330 C   0  0  0  0  0  0  0  0  0  0  0  0
   -7.2200   22.4230  -30.1640 C   0  0  0  0  0  0  0  0  0  0  0  0
   -8.1163   22.4126  -29.5264 H   0  0  0  0  0  0  0  0  0  0  0  0
   -5.9690   22.7070  -29.6230 C   0  0  0  0  0  0  0  0  0  0  0  0
   -5.8749   22.9147  -28.5469 H   0  0  0  0  0  0  0  0  0  0  0  0
   -4.8580   22.7300  -30.4160 N   0  0  0  0  0  0  0  0  0  0  0  0
   -3.5550   23.0570  -29.8140 C   0  0  0  0  0  0  0  0  0  0  0  0
   -2.7532   22.7938  -30.5196 H   0  0  0  0  0  0  0  0  0  0  0  0
   -3.4391   22.4860  -28.8810 H   0  0  0  0  0  0  0  0  0  0  0  0
   -3.4760   24.5530  -29.4950 C   0  0  0  0  0  0  0  0  0  0  0  0
   -2.4406   24.8139  -29.2307 H   0  0  0  0  0  0  0  0  0  0  0  0
   -4.1465   24.7760  -28.6520 H   0  0  0  0  0  0  0  0  0  0  0  0
   -3.8780   25.3150  -30.6190 O   0  0  0  0  0  0  0  0  0  0  0  0
   -5.2320   25.6930  -30.4980 C   0  0  0  0  0  0  0  0  0  0  0  0
   -5.4982   25.7673  -29.4333 H   0  0  0  0  0  0  0  0  0  0  0  0
   -5.3852   26.6683  -30.9832 H   0  0  0  0  0  0  0  0  0  0  0  0
   -5.8682   24.9381  -30.9832 H   0  0  0  0  0  0  0  0  0  0  0  0
   -4.9810   22.5080  -31.7640 C   0  0  0  0  0  0  0  0  0  0  0  0
   -3.9710   22.5630  -32.5180 O   0  0  0  0  0  0  0  0  0  0  0  0
   -6.2000   22.2290  -32.3040 N   0  0  0  0  0  0  0  0  0  0  0  0
   -6.2790   22.0600  -33.3340 H   0  0  0  0  0  0  0  0  0  0  0  0
   -8.4120   19.4840  -32.1900 N   0  0  0  0  0  0  0  0  0  0  0  0
   -7.2640   19.2060  -33.0550 C   0  0  0  0  0  0  0  0  0  0  0  0
   -6.3810   18.9922  -32.4349 H   0  0  0  0  0  0  0  0  0  0  0  0
   -7.4856   18.3356  -33.6900 H   0  0  0  0  0  0  0  0  0  0  0  0
   -7.0629   20.0814  -33.6900 H   0  0  0  0  0  0  0  0  0  0  0  0
   -9.1070   18.3510  -31.5860 C   0  0  0  0  0  0  0  0  0  0  0  0
   -9.0572   18.4322  -30.4901 H   0  0  0  0  0  0  0  0  0  0  0  0
  -10.1593   18.3532  -31.9064 H   0  0  0  0  0  0  0  0  0  0  0  0
   -8.6281   17.4140  -31.9064 H   0  0  0  0  0  0  0  0  0  0  0  0
  1  2  1  0
  2  3  2  0
  3  4  1  0
  4  5  1  0
  5  6  1  0
  5  7  2  0
  7  8  1  0
  7  9  1  0
  9 10  1  0
 10 11  1  0
 10 12  1  0
 10 13  1  0
 13 14  1  0
 13 15  1  0
 13 16  1  0
 16 17  1  0
 17 18  1  0
 17 19  1  0
 17 20  1  0
  9 21  1  0
 21 22  2  0
 21 23  1  0
 23 24  1  0
  2 25  1  0
 25 26  1  0
 26 27  1  0
 26 28  1  0
 26 29  1  0
 25 30  1  0
 30 31  1  0
 30 32  1  0
 30 33  1  0
 23  4  2  0
M  CHG  1  23   1
M  END
>  <UniqueID>  (37) 
33

>  <SMILES>  (37) 
COCCn1ccc(/N=C\N(C)C)[nH+]c1=O

>  <Energy>  (37) 
40.157225586104325

>  <Genealogy>  (37) 
COCCn1ccc(N=CN(C)C)[nH+]c1=O (protonated)
COCCn1ccc(/N=C\N(C)C)[nH+]c1=O (cis-trans isomerization)
COCCn1ccc(/N=C\N(C)C)[nH+]c1=O (3D coordinates assigned)
COCCn1ccc(/N=C\N(C)C)[nH+]c1=O (optimized conformer: 40.157225586104325 kcal/mol)

>  <smiles>  (37) 
COCCn1ccc(N=CN(C)C)nc1=O

>  <score_type>  (37) 
oracle

>  <origin>  (37) 
adg

>  <m_score__min__energy>  (37) 
-5.4800000000000004

>  <m_primary>  (37) 
energy

$$$$
37:0
     RDKit          3D

 39 40  0  0  0  0  0  0  0  0999 V2000
   -5.7340   25.6140  -30.4390 C   0  0  0  0  0  0  0  0  0  0  0  0
   -4.6200   24.9720  -31.0480 O   0  0  0  0  0  0  0  0  0  0  0  0
   -4.0160   23.7970  -30.5730 C   0  0  0  0  0  0  0  0  0  0  0  0
   -3.1360   23.8110  -29.4720 C   0  0  0  0  0  0  0  0  0  0  0  0
   -2.5110   22.6350  -29.0510 C   0  0  0  0  0  0  0  0  0  0  0  0
   -2.7500   21.4350  -29.7220 C   0  0  0  0  0  0  0  0  0  0  0  0
   -3.6250   21.4050  -30.8090 C   0  0  0  0  0  0  0  0  0  0  0  0
   -4.2820   22.5730  -31.2280 C   0  0  0  0  0  0  0  0  0  0  0  0
   -5.1770   22.5030  -32.3510 N   0  0  0  0  0  0  0  0  0  0  0  0
   -6.5420   22.0540  -32.2610 C   0  0  0  0  0  0  0  0  0  0  0  0
   -7.4880   22.8290  -31.5660 C   0  0  0  0  0  0  0  0  0  0  0  0
   -8.8010   22.3790  -31.4140 C   0  0  0  0  0  0  0  0  0  0  0  0
   -9.1820   21.1490  -31.9450 C   0  0  0  0  0  0  0  0  0  0  0  0
   -8.2550   20.3630  -32.6310 C   0  0  0  0  0  0  0  0  0  0  0  0
   -6.9280   20.8010  -32.7970 C   0  0  0  0  0  0  0  0  0  0  0  0
   -5.9750   19.9710  -33.5770 C   0  0  0  0  0  0  0  0  0  0  0  0
   -4.8170   20.4210  -33.8080 O   0  0  0  0  0  0  0  0  0  0  0  0
   -6.3590   18.6730  -34.0900 N   0  0  0  0  0  0  0  0  0  0  0  0
   -5.2980   18.1390  -34.9590 C   0  0  0  0  0  0  0  0  0  0  0  0
   -6.6350   17.7490  -32.9790 C   0  0  0  0  0  0  0  0  0  0  0  0
   -5.6365   25.5578  -29.3448 H   0  0  0  0  0  0  0  0  0  0  0  0
   -5.7650   26.6685  -30.7507 H   0  0  0  0  0  0  0  0  0  0  0  0
   -6.6619   25.1121  -30.7507 H   0  0  0  0  0  0  0  0  0  0  0  0
   -2.9402   24.7542  -28.9409 H   0  0  0  0  0  0  0  0  0  0  0  0
   -1.8287   22.6548  -28.1884 H   0  0  0  0  0  0  0  0  0  0  0  0
   -2.2486   20.5124  -29.3941 H   0  0  0  0  0  0  0  0  0  0  0  0
   -3.8013   20.4588  -31.3416 H   0  0  0  0  0  0  0  0  0  0  0  0
   -4.7810   22.6770  -33.3030 H   0  0  0  0  0  0  0  0  0  0  0  0
   -7.1908   23.7980  -31.1385 H   0  0  0  0  0  0  0  0  0  0  0  0
   -9.5347   22.9961  -30.8747 H   0  0  0  0  0  0  0  0  0  0  0  0
  -10.2167   20.7960  -31.8233 H   0  0  0  0  0  0  0  0  0  0  0  0
   -8.5644   19.3923  -33.0457 H   0  0  0  0  0  0  0  0  0  0  0  0
   -7.2380   18.7530  -34.6520 H   0  0  0  0  0  0  0  0  0  0  0  0
   -4.4867   17.7307  -34.3385 H   0  0  0  0  0  0  0  0  0  0  0  0
   -5.7109   17.3413  -35.5940 H   0  0  0  0  0  0  0  0  0  0  0  0
   -4.9034   18.9459  -35.5940 H   0  0  0  0  0  0  0  0  0  0  0  0
   -6.4796   18.2691  -32.0223 H   0  0  0  0  0  0  0  0  0  0  0  0
   -7.6764   17.4005  -33.0420 H   0  0  0  0  0  0  0  0  0  0  0  0
   -5.9553   16.8864  -33.0420 H   0  0  0  0  0  0  0  0  0  0  0  0
  1  2  1  0
  2  3  1  0
  3  4  2  0
  4  5  1  0
  5  6  2  0
  6  7  1  0
  7  8  2  0
  8  9  1  0
  9 10  1  0
 10 11  2  0
 11 12  1  0
 12 13  2  0
 13 14  1  0
 14 15  2  0
 15 16  1  0
 16 17  2  0
 16 18  1  0
 18 19  1  0
 18 20  1  0
  8  3  1  0
 15 10  1  0
  1 21  1  0
  1 22  1  0
  1 23  1  0
  4 24  1  0
  5 25  1  0
  6 26  1  0
  7 27  1  0
  9 28  1  0
 11 29  1  0
 12 30  1  0
 13 31  1  0
 14 32  1  0
 18 33  1  0
 19 34  1  0
 19 35  1  0
 19 36  1  0
 20 37  1  0
 20 38  1  0
 20 39  1  0
M  CHG  1  18   1
M  END
>  <UniqueID>  (38) 
34

>  <SMILES>  (38) 
COc1ccccc1Nc1ccccc1C(=O)[NH+](C)C

>  <Energy>  (38) 
50.53208077806035

>  <Genealogy>  (38) 
COc1ccccc1Nc1ccccc1C(=O)[NH+](C)C (protonated)
COc1ccccc1Nc1ccccc1C(=O)[NH+](C)C (3D coordinates assigned)
COc1ccccc1Nc1ccccc1C(=O)[NH+](C)C (optimized conformer: 50.53208077806035 kcal/mol)

>  <smiles>  (38) 
COc1ccccc1Nc1ccccc1C(=O)N(C)C

>  <score_type>  (38) 
oracle

>  <origin>  (38) 
adg

>  <m_score__min__energy>  (38) 
-7.2400000000000002

>  <m_primary>  (38) 
energy

$$$$
38:0
     RDKit          3D

 51 54  0  0  1  0  0  0  0  0999 V2000
   -2.2720   21.3950  -32.4990 C   0  0  0  0  0  0  0  0  0  0  0  0
   -2.9260   22.5670  -32.0750 O   0  0  0  0  0  0  0  0  0  0  0  0
   -4.2380   22.6110  -31.6210 C   0  0  0  0  0  0  0  0  0  0  0  0
   -5.1420   21.6270  -31.9410 C   0  0  0  0  0  0  0  0  0  0  0  0
   -6.4610   21.6510  -31.4960 C   0  0  0  0  0  0  0  0  0  0  0  0
   -7.3880   20.6130  -31.8430 N   0  0  0  0  0  0  0  0  0  0  0  0
   -6.8690   19.2880  -31.9870 C   0  0  0  0  0  0  0  0  0  0  0  0
   -7.9170   18.2340  -32.1390 C   0  0  0  0  0  0  0  0  0  0  0  0
   -9.2020   18.7000  -31.8230 O   0  0  0  0  0  0  0  0  0  0  0  0
   -9.5270   19.8240  -32.5840 C   0  0  0  0  0  0  0  0  0  0  0  0
   -8.7760   20.9850  -32.0210 C   0  0  0  0  0  0  0  0  0  0  0  0
   -6.8130   22.7260  -30.7100 C   0  0  0  0  0  0  0  0  0  0  0  0
   -2.6080   20.7990  -27.5490 C   0  0  0  0  0  0  0  0  0  0  0  0
   -1.3010   20.7220  -28.0050 C   0  0  0  0  0  0  0  0  0  0  0  0
   -0.6690   21.7800  -28.7160 N   0  0  0  0  0  0  0  0  0  0  0  0
   -1.1500   22.9560  -28.7650 C   0  0  0  0  0  0  0  0  0  0  0  0
   -2.2320   25.4470  -28.9260 N   0  0  0  0  0  0  0  0  0  0  0  0
   -1.1980   25.2380  -28.0620 C   0  0  0  0  0  0  0  0  0  0  0  0
   -0.6450   23.9720  -27.9770 C   0  0  0  0  0  0  0  0  0  0  0  0
    0.3930   23.6990  -27.1310 F   0  0  0  0  0  0  0  0  0  0  0  0
   -2.7180   24.4660  -29.6850 C   0  0  0  0  0  0  0  0  0  0  0  0
   -3.6950   24.7110  -30.4840 N   0  0  0  0  0  0  0  0  0  0  0  0
   -4.6200   23.6750  -30.8310 C   0  0  0  0  0  0  0  0  0  0  0  0
   -0.5430   19.5840  -27.7810 C   0  0  0  0  0  0  0  0  0  0  0  0
   -3.1370   19.7210  -26.8680 C   0  0  0  0  0  0  0  0  0  0  0  0
   -2.4040   18.5720  -26.6290 C   0  0  0  0  0  0  0  0  0  0  0  0
   -1.1030   18.5400  -27.1030 C   0  0  0  0  0  0  0  0  0  0  0  0
   -5.9340   23.7350  -30.3650 C   0  0  0  0  0  0  0  0  0  0  0  0
   -2.1760   23.2170  -29.6040 N   0  0  0  0  0  0  0  0  0  0  0  0
   -1.9494   20.8169  -31.6205 H   0  0  0  0  0  0  0  0  0  0  0  0
   -2.9620   20.7884  -33.1039 H   0  0  0  0  0  0  0  0  0  0  0  0
   -1.3934   21.6637  -33.1039 H   0  0  0  0  0  0  0  0  0  0  0  0
   -4.8113   20.7891  -32.5723 H   0  0  0  0  0  0  0  0  0  0  0  0
   -6.2243   19.2648  -32.8780 H   0  0  0  0  0  0  0  0  0  0  0  0
   -6.3225   19.0596  -31.0601 H   0  0  0  0  0  0  0  0  0  0  0  0
   -7.9159   17.8842  -33.1819 H   0  0  0  0  0  0  0  0  0  0  0  0
   -7.6759   17.4215  -31.4377 H   0  0  0  0  0  0  0  0  0  0  0  0
   -9.2371   19.6631  -33.6328 H   0  0  0  0  0  0  0  0  0  0  0  0
  -10.6102   20.0125  -32.5502 H   0  0  0  0  0  0  0  0  0  0  0  0
   -8.8426   21.8370  -32.7135 H   0  0  0  0  0  0  0  0  0  0  0  0
   -9.2095   21.2703  -31.0511 H   0  0  0  0  0  0  0  0  0  0  0  0
   -7.8465   22.7843  -30.3379 H   0  0  0  0  0  0  0  0  0  0  0  0
   -3.2116   21.7013  -27.7264 H   0  0  0  0  0  0  0  0  0  0  0  0
   -2.6330   26.4270  -28.9650 H   0  0  0  0  0  0  0  0  0  0  0  0
   -0.8102   26.0609  -27.4436 H   0  0  0  0  0  0  0  0  0  0  0  0
    0.4936   19.5228  -28.1438 H   0  0  0  0  0  0  0  0  0  0  0  0
   -4.1735   19.7772  -26.5040 H   0  0  0  0  0  0  0  0  0  0  0  0
   -2.8366   17.7193  -26.0851 H   0  0  0  0  0  0  0  0  0  0  0  0
   -0.4978   17.6386  -26.9263 H   0  0  0  0  0  0  0  0  0  0  0  0
   -6.2649   24.5723  -29.7330 H   0  0  0  0  0  0  0  0  0  0  0  0
   -2.5600   22.4570  -30.1990 H   0  0  0  0  0  0  0  0  0  0  0  0
  1  2  1  0
  2  3  1  0
  3  4  2  0
  4  5  1  0
  5  6  1  0
  6  7  1  0
  7  8  1  0
  8  9  1  0
  9 10  1  0
 10 11  1  0
  5 12  2  0
 12 13  1  0
 13 14  2  0
 14 15  1  0
 15 16  2  0
 16 17  1  0
 17 18  1  0
 18 19  2  0
 19 20  1  0
 19 21  1  0
 21 22  2  0
 22 23  1  0
 23 24  2  0
 24 25  1  0
 25 26  2  0
 26 27  1  0
 27 28  2  0
 21 29  1  0
 14  3  1  0
 29 16  1  0
 11  6  1  0
 28 23  1  0
  1 30  1  0
  1 31  1  0
  1 32  1  0
  4 33  1  0
  7 34  1  0
  7 35  1  0
  8 36  1  0
  8 37  1  0
 10 38  1  0
 10 39  1  0
 11 40  1  0
 11 41  1  0
 12 42  1  0
 13 43  1  0
 17 44  1  0
 18 45  1  0
 24 46  1  0
 25 47  1  0
 26 48  1  0
 27 49  1  0
 28 50  1  0
 29 51  1  0
M  END
>  <smiles>  (39) 
COc1cc(N2CCOCC2)ccc1N=c1[nH]cc(F)c(=Nc2ccccc2)[nH]1

>  <score_type>  (39) 
oracle

>  <origin>  (39) 
adg

>  <m_score__min__energy>  (39) 
-8.8699999999999992

>  <m_primary>  (39) 
energy

$$$$
39:0
     RDKit          3D

 40 42  0  0  0  0  0  0  0  0999 V2000
   -1.9180   20.4210  -30.0320 C   0  0  0  0  0  0  0  0  0  0  0  0
   -2.8640   21.1230  -30.9660 C   0  0  0  0  0  0  0  0  0  0  0  0
   -3.3650   22.3900  -30.6230 C   0  0  0  0  0  0  0  0  0  0  0  0
   -4.2420   23.0750  -31.4760 C   0  0  0  0  0  0  0  0  0  0  0  0
   -4.7110   24.3940  -31.1360 N   0  0  0  0  0  0  0  0  0  0  0  0
   -5.8530   24.7730  -31.4660 O   0  0  0  0  0  0  0  0  0  0  0  0
   -3.8700   25.2950  -30.5160 O   0  0  0  0  0  0  0  0  0  0  0  0
   -4.6590   22.4510  -32.6650 C   0  0  0  0  0  0  0  0  0  0  0  0
   -4.1990   21.1770  -32.9960 C   0  0  0  0  0  0  0  0  0  0  0  0
   -3.2800   20.5220  -32.1790 C   0  0  0  0  0  0  0  0  0  0  0  0
   -2.7090   18.8780  -32.6410 S   0  0  0  0  0  0  0  0  0  0  0  0
   -4.1390   18.4930  -33.6670 C   0  0  0  0  0  0  0  0  0  0  0  0
   -4.0540   18.1380  -34.9650 N   0  0  0  0  0  0  0  0  0  0  0  0
   -5.3050   17.7840  -35.3210 C   0  0  0  0  0  0  0  0  0  0  0  0
   -6.1260   17.9050  -34.2170 C   0  0  0  0  0  0  0  0  0  0  0  0
   -5.4010   18.3810  -33.1840 N   0  0  0  0  0  0  0  0  0  0  0  0
   -5.8290   18.4870  -31.7850 C   0  0  0  0  0  0  0  0  0  0  0  0
   -7.6250   18.1460  -31.5880 S   0  0  0  0  0  0  0  0  0  0  0  0
   -8.1170   19.8780  -31.6100 C   0  0  0  0  0  0  0  0  0  0  0  0
   -7.2070   20.8800  -31.2600 C   0  0  0  0  0  0  0  0  0  0  0  0
   -7.6040   22.2270  -31.2770 C   0  0  0  0  0  0  0  0  0  0  0  0
   -8.9000   22.5750  -31.6650 C   0  0  0  0  0  0  0  0  0  0  0  0
   -9.8040   21.5820  -32.0370 C   0  0  0  0  0  0  0  0  0  0  0  0
   -9.4130   20.2330  -32.0100 C   0  0  0  0  0  0  0  0  0  0  0  0
   -2.2047   20.6337  -28.9915 H   0  0  0  0  0  0  0  0  0  0  0  0
   -1.9638   19.3365  -30.2105 H   0  0  0  0  0  0  0  0  0  0  0  0
   -0.8933   20.7791  -30.2105 H   0  0  0  0  0  0  0  0  0  0  0  0
   -3.0647   22.8516  -29.6708 H   0  0  0  0  0  0  0  0  0  0  0  0
   -5.3540   22.9723  -33.3398 H   0  0  0  0  0  0  0  0  0  0  0  0
   -4.5646   20.6852  -33.9095 H   0  0  0  0  0  0  0  0  0  0  0  0
   -3.1980   18.1220  -35.5680 H   0  0  0  0  0  0  0  0  0  0  0  0
   -5.6191   17.4542  -36.3223 H   0  0  0  0  0  0  0  0  0  0  0  0
   -7.1965   17.6541  -34.1853 H   0  0  0  0  0  0  0  0  0  0  0  0
   -5.2615   17.7614  -31.1838 H   0  0  0  0  0  0  0  0  0  0  0  0
   -5.6392   19.5168  -31.4482 H   0  0  0  0  0  0  0  0  0  0  0  0
   -6.1797   20.6132  -30.9712 H   0  0  0  0  0  0  0  0  0  0  0  0
   -6.8911   23.0116  -30.9834 H   0  0  0  0  0  0  0  0  0  0  0  0
   -9.2065   23.6314  -31.6769 H   0  0  0  0  0  0  0  0  0  0  0  0
  -10.8224   21.8541  -32.3514 H   0  0  0  0  0  0  0  0  0  0  0  0
  -10.1279   19.4506  -32.3044 H   0  0  0  0  0  0  0  0  0  0  0  0
  1  2  1  0
  2  3  2  0
  3  4  1  0
  4  5  1  0
  5  6  2  0
  5  7  1  0
  4  8  2  0
  8  9  1  0
  9 10  2  0
 10 11  1  0
 11 12  1  0
 12 13  2  0
 13 14  1  0
 14 15  2  0
 15 16  1  0
 16 17  1  0
 17 18  1  0
 18 19  1  0
 19 20  2  0
 20 21  1  0
 21 22  2  0
 22 23  1  0
 23 24  2  0
 10  2  1  0
 16 12  1  0
 24 19  1  0
  1 25  1  0
  1 26  1  0
  1 27  1  0
  3 28  1  0
  8 29  1  0
  9 30  1  0
 13 31  1  0
 14 32  1  0
 15 33  1  0
 17 34  1  0
 17 35  1  0
 20 36  1  0
 21 37  1  0
 22 38  1  0
 23 39  1  0
 24 40  1  0
M  CHG  3   5   1   7  -1  13   1
M  END
>  <UniqueID>  (40) 
35

>  <SMILES>  (40) 
Cc1cc([N+](=O)[O-])ccc1Sc1[nH+]ccn1CSc1ccccc1

>  <Energy>  (40) 
68.55630187951171

>  <Genealogy>  (40) 
Cc1cc([N+](=O)[O-])ccc1Sc1[nH+]ccn1CSc1ccccc1 (protonated)
Cc1cc([N+](=O)[O-])ccc1Sc1[nH+]ccn1CSc1ccccc1 (3D coordinates assigned)
Cc1cc([N+](=O)[O-])ccc1Sc1[nH+]ccn1CSc1ccccc1 (optimized conformer: 68.55630187951171 kcal/mol)

>  <smiles>  (40) 
Cc1cc([N+](=O)[O-])ccc1Sc1nccn1CSc1ccccc1

>  <score_type>  (40) 
oracle

>  <origin>  (40) 
adg

>  <m_score__min__energy>  (40) 
-8.2400000000000002

>  <m_primary>  (40) 
energy

$$$$
40:0
     RDKit          3D

 41 43  0  0  0  0  0  0  0  0999 V2000
   -9.4310   21.6430  -31.7620 C   0  0  0  0  0  0  0  0  0  0  0  0
   -7.9410   21.6810  -31.7830 C   0  0  0  0  0  0  0  0  0  0  0  0
   -7.1910   20.9440  -32.6280 N   0  0  0  0  0  0  0  0  0  0  0  0
   -5.9250   21.2590  -32.2830 C   0  0  0  0  0  0  0  0  0  0  0  0
   -4.7460   20.6080  -32.8890 C   0  0  0  0  0  0  0  0  0  0  0  0
   -4.7760   19.2520  -33.2560 C   0  0  0  0  0  0  0  0  0  0  0  0
   -3.6570   18.6520  -33.8420 C   0  0  0  0  0  0  0  0  0  0  0  0
   -2.4930   19.4050  -34.0850 C   0  0  0  0  0  0  0  0  0  0  0  0
   -1.3430   18.8510  -34.6680 O   0  0  0  0  0  0  0  0  0  0  0  0
   -0.1030   19.5360  -34.8250 C   0  0  0  0  0  0  0  0  0  0  0  0
    0.3300   20.0140  -33.6020 F   0  0  0  0  0  0  0  0  0  0  0  0
   -0.2820   20.6000  -35.6870 F   0  0  0  0  0  0  0  0  0  0  0  0
   -2.4760   20.7630  -33.7410 C   0  0  0  0  0  0  0  0  0  0  0  0
   -3.5940   21.3620  -33.1550 C   0  0  0  0  0  0  0  0  0  0  0  0
   -5.9620   22.1850  -31.2480 C   0  0  0  0  0  0  0  0  0  0  0  0
   -4.8400   22.8670  -30.5700 C   0  0  0  0  0  0  0  0  0  0  0  0
   -3.8130   22.1040  -29.9930 C   0  0  0  0  0  0  0  0  0  0  0  0
   -2.7490   22.7320  -29.3380 C   0  0  0  0  0  0  0  0  0  0  0  0
   -2.7100   24.1290  -29.2350 C   0  0  0  0  0  0  0  0  0  0  0  0
   -1.3590   24.9230  -28.4340 S   0  0  0  0  0  0  0  0  0  0  0  0
   -1.6290   24.9140  -26.6760 C   0  0  0  0  0  0  0  0  0  0  0  0
   -0.0830   24.1950  -28.7510 O   0  0  0  0  0  0  0  0  0  0  0  0
   -1.2380   26.3400  -28.9170 O   0  0  0  0  0  0  0  0  0  0  0  0
   -3.7430   24.8920  -29.7940 C   0  0  0  0  0  0  0  0  0  0  0  0
   -4.8070   24.2650  -30.4480 C   0  0  0  0  0  0  0  0  0  0  0  0
   -7.2200   22.4070  -30.9580 O   0  0  0  0  0  0  0  0  0  0  0  0
   -9.7829   21.6340  -30.7198 H   0  0  0  0  0  0  0  0  0  0  0  0
   -9.8277   22.5313  -32.2753 H   0  0  0  0  0  0  0  0  0  0  0  0
   -9.7819   20.7356  -32.2753 H   0  0  0  0  0  0  0  0  0  0  0  0
   -5.6856   18.6586  -33.0812 H   0  0  0  0  0  0  0  0  0  0  0  0
   -3.6866   17.5866  -34.1143 H   0  0  0  0  0  0  0  0  0  0  0  0
    0.6474   18.8412  -35.2301 H   0  0  0  0  0  0  0  0  0  0  0  0
   -1.5745   21.3630  -33.9340 H   0  0  0  0  0  0  0  0  0  0  0  0
   -3.5704   22.4319  -32.9007 H   0  0  0  0  0  0  0  0  0  0  0  0
   -3.8452   21.0063  -30.0563 H   0  0  0  0  0  0  0  0  0  0  0  0
   -1.9400   22.1274  -28.9022 H   0  0  0  0  0  0  0  0  0  0  0  0
   -0.6602   24.9463  -26.1561 H   0  0  0  0  0  0  0  0  0  0  0  0
   -2.2268   25.7927  -26.3923 H   0  0  0  0  0  0  0  0  0  0  0  0
   -2.1670   23.9974  -26.3923 H   0  0  0  0  0  0  0  0  0  0  0  0
   -3.7167   25.9891  -29.7179 H   0  0  0  0  0  0  0  0  0  0  0  0
   -5.6231   24.8703  -30.8695 H   0  0  0  0  0  0  0  0  0  0  0  0
  1  2  1  0
  2  3  2  0
  3  4  1  0
  4  5  1  0
  5  6  2  0
  6  7  1  0
  7  8  2  0
  8  9  1  0
  9 10  1  0
 10 11  1  0
 10 12  1  0
  8 13  1  0
 13 14  2  0
  4 15  2  0
 15 16  1  0
 16 17  2  0
 17 18  1  0
 18 19  2  0
 19 20  1  0
 20 21  1  0
 20 22  2  0
 20 23  2  0
 19 24  1  0
 24 25  2  0
 15 26  1  0
 26  2  1  0
 14  5  1  0
 25 16  1  0
  1 27  1  0
  1 28  1  0
  1 29  1  0
  6 30  1  0
  7 31  1  0
 10 32  1  0
 13 33  1  0
 14 34  1  0
 17 35  1  0
 18 36  1  0
 21 37  1  0
 21 38  1  0
 21 39  1  0
 24 40  1  0
 25 41  1  0
M  END
>  <UniqueID>  (41) 
36

>  <SMILES>  (41) 
Cc1nc(-c2ccc(OC(F)F)cc2)c(-c2ccc(S(C)(=O)=O)cc2)o1

>  <Energy>  (41) 
75.78238337851259

>  <Genealogy>  (41) 
Cc1nc(-c2ccc(OC(F)F)cc2)c(-c2ccc(S(C)(=O)=O)cc2)o1 (3D coordinates assigned)
Cc1nc(-c2ccc(OC(F)F)cc2)c(-c2ccc(S(C)(=O)=O)cc2)o1 (optimized conformer: 75.78238337851259 kcal/mol)

>  <smiles>  (41) 
Cc1nc(-c2ccc(OC(F)F)cc2)c(-c2ccc(S(C)(=O)=O)cc2)o1

>  <score_type>  (41) 
oracle

>  <origin>  (41) 
adg

>  <m_score__min__energy>  (41) 
-7.46

>  <m_primary>  (41) 
energy

$$$$
41:0
     RDKit          3D

 53 56  0  0  0  0  0  0  0  0999 V2000
   -6.0800   17.0230  -31.2050 C   0  0  0  0  0  0  0  0  0  0  0  0
   -6.0800   17.8370  -32.4630 C   0  0  0  0  0  0  0  0  0  0  0  0
   -5.2860   17.5110  -33.5740 C   0  0  0  0  0  0  0  0  0  0  0  0
   -5.3740   18.4280  -34.6130 C   0  0  0  0  0  0  0  0  0  0  0  0
   -6.4230   19.6530  -34.1470 S   0  0  0  0  0  0  0  0  0  0  0  0
   -6.7920   19.0250  -32.6310 C   0  0  0  0  0  0  0  0  0  0  0  0
   -7.6550   19.7130  -31.6150 C   0  0  0  0  0  0  0  0  0  0  0  0
   -7.6290   21.1580  -31.8300 N   0  0  0  0  0  0  0  0  0  0  0  0
   -8.7930   22.0070  -31.9620 C   0  0  0  0  0  0  0  0  0  0  0  0
   -8.2270   23.4100  -32.2600 C   0  0  0  0  0  0  0  0  0  0  0  0
   -6.7640   23.3730  -32.0180 N   0  0  1  0  0  0  0  0  0  0  0  0
   -6.3370   24.1560  -30.8320 C   0  0  0  0  0  0  0  0  0  0  0  0
   -5.4620   25.3870  -31.1630 C   0  0  0  0  0  0  0  0  0  0  0  0
   -4.1740   25.2580  -30.5610 O   0  0  0  0  0  0  0  0  0  0  0  0
   -3.6950   24.1210  -29.8910 C   0  0  0  0  0  0  0  0  0  0  0  0
   -3.8160   23.9470  -28.4990 C   0  0  0  0  0  0  0  0  0  0  0  0
   -3.3220   22.7910  -27.8860 C   0  0  0  0  0  0  0  0  0  0  0  0
   -2.7040   21.7830  -28.6490 C   0  0  0  0  0  0  0  0  0  0  0  0
   -2.1860   20.5520  -28.0010 C   0  0  0  0  0  0  0  0  0  0  0  0
   -0.9070   20.0570  -28.3220 C   0  0  0  0  0  0  0  0  0  0  0  0
   -0.4270   18.8910  -27.7180 C   0  0  0  0  0  0  0  0  0  0  0  0
   -1.2140   18.2090  -26.7860 C   0  0  0  0  0  0  0  0  0  0  0  0
   -2.4830   18.6910  -26.4550 C   0  0  0  0  0  0  0  0  0  0  0  0
   -2.9680   19.8550  -27.0590 C   0  0  0  0  0  0  0  0  0  0  0  0
   -2.5910   21.9610  -30.0390 C   0  0  0  0  0  0  0  0  0  0  0  0
   -3.0810   23.1200  -30.6500 C   0  0  0  0  0  0  0  0  0  0  0  0
   -6.4830   21.9810  -31.8700 C   0  0  0  0  0  0  0  0  0  0  0  0
   -5.3090   21.5250  -31.8060 O   0  0  0  0  0  0  0  0  0  0  0  0
   -5.0429   16.8238  -30.8972 H   0  0  0  0  0  0  0  0  0  0  0  0
   -6.5985   17.5779  -30.4092 H   0  0  0  0  0  0  0  0  0  0  0  0
   -6.5985   16.0698  -31.3851 H   0  0  0  0  0  0  0  0  0  0  0  0
   -4.6529   16.6125  -33.6174 H   0  0  0  0  0  0  0  0  0  0  0  0
   -4.8468   18.3629  -35.5762 H   0  0  0  0  0  0  0  0  0  0  0  0
   -8.6889   19.3496  -31.7099 H   0  0  0  0  0  0  0  0  0  0  0  0
   -7.2715   19.4919  -30.6080 H   0  0  0  0  0  0  0  0  0  0  0  0
   -9.4313   21.6632  -32.7892 H   0  0  0  0  0  0  0  0  0  0  0  0
   -9.4191   21.9959  -31.0577 H   0  0  0  0  0  0  0  0  0  0  0  0
   -8.4257   23.6781  -33.3082 H   0  0  0  0  0  0  0  0  0  0  0  0
   -8.7034   24.1606  -31.6122 H   0  0  0  0  0  0  0  0  0  0  0  0
   -6.2570   23.7290  -32.8630 H   0  0  0  0  0  0  0  0  0  0  0  0
   -7.2384   24.5053  -30.3072 H   0  0  0  0  0  0  0  0  0  0  0  0
   -5.7176   23.4853  -30.2184 H   0  0  0  0  0  0  0  0  0  0  0  0
   -5.3459   25.4665  -32.2540 H   0  0  0  0  0  0  0  0  0  0  0  0
   -5.9517   26.2895  -30.7684 H   0  0  0  0  0  0  0  0  0  0  0  0
   -4.3015   24.7242  -27.8906 H   0  0  0  0  0  0  0  0  0  0  0  0
   -3.4175   22.6686  -26.7970 H   0  0  0  0  0  0  0  0  0  0  0  0
   -0.2818   20.5912  -29.0526 H   0  0  0  0  0  0  0  0  0  0  0  0
    0.5718   18.5098  -27.9768 H   0  0  0  0  0  0  0  0  0  0  0  0
   -0.8340   17.2917  -26.3125 H   0  0  0  0  0  0  0  0  0  0  0  0
   -3.1004   18.1548  -25.7193 H   0  0  0  0  0  0  0  0  0  0  0  0
   -3.9684   20.2296  -26.7965 H   0  0  0  0  0  0  0  0  0  0  0  0
   -2.1131   21.1821  -30.6514 H   0  0  0  0  0  0  0  0  0  0  0  0
   -2.9823   23.2452  -31.7384 H   0  0  0  0  0  0  0  0  0  0  0  0
  1  2  1  0
  2  3  1  0
  3  4  2  0
  4  5  1  0
  5  6  1  0
  6  7  1  0
  7  8  1  0
  8  9  1  0
  9 10  1  0
 10 11  1  0
 11 12  1  0
 12 13  1  0
 13 14  1  0
 14 15  1  0
 15 16  2  0
 16 17  1  0
 17 18  2  0
 18 19  1  0
 19 20  2  0
 20 21  1  0
 21 22  2  0
 22 23  1  0
 23 24  2  0
 18 25  1  0
 25 26  2  0
 11 27  1  0
 27 28  2  0
  6  2  2  0
 27  8  1  0
 26 15  1  0
 24 19  1  0
  1 29  1  0
  1 30  1  0
  1 31  1  0
  3 32  1  0
  4 33  1  0
  7 34  1  0
  7 35  1  0
  9 36  1  0
  9 37  1  0
 10 38  1  0
 10 39  1  0
 11 40  1  6
 12 41  1  0
 12 42  1  0
 13 43  1  0
 13 44  1  0
 16 45  1  0
 17 46  1  0
 20 47  1  0
 21 48  1  0
 22 49  1  0
 23 50  1  0
 24 51  1  0
 25 52  1  0
 26 53  1  0
M  CHG  1  11   1
M  END
>  <UniqueID>  (42) 
37

>  <SMILES>  (42) 
Cc1ccsc1CN1CC[N@@H+](CCOc2ccc(-c3ccccc3)cc2)C1=O

>  <Energy>  (42) 
95.24165514298599

>  <Genealogy>  (42) 
Cc1ccsc1CN1CC[NH+](CCOc2ccc(-c3ccccc3)cc2)C1=O (protonated)
Cc1ccsc1CN1CC[N@@H+](CCOc2ccc(-c3ccccc3)cc2)C1=O (chirality)
Cc1ccsc1CN1CC[N@@H+](CCOc2ccc(-c3ccccc3)cc2)C1=O (3D coordinates assigned)
Cc1ccsc1CN1CC[N@@H+](CCOc2ccc(-c3ccccc3)cc2)C1=O (nonaromatic ring conformer: 95.24165514298599 kcal/mol)

>  <smiles>  (42) 
Cc1ccsc1CN1CCN(CCOc2ccc(-c3ccccc3)cc2)C1=O

>  <score_type>  (42) 
oracle

>  <origin>  (42) 
adg

>  <m_score__min__energy>  (42) 
-8.8900000000000006

>  <m_primary>  (42) 
energy

$$$$
42:0
     RDKit          3D

 42 45  0  0  0  0  0  0  0  0999 V2000
   -5.5910   16.2880  -32.4210 O   0  0  0  0  0  0  0  0  0  0  0  0
   -5.1590   16.6520  -33.5480 C   0  0  0  0  0  0  0  0  0  0  0  0
   -5.5810   17.9030  -34.1150 N   0  0  0  0  0  0  0  0  0  0  0  0
   -6.1870   18.9630  -33.3530 C   0  0  0  0  0  0  0  0  0  0  0  0
   -7.5480   18.8820  -33.0240 C   0  0  0  0  0  0  0  0  0  0  0  0
   -8.1650   19.9100  -32.3040 C   0  0  0  0  0  0  0  0  0  0  0  0
   -7.4310   21.0360  -31.9120 C   0  0  0  0  0  0  0  0  0  0  0  0
   -8.2130   22.3370  -31.0230 S   0  0  0  0  0  0  0  0  0  0  0  0
   -8.5890   23.4380  -31.9760 O   0  0  0  0  0  0  0  0  0  0  0  0
   -9.4530   21.8110  -30.3560 O   0  0  0  0  0  0  0  0  0  0  0  0
   -7.1050   22.9390  -29.8280 N   0  0  0  0  0  0  0  0  0  0  0  0
   -6.0840   23.7200  -30.0430 C   0  0  0  0  0  0  0  0  0  0  0  0
   -6.2140   25.1080  -30.2490 C   0  0  0  0  0  0  0  0  0  0  0  0
   -5.0710   25.8810  -30.4730 C   0  0  0  0  0  0  0  0  0  0  0  0
   -3.8450   25.2970  -30.4920 N   0  0  0  0  0  0  0  0  0  0  0  0
   -3.6880   23.9610  -30.2970 C   0  0  0  0  0  0  0  0  0  0  0  0
   -4.8030   23.1510  -30.0690 C   0  0  0  0  0  0  0  0  0  0  0  0
   -6.0800   21.1370  -32.2660 C   0  0  0  0  0  0  0  0  0  0  0  0
   -5.4600   20.1100  -32.9850 C   0  0  0  0  0  0  0  0  0  0  0  0
   -4.2560   15.7540  -34.2840 C   0  0  0  0  0  0  0  0  0  0  0  0
   -3.7330   14.5460  -33.8200 C   0  0  0  0  0  0  0  0  0  0  0  0
   -2.9640   14.0850  -34.8630 C   0  0  0  0  0  0  0  0  0  0  0  0
   -2.1980   12.9290  -34.9920 C   0  0  0  0  0  0  0  0  0  0  0  0
   -1.5120   12.7300  -36.2040 C   0  0  0  0  0  0  0  0  0  0  0  0
   -1.6080   13.6810  -37.2450 C   0  0  0  0  0  0  0  0  0  0  0  0
   -2.3910   14.8390  -37.0820 C   0  0  0  0  0  0  0  0  0  0  0  0
   -3.0590   15.0080  -35.8710 C   0  0  0  0  0  0  0  0  0  0  0  0
   -3.8350   16.0000  -35.5140 O   0  0  0  0  0  0  0  0  0  0  0  0
   -5.5390   18.0140  -35.1520 H   0  0  0  0  0  0  0  0  0  0  0  0
   -8.1339   18.0042  -33.3343 H   0  0  0  0  0  0  0  0  0  0  0  0
   -9.2313   19.8336  -32.0446 H   0  0  0  0  0  0  0  0  0  0  0  0
   -7.2076   25.5797  -30.2337 H   0  0  0  0  0  0  0  0  0  0  0  0
   -5.1648   26.9651  -30.6343 H   0  0  0  0  0  0  0  0  0  0  0  0
   -2.6818   23.5171  -30.3188 H   0  0  0  0  0  0  0  0  0  0  0  0
   -4.6763   22.0699  -29.9103 H   0  0  0  0  0  0  0  0  0  0  0  0
   -5.5036   22.0283  -31.9772 H   0  0  0  0  0  0  0  0  0  0  0  0
   -4.3997   20.1994  -33.2639 H   0  0  0  0  0  0  0  0  0  0  0  0
   -3.8983   14.0705  -32.8420 H   0  0  0  0  0  0  0  0  0  0  0  0
   -2.1317   12.1965  -34.1740 H   0  0  0  0  0  0  0  0  0  0  0  0
   -0.8970   11.8285  -36.3423 H   0  0  0  0  0  0  0  0  0  0  0  0
   -1.0674   13.5151  -38.1885 H   0  0  0  0  0  0  0  0  0  0  0  0
   -2.4730   15.5866  -37.8848 H   0  0  0  0  0  0  0  0  0  0  0  0
  1  2  2  0
  2  3  1  0
  3  4  1  0
  4  5  2  0
  5  6  1  0
  6  7  2  0
  7  8  1  0
  8  9  2  0
  8 10  2  0
  8 11  1  0
 11 12  2  3
 12 13  1  0
 13 14  2  0
 14 15  1  0
 15 16  1  0
 16 17  2  0
  7 18  1  0
 18 19  2  0
  2 20  1  0
 20 21  2  0
 21 22  1  0
 22 23  2  0
 23 24  1  0
 24 25  2  0
 25 26  1  0
 26 27  2  0
 27 28  1  0
 19  4  1  0
 28 20  1  0
 17 12  1  0
 27 22  1  0
  3 29  1  0
  5 30  1  0
  6 31  1  0
 13 32  1  0
 14 33  1  0
 16 34  1  0
 17 35  1  0
 18 36  1  0
 19 37  1  0
 21 38  1  0
 23 39  1  0
 24 40  1  0
 25 41  1  0
 26 42  1  0
M  CHG  1  15  -1
M  END
>  <UniqueID>  (43) 
38

>  <SMILES>  (43) 
O=C(Nc1ccc(S(=O)(=O)N=c2cc[n-]cc2)cc1)c1cc2ccccc2o1

>  <Energy>  (43) 
90.81736579093472

>  <Genealogy>  (43) 
O=C(Nc1ccc(S(=O)(=O)N=c2cc[n-]cc2)cc1)c1cc2ccccc2o1 (protonated)
O=C(Nc1ccc(S(=O)(=O)N=c2cc[n-]cc2)cc1)c1cc2ccccc2o1 (3D coordinates assigned)
O=C(Nc1ccc(S(=O)(=O)N=c2cc[n-]cc2)cc1)c1cc2ccccc2o1 (optimized conformer: 90.81736579093472 kcal/mol)

>  <smiles>  (43) 
O=C(Nc1ccc(S(=O)(=O)N=c2cc[nH]cc2)cc1)c1cc2ccccc2o1

>  <score_type>  (43) 
oracle

>  <origin>  (43) 
adg

>  <m_score__min__energy>  (43) 
-10.01

>  <m_primary>  (43) 
energy

$$$$
43:0
     RDKit          3D

 41 44  0  0  0  0  0  0  0  0999 V2000
   -3.6490   25.1280  -30.0970 F   0  0  0  0  0  0  0  0  0  0  0  0
   -4.6700   24.5450  -29.3630 C   0  0  0  0  0  0  0  0  0  0  0  0
   -4.3900   24.6630  -28.0120 F   0  0  0  0  0  0  0  0  0  0  0  0
   -6.0010   25.1960  -29.7010 C   0  0  0  0  0  0  0  0  0  0  0  0
   -6.8610   24.0800  -30.2790 C   0  0  0  0  0  0  0  0  0  0  0  0
   -5.9710   22.9760  -30.6700 N   0  0  0  0  0  0  0  0  0  0  0  0
   -5.5330   23.1020  -32.0770 C   0  0  0  0  0  0  0  0  0  0  0  0
   -5.0250   21.7860  -32.5930 C   0  0  0  0  0  0  0  0  0  0  0  0
   -3.8130   21.5650  -33.2180 C   0  0  0  0  0  0  0  0  0  0  0  0
   -3.7390   20.2770  -33.6120 N   0  0  0  0  0  0  0  0  0  0  0  0
   -4.8630   19.6720  -33.2590 N   0  0  0  0  0  0  0  0  0  0  0  0
   -5.0930   18.2690  -33.4690 C   0  0  0  0  0  0  0  0  0  0  0  0
   -6.2820   17.8140  -34.0660 C   0  0  0  0  0  0  0  0  0  0  0  0
   -6.5010   16.4450  -34.2470 C   0  0  0  0  0  0  0  0  0  0  0  0
   -5.5450   15.5200  -33.8230 C   0  0  0  0  0  0  0  0  0  0  0  0
   -4.3680   15.9620  -33.2100 C   0  0  0  0  0  0  0  0  0  0  0  0
   -4.1460   17.3300  -33.0280 C   0  0  0  0  0  0  0  0  0  0  0  0
   -5.6710   20.5630  -32.6410 C   0  0  0  0  0  0  0  0  0  0  0  0
   -7.0210   20.3080  -32.2270 N   0  0  0  0  0  0  0  0  0  0  0  0
   -8.0630   21.1530  -32.3470 C   0  0  0  0  0  0  0  0  0  0  0  0
   -9.1780   20.5440  -31.8140 C   0  0  0  0  0  0  0  0  0  0  0  0
   -8.7310   19.3130  -31.3760 C   0  0  0  0  0  0  0  0  0  0  0  0
   -7.4150   19.1920  -31.6350 N   0  0  0  0  0  0  0  0  0  0  0  0
   -4.8270   23.0780  -29.7540 C   0  0  0  0  0  0  0  0  0  0  0  0
   -6.4672   25.6116  -28.7955 H   0  0  0  0  0  0  0  0  0  0  0  0
   -5.8811   26.0290  -30.4093 H   0  0  0  0  0  0  0  0  0  0  0  0
   -7.5781   23.7309  -29.5214 H   0  0  0  0  0  0  0  0  0  0  0  0
   -7.4238   24.4441  -31.1511 H   0  0  0  0  0  0  0  0  0  0  0  0
   -6.3844   23.4273  -32.6928 H   0  0  0  0  0  0  0  0  0  0  0  0
   -4.7201   23.8412  -32.1303 H   0  0  0  0  0  0  0  0  0  0  0  0
   -3.0297   22.3220  -33.3707 H   0  0  0  0  0  0  0  0  0  0  0  0
   -7.0431   18.5382  -34.3920 H   0  0  0  0  0  0  0  0  0  0  0  0
   -7.4285   16.0960  -34.7245 H   0  0  0  0  0  0  0  0  0  0  0  0
   -5.7174   14.4437  -33.9710 H   0  0  0  0  0  0  0  0  0  0  0  0
   -3.6171   15.2331  -32.8712 H   0  0  0  0  0  0  0  0  0  0  0  0
   -3.2239   17.6734  -32.5363 H   0  0  0  0  0  0  0  0  0  0  0  0
   -8.0295   22.1575  -32.7941 H   0  0  0  0  0  0  0  0  0  0  0  0
  -10.1988   20.9489  -31.7512 H   0  0  0  0  0  0  0  0  0  0  0  0
   -9.3545   18.5482  -30.8899 H   0  0  0  0  0  0  0  0  0  0  0  0
   -5.0112   22.4694  -28.8564 H   0  0  0  0  0  0  0  0  0  0  0  0
   -3.9116   22.7106  -30.2410 H   0  0  0  0  0  0  0  0  0  0  0  0
  1  2  1  0
  2  3  1  0
  2  4  1  0
  4  5  1  0
  5  6  1  0
  6  7  1  0
  7  8  1  0
  8  9  1  0
  9 10  2  0
 10 11  1  0
 11 12  1  0
 12 13  2  0
 13 14  1  0
 14 15  2  0
 15 16  1  0
 16 17  2  0
 11 18  1  0
 18 19  1  0
 19 20  1  0
 20 21  2  0
 21 22  1  0
 22 23  2  0
  6 24  1  0
 24  2  1  0
 18  8  2  0
 23 19  1  0
 17 12  1  0
  4 25  1  0
  4 26  1  0
  5 27  1  0
  5 28  1  0
  7 29  1  0
  7 30  1  0
  9 31  1  0
 13 32  1  0
 14 33  1  0
 15 34  1  0
 16 35  1  0
 17 36  1  0
 20 37  1  0
 21 38  1  0
 22 39  1  0
 24 40  1  0
 24 41  1  0
M  END
>  <UniqueID>  (44) 
39

>  <SMILES>  (44) 
FC1(F)CCN(Cc2cnn(-c3ccccc3)c2-n2cccn2)C1

>  <Energy>  (44) 
115.86996982729246

>  <Genealogy>  (44) 
FC1(F)CCN(Cc2cnn(-c3ccccc3)c2-n2cccn2)C1 (3D coordinates assigned)
FC1(F)CCN(Cc2cnn(-c3ccccc3)c2-n2cccn2)C1 (nonaromatic ring conformer: 115.86996982729246 kcal/mol)

>  <smiles>  (44) 
FC1(F)CCN(Cc2cnn(-c3ccccc3)c2-n2cccn2)C1

>  <score_type>  (44) 
oracle

>  <origin>  (44) 
adg

>  <m_score__min__energy>  (44) 
-8.0299999999999994

>  <m_primary>  (44) 
energy

$$$$
44:0
     RDKit          3D

 35 37  0  0  0  0  0  0  0  0999 V2000
   -8.9930   19.2180  -31.6190 C   0  0  0  0  0  0  0  0  0  0  0  0
   -7.7580   19.4430  -32.3690 N   0  0  0  0  0  0  0  0  0  0  0  0
   -7.1650   20.6260  -32.7010 C   0  0  0  0  0  0  0  0  0  0  0  0
   -7.6870   21.9860  -32.3350 C   0  0  0  0  0  0  0  0  0  0  0  0
   -6.6820   23.0030  -32.6350 N   0  0  0  0  0  0  0  0  0  0  0  0
   -5.8080   23.5150  -31.6170 C   0  0  0  0  0  0  0  0  0  0  0  0
   -6.2940   24.4900  -30.7340 C   0  0  0  0  0  0  0  0  0  0  0  0
   -5.4790   24.9900  -29.7140 C   0  0  0  0  0  0  0  0  0  0  0  0
   -4.1680   24.5290  -29.5780 C   0  0  0  0  0  0  0  0  0  0  0  0
   -3.6640   23.5770  -30.4670 C   0  0  0  0  0  0  0  0  0  0  0  0
   -4.4740   23.0690  -31.4920 C   0  0  0  0  0  0  0  0  0  0  0  0
   -3.9040   22.1360  -32.4320 C   0  0  0  0  0  0  0  0  0  0  0  0
   -3.4460   21.3870  -33.1870 N   0  0  0  0  0  0  0  0  0  0  0  0
   -6.0940   20.4580  -33.5170 N   0  0  0  0  0  0  0  0  0  0  0  0
   -6.0220   19.1310  -33.7060 C   0  0  0  0  0  0  0  0  0  0  0  0
   -5.1210   18.4240  -34.4990 C   0  0  0  0  0  0  0  0  0  0  0  0
   -5.2780   17.0270  -34.5750 C   0  0  0  0  0  0  0  0  0  0  0  0
   -6.3240   16.3850  -33.8730 C   0  0  0  0  0  0  0  0  0  0  0  0
   -7.2210   17.1320  -33.0860 C   0  0  0  0  0  0  0  0  0  0  0  0
   -7.0290   18.5140  -33.0210 C   0  0  0  0  0  0  0  0  0  0  0  0
   -8.7794   19.2569  -30.5406 H   0  0  0  0  0  0  0  0  0  0  0  0
   -9.7253   19.9975  -31.8761 H   0  0  0  0  0  0  0  0  0  0  0  0
   -9.4033   18.2303  -31.8761 H   0  0  0  0  0  0  0  0  0  0  0  0
   -8.5996   22.1938  -32.9129 H   0  0  0  0  0  0  0  0  0  0  0  0
   -7.9143   22.0086  -31.2590 H   0  0  0  0  0  0  0  0  0  0  0  0
   -6.8820   23.6250  -33.4500 H   0  0  0  0  0  0  0  0  0  0  0  0
   -7.3227   24.8637  -30.8446 H   0  0  0  0  0  0  0  0  0  0  0  0
   -5.8707   25.7468  -29.0184 H   0  0  0  0  0  0  0  0  0  0  0  0
   -3.5310   24.9163  -28.7692 H   0  0  0  0  0  0  0  0  0  0  0  0
   -2.6273   23.2245  -30.3624 H   0  0  0  0  0  0  0  0  0  0  0  0
   -5.4900   21.1970  -33.9410 H   0  0  0  0  0  0  0  0  0  0  0  0
   -4.3167   18.9382  -35.0455 H   0  0  0  0  0  0  0  0  0  0  0  0
   -4.5825   16.4312  -35.1844 H   0  0  0  0  0  0  0  0  0  0  0  0
   -6.4378   15.2931  -33.9423 H   0  0  0  0  0  0  0  0  0  0  0  0
   -8.0435   16.6448  -32.5418 H   0  0  0  0  0  0  0  0  0  0  0  0
  1  2  1  0
  2  3  1  0
  3  4  1  0
  4  5  1  0
  5  6  1  0
  6  7  2  0
  7  8  1  0
  8  9  2  0
  9 10  1  0
 10 11  2  0
 11 12  1  0
 12 13  3  0
  3 14  2  0
 14 15  1  0
 15 16  2  0
 16 17  1  0
 17 18  2  0
 18 19  1  0
 19 20  2  0
 20  2  1  0
 11  6  1  0
 20 15  1  0
  1 21  1  0
  1 22  1  0
  1 23  1  0
  4 24  1  0
  4 25  1  0
  5 26  1  0
  7 27  1  0
  8 28  1  0
  9 29  1  0
 10 30  1  0
 14 31  1  0
 16 32  1  0
 17 33  1  0
 18 34  1  0
 19 35  1  0
M  CHG  1  14   1
M  END
>  <UniqueID>  (45) 
40

>  <SMILES>  (45) 
Cn1c(CNc2ccccc2C#N)[nH+]c2ccccc21

>  <Energy>  (45) 
77.89073755771504

>  <Genealogy>  (45) 
Cn1c(CNc2ccccc2C#N)[nH+]c2ccccc21 (protonated)
Cn1c(CNc2ccccc2C#N)[nH+]c2ccccc21 (3D coordinates assigned)
Cn1c(CNc2ccccc2C#N)[nH+]c2ccccc21 (optimized conformer: 77.89073755771504 kcal/mol)

>  <smiles>  (45) 
Cn1c(CNc2ccccc2C#N)nc2ccccc21

>  <score_type>  (45) 
oracle

>  <origin>  (45) 
adg

>  <m_score__min__energy>  (45) 
-6.9500000000000002

>  <m_primary>  (45) 
energy

$$$$
45:0
     RDKit          3D

 42 44  0  0  0  0  0  0  0  0999 V2000
   -9.4880   21.8740  -31.2480 C   0  0  0  0  0  0  0  0  0  0  0  0
   -8.8970   20.7840  -32.1370 C   0  0  0  0  0  0  0  0  0  0  0  0
   -7.4290   20.9470  -32.2410 N   0  0  0  0  0  0  0  0  0  0  0  0
   -6.8840   20.1930  -33.3930 C   0  0  0  0  0  0  0  0  0  0  0  0
   -6.8790   18.6970  -33.0880 C   0  0  0  0  0  0  0  0  0  0  0  0
   -7.0600   22.3780  -32.3210 C   0  0  0  0  0  0  0  0  0  0  0  0
   -6.0990   22.7290  -31.2160 C   0  0  0  0  0  0  0  0  0  0  0  0
   -6.3070   23.8840  -30.4500 C   0  0  0  0  0  0  0  0  0  0  0  0
   -5.4160   24.2260  -29.4290 C   0  0  0  0  0  0  0  0  0  0  0  0
   -4.2950   23.4200  -29.1570 C   0  0  0  0  0  0  0  0  0  0  0  0
   -3.3520   23.7880  -28.0730 C   0  0  0  0  0  0  0  0  0  0  0  0
   -3.4480   24.9170  -27.3210 N   0  0  0  0  0  0  0  0  0  0  0  0
   -2.4540   25.0020  -26.4000 C   0  0  0  0  0  0  0  0  0  0  0  0
   -2.3010   26.0490  -25.4850 C   0  0  0  0  0  0  0  0  0  0  0  0
   -1.2230   26.0050  -24.5830 C   0  0  0  0  0  0  0  0  0  0  0  0
   -0.3190   24.9230  -24.6020 C   0  0  0  0  0  0  0  0  0  0  0  0
   -0.4850   23.8770  -25.5230 C   0  0  0  0  0  0  0  0  0  0  0  0
   -1.5580   23.9460  -26.4070 C   0  0  0  0  0  0  0  0  0  0  0  0
   -2.0120   22.8550  -27.5990 S   0  0  0  0  0  0  0  0  0  0  0  0
   -4.0950   22.2580  -29.9260 C   0  0  0  0  0  0  0  0  0  0  0  0
   -4.9880   21.9170  -30.9460 C   0  0  0  0  0  0  0  0  0  0  0  0
   -9.3420   21.6047  -30.1915 H   0  0  0  0  0  0  0  0  0  0  0  0
   -8.9845   22.8297  -31.4558 H   0  0  0  0  0  0  0  0  0  0  0  0
  -10.5636   21.9735  -31.4558 H   0  0  0  0  0  0  0  0  0  0  0  0
   -9.1231   19.7990  -31.7027 H   0  0  0  0  0  0  0  0  0  0  0  0
   -9.3383   20.8626  -33.1415 H   0  0  0  0  0  0  0  0  0  0  0  0
   -7.5083   20.3813  -34.2789 H   0  0  0  0  0  0  0  0  0  0  0  0
   -5.8526   20.5243  -33.5837 H   0  0  0  0  0  0  0  0  0  0  0  0
   -6.8785   18.5449  -31.9986 H   0  0  0  0  0  0  0  0  0  0  0  0
   -7.7756   18.2311  -33.5228 H   0  0  0  0  0  0  0  0  0  0  0  0
   -5.9793   18.2371  -33.5228 H   0  0  0  0  0  0  0  0  0  0  0  0
   -6.5848   22.5771  -33.2929 H   0  0  0  0  0  0  0  0  0  0  0  0
   -7.9681   22.9896  -32.2151 H   0  0  0  0  0  0  0  0  0  0  0  0
   -7.1771   24.5255  -30.6537 H   0  0  0  0  0  0  0  0  0  0  0  0
   -5.5926   25.1333  -28.8327 H   0  0  0  0  0  0  0  0  0  0  0  0
   -4.2040   25.6310  -27.4100 H   0  0  0  0  0  0  0  0  0  0  0  0
   -3.0098   26.8900  -25.4713 H   0  0  0  0  0  0  0  0  0  0  0  0
   -1.0840   26.8202  -23.8577 H   0  0  0  0  0  0  0  0  0  0  0  0
    0.5204   24.8986  -23.8915 H   0  0  0  0  0  0  0  0  0  0  0  0
    0.2129   23.0270  -25.5456 H   0  0  0  0  0  0  0  0  0  0  0  0
   -3.2280   21.6124  -29.7224 H   0  0  0  0  0  0  0  0  0  0  0  0
   -4.8183   21.0069  -31.5400 H   0  0  0  0  0  0  0  0  0  0  0  0
  1  2  1  0
  2  3  1  0
  3  4  1  0
  4  5  1  0
  3  6  1  0
  6  7  1  0
  7  8  2  0
  8  9  1  0
  9 10  2  0
 10 11  1  0
 11 12  2  0
 12 13  1  0
 13 14  2  0
 14 15  1  0
 15 16  2  0
 16 17  1  0
 17 18  2  0
 18 19  1  0
 10 20  1  0
 20 21  2  0
 21  7  1  0
 19 11  1  0
 18 13  1  0
  1 22  1  0
  1 23  1  0
  1 24  1  0
  2 25  1  0
  2 26  1  0
  4 27  1  0
  4 28  1  0
  5 29  1  0
  5 30  1  0
  5 31  1  0
  6 32  1  0
  6 33  1  0
  8 34  1  0
  9 35  1  0
 12 36  1  0
 14 37  1  0
 15 38  1  0
 16 39  1  0
 17 40  1  0
 20 41  1  0
 21 42  1  0
M  CHG  1  12   1
M  END
>  <UniqueID>  (46) 
41

>  <SMILES>  (46) 
CCN(CC)Cc1ccc(-c2[nH+]c3ccccc3s2)cc1

>  <Energy>  (46) 
78.49638943101534

>  <Genealogy>  (46) 
CCN(CC)Cc1ccc(-c2[nH+]c3ccccc3s2)cc1 (protonated)
CCN(CC)Cc1ccc(-c2[nH+]c3ccccc3s2)cc1 (3D coordinates assigned)
CCN(CC)Cc1ccc(-c2[nH+]c3ccccc3s2)cc1 (optimized conformer: 78.49638943101534 kcal/mol)

>  <smiles>  (46) 
CCN(CC)Cc1ccc(-c2nc3ccccc3s2)cc1

>  <score_type>  (46) 
oracle

>  <origin>  (46) 
adg

>  <m_score__min__energy>  (46) 
-6.8799999999999999

>  <m_primary>  (46) 
energy

$$$$
46:0
     RDKit          3D

 36 38  0  0  0  0  0  0  0  0999 V2000
   -6.5920   19.6160  -33.4890 C   0  0  0  0  0  0  0  0  0  0  0  0
   -6.8980   20.8210  -32.6500 C   0  0  0  0  0  0  0  0  0  0  0  0
   -8.2240   21.1230  -32.3050 C   0  0  0  0  0  0  0  0  0  0  0  0
   -8.5070   22.2300  -31.5000 C   0  0  0  0  0  0  0  0  0  0  0  0
   -7.4690   23.0300  -31.0190 C   0  0  0  0  0  0  0  0  0  0  0  0
   -6.1330   22.7150  -31.3190 C   0  0  0  0  0  0  0  0  0  0  0  0
   -5.0260   23.5560  -30.8210 C   0  0  0  0  0  0  0  0  0  0  0  0
   -4.8960   24.8590  -31.1430 N   0  0  0  0  0  0  0  0  0  0  0  0
   -3.8610   25.3150  -30.4990 O   0  0  0  0  0  0  0  0  0  0  0  0
   -3.3000   24.3780  -29.7720 C   0  0  0  0  0  0  0  0  0  0  0  0
   -2.0820   24.5900  -28.9350 C   0  0  0  0  0  0  0  0  0  0  0  0
   -4.0100   23.2010  -29.9410 C   0  0  0  0  0  0  0  0  0  0  0  0
   -3.6770   21.8670  -29.4040 C   0  0  0  0  0  0  0  0  0  0  0  0
   -3.6180   21.6900  -28.1580 O   0  0  0  0  0  0  0  0  0  0  0  0
   -3.3410   20.8020  -30.3020 N   0  0  0  0  0  0  0  0  0  0  0  0
   -2.5310   20.9000  -31.4830 C   0  0  0  0  0  0  0  0  0  0  0  0
   -2.9850   20.3080  -32.6660 C   0  0  0  0  0  0  0  0  0  0  0  0
   -2.2060   20.3640  -33.8220 C   0  0  0  0  0  0  0  0  0  0  0  0
   -0.9640   21.0000  -33.7790 C   0  0  0  0  0  0  0  0  0  0  0  0
   -0.5200   21.5470  -32.6160 N   0  0  0  0  0  0  0  0  0  0  0  0
   -1.2630   21.5100  -31.4770 C   0  0  0  0  0  0  0  0  0  0  0  0
   -5.8550   21.6160  -32.1480 C   0  0  0  0  0  0  0  0  0  0  0  0
   -6.3744   18.7591  -32.8344 H   0  0  0  0  0  0  0  0  0  0  0  0
   -7.4591   19.3815  -34.1239 H   0  0  0  0  0  0  0  0  0  0  0  0
   -5.7181   19.8236  -34.1239 H   0  0  0  0  0  0  0  0  0  0  0  0
   -9.0437   20.4863  -32.6693 H   0  0  0  0  0  0  0  0  0  0  0  0
   -9.5495   22.4713  -31.2450 H   0  0  0  0  0  0  0  0  0  0  0  0
   -7.6982   23.9114  -30.4020 H   0  0  0  0  0  0  0  0  0  0  0  0
   -2.3557   24.5424  -27.8707 H   0  0  0  0  0  0  0  0  0  0  0  0
   -1.3425   23.8071  -29.1588 H   0  0  0  0  0  0  0  0  0  0  0  0
   -1.6505   25.5768  -29.1588 H   0  0  0  0  0  0  0  0  0  0  0  0
   -3.9589   19.7969  -32.6850 H   0  0  0  0  0  0  0  0  0  0  0  0
   -2.5667   19.9117  -34.7576 H   0  0  0  0  0  0  0  0  0  0  0  0
   -0.3445   21.0586  -34.6861 H   0  0  0  0  0  0  0  0  0  0  0  0
   -0.8724   21.9571  -30.5510 H   0  0  0  0  0  0  0  0  0  0  0  0
   -4.8129   21.3763  -32.4059 H   0  0  0  0  0  0  0  0  0  0  0  0
  1  2  1  0
  2  3  2  0
  3  4  1  0
  4  5  2  0
  5  6  1  0
  6  7  1  0
  7  8  2  0
  8  9  1  0
  9 10  1  0
 10 11  1  0
 10 12  2  0
 12 13  1  0
 13 14  2  0
 13 15  1  0
 15 16  1  0
 16 17  2  0
 17 18  1  0
 18 19  2  0
 19 20  1  0
 20 21  2  0
  6 22  2  0
 22  2  1  0
 12  7  1  0
 21 16  1  0
  1 23  1  0
  1 24  1  0
  1 25  1  0
  3 26  1  0
  4 27  1  0
  5 28  1  0
 11 29  1  0
 11 30  1  0
 11 31  1  0
 17 32  1  0
 18 33  1  0
 19 34  1  0
 21 35  1  0
 22 36  1  0
M  CHG  1  15  -1
M  END
>  <UniqueID>  (47) 
42

>  <SMILES>  (47) 
Cc1cccc(-c2noc(C)c2C(=O)[N-]c2cccnc2)c1

>  <Energy>  (47) 
77.21406736923069

>  <Genealogy>  (47) 
Cc1cccc(-c2noc(C)c2C(=O)[N-]c2cccnc2)c1 (protonated)
Cc1cccc(-c2noc(C)c2C(=O)[N-]c2cccnc2)c1 (3D coordinates assigned)
Cc1cccc(-c2noc(C)c2C(=O)[N-]c2cccnc2)c1 (optimized conformer: 77.21406736923069 kcal/mol)

>  <smiles>  (47) 
Cc1cccc(-c2noc(C)c2C(=O)Nc2cccnc2)c1

>  <score_type>  (47) 
oracle

>  <origin>  (47) 
adg

>  <m_score__min__energy>  (47) 
-8.9600000000000009

>  <m_primary>  (47) 
energy

$$$$
47:0
     RDKit          3D

 30 32  0  0  0  0  0  0  0  0999 V2000
   -9.4070   21.8790  -31.2580 C   0  0  0  0  0  0  0  0  0  0  0  0
   -8.9820   21.0110  -32.3020 O   0  0  0  0  0  0  0  0  0  0  0  0
   -7.6360   20.7170  -32.5400 C   0  0  0  0  0  0  0  0  0  0  0  0
   -6.6470   21.4570  -31.8910 C   0  0  0  0  0  0  0  0  0  0  0  0
   -5.2940   21.1770  -32.1320 C   0  0  0  0  0  0  0  0  0  0  0  0
   -4.2580   21.9780  -31.4420 C   0  0  0  0  0  0  0  0  0  0  0  0
   -3.0810   21.4030  -31.0370 N   0  0  0  0  0  0  0  0  0  0  0  0
   -2.1190   22.1300  -30.3810 C   0  0  0  0  0  0  0  0  0  0  0  0
   -2.3170   23.4530  -30.1030 N   0  0  0  0  0  0  0  0  0  0  0  0
   -3.4810   24.0210  -30.4940 C   0  0  0  0  0  0  0  0  0  0  0  0
   -3.8640   25.2860  -30.2810 N   0  0  0  0  0  0  0  0  0  0  0  0
   -5.1050   25.3030  -30.8370 C   0  0  0  0  0  0  0  0  0  0  0  0
   -5.5020   24.1170  -31.3720 N   0  0  0  0  0  0  0  0  0  0  0  0
   -4.4420   23.3280  -31.1430 C   0  0  0  0  0  0  0  0  0  0  0  0
   -4.9490   20.1280  -33.0070 C   0  0  0  0  0  0  0  0  0  0  0  0
   -3.5950   19.8100  -33.2050 O   0  0  0  0  0  0  0  0  0  0  0  0
   -3.1270   18.6360  -33.8600 C   0  0  0  0  0  0  0  0  0  0  0  0
   -5.9820   19.4130  -33.6430 C   0  0  0  0  0  0  0  0  0  0  0  0
   -7.2810   19.7210  -33.3970 N   0  0  0  0  0  0  0  0  0  0  0  0
   -9.1819   21.4192  -30.2844 H   0  0  0  0  0  0  0  0  0  0  0  0
   -8.8772   22.8394  -31.3412 H   0  0  0  0  0  0  0  0  0  0  0  0
  -10.4905   22.0495  -31.3412 H   0  0  0  0  0  0  0  0  0  0  0  0
   -6.9279   22.2584  -31.1918 H   0  0  0  0  0  0  0  0  0  0  0  0
   -2.8970   20.3940  -31.2370 H   0  0  0  0  0  0  0  0  0  0  0  0
   -1.1807   21.6433  -30.0765 H   0  0  0  0  0  0  0  0  0  0  0  0
   -5.7369   26.2033  -30.8528 H   0  0  0  0  0  0  0  0  0  0  0  0
   -2.8297   17.8903  -33.1079 H   0  0  0  0  0  0  0  0  0  0  0  0
   -3.9291   18.2227  -34.4891 H   0  0  0  0  0  0  0  0  0  0  0  0
   -2.2605   18.8878  -34.4891 H   0  0  0  0  0  0  0  0  0  0  0  0
   -5.7351   18.6009  -34.3426 H   0  0  0  0  0  0  0  0  0  0  0  0
  1  2  1  0
  2  3  1  0
  3  4  2  0
  4  5  1  0
  5  6  1  0
  6  7  2  0
  7  8  1  0
  8  9  2  0
  9 10  1  0
 10 11  1  0
 11 12  1  0
 12 13  2  0
 13 14  1  0
  5 15  2  0
 15 16  1  0
 16 17  1  0
 15 18  1  0
 18 19  2  0
 19  3  1  0
 14  6  1  0
 14 10  2  0
  1 20  1  0
  1 21  1  0
  1 22  1  0
  4 23  1  0
  7 24  1  0
  8 25  1  0
 12 26  1  0
 17 27  1  0
 17 28  1  0
 17 29  1  0
 18 30  1  0
M  CHG  2   7   1  11  -1
M  END
>  <UniqueID>  (48) 
43

>  <SMILES>  (48) 
COc1cc(-c2[nH+]cnc3[n-]cnc23)c(OC)cn1

>  <Energy>  (48) 
74.29380270495012

>  <Genealogy>  (48) 
COc1cc(-c2[nH+]cnc3[n-]cnc23)c(OC)cn1 (protonated)
COc1cc(-c2[nH+]cnc3[n-]cnc23)c(OC)cn1 (3D coordinates assigned)
COc1cc(-c2[nH+]cnc3[n-]cnc23)c(OC)cn1 (optimized conformer: 74.29380270495012 kcal/mol)

>  <smiles>  (48) 
COc1cc(-c2ncnc3[nH]cnc23)c(OC)cn1

>  <score_type>  (48) 
oracle

>  <origin>  (48) 
adg

>  <m_score__min__energy>  (48) 
-6.2699999999999996

>  <m_primary>  (48) 
energy

$$$$
