0:0
     RDKit          3D

 35 37  0  0  0  0  0  0  0  0999 V2000
   -5.7450   25.5130  -30.3950 C   0  0  0  0  0  0  0  0  0  0  0  0
   -5.3770   24.2120  -31.0320 C   0  0  0  0  0  0  0  0  0  0  0  0
   -4.1390   23.8180  -31.2190 O   0  0  0  0  0  0  0  0  0  0  0  0
   -4.1500   22.6470  -31.8180 C   0  0  0  0  0  0  0  0  0  0  0  0
   -2.9130   21.9260  -32.1710 C   0  0  0  0  0  0  0  0  0  0  0  0
   -2.0240   21.6280  -31.1850 N   0  0  0  0  0  0  0  0  0  0  0  0
   -0.8760   20.9540  -31.4520 C   0  0  0  0  0  0  0  0  0  0  0  0
   -0.5990   20.5450  -32.7540 C   0  0  0  0  0  0  0  0  0  0  0  0
   -1.5260   20.8360  -33.7530 C   0  0  0  0  0  0  0  0  0  0  0  0
   -2.6660   21.5110  -33.4480 N   0  0  0  0  0  0  0  0  0  0  0  0
   -5.4650   22.2510  -32.0420 C   0  0  0  0  0  0  0  0  0  0  0  0
   -5.9250   21.0810  -32.8070 C   0  0  0  0  0  0  0  0  0  0  0  0
   -5.2740   20.7010  -33.8160 O   0  0  0  0  0  0  0  0  0  0  0  0
   -7.0760   20.3470  -32.3920 N   0  0  0  0  0  0  0  0  0  0  0  0
   -7.8320   19.1760  -32.8690 C   0  0  0  0  0  0  0  0  0  0  0  0
   -8.7480   19.0890  -31.6930 C   0  0  0  0  0  0  0  0  0  0  0  0
   -7.9710   20.2730  -31.2230 C   0  0  0  0  0  0  0  0  0  0  0  0
   -6.2550   23.2750  -31.5430 C   0  0  0  0  0  0  0  0  0  0  0  0
   -7.7470   23.4010  -31.6070 C   0  0  0  0  0  0  0  0  0  0  0  0
   -5.7150   25.4068  -29.3005 H   0  0  0  0  0  0  0  0  0  0  0  0
   -5.0312   26.2893  -30.7078 H   0  0  0  0  0  0  0  0  0  0  0  0
   -6.7597   25.8004  -30.7078 H   0  0  0  0  0  0  0  0  0  0  0  0
   -0.1663   20.7315  -30.6416 H   0  0  0  0  0  0  0  0  0  0  0  0
    0.3300   20.0047  -32.9885 H   0  0  0  0  0  0  0  0  0  0  0  0
   -1.3352   20.5193  -34.7890 H   0  0  0  0  0  0  0  0  0  0  0  0
   -3.3630   21.6730  -34.2090 H   0  0  0  0  0  0  0  0  0  0  0  0
   -8.3669   19.3706  -33.8103 H   0  0  0  0  0  0  0  0  0  0  0  0
   -7.2535   18.2750  -33.1211 H   0  0  0  0  0  0  0  0  0  0  0  0
   -9.8116   19.2729  -31.9051 H   0  0  0  0  0  0  0  0  0  0  0  0
   -8.8978   18.1766  -31.0972 H   0  0  0  0  0  0  0  0  0  0  0  0
   -8.5947   21.1718  -31.1082 H   0  0  0  0  0  0  0  0  0  0  0  0
   -7.4970   20.2002  -30.2330 H   0  0  0  0  0  0  0  0  0  0  0  0
   -8.1562   23.4356  -30.5865 H   0  0  0  0  0  0  0  0  0  0  0  0
   -8.0144   24.3249  -32.1407 H   0  0  0  0  0  0  0  0  0  0  0  0
   -8.1655   22.5350  -32.1407 H   0  0  0  0  0  0  0  0  0  0  0  0
  1  2  1  0
  2  3  1  0
  3  4  1  0
  4  5  1  0
  5  6  2  0
  6  7  1  0
  7  8  2  0
  8  9  1  0
  9 10  2  0
  4 11  2  0
 11 12  1  0
 12 13  2  0
 12 14  1  0
 14 15  1  0
 15 16  1  0
 16 17  1  0
 11 18  1  0
 18 19  1  0
 18  2  2  0
 10  5  1  0
 17 14  1  0
  1 20  1  0
  1 21  1  0
  1 22  1  0
  7 23  1  0
  8 24  1  0
  9 25  1  0
 10 26  1  0
 15 27  1  0
 15 28  1  0
 16 29  1  0
 16 30  1  0
 17 31  1  0
 17 32  1  0
 19 33  1  0
 19 34  1  0
 19 35  1  0
M  CHG  1  10   1
M  END
>  <UniqueID>  (1) 
1

>  <SMILES>  (1) 
Cc1oc(-c2nccc[nH+]2)c(C(=O)N2CCC2)c1C

>  <Energy>  (1) 
111.5049840214639

>  <Genealogy>  (1) 
Cc1oc(-c2nccc[nH+]2)c(C(=O)N2CCC2)c1C (protonated)
Cc1oc(-c2nccc[nH+]2)c(C(=O)N2CCC2)c1C (3D coordinates assigned)
Cc1oc(-c2nccc[nH+]2)c(C(=O)N2CCC2)c1C (nonaromatic ring conformer: 111.5049840214639 kcal/mol)

>  <smiles>  (1) 
Cc1oc(-c2ncccn2)c(C(=O)N2CCC2)c1C

>  <score_type>  (1) 
oracle

>  <origin>  (1) 
adg

>  <m_score__min__energy>  (1) 
-6.75

>  <m_primary>  (1) 
energy

$$$$
1:0
     RDKit          3D

 74 77  0  0  0  0  0  0  0  0999 V2000
   -3.1340   19.2800  -26.7650 C   0  0  0  0  0  0  0  0  0  0  0  0
   -1.7870   18.5480  -26.7670 C   0  0  0  0  0  0  0  0  0  0  0  0
   -0.8810   19.0350  -27.8380 N   0  0  2  0  0  0  0  0  0  0  0  0
   -0.0350   17.9520  -28.3780 C   0  0  0  0  0  0  0  0  0  0  0  0
   -0.0710   20.1960  -27.3900 C   0  0  0  0  0  0  0  0  0  0  0  0
   -0.3720   21.5130  -28.1500 C   0  0  0  0  0  0  0  0  0  0  0  0
   -1.2480   21.2990  -29.3130 N   0  0  0  0  0  0  0  0  0  0  0  0
   -0.6430   21.7670  -30.5670 C   0  0  0  0  0  0  0  0  0  0  0  0
   -1.3790   21.1590  -31.7300 C   0  0  0  0  0  0  0  0  0  0  0  0
   -0.7540   21.0510  -32.9810 C   0  0  0  0  0  0  0  0  0  0  0  0
   -1.4140   20.4560  -34.0620 C   0  0  0  0  0  0  0  0  0  0  0  0
   -0.7410   20.3760  -35.2900 O   0  0  0  0  0  0  0  0  0  0  0  0
    0.3020   21.2600  -35.6960 C   0  0  0  0  0  0  0  0  0  0  0  0
   -2.7200   19.9620  -33.8840 C   0  0  0  0  0  0  0  0  0  0  0  0
   -3.3410   20.0320  -32.6280 C   0  0  0  0  0  0  0  0  0  0  0  0
   -4.7170   19.5260  -32.4400 C   0  0  0  0  0  0  0  0  0  0  0  0
   -4.9280   18.1440  -32.5470 C   0  0  0  0  0  0  0  0  0  0  0  0
   -6.2020   17.6060  -32.3910 C   0  0  0  0  0  0  0  0  0  0  0  0
   -7.2900   18.4400  -32.1430 C   0  0  0  0  0  0  0  0  0  0  0  0
   -8.5200   17.8870  -31.9870 F   0  0  0  0  0  0  0  0  0  0  0  0
   -7.1160   19.8330  -32.0630 C   0  0  0  0  0  0  0  0  0  0  0  0
   -5.8130   20.3900  -32.1790 C   0  0  0  0  0  0  0  0  0  0  0  0
   -5.6010   21.8960  -32.1080 C   0  0  0  0  0  0  0  0  0  0  0  0
   -6.8250   22.6070  -31.7220 N   0  0  0  0  0  0  0  0  0  0  0  0
   -6.8010   23.6710  -30.7510 C   0  0  0  0  0  0  0  0  0  0  0  0
   -7.4350   23.5350  -29.6680 O   0  0  0  0  0  0  0  0  0  0  0  0
   -5.9800   24.9160  -30.9830 C   0  0  0  0  0  0  0  0  0  0  0  0
   -4.8450   25.1130  -29.9560 C   0  0  1  0  0  0  0  0  0  0  0  0
   -4.9650   24.1840  -28.7440 C   0  0  0  0  0  0  0  0  0  0  0  0
   -3.7450   23.3180  -28.8320 C   0  0  0  0  0  0  0  0  0  0  0  0
   -2.8160   24.1180  -29.7200 C   0  0  0  0  0  0  0  0  0  0  0  0
   -3.5880   24.9250  -30.5750 O   0  0  0  0  0  0  0  0  0  0  0  0
   -8.0940   22.1280  -32.2640 C   0  0  0  0  0  0  0  0  0  0  0  0
   -8.3210   20.7030  -31.7840 C   0  0  0  0  0  0  0  0  0  0  0  0
   -2.6680   20.6350  -31.5550 C   0  0  0  0  0  0  0  0  0  0  0  0
   -3.4550   19.4544  -25.7274 H   0  0  0  0  0  0  0  0  0  0  0  0
   -3.0279   20.2445  -27.2831 H   0  0  0  0  0  0  0  0  0  0  0  0
   -3.8856   18.6663  -27.2831 H   0  0  0  0  0  0  0  0  0  0  0  0
   -1.2989   18.7031  -25.7935 H   0  0  0  0  0  0  0  0  0  0  0  0
   -1.9843   17.4819  -26.9529 H   0  0  0  0  0  0  0  0  0  0  0  0
   -1.4690   19.3890  -28.6300 H   0  0  0  0  0  0  0  0  0  0  0  0
    0.4086   17.3842  -27.5468 H   0  0  0  0  0  0  0  0  0  0  0  0
   -0.6494   17.2796  -28.9947 H   0  0  0  0  0  0  0  0  0  0  0  0
    0.7661   18.3854  -28.9947 H   0  0  0  0  0  0  0  0  0  0  0  0
   -0.2685   20.3621  -26.3207 H   0  0  0  0  0  0  0  0  0  0  0  0
    0.9802   19.9458  -27.5959 H   0  0  0  0  0  0  0  0  0  0  0  0
   -0.8644   22.2146  -27.4606 H   0  0  0  0  0  0  0  0  0  0  0  0
    0.5835   21.9152  -28.5179 H   0  0  0  0  0  0  0  0  0  0  0  0
   -2.1560   21.7990  -29.1610 H   0  0  0  0  0  0  0  0  0  0  0  0
   -0.7113   22.8635  -30.6214 H   0  0  0  0  0  0  0  0  0  0  0  0
    0.4145   21.4660  -30.6014 H   0  0  0  0  0  0  0  0  0  0  0  0
    0.2669   21.4385  -33.1139 H   0  0  0  0  0  0  0  0  0  0  0  0
    0.7954   21.6781  -34.8062 H   0  0  0  0  0  0  0  0  0  0  0  0
    1.0382   20.7067  -36.2975 H   0  0  0  0  0  0  0  0  0  0  0  0
   -0.1232   22.0770  -36.2975 H   0  0  0  0  0  0  0  0  0  0  0  0
   -3.2571   19.5182  -34.7352 H   0  0  0  0  0  0  0  0  0  0  0  0
   -4.0778   17.4782  -32.7564 H   0  0  0  0  0  0  0  0  0  0  0  0
   -6.3504   16.5185  -32.4638 H   0  0  0  0  0  0  0  0  0  0  0  0
   -4.8175   22.1095  -31.3660 H   0  0  0  0  0  0  0  0  0  0  0  0
   -5.3075   22.2448  -33.1091 H   0  0  0  0  0  0  0  0  0  0  0  0
   -5.5333   24.8551  -31.9864 H   0  0  0  0  0  0  0  0  0  0  0  0
   -6.6608   25.7735  -30.8771 H   0  0  0  0  0  0  0  0  0  0  0  0
   -4.9347   26.1446  -29.5847 H   0  0  0  0  0  0  0  0  0  0  0  0
   -4.9688   24.7609  -27.8074 H   0  0  0  0  0  0  0  0  0  0  0  0
   -5.8990   23.6029  -28.7455 H   0  0  0  0  0  0  0  0  0  0  0  0
   -3.3012   23.1596  -27.8380 H   0  0  0  0  0  0  0  0  0  0  0  0
   -3.9572   22.3126  -29.2245 H   0  0  0  0  0  0  0  0  0  0  0  0
   -2.1670   24.7529  -29.0990 H   0  0  0  0  0  0  0  0  0  0  0  0
   -2.1895   23.4368  -30.3145 H   0  0  0  0  0  0  0  0  0  0  0  0
   -8.9135   22.7721  -31.9126 H   0  0  0  0  0  0  0  0  0  0  0  0
   -8.0661   22.1537  -33.3633 H   0  0  0  0  0  0  0  0  0  0  0  0
   -8.5114   20.7154  -30.7007 H   0  0  0  0  0  0  0  0  0  0  0  0
   -9.1837   20.2867  -32.3249 H   0  0  0  0  0  0  0  0  0  0  0  0
   -3.1543   20.6972  -30.5703 H   0  0  0  0  0  0  0  0  0  0  0  0
  1  2  1  0
  2  3  1  0
  3  4  1  0
  3  5  1  0
  5  6  1  0
  6  7  1  0
  7  8  1  0
  8  9  1  0
  9 10  2  0
 10 11  1  0
 11 12  1  0
 12 13  1  0
 11 14  2  0
 14 15  1  0
 15 16  1  0
 16 17  2  0
 17 18  1  0
 18 19  2  0
 19 20  1  0
 19 21  1  0
 21 22  2  0
 22 23  1  0
 23 24  1  0
 24 25  1  0
 25 26  2  0
 25 27  1  0
 27 28  1  0
 28 29  1  0
 29 30  1  0
 30 31  1  0
 31 32  1  0
 24 33  1  0
 33 34  1  0
 15 35  2  0
 35  9  1  0
 22 16  1  0
 32 28  1  0
 34 21  1  0
  1 36  1  0
  1 37  1  0
  1 38  1  0
  2 39  1  0
  2 40  1  0
  3 41  1  6
  4 42  1  0
  4 43  1  0
  4 44  1  0
  5 45  1  0
  5 46  1  0
  6 47  1  0
  6 48  1  0
  7 49  1  0
  8 50  1  0
  8 51  1  0
 10 52  1  0
 13 53  1  0
 13 54  1  0
 13 55  1  0
 14 56  1  0
 17 57  1  0
 18 58  1  0
 23 59  1  0
 23 60  1  0
 27 61  1  0
 27 62  1  0
 28 63  1  1
 29 64  1  0
 29 65  1  0
 30 66  1  0
 30 67  1  0
 31 68  1  0
 31 69  1  0
 33 70  1  0
 33 71  1  0
 34 72  1  0
 34 73  1  0
 35 74  1  0
M  CHG  1   3   1
M  END
>  <UniqueID>  (2) 
2

>  <SMILES>  (2) 
CC[N@H+](C)CCNCc1cc(OC)cc(-c2ccc(F)c3c2CN(C(=O)C[C@H]2CCCO2)CC3)c1

>  <Energy>  (2) 
87.44653118143263

>  <Genealogy>  (2) 
CC[NH+](C)CCNCc1cc(OC)cc(-c2ccc(F)c3c2CN(C(=O)CC2CCCO2)CC3)c1 (protonated)
CC[N@H+](C)CCNCc1cc(OC)cc(-c2ccc(F)c3c2CN(C(=O)C[C@H]2CCCO2)CC3)c1 (chirality)
CC[N@H+](C)CCNCc1cc(OC)cc(-c2ccc(F)c3c2CN(C(=O)C[C@H]2CCCO2)CC3)c1 (3D coordinates assigned)
CC[N@H+](C)CCNCc1cc(OC)cc(-c2ccc(F)c3c2CN(C(=O)C[C@H]2CCCO2)CC3)c1 (nonaromatic ring conformer: 87.44653118143263 kcal/mol)

>  <smiles>  (2) 
CCN(C)CCNCc1cc(OC)cc(-c2ccc(F)c3c2CN(C(=O)CC2CCCO2)CC3)c1

>  <score_type>  (2) 
oracle

>  <origin>  (2) 
adg

>  <m_score__min__energy>  (2) 
-10.23

>  <m_primary>  (2) 
energy

$$$$
2:0
     RDKit          3D

 78 81  0  0  0  0  0  0  0  0999 V2000
   -9.0980   20.3420  -31.9560 C   0  0  0  0  0  0  0  0  0  0  0  0
   -9.0450   18.8730  -32.3540 C   0  0  0  0  0  0  0  0  0  0  0  0
   -7.6300   18.4440  -32.4650 N   0  0  0  0  0  0  0  0  0  0  0  0
   -6.8420   18.6800  -31.2360 C   0  0  0  0  0  0  0  0  0  0  0  0
   -6.1030   17.4140  -30.8110 C   0  0  0  0  0  0  0  0  0  0  0  0
   -7.4860   17.0650  -32.9850 C   0  0  0  0  0  0  0  0  0  0  0  0
   -6.4880   16.9510  -34.1620 C   0  0  0  0  0  0  0  0  0  0  0  0
   -6.1160   18.2680  -34.7130 N   0  0  0  0  0  0  0  0  0  0  0  0
   -4.8140   18.7180  -34.2300 C   0  0  0  0  0  0  0  0  0  0  0  0
   -3.6380   17.9300  -34.4170 C   0  0  0  0  0  0  0  0  0  0  0  0
   -3.6650   16.6530  -35.0390 C   0  0  0  0  0  0  0  0  0  0  0  0
   -2.5130   15.8790  -35.1550 C   0  0  0  0  0  0  0  0  0  0  0  0
   -1.3100   16.3380  -34.6460 C   0  0  0  0  0  0  0  0  0  0  0  0
   -1.2410   17.5930  -34.0550 C   0  0  0  0  0  0  0  0  0  0  0  0
   -2.3840   18.4310  -33.9650 C   0  0  0  0  0  0  0  0  0  0  0  0
   -2.2870   19.7010  -33.4400 N   0  0  0  0  0  0  0  0  0  0  0  0
   -0.9600   20.3460  -33.3060 C   0  0  0  0  0  0  0  0  0  0  0  0
   -3.4250   20.3920  -33.0820 C   0  0  0  0  0  0  0  0  0  0  0  0
   -3.3480   21.5410  -32.2560 C   0  0  0  0  0  0  0  0  0  0  0  0
   -4.4770   22.3150  -31.9550 C   0  0  0  0  0  0  0  0  0  0  0  0
   -4.3720   23.4760  -31.1500 C   0  0  0  0  0  0  0  0  0  0  0  0
   -3.0990   23.8130  -30.6490 O   0  0  0  0  0  0  0  0  0  0  0  0
   -2.6640   23.7300  -29.2950 C   0  0  0  0  0  0  0  0  0  0  0  0
   -2.0760   22.3420  -29.0240 C   0  0  0  0  0  0  0  0  0  0  0  0
   -2.9790   21.4770  -28.1290 C   0  0  0  0  0  0  0  0  0  0  0  0
   -2.5330   20.0660  -28.1030 N   0  0  0  0  0  0  0  0  0  0  0  0
   -2.7740   19.4830  -26.7730 C   0  0  0  0  0  0  0  0  0  0  0  0
   -1.1040   19.9560  -28.4400 C   0  0  0  0  0  0  0  0  0  0  0  0
   -5.5340   24.2440  -30.8790 C   0  0  0  0  0  0  0  0  0  0  0  0
   -5.4450   25.3810  -30.0600 O   0  0  0  0  0  0  0  0  0  0  0  0
   -6.4330   25.7870  -29.1180 C   0  0  0  0  0  0  0  0  0  0  0  0
   -6.7660   23.8460  -31.4290 C   0  0  0  0  0  0  0  0  0  0  0  0
   -6.8580   22.7020  -32.2170 C   0  0  0  0  0  0  0  0  0  0  0  0
   -5.7230   21.9290  -32.4790 C   0  0  0  0  0  0  0  0  0  0  0  0
   -5.8280   20.7640  -33.2490 C   0  0  0  0  0  0  0  0  0  0  0  0
   -4.7000   19.9530  -33.5260 C   0  0  0  0  0  0  0  0  0  0  0  0
   -9.1010   20.4248  -30.8591 H   0  0  0  0  0  0  0  0  0  0  0  0
   -8.2181   20.8635  -32.3607 H   0  0  0  0  0  0  0  0  0  0  0  0
  -10.0132   20.7987  -32.3607 H   0  0  0  0  0  0  0  0  0  0  0  0
   -9.5534   18.2670  -31.5896 H   0  0  0  0  0  0  0  0  0  0  0  0
   -9.5477   18.7363  -33.3228 H   0  0  0  0  0  0  0  0  0  0  0  0
   -6.1092   19.4781  -31.4258 H   0  0  0  0  0  0  0  0  0  0  0  0
   -7.5294   18.9733  -30.4288 H   0  0  0  0  0  0  0  0  0  0  0  0
   -6.0711   17.3593  -29.7128 H   0  0  0  0  0  0  0  0  0  0  0  0
   -6.6283   16.5324  -31.2069 H   0  0  0  0  0  0  0  0  0  0  0  0
   -5.0770   17.4379  -31.2069 H   0  0  0  0  0  0  0  0  0  0  0  0
   -7.1348   16.4191  -32.1668 H   0  0  0  0  0  0  0  0  0  0  0  0
   -8.4714   16.7576  -33.3650 H   0  0  0  0  0  0  0  0  0  0  0  0
   -5.5775   16.4471  -33.8056 H   0  0  0  0  0  0  0  0  0  0  0  0
   -6.9780   16.3783  -34.9632 H   0  0  0  0  0  0  0  0  0  0  0  0
   -6.1120   18.2180  -35.7560 H   0  0  0  0  0  0  0  0  0  0  0  0
   -6.8840   18.9470  -34.5450 H   0  0  0  0  0  0  0  0  0  0  0  0
   -4.6153   16.2677  -35.4371 H   0  0  0  0  0  0  0  0  0  0  0  0
   -2.5591   14.8992  -35.6529 H   0  0  0  0  0  0  0  0  0  0  0  0
   -0.4096   15.7093  -34.7096 H   0  0  0  0  0  0  0  0  0  0  0  0
   -0.2815   17.9450  -33.6484 H   0  0  0  0  0  0  0  0  0  0  0  0
   -0.7159   20.4646  -32.2400 H   0  0  0  0  0  0  0  0  0  0  0  0
   -0.1968   19.7184  -33.7893 H   0  0  0  0  0  0  0  0  0  0  0  0
   -0.9820   21.3339  -33.7893 H   0  0  0  0  0  0  0  0  0  0  0  0
   -2.3733   21.8340  -31.8388 H   0  0  0  0  0  0  0  0  0  0  0  0
   -1.8951   24.4948  -29.1108 H   0  0  0  0  0  0  0  0  0  0  0  0
   -3.5214   23.8984  -28.6267 H   0  0  0  0  0  0  0  0  0  0  0  0
   -1.9357   21.8259  -29.9852 H   0  0  0  0  0  0  0  0  0  0  0  0
   -1.1225   22.4838  -28.4942 H   0  0  0  0  0  0  0  0  0  0  0  0
   -2.9548   21.8775  -27.1048 H   0  0  0  0  0  0  0  0  0  0  0  0
   -3.9990   21.5069  -28.5397 H   0  0  0  0  0  0  0  0  0  0  0  0
   -2.4761   20.2037  -25.9973 H   0  0  0  0  0  0  0  0  0  0  0  0
   -3.8430   19.2479  -26.6639 H   0  0  0  0  0  0  0  0  0  0  0  0
   -2.1830   18.5617  -26.6639 H   0  0  0  0  0  0  0  0  0  0  0  0
   -0.5114   19.9104  -27.5144 H   0  0  0  0  0  0  0  0  0  0  0  0
   -0.9354   19.0422  -29.0287 H   0  0  0  0  0  0  0  0  0  0  0  0
   -0.7975   20.8332  -29.0287 H   0  0  0  0  0  0  0  0  0  0  0  0
   -6.0529   25.6308  -28.0976 H   0  0  0  0  0  0  0  0  0  0  0  0
   -6.6632   26.8526  -29.2644 H   0  0  0  0  0  0  0  0  0  0  0  0
   -7.3460   25.1912  -29.2644 H   0  0  0  0  0  0  0  0  0  0  0  0
   -7.6673   24.4457  -31.2342 H   0  0  0  0  0  0  0  0  0  0  0  0
   -7.8304   22.4043  -32.6363 H   0  0  0  0  0  0  0  0  0  0  0  0
   -6.8103   20.4715  -33.6485 H   0  0  0  0  0  0  0  0  0  0  0  0
  1  2  1  0
  2  3  1  0
  3  4  1  0
  4  5  1  0
  3  6  1  0
  6  7  1  0
  7  8  1  0
  8  9  1  0
  9 10  2  0
 10 11  1  0
 11 12  2  0
 12 13  1  0
 13 14  2  0
 14 15  1  0
 15 16  2  0
 16 17  1  0
 16 18  1  0
 18 19  2  0
 19 20  1  0
 20 21  2  0
 21 22  1  0
 22 23  1  0
 23 24  1  0
 24 25  1  0
 25 26  1  0
 26 27  1  0
 26 28  1  0
 21 29  1  0
 29 30  1  0
 30 31  1  0
 29 32  2  0
 32 33  1  0
 33 34  2  0
 34 35  1  0
 35 36  2  0
 36  9  1  0
 15 10  1  0
 36 18  1  0
 34 20  1  0
  1 37  1  0
  1 38  1  0
  1 39  1  0
  2 40  1  0
  2 41  1  0
  4 42  1  0
  4 43  1  0
  5 44  1  0
  5 45  1  0
  5 46  1  0
  6 47  1  0
  6 48  1  0
  7 49  1  0
  7 50  1  0
  8 51  1  0
  8 52  1  0
 11 53  1  0
 12 54  1  0
 13 55  1  0
 14 56  1  0
 17 57  1  0
 17 58  1  0
 17 59  1  0
 19 60  1  0
 23 61  1  0
 23 62  1  0
 24 63  1  0
 24 64  1  0
 25 65  1  0
 25 66  1  0
 27 67  1  0
 27 68  1  0
 27 69  1  0
 28 70  1  0
 28 71  1  0
 28 72  1  0
 31 73  1  0
 31 74  1  0
 31 75  1  0
 32 76  1  0
 33 77  1  0
 35 78  1  0
M  CHG  2   8   1  16   1
M  END
>  <UniqueID>  (3) 
3

>  <SMILES>  (3) 
CCN(CC)CC[NH2+]c1c2ccccc2[n+](C)c2cc3c(OCCCN(C)C)c(OC)ccc3cc12

>  <Energy>  (3) 
113.57708069884312

>  <Genealogy>  (3) 
CCN(CC)CC[NH2+]c1c2ccccc2[n+](C)c2cc3c(OCCCN(C)C)c(OC)ccc3cc12 (protonated)
CCN(CC)CC[NH2+]c1c2ccccc2[n+](C)c2cc3c(OCCCN(C)C)c(OC)ccc3cc12 (3D coordinates assigned)
CCN(CC)CC[NH2+]c1c2ccccc2[n+](C)c2cc3c(OCCCN(C)C)c(OC)ccc3cc12 (optimized conformer: 113.57708069884312 kcal/mol)

>  <smiles>  (3) 
CCN(CC)CCNc1c2ccccc2[n+](C)c2cc3c(OCCCN(C)C)c(OC)ccc3cc12

>  <score_type>  (3) 
oracle

>  <origin>  (3) 
adg

>  <m_score__min__energy>  (3) 
-8.0899999999999999

>  <m_primary>  (3) 
energy

$$$$
3:0
     RDKit          3D

 33 34  0  0  0  0  0  0  0  0999 V2000
   -1.4120   25.1770  -28.2970 Br  0  0  0  0  0  0  0  0  0  0  0  0
   -2.9940   24.0770  -28.5240 C   0  0  0  0  0  0  0  0  0  0  0  0
   -3.2180   23.7160  -29.9910 C   0  0  0  0  0  0  0  0  0  0  0  0
   -3.7520   24.8710  -30.7300 N   0  0  0  0  0  0  0  0  0  0  0  0
   -5.0830   25.2530  -30.2350 C   0  0  0  0  0  0  0  0  0  0  0  0
   -6.1680   24.7630  -31.1960 C   0  0  0  0  0  0  0  0  0  0  0  0
   -5.5430   23.4180  -32.2650 S   0  0  0  0  0  0  0  0  0  0  0  0
   -7.0280   22.4020  -32.1370 C   0  0  0  0  0  0  0  0  0  0  0  0
   -8.2370   23.0390  -31.8310 C   0  0  0  0  0  0  0  0  0  0  0  0
   -9.4190   22.3070  -31.7180 C   0  0  0  0  0  0  0  0  0  0  0  0
   -9.4130   20.9280  -31.9180 C   0  0  0  0  0  0  0  0  0  0  0  0
   -8.2180   20.2660  -32.2390 C   0  0  0  0  0  0  0  0  0  0  0  0
   -8.2180   18.8780  -32.4460 C   0  0  0  0  0  0  0  0  0  0  0  0
   -7.0310   18.2170  -32.7680 C   0  0  0  0  0  0  0  0  0  0  0  0
   -5.8400   18.9320  -32.8880 C   0  0  0  0  0  0  0  0  0  0  0  0
   -5.8240   20.3140  -32.6860 C   0  0  0  0  0  0  0  0  0  0  0  0
   -7.0100   21.0030  -32.3570 C   0  0  0  0  0  0  0  0  0  0  0  0
   -2.8723   23.1512  -27.9425 H   0  0  0  0  0  0  0  0  0  0  0  0
   -3.8655   24.6484  -28.1719 H   0  0  0  0  0  0  0  0  0  0  0  0
   -2.2608   23.4107  -30.4389 H   0  0  0  0  0  0  0  0  0  0  0  0
   -3.9434   22.8910  -30.0477 H   0  0  0  0  0  0  0  0  0  0  0  0
   -3.1110   25.6810  -30.5610 H   0  0  0  0  0  0  0  0  0  0  0  0
   -5.2449   24.8023  -29.2447 H   0  0  0  0  0  0  0  0  0  0  0  0
   -5.1370   26.3494  -30.1636 H   0  0  0  0  0  0  0  0  0  0  0  0
   -7.0228   24.3903  -30.6126 H   0  0  0  0  0  0  0  0  0  0  0  0
   -6.4734   25.6041  -31.8358 H   0  0  0  0  0  0  0  0  0  0  0  0
   -8.2547   24.1282  -31.6781 H   0  0  0  0  0  0  0  0  0  0  0  0
  -10.3597   22.8204  -31.4700 H   0  0  0  0  0  0  0  0  0  0  0  0
  -10.3481   20.3564  -31.8239 H   0  0  0  0  0  0  0  0  0  0  0  0
   -9.1552   18.3095  -32.3544 H   0  0  0  0  0  0  0  0  0  0  0  0
   -7.0355   17.1286  -32.9275 H   0  0  0  0  0  0  0  0  0  0  0  0
   -4.9086   18.4052  -33.1430 H   0  0  0  0  0  0  0  0  0  0  0  0
   -4.8795   20.8692  -32.7842 H   0  0  0  0  0  0  0  0  0  0  0  0
  1  2  1  0
  2  3  1  0
  3  4  1  0
  4  5  1  0
  5  6  1  0
  6  7  1  0
  7  8  1  0
  8  9  2  0
  9 10  1  0
 10 11  2  0
 11 12  1  0
 12 13  2  0
 13 14  1  0
 14 15  2  0
 15 16  1  0
 16 17  2  0
 17  8  1  0
 17 12  1  0
  2 18  1  0
  2 19  1  0
  3 20  1  0
  3 21  1  0
  4 22  1  0
  5 23  1  0
  5 24  1  0
  6 25  1  0
  6 26  1  0
  9 27  1  0
 10 28  1  0
 11 29  1  0
 13 30  1  0
 14 31  1  0
 15 32  1  0
 16 33  1  0
M  END
>  <UniqueID>  (4) 
4

>  <SMILES>  (4) 
BrCCNCCSc1cccc2ccccc12

>  <Energy>  (4) 
29.357389235711604

>  <Genealogy>  (4) 
BrCCNCCSc1cccc2ccccc12 (3D coordinates assigned)
BrCCNCCSc1cccc2ccccc12 (optimized conformer: 29.357389235711604 kcal/mol)

>  <smiles>  (4) 
BrCCNCCSc1cccc2ccccc12

>  <score_type>  (4) 
oracle

>  <origin>  (4) 
adg

>  <m_score__min__energy>  (4) 
-8.5800000000000001

>  <m_primary>  (4) 
energy

$$$$
4:0
     RDKit          3D

 55 58  0  0  0  0  0  0  0  0999 V2000
   -9.3600   21.5760  -31.5140 C   0  0  0  0  0  0  0  0  0  0  0  0
   -9.1050   20.7610  -32.6360 O   0  0  0  0  0  0  0  0  0  0  0  0
   -8.9770   19.4180  -32.2200 C   0  0  0  0  0  0  0  0  0  0  0  0
   -7.5660   19.1940  -31.6770 C   0  0  0  0  0  0  0  0  0  0  0  0
   -6.5650   19.7300  -32.6260 N   0  0  0  0  0  0  0  0  0  0  0  0
   -6.4190   18.8920  -33.8440 C   0  0  0  0  0  0  0  0  0  0  0  0
   -5.1800   18.0020  -33.8000 C   0  0  0  0  0  0  0  0  0  0  0  0
   -3.9770   18.8740  -33.6590 C   0  0  0  0  0  0  0  0  0  0  0  0
   -2.7900   18.5890  -34.3650 C   0  0  0  0  0  0  0  0  0  0  0  0
   -1.6990   19.4280  -34.1670 C   0  0  0  0  0  0  0  0  0  0  0  0
   -1.7490   20.4820  -33.3150 C   0  0  0  0  0  0  0  0  0  0  0  0
   -2.8950   20.7900  -32.5890 C   0  0  0  0  0  0  0  0  0  0  0  0
   -4.0490   19.9880  -32.7830 C   0  0  0  0  0  0  0  0  0  0  0  0
   -5.3120   20.1790  -31.9480 C   0  0  1  0  0  0  0  0  0  0  0  0
   -5.5000   21.6250  -31.5380 C   0  0  0  0  0  0  0  0  0  0  0  0
   -6.2040   22.5160  -32.3610 C   0  0  0  0  0  0  0  0  0  0  0  0
   -6.3810   23.8450  -31.9750 C   0  0  0  0  0  0  0  0  0  0  0  0
   -5.8460   24.3130  -30.7590 C   0  0  0  0  0  0  0  0  0  0  0  0
   -6.0010   25.6480  -30.3470 O   0  0  0  0  0  0  0  0  0  0  0  0
   -6.5030   26.0470  -29.0750 C   0  0  0  0  0  0  0  0  0  0  0  0
   -5.1240   23.4300  -29.9340 C   0  0  0  0  0  0  0  0  0  0  0  0
   -4.5920   23.8940  -28.6820 N   0  0  0  0  0  0  0  0  0  0  0  0
   -3.3110   24.5300  -28.5460 C   0  0  0  0  0  0  0  0  0  0  0  0
   -2.7600   24.8060  -27.1860 C   0  0  0  0  0  0  0  0  0  0  0  0
   -2.6740   24.9160  -29.5640 O   0  0  0  0  0  0  0  0  0  0  0  0
   -4.9730   22.0860  -30.3220 C   0  0  0  0  0  0  0  0  0  0  0  0
   -0.5270   21.1240  -33.3040 O   0  0  0  0  0  0  0  0  0  0  0  0
    0.3440   20.4340  -34.2120 C   0  0  0  0  0  0  0  0  0  0  0  0
   -0.4430   19.3560  -34.7380 O   0  0  0  0  0  0  0  0  0  0  0  0
   -9.1799   21.0003  -30.5941 H   0  0  0  0  0  0  0  0  0  0  0  0
   -8.6924   22.4499  -31.5363 H   0  0  0  0  0  0  0  0  0  0  0  0
  -10.4067   21.9135  -31.5363 H   0  0  0  0  0  0  0  0  0  0  0  0
   -9.7133   19.2052  -31.4309 H   0  0  0  0  0  0  0  0  0  0  0  0
   -9.1560   18.7474  -33.0734 H   0  0  0  0  0  0  0  0  0  0  0  0
   -7.4624   19.7080  -30.7100 H   0  0  0  0  0  0  0  0  0  0  0  0
   -7.3973   18.1148  -31.5471 H   0  0  0  0  0  0  0  0  0  0  0  0
   -7.3088   18.2524  -33.9401 H   0  0  0  0  0  0  0  0  0  0  0  0
   -6.3114   19.5700  -34.7035 H   0  0  0  0  0  0  0  0  0  0  0  0
   -5.2450   17.3173  -32.9415 H   0  0  0  0  0  0  0  0  0  0  0  0
   -5.1093   17.4076  -34.7228 H   0  0  0  0  0  0  0  0  0  0  0  0
   -2.7291   17.7307  -35.0502 H   0  0  0  0  0  0  0  0  0  0  0  0
   -2.9061   21.6334  -31.8829 H   0  0  0  0  0  0  0  0  0  0  0  0
   -5.1488   19.5410  -31.0669 H   0  0  0  0  0  0  0  0  0  0  0  0
   -6.6193   22.1648  -33.3171 H   0  0  0  0  0  0  0  0  0  0  0  0
   -6.9424   24.5323  -32.6250 H   0  0  0  0  0  0  0  0  0  0  0  0
   -5.9072   25.5735  -28.2807 H   0  0  0  0  0  0  0  0  0  0  0  0
   -6.4359   27.1409  -28.9810 H   0  0  0  0  0  0  0  0  0  0  0  0
   -7.5535   25.7347  -28.9810 H   0  0  0  0  0  0  0  0  0  0  0  0
   -5.1950   23.8320  -27.8300 H   0  0  0  0  0  0  0  0  0  0  0  0
   -3.4693   24.4507  -26.4240 H   0  0  0  0  0  0  0  0  0  0  0  0
   -1.8001   24.2823  -27.0660 H   0  0  0  0  0  0  0  0  0  0  0  0
   -2.6046   25.8883  -27.0660 H   0  0  0  0  0  0  0  0  0  0  0  0
   -4.4350   21.3879  -29.6638 H   0  0  0  0  0  0  0  0  0  0  0  0
    0.6691   21.1052  -35.0206 H   0  0  0  0  0  0  0  0  0  0  0  0
    1.2565   20.0737  -33.7144 H   0  0  0  0  0  0  0  0  0  0  0  0
  1  2  1  0
  2  3  1  0
  3  4  1  0
  4  5  1  0
  5  6  1  0
  6  7  1  0
  7  8  1  0
  8  9  2  0
  9 10  1  0
 10 11  2  0
 11 12  1  0
 12 13  2  0
 13 14  1  0
 14 15  1  0
 15 16  2  0
 16 17  1  0
 17 18  2  0
 18 19  1  0
 19 20  1  0
 18 21  1  0
 21 22  1  0
 22 23  1  0
 23 24  1  0
 23 25  2  0
 21 26  2  0
 11 27  1  0
 27 28  1  0
 28 29  1  0
 14  5  1  0
 26 15  1  0
 13  8  1  0
 29 10  1  0
  1 30  1  0
  1 31  1  0
  1 32  1  0
  3 33  1  0
  3 34  1  0
  4 35  1  0
  4 36  1  0
  6 37  1  0
  6 38  1  0
  7 39  1  0
  7 40  1  0
  9 41  1  0
 12 42  1  0
 14 43  1  1
 16 44  1  0
 17 45  1  0
 20 46  1  0
 20 47  1  0
 20 48  1  0
 22 49  1  0
 24 50  1  0
 24 51  1  0
 24 52  1  0
 26 53  1  0
 28 54  1  0
 28 55  1  0
M  END
>  <UniqueID>  (5) 
5

>  <SMILES>  (5) 
COCCN1CCc2cc3c(cc2[C@H]1c1ccc(OC)c(NC(C)=O)c1)OCO3

>  <Energy>  (5) 
98.86513971282614

>  <Genealogy>  (5) 
COCCN1CCc2cc3c(cc2[C@H]1c1ccc(OC)c(NC(C)=O)c1)OCO3 (chirality)
COCCN1CCc2cc3c(cc2[C@H]1c1ccc(OC)c(NC(C)=O)c1)OCO3 (3D coordinates assigned)
COCCN1CCc2cc3c(cc2[C@H]1c1ccc(OC)c(NC(C)=O)c1)OCO3 (nonaromatic ring conformer: 98.86513971282614 kcal/mol)

>  <smiles>  (5) 
COCCN1CCc2cc3c(cc2C1c1ccc(OC)c(NC(C)=O)c1)OCO3

>  <score_type>  (5) 
oracle

>  <origin>  (5) 
adg

>  <m_score__min__energy>  (5) 
-8.5099999999999998

>  <m_primary>  (5) 
energy

$$$$
5:0
     RDKit          3D

 35 36  0  0  0  0  0  0  0  0999 V2000
   -3.2370   24.5440  -27.1040 C   0  0  0  0  0  0  0  0  0  0  0  0
   -2.2160   24.8480  -28.1870 C   0  0  0  0  0  0  0  0  0  0  0  0
   -2.8870   25.2790  -29.3680 O   0  0  0  0  0  0  0  0  0  0  0  0
   -3.9750   24.6120  -29.9490 C   0  0  0  0  0  0  0  0  0  0  0  0
   -5.2670   25.1950  -30.0310 C   0  0  0  0  0  0  0  0  0  0  0  0
   -6.3320   24.4930  -30.6210 C   0  0  0  0  0  0  0  0  0  0  0  0
   -6.0990   23.2150  -31.1250 C   0  0  0  0  0  0  0  0  0  0  0  0
   -7.0420   22.4380  -31.7150 N   0  0  0  0  0  0  0  0  0  0  0  0
   -6.5170   21.2510  -32.0990 C   0  0  0  0  0  0  0  0  0  0  0  0
   -7.4540   19.9960  -32.8940 S   0  0  0  0  0  0  0  0  0  0  0  0
   -6.8590   19.7290  -34.2480 O   0  0  0  0  0  0  0  0  0  0  0  0
   -8.8580   20.4940  -33.0900 O   0  0  0  0  0  0  0  0  0  0  0  0
   -7.4630   18.5140  -31.9610 N   0  0  0  0  0  0  0  0  0  0  0  0
   -8.8430   18.1990  -31.5680 C   0  0  0  0  0  0  0  0  0  0  0  0
   -6.8670   17.4000  -32.7260 C   0  0  0  0  0  0  0  0  0  0  0  0
   -5.6910   16.8040  -31.9590 C   0  0  0  0  0  0  0  0  0  0  0  0
   -4.8700   21.1190  -31.7280 S   0  0  0  0  0  0  0  0  0  0  0  0
   -4.8370   22.6510  -31.0430 C   0  0  0  0  0  0  0  0  0  0  0  0
   -3.7630   23.3210  -30.4650 C   0  0  0  0  0  0  0  0  0  0  0  0
   -2.7748   24.6816  -26.1153 H   0  0  0  0  0  0  0  0  0  0  0  0
   -4.0940   25.2259  -27.2062 H   0  0  0  0  0  0  0  0  0  0  0  0
   -3.5814   23.5043  -27.2062 H   0  0  0  0  0  0  0  0  0  0  0  0
   -1.5392   25.6425  -27.8396 H   0  0  0  0  0  0  0  0  0  0  0  0
   -1.6351   23.9402  -28.4071 H   0  0  0  0  0  0  0  0  0  0  0  0
   -5.4359   26.2050  -29.6292 H   0  0  0  0  0  0  0  0  0  0  0  0
   -7.3329   24.9449  -30.6839 H   0  0  0  0  0  0  0  0  0  0  0  0
   -8.9170   18.1821  -30.4706 H   0  0  0  0  0  0  0  0  0  0  0  0
   -9.5226   18.9651  -31.9696 H   0  0  0  0  0  0  0  0  0  0  0  0
   -9.1228   17.2139  -31.9696 H   0  0  0  0  0  0  0  0  0  0  0  0
   -7.6276   16.6219  -32.8870 H   0  0  0  0  0  0  0  0  0  0  0  0
   -6.5084   17.7806  -33.6938 H   0  0  0  0  0  0  0  0  0  0  0  0
   -5.8735   16.8965  -30.8782 H   0  0  0  0  0  0  0  0  0  0  0  0
   -5.5817   15.7417  -32.2228 H   0  0  0  0  0  0  0  0  0  0  0  0
   -4.7697   17.3440  -32.2228 H   0  0  0  0  0  0  0  0  0  0  0  0
   -2.7698   22.8511  -30.4128 H   0  0  0  0  0  0  0  0  0  0  0  0
  1  2  1  0
  2  3  1  0
  3  4  1  0
  4  5  2  0
  5  6  1  0
  6  7  2  0
  7  8  1  0
  8  9  2  0
  9 10  1  0
 10 11  2  0
 10 12  2  0
 10 13  1  0
 13 14  1  0
 13 15  1  0
 15 16  1  0
  9 17  1  0
 17 18  1  0
 18 19  2  0
 19  4  1  0
 18  7  1  0
  1 20  1  0
  1 21  1  0
  1 22  1  0
  2 23  1  0
  2 24  1  0
  5 25  1  0
  6 26  1  0
 14 27  1  0
 14 28  1  0
 14 29  1  0
 15 30  1  0
 15 31  1  0
 16 32  1  0
 16 33  1  0
 16 34  1  0
 19 35  1  0
M  END
>  <UniqueID>  (6) 
6

>  <SMILES>  (6) 
CCOc1ccc2nc(S(=O)(=O)N(C)CC)sc2c1

>  <Energy>  (6) 
63.13999809377999

>  <Genealogy>  (6) 
CCOc1ccc2nc(S(=O)(=O)N(C)CC)sc2c1 (3D coordinates assigned)
CCOc1ccc2nc(S(=O)(=O)N(C)CC)sc2c1 (optimized conformer: 63.13999809377999 kcal/mol)

>  <smiles>  (6) 
CCOc1ccc2nc(S(=O)(=O)N(C)CC)sc2c1

>  <score_type>  (6) 
oracle

>  <origin>  (6) 
adg

>  <m_score__min__energy>  (6) 
-7.5099999999999998

>  <m_primary>  (6) 
energy

$$$$
6:0
     RDKit          3D

 43 44  0  0  0  0  0  0  0  0999 V2000
   -5.3640   25.7060  -30.4290 C   0  0  0  0  0  0  0  0  0  0  0  0
   -6.5350   24.9790  -29.7670 C   0  0  0  0  0  0  0  0  0  0  0  0
   -6.8980   23.6700  -30.4840 C   0  0  0  0  0  0  0  0  0  0  0  0
   -6.7150   23.7580  -32.0040 C   0  0  0  0  0  0  0  0  0  0  0  0
   -5.3490   23.3600  -32.3650 N   0  0  0  0  0  0  0  0  0  0  0  0
   -4.7240   22.5340  -31.3200 C   0  0  0  0  0  0  0  0  0  0  0  0
   -3.4680   21.8450  -31.8130 C   0  0  0  0  0  0  0  0  0  0  0  0
   -2.2570   22.0750  -31.1380 C   0  0  0  0  0  0  0  0  0  0  0  0
   -1.0740   21.4830  -31.5830 C   0  0  0  0  0  0  0  0  0  0  0  0
   -1.0870   20.6550  -32.7030 C   0  0  0  0  0  0  0  0  0  0  0  0
   -2.2820   20.4150  -33.3850 C   0  0  0  0  0  0  0  0  0  0  0  0
   -3.4850   21.0090  -32.9520 C   0  0  0  0  0  0  0  0  0  0  0  0
   -4.7050   20.7880  -33.6160 O   0  0  0  0  0  0  0  0  0  0  0  0
   -5.3430   19.5210  -33.7880 C   0  0  0  0  0  0  0  0  0  0  0  0
   -6.6390   19.4740  -33.0240 C   0  0  0  0  0  0  0  0  0  0  0  0
   -7.3430   20.6520  -32.7250 C   0  0  0  0  0  0  0  0  0  0  0  0
   -8.5450   20.5920  -32.0110 C   0  0  0  0  0  0  0  0  0  0  0  0
   -9.0540   19.3570  -31.5990 C   0  0  0  0  0  0  0  0  0  0  0  0
   -8.3650   18.1800  -31.9030 C   0  0  0  0  0  0  0  0  0  0  0  0
   -7.1620   18.2370  -32.6140 C   0  0  0  0  0  0  0  0  0  0  0  0
   -4.7017   26.1172  -29.6529 H   0  0  0  0  0  0  0  0  0  0  0  0
   -4.8002   24.9989  -31.0552 H   0  0  0  0  0  0  0  0  0  0  0  0
   -5.7477   26.5250  -31.0552 H   0  0  0  0  0  0  0  0  0  0  0  0
   -6.2632   24.7473  -28.7266 H   0  0  0  0  0  0  0  0  0  0  0  0
   -7.4113   25.6418  -29.8190 H   0  0  0  0  0  0  0  0  0  0  0  0
   -6.2534   22.8666  -30.0978 H   0  0  0  0  0  0  0  0  0  0  0  0
   -7.9614   23.4676  -30.2883 H   0  0  0  0  0  0  0  0  0  0  0  0
   -7.4333   23.0868  -32.4976 H   0  0  0  0  0  0  0  0  0  0  0  0
   -6.8896   24.7936  -32.3312 H   0  0  0  0  0  0  0  0  0  0  0  0
   -5.3740   22.8180  -33.2620 H   0  0  0  0  0  0  0  0  0  0  0  0
   -4.4637   23.1782  -30.4672 H   0  0  0  0  0  0  0  0  0  0  0  0
   -5.4444   21.7559  -31.0274 H   0  0  0  0  0  0  0  0  0  0  0  0
   -2.2414   22.7267  -30.2520 H   0  0  0  0  0  0  0  0  0  0  0  0
   -0.1308   21.6704  -31.0489 H   0  0  0  0  0  0  0  0  0  0  0  0
   -0.1535   20.1888  -33.0513 H   0  0  0  0  0  0  0  0  0  0  0  0
   -2.2845   19.7574  -34.2668 H   0  0  0  0  0  0  0  0  0  0  0  0
   -5.5472   19.3609  -34.8570 H   0  0  0  0  0  0  0  0  0  0  0  0
   -4.6769   18.7331  -33.4064 H   0  0  0  0  0  0  0  0  0  0  0  0
   -6.9482   21.6249  -33.0531 H   0  0  0  0  0  0  0  0  0  0  0  0
   -9.0899   21.5176  -31.7737 H   0  0  0  0  0  0  0  0  0  0  0  0
   -9.9974   19.3117  -31.0352 H   0  0  0  0  0  0  0  0  0  0  0  0
   -8.7690   17.2082  -31.5830 H   0  0  0  0  0  0  0  0  0  0  0  0
   -6.6230   17.3084  -32.8532 H   0  0  0  0  0  0  0  0  0  0  0  0
  1  2  1  0
  2  3  1  0
  3  4  1  0
  4  5  1  0
  5  6  1  0
  6  7  1  0
  7  8  2  0
  8  9  1  0
  9 10  2  0
 10 11  1  0
 11 12  2  0
 12 13  1  0
 13 14  1  0
 14 15  1  0
 15 16  2  0
 16 17  1  0
 17 18  2  0
 18 19  1  0
 19 20  2  0
 12  7  1  0
 20 15  1  0
  1 21  1  0
  1 22  1  0
  1 23  1  0
  2 24  1  0
  2 25  1  0
  3 26  1  0
  3 27  1  0
  4 28  1  0
  4 29  1  0
  5 30  1  0
  6 31  1  0
  6 32  1  0
  8 33  1  0
  9 34  1  0
 10 35  1  0
 11 36  1  0
 14 37  1  0
 14 38  1  0
 16 39  1  0
 17 40  1  0
 18 41  1  0
 19 42  1  0
 20 43  1  0
M  END
>  <UniqueID>  (7) 
7

>  <SMILES>  (7) 
CCCCNCc1ccccc1OCc1ccccc1

>  <Energy>  (7) 
34.24901847624817

>  <Genealogy>  (7) 
CCCCNCc1ccccc1OCc1ccccc1 (3D coordinates assigned)
CCCCNCc1ccccc1OCc1ccccc1 (optimized conformer: 34.24901847624817 kcal/mol)

>  <smiles>  (7) 
CCCCNCc1ccccc1OCc1ccccc1

>  <score_type>  (7) 
oracle

>  <origin>  (7) 
adg

>  <m_score__min__energy>  (7) 
-7.1900000000000004

>  <m_primary>  (7) 
energy

$$$$
7:0
     RDKit          3D

 39 41  0  0  0  0  0  0  0  0999 V2000
   -3.9950   21.6820  -33.4520 C   0  0  0  0  0  0  0  0  0  0  0  0
   -5.1860   20.8720  -33.0180 C   0  0  0  0  0  0  0  0  0  0  0  0
   -6.3820   21.4010  -32.5230 C   0  0  0  0  0  0  0  0  0  0  0  0
   -6.7580   22.8470  -32.3440 C   0  0  0  0  0  0  0  0  0  0  0  0
   -5.6450   23.5900  -31.7220 N   0  0  0  0  0  0  0  0  0  0  0  0
   -6.1130   24.9030  -31.2290 C   0  0  0  0  0  0  0  0  0  0  0  0
   -5.0700   25.5800  -30.3130 C   0  0  0  0  0  0  0  0  0  0  0  0
   -3.7450   24.9690  -30.4630 N   0  0  0  0  0  0  0  0  0  0  0  0
   -3.7720   23.5410  -30.1040 C   0  0  0  0  0  0  0  0  0  0  0  0
   -5.0360   22.8220  -30.6200 C   0  0  0  0  0  0  0  0  0  0  0  0
   -7.1980   20.3120  -32.2860 C   0  0  0  0  0  0  0  0  0  0  0  0
   -8.4990   20.2440  -31.7880 C   0  0  0  0  0  0  0  0  0  0  0  0
   -9.0840   18.9750  -31.6470 C   0  0  0  0  0  0  0  0  0  0  0  0
   -8.3660   17.8140  -32.0020 C   0  0  0  0  0  0  0  0  0  0  0  0
   -7.0560   17.9110  -32.5060 C   0  0  0  0  0  0  0  0  0  0  0  0
   -6.4960   19.1860  -32.6450 C   0  0  0  0  0  0  0  0  0  0  0  0
   -5.2750   19.5180  -33.1190 N   0  0  0  0  0  0  0  0  0  0  0  0
   -4.2320   18.6030  -33.5870 C   0  0  0  0  0  0  0  0  0  0  0  0
   -3.4573   22.0477  -32.5648 H   0  0  0  0  0  0  0  0  0  0  0  0
   -3.3233   21.0526  -34.0543 H   0  0  0  0  0  0  0  0  0  0  0  0
   -4.3335   22.5380  -34.0543 H   0  0  0  0  0  0  0  0  0  0  0  0
   -6.9850   23.2876  -33.3260 H   0  0  0  0  0  0  0  0  0  0  0  0
   -7.6408   22.9100  -31.6908 H   0  0  0  0  0  0  0  0  0  0  0  0
   -6.3072   25.5578  -32.0912 H   0  0  0  0  0  0  0  0  0  0  0  0
   -7.0280   24.7396  -30.6407 H   0  0  0  0  0  0  0  0  0  0  0  0
   -5.0034   26.6464  -30.5745 H   0  0  0  0  0  0  0  0  0  0  0  0
   -5.3928   25.4519  -29.2693 H   0  0  0  0  0  0  0  0  0  0  0  0
   -3.4450   25.0610  -31.4640 H   0  0  0  0  0  0  0  0  0  0  0  0
   -2.8871   23.0522  -30.5376 H   0  0  0  0  0  0  0  0  0  0  0  0
   -3.7761   23.4741  -29.0060 H   0  0  0  0  0  0  0  0  0  0  0  0
   -4.7616   21.8206  -30.9833 H   0  0  0  0  0  0  0  0  0  0  0  0
   -5.7617   22.7375  -29.7977 H   0  0  0  0  0  0  0  0  0  0  0  0
   -9.0498   21.1559  -31.5142 H   0  0  0  0  0  0  0  0  0  0  0  0
  -10.1088   18.8859  -31.2572 H   0  0  0  0  0  0  0  0  0  0  0  0
   -8.8337   16.8254  -31.8839 H   0  0  0  0  0  0  0  0  0  0  0  0
   -6.4882   17.0105  -32.7829 H   0  0  0  0  0  0  0  0  0  0  0  0
   -3.7217   18.1553  -32.7215 H   0  0  0  0  0  0  0  0  0  0  0  0
   -4.6877   17.8080  -34.1955 H   0  0  0  0  0  0  0  0  0  0  0  0
   -3.5031   19.1583  -34.1955 H   0  0  0  0  0  0  0  0  0  0  0  0
  1  2  1  0
  2  3  2  0
  3  4  1  0
  4  5  1  0
  5  6  1  0
  6  7  1  0
  7  8  1  0
  8  9  1  0
  9 10  1  0
  3 11  1  0
 11 12  2  0
 12 13  1  0
 13 14  2  0
 14 15  1  0
 15 16  2  0
 16 17  1  0
 17 18  1  0
 17  2  1  0
 10  5  1  0
 16 11  1  0
  1 19  1  0
  1 20  1  0
  1 21  1  0
  4 22  1  0
  4 23  1  0
  6 24  1  0
  6 25  1  0
  7 26  1  0
  7 27  1  0
  8 28  1  0
  9 29  1  0
  9 30  1  0
 10 31  1  0
 10 32  1  0
 12 33  1  0
 13 34  1  0
 14 35  1  0
 15 36  1  0
 18 37  1  0
 18 38  1  0
 18 39  1  0
M  END
>  <UniqueID>  (8) 
8

>  <SMILES>  (8) 
Cc1c(CN2CCNCC2)c2ccccc2n1C

>  <Energy>  (8) 
79.7579605171357

>  <Genealogy>  (8) 
Cc1c(CN2CCNCC2)c2ccccc2n1C (3D coordinates assigned)
Cc1c(CN2CCNCC2)c2ccccc2n1C (nonaromatic ring conformer: 79.7579605171357 kcal/mol)

>  <smiles>  (8) 
Cc1c(CN2CCNCC2)c2ccccc2n1C

>  <score_type>  (8) 
oracle

>  <origin>  (8) 
adg

>  <m_score__min__energy>  (8) 
-8.3000000000000007

>  <m_primary>  (8) 
energy

$$$$
8:0
     RDKit          3D

 33 34  0  0  0  0  0  0  0  0999 V2000
   -6.0730   25.2500  -29.3600 C   0  0  0  0  0  0  0  0  0  0  0  0
   -5.3040   25.6290  -30.6200 C   0  0  0  0  0  0  0  0  0  0  0  0
   -3.8820   25.2880  -30.4660 N   0  0  0  0  0  0  0  0  0  0  0  0
   -3.6400   24.2800  -29.4210 C   0  0  0  0  0  0  0  0  0  0  0  0
   -3.1390   22.9310  -29.9670 C   0  0  0  0  0  0  0  0  0  0  0  0
   -3.5640   22.7240  -31.3160 O   0  0  0  0  0  0  0  0  0  0  0  0
   -4.6960   22.0050  -31.7410 C   0  0  0  0  0  0  0  0  0  0  0  0
   -4.6380   20.9670  -32.6950 C   0  0  0  0  0  0  0  0  0  0  0  0
   -5.7990   20.2880  -33.0740 C   0  0  0  0  0  0  0  0  0  0  0  0
   -7.0350   20.6360  -32.5130 C   0  0  0  0  0  0  0  0  0  0  0  0
   -8.2070   19.9650  -32.8840 C   0  0  0  0  0  0  0  0  0  0  0  0
   -9.4230   20.3380  -32.3050 C   0  0  0  0  0  0  0  0  0  0  0  0
   -9.4680   21.3440  -31.3890 N   0  0  0  0  0  0  0  0  0  0  0  0
   -8.3450   22.0140  -31.0090 C   0  0  0  0  0  0  0  0  0  0  0  0
   -7.1020   21.6760  -31.5620 C   0  0  0  0  0  0  0  0  0  0  0  0
   -5.9330   22.3520  -31.1850 C   0  0  0  0  0  0  0  0  0  0  0  0
   -5.4889   25.5379  -28.4734 H   0  0  0  0  0  0  0  0  0  0  0  0
   -7.0396   25.7749  -29.3486 H   0  0  0  0  0  0  0  0  0  0  0  0
   -6.2455   24.1637  -29.3486 H   0  0  0  0  0  0  0  0  0  0  0  0
   -5.7188   25.0802  -31.4783 H   0  0  0  0  0  0  0  0  0  0  0  0
   -5.3984   26.7121  -30.7872 H   0  0  0  0  0  0  0  0  0  0  0  0
   -3.4900   24.9650  -31.3790 H   0  0  0  0  0  0  0  0  0  0  0  0
   -2.8850   24.6752  -28.7255 H   0  0  0  0  0  0  0  0  0  0  0  0
   -4.6050   24.0892  -28.9287 H   0  0  0  0  0  0  0  0  0  0  0  0
   -2.0397   22.9168  -29.9320 H   0  0  0  0  0  0  0  0  0  0  0  0
   -3.5599   22.1278  -29.3444 H   0  0  0  0  0  0  0  0  0  0  0  0
   -3.6724   20.6904  -33.1434 H   0  0  0  0  0  0  0  0  0  0  0  0
   -5.7425   19.4774  -33.8154 H   0  0  0  0  0  0  0  0  0  0  0  0
   -8.1707   19.1521  -33.6241 H   0  0  0  0  0  0  0  0  0  0  0  0
  -10.3482   19.8162  -32.5908 H   0  0  0  0  0  0  0  0  0  0  0  0
  -10.3850   21.6090  -30.9680 H   0  0  0  0  0  0  0  0  0  0  0  0
   -8.4134   22.8225  -30.2662 H   0  0  0  0  0  0  0  0  0  0  0  0
   -5.9884   23.1636  -30.4445 H   0  0  0  0  0  0  0  0  0  0  0  0
  1  2  1  0
  2  3  1  0
  3  4  1  0
  4  5  1  0
  5  6  1  0
  6  7  1  0
  7  8  2  0
  8  9  1  0
  9 10  2  0
 10 11  1  0
 11 12  2  0
 12 13  1  0
 13 14  2  0
 14 15  1  0
 15 16  2  0
 16  7  1  0
 15 10  1  0
  1 17  1  0
  1 18  1  0
  1 19  1  0
  2 20  1  0
  2 21  1  0
  3 22  1  0
  4 23  1  0
  4 24  1  0
  5 25  1  0
  5 26  1  0
  8 27  1  0
  9 28  1  0
 11 29  1  0
 12 30  1  0
 13 31  1  0
 14 32  1  0
 16 33  1  0
M  CHG  1  13   1
M  END
>  <UniqueID>  (9) 
9

>  <SMILES>  (9) 
CCNCCOc1ccc2cc[nH+]cc2c1

>  <Energy>  (9) 
35.93484219960813

>  <Genealogy>  (9) 
CCNCCOc1ccc2cc[nH+]cc2c1 (protonated)
CCNCCOc1ccc2cc[nH+]cc2c1 (3D coordinates assigned)
CCNCCOc1ccc2cc[nH+]cc2c1 (optimized conformer: 35.93484219960813 kcal/mol)

>  <smiles>  (9) 
CCNCCOc1ccc2ccncc2c1

>  <score_type>  (9) 
oracle

>  <origin>  (9) 
adg

>  <m_score__min__energy>  (9) 
-6.5800000000000001

>  <m_primary>  (9) 
energy

$$$$
9:0
     RDKit          3D

 46 49  0  0  0  0  0  0  0  0999 V2000
   -3.4410   24.1310  -28.4530 C   0  0  0  0  0  0  0  0  0  0  0  0
   -3.2050   24.1770  -29.9630 C   0  0  0  0  0  0  0  0  0  0  0  0
   -4.4380   24.5290  -30.7070 N   0  0  0  0  0  0  0  0  0  0  0  0
   -5.4570   25.1310  -29.8170 C   0  0  0  0  0  0  0  0  0  0  0  0
   -6.8570   24.8640  -30.3600 C   0  0  0  0  0  0  0  0  0  0  0  0
   -4.9930   23.4190  -31.5220 C   0  0  0  0  0  0  0  0  0  0  0  0
   -4.9310   22.0420  -30.8340 C   0  0  0  0  0  0  0  0  0  0  0  0
   -5.8030   21.0980  -31.5320 N   0  0  0  0  0  0  0  0  0  0  0  0
   -7.1600   21.1110  -31.6180 C   0  0  0  0  0  0  0  0  0  0  0  0
   -8.0520   21.9970  -31.0060 C   0  0  0  0  0  0  0  0  0  0  0  0
   -9.4270   21.8290  -31.2550 C   0  0  0  0  0  0  0  0  0  0  0  0
   -9.8850   20.7970  -32.1050 C   0  0  0  0  0  0  0  0  0  0  0  0
   -8.9740   19.9200  -32.7200 C   0  0  0  0  0  0  0  0  0  0  0  0
   -7.6210   20.1050  -32.4530 C   0  0  0  0  0  0  0  0  0  0  0  0
   -6.5000   19.4580  -32.9070 C   0  0  0  0  0  0  0  0  0  0  0  0
   -6.3650   18.4310  -33.7780 N   0  0  0  0  0  0  0  0  0  0  0  0
   -5.0990   18.0120  -34.0840 C   0  0  0  0  0  0  0  0  0  0  0  0
   -4.9020   16.9510  -34.9740 C   0  0  0  0  0  0  0  0  0  0  0  0
   -3.6050   16.5320  -35.2850 C   0  0  0  0  0  0  0  0  0  0  0  0
   -2.4980   17.1710  -34.7120 C   0  0  0  0  0  0  0  0  0  0  0  0
   -2.6770   18.2340  -33.8210 C   0  0  0  0  0  0  0  0  0  0  0  0
   -3.9680   18.6640  -33.4980 C   0  0  0  0  0  0  0  0  0  0  0  0
   -4.1520   19.7050  -32.6290 N   0  0  0  0  0  0  0  0  0  0  0  0
   -5.4210   20.0850  -32.3420 C   0  0  0  0  0  0  0  0  0  0  0  0
   -2.4923   24.3159  -27.9278 H   0  0  0  0  0  0  0  0  0  0  0  0
   -4.1721   24.9036  -28.1724 H   0  0  0  0  0  0  0  0  0  0  0  0
   -3.8284   23.1404  -28.1724 H   0  0  0  0  0  0  0  0  0  0  0  0
   -2.4327   24.9299  -30.1790 H   0  0  0  0  0  0  0  0  0  0  0  0
   -2.8862   23.1756  -30.2879 H   0  0  0  0  0  0  0  0  0  0  0  0
   -5.3672   24.6913  -28.8127 H   0  0  0  0  0  0  0  0  0  0  0  0
   -5.2930   26.2176  -29.7682 H   0  0  0  0  0  0  0  0  0  0  0  0
   -7.5563   24.7306  -29.5214 H   0  0  0  0  0  0  0  0  0  0  0  0
   -7.1805   25.7166  -30.9751 H   0  0  0  0  0  0  0  0  0  0  0  0
   -6.8440   23.9522  -30.9751 H   0  0  0  0  0  0  0  0  0  0  0  0
   -6.0458   23.6468  -31.7448 H   0  0  0  0  0  0  0  0  0  0  0  0
   -4.3727   23.3494  -32.4278 H   0  0  0  0  0  0  0  0  0  0  0  0
   -3.8965   21.6688  -30.8571 H   0  0  0  0  0  0  0  0  0  0  0  0
   -5.2664   22.1424  -29.7912 H   0  0  0  0  0  0  0  0  0  0  0  0
   -7.6897   22.8016  -30.3493 H   0  0  0  0  0  0  0  0  0  0  0  0
  -10.1526   22.5079  -30.7832 H   0  0  0  0  0  0  0  0  0  0  0  0
  -10.9634   20.6788  -32.2871 H   0  0  0  0  0  0  0  0  0  0  0  0
   -9.3185   19.1168  -33.3880 H   0  0  0  0  0  0  0  0  0  0  0  0
   -5.7672   16.4466  -35.4290 H   0  0  0  0  0  0  0  0  0  0  0  0
   -3.4530   15.6959  -35.9835 H   0  0  0  0  0  0  0  0  0  0  0  0
   -1.4816   16.8346  -34.9644 H   0  0  0  0  0  0  0  0  0  0  0  0
   -1.8033   18.7314  -33.3747 H   0  0  0  0  0  0  0  0  0  0  0  0
  1  2  1  0
  2  3  1  0
  3  4  1  0
  4  5  1  0
  3  6  1  0
  6  7  1  0
  7  8  1  0
  8  9  1  0
  9 10  2  0
 10 11  1  0
 11 12  2  0
 12 13  1  0
 13 14  2  0
 14 15  1  0
 15 16  2  0
 16 17  1  0
 17 18  2  0
 18 19  1  0
 19 20  2  0
 20 21  1  0
 21 22  2  0
 22 23  1  0
 23 24  2  0
 24  8  1  0
 14  9  1  0
 24 15  1  0
 22 17  1  0
  1 25  1  0
  1 26  1  0
  1 27  1  0
  2 28  1  0
  2 29  1  0
  4 30  1  0
  4 31  1  0
  5 32  1  0
  5 33  1  0
  5 34  1  0
  6 35  1  0
  6 36  1  0
  7 37  1  0
  7 38  1  0
 10 39  1  0
 11 40  1  0
 12 41  1  0
 13 42  1  0
 18 43  1  0
 19 44  1  0
 20 45  1  0
 21 46  1  0
M  END
>  <UniqueID>  (10) 
10

>  <SMILES>  (10) 
CCN(CC)CCn1c2ccccc2c2nc3ccccc3nc21

>  <Energy>  (10) 
96.84066314501803

>  <Genealogy>  (10) 
CCN(CC)CCn1c2ccccc2c2nc3ccccc3nc21 (3D coordinates assigned)
CCN(CC)CCn1c2ccccc2c2nc3ccccc3nc21 (optimized conformer: 96.84066314501803 kcal/mol)

>  <smiles>  (10) 
CCN(CC)CCn1c2ccccc2c2nc3ccccc3nc21

>  <score_type>  (10) 
oracle

>  <origin>  (10) 
adg

>  <m_score__min__energy>  (10) 
-8.7899999999999991

>  <m_primary>  (10) 
energy

$$$$
10:0
     RDKit          3D

 46 48  0  0  0  0  0  0  0  0999 V2000
   -8.1378   24.3493  -30.6409 H   0  0  0  0  0  0  0  0  0  0  0  0
   -7.2810   23.8020  -31.0610 C   0  0  0  0  0  0  0  0  0  0  0  0
   -5.9770   24.2730  -30.9120 C   0  0  0  0  0  0  0  0  0  0  0  0
   -5.7060   25.5240  -30.1390 C   0  0  0  0  0  0  0  0  0  0  0  0
   -5.7531   25.3068  -29.0617 H   0  0  0  0  0  0  0  0  0  0  0  0
   -4.7050   25.9026  -30.3933 H   0  0  0  0  0  0  0  0  0  0  0  0
   -6.4606   26.2829  -30.3933 H   0  0  0  0  0  0  0  0  0  0  0  0
   -4.9540   23.6280  -31.5360 N   0  0  0  0  0  0  0  0  0  0  0  0
   -5.1400   22.5000  -32.2780 C   0  0  0  0  0  0  0  0  0  0  0  0
   -4.1380   22.1390  -33.0290 N   0  0  0  0  0  0  0  0  0  0  0  0
   -3.4290   20.8770  -33.1590 C   0  0  0  0  0  0  0  0  0  0  0  0
   -3.5393   20.4994  -34.1863 H   0  0  0  0  0  0  0  0  0  0  0  0
   -3.8494   20.1476  -32.4510 H   0  0  0  0  0  0  0  0  0  0  0  0
   -1.9430   21.0870  -32.8500 C   0  0  0  0  0  0  0  0  0  0  0  0
   -1.5541   21.8851  -33.4995 H   0  0  0  0  0  0  0  0  0  0  0  0
   -1.4196   20.1368  -33.0321 H   0  0  0  0  0  0  0  0  0  0  0  0
   -1.7120   21.4850  -31.3790 C   0  0  0  0  0  0  0  0  0  0  0  0
   -0.7210   21.9542  -31.2909 H   0  0  0  0  0  0  0  0  0  0  0  0
   -1.7801   20.5723  -30.7688 H   0  0  0  0  0  0  0  0  0  0  0  0
   -2.7300   22.4320  -30.8890 N   0  0  0  0  0  0  0  0  0  0  0  0
   -2.8060   23.2090  -31.5870 H   0  0  0  0  0  0  0  0  0  0  0  0
   -3.6610   21.9580  -30.8270 H   0  0  0  0  0  0  0  0  0  0  0  0
   -2.3720   23.0090  -29.5810 C   0  0  0  0  0  0  0  0  0  0  0  0
   -2.0913   24.0639  -29.7169 H   0  0  0  0  0  0  0  0  0  0  0  0
   -1.5290   22.4390  -29.1632 H   0  0  0  0  0  0  0  0  0  0  0  0
   -3.5490   22.9250  -28.6100 C   0  0  0  0  0  0  0  0  0  0  0  0
   -3.1741   22.9518  -27.5762 H   0  0  0  0  0  0  0  0  0  0  0  0
   -4.2240   23.7773  -28.7774 H   0  0  0  0  0  0  0  0  0  0  0  0
   -4.0961   21.9855  -28.7774 H   0  0  0  0  0  0  0  0  0  0  0  0
   -6.4110   21.9520  -32.3220 N   0  0  0  0  0  0  0  0  0  0  0  0
   -6.9410   20.7410  -32.6720 C   0  0  0  0  0  0  0  0  0  0  0  0
   -8.2900   20.7740  -32.3540 C   0  0  0  0  0  0  0  0  0  0  0  0
   -8.6190   21.9410  -31.7790 N   0  0  0  0  0  0  0  0  0  0  0  0
   -7.4560   22.6140  -31.7610 C   0  0  0  0  0  0  0  0  0  0  0  0
   -9.1690   19.5670  -32.3180 C   0  0  0  0  0  0  0  0  0  0  0  0
   -9.5558   19.3604  -33.3268 H   0  0  0  0  0  0  0  0  0  0  0  0
  -10.0169   19.7406  -31.6391 H   0  0  0  0  0  0  0  0  0  0  0  0
   -8.3450   18.3760  -31.8290 C   0  0  0  0  0  0  0  0  0  0  0  0
   -8.9682   17.4698  -31.8485 H   0  0  0  0  0  0  0  0  0  0  0  0
   -8.0023   18.5724  -30.8024 H   0  0  0  0  0  0  0  0  0  0  0  0
   -7.1240   18.1720  -32.7360 C   0  0  0  0  0  0  0  0  0  0  0  0
   -7.4801   17.9093  -33.7431 H   0  0  0  0  0  0  0  0  0  0  0  0
   -6.5177   17.3742  -32.2824 H   0  0  0  0  0  0  0  0  0  0  0  0
   -6.2140   19.4210  -32.8500 C   0  0  0  0  0  0  0  0  0  0  0  0
   -5.7461   19.4168  -33.8455 H   0  0  0  0  0  0  0  0  0  0  0  0
   -5.4807   19.3523  -32.0330 H   0  0  0  0  0  0  0  0  0  0  0  0
  1  2  1  0
  2  3  1  0
  3  4  1  0
  4  5  1  0
  4  6  1  0
  4  7  1  0
  3  8  2  0
  8  9  1  0
  9 10  2  0
 10 11  1  0
 11 12  1  0
 11 13  1  0
 11 14  1  0
 14 15  1  0
 14 16  1  0
 14 17  1  0
 17 18  1  0
 17 19  1  0
 17 20  1  0
 20 21  1  0
 20 22  1  0
 20 23  1  0
 23 24  1  0
 23 25  1  0
 23 26  1  0
 26 27  1  0
 26 28  1  0
 26 29  1  0
  9 30  1  0
 30 31  1  0
 31 32  2  0
 32 33  1  0
 33 34  1  0
 32 35  1  0
 35 36  1  0
 35 37  1  0
 35 38  1  0
 38 39  1  0
 38 40  1  0
 38 41  1  0
 41 42  1  0
 41 43  1  0
 41 44  1  0
 44 45  1  0
 44 46  1  0
 34  2  2  0
 34 30  1  0
 44 31  1  0
M  CHG  2  20   1  33  -1
M  END
>  <UniqueID>  (11) 
11

>  <SMILES>  (11) 
CC[NH2+]CCC/N=c1/nc(C)cc2[n-]c3c(n12)CCCC3

>  <Energy>  (11) 
99.48103314278795

>  <Genealogy>  (11) 
CC[NH2+]CCCN=c1nc(C)cc2[n-]c3c(n12)CCCC3 (protonated)
CC[NH2+]CCC/N=c1/nc(C)cc2[n-]c3c(n12)CCCC3 (cis-trans isomerization)
CC[NH2+]CCC/N=c1/nc(C)cc2[n-]c3c(n12)CCCC3 (3D coordinates assigned)
CC[NH2+]CCC/N=c1/nc(C)cc2[n-]c3c(n12)CCCC3 (nonaromatic ring conformer: 99.48103314278795 kcal/mol)

>  <smiles>  (11) 
CCNCCCN=c1nc(C)cc2[nH]c3c(n12)CCCC3

>  <score_type>  (11) 
oracle

>  <origin>  (11) 
adg

>  <m_score__min__energy>  (11) 
-6.0999999999999996

>  <m_primary>  (11) 
energy

$$$$
11:0
     RDKit          3D

 37 38  0  0  0  0  0  0  0  0999 V2000
   -4.9810   15.9880  -32.3680 C   0  0  0  0  0  0  0  0  0  0  0  0
   -5.7310   16.4580  -33.6110 C   0  0  0  0  0  0  0  0  0  0  0  0
   -7.1770   16.8390  -33.2770 C   0  0  0  0  0  0  0  0  0  0  0  0
   -7.2570   18.2620  -32.9210 N   0  0  0  0  0  0  0  0  0  0  0  0
   -8.1350   18.6730  -31.9570 C   0  0  0  0  0  0  0  0  0  0  0  0
   -8.2040   20.0170  -31.5860 C   0  0  0  0  0  0  0  0  0  0  0  0
   -7.3500   20.9490  -32.1850 C   0  0  0  0  0  0  0  0  0  0  0  0
   -7.4440   22.3360  -31.8180 N   0  0  0  0  0  0  0  0  0  0  0  0
   -6.3670   23.1010  -31.2490 C   0  0  0  0  0  0  0  0  0  0  0  0
   -6.5930   24.3620  -30.6710 C   0  0  0  0  0  0  0  0  0  0  0  0
   -5.5280   25.1020  -30.1490 C   0  0  0  0  0  0  0  0  0  0  0  0
   -4.2150   24.5970  -30.2110 C   0  0  0  0  0  0  0  0  0  0  0  0
   -3.1130   25.2990  -29.6990 O   0  0  0  0  0  0  0  0  0  0  0  0
   -2.2990   24.8420  -28.6230 C   0  0  0  0  0  0  0  0  0  0  0  0
   -3.9920   23.3500  -30.8060 C   0  0  0  0  0  0  0  0  0  0  0  0
   -5.0570   22.6100  -31.3290 C   0  0  0  0  0  0  0  0  0  0  0  0
   -6.4630   20.5130  -33.1800 C   0  0  0  0  0  0  0  0  0  0  0  0
   -6.4220   19.1610  -33.5260 C   0  0  0  0  0  0  0  0  0  0  0  0
   -5.5166   16.3237  -31.4678 H   0  0  0  0  0  0  0  0  0  0  0  0
   -4.9198   14.8897  -32.3701 H   0  0  0  0  0  0  0  0  0  0  0  0
   -3.9659   16.4118  -32.3701 H   0  0  0  0  0  0  0  0  0  0  0  0
   -5.2166   17.3356  -34.0296 H   0  0  0  0  0  0  0  0  0  0  0  0
   -5.7482   15.6335  -34.3390 H   0  0  0  0  0  0  0  0  0  0  0  0
   -7.8149   16.6470  -34.1523 H   0  0  0  0  0  0  0  0  0  0  0  0
   -7.5193   16.2355  -32.4234 H   0  0  0  0  0  0  0  0  0  0  0  0
   -8.7927   17.9383  -31.4695 H   0  0  0  0  0  0  0  0  0  0  0  0
   -8.9281   20.3423  -30.8245 H   0  0  0  0  0  0  0  0  0  0  0  0
   -8.3570   22.8210  -31.9760 H   0  0  0  0  0  0  0  0  0  0  0  0
   -7.6140   24.7691  -30.6291 H   0  0  0  0  0  0  0  0  0  0  0  0
   -5.7165   26.0828  -29.6879 H   0  0  0  0  0  0  0  0  0  0  0  0
   -2.7726   25.1079  -27.6664 H   0  0  0  0  0  0  0  0  0  0  0  0
   -2.1876   23.7495  -28.6859 H   0  0  0  0  0  0  0  0  0  0  0  0
   -1.3083   25.3158  -28.6859 H   0  0  0  0  0  0  0  0  0  0  0  0
   -2.9695   22.9483  -30.8628 H   0  0  0  0  0  0  0  0  0  0  0  0
   -4.8654   21.6374  -31.8057 H   0  0  0  0  0  0  0  0  0  0  0  0
   -5.8026   21.2330  -33.6855 H   0  0  0  0  0  0  0  0  0  0  0  0
   -5.7120   18.8156  -34.2919 H   0  0  0  0  0  0  0  0  0  0  0  0
  1  2  1  0
  2  3  1  0
  3  4  1  0
  4  5  2  0
  5  6  1  0
  6  7  2  0
  7  8  1  0
  8  9  1  0
  9 10  2  0
 10 11  1  0
 11 12  2  0
 12 13  1  0
 13 14  1  0
 12 15  1  0
 15 16  2  0
  7 17  1  0
 17 18  2  0
 18  4  1  0
 16  9  1  0
  1 19  1  0
  1 20  1  0
  1 21  1  0
  2 22  1  0
  2 23  1  0
  3 24  1  0
  3 25  1  0
  5 26  1  0
  6 27  1  0
  8 28  1  0
 10 29  1  0
 11 30  1  0
 14 31  1  0
 14 32  1  0
 14 33  1  0
 15 34  1  0
 16 35  1  0
 17 36  1  0
 18 37  1  0
M  CHG  1   4   1
M  END
>  <UniqueID>  (12) 
12

>  <SMILES>  (12) 
CCC[n+]1ccc(Nc2ccc(OC)cc2)cc1

>  <Energy>  (12) 
37.108907973723404

>  <Genealogy>  (12) 
CCC[n+]1ccc(Nc2ccc(OC)cc2)cc1 (3D coordinates assigned)
CCC[n+]1ccc(Nc2ccc(OC)cc2)cc1 (optimized conformer: 37.108907973723404 kcal/mol)

>  <smiles>  (12) 
CCC[n+]1ccc(Nc2ccc(OC)cc2)cc1

>  <score_type>  (12) 
oracle

>  <origin>  (12) 
adg

>  <m_score__min__energy>  (12) 
-6.2300000000000004

>  <m_primary>  (12) 
energy

$$$$
12:0
     RDKit          3D

 48 47  0  0  0  0  0  0  0  0999 V2000
    0.0040   21.0080  -34.7180 C   0  0  0  0  0  0  0  0  0  0  0  0
   -1.1660   20.7380  -34.2130 C   0  0  0  0  0  0  0  0  0  0  0  0
   -2.3400   20.4680  -33.7080 C   0  0  0  0  0  0  0  0  0  0  0  0
   -3.2160   21.5580  -33.1540 C   0  0  0  0  0  0  0  0  0  0  0  0
   -3.1980   21.6010  -31.6830 N   0  0  0  0  0  0  0  0  0  0  0  0
   -1.8360   21.7910  -31.1610 C   0  0  0  0  0  0  0  0  0  0  0  0
   -1.6990   21.1550  -29.7710 C   0  0  0  0  0  0  0  0  0  0  0  0
   -3.0640   20.8180  -29.1220 C   0  0  0  0  0  0  0  0  0  0  0  0
   -4.0290   21.9260  -29.1950 N   0  0  0  0  0  0  0  0  0  0  0  0
   -4.1380   22.6610  -27.9280 C   0  0  0  0  0  0  0  0  0  0  0  0
   -4.0820   24.1740  -28.1820 C   0  0  0  0  0  0  0  0  0  0  0  0
   -3.1540   24.5460  -29.3450 C   0  0  0  0  0  0  0  0  0  0  0  0
   -3.8640   24.4280  -30.6250 N   0  0  0  0  0  0  0  0  0  0  0  0
   -5.1020   25.2240  -30.6660 C   0  0  0  0  0  0  0  0  0  0  0  0
   -6.3760   24.4290  -30.3120 C   0  0  0  0  0  0  0  0  0  0  0  0
   -6.8210   23.4760  -31.4280 C   0  0  0  0  0  0  0  0  0  0  0  0
   -5.7600   22.4990  -31.7040 N   0  0  0  0  0  0  0  0  0  0  0  0
   -6.2920   21.1370  -31.6320 C   0  0  0  0  0  0  0  0  0  0  0  0
    0.8579   21.2050  -34.0531 H   0  0  0  0  0  0  0  0  0  0  0  0
    0.1381   21.0390  -35.8093 H   0  0  0  0  0  0  0  0  0  0  0  0
   -2.6937   19.4266  -33.6875 H   0  0  0  0  0  0  0  0  0  0  0  0
   -2.8622   22.5255  -33.5398 H   0  0  0  0  0  0  0  0  0  0  0  0
   -4.2489   21.3505  -33.4702 H   0  0  0  0  0  0  0  0  0  0  0  0
   -3.8070   22.3860  -31.3520 H   0  0  0  0  0  0  0  0  0  0  0  0
   -1.1165   21.3200  -31.8470 H   0  0  0  0  0  0  0  0  0  0  0  0
   -1.6334   22.8692  -31.0802 H   0  0  0  0  0  0  0  0  0  0  0  0
   -1.1175   20.2262  -29.8664 H   0  0  0  0  0  0  0  0  0  0  0  0
   -1.1984   21.8884  -29.1218 H   0  0  0  0  0  0  0  0  0  0  0  0
   -3.4919   19.9469  -29.6398 H   0  0  0  0  0  0  0  0  0  0  0  0
   -2.8787   20.6152  -28.0569 H   0  0  0  0  0  0  0  0  0  0  0  0
   -3.7490   22.5880  -29.9570 H   0  0  0  0  0  0  0  0  0  0  0  0
   -5.0932   22.4096  -27.4439 H   0  0  0  0  0  0  0  0  0  0  0  0
   -3.2985   22.3767  -27.2766 H   0  0  0  0  0  0  0  0  0  0  0  0
   -5.0968   24.5295  -28.4142 H   0  0  0  0  0  0  0  0  0  0  0  0
   -3.6821   24.6484  -27.2737 H   0  0  0  0  0  0  0  0  0  0  0  0
   -2.8092   25.5826  -29.2161 H   0  0  0  0  0  0  0  0  0  0  0  0
   -2.2947   23.8593  -29.3492 H   0  0  0  0  0  0  0  0  0  0  0  0
   -4.0730   23.4230  -30.8210 H   0  0  0  0  0  0  0  0  0  0  0  0
   -5.0028   26.0535  -29.9504 H   0  0  0  0  0  0  0  0  0  0  0  0
   -5.2223   25.5689  -31.7036 H   0  0  0  0  0  0  0  0  0  0  0  0
   -6.1792   23.8383  -29.4052 H   0  0  0  0  0  0  0  0  0  0  0  0
   -7.1858   25.1580  -30.1615 H   0  0  0  0  0  0  0  0  0  0  0  0
   -7.7320   22.9459  -31.1132 H   0  0  0  0  0  0  0  0  0  0  0  0
   -7.0247   24.0565  -32.3399 H   0  0  0  0  0  0  0  0  0  0  0  0
   -5.0320   22.5890  -30.9560 H   0  0  0  0  0  0  0  0  0  0  0  0
   -6.4067   20.8434  -30.5781 H   0  0  0  0  0  0  0  0  0  0  0  0
   -7.2711   21.0989  -32.1319 H   0  0  0  0  0  0  0  0  0  0  0  0
   -5.5979   20.4453  -32.1319 H   0  0  0  0  0  0  0  0  0  0  0  0
  1  2  2  0
  2  3  2  0
  3  4  1  0
  4  5  1  0
  5  6  1  0
  6  7  1  0
  7  8  1  0
  8  9  1  0
  9 10  1  0
 10 11  1  0
 11 12  1  0
 12 13  1  0
 13 14  1  0
 14 15  1  0
 15 16  1  0
 16 17  1  0
 17 18  1  0
  1 19  1  0
  1 20  1  0
  3 21  1  0
  4 22  1  0
  4 23  1  0
  5 24  1  0
  6 25  1  0
  6 26  1  0
  7 27  1  0
  7 28  1  0
  8 29  1  0
  8 30  1  0
  9 31  1  0
 10 32  1  0
 10 33  1  0
 11 34  1  0
 11 35  1  0
 12 36  1  0
 12 37  1  0
 13 38  1  0
 14 39  1  0
 14 40  1  0
 15 41  1  0
 15 42  1  0
 16 43  1  0
 16 44  1  0
 17 45  1  0
 18 46  1  0
 18 47  1  0
 18 48  1  0
M  END
>  <UniqueID>  (13) 
13

>  <SMILES>  (13) 
C=C=CCNCCCNCCCNCCCNC

>  <Energy>  (13) 
28.80392543146325

>  <Genealogy>  (13) 
C=C=CCNCCCNCCCNCCCNC (3D coordinates assigned)
C=C=CCNCCCNCCCNCCCNC (optimized conformer: 28.80392543146325 kcal/mol)

>  <smiles>  (13) 
C=C=CCNCCCNCCCNCCCNC

>  <score_type>  (13) 
oracle

>  <origin>  (13) 
adg

>  <m_score__min__energy>  (13) 
-2.7799999999999998

>  <m_primary>  (13) 
energy

$$$$
13:0
     RDKit          3D

 40 41  0  0  0  0  0  0  0  0999 V2000
   -3.0930   21.2380  -33.4720 C   0  0  0  0  0  0  0  0  0  0  0  0
   -3.8670   20.6090  -32.7940 C   0  0  0  0  0  0  0  0  0  0  0  0
   -4.8140   19.8430  -31.9650 C   0  0  0  0  0  0  0  0  0  0  0  0
   -5.9340   19.2930  -32.7710 N   0  0  1  0  0  0  0  0  0  0  0  0
   -5.4620   18.8660  -34.1250 C   0  0  0  0  0  0  0  0  0  0  0  0
   -5.1120   17.3760  -34.1660 C   0  0  0  0  0  0  0  0  0  0  0  0
   -6.5640   18.1620  -32.0330 C   0  0  0  0  0  0  0  0  0  0  0  0
   -7.9890   17.8390  -32.5300 C   0  0  0  0  0  0  0  0  0  0  0  0
   -8.6610   19.0360  -33.0660 N   0  0  0  0  0  0  0  0  0  0  0  0
   -9.2780   19.8590  -32.0170 C   0  0  0  0  0  0  0  0  0  0  0  0
   -8.4300   21.0530  -31.7100 C   0  0  0  0  0  0  0  0  0  0  0  0
   -8.5270   21.8360  -30.5640 C   0  0  0  0  0  0  0  0  0  0  0  0
   -7.5240   22.7670  -30.7060 C   0  0  0  0  0  0  0  0  0  0  0  0
   -7.1210   23.8080  -29.8750 C   0  0  0  0  0  0  0  0  0  0  0  0
   -6.0360   24.5990  -30.2960 C   0  0  0  0  0  0  0  0  0  0  0  0
   -5.3880   24.3300  -31.5240 C   0  0  0  0  0  0  0  0  0  0  0  0
   -5.8200   23.2670  -32.3390 C   0  0  0  0  0  0  0  0  0  0  0  0
   -6.8960   22.5030  -31.8940 C   0  0  0  0  0  0  0  0  0  0  0  0
   -7.4470   21.4730  -32.4870 O   0  0  0  0  0  0  0  0  0  0  0  0
   -2.3870   21.8117  -34.0904 H   0  0  0  0  0  0  0  0  0  0  0  0
   -4.2765   19.0103  -31.4878 H   0  0  0  0  0  0  0  0  0  0  0  0
   -5.2373   20.5241  -31.2120 H   0  0  0  0  0  0  0  0  0  0  0  0
   -6.6480   20.0570  -32.8530 H   0  0  0  0  0  0  0  0  0  0  0  0
   -6.2582   19.0642  -34.8576 H   0  0  0  0  0  0  0  0  0  0  0  0
   -4.5518   19.4359  -34.3632 H   0  0  0  0  0  0  0  0  0  0  0  0
   -5.0218   16.9921  -33.1391 H   0  0  0  0  0  0  0  0  0  0  0  0
   -5.9057   16.8273  -34.6942 H   0  0  0  0  0  0  0  0  0  0  0  0
   -4.1570   17.2381  -34.6942 H   0  0  0  0  0  0  0  0  0  0  0  0
   -5.9368   17.2673  -32.1603 H   0  0  0  0  0  0  0  0  0  0  0  0
   -6.6428   18.4604  -30.9772 H   0  0  0  0  0  0  0  0  0  0  0  0
   -7.9268   17.0793  -33.3231 H   0  0  0  0  0  0  0  0  0  0  0  0
   -8.5754   17.4686  -31.6762 H   0  0  0  0  0  0  0  0  0  0  0  0
   -7.9390   19.6290  -33.5380 H   0  0  0  0  0  0  0  0  0  0  0  0
  -10.2670   20.1976  -32.3594 H   0  0  0  0  0  0  0  0  0  0  0  0
   -9.3755   19.2521  -31.1047 H   0  0  0  0  0  0  0  0  0  0  0  0
   -9.2420   21.7340  -29.7343 H   0  0  0  0  0  0  0  0  0  0  0  0
   -7.6330   24.0057  -28.9217 H   0  0  0  0  0  0  0  0  0  0  0  0
   -5.6897   25.4317  -29.6661 H   0  0  0  0  0  0  0  0  0  0  0  0
   -4.5414   24.9552  -31.8440 H   0  0  0  0  0  0  0  0  0  0  0  0
   -5.3241   23.0469  -33.2959 H   0  0  0  0  0  0  0  0  0  0  0  0
  1  2  3  0
  2  3  1  0
  3  4  1  0
  4  5  1  0
  5  6  1  0
  4  7  1  0
  7  8  1  0
  8  9  1  0
  9 10  1  0
 10 11  1  0
 11 12  2  0
 12 13  1  0
 13 14  2  0
 14 15  1  0
 15 16  2  0
 16 17  1  0
 17 18  2  0
 18 19  1  0
 19 11  1  0
 18 13  1  0
  1 20  1  0
  3 21  1  0
  3 22  1  0
  4 23  1  6
  5 24  1  0
  5 25  1  0
  6 26  1  0
  6 27  1  0
  6 28  1  0
  7 29  1  0
  7 30  1  0
  8 31  1  0
  8 32  1  0
  9 33  1  0
 10 34  1  0
 10 35  1  0
 12 36  1  0
 14 37  1  0
 15 38  1  0
 16 39  1  0
 17 40  1  0
M  CHG  1   4   1
M  END
>  <UniqueID>  (14) 
14

>  <SMILES>  (14) 
C#CC[N@@H+](CC)CCNCc1cc2ccccc2o1

>  <Energy>  (14) 
74.74316879450416

>  <Genealogy>  (14) 
C#CC[NH+](CC)CCNCc1cc2ccccc2o1 (protonated)
C#CC[N@@H+](CC)CCNCc1cc2ccccc2o1 (chirality)
C#CC[N@@H+](CC)CCNCc1cc2ccccc2o1 (3D coordinates assigned)
C#CC[N@@H+](CC)CCNCc1cc2ccccc2o1 (optimized conformer: 74.74316879450416 kcal/mol)

>  <smiles>  (14) 
C#CCN(CC)CCNCc1cc2ccccc2o1

>  <score_type>  (14) 
oracle

>  <origin>  (14) 
adg

>  <m_score__min__energy>  (14) 
-5

>  <m_primary>  (14) 
energy

$$$$
14:0
     RDKit          3D

 25 26  0  0  0  0  0  0  0  0999 V2000
   -6.4400   23.8180  -31.3410 C   0  0  0  0  0  0  0  0  0  0  0  0
   -7.2080   23.1900  -32.2290 C   0  0  0  0  0  0  0  0  0  0  0  0
   -7.2400   21.7140  -32.3420 C   0  0  0  0  0  0  0  0  0  0  0  0
   -6.2510   21.1190  -33.0680 N   0  0  0  0  0  0  0  0  0  0  0  0
   -6.2330   19.7770  -33.2770 C   0  0  0  0  0  0  0  0  0  0  0  0
   -5.2140   19.1910  -34.0470 C   0  0  0  0  0  0  0  0  0  0  0  0
   -5.2090   17.8120  -34.2730 C   0  0  0  0  0  0  0  0  0  0  0  0
   -6.2190   17.0100  -33.7370 C   0  0  0  0  0  0  0  0  0  0  0  0
   -7.2380   17.5830  -32.9700 C   0  0  0  0  0  0  0  0  0  0  0  0
   -7.2500   18.9720  -32.7330 C   0  0  0  0  0  0  0  0  0  0  0  0
   -8.2450   19.5890  -31.9580 C   0  0  0  0  0  0  0  0  0  0  0  0
   -9.1730   18.8870  -31.4650 O   0  0  0  0  0  0  0  0  0  0  0  0
   -8.2110   20.9440  -31.7340 N   0  0  0  0  0  0  0  0  0  0  0  0
   -9.2210   21.5470  -30.8450 C   0  0  0  0  0  0  0  0  0  0  0  0
   -6.4450   24.9168  -31.2890 H   0  0  0  0  0  0  0  0  0  0  0  0
   -5.8005   23.2381  -30.6593 H   0  0  0  0  0  0  0  0  0  0  0  0
   -7.8403   23.7881  -32.9016 H   0  0  0  0  0  0  0  0  0  0  0  0
   -5.5060   21.7150  -33.4960 H   0  0  0  0  0  0  0  0  0  0  0  0
   -4.4181   19.8195  -34.4730 H   0  0  0  0  0  0  0  0  0  0  0  0
   -4.4080   17.3572  -34.8743 H   0  0  0  0  0  0  0  0  0  0  0  0
   -6.2128   15.9251  -33.9187 H   0  0  0  0  0  0  0  0  0  0  0  0
   -8.0322   16.9480  -32.5506 H   0  0  0  0  0  0  0  0  0  0  0  0
   -8.9353   21.3764  -29.7965 H   0  0  0  0  0  0  0  0  0  0  0  0
   -9.2802   22.6284  -31.0376 H   0  0  0  0  0  0  0  0  0  0  0  0
  -10.2010   21.0861  -31.0376 H   0  0  0  0  0  0  0  0  0  0  0  0
  1  2  2  0
  2  3  1  0
  3  4  2  0
  4  5  1  0
  5  6  2  0
  6  7  1  0
  7  8  2  0
  8  9  1  0
  9 10  2  0
 10 11  1  0
 11 12  2  0
 11 13  1  0
 13 14  1  0
 13  3  1  0
 10  5  1  0
  1 15  1  0
  1 16  1  0
  2 17  1  0
  4 18  1  0
  6 19  1  0
  7 20  1  0
  8 21  1  0
  9 22  1  0
 14 23  1  0
 14 24  1  0
 14 25  1  0
M  CHG  1   4   1
M  END
>  <UniqueID>  (15) 
15

>  <SMILES>  (15) 
C=Cc1[nH+]c2ccccc2c(=O)n1C

>  <Energy>  (15) 
39.293746610988926

>  <Genealogy>  (15) 
C=Cc1[nH+]c2ccccc2c(=O)n1C (protonated)
C=Cc1[nH+]c2ccccc2c(=O)n1C (3D coordinates assigned)
C=Cc1[nH+]c2ccccc2c(=O)n1C (optimized conformer: 39.293746610988926 kcal/mol)

>  <smiles>  (15) 
C=Cc1nc2ccccc2c(=O)n1C

>  <score_type>  (15) 
oracle

>  <origin>  (15) 
adg

>  <m_score__min__energy>  (15) 
-5.71

>  <m_primary>  (15) 
energy

$$$$
15:0
     RDKit          3D

 53 55  0  0  0  0  0  0  0  0999 V2000
   -6.5140   25.6730  -29.6990 C   0  0  0  0  0  0  0  0  0  0  0  0
   -5.2050   24.9110  -29.9480 C   0  0  0  0  0  0  0  0  0  0  0  0
   -4.9870   23.7690  -29.0300 N   0  0  0  0  0  0  0  0  0  0  0  0
   -4.1810   24.1470  -27.8540 C   0  0  0  0  0  0  0  0  0  0  0  0
   -4.4390   22.5850  -29.7270 C   0  0  0  0  0  0  0  0  0  0  0  0
   -3.1250   22.9160  -30.4340 C   0  0  0  0  0  0  0  0  0  0  0  0
   -3.2960   22.7930  -31.8320 O   0  0  0  0  0  0  0  0  0  0  0  0
   -2.4140   21.8180  -32.3560 C   0  0  0  0  0  0  0  0  0  0  0  0
   -3.1960   20.7150  -33.0730 C   0  0  0  0  0  0  0  0  0  0  0  0
   -4.5200   21.1950  -33.4680 N   0  0  0  0  0  0  0  0  0  0  0  0
   -5.7190   20.4800  -33.1160 C   0  0  0  0  0  0  0  0  0  0  0  0
   -6.8190   21.1660  -32.5680 C   0  0  0  0  0  0  0  0  0  0  0  0
   -6.7730   22.5620  -32.3600 C   0  0  0  0  0  0  0  0  0  0  0  0
   -7.8780   23.2430  -31.8580 C   0  0  0  0  0  0  0  0  0  0  0  0
   -9.0510   22.5550  -31.5760 C   0  0  0  0  0  0  0  0  0  0  0  0
   -9.1170   21.1750  -31.7600 C   0  0  0  0  0  0  0  0  0  0  0  0
   -7.9890   20.4430  -32.2150 C   0  0  0  0  0  0  0  0  0  0  0  0
   -8.0130   19.0650  -32.3220 N   0  0  0  0  0  0  0  0  0  0  0  0
   -9.1000   18.2900  -31.6810 C   0  0  0  0  0  0  0  0  0  0  0  0
   -7.0090   18.4070  -33.0080 C   0  0  0  0  0  0  0  0  0  0  0  0
   -7.1240   17.0400  -33.3680 C   0  0  0  0  0  0  0  0  0  0  0  0
   -6.0950   16.3830  -34.0430 C   0  0  0  0  0  0  0  0  0  0  0  0
   -4.9410   17.0690  -34.3950 C   0  0  0  0  0  0  0  0  0  0  0  0
   -4.8120   18.4220  -34.0880 C   0  0  0  0  0  0  0  0  0  0  0  0
   -5.8330   19.1060  -33.3940 C   0  0  0  0  0  0  0  0  0  0  0  0
   -6.6813   25.7704  -28.6162 H   0  0  0  0  0  0  0  0  0  0  0  0
   -6.4475   26.6736  -30.1512 H   0  0  0  0  0  0  0  0  0  0  0  0
   -7.3512   25.1211  -30.1512 H   0  0  0  0  0  0  0  0  0  0  0  0
   -5.2189   24.5279  -30.9790 H   0  0  0  0  0  0  0  0  0  0  0  0
   -4.3848   25.6222  -29.7706 H   0  0  0  0  0  0  0  0  0  0  0  0
   -4.7293   23.8899  -26.9357 H   0  0  0  0  0  0  0  0  0  0  0  0
   -3.2250   23.6034  -27.8746 H   0  0  0  0  0  0  0  0  0  0  0  0
   -3.9877   25.2297  -27.8746 H   0  0  0  0  0  0  0  0  0  0  0  0
   -4.2590   21.7874  -28.9912 H   0  0  0  0  0  0  0  0  0  0  0  0
   -5.1680   22.2590  -30.4835 H   0  0  0  0  0  0  0  0  0  0  0  0
   -2.8276   23.9467  -30.1906 H   0  0  0  0  0  0  0  0  0  0  0  0
   -2.3432   22.2188  -30.0983 H   0  0  0  0  0  0  0  0  0  0  0  0
   -1.7279   22.2973  -33.0698 H   0  0  0  0  0  0  0  0  0  0  0  0
   -1.8474   21.3696  -31.5266 H   0  0  0  0  0  0  0  0  0  0  0  0
   -2.6416   20.4042  -33.9708 H   0  0  0  0  0  0  0  0  0  0  0  0
   -3.3179   19.8639  -32.3869 H   0  0  0  0  0  0  0  0  0  0  0  0
   -4.6030   22.1750  -33.8220 H   0  0  0  0  0  0  0  0  0  0  0  0
   -5.8536   23.1173  -32.5974 H   0  0  0  0  0  0  0  0  0  0  0  0
   -7.8223   24.3278  -31.6843 H   0  0  0  0  0  0  0  0  0  0  0  0
   -9.9312   23.1012  -31.2061 H   0  0  0  0  0  0  0  0  0  0  0  0
  -10.0576   20.6449  -31.5494 H   0  0  0  0  0  0  0  0  0  0  0  0
   -9.0036   18.3587  -30.5874 H   0  0  0  0  0  0  0  0  0  0  0  0
  -10.0733   18.6991  -31.9897 H   0  0  0  0  0  0  0  0  0  0  0  0
   -9.0305   17.2365  -31.9897 H   0  0  0  0  0  0  0  0  0  0  0  0
   -8.0402   16.4884  -33.1106 H   0  0  0  0  0  0  0  0  0  0  0  0
   -6.1986   15.3178  -34.2971 H   0  0  0  0  0  0  0  0  0  0  0  0
   -4.1273   16.5440  -34.9169 H   0  0  0  0  0  0  0  0  0  0  0  0
   -3.9035   18.9635  -34.3902 H   0  0  0  0  0  0  0  0  0  0  0  0
  1  2  1  0
  2  3  1  0
  3  4  1  0
  3  5  1  0
  5  6  1  0
  6  7  1  0
  7  8  1  0
  8  9  1  0
  9 10  1  0
 10 11  1  0
 11 12  2  0
 12 13  1  0
 13 14  2  0
 14 15  1  0
 15 16  2  0
 16 17  1  0
 17 18  2  0
 18 19  1  0
 18 20  1  0
 20 21  2  0
 21 22  1  0
 22 23  2  0
 23 24  1  0
 24 25  2  0
 25 11  1  0
 17 12  1  0
 25 20  1  0
  1 26  1  0
  1 27  1  0
  1 28  1  0
  2 29  1  0
  2 30  1  0
  4 31  1  0
  4 32  1  0
  4 33  1  0
  5 34  1  0
  5 35  1  0
  6 36  1  0
  6 37  1  0
  8 38  1  0
  8 39  1  0
  9 40  1  0
  9 41  1  0
 10 42  1  0
 13 43  1  0
 14 44  1  0
 15 45  1  0
 16 46  1  0
 19 47  1  0
 19 48  1  0
 19 49  1  0
 21 50  1  0
 22 51  1  0
 23 52  1  0
 24 53  1  0
M  CHG  1  18   1
M  END
>  <UniqueID>  (16) 
16

>  <SMILES>  (16) 
CCN(C)CCOCCNc1c2ccccc2[n+](C)c2ccccc12

>  <Energy>  (16) 
73.66659735934127

>  <Genealogy>  (16) 
CCN(C)CCOCCNc1c2ccccc2[n+](C)c2ccccc12 (3D coordinates assigned)
CCN(C)CCOCCNc1c2ccccc2[n+](C)c2ccccc12 (optimized conformer: 73.66659735934127 kcal/mol)

>  <smiles>  (16) 
CCN(C)CCOCCNc1c2ccccc2[n+](C)c2ccccc12

>  <score_type>  (16) 
oracle

>  <origin>  (16) 
adg

>  <m_score__min__energy>  (16) 
-8.2799999999999994

>  <m_primary>  (16) 
energy

$$$$
16:0
     RDKit          3D

 52 55  0  0  0  0  0  0  0  0999 V2000
   -4.0100   22.6170  -29.0900 C   0  0  0  0  0  0  0  0  0  0  0  0
   -2.5230   22.5490  -29.4580 C   0  0  0  0  0  0  0  0  0  0  0  0
   -2.1650   21.2650  -30.1330 N   0  0  0  0  0  0  0  0  0  0  0  0
   -1.3090   20.3940  -29.2860 C   0  0  0  0  0  0  0  0  0  0  0  0
   -1.9450   20.0800  -27.9290 C   0  0  0  0  0  0  0  0  0  0  0  0
   -1.5410   21.4990  -31.4610 C   0  0  0  0  0  0  0  0  0  0  0  0
   -1.9700   20.4910  -32.5470 C   0  0  0  0  0  0  0  0  0  0  0  0
   -2.8960   21.1280  -33.4810 N   0  0  0  0  0  0  0  0  0  0  0  0
   -4.2430   21.4090  -33.0890 C   0  0  0  0  0  0  0  0  0  0  0  0
   -4.6170   22.5700  -32.5330 C   0  0  0  0  0  0  0  0  0  0  0  0
   -5.9630   22.3690  -32.0010 C   0  0  0  0  0  0  0  0  0  0  0  0
   -6.7980   23.1900  -31.2490 C   0  0  0  0  0  0  0  0  0  0  0  0
   -8.0220   22.6520  -30.8040 C   0  0  0  0  0  0  0  0  0  0  0  0
   -8.3860   21.3170  -31.1180 C   0  0  0  0  0  0  0  0  0  0  0  0
   -7.5210   20.5030  -31.9010 C   0  0  0  0  0  0  0  0  0  0  0  0
   -6.3250   21.0860  -32.2850 C   0  0  0  0  0  0  0  0  0  0  0  0
   -5.3470   20.4340  -32.9560 C   0  0  0  0  0  0  0  0  0  0  0  0
   -5.5400   19.1010  -33.3300 C   0  0  0  0  0  0  0  0  0  0  0  0
   -4.5910   18.3950  -34.0860 C   0  0  0  0  0  0  0  0  0  0  0  0
   -4.7860   17.0480  -34.3790 C   0  0  0  0  0  0  0  0  0  0  0  0
   -5.9250   16.3900  -33.9240 C   0  0  0  0  0  0  0  0  0  0  0  0
   -6.9050   17.0820  -33.2080 C   0  0  0  0  0  0  0  0  0  0  0  0
   -6.7660   18.4640  -32.9300 C   0  0  0  0  0  0  0  0  0  0  0  0
   -7.7670   19.1940  -32.2810 N   0  0  0  0  0  0  0  0  0  0  0  0
   -9.0890   18.5870  -32.0210 C   0  0  0  0  0  0  0  0  0  0  0  0
   -4.1169   22.6219  -27.9952 H   0  0  0  0  0  0  0  0  0  0  0  0
   -4.4489   23.5362  -29.5054 H   0  0  0  0  0  0  0  0  0  0  0  0
   -4.5309   21.7417  -29.5054 H   0  0  0  0  0  0  0  0  0  0  0  0
   -2.2877   23.3828  -30.1358 H   0  0  0  0  0  0  0  0  0  0  0  0
   -1.9420   22.6132  -28.5262 H   0  0  0  0  0  0  0  0  0  0  0  0
   -3.0410   20.7280  -30.3410 H   0  0  0  0  0  0  0  0  0  0  0  0
   -1.1327   19.4482  -29.8193 H   0  0  0  0  0  0  0  0  0  0  0  0
   -0.3702   20.9348  -29.0957 H   0  0  0  0  0  0  0  0  0  0  0  0
   -1.2732   20.4117  -27.1236 H   0  0  0  0  0  0  0  0  0  0  0  0
   -2.9070   20.6067  -27.8442 H   0  0  0  0  0  0  0  0  0  0  0  0
   -2.1118   18.9960  -27.8442 H   0  0  0  0  0  0  0  0  0  0  0  0
   -1.8172   22.5087  -31.7989 H   0  0  0  0  0  0  0  0  0  0  0  0
   -0.4561   21.3767  -31.3267 H   0  0  0  0  0  0  0  0  0  0  0  0
   -1.0810   20.1446  -33.0944 H   0  0  0  0  0  0  0  0  0  0  0  0
   -2.4699   19.6356  -32.0691 H   0  0  0  0  0  0  0  0  0  0  0  0
   -2.4790   21.7280  -34.2280 H   0  0  0  0  0  0  0  0  0  0  0  0
   -4.0247   23.4957  -32.4862 H   0  0  0  0  0  0  0  0  0  0  0  0
   -6.5119   24.2249  -31.0099 H   0  0  0  0  0  0  0  0  0  0  0  0
   -8.7036   23.2746  -30.2059 H   0  0  0  0  0  0  0  0  0  0  0  0
   -9.3410   20.9097  -30.7545 H   0  0  0  0  0  0  0  0  0  0  0  0
   -3.6885   18.9087  -34.4488 H   0  0  0  0  0  0  0  0  0  0  0  0
   -4.0375   16.5020  -34.9720 H   0  0  0  0  0  0  0  0  0  0  0  0
   -6.0545   15.3172  -34.1297 H   0  0  0  0  0  0  0  0  0  0  0  0
   -7.7980   16.5455  -32.8548 H   0  0  0  0  0  0  0  0  0  0  0  0
   -9.2512   18.5125  -30.9356 H   0  0  0  0  0  0  0  0  0  0  0  0
   -9.8747   19.2145  -32.4669 H   0  0  0  0  0  0  0  0  0  0  0  0
   -9.1252   17.5821  -32.4669 H   0  0  0  0  0  0  0  0  0  0  0  0
  1  2  1  0
  2  3  1  0
  3  4  1  0
  4  5  1  0
  3  6  1  0
  6  7  1  0
  7  8  1  0
  8  9  1  0
  9 10  2  0
 10 11  1  0
 11 12  2  0
 12 13  1  0
 13 14  2  0
 14 15  1  0
 15 16  2  0
 16 17  1  0
 17 18  2  0
 18 19  1  0
 19 20  2  0
 20 21  1  0
 21 22  2  0
 22 23  1  0
 23 24  2  0
 24 25  1  0
 17  9  1  0
 23 18  1  0
 16 11  1  0
 24 15  1  0
  1 26  1  0
  1 27  1  0
  1 28  1  0
  2 29  1  0
  2 30  1  0
  3 31  1  0
  4 32  1  0
  4 33  1  0
  5 34  1  0
  5 35  1  0
  5 36  1  0
  6 37  1  0
  6 38  1  0
  7 39  1  0
  7 40  1  0
  8 41  1  0
 10 42  1  0
 12 43  1  0
 13 44  1  0
 14 45  1  0
 19 46  1  0
 20 47  1  0
 21 48  1  0
 22 49  1  0
 25 50  1  0
 25 51  1  0
 25 52  1  0
M  CHG  2   3   1  24   1
M  END
>  <UniqueID>  (17) 
17

>  <SMILES>  (17) 
CC[NH+](CC)CCNC1=Cc2cccc3c2c1c1ccccc1[n+]3C

>  <Energy>  (17) 
115.83778764646014

>  <Genealogy>  (17) 
CC[NH+](CC)CCNC1=Cc2cccc3c2c1c1ccccc1[n+]3C (protonated)
CC[NH+](CC)CCNC1=Cc2cccc3c2c1c1ccccc1[n+]3C (3D coordinates assigned)
CC[NH+](CC)CCNC1=Cc2cccc3c2c1c1ccccc1[n+]3C (nonaromatic ring conformer: 115.83778764646014 kcal/mol)

>  <smiles>  (17) 
CCN(CC)CCNC1=Cc2cccc3c2c1c1ccccc1[n+]3C

>  <score_type>  (17) 
oracle

>  <origin>  (17) 
adg

>  <m_score__min__energy>  (17) 
-7.6699999999999999

>  <m_primary>  (17) 
energy

$$$$
17:0
     RDKit          3D

 27 27  0  0  0  0  0  0  0  0999 V2000
   -8.3780   18.1810  -31.5920 C   0  0  0  0  0  0  0  0  0  0  0  0
   -9.1040   19.3400  -32.2770 C   0  0  0  0  0  0  0  0  0  0  0  0
   -8.2480   20.0450  -33.2480 N   0  0  0  0  0  0  0  0  0  0  0  0
   -6.8240   19.6420  -33.1740 C   0  0  0  0  0  0  0  0  0  0  0  0
   -5.9530   20.7280  -32.5250 C   0  0  0  0  0  0  0  0  0  0  0  0
   -6.7350   21.8830  -32.2180 O   0  0  0  0  0  0  0  0  0  0  0  0
   -6.2790   23.0180  -31.5280 C   0  0  0  0  0  0  0  0  0  0  0  0
   -7.2020   23.7570  -30.7800 C   0  0  0  0  0  0  0  0  0  0  0  0
   -6.7910   24.8920  -30.0780 C   0  0  0  0  0  0  0  0  0  0  0  0
   -5.4510   25.2790  -30.1280 C   0  0  0  0  0  0  0  0  0  0  0  0
   -4.5620   24.5520  -30.8540 N   0  0  0  0  0  0  0  0  0  0  0  0
   -4.9360   23.4430  -31.5470 C   0  0  0  0  0  0  0  0  0  0  0  0
   -8.4505   18.2968  -30.5005 H   0  0  0  0  0  0  0  0  0  0  0  0
   -8.8418   17.2296  -31.8914 H   0  0  0  0  0  0  0  0  0  0  0  0
   -7.3195   18.1831  -31.8914 H   0  0  0  0  0  0  0  0  0  0  0  0
   -9.9837   18.9430  -32.8048 H   0  0  0  0  0  0  0  0  0  0  0  0
   -9.3922   20.0617  -31.4985 H   0  0  0  0  0  0  0  0  0  0  0  0
   -8.6370   19.9240  -34.2130 H   0  0  0  0  0  0  0  0  0  0  0  0
   -8.3090   21.0670  -33.0280 H   0  0  0  0  0  0  0  0  0  0  0  0
   -6.7459   18.7207  -32.5781 H   0  0  0  0  0  0  0  0  0  0  0  0
   -6.4615   19.4832  -34.2003 H   0  0  0  0  0  0  0  0  0  0  0  0
   -5.5132   20.3323  -31.5976 H   0  0  0  0  0  0  0  0  0  0  0  0
   -5.1593   21.0146  -33.2306 H   0  0  0  0  0  0  0  0  0  0  0  0
   -8.2556   23.4427  -30.7448 H   0  0  0  0  0  0  0  0  0  0  0  0
   -7.5161   25.4752  -29.4915 H   0  0  0  0  0  0  0  0  0  0  0  0
   -5.1150   26.1717  -29.5802 H   0  0  0  0  0  0  0  0  0  0  0  0
   -4.1889   22.8773  -32.1230 H   0  0  0  0  0  0  0  0  0  0  0  0
  1  2  1  0
  2  3  1  0
  3  4  1  0
  4  5  1  0
  5  6  1  0
  6  7  1  0
  7  8  2  0
  8  9  1  0
  9 10  2  0
 10 11  1  0
 11 12  2  0
 12  7  1  0
  1 13  1  0
  1 14  1  0
  1 15  1  0
  2 16  1  0
  2 17  1  0
  3 18  1  0
  3 19  1  0
  4 20  1  0
  4 21  1  0
  5 22  1  0
  5 23  1  0
  8 24  1  0
  9 25  1  0
 10 26  1  0
 12 27  1  0
M  CHG  1   3   1
M  END
>  <UniqueID>  (18) 
18

>  <SMILES>  (18) 
CC[NH2+]CCOc1cccnc1

>  <Energy>  (18) 
25.294202630954878

>  <Genealogy>  (18) 
CC[NH2+]CCOc1cccnc1 (protonated)
CC[NH2+]CCOc1cccnc1 (3D coordinates assigned)
CC[NH2+]CCOc1cccnc1 (optimized conformer: 25.294202630954878 kcal/mol)

>  <smiles>  (18) 
CCNCCOc1cccnc1

>  <score_type>  (18) 
oracle

>  <origin>  (18) 
adg

>  <m_score__min__energy>  (18) 
-4.0099999999999998

>  <m_primary>  (18) 
energy

$$$$
18:0
     RDKit          3D

 25 27  0  0  0  0  0  0  0  0999 V2000
   -6.2640   25.5950  -29.7160 C   0  0  0  0  0  0  0  0  0  0  0  0
   -5.8710   24.4800  -30.5650 N   0  0  0  0  0  0  0  0  0  0  0  0
   -6.6990   23.5520  -31.0790 C   0  0  0  0  0  0  0  0  0  0  0  0
   -5.9340   22.6290  -31.7610 C   0  0  0  0  0  0  0  0  0  0  0  0
   -6.4220   21.4030  -32.4220 C   0  0  0  0  0  0  0  0  0  0  0  0
   -7.7570   21.0550  -32.5840 C   0  0  0  0  0  0  0  0  0  0  0  0
   -7.8270   19.8560  -33.2040 N   0  0  0  0  0  0  0  0  0  0  0  0
   -6.5460   19.5050  -33.4180 C   0  0  0  0  0  0  0  0  0  0  0  0
   -6.0960   18.3550  -34.0600 C   0  0  0  0  0  0  0  0  0  0  0  0
   -4.7510   18.1970  -34.2220 N   0  0  0  0  0  0  0  0  0  0  0  0
   -3.8600   19.1350  -33.7800 C   0  0  0  0  0  0  0  0  0  0  0  0
   -4.3290   20.2910  -33.1380 C   0  0  0  0  0  0  0  0  0  0  0  0
   -5.6710   20.4190  -32.9630 N   0  0  0  0  0  0  0  0  0  0  0  0
   -4.6250   23.0460  -31.5860 C   0  0  0  0  0  0  0  0  0  0  0  0
   -4.6140   24.1740  -30.8500 N   0  0  0  0  0  0  0  0  0  0  0  0
   -6.1619   25.3053  -28.6597 H   0  0  0  0  0  0  0  0  0  0  0  0
   -5.6165   26.4597  -29.9233 H   0  0  0  0  0  0  0  0  0  0  0  0
   -7.3106   25.8626  -29.9233 H   0  0  0  0  0  0  0  0  0  0  0  0
   -7.7938   23.5329  -30.9737 H   0  0  0  0  0  0  0  0  0  0  0  0
   -8.6182   21.6579  -32.2600 H   0  0  0  0  0  0  0  0  0  0  0  0
   -8.6880   19.3270  -33.4670 H   0  0  0  0  0  0  0  0  0  0  0  0
   -6.8037   17.5965  -34.4257 H   0  0  0  0  0  0  0  0  0  0  0  0
   -2.7804   18.9841  -33.9270 H   0  0  0  0  0  0  0  0  0  0  0  0
   -3.6337   21.0681  -32.7878 H   0  0  0  0  0  0  0  0  0  0  0  0
   -3.7353   22.5367  -31.9849 H   0  0  0  0  0  0  0  0  0  0  0  0
  1  2  1  0
  2  3  1  0
  3  4  2  0
  4  5  1  0
  5  6  2  0
  6  7  1  0
  7  8  2  0
  8  9  1  0
  9 10  2  0
 10 11  1  0
 11 12  2  0
 12 13  1  0
  4 14  1  0
 14 15  2  0
 15  2  1  0
 13  5  1  0
 13  8  1  0
  1 16  1  0
  1 17  1  0
  1 18  1  0
  3 19  1  0
  6 20  1  0
  7 21  1  0
  9 22  1  0
 11 23  1  0
 12 24  1  0
 14 25  1  0
M  CHG  1   7   1
M  END
>  <UniqueID>  (19) 
19

>  <SMILES>  (19) 
Cn1cc(-c2c[nH+]c3cnccn23)cn1

>  <Energy>  (19) 
97.86924215122018

>  <Genealogy>  (19) 
Cn1cc(-c2c[nH+]c3cnccn23)cn1 (protonated)
Cn1cc(-c2c[nH+]c3cnccn23)cn1 (3D coordinates assigned)
Cn1cc(-c2c[nH+]c3cnccn23)cn1 (optimized conformer: 97.86924215122018 kcal/mol)

>  <smiles>  (19) 
Cn1cc(-c2cnc3cnccn23)cn1

>  <score_type>  (19) 
oracle

>  <origin>  (19) 
adg

>  <m_score__min__energy>  (19) 
-5.6100000000000003

>  <m_primary>  (19) 
energy

$$$$
19:0
     RDKit          3D

 49 51  0  0  0  0  0  0  0  0999 V2000
   -6.4780   17.4540  -31.1830 C   0  0  0  0  0  0  0  0  0  0  0  0
   -5.7310   17.0810  -32.4610 C   0  0  0  0  0  0  0  0  0  0  0  0
   -5.5670   18.2720  -33.3260 N   0  0  0  0  0  0  0  0  0  0  0  0
   -5.5390   17.8940  -34.7570 C   0  0  0  0  0  0  0  0  0  0  0  0
   -4.2560   17.1300  -35.0770 C   0  0  0  0  0  0  0  0  0  0  0  0
   -4.3560   19.0390  -32.9510 C   0  0  0  0  0  0  0  0  0  0  0  0
   -4.4380   20.4600  -33.5150 C   0  0  0  0  0  0  0  0  0  0  0  0
   -5.1160   21.3380  -32.5620 N   0  0  0  0  0  0  0  0  0  0  0  0
   -4.5460   22.3800  -31.9130 C   0  0  0  0  0  0  0  0  0  0  0  0
   -5.5060   23.0790  -31.1930 C   0  0  0  0  0  0  0  0  0  0  0  0
   -5.2350   24.5570  -30.2750 S   0  0  0  0  0  0  0  0  0  0  0  0
   -6.5320   25.3030  -30.1390 O   0  0  0  0  0  0  0  0  0  0  0  0
   -4.2330   25.4250  -30.9820 O   0  0  0  0  0  0  0  0  0  0  0  0
   -4.5990   24.1690  -28.6520 C   0  0  0  0  0  0  0  0  0  0  0  0
   -3.1040   24.2310  -28.6510 C   0  0  0  0  0  0  0  0  0  0  0  0
   -2.2550   23.2900  -28.1060 C   0  0  0  0  0  0  0  0  0  0  0  0
   -0.9830   23.7840  -28.2990 C   0  0  0  0  0  0  0  0  0  0  0  0
   -1.1350   24.9930  -28.9480 C   0  0  0  0  0  0  0  0  0  0  0  0
   -2.4110   25.2320  -29.1440 O   0  0  0  0  0  0  0  0  0  0  0  0
   -6.7040   22.4260  -31.4180 C   0  0  0  0  0  0  0  0  0  0  0  0
   -7.9980   22.6880  -30.9660 C   0  0  0  0  0  0  0  0  0  0  0  0
   -9.0340   21.8460  -31.4100 C   0  0  0  0  0  0  0  0  0  0  0  0
   -8.7600   20.7770  -32.2900 C   0  0  0  0  0  0  0  0  0  0  0  0
   -7.4470   20.5350  -32.7290 C   0  0  0  0  0  0  0  0  0  0  0  0
   -6.4320   21.3780  -32.2650 C   0  0  0  0  0  0  0  0  0  0  0  0
   -5.8807   17.1557  -30.3088 H   0  0  0  0  0  0  0  0  0  0  0  0
   -6.6446   18.5411  -31.1597 H   0  0  0  0  0  0  0  0  0  0  0  0
   -7.4470   16.9340  -31.1597 H   0  0  0  0  0  0  0  0  0  0  0  0
   -4.7394   16.6834  -32.1990 H   0  0  0  0  0  0  0  0  0  0  0  0
   -6.3100   16.3202  -33.0051 H   0  0  0  0  0  0  0  0  0  0  0  0
   -6.4068   17.2563  -34.9812 H   0  0  0  0  0  0  0  0  0  0  0  0
   -5.5747   18.8069  -35.3696 H   0  0  0  0  0  0  0  0  0  0  0  0
   -3.7612   16.8354  -34.1398 H   0  0  0  0  0  0  0  0  0  0  0  0
   -4.5008   16.2305  -35.6609 H   0  0  0  0  0  0  0  0  0  0  0  0
   -3.5818   17.7738  -35.6609 H   0  0  0  0  0  0  0  0  0  0  0  0
   -4.2803   19.0865  -31.8546 H   0  0  0  0  0  0  0  0  0  0  0  0
   -3.4692   18.5375  -33.3659 H   0  0  0  0  0  0  0  0  0  0  0  0
   -3.4216   20.8380  -33.6992 H   0  0  0  0  0  0  0  0  0  0  0  0
   -5.0059   20.4424  -34.4569 H   0  0  0  0  0  0  0  0  0  0  0  0
   -3.4769   22.6362  -31.9504 H   0  0  0  0  0  0  0  0  0  0  0  0
   -4.9927   24.8947  -27.9251 H   0  0  0  0  0  0  0  0  0  0  0  0
   -4.9149   23.1516  -28.3780 H   0  0  0  0  0  0  0  0  0  0  0  0
   -2.5347   22.3439  -27.6195 H   0  0  0  0  0  0  0  0  0  0  0  0
   -0.0372   23.3105  -27.9968 H   0  0  0  0  0  0  0  0  0  0  0  0
   -0.3120   25.6554  -29.2544 H   0  0  0  0  0  0  0  0  0  0  0  0
   -8.2016   23.5266  -30.2839 H   0  0  0  0  0  0  0  0  0  0  0  0
  -10.0649   22.0220  -31.0689 H   0  0  0  0  0  0  0  0  0  0  0  0
   -9.5795   20.1291  -32.6345 H   0  0  0  0  0  0  0  0  0  0  0  0
   -7.2241   19.7066  -33.4175 H   0  0  0  0  0  0  0  0  0  0  0  0
  1  2  1  0
  2  3  1  0
  3  4  1  0
  4  5  1  0
  3  6  1  0
  6  7  1  0
  7  8  1  0
  8  9  1  0
  9 10  2  0
 10 11  1  0
 11 12  2  0
 11 13  2  0
 11 14  1  0
 14 15  1  0
 15 16  2  0
 16 17  1  0
 17 18  2  0
 18 19  1  0
 10 20  1  0
 20 21  2  0
 21 22  1  0
 22 23  2  0
 23 24  1  0
 24 25  2  0
 25  8  1  0
 19 15  1  0
 25 20  1  0
  1 26  1  0
  1 27  1  0
  1 28  1  0
  2 29  1  0
  2 30  1  0
  4 31  1  0
  4 32  1  0
  5 33  1  0
  5 34  1  0
  5 35  1  0
  6 36  1  0
  6 37  1  0
  7 38  1  0
  7 39  1  0
  9 40  1  0
 14 41  1  0
 14 42  1  0
 16 43  1  0
 17 44  1  0
 18 45  1  0
 21 46  1  0
 22 47  1  0
 23 48  1  0
 24 49  1  0
M  END
>  <UniqueID>  (20) 
20

>  <SMILES>  (20) 
CCN(CC)CCn1cc(S(=O)(=O)Cc2ccco2)c2ccccc21

>  <Energy>  (20) 
101.47573592898104

>  <Genealogy>  (20) 
CCN(CC)CCn1cc(S(=O)(=O)Cc2ccco2)c2ccccc21 (3D coordinates assigned)
CCN(CC)CCn1cc(S(=O)(=O)Cc2ccco2)c2ccccc21 (optimized conformer: 101.47573592898104 kcal/mol)

>  <smiles>  (20) 
CCN(CC)CCn1cc(S(=O)(=O)Cc2ccco2)c2ccccc21

>  <score_type>  (20) 
oracle

>  <origin>  (20) 
adg

>  <m_score__min__energy>  (20) 
-9.5

>  <m_primary>  (20) 
energy

$$$$
20:0
     RDKit          3D

 50 52  0  0  0  0  0  0  0  0999 V2000
   -6.2550   25.7260  -29.5610 C   0  0  0  0  0  0  0  0  0  0  0  0
   -5.2430   25.5790  -30.6970 C   0  0  0  0  0  0  0  0  0  0  0  0
   -4.8810   24.1590  -30.9140 N   0  0  0  0  0  0  0  0  0  0  0  0
   -3.4990   23.8550  -30.4760 C   0  0  0  0  0  0  0  0  0  0  0  0
   -3.3700   22.5230  -29.7220 C   0  0  0  0  0  0  0  0  0  0  0  0
   -5.8810   23.2100  -30.3690 C   0  0  0  0  0  0  0  0  0  0  0  0
   -7.0190   23.0260  -31.3860 C   0  0  0  0  0  0  0  0  0  0  0  0
   -6.5250   22.6360  -32.7220 N   0  0  0  0  0  0  0  0  0  0  0  0
   -6.2090   21.2180  -32.7850 C   0  0  0  0  0  0  0  0  0  0  0  0
   -4.8760   20.7650  -33.0430 C   0  0  0  0  0  0  0  0  0  0  0  0
   -3.7860   21.6670  -33.0960 C   0  0  0  0  0  0  0  0  0  0  0  0
   -2.4890   21.2180  -33.3330 C   0  0  0  0  0  0  0  0  0  0  0  0
   -2.2400   19.8650  -33.5140 C   0  0  0  0  0  0  0  0  0  0  0  0
   -3.2850   18.9470  -33.4700 C   0  0  0  0  0  0  0  0  0  0  0  0
   -4.6210   19.3660  -33.2500 C   0  0  0  0  0  0  0  0  0  0  0  0
   -5.6610   18.4530  -33.2290 N   0  0  0  0  0  0  0  0  0  0  0  0
   -5.4360   17.0270  -33.5360 C   0  0  0  0  0  0  0  0  0  0  0  0
   -6.9070   18.8990  -32.8850 C   0  0  0  0  0  0  0  0  0  0  0  0
   -8.0680   18.1720  -32.6830 C   0  0  0  0  0  0  0  0  0  0  0  0
   -9.0280   19.0010  -32.3480 O   0  0  0  0  0  0  0  0  0  0  0  0
   -8.5630   20.2320  -32.3160 C   0  0  0  0  0  0  0  0  0  0  0  0
   -9.4400   21.3750  -31.9130 C   0  0  0  0  0  0  0  0  0  0  0  0
   -7.2020   20.2230  -32.6580 C   0  0  0  0  0  0  0  0  0  0  0  0
   -5.7350   25.6505  -28.5946 H   0  0  0  0  0  0  0  0  0  0  0  0
   -6.7501   26.7055  -29.6354 H   0  0  0  0  0  0  0  0  0  0  0  0
   -7.0083   24.9278  -29.6354 H   0  0  0  0  0  0  0  0  0  0  0  0
   -5.6811   25.9826  -31.6218 H   0  0  0  0  0  0  0  0  0  0  0  0
   -4.3320   26.1321  -30.4246 H   0  0  0  0  0  0  0  0  0  0  0  0
   -2.8535   23.8145  -31.3658 H   0  0  0  0  0  0  0  0  0  0  0  0
   -3.2005   24.6505  -29.7774 H   0  0  0  0  0  0  0  0  0  0  0  0
   -3.3883   22.7118  -28.6385 H   0  0  0  0  0  0  0  0  0  0  0  0
   -4.2086   21.8651  -29.9938 H   0  0  0  0  0  0  0  0  0  0  0  0
   -2.4207   22.0383  -29.9938 H   0  0  0  0  0  0  0  0  0  0  0  0
   -5.3996   22.2396  -30.1776 H   0  0  0  0  0  0  0  0  0  0  0  0
   -6.2900   23.6078  -29.4285 H   0  0  0  0  0  0  0  0  0  0  0  0
   -7.6978   22.2424  -31.0181 H   0  0  0  0  0  0  0  0  0  0  0  0
   -7.5351   23.9919  -31.4890 H   0  0  0  0  0  0  0  0  0  0  0  0
   -5.7180   23.2350  -32.9740 H   0  0  0  0  0  0  0  0  0  0  0  0
   -7.2440   22.8660  -33.4420 H   0  0  0  0  0  0  0  0  0  0  0  0
   -3.9667   22.7418  -32.9473 H   0  0  0  0  0  0  0  0  0  0  0  0
   -1.6591   21.9386  -33.3768 H   0  0  0  0  0  0  0  0  0  0  0  0
   -1.2121   19.5165  -33.6930 H   0  0  0  0  0  0  0  0  0  0  0  0
   -3.0703   17.8771  -33.6084 H   0  0  0  0  0  0  0  0  0  0  0  0
   -5.3465   16.4597  -32.5979 H   0  0  0  0  0  0  0  0  0  0  0  0
   -6.2841   16.6393  -34.1195 H   0  0  0  0  0  0  0  0  0  0  0  0
   -4.5097   16.9193  -34.1195 H   0  0  0  0  0  0  0  0  0  0  0  0
   -8.1686   17.0815  -32.7862 H   0  0  0  0  0  0  0  0  0  0  0  0
   -9.4849   21.4335  -30.8155 H   0  0  0  0  0  0  0  0  0  0  0  0
   -9.0274   22.3127  -32.3136 H   0  0  0  0  0  0  0  0  0  0  0  0
  -10.4526   21.2192  -32.3136 H   0  0  0  0  0  0  0  0  0  0  0  0
  1  2  1  0
  2  3  1  0
  3  4  1  0
  4  5  1  0
  3  6  1  0
  6  7  1  0
  7  8  1  0
  8  9  1  0
  9 10  2  0
 10 11  1  0
 11 12  2  0
 12 13  1  0
 13 14  2  0
 14 15  1  0
 15 16  2  0
 16 17  1  0
 16 18  1  0
 18 19  2  0
 19 20  1  0
 20 21  1  0
 21 22  1  0
 21 23  2  0
 23  9  1  0
 15 10  1  0
 23 18  1  0
  1 24  1  0
  1 25  1  0
  1 26  1  0
  2 27  1  0
  2 28  1  0
  4 29  1  0
  4 30  1  0
  5 31  1  0
  5 32  1  0
  5 33  1  0
  6 34  1  0
  6 35  1  0
  7 36  1  0
  7 37  1  0
  8 38  1  0
  8 39  1  0
 11 40  1  0
 12 41  1  0
 13 42  1  0
 14 43  1  0
 17 44  1  0
 17 45  1  0
 17 46  1  0
 19 47  1  0
 22 48  1  0
 22 49  1  0
 22 50  1  0
M  CHG  2   8   1  16   1
M  END
>  <UniqueID>  (21) 
21

>  <SMILES>  (21) 
CCN(CC)CC[NH2+]c1c2ccccc2[n+](C)c2coc(C)c12

>  <Energy>  (21) 
103.5015738310636

>  <Genealogy>  (21) 
CCN(CC)CC[NH2+]c1c2ccccc2[n+](C)c2coc(C)c12 (protonated)
CCN(CC)CC[NH2+]c1c2ccccc2[n+](C)c2coc(C)c12 (3D coordinates assigned)
CCN(CC)CC[NH2+]c1c2ccccc2[n+](C)c2coc(C)c12 (optimized conformer: 103.5015738310636 kcal/mol)

>  <smiles>  (21) 
CCN(CC)CCNc1c2ccccc2[n+](C)c2coc(C)c12

>  <score_type>  (21) 
oracle

>  <origin>  (21) 
adg

>  <m_score__min__energy>  (21) 
-7.3499999999999996

>  <m_primary>  (21) 
energy

$$$$
21:0
     RDKit          3D

 53 55  0  0  0  0  0  0  0  0999 V2000
   -2.7050   20.4120  -27.8450 C   0  0  0  0  0  0  0  0  0  0  0  0
   -3.0230   20.9050  -29.2550 C   0  0  0  0  0  0  0  0  0  0  0  0
   -1.8020   21.2880  -30.0080 N   0  0  0  0  0  0  0  0  0  0  0  0
   -1.6270   20.3590  -31.1520 C   0  0  0  0  0  0  0  0  0  0  0  0
   -1.3510   21.1150  -32.4520 C   0  0  0  0  0  0  0  0  0  0  0  0
   -1.8570   22.7030  -30.4670 C   0  0  0  0  0  0  0  0  0  0  0  0
   -1.8090   23.6830  -29.2800 C   0  0  0  0  0  0  0  0  0  0  0  0
   -3.0610   24.5520  -29.1630 C   0  0  0  0  0  0  0  0  0  0  0  0
   -3.5120   24.9350  -30.4570 O   0  0  0  0  0  0  0  0  0  0  0  0
   -4.8620   24.9230  -30.8240 C   0  0  0  0  0  0  0  0  0  0  0  0
   -5.5470   25.9800  -30.7430 O   0  0  0  0  0  0  0  0  0  0  0  0
   -5.4770   23.6730  -31.3180 C   0  0  0  0  0  0  0  0  0  0  0  0
   -6.8650   23.4730  -31.2320 C   0  0  0  0  0  0  0  0  0  0  0  0
   -7.4460   22.2940  -31.7070 C   0  0  0  0  0  0  0  0  0  0  0  0
   -6.6500   21.2840  -32.2850 C   0  0  0  0  0  0  0  0  0  0  0  0
   -7.1990   20.0770  -32.7840 C   0  0  0  0  0  0  0  0  0  0  0  0
   -8.9860   19.7790  -32.7010 S   0  0  0  0  0  0  0  0  0  0  0  0
   -8.8390   18.5320  -31.3840 C   0  0  0  0  0  0  0  0  0  0  0  0
   -6.3370   19.1030  -33.3440 C   0  0  0  0  0  0  0  0  0  0  0  0
   -6.8100   17.8740  -33.8540 C   0  0  0  0  0  0  0  0  0  0  0  0
   -5.9210   16.9440  -34.4010 C   0  0  0  0  0  0  0  0  0  0  0  0
   -4.5540   17.2200  -34.4480 C   0  0  0  0  0  0  0  0  0  0  0  0
   -4.0680   18.4290  -33.9480 C   0  0  0  0  0  0  0  0  0  0  0  0
   -4.9470   19.3690  -33.3970 C   0  0  0  0  0  0  0  0  0  0  0  0
   -4.4550   20.5370  -32.9160 N   0  0  0  0  0  0  0  0  0  0  0  0
   -5.2530   21.4870  -32.3690 C   0  0  0  0  0  0  0  0  0  0  0  0
   -4.6780   22.6700  -31.8890 C   0  0  0  0  0  0  0  0  0  0  0  0
   -3.1477   21.0983  -27.1081 H   0  0  0  0  0  0  0  0  0  0  0  0
   -3.1239   19.4045  -27.7057 H   0  0  0  0  0  0  0  0  0  0  0  0
   -1.6144   20.3781  -27.7057 H   0  0  0  0  0  0  0  0  0  0  0  0
   -3.5386   20.1021  -29.8023 H   0  0  0  0  0  0  0  0  0  0  0  0
   -3.6558   21.8001  -29.1633 H   0  0  0  0  0  0  0  0  0  0  0  0
   -0.7804   19.6889  -30.9418 H   0  0  0  0  0  0  0  0  0  0  0  0
   -2.5582   19.7869  -31.2770 H   0  0  0  0  0  0  0  0  0  0  0  0
   -0.9824   22.1246  -32.2179 H   0  0  0  0  0  0  0  0  0  0  0  0
   -0.5923   20.5741  -33.0367 H   0  0  0  0  0  0  0  0  0  0  0  0
   -2.2797   21.1902  -33.0367 H   0  0  0  0  0  0  0  0  0  0  0  0
   -0.9989   22.8984  -31.1269 H   0  0  0  0  0  0  0  0  0  0  0  0
   -2.8055   22.8557  -31.0028 H   0  0  0  0  0  0  0  0  0  0  0  0
   -1.6988   23.1025  -28.3521 H   0  0  0  0  0  0  0  0  0  0  0  0
   -0.9578   24.3588  -29.4494 H   0  0  0  0  0  0  0  0  0  0  0  0
   -3.8533   23.9824  -28.6552 H   0  0  0  0  0  0  0  0  0  0  0  0
   -2.8199   25.4553  -28.5834 H   0  0  0  0  0  0  0  0  0  0  0  0
   -7.5008   24.2522  -30.7863 H   0  0  0  0  0  0  0  0  0  0  0  0
   -8.5341   22.1528  -31.6292 H   0  0  0  0  0  0  0  0  0  0  0  0
   -8.8973   19.0262  -30.4030 H   0  0  0  0  0  0  0  0  0  0  0  0
   -9.6574   17.8028  -31.4764 H   0  0  0  0  0  0  0  0  0  0  0  0
   -7.8735   18.0131  -31.4764 H   0  0  0  0  0  0  0  0  0  0  0  0
   -7.8858   17.6468  -33.8206 H   0  0  0  0  0  0  0  0  0  0  0  0
   -6.3009   15.9903  -34.7962 H   0  0  0  0  0  0  0  0  0  0  0  0
   -3.8591   16.4844  -34.8793 H   0  0  0  0  0  0  0  0  0  0  0  0
   -2.9900   18.6441  -33.9870 H   0  0  0  0  0  0  0  0  0  0  0  0
   -3.5899   22.8148  -31.9600 H   0  0  0  0  0  0  0  0  0  0  0  0
  1  2  1  0
  2  3  1  0
  3  4  1  0
  4  5  1  0
  3  6  1  0
  6  7  1  0
  7  8  1  0
  8  9  1  0
  9 10  1  0
 10 11  2  0
 10 12  1  0
 12 13  2  0
 13 14  1  0
 14 15  2  0
 15 16  1  0
 16 17  1  0
 17 18  1  0
 16 19  2  0
 19 20  1  0
 20 21  2  0
 21 22  1  0
 22 23  2  0
 23 24  1  0
 24 25  2  0
 25 26  1  0
 26 27  2  0
 27 12  1  0
 26 15  1  0
 24 19  1  0
  1 28  1  0
  1 29  1  0
  1 30  1  0
  2 31  1  0
  2 32  1  0
  4 33  1  0
  4 34  1  0
  5 35  1  0
  5 36  1  0
  5 37  1  0
  6 38  1  0
  6 39  1  0
  7 40  1  0
  7 41  1  0
  8 42  1  0
  8 43  1  0
 13 44  1  0
 14 45  1  0
 18 46  1  0
 18 47  1  0
 18 48  1  0
 20 49  1  0
 21 50  1  0
 22 51  1  0
 23 52  1  0
 27 53  1  0
M  END
>  <UniqueID>  (22) 
22

>  <SMILES>  (22) 
CCN(CC)CCCOC(=O)c1ccc2c(SC)c3ccccc3nc2c1

>  <Energy>  (22) 
54.535586981636676

>  <Genealogy>  (22) 
CCN(CC)CCCOC(=O)c1ccc2c(SC)c3ccccc3nc2c1 (3D coordinates assigned)
CCN(CC)CCCOC(=O)c1ccc2c(SC)c3ccccc3nc2c1 (optimized conformer: 54.535586981636676 kcal/mol)

>  <smiles>  (22) 
CCN(CC)CCCOC(=O)c1ccc2c(SC)c3ccccc3nc2c1

>  <score_type>  (22) 
oracle

>  <origin>  (22) 
adg

>  <m_score__min__energy>  (22) 
-9.5099999999999998

>  <m_primary>  (22) 
energy

$$$$
22:0
     RDKit          3D

 52 54  0  0  0  0  0  0  0  0999 V2000
   -1.0650   22.9230  -29.3930 C   0  0  0  0  0  0  0  0  0  0  0  0
   -0.4940   24.3070  -29.1060 C   0  0  0  0  0  0  0  0  0  0  0  0
   -1.5830   25.2620  -28.8520 N   0  0  0  0  0  0  0  0  0  0  0  0
   -2.7040   24.6750  -28.0930 C   0  0  0  0  0  0  0  0  0  0  0  0
   -3.9640   24.4170  -28.9530 C   0  0  0  0  0  0  0  0  0  0  0  0
   -3.8340   24.8920  -30.3430 N   0  0  0  0  0  0  0  0  0  0  0  0
   -5.1060   25.3530  -30.9190 C   0  0  0  0  0  0  0  0  0  0  0  0
   -5.8480   24.1760  -31.5660 C   0  0  0  0  0  0  0  0  0  0  0  0
   -5.6830   22.9210  -30.8060 N   0  0  0  0  0  0  0  0  0  0  0  0
   -5.6740   21.7500  -31.6760 C   0  0  0  0  0  0  0  0  0  0  0  0
   -4.4540   21.3020  -32.2570 C   0  0  0  0  0  0  0  0  0  0  0  0
   -3.2230   21.9660  -32.0160 C   0  0  0  0  0  0  0  0  0  0  0  0
   -2.0260   21.4750  -32.5270 C   0  0  0  0  0  0  0  0  0  0  0  0
   -2.0150   20.3110  -33.2790 C   0  0  0  0  0  0  0  0  0  0  0  0
   -3.2090   19.6540  -33.5620 C   0  0  0  0  0  0  0  0  0  0  0  0
   -4.4540   20.1570  -33.1010 C   0  0  0  0  0  0  0  0  0  0  0  0
   -5.6400   19.5480  -33.4500 N   0  0  0  0  0  0  0  0  0  0  0  0
   -5.6700   18.5820  -34.5740 C   0  0  0  0  0  0  0  0  0  0  0  0
   -6.8060   19.8640  -32.7840 C   0  0  0  0  0  0  0  0  0  0  0  0
   -7.9680   19.0600  -32.9250 C   0  0  0  0  0  0  0  0  0  0  0  0
   -9.1700   19.4170  -32.3270 C   0  0  0  0  0  0  0  0  0  0  0  0
   -9.2500   20.5720  -31.5660 C   0  0  0  0  0  0  0  0  0  0  0  0
   -8.1170   21.3540  -31.3620 C   0  0  0  0  0  0  0  0  0  0  0  0
   -6.8640   21.0040  -31.9300 C   0  0  0  0  0  0  0  0  0  0  0  0
   -1.2768   22.4096  -28.4435 H   0  0  0  0  0  0  0  0  0  0  0  0
   -1.9954   23.0229  -29.9713 H   0  0  0  0  0  0  0  0  0  0  0  0
   -0.3349   22.3378  -29.9713 H   0  0  0  0  0  0  0  0  0  0  0  0
    0.1577   24.2551  -28.2213 H   0  0  0  0  0  0  0  0  0  0  0  0
    0.0842   24.6451  -29.9785 H   0  0  0  0  0  0  0  0  0  0  0  0
   -1.9160   25.6740  -29.7530 H   0  0  0  0  0  0  0  0  0  0  0  0
   -2.3717   23.7172  -27.6662 H   0  0  0  0  0  0  0  0  0  0  0  0
   -2.9853   25.4024  -27.3172 H   0  0  0  0  0  0  0  0  0  0  0  0
   -4.1573   23.3343  -28.9716 H   0  0  0  0  0  0  0  0  0  0  0  0
   -4.7901   24.9801  -28.4942 H   0  0  0  0  0  0  0  0  0  0  0  0
   -3.1150   25.6500  -30.4100 H   0  0  0  0  0  0  0  0  0  0  0  0
   -5.7310   25.7840  -30.1230 H   0  0  0  0  0  0  0  0  0  0  0  0
   -4.8996   26.1143  -31.6857 H   0  0  0  0  0  0  0  0  0  0  0  0
   -6.9195   24.4194  -31.6179 H   0  0  0  0  0  0  0  0  0  0  0  0
   -5.4213   24.0202  -32.5678 H   0  0  0  0  0  0  0  0  0  0  0  0
   -4.7960   22.9640  -30.2600 H   0  0  0  0  0  0  0  0  0  0  0  0
   -6.3910   22.8690  -30.0450 H   0  0  0  0  0  0  0  0  0  0  0  0
   -3.2153   22.8864  -31.4137 H   0  0  0  0  0  0  0  0  0  0  0  0
   -1.0857   22.0121  -32.3337 H   0  0  0  0  0  0  0  0  0  0  0  0
   -1.0627   19.9063  -33.6522 H   0  0  0  0  0  0  0  0  0  0  0  0
   -3.1876   18.7273  -34.1542 H   0  0  0  0  0  0  0  0  0  0  0  0
   -5.7018   17.5571  -34.1759 H   0  0  0  0  0  0  0  0  0  0  0  0
   -6.5629   18.7639  -35.1901 H   0  0  0  0  0  0  0  0  0  0  0  0
   -4.7675   18.7082  -35.1901 H   0  0  0  0  0  0  0  0  0  0  0  0
   -7.9153   18.1361  -33.5196 H   0  0  0  0  0  0  0  0  0  0  0  0
  -10.0588   18.7823  -32.4578 H   0  0  0  0  0  0  0  0  0  0  0  0
  -10.2109   20.8715  -31.1222 H   0  0  0  0  0  0  0  0  0  0  0  0
   -8.1941   22.2630  -30.7473 H   0  0  0  0  0  0  0  0  0  0  0  0
  1  2  1  0
  2  3  1  0
  3  4  1  0
  4  5  1  0
  5  6  1  0
  6  7  1  0
  7  8  1  0
  8  9  1  0
  9 10  1  0
 10 11  2  0
 11 12  1  0
 12 13  2  0
 13 14  1  0
 14 15  2  0
 15 16  1  0
 16 17  2  0
 17 18  1  0
 17 19  1  0
 19 20  2  0
 20 21  1  0
 21 22  2  0
 22 23  1  0
 23 24  2  0
 24 10  1  0
 16 11  1  0
 24 19  1  0
  1 25  1  0
  1 26  1  0
  1 27  1  0
  2 28  1  0
  2 29  1  0
  3 30  1  0
  4 31  1  0
  4 32  1  0
  5 33  1  0
  5 34  1  0
  6 35  1  0
  7 36  1  0
  7 37  1  0
  8 38  1  0
  8 39  1  0
  9 40  1  0
  9 41  1  0
 12 42  1  0
 13 43  1  0
 14 44  1  0
 15 45  1  0
 18 46  1  0
 18 47  1  0
 18 48  1  0
 20 49  1  0
 21 50  1  0
 22 51  1  0
 23 52  1  0
M  CHG  2   9   1  17   1
M  END
>  <UniqueID>  (23) 
23

>  <SMILES>  (23) 
CCNCCNCC[NH2+]c1c2ccccc2[n+](C)c2ccccc12

>  <Energy>  (23) 
83.19827998302593

>  <Genealogy>  (23) 
CCNCCNCC[NH2+]c1c2ccccc2[n+](C)c2ccccc12 (protonated)
CCNCCNCC[NH2+]c1c2ccccc2[n+](C)c2ccccc12 (3D coordinates assigned)
CCNCCNCC[NH2+]c1c2ccccc2[n+](C)c2ccccc12 (optimized conformer: 83.19827998302593 kcal/mol)

>  <smiles>  (23) 
CCNCCNCCNc1c2ccccc2[n+](C)c2ccccc12

>  <score_type>  (23) 
oracle

>  <origin>  (23) 
adg

>  <m_score__min__energy>  (23) 
-8.3000000000000007

>  <m_primary>  (23) 
energy

$$$$
23:0
     RDKit          3D

 50 53  0  0  0  0  0  0  0  0999 V2000
   -0.5230   22.8370  -29.4830 C   0  0  0  0  0  0  0  0  0  0  0  0
   -1.7530   22.3790  -30.2150 C   0  0  0  0  0  0  0  0  0  0  0  0
   -2.9800   23.0300  -30.2290 C   0  0  0  0  0  0  0  0  0  0  0  0
   -3.3580   24.3060  -29.5260 C   0  0  0  0  0  0  0  0  0  0  0  0
   -3.8640   25.3110  -30.4730 N   0  0  0  0  0  0  0  0  0  0  0  0
   -5.3160   25.5400  -30.3570 C   0  0  0  0  0  0  0  0  0  0  0  0
   -6.1250   24.3210  -30.7330 C   0  0  0  0  0  0  0  0  0  0  0  0
   -6.2060   23.9090  -32.0740 C   0  0  0  0  0  0  0  0  0  0  0  0
   -6.9380   22.7690  -32.4180 C   0  0  0  0  0  0  0  0  0  0  0  0
   -7.5940   22.0320  -31.4270 C   0  0  0  0  0  0  0  0  0  0  0  0
   -7.5200   22.4360  -30.0910 C   0  0  0  0  0  0  0  0  0  0  0  0
   -6.7900   23.5770  -29.7440 C   0  0  0  0  0  0  0  0  0  0  0  0
   -3.8520   22.2240  -30.9360 C   0  0  0  0  0  0  0  0  0  0  0  0
   -3.1250   21.1210  -31.3450 C   0  0  0  0  0  0  0  0  0  0  0  0
   -3.6750   20.0210  -32.1670 C   0  0  0  0  0  0  0  0  0  0  0  0
   -2.9800   19.5560  -33.2950 C   0  0  0  0  0  0  0  0  0  0  0  0
   -3.5090   18.5320  -34.0840 C   0  0  0  0  0  0  0  0  0  0  0  0
   -4.7500   17.9650  -33.7640 C   0  0  0  0  0  0  0  0  0  0  0  0
   -5.2910   16.9360  -34.5510 C   0  0  0  0  0  0  0  0  0  0  0  0
   -6.5330   16.3820  -34.2230 C   0  0  0  0  0  0  0  0  0  0  0  0
   -7.2410   16.8500  -33.1120 C   0  0  0  0  0  0  0  0  0  0  0  0
   -6.7130   17.8740  -32.3210 C   0  0  0  0  0  0  0  0  0  0  0  0
   -5.4670   18.4390  -32.6390 C   0  0  0  0  0  0  0  0  0  0  0  0
   -4.9270   19.4680  -31.8530 C   0  0  0  0  0  0  0  0  0  0  0  0
   -1.8550   21.2000  -30.8750 N   0  0  0  0  0  0  0  0  0  0  0  0
   -0.8020   20.1900  -31.0070 C   0  0  0  0  0  0  0  0  0  0  0  0
   -0.6963   22.7725  -28.3987 H   0  0  0  0  0  0  0  0  0  0  0  0
    0.3272   22.1952  -29.7573 H   0  0  0  0  0  0  0  0  0  0  0  0
   -0.2996   23.8786  -29.7573 H   0  0  0  0  0  0  0  0  0  0  0  0
   -4.1402   24.0876  -28.7841 H   0  0  0  0  0  0  0  0  0  0  0  0
   -2.4594   24.7116  -29.0381 H   0  0  0  0  0  0  0  0  0  0  0  0
   -3.6470   24.9880  -31.4450 H   0  0  0  0  0  0  0  0  0  0  0  0
   -5.5486   25.8107  -29.3165 H   0  0  0  0  0  0  0  0  0  0  0  0
   -5.5841   26.3475  -31.0542 H   0  0  0  0  0  0  0  0  0  0  0  0
   -5.6912   24.4860  -32.8563 H   0  0  0  0  0  0  0  0  0  0  0  0
   -6.9981   22.4512  -33.4694 H   0  0  0  0  0  0  0  0  0  0  0  0
   -8.1684   21.1341  -31.6990 H   0  0  0  0  0  0  0  0  0  0  0  0
   -8.0364   21.8559  -29.3120 H   0  0  0  0  0  0  0  0  0  0  0  0
   -6.7361   23.8935  -28.6919 H   0  0  0  0  0  0  0  0  0  0  0  0
   -4.9158   22.4212  -31.1345 H   0  0  0  0  0  0  0  0  0  0  0  0
   -2.0101   20.0022  -33.5597 H   0  0  0  0  0  0  0  0  0  0  0  0
   -2.9498   18.1695  -34.9592 H   0  0  0  0  0  0  0  0  0  0  0  0
   -4.7378   16.5650  -35.4264 H   0  0  0  0  0  0  0  0  0  0  0  0
   -6.9539   15.5755  -34.8413 H   0  0  0  0  0  0  0  0  0  0  0  0
   -8.2173   16.4106  -32.8595 H   0  0  0  0  0  0  0  0  0  0  0  0
   -7.2742   18.2382  -31.4478 H   0  0  0  0  0  0  0  0  0  0  0  0
   -5.4881   19.8442  -30.9849 H   0  0  0  0  0  0  0  0  0  0  0  0
   -0.4710   19.8725  -30.0072 H   0  0  0  0  0  0  0  0  0  0  0  0
   -1.1939   19.3214  -31.5565 H   0  0  0  0  0  0  0  0  0  0  0  0
    0.0495   20.6177  -31.5565 H   0  0  0  0  0  0  0  0  0  0  0  0
  1  2  1  0
  2  3  2  0
  3  4  1  0
  4  5  1  0
  5  6  1  0
  6  7  1  0
  7  8  2  0
  8  9  1  0
  9 10  2  0
 10 11  1  0
 11 12  2  0
  3 13  1  0
 13 14  2  0
 14 15  1  0
 15 16  2  0
 16 17  1  0
 17 18  2  0
 18 19  1  0
 19 20  2  0
 20 21  1  0
 21 22  2  0
 22 23  1  0
 23 24  2  0
 14 25  1  0
 25 26  1  0
 25  2  1  0
 12  7  1  0
 24 15  1  0
 23 18  1  0
  1 27  1  0
  1 28  1  0
  1 29  1  0
  4 30  1  0
  4 31  1  0
  5 32  1  0
  6 33  1  0
  6 34  1  0
  8 35  1  0
  9 36  1  0
 10 37  1  0
 11 38  1  0
 12 39  1  0
 13 40  1  0
 16 41  1  0
 17 42  1  0
 19 43  1  0
 20 44  1  0
 21 45  1  0
 22 46  1  0
 24 47  1  0
 26 48  1  0
 26 49  1  0
 26 50  1  0
M  END
>  <UniqueID>  (24) 
24

>  <SMILES>  (24) 
Cc1c(CNCc2ccccc2)cc(-c2ccc3ccccc3c2)n1C

>  <Energy>  (24) 
87.55404811481418

>  <Genealogy>  (24) 
Cc1c(CNCc2ccccc2)cc(-c2ccc3ccccc3c2)n1C (3D coordinates assigned)
Cc1c(CNCc2ccccc2)cc(-c2ccc3ccccc3c2)n1C (optimized conformer: 87.55404811481418 kcal/mol)

>  <smiles>  (24) 
Cc1c(CNCc2ccccc2)cc(-c2ccc3ccccc3c2)n1C

>  <score_type>  (24) 
oracle

>  <origin>  (24) 
adg

>  <m_score__min__energy>  (24) 
-9.4800000000000004

>  <m_primary>  (24) 
energy

$$$$
24:0
     RDKit          3D

 28 29  0  0  0  0  0  0  0  0999 V2000
   -5.4890   25.3750  -30.4720 C   0  0  0  0  0  0  0  0  0  0  0  0
   -6.8250   24.6430  -30.4030 C   0  0  0  0  0  0  0  0  0  0  0  0
   -6.7340   23.3000  -31.0760 C   0  0  0  0  0  0  0  0  0  0  0  0
   -5.5000   22.8200  -31.5300 C   0  0  0  0  0  0  0  0  0  0  0  0
   -5.4200   21.5890  -32.1830 C   0  0  0  0  0  0  0  0  0  0  0  0
   -6.5730   20.8140  -32.3990 C   0  0  0  0  0  0  0  0  0  0  0  0
   -6.4310   19.5050  -33.0730 C   0  0  0  0  0  0  0  0  0  0  0  0
   -5.7390   19.2460  -34.2590 C   0  0  0  0  0  0  0  0  0  0  0  0
   -5.7040   17.8790  -34.6010 C   0  0  0  0  0  0  0  0  0  0  0  0
   -6.3070   17.0540  -33.7100 N   0  0  0  0  0  0  0  0  0  0  0  0
   -6.4880   15.6170  -33.8440 C   0  0  0  0  0  0  0  0  0  0  0  0
   -6.9240   18.0080  -32.5020 S   0  0  0  0  0  0  0  0  0  0  0  0
   -7.8240   21.3120  -31.9700 C   0  0  0  0  0  0  0  0  0  0  0  0
   -9.4820   20.4180  -32.3330 Br  0  0  0  0  0  0  0  0  0  0  0  0
   -7.8930   22.5480  -31.3150 C   0  0  0  0  0  0  0  0  0  0  0  0
   -5.1266   25.5736  -29.4526 H   0  0  0  0  0  0  0  0  0  0  0  0
   -4.7568   24.7521  -31.0066 H   0  0  0  0  0  0  0  0  0  0  0  0
   -5.6199   26.3274  -31.0066 H   0  0  0  0  0  0  0  0  0  0  0  0
   -7.1037   24.4998  -29.3486 H   0  0  0  0  0  0  0  0  0  0  0  0
   -7.5848   25.2464  -30.9214 H   0  0  0  0  0  0  0  0  0  0  0  0
   -4.5890   23.4157  -31.3714 H   0  0  0  0  0  0  0  0  0  0  0  0
   -4.4440   21.2211  -32.5325 H   0  0  0  0  0  0  0  0  0  0  0  0
   -5.2674   20.0324  -34.8666 H   0  0  0  0  0  0  0  0  0  0  0  0
   -5.2245   17.5101  -35.5197 H   0  0  0  0  0  0  0  0  0  0  0  0
   -6.5456   15.1600  -32.8451 H   0  0  0  0  0  0  0  0  0  0  0  0
   -7.4188   15.4144  -34.3941 H   0  0  0  0  0  0  0  0  0  0  0  0
   -5.6366   15.1899  -34.3941 H   0  0  0  0  0  0  0  0  0  0  0  0
   -8.8686   22.9336  -30.9840 H   0  0  0  0  0  0  0  0  0  0  0  0
  1  2  1  0
  2  3  1  0
  3  4  2  0
  4  5  1  0
  5  6  2  0
  6  7  1  0
  7  8  2  0
  8  9  1  0
  9 10  2  0
 10 11  1  0
 10 12  1  0
  6 13  1  0
 13 14  1  0
 13 15  2  0
 15  3  1  0
 12  7  1  0
  1 16  1  0
  1 17  1  0
  1 18  1  0
  2 19  1  0
  2 20  1  0
  4 21  1  0
  5 22  1  0
  8 23  1  0
  9 24  1  0
 11 25  1  0
 11 26  1  0
 11 27  1  0
 15 28  1  0
M  CHG  1  10   1
M  END
>  <UniqueID>  (25) 
25

>  <SMILES>  (25) 
CCc1ccc(-c2cc[n+](C)s2)c(Br)c1

>  <Energy>  (25) 
63.48664045796368

>  <Genealogy>  (25) 
CCc1ccc(-c2cc[n+](C)s2)c(Br)c1 (3D coordinates assigned)
CCc1ccc(-c2cc[n+](C)s2)c(Br)c1 (optimized conformer: 63.48664045796368 kcal/mol)

>  <smiles>  (25) 
CCc1ccc(-c2cc[n+](C)s2)c(Br)c1

>  <score_type>  (25) 
oracle

>  <origin>  (25) 
adg

>  <m_score__min__energy>  (25) 
-6.6500000000000004

>  <m_primary>  (25) 
energy

$$$$
25:0
     RDKit          3D

 48 49  0  0  0  0  0  0  0  0999 V2000
   -1.2340   23.3270  -26.7830 C   0  0  0  0  0  0  0  0  0  0  0  0
   -2.3270   24.0440  -27.5740 C   0  0  0  0  0  0  0  0  0  0  0  0
   -1.8930   24.3320  -29.0180 C   0  0  0  0  0  0  0  0  0  0  0  0
   -2.4140   23.2930  -29.9380 N   0  0  0  0  0  0  0  0  0  0  0  0
   -1.4720   22.1560  -30.0550 C   0  0  0  0  0  0  0  0  0  0  0  0
   -1.4340   21.6500  -31.4940 C   0  0  0  0  0  0  0  0  0  0  0  0
   -3.7630   22.8370  -29.5330 C   0  0  0  0  0  0  0  0  0  0  0  0
   -4.7750   23.9670  -29.7340 C   0  0  0  0  0  0  0  0  0  0  0  0
   -4.6360   24.5320  -31.0830 N   0  0  0  0  0  0  0  0  0  0  0  0
   -5.7730   24.1770  -31.9480 C   0  0  0  0  0  0  0  0  0  0  0  0
   -5.8160   22.6940  -32.2560 C   0  0  0  0  0  0  0  0  0  0  0  0
   -4.6550   22.0490  -32.7100 C   0  0  0  0  0  0  0  0  0  0  0  0
   -4.6820   20.6880  -33.0330 C   0  0  0  0  0  0  0  0  0  0  0  0
   -3.5310   20.0310  -33.4920 C   0  0  0  0  0  0  0  0  0  0  0  0
   -3.5830   18.6730  -33.8130 C   0  0  0  0  0  0  0  0  0  0  0  0
   -4.7780   17.9620  -33.6790 C   0  0  0  0  0  0  0  0  0  0  0  0
   -5.9410   18.6020  -33.2180 C   0  0  0  0  0  0  0  0  0  0  0  0
   -7.2240   17.8280  -33.0860 C   0  0  0  0  0  0  0  0  0  0  0  0
   -5.8920   19.9740  -32.8980 C   0  0  0  0  0  0  0  0  0  0  0  0
   -7.0050   20.6210  -32.4580 N   0  0  0  0  0  0  0  0  0  0  0  0
   -7.0030   21.9430  -32.1400 C   0  0  0  0  0  0  0  0  0  0  0  0
   -8.5080   22.6640  -31.5860 Cl  0  0  0  0  0  0  0  0  0  0  0  0
   -1.4206   23.4494  -25.7059 H   0  0  0  0  0  0  0  0  0  0  0  0
   -1.2399   22.2567  -27.0368 H   0  0  0  0  0  0  0  0  0  0  0  0
   -0.2546   23.7587  -27.0368 H   0  0  0  0  0  0  0  0  0  0  0  0
   -3.2262   23.4107  -27.5925 H   0  0  0  0  0  0  0  0  0  0  0  0
   -2.5297   25.0060  -27.0806 H   0  0  0  0  0  0  0  0  0  0  0  0
   -2.2836   25.3138  -29.3236 H   0  0  0  0  0  0  0  0  0  0  0  0
   -0.7940   24.3275  -29.0649 H   0  0  0  0  0  0  0  0  0  0  0  0
   -0.4653   22.4861  -29.7591 H   0  0  0  0  0  0  0  0  0  0  0  0
   -1.8085   21.3416  -29.3966 H   0  0  0  0  0  0  0  0  0  0  0  0
   -1.3516   20.5531  -31.4949 H   0  0  0  0  0  0  0  0  0  0  0  0
   -2.3571   21.9488  -32.0122 H   0  0  0  0  0  0  0  0  0  0  0  0
   -0.5659   22.0833  -32.0122 H   0  0  0  0  0  0  0  0  0  0  0  0
   -4.0553   21.9718  -30.1463 H   0  0  0  0  0  0  0  0  0  0  0  0
   -3.7455   22.5502  -28.4712 H   0  0  0  0  0  0  0  0  0  0  0  0
   -5.7934   23.5706  -29.6082 H   0  0  0  0  0  0  0  0  0  0  0  0
   -4.5874   24.7561  -28.9910 H   0  0  0  0  0  0  0  0  0  0  0  0
   -3.7510   24.1690  -31.5120 H   0  0  0  0  0  0  0  0  0  0  0  0
   -6.7066   24.4607  -31.4402 H   0  0  0  0  0  0  0  0  0  0  0  0
   -5.6552   24.7165  -32.8994 H   0  0  0  0  0  0  0  0  0  0  0  0
   -3.7185   22.6169  -32.8124 H   0  0  0  0  0  0  0  0  0  0  0  0
   -2.5871   20.5856  -33.5991 H   0  0  0  0  0  0  0  0  0  0  0  0
   -2.6787   18.1606  -34.1731 H   0  0  0  0  0  0  0  0  0  0  0  0
   -4.8088   16.8930  -33.9363 H   0  0  0  0  0  0  0  0  0  0  0  0
   -7.4588   17.6863  -32.0207 H   0  0  0  0  0  0  0  0  0  0  0  0
   -8.0397   18.3849  -33.5704 H   0  0  0  0  0  0  0  0  0  0  0  0
   -7.1118   16.8468  -33.5704 H   0  0  0  0  0  0  0  0  0  0  0  0
  1  2  1  0
  2  3  1  0
  3  4  1  0
  4  5  1  0
  5  6  1  0
  4  7  1  0
  7  8  1  0
  8  9  1  0
  9 10  1  0
 10 11  1  0
 11 12  2  0
 12 13  1  0
 13 14  2  0
 14 15  1  0
 15 16  2  0
 16 17  1  0
 17 18  1  0
 17 19  2  0
 19 20  1  0
 20 21  2  0
 21 22  1  0
 21 11  1  0
 19 13  1  0
  1 23  1  0
  1 24  1  0
  1 25  1  0
  2 26  1  0
  2 27  1  0
  3 28  1  0
  3 29  1  0
  5 30  1  0
  5 31  1  0
  6 32  1  0
  6 33  1  0
  6 34  1  0
  7 35  1  0
  7 36  1  0
  8 37  1  0
  8 38  1  0
  9 39  1  0
 10 40  1  0
 10 41  1  0
 12 42  1  0
 14 43  1  0
 15 44  1  0
 16 45  1  0
 18 46  1  0
 18 47  1  0
 18 48  1  0
M  END
>  <UniqueID>  (26) 
26

>  <SMILES>  (26) 
CCCN(CC)CCNCc1cc2cccc(C)c2nc1Cl

>  <Energy>  (26) 
45.53475631543058

>  <Genealogy>  (26) 
CCCN(CC)CCNCc1cc2cccc(C)c2nc1Cl (3D coordinates assigned)
CCCN(CC)CCNCc1cc2cccc(C)c2nc1Cl (optimized conformer: 45.53475631543058 kcal/mol)

>  <smiles>  (26) 
CCCN(CC)CCNCc1cc2cccc(C)c2nc1Cl

>  <score_type>  (26) 
oracle

>  <origin>  (26) 
adg

>  <m_score__min__energy>  (26) 
-7.6699999999999999

>  <m_primary>  (26) 
energy

$$$$
26:0
     RDKit          3D

 59 61  0  0  0  0  0  0  0  0999 V2000
    0.1310   18.2690  -29.1240 C   0  0  0  0  0  0  0  0  0  0  0  0
    0.3340   19.4310  -30.1140 C   0  0  0  0  0  0  0  0  0  0  0  0
    0.3770   19.0280  -31.5480 N   0  0  0  0  0  0  0  0  0  0  0  0
    0.9680   20.0910  -32.4020 C   0  0  0  0  0  0  0  0  0  0  0  0
   -0.0600   21.1720  -32.7730 C   0  0  0  0  0  0  0  0  0  0  0  0
    1.0610   17.7140  -31.7350 C   0  0  0  0  0  0  0  0  0  0  0  0
    0.4260   16.8900  -32.8780 C   0  0  0  0  0  0  0  0  0  0  0  0
   -0.9630   17.1390  -32.9860 O   0  0  0  0  0  0  0  0  0  0  0  0
   -1.2920   17.7000  -34.2430 C   0  0  0  0  0  0  0  0  0  0  0  0
   -2.1230   18.9710  -34.0360 C   0  0  0  0  0  0  0  0  0  0  0  0
   -2.6670   19.0850  -32.6770 N   0  0  0  0  0  0  0  0  0  0  0  0
   -4.0250   19.4800  -32.4050 C   0  0  0  0  0  0  0  0  0  0  0  0
   -5.0970   18.6140  -32.6980 C   0  0  0  0  0  0  0  0  0  0  0  0
   -4.8650   17.3110  -33.1940 C   0  0  0  0  0  0  0  0  0  0  0  0
   -5.9250   16.4990  -33.5870 C   0  0  0  0  0  0  0  0  0  0  0  0
   -7.2280   16.9640  -33.4860 C   0  0  0  0  0  0  0  0  0  0  0  0
   -7.4820   18.2310  -32.9580 C   0  0  0  0  0  0  0  0  0  0  0  0
   -6.4290   19.0650  -32.5130 C   0  0  0  0  0  0  0  0  0  0  0  0
   -6.6710   20.3000  -31.9390 N   0  0  0  0  0  0  0  0  0  0  0  0
   -8.0280   20.6470  -31.4580 C   0  0  0  0  0  0  0  0  0  0  0  0
   -5.6340   21.1950  -31.7590 C   0  0  0  0  0  0  0  0  0  0  0  0
   -5.8730   22.5530  -31.4130 C   0  0  0  0  0  0  0  0  0  0  0  0
   -4.8170   23.4460  -31.1780 C   0  0  0  0  0  0  0  0  0  0  0  0
   -5.0790   24.8210  -30.8380 N   0  0  0  0  0  0  0  0  0  0  0  0
   -4.1590   25.6680  -30.8450 O   0  0  0  0  0  0  0  0  0  0  0  0
   -6.3530   25.2180  -30.4950 O   0  0  0  0  0  0  0  0  0  0  0  0
   -3.5000   22.9860  -31.2870 C   0  0  0  0  0  0  0  0  0  0  0  0
   -3.2410   21.6750  -31.6720 C   0  0  0  0  0  0  0  0  0  0  0  0
   -4.2930   20.7800  -31.9460 C   0  0  0  0  0  0  0  0  0  0  0  0
    0.1974   18.6491  -28.0939 H   0  0  0  0  0  0  0  0  0  0  0  0
   -0.8594   17.8185  -29.2855 H   0  0  0  0  0  0  0  0  0  0  0  0
    0.9100   17.5094  -29.2855 H   0  0  0  0  0  0  0  0  0  0  0  0
   -0.4953   20.1416  -29.9827 H   0  0  0  0  0  0  0  0  0  0  0  0
    1.3178   19.8661  -29.8843 H   0  0  0  0  0  0  0  0  0  0  0  0
   -0.6260   18.9340  -31.8370 H   0  0  0  0  0  0  0  0  0  0  0  0
    1.7985   20.5633  -31.8568 H   0  0  0  0  0  0  0  0  0  0  0  0
    1.3180   19.6221  -33.3335 H   0  0  0  0  0  0  0  0  0  0  0  0
   -0.4777   21.6112  -31.8551 H   0  0  0  0  0  0  0  0  0  0  0  0
    0.4319   21.9581  -33.3647 H   0  0  0  0  0  0  0  0  0  0  0  0
   -0.8698   20.7202  -33.3647 H   0  0  0  0  0  0  0  0  0  0  0  0
    2.1196   17.8950  -31.9730 H   0  0  0  0  0  0  0  0  0  0  0  0
    0.9562   17.1399  -30.8026 H   0  0  0  0  0  0  0  0  0  0  0  0
    0.9126   17.1603  -33.8268 H   0  0  0  0  0  0  0  0  0  0  0  0
    0.5694   15.8224  -32.6552 H   0  0  0  0  0  0  0  0  0  0  0  0
   -0.3684   17.9506  -34.7853 H   0  0  0  0  0  0  0  0  0  0  0  0
   -1.8754   16.9727  -34.8267 H   0  0  0  0  0  0  0  0  0  0  0  0
   -1.4832   19.8441  -34.2320 H   0  0  0  0  0  0  0  0  0  0  0  0
   -2.9758   18.9234  -34.7292 H   0  0  0  0  0  0  0  0  0  0  0  0
   -2.1920   18.5190  -31.9380 H   0  0  0  0  0  0  0  0  0  0  0  0
   -3.8344   16.9341  -33.2704 H   0  0  0  0  0  0  0  0  0  0  0  0
   -5.7296   15.4893  -33.9774 H   0  0  0  0  0  0  0  0  0  0  0  0
   -8.0634   16.3326  -33.8229 H   0  0  0  0  0  0  0  0  0  0  0  0
   -8.5201   18.5878  -32.8865 H   0  0  0  0  0  0  0  0  0  0  0  0
   -8.0376   20.6495  -30.3580 H   0  0  0  0  0  0  0  0  0  0  0  0
   -8.3046   21.6448  -31.8293 H   0  0  0  0  0  0  0  0  0  0  0  0
   -8.7497   19.9045  -31.8293 H   0  0  0  0  0  0  0  0  0  0  0  0
   -6.9094   22.9116  -31.3276 H   0  0  0  0  0  0  0  0  0  0  0  0
   -2.6639   23.6660  -31.0667 H   0  0  0  0  0  0  0  0  0  0  0  0
   -2.1998   21.3324  -31.7638 H   0  0  0  0  0  0  0  0  0  0  0  0
  1  2  1  0
  2  3  1  0
  3  4  1  0
  4  5  1  0
  3  6  1  0
  6  7  1  0
  7  8  1  0
  8  9  1  0
  9 10  1  0
 10 11  1  0
 11 12  1  0
 12 13  2  0
 13 14  1  0
 14 15  2  0
 15 16  1  0
 16 17  2  0
 17 18  1  0
 18 19  2  0
 19 20  1  0
 19 21  1  0
 21 22  2  0
 22 23  1  0
 23 24  1  0
 24 25  2  0
 24 26  1  0
 23 27  2  0
 27 28  1  0
 28 29  2  0
 29 12  1  0
 18 13  1  0
 29 21  1  0
  1 30  1  0
  1 31  1  0
  1 32  1  0
  2 33  1  0
  2 34  1  0
  3 35  1  0
  4 36  1  0
  4 37  1  0
  5 38  1  0
  5 39  1  0
  5 40  1  0
  6 41  1  0
  6 42  1  0
  7 43  1  0
  7 44  1  0
  9 45  1  0
  9 46  1  0
 10 47  1  0
 10 48  1  0
 11 49  1  0
 14 50  1  0
 15 51  1  0
 16 52  1  0
 17 53  1  0
 20 54  1  0
 20 55  1  0
 20 56  1  0
 22 57  1  0
 27 58  1  0
 28 59  1  0
M  CHG  4   3   1  19   1  24   1  26  -1
M  END
>  <UniqueID>  (27) 
27

>  <SMILES>  (27) 
CC[NH+](CC)CCOCCNc1c2ccccc2[n+](C)c2cc([N+](=O)[O-])ccc12

>  <Energy>  (27) 
93.90164676883852

>  <Genealogy>  (27) 
CC[NH+](CC)CCOCCNc1c2ccccc2[n+](C)c2cc([N+](=O)[O-])ccc12 (protonated)
CC[NH+](CC)CCOCCNc1c2ccccc2[n+](C)c2cc([N+](=O)[O-])ccc12 (3D coordinates assigned)
CC[NH+](CC)CCOCCNc1c2ccccc2[n+](C)c2cc([N+](=O)[O-])ccc12 (optimized conformer: 93.90164676883852 kcal/mol)

>  <smiles>  (27) 
CCN(CC)CCOCCNc1c2ccccc2[n+](C)c2cc([N+](=O)[O-])ccc12

>  <score_type>  (27) 
oracle

>  <origin>  (27) 
adg

>  <m_score__min__energy>  (27) 
-6.96

>  <m_primary>  (27) 
energy

$$$$
27:0
     RDKit          3D

 41 43  0  0  0  0  0  0  0  0999 V2000
   -0.0770   20.7920  -35.7070 C   0  0  0  0  0  0  0  0  0  0  0  0
   -0.3960   21.4950  -34.3900 C   0  0  0  0  0  0  0  0  0  0  0  0
   -1.6470   20.9760  -33.8120 N   0  0  0  0  0  0  0  0  0  0  0  0
   -1.9510   21.5570  -32.4900 C   0  0  0  0  0  0  0  0  0  0  0  0
   -3.4350   21.9180  -32.2940 C   0  0  0  0  0  0  0  0  0  0  0  0
   -4.2560   21.4660  -33.4200 N   0  0  0  0  0  0  0  0  0  0  0  0
   -4.9210   20.1930  -33.4150 C   0  0  0  0  0  0  0  0  0  0  0  0
   -6.2590   20.0180  -32.9800 C   0  0  0  0  0  0  0  0  0  0  0  0
   -6.9700   21.0730  -32.3740 C   0  0  0  0  0  0  0  0  0  0  0  0
   -8.2870   20.8940  -31.9540 C   0  0  0  0  0  0  0  0  0  0  0  0
   -8.9110   19.6620  -32.1080 C   0  0  0  0  0  0  0  0  0  0  0  0
   -8.2230   18.5870  -32.6710 C   0  0  0  0  0  0  0  0  0  0  0  0
   -6.8860   18.7280  -33.1110 C   0  0  0  0  0  0  0  0  0  0  0  0
   -6.1780   17.6560  -33.6370 N   0  0  0  0  0  0  0  0  0  0  0  0
   -6.8080   16.3350  -33.8130 C   0  0  0  0  0  0  0  0  0  0  0  0
   -4.8640   17.8520  -33.9650 C   0  0  0  0  0  0  0  0  0  0  0  0
   -3.9150   16.9670  -34.4500 C   0  0  0  0  0  0  0  0  0  0  0  0
   -2.7670   17.7340  -34.6050 C   0  0  0  0  0  0  0  0  0  0  0  0
   -2.9970   18.9820  -34.2450 O   0  0  0  0  0  0  0  0  0  0  0  0
   -4.2470   19.0640  -33.8600 C   0  0  0  0  0  0  0  0  0  0  0  0
    0.3693   19.8084  -35.4989 H   0  0  0  0  0  0  0  0  0  0  0  0
   -1.0031   20.6594  -36.2856 H   0  0  0  0  0  0  0  0  0  0  0  0
    0.6326   21.4017  -36.2856 H   0  0  0  0  0  0  0  0  0  0  0  0
    0.4274   21.3241  -33.6809 H   0  0  0  0  0  0  0  0  0  0  0  0
   -0.5160   22.5711  -34.5838 H   0  0  0  0  0  0  0  0  0  0  0  0
   -2.4440   21.1420  -34.4650 H   0  0  0  0  0  0  0  0  0  0  0  0
   -1.5530   19.9410  -33.6840 H   0  0  0  0  0  0  0  0  0  0  0  0
   -1.6670   20.8274  -31.7173 H   0  0  0  0  0  0  0  0  0  0  0  0
   -1.3813   22.4950  -32.4146 H   0  0  0  0  0  0  0  0  0  0  0  0
   -3.7994   21.4401  -31.3727 H   0  0  0  0  0  0  0  0  0  0  0  0
   -3.5157   23.0131  -32.2286 H   0  0  0  0  0  0  0  0  0  0  0  0
   -4.5700   22.1860  -34.1100 H   0  0  0  0  0  0  0  0  0  0  0  0
   -6.4807   22.0477  -32.2309 H   0  0  0  0  0  0  0  0  0  0  0  0
   -8.8350   21.7320  -31.4985 H   0  0  0  0  0  0  0  0  0  0  0  0
   -9.9543   19.5336  -31.7838 H   0  0  0  0  0  0  0  0  0  0  0  0
   -8.7277   17.6151  -32.7744 H   0  0  0  0  0  0  0  0  0  0  0  0
   -7.0180   15.8946  -32.8271 H   0  0  0  0  0  0  0  0  0  0  0  0
   -7.7487   16.4489  -34.3716 H   0  0  0  0  0  0  0  0  0  0  0  0
   -6.1274   15.6757  -34.3716 H   0  0  0  0  0  0  0  0  0  0  0  0
   -4.0421   15.8956  -34.6646 H   0  0  0  0  0  0  0  0  0  0  0  0
   -1.8032   17.3545  -34.9753 H   0  0  0  0  0  0  0  0  0  0  0  0
  1  2  1  0
  2  3  1  0
  3  4  1  0
  4  5  1  0
  5  6  1  0
  6  7  1  0
  7  8  2  0
  8  9  1  0
  9 10  2  0
 10 11  1  0
 11 12  2  0
 12 13  1  0
 13 14  2  0
 14 15  1  0
 14 16  1  0
 16 17  1  0
 17 18  2  0
 18 19  1  0
 19 20  1  0
 20  7  1  0
 13  8  1  0
 20 16  2  0
  1 21  1  0
  1 22  1  0
  1 23  1  0
  2 24  1  0
  2 25  1  0
  3 26  1  0
  3 27  1  0
  4 28  1  0
  4 29  1  0
  5 30  1  0
  5 31  1  0
  6 32  1  0
  9 33  1  0
 10 34  1  0
 11 35  1  0
 12 36  1  0
 15 37  1  0
 15 38  1  0
 15 39  1  0
 17 40  1  0
 18 41  1  0
M  CHG  2   3   1  14   1
M  END
>  <UniqueID>  (28) 
28

>  <SMILES>  (28) 
CC[NH2+]CCNc1c2ccccc2[n+](C)c2ccoc12

>  <Energy>  (28) 
86.36873121009673

>  <Genealogy>  (28) 
CC[NH2+]CCNc1c2ccccc2[n+](C)c2ccoc12 (protonated)
CC[NH2+]CCNc1c2ccccc2[n+](C)c2ccoc12 (3D coordinates assigned)
CC[NH2+]CCNc1c2ccccc2[n+](C)c2ccoc12 (optimized conformer: 86.36873121009673 kcal/mol)

>  <smiles>  (28) 
CCNCCNc1c2ccccc2[n+](C)c2ccoc12

>  <score_type>  (28) 
oracle

>  <origin>  (28) 
adg

>  <m_score__min__energy>  (28) 
-5.71

>  <m_primary>  (28) 
energy

$$$$
