0:0
     RDKit          3D

 34 35  0  0  0  0  0  0  0  0999 V2000
   -9.1630   21.3040  -31.8290 C   0  0  0  0  0  0  0  0  0  0  0  0
   -8.9790   19.8030  -31.6250 C   0  0  0  0  0  0  0  0  0  0  0  0
   -8.2410   19.1660  -32.7480 N   0  0  0  0  0  0  0  0  0  0  0  0
   -6.8010   19.3300  -32.9270 C   0  0  0  0  0  0  0  0  0  0  0  0
   -6.8710   17.9400  -33.4930 C   0  0  0  0  0  0  0  0  0  0  0  0
   -5.8950   17.2530  -34.2800 C   0  0  0  0  0  0  0  0  0  0  0  0
   -4.6600   17.8090  -34.4840 C   0  0  0  0  0  0  0  0  0  0  0  0
   -4.3890   18.9880  -33.8250 C   0  0  0  0  0  0  0  0  0  0  0  0
   -5.3970   19.6290  -33.0350 C   0  0  0  0  0  0  0  0  0  0  0  0
   -4.9620   20.8370  -32.2750 C   0  0  0  0  0  0  0  0  0  0  0  0
   -3.8800   20.8310  -31.6500 O   0  0  0  0  0  0  0  0  0  0  0  0
   -5.7230   22.0480  -32.3570 N   0  0  0  0  0  0  0  0  0  0  0  0
   -5.6730   23.1660  -31.4310 C   0  0  0  0  0  0  0  0  0  0  0  0
   -4.4570   23.6150  -30.8420 C   0  0  0  0  0  0  0  0  0  0  0  0
   -4.4600   24.7070  -29.9610 C   0  0  0  0  0  0  0  0  0  0  0  0
   -5.6570   25.3000  -29.5750 C   0  0  0  0  0  0  0  0  0  0  0  0
   -6.8660   24.8260  -30.0970 C   0  0  0  0  0  0  0  0  0  0  0  0
   -6.8720   23.7790  -31.0330 C   0  0  0  0  0  0  0  0  0  0  0  0
   -9.2241   21.8023  -30.8502 H   0  0  0  0  0  0  0  0  0  0  0  0
   -8.3073   21.7052  -32.3919 H   0  0  0  0  0  0  0  0  0  0  0  0
  -10.0903   21.4866  -32.3919 H   0  0  0  0  0  0  0  0  0  0  0  0
   -8.4164   19.6391  -30.6941 H   0  0  0  0  0  0  0  0  0  0  0  0
   -9.9782   19.3454  -31.5771 H   0  0  0  0  0  0  0  0  0  0  0  0
   -8.8490   18.9460  -33.6110 H   0  0  0  0  0  0  0  0  0  0  0  0
   -7.7914   17.3789  -33.2737 H   0  0  0  0  0  0  0  0  0  0  0  0
   -6.1365   16.2754  -34.7228 H   0  0  0  0  0  0  0  0  0  0  0  0
   -3.9182   17.3356  -35.1441 H   0  0  0  0  0  0  0  0  0  0  0  0
   -3.3899   19.4409  -33.9063 H   0  0  0  0  0  0  0  0  0  0  0  0
   -6.3890   22.1450  -33.1740 H   0  0  0  0  0  0  0  0  0  0  0  0
   -3.5120   23.1041  -31.0784 H   0  0  0  0  0  0  0  0  0  0  0  0
   -3.5077   25.0972  -29.5725 H   0  0  0  0  0  0  0  0  0  0  0  0
   -5.6537   26.1380  -28.8625 H   0  0  0  0  0  0  0  0  0  0  0  0
   -7.8160   25.2757  -29.7726 H   0  0  0  0  0  0  0  0  0  0  0  0
   -7.8262   23.4354  -31.4589 H   0  0  0  0  0  0  0  0  0  0  0  0
  1  2  1  0
  2  3  1  0
  3  4  1  0
  4  5  2  0
  5  6  1  0
  6  7  2  0
  7  8  1  0
  8  9  2  0
  9 10  1  0
 10 11  2  0
 10 12  1  0
 12 13  1  0
 13 14  2  0
 14 15  1  0
 15 16  2  0
 16 17  1  0
 17 18  2  0
  9  4  1  0
 18 13  1  0
  1 19  1  0
  1 20  1  0
  1 21  1  0
  2 22  1  0
  2 23  1  0
  3 24  1  0
  5 25  1  0
  6 26  1  0
  7 27  1  0
  8 28  1  0
 12 29  1  0
 14 30  1  0
 15 31  1  0
 16 32  1  0
 17 33  1  0
 18 34  1  0
M  END
>  <UniqueID>  (1) 
1

>  <SMILES>  (1) 
CCNc1ccccc1C(=O)Nc1ccccc1

>  <Energy>  (1) 
198.0382184296633

>  <Genealogy>  (1) 
CCNc1ccccc1C(=O)Nc1ccccc1 (3D coordinates assigned)
CCNc1ccccc1C(=O)Nc1ccccc1 (optimized conformer: 198.0382184296633 kcal/mol)

>  <smiles>  (1) 
CCNc1ccccc1C(=O)Nc1ccccc1

>  <score_type>  (1) 
oracle

>  <origin>  (1) 
adg

>  <m_score__min__energy>  (1) 
-7.3099999999999996

>  <m_primary>  (1) 
energy

$$$$
1:0
     RDKit          3D

 27 28  0  0  0  0  0  0  0  0999 V2000
   -8.4620   19.2580  -32.3510 C   0  0  0  0  0  0  0  0  0  0  0  0
   -7.7700   20.3210  -33.0000 O   0  0  0  0  0  0  0  0  0  0  0  0
   -7.2010   21.4170  -32.3340 C   0  0  0  0  0  0  0  0  0  0  0  0
   -7.9720   22.3350  -31.5950 C   0  0  0  0  0  0  0  0  0  0  0  0
   -7.3560   23.4130  -30.9520 C   0  0  0  0  0  0  0  0  0  0  0  0
   -5.9690   23.5850  -31.0320 C   0  0  0  0  0  0  0  0  0  0  0  0
   -5.2080   24.9690  -30.2500 S   0  0  0  0  0  0  0  0  0  0  0  0
   -5.5270   24.9720  -28.7800 O   0  0  0  0  0  0  0  0  0  0  0  0
   -5.7430   26.2350  -30.8570 O   0  0  0  0  0  0  0  0  0  0  0  0
   -3.4890   24.9110  -30.4750 N   0  0  0  0  0  0  0  0  0  0  0  0
   -2.8620   24.5680  -29.2030 C   0  0  0  0  0  0  0  0  0  0  0  0
   -2.9100   23.0860  -28.8720 C   0  0  0  0  0  0  0  0  0  0  0  0
   -1.6210   23.7140  -29.3800 C   0  0  0  0  0  0  0  0  0  0  0  0
   -5.2010   22.6760  -31.7710 C   0  0  0  0  0  0  0  0  0  0  0  0
   -5.8150   21.5980  -32.4150 C   0  0  0  0  0  0  0  0  0  0  0  0
   -8.3824   19.3803  -31.2607 H   0  0  0  0  0  0  0  0  0  0  0  0
   -9.5217   19.2765  -32.6456 H   0  0  0  0  0  0  0  0  0  0  0  0
   -8.0162   18.2965  -32.6456 H   0  0  0  0  0  0  0  0  0  0  0  0
   -9.0618   22.2036  -31.5234 H   0  0  0  0  0  0  0  0  0  0  0  0
   -7.9643   24.1295  -30.3804 H   0  0  0  0  0  0  0  0  0  0  0  0
   -3.1143   25.4896  -28.6581 H   0  0  0  0  0  0  0  0  0  0  0  0
   -2.9871   22.7581  -27.8248 H   0  0  0  0  0  0  0  0  0  0  0  0
   -3.5387   22.2386  -29.1830 H   0  0  0  0  0  0  0  0  0  0  0  0
   -0.7653   23.8397  -28.7003 H   0  0  0  0  0  0  0  0  0  0  0  0
   -0.9305   23.5083  -30.2112 H   0  0  0  0  0  0  0  0  0  0  0  0
   -4.1118   22.8109  -31.8447 H   0  0  0  0  0  0  0  0  0  0  0  0
   -5.2044   20.8862  -32.9900 H   0  0  0  0  0  0  0  0  0  0  0  0
  1  2  1  0
  2  3  1  0
  3  4  2  0
  4  5  1  0
  5  6  2  0
  6  7  1  0
  7  8  2  0
  7  9  2  0
  7 10  1  0
 10 11  1  0
 11 12  1  0
 12 13  1  0
  6 14  1  0
 14 15  2  0
 15  3  1  0
 13 11  1  0
  1 16  1  0
  1 17  1  0
  1 18  1  0
  4 19  1  0
  5 20  1  0
 11 21  1  0
 12 22  1  0
 12 23  1  0
 13 24  1  0
 13 25  1  0
 14 26  1  0
 15 27  1  0
M  CHG  1  10  -1
M  END
>  <UniqueID>  (2) 
2

>  <SMILES>  (2) 
COc1ccc(S(=O)(=O)[N-]C2CC2)cc1

>  <Energy>  (2) 
287.15715699615396

>  <Genealogy>  (2) 
COc1ccc(S(=O)(=O)[N-]C2CC2)cc1 (protonated)
COc1ccc(S(=O)(=O)[N-]C2CC2)cc1 (3D coordinates assigned)
COc1ccc(S(=O)(=O)[N-]C2CC2)cc1 (nonaromatic ring conformer: 287.15715699615396 kcal/mol)

>  <smiles>  (2) 
COc1ccc(S(=O)(=O)NC2CC2)cc1

>  <score_type>  (2) 
oracle

>  <origin>  (2) 
adg

>  <m_score__min__energy>  (2) 
-7.2000000000000002

>  <m_primary>  (2) 
energy

$$$$
2:0
     RDKit          3D

 24 25  0  0  0  0  0  0  0  0999 V2000
   -7.7340   22.4290  -30.2160 C   0  0  0  0  0  0  0  0  0  0  0  0
   -6.7850   23.5650  -30.0840 C   0  0  0  0  0  0  0  0  0  0  0  0
   -6.9310   24.7110  -29.3910 N   0  0  0  0  0  0  0  0  0  0  0  0
   -5.8560   25.4770  -29.5230 N   0  0  0  0  0  0  0  0  0  0  0  0
   -4.9970   24.8130  -30.3160 C   0  0  0  0  0  0  0  0  0  0  0  0
   -3.8180   25.2660  -30.6690 N   0  0  0  0  0  0  0  0  0  0  0  0
   -5.5440   23.6030  -30.6920 C   0  0  0  0  0  0  0  0  0  0  0  0
   -4.9860   22.5750  -31.5290 C   0  0  0  0  0  0  0  0  0  0  0  0
   -3.6010   22.4020  -31.5020 C   0  0  0  0  0  0  0  0  0  0  0  0
   -2.9860   21.4380  -32.2750 C   0  0  0  0  0  0  0  0  0  0  0  0
   -3.7750   20.6450  -33.0790 C   0  0  0  0  0  0  0  0  0  0  0  0
   -3.1600   19.6880  -33.8450 F   0  0  0  0  0  0  0  0  0  0  0  0
   -5.1550   20.8070  -33.1130 C   0  0  0  0  0  0  0  0  0  0  0  0
   -5.9160   20.0240  -33.9060 F   0  0  0  0  0  0  0  0  0  0  0  0
   -5.7840   21.7690  -32.3440 C   0  0  0  0  0  0  0  0  0  0  0  0
   -8.0272   22.0780  -29.2156 H   0  0  0  0  0  0  0  0  0  0  0  0
   -8.6279   22.7599  -30.7651 H   0  0  0  0  0  0  0  0  0  0  0  0
   -7.2493   21.6082  -30.7651 H   0  0  0  0  0  0  0  0  0  0  0  0
   -7.8090   24.9250  -28.8320 H   0  0  0  0  0  0  0  0  0  0  0  0
   -5.7740   26.4080  -29.0620 H   0  0  0  0  0  0  0  0  0  0  0  0
   -3.7260   25.6760  -31.6250 H   0  0  0  0  0  0  0  0  0  0  0  0
   -2.9888   23.0455  -30.8530 H   0  0  0  0  0  0  0  0  0  0  0  0
   -1.8942   21.3063  -32.2497 H   0  0  0  0  0  0  0  0  0  0  0  0
   -6.8763   21.8952  -32.3732 H   0  0  0  0  0  0  0  0  0  0  0  0
  1  2  1  0
  2  3  1  0
  3  4  1  0
  4  5  1  0
  5  6  2  3
  5  7  1  0
  7  8  1  0
  8  9  2  0
  9 10  1  0
 10 11  2  0
 11 12  1  0
 11 13  1  0
 13 14  1  0
 13 15  2  0
  7  2  2  0
 15  8  1  0
  1 16  1  0
  1 17  1  0
  1 18  1  0
  3 19  1  0
  4 20  1  0
  6 21  1  0
  9 22  1  0
 10 23  1  0
 15 24  1  0
M  END
>  <smiles>  (3) 
Cc1[nH][nH]c(=N)c1-c1ccc(F)c(F)c1

>  <score_type>  (3) 
oracle

>  <origin>  (3) 
adg

>  <m_score__min__energy>  (3) 
-6.1399999999999997

>  <m_primary>  (3) 
energy

$$$$
3:0
     RDKit          3D

 54 59  0  0  0  0  0  0  0  0999 V2000
   -4.9850   24.9840  -30.1730 C   0  0  0  0  0  0  0  0  0  0  0  0
   -3.5650   24.9580  -30.2800 O   0  0  0  0  0  0  0  0  0  0  0  0
   -2.7740   23.8020  -30.1780 C   0  0  0  0  0  0  0  0  0  0  0  0
   -2.7820   22.8110  -31.1800 C   0  0  0  0  0  0  0  0  0  0  0  0
   -1.9480   21.6850  -31.0870 C   0  0  0  0  0  0  0  0  0  0  0  0
   -1.9660   20.6570  -32.1560 C   0  0  0  0  0  0  0  0  0  0  0  0
   -0.8630   20.0970  -32.7960 C   0  0  0  0  0  0  0  0  0  0  0  0
   -1.2890   19.1700  -33.6880 N   0  0  0  0  0  0  0  0  0  0  0  0
   -2.6290   19.1730  -33.5730 C   0  0  0  0  0  0  0  0  0  0  0  0
   -3.5320   18.3650  -34.2520 C   0  0  0  0  0  0  0  0  0  0  0  0
   -4.8900   18.5110  -33.9350 C   0  0  0  0  0  0  0  0  0  0  0  0
   -5.2890   19.4430  -32.9470 C   0  0  0  0  0  0  0  0  0  0  0  0
   -6.7180   19.6290  -32.6050 C   0  0  0  0  0  0  0  0  0  0  0  0
   -7.5430   18.4920  -32.5470 C   0  0  0  0  0  0  0  0  0  0  0  0
   -8.9100   18.6120  -32.2980 C   0  0  0  0  0  0  0  0  0  0  0  0
   -9.4810   19.8680  -32.1040 C   0  0  0  0  0  0  0  0  0  0  0  0
   -8.6830   21.0190  -32.1410 C   0  0  0  0  0  0  0  0  0  0  0  0
   -9.2600   22.2790  -31.9310 C   0  0  0  0  0  0  0  0  0  0  0  0
   -8.4510   23.4140  -31.9420 C   0  0  0  0  0  0  0  0  0  0  0  0
   -7.1150   23.2960  -32.1440 N   0  0  0  0  0  0  0  0  0  0  0  0
   -6.5200   22.0930  -32.3580 C   0  0  0  0  0  0  0  0  0  0  0  0
   -7.2890   20.9100  -32.3820 C   0  0  0  0  0  0  0  0  0  0  0  0
   -4.3380   20.2050  -32.3300 N   0  0  0  0  0  0  0  0  0  0  0  0
   -3.0590   20.0570  -32.6640 N   0  0  0  0  0  0  0  0  0  0  0  0
   -1.1120   21.5460  -29.9710 C   0  0  0  0  0  0  0  0  0  0  0  0
   -1.1020   22.5180  -28.9700 C   0  0  0  0  0  0  0  0  0  0  0  0
   -1.9330   23.6460  -29.0560 C   0  0  0  0  0  0  0  0  0  0  0  0
   -1.9090   24.6260  -28.0010 N   0  0  0  0  0  0  0  0  0  0  0  0
   -2.7620   24.7400  -26.9610 C   0  0  0  0  0  0  0  0  0  0  0  0
   -2.4410   25.7560  -26.1330 N   0  0  0  0  0  0  0  0  0  0  0  0
   -1.3270   26.2840  -26.6820 C   0  0  0  0  0  0  0  0  0  0  0  0
   -0.6260   27.4880  -26.1490 C   0  0  0  0  0  0  0  0  0  0  0  0
   -0.9980   25.6000  -27.8300 C   0  0  0  0  0  0  0  0  0  0  0  0
   -5.2727   24.9893  -29.1113 H   0  0  0  0  0  0  0  0  0  0  0  0
   -5.3731   25.8894  -30.6625 H   0  0  0  0  0  0  0  0  0  0  0  0
   -5.4060   24.0934  -30.6625 H   0  0  0  0  0  0  0  0  0  0  0  0
   -3.4505   22.9210  -32.0466 H   0  0  0  0  0  0  0  0  0  0  0  0
    0.1871   20.3647  -32.6074 H   0  0  0  0  0  0  0  0  0  0  0  0
   -0.7010   18.5750  -34.3140 H   0  0  0  0  0  0  0  0  0  0  0  0
   -3.1954   17.6400  -35.0077 H   0  0  0  0  0  0  0  0  0  0  0  0
   -5.6448   17.9017  -34.4537 H   0  0  0  0  0  0  0  0  0  0  0  0
   -7.1046   17.4948  -32.7000 H   0  0  0  0  0  0  0  0  0  0  0  0
   -9.5400   17.7113  -32.2546 H   0  0  0  0  0  0  0  0  0  0  0  0
  -10.5621   19.9563  -31.9212 H   0  0  0  0  0  0  0  0  0  0  0  0
  -10.3425   22.3714  -31.7589 H   0  0  0  0  0  0  0  0  0  0  0  0
   -8.8970   24.4074  -31.7865 H   0  0  0  0  0  0  0  0  0  0  0  0
   -5.4323   22.0411  -32.5135 H   0  0  0  0  0  0  0  0  0  0  0  0
   -0.4594   20.6648  -29.8835 H   0  0  0  0  0  0  0  0  0  0  0  0
   -0.4351   22.3989  -28.1033 H   0  0  0  0  0  0  0  0  0  0  0  0
   -3.6254   24.0764  -26.8053 H   0  0  0  0  0  0  0  0  0  0  0  0
   -0.6401   27.4637  -25.0494 H   0  0  0  0  0  0  0  0  0  0  0  0
    0.4157   27.4922  -26.5023 H   0  0  0  0  0  0  0  0  0  0  0  0
   -1.1366   28.3960  -26.5023 H   0  0  0  0  0  0  0  0  0  0  0  0
   -0.1433   25.8120  -28.4892 H   0  0  0  0  0  0  0  0  0  0  0  0
  1  2  1  0
  2  3  1  0
  3  4  2  0
  4  5  1  0
  5  6  1  0
  6  7  2  0
  7  8  1  0
  8  9  2  0
  9 10  1  0
 10 11  2  0
 11 12  1  0
 12 13  1  0
 13 14  2  0
 14 15  1  0
 15 16  2  0
 16 17  1  0
 17 18  2  0
 18 19  1  0
 19 20  2  0
 20 21  1  0
 21 22  2  0
 12 23  2  0
 23 24  1  0
  5 25  2  0
 25 26  1  0
 26 27  2  0
 27 28  1  0
 28 29  1  0
 29 30  2  0
 30 31  1  0
 31 32  1  0
 31 33  2  0
 27  3  1  0
 33 28  1  0
 24  6  1  0
 24  9  1  0
 22 13  1  0
 22 17  1  0
  1 34  1  0
  1 35  1  0
  1 36  1  0
  4 37  1  0
  7 38  1  0
  8 39  1  0
 10 40  1  0
 11 41  1  0
 14 42  1  0
 15 43  1  0
 16 44  1  0
 18 45  1  0
 19 46  1  0
 21 47  1  0
 25 48  1  0
 26 49  1  0
 29 50  1  0
 32 51  1  0
 32 52  1  0
 32 53  1  0
 33 54  1  0
M  CHG  1   8   1
M  END
>  <UniqueID>  (4) 
3

>  <SMILES>  (4) 
COc1cc(-c2c[nH+]c3ccc(-c4cccc5ccncc45)nn23)ccc1-n1cnc(C)c1

>  <Energy>  (4) 
148.11028842254052

>  <Genealogy>  (4) 
COc1cc(-c2c[nH+]c3ccc(-c4cccc5ccncc45)nn23)ccc1-n1cnc(C)c1 (protonated)
COc1cc(-c2c[nH+]c3ccc(-c4cccc5ccncc45)nn23)ccc1-n1cnc(C)c1 (3D coordinates assigned)
COc1cc(-c2c[nH+]c3ccc(-c4cccc5ccncc45)nn23)ccc1-n1cnc(C)c1 (optimized conformer: 148.11028842254052 kcal/mol)

>  <smiles>  (4) 
COc1cc(-c2cnc3ccc(-c4cccc5ccncc45)nn23)ccc1-n1cnc(C)c1

>  <score_type>  (4) 
oracle

>  <origin>  (4) 
adg

>  <m_score__min__energy>  (4) 
-10.57

>  <m_primary>  (4) 
energy

$$$$
4:0
     RDKit          3D

 51 52  0  0  0  0  0  0  0  0999 V2000
   -5.9180   18.5790  -34.5370 C   0  0  0  0  0  0  0  0  0  0  0  0
   -5.5600   18.0100  -33.1610 C   0  0  0  0  0  0  0  0  0  0  0  0
   -6.5780   18.3310  -32.1310 N   0  0  2  0  0  0  0  0  0  0  0  0
   -6.4670   17.4490  -30.9510 C   0  0  0  0  0  0  0  0  0  0  0  0
   -7.9510   18.3300  -32.6940 C   0  0  0  0  0  0  0  0  0  0  0  0
   -8.6240   19.7220  -32.7370 C   0  0  0  0  0  0  0  0  0  0  0  0
   -8.5190   20.4440  -31.3860 C   0  0  0  0  0  0  0  0  0  0  0  0
   -7.2970   21.2810  -31.2970 N   0  0  0  0  0  0  0  0  0  0  0  0
   -7.6230   22.6160  -30.7470 C   0  0  0  0  0  0  0  0  0  0  0  0
   -6.3610   23.3480  -30.3750 C   0  0  0  0  0  0  0  0  0  0  0  0
   -5.5390   22.8470  -29.3500 C   0  0  0  0  0  0  0  0  0  0  0  0
   -4.3510   23.5020  -29.0160 C   0  0  0  0  0  0  0  0  0  0  0  0
   -3.9730   24.6610  -29.7020 C   0  0  0  0  0  0  0  0  0  0  0  0
   -2.8180   25.2930  -29.3780 F   0  0  0  0  0  0  0  0  0  0  0  0
   -4.7850   25.1660  -30.7210 C   0  0  0  0  0  0  0  0  0  0  0  0
   -5.9750   24.5130  -31.0590 C   0  0  0  0  0  0  0  0  0  0  0  0
   -6.6050   21.3970  -32.6100 C   0  0  0  0  0  0  0  0  0  0  0  0
   -5.1170   21.2210  -32.4460 C   0  0  0  0  0  0  0  0  0  0  0  0
   -4.2300   21.6920  -33.4280 C   0  0  0  0  0  0  0  0  0  0  0  0
   -2.8490   21.5540  -33.2580 C   0  0  0  0  0  0  0  0  0  0  0  0
   -2.3410   20.9580  -32.1000 C   0  0  0  0  0  0  0  0  0  0  0  0
   -0.4570   20.7520  -31.8780 Br  0  0  0  0  0  0  0  0  0  0  0  0
   -3.2170   20.5030  -31.1090 C   0  0  0  0  0  0  0  0  0  0  0  0
   -4.5980   20.6370  -31.2780 C   0  0  0  0  0  0  0  0  0  0  0  0
   -6.4999   19.5039  -34.4112 H   0  0  0  0  0  0  0  0  0  0  0  0
   -4.9954   18.7992  -35.0941 H   0  0  0  0  0  0  0  0  0  0  0  0
   -6.5158   17.8426  -35.0941 H   0  0  0  0  0  0  0  0  0  0  0  0
   -5.4739   16.9165  -33.2430 H   0  0  0  0  0  0  0  0  0  0  0  0
   -4.6106   18.4681  -32.8467 H   0  0  0  0  0  0  0  0  0  0  0  0
   -6.4050   19.3100  -31.8000 H   0  0  0  0  0  0  0  0  0  0  0  0
   -6.5429   18.0520  -30.0341 H   0  0  0  0  0  0  0  0  0  0  0  0
   -7.2789   16.7070  -30.9702 H   0  0  0  0  0  0  0  0  0  0  0  0
   -5.4966   16.9313  -30.9702 H   0  0  0  0  0  0  0  0  0  0  0  0
   -7.9015   17.9397  -33.7212 H   0  0  0  0  0  0  0  0  0  0  0  0
   -8.5636   17.7052  -32.0274 H   0  0  0  0  0  0  0  0  0  0  0  0
   -8.1308   20.3330  -33.5073 H   0  0  0  0  0  0  0  0  0  0  0  0
   -9.6899   19.5812  -32.9693 H   0  0  0  0  0  0  0  0  0  0  0  0
   -9.4011   21.0886  -31.2582 H   0  0  0  0  0  0  0  0  0  0  0  0
   -8.4665   19.6806  -30.5958 H   0  0  0  0  0  0  0  0  0  0  0  0
   -8.1702   23.1970  -31.5040 H   0  0  0  0  0  0  0  0  0  0  0  0
   -8.2439   22.4915  -29.8475 H   0  0  0  0  0  0  0  0  0  0  0  0
   -5.8326   21.9355  -28.8088 H   0  0  0  0  0  0  0  0  0  0  0  0
   -3.7123   23.1059  -28.2128 H   0  0  0  0  0  0  0  0  0  0  0  0
   -4.4879   26.0787  -31.2583 H   0  0  0  0  0  0  0  0  0  0  0  0
   -6.6106   24.9129  -31.8628 H   0  0  0  0  0  0  0  0  0  0  0  0
   -6.9876   20.6211  -33.2895 H   0  0  0  0  0  0  0  0  0  0  0  0
   -6.7990   22.3972  -33.0246 H   0  0  0  0  0  0  0  0  0  0  0  0
   -4.6240   22.1721  -34.3359 H   0  0  0  0  0  0  0  0  0  0  0  0
   -2.1611   21.9150  -34.0368 H   0  0  0  0  0  0  0  0  0  0  0  0
   -2.8183   20.0388  -30.1949 H   0  0  0  0  0  0  0  0  0  0  0  0
   -5.2822   20.2834  -30.4926 H   0  0  0  0  0  0  0  0  0  0  0  0
  1  2  1  0
  2  3  1  0
  3  4  1  0
  3  5  1  0
  5  6  1  0
  6  7  1  0
  7  8  1  0
  8  9  1  0
  9 10  1  0
 10 11  2  0
 11 12  1  0
 12 13  2  0
 13 14  1  0
 13 15  1  0
 15 16  2  0
  8 17  1  0
 17 18  1  0
 18 19  2  0
 19 20  1  0
 20 21  2  0
 21 22  1  0
 21 23  1  0
 23 24  2  0
 16 10  1  0
 24 18  1  0
  1 25  1  0
  1 26  1  0
  1 27  1  0
  2 28  1  0
  2 29  1  0
  3 30  1  1
  4 31  1  0
  4 32  1  0
  4 33  1  0
  5 34  1  0
  5 35  1  0
  6 36  1  0
  6 37  1  0
  7 38  1  0
  7 39  1  0
  9 40  1  0
  9 41  1  0
 11 42  1  0
 12 43  1  0
 15 44  1  0
 16 45  1  0
 17 46  1  0
 17 47  1  0
 19 48  1  0
 20 49  1  0
 23 50  1  0
 24 51  1  0
M  CHG  1   3   1
M  END
>  <UniqueID>  (5) 
4

>  <SMILES>  (5) 
CC[N@H+](C)CCCN(Cc1ccc(F)cc1)Cc1ccc(Br)cc1

>  <Energy>  (5) 
49.41923348439581

>  <Genealogy>  (5) 
CC[NH+](C)CCCN(Cc1ccc(F)cc1)Cc1ccc(Br)cc1 (protonated)
CC[N@H+](C)CCCN(Cc1ccc(F)cc1)Cc1ccc(Br)cc1 (chirality)
CC[N@H+](C)CCCN(Cc1ccc(F)cc1)Cc1ccc(Br)cc1 (3D coordinates assigned)
CC[N@H+](C)CCCN(Cc1ccc(F)cc1)Cc1ccc(Br)cc1 (optimized conformer: 49.41923348439581 kcal/mol)

>  <smiles>  (5) 
CCN(C)CCCN(Cc1ccc(F)cc1)Cc1ccc(Br)cc1

>  <score_type>  (5) 
oracle

>  <origin>  (5) 
adg

>  <m_score__min__energy>  (5) 
-6.8300000000000001

>  <m_primary>  (5) 
energy

$$$$
5:0
     RDKit          3D

 42 44  0  0  0  0  0  0  0  0999 V2000
  -10.3198   23.1260  -31.5156 H   0  0  0  0  0  0  0  0  0  0  0  0
   -9.4300   22.5190  -31.7390 C   0  0  0  0  0  0  0  0  0  0  0  0
   -9.5740   21.2170  -32.2060 C   0  0  0  0  0  0  0  0  0  0  0  0
  -10.5806   20.7850  -32.3069 H   0  0  0  0  0  0  0  0  0  0  0  0
   -8.4470   20.4430  -32.5520 C   0  0  0  0  0  0  0  0  0  0  0  0
   -8.5950   19.0780  -32.8540 O   0  0  0  0  0  0  0  0  0  0  0  0
   -8.2740   18.0050  -31.9790 C   0  0  0  0  0  0  0  0  0  0  0  0
   -8.3742   18.3399  -30.9360 H   0  0  0  0  0  0  0  0  0  0  0  0
   -8.9602   17.1649  -32.1619 H   0  0  0  0  0  0  0  0  0  0  0  0
   -7.2392   17.6797  -32.1619 H   0  0  0  0  0  0  0  0  0  0  0  0
   -7.1500   21.0410  -32.5090 C   0  0  0  0  0  0  0  0  0  0  0  0
   -7.0290   22.3150  -31.9140 C   0  0  0  0  0  0  0  0  0  0  0  0
   -5.8090   22.8360  -31.6550 N   0  0  0  0  0  0  0  0  0  0  0  0
   -4.6360   22.2200  -31.9280 C   0  0  0  0  0  0  0  0  0  0  0  0
   -3.5660   22.8970  -31.5900 N   0  0  0  0  0  0  0  0  0  0  0  0
   -2.9560   23.3080  -30.3300 C   0  0  0  0  0  0  0  0  0  0  0  0
   -1.8922   23.5293  -30.5013 H   0  0  0  0  0  0  0  0  0  0  0  0
   -3.0688   22.4893  -29.6040 H   0  0  0  0  0  0  0  0  0  0  0  0
   -3.6430   24.5580  -29.7650 C   0  0  0  0  0  0  0  0  0  0  0  0
   -2.8930   25.2009  -29.2811 H   0  0  0  0  0  0  0  0  0  0  0  0
   -4.4006   24.2564  -29.0267 H   0  0  0  0  0  0  0  0  0  0  0  0
   -4.2910   25.2980  -30.8540 N   0  0  0  0  0  0  0  0  0  0  0  0
   -4.5750   24.6040  -31.5850 H   0  0  0  0  0  0  0  0  0  0  0  0
   -5.5140   25.9560  -30.3780 C   0  0  0  0  0  0  0  0  0  0  0  0
   -6.1656   26.1800  -31.2354 H   0  0  0  0  0  0  0  0  0  0  0  0
   -5.2468   26.8899  -29.8618 H   0  0  0  0  0  0  0  0  0  0  0  0
   -6.2510   25.0370  -29.4080 C   0  0  0  0  0  0  0  0  0  0  0  0
   -6.0157   25.3305  -28.3743 H   0  0  0  0  0  0  0  0  0  0  0  0
   -7.3350   25.1209  -29.5752 H   0  0  0  0  0  0  0  0  0  0  0  0
   -5.9336   23.9971  -29.5752 H   0  0  0  0  0  0  0  0  0  0  0  0
   -4.6730   20.9480  -32.5990 C   0  0  0  0  0  0  0  0  0  0  0  0
   -3.5340   20.1860  -32.9500 C   0  0  0  0  0  0  0  0  0  0  0  0
   -2.5418   20.5038  -32.5971 H   0  0  0  0  0  0  0  0  0  0  0  0
   -3.6460   19.0440  -33.7320 C   0  0  0  0  0  0  0  0  0  0  0  0
   -2.7518   18.4546  -33.9830 H   0  0  0  0  0  0  0  0  0  0  0  0
   -4.8900   18.6530  -34.1930 C   0  0  0  0  0  0  0  0  0  0  0  0
   -4.9787   17.7832  -34.8605 H   0  0  0  0  0  0  0  0  0  0  0  0
   -6.0000   19.3380  -33.8250 N   0  0  0  0  0  0  0  0  0  0  0  0
   -6.8800   19.0460  -34.2990 H   0  0  0  0  0  0  0  0  0  0  0  0
   -5.9540   20.4130  -32.9720 C   0  0  0  0  0  0  0  0  0  0  0  0
   -8.1590   23.0520  -31.5550 C   0  0  0  0  0  0  0  0  0  0  0  0
   -8.0435   24.0579  -31.1251 H   0  0  0  0  0  0  0  0  0  0  0  0
  1  2  1  0
  2  3  2  0
  3  4  1  0
  3  5  1  0
  5  6  1  0
  6  7  1  0
  7  8  1  0
  7  9  1  0
  7 10  1  0
  5 11  2  0
 11 12  1  0
 12 13  1  0
 13 14  1  0
 14 15  2  0
 15 16  1  0
 16 17  1  0
 16 18  1  0
 16 19  1  0
 19 20  1  0
 19 21  1  0
 19 22  1  0
 22 23  1  0
 22 24  1  0
 24 25  1  0
 24 26  1  0
 24 27  1  0
 27 28  1  0
 27 29  1  0
 27 30  1  0
 14 31  1  0
 31 32  2  0
 32 33  1  0
 32 34  1  0
 34 35  1  0
 34 36  2  0
 36 37  1  0
 36 38  1  0
 38 39  1  0
 38 40  2  0
 12 41  2  0
 41 42  1  0
 41  2  1  0
 40 11  1  0
 40 31  1  0
M  CHG  2  13  -1  38   1
M  END
>  <UniqueID>  (6) 
5

>  <SMILES>  (6) 
CCNCC/N=c1/[n-]c2cccc(OC)c2c2[nH+]cccc12

>  <Energy>  (6) 
74.32449439819308

>  <Genealogy>  (6) 
CCNCCN=c1[n-]c2cccc(OC)c2c2[nH+]cccc12 (protonated)
CCNCC/N=c1/[n-]c2cccc(OC)c2c2[nH+]cccc12 (cis-trans isomerization)
CCNCC/N=c1/[n-]c2cccc(OC)c2c2[nH+]cccc12 (3D coordinates assigned)
CCNCC/N=c1/[n-]c2cccc(OC)c2c2[nH+]cccc12 (optimized conformer: 74.32449439819308 kcal/mol)

>  <smiles>  (6) 
CCNCCN=c1[nH]c2cccc(OC)c2c2ncccc12

>  <score_type>  (6) 
oracle

>  <origin>  (6) 
adg

>  <m_score__min__energy>  (6) 
-7.7300000000000004

>  <m_primary>  (6) 
energy

$$$$
6:0
     RDKit          3D

 52 54  0  0  0  0  0  0  0  0999 V2000
   -2.4423   18.6964  -27.8679 H   0  0  0  0  0  0  0  0  0  0  0  0
   -2.4110   19.7080  -27.4370 C   0  0  0  0  0  0  0  0  0  0  0  0
   -1.9680   19.8760  -26.2260 N   0  0  0  0  0  0  0  0  0  0  0  0
   -1.3680   21.0330  -25.7560 O   0  0  0  0  0  0  0  0  0  0  0  0
   -0.3950   21.7760  -26.4880 C   0  0  0  0  0  0  0  0  0  0  0  0
   -0.4627   21.5137  -27.5541 H   0  0  0  0  0  0  0  0  0  0  0  0
    0.6076   21.5320  -26.1069 H   0  0  0  0  0  0  0  0  0  0  0  0
   -0.6460   23.2770  -26.3180 C   0  0  0  0  0  0  0  0  0  0  0  0
    0.3004   23.7648  -26.0418 H   0  0  0  0  0  0  0  0  0  0  0  0
   -1.4073   23.4041  -25.5343 H   0  0  0  0  0  0  0  0  0  0  0  0
   -1.1610   23.9040  -27.5550 N   0  0  0  0  0  0  0  0  0  0  0  0
   -0.1680   23.8060  -28.6380 C   0  0  0  0  0  0  0  0  0  0  0  0
    0.8383   23.7067  -28.2049 H   0  0  0  0  0  0  0  0  0  0  0  0
   -0.3885   22.9252  -29.2590 H   0  0  0  0  0  0  0  0  0  0  0  0
   -0.2121   24.7129  -29.2590 H   0  0  0  0  0  0  0  0  0  0  0  0
   -1.6650   25.2900  -27.3890 C   0  0  0  0  0  0  0  0  0  0  0  0
   -2.3534   25.5064  -28.2192 H   0  0  0  0  0  0  0  0  0  0  0  0
   -0.7807   25.9442  -27.3799 H   0  0  0  0  0  0  0  0  0  0  0  0
   -2.4090   25.5460  -26.0710 C   0  0  0  0  0  0  0  0  0  0  0  0
   -1.7447   25.3174  -25.2246 H   0  0  0  0  0  0  0  0  0  0  0  0
   -2.7155   26.6013  -26.0220 H   0  0  0  0  0  0  0  0  0  0  0  0
   -3.3000   24.9027  -26.0220 H   0  0  0  0  0  0  0  0  0  0  0  0
   -2.8730   20.8580  -28.2420 C   0  0  0  0  0  0  0  0  0  0  0  0
   -3.7010   21.8530  -27.6940 C   0  0  0  0  0  0  0  0  0  0  0  0
   -4.0158   21.7838  -26.6423 H   0  0  0  0  0  0  0  0  0  0  0  0
   -4.1270   22.9300  -28.4770 C   0  0  0  0  0  0  0  0  0  0  0  0
   -4.7682   23.7068  -28.0349 H   0  0  0  0  0  0  0  0  0  0  0  0
   -3.7420   23.0270  -29.8240 C   0  0  0  0  0  0  0  0  0  0  0  0
   -4.1990   24.1730  -30.6470 C   0  0  0  0  0  0  0  0  0  0  0  0
   -3.6530   25.2970  -30.4960 O   0  0  0  0  0  0  0  0  0  0  0  0
   -5.2100   24.0320  -31.6530 N   0  0  0  0  0  0  0  0  0  0  0  0
   -6.2040   22.9990  -31.7160 C   0  0  0  0  0  0  0  0  0  0  0  0
   -7.5730   23.2780  -31.5340 C   0  0  0  0  0  0  0  0  0  0  0  0
   -7.8998   24.3090  -31.3336 H   0  0  0  0  0  0  0  0  0  0  0  0
   -8.5180   22.2500  -31.6070 C   0  0  0  0  0  0  0  0  0  0  0  0
   -9.5848   22.4706  -31.4545 H   0  0  0  0  0  0  0  0  0  0  0  0
   -8.1050   20.9420  -31.8740 C   0  0  0  0  0  0  0  0  0  0  0  0
   -6.7510   20.6670  -32.1050 C   0  0  0  0  0  0  0  0  0  0  0  0
   -5.8020   21.6900  -32.0190 C   0  0  0  0  0  0  0  0  0  0  0  0
   -4.7382   21.4678  -32.1893 H   0  0  0  0  0  0  0  0  0  0  0  0
   -6.3670   19.3600  -32.4230 O   0  0  0  0  0  0  0  0  0  0  0  0
   -7.3370   18.3720  -32.7810 C   0  0  0  0  0  0  0  0  0  0  0  0
   -7.6025   18.4916  -33.8417 H   0  0  0  0  0  0  0  0  0  0  0  0
   -6.9102   17.3727  -32.6102 H   0  0  0  0  0  0  0  0  0  0  0  0
   -8.5990   18.5300  -31.9220 C   0  0  0  0  0  0  0  0  0  0  0  0
   -9.3993   17.8969  -32.3328 H   0  0  0  0  0  0  0  0  0  0  0  0
   -8.3700   18.2255  -30.8901 H   0  0  0  0  0  0  0  0  0  0  0  0
   -9.0300   19.8930  -31.9200 O   0  0  0  0  0  0  0  0  0  0  0  0
   -2.9010   22.0410  -30.3660 C   0  0  0  0  0  0  0  0  0  0  0  0
   -2.5753   22.1165  -31.4140 H   0  0  0  0  0  0  0  0  0  0  0  0
   -2.4750   20.9640  -29.5820 C   0  0  0  0  0  0  0  0  0  0  0  0
   -1.8227   20.1943  -30.0202 H   0  0  0  0  0  0  0  0  0  0  0  0
  1  2  1  0
  2  3  2  0
  3  4  1  0
  4  5  1  0
  5  6  1  0
  5  7  1  0
  5  8  1  0
  8  9  1  0
  8 10  1  0
  8 11  1  0
 11 12  1  0
 12 13  1  0
 12 14  1  0
 12 15  1  0
 11 16  1  0
 16 17  1  0
 16 18  1  0
 16 19  1  0
 19 20  1  0
 19 21  1  0
 19 22  1  0
  2 23  1  0
 23 24  2  0
 24 25  1  0
 24 26  1  0
 26 27  1  0
 26 28  2  0
 28 29  1  0
 29 30  2  0
 29 31  1  0
 31 32  1  0
 32 33  2  0
 33 34  1  0
 33 35  1  0
 35 36  1  0
 35 37  2  0
 37 38  1  0
 38 39  2  0
 39 40  1  0
 38 41  1  0
 41 42  1  0
 42 43  1  0
 42 44  1  0
 42 45  1  0
 45 46  1  0
 45 47  1  0
 45 48  1  0
 28 49  1  0
 49 50  1  0
 49 51  2  0
 51 52  1  0
 51 23  1  0
 39 32  1  0
 48 37  1  0
M  CHG  1  31  -1
M  END
>  <UniqueID>  (7) 
6

>  <SMILES>  (7) 
CCN(C)CCO/N=C/c1ccc(C(=O)[N-]c2ccc3c(c2)OCCO3)cc1

>  <Energy>  (7) 
62.40859036340644

>  <Genealogy>  (7) 
CCN(C)CCON=Cc1ccc(C(=O)[N-]c2ccc3c(c2)OCCO3)cc1 (protonated)
CCN(C)CCO/N=C/c1ccc(C(=O)[N-]c2ccc3c(c2)OCCO3)cc1 (cis-trans isomerization)
CCN(C)CCO/N=C/c1ccc(C(=O)[N-]c2ccc3c(c2)OCCO3)cc1 (3D coordinates assigned)
CCN(C)CCO/N=C/c1ccc(C(=O)[N-]c2ccc3c(c2)OCCO3)cc1 (nonaromatic ring conformer: 62.40859036340644 kcal/mol)

>  <smiles>  (7) 
CCN(C)CCON=Cc1ccc(C(=O)Nc2ccc3c(c2)OCCO3)cc1

>  <score_type>  (7) 
oracle

>  <origin>  (7) 
adg

>  <m_score__min__energy>  (7) 
-9.8900000000000006

>  <m_primary>  (7) 
energy

$$$$
7:0
     RDKit          3D

 47 48  0  0  0  0  0  0  0  0999 V2000
   -9.6726   18.5024  -30.9438 H   0  0  0  0  0  0  0  0  0  0  0  0
   -9.0870   19.1070  -31.6520 C   0  0  0  0  0  0  0  0  0  0  0  0
   -7.9990   18.5070  -32.3710 C   0  0  0  0  0  0  0  0  0  0  0  0
   -7.1030   17.9880  -32.9880 C   0  0  0  0  0  0  0  0  0  0  0  0
   -6.0040   17.3670  -33.7510 C   0  0  0  0  0  0  0  0  0  0  0  0
   -5.6890   18.2430  -34.9750 C   0  0  0  0  0  0  0  0  0  0  0  0
   -5.3346   19.2286  -34.6390 H   0  0  0  0  0  0  0  0  0  0  0  0
   -4.9084   17.7596  -35.5808 H   0  0  0  0  0  0  0  0  0  0  0  0
   -6.5987   18.3674  -35.5808 H   0  0  0  0  0  0  0  0  0  0  0  0
   -4.7650   17.2620  -32.8480 C   0  0  0  0  0  0  0  0  0  0  0  0
   -5.0766   17.2884  -31.7934 H   0  0  0  0  0  0  0  0  0  0  0  0
   -4.2416   16.3163  -33.0521 H   0  0  0  0  0  0  0  0  0  0  0  0
   -4.0899   18.1062  -33.0521 H   0  0  0  0  0  0  0  0  0  0  0  0
   -6.4420   15.9660  -34.2090 C   0  0  0  0  0  0  0  0  0  0  0  0
   -6.6386   15.3371  -33.3282 H   0  0  0  0  0  0  0  0  0  0  0  0
   -7.3576   16.0473  -34.8132 H   0  0  0  0  0  0  0  0  0  0  0  0
   -5.6431   15.5113  -34.8132 H   0  0  0  0  0  0  0  0  0  0  0  0
   -9.3930   20.3910  -31.8360 C   0  0  0  0  0  0  0  0  0  0  0  0
  -10.0547   20.6685  -32.6697 H   0  0  0  0  0  0  0  0  0  0  0  0
   -8.8580   21.4740  -30.9340 C   0  0  0  0  0  0  0  0  0  0  0  0
   -8.1781   21.0179  -30.1993 H   0  0  0  0  0  0  0  0  0  0  0  0
   -9.7164   21.9565  -30.4438 H   0  0  0  0  0  0  0  0  0  0  0  0
   -8.1160   22.5230  -31.6850 N   0  0  2  0  0  0  0  0  0  0  0  0
   -7.5620   23.1120  -31.0210 H   0  0  0  0  0  0  0  0  0  0  0  0
   -9.0800   23.4310  -32.3340 C   0  0  0  0  0  0  0  0  0  0  0  0
   -9.6519   23.9697  -31.5641 H   0  0  0  0  0  0  0  0  0  0  0  0
   -8.5378   24.1541  -32.9610 H   0  0  0  0  0  0  0  0  0  0  0  0
   -9.7694   22.8465  -32.9610 H   0  0  0  0  0  0  0  0  0  0  0  0
   -7.2080   21.9610  -32.7200 C   0  0  0  0  0  0  0  0  0  0  0  0
   -7.5420   20.9410  -32.9610 H   0  0  0  0  0  0  0  0  0  0  0  0
   -7.2549   22.6293  -33.5925 H   0  0  0  0  0  0  0  0  0  0  0  0
   -5.7580   21.9010  -32.2770 C   0  0  0  0  0  0  0  0  0  0  0  0
   -4.9780   20.7830  -32.6230 C   0  0  0  0  0  0  0  0  0  0  0  0
   -5.4119   19.9898  -33.2495 H   0  0  0  0  0  0  0  0  0  0  0  0
   -3.6590   20.6690  -32.1800 C   0  0  0  0  0  0  0  0  0  0  0  0
   -3.0620   19.7886  -32.4604 H   0  0  0  0  0  0  0  0  0  0  0  0
   -3.0940   21.6650  -31.3840 C   0  0  0  0  0  0  0  0  0  0  0  0
   -2.0564   21.5657  -31.0326 H   0  0  0  0  0  0  0  0  0  0  0  0
   -3.8480   22.7920  -31.0320 C   0  0  0  0  0  0  0  0  0  0  0  0
   -3.3040   23.8000  -30.2250 C   0  0  0  0  0  0  0  0  0  0  0  0
   -2.2700   23.7149  -29.8594 H   0  0  0  0  0  0  0  0  0  0  0  0
   -4.0750   24.9110  -29.8860 C   0  0  0  0  0  0  0  0  0  0  0  0
   -3.6562   25.7024  -29.2471 H   0  0  0  0  0  0  0  0  0  0  0  0
   -5.3830   25.0110  -30.3640 C   0  0  0  0  0  0  0  0  0  0  0  0
   -5.9954   25.8881  -30.1079 H   0  0  0  0  0  0  0  0  0  0  0  0
   -5.9010   24.0270  -31.1450 N   0  0  0  0  0  0  0  0  0  0  0  0
   -5.1820   22.9210  -31.4890 C   0  0  0  0  0  0  0  0  0  0  0  0
  1  2  1  0
  2  3  1  0
  3  4  3  0
  4  5  1  0
  5  6  1  0
  6  7  1  0
  6  8  1  0
  6  9  1  0
  5 10  1  0
 10 11  1  0
 10 12  1  0
 10 13  1  0
  5 14  1  0
 14 15  1  0
 14 16  1  0
 14 17  1  0
  2 18  2  0
 18 19  1  0
 18 20  1  0
 20 21  1  0
 20 22  1  0
 20 23  1  0
 23 24  1  1
 23 25  1  0
 25 26  1  0
 25 27  1  0
 25 28  1  0
 23 29  1  0
 29 30  1  0
 29 31  1  0
 29 32  1  0
 32 33  2  0
 33 34  1  0
 33 35  1  0
 35 36  1  0
 35 37  2  0
 37 38  1  0
 37 39  1  0
 39 40  2  0
 40 41  1  0
 40 42  1  0
 42 43  1  0
 42 44  2  0
 44 45  1  0
 44 46  1  0
 46 47  2  0
 47 32  1  0
 47 39  1  0
M  CHG  1  23   1
M  END
>  <UniqueID>  (8) 
7

>  <SMILES>  (8) 
C[N@@H+](C/C=C/C#CC(C)(C)C)Cc1cccc2cccnc12

>  <Energy>  (8) 
36.84750374438495

>  <Genealogy>  (8) 
C[NH+](CC=CC#CC(C)(C)C)Cc1cccc2cccnc12 (protonated)
C[N@@H+](CC=CC#CC(C)(C)C)Cc1cccc2cccnc12 (chirality)
C[N@@H+](C/C=C/C#CC(C)(C)C)Cc1cccc2cccnc12 (cis-trans isomerization)
C[N@@H+](C/C=C/C#CC(C)(C)C)Cc1cccc2cccnc12 (3D coordinates assigned)
C[N@@H+](C/C=C/C#CC(C)(C)C)Cc1cccc2cccnc12 (optimized conformer: 36.84750374438495 kcal/mol)

>  <smiles>  (8) 
CN(CC=CC#CC(C)(C)C)Cc1cccc2cccnc12

>  <score_type>  (8) 
oracle

>  <origin>  (8) 
adg

>  <m_score__min__energy>  (8) 
-6.54

>  <m_primary>  (8) 
energy

$$$$
8:0
     RDKit          3D

 48 50  0  0  0  0  0  0  0  0999 V2000
   -6.4970   15.9640  -34.0160 C   0  0  0  0  0  0  0  0  0  0  0  0
   -5.2660   16.7580  -33.5510 C   0  0  0  0  0  0  0  0  0  0  0  0
   -5.5470   18.1530  -33.1220 N   0  0  1  0  0  0  0  0  0  0  0  0
   -6.2920   18.2480  -31.8400 C   0  0  0  0  0  0  0  0  0  0  0  0
   -7.3920   19.2850  -31.8930 C   0  0  0  0  0  0  0  0  0  0  0  0
   -8.5790   19.0180  -32.5940 C   0  0  0  0  0  0  0  0  0  0  0  0
   -9.6060   19.9670  -32.6290 C   0  0  0  0  0  0  0  0  0  0  0  0
   -9.4550   21.1870  -31.9650 C   0  0  0  0  0  0  0  0  0  0  0  0
   -8.2770   21.4600  -31.2640 C   0  0  0  0  0  0  0  0  0  0  0  0
   -7.2480   20.5140  -31.2280 C   0  0  0  0  0  0  0  0  0  0  0  0
   -4.3260   18.9420  -33.0720 C   0  0  0  0  0  0  0  0  0  0  0  0
   -3.2740   18.4920  -33.6100 O   0  0  0  0  0  0  0  0  0  0  0  0
   -4.2740   20.2840  -32.4200 C   0  0  0  0  0  0  0  0  0  0  0  0
   -3.6970   20.4110  -31.1410 C   0  0  0  0  0  0  0  0  0  0  0  0
   -3.6340   21.6530  -30.5050 C   0  0  0  0  0  0  0  0  0  0  0  0
   -4.1500   22.8010  -31.1280 C   0  0  0  0  0  0  0  0  0  0  0  0
   -4.0720   24.1280  -30.4700 C   0  0  0  0  0  0  0  0  0  0  0  0
   -4.5480   25.1320  -31.0670 O   0  0  0  0  0  0  0  0  0  0  0  0
   -3.4550   24.3170  -29.1340 C   0  0  0  0  0  0  0  0  0  0  0  0
   -2.0620   24.4610  -28.9920 C   0  0  0  0  0  0  0  0  0  0  0  0
   -1.4930   24.6210  -27.7250 C   0  0  0  0  0  0  0  0  0  0  0  0
   -2.3040   24.6300  -26.5880 C   0  0  0  0  0  0  0  0  0  0  0  0
   -3.6860   24.4720  -26.7160 C   0  0  0  0  0  0  0  0  0  0  0  0
   -4.2600   24.3100  -27.9810 C   0  0  0  0  0  0  0  0  0  0  0  0
   -4.7040   22.6850  -32.4110 C   0  0  0  0  0  0  0  0  0  0  0  0
   -4.7700   21.4430  -33.0490 C   0  0  0  0  0  0  0  0  0  0  0  0
   -7.0544   15.6045  -33.1385 H   0  0  0  0  0  0  0  0  0  0  0  0
   -7.1457   16.6144  -34.6212 H   0  0  0  0  0  0  0  0  0  0  0  0
   -6.1720   15.1048  -34.6212 H   0  0  0  0  0  0  0  0  0  0  0  0
   -4.8153   16.2235  -32.7018 H   0  0  0  0  0  0  0  0  0  0  0  0
   -4.5989   16.8315  -34.4225 H   0  0  0  0  0  0  0  0  0  0  0  0
   -6.1710   18.5810  -33.8430 H   0  0  0  0  0  0  0  0  0  0  0  0
   -6.7395   17.2682  -31.6170 H   0  0  0  0  0  0  0  0  0  0  0  0
   -5.5803   18.5508  -31.0578 H   0  0  0  0  0  0  0  0  0  0  0  0
   -8.7018   18.0585  -33.1178 H   0  0  0  0  0  0  0  0  0  0  0  0
  -10.5336   19.7525  -33.1799 H   0  0  0  0  0  0  0  0  0  0  0  0
  -10.2632   21.9327  -31.9939 H   0  0  0  0  0  0  0  0  0  0  0  0
   -8.1593   22.4200  -30.7401 H   0  0  0  0  0  0  0  0  0  0  0  0
   -6.3217   20.7331  -30.6766 H   0  0  0  0  0  0  0  0  0  0  0  0
   -3.2912   19.5213  -30.6372 H   0  0  0  0  0  0  0  0  0  0  0  0
   -3.1764   21.7326  -29.5079 H   0  0  0  0  0  0  0  0  0  0  0  0
   -1.4173   24.4476  -29.8832 H   0  0  0  0  0  0  0  0  0  0  0  0
   -0.4042   24.7401  -27.6234 H   0  0  0  0  0  0  0  0  0  0  0  0
   -1.8548   24.7614  -25.5925 H   0  0  0  0  0  0  0  0  0  0  0  0
   -4.3241   24.4750  -25.8200 H   0  0  0  0  0  0  0  0  0  0  0  0
   -5.3478   24.1763  -28.0746 H   0  0  0  0  0  0  0  0  0  0  0  0
   -5.0904   23.5801  -32.9203 H   0  0  0  0  0  0  0  0  0  0  0  0
   -5.2139   21.3698  -34.0528 H   0  0  0  0  0  0  0  0  0  0  0  0
  1  2  1  0
  2  3  1  0
  3  4  1  0
  4  5  1  0
  5  6  2  0
  6  7  1  0
  7  8  2  0
  8  9  1  0
  9 10  2  0
  3 11  1  0
 11 12  2  0
 11 13  1  0
 13 14  2  0
 14 15  1  0
 15 16  2  0
 16 17  1  0
 17 18  2  0
 17 19  1  0
 19 20  2  0
 20 21  1  0
 21 22  2  0
 22 23  1  0
 23 24  2  0
 16 25  1  0
 25 26  2  0
 10  5  1  0
 26 13  1  0
 24 19  1  0
  1 27  1  0
  1 28  1  0
  1 29  1  0
  2 30  1  0
  2 31  1  0
  3 32  1  6
  4 33  1  0
  4 34  1  0
  6 35  1  0
  7 36  1  0
  8 37  1  0
  9 38  1  0
 10 39  1  0
 14 40  1  0
 15 41  1  0
 20 42  1  0
 21 43  1  0
 22 44  1  0
 23 45  1  0
 24 46  1  0
 25 47  1  0
 26 48  1  0
M  CHG  1   3   1
M  END
>  <UniqueID>  (9) 
8

>  <SMILES>  (9) 
CC[N@@H+](Cc1ccccc1)C(=O)c1ccc(C(=O)c2ccccc2)cc1

>  <Energy>  (9) 
64.11345777927927

>  <Genealogy>  (9) 
CC[NH+](Cc1ccccc1)C(=O)c1ccc(C(=O)c2ccccc2)cc1 (protonated)
CC[N@@H+](Cc1ccccc1)C(=O)c1ccc(C(=O)c2ccccc2)cc1 (chirality)
CC[N@@H+](Cc1ccccc1)C(=O)c1ccc(C(=O)c2ccccc2)cc1 (3D coordinates assigned)
CC[N@@H+](Cc1ccccc1)C(=O)c1ccc(C(=O)c2ccccc2)cc1 (optimized conformer: 64.11345777927927 kcal/mol)

>  <smiles>  (9) 
CCN(Cc1ccccc1)C(=O)c1ccc(C(=O)c2ccccc2)cc1

>  <score_type>  (9) 
oracle

>  <origin>  (9) 
adg

>  <m_score__min__energy>  (9) 
-8.9299999999999997

>  <m_primary>  (9) 
energy

$$$$
9:0
     RDKit          3D

 36 38  0  0  0  0  0  0  0  0999 V2000
   -4.8480   24.3530  -28.7760 N   0  0  0  0  0  0  0  0  0  0  0  0
   -4.9120   24.8830  -30.0990 C   0  0  0  0  0  0  0  0  0  0  0  0
   -3.8480   25.0770  -30.7470 O   0  0  0  0  0  0  0  0  0  0  0  0
   -6.2350   25.1610  -30.7400 C   0  0  0  0  0  0  0  0  0  0  0  0
   -6.8390   23.9130  -31.1940 N   0  0  0  0  0  0  0  0  0  0  0  0
   -6.1930   22.7510  -31.3990 C   0  0  0  0  0  0  0  0  0  0  0  0
   -7.1030   21.8340  -31.8930 C   0  0  0  0  0  0  0  0  0  0  0  0
   -6.8440   20.4170  -32.2460 C   0  0  0  0  0  0  0  0  0  0  0  0
   -5.6090   20.0520  -32.8080 C   0  0  0  0  0  0  0  0  0  0  0  0
   -5.3410   18.7230  -33.1430 C   0  0  0  0  0  0  0  0  0  0  0  0
   -6.3070   17.7250  -32.9290 C   0  0  0  0  0  0  0  0  0  0  0  0
   -6.0240   16.3120  -33.2870 C   0  0  0  0  0  0  0  0  0  0  0  0
   -6.8540   15.6210  -34.1890 C   0  0  0  0  0  0  0  0  0  0  0  0
   -6.5840   14.2900  -34.5250 C   0  0  0  0  0  0  0  0  0  0  0  0
   -5.4850   13.6350  -33.9640 C   0  0  0  0  0  0  0  0  0  0  0  0
   -4.6540   14.3090  -33.0670 C   0  0  0  0  0  0  0  0  0  0  0  0
   -4.9190   15.6400  -32.7290 C   0  0  0  0  0  0  0  0  0  0  0  0
   -7.5460   18.0880  -32.3760 C   0  0  0  0  0  0  0  0  0  0  0  0
   -7.8160   19.4180  -32.0380 C   0  0  0  0  0  0  0  0  0  0  0  0
   -9.0410   19.7240  -31.5420 F   0  0  0  0  0  0  0  0  0  0  0  0
   -8.3020   22.5290  -31.9620 C   0  0  0  0  0  0  0  0  0  0  0  0
   -8.1110   23.7930  -31.5380 N   0  0  0  0  0  0  0  0  0  0  0  0
   -3.9250   24.1430  -28.3350 H   0  0  0  0  0  0  0  0  0  0  0  0
   -5.7210   24.1640  -28.2340 H   0  0  0  0  0  0  0  0  0  0  0  0
   -6.9003   25.6433  -30.0088 H   0  0  0  0  0  0  0  0  0  0  0  0
   -6.0864   25.8264  -31.6032 H   0  0  0  0  0  0  0  0  0  0  0  0
   -5.1263   22.5628  -31.2071 H   0  0  0  0  0  0  0  0  0  0  0  0
   -4.8442   20.8222  -32.9862 H   0  0  0  0  0  0  0  0  0  0  0  0
   -4.3666   18.4554  -33.5776 H   0  0  0  0  0  0  0  0  0  0  0  0
   -7.7215   16.1310  -34.6332 H   0  0  0  0  0  0  0  0  0  0  0  0
   -7.2380   13.7585  -35.2319 H   0  0  0  0  0  0  0  0  0  0  0  0
   -5.2744   12.5884  -34.2289 H   0  0  0  0  0  0  0  0  0  0  0  0
   -3.7892   13.7922  -32.6253 H   0  0  0  0  0  0  0  0  0  0  0  0
   -4.2599   16.1657  -32.0225 H   0  0  0  0  0  0  0  0  0  0  0  0
   -8.3127   17.3175  -32.2068 H   0  0  0  0  0  0  0  0  0  0  0  0
   -9.2592   22.1126  -32.3089 H   0  0  0  0  0  0  0  0  0  0  0  0
  1  2  1  0
  2  3  2  0
  2  4  1  0
  4  5  1  0
  5  6  1  0
  6  7  2  0
  7  8  1  0
  8  9  2  0
  9 10  1  0
 10 11  2  0
 11 12  1  0
 12 13  2  0
 13 14  1  0
 14 15  2  0
 15 16  1  0
 16 17  2  0
 11 18  1  0
 18 19  2  0
 19 20  1  0
  7 21  1  0
 21 22  2  0
 22  5  1  0
 19  8  1  0
 17 12  1  0
  1 23  1  0
  1 24  1  0
  4 25  1  0
  4 26  1  0
  6 27  1  0
  9 28  1  0
 10 29  1  0
 13 30  1  0
 14 31  1  0
 15 32  1  0
 16 33  1  0
 17 34  1  0
 18 35  1  0
 21 36  1  0
M  END
>  <UniqueID>  (10) 
9

>  <SMILES>  (10) 
NC(=O)Cn1cc(-c2ccc(-c3ccccc3)cc2F)cn1

>  <Energy>  (10) 
73.89368645368683

>  <Genealogy>  (10) 
NC(=O)Cn1cc(-c2ccc(-c3ccccc3)cc2F)cn1 (3D coordinates assigned)
NC(=O)Cn1cc(-c2ccc(-c3ccccc3)cc2F)cn1 (optimized conformer: 73.89368645368683 kcal/mol)

>  <smiles>  (10) 
NC(=O)Cn1cc(-c2ccc(-c3ccccc3)cc2F)cn1

>  <score_type>  (10) 
oracle

>  <origin>  (10) 
adg

>  <m_score__min__energy>  (10) 
-8.2400000000000002

>  <m_primary>  (10) 
energy

$$$$
10:0
     RDKit          3D

 26 26  0  0  0  0  0  0  0  0999 V2000
   -4.2480   23.9380  -27.5610 C   0  0  0  0  0  0  0  0  0  0  0  0
   -3.0440   24.7150  -27.2580 N   0  0  0  0  0  0  0  0  0  0  0  0
   -2.1010   24.9040  -28.2270 C   0  0  0  0  0  0  0  0  0  0  0  0
   -0.9610   25.6630  -27.9650 C   0  0  0  0  0  0  0  0  0  0  0  0
   -0.7980   26.2440  -26.7100 C   0  0  0  0  0  0  0  0  0  0  0  0
   -1.7760   26.0790  -25.7210 C   0  0  0  0  0  0  0  0  0  0  0  0
   -1.5800   26.6980  -24.4330 N   0  0  0  0  0  0  0  0  0  0  0  0
   -0.4780   26.4210  -23.5090 C   0  0  0  0  0  0  0  0  0  0  0  0
    0.5680   27.5420  -23.5500 C   0  0  0  0  0  0  0  0  0  0  0  0
    1.0100   27.9280  -22.2090 N   0  0  0  0  0  0  0  0  0  0  0  0
   -2.9100   25.2990  -26.0270 C   0  0  0  0  0  0  0  0  0  0  0  0
   -4.7297   23.6271  -26.6222 H   0  0  0  0  0  0  0  0  0  0  0  0
   -4.9463   24.5563  -28.1442 H   0  0  0  0  0  0  0  0  0  0  0  0
   -3.9723   23.0470  -28.1442 H   0  0  0  0  0  0  0  0  0  0  0  0
   -2.2415   24.4545  -29.2211 H   0  0  0  0  0  0  0  0  0  0  0  0
   -0.1964   25.8017  -28.7436 H   0  0  0  0  0  0  0  0  0  0  0  0
    0.1038   26.8358  -26.4942 H   0  0  0  0  0  0  0  0  0  0  0  0
   -2.2730   27.4170  -24.1240 H   0  0  0  0  0  0  0  0  0  0  0  0
   -0.8772   26.3386  -22.4873 H   0  0  0  0  0  0  0  0  0  0  0  0
    0.0047   25.4798  -23.8110 H   0  0  0  0  0  0  0  0  0  0  0  0
    1.4390   27.1943  -24.1248 H   0  0  0  0  0  0  0  0  0  0  0  0
    0.1056   28.4215  -24.0219 H   0  0  0  0  0  0  0  0  0  0  0  0
    0.8220   28.9430  -22.0470 H   0  0  0  0  0  0  0  0  0  0  0  0
    0.5230   27.3500  -21.4860 H   0  0  0  0  0  0  0  0  0  0  0  0
    2.0390   27.7610  -22.1300 H   0  0  0  0  0  0  0  0  0  0  0  0
   -3.6948   25.1583  -25.2692 H   0  0  0  0  0  0  0  0  0  0  0  0
  1  2  1  0
  2  3  2  0
  3  4  1  0
  4  5  2  0
  5  6  1  0
  6  7  1  0
  7  8  1  0
  8  9  1  0
  9 10  1  0
  6 11  2  0
 11  2  1  0
  1 12  1  0
  1 13  1  0
  1 14  1  0
  3 15  1  0
  4 16  1  0
  5 17  1  0
  7 18  1  0
  8 19  1  0
  8 20  1  0
  9 21  1  0
  9 22  1  0
 10 23  1  0
 10 24  1  0
 10 25  1  0
 11 26  1  0
M  CHG  2   2   1  10   1
M  END
>  <UniqueID>  (11) 
10

>  <SMILES>  (11) 
C[n+]1cccc(NCC[NH3+])c1

>  <Energy>  (11) 
22.326528103672622

>  <Genealogy>  (11) 
C[n+]1cccc(NCC[NH3+])c1 (protonated)
C[n+]1cccc(NCC[NH3+])c1 (3D coordinates assigned)
C[n+]1cccc(NCC[NH3+])c1 (optimized conformer: 22.326528103672622 kcal/mol)

>  <smiles>  (11) 
C[n+]1cccc(NCCN)c1

>  <score_type>  (11) 
oracle

>  <origin>  (11) 
adg

>  <m_score__min__energy>  (11) 
-4.21

>  <m_primary>  (11) 
energy

$$$$
11:0
     RDKit          3D

 65 68  0  0  0  0  0  0  0  0999 V2000
   -7.5870   17.7350  -31.9820 C   0  0  0  0  0  0  0  0  0  0  0  0
   -8.9500   18.4230  -31.9930 C   0  0  0  0  0  0  0  0  0  0  0  0
   -8.9920   19.4880  -33.0060 N   0  0  0  0  0  0  0  0  0  0  0  0
   -9.2160   20.7960  -32.3720 C   0  0  0  0  0  0  0  0  0  0  0  0
   -7.9380   21.2970  -31.6920 C   0  0  0  0  0  0  0  0  0  0  0  0
   -6.9200   21.6350  -32.6860 N   0  0  0  0  0  0  0  0  0  0  0  0
   -5.5320   21.3980  -32.4110 C   0  0  0  0  0  0  0  0  0  0  0  0
   -4.7910   22.3220  -31.6560 C   0  0  0  0  0  0  0  0  0  0  0  0
   -5.3620   23.5370  -31.2330 C   0  0  0  0  0  0  0  0  0  0  0  0
   -4.6310   24.4450  -30.4510 C   0  0  0  0  0  0  0  0  0  0  0  0
   -5.1810   25.6600  -30.0110 O   0  0  0  0  0  0  0  0  0  0  0  0
   -6.4690   25.7990  -29.4180 C   0  0  0  0  0  0  0  0  0  0  0  0
   -3.3150   24.1450  -30.0900 C   0  0  0  0  0  0  0  0  0  0  0  0
   -2.6160   25.0850  -29.3110 O   0  0  0  0  0  0  0  0  0  0  0  0
   -2.2670   24.9430  -27.9340 C   0  0  0  0  0  0  0  0  0  0  0  0
   -3.4530   24.4250  -27.1260 C   0  0  0  0  0  0  0  0  0  0  0  0
   -2.7340   22.9380  -30.5170 C   0  0  0  0  0  0  0  0  0  0  0  0
   -3.4600   22.0080  -31.2980 C   0  0  0  0  0  0  0  0  0  0  0  0
   -2.9000   20.8110  -31.6980 N   0  0  0  0  0  0  0  0  0  0  0  0
   -1.7980   20.2470  -30.8880 C   0  0  0  0  0  0  0  0  0  0  0  0
   -3.5120   20.0550  -32.6830 C   0  0  0  0  0  0  0  0  0  0  0  0
   -4.8920   20.2640  -32.9420 C   0  0  0  0  0  0  0  0  0  0  0  0
   -5.6100   19.3310  -33.7080 C   0  0  0  0  0  0  0  0  0  0  0  0
   -4.9740   18.2330  -34.2700 C   0  0  0  0  0  0  0  0  0  0  0  0
   -3.5830   18.0950  -34.1850 C   0  0  0  0  0  0  0  0  0  0  0  0
   -2.9330   17.0470  -34.8760 C   0  0  0  0  0  0  0  0  0  0  0  0
   -3.7050   16.0780  -35.5420 O   0  0  0  0  0  0  0  0  0  0  0  0
   -4.1310   14.8460  -34.9670 C   0  0  0  0  0  0  0  0  0  0  0  0
   -1.5290   17.0060  -34.8960 C   0  0  0  0  0  0  0  0  0  0  0  0
   -0.7870   18.0090  -34.2820 C   0  0  0  0  0  0  0  0  0  0  0  0
   -1.4260   19.0310  -33.5850 C   0  0  0  0  0  0  0  0  0  0  0  0
   -2.8310   19.0490  -33.4430 C   0  0  0  0  0  0  0  0  0  0  0  0
   -7.2664   17.5731  -30.9423 H   0  0  0  0  0  0  0  0  0  0  0  0
   -7.6611   16.7663  -32.4979 H   0  0  0  0  0  0  0  0  0  0  0  0
   -6.8516   18.3699  -32.4979 H   0  0  0  0  0  0  0  0  0  0  0  0
   -9.7273   17.6787  -32.2205 H   0  0  0  0  0  0  0  0  0  0  0  0
   -9.1253   18.8715  -31.0040 H   0  0  0  0  0  0  0  0  0  0  0  0
   -9.7720   19.2940  -33.6780 H   0  0  0  0  0  0  0  0  0  0  0  0
   -8.0830   19.5060  -33.5260 H   0  0  0  0  0  0  0  0  0  0  0  0
   -9.5239   21.5210  -33.1399 H   0  0  0  0  0  0  0  0  0  0  0  0
  -10.0019   20.6884  -31.6099 H   0  0  0  0  0  0  0  0  0  0  0  0
   -8.1729   22.1921  -31.0974 H   0  0  0  0  0  0  0  0  0  0  0  0
   -7.5470   20.4989  -31.0438 H   0  0  0  0  0  0  0  0  0  0  0  0
   -7.1950   21.9020  -33.6580 H   0  0  0  0  0  0  0  0  0  0  0  0
   -6.3962   23.7785  -31.5194 H   0  0  0  0  0  0  0  0  0  0  0  0
   -6.3713   25.7885  -28.3224 H   0  0  0  0  0  0  0  0  0  0  0  0
   -6.9187   26.7509  -29.7369 H   0  0  0  0  0  0  0  0  0  0  0  0
   -7.1114   24.9650  -29.7369 H   0  0  0  0  0  0  0  0  0  0  0  0
   -1.4319   24.2326  -27.8449 H   0  0  0  0  0  0  0  0  0  0  0  0
   -1.9750   25.9279  -27.5405 H   0  0  0  0  0  0  0  0  0  0  0  0
   -3.2347   24.5203  -26.0521 H   0  0  0  0  0  0  0  0  0  0  0  0
   -4.3492   25.0137  -27.3717 H   0  0  0  0  0  0  0  0  0  0  0  0
   -3.6302   23.3675  -27.3717 H   0  0  0  0  0  0  0  0  0  0  0  0
   -1.6941   22.7122  -30.2383 H   0  0  0  0  0  0  0  0  0  0  0  0
   -2.0303   20.3659  -29.8194 H   0  0  0  0  0  0  0  0  0  0  0  0
   -1.6813   19.1783  -31.1212 H   0  0  0  0  0  0  0  0  0  0  0  0
   -0.8629   20.7774  -31.1212 H   0  0  0  0  0  0  0  0  0  0  0  0
   -6.6896   19.4723  -33.8644 H   0  0  0  0  0  0  0  0  0  0  0  0
   -5.5676   17.4645  -34.7867 H   0  0  0  0  0  0  0  0  0  0  0  0
   -4.1039   14.9245  -33.8701 H   0  0  0  0  0  0  0  0  0  0  0  0
   -5.1579   14.6247  -35.2935 H   0  0  0  0  0  0  0  0  0  0  0  0
   -3.4602   14.0376  -35.2935 H   0  0  0  0  0  0  0  0  0  0  0  0
   -1.0135   16.1755  -35.4004 H   0  0  0  0  0  0  0  0  0  0  0  0
    0.3110   17.9949  -34.3473 H   0  0  0  0  0  0  0  0  0  0  0  0
   -0.8267   19.8376  -33.1376 H   0  0  0  0  0  0  0  0  0  0  0  0
  1  2  1  0
  2  3  1  0
  3  4  1  0
  4  5  1  0
  5  6  1  0
  6  7  1  0
  7  8  2  0
  8  9  1  0
  9 10  2  0
 10 11  1  0
 11 12  1  0
 10 13  1  0
 13 14  1  0
 14 15  1  0
 15 16  1  0
 13 17  2  0
 17 18  1  0
 18 19  2  0
 19 20  1  0
 19 21  1  0
 21 22  2  0
 22 23  1  0
 23 24  2  0
 24 25  1  0
 25 26  2  0
 26 27  1  0
 27 28  1  0
 26 29  1  0
 29 30  2  0
 30 31  1  0
 31 32  2  0
 22  7  1  0
 32 25  1  0
 18  8  1  0
 32 21  1  0
  1 33  1  0
  1 34  1  0
  1 35  1  0
  2 36  1  0
  2 37  1  0
  3 38  1  0
  3 39  1  0
  4 40  1  0
  4 41  1  0
  5 42  1  0
  5 43  1  0
  6 44  1  0
  9 45  1  0
 12 46  1  0
 12 47  1  0
 12 48  1  0
 15 49  1  0
 15 50  1  0
 16 51  1  0
 16 52  1  0
 16 53  1  0
 17 54  1  0
 20 55  1  0
 20 56  1  0
 20 57  1  0
 23 58  1  0
 24 59  1  0
 28 60  1  0
 28 61  1  0
 28 62  1  0
 29 63  1  0
 30 64  1  0
 31 65  1  0
M  CHG  2   3   1  19   1
M  END
>  <UniqueID>  (12) 
11

>  <SMILES>  (12) 
CC[NH2+]CCNc1c2cc(OC)c(OCC)cc2[n+](C)c2c1ccc1c(OC)cccc12

>  <Energy>  (12) 
101.73281622366905

>  <Genealogy>  (12) 
CC[NH2+]CCNc1c2cc(OC)c(OCC)cc2[n+](C)c2c1ccc1c(OC)cccc12 (protonated)
CC[NH2+]CCNc1c2cc(OC)c(OCC)cc2[n+](C)c2c1ccc1c(OC)cccc12 (3D coordinates assigned)
CC[NH2+]CCNc1c2cc(OC)c(OCC)cc2[n+](C)c2c1ccc1c(OC)cccc12 (optimized conformer: 101.73281622366905 kcal/mol)

>  <smiles>  (12) 
CCNCCNc1c2cc(OC)c(OCC)cc2[n+](C)c2c1ccc1c(OC)cccc12

>  <score_type>  (12) 
oracle

>  <origin>  (12) 
adg

>  <m_score__min__energy>  (12) 
-7.9299999999999997

>  <m_primary>  (12) 
energy

$$$$
12:0
     RDKit          3D

 44 47  0  0  0  0  0  0  0  0999 V2000
   -0.6670   15.4200  -35.4980 C   0  0  0  0  0  0  0  0  0  0  0  0
   -1.5160   16.4570  -34.8320 C   0  0  0  0  0  0  0  0  0  0  0  0
   -2.7710   16.6770  -35.2890 N   0  0  0  0  0  0  0  0  0  0  0  0
   -3.5860   17.6110  -34.7370 C   0  0  0  0  0  0  0  0  0  0  0  0
   -3.1000   18.4140  -33.6810 C   0  0  0  0  0  0  0  0  0  0  0  0
   -1.8050   18.1360  -33.1790 C   0  0  0  0  0  0  0  0  0  0  0  0
   -1.2360   18.8840  -32.0000 C   0  0  0  0  0  0  0  0  0  0  0  0
   -1.0420   17.1780  -33.7810 N   0  0  0  0  0  0  0  0  0  0  0  0
   -3.9860   19.4740  -33.0790 C   0  0  0  0  0  0  0  0  0  0  0  0
   -5.2230   18.8470  -32.4210 C   0  0  0  0  0  0  0  0  0  0  0  0
   -6.3710   18.6480  -33.3400 N   0  0  0  0  0  0  0  0  0  0  0  0
   -7.7040   18.7320  -32.7010 C   0  0  0  0  0  0  0  0  0  0  0  0
   -7.9830   20.1230  -32.2180 C   0  0  0  0  0  0  0  0  0  0  0  0
   -9.2690   20.6010  -31.9790 C   0  0  0  0  0  0  0  0  0  0  0  0
   -9.1320   22.1730  -31.4050 S   0  0  0  0  0  0  0  0  0  0  0  0
   -7.4490   22.1780  -31.4720 C   0  0  0  0  0  0  0  0  0  0  0  0
   -6.5790   23.3050  -31.0920 C   0  0  0  0  0  0  0  0  0  0  0  0
   -5.2910   23.5080  -31.6440 C   0  0  0  0  0  0  0  0  0  0  0  0
   -4.6110   24.5950  -31.1980 N   0  0  0  0  0  0  0  0  0  0  0  0
   -5.6360   25.3090  -30.1040 S   0  0  0  0  0  0  0  0  0  0  0  0
   -6.9420   24.2750  -30.1590 C   0  0  0  0  0  0  0  0  0  0  0  0
   -6.9790   20.9960  -31.9290 N   0  0  0  0  0  0  0  0  0  0  0  0
   -6.1920   17.5770  -34.3480 C   0  0  0  0  0  0  0  0  0  0  0  0
   -4.9830   17.7400  -35.3120 C   0  0  0  0  0  0  0  0  0  0  0  0
   -0.1666   14.8088  -34.7324 H   0  0  0  0  0  0  0  0  0  0  0  0
   -1.3001   14.7755  -36.1255 H   0  0  0  0  0  0  0  0  0  0  0  0
    0.0898   15.9134  -36.1255 H   0  0  0  0  0  0  0  0  0  0  0  0
   -1.5886   18.4205  -31.0668 H   0  0  0  0  0  0  0  0  0  0  0  0
   -0.1373   18.8449  -32.0365 H   0  0  0  0  0  0  0  0  0  0  0  0
   -1.5670   19.9324  -32.0365 H   0  0  0  0  0  0  0  0  0  0  0  0
   -0.0740   16.9930  -33.4260 H   0  0  0  0  0  0  0  0  0  0  0  0
   -3.4170   20.0298  -32.3192 H   0  0  0  0  0  0  0  0  0  0  0  0
   -4.3194   20.1495  -33.8806 H   0  0  0  0  0  0  0  0  0  0  0  0
   -4.9358   17.8671  -32.0119 H   0  0  0  0  0  0  0  0  0  0  0  0
   -5.5589   19.5527  -31.6470 H   0  0  0  0  0  0  0  0  0  0  0  0
   -8.4726   18.4450  -33.4337 H   0  0  0  0  0  0  0  0  0  0  0  0
   -7.7212   18.0516  -31.8368 H   0  0  0  0  0  0  0  0  0  0  0  0
  -10.2065   20.0479  -32.1378 H   0  0  0  0  0  0  0  0  0  0  0  0
   -4.8653   22.8233  -32.3923 H   0  0  0  0  0  0  0  0  0  0  0  0
   -7.8795   24.3428  -29.5876 H   0  0  0  0  0  0  0  0  0  0  0  0
   -6.0665   16.6261  -33.8094 H   0  0  0  0  0  0  0  0  0  0  0  0
   -7.0868   17.6196  -34.9864 H   0  0  0  0  0  0  0  0  0  0  0  0
   -5.0852   16.9748  -36.0956 H   0  0  0  0  0  0  0  0  0  0  0  0
   -5.0431   18.7849  -35.6505 H   0  0  0  0  0  0  0  0  0  0  0  0
  1  2  1  0
  2  3  2  0
  3  4  1  0
  4  5  2  0
  5  6  1  0
  6  7  1  0
  6  8  2  0
  5  9  1  0
  9 10  1  0
 10 11  1  0
 11 12  1  0
 12 13  1  0
 13 14  2  0
 14 15  1  0
 15 16  1  0
 16 17  1  0
 17 18  1  0
 18 19  2  0
 19 20  1  0
 20 21  1  0
 16 22  2  0
 11 23  1  0
 23 24  1  0
  8  2  1  0
 22 13  1  0
 24  4  1  0
 21 17  2  0
  1 25  1  0
  1 26  1  0
  1 27  1  0
  7 28  1  0
  7 29  1  0
  7 30  1  0
  8 31  1  0
  9 32  1  0
  9 33  1  0
 10 34  1  0
 10 35  1  0
 12 36  1  0
 12 37  1  0
 14 38  1  0
 18 39  1  0
 21 40  1  0
 23 41  1  0
 23 42  1  0
 24 43  1  0
 24 44  1  0
M  CHG  1   8   1
M  END
>  <UniqueID>  (13) 
12

>  <SMILES>  (13) 
Cc1nc2c(c(C)[nH+]1)CCN(Cc1csc(-c3cnsc3)n1)CC2

>  <Energy>  (13) 
125.14074378263655

>  <Genealogy>  (13) 
Cc1nc2c(c(C)[nH+]1)CCN(Cc1csc(-c3cnsc3)n1)CC2 (protonated)
Cc1nc2c(c(C)[nH+]1)CCN(Cc1csc(-c3cnsc3)n1)CC2 (3D coordinates assigned)
Cc1nc2c(c(C)[nH+]1)CCN(Cc1csc(-c3cnsc3)n1)CC2 (nonaromatic ring conformer: 125.14074378263655 kcal/mol)

>  <smiles>  (13) 
Cc1nc(C)c2c(n1)CCN(Cc1csc(-c3cnsc3)n1)CC2

>  <score_type>  (13) 
oracle

>  <origin>  (13) 
adg

>  <m_score__min__energy>  (13) 
-7.0499999999999998

>  <m_primary>  (13) 
energy

$$$$
13:0
     RDKit          3D

 20 20  0  0  0  0  0  0  0  0999 V2000
   -3.8840   25.2750  -30.8250 O   0  0  0  0  0  0  0  0  0  0  0  0
   -5.0950   24.9860  -30.7300 N   0  0  0  0  0  0  0  0  0  0  0  0
   -5.9470   25.8870  -30.1340 O   0  0  0  0  0  0  0  0  0  0  0  0
   -5.5920   23.7330  -31.2350 C   0  0  0  0  0  0  0  0  0  0  0  0
   -6.9720   23.4570  -31.2400 C   0  0  0  0  0  0  0  0  0  0  0  0
   -7.4500   22.2390  -31.7320 C   0  0  0  0  0  0  0  0  0  0  0  0
   -6.5580   21.2770  -32.2220 C   0  0  0  0  0  0  0  0  0  0  0  0
   -7.1710   19.7520  -32.8580 S   0  0  0  0  0  0  0  0  0  0  0  0
   -6.5050   19.4380  -34.1690 O   0  0  0  0  0  0  0  0  0  0  0  0
   -6.8620   18.6470  -31.8870 O   0  0  0  0  0  0  0  0  0  0  0  0
   -8.8860   19.8520  -33.0890 N   0  0  0  0  0  0  0  0  0  0  0  0
   -9.4710   18.8750  -32.3430 O   0  0  0  0  0  0  0  0  0  0  0  0
   -5.1840   21.5470  -32.2270 C   0  0  0  0  0  0  0  0  0  0  0  0
   -4.7040   22.7650  -31.7360 C   0  0  0  0  0  0  0  0  0  0  0  0
   -7.6798   24.2053  -30.8539 H   0  0  0  0  0  0  0  0  0  0  0  0
   -8.5310   22.0354  -31.7343 H   0  0  0  0  0  0  0  0  0  0  0  0
   -9.0910   19.6890  -34.1030 H   0  0  0  0  0  0  0  0  0  0  0  0
   -8.7750   18.5190  -31.7300 H   0  0  0  0  0  0  0  0  0  0  0  0
   -4.4798   20.7982  -32.6186 H   0  0  0  0  0  0  0  0  0  0  0  0
   -3.6228   22.9675  -31.7418 H   0  0  0  0  0  0  0  0  0  0  0  0
  1  2  2  0
  2  3  1  0
  2  4  1  0
  4  5  2  0
  5  6  1  0
  6  7  2  0
  7  8  1  0
  8  9  2  0
  8 10  2  0
  8 11  1  0
 11 12  1  0
  7 13  1  0
 13 14  2  0
 14  4  1  0
  5 15  1  0
  6 16  1  0
 11 17  1  0
 12 18  1  0
 13 19  1  0
 14 20  1  0
M  CHG  2   2   1   3  -1
M  END
>  <UniqueID>  (14) 
13

>  <SMILES>  (14) 
O=[N+]([O-])c1ccc(S(=O)(=O)NO)cc1

>  <Energy>  (14) 
19.751174930691477

>  <Genealogy>  (14) 
O=[N+]([O-])c1ccc(S(=O)(=O)NO)cc1 (3D coordinates assigned)
O=[N+]([O-])c1ccc(S(=O)(=O)NO)cc1 (optimized conformer: 19.751174930691477 kcal/mol)

>  <smiles>  (14) 
O=[N+]([O-])c1ccc(S(=O)(=O)NO)cc1

>  <score_type>  (14) 
oracle

>  <origin>  (14) 
adg

>  <m_score__min__energy>  (14) 
-6.75

>  <m_primary>  (14) 
energy

$$$$
14:0
     RDKit          3D

 32 34  0  0  0  0  0  0  0  0999 V2000
   -6.2110   17.3290  -32.5480 C   0  0  0  0  0  0  0  0  0  0  0  0
   -6.1760   18.3150  -33.7110 C   0  0  0  0  0  0  0  0  0  0  0  0
   -5.6340   19.6070  -33.2740 N   0  0  0  0  0  0  0  0  0  0  0  0
   -4.3310   19.9770  -33.3270 C   0  0  0  0  0  0  0  0  0  0  0  0
   -3.2320   19.2450  -33.7910 C   0  0  0  0  0  0  0  0  0  0  0  0
   -1.9640   19.8490  -33.7330 C   0  0  0  0  0  0  0  0  0  0  0  0
   -1.8150   21.1520  -33.2150 C   0  0  0  0  0  0  0  0  0  0  0  0
   -2.9310   21.8640  -32.7440 C   0  0  0  0  0  0  0  0  0  0  0  0
   -4.1830   21.2410  -32.8140 C   0  0  0  0  0  0  0  0  0  0  0  0
   -5.3910   21.6870  -32.4140 N   0  0  0  0  0  0  0  0  0  0  0  0
   -5.7620   22.8620  -31.8360 C   0  0  0  0  0  0  0  0  0  0  0  0
   -4.9240   23.7730  -31.6030 O   0  0  0  0  0  0  0  0  0  0  0  0
   -7.1040   23.0490  -31.4970 C   0  0  0  0  0  0  0  0  0  0  0  0
   -8.0440   22.0300  -31.7450 C   0  0  0  0  0  0  0  0  0  0  0  0
   -9.4830   22.2520  -31.3530 C   0  0  0  0  0  0  0  0  0  0  0  0
   -7.6280   20.8130  -32.3440 C   0  0  0  0  0  0  0  0  0  0  0  0
   -8.5950   19.7610  -32.5550 C   0  0  0  0  0  0  0  0  0  0  0  0
   -9.3810   18.9250  -32.7140 N   0  0  0  0  0  0  0  0  0  0  0  0
   -6.2600   20.6770  -32.6870 C   0  0  0  0  0  0  0  0  0  0  0  0
   -6.1914   17.8823  -31.5975 H   0  0  0  0  0  0  0  0  0  0  0  0
   -7.1310   16.7286  -32.6038 H   0  0  0  0  0  0  0  0  0  0  0  0
   -5.3359   16.6649  -32.6038 H   0  0  0  0  0  0  0  0  0  0  0  0
   -5.5406   17.9081  -34.5114 H   0  0  0  0  0  0  0  0  0  0  0  0
   -7.2012   18.4660  -34.0801 H   0  0  0  0  0  0  0  0  0  0  0  0
   -3.3568   18.2272  -34.1892 H   0  0  0  0  0  0  0  0  0  0  0  0
   -1.0813   19.3010  -34.0944 H   0  0  0  0  0  0  0  0  0  0  0  0
   -0.8176   21.6145  -33.1794 H   0  0  0  0  0  0  0  0  0  0  0  0
   -2.8245   22.8788  -32.3332 H   0  0  0  0  0  0  0  0  0  0  0  0
   -7.4273   23.9938  -31.0355 H   0  0  0  0  0  0  0  0  0  0  0  0
   -9.5665   22.2649  -30.2562 H   0  0  0  0  0  0  0  0  0  0  0  0
   -9.8292   23.2142  -31.7584 H   0  0  0  0  0  0  0  0  0  0  0  0
  -10.1031   21.4389  -31.7584 H   0  0  0  0  0  0  0  0  0  0  0  0
  1  2  1  0
  2  3  1  0
  3  4  1  0
  4  5  2  0
  5  6  1  0
  6  7  2  0
  7  8  1  0
  8  9  2  0
  9 10  1  0
 10 11  1  0
 11 12  2  0
 11 13  1  0
 13 14  2  0
 14 15  1  0
 14 16  1  0
 16 17  1  0
 17 18  3  0
 16 19  2  0
 19  3  1  0
  9  4  1  0
 19 10  1  0
  1 20  1  0
  1 21  1  0
  1 22  1  0
  2 23  1  0
  2 24  1  0
  5 25  1  0
  6 26  1  0
  7 27  1  0
  8 28  1  0
 13 29  1  0
 15 30  1  0
 15 31  1  0
 15 32  1  0
M  END
>  <UniqueID>  (15) 
14

>  <SMILES>  (15) 
CCn1c2ccccc2n2c(=O)cc(C)c(C#N)c12

>  <Energy>  (15) 
83.12931034582742

>  <Genealogy>  (15) 
CCn1c2ccccc2n2c(=O)cc(C)c(C#N)c12 (3D coordinates assigned)
CCn1c2ccccc2n2c(=O)cc(C)c(C#N)c12 (optimized conformer: 83.12931034582742 kcal/mol)

>  <smiles>  (15) 
CCn1c2ccccc2n2c(=O)cc(C)c(C#N)c12

>  <score_type>  (15) 
oracle

>  <origin>  (15) 
adg

>  <m_score__min__energy>  (15) 
-7.2999999999999998

>  <m_primary>  (15) 
energy

$$$$
15:0
     RDKit          3D

 53 57  0  0  0  0  0  0  0  0999 V2000
    0.6260   22.7880  -35.7440 C   0  0  0  0  0  0  0  0  0  0  0  0
    0.6330   21.7550  -34.6980 N   0  0  0  0  0  0  0  0  0  0  0  0
   -0.7310   21.5590  -34.1580 C   0  0  0  0  0  0  0  0  0  0  0  0
   -0.8520   20.2040  -33.4500 C   0  0  0  0  0  0  0  0  0  0  0  0
   -0.6400   19.0700  -34.3870 N   0  0  0  0  0  0  0  0  0  0  0  0
   -0.1460   17.8650  -33.6840 C   0  0  0  0  0  0  0  0  0  0  0  0
   -1.1620   17.3640  -32.6470 C   0  0  0  0  0  0  0  0  0  0  0  0
   -2.1330   16.3490  -33.2670 C   0  0  0  0  0  0  0  0  0  0  0  0
   -2.8830   16.9550  -34.3760 N   0  0  0  0  0  0  0  0  0  0  0  0
   -4.1930   17.3570  -33.9240 C   0  0  0  0  0  0  0  0  0  0  0  0
   -5.2320   16.4120  -33.6370 C   0  0  0  0  0  0  0  0  0  0  0  0
   -4.9710   14.5280  -33.8740 Br  0  0  0  0  0  0  0  0  0  0  0  0
   -6.4980   16.8490  -33.1460 C   0  0  0  0  0  0  0  0  0  0  0  0
   -6.7300   18.2220  -32.9300 C   0  0  0  0  0  0  0  0  0  0  0  0
   -5.6940   19.0720  -33.2180 C   0  0  0  0  0  0  0  0  0  0  0  0
   -5.6680   20.4060  -33.0650 C   0  0  0  0  0  0  0  0  0  0  0  0
   -4.4710   20.8260  -33.4330 O   0  0  0  0  0  0  0  0  0  0  0  0
   -3.7210   19.8140  -33.8160 N   0  0  0  0  0  0  0  0  0  0  0  0
   -4.4880   18.7080  -33.6820 C   0  0  0  0  0  0  0  0  0  0  0  0
   -6.8450   21.1240  -32.5520 C   0  0  0  0  0  0  0  0  0  0  0  0
   -6.8530   22.5130  -32.3810 C   0  0  0  0  0  0  0  0  0  0  0  0
   -7.9980   23.1420  -31.8850 C   0  0  0  0  0  0  0  0  0  0  0  0
   -9.1310   22.3910  -31.5560 C   0  0  0  0  0  0  0  0  0  0  0  0
   -9.1340   21.0020  -31.7210 C   0  0  0  0  0  0  0  0  0  0  0  0
   -7.9970   20.3480  -32.2200 C   0  0  0  0  0  0  0  0  0  0  0  0
   -7.9700   18.8510  -32.4050 C   0  0  0  0  0  0  0  0  0  0  0  0
   -8.9730   18.1440  -32.1210 O   0  0  0  0  0  0  0  0  0  0  0  0
    0.2310   19.4220  -35.5390 C   0  0  0  0  0  0  0  0  0  0  0  0
    1.2650   20.5010  -35.1790 C   0  0  0  0  0  0  0  0  0  0  0  0
    0.6193   23.7835  -35.2761 H   0  0  0  0  0  0  0  0  0  0  0  0
    1.5249   22.6828  -36.3693 H   0  0  0  0  0  0  0  0  0  0  0  0
   -0.2714   22.6706  -36.3693 H   0  0  0  0  0  0  0  0  0  0  0  0
   -0.9521   22.3616  -33.4390 H   0  0  0  0  0  0  0  0  0  0  0  0
   -1.4457   21.5829  -34.9938 H   0  0  0  0  0  0  0  0  0  0  0  0
   -0.0978   20.1513  -32.6510 H   0  0  0  0  0  0  0  0  0  0  0  0
   -1.8694   20.1226  -33.0398 H   0  0  0  0  0  0  0  0  0  0  0  0
    0.0342   17.0692  -34.4217 H   0  0  0  0  0  0  0  0  0  0  0  0
    0.7836   18.1283  -33.1581 H   0  0  0  0  0  0  0  0  0  0  0  0
   -0.6215   16.8835  -31.8181 H   0  0  0  0  0  0  0  0  0  0  0  0
   -1.7426   18.2248  -32.2839 H   0  0  0  0  0  0  0  0  0  0  0  0
   -1.5620   15.4883  -33.6455 H   0  0  0  0  0  0  0  0  0  0  0  0
   -2.8459   16.0254  -32.4943 H   0  0  0  0  0  0  0  0  0  0  0  0
   -2.3650   17.7920  -34.7340 H   0  0  0  0  0  0  0  0  0  0  0  0
   -2.9690   16.2770  -35.1680 H   0  0  0  0  0  0  0  0  0  0  0  0
   -7.2911   16.1161  -32.9365 H   0  0  0  0  0  0  0  0  0  0  0  0
   -5.9626   23.1065  -32.6357 H   0  0  0  0  0  0  0  0  0  0  0  0
   -8.0082   24.2340  -31.7526 H   0  0  0  0  0  0  0  0  0  0  0  0
  -10.0263   22.8963  -31.1646 H   0  0  0  0  0  0  0  0  0  0  0  0
  -10.0302   20.4206  -31.4589 H   0  0  0  0  0  0  0  0  0  0  0  0
    0.7633   18.5179  -35.8695 H   0  0  0  0  0  0  0  0  0  0  0  0
   -0.4112   19.8236  -36.3367 H   0  0  0  0  0  0  0  0  0  0  0  0
    1.9215   20.1105  -34.3875 H   0  0  0  0  0  0  0  0  0  0  0  0
    1.8306   20.7401  -36.0917 H   0  0  0  0  0  0  0  0  0  0  0  0
  1  2  1  0
  2  3  1  0
  3  4  1  0
  4  5  1  0
  5  6  1  0
  6  7  1  0
  7  8  1  0
  8  9  1  0
  9 10  1  0
 10 11  2  0
 11 12  1  0
 11 13  1  0
 13 14  2  0
 14 15  1  0
 15 16  2  0
 16 17  1  0
 17 18  1  0
 18 19  2  0
 16 20  1  0
 20 21  2  0
 21 22  1  0
 22 23  2  0
 23 24  1  0
 24 25  2  0
 25 26  1  0
 26 27  2  0
  5 28  1  0
 28 29  1  0
 29  2  1  0
 19 10  1  0
 25 20  1  0
 26 14  1  0
 19 15  1  0
  1 30  1  0
  1 31  1  0
  1 32  1  0
  3 33  1  0
  3 34  1  0
  4 35  1  0
  4 36  1  0
  6 37  1  0
  6 38  1  0
  7 39  1  0
  7 40  1  0
  8 41  1  0
  8 42  1  0
  9 43  1  0
  9 44  1  0
 13 45  1  0
 21 46  1  0
 22 47  1  0
 23 48  1  0
 24 49  1  0
 28 50  1  0
 28 51  1  0
 29 52  1  0
 29 53  1  0
M  CHG  1   9   1
M  END
>  <UniqueID>  (16) 
15

>  <SMILES>  (16) 
CN1CCN(CCC[NH2+]c2c(Br)cc3c4c(onc24)-c2ccccc2C3=O)CC1

>  <Energy>  (16) 
121.29117996554689

>  <Genealogy>  (16) 
CN1CCN(CCC[NH2+]c2c(Br)cc3c4c(onc24)-c2ccccc2C3=O)CC1 (protonated)
CN1CCN(CCC[NH2+]c2c(Br)cc3c4c(onc24)-c2ccccc2C3=O)CC1 (3D coordinates assigned)
CN1CCN(CCC[NH2+]c2c(Br)cc3c4c(onc24)-c2ccccc2C3=O)CC1 (nonaromatic ring conformer: 121.29117996554689 kcal/mol)

>  <smiles>  (16) 
CN1CCN(CCCNc2c(Br)cc3c4c(onc24)-c2ccccc2C3=O)CC1

>  <score_type>  (16) 
oracle

>  <origin>  (16) 
adg

>  <m_score__min__energy>  (16) 
-9.3000000000000007

>  <m_primary>  (16) 
energy

$$$$
16:0
     RDKit          3D

 43 45  0  0  0  0  0  0  0  0999 V2000
    0.5190   22.1310  -35.7100 C   0  0  0  0  0  0  0  0  0  0  0  0
   -0.0620   20.8720  -35.0620 C   0  0  0  0  0  0  0  0  0  0  0  0
   -1.1410   21.1720  -34.1090 N   0  0  0  0  0  0  0  0  0  0  0  0
   -1.5600   19.9850  -33.3530 C   0  0  0  0  0  0  0  0  0  0  0  0
   -2.8360   19.4070  -33.9640 C   0  0  0  0  0  0  0  0  0  0  0  0
   -4.0140   20.0220  -33.3520 N   0  0  0  0  0  0  0  0  0  0  0  0
   -4.1850   21.3450  -33.1260 C   0  0  0  0  0  0  0  0  0  0  0  0
   -5.4600   21.5870  -32.6240 C   0  0  0  0  0  0  0  0  0  0  0  0
   -6.0610   22.9330  -32.3520 C   0  0  0  0  0  0  0  0  0  0  0  0
   -5.4570   23.5220  -31.1170 C   0  0  0  0  0  0  0  0  0  0  0  0
   -4.2900   24.0860  -31.0960 N   0  0  0  0  0  0  0  0  0  0  0  0
   -4.1250   24.5770  -29.7650 C   0  0  0  0  0  0  0  0  0  0  0  0
   -3.0900   25.1760  -29.3750 O   0  0  0  0  0  0  0  0  0  0  0  0
   -5.2430   24.3240  -28.9260 N   0  0  0  0  0  0  0  0  0  0  0  0
   -6.1040   23.6410  -29.8160 C   0  0  0  0  0  0  0  0  0  0  0  0
   -7.2440   23.2060  -29.5060 O   0  0  0  0  0  0  0  0  0  0  0  0
   -6.0850   20.3550  -32.5740 C   0  0  0  0  0  0  0  0  0  0  0  0
   -7.3830   20.0010  -32.2050 C   0  0  0  0  0  0  0  0  0  0  0  0
   -7.7500   18.6420  -32.2890 C   0  0  0  0  0  0  0  0  0  0  0  0
   -9.1460   18.2200  -31.9400 C   0  0  0  0  0  0  0  0  0  0  0  0
   -6.8210   17.6890  -32.7720 C   0  0  0  0  0  0  0  0  0  0  0  0
   -5.5220   18.0770  -33.1420 C   0  0  0  0  0  0  0  0  0  0  0  0
   -5.1810   19.4270  -33.0250 C   0  0  0  0  0  0  0  0  0  0  0  0
    0.8422   22.8313  -34.9257 H   0  0  0  0  0  0  0  0  0  0  0  0
    1.3817   21.8569  -36.3350 H   0  0  0  0  0  0  0  0  0  0  0  0
   -0.2493   22.6096  -36.3350 H   0  0  0  0  0  0  0  0  0  0  0  0
   -0.4621   20.2212  -35.8534 H   0  0  0  0  0  0  0  0  0  0  0  0
    0.7484   20.3810  -34.5034 H   0  0  0  0  0  0  0  0  0  0  0  0
   -1.9660   21.5550  -34.6290 H   0  0  0  0  0  0  0  0  0  0  0  0
   -0.7623   19.2284  -33.3893 H   0  0  0  0  0  0  0  0  0  0  0  0
   -1.7536   20.2691  -32.3081 H   0  0  0  0  0  0  0  0  0  0  0  0
   -2.8431   19.6060  -35.0458 H   0  0  0  0  0  0  0  0  0  0  0  0
   -2.8618   18.3226  -33.7809 H   0  0  0  0  0  0  0  0  0  0  0  0
   -3.4252   22.1183  -33.3124 H   0  0  0  0  0  0  0  0  0  0  0  0
   -5.8661   23.5984  -33.2060 H   0  0  0  0  0  0  0  0  0  0  0  0
   -7.1456   22.8217  -32.2061 H   0  0  0  0  0  0  0  0  0  0  0  0
   -5.3870   24.5700  -27.9210 H   0  0  0  0  0  0  0  0  0  0  0  0
   -8.0996   20.7602  -31.8585 H   0  0  0  0  0  0  0  0  0  0  0  0
   -9.2563   18.1867  -30.8461 H   0  0  0  0  0  0  0  0  0  0  0  0
   -9.8628   18.9416  -32.3590 H   0  0  0  0  0  0  0  0  0  0  0  0
   -9.3430   17.2222  -32.3590 H   0  0  0  0  0  0  0  0  0  0  0  0
   -7.1192   16.6337  -32.8586 H   0  0  0  0  0  0  0  0  0  0  0  0
   -4.7949   17.3395  -33.5129 H   0  0  0  0  0  0  0  0  0  0  0  0
  1  2  1  0
  2  3  1  0
  3  4  1  0
  4  5  1  0
  5  6  1  0
  6  7  1  0
  7  8  2  0
  8  9  1  0
  9 10  1  0
 10 11  2  0
 11 12  1  0
 12 13  2  0
 12 14  1  0
 14 15  1  0
 15 16  2  0
  8 17  1  0
 17 18  2  0
 18 19  1  0
 19 20  1  0
 19 21  2  0
 21 22  1  0
 22 23  2  0
 23  6  1  0
 15 10  1  0
 23 17  1  0
  1 24  1  0
  1 25  1  0
  1 26  1  0
  2 27  1  0
  2 28  1  0
  3 29  1  0
  4 30  1  0
  4 31  1  0
  5 32  1  0
  5 33  1  0
  7 34  1  0
  9 35  1  0
  9 36  1  0
 14 37  1  0
 18 38  1  0
 20 39  1  0
 20 40  1  0
 20 41  1  0
 21 42  1  0
 22 43  1  0
M  END
>  <UniqueID>  (17) 
16

>  <SMILES>  (17) 
CCNCCn1cc(CC2=NC(=O)NC2=O)c2cc(C)ccc21

>  <Energy>  (17) 
97.71293220402494

>  <Genealogy>  (17) 
CCNCCn1cc(CC2=NC(=O)NC2=O)c2cc(C)ccc21 (3D coordinates assigned)
CCNCCn1cc(CC2=NC(=O)NC2=O)c2cc(C)ccc21 (nonaromatic ring conformer: 97.71293220402494 kcal/mol)

>  <smiles>  (17) 
CCNCCn1cc(CC2=NC(=O)NC2=O)c2cc(C)ccc21

>  <score_type>  (17) 
oracle

>  <origin>  (17) 
adg

>  <m_score__min__energy>  (17) 
-8.7799999999999994

>  <m_primary>  (17) 
energy

$$$$
17:0
     RDKit          3D

 45 47  0  0  0  0  0  0  0  0999 V2000
   -0.4710   27.3610  -27.4830 C   0  0  0  0  0  0  0  0  0  0  0  0
   -1.2660   26.1130  -27.6740 C   0  0  0  0  0  0  0  0  0  0  0  0
   -1.7330   25.2950  -26.6650 C   0  0  0  0  0  0  0  0  0  0  0  0
   -2.4250   24.2820  -27.2960 C   0  0  0  0  0  0  0  0  0  0  0  0
   -2.3370   24.5520  -28.6510 C   0  0  0  0  0  0  0  0  0  0  0  0
   -2.9280   23.7440  -29.7310 C   0  0  0  0  0  0  0  0  0  0  0  0
   -4.2870   23.8580  -30.0450 C   0  0  0  0  0  0  0  0  0  0  0  0
   -4.8370   23.0920  -31.0840 C   0  0  0  0  0  0  0  0  0  0  0  0
   -6.2670   23.2780  -31.4130 C   0  0  0  0  0  0  0  0  0  0  0  0
   -6.6720   24.4020  -31.8150 O   0  0  0  0  0  0  0  0  0  0  0  0
   -7.1930   22.1940  -31.2500 N   0  0  0  0  0  0  0  0  0  0  0  0
   -8.5860   22.2750  -31.6870 C   0  0  0  0  0  0  0  0  0  0  0  0
   -9.1080   20.8990  -32.1230 C   0  0  0  0  0  0  0  0  0  0  0  0
   -8.0860   19.8500  -31.9150 N   0  0  0  0  0  0  0  0  0  0  0  0
   -7.2730   19.6810  -33.1300 C   0  0  0  0  0  0  0  0  0  0  0  0
   -8.7100   18.5640  -31.5580 C   0  0  0  0  0  0  0  0  0  0  0  0
   -4.0070   22.1860  -31.7880 C   0  0  0  0  0  0  0  0  0  0  0  0
   -4.4940   21.3320  -32.8010 C   0  0  0  0  0  0  0  0  0  0  0  0
   -3.6290   20.4570  -33.4660 C   0  0  0  0  0  0  0  0  0  0  0  0
   -2.2760   20.4120  -33.1270 C   0  0  0  0  0  0  0  0  0  0  0  0
   -1.7800   21.2340  -32.1130 C   0  0  0  0  0  0  0  0  0  0  0  0
   -2.6360   22.1130  -31.4380 C   0  0  0  0  0  0  0  0  0  0  0  0
   -2.1440   22.8850  -30.4350 N   0  0  0  0  0  0  0  0  0  0  0  0
   -1.6410   25.6500  -28.8440 O   0  0  0  0  0  0  0  0  0  0  0  0
   -0.3470   27.5557  -26.4075 H   0  0  0  0  0  0  0  0  0  0  0  0
    0.5175   27.2412  -27.9503 H   0  0  0  0  0  0  0  0  0  0  0  0
   -0.9975   28.2062  -27.9503 H   0  0  0  0  0  0  0  0  0  0  0  0
   -1.5843   25.4240  -25.5828 H   0  0  0  0  0  0  0  0  0  0  0  0
   -2.9404   23.4345  -26.8205 H   0  0  0  0  0  0  0  0  0  0  0  0
   -4.9255   24.5497  -29.4760 H   0  0  0  0  0  0  0  0  0  0  0  0
   -6.8590   21.2960  -30.8320 H   0  0  0  0  0  0  0  0  0  0  0  0
   -9.2027   22.6464  -30.8553 H   0  0  0  0  0  0  0  0  0  0  0  0
   -8.6439   22.9595  -32.5461 H   0  0  0  0  0  0  0  0  0  0  0  0
  -10.0025   20.6508  -31.5328 H   0  0  0  0  0  0  0  0  0  0  0  0
   -9.3509   20.9417  -33.1950 H   0  0  0  0  0  0  0  0  0  0  0  0
   -6.2321   19.4646  -32.8475 H   0  0  0  0  0  0  0  0  0  0  0  0
   -7.6724   18.8467  -33.7253 H   0  0  0  0  0  0  0  0  0  0  0  0
   -7.3068   20.6054  -33.7253 H   0  0  0  0  0  0  0  0  0  0  0  0
   -8.7556   18.4700  -30.4630 H   0  0  0  0  0  0  0  0  0  0  0  0
   -9.7282   18.5230  -31.9722 H   0  0  0  0  0  0  0  0  0  0  0  0
   -8.1121   17.7388  -31.9722 H   0  0  0  0  0  0  0  0  0  0  0  0
   -5.5606   21.3549  -33.0691 H   0  0  0  0  0  0  0  0  0  0  0  0
   -4.0168   19.8015  -34.2596 H   0  0  0  0  0  0  0  0  0  0  0  0
   -1.5990   19.7278  -33.6595 H   0  0  0  0  0  0  0  0  0  0  0  0
   -0.7143   21.1910  -31.8438 H   0  0  0  0  0  0  0  0  0  0  0  0
  1  2  1  0
  2  3  2  0
  3  4  1  0
  4  5  2  0
  5  6  1  0
  6  7  2  0
  7  8  1  0
  8  9  1  0
  9 10  2  0
  9 11  1  0
 11 12  1  0
 12 13  1  0
 13 14  1  0
 14 15  1  0
 14 16  1  0
  8 17  2  0
 17 18  1  0
 18 19  2  0
 19 20  1  0
 20 21  2  0
 21 22  1  0
 22 23  2  0
  5 24  1  0
 24  2  1  0
 23  6  1  0
 22 17  1  0
  1 25  1  0
  1 26  1  0
  1 27  1  0
  3 28  1  0
  4 29  1  0
  7 30  1  0
 11 31  1  0
 12 32  1  0
 12 33  1  0
 13 34  1  0
 13 35  1  0
 15 36  1  0
 15 37  1  0
 15 38  1  0
 16 39  1  0
 16 40  1  0
 16 41  1  0
 18 42  1  0
 19 43  1  0
 20 44  1  0
 21 45  1  0
M  END
>  <UniqueID>  (18) 
17

>  <SMILES>  (18) 
Cc1ccc(-c2cc(C(=O)NCCN(C)C)c3ccccc3n2)o1

>  <Energy>  (18) 
77.24198779430547

>  <Genealogy>  (18) 
Cc1ccc(-c2cc(C(=O)NCCN(C)C)c3ccccc3n2)o1 (3D coordinates assigned)
Cc1ccc(-c2cc(C(=O)NCCN(C)C)c3ccccc3n2)o1 (optimized conformer: 77.24198779430547 kcal/mol)

>  <smiles>  (18) 
Cc1ccc(-c2cc(C(=O)NCCN(C)C)c3ccccc3n2)o1

>  <score_type>  (18) 
oracle

>  <origin>  (18) 
adg

>  <m_score__min__energy>  (18) 
-7.9299999999999997

>  <m_primary>  (18) 
energy

$$$$
18:0
     RDKit          3D

 50 53  0  0  0  0  0  0  0  0999 V2000
   -9.5080   21.5180  -31.9550 C   0  0  0  0  0  0  0  0  0  0  0  0
   -8.1330   21.9420  -31.5580 C   0  0  0  0  0  0  0  0  0  0  0  0
   -7.8680   22.8970  -30.6340 N   0  0  0  0  0  0  0  0  0  0  0  0
   -6.5500   23.0640  -30.5800 N   0  0  0  0  0  0  0  0  0  0  0  0
   -5.8880   24.0170  -29.6900 C   0  0  0  0  0  0  0  0  0  0  0  0
   -5.2580   25.1600  -30.4840 C   0  0  0  0  0  0  0  0  0  0  0  0
   -3.8530   24.8770  -30.7430 N   0  0  0  0  0  0  0  0  0  0  0  0
   -2.9410   24.4910  -29.7130 C   0  0  0  0  0  0  0  0  0  0  0  0
   -2.0690   25.3020  -29.2980 O   0  0  0  0  0  0  0  0  0  0  0  0
   -3.0020   23.1040  -29.1500 C   0  0  0  0  0  0  0  0  0  0  0  0
   -1.6940   22.7220  -28.4410 C   0  0  0  0  0  0  0  0  0  0  0  0
   -1.6510   23.1370  -26.9610 C   0  0  0  0  0  0  0  0  0  0  0  0
   -1.2340   24.5310  -26.8070 N   0  0  0  0  0  0  0  0  0  0  0  0
    0.0230   25.0980  -27.1810 C   0  0  0  0  0  0  0  0  0  0  0  0
    0.8930   24.5030  -27.8720 O   0  0  0  0  0  0  0  0  0  0  0  0
    0.1390   26.4510  -26.6460 C   0  0  0  0  0  0  0  0  0  0  0  0
    1.1660   27.3870  -26.7500 C   0  0  0  0  0  0  0  0  0  0  0  0
    0.9950   28.6270  -26.1100 C   0  0  0  0  0  0  0  0  0  0  0  0
   -0.1890   28.9060  -25.3910 C   0  0  0  0  0  0  0  0  0  0  0  0
   -1.2130   27.9490  -25.3050 C   0  0  0  0  0  0  0  0  0  0  0  0
   -1.0190   26.7250  -25.9460 C   0  0  0  0  0  0  0  0  0  0  0  0
   -1.8770   25.5490  -26.0330 C   0  0  0  0  0  0  0  0  0  0  0  0
   -3.0170   25.4340  -25.5120 O   0  0  0  0  0  0  0  0  0  0  0  0
   -5.9700   22.2220  -31.4620 C   0  0  0  0  0  0  0  0  0  0  0  0
   -4.6160   22.0480  -31.7530 C   0  0  0  0  0  0  0  0  0  0  0  0
   -4.2790   21.1040  -32.7440 C   0  0  0  0  0  0  0  0  0  0  0  0
   -5.2870   20.3740  -33.4140 C   0  0  0  0  0  0  0  0  0  0  0  0
   -6.6430   20.5740  -33.0970 C   0  0  0  0  0  0  0  0  0  0  0  0
   -6.9410   21.5070  -32.1050 C   0  0  0  0  0  0  0  0  0  0  0  0
  -10.1093   21.3326  -31.0528 H   0  0  0  0  0  0  0  0  0  0  0  0
   -9.9786   22.3128  -32.5524 H   0  0  0  0  0  0  0  0  0  0  0  0
   -9.4493   20.5962  -32.5524 H   0  0  0  0  0  0  0  0  0  0  0  0
   -6.6292   24.4306  -28.9903 H   0  0  0  0  0  0  0  0  0  0  0  0
   -5.0927   23.4907  -29.1418 H   0  0  0  0  0  0  0  0  0  0  0  0
   -5.7884   25.2733  -31.4410 H   0  0  0  0  0  0  0  0  0  0  0  0
   -5.3356   26.0888  -29.8997 H   0  0  0  0  0  0  0  0  0  0  0  0
   -3.8291   23.0486  -28.4269 H   0  0  0  0  0  0  0  0  0  0  0  0
   -3.1592   22.4021  -29.9823 H   0  0  0  0  0  0  0  0  0  0  0  0
   -1.5730   21.6302  -28.4995 H   0  0  0  0  0  0  0  0  0  0  0  0
   -0.8819   23.2614  -28.9506 H   0  0  0  0  0  0  0  0  0  0  0  0
   -2.6537   23.0137  -26.5259 H   0  0  0  0  0  0  0  0  0  0  0  0
   -0.9189   22.4987  -26.4446 H   0  0  0  0  0  0  0  0  0  0  0  0
    2.0824   27.1626  -27.3155 H   0  0  0  0  0  0  0  0  0  0  0  0
    1.7891   29.3859  -26.1694 H   0  0  0  0  0  0  0  0  0  0  0  0
   -0.3095   29.8803  -24.8948 H   0  0  0  0  0  0  0  0  0  0  0  0
   -2.1392   28.1578  -24.7496 H   0  0  0  0  0  0  0  0  0  0  0  0
   -3.8409   22.6260  -31.2285 H   0  0  0  0  0  0  0  0  0  0  0  0
   -3.2224   20.9339  -32.9982 H   0  0  0  0  0  0  0  0  0  0  0  0
   -5.0092   19.6443  -34.1888 H   0  0  0  0  0  0  0  0  0  0  0  0
   -7.4381   20.0153  -33.6124 H   0  0  0  0  0  0  0  0  0  0  0  0
  1  2  1  0
  2  3  2  0
  3  4  1  0
  4  5  1  0
  5  6  1  0
  6  7  1  0
  7  8  1  0
  8  9  2  0
  8 10  1  0
 10 11  1  0
 11 12  1  0
 12 13  1  0
 13 14  1  0
 14 15  2  0
 14 16  1  0
 16 17  2  0
 17 18  1  0
 18 19  2  0
 19 20  1  0
 20 21  2  0
 21 22  1  0
 22 23  2  0
  4 24  1  0
 24 25  2  0
 25 26  1  0
 26 27  2  0
 27 28  1  0
 28 29  2  0
 29  2  1  0
 22 13  1  0
 29 24  1  0
 21 16  1  0
  1 30  1  0
  1 31  1  0
  1 32  1  0
  5 33  1  0
  5 34  1  0
  6 35  1  0
  6 36  1  0
 10 37  1  0
 10 38  1  0
 11 39  1  0
 11 40  1  0
 12 41  1  0
 12 42  1  0
 17 43  1  0
 18 44  1  0
 19 45  1  0
 20 46  1  0
 25 47  1  0
 26 48  1  0
 27 49  1  0
 28 50  1  0
M  CHG  1   7  -1
M  END
>  <UniqueID>  (19) 
18

>  <SMILES>  (19) 
Cc1nn(CC[N-]C(=O)CCCN2C(=O)c3ccccc3C2=O)c2ccccc12

>  <Energy>  (19) 
113.03357902937121

>  <Genealogy>  (19) 
Cc1nn(CC[N-]C(=O)CCCN2C(=O)c3ccccc3C2=O)c2ccccc12 (protonated)
Cc1nn(CC[N-]C(=O)CCCN2C(=O)c3ccccc3C2=O)c2ccccc12 (3D coordinates assigned)
Cc1nn(CC[N-]C(=O)CCCN2C(=O)c3ccccc3C2=O)c2ccccc12 (nonaromatic ring conformer: 113.03357902937121 kcal/mol)

>  <smiles>  (19) 
Cc1nn(CCNC(=O)CCCN2C(=O)c3ccccc3C2=O)c2ccccc12

>  <score_type>  (19) 
oracle

>  <origin>  (19) 
adg

>  <m_score__min__energy>  (19) 
-11.59

>  <m_primary>  (19) 
energy

$$$$
19:0
     RDKit          3D

 44 45  0  0  0  0  0  0  0  0999 V2000
   -6.7960   23.1450  -29.8740 C   0  0  0  0  0  0  0  0  0  0  0  0
   -6.4690   23.7900  -31.2170 C   0  0  0  0  0  0  0  0  0  0  0  0
   -5.0240   24.1110  -31.2880 N   0  0  0  0  0  0  0  0  0  0  0  0
   -4.7190   25.3100  -30.4880 C   0  0  0  0  0  0  0  0  0  0  0  0
   -4.1870   22.9740  -30.8450 C   0  0  0  0  0  0  0  0  0  0  0  0
   -3.6080   22.2140  -32.0490 C   0  0  0  0  0  0  0  0  0  0  0  0
   -4.6260   22.0120  -33.0920 N   0  0  0  0  0  0  0  0  0  0  0  0
   -5.0320   20.6240  -33.1230 C   0  0  0  0  0  0  0  0  0  0  0  0
   -4.1260   19.6420  -33.5600 C   0  0  0  0  0  0  0  0  0  0  0  0
   -4.4960   18.2940  -33.6290 C   0  0  0  0  0  0  0  0  0  0  0  0
   -3.5400   17.3650  -34.0660 O   0  0  0  0  0  0  0  0  0  0  0  0
   -3.6020   16.6680  -35.3050 C   0  0  0  0  0  0  0  0  0  0  0  0
   -5.8000   17.9150  -33.2640 C   0  0  0  0  0  0  0  0  0  0  0  0
   -6.7230   18.8820  -32.8420 C   0  0  0  0  0  0  0  0  0  0  0  0
   -8.0310   18.5230  -32.4860 C   0  0  0  0  0  0  0  0  0  0  0  0
   -8.9360   19.5030  -32.0780 C   0  0  0  0  0  0  0  0  0  0  0  0
   -8.5290   20.8400  -32.0310 C   0  0  0  0  0  0  0  0  0  0  0  0
   -9.4800   21.9050  -31.5860 C   0  0  0  0  0  0  0  0  0  0  0  0
   -7.2540   21.1720  -32.3720 N   0  0  0  0  0  0  0  0  0  0  0  0
   -6.3440   20.2410  -32.7730 C   0  0  0  0  0  0  0  0  0  0  0  0
   -6.4617   23.8044  -29.0595 H   0  0  0  0  0  0  0  0  0  0  0  0
   -7.8821   22.9889  -29.7970 H   0  0  0  0  0  0  0  0  0  0  0  0
   -6.2800   22.1766  -29.7970 H   0  0  0  0  0  0  0  0  0  0  0  0
   -6.7274   23.0933  -32.0280 H   0  0  0  0  0  0  0  0  0  0  0  0
   -7.0501   24.7180  -31.3223 H   0  0  0  0  0  0  0  0  0  0  0  0
   -4.7819   25.0626  -29.4180 H   0  0  0  0  0  0  0  0  0  0  0  0
   -3.7033   25.6599  -30.7243 H   0  0  0  0  0  0  0  0  0  0  0  0
   -5.4441   26.1027  -30.7243 H   0  0  0  0  0  0  0  0  0  0  0  0
   -3.3596   23.3552  -30.2285 H   0  0  0  0  0  0  0  0  0  0  0  0
   -4.8145   22.2828  -30.2632 H   0  0  0  0  0  0  0  0  0  0  0  0
   -2.7728   22.7927  -32.4704 H   0  0  0  0  0  0  0  0  0  0  0  0
   -3.2627   21.2280  -31.7045 H   0  0  0  0  0  0  0  0  0  0  0  0
   -4.2470   22.2970  -34.0250 H   0  0  0  0  0  0  0  0  0  0  0  0
   -5.4600   22.6130  -32.8950 H   0  0  0  0  0  0  0  0  0  0  0  0
   -3.1080   19.9384  -33.8530 H   0  0  0  0  0  0  0  0  0  0  0  0
   -3.6980   15.5889  -35.1143 H   0  0  0  0  0  0  0  0  0  0  0  0
   -4.4726   17.0177  -35.8793 H   0  0  0  0  0  0  0  0  0  0  0  0
   -2.6834   16.8586  -35.8793 H   0  0  0  0  0  0  0  0  0  0  0  0
   -6.0966   16.8567  -33.3097 H   0  0  0  0  0  0  0  0  0  0  0  0
   -8.3432   17.4691  -32.5285 H   0  0  0  0  0  0  0  0  0  0  0  0
   -9.9623   19.2261  -31.7953 H   0  0  0  0  0  0  0  0  0  0  0  0
   -9.5076   21.9359  -30.4868 H   0  0  0  0  0  0  0  0  0  0  0  0
   -9.1460   22.8794  -31.9720 H   0  0  0  0  0  0  0  0  0  0  0  0
  -10.4859   21.6830  -31.9720 H   0  0  0  0  0  0  0  0  0  0  0  0
  1  2  1  0
  2  3  1  0
  3  4  1  0
  3  5  1  0
  5  6  1  0
  6  7  1  0
  7  8  1  0
  8  9  2  0
  9 10  1  0
 10 11  1  0
 11 12  1  0
 10 13  2  0
 13 14  1  0
 14 15  2  0
 15 16  1  0
 16 17  2  0
 17 18  1  0
 17 19  1  0
 19 20  2  0
 20  8  1  0
 20 14  1  0
  1 21  1  0
  1 22  1  0
  1 23  1  0
  2 24  1  0
  2 25  1  0
  4 26  1  0
  4 27  1  0
  4 28  1  0
  5 29  1  0
  5 30  1  0
  6 31  1  0
  6 32  1  0
  7 33  1  0
  7 34  1  0
  9 35  1  0
 12 36  1  0
 12 37  1  0
 12 38  1  0
 13 39  1  0
 15 40  1  0
 16 41  1  0
 18 42  1  0
 18 43  1  0
 18 44  1  0
M  CHG  1   7   1
M  END
>  <UniqueID>  (20) 
19

>  <SMILES>  (20) 
CCN(C)CC[NH2+]c1cc(OC)cc2ccc(C)nc12

>  <Energy>  (20) 
43.788466589170426

>  <Genealogy>  (20) 
CCN(C)CC[NH2+]c1cc(OC)cc2ccc(C)nc12 (protonated)
CCN(C)CC[NH2+]c1cc(OC)cc2ccc(C)nc12 (3D coordinates assigned)
CCN(C)CC[NH2+]c1cc(OC)cc2ccc(C)nc12 (optimized conformer: 43.788466589170426 kcal/mol)

>  <smiles>  (20) 
CCN(C)CCNc1cc(OC)cc2ccc(C)nc12

>  <score_type>  (20) 
oracle

>  <origin>  (20) 
adg

>  <m_score__min__energy>  (20) 
-6.6799999999999997

>  <m_primary>  (20) 
energy

$$$$
20:0
     RDKit          3D

 49 52  0  0  0  0  0  0  0  0999 V2000
   -9.6580   21.4530  -31.4560 C   0  0  0  0  0  0  0  0  0  0  0  0
   -8.3130   21.0460  -31.9930 C   0  0  0  0  0  0  0  0  0  0  0  0
   -7.2550   21.9020  -32.3400 C   0  0  0  0  0  0  0  0  0  0  0  0
   -7.2520   23.4180  -32.4110 C   0  0  0  0  0  0  0  0  0  0  0  0
   -6.8860   24.0790  -31.1360 N   0  0  0  0  0  0  0  0  0  0  0  0
   -6.9470   23.2220  -29.9280 C   0  0  0  0  0  0  0  0  0  0  0  0
   -5.5730   22.6580  -29.5310 C   0  0  0  0  0  0  0  0  0  0  0  0
   -4.5430   23.6970  -29.5750 N   0  0  0  0  0  0  0  0  0  0  0  0
   -3.1640   23.3120  -29.5130 C   0  0  0  0  0  0  0  0  0  0  0  0
   -2.5990   22.5890  -30.5740 C   0  0  0  0  0  0  0  0  0  0  0  0
   -1.2600   22.1940  -30.5200 C   0  0  0  0  0  0  0  0  0  0  0  0
   -0.4790   22.5220  -29.4090 C   0  0  0  0  0  0  0  0  0  0  0  0
   -1.0360   23.2430  -28.3480 C   0  0  0  0  0  0  0  0  0  0  0  0
   -2.3790   23.6390  -28.3950 C   0  0  0  0  0  0  0  0  0  0  0  0
   -3.0560   24.5460  -27.0510 Cl  0  0  0  0  0  0  0  0  0  0  0  0
   -4.9050   25.0650  -29.9450 C   0  0  0  0  0  0  0  0  0  0  0  0
   -5.7410   25.0190  -31.2250 C   0  0  0  0  0  0  0  0  0  0  0  0
   -6.1800   21.0620  -32.5910 C   0  0  0  0  0  0  0  0  0  0  0  0
   -4.8390   21.3450  -32.8750 C   0  0  0  0  0  0  0  0  0  0  0  0
   -3.9610   20.2650  -33.0650 C   0  0  0  0  0  0  0  0  0  0  0  0
   -4.4230   18.9380  -32.9510 C   0  0  0  0  0  0  0  0  0  0  0  0
   -5.7670   18.6790  -32.6360 C   0  0  0  0  0  0  0  0  0  0  0  0
   -6.6270   19.7690  -32.4620 C   0  0  0  0  0  0  0  0  0  0  0  0
   -7.9290   19.7480  -32.1170 N   0  0  0  0  0  0  0  0  0  0  0  0
   -8.7250   18.5590  -31.8080 C   0  0  0  0  0  0  0  0  0  0  0  0
   -9.6315   21.4450  -30.3563 H   0  0  0  0  0  0  0  0  0  0  0  0
   -9.9029   22.4655  -31.8095 H   0  0  0  0  0  0  0  0  0  0  0  0
  -10.4231   20.7462  -31.8095 H   0  0  0  0  0  0  0  0  0  0  0  0
   -6.5298   23.7271  -33.1810 H   0  0  0  0  0  0  0  0  0  0  0  0
   -8.2806   23.7282  -32.6473 H   0  0  0  0  0  0  0  0  0  0  0  0
   -7.3370   23.8203  -29.0913 H   0  0  0  0  0  0  0  0  0  0  0  0
   -7.6024   22.3691  -30.1583 H   0  0  0  0  0  0  0  0  0  0  0  0
   -5.6322   22.2541  -28.5095 H   0  0  0  0  0  0  0  0  0  0  0  0
   -5.3011   21.8667  -30.2451 H   0  0  0  0  0  0  0  0  0  0  0  0
   -3.2118   22.3324  -31.4507 H   0  0  0  0  0  0  0  0  0  0  0  0
   -0.8206   21.6247  -31.3523 H   0  0  0  0  0  0  0  0  0  0  0  0
    0.5758   22.2126  -29.3687 H   0  0  0  0  0  0  0  0  0  0  0  0
   -0.4183   23.4997  -27.4747 H   0  0  0  0  0  0  0  0  0  0  0  0
   -5.4912   25.5250  -29.1358 H   0  0  0  0  0  0  0  0  0  0  0  0
   -3.9964   25.6625  -30.1107 H   0  0  0  0  0  0  0  0  0  0  0  0
   -6.1305   26.0279  -31.4258 H   0  0  0  0  0  0  0  0  0  0  0  0
   -5.0855   24.6636  -32.0337 H   0  0  0  0  0  0  0  0  0  0  0  0
   -4.4829   22.3832  -32.9473 H   0  0  0  0  0  0  0  0  0  0  0  0
   -2.9046   20.4563  -33.3046 H   0  0  0  0  0  0  0  0  0  0  0  0
   -3.7272   18.1009  -33.1096 H   0  0  0  0  0  0  0  0  0  0  0  0
   -6.1336   17.6474  -32.5290 H   0  0  0  0  0  0  0  0  0  0  0  0
   -8.8026   18.4431  -30.7169 H   0  0  0  0  0  0  0  0  0  0  0  0
   -9.7316   18.6699  -32.2375 H   0  0  0  0  0  0  0  0  0  0  0  0
   -8.2389   17.6706  -32.2375 H   0  0  0  0  0  0  0  0  0  0  0  0
  1  2  1  0
  2  3  2  0
  3  4  1  0
  4  5  1  0
  5  6  1  0
  6  7  1  0
  7  8  1  0
  8  9  1  0
  9 10  2  0
 10 11  1  0
 11 12  2  0
 12 13  1  0
 13 14  2  0
 14 15  1  0
  8 16  1  0
 16 17  1  0
  3 18  1  0
 18 19  2  0
 19 20  1  0
 20 21  2  0
 21 22  1  0
 22 23  2  0
 23 24  1  0
 24 25  1  0
 24  2  1  0
 17  5  1  0
 23 18  1  0
 14  9  1  0
  1 26  1  0
  1 27  1  0
  1 28  1  0
  4 29  1  0
  4 30  1  0
  6 31  1  0
  6 32  1  0
  7 33  1  0
  7 34  1  0
 10 35  1  0
 11 36  1  0
 12 37  1  0
 13 38  1  0
 16 39  1  0
 16 40  1  0
 17 41  1  0
 17 42  1  0
 19 43  1  0
 20 44  1  0
 21 45  1  0
 22 46  1  0
 25 47  1  0
 25 48  1  0
 25 49  1  0
M  END
>  <UniqueID>  (21) 
20

>  <SMILES>  (21) 
Cc1c(CN2CCN(c3ccccc3Cl)CC2)c2ccccc2n1C

>  <Energy>  (21) 
101.56221236436507

>  <Genealogy>  (21) 
Cc1c(CN2CCN(c3ccccc3Cl)CC2)c2ccccc2n1C (3D coordinates assigned)
Cc1c(CN2CCN(c3ccccc3Cl)CC2)c2ccccc2n1C (nonaromatic ring conformer: 101.56221236436507 kcal/mol)

>  <smiles>  (21) 
Cc1c(CN2CCN(c3ccccc3Cl)CC2)c2ccccc2n1C

>  <score_type>  (21) 
oracle

>  <origin>  (21) 
adg

>  <m_score__min__energy>  (21) 
-8.8100000000000005

>  <m_primary>  (21) 
energy

$$$$
21:0
     RDKit          3D

 42 45  0  0  0  0  0  0  0  0999 V2000
   -9.0950   19.8920  -31.5940 C   0  0  0  0  0  0  0  0  0  0  0  0
   -7.7890   19.3550  -31.4120 O   0  0  0  0  0  0  0  0  0  0  0  0
   -6.9190   18.9970  -32.4540 C   0  0  0  0  0  0  0  0  0  0  0  0
   -7.0060   17.7420  -33.0930 C   0  0  0  0  0  0  0  0  0  0  0  0
   -6.0940   17.3940  -34.0910 C   0  0  0  0  0  0  0  0  0  0  0  0
   -5.0850   18.2830  -34.4610 C   0  0  0  0  0  0  0  0  0  0  0  0
   -4.9940   19.5310  -33.8450 C   0  0  0  0  0  0  0  0  0  0  0  0
   -5.9180   19.9060  -32.8570 C   0  0  0  0  0  0  0  0  0  0  0  0
   -5.8090   21.2490  -32.2460 C   0  0  0  0  0  0  0  0  0  0  0  0
   -6.9070   21.9570  -31.8550 N   0  0  0  0  0  0  0  0  0  0  0  0
   -6.3760   23.0920  -31.3690 C   0  0  0  0  0  0  0  0  0  0  0  0
   -7.0320   24.1740  -30.7920 C   0  0  0  0  0  0  0  0  0  0  0  0
   -6.2340   25.2260  -30.3050 C   0  0  0  0  0  0  0  0  0  0  0  0
   -4.8240   25.1430  -30.4050 C   0  0  0  0  0  0  0  0  0  0  0  0
   -4.2320   24.0510  -30.9760 N   0  0  0  0  0  0  0  0  0  0  0  0
   -5.0220   23.0600  -31.4600 C   0  0  0  0  0  0  0  0  0  0  0  0
   -4.6330   21.9020  -32.0120 N   0  0  0  0  0  0  0  0  0  0  0  0
   -3.2870   21.4160  -32.1520 C   0  0  0  0  0  0  0  0  0  0  0  0
   -2.6240   21.5460  -33.3830 C   0  0  0  0  0  0  0  0  0  0  0  0
   -1.3110   21.0940  -33.5290 C   0  0  0  0  0  0  0  0  0  0  0  0
   -0.6500   20.5100  -32.4480 C   0  0  0  0  0  0  0  0  0  0  0  0
   -1.2970   20.3780  -31.2170 C   0  0  0  0  0  0  0  0  0  0  0  0
   -2.6200   20.8360  -31.0560 C   0  0  0  0  0  0  0  0  0  0  0  0
   -3.2890   20.7540  -29.8240 O   0  0  0  0  0  0  0  0  0  0  0  0
   -3.0950   21.6540  -28.7380 C   0  0  0  0  0  0  0  0  0  0  0  0
   -9.5539   20.0807  -30.6123 H   0  0  0  0  0  0  0  0  0  0  0  0
   -9.0285   20.8358  -32.1552 H   0  0  0  0  0  0  0  0  0  0  0  0
   -9.7116   19.1744  -32.1552 H   0  0  0  0  0  0  0  0  0  0  0  0
   -7.7966   17.0341  -32.8033 H   0  0  0  0  0  0  0  0  0  0  0  0
   -6.1714   16.4154  -34.5872 H   0  0  0  0  0  0  0  0  0  0  0  0
   -4.3607   17.9997  -35.2389 H   0  0  0  0  0  0  0  0  0  0  0  0
   -4.1926   20.2263  -34.1354 H   0  0  0  0  0  0  0  0  0  0  0  0
   -8.1291   24.2063  -30.7193 H   0  0  0  0  0  0  0  0  0  0  0  0
   -6.7039   26.1095  -29.8483 H   0  0  0  0  0  0  0  0  0  0  0  0
   -4.2003   25.9634  -30.0203 H   0  0  0  0  0  0  0  0  0  0  0  0
   -3.1420   22.0066  -34.2372 H   0  0  0  0  0  0  0  0  0  0  0  0
   -0.7978   21.1984  -34.4963 H   0  0  0  0  0  0  0  0  0  0  0  0
    0.3836   20.1525  -32.5654 H   0  0  0  0  0  0  0  0  0  0  0  0
   -0.7713   19.9143  -30.3693 H   0  0  0  0  0  0  0  0  0  0  0  0
   -3.2117   21.1125  -27.7877 H   0  0  0  0  0  0  0  0  0  0  0  0
   -2.0837   22.0832  -28.7936 H   0  0  0  0  0  0  0  0  0  0  0  0
   -3.8397   22.4617  -28.7936 H   0  0  0  0  0  0  0  0  0  0  0  0
  1  2  1  0
  2  3  1  0
  3  4  2  0
  4  5  1  0
  5  6  2  0
  6  7  1  0
  7  8  2  0
  8  9  1  0
  9 10  2  0
 10 11  1  0
 11 12  2  0
 12 13  1  0
 13 14  2  0
 14 15  1  0
 15 16  2  0
 16 17  1  0
 17 18  1  0
 18 19  2  0
 19 20  1  0
 20 21  2  0
 21 22  1  0
 22 23  2  0
 23 24  1  0
 24 25  1  0
  8  3  1  0
 17  9  1  0
 23 18  1  0
 16 11  1  0
  1 26  1  0
  1 27  1  0
  1 28  1  0
  4 29  1  0
  5 30  1  0
  6 31  1  0
  7 32  1  0
 12 33  1  0
 13 34  1  0
 14 35  1  0
 19 36  1  0
 20 37  1  0
 21 38  1  0
 22 39  1  0
 25 40  1  0
 25 41  1  0
 25 42  1  0
M  END
>  <UniqueID>  (22) 
21

>  <SMILES>  (22) 
COc1ccccc1-c1nc2cccnc2n1-c1ccccc1OC

>  <Energy>  (22) 
94.90823914550033

>  <Genealogy>  (22) 
COc1ccccc1-c1nc2cccnc2n1-c1ccccc1OC (3D coordinates assigned)
COc1ccccc1-c1nc2cccnc2n1-c1ccccc1OC (optimized conformer: 94.90823914550033 kcal/mol)

>  <smiles>  (22) 
COc1ccccc1-c1nc2cccnc2n1-c1ccccc1OC

>  <score_type>  (22) 
oracle

>  <origin>  (22) 
adg

>  <m_score__min__energy>  (22) 
-7.5899999999999999

>  <m_primary>  (22) 
energy

$$$$
22:0
     RDKit          3D

 35 37  0  0  0  0  0  0  0  0999 V2000
   -1.9620   25.2540  -28.2040 C   0  0  0  0  0  0  0  0  0  0  0  0
   -2.8160   25.2900  -29.3430 O   0  0  0  0  0  0  0  0  0  0  0  0
   -3.4060   24.1600  -29.9320 C   0  0  0  0  0  0  0  0  0  0  0  0
   -2.6950   22.9610  -30.1260 C   0  0  0  0  0  0  0  0  0  0  0  0
   -3.3160   21.8570  -30.7140 C   0  0  0  0  0  0  0  0  0  0  0  0
   -4.6600   21.9240  -31.1240 C   0  0  0  0  0  0  0  0  0  0  0  0
   -5.3190   20.7510  -31.7500 C   0  0  0  0  0  0  0  0  0  0  0  0
   -4.5690   19.7530  -32.2930 N   0  0  0  0  0  0  0  0  0  0  0  0
   -5.1640   18.6810  -32.8660 C   0  0  0  0  0  0  0  0  0  0  0  0
   -4.4440   17.6330  -33.4350 C   0  0  0  0  0  0  0  0  0  0  0  0
   -3.1820   17.6630  -33.4070 O   0  0  0  0  0  0  0  0  0  0  0  0
   -5.1090   16.5790  -34.0150 N   0  0  0  0  0  0  0  0  0  0  0  0
   -4.3430   15.4600  -34.5920 C   0  0  0  0  0  0  0  0  0  0  0  0
   -6.4870   16.5250  -33.9960 C   0  0  0  0  0  0  0  0  0  0  0  0
   -7.0970   15.5370  -34.4860 O   0  0  0  0  0  0  0  0  0  0  0  0
   -7.2190   17.5330  -33.4480 N   0  0  0  0  0  0  0  0  0  0  0  0
   -6.6200   18.6110  -32.8900 C   0  0  0  0  0  0  0  0  0  0  0  0
   -7.3280   19.6330  -32.3340 N   0  0  0  0  0  0  0  0  0  0  0  0
   -8.7900   19.6230  -32.3230 C   0  0  0  0  0  0  0  0  0  0  0  0
   -6.6820   20.6670  -31.7840 N   0  0  0  0  0  0  0  0  0  0  0  0
   -5.3670   23.1250  -30.9280 C   0  0  0  0  0  0  0  0  0  0  0  0
   -4.7460   24.2310  -30.3380 C   0  0  0  0  0  0  0  0  0  0  0  0
   -5.6670   25.7110  -30.1130 Cl  0  0  0  0  0  0  0  0  0  0  0  0
   -2.5709   25.2797  -27.2882 H   0  0  0  0  0  0  0  0  0  0  0  0
   -1.3656   24.3299  -28.2220 H   0  0  0  0  0  0  0  0  0  0  0  0
   -1.2899   26.1246  -28.2220 H   0  0  0  0  0  0  0  0  0  0  0  0
   -1.6429   22.8930  -29.8123 H   0  0  0  0  0  0  0  0  0  0  0  0
   -2.7486   20.9257  -30.8580 H   0  0  0  0  0  0  0  0  0  0  0  0
   -3.9231   14.8465  -33.7813 H   0  0  0  0  0  0  0  0  0  0  0  0
   -5.0082   14.8418  -35.2127 H   0  0  0  0  0  0  0  0  0  0  0  0
   -3.5260   15.8565  -35.2127 H   0  0  0  0  0  0  0  0  0  0  0  0
   -9.1488   19.6205  -31.2832 H   0  0  0  0  0  0  0  0  0  0  0  0
   -9.1667   20.5186  -32.8388 H   0  0  0  0  0  0  0  0  0  0  0  0
   -9.1544   18.7223  -32.8388 H   0  0  0  0  0  0  0  0  0  0  0  0
   -6.4189   23.1948  -31.2420 H   0  0  0  0  0  0  0  0  0  0  0  0
  1  2  1  0
  2  3  1  0
  3  4  2  0
  4  5  1  0
  5  6  2  0
  6  7  1  0
  7  8  1  0
  8  9  2  0
  9 10  1  0
 10 11  2  0
 10 12  1  0
 12 13  1  0
 12 14  1  0
 14 15  2  0
 14 16  1  0
 16 17  2  0
 17 18  1  0
 18 19  1  0
 18 20  1  0
  6 21  1  0
 21 22  2  0
 22 23  1  0
 22  3  1  0
 20  7  2  0
 17  9  1  0
  1 24  1  0
  1 25  1  0
  1 26  1  0
  4 27  1  0
  5 28  1  0
 13 29  1  0
 13 30  1  0
 13 31  1  0
 19 32  1  0
 19 33  1  0
 19 34  1  0
 21 35  1  0
M  END
>  <UniqueID>  (23) 
22

>  <SMILES>  (23) 
COc1ccc(-c2nc3c(=O)n(C)c(=O)nc-3n(C)n2)cc1Cl

>  <Energy>  (23) 
46.14265515703338

>  <Genealogy>  (23) 
COc1ccc(-c2nc3c(=O)n(C)c(=O)nc-3n(C)n2)cc1Cl (3D coordinates assigned)
COc1ccc(-c2nc3c(=O)n(C)c(=O)nc-3n(C)n2)cc1Cl (optimized conformer: 46.14265515703338 kcal/mol)

>  <smiles>  (23) 
COc1ccc(-c2nc3c(=O)n(C)c(=O)nc-3n(C)n2)cc1Cl

>  <score_type>  (23) 
oracle

>  <origin>  (23) 
adg

>  <m_score__min__energy>  (23) 
-7.6600000000000001

>  <m_primary>  (23) 
energy

$$$$
23:0
     RDKit          3D

 52 55  0  0  0  0  0  0  0  0999 V2000
    0.6190   19.9090  -35.9370 C   0  0  0  0  0  0  0  0  0  0  0  0
    0.4450   21.4240  -36.0760 C   0  0  0  0  0  0  0  0  0  0  0  0
   -0.0520   22.0530  -34.8420 N   0  0  0  0  0  0  0  0  0  0  0  0
    0.1150   21.1850  -33.6700 C   0  0  0  0  0  0  0  0  0  0  0  0
   -1.2240   21.0420  -32.9370 C   0  0  0  0  0  0  0  0  0  0  0  0
   -2.3520   21.2260  -33.8630 N   0  0  0  0  0  0  0  0  0  0  0  0
   -3.4460   20.3300  -33.5220 C   0  0  0  0  0  0  0  0  0  0  0  0
   -4.6420   20.8260  -32.9340 C   0  0  0  0  0  0  0  0  0  0  0  0
   -5.6880   19.9210  -32.6300 C   0  0  0  0  0  0  0  0  0  0  0  0
   -5.4460   18.5660  -32.6310 N   0  0  0  0  0  0  0  0  0  0  0  0
   -6.2820   17.6600  -31.8160 C   0  0  0  0  0  0  0  0  0  0  0  0
   -4.3670   18.0640  -33.3240 C   0  0  0  0  0  0  0  0  0  0  0  0
   -4.2430   16.6740  -33.5780 C   0  0  0  0  0  0  0  0  0  0  0  0
   -3.1740   16.1700  -34.3120 C   0  0  0  0  0  0  0  0  0  0  0  0
   -2.2110   17.0300  -34.8220 C   0  0  0  0  0  0  0  0  0  0  0  0
   -2.3030   18.4000  -34.5880 C   0  0  0  0  0  0  0  0  0  0  0  0
   -3.3640   18.9410  -33.8200 C   0  0  0  0  0  0  0  0  0  0  0  0
   -7.0340   20.4930  -32.2920 C   0  0  0  0  0  0  0  0  0  0  0  0
   -8.2330   19.8430  -32.6480 C   0  0  0  0  0  0  0  0  0  0  0  0
   -9.4690   20.4110  -32.3310 C   0  0  0  0  0  0  0  0  0  0  0  0
   -9.5280   21.6510  -31.6930 C   0  0  0  0  0  0  0  0  0  0  0  0
   -8.3510   22.3430  -31.4050 C   0  0  0  0  0  0  0  0  0  0  0  0
   -7.1070   21.7840  -31.7360 C   0  0  0  0  0  0  0  0  0  0  0  0
   -5.8390   22.5570  -31.5270 C   0  0  0  0  0  0  0  0  0  0  0  0
   -4.8890   22.3180  -32.7080 C   0  0  0  0  0  0  0  0  0  0  0  0
    0.6499   19.6398  -34.8709 H   0  0  0  0  0  0  0  0  0  0  0  0
   -0.2262   19.3970  -36.4201 H   0  0  0  0  0  0  0  0  0  0  0  0
    1.5583   19.6019  -36.4201 H   0  0  0  0  0  0  0  0  0  0  0  0
    1.4186   21.8684  -36.3303 H   0  0  0  0  0  0  0  0  0  0  0  0
   -0.3012   21.6023  -36.8642 H   0  0  0  0  0  0  0  0  0  0  0  0
   -1.0670   22.2840  -34.9560 H   0  0  0  0  0  0  0  0  0  0  0  0
    0.4609   20.1930  -33.9961 H   0  0  0  0  0  0  0  0  0  0  0  0
    0.8564   21.6300  -32.9901 H   0  0  0  0  0  0  0  0  0  0  0  0
   -1.2847   20.0385  -32.4905 H   0  0  0  0  0  0  0  0  0  0  0  0
   -1.2811   21.8144  -32.1559 H   0  0  0  0  0  0  0  0  0  0  0  0
   -2.0380   21.0850  -34.8450 H   0  0  0  0  0  0  0  0  0  0  0  0
   -2.6700   22.2200  -33.8590 H   0  0  0  0  0  0  0  0  0  0  0  0
   -6.1016   17.8555  -30.7487 H   0  0  0  0  0  0  0  0  0  0  0  0
   -7.3434   17.8341  -32.0463 H   0  0  0  0  0  0  0  0  0  0  0  0
   -6.0233   16.6160  -32.0463 H   0  0  0  0  0  0  0  0  0  0  0  0
   -5.0048   15.9830  -33.1881 H   0  0  0  0  0  0  0  0  0  0  0  0
   -3.0917   15.0874  -34.4887 H   0  0  0  0  0  0  0  0  0  0  0  0
   -1.3738   16.6288  -35.4120 H   0  0  0  0  0  0  0  0  0  0  0  0
   -1.5398   19.0728  -35.0061 H   0  0  0  0  0  0  0  0  0  0  0  0
   -8.1950   18.8808  -33.1797 H   0  0  0  0  0  0  0  0  0  0  0  0
  -10.3982   19.8798  -32.5848 H   0  0  0  0  0  0  0  0  0  0  0  0
  -10.5016   22.0824  -31.4174 H   0  0  0  0  0  0  0  0  0  0  0  0
   -8.3983   23.3281  -30.9178 H   0  0  0  0  0  0  0  0  0  0  0  0
   -6.0719   23.6297  -31.4559 H   0  0  0  0  0  0  0  0  0  0  0  0
   -5.3565   22.2222  -30.5969 H   0  0  0  0  0  0  0  0  0  0  0  0
   -5.3335   22.7487  -33.6174 H   0  0  0  0  0  0  0  0  0  0  0  0
   -3.9256   22.7970  -32.4790 H   0  0  0  0  0  0  0  0  0  0  0  0
  1  2  1  0
  2  3  1  0
  3  4  1  0
  4  5  1  0
  5  6  1  0
  6  7  1  0
  7  8  2  0
  8  9  1  0
  9 10  2  0
 10 11  1  0
 10 12  1  0
 12 13  2  0
 13 14  1  0
 14 15  2  0
 15 16  1  0
 16 17  2  0
  9 18  1  0
 18 19  2  0
 19 20  1  0
 20 21  2  0
 21 22  1  0
 22 23  2  0
 23 24  1  0
 24 25  1  0
 17  7  1  0
 23 18  1  0
 25  8  1  0
 17 12  1  0
  1 26  1  0
  1 27  1  0
  1 28  1  0
  2 29  1  0
  2 30  1  0
  3 31  1  0
  4 32  1  0
  4 33  1  0
  5 34  1  0
  5 35  1  0
  6 36  1  0
  6 37  1  0
 11 38  1  0
 11 39  1  0
 11 40  1  0
 13 41  1  0
 14 42  1  0
 15 43  1  0
 16 44  1  0
 19 45  1  0
 20 46  1  0
 21 47  1  0
 22 48  1  0
 24 49  1  0
 24 50  1  0
 25 51  1  0
 25 52  1  0
M  CHG  2   6   1  10   1
M  END
>  <UniqueID>  (24) 
23

>  <SMILES>  (24) 
CCNCC[NH2+]c1c2c([n+](C)c3ccccc13)-c1ccccc1CC2

>  <Energy>  (24) 
83.08542876646776

>  <Genealogy>  (24) 
CCNCC[NH2+]c1c2c([n+](C)c3ccccc13)-c1ccccc1CC2 (protonated)
CCNCC[NH2+]c1c2c([n+](C)c3ccccc13)-c1ccccc1CC2 (3D coordinates assigned)
CCNCC[NH2+]c1c2c([n+](C)c3ccccc13)-c1ccccc1CC2 (nonaromatic ring conformer: 83.08542876646776 kcal/mol)

>  <smiles>  (24) 
CCNCCNc1c2c([n+](C)c3ccccc13)-c1ccccc1CC2

>  <score_type>  (24) 
oracle

>  <origin>  (24) 
adg

>  <m_score__min__energy>  (24) 
-8.2899999999999991

>  <m_primary>  (24) 
energy

$$$$
24:0
     RDKit          3D

 28 30  0  0  0  0  0  0  0  0999 V2000
   -2.1380   21.4020  -30.5990 C   0  0  0  0  0  0  0  0  0  0  0  0
   -3.5740   21.6190  -30.4620 N   0  0  0  0  0  0  0  0  0  0  0  0
   -4.1410   22.9220  -30.6470 C   0  0  0  0  0  0  0  0  0  0  0  0
   -3.3500   24.0490  -30.4050 C   0  0  0  0  0  0  0  0  0  0  0  0
   -3.8930   25.2900  -30.4630 N   0  0  0  0  0  0  0  0  0  0  0  0
   -5.2040   25.4630  -30.7660 C   0  0  0  0  0  0  0  0  0  0  0  0
   -5.9860   24.3860  -31.0380 N   0  0  0  0  0  0  0  0  0  0  0  0
   -5.4920   23.1200  -31.0050 C   0  0  0  0  0  0  0  0  0  0  0  0
   -6.3930   22.0210  -31.4000 C   0  0  0  0  0  0  0  0  0  0  0  0
   -7.7480   22.1270  -31.7190 C   0  0  0  0  0  0  0  0  0  0  0  0
   -8.1410   20.8350  -31.9760 C   0  0  0  0  0  0  0  0  0  0  0  0
   -9.3790   20.3130  -32.3430 C   0  0  0  0  0  0  0  0  0  0  0  0
   -9.4710   18.9210  -32.5300 C   0  0  0  0  0  0  0  0  0  0  0  0
   -8.3390   18.0960  -32.3460 C   0  0  0  0  0  0  0  0  0  0  0  0
   -7.1030   18.6570  -31.9710 C   0  0  0  0  0  0  0  0  0  0  0  0
   -7.0430   20.0370  -31.7940 C   0  0  0  0  0  0  0  0  0  0  0  0
   -6.0060   20.7570  -31.4440 O   0  0  0  0  0  0  0  0  0  0  0  0
   -1.6807   21.3329  -29.6009 H   0  0  0  0  0  0  0  0  0  0  0  0
   -1.9594   20.4667  -31.1497 H   0  0  0  0  0  0  0  0  0  0  0  0
   -1.6910   22.2428  -31.1497 H   0  0  0  0  0  0  0  0  0  0  0  0
   -4.2040   20.7880  -30.5430 H   0  0  0  0  0  0  0  0  0  0  0  0
   -2.2829   23.9285  -30.1666 H   0  0  0  0  0  0  0  0  0  0  0  0
   -5.6337   26.4753  -30.7914 H   0  0  0  0  0  0  0  0  0  0  0  0
   -8.3625   23.0386  -31.7563 H   0  0  0  0  0  0  0  0  0  0  0  0
  -10.2537   20.9654  -32.4818 H   0  0  0  0  0  0  0  0  0  0  0  0
  -10.4319   18.4719  -32.8217 H   0  0  0  0  0  0  0  0  0  0  0  0
   -8.4235   17.0096  -32.4965 H   0  0  0  0  0  0  0  0  0  0  0  0
   -6.2143   18.0260  -31.8228 H   0  0  0  0  0  0  0  0  0  0  0  0
  1  2  1  0
  2  3  1  0
  3  4  2  0
  4  5  1  0
  5  6  2  0
  6  7  1  0
  7  8  2  0
  8  9  1  0
  9 10  2  0
 10 11  1  0
 11 12  2  0
 12 13  1  0
 13 14  2  0
 14 15  1  0
 15 16  2  0
 16 17  1  0
  8  3  1  0
 17  9  1  0
 16 11  1  0
  1 18  1  0
  1 19  1  0
  1 20  1  0
  2 21  1  0
  4 22  1  0
  6 23  1  0
 10 24  1  0
 12 25  1  0
 13 26  1  0
 14 27  1  0
 15 28  1  0
M  END
>  <UniqueID>  (25) 
24

>  <SMILES>  (25) 
CNc1cncnc1-c1cc2ccccc2o1

>  <Energy>  (25) 
72.84435452863795

>  <Genealogy>  (25) 
CNc1cncnc1-c1cc2ccccc2o1 (3D coordinates assigned)
CNc1cncnc1-c1cc2ccccc2o1 (optimized conformer: 72.84435452863795 kcal/mol)

>  <smiles>  (25) 
CNc1cncnc1-c1cc2ccccc2o1

>  <score_type>  (25) 
oracle

>  <origin>  (25) 
adg

>  <m_score__min__energy>  (25) 
-6.6100000000000003

>  <m_primary>  (25) 
energy

$$$$
25:0
     RDKit          3D

 43 45  0  0  0  0  0  0  0  0999 V2000
   -3.8800   24.0910  -28.2110 C   0  0  0  0  0  0  0  0  0  0  0  0
   -3.2730   24.5820  -29.5260 C   0  0  0  0  0  0  0  0  0  0  0  0
   -4.2570   24.5690  -30.6300 N   0  0  0  0  0  0  0  0  0  0  0  0
   -5.2240   25.6690  -30.4780 C   0  0  0  0  0  0  0  0  0  0  0  0
   -4.9260   23.2640  -30.8550 C   0  0  0  0  0  0  0  0  0  0  0  0
   -5.0850   22.8750  -32.3450 C   0  0  0  0  0  0  0  0  0  0  0  0
   -5.2760   21.4200  -32.5060 N   0  0  0  0  0  0  0  0  0  0  0  0
   -4.1530   20.6200  -32.9500 C   0  0  0  0  0  0  0  0  0  0  0  0
   -3.0000   21.1350  -32.9650 O   0  0  0  0  0  0  0  0  0  0  0  0
   -4.2770   19.2150  -33.4100 C   0  0  0  0  0  0  0  0  0  0  0  0
   -3.1980   18.3330  -33.1940 C   0  0  0  0  0  0  0  0  0  0  0  0
   -3.2090   17.0460  -33.7360 C   0  0  0  0  0  0  0  0  0  0  0  0
   -4.2850   16.6260  -34.5170 C   0  0  0  0  0  0  0  0  0  0  0  0
   -5.3570   17.4880  -34.7460 C   0  0  0  0  0  0  0  0  0  0  0  0
   -5.3690   18.7770  -34.1880 C   0  0  0  0  0  0  0  0  0  0  0  0
   -6.5120   19.6090  -34.3950 N   0  0  0  0  0  0  0  0  0  0  0  0
   -7.2270   20.0730  -33.2510 C   0  0  0  0  0  0  0  0  0  0  0  0
   -8.5670   19.6910  -33.0850 C   0  0  0  0  0  0  0  0  0  0  0  0
   -9.2710   20.0620  -31.9390 C   0  0  0  0  0  0  0  0  0  0  0  0
   -8.6440   20.8210  -30.9540 C   0  0  0  0  0  0  0  0  0  0  0  0
   -7.3180   21.2250  -31.1200 C   0  0  0  0  0  0  0  0  0  0  0  0
   -6.5910   20.8650  -32.2730 C   0  0  0  0  0  0  0  0  0  0  0  0
   -3.3322   24.5341  -27.3663 H   0  0  0  0  0  0  0  0  0  0  0  0
   -4.9370   24.3912  -28.1604 H   0  0  0  0  0  0  0  0  0  0  0  0
   -3.8074   22.9946  -28.1604 H   0  0  0  0  0  0  0  0  0  0  0  0
   -2.9091   25.6107  -29.3868 H   0  0  0  0  0  0  0  0  0  0  0  0
   -2.4514   23.9021  -29.7955 H   0  0  0  0  0  0  0  0  0  0  0  0
   -5.3941   25.8625  -29.4086 H   0  0  0  0  0  0  0  0  0  0  0  0
   -4.8256   26.5761  -30.9559 H   0  0  0  0  0  0  0  0  0  0  0  0
   -6.1747   25.3901  -30.9559 H   0  0  0  0  0  0  0  0  0  0  0  0
   -4.3328   22.4829  -30.3570 H   0  0  0  0  0  0  0  0  0  0  0  0
   -5.9424   23.3576  -30.4449 H   0  0  0  0  0  0  0  0  0  0  0  0
   -5.9589   23.3985  -32.7600 H   0  0  0  0  0  0  0  0  0  0  0  0
   -4.1668   23.1640  -32.8774 H   0  0  0  0  0  0  0  0  0  0  0  0
   -2.3383   18.6624  -32.5920 H   0  0  0  0  0  0  0  0  0  0  0  0
   -2.3679   16.3629  -33.5466 H   0  0  0  0  0  0  0  0  0  0  0  0
   -4.2883   15.6157  -34.9521 H   0  0  0  0  0  0  0  0  0  0  0  0
   -6.2005   17.1557  -35.3690 H   0  0  0  0  0  0  0  0  0  0  0  0
   -7.0570   19.4680  -35.2760 H   0  0  0  0  0  0  0  0  0  0  0  0
   -9.0657   19.0951  -33.8636 H   0  0  0  0  0  0  0  0  0  0  0  0
  -10.3199   19.7554  -31.8137 H   0  0  0  0  0  0  0  0  0  0  0  0
   -9.1942   21.1025  -30.0441 H   0  0  0  0  0  0  0  0  0  0  0  0
   -6.8341   21.8322  -30.3409 H   0  0  0  0  0  0  0  0  0  0  0  0
  1  2  1  0
  2  3  1  0
  3  4  1  0
  3  5  1  0
  5  6  1  0
  6  7  1  0
  7  8  1  0
  8  9  2  0
  8 10  1  0
 10 11  2  0
 11 12  1  0
 12 13  2  0
 13 14  1  0
 14 15  2  0
 15 16  1  0
 16 17  1  0
 17 18  2  0
 18 19  1  0
 19 20  2  0
 20 21  1  0
 21 22  2  0
 22  7  1  0
 15 10  1  0
 22 17  1  0
  1 23  1  0
  1 24  1  0
  1 25  1  0
  2 26  1  0
  2 27  1  0
  4 28  1  0
  4 29  1  0
  4 30  1  0
  5 31  1  0
  5 32  1  0
  6 33  1  0
  6 34  1  0
 11 35  1  0
 12 36  1  0
 13 37  1  0
 14 38  1  0
 16 39  1  0
 18 40  1  0
 19 41  1  0
 20 42  1  0
 21 43  1  0
M  END
>  <UniqueID>  (26) 
25

>  <SMILES>  (26) 
CCN(C)CCN1C(=O)c2ccccc2Nc2ccccc21

>  <Energy>  (26) 
69.70300859779105

>  <Genealogy>  (26) 
CCN(C)CCN1C(=O)c2ccccc2Nc2ccccc21 (3D coordinates assigned)
CCN(C)CCN1C(=O)c2ccccc2Nc2ccccc21 (nonaromatic ring conformer: 69.70300859779105 kcal/mol)

>  <smiles>  (26) 
CCN(C)CCN1C(=O)c2ccccc2Nc2ccccc21

>  <score_type>  (26) 
oracle

>  <origin>  (26) 
adg

>  <m_score__min__energy>  (26) 
-8.1999999999999993

>  <m_primary>  (26) 
energy

$$$$
26:0
     RDKit          3D

 54 56  0  0  0  0  0  0  0  0999 V2000
   -6.0620   25.2480  -29.5240 C   0  0  0  0  0  0  0  0  0  0  0  0
   -5.1680   25.6470  -30.6930 C   0  0  0  0  0  0  0  0  0  0  0  0
   -3.8580   24.9960  -30.5630 N   0  0  0  0  0  0  0  0  0  0  0  0
   -3.6210   24.4840  -29.2040 C   0  0  0  0  0  0  0  0  0  0  0  0
   -2.3880   23.5590  -29.1300 C   0  0  0  0  0  0  0  0  0  0  0  0
   -2.6990   22.1430  -29.6390 C   0  0  0  0  0  0  0  0  0  0  0  0
   -1.6160   21.6130  -30.4850 N   0  0  0  0  0  0  0  0  0  0  0  0
   -2.0590   21.3370  -31.8650 C   0  0  0  0  0  0  0  0  0  0  0  0
   -3.3290   22.1420  -32.1720 C   0  0  0  0  0  0  0  0  0  0  0  0
   -4.0880   21.5530  -33.2750 N   0  0  0  0  0  0  0  0  0  0  0  0
   -5.2990   20.8040  -33.0670 C   0  0  0  0  0  0  0  0  0  0  0  0
   -5.3650   19.4550  -33.4600 C   0  0  0  0  0  0  0  0  0  0  0  0
   -4.2770   18.8400  -34.1190 C   0  0  0  0  0  0  0  0  0  0  0  0
   -4.3610   17.5170  -34.5450 C   0  0  0  0  0  0  0  0  0  0  0  0
   -5.5270   16.7910  -34.3380 C   0  0  0  0  0  0  0  0  0  0  0  0
   -6.6090   17.3730  -33.6790 C   0  0  0  0  0  0  0  0  0  0  0  0
   -6.5420   18.7060  -33.1940 C   0  0  0  0  0  0  0  0  0  0  0  0
   -7.5910   19.2850  -32.4990 N   0  0  0  0  0  0  0  0  0  0  0  0
   -8.6860   18.4460  -31.9620 C   0  0  0  0  0  0  0  0  0  0  0  0
   -7.6070   20.6510  -32.2840 C   0  0  0  0  0  0  0  0  0  0  0  0
   -8.7700   21.3200  -31.8200 C   0  0  0  0  0  0  0  0  0  0  0  0
   -8.7690   22.6960  -31.5960 C   0  0  0  0  0  0  0  0  0  0  0  0
   -7.6250   23.4450  -31.8470 C   0  0  0  0  0  0  0  0  0  0  0  0
   -6.4800   22.8250  -32.3380 C   0  0  0  0  0  0  0  0  0  0  0  0
   -6.4490   21.4300  -32.5530 C   0  0  0  0  0  0  0  0  0  0  0  0
   -5.5509   25.4761  -28.5770 H   0  0  0  0  0  0  0  0  0  0  0  0
   -7.0061   25.8102  -29.5758 H   0  0  0  0  0  0  0  0  0  0  0  0
   -6.2740   24.1699  -29.5758 H   0  0  0  0  0  0  0  0  0  0  0  0
   -5.6392   25.3340  -31.6364 H   0  0  0  0  0  0  0  0  0  0  0  0
   -5.0327   26.7386  -30.6903 H   0  0  0  0  0  0  0  0  0  0  0  0
   -3.1080   25.6870  -30.8060 H   0  0  0  0  0  0  0  0  0  0  0  0
   -3.4636   25.3371  -28.5277 H   0  0  0  0  0  0  0  0  0  0  0  0
   -4.5012   23.8934  -28.9101 H   0  0  0  0  0  0  0  0  0  0  0  0
   -1.5841   23.9890  -29.7455 H   0  0  0  0  0  0  0  0  0  0  0  0
   -2.0841   23.4818  -28.0756 H   0  0  0  0  0  0  0  0  0  0  0  0
   -2.8338   21.4761  -28.7747 H   0  0  0  0  0  0  0  0  0  0  0  0
   -3.6137   22.1930  -30.2479 H   0  0  0  0  0  0  0  0  0  0  0  0
   -0.8630   22.3430  -30.5150 H   0  0  0  0  0  0  0  0  0  0  0  0
   -1.2643   21.6256  -32.5686 H   0  0  0  0  0  0  0  0  0  0  0  0
   -2.2742   20.2634  -31.9704 H   0  0  0  0  0  0  0  0  0  0  0  0
   -3.9636   22.1635  -31.2737 H   0  0  0  0  0  0  0  0  0  0  0  0
   -3.0286   23.1585  -32.4661 H   0  0  0  0  0  0  0  0  0  0  0  0
   -3.6710   21.5730  -34.2330 H   0  0  0  0  0  0  0  0  0  0  0  0
   -3.3545   19.4120  -34.2973 H   0  0  0  0  0  0  0  0  0  0  0  0
   -3.5026   17.0460  -35.0463 H   0  0  0  0  0  0  0  0  0  0  0  0
   -5.5969   15.7530  -34.6954 H   0  0  0  0  0  0  0  0  0  0  0  0
   -7.5301   16.7898  -33.5323 H   0  0  0  0  0  0  0  0  0  0  0  0
   -8.6586   18.4670  -30.8625 H   0  0  0  0  0  0  0  0  0  0  0  0
   -9.6528   18.8367  -32.3122 H   0  0  0  0  0  0  0  0  0  0  0  0
   -8.5603   17.4108  -32.3122 H   0  0  0  0  0  0  0  0  0  0  0  0
   -9.6877   20.7427  -31.6340 H   0  0  0  0  0  0  0  0  0  0  0  0
   -9.6764   23.1907  -31.2194 H   0  0  0  0  0  0  0  0  0  0  0  0
   -7.6249   24.5285  -31.6573 H   0  0  0  0  0  0  0  0  0  0  0  0
   -5.5883   23.4291  -32.5613 H   0  0  0  0  0  0  0  0  0  0  0  0
  1  2  1  0
  2  3  1  0
  3  4  1  0
  4  5  1  0
  5  6  1  0
  6  7  1  0
  7  8  1  0
  8  9  1  0
  9 10  1  0
 10 11  1  0
 11 12  2  0
 12 13  1  0
 13 14  2  0
 14 15  1  0
 15 16  2  0
 16 17  1  0
 17 18  2  0
 18 19  1  0
 18 20  1  0
 20 21  2  0
 21 22  1  0
 22 23  2  0
 23 24  1  0
 24 25  2  0
 25 11  1  0
 17 12  1  0
 25 20  1  0
  1 26  1  0
  1 27  1  0
  1 28  1  0
  2 29  1  0
  2 30  1  0
  3 31  1  0
  4 32  1  0
  4 33  1  0
  5 34  1  0
  5 35  1  0
  6 36  1  0
  6 37  1  0
  7 38  1  0
  8 39  1  0
  8 40  1  0
  9 41  1  0
  9 42  1  0
 10 43  1  0
 13 44  1  0
 14 45  1  0
 15 46  1  0
 16 47  1  0
 19 48  1  0
 19 49  1  0
 19 50  1  0
 21 51  1  0
 22 52  1  0
 23 53  1  0
 24 54  1  0
M  CHG  1  18   1
M  END
>  <UniqueID>  (27) 
26

>  <SMILES>  (27) 
CCNCCCNCCNc1c2ccccc2[n+](C)c2ccccc12

>  <Energy>  (27) 
76.25278703247085

>  <Genealogy>  (27) 
CCNCCCNCCNc1c2ccccc2[n+](C)c2ccccc12 (3D coordinates assigned)
CCNCCCNCCNc1c2ccccc2[n+](C)c2ccccc12 (optimized conformer: 76.25278703247085 kcal/mol)

>  <smiles>  (27) 
CCNCCCNCCNc1c2ccccc2[n+](C)c2ccccc12

>  <score_type>  (27) 
oracle

>  <origin>  (27) 
adg

>  <m_score__min__energy>  (27) 
-8.9499999999999993

>  <m_primary>  (27) 
energy

$$$$
27:0
     RDKit          3D

 46 48  0  0  0  0  0  0  0  0999 V2000
   -6.4410   16.2140  -33.8930 C   0  0  0  0  0  0  0  0  0  0  0  0
   -7.2710   17.3110  -33.5290 O   0  0  0  0  0  0  0  0  0  0  0  0
   -6.7940   18.5700  -33.1320 C   0  0  0  0  0  0  0  0  0  0  0  0
   -7.6270   19.5450  -32.5520 C   0  0  0  0  0  0  0  0  0  0  0  0
   -7.1030   20.7840  -32.1740 C   0  0  0  0  0  0  0  0  0  0  0  0
   -5.7450   21.0660  -32.3680 C   0  0  0  0  0  0  0  0  0  0  0  0
   -5.1070   22.6430  -31.9010 S   0  0  0  0  0  0  0  0  0  0  0  0
   -3.6310   22.6330  -32.1830 O   0  0  0  0  0  0  0  0  0  0  0  0
   -5.7530   23.7190  -32.7300 O   0  0  0  0  0  0  0  0  0  0  0  0
   -5.4000   22.9310  -30.1900 N   0  0  2  0  0  0  0  0  0  0  0  0
   -6.8060   23.3080  -29.9720 C   0  0  0  0  0  0  0  0  0  0  0  0
   -6.8870   24.8320  -30.0210 C   0  0  0  0  0  0  0  0  0  0  0  0
   -5.4560   25.3240  -29.8680 C   0  0  0  0  0  0  0  0  0  0  0  0
   -4.6420   24.0600  -29.6090 C   0  0  2  0  0  0  0  0  0  0  0  0
   -3.1700   24.1790  -30.0630 C   0  0  0  0  0  0  0  0  0  0  0  0
   -2.5010   25.2170  -29.3440 O   0  0  0  0  0  0  0  0  0  0  0  0
   -1.7400   25.0450  -28.1760 C   0  0  0  0  0  0  0  0  0  0  0  0
   -0.3910   24.6330  -28.1950 C   0  0  0  0  0  0  0  0  0  0  0  0
    0.3150   24.4810  -26.9970 C   0  0  0  0  0  0  0  0  0  0  0  0
   -0.3120   24.7380  -25.7750 C   0  0  0  0  0  0  0  0  0  0  0  0
   -1.6460   25.1500  -25.7490 C   0  0  0  0  0  0  0  0  0  0  0  0
   -2.3560   25.3040  -26.9440 C   0  0  0  0  0  0  0  0  0  0  0  0
   -4.9140   20.0980  -32.9480 C   0  0  0  0  0  0  0  0  0  0  0  0
   -5.4370   18.8580  -33.3260 C   0  0  0  0  0  0  0  0  0  0  0  0
   -6.0671   15.7198  -32.9842 H   0  0  0  0  0  0  0  0  0  0  0  0
   -7.0234   15.4952  -34.4881 H   0  0  0  0  0  0  0  0  0  0  0  0
   -5.5909   16.5790  -34.4881 H   0  0  0  0  0  0  0  0  0  0  0  0
   -8.6946   19.3309  -32.3957 H   0  0  0  0  0  0  0  0  0  0  0  0
   -7.7602   21.5414  -31.7219 H   0  0  0  0  0  0  0  0  0  0  0  0
   -5.1840   22.0500  -29.6680 H   0  0  0  0  0  0  0  0  0  0  0  0
   -7.4378   22.8730  -30.7605 H   0  0  0  0  0  0  0  0  0  0  0  0
   -7.1610   22.9328  -29.0008 H   0  0  0  0  0  0  0  0  0  0  0  0
   -7.3060   25.1633  -30.9826 H   0  0  0  0  0  0  0  0  0  0  0  0
   -7.5404   25.2300  -29.2307 H   0  0  0  0  0  0  0  0  0  0  0  0
   -5.1163   25.8234  -30.7874 H   0  0  0  0  0  0  0  0  0  0  0  0
   -5.3519   26.0613  -29.0583 H   0  0  0  0  0  0  0  0  0  0  0  0
   -4.5243   23.8810  -28.5301 H   0  0  0  0  0  0  0  0  0  0  0  0
   -2.6570   23.2236  -29.8783 H   0  0  0  0  0  0  0  0  0  0  0  0
   -3.1497   24.4226  -31.1355 H   0  0  0  0  0  0  0  0  0  0  0  0
    0.1072   24.4307  -29.1546 H   0  0  0  0  0  0  0  0  0  0  0  0
    1.3664   24.1583  -27.0170 H   0  0  0  0  0  0  0  0  0  0  0  0
    0.2448   24.6159  -24.8342 H   0  0  0  0  0  0  0  0  0  0  0  0
   -2.1392   25.3537  -24.7871 H   0  0  0  0  0  0  0  0  0  0  0  0
   -3.4059   25.6309  -26.9168 H   0  0  0  0  0  0  0  0  0  0  0  0
   -3.8472   20.3146  -33.1062 H   0  0  0  0  0  0  0  0  0  0  0  0
   -4.7780   18.1028  -33.7792 H   0  0  0  0  0  0  0  0  0  0  0  0
  1  2  1  0
  2  3  1  0
  3  4  2  0
  4  5  1  0
  5  6  2  0
  6  7  1  0
  7  8  2  0
  7  9  2  0
  7 10  1  0
 10 11  1  0
 11 12  1  0
 12 13  1  0
 13 14  1  0
 14 15  1  0
 15 16  1  0
 16 17  1  0
 17 18  2  0
 18 19  1  0
 19 20  2  0
 20 21  1  0
 21 22  2  0
  6 23  1  0
 23 24  2  0
 24  3  1  0
 14 10  1  0
 22 17  1  0
  1 25  1  0
  1 26  1  0
  1 27  1  0
  4 28  1  0
  5 29  1  0
 10 30  1  1
 11 31  1  0
 11 32  1  0
 12 33  1  0
 12 34  1  0
 13 35  1  0
 13 36  1  0
 14 37  1  1
 15 38  1  0
 15 39  1  0
 18 40  1  0
 19 41  1  0
 20 42  1  0
 21 43  1  0
 22 44  1  0
 23 45  1  0
 24 46  1  0
M  CHG  1  10   1
M  END
>  <UniqueID>  (28) 
27

>  <SMILES>  (28) 
COc1ccc(S(=O)(=O)[N@@H+]2CCC[C@@H]2COc2ccccc2)cc1

>  <Energy>  (28) 
53.31340715334809

>  <Genealogy>  (28) 
COc1ccc(S(=O)(=O)[NH+]2CCCC2COc2ccccc2)cc1 (protonated)
COc1ccc(S(=O)(=O)[N@@H+]2CCC[C@@H]2COc2ccccc2)cc1 (chirality)
COc1ccc(S(=O)(=O)[N@@H+]2CCC[C@@H]2COc2ccccc2)cc1 (3D coordinates assigned)
COc1ccc(S(=O)(=O)[N@@H+]2CCC[C@@H]2COc2ccccc2)cc1 (nonaromatic ring conformer: 53.31340715334809 kcal/mol)

>  <smiles>  (28) 
COc1ccc(S(=O)(=O)N2CCCC2COc2ccccc2)cc1

>  <score_type>  (28) 
oracle

>  <origin>  (28) 
adg

>  <m_score__min__energy>  (28) 
-7.3600000000000003

>  <m_primary>  (28) 
energy

$$$$
28:0
     RDKit          3D

 54 56  0  0  0  0  0  0  0  0999 V2000
   -0.3230   20.5220  -34.7970 C   0  0  0  0  0  0  0  0  0  0  0  0
   -1.0970   19.2280  -34.5530 C   0  0  0  0  0  0  0  0  0  0  0  0
   -2.3770   19.5020  -33.8820 N   0  0  0  0  0  0  0  0  0  0  0  0
   -2.5130   20.7520  -33.1150 C   0  0  0  0  0  0  0  0  0  0  0  0
   -2.4910   20.4630  -31.6020 C   0  0  0  0  0  0  0  0  0  0  0  0
   -2.8340   21.6490  -30.7980 N   0  0  0  0  0  0  0  0  0  0  0  0
   -4.2290   22.0120  -30.9610 C   0  0  0  0  0  0  0  0  0  0  0  0
   -5.1540   21.0170  -31.3340 C   0  0  0  0  0  0  0  0  0  0  0  0
   -6.5290   21.2860  -31.3730 C   0  0  0  0  0  0  0  0  0  0  0  0
   -7.4500   20.2620  -31.7710 N   0  0  0  0  0  0  0  0  0  0  0  0
   -8.8010   20.6590  -32.1940 C   0  0  0  0  0  0  0  0  0  0  0  0
   -9.5740   19.4790  -32.8010 C   0  0  0  0  0  0  0  0  0  0  0  0
   -9.3950   18.3120  -32.0240 O   0  0  0  0  0  0  0  0  0  0  0  0
   -8.0580   17.8810  -32.1510 C   0  0  0  0  0  0  0  0  0  0  0  0
   -7.1000   18.8650  -31.4720 C   0  0  0  0  0  0  0  0  0  0  0  0
   -6.9940   22.5620  -31.0280 C   0  0  0  0  0  0  0  0  0  0  0  0
   -8.3240   22.8370  -31.0480 F   0  0  0  0  0  0  0  0  0  0  0  0
   -6.0910   23.5630  -30.6690 C   0  0  0  0  0  0  0  0  0  0  0  0
   -4.7090   23.3130  -30.6560 C   0  0  0  0  0  0  0  0  0  0  0  0
   -3.8160   24.3920  -30.3450 N   0  0  0  0  0  0  0  0  0  0  0  0
   -2.6900   24.1490  -29.8640 O   0  0  0  0  0  0  0  0  0  0  0  0
   -4.0710   25.6490  -30.8450 O   0  0  0  0  0  0  0  0  0  0  0  0
   -3.4600   18.5390  -33.9380 C   0  0  0  0  0  0  0  0  0  0  0  0
   -4.7480   18.9220  -34.3680 C   0  0  0  0  0  0  0  0  0  0  0  0
   -5.7790   17.9820  -34.4500 C   0  0  0  0  0  0  0  0  0  0  0  0
   -5.5430   16.6490  -34.0960 C   0  0  0  0  0  0  0  0  0  0  0  0
   -6.8410   15.4750  -34.1880 Cl  0  0  0  0  0  0  0  0  0  0  0  0
   -4.2830   16.2640  -33.6320 C   0  0  0  0  0  0  0  0  0  0  0  0
   -3.2460   17.2010  -33.5530 C   0  0  0  0  0  0  0  0  0  0  0  0
   -0.0522   20.9748  -33.8318 H   0  0  0  0  0  0  0  0  0  0  0  0
    0.5911   20.3005  -35.3675 H   0  0  0  0  0  0  0  0  0  0  0  0
   -0.9505   21.2226  -35.3675 H   0  0  0  0  0  0  0  0  0  0  0  0
   -1.2936   18.7382  -35.5181 H   0  0  0  0  0  0  0  0  0  0  0  0
   -0.4937   18.5736  -33.9066 H   0  0  0  0  0  0  0  0  0  0  0  0
   -1.6792   21.4238  -33.3672 H   0  0  0  0  0  0  0  0  0  0  0  0
   -3.4725   21.2243  -33.3726 H   0  0  0  0  0  0  0  0  0  0  0  0
   -3.2176   19.6664  -31.3840 H   0  0  0  0  0  0  0  0  0  0  0  0
   -1.4681   20.1605  -31.3334 H   0  0  0  0  0  0  0  0  0  0  0  0
   -2.2420   22.4490  -31.1270 H   0  0  0  0  0  0  0  0  0  0  0  0
   -2.5760   21.4790  -29.8000 H   0  0  0  0  0  0  0  0  0  0  0  0
   -4.7913   20.0129  -31.5989 H   0  0  0  0  0  0  0  0  0  0  0  0
   -9.3526   21.0349  -31.3197 H   0  0  0  0  0  0  0  0  0  0  0  0
   -8.7048   21.4391  -32.9636 H   0  0  0  0  0  0  0  0  0  0  0  0
  -10.6447   19.7286  -32.8363 H   0  0  0  0  0  0  0  0  0  0  0  0
   -9.1925   19.2905  -33.8153 H   0  0  0  0  0  0  0  0  0  0  0  0
   -7.9520   16.8923  -31.6806 H   0  0  0  0  0  0  0  0  0  0  0  0
   -7.8062   17.8264  -33.2204 H   0  0  0  0  0  0  0  0  0  0  0  0
   -7.1446   18.7118  -30.3836 H   0  0  0  0  0  0  0  0  0  0  0  0
   -6.0868   18.6764  -31.8565 H   0  0  0  0  0  0  0  0  0  0  0  0
   -6.4658   24.5597  -30.3929 H   0  0  0  0  0  0  0  0  0  0  0  0
   -4.9425   19.9697  -34.6411 H   0  0  0  0  0  0  0  0  0  0  0  0
   -6.7775   18.2905  -34.7933 H   0  0  0  0  0  0  0  0  0  0  0  0
   -4.1052   15.2219  -33.3279 H   0  0  0  0  0  0  0  0  0  0  0  0
   -2.2562   16.8900  -33.1874 H   0  0  0  0  0  0  0  0  0  0  0  0
  1  2  1  0
  2  3  1  0
  3  4  1  0
  4  5  1  0
  5  6  1  0
  6  7  1  0
  7  8  2  0
  8  9  1  0
  9 10  1  0
 10 11  1  0
 11 12  1  0
 12 13  1  0
 13 14  1  0
 14 15  1  0
  9 16  2  0
 16 17  1  0
 16 18  1  0
 18 19  2  0
 19 20  1  0
 20 21  2  0
 20 22  1  0
  3 23  1  0
 23 24  2  0
 24 25  1  0
 25 26  2  0
 26 27  1  0
 26 28  1  0
 28 29  2  0
 19  7  1  0
 29 23  1  0
 15 10  1  0
  1 30  1  0
  1 31  1  0
  1 32  1  0
  2 33  1  0
  2 34  1  0
  4 35  1  0
  4 36  1  0
  5 37  1  0
  5 38  1  0
  6 39  1  0
  6 40  1  0
  8 41  1  0
 11 42  1  0
 11 43  1  0
 12 44  1  0
 12 45  1  0
 14 46  1  0
 14 47  1  0
 15 48  1  0
 15 49  1  0
 18 50  1  0
 24 51  1  0
 25 52  1  0
 28 53  1  0
 29 54  1  0
M  CHG  3   6   1  20   1  22  -1
M  END
>  <UniqueID>  (29) 
28

>  <SMILES>  (29) 
CCN(CC[NH2+]c1cc(N2CCOCC2)c(F)cc1[N+](=O)[O-])c1ccc(Cl)cc1

>  <Energy>  (29) 
68.95643879241851

>  <Genealogy>  (29) 
CCN(CC[NH2+]c1cc(N2CCOCC2)c(F)cc1[N+](=O)[O-])c1ccc(Cl)cc1 (protonated)
CCN(CC[NH2+]c1cc(N2CCOCC2)c(F)cc1[N+](=O)[O-])c1ccc(Cl)cc1 (3D coordinates assigned)
CCN(CC[NH2+]c1cc(N2CCOCC2)c(F)cc1[N+](=O)[O-])c1ccc(Cl)cc1 (nonaromatic ring conformer: 68.95643879241851 kcal/mol)

>  <smiles>  (29) 
CCN(CCNc1cc(N2CCOCC2)c(F)cc1[N+](=O)[O-])c1ccc(Cl)cc1

>  <score_type>  (29) 
oracle

>  <origin>  (29) 
adg

>  <m_score__min__energy>  (29) 
-7.9500000000000002

>  <m_primary>  (29) 
energy

$$$$
29:0
     RDKit          3D

 37 38  0  0  0  0  0  0  0  0999 V2000
   -8.5440   23.4080  -31.9990 C   0  0  0  0  0  0  0  0  0  0  0  0
   -7.5370   22.2950  -32.0520 C   0  0  0  0  0  0  0  0  0  0  0  0
   -7.9970   20.9690  -31.9850 C   0  0  0  0  0  0  0  0  0  0  0  0
   -7.1030   19.9000  -32.0750 C   0  0  0  0  0  0  0  0  0  0  0  0
   -7.7460   18.1050  -31.9690 Br  0  0  0  0  0  0  0  0  0  0  0  0
   -5.7420   20.1440  -32.2520 C   0  0  0  0  0  0  0  0  0  0  0  0
   -5.2650   21.4550  -32.3150 C   0  0  0  0  0  0  0  0  0  0  0  0
   -3.3900   21.7430  -32.5780 Br  0  0  0  0  0  0  0  0  0  0  0  0
   -6.1470   22.5420  -32.1750 C   0  0  0  0  0  0  0  0  0  0  0  0
   -5.6080   23.8390  -32.1920 O   0  0  0  0  0  0  0  0  0  0  0  0
   -5.8470   24.8300  -31.1880 C   0  0  0  0  0  0  0  0  0  0  0  0
   -4.8840   24.6980  -30.0500 C   0  0  0  0  0  0  0  0  0  0  0  0
   -5.3100   24.4080  -28.8990 O   0  0  0  0  0  0  0  0  0  0  0  0
   -3.4920   24.9550  -30.2650 N   0  0  0  0  0  0  0  0  0  0  0  0
   -2.4090   24.1550  -29.7030 C   0  0  0  0  0  0  0  0  0  0  0  0
   -2.5660   24.0010  -28.1850 C   0  0  0  0  0  0  0  0  0  0  0  0
   -1.9470   25.1450  -27.4340 C   0  0  0  0  0  0  0  0  0  0  0  0
   -2.2290   25.3440  -26.0750 C   0  0  0  0  0  0  0  0  0  0  0  0
   -1.6170   26.4000  -25.3960 C   0  0  0  0  0  0  0  0  0  0  0  0
   -0.7350   27.2430  -26.0730 C   0  0  0  0  0  0  0  0  0  0  0  0
   -0.4780   27.0160  -27.4260 C   0  0  0  0  0  0  0  0  0  0  0  0
   -1.0810   25.9810  -28.0710 N   0  0  0  0  0  0  0  0  0  0  0  0
   -8.7653   23.6526  -30.9496 H   0  0  0  0  0  0  0  0  0  0  0  0
   -8.1361   24.2959  -32.5043 H   0  0  0  0  0  0  0  0  0  0  0  0
   -9.4681   23.0907  -32.5043 H   0  0  0  0  0  0  0  0  0  0  0  0
   -9.0719   20.7711  -31.8604 H   0  0  0  0  0  0  0  0  0  0  0  0
   -5.0413   19.3009  -32.3424 H   0  0  0  0  0  0  0  0  0  0  0  0
   -5.7360   25.8281  -31.6368 H   0  0  0  0  0  0  0  0  0  0  0  0
   -6.8656   24.6885  -30.7976 H   0  0  0  0  0  0  0  0  0  0  0  0
   -2.4200   23.1583  -30.1682 H   0  0  0  0  0  0  0  0  0  0  0  0
   -1.4561   24.6659  -29.9055 H   0  0  0  0  0  0  0  0  0  0  0  0
   -3.6379   23.9558  -27.9421 H   0  0  0  0  0  0  0  0  0  0  0  0
   -2.0490   23.0782  -27.8829 H   0  0  0  0  0  0  0  0  0  0  0  0
   -2.9256   24.6748  -25.5487 H   0  0  0  0  0  0  0  0  0  0  0  0
   -1.8299   26.5668  -24.3298 H   0  0  0  0  0  0  0  0  0  0  0  0
   -0.2478   28.0769  -25.5465 H   0  0  0  0  0  0  0  0  0  0  0  0
    0.2133   27.6751  -27.9717 H   0  0  0  0  0  0  0  0  0  0  0  0
  1  2  1  0
  2  3  2  0
  3  4  1  0
  4  5  1  0
  4  6  2  0
  6  7  1  0
  7  8  1  0
  7  9  2  0
  9 10  1  0
 10 11  1  0
 11 12  1  0
 12 13  2  0
 12 14  1  0
 14 15  1  0
 15 16  1  0
 16 17  1  0
 17 18  2  0
 18 19  1  0
 19 20  2  0
 20 21  1  0
 21 22  2  0
  9  2  1  0
 22 17  1  0
  1 23  1  0
  1 24  1  0
  1 25  1  0
  3 26  1  0
  6 27  1  0
 11 28  1  0
 11 29  1  0
 15 30  1  0
 15 31  1  0
 16 32  1  0
 16 33  1  0
 18 34  1  0
 19 35  1  0
 20 36  1  0
 21 37  1  0
M  CHG  1  14  -1
M  END
>  <UniqueID>  (30) 
29

>  <SMILES>  (30) 
Cc1cc(Br)cc(Br)c1OCC(=O)[N-]CCc1ccccn1

>  <Energy>  (30) 
35.46563859831033

>  <Genealogy>  (30) 
Cc1cc(Br)cc(Br)c1OCC(=O)[N-]CCc1ccccn1 (protonated)
Cc1cc(Br)cc(Br)c1OCC(=O)[N-]CCc1ccccn1 (3D coordinates assigned)
Cc1cc(Br)cc(Br)c1OCC(=O)[N-]CCc1ccccn1 (optimized conformer: 35.46563859831033 kcal/mol)

>  <smiles>  (30) 
Cc1cc(Br)cc(Br)c1OCC(=O)NCCc1ccccn1

>  <score_type>  (30) 
oracle

>  <origin>  (30) 
adg

>  <m_score__min__energy>  (30) 
-10.25

>  <m_primary>  (30) 
energy

$$$$
30:0
     RDKit          3D

 58 60  0  0  0  0  0  0  0  0999 V2000
   -4.4010   14.1260  -32.2170 C   0  0  0  0  0  0  0  0  0  0  0  0
   -4.3410   13.6510  -33.6640 C   0  0  0  0  0  0  0  0  0  0  0  0
   -4.8530   14.6510  -34.5440 O   0  0  0  0  0  0  0  0  0  0  0  0
   -5.9140   15.5040  -34.2120 C   0  0  0  0  0  0  0  0  0  0  0  0
   -7.0810   15.0390  -34.0880 O   0  0  0  0  0  0  0  0  0  0  0  0
   -5.6770   16.9120  -34.0210 N   0  0  0  0  0  0  0  0  0  0  0  0
   -6.8250   17.8110  -33.8210 C   0  0  0  0  0  0  0  0  0  0  0  0
   -6.3790   19.2640  -33.6240 C   0  0  0  0  0  0  0  0  0  0  0  0
   -5.2280   19.3210  -32.5870 C   0  0  0  0  0  0  0  0  0  0  0  0
   -4.8250   20.7100  -32.2060 N   0  0  2  0  0  0  0  0  0  0  0  0
   -3.4870   20.7280  -31.5470 C   0  0  0  0  0  0  0  0  0  0  0  0
   -3.2370   21.9800  -30.6760 C   0  0  0  0  0  0  0  0  0  0  0  0
   -4.0240   23.2020  -31.1910 C   0  0  2  0  0  0  0  0  0  0  0  0
   -3.7460   24.4620  -30.3930 C   0  0  0  0  0  0  0  0  0  0  0  0
   -4.2400   25.5410  -30.8210 O   0  0  0  0  0  0  0  0  0  0  0  0
   -2.9300   24.5040  -29.1440 C   0  0  0  0  0  0  0  0  0  0  0  0
   -3.5840   24.4850  -27.8990 C   0  0  0  0  0  0  0  0  0  0  0  0
   -2.8540   24.5140  -26.7090 C   0  0  0  0  0  0  0  0  0  0  0  0
   -1.4600   24.5580  -26.7410 C   0  0  0  0  0  0  0  0  0  0  0  0
   -0.7640   24.5880  -25.5770 F   0  0  0  0  0  0  0  0  0  0  0  0
   -0.7820   24.5670  -27.9640 C   0  0  0  0  0  0  0  0  0  0  0  0
    0.6210   24.6100  -27.9490 O   0  0  0  0  0  0  0  0  0  0  0  0
    1.3940   25.4390  -27.0870 C   0  0  0  0  0  0  0  0  0  0  0  0
   -1.5200   24.5330  -29.1640 C   0  0  0  0  0  0  0  0  0  0  0  0
   -5.5400   22.9250  -31.3340 C   0  0  0  0  0  0  0  0  0  0  0  0
   -5.8460   21.4190  -31.3960 C   0  0  0  0  0  0  0  0  0  0  0  0
   -4.0040   18.4750  -33.0530 C   0  0  0  0  0  0  0  0  0  0  0  0
   -4.3250   17.4700  -34.1750 C   0  0  0  0  0  0  0  0  0  0  0  0
   -4.2920   13.2634  -31.5431 H   0  0  0  0  0  0  0  0  0  0  0  0
   -3.5861   14.8412  -32.0318 H   0  0  0  0  0  0  0  0  0  0  0  0
   -5.3682   14.6161  -32.0318 H   0  0  0  0  0  0  0  0  0  0  0  0
   -3.2957   13.4361  -33.9306 H   0  0  0  0  0  0  0  0  0  0  0  0
   -4.9544   12.7434  -33.7644 H   0  0  0  0  0  0  0  0  0  0  0  0
   -7.4794   17.7554  -34.7034 H   0  0  0  0  0  0  0  0  0  0  0  0
   -7.3583   17.4899  -32.9141 H   0  0  0  0  0  0  0  0  0  0  0  0
   -6.0275   19.6719  -34.5832 H   0  0  0  0  0  0  0  0  0  0  0  0
   -7.2285   19.8596  -33.2585 H   0  0  0  0  0  0  0  0  0  0  0  0
   -5.6303   18.8706  -31.6676 H   0  0  0  0  0  0  0  0  0  0  0  0
   -4.7120   21.2470  -33.1000 H   0  0  0  0  0  0  0  0  0  0  0  0
   -3.4040   19.8377  -30.9063 H   0  0  0  0  0  0  0  0  0  0  0  0
   -2.7349   20.7409  -32.3496 H   0  0  0  0  0  0  0  0  0  0  0  0
   -3.5500   21.7640  -29.6438 H   0  0  0  0  0  0  0  0  0  0  0  0
   -2.1644   22.2199  -30.7217 H   0  0  0  0  0  0  0  0  0  0  0  0
   -3.6456   23.3885  -32.2069 H   0  0  0  0  0  0  0  0  0  0  0  0
   -4.6827   24.4469  -27.8623 H   0  0  0  0  0  0  0  0  0  0  0  0
   -3.3799   24.5021  -25.7430 H   0  0  0  0  0  0  0  0  0  0  0  0
    1.1649   25.1933  -26.0396 H   0  0  0  0  0  0  0  0  0  0  0  0
    2.4640   25.2695  -27.2778 H   0  0  0  0  0  0  0  0  0  0  0  0
    1.1502   26.4945  -27.2778 H   0  0  0  0  0  0  0  0  0  0  0  0
   -0.9900   24.5290  -30.1279 H   0  0  0  0  0  0  0  0  0  0  0  0
   -6.0636   23.3587  -30.4693 H   0  0  0  0  0  0  0  0  0  0  0  0
   -5.8819   23.3807  -32.2750 H   0  0  0  0  0  0  0  0  0  0  0  0
   -5.8466   21.0082  -30.3756 H   0  0  0  0  0  0  0  0  0  0  0  0
   -6.8309   21.2770  -31.8648 H   0  0  0  0  0  0  0  0  0  0  0  0
   -3.2271   19.1631  -33.4175 H   0  0  0  0  0  0  0  0  0  0  0  0
   -3.6760   17.8860  -32.1838 H   0  0  0  0  0  0  0  0  0  0  0  0
   -4.2573   17.9829  -35.1458 H   0  0  0  0  0  0  0  0  0  0  0  0
   -3.6000   16.6445  -34.1200 H   0  0  0  0  0  0  0  0  0  0  0  0
  1  2  1  0
  2  3  1  0
  3  4  1  0
  4  5  2  0
  4  6  1  0
  6  7  1  0
  7  8  1  0
  8  9  1  0
  9 10  1  0
 10 11  1  0
 11 12  1  0
 12 13  1  0
 13 14  1  0
 14 15  2  0
 14 16  1  0
 16 17  2  0
 17 18  1  0
 18 19  2  0
 19 20  1  0
 19 21  1  0
 21 22  1  0
 22 23  1  0
 21 24  2  0
 13 25  1  0
 25 26  1  0
  9 27  1  0
 27 28  1  0
 28  6  1  0
 26 10  1  0
 24 16  1  0
  1 29  1  0
  1 30  1  0
  1 31  1  0
  2 32  1  0
  2 33  1  0
  7 34  1  0
  7 35  1  0
  8 36  1  0
  8 37  1  0
  9 38  1  0
 10 39  1  6
 11 40  1  0
 11 41  1  0
 12 42  1  0
 12 43  1  0
 13 44  1  6
 17 45  1  0
 18 46  1  0
 23 47  1  0
 23 48  1  0
 23 49  1  0
 24 50  1  0
 25 51  1  0
 25 52  1  0
 26 53  1  0
 26 54  1  0
 27 55  1  0
 27 56  1  0
 28 57  1  0
 28 58  1  0
M  CHG  1  10   1
M  END
>  <UniqueID>  (31) 
30

>  <SMILES>  (31) 
CCOC(=O)N1CCC([NH+]2CCC(C(=O)c3ccc(F)c(OC)c3)CC2)CC1

>  <Energy>  (31) 
72.19779157412098

>  <Genealogy>  (31) 
CCOC(=O)N1CCC([NH+]2CCC(C(=O)c3ccc(F)c(OC)c3)CC2)CC1 (protonated)
CCOC(=O)N1CCC([NH+]2CCC(C(=O)c3ccc(F)c(OC)c3)CC2)CC1 (3D coordinates assigned)
CCOC(=O)N1CCC([NH+]2CCC(C(=O)c3ccc(F)c(OC)c3)CC2)CC1 (nonaromatic ring conformer: 72.19779157412098 kcal/mol)

>  <smiles>  (31) 
CCOC(=O)N1CCC(N2CCC(C(=O)c3ccc(F)c(OC)c3)CC2)CC1

>  <score_type>  (31) 
oracle

>  <origin>  (31) 
adg

>  <m_score__min__energy>  (31) 
-7.8600000000000003

>  <m_primary>  (31) 
energy

$$$$
31:0
     RDKit          3D

 36 39  0  0  0  0  0  0  0  0999 V2000
   -8.7590   19.3570  -31.7710 C   0  0  0  0  0  0  0  0  0  0  0  0
   -7.5520   20.5650  -32.4000 S   0  0  0  0  0  0  0  0  0  0  0  0
   -6.1440   19.8110  -33.1470 C   0  0  0  0  0  0  0  0  0  0  0  0
   -6.1880   18.8170  -34.0770 N   0  0  0  0  0  0  0  0  0  0  0  0
   -4.9150   18.5050  -34.4050 C   0  0  0  0  0  0  0  0  0  0  0  0
   -4.0870   19.3070  -33.6750 C   0  0  0  0  0  0  0  0  0  0  0  0
   -4.8600   20.1170  -32.8950 N   0  0  0  0  0  0  0  0  0  0  0  0
   -4.3110   21.0810  -32.0040 C   0  0  0  0  0  0  0  0  0  0  0  0
   -3.4000   20.6920  -31.0440 C   0  0  0  0  0  0  0  0  0  0  0  0
   -2.8360   21.5810  -30.1570 C   0  0  0  0  0  0  0  0  0  0  0  0
   -3.1490   22.9050  -30.1780 C   0  0  0  0  0  0  0  0  0  0  0  0
   -2.7700   24.0130  -29.4260 C   0  0  0  0  0  0  0  0  0  0  0  0
   -1.8900   24.1230  -28.2960 C   0  0  0  0  0  0  0  0  0  0  0  0
   -1.7200   23.1970  -27.3020 C   0  0  0  0  0  0  0  0  0  0  0  0
   -0.8940   23.3970  -26.1920 C   0  0  0  0  0  0  0  0  0  0  0  0
   -0.1900   24.5650  -26.0400 C   0  0  0  0  0  0  0  0  0  0  0  0
   -0.3410   25.5120  -27.0270 C   0  0  0  0  0  0  0  0  0  0  0  0
   -1.1680   25.3110  -28.1340 C   0  0  0  0  0  0  0  0  0  0  0  0
   -1.2200   26.3370  -29.0030 F   0  0  0  0  0  0  0  0  0  0  0  0
   -3.4830   25.0320  -29.9740 N   0  0  0  0  0  0  0  0  0  0  0  0
   -4.2320   24.6010  -30.9710 N   0  0  0  0  0  0  0  0  0  0  0  0
   -4.0730   23.2990  -31.1510 C   0  0  0  0  0  0  0  0  0  0  0  0
   -4.6400   22.4200  -32.0390 C   0  0  0  0  0  0  0  0  0  0  0  0
   -8.7488   19.3672  -30.6711 H   0  0  0  0  0  0  0  0  0  0  0  0
   -9.7642   19.6216  -32.1309 H   0  0  0  0  0  0  0  0  0  0  0  0
   -8.4935   18.3520  -32.1309 H   0  0  0  0  0  0  0  0  0  0  0  0
   -4.6019   17.7405  -35.1313 H   0  0  0  0  0  0  0  0  0  0  0  0
   -2.9875   19.3016  -33.7093 H   0  0  0  0  0  0  0  0  0  0  0  0
   -3.1134   19.6316  -30.9850 H   0  0  0  0  0  0  0  0  0  0  0  0
   -2.1146   21.2119  -29.4131 H   0  0  0  0  0  0  0  0  0  0  0  0
   -2.2630   22.2436  -27.3811 H   0  0  0  0  0  0  0  0  0  0  0  0
   -0.8073   22.6079  -25.4306 H   0  0  0  0  0  0  0  0  0  0  0  0
    0.4632   24.7360  -25.1716 H   0  0  0  0  0  0  0  0  0  0  0  0
    0.2091   26.4607  -26.9409 H   0  0  0  0  0  0  0  0  0  0  0  0
   -3.4910   26.0500  -29.7120 H   0  0  0  0  0  0  0  0  0  0  0  0
   -5.3620   22.7857  -32.7840 H   0  0  0  0  0  0  0  0  0  0  0  0
  1  2  1  0
  2  3  1  0
  3  4  2  0
  4  5  1  0
  5  6  2  0
  6  7  1  0
  7  8  1  0
  8  9  1  0
  9 10  2  0
 10 11  1  0
 11 12  2  0
 12 13  1  0
 13 14  2  0
 14 15  1  0
 15 16  2  0
 16 17  1  0
 17 18  2  0
 18 19  1  0
 12 20  1  0
 20 21  1  0
 21 22  2  0
 22 23  1  0
  7  3  1  0
 23  8  2  0
 22 11  1  0
 18 13  1  0
  1 24  1  0
  1 25  1  0
  1 26  1  0
  5 27  1  0
  6 28  1  0
  9 29  1  0
 10 30  1  0
 14 31  1  0
 15 32  1  0
 16 33  1  0
 17 34  1  0
 20 35  1  0
 23 36  1  0
M  END
>  <smiles>  (32) 
CSc1nccn1-c1ccc2c(-c3ccccc3F)[nH]nc2c1

>  <score_type>  (32) 
oracle

>  <origin>  (32) 
adg

>  <m_score__min__energy>  (32) 
-8.7899999999999991

>  <m_primary>  (32) 
energy

$$$$
32:0
     RDKit          3D

 61 64  0  0  0  0  0  0  0  0999 V2000
    0.8410   23.8720  -36.0990 C   0  0  0  0  0  0  0  0  0  0  0  0
    0.7800   22.3560  -36.0010 C   0  0  0  0  0  0  0  0  0  0  0  0
    0.3590   21.9830  -34.6920 O   0  0  0  0  0  0  0  0  0  0  0  0
   -0.4080   20.8460  -34.3990 C   0  0  0  0  0  0  0  0  0  0  0  0
    0.1180   19.5320  -34.4970 C   0  0  0  0  0  0  0  0  0  0  0  0
   -0.6880   18.4200  -34.2160 C   0  0  0  0  0  0  0  0  0  0  0  0
   -2.0050   18.6410  -33.8220 C   0  0  0  0  0  0  0  0  0  0  0  0
   -2.9230   17.6960  -33.5570 N   0  0  0  0  0  0  0  0  0  0  0  0
   -4.0560   18.3730  -33.2530 C   0  0  0  0  0  0  0  0  0  0  0  0
   -3.8650   19.7430  -33.3230 C   0  0  0  0  0  0  0  0  0  0  0  0
   -4.9170   20.6380  -33.0490 C   0  0  0  0  0  0  0  0  0  0  0  0
   -4.6940   22.0660  -32.9610 N   0  0  0  0  0  0  0  0  0  0  0  0
   -3.8390   22.3900  -31.8040 C   0  0  0  0  0  0  0  0  0  0  0  0
   -4.5990   23.2220  -30.7600 C   0  0  0  0  0  0  0  0  0  0  0  0
   -5.5200   24.1880  -31.4070 N   0  0  0  0  0  0  0  0  0  0  0  0
   -5.3520   25.5410  -30.8260 C   0  0  0  0  0  0  0  0  0  0  0  0
   -6.1640   25.6670  -29.5410 C   0  0  0  0  0  0  0  0  0  0  0  0
   -6.9230   23.7270  -31.2960 C   0  0  0  0  0  0  0  0  0  0  0  0
   -7.0880   22.7240  -30.1520 C   0  0  0  0  0  0  0  0  0  0  0  0
   -6.2130   20.0690  -32.8580 C   0  0  0  0  0  0  0  0  0  0  0  0
   -7.3630   20.8810  -32.7270 C   0  0  0  0  0  0  0  0  0  0  0  0
   -8.6260   20.3180  -32.5640 C   0  0  0  0  0  0  0  0  0  0  0  0
   -8.7800   18.9380  -32.5460 C   0  0  0  0  0  0  0  0  0  0  0  0
   -7.6720   18.1070  -32.6800 C   0  0  0  0  0  0  0  0  0  0  0  0
   -6.3660   18.6390  -32.8180 C   0  0  0  0  0  0  0  0  0  0  0  0
   -5.2630   17.8120  -32.9330 N   0  0  0  0  0  0  0  0  0  0  0  0
   -5.3700   16.3520  -32.7480 C   0  0  0  0  0  0  0  0  0  0  0  0
   -2.5290   19.9120  -33.7000 C   0  0  0  0  0  0  0  0  0  0  0  0
   -1.7460   21.0340  -34.0040 C   0  0  0  0  0  0  0  0  0  0  0  0
    0.8584   24.3044  -35.0877 H   0  0  0  0  0  0  0  0  0  0  0  0
    1.7518   24.1681  -36.6401 H   0  0  0  0  0  0  0  0  0  0  0  0
   -0.0431   24.2403  -36.6401 H   0  0  0  0  0  0  0  0  0  0  0  0
    0.0641   21.9689  -36.7410 H   0  0  0  0  0  0  0  0  0  0  0  0
    1.7762   21.9345  -36.2006 H   0  0  0  0  0  0  0  0  0  0  0  0
    1.1663   19.3847  -34.7958 H   0  0  0  0  0  0  0  0  0  0  0  0
   -0.2899   17.3984  -34.3046 H   0  0  0  0  0  0  0  0  0  0  0  0
   -2.7730   16.6670  -33.6340 H   0  0  0  0  0  0  0  0  0  0  0  0
   -4.2660   22.4180  -33.8470 H   0  0  0  0  0  0  0  0  0  0  0  0
   -5.6050   22.5690  -32.9080 H   0  0  0  0  0  0  0  0  0  0  0  0
   -3.4992   21.4538  -31.3370 H   0  0  0  0  0  0  0  0  0  0  0  0
   -2.9832   22.9815  -32.1613 H   0  0  0  0  0  0  0  0  0  0  0  0
   -5.1825   22.5454  -30.1183 H   0  0  0  0  0  0  0  0  0  0  0  0
   -3.8657   23.7865  -30.1653 H   0  0  0  0  0  0  0  0  0  0  0  0
   -4.2885   25.7107  -30.6019 H   0  0  0  0  0  0  0  0  0  0  0  0
   -5.7073   26.2891  -31.5499 H   0  0  0  0  0  0  0  0  0  0  0  0
   -5.4958   25.5633  -28.6734 H   0  0  0  0  0  0  0  0  0  0  0  0
   -6.6532   26.6518  -29.5115 H   0  0  0  0  0  0  0  0  0  0  0  0
   -6.9286   24.8768  -29.5115 H   0  0  0  0  0  0  0  0  0  0  0  0
   -7.5720   24.5951  -31.1083 H   0  0  0  0  0  0  0  0  0  0  0  0
   -7.2015   23.2303  -32.2371 H   0  0  0  0  0  0  0  0  0  0  0  0
   -7.0017   23.2487  -29.1891 H   0  0  0  0  0  0  0  0  0  0  0  0
   -8.0767   22.2470  -30.2223 H   0  0  0  0  0  0  0  0  0  0  0  0
   -6.3042   21.9554  -30.2223 H   0  0  0  0  0  0  0  0  0  0  0  0
   -7.2582   21.9757  -32.7543 H   0  0  0  0  0  0  0  0  0  0  0  0
   -9.5053   20.9689  -32.4490 H   0  0  0  0  0  0  0  0  0  0  0  0
   -9.7818   18.5001  -32.4253 H   0  0  0  0  0  0  0  0  0  0  0  0
   -7.8127   17.0160  -32.6788 H   0  0  0  0  0  0  0  0  0  0  0  0
   -5.3871   16.1189  -31.6731 H   0  0  0  0  0  0  0  0  0  0  0  0
   -6.2971   15.9900  -33.2165 H   0  0  0  0  0  0  0  0  0  0  0  0
   -4.5056   15.8587  -33.2165 H   0  0  0  0  0  0  0  0  0  0  0  0
   -2.1707   22.0464  -33.9350 H   0  0  0  0  0  0  0  0  0  0  0  0
  1  2  1  0
  2  3  1  0
  3  4  1  0
  4  5  2  0
  5  6  1  0
  6  7  2  0
  7  8  1  0
  8  9  1  0
  9 10  2  0
 10 11  1  0
 11 12  1  0
 12 13  1  0
 13 14  1  0
 14 15  1  0
 15 16  1  0
 16 17  1  0
 15 18  1  0
 18 19  1  0
 11 20  2  0
 20 21  1  0
 21 22  2  0
 22 23  1  0
 23 24  2  0
 24 25  1  0
 25 26  2  0
 26 27  1  0
 10 28  1  0
 28 29  2  0
 29  4  1  0
 28  7  1  0
 26  9  1  0
 25 20  1  0
  1 30  1  0
  1 31  1  0
  1 32  1  0
  2 33  1  0
  2 34  1  0
  5 35  1  0
  6 36  1  0
  8 37  1  0
 12 38  1  0
 12 39  1  0
 13 40  1  0
 13 41  1  0
 14 42  1  0
 14 43  1  0
 16 44  1  0
 16 45  1  0
 17 46  1  0
 17 47  1  0
 17 48  1  0
 18 49  1  0
 18 50  1  0
 19 51  1  0
 19 52  1  0
 19 53  1  0
 21 54  1  0
 22 55  1  0
 23 56  1  0
 24 57  1  0
 27 58  1  0
 27 59  1  0
 27 60  1  0
 29 61  1  0
M  CHG  2  12   1  26   1
M  END
>  <UniqueID>  (33) 
31

>  <SMILES>  (33) 
CCOc1ccc2[nH]c3c(c([NH2+]CCN(CC)CC)c4ccccc4[n+]3C)c2c1

>  <Energy>  (33) 
113.97216143455046

>  <Genealogy>  (33) 
CCOc1ccc2[nH]c3c(c([NH2+]CCN(CC)CC)c4ccccc4[n+]3C)c2c1 (protonated)
CCOc1ccc2[nH]c3c(c([NH2+]CCN(CC)CC)c4ccccc4[n+]3C)c2c1 (3D coordinates assigned)
CCOc1ccc2[nH]c3c(c([NH2+]CCN(CC)CC)c4ccccc4[n+]3C)c2c1 (optimized conformer: 113.97216143455046 kcal/mol)

>  <smiles>  (33) 
CCOc1ccc2[nH]c3c(c(NCCN(CC)CC)c4ccccc4[n+]3C)c2c1

>  <score_type>  (33) 
oracle

>  <origin>  (33) 
adg

>  <m_score__min__energy>  (33) 
-8.3200000000000003

>  <m_primary>  (33) 
energy

$$$$
33:0
     RDKit          3D

 57 58  0  0  0  0  0  0  0  0999 V2000
   -9.8130   21.3430  -31.9840 C   0  0  0  0  0  0  0  0  0  0  0  0
   -9.4820   19.9290  -32.4880 C   0  0  0  0  0  0  0  0  0  0  0  0
   -8.0370   19.6940  -32.7570 N   0  0  0  0  0  0  0  0  0  0  0  0
   -7.2180   20.9350  -32.7060 C   0  0  0  0  0  0  0  0  0  0  0  0
   -6.7390   21.2790  -31.2910 C   0  0  0  0  0  0  0  0  0  0  0  0
   -7.4760   18.6550  -31.8480 C   0  0  0  0  0  0  0  0  0  0  0  0
   -6.4960   17.7090  -32.5830 C   0  0  0  0  0  0  0  0  0  0  0  0
   -6.3620   17.9810  -33.9710 O   0  0  0  0  0  0  0  0  0  0  0  0
   -5.2280   18.7700  -34.2990 C   0  0  0  0  0  0  0  0  0  0  0  0
   -3.9060   18.2840  -33.6650 C   0  0  0  0  0  0  0  0  0  0  0  0
   -3.3850   19.2800  -32.7040 N   0  0  0  0  0  0  0  0  0  0  0  0
   -1.9160   19.2250  -32.5990 C   0  0  0  0  0  0  0  0  0  0  0  0
   -1.4630   20.0220  -31.3700 C   0  0  0  0  0  0  0  0  0  0  0  0
   -2.1810   21.3440  -31.2390 C   0  0  0  0  0  0  0  0  0  0  0  0
   -1.7510   22.2630  -30.2730 C   0  0  0  0  0  0  0  0  0  0  0  0
   -2.4470   23.4690  -30.0680 C   0  0  0  0  0  0  0  0  0  0  0  0
   -2.0420   24.4070  -29.1050 O   0  0  0  0  0  0  0  0  0  0  0  0
   -2.5850   24.5030  -27.7930 C   0  0  0  0  0  0  0  0  0  0  0  0
   -3.5830   23.7560  -30.8390 C   0  0  0  0  0  0  0  0  0  0  0  0
   -4.2550   24.9670  -30.6110 O   0  0  0  0  0  0  0  0  0  0  0  0
   -5.6600   25.0860  -30.4170 C   0  0  0  0  0  0  0  0  0  0  0  0
   -4.0170   22.8320  -31.8080 C   0  0  0  0  0  0  0  0  0  0  0  0
   -3.3360   21.6230  -31.9970 C   0  0  0  0  0  0  0  0  0  0  0  0
   -3.8030   20.6530  -33.0520 C   0  0  0  0  0  0  0  0  0  0  0  0
   -9.8145   21.3492  -30.8840 H   0  0  0  0  0  0  0  0  0  0  0  0
   -9.0562   22.0505  -32.3537 H   0  0  0  0  0  0  0  0  0  0  0  0
  -10.8052   21.6411  -32.3537 H   0  0  0  0  0  0  0  0  0  0  0  0
   -9.8121   19.2066  -31.7270 H   0  0  0  0  0  0  0  0  0  0  0  0
  -10.0036   19.8085  -33.4490 H   0  0  0  0  0  0  0  0  0  0  0  0
   -7.9900   19.3280  -33.7370 H   0  0  0  0  0  0  0  0  0  0  0  0
   -6.3373   20.8005  -33.3512 H   0  0  0  0  0  0  0  0  0  0  0  0
   -7.8551   21.7639  -33.0482 H   0  0  0  0  0  0  0  0  0  0  0  0
   -7.4020   20.8029  -30.5536 H   0  0  0  0  0  0  0  0  0  0  0  0
   -5.7118   20.9110  -31.1520 H   0  0  0  0  0  0  0  0  0  0  0  0
   -6.7596   22.3700  -31.1520 H   0  0  0  0  0  0  0  0  0  0  0  0
   -6.9398   19.1535  -31.0270 H   0  0  0  0  0  0  0  0  0  0  0  0
   -8.3118   18.0493  -31.4677 H   0  0  0  0  0  0  0  0  0  0  0  0
   -5.5054   17.8052  -32.1144 H   0  0  0  0  0  0  0  0  0  0  0  0
   -6.9088   16.6931  -32.4961 H   0  0  0  0  0  0  0  0  0  0  0  0
   -5.1082   18.7620  -35.3924 H   0  0  0  0  0  0  0  0  0  0  0  0
   -5.4183   19.7753  -33.8951 H   0  0  0  0  0  0  0  0  0  0  0  0
   -4.0864   17.3353  -33.1383 H   0  0  0  0  0  0  0  0  0  0  0  0
   -3.1631   18.1442  -34.4641 H   0  0  0  0  0  0  0  0  0  0  0  0
   -1.5944   18.1781  -32.4965 H   0  0  0  0  0  0  0  0  0  0  0  0
   -1.4665   19.6588  -33.5044 H   0  0  0  0  0  0  0  0  0  0  0  0
   -1.6606   19.4228  -30.4689 H   0  0  0  0  0  0  0  0  0  0  0  0
   -0.3903   20.2354  -31.4877 H   0  0  0  0  0  0  0  0  0  0  0  0
   -0.8598   22.0396  -29.6682 H   0  0  0  0  0  0  0  0  0  0  0  0
   -1.7834   24.3613  -27.0531 H   0  0  0  0  0  0  0  0  0  0  0  0
   -3.0393   25.4954  -27.6559 H   0  0  0  0  0  0  0  0  0  0  0  0
   -3.3520   23.7265  -27.6559 H   0  0  0  0  0  0  0  0  0  0  0  0
   -5.8811   25.1047  -29.3396 H   0  0  0  0  0  0  0  0  0  0  0  0
   -6.0166   26.0176  -30.8807 H   0  0  0  0  0  0  0  0  0  0  0  0
   -6.1682   24.2277  -30.8807 H   0  0  0  0  0  0  0  0  0  0  0  0
   -4.8997   23.0618  -32.4228 H   0  0  0  0  0  0  0  0  0  0  0  0
   -4.9001   20.6921  -33.1213 H   0  0  0  0  0  0  0  0  0  0  0  0
   -3.3553   20.9304  -34.0177 H   0  0  0  0  0  0  0  0  0  0  0  0
  1  2  1  0
  2  3  1  0
  3  4  1  0
  4  5  1  0
  3  6  1  0
  6  7  1  0
  7  8  1  0
  8  9  1  0
  9 10  1  0
 10 11  1  0
 11 12  1  0
 12 13  1  0
 13 14  1  0
 14 15  2  0
 15 16  1  0
 16 17  1  0
 17 18  1  0
 16 19  2  0
 19 20  1  0
 20 21  1  0
 19 22  1  0
 22 23  2  0
 23 24  1  0
 24 11  1  0
 23 14  1  0
  1 25  1  0
  1 26  1  0
  1 27  1  0
  2 28  1  0
  2 29  1  0
  3 30  1  0
  4 31  1  0
  4 32  1  0
  5 33  1  0
  5 34  1  0
  5 35  1  0
  6 36  1  0
  6 37  1  0
  7 38  1  0
  7 39  1  0
  9 40  1  0
  9 41  1  0
 10 42  1  0
 10 43  1  0
 12 44  1  0
 12 45  1  0
 13 46  1  0
 13 47  1  0
 15 48  1  0
 18 49  1  0
 18 50  1  0
 18 51  1  0
 21 52  1  0
 21 53  1  0
 21 54  1  0
 22 55  1  0
 24 56  1  0
 24 57  1  0
M  CHG  1   3   1
M  END
>  <UniqueID>  (34) 
32

>  <SMILES>  (34) 
CC[NH+](CC)CCOCCN1CCc2cc(OC)c(OC)cc2C1

>  <Energy>  (34) 
64.15557940675657

>  <Genealogy>  (34) 
CC[NH+](CC)CCOCCN1CCc2cc(OC)c(OC)cc2C1 (protonated)
CC[NH+](CC)CCOCCN1CCc2cc(OC)c(OC)cc2C1 (3D coordinates assigned)
CC[NH+](CC)CCOCCN1CCc2cc(OC)c(OC)cc2C1 (nonaromatic ring conformer: 64.15557940675657 kcal/mol)

>  <smiles>  (34) 
CCN(CC)CCOCCN1CCc2cc(OC)c(OC)cc2C1

>  <score_type>  (34) 
oracle

>  <origin>  (34) 
adg

>  <m_score__min__energy>  (34) 
-6.1900000000000004

>  <m_primary>  (34) 
energy

$$$$
34:0
     RDKit          3D

 40 42  0  0  0  0  0  0  0  0999 V2000
   -2.3320   22.1300  -30.7990 C   0  0  0  0  0  0  0  0  0  0  0  0
   -3.2670   22.8510  -31.5910 O   0  0  0  0  0  0  0  0  0  0  0  0
   -4.6080   22.4620  -31.6700 C   0  0  0  0  0  0  0  0  0  0  0  0
   -5.5990   23.2540  -31.0650 C   0  0  0  0  0  0  0  0  0  0  0  0
   -5.1880   24.7640  -30.2420 S   0  0  0  0  0  0  0  0  0  0  0  0
   -3.8950   25.2890  -30.8000 O   0  0  0  0  0  0  0  0  0  0  0  0
   -6.2710   25.7860  -30.4520 O   0  0  0  0  0  0  0  0  0  0  0  0
   -4.9960   24.4790  -28.5380 N   0  0  0  0  0  0  0  0  0  0  0  0
   -3.7860   23.6900  -28.2990 C   0  0  0  0  0  0  0  0  0  0  0  0
   -2.7190   24.5750  -27.7430 C   0  0  0  0  0  0  0  0  0  0  0  0
   -2.5740   24.9280  -26.4080 C   0  0  0  0  0  0  0  0  0  0  0  0
   -1.4360   25.7060  -26.1650 C   0  0  0  0  0  0  0  0  0  0  0  0
   -0.6770   25.9530  -27.3040 C   0  0  0  0  0  0  0  0  0  0  0  0
   -1.4210   25.1990  -28.6100 S   0  0  0  0  0  0  0  0  0  0  0  0
   -6.9340   22.8420  -31.0990 C   0  0  0  0  0  0  0  0  0  0  0  0
   -7.3170   21.6640  -31.7590 C   0  0  0  0  0  0  0  0  0  0  0  0
   -8.7760   21.2830  -31.7700 C   0  0  0  0  0  0  0  0  0  0  0  0
   -6.3300   20.8770  -32.4030 C   0  0  0  0  0  0  0  0  0  0  0  0
   -6.6650   19.6920  -33.0940 C   0  0  0  0  0  0  0  0  0  0  0  0
   -5.6780   18.9340  -33.7290 C   0  0  0  0  0  0  0  0  0  0  0  0
   -6.1140   17.4650  -34.5840 Cl  0  0  0  0  0  0  0  0  0  0  0  0
   -4.3470   19.3450  -33.6910 C   0  0  0  0  0  0  0  0  0  0  0  0
   -3.9920   20.5110  -33.0140 C   0  0  0  0  0  0  0  0  0  0  0  0
   -4.9690   21.2850  -32.3580 C   0  0  0  0  0  0  0  0  0  0  0  0
   -2.5484   22.2968  -29.7335 H   0  0  0  0  0  0  0  0  0  0  0  0
   -2.4106   21.0564  -31.0254 H   0  0  0  0  0  0  0  0  0  0  0  0
   -1.3137   22.4789  -31.0254 H   0  0  0  0  0  0  0  0  0  0  0  0
   -5.8190   23.9140  -28.2250 H   0  0  0  0  0  0  0  0  0  0  0  0
   -4.0075   22.8865  -27.5811 H   0  0  0  0  0  0  0  0  0  0  0  0
   -3.4415   23.2492  -29.2461 H   0  0  0  0  0  0  0  0  0  0  0  0
   -3.2815   24.6269  -25.6213 H   0  0  0  0  0  0  0  0  0  0  0  0
   -1.1676   26.0858  -25.1682 H   0  0  0  0  0  0  0  0  0  0  0  0
    0.2516   26.5413  -27.3437 H   0  0  0  0  0  0  0  0  0  0  0  0
   -7.6997   23.4530  -30.5986 H   0  0  0  0  0  0  0  0  0  0  0  0
   -9.1381   21.1884  -30.7356 H   0  0  0  0  0  0  0  0  0  0  0  0
   -9.3540   22.0603  -32.2912 H   0  0  0  0  0  0  0  0  0  0  0  0
   -8.9002   20.3223  -32.2912 H   0  0  0  0  0  0  0  0  0  0  0  0
   -7.7137   19.3623  -33.1327 H   0  0  0  0  0  0  0  0  0  0  0  0
   -3.5741   18.7477  -34.1967 H   0  0  0  0  0  0  0  0  0  0  0  0
   -2.9393   20.8294  -32.9920 H   0  0  0  0  0  0  0  0  0  0  0  0
  1  2  1  0
  2  3  1  0
  3  4  2  0
  4  5  1  0
  5  6  2  0
  5  7  2  0
  5  8  1  0
  8  9  1  0
  9 10  1  0
 10 11  2  0
 11 12  1  0
 12 13  2  0
 13 14  1  0
  4 15  1  0
 15 16  2  0
 16 17  1  0
 16 18  1  0
 18 19  2  0
 19 20  1  0
 20 21  1  0
 20 22  2  0
 22 23  1  0
 23 24  2  0
 24  3  1  0
 14 10  1  0
 24 18  1  0
  1 25  1  0
  1 26  1  0
  1 27  1  0
  8 28  1  0
  9 29  1  0
  9 30  1  0
 11 31  1  0
 12 32  1  0
 13 33  1  0
 15 34  1  0
 17 35  1  0
 17 36  1  0
 17 37  1  0
 19 38  1  0
 22 39  1  0
 23 40  1  0
M  END
>  <UniqueID>  (35) 
33

>  <SMILES>  (35) 
COc1c(S(=O)(=O)NCc2cccs2)cc(C)c2cc(Cl)ccc12

>  <Energy>  (35) 
76.3255653719292

>  <Genealogy>  (35) 
COc1c(S(=O)(=O)NCc2cccs2)cc(C)c2cc(Cl)ccc12 (3D coordinates assigned)
COc1c(S(=O)(=O)NCc2cccs2)cc(C)c2cc(Cl)ccc12 (optimized conformer: 76.3255653719292 kcal/mol)

>  <smiles>  (35) 
COc1c(S(=O)(=O)NCc2cccs2)cc(C)c2cc(Cl)ccc12

>  <score_type>  (35) 
oracle

>  <origin>  (35) 
adg

>  <m_score__min__energy>  (35) 
-10.199999999999999

>  <m_primary>  (35) 
energy

$$$$
35:0
     RDKit          3D

 49 52  0  0  0  0  0  0  0  0999 V2000
    0.9540   23.5020  -27.7550 C   0  0  0  0  0  0  0  0  0  0  0  0
    0.9380   24.9230  -27.6640 O   0  0  0  0  0  0  0  0  0  0  0  0
    0.5230   25.6470  -26.5360 C   0  0  0  0  0  0  0  0  0  0  0  0
    1.4530   26.2530  -25.6650 C   0  0  0  0  0  0  0  0  0  0  0  0
    1.0140   26.9950  -24.5670 C   0  0  0  0  0  0  0  0  0  0  0  0
   -0.3500   27.1440  -24.3230 C   0  0  0  0  0  0  0  0  0  0  0  0
   -1.2820   26.5450  -25.1720 C   0  0  0  0  0  0  0  0  0  0  0  0
   -0.8580   25.7870  -26.2790 C   0  0  0  0  0  0  0  0  0  0  0  0
   -1.8370   25.1630  -27.1350 N   0  0  0  0  0  0  0  0  0  0  0  0
   -3.0100   24.4960  -26.5590 C   0  0  0  0  0  0  0  0  0  0  0  0
   -4.1890   24.5780  -27.5320 C   0  0  0  0  0  0  0  0  0  0  0  0
   -3.8660   23.9670  -28.8400 N   0  0  0  0  0  0  0  0  0  0  0  0
   -4.9970   24.5250  -30.0490 S   0  0  0  0  0  0  0  0  0  0  0  0
   -6.1240   25.2730  -29.3890 O   0  0  0  0  0  0  0  0  0  0  0  0
   -4.3010   25.4530  -31.0040 O   0  0  0  0  0  0  0  0  0  0  0  0
   -5.6350   23.1550  -30.9550 C   0  0  0  0  0  0  0  0  0  0  0  0
   -4.8840   22.5710  -31.9890 C   0  0  0  0  0  0  0  0  0  0  0  0
   -5.4090   21.5010  -32.7230 C   0  0  0  0  0  0  0  0  0  0  0  0
   -6.6880   21.0190  -32.4310 C   0  0  0  0  0  0  0  0  0  0  0  0
   -7.4310   21.5840  -31.3870 C   0  0  0  0  0  0  0  0  0  0  0  0
   -6.9140   22.6610  -30.6620 C   0  0  0  0  0  0  0  0  0  0  0  0
   -8.6910   21.0570  -31.0870 O   0  0  0  0  0  0  0  0  0  0  0  0
   -9.1130   19.8010  -31.6240 C   0  0  0  0  0  0  0  0  0  0  0  0
   -8.6350   19.6570  -33.0750 C   0  0  0  0  0  0  0  0  0  0  0  0
   -7.2440   19.9720  -33.1740 O   0  0  0  0  0  0  0  0  0  0  0  0
   -2.4660   24.1660  -29.2930 C   0  0  0  0  0  0  0  0  0  0  0  0
   -1.7570   25.3320  -28.5910 C   0  0  0  0  0  0  0  0  0  0  0  0
    0.9589   23.0698  -26.7435 H   0  0  0  0  0  0  0  0  0  0  0  0
    0.0597   23.1591  -28.2959 H   0  0  0  0  0  0  0  0  0  0  0  0
    1.8558   23.1794  -28.2959 H   0  0  0  0  0  0  0  0  0  0  0  0
    2.5310   26.1400  -25.8524 H   0  0  0  0  0  0  0  0  0  0  0  0
    1.7464   27.4631  -23.8929 H   0  0  0  0  0  0  0  0  0  0  0  0
   -0.6925   27.7343  -23.4603 H   0  0  0  0  0  0  0  0  0  0  0  0
   -2.3572   26.6666  -24.9740 H   0  0  0  0  0  0  0  0  0  0  0  0
   -2.7702   23.4401  -26.3654 H   0  0  0  0  0  0  0  0  0  0  0  0
   -3.2833   24.9951  -25.6176 H   0  0  0  0  0  0  0  0  0  0  0  0
   -5.0488   24.0493  -27.0948 H   0  0  0  0  0  0  0  0  0  0  0  0
   -4.4210   25.6402  -27.6990 H   0  0  0  0  0  0  0  0  0  0  0  0
   -3.8803   22.9559  -32.2224 H   0  0  0  0  0  0  0  0  0  0  0  0
   -4.8166   21.0407  -33.5275 H   0  0  0  0  0  0  0  0  0  0  0  0
   -7.5109   23.1215  -29.8609 H   0  0  0  0  0  0  0  0  0  0  0  0
   -8.6884   18.9862  -31.0191 H   0  0  0  0  0  0  0  0  0  0  0  0
  -10.2117   19.7523  -31.6018 H   0  0  0  0  0  0  0  0  0  0  0  0
   -8.7970   18.6216  -33.4091 H   0  0  0  0  0  0  0  0  0  0  0  0
   -9.2047   20.3519  -33.7095 H   0  0  0  0  0  0  0  0  0  0  0  0
   -1.9008   23.2436  -29.0936 H   0  0  0  0  0  0  0  0  0  0  0  0
   -2.5035   24.4077  -30.3655 H   0  0  0  0  0  0  0  0  0  0  0  0
   -0.7009   25.3544  -28.8979 H   0  0  0  0  0  0  0  0  0  0  0  0
   -2.2468   26.2757  -28.8730 H   0  0  0  0  0  0  0  0  0  0  0  0
  1  2  1  0
  2  3  1  0
  3  4  2  0
  4  5  1  0
  5  6  2  0
  6  7  1  0
  7  8  2  0
  8  9  1  0
  9 10  1  0
 10 11  1  0
 11 12  1  0
 12 13  1  0
 13 14  2  0
 13 15  2  0
 13 16  1  0
 16 17  2  0
 17 18  1  0
 18 19  2  0
 19 20  1  0
 20 21  2  0
 20 22  1  0
 22 23  1  0
 23 24  1  0
 24 25  1  0
 12 26  1  0
 26 27  1  0
  8  3  1  0
 27  9  1  0
 21 16  1  0
 25 19  1  0
  1 28  1  0
  1 29  1  0
  1 30  1  0
  4 31  1  0
  5 32  1  0
  6 33  1  0
  7 34  1  0
 10 35  1  0
 10 36  1  0
 11 37  1  0
 11 38  1  0
 17 39  1  0
 18 40  1  0
 21 41  1  0
 23 42  1  0
 23 43  1  0
 24 44  1  0
 24 45  1  0
 26 46  1  0
 26 47  1  0
 27 48  1  0
 27 49  1  0
M  END
>  <UniqueID>  (36) 
34

>  <SMILES>  (36) 
COc1ccccc1N1CCN(S(=O)(=O)c2ccc3c(c2)OCCO3)CC1

>  <Energy>  (36) 
61.885073565592485

>  <Genealogy>  (36) 
COc1ccccc1N1CCN(S(=O)(=O)c2ccc3c(c2)OCCO3)CC1 (3D coordinates assigned)
COc1ccccc1N1CCN(S(=O)(=O)c2ccc3c(c2)OCCO3)CC1 (nonaromatic ring conformer: 61.885073565592485 kcal/mol)

>  <smiles>  (36) 
COc1ccccc1N1CCN(S(=O)(=O)c2ccc3c(c2)OCCO3)CC1

>  <score_type>  (36) 
oracle

>  <origin>  (36) 
adg

>  <m_score__min__energy>  (36) 
-8.6799999999999997

>  <m_primary>  (36) 
energy

$$$$
36:0
     RDKit          3D

 52 53  0  0  0  0  0  0  0  0999 V2000
   -0.9700   21.0780  -33.6590 C   0  0  0  0  0  0  0  0  0  0  0  0
   -2.4660   20.8070  -33.5620 C   0  0  0  0  0  0  0  0  0  0  0  0
   -2.7120   19.7330  -32.5650 N   0  0  0  0  0  0  0  0  0  0  0  0
   -2.9540   18.4410  -33.2490 C   0  0  0  0  0  0  0  0  0  0  0  0
   -4.0640   18.5470  -34.2930 C   0  0  0  0  0  0  0  0  0  0  0  0
   -1.5990   19.6310  -31.5900 C   0  0  0  0  0  0  0  0  0  0  0  0
   -1.9250   20.3740  -30.2830 C   0  0  0  0  0  0  0  0  0  0  0  0
   -3.1840   21.1290  -30.4020 N   0  0  0  0  0  0  0  0  0  0  0  0
   -2.9800   22.5760  -30.5980 C   0  0  0  0  0  0  0  0  0  0  0  0
   -4.3010   23.3080  -30.5550 C   0  0  0  0  0  0  0  0  0  0  0  0
   -4.5290   24.2310  -29.5180 C   0  0  0  0  0  0  0  0  0  0  0  0
   -5.7240   24.9480  -29.4510 C   0  0  0  0  0  0  0  0  0  0  0  0
   -6.7110   24.7550  -30.4140 C   0  0  0  0  0  0  0  0  0  0  0  0
   -6.5050   23.8470  -31.4530 C   0  0  0  0  0  0  0  0  0  0  0  0
   -5.3020   23.1250  -31.5490 C   0  0  0  0  0  0  0  0  0  0  0  0
   -5.1660   22.1190  -32.6700 C   0  0  0  0  0  0  0  0  0  0  0  0
   -5.4940   20.7740  -32.1920 N   0  0  0  0  0  0  0  0  0  0  0  0
   -6.8410   20.2720  -32.1620 C   0  0  0  0  0  0  0  0  0  0  0  0
   -7.9360   21.1410  -32.3370 C   0  0  0  0  0  0  0  0  0  0  0  0
   -9.2410   20.6420  -32.3470 C   0  0  0  0  0  0  0  0  0  0  0  0
   -9.4710   19.2760  -32.1830 C   0  0  0  0  0  0  0  0  0  0  0  0
   -8.3950   18.4040  -32.0030 C   0  0  0  0  0  0  0  0  0  0  0  0
   -7.0830   18.8920  -31.9890 C   0  0  0  0  0  0  0  0  0  0  0  0
   -5.7690   17.7570  -31.6960 Cl  0  0  0  0  0  0  0  0  0  0  0  0
   -0.5450   21.1550  -32.6474 H   0  0  0  0  0  0  0  0  0  0  0  0
   -0.4823   20.2536  -34.1998 H   0  0  0  0  0  0  0  0  0  0  0  0
   -0.8025   22.0211  -34.1998 H   0  0  0  0  0  0  0  0  0  0  0  0
   -2.9851   21.7246  -33.2479 H   0  0  0  0  0  0  0  0  0  0  0  0
   -2.8451   20.4887  -34.5443 H   0  0  0  0  0  0  0  0  0  0  0  0
   -2.0263   18.1236  -33.7476 H   0  0  0  0  0  0  0  0  0  0  0  0
   -3.2683   17.7083  -32.4912 H   0  0  0  0  0  0  0  0  0  0  0  0
   -5.0361   18.6398  -33.7865 H   0  0  0  0  0  0  0  0  0  0  0  0
   -3.8923   19.4328  -34.9221 H   0  0  0  0  0  0  0  0  0  0  0  0
   -4.0630   17.6447  -34.9221 H   0  0  0  0  0  0  0  0  0  0  0  0
   -1.4190   18.5699  -31.3627 H   0  0  0  0  0  0  0  0  0  0  0  0
   -0.7058   20.0927  -32.0361 H   0  0  0  0  0  0  0  0  0  0  0  0
   -2.0209   19.6417  -29.4678 H   0  0  0  0  0  0  0  0  0  0  0  0
   -1.1110   21.0832  -30.0719 H   0  0  0  0  0  0  0  0  0  0  0  0
   -3.6930   20.7610  -31.2400 H   0  0  0  0  0  0  0  0  0  0  0  0
   -2.3270   22.9606  -29.8007 H   0  0  0  0  0  0  0  0  0  0  0  0
   -2.5150   22.7394  -31.5814 H   0  0  0  0  0  0  0  0  0  0  0  0
   -3.7563   24.3892  -28.7513 H   0  0  0  0  0  0  0  0  0  0  0  0
   -5.8869   25.6677  -28.6352 H   0  0  0  0  0  0  0  0  0  0  0  0
   -7.6537   25.3188  -30.3555 H   0  0  0  0  0  0  0  0  0  0  0  0
   -7.2925   23.6941  -32.2056 H   0  0  0  0  0  0  0  0  0  0  0  0
   -5.8517   22.3908  -33.4860 H   0  0  0  0  0  0  0  0  0  0  0  0
   -4.1270   22.1257  -33.0311 H   0  0  0  0  0  0  0  0  0  0  0  0
   -4.7400   20.1940  -31.7640 H   0  0  0  0  0  0  0  0  0  0  0  0
   -7.7624   22.2195  -32.4666 H   0  0  0  0  0  0  0  0  0  0  0  0
  -10.0895   21.3283  -32.4846 H   0  0  0  0  0  0  0  0  0  0  0  0
  -10.4994   18.8858  -32.1954 H   0  0  0  0  0  0  0  0  0  0  0  0
   -8.5795   17.3276  -31.8715 H   0  0  0  0  0  0  0  0  0  0  0  0
  1  2  1  0
  2  3  1  0
  3  4  1  0
  4  5  1  0
  3  6  1  0
  6  7  1  0
  7  8  1  0
  8  9  1  0
  9 10  1  0
 10 11  2  0
 11 12  1  0
 12 13  2  0
 13 14  1  0
 14 15  2  0
 15 16  1  0
 16 17  1  0
 17 18  1  0
 18 19  2  0
 19 20  1  0
 20 21  2  0
 21 22  1  0
 22 23  2  0
 23 24  1  0
 15 10  1  0
 23 18  1  0
  1 25  1  0
  1 26  1  0
  1 27  1  0
  2 28  1  0
  2 29  1  0
  4 30  1  0
  4 31  1  0
  5 32  1  0
  5 33  1  0
  5 34  1  0
  6 35  1  0
  6 36  1  0
  7 37  1  0
  7 38  1  0
  8 39  1  0
  9 40  1  0
  9 41  1  0
 11 42  1  0
 12 43  1  0
 13 44  1  0
 14 45  1  0
 16 46  1  0
 16 47  1  0
 17 48  1  0
 19 49  1  0
 20 50  1  0
 21 51  1  0
 22 52  1  0
M  END
>  <UniqueID>  (37) 
35

>  <SMILES>  (37) 
CCN(CC)CCNCc1ccccc1CNc1ccccc1Cl

>  <Energy>  (37) 
50.11080162239027

>  <Genealogy>  (37) 
CCN(CC)CCNCc1ccccc1CNc1ccccc1Cl (3D coordinates assigned)
CCN(CC)CCNCc1ccccc1CNc1ccccc1Cl (optimized conformer: 50.11080162239027 kcal/mol)

>  <smiles>  (37) 
CCN(CC)CCNCc1ccccc1CNc1ccccc1Cl

>  <score_type>  (37) 
oracle

>  <origin>  (37) 
adg

>  <m_score__min__energy>  (37) 
-7.9500000000000002

>  <m_primary>  (37) 
energy

$$$$
37:0
     RDKit          3D

 51 54  0  0  0  0  0  0  0  0999 V2000
   -0.4650   22.7470  -25.4260 C   0  0  0  0  0  0  0  0  0  0  0  0
   -0.3000   21.5720  -26.3000 N   0  0  0  0  0  0  0  0  0  0  0  0
   -1.6040   21.2030  -26.8730 C   0  0  0  0  0  0  0  0  0  0  0  0
    0.6880   21.8370  -27.3730 C   0  0  0  0  0  0  0  0  0  0  0  0
    1.2160   23.2730  -27.2790 C   0  0  0  0  0  0  0  0  0  0  0  0
    0.5690   24.1370  -28.2130 O   0  0  0  0  0  0  0  0  0  0  0  0
   -0.7790   24.0570  -28.6010 C   0  0  0  0  0  0  0  0  0  0  0  0
   -1.8180   24.6820  -27.8870 C   0  0  0  0  0  0  0  0  0  0  0  0
   -3.1420   24.5720  -28.3230 C   0  0  0  0  0  0  0  0  0  0  0  0
   -3.4570   23.8360  -29.4810 C   0  0  0  0  0  0  0  0  0  0  0  0
   -4.8570   23.7040  -29.9640 C   0  0  0  0  0  0  0  0  0  0  0  0
   -5.8090   24.7280  -29.9190 C   0  0  0  0  0  0  0  0  0  0  0  0
   -7.2370   24.1360  -30.5780 S   0  0  0  0  0  0  0  0  0  0  0  0
   -6.6050   22.6090  -30.8970 C   0  0  0  0  0  0  0  0  0  0  0  0
   -7.3320   21.4790  -31.5200 C   0  0  0  0  0  0  0  0  0  0  0  0
   -8.7310   21.3810  -31.4230 C   0  0  0  0  0  0  0  0  0  0  0  0
   -9.4060   20.3090  -32.0100 C   0  0  0  0  0  0  0  0  0  0  0  0
   -8.6970   19.3240  -32.7000 C   0  0  0  0  0  0  0  0  0  0  0  0
   -7.2970   19.4000  -32.8130 C   0  0  0  0  0  0  0  0  0  0  0  0
   -6.5650   18.3830  -33.5270 N   0  0  0  0  0  0  0  0  0  0  0  0
   -6.5720   17.0540  -33.2920 C   0  0  0  0  0  0  0  0  0  0  0  0
   -5.7350   16.4460  -34.2030 C   0  0  0  0  0  0  0  0  0  0  0  0
   -5.2120   17.3910  -35.0030 N   0  0  0  0  0  0  0  0  0  0  0  0
   -5.7290   18.5580  -34.5750 C   0  0  0  0  0  0  0  0  0  0  0  0
   -6.6250   20.4830  -32.2170 C   0  0  0  0  0  0  0  0  0  0  0  0
   -5.3120   22.5410  -30.5100 N   0  0  0  0  0  0  0  0  0  0  0  0
   -2.4140   23.2050  -30.1820 C   0  0  0  0  0  0  0  0  0  0  0  0
   -1.0920   23.3160  -29.7440 C   0  0  0  0  0  0  0  0  0  0  0  0
   -0.4205   22.4303  -24.3735 H   0  0  0  0  0  0  0  0  0  0  0  0
    0.3406   23.4688  -25.6260 H   0  0  0  0  0  0  0  0  0  0  0  0
   -1.4382   23.2190  -25.6260 H   0  0  0  0  0  0  0  0  0  0  0  0
   -2.3176   21.0011  -26.0606 H   0  0  0  0  0  0  0  0  0  0  0  0
   -1.9792   22.0302  -27.4934 H   0  0  0  0  0  0  0  0  0  0  0  0
   -1.4901   20.3018  -27.4934 H   0  0  0  0  0  0  0  0  0  0  0  0
    1.5290   21.1354  -27.2711 H   0  0  0  0  0  0  0  0  0  0  0  0
    0.1964   21.7035  -28.3480 H   0  0  0  0  0  0  0  0  0  0  0  0
    1.0389   23.6518  -26.2616 H   0  0  0  0  0  0  0  0  0  0  0  0
    2.2906   23.2586  -27.5136 H   0  0  0  0  0  0  0  0  0  0  0  0
   -1.5873   25.2606  -26.9804 H   0  0  0  0  0  0  0  0  0  0  0  0
   -3.9451   25.0652  -27.7558 H   0  0  0  0  0  0  0  0  0  0  0  0
   -5.6508   25.7417  -29.5223 H   0  0  0  0  0  0  0  0  0  0  0  0
   -9.2971   22.1533  -30.8816 H   0  0  0  0  0  0  0  0  0  0  0  0
  -10.5008   20.2403  -31.9285 H   0  0  0  0  0  0  0  0  0  0  0  0
   -9.2370   18.4825  -33.1585 H   0  0  0  0  0  0  0  0  0  0  0  0
   -7.1480   16.5427  -32.5066 H   0  0  0  0  0  0  0  0  0  0  0  0
   -5.5294   15.3672  -34.2649 H   0  0  0  0  0  0  0  0  0  0  0  0
   -4.5460   17.2500  -35.7950 H   0  0  0  0  0  0  0  0  0  0  0  0
   -5.4991   19.5357  -35.0237 H   0  0  0  0  0  0  0  0  0  0  0  0
   -5.5301   20.5517  -32.2975 H   0  0  0  0  0  0  0  0  0  0  0  0
   -2.6413   22.6182  -31.0842 H   0  0  0  0  0  0  0  0  0  0  0  0
   -0.2891   22.8150  -30.3046 H   0  0  0  0  0  0  0  0  0  0  0  0
  1  2  1  0
  2  3  1  0
  2  4  1  0
  4  5  1  0
  5  6  1  0
  6  7  1  0
  7  8  2  0
  8  9  1  0
  9 10  2  0
 10 11  1  0
 11 12  2  0
 12 13  1  0
 13 14  1  0
 14 15  1  0
 15 16  2  0
 16 17  1  0
 17 18  2  0
 18 19  1  0
 19 20  1  0
 20 21  1  0
 21 22  2  0
 22 23  1  0
 23 24  2  0
 19 25  2  0
 14 26  2  0
 10 27  1  0
 27 28  2  0
 28  7  1  0
 26 11  1  0
 25 15  1  0
 24 20  1  0
  1 29  1  0
  1 30  1  0
  1 31  1  0
  3 32  1  0
  3 33  1  0
  3 34  1  0
  4 35  1  0
  4 36  1  0
  5 37  1  0
  5 38  1  0
  8 39  1  0
  9 40  1  0
 12 41  1  0
 16 42  1  0
 17 43  1  0
 18 44  1  0
 21 45  1  0
 22 46  1  0
 23 47  1  0
 24 48  1  0
 25 49  1  0
 27 50  1  0
 28 51  1  0
M  CHG  1  23   1
M  END
>  <UniqueID>  (38) 
36

>  <SMILES>  (38) 
CN(C)CCOc1ccc(-c2csc(-c3cccc(-n4cc[nH+]c4)c3)n2)cc1

>  <Energy>  (38) 
121.47409528780275

>  <Genealogy>  (38) 
CN(C)CCOc1ccc(-c2csc(-c3cccc(-n4cc[nH+]c4)c3)n2)cc1 (protonated)
CN(C)CCOc1ccc(-c2csc(-c3cccc(-n4cc[nH+]c4)c3)n2)cc1 (3D coordinates assigned)
CN(C)CCOc1ccc(-c2csc(-c3cccc(-n4cc[nH+]c4)c3)n2)cc1 (optimized conformer: 121.47409528780275 kcal/mol)

>  <smiles>  (38) 
CN(C)CCOc1ccc(-c2csc(-c3cccc(-n4ccnc4)c3)n2)cc1

>  <score_type>  (38) 
oracle

>  <origin>  (38) 
adg

>  <m_score__min__energy>  (38) 
-8.0800000000000001

>  <m_primary>  (38) 
energy

$$$$
38:0
     RDKit          3D

 64 67  0  0  0  0  0  0  0  0999 V2000
   -4.1000   17.3860  -35.0600 C   0  0  0  0  0  0  0  0  0  0  0  0
   -3.7820   16.4110  -33.9100 C   0  0  0  0  0  0  0  0  0  0  0  0
   -4.9680   15.7700  -33.2580 N   0  0  0  0  0  0  0  0  0  0  0  0
   -6.0860   15.4690  -34.1910 C   0  0  0  0  0  0  0  0  0  0  0  0
   -6.4170   13.9720  -34.2760 C   0  0  0  0  0  0  0  0  0  0  0  0
   -5.3740   16.4430  -31.9910 C   0  0  0  0  0  0  0  0  0  0  0  0
   -6.4820   17.5140  -32.1040 C   0  0  0  0  0  0  0  0  0  0  0  0
   -6.1350   18.5940  -33.0340 N   0  0  0  0  0  0  0  0  0  0  0  0
   -6.1510   19.9600  -32.5780 C   0  0  0  0  0  0  0  0  0  0  0  0
   -7.3780   20.6070  -32.3410 C   0  0  0  0  0  0  0  0  0  0  0  0
   -8.6070   19.9450  -32.5540 C   0  0  0  0  0  0  0  0  0  0  0  0
   -9.8160   20.6030  -32.3370 C   0  0  0  0  0  0  0  0  0  0  0  0
   -9.8230   21.9250  -31.9060 C   0  0  0  0  0  0  0  0  0  0  0  0
   -8.6200   22.5970  -31.6820 C   0  0  0  0  0  0  0  0  0  0  0  0
   -7.3760   21.9550  -31.8940 C   0  0  0  0  0  0  0  0  0  0  0  0
   -6.1820   22.6110  -31.6750 N   0  0  0  0  0  0  0  0  0  0  0  0
   -6.1700   24.0890  -31.7310 C   0  0  0  0  0  0  0  0  0  0  0  0
   -4.9970   21.8970  -31.6390 C   0  0  0  0  0  0  0  0  0  0  0  0
   -4.9510   20.6210  -32.2580 C   0  0  0  0  0  0  0  0  0  0  0  0
   -3.7070   20.0460  -32.5620 C   0  0  0  0  0  0  0  0  0  0  0  0
   -2.5230   20.6400  -32.1410 C   0  0  0  0  0  0  0  0  0  0  0  0
   -2.5570   21.7760  -31.3290 C   0  0  0  0  0  0  0  0  0  0  0  0
   -1.3660   22.2720  -30.7800 C   0  0  0  0  0  0  0  0  0  0  0  0
   -1.3910   23.3330  -29.8610 C   0  0  0  0  0  0  0  0  0  0  0  0
   -0.2160   23.8620  -29.2990 O   0  0  0  0  0  0  0  0  0  0  0  0
    0.2460   23.5850  -27.9810 C   0  0  0  0  0  0  0  0  0  0  0  0
   -2.6190   23.8780  -29.4660 C   0  0  0  0  0  0  0  0  0  0  0  0
   -2.6120   24.9020  -28.5050 O   0  0  0  0  0  0  0  0  0  0  0  0
   -2.9580   24.7280  -27.1340 C   0  0  0  0  0  0  0  0  0  0  0  0
   -3.8130   23.3860  -30.0270 C   0  0  0  0  0  0  0  0  0  0  0  0
   -3.7990   22.3900  -31.0250 C   0  0  0  0  0  0  0  0  0  0  0  0
   -4.4157   18.3539  -34.6434 H   0  0  0  0  0  0  0  0  0  0  0  0
   -3.2018   17.5286  -35.6788 H   0  0  0  0  0  0  0  0  0  0  0  0
   -4.9095   16.9716  -35.6788 H   0  0  0  0  0  0  0  0  0  0  0  0
   -3.1431   15.6107  -34.3118 H   0  0  0  0  0  0  0  0  0  0  0  0
   -3.2991   17.0155  -33.1281 H   0  0  0  0  0  0  0  0  0  0  0  0
   -4.6130   14.8330  -32.9440 H   0  0  0  0  0  0  0  0  0  0  0  0
   -6.9823   16.0062  -33.8474 H   0  0  0  0  0  0  0  0  0  0  0  0
   -5.7701   15.7913  -35.1942 H   0  0  0  0  0  0  0  0  0  0  0  0
   -6.5084   13.5585  -33.2608 H   0  0  0  0  0  0  0  0  0  0  0  0
   -7.3668   13.8365  -34.8140 H   0  0  0  0  0  0  0  0  0  0  0  0
   -5.6129   13.4487  -34.8140 H   0  0  0  0  0  0  0  0  0  0  0  0
   -5.7298   15.6657  -31.2988 H   0  0  0  0  0  0  0  0  0  0  0  0
   -4.4795   16.9843  -31.6491 H   0  0  0  0  0  0  0  0  0  0  0  0
   -7.4046   17.0296  -32.4563 H   0  0  0  0  0  0  0  0  0  0  0  0
   -6.6118   17.9630  -31.1082 H   0  0  0  0  0  0  0  0  0  0  0  0
   -6.2100   18.4360  -34.0600 H   0  0  0  0  0  0  0  0  0  0  0  0
   -8.6100   18.8991  -32.8947 H   0  0  0  0  0  0  0  0  0  0  0  0
  -10.7664   20.0758  -32.5069 H   0  0  0  0  0  0  0  0  0  0  0  0
  -10.7793   22.4429  -31.7410 H   0  0  0  0  0  0  0  0  0  0  0  0
   -8.6389   23.6409  -31.3356 H   0  0  0  0  0  0  0  0  0  0  0  0
   -6.1667   24.4947  -30.7085 H   0  0  0  0  0  0  0  0  0  0  0  0
   -5.2691   24.4285  -32.2631 H   0  0  0  0  0  0  0  0  0  0  0  0
   -7.0653   24.4431  -32.2631 H   0  0  0  0  0  0  0  0  0  0  0  0
   -3.6687   19.1119  -33.1417 H   0  0  0  0  0  0  0  0  0  0  0  0
   -1.5564   20.2142  -32.4482 H   0  0  0  0  0  0  0  0  0  0  0  0
   -0.4038   21.8260  -31.0719 H   0  0  0  0  0  0  0  0  0  0  0  0
   -0.4584   24.0073  -27.2492 H   0  0  0  0  0  0  0  0  0  0  0  0
    0.3148   22.4965  -27.8378 H   0  0  0  0  0  0  0  0  0  0  0  0
    1.2385   24.0371  -27.8378 H   0  0  0  0  0  0  0  0  0  0  0  0
   -2.1554   25.1316  -26.4992 H   0  0  0  0  0  0  0  0  0  0  0  0
   -3.8964   25.2614  -26.9221 H   0  0  0  0  0  0  0  0  0  0  0  0
   -3.0894   23.6566  -26.9221 H   0  0  0  0  0  0  0  0  0  0  0  0
   -4.7766   23.7869  -29.6796 H   0  0  0  0  0  0  0  0  0  0  0  0
  1  2  1  0
  2  3  1  0
  3  4  1  0
  4  5  1  0
  3  6  1  0
  6  7  1  0
  7  8  1  0
  8  9  1  0
  9 10  2  0
 10 11  1  0
 11 12  2  0
 12 13  1  0
 13 14  2  0
 14 15  1  0
 15 16  2  0
 16 17  1  0
 16 18  1  0
 18 19  2  0
 19 20  1  0
 20 21  2  0
 21 22  1  0
 22 23  2  0
 23 24  1  0
 24 25  1  0
 25 26  1  0
 24 27  2  0
 27 28  1  0
 28 29  1  0
 27 30  1  0
 30 31  2  0
 19  9  1  0
 31 22  1  0
 15 10  1  0
 31 18  1  0
  1 32  1  0
  1 33  1  0
  1 34  1  0
  2 35  1  0
  2 36  1  0
  3 37  1  0
  4 38  1  0
  4 39  1  0
  5 40  1  0
  5 41  1  0
  5 42  1  0
  6 43  1  0
  6 44  1  0
  7 45  1  0
  7 46  1  0
  8 47  1  0
 11 48  1  0
 12 49  1  0
 13 50  1  0
 14 51  1  0
 17 52  1  0
 17 53  1  0
 17 54  1  0
 20 55  1  0
 21 56  1  0
 23 57  1  0
 26 58  1  0
 26 59  1  0
 26 60  1  0
 29 61  1  0
 29 62  1  0
 29 63  1  0
 30 64  1  0
M  CHG  2   3   1  16   1
M  END
>  <UniqueID>  (39) 
37

>  <SMILES>  (39) 
CC[NH+](CC)CCNc1c2ccccc2[n+](C)c2c1ccc1cc(OC)c(OC)cc12

>  <Energy>  (39) 
118.70263844680045

>  <Genealogy>  (39) 
CC[NH+](CC)CCNc1c2ccccc2[n+](C)c2c1ccc1cc(OC)c(OC)cc12 (protonated)
CC[NH+](CC)CCNc1c2ccccc2[n+](C)c2c1ccc1cc(OC)c(OC)cc12 (3D coordinates assigned)
CC[NH+](CC)CCNc1c2ccccc2[n+](C)c2c1ccc1cc(OC)c(OC)cc12 (optimized conformer: 118.70263844680045 kcal/mol)

>  <smiles>  (39) 
CCN(CC)CCNc1c2ccccc2[n+](C)c2c1ccc1cc(OC)c(OC)cc12

>  <score_type>  (39) 
oracle

>  <origin>  (39) 
adg

>  <m_score__min__energy>  (39) 
-7.3399999999999999

>  <m_primary>  (39) 
energy

$$$$
39:0
     RDKit          3D

 50 51  0  0  0  0  0  0  0  0999 V2000
   -6.7800   15.6210  -34.1330 C   0  0  0  0  0  0  0  0  0  0  0  0
   -5.2920   15.9170  -33.9740 C   0  0  0  0  0  0  0  0  0  0  0  0
   -4.9380   17.0610  -34.7280 O   0  0  0  0  0  0  0  0  0  0  0  0
   -4.6470   18.1640  -33.8880 C   0  0  0  0  0  0  0  0  0  0  0  0
   -5.5220   18.1420  -32.6250 C   0  0  0  0  0  0  0  0  0  0  0  0
   -6.8670   18.7200  -32.8720 N   0  0  0  0  0  0  0  0  0  0  0  0
   -7.7390   18.5710  -31.6750 C   0  0  0  0  0  0  0  0  0  0  0  0
   -9.0650   19.3590  -31.7650 C   0  0  0  0  0  0  0  0  0  0  0  0
   -8.9920   20.7800  -31.1550 C   0  0  0  0  0  0  0  0  0  0  0  0
   -8.2090   21.6980  -32.0110 N   0  0  0  0  0  0  0  0  0  0  0  0
   -8.1690   23.0580  -31.4340 C   0  0  0  0  0  0  0  0  0  0  0  0
   -6.7650   23.4460  -31.0880 C   0  0  0  0  0  0  0  0  0  0  0  0
   -6.0960   22.9980  -30.0130 N   0  0  0  0  0  0  0  0  0  0  0  0
   -4.9090   23.6280  -30.1230 C   0  0  0  0  0  0  0  0  0  0  0  0
   -3.7740   23.4860  -29.1480 C   0  0  0  0  0  0  0  0  0  0  0  0
   -4.2390   22.7450  -27.8890 C   0  0  0  0  0  0  0  0  0  0  0  0
   -2.5900   22.7680  -29.8020 C   0  0  0  0  0  0  0  0  0  0  0  0
   -4.8650   24.4180  -31.2160 N   0  0  0  0  0  0  0  0  0  0  0  0
   -6.0280   24.2780  -31.7840 O   0  0  0  0  0  0  0  0  0  0  0  0
   -6.8400   21.1950  -32.2890 C   0  0  0  0  0  0  0  0  0  0  0  0
   -6.7560   20.1080  -33.3860 C   0  0  0  0  0  0  0  0  0  0  0  0
   -7.2437   15.5288  -33.1398 H   0  0  0  0  0  0  0  0  0  0  0  0
   -7.2599   16.4413  -34.6869 H   0  0  0  0  0  0  0  0  0  0  0  0
   -6.9094   14.6795  -34.6869 H   0  0  0  0  0  0  0  0  0  0  0  0
   -5.0690   16.0984  -32.9122 H   0  0  0  0  0  0  0  0  0  0  0  0
   -4.7137   15.0547  -34.3372 H   0  0  0  0  0  0  0  0  0  0  0  0
   -3.5883   18.1214  -33.5926 H   0  0  0  0  0  0  0  0  0  0  0  0
   -4.8561   19.0908  -34.4424 H   0  0  0  0  0  0  0  0  0  0  0  0
   -5.6386   17.1003  -32.2915 H   0  0  0  0  0  0  0  0  0  0  0  0
   -5.0253   18.7519  -31.8560 H   0  0  0  0  0  0  0  0  0  0  0  0
   -7.9776   17.5044  -31.5508 H   0  0  0  0  0  0  0  0  0  0  0  0
   -7.1811   18.9810  -30.8202 H   0  0  0  0  0  0  0  0  0  0  0  0
   -9.3421   19.4510  -32.8255 H   0  0  0  0  0  0  0  0  0  0  0  0
   -9.8101   18.7985  -31.1813 H   0  0  0  0  0  0  0  0  0  0  0  0
  -10.0128   21.1754  -31.0469 H   0  0  0  0  0  0  0  0  0  0  0  0
   -8.4933   20.7105  -30.1770 H   0  0  0  0  0  0  0  0  0  0  0  0
   -8.5708   23.7730  -32.1670 H   0  0  0  0  0  0  0  0  0  0  0  0
   -8.7753   23.0703  -30.5162 H   0  0  0  0  0  0  0  0  0  0  0  0
   -6.4220   22.3370  -29.2740 H   0  0  0  0  0  0  0  0  0  0  0  0
   -3.4398   24.4907  -28.8498 H   0  0  0  0  0  0  0  0  0  0  0  0
   -3.8975   23.2892  -26.9961 H   0  0  0  0  0  0  0  0  0  0  0  0
   -5.3373   22.6845  -27.8838 H   0  0  0  0  0  0  0  0  0  0  0  0
   -3.8158   21.7297  -27.8838 H   0  0  0  0  0  0  0  0  0  0  0  0
   -1.9278   22.3664  -29.0208 H   0  0  0  0  0  0  0  0  0  0  0  0
   -2.9616   21.9429  -30.4275 H   0  0  0  0  0  0  0  0  0  0  0  0
   -2.0302   23.4789  -30.4275 H   0  0  0  0  0  0  0  0  0  0  0  0
   -6.2203   22.0473  -32.6043 H   0  0  0  0  0  0  0  0  0  0  0  0
   -6.4901   20.7227  -31.3592 H   0  0  0  0  0  0  0  0  0  0  0  0
   -7.5724   20.2772  -34.1035 H   0  0  0  0  0  0  0  0  0  0  0  0
   -5.7611   20.1976  -33.8465 H   0  0  0  0  0  0  0  0  0  0  0  0
  1  2  1  0
  2  3  1  0
  3  4  1  0
  4  5  1  0
  5  6  1  0
  6  7  1  0
  7  8  1  0
  8  9  1  0
  9 10  1  0
 10 11  1  0
 11 12  1  0
 12 13  2  0
 13 14  1  0
 14 15  1  0
 15 16  1  0
 15 17  1  0
 14 18  2  0
 18 19  1  0
 10 20  1  0
 20 21  1  0
 21  6  1  0
 19 12  1  0
  1 22  1  0
  1 23  1  0
  1 24  1  0
  2 25  1  0
  2 26  1  0
  4 27  1  0
  4 28  1  0
  5 29  1  0
  5 30  1  0
  7 31  1  0
  7 32  1  0
  8 33  1  0
  8 34  1  0
  9 35  1  0
  9 36  1  0
 11 37  1  0
 11 38  1  0
 13 39  1  0
 15 40  1  0
 16 41  1  0
 16 42  1  0
 16 43  1  0
 17 44  1  0
 17 45  1  0
 17 46  1  0
 20 47  1  0
 20 48  1  0
 21 49  1  0
 21 50  1  0
M  CHG  1  13   1
M  END
>  <UniqueID>  (40) 
38

>  <SMILES>  (40) 
CCOCCN1CCCN(Cc2[nH+]c(C(C)C)no2)CC1

>  <Energy>  (40) 
94.9197161111543

>  <Genealogy>  (40) 
CCOCCN1CCCN(Cc2[nH+]c(C(C)C)no2)CC1 (protonated)
CCOCCN1CCCN(Cc2[nH+]c(C(C)C)no2)CC1 (3D coordinates assigned)
CCOCCN1CCCN(Cc2[nH+]c(C(C)C)no2)CC1 (nonaromatic ring conformer: 94.9197161111543 kcal/mol)

>  <smiles>  (40) 
CCOCCN1CCCN(Cc2nc(C(C)C)no2)CC1

>  <score_type>  (40) 
oracle

>  <origin>  (40) 
adg

>  <m_score__min__energy>  (40) 
-4.96

>  <m_primary>  (40) 
energy

$$$$
40:0
     RDKit          3D

 42 44  0  0  0  0  0  0  0  0999 V2000
   -3.2531   23.2889  -32.5085 H   0  0  0  0  0  0  0  0  0  0  0  0
   -3.6800   22.7190  -31.6700 C   0  0  0  0  0  0  0  0  0  0  0  0
   -4.6360   21.8080  -31.9400 C   0  0  0  0  0  0  0  0  0  0  0  0
   -6.0690   22.1750  -31.8300 C   0  0  0  0  0  0  0  0  0  0  0  0
   -6.4110   23.3590  -31.5550 O   0  0  0  0  0  0  0  0  0  0  0  0
   -7.0980   21.1390  -32.0350 C   0  0  0  0  0  0  0  0  0  0  0  0
   -8.4700   21.4420  -31.9970 C   0  0  0  0  0  0  0  0  0  0  0  0
   -8.7988   22.4818  -31.8529 H   0  0  0  0  0  0  0  0  0  0  0  0
   -9.4180   20.4240  -32.1420 C   0  0  0  0  0  0  0  0  0  0  0  0
  -10.4909   20.6654  -32.1191 H   0  0  0  0  0  0  0  0  0  0  0  0
   -9.0040   19.1000  -32.3160 C   0  0  0  0  0  0  0  0  0  0  0  0
   -9.7512   18.2998  -32.4230 H   0  0  0  0  0  0  0  0  0  0  0  0
   -7.6420   18.7930  -32.3540 C   0  0  0  0  0  0  0  0  0  0  0  0
   -7.3182   17.7500  -32.4857 H   0  0  0  0  0  0  0  0  0  0  0  0
   -6.6880   19.8090  -32.2250 C   0  0  0  0  0  0  0  0  0  0  0  0
   -5.3270   19.4880  -32.2640 O   0  0  0  0  0  0  0  0  0  0  0  0
   -4.3030   20.4500  -32.5250 C   0  0  0  0  0  0  0  0  0  0  0  0
   -4.1814   20.5525  -33.6134 H   0  0  0  0  0  0  0  0  0  0  0  0
   -3.3754   20.0950  -32.0522 H   0  0  0  0  0  0  0  0  0  0  0  0
   -3.1740   22.9940  -30.3090 C   0  0  0  0  0  0  0  0  0  0  0  0
   -2.5550   21.9630  -29.5810 C   0  0  0  0  0  0  0  0  0  0  0  0
   -2.4560   20.6870  -30.1640 O   0  0  0  0  0  0  0  0  0  0  0  0
   -1.2520   20.1200  -30.6680 C   0  0  0  0  0  0  0  0  0  0  0  0
   -0.6095   19.8174  -29.8280 H   0  0  0  0  0  0  0  0  0  0  0  0
   -1.4906   19.2396  -31.2828 H   0  0  0  0  0  0  0  0  0  0  0  0
   -0.7253   20.8647  -31.2828 H   0  0  0  0  0  0  0  0  0  0  0  0
   -2.0580   22.2320  -28.2930 C   0  0  0  0  0  0  0  0  0  0  0  0
   -1.5779   21.4269  -27.7175 H   0  0  0  0  0  0  0  0  0  0  0  0
   -2.1660   23.5080  -27.7350 C   0  0  0  0  0  0  0  0  0  0  0  0
   -1.6540   23.7120  -26.4440 O   0  0  0  0  0  0  0  0  0  0  0  0
   -1.5470   24.9820  -25.8100 C   0  0  0  0  0  0  0  0  0  0  0  0
   -1.5582   24.8489  -24.7181 H   0  0  0  0  0  0  0  0  0  0  0  0
   -0.6051   25.4639  -26.1110 H   0  0  0  0  0  0  0  0  0  0  0  0
   -2.3950   25.6147  -26.1110 H   0  0  0  0  0  0  0  0  0  0  0  0
   -2.7730   24.5370  -28.4750 C   0  0  0  0  0  0  0  0  0  0  0  0
   -2.8580   25.5444  -28.0414 H   0  0  0  0  0  0  0  0  0  0  0  0
   -3.2730   24.2880  -29.7670 C   0  0  0  0  0  0  0  0  0  0  0  0
   -3.8720   25.2990  -30.5380 O   0  0  0  0  0  0  0  0  0  0  0  0
   -5.2460   25.6660  -30.4690 C   0  0  0  0  0  0  0  0  0  0  0  0
   -5.5513   25.7475  -29.4154 H   0  0  0  0  0  0  0  0  0  0  0  0
   -5.3923   26.6347  -30.9692 H   0  0  0  0  0  0  0  0  0  0  0  0
   -5.8559   24.8993  -30.9692 H   0  0  0  0  0  0  0  0  0  0  0  0
  1  2  1  0
  2  3  2  0
  3  4  1  0
  4  5  2  0
  4  6  1  0
  6  7  2  0
  7  8  1  0
  7  9  1  0
  9 10  1  0
  9 11  2  0
 11 12  1  0
 11 13  1  0
 13 14  1  0
 13 15  2  0
 15 16  1  0
 16 17  1  0
 17 18  1  0
 17 19  1  0
  2 20  1  0
 20 21  2  0
 21 22  1  0
 22 23  1  0
 23 24  1  0
 23 25  1  0
 23 26  1  0
 21 27  1  0
 27 28  1  0
 27 29  2  0
 29 30  1  0
 30 31  1  0
 31 32  1  0
 31 33  1  0
 31 34  1  0
 29 35  1  0
 35 36  1  0
 35 37  2  0
 37 38  1  0
 38 39  1  0
 39 40  1  0
 39 41  1  0
 39 42  1  0
 17  3  1  0
 37 20  1  0
 15  6  1  0
M  END
>  <UniqueID>  (41) 
39

>  <SMILES>  (41) 
COc1cc(OC)c(/C=C2\COc3ccccc3C2=O)c(OC)c1

>  <Energy>  (41) 
54.81565185027191

>  <Genealogy>  (41) 
COc1cc(OC)c(/C=C2\COc3ccccc3C2=O)c(OC)c1 (cis-trans isomerization)
COc1cc(OC)c(/C=C2\COc3ccccc3C2=O)c(OC)c1 (3D coordinates assigned)
COc1cc(OC)c(/C=C2\COc3ccccc3C2=O)c(OC)c1 (nonaromatic ring conformer: 54.81565185027191 kcal/mol)

>  <smiles>  (41) 
COc1cc(OC)c(C=C2COc3ccccc3C2=O)c(OC)c1

>  <score_type>  (41) 
oracle

>  <origin>  (41) 
adg

>  <m_score__min__energy>  (41) 
-7.4000000000000004

>  <m_primary>  (41) 
energy

$$$$
41:0
     RDKit          3D

 62 66  0  0  0  0  0  0  0  0999 V2000
   -1.2220   21.5560  -31.8750 C   0  0  0  0  0  0  0  0  0  0  0  0
   -2.5460   21.2670  -32.3120 O   0  0  0  0  0  0  0  0  0  0  0  0
   -2.9380   20.0580  -32.9060 C   0  0  0  0  0  0  0  0  0  0  0  0
   -2.1470   19.3990  -33.8580 C   0  0  0  0  0  0  0  0  0  0  0  0
   -2.5740   18.1970  -34.4140 C   0  0  0  0  0  0  0  0  0  0  0  0
   -3.8070   17.6400  -34.0480 C   0  0  0  0  0  0  0  0  0  0  0  0
   -4.2010   16.4210  -34.6070 C   0  0  0  0  0  0  0  0  0  0  0  0
   -5.3870   15.8200  -34.2080 C   0  0  0  0  0  0  0  0  0  0  0  0
   -6.2110   16.4380  -33.2710 C   0  0  0  0  0  0  0  0  0  0  0  0
   -5.8940   17.7080  -32.7400 C   0  0  0  0  0  0  0  0  0  0  0  0
   -6.8280   18.3710  -31.7210 C   0  0  0  0  0  0  0  0  0  0  0  0
   -8.1770   18.9550  -32.2310 C   0  0  0  0  0  0  0  0  0  0  0  0
   -8.1610   20.3980  -32.5920 N   0  0  0  0  0  0  0  0  0  0  0  0
   -6.8140   21.0040  -32.4830 C   0  0  0  0  0  0  0  0  0  0  0  0
   -6.8920   22.5220  -32.7040 C   0  0  0  0  0  0  0  0  0  0  0  0
   -7.7830   23.1810  -31.7170 N   0  0  0  0  0  0  0  0  0  0  0  0
   -7.1120   24.1750  -30.8500 C   0  0  0  0  0  0  0  0  0  0  0  0
   -5.7320   23.7560  -30.3840 C   0  0  0  0  0  0  0  0  0  0  0  0
   -5.4450   22.4000  -30.1350 C   0  0  0  0  0  0  0  0  0  0  0  0
   -4.1860   22.0150  -29.6640 C   0  0  0  0  0  0  0  0  0  0  0  0
   -3.2050   22.9820  -29.4310 C   0  0  0  0  0  0  0  0  0  0  0  0
   -3.4910   24.3360  -29.6390 C   0  0  0  0  0  0  0  0  0  0  0  0
   -4.7430   24.7220  -30.1230 C   0  0  0  0  0  0  0  0  0  0  0  0
   -2.5140   25.2910  -29.3440 O   0  0  0  0  0  0  0  0  0  0  0  0
   -1.3560   24.9490  -28.5790 C   0  0  0  0  0  0  0  0  0  0  0  0
   -0.8520   23.5550  -28.9740 C   0  0  0  0  0  0  0  0  0  0  0  0
   -1.9340   22.6190  -28.9730 O   0  0  0  0  0  0  0  0  0  0  0  0
   -8.6780   22.2640  -30.9800 C   0  0  0  0  0  0  0  0  0  0  0  0
   -9.2370   21.1870  -31.9220 C   0  0  0  0  0  0  0  0  0  0  0  0
   -4.6390   18.2950  -33.0970 C   0  0  0  0  0  0  0  0  0  0  0  0
   -4.1630   19.5000  -32.5220 C   0  0  0  0  0  0  0  0  0  0  0  0
   -1.1920   21.5625  -30.7754 H   0  0  0  0  0  0  0  0  0  0  0  0
   -0.5340   20.7869  -32.2560 H   0  0  0  0  0  0  0  0  0  0  0  0
   -0.9171   22.5418  -32.2560 H   0  0  0  0  0  0  0  0  0  0  0  0
   -1.1850   19.8340  -34.1666 H   0  0  0  0  0  0  0  0  0  0  0  0
   -1.9382   17.6793  -35.1473 H   0  0  0  0  0  0  0  0  0  0  0  0
   -3.5691   15.9362  -35.3657 H   0  0  0  0  0  0  0  0  0  0  0  0
   -5.6779   14.8489  -34.6350 H   0  0  0  0  0  0  0  0  0  0  0  0
   -7.1265   15.9273  -32.9378 H   0  0  0  0  0  0  0  0  0  0  0  0
   -7.0673   17.6155  -30.9582 H   0  0  0  0  0  0  0  0  0  0  0  0
   -6.2670   19.2490  -31.3682 H   0  0  0  0  0  0  0  0  0  0  0  0
   -8.4749   18.3866  -33.1244 H   0  0  0  0  0  0  0  0  0  0  0  0
   -8.8795   18.8647  -31.3894 H   0  0  0  0  0  0  0  0  0  0  0  0
   -8.3900   20.4150  -33.6160 H   0  0  0  0  0  0  0  0  0  0  0  0
   -6.4062   20.8038  -31.4812 H   0  0  0  0  0  0  0  0  0  0  0  0
   -6.1609   20.5640  -33.2510 H   0  0  0  0  0  0  0  0  0  0  0  0
   -5.8818   22.9472  -32.6103 H   0  0  0  0  0  0  0  0  0  0  0  0
   -7.3059   22.6990  -33.7077 H   0  0  0  0  0  0  0  0  0  0  0  0
   -7.0163   25.1156  -31.4123 H   0  0  0  0  0  0  0  0  0  0  0  0
   -7.7333   24.2813  -29.9485 H   0  0  0  0  0  0  0  0  0  0  0  0
   -6.2176   21.6374  -30.3125 H   0  0  0  0  0  0  0  0  0  0  0  0
   -3.9684   20.9530  -29.4773 H   0  0  0  0  0  0  0  0  0  0  0  0
   -4.9568   25.7863  -30.3010 H   0  0  0  0  0  0  0  0  0  0  0  0
   -0.5641   25.6887  -28.7683 H   0  0  0  0  0  0  0  0  0  0  0  0
   -1.6198   24.9457  -27.5111 H   0  0  0  0  0  0  0  0  0  0  0  0
   -0.4115   23.5999  -29.9810 H   0  0  0  0  0  0  0  0  0  0  0  0
   -0.0944   23.2281  -28.2465 H   0  0  0  0  0  0  0  0  0  0  0  0
   -8.1128   21.7791  -30.1704 H   0  0  0  0  0  0  0  0  0  0  0  0
   -9.5157   22.8424  -30.5632 H   0  0  0  0  0  0  0  0  0  0  0  0
   -9.8665   20.4997  -31.3377 H   0  0  0  0  0  0  0  0  0  0  0  0
   -9.8149   21.6971  -32.7067 H   0  0  0  0  0  0  0  0  0  0  0  0
   -4.7694   20.0076  -31.7574 H   0  0  0  0  0  0  0  0  0  0  0  0
  1  2  1  0
  2  3  1  0
  3  4  2  0
  4  5  1  0
  5  6  2  0
  6  7  1  0
  7  8  2  0
  8  9  1  0
  9 10  2  0
 10 11  1  0
 11 12  1  0
 12 13  1  0
 13 14  1  0
 14 15  1  0
 15 16  1  0
 16 17  1  0
 17 18  1  0
 18 19  2  0
 19 20  1  0
 20 21  2  0
 21 22  1  0
 22 23  2  0
 22 24  1  0
 24 25  1  0
 25 26  1  0
 26 27  1  0
 16 28  1  0
 28 29  1  0
 10 30  1  0
 30 31  2  0
 31  3  1  0
 30  6  1  0
 29 13  1  0
 23 18  1  0
 27 21  1  0
  1 32  1  0
  1 33  1  0
  1 34  1  0
  4 35  1  0
  5 36  1  0
  7 37  1  0
  8 38  1  0
  9 39  1  0
 11 40  1  0
 11 41  1  0
 12 42  1  0
 12 43  1  0
 13 44  1  0
 14 45  1  0
 14 46  1  0
 15 47  1  0
 15 48  1  0
 17 49  1  0
 17 50  1  0
 19 51  1  0
 20 52  1  0
 23 53  1  0
 25 54  1  0
 25 55  1  0
 26 56  1  0
 26 57  1  0
 28 58  1  0
 28 59  1  0
 29 60  1  0
 29 61  1  0
 31 62  1  0
M  CHG  1  13   1
M  END
>  <UniqueID>  (42) 
40

>  <SMILES>  (42) 
COc1ccc2cccc(CC[NH+]3CCN(Cc4ccc5c(c4)OCCO5)CC3)c2c1

>  <Energy>  (42) 
91.22406752282957

>  <Genealogy>  (42) 
COc1ccc2cccc(CC[NH+]3CCN(Cc4ccc5c(c4)OCCO5)CC3)c2c1 (protonated)
COc1ccc2cccc(CC[NH+]3CCN(Cc4ccc5c(c4)OCCO5)CC3)c2c1 (3D coordinates assigned)
COc1ccc2cccc(CC[NH+]3CCN(Cc4ccc5c(c4)OCCO5)CC3)c2c1 (nonaromatic ring conformer: 91.22406752282957 kcal/mol)

>  <smiles>  (42) 
COc1ccc2cccc(CCN3CCN(Cc4ccc5c(c4)OCCO5)CC3)c2c1

>  <score_type>  (42) 
oracle

>  <origin>  (42) 
adg

>  <m_score__min__energy>  (42) 
-8.75

>  <m_primary>  (42) 
energy

$$$$
42:0
     RDKit          3D

 32 34  0  0  0  0  0  0  0  0999 V2000
   -2.9460   17.4720  -34.6280 C   0  0  0  0  0  0  0  0  0  0  0  0
   -4.2490   17.8490  -35.0630 O   0  0  0  0  0  0  0  0  0  0  0  0
   -5.3640   17.9570  -34.2190 C   0  0  0  0  0  0  0  0  0  0  0  0
   -6.1490   16.8490  -33.8530 C   0  0  0  0  0  0  0  0  0  0  0  0
   -7.2180   17.0110  -33.0290 N   0  0  0  0  0  0  0  0  0  0  0  0
   -7.5620   18.2310  -32.5350 C   0  0  0  0  0  0  0  0  0  0  0  0
   -6.8140   19.3710  -32.8700 C   0  0  0  0  0  0  0  0  0  0  0  0
   -7.1830   20.7080  -32.3370 C   0  0  0  0  0  0  0  0  0  0  0  0
   -8.5330   21.0740  -32.2060 C   0  0  0  0  0  0  0  0  0  0  0  0
   -8.8770   22.3300  -31.7060 C   0  0  0  0  0  0  0  0  0  0  0  0
   -7.8840   23.2360  -31.3300 C   0  0  0  0  0  0  0  0  0  0  0  0
   -6.5240   22.8960  -31.4520 C   0  0  0  0  0  0  0  0  0  0  0  0
   -5.4660   23.8600  -31.0550 C   0  0  0  0  0  0  0  0  0  0  0  0
   -5.5950   25.2200  -30.8400 C   0  0  0  0  0  0  0  0  0  0  0  0
   -4.3990   25.7300  -30.4940 N   0  0  0  0  0  0  0  0  0  0  0  0
   -3.5100   24.7480  -30.4770 N   0  0  0  0  0  0  0  0  0  0  0  0
   -4.1290   23.6010  -30.8150 C   0  0  0  0  0  0  0  0  0  0  0  0
   -6.1850   21.6260  -31.9580 C   0  0  0  0  0  0  0  0  0  0  0  0
   -5.7080   19.2160  -33.7200 C   0  0  0  0  0  0  0  0  0  0  0  0
   -2.9148   17.4630  -33.5285 H   0  0  0  0  0  0  0  0  0  0  0  0
   -2.7081   16.4682  -35.0098 H   0  0  0  0  0  0  0  0  0  0  0  0
   -2.2089   18.1937  -35.0098 H   0  0  0  0  0  0  0  0  0  0  0  0
   -5.8973   15.8485  -34.2346 H   0  0  0  0  0  0  0  0  0  0  0  0
   -7.7910   16.1780  -32.7690 H   0  0  0  0  0  0  0  0  0  0  0  0
   -8.4321   18.3250  -31.8686 H   0  0  0  0  0  0  0  0  0  0  0  0
   -9.3227   20.3666  -32.4992 H   0  0  0  0  0  0  0  0  0  0  0  0
   -9.9367   22.6080  -31.6075 H   0  0  0  0  0  0  0  0  0  0  0  0
   -8.1667   24.2231  -30.9354 H   0  0  0  0  0  0  0  0  0  0  0  0
   -6.5282   25.7942  -30.9366 H   0  0  0  0  0  0  0  0  0  0  0  0
   -3.6476   22.6147  -30.8885 H   0  0  0  0  0  0  0  0  0  0  0  0
   -5.1256   21.3474  -32.0585 H   0  0  0  0  0  0  0  0  0  0  0  0
   -5.1060   20.0943  -33.9961 H   0  0  0  0  0  0  0  0  0  0  0  0
  1  2  1  0
  2  3  1  0
  3  4  2  0
  4  5  1  0
  5  6  2  0
  6  7  1  0
  7  8  1  0
  8  9  2  0
  9 10  1  0
 10 11  2  0
 11 12  1  0
 12 13  1  0
 13 14  1  0
 14 15  2  0
 15 16  1  0
 16 17  1  0
 12 18  2  0
  7 19  2  0
 19  3  1  0
 18  8  1  0
 17 13  2  0
  1 20  1  0
  1 21  1  0
  1 22  1  0
  4 23  1  0
  5 24  1  0
  6 25  1  0
  9 26  1  0
 10 27  1  0
 11 28  1  0
 14 29  1  0
 17 30  1  0
 18 31  1  0
 19 32  1  0
M  CHG  2   5   1  16  -1
M  END
>  <UniqueID>  (43) 
41

>  <SMILES>  (43) 
COc1c[nH+]cc(-c2cccc(-c3cn[n-]c3)c2)c1

>  <Energy>  (43) 
70.865216724047

>  <Genealogy>  (43) 
COc1c[nH+]cc(-c2cccc(-c3cn[n-]c3)c2)c1 (protonated)
COc1c[nH+]cc(-c2cccc(-c3cn[n-]c3)c2)c1 (3D coordinates assigned)
COc1c[nH+]cc(-c2cccc(-c3cn[n-]c3)c2)c1 (optimized conformer: 70.865216724047 kcal/mol)

>  <smiles>  (43) 
COc1cncc(-c2cccc(-c3cn[nH]c3)c2)c1

>  <score_type>  (43) 
oracle

>  <origin>  (43) 
adg

>  <m_score__min__energy>  (43) 
-9.1400000000000006

>  <m_primary>  (43) 
energy

$$$$
