0:0
     RDKit          3D

 40 43  0  0  0  0  0  0  0  0999 V2000
   -2.4580   24.5370  -28.3480 C   0  0  0  0  0  0  0  0  0  0  0  0
   -2.8880   24.9280  -29.6480 O   0  0  0  0  0  0  0  0  0  0  0  0
   -3.8760   24.2630  -30.3900 C   0  0  0  0  0  0  0  0  0  0  0  0
   -5.1790   24.7740  -30.5410 C   0  0  0  0  0  0  0  0  0  0  0  0
   -6.1280   24.0730  -31.2900 C   0  0  0  0  0  0  0  0  0  0  0  0
   -5.7970   22.8480  -31.8970 C   0  0  0  0  0  0  0  0  0  0  0  0
   -6.8320   22.1090  -32.7230 C   0  0  1  0  0  0  0  0  0  0  0  0
   -6.2460   20.8020  -33.3280 C   0  0  0  0  0  0  0  0  0  0  0  0
   -6.4070   19.5690  -32.4340 C   0  0  0  0  0  0  0  0  0  0  0  0
   -5.5260   18.3850  -32.6150 C   0  0  0  0  0  0  0  0  0  0  0  0
   -5.9030   17.1140  -32.1350 C   0  0  0  0  0  0  0  0  0  0  0  0
   -5.0630   16.0110  -32.3140 C   0  0  0  0  0  0  0  0  0  0  0  0
   -3.8390   16.1580  -32.9700 C   0  0  0  0  0  0  0  0  0  0  0  0
   -2.6960   14.6470  -33.2130 Br  0  0  0  0  0  0  0  0  0  0  0  0
   -3.4510   17.4130  -33.4460 C   0  0  0  0  0  0  0  0  0  0  0  0
   -4.2850   18.5200  -33.2690 C   0  0  0  0  0  0  0  0  0  0  0  0
   -7.3850   19.4990  -31.5700 N   0  0  0  0  0  0  0  0  0  0  0  0
   -8.2470   20.6130  -31.3590 C   0  0  0  0  0  0  0  0  0  0  0  0
   -9.3110   20.6300  -30.5330 N   0  0  0  0  0  0  0  0  0  0  0  0
   -9.7050   21.9260  -30.6270 C   0  0  0  0  0  0  0  0  0  0  0  0
   -8.9090   22.6400  -31.4510 N   0  0  0  0  0  0  0  0  0  0  0  0
   -8.0040   21.8000  -31.9100 N   0  0  0  0  0  0  0  0  0  0  0  0
   -4.4920   22.3470  -31.7490 C   0  0  0  0  0  0  0  0  0  0  0  0
   -3.5450   23.0490  -30.9990 C   0  0  0  0  0  0  0  0  0  0  0  0
   -3.0478   25.0733  -27.5900 H   0  0  0  0  0  0  0  0  0  0  0  0
   -2.6013   23.4533  -28.2249 H   0  0  0  0  0  0  0  0  0  0  0  0
   -1.3928   24.7823  -28.2249 H   0  0  0  0  0  0  0  0  0  0  0  0
   -5.4513   25.7288  -30.0676 H   0  0  0  0  0  0  0  0  0  0  0  0
   -7.1423   24.4826  -31.4058 H   0  0  0  0  0  0  0  0  0  0  0  0
   -7.1304   22.7667  -33.5527 H   0  0  0  0  0  0  0  0  0  0  0  0
   -6.7559   20.6049  -34.2826 H   0  0  0  0  0  0  0  0  0  0  0  0
   -5.1650   20.9663  -33.4481 H   0  0  0  0  0  0  0  0  0  0  0  0
   -6.8648   16.9895  -31.6160 H   0  0  0  0  0  0  0  0  0  0  0  0
   -5.3673   15.0236  -31.9367 H   0  0  0  0  0  0  0  0  0  0  0  0
   -2.4863   17.5299  -33.9615 H   0  0  0  0  0  0  0  0  0  0  0  0
   -3.9702   19.5053  -33.6433 H   0  0  0  0  0  0  0  0  0  0  0  0
  -10.5713   22.3450  -30.0942 H   0  0  0  0  0  0  0  0  0  0  0  0
   -8.9640   23.6610  -31.6680 H   0  0  0  0  0  0  0  0  0  0  0  0
   -4.2145   21.3959  -32.2269 H   0  0  0  0  0  0  0  0  0  0  0  0
   -2.5291   22.6425  -30.8866 H   0  0  0  0  0  0  0  0  0  0  0  0
  1  2  1  0
  2  3  1  0
  3  4  2  0
  4  5  1  0
  5  6  2  0
  6  7  1  0
  7  8  1  0
  8  9  1  0
  9 10  1  0
 10 11  2  0
 11 12  1  0
 12 13  2  0
 13 14  1  0
 13 15  1  0
 15 16  2  0
  9 17  2  0
 17 18  1  0
 18 19  2  0
 19 20  1  0
 20 21  2  0
 21 22  1  0
  6 23  1  0
 23 24  2  0
 24  3  1  0
 22  7  1  0
 16 10  1  0
 22 18  1  0
  1 25  1  0
  1 26  1  0
  1 27  1  0
  4 28  1  0
  5 29  1  0
  7 30  1  6
  8 31  1  0
  8 32  1  0
 11 33  1  0
 12 34  1  0
 15 35  1  0
 16 36  1  0
 20 37  1  0
 21 38  1  0
 23 39  1  0
 24 40  1  0
M  CHG  1  21   1
M  END
>  <UniqueID>  (1) 
1

>  <SMILES>  (1) 
COc1ccc([C@H]2CC(c3ccc(Br)cc3)=Nc3nc[nH+]n32)cc1

>  <Energy>  (1) 
84.94485497830362

>  <Genealogy>  (1) 
COc1ccc(C2CC(c3ccc(Br)cc3)=Nc3nc[nH+]n32)cc1 (protonated)
COc1ccc([C@H]2CC(c3ccc(Br)cc3)=Nc3nc[nH+]n32)cc1 (chirality)
COc1ccc([C@H]2CC(c3ccc(Br)cc3)=Nc3nc[nH+]n32)cc1 (3D coordinates assigned)
COc1ccc([C@H]2CC(c3ccc(Br)cc3)=Nc3nc[nH+]n32)cc1 (nonaromatic ring conformer: 84.94485497830362 kcal/mol)

>  <smiles>  (1) 
COc1ccc(C2CC(c3ccc(Br)cc3)=Nc3ncnn32)cc1

>  <score_type>  (1) 
oracle

>  <origin>  (1) 
adg

>  <m_score__min__energy>  (1) 
-7.6600000000000001

>  <m_primary>  (1) 
energy

$$$$
1:0
     RDKit          3D

 37 39  0  0  0  0  0  0  0  0999 V2000
   -2.2100   24.9220  -28.6440 C   0  0  0  0  0  0  0  0  0  0  0  0
   -3.1130   25.2810  -29.6840 O   0  0  0  0  0  0  0  0  0  0  0  0
   -4.1760   24.4760  -30.1220 C   0  0  0  0  0  0  0  0  0  0  0  0
   -5.3950   25.0930  -30.4270 C   0  0  0  0  0  0  0  0  0  0  0  0
   -6.4840   24.3360  -30.8680 C   0  0  0  0  0  0  0  0  0  0  0  0
   -6.3600   22.9470  -31.0320 C   0  0  0  0  0  0  0  0  0  0  0  0
   -7.5100   22.1280  -31.4580 C   0  0  0  0  0  0  0  0  0  0  0  0
   -8.7310   22.3290  -31.0280 O   0  0  0  0  0  0  0  0  0  0  0  0
   -9.5070   21.4620  -31.6340 C   0  0  0  0  0  0  0  0  0  0  0  0
   -8.8240   20.6550  -32.4710 N   0  0  0  0  0  0  0  0  0  0  0  0
   -7.5460   21.0670  -32.3550 C   0  0  0  0  0  0  0  0  0  0  0  0
   -6.4030   20.4070  -33.0320 C   0  0  0  0  0  0  0  0  0  0  0  0
   -5.4190   21.0990  -33.4060 O   0  0  0  0  0  0  0  0  0  0  0  0
   -6.3810   18.9860  -33.2740 N   0  0  0  0  0  0  0  0  0  0  0  0
   -6.0520   18.4920  -34.6140 C   0  0  0  0  0  0  0  0  0  0  0  0
   -5.3290   17.1460  -34.5110 C   0  0  0  0  0  0  0  0  0  0  0  0
   -6.0630   16.2430  -33.7070 O   0  0  0  0  0  0  0  0  0  0  0  0
   -6.1070   16.7180  -32.3750 C   0  0  0  0  0  0  0  0  0  0  0  0
   -6.8950   18.0290  -32.2890 C   0  0  0  0  0  0  0  0  0  0  0  0
   -5.1490   22.3220  -30.7010 C   0  0  0  0  0  0  0  0  0  0  0  0
   -4.0600   23.0800  -30.2600 C   0  0  0  0  0  0  0  0  0  0  0  0
   -2.6816   25.1095  -27.6680 H   0  0  0  0  0  0  0  0  0  0  0  0
   -1.9571   23.8549  -28.7301 H   0  0  0  0  0  0  0  0  0  0  0  0
   -1.2935   25.5241  -28.7301 H   0  0  0  0  0  0  0  0  0  0  0  0
   -5.4967   26.1829  -30.3187 H   0  0  0  0  0  0  0  0  0  0  0  0
   -7.4419   24.8303  -31.0874 H   0  0  0  0  0  0  0  0  0  0  0  0
  -10.5940   21.4002  -31.4768 H   0  0  0  0  0  0  0  0  0  0  0  0
   -6.9784   18.3649  -35.1934 H   0  0  0  0  0  0  0  0  0  0  0  0
   -5.3956   19.2179  -35.1162 H   0  0  0  0  0  0  0  0  0  0  0  0
   -5.2137   16.7203  -35.5187 H   0  0  0  0  0  0  0  0  0  0  0  0
   -4.3437   17.3088  -34.0497 H   0  0  0  0  0  0  0  0  0  0  0  0
   -6.5928   15.9632  -31.7391 H   0  0  0  0  0  0  0  0  0  0  0  0
   -5.0779   16.9029  -32.0331 H   0  0  0  0  0  0  0  0  0  0  0  0
   -7.9573   17.8301  -32.4937 H   0  0  0  0  0  0  0  0  0  0  0  0
   -6.7836   18.4529  -31.2801 H   0  0  0  0  0  0  0  0  0  0  0  0
   -5.0554   21.2295  -30.7888 H   0  0  0  0  0  0  0  0  0  0  0  0
   -3.1084   22.5832  -30.0198 H   0  0  0  0  0  0  0  0  0  0  0  0
  1  2  1  0
  2  3  1  0
  3  4  2  0
  4  5  1  0
  5  6  2  0
  6  7  1  0
  7  8  1  0
  8  9  1  0
  9 10  2  0
 10 11  1  0
 11 12  1  0
 12 13  2  0
 12 14  1  0
 14 15  1  0
 15 16  1  0
 16 17  1  0
 17 18  1  0
 18 19  1  0
  6 20  1  0
 20 21  2  0
 21  3  1  0
 11  7  2  0
 19 14  1  0
  1 22  1  0
  1 23  1  0
  1 24  1  0
  4 25  1  0
  5 26  1  0
  9 27  1  0
 15 28  1  0
 15 29  1  0
 16 30  1  0
 16 31  1  0
 18 32  1  0
 18 33  1  0
 19 34  1  0
 19 35  1  0
 20 36  1  0
 21 37  1  0
M  END
>  <UniqueID>  (2) 
2

>  <SMILES>  (2) 
COc1ccc(-c2ocnc2C(=O)N2CCOCC2)cc1

>  <Energy>  (2) 
78.62421954778259

>  <Genealogy>  (2) 
COc1ccc(-c2ocnc2C(=O)N2CCOCC2)cc1 (3D coordinates assigned)
COc1ccc(-c2ocnc2C(=O)N2CCOCC2)cc1 (nonaromatic ring conformer: 78.62421954778259 kcal/mol)

>  <smiles>  (2) 
COc1ccc(-c2ocnc2C(=O)N2CCOCC2)cc1

>  <score_type>  (2) 
oracle

>  <origin>  (2) 
adg

>  <m_score__min__energy>  (2) 
-7.6600000000000001

>  <m_primary>  (2) 
energy

$$$$
2:0
     RDKit          3D

 57 60  0  0  0  0  0  0  0  0999 V2000
   -8.7620   21.6050  -31.5180 C   0  0  0  0  0  0  0  0  0  0  0  0
   -8.7580   23.0340  -32.0510 C   0  0  0  0  0  0  0  0  0  0  0  0
   -7.4240   23.4870  -32.2770 O   0  0  0  0  0  0  0  0  0  0  0  0
   -6.4580   23.7290  -31.2830 C   0  0  0  0  0  0  0  0  0  0  0  0
   -6.6310   24.7140  -30.2930 C   0  0  0  0  0  0  0  0  0  0  0  0
   -5.6440   24.9310  -29.3300 C   0  0  0  0  0  0  0  0  0  0  0  0
   -4.4650   24.1720  -29.3310 C   0  0  0  0  0  0  0  0  0  0  0  0
   -3.4110   24.4170  -28.3130 C   0  0  0  0  0  0  0  0  0  0  0  0
   -3.7610   24.7200  -26.9730 C   0  0  0  0  0  0  0  0  0  0  0  0
   -2.7670   24.9520  -26.0100 C   0  0  0  0  0  0  0  0  0  0  0  0
   -1.4290   24.8830  -26.4050 C   0  0  0  0  0  0  0  0  0  0  0  0
   -1.0810   24.5830  -27.6920 C   0  0  0  0  0  0  0  0  0  0  0  0
   -2.0460   24.3470  -28.6700 C   0  0  0  0  0  0  0  0  0  0  0  0
    0.4010   24.5470  -27.8390 C   0  0  0  0  0  0  0  0  0  0  0  0
    0.9130   24.8530  -26.4090 C   0  0  0  0  0  0  0  0  0  0  0  0
   -0.2800   25.0780  -25.5950 N   0  0  0  0  0  0  0  0  0  0  0  0
   -0.2610   25.3830  -24.1650 C   0  0  0  0  0  0  0  0  0  0  0  0
   -0.9990   26.7150  -23.8980 C   0  0  0  0  0  0  0  0  0  0  0  0
   -0.2110   27.9400  -24.1880 N   0  0  0  0  0  0  0  0  0  0  0  0
   -0.8410   28.8260  -25.1860 C   0  0  0  0  0  0  0  0  0  0  0  0
    0.0570   28.8480  -26.4060 C   0  0  0  0  0  0  0  0  0  0  0  0
    1.4310   28.5370  -25.8620 C   0  0  0  0  0  0  0  0  0  0  0  0
    1.1730   27.6790  -24.6330 C   0  0  0  0  0  0  0  0  0  0  0  0
   -4.2920   23.1850  -30.3150 C   0  0  0  0  0  0  0  0  0  0  0  0
   -5.2840   22.9530  -31.2820 C   0  0  0  0  0  0  0  0  0  0  0  0
   -5.0720   21.9040  -32.3370 C   0  0  0  0  0  0  0  0  0  0  0  0
   -8.7619   21.6239  -30.4182 H   0  0  0  0  0  0  0  0  0  0  0  0
   -9.6616   21.0828  -31.8757 H   0  0  0  0  0  0  0  0  0  0  0  0
   -7.8653   21.0777  -31.8757 H   0  0  0  0  0  0  0  0  0  0  0  0
   -9.3154   23.0669  -32.9987 H   0  0  0  0  0  0  0  0  0  0  0  0
   -9.2313   23.6897  -31.3053 H   0  0  0  0  0  0  0  0  0  0  0  0
   -7.5507   25.3173  -30.2779 H   0  0  0  0  0  0  0  0  0  0  0  0
   -5.7926   25.7051  -28.5628 H   0  0  0  0  0  0  0  0  0  0  0  0
   -4.8214   24.7737  -26.6855 H   0  0  0  0  0  0  0  0  0  0  0  0
   -3.0352   25.1828  -24.9685 H   0  0  0  0  0  0  0  0  0  0  0  0
   -1.7495   24.1102  -29.7025 H   0  0  0  0  0  0  0  0  0  0  0  0
    0.7390   23.5553  -28.1740 H   0  0  0  0  0  0  0  0  0  0  0  0
    0.7748   25.2588  -28.5897 H   0  0  0  0  0  0  0  0  0  0  0  0
    1.4876   24.0005  -26.0179 H   0  0  0  0  0  0  0  0  0  0  0  0
    1.5800   25.7277  -26.3978 H   0  0  0  0  0  0  0  0  0  0  0  0
   -0.7604   24.5730  -23.6132 H   0  0  0  0  0  0  0  0  0  0  0  0
    0.7825   25.4751  -23.8295 H   0  0  0  0  0  0  0  0  0  0  0  0
   -1.9033   26.7352  -24.5240 H   0  0  0  0  0  0  0  0  0  0  0  0
   -1.2130   26.7362  -22.8192 H   0  0  0  0  0  0  0  0  0  0  0  0
   -0.1570   28.4720  -23.2850 H   0  0  0  0  0  0  0  0  0  0  0  0
   -1.8343   28.4394  -25.4576 H   0  0  0  0  0  0  0  0  0  0  0  0
   -0.9671   29.8402  -24.7792 H   0  0  0  0  0  0  0  0  0  0  0  0
   -0.2559   28.0852  -27.1342 H   0  0  0  0  0  0  0  0  0  0  0  0
    0.0225   29.8110  -26.9365 H   0  0  0  0  0  0  0  0  0  0  0  0
    2.0260   27.9839  -26.6036 H   0  0  0  0  0  0  0  0  0  0  0  0
    2.0003   29.4473  -25.6227 H   0  0  0  0  0  0  0  0  0  0  0  0
    1.2910   26.6152  -24.8868 H   0  0  0  0  0  0  0  0  0  0  0  0
    1.8882   27.9241  -23.8340 H   0  0  0  0  0  0  0  0  0  0  0  0
   -3.3690   22.5867  -30.3286 H   0  0  0  0  0  0  0  0  0  0  0  0
   -4.8760   20.9344  -31.8558 H   0  0  0  0  0  0  0  0  0  0  0  0
   -5.9727   21.8270  -32.9637 H   0  0  0  0  0  0  0  0  0  0  0  0
   -4.2120   22.1828  -32.9637 H   0  0  0  0  0  0  0  0  0  0  0  0
  1  2  1  0
  2  3  1  0
  3  4  1  0
  4  5  2  0
  5  6  1  0
  6  7  2  0
  7  8  1  0
  8  9  2  0
  9 10  1  0
 10 11  2  0
 11 12  1  0
 12 13  2  0
 12 14  1  0
 14 15  1  0
 15 16  1  0
 16 17  1  0
 17 18  1  0
 18 19  1  0
 19 20  1  0
 20 21  1  0
 21 22  1  0
 22 23  1  0
  7 24  1  0
 24 25  2  0
 25 26  1  0
 25  4  1  0
 13  8  1  0
 23 19  1  0
 16 11  1  0
  1 27  1  0
  1 28  1  0
  1 29  1  0
  2 30  1  0
  2 31  1  0
  5 32  1  0
  6 33  1  0
  9 34  1  0
 10 35  1  0
 13 36  1  0
 14 37  1  0
 14 38  1  0
 15 39  1  0
 15 40  1  0
 17 41  1  0
 17 42  1  0
 18 43  1  0
 18 44  1  0
 19 45  1  0
 20 46  1  0
 20 47  1  0
 21 48  1  0
 21 49  1  0
 22 50  1  0
 22 51  1  0
 23 52  1  0
 23 53  1  0
 24 54  1  0
 26 55  1  0
 26 56  1  0
 26 57  1  0
M  CHG  1  19   1
M  END
>  <UniqueID>  (3) 
3

>  <SMILES>  (3) 
CCOc1ccc(-c2ccc3c(c2)CCN3CC[NH+]2CCCC2)cc1C

>  <Energy>  (3) 
80.14587974543205

>  <Genealogy>  (3) 
CCOc1ccc(-c2ccc3c(c2)CCN3CC[NH+]2CCCC2)cc1C (protonated)
CCOc1ccc(-c2ccc3c(c2)CCN3CC[NH+]2CCCC2)cc1C (3D coordinates assigned)
CCOc1ccc(-c2ccc3c(c2)CCN3CC[NH+]2CCCC2)cc1C (nonaromatic ring conformer: 80.14587974543205 kcal/mol)

>  <smiles>  (3) 
CCOc1ccc(-c2ccc3c(c2)CCN3CCN2CCCC2)cc1C

>  <score_type>  (3) 
oracle

>  <origin>  (3) 
adg

>  <m_score__min__energy>  (3) 
-8.0700000000000003

>  <m_primary>  (3) 
energy

$$$$
3:0
     RDKit          3D

 38 40  0  0  0  0  0  0  0  0999 V2000
   -2.0790   17.0220  -33.4480 C   0  0  0  0  0  0  0  0  0  0  0  0
   -3.4010   16.5490  -33.2080 O   0  0  0  0  0  0  0  0  0  0  0  0
   -4.5460   17.3590  -33.2170 C   0  0  0  0  0  0  0  0  0  0  0  0
   -5.3870   17.3350  -32.0990 C   0  0  0  0  0  0  0  0  0  0  0  0
   -6.5380   18.1270  -32.0590 C   0  0  0  0  0  0  0  0  0  0  0  0
   -6.8560   18.9580  -33.1390 C   0  0  0  0  0  0  0  0  0  0  0  0
   -8.3290   19.9820  -33.0790 S   0  0  0  0  0  0  0  0  0  0  0  0
   -7.4690   21.3460  -32.2820 C   0  0  0  0  0  0  0  0  0  0  0  0
   -6.1210   21.5690  -32.5890 C   0  0  0  0  0  0  0  0  0  0  0  0
   -5.4300   22.6320  -32.0030 C   0  0  0  0  0  0  0  0  0  0  0  0
   -6.0790   23.4800  -31.0980 C   0  0  0  0  0  0  0  0  0  0  0  0
   -5.1990   24.8290  -30.3850 S   0  0  0  0  0  0  0  0  0  0  0  0
   -5.5800   26.1180  -31.0600 O   0  0  0  0  0  0  0  0  0  0  0  0
   -5.5430   24.9230  -28.9260 O   0  0  0  0  0  0  0  0  0  0  0  0
   -3.4900   24.5780  -30.5550 N   0  0  0  0  0  0  0  0  0  0  0  0
   -2.9710   24.0320  -29.3050 C   0  0  0  0  0  0  0  0  0  0  0  0
   -1.9930   24.9730  -28.6280 C   0  0  0  0  0  0  0  0  0  0  0  0
   -1.4850   23.7270  -29.3360 C   0  0  0  0  0  0  0  0  0  0  0  0
   -7.4220   23.2480  -30.7720 C   0  0  0  0  0  0  0  0  0  0  0  0
   -8.1190   22.1840  -31.3580 C   0  0  0  0  0  0  0  0  0  0  0  0
   -9.7970   21.9220  -30.9010 Cl  0  0  0  0  0  0  0  0  0  0  0  0
   -6.0270   18.9810  -34.2650 C   0  0  0  0  0  0  0  0  0  0  0  0
   -4.8750   18.1900  -34.3070 C   0  0  0  0  0  0  0  0  0  0  0  0
   -1.5742   17.2026  -32.4875 H   0  0  0  0  0  0  0  0  0  0  0  0
   -1.5184   16.2687  -34.0209 H   0  0  0  0  0  0  0  0  0  0  0  0
   -2.1235   17.9600  -34.0209 H   0  0  0  0  0  0  0  0  0  0  0  0
   -5.1403   16.6876  -31.2446 H   0  0  0  0  0  0  0  0  0  0  0  0
   -7.1949   18.0970  -31.1772 H   0  0  0  0  0  0  0  0  0  0  0  0
   -5.6035   20.9034  -33.2955 H   0  0  0  0  0  0  0  0  0  0  0  0
   -4.3727   22.8033  -32.2534 H   0  0  0  0  0  0  0  0  0  0  0  0
   -3.8672   23.4714  -29.0008 H   0  0  0  0  0  0  0  0  0  0  0  0
   -1.7993   25.9672  -29.0571 H   0  0  0  0  0  0  0  0  0  0  0  0
   -1.8883   25.3899  -27.6155 H   0  0  0  0  0  0  0  0  0  0  0  0
   -0.9238   23.8193  -30.2776 H   0  0  0  0  0  0  0  0  0  0  0  0
   -0.8605   22.8684  -29.0484 H   0  0  0  0  0  0  0  0  0  0  0  0
   -7.9315   23.9052  -30.0519 H   0  0  0  0  0  0  0  0  0  0  0  0
   -6.2822   19.6236  -35.1205 H   0  0  0  0  0  0  0  0  0  0  0  0
   -4.2236   18.2162  -35.1930 H   0  0  0  0  0  0  0  0  0  0  0  0
  1  2  1  0
  2  3  1  0
  3  4  2  0
  4  5  1  0
  5  6  2  0
  6  7  1  0
  7  8  1  0
  8  9  2  0
  9 10  1  0
 10 11  2  0
 11 12  1  0
 12 13  2  0
 12 14  2  0
 12 15  1  0
 15 16  1  0
 16 17  1  0
 17 18  1  0
 11 19  1  0
 19 20  2  0
 20 21  1  0
  6 22  1  0
 22 23  2  0
 23  3  1  0
 20  8  1  0
 18 16  1  0
  1 24  1  0
  1 25  1  0
  1 26  1  0
  4 27  1  0
  5 28  1  0
  9 29  1  0
 10 30  1  0
 16 31  1  0
 17 32  1  0
 17 33  1  0
 18 34  1  0
 18 35  1  0
 19 36  1  0
 22 37  1  0
 23 38  1  0
M  CHG  1  15  -1
M  END
>  <UniqueID>  (4) 
4

>  <SMILES>  (4) 
COc1ccc(Sc2ccc(S(=O)(=O)[N-]C3CC3)cc2Cl)cc1

>  <Energy>  (4) 
297.1403618221029

>  <Genealogy>  (4) 
COc1ccc(Sc2ccc(S(=O)(=O)[N-]C3CC3)cc2Cl)cc1 (protonated)
COc1ccc(Sc2ccc(S(=O)(=O)[N-]C3CC3)cc2Cl)cc1 (3D coordinates assigned)
COc1ccc(Sc2ccc(S(=O)(=O)[N-]C3CC3)cc2Cl)cc1 (nonaromatic ring conformer: 297.1403618221029 kcal/mol)

>  <smiles>  (4) 
COc1ccc(Sc2ccc(S(=O)(=O)NC3CC3)cc2Cl)cc1

>  <score_type>  (4) 
oracle

>  <origin>  (4) 
adg

>  <m_score__min__energy>  (4) 
-9.4600000000000009

>  <m_primary>  (4) 
energy

$$$$
4:0
     RDKit          3D

 44 47  0  0  0  0  0  0  0  0999 V2000
   -5.3060   25.6550  -30.8150 C   0  0  0  0  0  0  0  0  0  0  0  0
   -4.0130   25.1710  -30.4650 O   0  0  0  0  0  0  0  0  0  0  0  0
   -3.7720   24.1090  -29.5750 C   0  0  0  0  0  0  0  0  0  0  0  0
   -3.9520   24.2570  -28.1850 C   0  0  0  0  0  0  0  0  0  0  0  0
   -3.7160   23.1850  -27.3240 C   0  0  0  0  0  0  0  0  0  0  0  0
   -3.3040   21.9560  -27.8340 C   0  0  0  0  0  0  0  0  0  0  0  0
   -3.1190   21.7930  -29.2080 C   0  0  0  0  0  0  0  0  0  0  0  0
   -3.3410   22.8690  -30.0950 C   0  0  0  0  0  0  0  0  0  0  0  0
   -3.1690   22.7230  -31.5990 C   0  0  0  0  0  0  0  0  0  0  0  0
   -3.9950   21.6510  -32.1850 N   0  0  0  0  0  0  0  0  0  0  0  0
   -5.4350   21.7650  -32.0970 C   0  0  0  0  0  0  0  0  0  0  0  0
   -5.9360   22.8880  -31.8060 O   0  0  0  0  0  0  0  0  0  0  0  0
   -6.3700   20.6300  -32.3130 C   0  0  0  0  0  0  0  0  0  0  0  0
   -7.7030   20.9080  -32.6710 C   0  0  0  0  0  0  0  0  0  0  0  0
   -8.6530   19.8880  -32.7220 C   0  0  0  0  0  0  0  0  0  0  0  0
   -8.2740   18.5900  -32.3950 C   0  0  0  0  0  0  0  0  0  0  0  0
   -6.9850   18.3260  -32.0600 N   0  0  0  0  0  0  0  0  0  0  0  0
   -6.0280   19.2920  -32.0270 C   0  0  0  0  0  0  0  0  0  0  0  0
   -4.7260   18.9070  -31.7170 O   0  0  0  0  0  0  0  0  0  0  0  0
   -3.6570   19.2240  -32.5480 C   0  0  0  0  0  0  0  0  0  0  0  0
   -2.8980   18.1750  -33.0790 C   0  0  0  0  0  0  0  0  0  0  0  0
   -1.8380   18.4370  -33.9470 C   0  0  0  0  0  0  0  0  0  0  0  0
   -1.5060   19.7570  -34.2710 C   0  0  0  0  0  0  0  0  0  0  0  0
   -0.3890   20.0430  -35.2310 C   0  0  0  0  0  0  0  0  0  0  0  0
   -2.2580   20.8090  -33.7290 C   0  0  0  0  0  0  0  0  0  0  0  0
   -3.3350   20.5560  -32.8560 C   0  0  0  0  0  0  0  0  0  0  0  0
   -5.8775   25.8689  -29.8998 H   0  0  0  0  0  0  0  0  0  0  0  0
   -5.2047   26.5761  -31.4077 H   0  0  0  0  0  0  0  0  0  0  0  0
   -5.8344   24.8938  -31.4077 H   0  0  0  0  0  0  0  0  0  0  0  0
   -4.2807   25.2240  -27.7764 H   0  0  0  0  0  0  0  0  0  0  0  0
   -3.8556   23.3105  -26.2401 H   0  0  0  0  0  0  0  0  0  0  0  0
   -3.1240   21.1117  -27.1523 H   0  0  0  0  0  0  0  0  0  0  0  0
   -2.7975   20.8180  -29.6031 H   0  0  0  0  0  0  0  0  0  0  0  0
   -3.4458   23.6753  -32.0750 H   0  0  0  0  0  0  0  0  0  0  0  0
   -2.1173   22.4560  -31.7796 H   0  0  0  0  0  0  0  0  0  0  0  0
   -7.9981   21.9397  -32.9128 H   0  0  0  0  0  0  0  0  0  0  0  0
   -9.6897   20.1073  -33.0173 H   0  0  0  0  0  0  0  0  0  0  0  0
   -9.0172   17.7791  -32.4078 H   0  0  0  0  0  0  0  0  0  0  0  0
   -3.1391   17.1361  -32.8099 H   0  0  0  0  0  0  0  0  0  0  0  0
   -1.2622   17.6045  -34.3775 H   0  0  0  0  0  0  0  0  0  0  0  0
    0.5268   20.2775  -34.6686 H   0  0  0  0  0  0  0  0  0  0  0  0
   -0.2147   19.1605  -35.8641 H   0  0  0  0  0  0  0  0  0  0  0  0
   -0.6602   20.9007  -35.8641 H   0  0  0  0  0  0  0  0  0  0  0  0
   -2.0036   21.8471  -33.9890 H   0  0  0  0  0  0  0  0  0  0  0  0
  1  2  1  0
  2  3  1  0
  3  4  2  0
  4  5  1  0
  5  6  2  0
  6  7  1  0
  7  8  2  0
  8  9  1  0
  9 10  1  0
 10 11  1  0
 11 12  2  0
 11 13  1  0
 13 14  2  0
 14 15  1  0
 15 16  2  0
 16 17  1  0
 17 18  2  0
 18 19  1  0
 19 20  1  0
 20 21  2  0
 21 22  1  0
 22 23  2  0
 23 24  1  0
 23 25  1  0
 25 26  2  0
  8  3  1  0
 26 10  1  0
 18 13  1  0
 26 20  1  0
  1 27  1  0
  1 28  1  0
  1 29  1  0
  4 30  1  0
  5 31  1  0
  6 32  1  0
  7 33  1  0
  9 34  1  0
  9 35  1  0
 14 36  1  0
 15 37  1  0
 16 38  1  0
 21 39  1  0
 22 40  1  0
 24 41  1  0
 24 42  1  0
 24 43  1  0
 25 44  1  0
M  END
>  <UniqueID>  (5) 
5

>  <SMILES>  (5) 
COc1ccccc1CN1C(=O)c2cccnc2Oc2ccc(C)cc21

>  <Energy>  (5) 
76.11586285985044

>  <Genealogy>  (5) 
COc1ccccc1CN1C(=O)c2cccnc2Oc2ccc(C)cc21 (3D coordinates assigned)
COc1ccccc1CN1C(=O)c2cccnc2Oc2ccc(C)cc21 (nonaromatic ring conformer: 76.11586285985044 kcal/mol)

>  <smiles>  (5) 
COc1ccccc1CN1C(=O)c2cccnc2Oc2ccc(C)cc21

>  <score_type>  (5) 
oracle

>  <origin>  (5) 
adg

>  <m_score__min__energy>  (5) 
-8.2300000000000004

>  <m_primary>  (5) 
energy

$$$$
5:0
     RDKit          3D

 30 32  0  0  0  0  0  0  0  0999 V2000
   -2.3910   20.3740  -33.4090 C   0  0  0  0  0  0  0  0  0  0  0  0
   -3.7240   20.6810  -33.7710 O   0  0  0  0  0  0  0  0  0  0  0  0
   -4.7790   19.8290  -33.5130 C   0  0  0  0  0  0  0  0  0  0  0  0
   -4.8620   18.5810  -34.1100 C   0  0  0  0  0  0  0  0  0  0  0  0
   -5.9170   17.7140  -33.8590 C   0  0  0  0  0  0  0  0  0  0  0  0
   -6.9260   18.1150  -32.9770 C   0  0  0  0  0  0  0  0  0  0  0  0
   -7.9820   17.3260  -32.6850 F   0  0  0  0  0  0  0  0  0  0  0  0
   -6.8280   19.3650  -32.3890 C   0  0  0  0  0  0  0  0  0  0  0  0
   -5.7740   20.2240  -32.6430 C   0  0  0  0  0  0  0  0  0  0  0  0
   -5.7780   21.4840  -31.9820 N   0  0  0  0  0  0  0  0  0  0  0  0
   -6.9090   21.9950  -31.4140 C   0  0  0  0  0  0  0  0  0  0  0  0
   -6.6210   23.2160  -30.8510 C   0  0  0  0  0  0  0  0  0  0  0  0
   -7.3770   24.1210  -30.1770 N   0  0  0  0  0  0  0  0  0  0  0  0
   -6.8320   25.2770  -29.7170 C   0  0  0  0  0  0  0  0  0  0  0  0
   -5.5210   25.5190  -29.9380 N   0  0  0  0  0  0  0  0  0  0  0  0
   -4.7510   24.6250  -30.6110 C   0  0  0  0  0  0  0  0  0  0  0  0
   -3.5000   24.8760  -30.8110 N   0  0  0  0  0  0  0  0  0  0  0  0
   -5.2820   23.4450  -31.0880 C   0  0  0  0  0  0  0  0  0  0  0  0
   -4.7750   22.3570  -31.7920 C   0  0  0  0  0  0  0  0  0  0  0  0
   -2.3041   20.3540  -32.3126 H   0  0  0  0  0  0  0  0  0  0  0  0
   -2.1179   19.3894  -33.8165 H   0  0  0  0  0  0  0  0  0  0  0  0
   -1.7147   21.1399  -33.8165 H   0  0  0  0  0  0  0  0  0  0  0  0
   -4.0679   18.2678  -34.8038 H   0  0  0  0  0  0  0  0  0  0  0  0
   -5.9587   16.7283  -34.3455 H   0  0  0  0  0  0  0  0  0  0  0  0
   -7.6177   19.6867  -31.6941 H   0  0  0  0  0  0  0  0  0  0  0  0
   -7.8949   21.5072  -31.4076 H   0  0  0  0  0  0  0  0  0  0  0  0
   -7.4494   26.0063  -29.1720 H   0  0  0  0  0  0  0  0  0  0  0  0
   -5.1330   26.4220  -29.5680 H   0  0  0  0  0  0  0  0  0  0  0  0
   -3.1390   25.4450  -31.5880 H   0  0  0  0  0  0  0  0  0  0  0  0
   -3.7364   22.2337  -32.1327 H   0  0  0  0  0  0  0  0  0  0  0  0
  1  2  1  0
  2  3  1  0
  3  4  2  0
  4  5  1  0
  5  6  2  0
  6  7  1  0
  6  8  1  0
  8  9  2  0
  9 10  1  0
 10 11  1  0
 11 12  2  0
 12 13  1  0
 13 14  2  0
 14 15  1  0
 15 16  1  0
 16 17  2  3
 16 18  1  0
 18 19  2  0
  9  3  1  0
 19 10  1  0
 18 12  1  0
  1 20  1  0
  1 21  1  0
  1 22  1  0
  4 23  1  0
  5 24  1  0
  8 25  1  0
 11 26  1  0
 14 27  1  0
 15 28  1  0
 17 29  1  0
 19 30  1  0
M  END
>  <smiles>  (6) 
COc1ccc(F)cc1-n1cc2nc[nH]c(=N)c2c1

>  <score_type>  (6) 
oracle

>  <origin>  (6) 
adg

>  <m_score__min__energy>  (6) 
-7.0300000000000002

>  <m_primary>  (6) 
energy

$$$$
6:0
     RDKit          3D

 53 57  0  0  0  0  0  0  0  0999 V2000
    2.1350   20.8490  -34.5740 C   0  0  0  0  0  0  0  0  0  0  0  0
    1.2330   21.6720  -35.2500 C   0  0  0  0  0  0  0  0  0  0  0  0
   -0.1410   21.5470  -35.0200 C   0  0  0  0  0  0  0  0  0  0  0  0
   -0.6260   20.5950  -34.1020 C   0  0  0  0  0  0  0  0  0  0  0  0
   -2.0810   20.4370  -33.8480 C   0  0  0  0  0  0  0  0  0  0  0  0
   -2.7660   19.2460  -34.1690 C   0  0  0  0  0  0  0  0  0  0  0  0
   -4.0990   19.1780  -33.8980 N   0  0  0  0  0  0  0  0  0  0  0  0
   -4.9690   18.1550  -34.0590 C   0  0  0  0  0  0  0  0  0  0  0  0
   -4.6290   16.7670  -34.5490 C   0  0  0  0  0  0  0  0  0  0  0  0
   -3.6570   16.0890  -33.6590 N   0  0  0  0  0  0  0  0  0  0  0  0
   -2.9010   15.0350  -34.3900 C   0  0  0  0  0  0  0  0  0  0  0  0
   -2.3360   13.9810  -33.4290 C   0  0  0  0  0  0  0  0  0  0  0  0
   -3.4090   13.2650  -32.7120 N   0  0  0  0  0  0  0  0  0  0  0  0
   -4.6360   14.0640  -32.5280 C   0  0  0  0  0  0  0  0  0  0  0  0
   -4.3340   15.5690  -32.4360 C   0  0  0  0  0  0  0  0  0  0  0  0
   -6.2230   18.5410  -33.6090 C   0  0  0  0  0  0  0  0  0  0  0  0
   -6.1130   19.8590  -33.1810 C   0  0  0  0  0  0  0  0  0  0  0  0
   -7.2110   20.6820  -32.6320 C   0  0  0  0  0  0  0  0  0  0  0  0
   -7.0080   22.0370  -32.3170 C   0  0  0  0  0  0  0  0  0  0  0  0
   -8.0590   22.8100  -31.8130 C   0  0  0  0  0  0  0  0  0  0  0  0
   -9.3220   22.2410  -31.6290 C   0  0  0  0  0  0  0  0  0  0  0  0
   -9.5380   20.9000  -31.9560 C   0  0  0  0  0  0  0  0  0  0  0  0
   -8.4900   20.1230  -32.4610 C   0  0  0  0  0  0  0  0  0  0  0  0
   -4.7820   20.2080  -33.3680 C   0  0  0  0  0  0  0  0  0  0  0  0
   -4.1190   21.3900  -33.0380 C   0  0  0  0  0  0  0  0  0  0  0  0
   -2.7840   21.4720  -33.2930 N   0  0  0  0  0  0  0  0  0  0  0  0
    0.2940   19.7630  -33.4380 C   0  0  0  0  0  0  0  0  0  0  0  0
    1.6660   19.8940  -33.6700 C   0  0  0  0  0  0  0  0  0  0  0  0
    3.2153   20.9528  -34.7534 H   0  0  0  0  0  0  0  0  0  0  0  0
    1.6036   22.4208  -35.9655 H   0  0  0  0  0  0  0  0  0  0  0  0
   -0.8469   22.1959  -35.5591 H   0  0  0  0  0  0  0  0  0  0  0  0
   -2.2380   18.3958  -34.6255 H   0  0  0  0  0  0  0  0  0  0  0  0
   -5.5511   16.1686  -34.5899 H   0  0  0  0  0  0  0  0  0  0  0  0
   -4.1717   16.8598  -35.5451 H   0  0  0  0  0  0  0  0  0  0  0  0
   -2.9650   16.8100  -33.3400 H   0  0  0  0  0  0  0  0  0  0  0  0
   -3.5758   14.5418  -35.1051 H   0  0  0  0  0  0  0  0  0  0  0  0
   -2.0592   15.5130  -34.9124 H   0  0  0  0  0  0  0  0  0  0  0  0
   -1.7452   13.2536  -34.0051 H   0  0  0  0  0  0  0  0  0  0  0  0
   -1.7105   14.4957  -32.6848 H   0  0  0  0  0  0  0  0  0  0  0  0
   -3.0440   12.9930  -31.7700 H   0  0  0  0  0  0  0  0  0  0  0  0
   -5.3062   13.8877  -33.3822 H   0  0  0  0  0  0  0  0  0  0  0  0
   -5.1059   13.7530  -31.5833 H   0  0  0  0  0  0  0  0  0  0  0  0
   -5.2810   16.1116  -32.2988 H   0  0  0  0  0  0  0  0  0  0  0  0
   -3.6541   15.7232  -31.5852 H   0  0  0  0  0  0  0  0  0  0  0  0
   -7.1320   17.9217  -33.5937 H   0  0  0  0  0  0  0  0  0  0  0  0
   -6.0177   22.4915  -32.4677 H   0  0  0  0  0  0  0  0  0  0  0  0
   -7.8911   23.8675  -31.5610 H   0  0  0  0  0  0  0  0  0  0  0  0
  -10.1459   22.8488  -31.2268 H   0  0  0  0  0  0  0  0  0  0  0  0
  -10.5339   20.4543  -31.8161 H   0  0  0  0  0  0  0  0  0  0  0  0
   -8.6672   19.0701  -32.7255 H   0  0  0  0  0  0  0  0  0  0  0  0
   -4.6601   22.2332  -32.5839 H   0  0  0  0  0  0  0  0  0  0  0  0
   -0.0695   19.0032  -32.7305 H   0  0  0  0  0  0  0  0  0  0  0  0
    2.3773   19.2438  -33.1396 H   0  0  0  0  0  0  0  0  0  0  0  0
  1  2  2  0
  2  3  1  0
  3  4  2  0
  4  5  1  0
  5  6  2  0
  6  7  1  0
  7  8  1  0
  8  9  1  0
  9 10  1  0
 10 11  1  0
 11 12  1  0
 12 13  1  0
 13 14  1  0
 14 15  1  0
  8 16  2  0
 16 17  1  0
 17 18  1  0
 18 19  2  0
 19 20  1  0
 20 21  2  0
 21 22  1  0
 22 23  2  0
 17 24  2  0
 24 25  1  0
 25 26  2  0
  4 27  1  0
 27 28  2  0
 28  1  1  0
 26  5  1  0
 24  7  1  0
 15 10  1  0
 23 18  1  0
  1 29  1  0
  2 30  1  0
  3 31  1  0
  6 32  1  0
  9 33  1  0
  9 34  1  0
 10 35  1  0
 11 36  1  0
 11 37  1  0
 12 38  1  0
 12 39  1  0
 13 40  1  0
 14 41  1  0
 14 42  1  0
 15 43  1  0
 15 44  1  0
 16 45  1  0
 19 46  1  0
 20 47  1  0
 21 48  1  0
 22 49  1  0
 23 50  1  0
 25 51  1  0
 27 52  1  0
 28 53  1  0
M  CHG  1  10   1
M  END
>  <UniqueID>  (7) 
6

>  <SMILES>  (7) 
c1ccc(-c2cn3c(C[NH+]4CCNCC4)cc(-c4ccccc4)c3cn2)cc1

>  <Energy>  (7) 
111.06341760828452

>  <Genealogy>  (7) 
c1ccc(-c2cn3c(C[NH+]4CCNCC4)cc(-c4ccccc4)c3cn2)cc1 (protonated)
c1ccc(-c2cn3c(C[NH+]4CCNCC4)cc(-c4ccccc4)c3cn2)cc1 (3D coordinates assigned)
c1ccc(-c2cn3c(C[NH+]4CCNCC4)cc(-c4ccccc4)c3cn2)cc1 (nonaromatic ring conformer: 111.06341760828452 kcal/mol)

>  <smiles>  (7) 
c1ccc(-c2cn3c(CN4CCNCC4)cc(-c4ccccc4)c3cn2)cc1

>  <score_type>  (7) 
oracle

>  <origin>  (7) 
adg

>  <m_score__min__energy>  (7) 
-8.1899999999999995

>  <m_primary>  (7) 
energy

$$$$
7:0
     RDKit          3D

 34 35  0  0  0  0  0  0  0  0999 V2000
   -1.5015   22.1545  -31.3630 H   0  0  0  0  0  0  0  0  0  0  0  0
   -2.5740   22.2950  -31.1630 C   0  0  0  0  0  0  0  0  0  0  0  0
   -2.9210   23.2160  -30.2430 C   0  0  0  0  0  0  0  0  0  0  0  0
   -2.2140   23.3300  -28.9850 C   0  0  0  0  0  0  0  0  0  0  0  0
   -1.6470   23.4180  -27.9800 N   0  0  0  0  0  0  0  0  0  0  0  0
   -4.0760   24.1190  -30.4650 C   0  0  0  0  0  0  0  0  0  0  0  0
   -3.8640   25.3310  -30.7440 O   0  0  0  0  0  0  0  0  0  0  0  0
   -5.4280   23.6320  -30.4000 N   0  0  0  0  0  0  0  0  0  0  0  0
   -5.6090   22.6040  -30.4290 H   0  0  0  0  0  0  0  0  0  0  0  0
   -6.5830   24.5270  -30.4260 C   0  0  0  0  0  0  0  0  0  0  0  0
   -7.4925   23.9503  -30.2017 H   0  0  0  0  0  0  0  0  0  0  0  0
   -6.6576   24.9812  -31.4250 H   0  0  0  0  0  0  0  0  0  0  0  0
   -6.4250   25.6360  -29.3920 C   0  0  0  0  0  0  0  0  0  0  0  0
   -6.4862   25.2063  -28.3812 H   0  0  0  0  0  0  0  0  0  0  0  0
   -5.4482   26.1243  -29.5243 H   0  0  0  0  0  0  0  0  0  0  0  0
   -7.2266   26.3776  -29.5243 H   0  0  0  0  0  0  0  0  0  0  0  0
   -3.5270   21.4590  -31.9240 C   0  0  0  0  0  0  0  0  0  0  0  0
   -4.7740   21.2250  -31.5850 O   0  0  0  0  0  0  0  0  0  0  0  0
   -5.3180   20.4440  -32.4900 C   0  0  0  0  0  0  0  0  0  0  0  0
   -6.7080   19.9480  -32.4040 C   0  0  0  0  0  0  0  0  0  0  0  0
   -7.7500   20.8910  -32.4390 C   0  0  0  0  0  0  0  0  0  0  0  0
   -7.5143   21.9603  -32.5445 H   0  0  0  0  0  0  0  0  0  0  0  0
   -9.0820   20.4820  -32.3410 C   0  0  0  0  0  0  0  0  0  0  0  0
   -9.8889   21.2294  -32.3602 H   0  0  0  0  0  0  0  0  0  0  0  0
   -9.3900   19.1290  -32.2190 C   0  0  0  0  0  0  0  0  0  0  0  0
  -10.4391   18.8100  -32.1312 H   0  0  0  0  0  0  0  0  0  0  0  0
   -8.3680   18.1770  -32.2080 C   0  0  0  0  0  0  0  0  0  0  0  0
   -8.6175   17.1091  -32.1217 H   0  0  0  0  0  0  0  0  0  0  0  0
   -7.0280   18.5720  -32.3060 C   0  0  0  0  0  0  0  0  0  0  0  0
   -5.7100   17.1820  -32.4180 Br  0  0  0  0  0  0  0  0  0  0  0  0
   -4.3830   20.1350  -33.4620 C   0  0  0  0  0  0  0  0  0  0  0  0
   -4.5301   19.4939  -34.3437 H   0  0  0  0  0  0  0  0  0  0  0  0
   -3.2290   20.7960  -33.0980 C   0  0  0  0  0  0  0  0  0  0  0  0
   -2.2680   20.7953  -33.6332 H   0  0  0  0  0  0  0  0  0  0  0  0
  1  2  1  0
  2  3  2  0
  3  4  1  0
  4  5  3  0
  3  6  1  0
  6  7  2  0
  6  8  1  0
  8  9  1  0
  8 10  1  0
 10 11  1  0
 10 12  1  0
 10 13  1  0
 13 14  1  0
 13 15  1  0
 13 16  1  0
  2 17  1  0
 17 18  1  0
 18 19  1  0
 19 20  1  0
 20 21  2  0
 21 22  1  0
 21 23  1  0
 23 24  1  0
 23 25  2  0
 25 26  1  0
 25 27  1  0
 27 28  1  0
 27 29  2  0
 29 30  1  0
 19 31  2  0
 31 32  1  0
 31 33  1  0
 33 34  1  0
 33 17  2  0
 29 20  1  0
M  END
>  <UniqueID>  (8) 
7

>  <SMILES>  (8) 
CCNC(=O)/C(C#N)=C/c1ccc(-c2ccccc2Br)o1

>  <Energy>  (8) 
63.670694067851755

>  <Genealogy>  (8) 
CCNC(=O)/C(C#N)=C/c1ccc(-c2ccccc2Br)o1 (cis-trans isomerization)
CCNC(=O)/C(C#N)=C/c1ccc(-c2ccccc2Br)o1 (3D coordinates assigned)
CCNC(=O)/C(C#N)=C/c1ccc(-c2ccccc2Br)o1 (optimized conformer: 63.670694067851755 kcal/mol)

>  <smiles>  (8) 
CCNC(=O)C(C#N)=Cc1ccc(-c2ccccc2Br)o1

>  <score_type>  (8) 
oracle

>  <origin>  (8) 
adg

>  <m_score__min__energy>  (8) 
-7.9500000000000002

>  <m_primary>  (8) 
energy

$$$$
8:0
     RDKit          3D

 42 43  0  0  0  0  0  0  0  0999 V2000
   -3.1460   18.8840  -25.9650 C   0  0  0  0  0  0  0  0  0  0  0  0
   -2.5230   19.3530  -27.2800 C   0  0  0  0  0  0  0  0  0  0  0  0
   -2.1000   20.8290  -27.2360 C   0  0  0  0  0  0  0  0  0  0  0  0
   -2.8780   21.6680  -28.2160 C   0  0  0  0  0  0  0  0  0  0  0  0
   -2.9040   21.3310  -29.5780 C   0  0  0  0  0  0  0  0  0  0  0  0
   -3.6610   22.0850  -30.4770 C   0  0  0  0  0  0  0  0  0  0  0  0
   -4.4070   23.1850  -30.0280 C   0  0  0  0  0  0  0  0  0  0  0  0
   -5.2240   23.9350  -30.9470 N   0  0  0  0  0  0  0  0  0  0  0  0
   -5.6280   25.3090  -30.6180 C   0  0  0  0  0  0  0  0  0  0  0  0
   -6.8580   25.3000  -29.7180 C   0  0  0  0  0  0  0  0  0  0  0  0
   -5.5870   23.3390  -32.2400 C   0  0  0  0  0  0  0  0  0  0  0  0
   -6.7260   22.3740  -32.0570 C   0  0  0  0  0  0  0  0  0  0  0  0
   -8.0000   22.8480  -31.7010 C   0  0  0  0  0  0  0  0  0  0  0  0
   -9.0740   21.9590  -31.5860 C   0  0  0  0  0  0  0  0  0  0  0  0
   -8.8870   20.5970  -31.8370 C   0  0  0  0  0  0  0  0  0  0  0  0
   -7.6250   20.1210  -32.2070 C   0  0  0  0  0  0  0  0  0  0  0  0
   -6.5480   21.0060  -32.3200 C   0  0  0  0  0  0  0  0  0  0  0  0
   -4.3840   23.5220  -28.6660 C   0  0  0  0  0  0  0  0  0  0  0  0
   -3.6250   22.7680  -27.7660 C   0  0  0  0  0  0  0  0  0  0  0  0
   -2.5827   19.3080  -25.1206 H   0  0  0  0  0  0  0  0  0  0  0  0
   -4.1919   19.2208  -25.9141 H   0  0  0  0  0  0  0  0  0  0  0  0
   -3.1116   17.7857  -25.9141 H   0  0  0  0  0  0  0  0  0  0  0  0
   -1.6356   18.7376  -27.4894 H   0  0  0  0  0  0  0  0  0  0  0  0
   -3.2836   19.2462  -28.0675 H   0  0  0  0  0  0  0  0  0  0  0  0
   -2.2713   21.2175  -26.2213 H   0  0  0  0  0  0  0  0  0  0  0  0
   -1.0360   20.8860  -27.5092 H   0  0  0  0  0  0  0  0  0  0  0  0
   -2.3250   20.4683  -29.9393 H   0  0  0  0  0  0  0  0  0  0  0  0
   -3.6725   21.8150  -31.5433 H   0  0  0  0  0  0  0  0  0  0  0  0
   -4.8016   25.8150  -30.0973 H   0  0  0  0  0  0  0  0  0  0  0  0
   -5.8709   25.8421  -31.5490 H   0  0  0  0  0  0  0  0  0  0  0  0
   -6.5415   25.3023  -28.6645 H   0  0  0  0  0  0  0  0  0  0  0  0
   -7.4667   26.1937  -29.9200 H   0  0  0  0  0  0  0  0  0  0  0  0
   -7.4535   24.3975  -29.9200 H   0  0  0  0  0  0  0  0  0  0  0  0
   -5.8913   24.1347  -32.9358 H   0  0  0  0  0  0  0  0  0  0  0  0
   -4.7184   22.8010  -32.6474 H   0  0  0  0  0  0  0  0  0  0  0  0
   -8.1532   23.9208  -31.5123 H   0  0  0  0  0  0  0  0  0  0  0  0
  -10.0675   22.3327  -31.2975 H   0  0  0  0  0  0  0  0  0  0  0  0
   -9.7323   19.8994  -31.7436 H   0  0  0  0  0  0  0  0  0  0  0  0
   -7.4794   19.0496  -32.4093 H   0  0  0  0  0  0  0  0  0  0  0  0
   -5.5578   20.6292  -32.6160 H   0  0  0  0  0  0  0  0  0  0  0  0
   -4.9656   24.3830  -28.3049 H   0  0  0  0  0  0  0  0  0  0  0  0
   -3.6131   23.0381  -26.6997 H   0  0  0  0  0  0  0  0  0  0  0  0
  1  2  1  0
  2  3  1  0
  3  4  1  0
  4  5  2  0
  5  6  1  0
  6  7  2  0
  7  8  1  0
  8  9  1  0
  9 10  1  0
  8 11  1  0
 11 12  1  0
 12 13  2  0
 13 14  1  0
 14 15  2  0
 15 16  1  0
 16 17  2  0
  7 18  1  0
 18 19  2  0
 19  4  1  0
 17 12  1  0
  1 20  1  0
  1 21  1  0
  1 22  1  0
  2 23  1  0
  2 24  1  0
  3 25  1  0
  3 26  1  0
  5 27  1  0
  6 28  1  0
  9 29  1  0
  9 30  1  0
 10 31  1  0
 10 32  1  0
 10 33  1  0
 11 34  1  0
 11 35  1  0
 13 36  1  0
 14 37  1  0
 15 38  1  0
 16 39  1  0
 17 40  1  0
 18 41  1  0
 19 42  1  0
M  END
>  <UniqueID>  (9) 
8

>  <SMILES>  (9) 
CCCc1ccc(N(CC)Cc2ccccc2)cc1

>  <Energy>  (9) 
35.314086636507334

>  <Genealogy>  (9) 
CCCc1ccc(N(CC)Cc2ccccc2)cc1 (3D coordinates assigned)
CCCc1ccc(N(CC)Cc2ccccc2)cc1 (optimized conformer: 35.314086636507334 kcal/mol)

>  <smiles>  (9) 
CCCc1ccc(N(CC)Cc2ccccc2)cc1

>  <score_type>  (9) 
oracle

>  <origin>  (9) 
adg

>  <m_score__min__energy>  (9) 
-7.2699999999999996

>  <m_primary>  (9) 
energy

$$$$
9:0
     RDKit          3D

 37 38  0  0  0  0  0  0  0  0999 V2000
   -0.2990   23.6800  -25.9790 C   0  0  0  0  0  0  0  0  0  0  0  0
    0.1960   23.9110  -27.4010 C   0  0  0  0  0  0  0  0  0  0  0  0
   -0.9100   23.6850  -28.3920 C   0  0  0  0  0  0  0  0  0  0  0  0
   -0.7010   22.9020  -29.4080 N   0  0  0  0  0  0  0  0  0  0  0  0
   -1.7070   22.6100  -30.3880 C   0  0  0  0  0  0  0  0  0  0  0  0
   -1.3460   21.9150  -31.5460 C   0  0  0  0  0  0  0  0  0  0  0  0
   -2.3180   21.5370  -32.4810 C   0  0  0  0  0  0  0  0  0  0  0  0
   -1.9300   20.7600  -33.7040 C   0  0  0  0  0  0  0  0  0  0  0  0
   -3.6670   21.8060  -32.2160 C   0  0  0  0  0  0  0  0  0  0  0  0
   -4.0360   22.4900  -31.0550 C   0  0  0  0  0  0  0  0  0  0  0  0
   -3.0590   22.9530  -30.1500 C   0  0  0  0  0  0  0  0  0  0  0  0
   -3.4260   23.6220  -28.8190 C   0  0  2  0  0  0  0  0  0  0  0  0
   -3.7160   22.4860  -27.8080 C   0  0  0  0  0  0  0  0  0  0  0  0
   -4.7130   24.5140  -28.8890 C   0  0  0  0  0  0  0  0  0  0  0  0
   -4.8800   25.3130  -30.1540 C   0  0  0  0  0  0  0  0  0  0  0  0
   -3.8800   25.6530  -30.8380 O   0  0  0  0  0  0  0  0  0  0  0  0
   -6.1540   25.6570  -30.5920 O   0  0  0  0  0  0  0  0  0  0  0  0
   -2.2060   24.4590  -28.2860 C   0  0  2  0  0  0  0  0  0  0  0  0
   -2.0570   25.6820  -28.9650 O   0  0  0  0  0  0  0  0  0  0  0  0
    0.4591   24.0338  -25.2648 H   0  0  0  0  0  0  0  0  0  0  0  0
   -1.2366   24.2336  -25.8227 H   0  0  0  0  0  0  0  0  0  0  0  0
   -0.4770   22.6058  -25.8227 H   0  0  0  0  0  0  0  0  0  0  0  0
    0.5579   24.9456  -27.4937 H   0  0  0  0  0  0  0  0  0  0  0  0
    1.0097   23.2015  -27.6116 H   0  0  0  0  0  0  0  0  0  0  0  0
   -0.2902   21.6630  -31.7243 H   0  0  0  0  0  0  0  0  0  0  0  0
   -1.4574   19.8136  -33.4025 H   0  0  0  0  0  0  0  0  0  0  0  0
   -2.8276   20.5471  -34.3032 H   0  0  0  0  0  0  0  0  0  0  0  0
   -1.2205   21.3496  -34.3032 H   0  0  0  0  0  0  0  0  0  0  0  0
   -4.4401   21.4769  -32.9260 H   0  0  0  0  0  0  0  0  0  0  0  0
   -5.1007   22.6693  -30.8446 H   0  0  0  0  0  0  0  0  0  0  0  0
   -3.6172   22.8732  -26.7831 H   0  0  0  0  0  0  0  0  0  0  0  0
   -4.7387   22.1110  -27.9613 H   0  0  0  0  0  0  0  0  0  0  0  0
   -2.9982   21.6667  -27.9613 H   0  0  0  0  0  0  0  0  0  0  0  0
   -5.5879   23.8552  -28.7863 H   0  0  0  0  0  0  0  0  0  0  0  0
   -4.6146   25.2502  -28.0777 H   0  0  0  0  0  0  0  0  0  0  0  0
   -2.4273   24.6658  -27.2285 H   0  0  0  0  0  0  0  0  0  0  0  0
   -2.6460   25.6610  -29.7650 H   0  0  0  0  0  0  0  0  0  0  0  0
  1  2  1  0
  2  3  1  0
  3  4  2  0
  4  5  1  0
  5  6  2  0
  6  7  1  0
  7  8  1  0
  7  9  2  0
  9 10  1  0
 10 11  2  0
 11 12  1  0
 12 13  1  1
 12 14  1  0
 14 15  1  0
 15 16  2  0
 15 17  1  0
 12 18  1  0
 18 19  1  0
 18  3  1  0
 11  5  1  0
  1 20  1  0
  1 21  1  0
  1 22  1  0
  2 23  1  0
  2 24  1  0
  6 25  1  0
  8 26  1  0
  8 27  1  0
  8 28  1  0
  9 29  1  0
 10 30  1  0
 13 31  1  0
 13 32  1  0
 13 33  1  0
 14 34  1  0
 14 35  1  0
 18 36  1  1
 19 37  1  0
M  CHG  1  17  -1
M  END
>  <UniqueID>  (10) 
9

>  <SMILES>  (10) 
CCC1=Nc2cc(C)ccc2[C@](C)(CC(=O)[O-])[C@@H]1O

>  <Energy>  (10) 
39.527515750922575

>  <Genealogy>  (10) 
CCC1=Nc2cc(C)ccc2C(C)(CC(=O)[O-])C1O (protonated)
CCC1=Nc2cc(C)ccc2[C@](C)(CC(=O)[O-])[C@@H]1O (chirality)
CCC1=Nc2cc(C)ccc2[C@](C)(CC(=O)[O-])[C@@H]1O (3D coordinates assigned)
CCC1=Nc2cc(C)ccc2[C@](C)(CC(=O)[O-])[C@@H]1O (nonaromatic ring conformer: 39.527515750922575 kcal/mol)

>  <smiles>  (10) 
CCC1=Nc2cc(C)ccc2C(C)(CC(=O)O)C1O

>  <score_type>  (10) 
oracle

>  <origin>  (10) 
adg

>  <m_score__min__energy>  (10) 
-9.0899999999999999

>  <m_primary>  (10) 
energy

$$$$
10:0
     RDKit          3D

 41 43  0  0  0  0  0  0  0  0999 V2000
   -2.9230   24.5620  -27.0600 C   0  0  0  0  0  0  0  0  0  0  0  0
   -1.8610   24.7710  -28.1290 C   0  0  0  0  0  0  0  0  0  0  0  0
   -2.4800   25.2680  -29.3490 N   0  0  0  0  0  0  0  0  0  0  0  0
   -3.4940   24.5470  -30.0530 C   0  0  0  0  0  0  0  0  0  0  0  0
   -4.2900   25.1500  -30.8210 O   0  0  0  0  0  0  0  0  0  0  0  0
   -3.5800   23.0610  -29.9100 C   0  0  0  0  0  0  0  0  0  0  0  0
   -3.1850   22.4070  -31.1620 N   0  0  0  0  0  0  0  0  0  0  0  0
   -1.9220   22.1350  -31.5330 C   0  0  0  0  0  0  0  0  0  0  0  0
   -1.9700   21.3680  -32.6770 C   0  0  0  0  0  0  0  0  0  0  0  0
   -0.8200   20.8260  -33.4160 C   0  0  0  0  0  0  0  0  0  0  0  0
   -0.1350   19.6490  -33.1330 C   0  0  0  0  0  0  0  0  0  0  0  0
    0.9200   19.3990  -34.0210 C   0  0  0  0  0  0  0  0  0  0  0  0
    1.0690   20.3730  -34.9990 C   0  0  0  0  0  0  0  0  0  0  0  0
   -0.1120   21.5460  -34.7600 S   0  0  0  0  0  0  0  0  0  0  0  0
   -3.2540   21.1390  -33.0220 N   0  0  0  0  0  0  0  0  0  0  0  0
   -3.9700   21.7940  -32.0820 C   0  0  0  0  0  0  0  0  0  0  0  0
   -5.4430   21.7470  -32.0450 C   0  0  0  0  0  0  0  0  0  0  0  0
   -6.1020   20.5160  -32.1750 C   0  0  0  0  0  0  0  0  0  0  0  0
   -7.4980   20.4530  -32.1290 C   0  0  0  0  0  0  0  0  0  0  0  0
   -8.2520   21.6240  -31.9550 C   0  0  0  0  0  0  0  0  0  0  0  0
   -9.7500   21.5690  -31.9160 C   0  0  0  0  0  0  0  0  0  0  0  0
   -7.5950   22.8590  -31.8610 C   0  0  0  0  0  0  0  0  0  0  0  0
   -6.2000   22.9210  -31.9100 C   0  0  0  0  0  0  0  0  0  0  0  0
   -2.4639   24.6523  -26.0645 H   0  0  0  0  0  0  0  0  0  0  0  0
   -3.7099   25.3225  -27.1713 H   0  0  0  0  0  0  0  0  0  0  0  0
   -3.3631   23.5600  -27.1713 H   0  0  0  0  0  0  0  0  0  0  0  0
   -1.1214   25.5022  -27.7708 H   0  0  0  0  0  0  0  0  0  0  0  0
   -1.3635   23.8126  -28.3387 H   0  0  0  0  0  0  0  0  0  0  0  0
   -2.9086   22.7344  -29.1021 H   0  0  0  0  0  0  0  0  0  0  0  0
   -4.6174   22.7832  -29.6722 H   0  0  0  0  0  0  0  0  0  0  0  0
   -1.0102   22.4664  -31.0145 H   0  0  0  0  0  0  0  0  0  0  0  0
   -0.3948   18.9824  -32.2974 H   0  0  0  0  0  0  0  0  0  0  0  0
    1.5692   18.5139  -33.9498 H   0  0  0  0  0  0  0  0  0  0  0  0
    1.8293   20.3768  -35.7940 H   0  0  0  0  0  0  0  0  0  0  0  0
   -5.5173   19.5947  -32.3140 H   0  0  0  0  0  0  0  0  0  0  0  0
   -8.0068   19.4829  -32.2295 H   0  0  0  0  0  0  0  0  0  0  0  0
  -10.0893   21.5565  -30.8697 H   0  0  0  0  0  0  0  0  0  0  0  0
  -10.1627   22.4526  -32.4248 H   0  0  0  0  0  0  0  0  0  0  0  0
  -10.0968   20.6575  -32.4248 H   0  0  0  0  0  0  0  0  0  0  0  0
   -8.1805   23.7834  -31.7482 H   0  0  0  0  0  0  0  0  0  0  0  0
   -5.6927   23.8947  -31.8424 H   0  0  0  0  0  0  0  0  0  0  0  0
  1  2  1  0
  2  3  1  0
  3  4  1  0
  4  5  2  0
  4  6  1  0
  6  7  1  0
  7  8  1  0
  8  9  2  0
  9 10  1  0
 10 11  2  0
 11 12  1  0
 12 13  2  0
 13 14  1  0
  9 15  1  0
 15 16  2  0
 16 17  1  0
 17 18  2  0
 18 19  1  0
 19 20  2  0
 20 21  1  0
 20 22  1  0
 22 23  2  0
 16  7  1  0
 23 17  1  0
 14 10  1  0
  1 24  1  0
  1 25  1  0
  1 26  1  0
  2 27  1  0
  2 28  1  0
  6 29  1  0
  6 30  1  0
  8 31  1  0
 11 32  1  0
 12 33  1  0
 13 34  1  0
 18 35  1  0
 19 36  1  0
 21 37  1  0
 21 38  1  0
 21 39  1  0
 22 40  1  0
 23 41  1  0
M  CHG  1   3  -1
M  END
>  <UniqueID>  (11) 
10

>  <SMILES>  (11) 
CC[N-]C(=O)Cn1cc(-c2cccs2)nc1-c1ccc(C)cc1

>  <Energy>  (11) 
93.25690989151283

>  <Genealogy>  (11) 
CC[N-]C(=O)Cn1cc(-c2cccs2)nc1-c1ccc(C)cc1 (protonated)
CC[N-]C(=O)Cn1cc(-c2cccs2)nc1-c1ccc(C)cc1 (3D coordinates assigned)
CC[N-]C(=O)Cn1cc(-c2cccs2)nc1-c1ccc(C)cc1 (optimized conformer: 93.25690989151283 kcal/mol)

>  <smiles>  (11) 
CCNC(=O)Cn1cc(-c2cccs2)nc1-c1ccc(C)cc1

>  <score_type>  (11) 
oracle

>  <origin>  (11) 
adg

>  <m_score__min__energy>  (11) 
-9.5299999999999994

>  <m_primary>  (11) 
energy

$$$$
11:0
     RDKit          3D

 22 23  0  0  0  0  0  0  0  0999 V2000
   -6.4870   17.8270  -32.9840 C   0  0  0  0  0  0  0  0  0  0  0  0
   -6.1130   19.3000  -33.9840 S   0  0  0  0  0  0  0  0  0  0  0  0
   -7.2310   20.3610  -33.0490 C   0  0  0  0  0  0  0  0  0  0  0  0
   -8.5550   20.0360  -33.0180 N   0  0  0  0  0  0  0  0  0  0  0  0
   -9.4650   20.7830  -32.3380 C   0  0  0  0  0  0  0  0  0  0  0  0
   -9.0640   21.9190  -31.6390 C   0  0  0  0  0  0  0  0  0  0  0  0
   -7.7140   22.2870  -31.6400 C   0  0  0  0  0  0  0  0  0  0  0  0
   -7.2900   23.4270  -30.9410 C   0  0  0  0  0  0  0  0  0  0  0  0
   -5.9420   23.7920  -30.9430 C   0  0  0  0  0  0  0  0  0  0  0  0
   -5.0090   23.0240  -31.6410 C   0  0  0  0  0  0  0  0  0  0  0  0
   -5.4170   21.8860  -32.3420 C   0  0  0  0  0  0  0  0  0  0  0  0
   -6.7720   21.5020  -32.3520 C   0  0  0  0  0  0  0  0  0  0  0  0
   -6.4221   18.0827  -31.9161 H   0  0  0  0  0  0  0  0  0  0  0  0
   -7.5030   17.4749  -33.2156 H   0  0  0  0  0  0  0  0  0  0  0  0
   -5.7620   17.0328  -33.2156 H   0  0  0  0  0  0  0  0  0  0  0  0
   -8.8880   19.1900  -33.5330 H   0  0  0  0  0  0  0  0  0  0  0  0
  -10.5248   20.4883  -32.3399 H   0  0  0  0  0  0  0  0  0  0  0  0
   -9.8026   22.5220  -31.0906 H   0  0  0  0  0  0  0  0  0  0  0  0
   -8.0218   24.0355  -30.3894 H   0  0  0  0  0  0  0  0  0  0  0  0
   -5.6149   24.6868  -30.3932 H   0  0  0  0  0  0  0  0  0  0  0  0
   -3.9483   23.3155  -31.6394 H   0  0  0  0  0  0  0  0  0  0  0  0
   -4.6750   21.2863  -32.8895 H   0  0  0  0  0  0  0  0  0  0  0  0
  1  2  1  0
  2  3  1  0
  3  4  2  0
  4  5  1  0
  5  6  2  0
  6  7  1  0
  7  8  2  0
  8  9  1  0
  9 10  2  0
 10 11  1  0
 11 12  2  0
 12  3  1  0
 12  7  1  0
  1 13  1  0
  1 14  1  0
  1 15  1  0
  4 16  1  0
  5 17  1  0
  6 18  1  0
  8 19  1  0
  9 20  1  0
 10 21  1  0
 11 22  1  0
M  CHG  1   4   1
M  END
>  <UniqueID>  (12) 
11

>  <SMILES>  (12) 
CSc1[nH+]ccc2ccccc12

>  <Energy>  (12) 
23.131093248715672

>  <Genealogy>  (12) 
CSc1[nH+]ccc2ccccc12 (protonated)
CSc1[nH+]ccc2ccccc12 (3D coordinates assigned)
CSc1[nH+]ccc2ccccc12 (optimized conformer: 23.131093248715672 kcal/mol)

>  <smiles>  (12) 
CSc1nccc2ccccc12

>  <score_type>  (12) 
oracle

>  <origin>  (12) 
adg

>  <m_score__min__energy>  (12) 
-5.4299999999999997

>  <m_primary>  (12) 
energy

$$$$
12:0
     RDKit          3D

 57 60  0  0  0  0  0  0  0  0999 V2000
   -9.4880   20.2140  -32.3420 C   0  0  0  0  0  0  0  0  0  0  0  0
   -8.4550   21.2540  -31.9960 C   0  0  0  0  0  0  0  0  0  0  0  0
   -8.8760   22.5150  -31.5520 C   0  0  0  0  0  0  0  0  0  0  0  0
   -7.9670   23.4560  -31.1900 N   0  0  0  0  0  0  0  0  0  0  0  0
   -6.6330   23.2020  -31.2640 C   0  0  0  0  0  0  0  0  0  0  0  0
   -5.6320   24.2570  -30.8830 C   0  0  0  0  0  0  0  0  0  0  0  0
   -5.5580   24.4530  -29.4240 N   0  0  0  0  0  0  0  0  0  0  0  0
   -4.5580   23.6010  -28.7550 C   0  0  0  0  0  0  0  0  0  0  0  0
   -3.1310   23.7470  -29.3440 C   0  0  1  0  0  0  0  0  0  0  0  0
   -2.3450   24.7820  -28.5100 C   0  0  0  0  0  0  0  0  0  0  0  0
   -0.9660   24.9150  -28.9900 N   0  0  0  0  0  0  0  0  0  0  0  0
   -0.1840   23.6630  -28.9300 C   0  0  0  0  0  0  0  0  0  0  0  0
   -1.0200   22.3950  -28.6670 C   0  0  0  0  0  0  0  0  0  0  0  0
   -2.3730   22.3770  -29.4110 C   0  0  2  0  0  0  0  0  0  0  0  0
   -2.2110   21.8600  -30.8360 C   0  0  0  0  0  0  0  0  0  0  0  0
   -0.9800   21.3120  -31.2460 C   0  0  0  0  0  0  0  0  0  0  0  0
   -0.7960   20.8840  -32.5640 C   0  0  0  0  0  0  0  0  0  0  0  0
   -1.8310   21.0060  -33.4920 C   0  0  0  0  0  0  0  0  0  0  0  0
   -3.0570   21.5470  -33.1000 C   0  0  0  0  0  0  0  0  0  0  0  0
   -3.2500   21.9640  -31.7810 C   0  0  0  0  0  0  0  0  0  0  0  0
   -6.2010   21.9940  -31.7080 N   0  0  0  0  0  0  0  0  0  0  0  0
   -7.0660   21.0150  -32.0860 C   0  0  0  0  0  0  0  0  0  0  0  0
   -6.4980   19.7280  -32.5410 C   0  0  0  0  0  0  0  0  0  0  0  0
   -5.9810   19.5810  -33.8400 C   0  0  0  0  0  0  0  0  0  0  0  0
   -5.4310   18.3610  -34.2460 C   0  0  0  0  0  0  0  0  0  0  0  0
   -5.3770   17.2860  -33.3550 C   0  0  0  0  0  0  0  0  0  0  0  0
   -5.8660   17.4320  -32.0540 C   0  0  0  0  0  0  0  0  0  0  0  0
   -6.4160   18.6500  -31.6450 C   0  0  0  0  0  0  0  0  0  0  0  0
   -9.9074   19.7918  -31.4169 H   0  0  0  0  0  0  0  0  0  0  0  0
  -10.2928   20.6783  -32.9309 H   0  0  0  0  0  0  0  0  0  0  0  0
   -9.0183   19.4124  -32.9309 H   0  0  0  0  0  0  0  0  0  0  0  0
   -9.9505   22.7437  -31.4965 H   0  0  0  0  0  0  0  0  0  0  0  0
   -8.3070   24.3860  -30.8540 H   0  0  0  0  0  0  0  0  0  0  0  0
   -4.6405   23.9538  -31.2505 H   0  0  0  0  0  0  0  0  0  0  0  0
   -5.9534   25.2067  -31.3355 H   0  0  0  0  0  0  0  0  0  0  0  0
   -6.4970   24.3780  -28.9710 H   0  0  0  0  0  0  0  0  0  0  0  0
   -4.5249   23.8731  -27.6897 H   0  0  0  0  0  0  0  0  0  0  0  0
   -4.8670   22.5565  -28.9082 H   0  0  0  0  0  0  0  0  0  0  0  0
   -3.2167   24.0999  -30.3823 H   0  0  0  0  0  0  0  0  0  0  0  0
   -2.8464   25.7582  -28.5851 H   0  0  0  0  0  0  0  0  0  0  0  0
   -2.3178   24.4383  -27.4654 H   0  0  0  0  0  0  0  0  0  0  0  0
   -0.9850   25.2670  -29.9760 H   0  0  0  0  0  0  0  0  0  0  0  0
    0.3364   23.5374  -29.8909 H   0  0  0  0  0  0  0  0  0  0  0  0
    0.5028   23.7655  -28.0769 H   0  0  0  0  0  0  0  0  0  0  0  0
   -0.4352   21.5207  -28.9889 H   0  0  0  0  0  0  0  0  0  0  0  0
   -1.2453   22.3766  -27.5905 H   0  0  0  0  0  0  0  0  0  0  0  0
   -3.0214   21.6662  -28.8778 H   0  0  0  0  0  0  0  0  0  0  0  0
   -0.1563   21.2200  -30.5228 H   0  0  0  0  0  0  0  0  0  0  0  0
    0.1672   20.4499  -32.8704 H   0  0  0  0  0  0  0  0  0  0  0  0
   -1.6812   20.6765  -34.5307 H   0  0  0  0  0  0  0  0  0  0  0  0
   -3.8727   21.6450  -33.8315 H   0  0  0  0  0  0  0  0  0  0  0  0
   -4.2230   22.3777  -31.4774 H   0  0  0  0  0  0  0  0  0  0  0  0
   -6.0092   20.4291  -34.5400 H   0  0  0  0  0  0  0  0  0  0  0  0
   -5.0404   18.2475  -35.2680 H   0  0  0  0  0  0  0  0  0  0  0  0
   -4.9497   16.3251  -33.6775 H   0  0  0  0  0  0  0  0  0  0  0  0
   -5.8180   16.5873  -31.3510 H   0  0  0  0  0  0  0  0  0  0  0  0
   -6.7866   18.7647  -30.6157 H   0  0  0  0  0  0  0  0  0  0  0  0
  1  2  1  0
  2  3  2  0
  3  4  1  0
  4  5  2  0
  5  6  1  0
  6  7  1  0
  7  8  1  0
  8  9  1  0
  9 10  1  0
 10 11  1  0
 11 12  1  0
 12 13  1  0
 13 14  1  0
 14 15  1  0
 15 16  2  0
 16 17  1  0
 17 18  2  0
 18 19  1  0
 19 20  2  0
  5 21  1  0
 21 22  2  0
 22 23  1  0
 23 24  2  0
 24 25  1  0
 25 26  2  0
 26 27  1  0
 27 28  2  0
 22  2  1  0
 28 23  1  0
 14  9  1  0
 20 15  1  0
  1 29  1  0
  1 30  1  0
  1 31  1  0
  3 32  1  0
  4 33  1  0
  6 34  1  0
  6 35  1  0
  7 36  1  0
  8 37  1  0
  8 38  1  0
  9 39  1  6
 10 40  1  0
 10 41  1  0
 11 42  1  0
 12 43  1  0
 12 44  1  0
 13 45  1  0
 13 46  1  0
 14 47  1  1
 16 48  1  0
 17 49  1  0
 18 50  1  0
 19 51  1  0
 20 52  1  0
 24 53  1  0
 25 54  1  0
 26 55  1  0
 27 56  1  0
 28 57  1  0
M  CHG  1   4   1
M  END
>  <UniqueID>  (13) 
12

>  <SMILES>  (13) 
Cc1c[nH+]c(CNC[C@H]2CNCC[C@@H]2c2ccccc2)nc1-c1ccccc1

>  <Energy>  (13) 
71.62492917884649

>  <Genealogy>  (13) 
Cc1c[nH+]c(CNCC2CNCCC2c2ccccc2)nc1-c1ccccc1 (protonated)
Cc1c[nH+]c(CNC[C@H]2CNCC[C@@H]2c2ccccc2)nc1-c1ccccc1 (chirality)
Cc1c[nH+]c(CNC[C@H]2CNCC[C@@H]2c2ccccc2)nc1-c1ccccc1 (3D coordinates assigned)
Cc1c[nH+]c(CNC[C@H]2CNCC[C@@H]2c2ccccc2)nc1-c1ccccc1 (nonaromatic ring conformer: 71.62492917884649 kcal/mol)

>  <smiles>  (13) 
Cc1cnc(CNCC2CNCCC2c2ccccc2)nc1-c1ccccc1

>  <score_type>  (13) 
oracle

>  <origin>  (13) 
adg

>  <m_score__min__energy>  (13) 
-9.5700000000000003

>  <m_primary>  (13) 
energy

$$$$
13:0
     RDKit          3D

 41 43  0  0  0  0  0  0  0  0999 V2000
   -3.2250   25.3200  -26.0510 C   0  0  0  0  0  0  0  0  0  0  0  0
   -1.9860   26.1180  -26.0930 N   0  0  0  0  0  0  0  0  0  0  0  0
   -1.1730   25.8210  -24.8990 C   0  0  0  0  0  0  0  0  0  0  0  0
   -1.2390   25.8320  -27.3440 C   0  0  0  0  0  0  0  0  0  0  0  0
   -1.7530   24.5770  -28.0770 C   0  0  0  0  0  0  0  0  0  0  0  0
   -2.4110   24.9210  -29.3410 N   0  0  0  0  0  0  0  0  0  0  0  0
   -3.6160   24.2830  -29.8010 C   0  0  0  0  0  0  0  0  0  0  0  0
   -4.9000   24.7220  -29.3800 C   0  0  0  0  0  0  0  0  0  0  0  0
   -6.0620   24.0840  -29.8410 C   0  0  0  0  0  0  0  0  0  0  0  0
   -5.9250   23.0140  -30.7210 C   0  0  0  0  0  0  0  0  0  0  0  0
   -4.6850   22.5780  -31.1440 C   0  0  0  0  0  0  0  0  0  0  0  0
   -3.5180   23.1950  -30.6950 C   0  0  0  0  0  0  0  0  0  0  0  0
   -4.8070   21.4080  -32.0870 C   0  0  2  0  0  0  0  0  0  0  0  0
   -4.2740   21.7040  -33.3540 O   0  0  0  0  0  0  0  0  0  0  0  0
   -6.3040   21.2460  -32.1350 C   0  0  0  0  0  0  0  0  0  0  0  0
   -7.0410   20.3000  -32.8500 C   0  0  0  0  0  0  0  0  0  0  0  0
   -8.4420   20.3240  -32.7490 C   0  0  0  0  0  0  0  0  0  0  0  0
   -9.0820   21.2830  -31.9390 C   0  0  0  0  0  0  0  0  0  0  0  0
   -8.3280   22.2260  -31.2230 C   0  0  0  0  0  0  0  0  0  0  0  0
   -6.9380   22.1830  -31.3400 C   0  0  0  0  0  0  0  0  0  0  0  0
   -3.5083   25.1375  -25.0039 H   0  0  0  0  0  0  0  0  0  0  0  0
   -4.0319   25.8686  -26.5589 H   0  0  0  0  0  0  0  0  0  0  0  0
   -3.0592   24.3585  -26.5589 H   0  0  0  0  0  0  0  0  0  0  0  0
   -2.2620   27.1280  -26.0600 H   0  0  0  0  0  0  0  0  0  0  0  0
   -1.7596   26.0353  -23.9934 H   0  0  0  0  0  0  0  0  0  0  0  0
   -0.8847   24.7595  -24.9065 H   0  0  0  0  0  0  0  0  0  0  0  0
   -0.2683   26.4467  -24.9065 H   0  0  0  0  0  0  0  0  0  0  0  0
   -1.3377   26.6965  -28.0170 H   0  0  0  0  0  0  0  0  0  0  0  0
   -0.1908   25.6460  -27.0670 H   0  0  0  0  0  0  0  0  0  0  0  0
   -0.9018   23.9127  -28.2871 H   0  0  0  0  0  0  0  0  0  0  0  0
   -2.4902   24.0789  -27.4301 H   0  0  0  0  0  0  0  0  0  0  0  0
   -1.9960   25.6710  -29.9400 H   0  0  0  0  0  0  0  0  0  0  0  0
   -4.9843   25.5708  -28.6855 H   0  0  0  0  0  0  0  0  0  0  0  0
   -7.0569   24.4213  -29.5149 H   0  0  0  0  0  0  0  0  0  0  0  0
   -2.5338   22.8386  -31.0330 H   0  0  0  0  0  0  0  0  0  0  0  0
   -4.2600   20.5071  -31.7719 H   0  0  0  0  0  0  0  0  0  0  0  0
   -4.8080   22.4450  -33.7450 H   0  0  0  0  0  0  0  0  0  0  0  0
   -6.5356   19.5521  -33.4787 H   0  0  0  0  0  0  0  0  0  0  0  0
   -9.0429   19.5898  -33.3056 H   0  0  0  0  0  0  0  0  0  0  0  0
  -10.1796   21.2928  -31.8673 H   0  0  0  0  0  0  0  0  0  0  0  0
   -8.8190   22.9778  -30.5875 H   0  0  0  0  0  0  0  0  0  0  0  0
  1  2  1  0
  2  3  1  0
  2  4  1  0
  4  5  1  0
  5  6  1  0
  6  7  1  0
  7  8  2  0
  8  9  1  0
  9 10  2  0
 10 11  1  0
 11 12  2  0
 11 13  1  0
 13 14  1  0
 13 15  1  0
 15 16  2  0
 16 17  1  0
 17 18  2  0
 18 19  1  0
 19 20  2  0
 12  7  1  0
 20 15  1  0
 20 10  1  0
  1 21  1  0
  1 22  1  0
  1 23  1  0
  2 24  1  0
  3 25  1  0
  3 26  1  0
  3 27  1  0
  4 28  1  0
  4 29  1  0
  5 30  1  0
  5 31  1  0
  6 32  1  0
  8 33  1  0
  9 34  1  0
 12 35  1  0
 13 36  1  1
 14 37  1  0
 16 38  1  0
 17 39  1  0
 18 40  1  0
 19 41  1  0
M  CHG  1   2   1
M  END
>  <UniqueID>  (14) 
13

>  <SMILES>  (14) 
C[NH+](C)CCNc1ccc2c(c1)[C@H](O)c1ccccc1-2

>  <Energy>  (14) 
65.86750906474448

>  <Genealogy>  (14) 
C[NH+](C)CCNc1ccc2c(c1)C(O)c1ccccc1-2 (protonated)
C[NH+](C)CCNc1ccc2c(c1)[C@H](O)c1ccccc1-2 (chirality)
C[NH+](C)CCNc1ccc2c(c1)[C@H](O)c1ccccc1-2 (3D coordinates assigned)
C[NH+](C)CCNc1ccc2c(c1)[C@H](O)c1ccccc1-2 (nonaromatic ring conformer: 65.86750906474448 kcal/mol)

>  <smiles>  (14) 
CN(C)CCNc1ccc2c(c1)C(O)c1ccccc1-2

>  <score_type>  (14) 
oracle

>  <origin>  (14) 
adg

>  <m_score__min__energy>  (14) 
-7.5899999999999999

>  <m_primary>  (14) 
energy

$$$$
14:0
     RDKit          3D

 59 61  0  0  0  0  0  0  0  0999 V2000
   -9.4860   20.8310  -32.0640 C   0  0  0  0  0  0  0  0  0  0  0  0
   -8.9470   21.9290  -31.1520 C   0  0  0  0  0  0  0  0  0  0  0  0
   -8.1850   23.0000  -31.9620 C   0  0  0  0  0  0  0  0  0  0  0  0
   -6.7120   22.7950  -32.0100 N   0  0  0  0  0  0  0  0  0  0  0  0
   -6.3090   21.5260  -32.6780 C   0  0  0  0  0  0  0  0  0  0  0  0
   -5.9810   20.3630  -31.7160 C   0  0  0  0  0  0  0  0  0  0  0  0
   -6.5140   19.0140  -32.1970 C   0  0  0  0  0  0  0  0  0  0  0  0
   -6.1090   22.8890  -30.6450 C   0  0  0  0  0  0  0  0  0  0  0  0
   -5.1820   24.1170  -30.4360 C   0  0  2  0  0  0  0  0  0  0  0  0
   -5.1930   24.9700  -31.5480 O   0  0  0  0  0  0  0  0  0  0  0  0
   -3.7690   23.7280  -29.9950 C   0  0  0  0  0  0  0  0  0  0  0  0
   -3.3650   24.2330  -28.7430 C   0  0  0  0  0  0  0  0  0  0  0  0
   -2.1080   23.9280  -28.2110 C   0  0  0  0  0  0  0  0  0  0  0  0
   -1.6700   24.4520  -26.8920 C   0  0  0  0  0  0  0  0  0  0  0  0
   -2.0630   25.7280  -26.4420 C   0  0  0  0  0  0  0  0  0  0  0  0
   -1.6320   26.2050  -25.2000 C   0  0  0  0  0  0  0  0  0  0  0  0
   -0.8020   25.4220  -24.3970 C   0  0  0  0  0  0  0  0  0  0  0  0
   -0.3950   24.1610  -24.8360 C   0  0  0  0  0  0  0  0  0  0  0  0
   -0.8210   23.6780  -26.0770 C   0  0  0  0  0  0  0  0  0  0  0  0
   -1.2780   23.1110  -28.9050 N   0  0  0  0  0  0  0  0  0  0  0  0
   -1.6100   22.5800  -30.1080 C   0  0  0  0  0  0  0  0  0  0  0  0
   -0.6910   21.7400  -30.7450 C   0  0  0  0  0  0  0  0  0  0  0  0
   -0.9890   21.1550  -31.9740 C   0  0  0  0  0  0  0  0  0  0  0  0
   -0.0320   20.3150  -32.5640 O   0  0  0  0  0  0  0  0  0  0  0  0
    0.3460   20.3650  -33.9360 C   0  0  0  0  0  0  0  0  0  0  0  0
   -2.2290   21.4210  -32.5730 C   0  0  0  0  0  0  0  0  0  0  0  0
   -3.1560   22.2590  -31.9480 C   0  0  0  0  0  0  0  0  0  0  0  0
   -2.8700   22.8650  -30.7010 C   0  0  0  0  0  0  0  0  0  0  0  0
   -9.8887   20.0106  -31.4517 H   0  0  0  0  0  0  0  0  0  0  0  0
  -10.2852   21.2411  -32.6989 H   0  0  0  0  0  0  0  0  0  0  0  0
   -8.6727   20.4496  -32.6989 H   0  0  0  0  0  0  0  0  0  0  0  0
   -9.7884   22.4060  -30.6280 H   0  0  0  0  0  0  0  0  0  0  0  0
   -8.2507   21.4745  -30.4318 H   0  0  0  0  0  0  0  0  0  0  0  0
   -8.5684   22.9904  -32.9930 H   0  0  0  0  0  0  0  0  0  0  0  0
   -8.3540   23.9606  -31.4534 H   0  0  0  0  0  0  0  0  0  0  0  0
   -6.3430   23.5850  -32.5810 H   0  0  0  0  0  0  0  0  0  0  0  0
   -7.1338   21.2067  -33.3320 H   0  0  0  0  0  0  0  0  0  0  0  0
   -5.3807   21.7458  -33.2257 H   0  0  0  0  0  0  0  0  0  0  0  0
   -4.8880   20.2909  -31.6148 H   0  0  0  0  0  0  0  0  0  0  0  0
   -6.4716   20.5846  -30.7567 H   0  0  0  0  0  0  0  0  0  0  0  0
   -6.7618   18.3867  -31.3280 H   0  0  0  0  0  0  0  0  0  0  0  0
   -7.4172   19.1722  -32.8046 H   0  0  0  0  0  0  0  0  0  0  0  0
   -5.7466   18.5121  -32.8046 H   0  0  0  0  0  0  0  0  0  0  0  0
   -6.9264   22.9462  -29.9111 H   0  0  0  0  0  0  0  0  0  0  0  0
   -5.4799   21.9957  -30.5177 H   0  0  0  0  0  0  0  0  0  0  0  0
   -5.6002   24.6903  -29.5955 H   0  0  0  0  0  0  0  0  0  0  0  0
   -4.9890   25.8850  -31.2200 H   0  0  0  0  0  0  0  0  0  0  0  0
   -4.0503   24.8785  -28.1741 H   0  0  0  0  0  0  0  0  0  0  0  0
   -2.7131   26.3531  -27.0717 H   0  0  0  0  0  0  0  0  0  0  0  0
   -1.9483   27.2005  -24.8551 H   0  0  0  0  0  0  0  0  0  0  0  0
   -0.4686   25.7982  -23.4186 H   0  0  0  0  0  0  0  0  0  0  0  0
    0.2625   23.5458  -24.2041 H   0  0  0  0  0  0  0  0  0  0  0  0
   -0.4907   22.6862  -26.4194 H   0  0  0  0  0  0  0  0  0  0  0  0
    0.2802   21.5384  -30.2694 H   0  0  0  0  0  0  0  0  0  0  0  0
    1.4339   20.5089  -34.0116 H   0  0  0  0  0  0  0  0  0  0  0  0
    0.0658   19.4220  -34.4281 H   0  0  0  0  0  0  0  0  0  0  0  0
   -0.1697   21.2027  -34.4281 H   0  0  0  0  0  0  0  0  0  0  0  0
   -2.4740   20.9656  -33.5439 H   0  0  0  0  0  0  0  0  0  0  0  0
   -4.1244   22.4511  -32.4331 H   0  0  0  0  0  0  0  0  0  0  0  0
  1  2  1  0
  2  3  1  0
  3  4  1  0
  4  5  1  0
  5  6  1  0
  6  7  1  0
  4  8  1  0
  8  9  1  0
  9 10  1  0
  9 11  1  0
 11 12  2  0
 12 13  1  0
 13 14  1  0
 14 15  2  0
 15 16  1  0
 16 17  2  0
 17 18  1  0
 18 19  2  0
 13 20  2  0
 20 21  1  0
 21 22  2  0
 22 23  1  0
 23 24  1  0
 24 25  1  0
 23 26  2  0
 26 27  1  0
 27 28  2  0
 28 11  1  0
 19 14  1  0
 28 21  1  0
  1 29  1  0
  1 30  1  0
  1 31  1  0
  2 32  1  0
  2 33  1  0
  3 34  1  0
  3 35  1  0
  4 36  1  0
  5 37  1  0
  5 38  1  0
  6 39  1  0
  6 40  1  0
  7 41  1  0
  7 42  1  0
  7 43  1  0
  8 44  1  0
  8 45  1  0
  9 46  1  1
 10 47  1  0
 12 48  1  0
 15 49  1  0
 16 50  1  0
 17 51  1  0
 18 52  1  0
 19 53  1  0
 22 54  1  0
 25 55  1  0
 25 56  1  0
 25 57  1  0
 26 58  1  0
 27 59  1  0
M  CHG  1   4   1
M  END
>  <UniqueID>  (15) 
14

>  <SMILES>  (15) 
CCC[NH+](CCC)C[C@H](O)c1cc(-c2ccccc2)nc2cc(OC)ccc12

>  <Energy>  (15) 
74.51590515019909

>  <Genealogy>  (15) 
CCC[NH+](CCC)CC(O)c1cc(-c2ccccc2)nc2cc(OC)ccc12 (protonated)
CCC[NH+](CCC)C[C@H](O)c1cc(-c2ccccc2)nc2cc(OC)ccc12 (chirality)
CCC[NH+](CCC)C[C@H](O)c1cc(-c2ccccc2)nc2cc(OC)ccc12 (3D coordinates assigned)
CCC[NH+](CCC)C[C@H](O)c1cc(-c2ccccc2)nc2cc(OC)ccc12 (optimized conformer: 74.51590515019909 kcal/mol)

>  <smiles>  (15) 
CCCN(CCC)CC(O)c1cc(-c2ccccc2)nc2cc(OC)ccc12

>  <score_type>  (15) 
oracle

>  <origin>  (15) 
adg

>  <m_score__min__energy>  (15) 
-7.6200000000000001

>  <m_primary>  (15) 
energy

$$$$
15:0
     RDKit          3D

 49 52  0  0  0  0  0  0  0  0999 V2000
   -5.3730   26.0360  -30.4570 C   0  0  0  0  0  0  0  0  0  0  0  0
   -4.8280   24.8970  -31.1170 O   0  0  0  0  0  0  0  0  0  0  0  0
   -5.5610   23.7490  -31.4590 C   0  0  0  0  0  0  0  0  0  0  0  0
   -6.9650   23.7060  -31.3690 C   0  0  0  0  0  0  0  0  0  0  0  0
   -7.6620   22.5470  -31.7180 C   0  0  0  0  0  0  0  0  0  0  0  0
   -9.0180   22.5210  -31.6230 N   0  0  0  0  0  0  0  0  0  0  0  0
   -9.7390   21.4160  -31.9490 C   0  0  0  0  0  0  0  0  0  0  0  0
   -9.0920   20.2650  -32.3990 C   0  0  0  0  0  0  0  0  0  0  0  0
   -7.6980   20.2520  -32.5120 C   0  0  0  0  0  0  0  0  0  0  0  0
   -7.0480   19.0640  -32.9830 N   0  0  0  0  0  0  0  0  0  0  0  0
   -7.2600   17.7920  -32.2830 C   0  0  0  0  0  0  0  0  0  0  0  0
   -5.9340   17.0290  -32.1590 C   0  0  0  0  0  0  0  0  0  0  0  0
   -5.1500   17.0900  -33.4030 N   0  0  0  0  0  0  0  0  0  0  0  0
   -3.8070   16.5710  -33.4200 C   0  0  0  0  0  0  0  0  0  0  0  0
   -3.5560   15.2320  -33.0710 C   0  0  0  0  0  0  0  0  0  0  0  0
   -2.2490   14.7340  -33.0770 C   0  0  0  0  0  0  0  0  0  0  0  0
   -1.1830   15.5670  -33.4260 C   0  0  0  0  0  0  0  0  0  0  0  0
   -1.4220   16.9010  -33.7680 C   0  0  0  0  0  0  0  0  0  0  0  0
   -2.7260   17.4020  -33.7650 C   0  0  0  0  0  0  0  0  0  0  0  0
   -5.7110   17.7480  -34.5910 C   0  0  0  0  0  0  0  0  0  0  0  0
   -6.2410   19.1310  -34.2080 C   0  0  0  0  0  0  0  0  0  0  0  0
   -6.9620   21.4050  -32.1670 C   0  0  0  0  0  0  0  0  0  0  0  0
   -5.5600   21.4490  -32.2530 C   0  0  0  0  0  0  0  0  0  0  0  0
   -4.8560   22.6190  -31.9010 C   0  0  0  0  0  0  0  0  0  0  0  0
   -3.4570   22.6950  -31.9760 O   0  0  0  0  0  0  0  0  0  0  0  0
   -2.6030   21.6030  -32.3050 C   0  0  0  0  0  0  0  0  0  0  0  0
   -5.3059   25.8958  -29.3680 H   0  0  0  0  0  0  0  0  0  0  0  0
   -4.8068   26.9335  -30.7467 H   0  0  0  0  0  0  0  0  0  0  0  0
   -6.4271   26.1581  -30.7467 H   0  0  0  0  0  0  0  0  0  0  0  0
   -7.5173   24.5915  -31.0213 H   0  0  0  0  0  0  0  0  0  0  0  0
  -10.8351   21.4293  -31.8578 H   0  0  0  0  0  0  0  0  0  0  0  0
   -9.6758   19.3712  -32.6639 H   0  0  0  0  0  0  0  0  0  0  0  0
   -7.6595   17.9924  -31.2779 H   0  0  0  0  0  0  0  0  0  0  0  0
   -7.9738   17.1814  -32.8554 H   0  0  0  0  0  0  0  0  0  0  0  0
   -5.3432   17.4720  -31.3437 H   0  0  0  0  0  0  0  0  0  0  0  0
   -6.1648   15.9737  -31.9517 H   0  0  0  0  0  0  0  0  0  0  0  0
   -4.3915   14.5732  -32.7920 H   0  0  0  0  0  0  0  0  0  0  0  0
   -2.0600   13.6847  -32.8065 H   0  0  0  0  0  0  0  0  0  0  0  0
   -0.1560   15.1731  -33.4316 H   0  0  0  0  0  0  0  0  0  0  0  0
   -0.5821   17.5572  -34.0399 H   0  0  0  0  0  0  0  0  0  0  0  0
   -2.9085   18.4528  -34.0341 H   0  0  0  0  0  0  0  0  0  0  0  0
   -4.9269   17.8549  -35.3551 H   0  0  0  0  0  0  0  0  0  0  0  0
   -6.5345   17.1388  -34.9919 H   0  0  0  0  0  0  0  0  0  0  0  0
   -5.3908   19.8089  -34.0421 H   0  0  0  0  0  0  0  0  0  0  0  0
   -6.8756   19.5023  -35.0262 H   0  0  0  0  0  0  0  0  0  0  0  0
   -5.0069   20.5629  -32.5979 H   0  0  0  0  0  0  0  0  0  0  0  0
   -2.2357   21.1333  -31.3806 H   0  0  0  0  0  0  0  0  0  0  0  0
   -3.1645   20.8630  -32.8942 H   0  0  0  0  0  0  0  0  0  0  0  0
   -1.7495   21.9696  -32.8942 H   0  0  0  0  0  0  0  0  0  0  0  0
  1  2  1  0
  2  3  1  0
  3  4  2  0
  4  5  1  0
  5  6  2  0
  6  7  1  0
  7  8  2  0
  8  9  1  0
  9 10  1  0
 10 11  1  0
 11 12  1  0
 12 13  1  0
 13 14  1  0
 14 15  2  0
 15 16  1  0
 16 17  2  0
 17 18  1  0
 18 19  2  0
 13 20  1  0
 20 21  1  0
  9 22  2  0
 22 23  1  0
 23 24  2  0
 24 25  1  0
 25 26  1  0
 24  3  1  0
 22  5  1  0
 21 10  1  0
 19 14  1  0
  1 27  1  0
  1 28  1  0
  1 29  1  0
  4 30  1  0
  7 31  1  0
  8 32  1  0
 11 33  1  0
 11 34  1  0
 12 35  1  0
 12 36  1  0
 15 37  1  0
 16 38  1  0
 17 39  1  0
 18 40  1  0
 19 41  1  0
 20 42  1  0
 20 43  1  0
 21 44  1  0
 21 45  1  0
 23 46  1  0
 26 47  1  0
 26 48  1  0
 26 49  1  0
M  END
>  <UniqueID>  (16) 
15

>  <SMILES>  (16) 
COc1cc2nccc(N3CCN(c4ccccc4)CC3)c2cc1OC

>  <Energy>  (16) 
65.22720096553087

>  <Genealogy>  (16) 
COc1cc2nccc(N3CCN(c4ccccc4)CC3)c2cc1OC (3D coordinates assigned)
COc1cc2nccc(N3CCN(c4ccccc4)CC3)c2cc1OC (nonaromatic ring conformer: 65.22720096553087 kcal/mol)

>  <smiles>  (16) 
COc1cc2nccc(N3CCN(c4ccccc4)CC3)c2cc1OC

>  <score_type>  (16) 
oracle

>  <origin>  (16) 
adg

>  <m_score__min__energy>  (16) 
-8.4800000000000004

>  <m_primary>  (16) 
energy

$$$$
16:0
     RDKit          3D

 65 68  0  0  0  0  0  0  0  0999 V2000
   -0.7670   26.7940  -23.3520 C   0  0  0  0  0  0  0  0  0  0  0  0
   -0.4400   26.0150  -24.5700 N   0  0  0  0  0  0  0  0  0  0  0  0
   -0.5100   24.5720  -24.2300 C   0  0  0  0  0  0  0  0  0  0  0  0
    0.9470   26.3200  -24.9990 C   0  0  0  0  0  0  0  0  0  0  0  0
   -1.4190   26.2740  -25.6730 C   0  0  0  0  0  0  0  0  0  0  0  0
   -0.9820   25.8300  -27.0910 C   0  0  0  0  0  0  0  0  0  0  0  0
   -2.0740   25.3250  -27.8410 O   0  0  0  0  0  0  0  0  0  0  0  0
   -3.1320   24.9000  -27.0010 C   0  0  0  0  0  0  0  0  0  0  0  0
   -4.2050   24.1820  -27.8210 C   0  0  0  0  0  0  0  0  0  0  0  0
   -3.5940   23.5020  -28.9580 N   0  0  0  0  0  0  0  0  0  0  0  0
   -2.9360   22.3270  -28.9300 C   0  0  0  0  0  0  0  0  0  0  0  0
   -2.6410   22.0200  -30.2420 C   0  0  0  0  0  0  0  0  0  0  0  0
   -2.0290   20.7540  -30.7530 C   0  0  0  0  0  0  0  0  0  0  0  0
   -1.7390   20.8920  -32.1870 N   0  0  0  0  0  0  0  0  0  0  0  0
   -1.8650   19.6080  -32.8890 C   0  0  0  0  0  0  0  0  0  0  0  0
   -2.9300   19.6900  -33.9880 C   0  0  0  0  0  0  0  0  0  0  0  0
   -4.2530   19.9400  -33.3960 N   0  0  0  0  0  0  0  0  0  0  0  0
   -4.6780   21.2860  -33.1100 C   0  0  0  0  0  0  0  0  0  0  0  0
   -3.8920   22.2540  -33.3100 O   0  0  0  0  0  0  0  0  0  0  0  0
   -6.0400   21.5360  -32.5830 C   0  0  0  0  0  0  0  0  0  0  0  0
   -6.4640   22.8460  -32.2940 C   0  0  0  0  0  0  0  0  0  0  0  0
   -7.7450   23.0830  -31.7970 C   0  0  0  0  0  0  0  0  0  0  0  0
   -8.6220   22.0210  -31.5760 C   0  0  0  0  0  0  0  0  0  0  0  0
   -8.2240   20.7060  -31.8580 C   0  0  0  0  0  0  0  0  0  0  0  0
   -9.1060   19.6390  -31.6390 C   0  0  0  0  0  0  0  0  0  0  0  0
   -8.7120   18.3320  -31.9250 C   0  0  0  0  0  0  0  0  0  0  0  0
   -7.4370   18.0750  -32.4300 C   0  0  0  0  0  0  0  0  0  0  0  0
   -6.5330   19.1280  -32.6580 C   0  0  0  0  0  0  0  0  0  0  0  0
   -6.9230   20.4560  -32.3680 C   0  0  0  0  0  0  0  0  0  0  0  0
   -5.1820   18.8560  -33.2010 C   0  0  0  0  0  0  0  0  0  0  0  0
   -4.8500   17.6760  -33.4980 O   0  0  0  0  0  0  0  0  0  0  0  0
   -3.1460   23.0000  -31.0130 N   0  0  0  0  0  0  0  0  0  0  0  0
   -3.7240   23.8860  -30.2180 N   0  0  0  0  0  0  0  0  0  0  0  0
   -0.5181   26.2010  -22.4596 H   0  0  0  0  0  0  0  0  0  0  0  0
   -0.1847   27.7272  -23.3463 H   0  0  0  0  0  0  0  0  0  0  0  0
   -1.8409   27.0319  -23.3463 H   0  0  0  0  0  0  0  0  0  0  0  0
   -0.5158   24.4528  -23.1365 H   0  0  0  0  0  0  0  0  0  0  0  0
   -1.4301   24.1404  -24.6508 H   0  0  0  0  0  0  0  0  0  0  0  0
    0.3640   24.0533  -24.6508 H   0  0  0  0  0  0  0  0  0  0  0  0
    1.5827   26.4598  -24.1122 H   0  0  0  0  0  0  0  0  0  0  0  0
    1.3363   25.4860  -25.6014 H   0  0  0  0  0  0  0  0  0  0  0  0
    0.9505   27.2404  -25.6014 H   0  0  0  0  0  0  0  0  0  0  0  0
   -2.3505   25.7432  -25.4269 H   0  0  0  0  0  0  0  0  0  0  0  0
   -1.5225   27.3679  -25.7250 H   0  0  0  0  0  0  0  0  0  0  0  0
   -0.5556   26.6950  -27.6200 H   0  0  0  0  0  0  0  0  0  0  0  0
   -0.2375   25.0271  -26.9853 H   0  0  0  0  0  0  0  0  0  0  0  0
   -2.7366   24.2120  -26.2392 H   0  0  0  0  0  0  0  0  0  0  0  0
   -3.5806   25.7802  -26.5173 H   0  0  0  0  0  0  0  0  0  0  0  0
   -4.7148   23.4427  -27.1857 H   0  0  0  0  0  0  0  0  0  0  0  0
   -4.9311   24.9211  -28.1906 H   0  0  0  0  0  0  0  0  0  0  0  0
   -2.6845   21.7319  -28.0397 H   0  0  0  0  0  0  0  0  0  0  0  0
   -1.0949   20.5527  -30.2081 H   0  0  0  0  0  0  0  0  0  0  0  0
   -2.7306   19.9207  -30.6001 H   0  0  0  0  0  0  0  0  0  0  0  0
   -2.4540   21.5430  -32.5930 H   0  0  0  0  0  0  0  0  0  0  0  0
   -0.8973   19.3491  -33.3434 H   0  0  0  0  0  0  0  0  0  0  0  0
   -2.1660   18.8379  -32.1635 H   0  0  0  0  0  0  0  0  0  0  0  0
   -2.6792   20.5104  -34.6765 H   0  0  0  0  0  0  0  0  0  0  0  0
   -2.9560   18.7357  -34.5344 H   0  0  0  0  0  0  0  0  0  0  0  0
   -5.7792   23.6903  -32.4615 H   0  0  0  0  0  0  0  0  0  0  0  0
   -8.0655   24.1123  -31.5782 H   0  0  0  0  0  0  0  0  0  0  0  0
   -9.6293   22.2156  -31.1791 H   0  0  0  0  0  0  0  0  0  0  0  0
  -10.1126   19.8331  -31.2401 H   0  0  0  0  0  0  0  0  0  0  0  0
   -9.4099   17.4997  -31.7516 H   0  0  0  0  0  0  0  0  0  0  0  0
   -7.1364   17.0403  -32.6516 H   0  0  0  0  0  0  0  0  0  0  0  0
   -3.1310   23.0530  -32.0560 H   0  0  0  0  0  0  0  0  0  0  0  0
  1  2  1  0
  2  3  1  0
  2  4  1  0
  2  5  1  0
  5  6  1  0
  6  7  1  0
  7  8  1  0
  8  9  1  0
  9 10  1  0
 10 11  1  0
 11 12  2  0
 12 13  1  0
 13 14  1  0
 14 15  1  0
 15 16  1  0
 16 17  1  0
 17 18  1  0
 18 19  2  0
 18 20  1  0
 20 21  2  0
 21 22  1  0
 22 23  2  0
 23 24  1  0
 24 25  2  0
 25 26  1  0
 26 27  2  0
 27 28  1  0
 28 29  2  0
 28 30  1  0
 30 31  2  0
 12 32  1  0
 32 33  2  0
 33 10  1  0
 30 17  1  0
 29 20  1  0
 29 24  1  0
  1 34  1  0
  1 35  1  0
  1 36  1  0
  3 37  1  0
  3 38  1  0
  3 39  1  0
  4 40  1  0
  4 41  1  0
  4 42  1  0
  5 43  1  0
  5 44  1  0
  6 45  1  0
  6 46  1  0
  8 47  1  0
  8 48  1  0
  9 49  1  0
  9 50  1  0
 11 51  1  0
 13 52  1  0
 13 53  1  0
 14 54  1  0
 15 55  1  0
 15 56  1  0
 16 57  1  0
 16 58  1  0
 21 59  1  0
 22 60  1  0
 23 61  1  0
 25 62  1  0
 26 63  1  0
 27 64  1  0
 32 65  1  0
M  CHG  2   2   1  32   1
M  END
>  <UniqueID>  (17) 
16

>  <SMILES>  (17) 
C[N+](C)(C)CCOCCn1cc(CNCCN2C(=O)c3cccc4cccc(c34)C2=O)[nH+]n1

>  <Energy>  (17) 
113.24792269204808

>  <Genealogy>  (17) 
C[N+](C)(C)CCOCCn1cc(CNCCN2C(=O)c3cccc4cccc(c34)C2=O)[nH+]n1 (protonated)
C[N+](C)(C)CCOCCn1cc(CNCCN2C(=O)c3cccc4cccc(c34)C2=O)[nH+]n1 (3D coordinates assigned)
C[N+](C)(C)CCOCCn1cc(CNCCN2C(=O)c3cccc4cccc(c34)C2=O)[nH+]n1 (nonaromatic ring conformer: 113.24792269204808 kcal/mol)

>  <smiles>  (17) 
C[N+](C)(C)CCOCCn1cc(CNCCN2C(=O)c3cccc4cccc(c34)C2=O)nn1

>  <score_type>  (17) 
oracle

>  <origin>  (17) 
adg

>  <m_score__min__energy>  (17) 
-9.0099999999999998

>  <m_primary>  (17) 
energy

$$$$
17:0
     RDKit          3D

 50 52  0  0  0  0  0  0  0  0999 V2000
   -9.7180   21.5530  -30.5030 C   0  0  0  0  0  0  0  0  0  0  0  0
   -9.0190   22.3200  -31.4780 O   0  0  0  0  0  0  0  0  0  0  0  0
   -7.7280   22.8370  -31.2970 C   0  0  0  0  0  0  0  0  0  0  0  0
   -7.1490   22.7530  -30.0260 C   0  0  0  0  0  0  0  0  0  0  0  0
   -5.8710   23.2700  -29.7940 C   0  0  0  0  0  0  0  0  0  0  0  0
   -5.1480   23.8820  -30.8260 C   0  0  0  0  0  0  0  0  0  0  0  0
   -3.8720   24.3880  -30.5230 O   0  0  0  0  0  0  0  0  0  0  0  0
   -2.8990   23.7910  -29.6630 C   0  0  0  0  0  0  0  0  0  0  0  0
   -2.0360   22.7690  -30.4150 C   0  0  0  0  0  0  0  0  0  0  0  0
   -2.8320   21.5500  -30.8880 C   0  0  0  0  0  0  0  0  0  0  0  0
   -2.2380   21.0100  -32.1330 N   0  0  0  0  0  0  0  0  0  0  0  0
   -2.8520   21.5720  -33.3510 C   0  0  0  0  0  0  0  0  0  0  0  0
   -4.3470   21.2340  -33.4400 C   0  0  0  0  0  0  0  0  0  0  0  0
   -4.6270   19.9220  -32.8420 N   0  0  0  0  0  0  0  0  0  0  0  0
   -5.9940   19.5370  -32.6090 C   0  0  0  0  0  0  0  0  0  0  0  0
   -7.0460   20.2180  -33.2450 C   0  0  0  0  0  0  0  0  0  0  0  0
   -8.3720   19.8350  -33.0190 C   0  0  0  0  0  0  0  0  0  0  0  0
   -8.6580   18.7680  -32.1640 C   0  0  0  0  0  0  0  0  0  0  0  0
   -7.6180   18.0830  -31.5310 C   0  0  0  0  0  0  0  0  0  0  0  0
   -6.2920   18.4670  -31.7490 C   0  0  0  0  0  0  0  0  0  0  0  0
   -3.5570   18.9240  -32.7330 C   0  0  0  0  0  0  0  0  0  0  0  0
   -2.2490   19.5290  -32.1700 C   0  0  0  0  0  0  0  0  0  0  0  0
   -5.7220   23.9530  -32.1120 C   0  0  0  0  0  0  0  0  0  0  0  0
   -7.0000   23.4350  -32.3440 C   0  0  0  0  0  0  0  0  0  0  0  0
   -9.4197   21.8804  -29.4961 H   0  0  0  0  0  0  0  0  0  0  0  0
  -10.8010   21.6980  -30.6298 H   0  0  0  0  0  0  0  0  0  0  0  0
   -9.4733   20.4881  -30.6298 H   0  0  0  0  0  0  0  0  0  0  0  0
   -7.7032   22.2769  -29.2037 H   0  0  0  0  0  0  0  0  0  0  0  0
   -5.4282   23.1954  -28.7898 H   0  0  0  0  0  0  0  0  0  0  0  0
   -2.2479   24.5797  -29.2580 H   0  0  0  0  0  0  0  0  0  0  0  0
   -3.4286   23.2669  -28.8538 H   0  0  0  0  0  0  0  0  0  0  0  0
   -1.5938   23.2618  -31.2934 H   0  0  0  0  0  0  0  0  0  0  0  0
   -1.2662   22.4096  -29.7163 H   0  0  0  0  0  0  0  0  0  0  0  0
   -2.8098   20.7750  -30.1076 H   0  0  0  0  0  0  0  0  0  0  0  0
   -3.8715   21.8512  -31.0846 H   0  0  0  0  0  0  0  0  0  0  0  0
   -2.7337   22.6655  -33.3380 H   0  0  0  0  0  0  0  0  0  0  0  0
   -2.3479   21.1318  -34.2240 H   0  0  0  0  0  0  0  0  0  0  0  0
   -4.9222   22.0035  -32.9043 H   0  0  0  0  0  0  0  0  0  0  0  0
   -4.6369   21.2045  -34.5007 H   0  0  0  0  0  0  0  0  0  0  0  0
   -6.8257   21.0555  -33.9232 H   0  0  0  0  0  0  0  0  0  0  0  0
   -9.1915   20.3752  -33.5156 H   0  0  0  0  0  0  0  0  0  0  0  0
   -9.7016   18.4673  -31.9893 H   0  0  0  0  0  0  0  0  0  0  0  0
   -7.8429   17.2406  -30.8604 H   0  0  0  0  0  0  0  0  0  0  0  0
   -5.4767   17.9281  -31.2441 H   0  0  0  0  0  0  0  0  0  0  0  0
   -3.8913   18.1178  -32.0635 H   0  0  0  0  0  0  0  0  0  0  0  0
   -3.3458   18.5435  -33.7433 H   0  0  0  0  0  0  0  0  0  0  0  0
   -2.1086   19.1562  -31.1447 H   0  0  0  0  0  0  0  0  0  0  0  0
   -1.4384   19.2212  -32.8469 H   0  0  0  0  0  0  0  0  0  0  0  0
   -5.1618   24.4180  -32.9366 H   0  0  0  0  0  0  0  0  0  0  0  0
   -7.4395   23.4949  -33.3506 H   0  0  0  0  0  0  0  0  0  0  0  0
  1  2  1  0
  2  3  1  0
  3  4  2  0
  4  5  1  0
  5  6  2  0
  6  7  1  0
  7  8  1  0
  8  9  1  0
  9 10  1  0
 10 11  1  0
 11 12  1  0
 12 13  1  0
 13 14  1  0
 14 15  1  0
 15 16  2  0
 16 17  1  0
 17 18  2  0
 18 19  1  0
 19 20  2  0
 14 21  1  0
 21 22  1  0
  6 23  1  0
 23 24  2  0
 24  3  1  0
 22 11  1  0
 20 15  1  0
  1 25  1  0
  1 26  1  0
  1 27  1  0
  4 28  1  0
  5 29  1  0
  8 30  1  0
  8 31  1  0
  9 32  1  0
  9 33  1  0
 10 34  1  0
 10 35  1  0
 12 36  1  0
 12 37  1  0
 13 38  1  0
 13 39  1  0
 16 40  1  0
 17 41  1  0
 18 42  1  0
 19 43  1  0
 20 44  1  0
 21 45  1  0
 21 46  1  0
 22 47  1  0
 22 48  1  0
 23 49  1  0
 24 50  1  0
M  END
>  <UniqueID>  (18) 
17

>  <SMILES>  (18) 
COc1ccc(OCCCN2CCN(c3ccccc3)CC2)cc1

>  <Energy>  (18) 
59.79620280914266

>  <Genealogy>  (18) 
COc1ccc(OCCCN2CCN(c3ccccc3)CC2)cc1 (3D coordinates assigned)
COc1ccc(OCCCN2CCN(c3ccccc3)CC2)cc1 (nonaromatic ring conformer: 59.79620280914266 kcal/mol)

>  <smiles>  (18) 
COc1ccc(OCCCN2CCN(c3ccccc3)CC2)cc1

>  <score_type>  (18) 
oracle

>  <origin>  (18) 
adg

>  <m_score__min__energy>  (18) 
-7.5300000000000002

>  <m_primary>  (18) 
energy

$$$$
18:0
     RDKit          3D

 53 55  0  0  0  0  0  0  0  0999 V2000
   -6.6580   25.2430  -29.7320 C   0  0  0  0  0  0  0  0  0  0  0  0
   -5.3930   25.6770  -30.4640 C   0  0  0  0  0  0  0  0  0  0  0  0
   -4.6310   24.4900  -30.9210 N   0  0  0  0  0  0  0  0  0  0  0  0
   -4.1830   23.6890  -29.7560 C   0  0  0  0  0  0  0  0  0  0  0  0
   -2.7320   23.9980  -29.4070 C   0  0  0  0  0  0  0  0  0  0  0  0
   -5.4410   23.6570  -31.8430 C   0  0  0  0  0  0  0  0  0  0  0  0
   -5.0500   22.1740  -31.7740 C   0  0  0  0  0  0  0  0  0  0  0  0
   -5.6950   21.4100  -32.7960 O   0  0  0  0  0  0  0  0  0  0  0  0
   -6.8170   20.6040  -32.5680 C   0  0  0  0  0  0  0  0  0  0  0  0
   -7.9480   21.1990  -31.9940 C   0  0  0  0  0  0  0  0  0  0  0  0
   -9.0630   20.4290  -31.6630 C   0  0  0  0  0  0  0  0  0  0  0  0
   -9.0680   19.0580  -31.9230 C   0  0  0  0  0  0  0  0  0  0  0  0
   -7.9690   18.4610  -32.5430 C   0  0  0  0  0  0  0  0  0  0  0  0
   -6.8440   19.2270  -32.8980 C   0  0  0  0  0  0  0  0  0  0  0  0
   -5.7620   18.5760  -33.6620 C   0  0  0  0  0  0  0  0  0  0  0  0
   -4.5920   18.1570  -33.1280 N   0  0  0  0  0  0  0  0  0  0  0  0
   -3.9580   17.6680  -34.2140 C   0  0  0  0  0  0  0  0  0  0  0  0
   -2.6110   17.0170  -34.1680 C   0  0  0  0  0  0  0  0  0  0  0  0
   -1.5760   17.9980  -34.1160 O   0  0  0  0  0  0  0  0  0  0  0  0
   -1.6210   19.1870  -33.3700 C   0  0  0  0  0  0  0  0  0  0  0  0
   -2.1090   20.3980  -33.9000 C   0  0  0  0  0  0  0  0  0  0  0  0
   -2.1300   21.5520  -33.1100 C   0  0  0  0  0  0  0  0  0  0  0  0
   -1.6690   21.5090  -31.7910 C   0  0  0  0  0  0  0  0  0  0  0  0
   -1.1860   20.3120  -31.2590 C   0  0  0  0  0  0  0  0  0  0  0  0
   -1.1630   19.1560  -32.0450 C   0  0  0  0  0  0  0  0  0  0  0  0
   -4.7050   17.7820  -35.3240 N   0  0  0  0  0  0  0  0  0  0  0  0
   -5.8080   18.3530  -34.9560 O   0  0  0  0  0  0  0  0  0  0  0  0
   -6.4912   25.3002  -28.6462 H   0  0  0  0  0  0  0  0  0  0  0  0
   -7.4892   25.9074  -30.0108 H   0  0  0  0  0  0  0  0  0  0  0  0
   -6.9063   24.2083  -30.0108 H   0  0  0  0  0  0  0  0  0  0  0  0
   -5.6696   26.2885  -31.3356 H   0  0  0  0  0  0  0  0  0  0  0  0
   -4.7649   26.2631  -29.7770 H   0  0  0  0  0  0  0  0  0  0  0  0
   -4.8195   23.9255  -28.8906 H   0  0  0  0  0  0  0  0  0  0  0  0
   -4.2625   22.6223  -30.0124 H   0  0  0  0  0  0  0  0  0  0  0  0
   -2.6152   24.0229  -28.3135 H   0  0  0  0  0  0  0  0  0  0  0  0
   -2.0797   23.2186  -29.8278 H   0  0  0  0  0  0  0  0  0  0  0  0
   -2.4538   24.9755  -29.8278 H   0  0  0  0  0  0  0  0  0  0  0  0
   -6.5024   23.7572  -31.5720 H   0  0  0  0  0  0  0  0  0  0  0  0
   -5.2566   24.0090  -32.8687 H   0  0  0  0  0  0  0  0  0  0  0  0
   -3.9604   22.0863  -31.8971 H   0  0  0  0  0  0  0  0  0  0  0  0
   -5.3689   21.7799  -30.7978 H   0  0  0  0  0  0  0  0  0  0  0  0
   -7.9568   22.2822  -31.8028 H   0  0  0  0  0  0  0  0  0  0  0  0
   -9.9392   20.9030  -31.1966 H   0  0  0  0  0  0  0  0  0  0  0  0
   -9.9381   18.4476  -31.6394 H   0  0  0  0  0  0  0  0  0  0  0  0
   -7.9829   17.3819  -32.7558 H   0  0  0  0  0  0  0  0  0  0  0  0
   -2.5489   16.3794  -33.2738 H   0  0  0  0  0  0  0  0  0  0  0  0
   -2.4796   16.4135  -35.0782 H   0  0  0  0  0  0  0  0  0  0  0  0
   -2.4741   20.4358  -34.9370 H   0  0  0  0  0  0  0  0  0  0  0  0
   -2.5103   22.4959  -33.5277 H   0  0  0  0  0  0  0  0  0  0  0  0
   -1.6868   22.4183  -31.1722 H   0  0  0  0  0  0  0  0  0  0  0  0
   -0.8234   20.2784  -30.2210 H   0  0  0  0  0  0  0  0  0  0  0  0
   -0.7827   18.2150  -31.6208 H   0  0  0  0  0  0  0  0  0  0  0  0
   -4.4680   17.4790  -36.2960 H   0  0  0  0  0  0  0  0  0  0  0  0
  1  2  1  0
  2  3  1  0
  3  4  1  0
  4  5  1  0
  3  6  1  0
  6  7  1  0
  7  8  1  0
  8  9  1  0
  9 10  2  0
 10 11  1  0
 11 12  2  0
 12 13  1  0
 13 14  2  0
 14 15  1  0
 15 16  2  0
 16 17  1  0
 17 18  1  0
 18 19  1  0
 19 20  1  0
 20 21  2  0
 21 22  1  0
 22 23  2  0
 23 24  1  0
 24 25  2  0
 17 26  2  0
 26 27  1  0
 14  9  1  0
 27 15  1  0
 25 20  1  0
  1 28  1  0
  1 29  1  0
  1 30  1  0
  2 31  1  0
  2 32  1  0
  4 33  1  0
  4 34  1  0
  5 35  1  0
  5 36  1  0
  5 37  1  0
  6 38  1  0
  6 39  1  0
  7 40  1  0
  7 41  1  0
 10 42  1  0
 11 43  1  0
 12 44  1  0
 13 45  1  0
 18 46  1  0
 18 47  1  0
 21 48  1  0
 22 49  1  0
 23 50  1  0
 24 51  1  0
 25 52  1  0
 26 53  1  0
M  CHG  1  26   1
M  END
>  <UniqueID>  (19) 
18

>  <SMILES>  (19) 
CCN(CC)CCOc1ccccc1-c1nc(COc2ccccc2)[nH+]o1

>  <Energy>  (19) 
91.56302652853634

>  <Genealogy>  (19) 
CCN(CC)CCOc1ccccc1-c1nc(COc2ccccc2)[nH+]o1 (protonated)
CCN(CC)CCOc1ccccc1-c1nc(COc2ccccc2)[nH+]o1 (3D coordinates assigned)
CCN(CC)CCOc1ccccc1-c1nc(COc2ccccc2)[nH+]o1 (optimized conformer: 91.56302652853634 kcal/mol)

>  <smiles>  (19) 
CCN(CC)CCOc1ccccc1-c1nc(COc2ccccc2)no1

>  <score_type>  (19) 
oracle

>  <origin>  (19) 
adg

>  <m_score__min__energy>  (19) 
-7.9900000000000002

>  <m_primary>  (19) 
energy

$$$$
19:0
     RDKit          3D

 34 34  0  0  0  0  0  0  0  0999 V2000
   -7.2370   17.8760  -31.6500 C   0  0  0  0  0  0  0  0  0  0  0  0
   -8.4910   18.5340  -32.2190 C   0  0  0  0  0  0  0  0  0  0  0  0
   -8.1380   19.6710  -33.0720 N   0  0  0  0  0  0  0  0  0  0  0  0
   -7.0410   20.5700  -32.8100 C   0  0  0  0  0  0  0  0  0  0  0  0
   -5.7760   20.3170  -33.3690 C   0  0  0  0  0  0  0  0  0  0  0  0
   -4.6920   21.1420  -33.0810 C   0  0  0  0  0  0  0  0  0  0  0  0
   -4.8440   22.2220  -32.2190 C   0  0  0  0  0  0  0  0  0  0  0  0
   -6.0900   22.5090  -31.6400 C   0  0  0  0  0  0  0  0  0  0  0  0
   -6.1860   23.6950  -30.7030 C   0  0  0  0  0  0  0  0  0  0  0  0
   -5.0000   24.5700  -30.8340 N   0  0  0  0  0  0  0  0  0  0  0  0
   -5.3570   25.9540  -30.4870 C   0  0  0  0  0  0  0  0  0  0  0  0
   -3.9050   24.1100  -29.9620 C   0  0  0  0  0  0  0  0  0  0  0  0
   -7.2150   21.6970  -31.9610 C   0  0  0  0  0  0  0  0  0  0  0  0
   -8.5840   21.9920  -31.3850 C   0  0  0  0  0  0  0  0  0  0  0  0
   -7.2781   17.8976  -30.5510 H   0  0  0  0  0  0  0  0  0  0  0  0
   -7.1818   16.8328  -31.9945 H   0  0  0  0  0  0  0  0  0  0  0  0
   -6.3472   18.4234  -31.9945 H   0  0  0  0  0  0  0  0  0  0  0  0
   -9.0479   17.7953  -32.8142 H   0  0  0  0  0  0  0  0  0  0  0  0
   -9.1094   18.8967  -31.3847 H   0  0  0  0  0  0  0  0  0  0  0  0
   -8.7210   19.8140  -33.9280 H   0  0  0  0  0  0  0  0  0  0  0  0
   -5.6411   19.4572  -34.0417 H   0  0  0  0  0  0  0  0  0  0  0  0
   -3.7119   20.9385  -33.5371 H   0  0  0  0  0  0  0  0  0  0  0  0
   -3.9776   22.8592  -31.9880 H   0  0  0  0  0  0  0  0  0  0  0  0
   -7.0891   24.2739  -30.9465 H   0  0  0  0  0  0  0  0  0  0  0  0
   -6.2349   23.3225  -29.6691 H   0  0  0  0  0  0  0  0  0  0  0  0
   -5.3849   26.0621  -29.3927 H   0  0  0  0  0  0  0  0  0  0  0  0
   -4.6069   26.6418  -30.9044 H   0  0  0  0  0  0  0  0  0  0  0  0
   -6.3462   26.1932  -30.9044 H   0  0  0  0  0  0  0  0  0  0  0  0
   -4.1984   24.2332  -28.9090 H   0  0  0  0  0  0  0  0  0  0  0  0
   -3.6974   23.0486  -30.1630 H   0  0  0  0  0  0  0  0  0  0  0  0
   -3.0017   24.7047  -30.1630 H   0  0  0  0  0  0  0  0  0  0  0  0
   -8.5298   21.9803  -30.2864 H   0  0  0  0  0  0  0  0  0  0  0  0
   -8.9191   22.9830  -31.7251 H   0  0  0  0  0  0  0  0  0  0  0  0
   -9.2975   21.2270  -31.7251 H   0  0  0  0  0  0  0  0  0  0  0  0
  1  2  1  0
  2  3  1  0
  3  4  1  0
  4  5  2  0
  5  6  1  0
  6  7  2  0
  7  8  1  0
  8  9  1  0
  9 10  1  0
 10 11  1  0
 10 12  1  0
  8 13  2  0
 13 14  1  0
 13  4  1  0
  1 15  1  0
  1 16  1  0
  1 17  1  0
  2 18  1  0
  2 19  1  0
  3 20  1  0
  5 21  1  0
  6 22  1  0
  7 23  1  0
  9 24  1  0
  9 25  1  0
 11 26  1  0
 11 27  1  0
 11 28  1  0
 12 29  1  0
 12 30  1  0
 12 31  1  0
 14 32  1  0
 14 33  1  0
 14 34  1  0
M  END
>  <UniqueID>  (20) 
19

>  <SMILES>  (20) 
CCNc1cccc(CN(C)C)c1C

>  <Energy>  (20) 
32.82226345249859

>  <Genealogy>  (20) 
CCNc1cccc(CN(C)C)c1C (3D coordinates assigned)
CCNc1cccc(CN(C)C)c1C (optimized conformer: 32.82226345249859 kcal/mol)

>  <smiles>  (20) 
CCNc1cccc(CN(C)C)c1C

>  <score_type>  (20) 
oracle

>  <origin>  (20) 
adg

>  <m_score__min__energy>  (20) 
-6.1100000000000003

>  <m_primary>  (20) 
energy

$$$$
20:0
     RDKit          3D

 43 46  0  0  0  0  0  0  0  0999 V2000
   -0.9300   26.3790  -28.2170 C   0  0  0  0  0  0  0  0  0  0  0  0
   -1.8880   25.6640  -28.9900 O   0  0  0  0  0  0  0  0  0  0  0  0
   -2.2610   24.3280  -28.7620 C   0  0  0  0  0  0  0  0  0  0  0  0
   -1.3830   23.4030  -28.1620 C   0  0  0  0  0  0  0  0  0  0  0  0
   -1.7900   22.0860  -27.9370 C   0  0  0  0  0  0  0  0  0  0  0  0
   -3.0720   21.6770  -28.3010 C   0  0  0  0  0  0  0  0  0  0  0  0
   -3.9520   22.5830  -28.8970 C   0  0  0  0  0  0  0  0  0  0  0  0
   -3.5520   23.9070  -29.1440 C   0  0  0  0  0  0  0  0  0  0  0  0
   -4.5190   24.8780  -29.7620 C   0  0  0  0  0  0  0  0  0  0  0  0
   -4.7010   24.5490  -31.1340 O   0  0  0  0  0  0  0  0  0  0  0  0
   -5.5800   23.5470  -31.5490 C   0  0  0  0  0  0  0  0  0  0  0  0
   -6.9250   23.5790  -31.3870 N   0  0  0  0  0  0  0  0  0  0  0  0
   -7.4150   22.4520  -31.8960 N   0  0  0  0  0  0  0  0  0  0  0  0
   -8.8400   22.1410  -31.9730 C   0  0  0  0  0  0  0  0  0  0  0  0
   -9.4230   21.5810  -30.6850 C   0  0  0  0  0  0  0  0  0  0  0  0
   -9.1480   20.6560  -31.8580 C   0  0  0  0  0  0  0  0  0  0  0  0
   -6.3980   21.7220  -32.3990 C   0  0  0  0  0  0  0  0  0  0  0  0
   -6.4400   20.4880  -33.0510 C   0  0  0  0  0  0  0  0  0  0  0  0
   -5.2170   19.9350  -33.4930 C   0  0  0  0  0  0  0  0  0  0  0  0
   -5.1990   18.5930  -34.1600 C   0  0  0  0  0  0  0  0  0  0  0  0
   -3.9990   20.6230  -33.2480 C   0  0  0  0  0  0  0  0  0  0  0  0
   -3.9950   21.8690  -32.5930 C   0  0  0  0  0  0  0  0  0  0  0  0
   -5.2230   22.3830  -32.1870 C   0  0  0  0  0  0  0  0  0  0  0  0
   -1.1346   26.2263  -27.1470 H   0  0  0  0  0  0  0  0  0  0  0  0
    0.0796   26.0118  -28.4533 H   0  0  0  0  0  0  0  0  0  0  0  0
   -0.9948   27.4514  -28.4533 H   0  0  0  0  0  0  0  0  0  0  0  0
   -0.3712   23.7202  -27.8692 H   0  0  0  0  0  0  0  0  0  0  0  0
   -1.0972   21.3697  -27.4714 H   0  0  0  0  0  0  0  0  0  0  0  0
   -3.3907   20.6401  -28.1187 H   0  0  0  0  0  0  0  0  0  0  0  0
   -4.9654   22.2577  -29.1750 H   0  0  0  0  0  0  0  0  0  0  0  0
   -5.4846   24.8189  -29.2384 H   0  0  0  0  0  0  0  0  0  0  0  0
   -4.1210   25.9000  -29.6771 H   0  0  0  0  0  0  0  0  0  0  0  0
   -9.1177   22.9473  -32.6679 H   0  0  0  0  0  0  0  0  0  0  0  0
   -8.8006   21.5213  -29.7800 H   0  0  0  0  0  0  0  0  0  0  0  0
  -10.3024   21.8105  -30.0653 H   0  0  0  0  0  0  0  0  0  0  0  0
   -8.3264   19.9267  -31.8024 H   0  0  0  0  0  0  0  0  0  0  0  0
   -9.7457   19.9385  -32.4393 H   0  0  0  0  0  0  0  0  0  0  0  0
   -7.3931   19.9639  -33.2151 H   0  0  0  0  0  0  0  0  0  0  0  0
   -5.1884   17.8032  -33.3945 H   0  0  0  0  0  0  0  0  0  0  0  0
   -6.0958   18.4834  -34.7875 H   0  0  0  0  0  0  0  0  0  0  0  0
   -4.2996   18.5075  -34.7875 H   0  0  0  0  0  0  0  0  0  0  0  0
   -3.0477   20.1771  -33.5738 H   0  0  0  0  0  0  0  0  0  0  0  0
   -3.0580   22.4151  -32.4092 H   0  0  0  0  0  0  0  0  0  0  0  0
  1  2  1  0
  2  3  1  0
  3  4  2  0
  4  5  1  0
  5  6  2  0
  6  7  1  0
  7  8  2  0
  8  9  1  0
  9 10  1  0
 10 11  1  0
 11 12  2  0
 12 13  1  0
 13 14  1  0
 14 15  1  0
 15 16  1  0
 13 17  1  0
 17 18  2  0
 18 19  1  0
 19 20  1  0
 19 21  2  0
 21 22  1  0
 22 23  2  0
  8  3  1  0
 23 11  1  0
 16 14  1  0
 23 17  1  0
  1 24  1  0
  1 25  1  0
  1 26  1  0
  4 27  1  0
  5 28  1  0
  6 29  1  0
  7 30  1  0
  9 31  1  0
  9 32  1  0
 14 33  1  0
 15 34  1  0
 15 35  1  0
 16 36  1  0
 16 37  1  0
 18 38  1  0
 20 39  1  0
 20 40  1  0
 20 41  1  0
 21 42  1  0
 22 43  1  0
M  END
>  <UniqueID>  (21) 
20

>  <SMILES>  (21) 
COc1ccccc1COc1nn(C2CC2)c2cc(C)ccc12

>  <Energy>  (21) 
346.4292131047192

>  <Genealogy>  (21) 
COc1ccccc1COc1nn(C2CC2)c2cc(C)ccc12 (3D coordinates assigned)
COc1ccccc1COc1nn(C2CC2)c2cc(C)ccc12 (nonaromatic ring conformer: 346.4292131047192 kcal/mol)

>  <smiles>  (21) 
COc1ccccc1COc1nn(C2CC2)c2cc(C)ccc12

>  <score_type>  (21) 
oracle

>  <origin>  (21) 
adg

>  <m_score__min__energy>  (21) 
-8.8900000000000006

>  <m_primary>  (21) 
energy

$$$$
21:0
     RDKit          3D

 56 59  0  0  0  0  0  0  0  0999 V2000
   -8.2720   19.6890  -32.5130 C   0  0  0  0  0  0  0  0  0  0  0  0
   -7.6050   20.8830  -31.8970 C   0  0  0  0  0  0  0  0  0  0  0  0
   -6.4010   21.3710  -32.4260 C   0  0  0  0  0  0  0  0  0  0  0  0
   -5.7990   22.5070  -31.8760 C   0  0  0  0  0  0  0  0  0  0  0  0
   -6.4000   23.1730  -30.7990 C   0  0  0  0  0  0  0  0  0  0  0  0
   -5.6680   24.6220  -30.1140 S   0  0  0  0  0  0  0  0  0  0  0  0
   -5.2350   25.5210  -31.2390 O   0  0  0  0  0  0  0  0  0  0  0  0
   -6.6740   25.3580  -29.2720 O   0  0  0  0  0  0  0  0  0  0  0  0
   -4.2850   24.1820  -29.1420 N   0  0  1  0  0  0  0  0  0  0  0  0
   -4.6200   23.0330  -28.2640 C   0  0  0  0  0  0  0  0  0  0  0  0
   -3.4180   22.1090  -27.9600 C   0  0  0  0  0  0  0  0  0  0  0  0
   -2.0570   22.8550  -27.8800 C   0  0  2  0  0  0  0  0  0  0  0  0
   -0.9220   21.7850  -27.7590 C   0  0  0  0  0  0  0  0  0  0  0  0
    0.3330   22.2480  -26.9900 C   0  0  0  0  0  0  0  0  0  0  0  0
    0.4920   23.7680  -26.9530 C   0  0  0  0  0  0  0  0  0  0  0  0
   -0.7280   24.4110  -26.4400 N   0  0  0  0  0  0  0  0  0  0  0  0
   -0.6490   25.7000  -25.7950 C   0  0  0  0  0  0  0  0  0  0  0  0
   -0.6840   25.8020  -24.3920 C   0  0  0  0  0  0  0  0  0  0  0  0
   -0.6130   27.0520  -23.7700 C   0  0  0  0  0  0  0  0  0  0  0  0
   -0.5060   28.2130  -24.5390 C   0  0  0  0  0  0  0  0  0  0  0  0
   -0.4690   28.1260  -25.9320 C   0  0  0  0  0  0  0  0  0  0  0  0
   -0.5400   26.8780  -26.5590 C   0  0  0  0  0  0  0  0  0  0  0  0
   -2.0340   23.7500  -26.6090 C   0  0  0  0  0  0  0  0  0  0  0  0
   -1.8520   23.7320  -29.1710 C   0  0  0  0  0  0  0  0  0  0  0  0
   -3.1280   23.9060  -30.0100 C   0  0  0  0  0  0  0  0  0  0  0  0
   -7.6150   22.7000  -30.2840 C   0  0  0  0  0  0  0  0  0  0  0  0
   -8.2170   21.5650  -30.8330 C   0  0  0  0  0  0  0  0  0  0  0  0
   -8.6428   19.0253  -31.7180 H   0  0  0  0  0  0  0  0  0  0  0  0
   -9.1153   20.0211  -33.1364 H   0  0  0  0  0  0  0  0  0  0  0  0
   -7.5471   19.1450  -33.1364 H   0  0  0  0  0  0  0  0  0  0  0  0
   -5.9286   20.8581  -33.2767 H   0  0  0  0  0  0  0  0  0  0  0  0
   -4.8503   22.8793  -32.2901 H   0  0  0  0  0  0  0  0  0  0  0  0
   -4.0650   25.0170  -28.5500 H   0  0  0  0  0  0  0  0  0  0  0  0
   -5.4007   22.4355  -28.7574 H   0  0  0  0  0  0  0  0  0  0  0  0
   -4.9542   23.4508  -27.3029 H   0  0  0  0  0  0  0  0  0  0  0  0
   -3.3524   21.3524  -28.7558 H   0  0  0  0  0  0  0  0  0  0  0  0
   -3.5982   21.6647  -26.9700 H   0  0  0  0  0  0  0  0  0  0  0  0
   -1.3349   20.9070  -27.2407 H   0  0  0  0  0  0  0  0  0  0  0  0
   -0.5911   21.5711  -28.7860 H   0  0  0  0  0  0  0  0  0  0  0  0
    0.2652   21.8786  -25.9561 H   0  0  0  0  0  0  0  0  0  0  0  0
    1.2078   21.8413  -27.5184 H   0  0  0  0  0  0  0  0  0  0  0  0
    1.3376   24.0259  -26.2984 H   0  0  0  0  0  0  0  0  0  0  0  0
    0.6750   24.1273  -27.9764 H   0  0  0  0  0  0  0  0  0  0  0  0
   -0.7678   24.8917  -23.7802 H   0  0  0  0  0  0  0  0  0  0  0  0
   -0.6415   27.1213  -22.6726 H   0  0  0  0  0  0  0  0  0  0  0  0
   -0.4509   29.1955  -24.0474 H   0  0  0  0  0  0  0  0  0  0  0  0
   -0.3839   29.0406  -26.5372 H   0  0  0  0  0  0  0  0  0  0  0  0
   -0.5105   26.8160  -27.6569 H   0  0  0  0  0  0  0  0  0  0  0  0
   -2.2351   23.1242  -25.7270 H   0  0  0  0  0  0  0  0  0  0  0  0
   -2.8038   24.5279  -26.7196 H   0  0  0  0  0  0  0  0  0  0  0  0
   -1.0867   23.2521  -29.7987 H   0  0  0  0  0  0  0  0  0  0  0  0
   -1.5505   24.7346  -28.8335 H   0  0  0  0  0  0  0  0  0  0  0  0
   -3.3150   22.9835  -30.5793 H   0  0  0  0  0  0  0  0  0  0  0  0
   -2.9886   24.7546  -30.6959 H   0  0  0  0  0  0  0  0  0  0  0  0
   -8.0960   23.2241  -29.4450 H   0  0  0  0  0  0  0  0  0  0  0  0
   -9.1747   21.2040  -30.4299 H   0  0  0  0  0  0  0  0  0  0  0  0
  1  2  1  0
  2  3  2  0
  3  4  1  0
  4  5  2  0
  5  6  1  0
  6  7  2  0
  6  8  2  0
  6  9  1  0
  9 10  1  0
 10 11  1  0
 12 11  1  6
 12 13  1  0
 13 14  1  0
 14 15  1  0
 15 16  1  0
 16 17  1  0
 17 18  2  0
 18 19  1  0
 19 20  2  0
 20 21  1  0
 21 22  2  0
 16 23  1  0
 12 24  1  0
 24 25  1  0
  5 26  1  0
 26 27  2  0
 27  2  1  0
 25  9  1  0
 23 12  1  0
 22 17  1  0
  1 28  1  0
  1 29  1  0
  1 30  1  0
  3 31  1  0
  4 32  1  0
  9 33  1  1
 10 34  1  0
 10 35  1  0
 11 36  1  0
 11 37  1  0
 13 38  1  0
 13 39  1  0
 14 40  1  0
 14 41  1  0
 15 42  1  0
 15 43  1  0
 18 44  1  0
 19 45  1  0
 20 46  1  0
 21 47  1  0
 22 48  1  0
 23 49  1  0
 23 50  1  0
 24 51  1  0
 24 52  1  0
 25 53  1  0
 25 54  1  0
 26 55  1  0
 27 56  1  0
M  CHG  1   9   1
M  END
>  <UniqueID>  (22) 
21

>  <SMILES>  (22) 
Cc1ccc(S(=O)(=O)[NH+]2CCC3(CCCN(c4ccccc4)C3)CC2)cc1

>  <Energy>  (22) 
73.03276107119214

>  <Genealogy>  (22) 
Cc1ccc(S(=O)(=O)[NH+]2CCC3(CCCN(c4ccccc4)C3)CC2)cc1 (protonated)
Cc1ccc(S(=O)(=O)[NH+]2CCC3(CCCN(c4ccccc4)C3)CC2)cc1 (3D coordinates assigned)
Cc1ccc(S(=O)(=O)[NH+]2CCC3(CCCN(c4ccccc4)C3)CC2)cc1 (nonaromatic ring conformer: 73.03276107119214 kcal/mol)

>  <smiles>  (22) 
Cc1ccc(S(=O)(=O)N2CCC3(CCCN(c4ccccc4)C3)CC2)cc1

>  <score_type>  (22) 
oracle

>  <origin>  (22) 
adg

>  <m_score__min__energy>  (22) 
-8.9900000000000002

>  <m_primary>  (22) 
energy

$$$$
22:0
     RDKit          3D

 41 43  0  0  0  0  0  0  0  0999 V2000
    2.3872   23.6063  -26.8270 H   0  0  0  0  0  0  0  0  0  0  0  0
    1.5730   23.8170  -26.1180 C   0  0  0  0  0  0  0  0  0  0  0  0
    0.2770   23.3380  -26.3660 C   0  0  0  0  0  0  0  0  0  0  0  0
   -0.0090   22.4900  -27.5760 C   0  0  0  0  0  0  0  0  0  0  0  0
    0.8758   21.8786  -27.8069 H   0  0  0  0  0  0  0  0  0  0  0  0
   -0.2464   23.1489  -28.4242 H   0  0  0  0  0  0  0  0  0  0  0  0
   -1.1530   21.6080  -27.3260 N   0  0  0  0  0  0  0  0  0  0  0  0
   -2.3790   21.6390  -27.9000 C   0  0  0  0  0  0  0  0  0  0  0  0
   -2.8160   22.6400  -28.8820 C   0  0  0  0  0  0  0  0  0  0  0  0
   -3.4730   24.1320  -28.4720 S   0  0  0  0  0  0  0  0  0  0  0  0
   -3.7200   24.5650  -30.0840 C   0  0  0  0  0  0  0  0  0  0  0  0
   -4.2560   25.6730  -30.5020 N   0  0  0  0  0  0  0  0  0  0  0  0
   -5.6700   26.0260  -30.3750 C   0  0  0  0  0  0  0  0  0  0  0  0
   -6.0167   26.4727  -31.3185 H   0  0  0  0  0  0  0  0  0  0  0  0
   -5.7823   26.7435  -29.5488 H   0  0  0  0  0  0  0  0  0  0  0  0
   -6.5100   24.7890  -30.0680 C   0  0  0  0  0  0  0  0  0  0  0  0
   -6.5946   24.6644  -28.9784 H   0  0  0  0  0  0  0  0  0  0  0  0
   -7.5134   24.9101  -30.5022 H   0  0  0  0  0  0  0  0  0  0  0  0
   -6.0273   23.9010  -30.5022 H   0  0  0  0  0  0  0  0  0  0  0  0
   -3.3040   23.6040  -30.9360 N   0  0  0  0  0  0  0  0  0  0  0  0
   -2.7910   22.5300  -30.2760 C   0  0  0  0  0  0  0  0  0  0  0  0
   -2.2430   21.3580  -31.0280 C   0  0  0  0  0  0  0  0  0  0  0  0
   -1.8880   20.5987  -30.3156 H   0  0  0  0  0  0  0  0  0  0  0  0
   -3.0327   20.9265  -31.6606 H   0  0  0  0  0  0  0  0  0  0  0  0
   -1.4055   21.6873  -31.6606 H   0  0  0  0  0  0  0  0  0  0  0  0
   -3.1400   20.5740  -27.5660 N   0  0  0  0  0  0  0  0  0  0  0  0
   -2.3600   19.8730  -26.7190 C   0  0  0  0  0  0  0  0  0  0  0  0
   -2.7410   18.5530  -26.1380 C   0  0  0  0  0  0  0  0  0  0  0  0
   -2.7226   18.6166  -25.0400 H   0  0  0  0  0  0  0  0  0  0  0  0
   -3.7536   18.2836  -26.4728 H   0  0  0  0  0  0  0  0  0  0  0  0
   -2.0277   17.7854  -26.4728 H   0  0  0  0  0  0  0  0  0  0  0  0
   -1.1360   20.4880  -26.5830 C   0  0  0  0  0  0  0  0  0  0  0  0
   -0.2937   20.1271  -25.9745 H   0  0  0  0  0  0  0  0  0  0  0  0
   -0.7440   23.6280  -25.4510 C   0  0  0  0  0  0  0  0  0  0  0  0
   -1.7668   23.2645  -25.6291 H   0  0  0  0  0  0  0  0  0  0  0  0
   -0.4540   24.3820  -24.3110 C   0  0  0  0  0  0  0  0  0  0  0  0
   -1.2512   24.6139  -23.5894 H   0  0  0  0  0  0  0  0  0  0  0  0
    0.8110   24.8300  -24.0910 N   0  0  0  0  0  0  0  0  0  0  0  0
    1.0130   25.3890  -23.2310 H   0  0  0  0  0  0  0  0  0  0  0  0
    1.8200   24.5630  -24.9640 C   0  0  0  0  0  0  0  0  0  0  0  0
    2.8343   24.9364  -24.7597 H   0  0  0  0  0  0  0  0  0  0  0  0
  1  2  1  0
  2  3  2  0
  3  4  1  0
  4  5  1  0
  4  6  1  0
  4  7  1  0
  7  8  1  0
  8  9  1  0
  9 10  1  0
 10 11  1  0
 11 12  2  0
 12 13  1  0
 13 14  1  0
 13 15  1  0
 13 16  1  0
 16 17  1  0
 16 18  1  0
 16 19  1  0
 11 20  1  0
 20 21  1  0
 21 22  1  0
 22 23  1  0
 22 24  1  0
 22 25  1  0
  8 26  2  0
 26 27  1  0
 27 28  1  0
 28 29  1  0
 28 30  1  0
 28 31  1  0
 27 32  2  0
 32 33  1  0
  3 34  1  0
 34 35  1  0
 34 36  2  0
 36 37  1  0
 36 38  1  0
 38 39  1  0
 38 40  2  0
 40 41  1  0
 40  2  1  0
 32  7  1  0
 21  9  2  0
M  CHG  2  20  -1  38   1
M  END
>  <UniqueID>  (23) 
22

>  <SMILES>  (23) 
CC/N=c1/[n-]c(C)c(-c2nc(C)cn2Cc2cc[nH+]cc2)s1

>  <Energy>  (23) 
100.55384405823156

>  <Genealogy>  (23) 
CCN=c1[n-]c(C)c(-c2nc(C)cn2Cc2cc[nH+]cc2)s1 (protonated)
CC/N=c1/[n-]c(C)c(-c2nc(C)cn2Cc2cc[nH+]cc2)s1 (cis-trans isomerization)
CC/N=c1/[n-]c(C)c(-c2nc(C)cn2Cc2cc[nH+]cc2)s1 (3D coordinates assigned)
CC/N=c1/[n-]c(C)c(-c2nc(C)cn2Cc2cc[nH+]cc2)s1 (optimized conformer: 100.55384405823156 kcal/mol)

>  <smiles>  (23) 
CCN=c1[nH]c(C)c(-c2nc(C)cn2Cc2ccncc2)s1

>  <score_type>  (23) 
oracle

>  <origin>  (23) 
adg

>  <m_score__min__energy>  (23) 
-8.3900000000000006

>  <m_primary>  (23) 
energy

$$$$
23:0
     RDKit          3D

 41 43  0  0  0  0  0  0  0  0999 V2000
   -6.5540   25.2960  -30.0720 C   0  0  0  0  0  0  0  0  0  0  0  0
   -5.4910   24.2510  -30.2890 C   0  0  0  0  0  0  0  0  0  0  0  0
   -4.4610   24.1340  -29.3410 C   0  0  0  0  0  0  0  0  0  0  0  0
   -3.4590   23.1750  -29.4920 C   0  0  0  0  0  0  0  0  0  0  0  0
   -2.4800   23.0670  -28.5610 F   0  0  0  0  0  0  0  0  0  0  0  0
   -3.4750   22.3150  -30.5870 C   0  0  0  0  0  0  0  0  0  0  0  0
   -4.4870   22.4080  -31.5570 C   0  0  0  0  0  0  0  0  0  0  0  0
   -5.5030   23.3890  -31.4220 C   0  0  0  0  0  0  0  0  0  0  0  0
   -6.5520   23.4530  -32.4160 N   0  0  0  0  0  0  0  0  0  0  0  0
   -7.4060   22.3070  -32.2560 C   0  0  0  0  0  0  0  0  0  0  0  0
   -8.7220   22.3810  -31.7720 C   0  0  0  0  0  0  0  0  0  0  0  0
   -9.3190   21.1360  -31.6180 C   0  0  0  0  0  0  0  0  0  0  0  0
   -8.2080   19.9540  -32.0630 S   0  0  0  0  0  0  0  0  0  0  0  0
   -6.9720   21.0060  -32.4930 C   0  0  0  0  0  0  0  0  0  0  0  0
   -5.6050   20.6050  -32.8700 C   0  0  0  0  0  0  0  0  0  0  0  0
   -5.4140   19.4500  -33.3390 O   0  0  0  0  0  0  0  0  0  0  0  0
   -4.4850   21.4990  -32.6830 N   0  0  0  0  0  0  0  0  0  0  0  0
   -3.2560   21.2950  -33.4670 C   0  0  0  0  0  0  0  0  0  0  0  0
   -2.4660   20.0710  -32.9740 C   0  0  0  0  0  0  0  0  0  0  0  0
   -1.0070   20.3470  -33.0220 N   0  0  0  0  0  0  0  0  0  0  0  0
   -0.6770   21.1770  -34.1910 C   0  0  0  0  0  0  0  0  0  0  0  0
   -0.5670   21.0310  -31.7880 C   0  0  0  0  0  0  0  0  0  0  0  0
   -6.7062   25.4456  -28.9929 H   0  0  0  0  0  0  0  0  0  0  0  0
   -6.2364   26.2432  -30.5323 H   0  0  0  0  0  0  0  0  0  0  0  0
   -7.4957   24.9623  -30.5323 H   0  0  0  0  0  0  0  0  0  0  0  0
   -4.4443   24.8058  -28.4701 H   0  0  0  0  0  0  0  0  0  0  0  0
   -2.6871   21.5549  -30.6936 H   0  0  0  0  0  0  0  0  0  0  0  0
   -6.1310   23.4340  -33.3750 H   0  0  0  0  0  0  0  0  0  0  0  0
   -7.1110   24.3330  -32.3590 H   0  0  0  0  0  0  0  0  0  0  0  0
   -9.2290   23.3288  -31.5384 H   0  0  0  0  0  0  0  0  0  0  0  0
  -10.3447   20.9540  -31.2648 H   0  0  0  0  0  0  0  0  0  0  0  0
   -3.5269   21.1435  -34.5223 H   0  0  0  0  0  0  0  0  0  0  0  0
   -2.6206   22.1850  -33.3481 H   0  0  0  0  0  0  0  0  0  0  0  0
   -2.7585   19.8431  -31.9384 H   0  0  0  0  0  0  0  0  0  0  0  0
   -2.6901   19.2136  -33.6256 H   0  0  0  0  0  0  0  0  0  0  0  0
   -0.2903   22.1496  -33.8527 H   0  0  0  0  0  0  0  0  0  0  0  0
    0.0876   20.6692  -34.7972 H   0  0  0  0  0  0  0  0  0  0  0  0
   -1.5816   21.3328  -34.7972 H   0  0  0  0  0  0  0  0  0  0  0  0
   -0.9263   20.4724  -30.9111 H   0  0  0  0  0  0  0  0  0  0  0  0
    0.5318   21.0789  -31.7672 H   0  0  0  0  0  0  0  0  0  0  0  0
   -0.9790   22.0507  -31.7672 H   0  0  0  0  0  0  0  0  0  0  0  0
  1  2  1  0
  2  3  2  0
  3  4  1  0
  4  5  1  0
  4  6  2  0
  6  7  1  0
  7  8  2  0
  8  9  1  0
  9 10  1  0
 10 11  1  0
 11 12  2  0
 12 13  1  0
 13 14  1  0
 14 15  1  0
 15 16  2  0
 15 17  1  0
 17 18  1  0
 18 19  1  0
 19 20  1  0
 20 21  1  0
 20 22  1  0
  8  2  1  0
 14 10  2  0
 17  7  1  0
  1 23  1  0
  1 24  1  0
  1 25  1  0
  3 26  1  0
  6 27  1  0
  9 28  1  0
  9 29  1  0
 11 30  1  0
 12 31  1  0
 18 32  1  0
 18 33  1  0
 19 34  1  0
 19 35  1  0
 21 36  1  0
 21 37  1  0
 21 38  1  0
 22 39  1  0
 22 40  1  0
 22 41  1  0
M  CHG  1   9   1
M  END
>  <UniqueID>  (24) 
23

>  <SMILES>  (24) 
Cc1cc(F)cc2c1[NH2+]c1ccsc1C(=O)N2CCN(C)C

>  <Energy>  (24) 
82.59429837849498

>  <Genealogy>  (24) 
Cc1cc(F)cc2c1[NH2+]c1ccsc1C(=O)N2CCN(C)C (protonated)
Cc1cc(F)cc2c1[NH2+]c1ccsc1C(=O)N2CCN(C)C (3D coordinates assigned)
Cc1cc(F)cc2c1[NH2+]c1ccsc1C(=O)N2CCN(C)C (nonaromatic ring conformer: 82.59429837849498 kcal/mol)

>  <smiles>  (24) 
Cc1cc(F)cc2c1Nc1ccsc1C(=O)N2CCN(C)C

>  <score_type>  (24) 
oracle

>  <origin>  (24) 
adg

>  <m_score__min__energy>  (24) 
-6.7300000000000004

>  <m_primary>  (24) 
energy

$$$$
24:0
     RDKit          3D

 27 28  0  0  0  0  0  0  0  0999 V2000
   -5.3810   20.9780  -32.7440 C   0  0  0  0  0  0  0  0  0  0  0  0
   -6.7430   20.4400  -32.4230 C   0  0  0  0  0  0  0  0  0  0  0  0
   -7.1120   19.1140  -32.7050 C   0  0  0  0  0  0  0  0  0  0  0  0
   -8.4150   18.8030  -32.3420 C   0  0  0  0  0  0  0  0  0  0  0  0
   -9.1120   20.1740  -31.6680 S   0  0  0  0  0  0  0  0  0  0  0  0
   -7.7710   21.1790  -31.8260 C   0  0  0  0  0  0  0  0  0  0  0  0
   -7.7410   22.5900  -31.4010 C   0  0  0  0  0  0  0  0  0  0  0  0
   -8.4020   23.4470  -32.0500 O   0  0  0  0  0  0  0  0  0  0  0  0
   -6.9870   22.9780  -30.2870 O   0  0  0  0  0  0  0  0  0  0  0  0
   -6.3910   24.2650  -30.1540 C   0  0  0  0  0  0  0  0  0  0  0  0
   -5.1600   24.3570  -30.9990 C   0  0  0  0  0  0  0  0  0  0  0  0
   -5.1570   23.8400  -32.1480 O   0  0  0  0  0  0  0  0  0  0  0  0
   -4.0090   25.0420  -30.4800 N   0  0  0  0  0  0  0  0  0  0  0  0
   -3.0840   24.5610  -29.7020 C   0  0  0  0  0  0  0  0  0  0  0  0
   -2.0180   25.2980  -29.3210 N   0  0  0  0  0  0  0  0  0  0  0  0
   -1.1850   24.5970  -28.5060 C   0  0  0  0  0  0  0  0  0  0  0  0
   -1.5830   23.2940  -28.2300 C   0  0  0  0  0  0  0  0  0  0  0  0
   -3.0310   23.0110  -29.0370 S   0  0  0  0  0  0  0  0  0  0  0  0
   -4.8414   21.1912  -31.8095 H   0  0  0  0  0  0  0  0  0  0  0  0
   -4.8212   20.2335  -33.3290 H   0  0  0  0  0  0  0  0  0  0  0  0
   -5.4811   21.9041  -33.3290 H   0  0  0  0  0  0  0  0  0  0  0  0
   -6.4298   18.3879  -33.1713 H   0  0  0  0  0  0  0  0  0  0  0  0
   -8.9060   17.8274  -32.4731 H   0  0  0  0  0  0  0  0  0  0  0  0
   -7.1100   25.0328  -30.4755 H   0  0  0  0  0  0  0  0  0  0  0  0
   -6.1150   24.4244  -29.1012 H   0  0  0  0  0  0  0  0  0  0  0  0
   -0.2616   25.0304  -28.0943 H   0  0  0  0  0  0  0  0  0  0  0  0
   -1.0452   22.5744  -27.5952 H   0  0  0  0  0  0  0  0  0  0  0  0
  1  2  1  0
  2  3  1  0
  3  4  2  0
  4  5  1  0
  5  6  1  0
  6  7  1  0
  7  8  2  0
  7  9  1  0
  9 10  1  0
 10 11  1  0
 11 12  2  0
 11 13  1  0
 13 14  2  3
 14 15  1  0
 15 16  1  0
 16 17  2  0
 17 18  1  0
  6  2  2  0
 18 14  1  0
  1 19  1  0
  1 20  1  0
  1 21  1  0
  3 22  1  0
  4 23  1  0
 10 24  1  0
 10 25  1  0
 16 26  1  0
 17 27  1  0
M  CHG  1  15  -1
M  END
>  <UniqueID>  (25) 
24

>  <SMILES>  (25) 
Cc1ccsc1C(=O)OCC(=O)N=c1[n-]ccs1

>  <Energy>  (25) 
82.95105083086855

>  <Genealogy>  (25) 
Cc1ccsc1C(=O)OCC(=O)N=c1[n-]ccs1 (protonated)
Cc1ccsc1C(=O)OCC(=O)N=c1[n-]ccs1 (3D coordinates assigned)
Cc1ccsc1C(=O)OCC(=O)N=c1[n-]ccs1 (optimized conformer: 82.95105083086855 kcal/mol)

>  <smiles>  (25) 
Cc1ccsc1C(=O)OCC(=O)N=c1[nH]ccs1

>  <score_type>  (25) 
oracle

>  <origin>  (25) 
adg

>  <m_score__min__energy>  (25) 
-8.4000000000000004

>  <m_primary>  (25) 
energy

$$$$
25:0
     RDKit          3D

 46 49  0  0  0  0  0  0  0  0999 V2000
    0.3050   20.3870  -31.1970 C   0  0  0  0  0  0  0  0  0  0  0  0
   -0.4260   21.2190  -32.0920 O   0  0  0  0  0  0  0  0  0  0  0  0
   -1.8260   21.2450  -32.1820 C   0  0  0  0  0  0  0  0  0  0  0  0
   -2.5750   20.9970  -31.0240 C   0  0  0  0  0  0  0  0  0  0  0  0
   -3.9720   20.9920  -31.0670 C   0  0  0  0  0  0  0  0  0  0  0  0
   -4.6430   21.2360  -32.2750 C   0  0  0  0  0  0  0  0  0  0  0  0
   -6.0770   21.1630  -32.3420 N   0  0  0  0  0  0  0  0  0  0  0  0
   -6.9570   22.1880  -32.2990 C   0  0  0  0  0  0  0  0  0  0  0  0
   -6.5300   23.9340  -32.3430 S   0  0  0  0  0  0  0  0  0  0  0  0
   -5.8010   23.9770  -30.6690 C   0  0  0  0  0  0  0  0  0  0  0  0
   -4.9060   25.1630  -30.5140 C   0  0  0  0  0  0  0  0  0  0  0  0
   -5.4060   26.3190  -30.5040 O   0  0  0  0  0  0  0  0  0  0  0  0
   -3.4890   24.9680  -30.4210 N   0  0  0  0  0  0  0  0  0  0  0  0
   -2.7590   24.3560  -29.3460 C   0  0  0  0  0  0  0  0  0  0  0  0
   -3.2500   23.2490  -28.6270 C   0  0  0  0  0  0  0  0  0  0  0  0
   -2.5080   22.7100  -27.5720 C   0  0  0  0  0  0  0  0  0  0  0  0
   -1.2680   23.2560  -27.2360 C   0  0  0  0  0  0  0  0  0  0  0  0
   -0.7600   24.3340  -27.9630 C   0  0  0  0  0  0  0  0  0  0  0  0
   -1.4990   24.8770  -29.0170 C   0  0  0  0  0  0  0  0  0  0  0  0
   -8.2250   21.7490  -32.2090 N   0  0  0  0  0  0  0  0  0  0  0  0
   -8.1750   20.4250  -32.1870 N   0  0  0  0  0  0  0  0  0  0  0  0
   -6.8780   20.0730  -32.2670 C   0  0  0  0  0  0  0  0  0  0  0  0
   -6.4470   18.6650  -32.3300 C   0  0  0  0  0  0  0  0  0  0  0  0
   -6.1130   17.8480  -31.2650 C   0  0  0  0  0  0  0  0  0  0  0  0
   -5.7470   16.6420  -31.8230 C   0  0  0  0  0  0  0  0  0  0  0  0
   -5.8710   16.7980  -33.1880 C   0  0  0  0  0  0  0  0  0  0  0  0
   -6.2840   18.0140  -33.4590 O   0  0  0  0  0  0  0  0  0  0  0  0
   -3.8950   21.5050  -33.4320 C   0  0  0  0  0  0  0  0  0  0  0  0
   -2.4990   21.5100  -33.3900 C   0  0  0  0  0  0  0  0  0  0  0  0
    0.0630   20.6625  -30.1599 H   0  0  0  0  0  0  0  0  0  0  0  0
    0.0336   19.3351  -31.3699 H   0  0  0  0  0  0  0  0  0  0  0  0
    1.3831   20.5207  -31.3699 H   0  0  0  0  0  0  0  0  0  0  0  0
   -2.0586   20.8044  -30.0720 H   0  0  0  0  0  0  0  0  0  0  0  0
   -4.5477   20.7960  -30.1504 H   0  0  0  0  0  0  0  0  0  0  0  0
   -6.6088   24.0343  -29.9246 H   0  0  0  0  0  0  0  0  0  0  0  0
   -5.2073   23.0634  -30.5178 H   0  0  0  0  0  0  0  0  0  0  0  0
   -4.2206   22.8071  -28.8965 H   0  0  0  0  0  0  0  0  0  0  0  0
   -2.9022   21.8536  -27.0053 H   0  0  0  0  0  0  0  0  0  0  0  0
   -0.6912   22.8368  -26.3984 H   0  0  0  0  0  0  0  0  0  0  0  0
    0.2227   24.7562  -27.7059 H   0  0  0  0  0  0  0  0  0  0  0  0
   -1.0895   25.7197  -29.5933 H   0  0  0  0  0  0  0  0  0  0  0  0
   -6.1349   18.1067  -30.1961 H   0  0  0  0  0  0  0  0  0  0  0  0
   -5.4217   15.7377  -31.2879 H   0  0  0  0  0  0  0  0  0  0  0  0
   -5.6562   16.0208  -33.9362 H   0  0  0  0  0  0  0  0  0  0  0  0
   -4.4128   21.7136  -34.3798 H   0  0  0  0  0  0  0  0  0  0  0  0
   -1.9236   21.7216  -34.3033 H   0  0  0  0  0  0  0  0  0  0  0  0
  1  2  1  0
  2  3  1  0
  3  4  2  0
  4  5  1  0
  5  6  2  0
  6  7  1  0
  7  8  1  0
  8  9  1  0
  9 10  1  0
 10 11  1  0
 11 12  2  0
 11 13  1  0
 13 14  1  0
 14 15  2  0
 15 16  1  0
 16 17  2  0
 17 18  1  0
 18 19  2  0
  8 20  2  0
 20 21  1  0
 21 22  2  0
 22 23  1  0
 23 24  2  0
 24 25  1  0
 25 26  2  0
 26 27  1  0
  6 28  1  0
 28 29  2  0
 29  3  1  0
 22  7  1  0
 27 23  1  0
 19 14  1  0
  1 30  1  0
  1 31  1  0
  1 32  1  0
  4 33  1  0
  5 34  1  0
 10 35  1  0
 10 36  1  0
 15 37  1  0
 16 38  1  0
 17 39  1  0
 18 40  1  0
 19 41  1  0
 24 42  1  0
 25 43  1  0
 26 44  1  0
 28 45  1  0
 29 46  1  0
M  CHG  1  13  -1
M  END
>  <UniqueID>  (26) 
25

>  <SMILES>  (26) 
COc1ccc(-n2c(SCC(=O)[N-]c3ccccc3)nnc2-c2ccco2)cc1

>  <Energy>  (26) 
112.25145328623798

>  <Genealogy>  (26) 
COc1ccc(-n2c(SCC(=O)[N-]c3ccccc3)nnc2-c2ccco2)cc1 (protonated)
COc1ccc(-n2c(SCC(=O)[N-]c3ccccc3)nnc2-c2ccco2)cc1 (3D coordinates assigned)
COc1ccc(-n2c(SCC(=O)[N-]c3ccccc3)nnc2-c2ccco2)cc1 (optimized conformer: 112.25145328623798 kcal/mol)

>  <smiles>  (26) 
COc1ccc(-n2c(SCC(=O)Nc3ccccc3)nnc2-c2ccco2)cc1

>  <score_type>  (26) 
oracle

>  <origin>  (26) 
adg

>  <m_score__min__energy>  (26) 
-10.02

>  <m_primary>  (26) 
energy

$$$$
26:0
     RDKit          3D

 49 51  0  0  0  0  0  0  0  0999 V2000
   -9.2900   21.9374  -32.9096 H   0  0  0  0  0  0  0  0  0  0  0  0
   -8.7830   21.4180  -32.0830 C   0  0  0  0  0  0  0  0  0  0  0  0
   -8.8960   21.9300  -30.8520 C   0  0  0  0  0  0  0  0  0  0  0  0
   -9.8908   22.0131  -30.3901 H   0  0  0  0  0  0  0  0  0  0  0  0
   -7.6850   22.3940  -30.0890 C   0  0  0  0  0  0  0  0  0  0  0  0
   -7.1936   21.5229  -29.6311 H   0  0  0  0  0  0  0  0  0  0  0  0
   -8.0111   23.1053  -29.3158 H   0  0  0  0  0  0  0  0  0  0  0  0
   -6.7230   23.0780  -30.9800 N   0  0  0  0  0  0  0  0  0  0  0  0
   -5.5560   22.2120  -31.2830 C   0  0  0  0  0  0  0  0  0  0  0  0
   -5.8231   21.5253  -32.0998 H   0  0  0  0  0  0  0  0  0  0  0  0
   -5.2947   21.6542  -30.3716 H   0  0  0  0  0  0  0  0  0  0  0  0
   -4.3350   23.0400  -31.7070 C   0  0  0  0  0  0  0  0  0  0  0  0
   -4.5985   23.6297  -32.5974 H   0  0  0  0  0  0  0  0  0  0  0  0
   -3.5107   22.3431  -31.9187 H   0  0  0  0  0  0  0  0  0  0  0  0
   -3.8870   23.9650  -30.6360 N   0  0  0  0  0  0  0  0  0  0  0  0
   -2.7420   23.4080  -29.8840 C   0  0  0  0  0  0  0  0  0  0  0  0
   -1.8829   23.3022  -30.5627 H   0  0  0  0  0  0  0  0  0  0  0  0
   -3.0330   22.4288  -29.4761 H   0  0  0  0  0  0  0  0  0  0  0  0
   -2.3590   24.3090  -28.7420 C   0  0  0  0  0  0  0  0  0  0  0  0
   -1.5260   25.3610  -28.9690 N   0  0  0  0  0  0  0  0  0  0  0  0
   -1.1640   26.2200  -27.9790 C   0  0  0  0  0  0  0  0  0  0  0  0
   -0.4808   27.0537  -28.1985 H   0  0  0  0  0  0  0  0  0  0  0  0
   -1.6610   26.0450  -26.6750 C   0  0  0  0  0  0  0  0  0  0  0  0
   -1.3230   26.8970  -25.6150 O   0  0  0  0  0  0  0  0  0  0  0  0
   -0.8860   26.4510  -24.3360 C   0  0  0  0  0  0  0  0  0  0  0  0
   -1.4257   27.0018  -23.5515 H   0  0  0  0  0  0  0  0  0  0  0  0
   -1.0888   25.3747  -24.2340 H   0  0  0  0  0  0  0  0  0  0  0  0
    0.1942   26.6318  -24.2340 H   0  0  0  0  0  0  0  0  0  0  0  0
   -2.5310   24.9780  -26.4280 C   0  0  0  0  0  0  0  0  0  0  0  0
   -2.9390   24.8261  -25.4178 H   0  0  0  0  0  0  0  0  0  0  0  0
   -2.8830   24.1060  -27.4580 C   0  0  0  0  0  0  0  0  0  0  0  0
   -3.5662   23.2659  -27.2643 H   0  0  0  0  0  0  0  0  0  0  0  0
   -4.9850   24.3760  -29.7240 C   0  0  0  0  0  0  0  0  0  0  0  0
   -4.7658   25.3803  -29.3324 H   0  0  0  0  0  0  0  0  0  0  0  0
   -5.0472   23.6395  -28.9093 H   0  0  0  0  0  0  0  0  0  0  0  0
   -6.3410   24.4080  -30.4440 C   0  0  0  0  0  0  0  0  0  0  0  0
   -6.2823   25.1225  -31.2783 H   0  0  0  0  0  0  0  0  0  0  0  0
   -7.1049   24.7090  -29.7119 H   0  0  0  0  0  0  0  0  0  0  0  0
   -8.0130   20.1900  -32.3960 C   0  0  0  0  0  0  0  0  0  0  0  0
   -8.3220   19.0070  -31.7050 C   0  0  0  0  0  0  0  0  0  0  0  0
   -9.1169   19.0109  -30.9447 H   0  0  0  0  0  0  0  0  0  0  0  0
   -7.6270   17.8240  -31.9760 C   0  0  0  0  0  0  0  0  0  0  0  0
   -7.8682   16.9057  -31.4205 H   0  0  0  0  0  0  0  0  0  0  0  0
   -6.6270   17.8070  -32.9510 C   0  0  0  0  0  0  0  0  0  0  0  0
   -6.0802   16.8762  -33.1624 H   0  0  0  0  0  0  0  0  0  0  0  0
   -6.3220   18.9720  -33.6570 C   0  0  0  0  0  0  0  0  0  0  0  0
   -5.5363   18.9566  -34.4268 H   0  0  0  0  0  0  0  0  0  0  0  0
   -7.0120   20.1590  -33.3890 C   0  0  0  0  0  0  0  0  0  0  0  0
   -6.7730   21.0715  -33.9548 H   0  0  0  0  0  0  0  0  0  0  0  0
  1  2  1  0
  2  3  2  0
  3  4  1  0
  3  5  1  0
  5  6  1  0
  5  7  1  0
  5  8  1  0
  8  9  1  0
  9 10  1  0
  9 11  1  0
  9 12  1  0
 12 13  1  0
 12 14  1  0
 12 15  1  0
 15 16  1  0
 16 17  1  0
 16 18  1  0
 16 19  1  0
 19 20  2  0
 20 21  1  0
 21 22  1  0
 21 23  2  0
 23 24  1  0
 24 25  1  0
 25 26  1  0
 25 27  1  0
 25 28  1  0
 23 29  1  0
 29 30  1  0
 29 31  2  0
 31 32  1  0
 15 33  1  0
 33 34  1  0
 33 35  1  0
 33 36  1  0
 36 37  1  0
 36 38  1  0
  2 39  1  0
 39 40  2  0
 40 41  1  0
 40 42  1  0
 42 43  1  0
 42 44  2  0
 44 45  1  0
 44 46  1  0
 46 47  1  0
 46 48  2  0
 48 49  1  0
 36  8  1  0
 48 39  1  0
 31 19  1  0
M  END
>  <UniqueID>  (27) 
26

>  <SMILES>  (27) 
COc1ccc(CN2CCN(C/C=C/c3ccccc3)CC2)nc1

>  <Energy>  (27) 
63.52645094845467

>  <Genealogy>  (27) 
COc1ccc(CN2CCN(C/C=C/c3ccccc3)CC2)nc1 (cis-trans isomerization)
COc1ccc(CN2CCN(C/C=C/c3ccccc3)CC2)nc1 (3D coordinates assigned)
COc1ccc(CN2CCN(C/C=C/c3ccccc3)CC2)nc1 (nonaromatic ring conformer: 63.52645094845467 kcal/mol)

>  <smiles>  (27) 
COc1ccc(CN2CCN(CC=Cc3ccccc3)CC2)nc1

>  <score_type>  (27) 
oracle

>  <origin>  (27) 
adg

>  <m_score__min__energy>  (27) 
-8.6199999999999992

>  <m_primary>  (27) 
energy

$$$$
27:0
     RDKit          3D

 47 50  0  0  1  0  0  0  0  0999 V2000
   -5.3570   13.5820  -33.6950 C   0  0  0  0  0  0  0  0  0  0  0  0
   -6.3970   14.1550  -34.3960 C   0  0  0  0  0  0  0  0  0  0  0  0
   -6.6940   15.5010  -34.1950 C   0  0  0  0  0  0  0  0  0  0  0  0
   -5.9810   16.2860  -33.3130 C   0  0  0  0  0  0  0  0  0  0  0  0
   -6.2780   17.6960  -33.0910 C   0  0  0  0  0  0  0  0  0  0  0  0
   -7.4820   18.0550  -32.6160 N   0  0  0  0  0  0  0  0  0  0  0  0
   -7.8710   19.3130  -32.3720 C   0  0  0  0  0  0  0  0  0  0  0  0
   -9.1260   19.6140  -31.8810 C   0  0  0  0  0  0  0  0  0  0  0  0
   -9.4890   20.9360  -31.6420 C   0  0  0  0  0  0  0  0  0  0  0  0
   -8.5820   21.9420  -31.9000 C   0  0  0  0  0  0  0  0  0  0  0  0
   -7.3110   21.6480  -32.3960 C   0  0  0  0  0  0  0  0  0  0  0  0
   -6.9790   20.3340  -32.6230 C   0  0  0  0  0  0  0  0  0  0  0  0
   -5.7230   19.9720  -33.1190 C   0  0  0  0  0  0  0  0  0  0  0  0
   -4.9150   20.9550  -33.3410 N   0  0  0  0  0  0  0  0  0  0  0  0
   -3.8890   21.2280  -32.3660 C   0  0  0  0  0  0  0  0  0  0  0  0
   -4.0280   22.6700  -31.9380 C   0  0  0  0  0  0  0  0  0  0  0  0
   -5.0090   22.8830  -30.9100 N   0  0  0  0  0  0  0  0  0  0  0  0
   -5.7720   24.0690  -31.2670 C   0  0  0  0  0  0  0  0  0  0  0  0
   -5.2770   25.3190  -30.5880 C   0  0  0  0  0  0  0  0  0  0  0  0
   -3.8730   25.3400  -30.4690 O   0  0  0  0  0  0  0  0  0  0  0  0
   -3.4050   24.2860  -29.6880 C   0  0  0  0  0  0  0  0  0  0  0  0
   -4.4030   23.1430  -29.6220 C   0  0  0  0  0  0  0  0  0  0  0  0
   -5.4040   18.6860  -33.3390 N   0  0  0  0  0  0  0  0  0  0  0  0
   -4.9520   15.6870  -32.6310 C   0  0  0  0  0  0  0  0  0  0  0  0
   -4.6230   14.3520  -32.8010 C   0  0  0  0  0  0  0  0  0  0  0  0
   -5.1096   12.5204  -33.8428 H   0  0  0  0  0  0  0  0  0  0  0  0
   -6.9857   13.5557  -35.1062 H   0  0  0  0  0  0  0  0  0  0  0  0
   -7.5241   15.9526  -34.7580 H   0  0  0  0  0  0  0  0  0  0  0  0
   -9.8426   18.8046  -31.6777 H   0  0  0  0  0  0  0  0  0  0  0  0
  -10.4889   21.1759  -31.2514 H   0  0  0  0  0  0  0  0  0  0  0  0
   -8.8635   22.9887  -31.7127 H   0  0  0  0  0  0  0  0  0  0  0  0
   -6.5892   22.4523  -32.6012 H   0  0  0  0  0  0  0  0  0  0  0  0
   -4.0141   20.5662  -31.4963 H   0  0  0  0  0  0  0  0  0  0  0  0
   -2.8929   21.0504  -32.7976 H   0  0  0  0  0  0  0  0  0  0  0  0
   -3.0532   23.0148  -31.5626 H   0  0  0  0  0  0  0  0  0  0  0  0
   -4.3653   23.2327  -32.8210 H   0  0  0  0  0  0  0  0  0  0  0  0
   -5.7059   24.2128  -32.3556 H   0  0  0  0  0  0  0  0  0  0  0  0
   -6.8075   23.9042  -30.9343 H   0  0  0  0  0  0  0  0  0  0  0  0
   -5.5957   26.1918  -31.1768 H   0  0  0  0  0  0  0  0  0  0  0  0
   -5.7022   25.3432  -29.5738 H   0  0  0  0  0  0  0  0  0  0  0  0
   -2.4651   23.9128  -30.1208 H   0  0  0  0  0  0  0  0  0  0  0  0
   -3.2494   24.6620  -28.6660 H   0  0  0  0  0  0  0  0  0  0  0  0
   -3.8824   22.2350  -29.2838 H   0  0  0  0  0  0  0  0  0  0  0  0
   -5.2010   23.4263  -28.9199 H   0  0  0  0  0  0  0  0  0  0  0  0
   -4.4690   18.4810  -33.7020 H   0  0  0  0  0  0  0  0  0  0  0  0
   -4.3657   16.2900  -31.9220 H   0  0  0  0  0  0  0  0  0  0  0  0
   -3.7911   13.9071  -32.2353 H   0  0  0  0  0  0  0  0  0  0  0  0
  1  2  2  0
  2  3  1  0
  3  4  2  0
  4  5  1  0
  5  6  2  0
  6  7  1  0
  7  8  2  0
  8  9  1  0
  9 10  2  0
 10 11  1  0
 11 12  2  0
 12 13  1  0
 13 14  2  0
 14 15  1  0
 15 16  1  0
 16 17  1  0
 17 18  1  0
 18 19  1  0
 19 20  1  0
 20 21  1  0
 21 22  1  0
 13 23  1  0
  4 24  1  0
 24 25  2  0
 25  1  1  0
 23  5  1  0
 12  7  1  0
 22 17  1  0
  1 26  1  0
  2 27  1  0
  3 28  1  0
  8 29  1  0
  9 30  1  0
 10 31  1  0
 11 32  1  0
 15 33  1  0
 15 34  1  0
 16 35  1  0
 16 36  1  0
 18 37  1  0
 18 38  1  0
 19 39  1  0
 19 40  1  0
 21 41  1  0
 21 42  1  0
 22 43  1  0
 22 44  1  0
 23 45  1  0
 24 46  1  0
 25 47  1  0
M  END
>  <smiles>  (28) 
c1ccc(-c2nc3ccccc3c(=NCCN3CCOCC3)[nH]2)cc1

>  <score_type>  (28) 
oracle

>  <origin>  (28) 
adg

>  <m_score__min__energy>  (28) 
-9.1099999999999994

>  <m_primary>  (28) 
energy

$$$$
28:0
     RDKit          3D

 33 35  0  0  0  0  0  0  0  0999 V2000
   -7.4940   17.7990  -31.6070 C   0  0  0  0  0  0  0  0  0  0  0  0
   -8.7440   18.5860  -31.2410 C   0  0  0  0  0  0  0  0  0  0  0  0
   -9.3880   19.5470  -32.6580 S   0  0  0  0  0  0  0  0  0  0  0  0
   -8.5580   21.0840  -32.2260 C   0  0  0  0  0  0  0  0  0  0  0  0
   -9.2070   22.2130  -31.8910 N   0  0  0  0  0  0  0  0  0  0  0  0
   -8.3110   23.1750  -31.7390 N   0  0  0  0  0  0  0  0  0  0  0  0
   -7.1110   22.6120  -31.9910 C   0  0  0  0  0  0  0  0  0  0  0  0
   -5.8240   23.3830  -31.9890 C   0  0  0  0  0  0  0  0  0  0  0  0
   -5.8230   24.6060  -31.0840 C   0  0  0  0  0  0  0  0  0  0  0  0
   -5.0700   23.3550  -30.6680 C   0  0  0  0  0  0  0  0  0  0  0  0
   -7.2300   21.3030  -32.3100 N   0  0  0  0  0  0  0  0  0  0  0  0
   -6.2220   20.4320  -32.8500 C   0  0  0  0  0  0  0  0  0  0  0  0
   -6.4820   19.6620  -33.9940 C   0  0  0  0  0  0  0  0  0  0  0  0
   -5.4990   18.8140  -34.5120 C   0  0  0  0  0  0  0  0  0  0  0  0
   -4.2510   18.7270  -33.8900 C   0  0  0  0  0  0  0  0  0  0  0  0
   -3.9840   19.4870  -32.7500 C   0  0  0  0  0  0  0  0  0  0  0  0
   -4.9660   20.3380  -32.2290 C   0  0  0  0  0  0  0  0  0  0  0  0
   -6.9817   17.4765  -30.6885 H   0  0  0  0  0  0  0  0  0  0  0  0
   -7.7769   16.9158  -32.1985 H   0  0  0  0  0  0  0  0  0  0  0  0
   -6.8198   18.4359  -32.1985 H   0  0  0  0  0  0  0  0  0  0  0  0
   -9.5210   17.8830  -30.9062 H   0  0  0  0  0  0  0  0  0  0  0  0
   -8.4779   19.2945  -30.4428 H   0  0  0  0  0  0  0  0  0  0  0  0
  -10.2380   22.3400  -31.7870 H   0  0  0  0  0  0  0  0  0  0  0  0
   -5.5641   23.1878  -33.0399 H   0  0  0  0  0  0  0  0  0  0  0  0
   -5.2684   25.5086  -31.3801 H   0  0  0  0  0  0  0  0  0  0  0  0
   -6.6007   25.2341  -30.6249 H   0  0  0  0  0  0  0  0  0  0  0  0
   -3.9700   23.3516  -30.6628 H   0  0  0  0  0  0  0  0  0  0  0  0
   -5.0765   22.7020  -29.7829 H   0  0  0  0  0  0  0  0  0  0  0  0
   -7.4640   19.7261  -34.4854 H   0  0  0  0  0  0  0  0  0  0  0  0
   -5.7082   18.2145  -35.4103 H   0  0  0  0  0  0  0  0  0  0  0  0
   -3.4784   18.0592  -34.2989 H   0  0  0  0  0  0  0  0  0  0  0  0
   -3.0013   19.4172  -32.2607 H   0  0  0  0  0  0  0  0  0  0  0  0
   -4.7530   20.9351  -31.3301 H   0  0  0  0  0  0  0  0  0  0  0  0
  1  2  1  0
  2  3  1  0
  3  4  1  0
  4  5  2  0
  5  6  1  0
  6  7  2  0
  7  8  1  0
  8  9  1  0
  9 10  1  0
  7 11  1  0
 11 12  1  0
 12 13  2  0
 13 14  1  0
 14 15  2  0
 15 16  1  0
 16 17  2  0
 11  4  1  0
 17 12  1  0
 10  8  1  0
  1 18  1  0
  1 19  1  0
  1 20  1  0
  2 21  1  0
  2 22  1  0
  5 23  1  0
  8 24  1  0
  9 25  1  0
  9 26  1  0
 10 27  1  0
 10 28  1  0
 13 29  1  0
 14 30  1  0
 15 31  1  0
 16 32  1  0
 17 33  1  0
M  CHG  1   5   1
M  END
>  <UniqueID>  (29) 
27

>  <SMILES>  (29) 
CCSc1[nH+]nc(C2CC2)n1-c1ccccc1

>  <Energy>  (29) 
333.5702823799144

>  <Genealogy>  (29) 
CCSc1[nH+]nc(C2CC2)n1-c1ccccc1 (protonated)
CCSc1[nH+]nc(C2CC2)n1-c1ccccc1 (3D coordinates assigned)
CCSc1[nH+]nc(C2CC2)n1-c1ccccc1 (nonaromatic ring conformer: 333.5702823799144 kcal/mol)

>  <smiles>  (29) 
CCSc1nnc(C2CC2)n1-c1ccccc1

>  <score_type>  (29) 
oracle

>  <origin>  (29) 
adg

>  <m_score__min__energy>  (29) 
-6.4100000000000001

>  <m_primary>  (29) 
energy

$$$$
29:0
     RDKit          3D

 45 46  0  0  0  0  0  0  0  0999 V2000
   -4.5680   13.6600  -31.4720 C   0  0  0  0  0  0  0  0  0  0  0  0
   -4.5810   14.1510  -32.9250 C   0  0  0  0  0  0  0  0  0  0  0  0
   -4.2990   15.6070  -33.0390 N   0  0  0  0  0  0  0  0  0  0  0  0
   -3.9290   15.9720  -34.4360 C   0  0  0  0  0  0  0  0  0  0  0  0
   -2.6590   16.8310  -34.4950 C   0  0  0  0  0  0  0  0  0  0  0  0
   -5.4090   16.4610  -32.5300 C   0  0  0  0  0  0  0  0  0  0  0  0
   -6.5830   16.6770  -33.5190 C   0  0  0  0  0  0  0  0  0  0  0  0
   -6.4750   17.9510  -34.2370 N   0  0  0  0  0  0  0  0  0  0  0  0
   -6.0080   19.1670  -33.6210 C   0  0  0  0  0  0  0  0  0  0  0  0
   -4.6510   19.5310  -33.6410 C   0  0  0  0  0  0  0  0  0  0  0  0
   -4.2300   20.7250  -33.0570 C   0  0  0  0  0  0  0  0  0  0  0  0
   -5.1530   21.5740  -32.4300 C   0  0  0  0  0  0  0  0  0  0  0  0
   -4.7220   22.7880  -31.8760 C   0  0  0  0  0  0  0  0  0  0  0  0
   -5.6350   23.6600  -31.2630 C   0  0  0  0  0  0  0  0  0  0  0  0
   -5.1910   24.9120  -30.7050 N   0  0  0  0  0  0  0  0  0  0  0  0
   -5.9920   25.6650  -30.1130 O   0  0  0  0  0  0  0  0  0  0  0  0
   -3.8740   25.2980  -30.8110 O   0  0  0  0  0  0  0  0  0  0  0  0
   -6.9870   23.2930  -31.1920 C   0  0  0  0  0  0  0  0  0  0  0  0
   -7.4390   22.0720  -31.7170 C   0  0  0  0  0  0  0  0  0  0  0  0
   -8.8220   21.7160  -31.5550 N   0  0  0  0  0  0  0  0  0  0  0  0
   -9.1320   20.6950  -30.9080 O   0  0  0  0  0  0  0  0  0  0  0  0
   -9.7850   22.3380  -32.3160 O   0  0  0  0  0  0  0  0  0  0  0  0
   -6.5210   21.2090  -32.3660 C   0  0  0  0  0  0  0  0  0  0  0  0
   -6.9330   20.0120  -32.9870 C   0  0  0  0  0  0  0  0  0  0  0  0
   -4.5909   14.5248  -30.7925 H   0  0  0  0  0  0  0  0  0  0  0  0
   -5.4497   13.0278  -31.2907 H   0  0  0  0  0  0  0  0  0  0  0  0
   -3.6541   13.0753  -31.2907 H   0  0  0  0  0  0  0  0  0  0  0  0
   -3.8161   13.5986  -33.4905 H   0  0  0  0  0  0  0  0  0  0  0  0
   -5.5893   13.9743  -33.3275 H   0  0  0  0  0  0  0  0  0  0  0  0
   -3.4750   15.8220  -32.4280 H   0  0  0  0  0  0  0  0  0  0  0  0
   -3.7591   15.0491  -35.0098 H   0  0  0  0  0  0  0  0  0  0  0  0
   -4.7549   16.5617  -34.8604 H   0  0  0  0  0  0  0  0  0  0  0  0
   -2.3225   17.0586  -33.4728 H   0  0  0  0  0  0  0  0  0  0  0  0
   -1.8688   16.2812  -35.0273 H   0  0  0  0  0  0  0  0  0  0  0  0
   -2.8752   17.7691  -35.0273 H   0  0  0  0  0  0  0  0  0  0  0  0
   -5.8119   15.9895  -31.6215 H   0  0  0  0  0  0  0  0  0  0  0  0
   -4.9725   17.4550  -32.3529 H   0  0  0  0  0  0  0  0  0  0  0  0
   -6.5846   15.8565  -34.2516 H   0  0  0  0  0  0  0  0  0  0  0  0
   -7.5161   16.6955  -32.9367 H   0  0  0  0  0  0  0  0  0  0  0  0
   -6.7410   17.9890  -35.2460 H   0  0  0  0  0  0  0  0  0  0  0  0
   -3.9153   18.8690  -34.1210 H   0  0  0  0  0  0  0  0  0  0  0  0
   -3.1661   21.0029  -33.0884 H   0  0  0  0  0  0  0  0  0  0  0  0
   -3.6571   23.0597  -31.9224 H   0  0  0  0  0  0  0  0  0  0  0  0
   -7.7068   23.9750  -30.7158 H   0  0  0  0  0  0  0  0  0  0  0  0
   -7.9976   19.7354  -32.9746 H   0  0  0  0  0  0  0  0  0  0  0  0
  1  2  1  0
  2  3  1  0
  3  4  1  0
  4  5  1  0
  3  6  1  0
  6  7  1  0
  7  8  1  0
  8  9  1  0
  9 10  2  0
 10 11  1  0
 11 12  2  0
 12 13  1  0
 13 14  2  0
 14 15  1  0
 15 16  2  0
 15 17  1  0
 14 18  1  0
 18 19  2  0
 19 20  1  0
 20 21  2  0
 20 22  1  0
 19 23  1  0
 23 24  2  0
 24  9  1  0
 23 12  1  0
  1 25  1  0
  1 26  1  0
  1 27  1  0
  2 28  1  0
  2 29  1  0
  3 30  1  0
  4 31  1  0
  4 32  1  0
  5 33  1  0
  5 34  1  0
  5 35  1  0
  6 36  1  0
  6 37  1  0
  7 38  1  0
  7 39  1  0
  8 40  1  0
 10 41  1  0
 11 42  1  0
 13 43  1  0
 18 44  1  0
 24 45  1  0
M  CHG  5   3   1  15   1  17  -1  20   1  22  -1
M  END
>  <UniqueID>  (30) 
28

>  <SMILES>  (30) 
CC[NH+](CC)CCNc1ccc2cc([N+](=O)[O-])cc([N+](=O)[O-])c2c1

>  <Energy>  (30) 
59.60997482411317

>  <Genealogy>  (30) 
CC[NH+](CC)CCNc1ccc2cc([N+](=O)[O-])cc([N+](=O)[O-])c2c1 (protonated)
CC[NH+](CC)CCNc1ccc2cc([N+](=O)[O-])cc([N+](=O)[O-])c2c1 (3D coordinates assigned)
CC[NH+](CC)CCNc1ccc2cc([N+](=O)[O-])cc([N+](=O)[O-])c2c1 (optimized conformer: 59.60997482411317 kcal/mol)

>  <smiles>  (30) 
CCN(CC)CCNc1ccc2cc([N+](=O)[O-])cc([N+](=O)[O-])c2c1

>  <score_type>  (30) 
oracle

>  <origin>  (30) 
adg

>  <m_score__min__energy>  (30) 
-7.5999999999999996

>  <m_primary>  (30) 
energy

$$$$
30:0
     RDKit          3D

 29 30  0  0  0  0  0  0  0  0999 V2000
   -7.0263   19.9297  -33.2783 H   0  0  0  0  0  0  0  0  0  0  0  0
   -6.8010   20.8360  -32.6970 C   0  0  0  0  0  0  0  0  0  0  0  0
   -7.8520   21.5330  -32.0540 C   0  0  0  0  0  0  0  0  0  0  0  0
   -9.1550   21.0310  -32.1830 O   0  0  0  0  0  0  0  0  0  0  0  0
   -9.4670   19.6710  -32.4660 C   0  0  0  0  0  0  0  0  0  0  0  0
   -9.5934   19.1198  -31.5225 H   0  0  0  0  0  0  0  0  0  0  0  0
  -10.3997   19.6220  -33.0471 H   0  0  0  0  0  0  0  0  0  0  0  0
   -8.6489   19.2204  -33.0471 H   0  0  0  0  0  0  0  0  0  0  0  0
   -7.5640   22.7010  -31.3060 C   0  0  0  0  0  0  0  0  0  0  0  0
   -8.3617   23.2586  -30.7934 H   0  0  0  0  0  0  0  0  0  0  0  0
   -6.2340   23.1210  -31.2410 C   0  0  0  0  0  0  0  0  0  0  0  0
   -5.2280   22.4390  -31.8610 C   0  0  0  0  0  0  0  0  0  0  0  0
   -4.0400   23.0250  -31.6250 N   0  0  0  0  0  0  0  0  0  0  0  0
   -4.3780   24.0860  -30.8420 C   0  0  0  0  0  0  0  0  0  0  0  0
   -3.5160   24.9330  -30.3560 N   0  0  0  0  0  0  0  0  0  0  0  0
   -2.5540   24.6780  -29.3220 C   0  0  0  0  0  0  0  0  0  0  0  0
   -2.5880   23.5720  -28.7200 O   0  0  0  0  0  0  0  0  0  0  0  0
   -1.5670   25.6520  -28.9660 N   0  0  0  0  0  0  0  0  0  0  0  0
   -0.9470   25.7040  -27.6510 C   0  0  0  0  0  0  0  0  0  0  0  0
   -1.7249   25.6388  -26.8760 H   0  0  0  0  0  0  0  0  0  0  0  0
   -0.2486   24.8613  -27.5413 H   0  0  0  0  0  0  0  0  0  0  0  0
   -0.3987   26.6513  -27.5413 H   0  0  0  0  0  0  0  0  0  0  0  0
   -5.7110   24.1790  -30.6000 N   0  0  0  0  0  0  0  0  0  0  0  0
   -6.4090   25.1400  -29.7470 C   0  0  0  0  0  0  0  0  0  0  0  0
   -6.2285   24.8915  -28.6908 H   0  0  0  0  0  0  0  0  0  0  0  0
   -6.0351   26.1535  -29.9543 H   0  0  0  0  0  0  0  0  0  0  0  0
   -7.4885   25.0979  -29.9543 H   0  0  0  0  0  0  0  0  0  0  0  0
   -5.4710   21.2880  -32.6020 C   0  0  0  0  0  0  0  0  0  0  0  0
   -4.6509   20.7481  -33.0979 H   0  0  0  0  0  0  0  0  0  0  0  0
  1  2  1  0
  2  3  2  0
  3  4  1  0
  4  5  1  0
  5  6  1  0
  5  7  1  0
  5  8  1  0
  3  9  1  0
  9 10  1  0
  9 11  2  0
 11 12  1  0
 12 13  1  0
 13 14  1  0
 14 15  2  0
 15 16  1  0
 16 17  2  0
 16 18  1  0
 18 19  1  0
 19 20  1  0
 19 21  1  0
 19 22  1  0
 14 23  1  0
 23 24  1  0
 24 25  1  0
 24 26  1  0
 24 27  1  0
 12 28  2  0
 28 29  1  0
 28  2  1  0
 23 11  1  0
M  CHG  2  13  -1  18  -1
M  END
>  <UniqueID>  (31) 
29

>  <SMILES>  (31) 
C[N-]C(=O)/N=c1\[n-]c2ccc(OC)cc2n1C

>  <Energy>  (31) 
65.25946255875628

>  <Genealogy>  (31) 
C[N-]C(=O)N=c1[n-]c2ccc(OC)cc2n1C (protonated)
C[N-]C(=O)/N=c1\[n-]c2ccc(OC)cc2n1C (cis-trans isomerization)
C[N-]C(=O)/N=c1\[n-]c2ccc(OC)cc2n1C (3D coordinates assigned)
C[N-]C(=O)/N=c1\[n-]c2ccc(OC)cc2n1C (optimized conformer: 65.25946255875628 kcal/mol)

>  <smiles>  (31) 
CNC(=O)N=c1[nH]c2ccc(OC)cc2n1C

>  <score_type>  (31) 
oracle

>  <origin>  (31) 
adg

>  <m_score__min__energy>  (31) 
-7.9400000000000004

>  <m_primary>  (31) 
energy

$$$$
31:0
     RDKit          3D

 40 43  0  0  0  0  0  0  0  0999 V2000
   -5.7290   25.6040  -30.1180 C   0  0  0  0  0  0  0  0  0  0  0  0
   -4.7440   24.9890  -30.9200 O   0  0  0  0  0  0  0  0  0  0  0  0
   -4.7600   23.5810  -30.7460 C   0  0  2  0  0  0  0  0  0  0  0  0
   -3.3110   23.0210  -30.8130 C   0  0  0  0  0  0  0  0  0  0  0  0
   -3.2990   21.5120  -31.2110 C   0  0  2  0  0  0  0  0  0  0  0  0
   -2.3020   20.7120  -30.3720 C   0  0  0  0  0  0  0  0  0  0  0  0
   -2.9510   21.4020  -32.5740 O   0  0  0  0  0  0  0  0  0  0  0  0
   -4.1830   21.3600  -33.2380 C   0  0  1  0  0  0  0  0  0  0  0  0
   -4.3510   20.0860  -33.8460 O   0  0  0  0  0  0  0  0  0  0  0  0
   -5.5370   19.5160  -33.3190 C   0  0  0  0  0  0  0  0  0  0  0  0
   -6.3230   20.6460  -32.6980 C   0  0  1  0  0  0  0  0  0  0  0  0
   -7.3610   20.3290  -31.6160 C   0  0  0  0  0  0  0  0  0  0  0  0
   -7.6220   21.5560  -30.6950 C   0  0  0  0  0  0  0  0  0  0  0  0
   -7.1980   22.9360  -31.2900 C   0  0  2  0  0  0  0  0  0  0  0  0
   -8.2060   23.4310  -32.3410 C   0  0  0  0  0  0  0  0  0  0  0  0
   -5.7110   22.9490  -31.8210 C   0  0  2  0  0  0  0  0  0  0  0  0
   -5.2280   21.5090  -32.1690 C   0  0  2  0  0  0  0  0  0  0  0  0
   -4.5900   20.9730  -31.0480 O   0  0  0  0  0  0  0  0  0  0  0  0
   -5.4850   25.4516  -29.0563 H   0  0  0  0  0  0  0  0  0  0  0  0
   -5.7592   26.6817  -30.3363 H   0  0  0  0  0  0  0  0  0  0  0  0
   -6.7105   25.1580  -30.3363 H   0  0  0  0  0  0  0  0  0  0  0  0
   -5.1526   23.3138  -29.7538 H   0  0  0  0  0  0  0  0  0  0  0  0
   -2.7412   23.5924  -31.5605 H   0  0  0  0  0  0  0  0  0  0  0  0
   -2.8567   23.1186  -29.8159 H   0  0  0  0  0  0  0  0  0  0  0  0
   -2.5068   20.8763  -29.3038 H   0  0  0  0  0  0  0  0  0  0  0  0
   -2.4031   19.6416  -30.6043 H   0  0  0  0  0  0  0  0  0  0  0  0
   -1.2789   21.0426  -30.6043 H   0  0  0  0  0  0  0  0  0  0  0  0
   -4.2503   22.1409  -34.0098 H   0  0  0  0  0  0  0  0  0  0  0  0
   -6.1212   19.0451  -34.1234 H   0  0  0  0  0  0  0  0  0  0  0  0
   -5.3060   18.7393  -32.5751 H   0  0  0  0  0  0  0  0  0  0  0  0
   -6.9937   21.0832  -33.4524 H   0  0  0  0  0  0  0  0  0  0  0  0
   -8.3050   20.0395  -32.1009 H   0  0  0  0  0  0  0  0  0  0  0  0
   -6.9708   19.5094  -30.9947 H   0  0  0  0  0  0  0  0  0  0  0  0
   -8.6997   21.5956  -30.4781 H   0  0  0  0  0  0  0  0  0  0  0  0
   -6.9991   21.4047  -29.8011 H   0  0  0  0  0  0  0  0  0  0  0  0
   -7.2173   23.6565  -30.4591 H   0  0  0  0  0  0  0  0  0  0  0  0
   -9.0824   23.8614  -31.8343 H   0  0  0  0  0  0  0  0  0  0  0  0
   -7.7324   24.1990  -32.9702 H   0  0  0  0  0  0  0  0  0  0  0  0
   -8.5241   22.5866  -32.9702 H   0  0  0  0  0  0  0  0  0  0  0  0
   -5.6819   23.5566  -32.7375 H   0  0  0  0  0  0  0  0  0  0  0  0
  1  2  1  0
  2  3  1  0
  3  4  1  0
  4  5  1  0
  5  6  1  1
  5  7  1  0
  7  8  1  0
  8  9  1  0
  9 10  1  0
 10 11  1  0
 11 12  1  0
 12 13  1  0
 13 14  1  0
 14 15  1  0
 14 16  1  0
 16 17  1  0
 17 18  1  1
 16  3  1  0
 18  5  1  0
 17  8  1  0
 17 11  1  0
  1 19  1  0
  1 20  1  0
  1 21  1  0
  3 22  1  1
  4 23  1  0
  4 24  1  0
  6 25  1  0
  6 26  1  0
  6 27  1  0
  8 28  1  6
 10 29  1  0
 10 30  1  0
 11 31  1  6
 12 32  1  0
 12 33  1  0
 13 34  1  0
 13 35  1  0
 14 36  1  1
 15 37  1  0
 15 38  1  0
 15 39  1  0
 16 40  1  6
M  END
>  <UniqueID>  (32) 
30

>  <SMILES>  (32) 
CO[C@@H]1C[C@]2(C)OC3OCC4CCC(C)C1C43O2

>  <Energy>  (32) 
66.04853783727259

>  <Genealogy>  (32) 
CO[C@@H]1C[C@]2(C)OC3OCC4CCC(C)C1C43O2 (chirality)
CO[C@@H]1C[C@]2(C)OC3OCC4CCC(C)C1C43O2 (3D coordinates assigned)
CO[C@@H]1C[C@]2(C)OC3OCC4CCC(C)C1C43O2 (nonaromatic ring conformer: 66.04853783727259 kcal/mol)

>  <smiles>  (32) 
COC1CC2(C)OC3OCC4CCC(C)C1C43O2

>  <score_type>  (32) 
oracle

>  <origin>  (32) 
adg

>  <m_score__min__energy>  (32) 
-7.2800000000000002

>  <m_primary>  (32) 
energy

$$$$
32:0
     RDKit          3D

 44 45  0  0  0  0  0  0  0  0999 V2000
   -4.5180   21.6770  -32.9870 C   0  0  0  0  0  0  0  0  0  0  0  0
   -5.5950   20.6300  -32.8740 C   0  0  0  0  0  0  0  0  0  0  0  0
   -5.2510   19.2800  -33.0640 C   0  0  0  0  0  0  0  0  0  0  0  0
   -6.2170   18.2740  -32.9680 C   0  0  0  0  0  0  0  0  0  0  0  0
   -5.7500   16.5900  -33.1930 S   0  0  0  0  0  0  0  0  0  0  0  0
   -5.4300   15.9970  -31.8490 O   0  0  0  0  0  0  0  0  0  0  0  0
   -6.8930   15.8170  -33.7950 O   0  0  0  0  0  0  0  0  0  0  0  0
   -4.3520   16.4930  -34.2320 N   0  0  0  0  0  0  0  0  0  0  0  0
   -4.5140   17.4050  -35.3730 C   0  0  0  0  0  0  0  0  0  0  0  0
   -3.1370   16.8240  -33.4750 C   0  0  0  0  0  0  0  0  0  0  0  0
   -7.5490   18.6150  -32.7150 C   0  0  0  0  0  0  0  0  0  0  0  0
   -7.9060   19.9490  -32.5230 C   0  0  0  0  0  0  0  0  0  0  0  0
   -6.9390   20.9670  -32.5700 C   0  0  0  0  0  0  0  0  0  0  0  0
   -7.3770   22.3800  -32.2480 C   0  0  0  0  0  0  0  0  0  0  0  0
   -8.2620   22.4070  -31.0710 N   0  0  0  0  0  0  0  0  0  0  0  0
   -7.5330   22.6710  -29.8180 C   0  0  0  0  0  0  0  0  0  0  0  0
   -6.3160   23.5220  -30.0750 C   0  0  0  0  0  0  0  0  0  0  0  0
   -5.0300   22.9620  -30.0460 C   0  0  0  0  0  0  0  0  0  0  0  0
   -3.9160   23.7820  -30.2400 C   0  0  0  0  0  0  0  0  0  0  0  0
   -4.0800   25.1110  -30.4730 N   0  0  0  0  0  0  0  0  0  0  0  0
   -5.3150   25.6780  -30.5280 C   0  0  0  0  0  0  0  0  0  0  0  0
   -6.4550   24.8930  -30.3360 C   0  0  0  0  0  0  0  0  0  0  0  0
   -4.2001   21.9861  -31.9803 H   0  0  0  0  0  0  0  0  0  0  0  0
   -3.6577   21.2608  -33.5316 H   0  0  0  0  0  0  0  0  0  0  0  0
   -4.9098   22.5487  -33.5316 H   0  0  0  0  0  0  0  0  0  0  0  0
   -4.2086   19.0120  -33.2911 H   0  0  0  0  0  0  0  0  0  0  0  0
   -4.2730   15.5140  -34.5900 H   0  0  0  0  0  0  0  0  0  0  0  0
   -4.6952   18.4253  -35.0040 H   0  0  0  0  0  0  0  0  0  0  0  0
   -3.5997   17.3932  -35.9845 H   0  0  0  0  0  0  0  0  0  0  0  0
   -5.3683   17.0791  -35.9845 H   0  0  0  0  0  0  0  0  0  0  0  0
   -3.3493   16.7662  -32.3972 H   0  0  0  0  0  0  0  0  0  0  0  0
   -2.3399   16.1103  -33.7305 H   0  0  0  0  0  0  0  0  0  0  0  0
   -2.8121   17.8434  -33.7305 H   0  0  0  0  0  0  0  0  0  0  0  0
   -8.3171   17.8290  -32.6673 H   0  0  0  0  0  0  0  0  0  0  0  0
   -8.9580   20.2076  -32.3323 H   0  0  0  0  0  0  0  0  0  0  0  0
   -6.4875   22.9936  -32.0425 H   0  0  0  0  0  0  0  0  0  0  0  0
   -7.9314   22.7784  -33.1105 H   0  0  0  0  0  0  0  0  0  0  0  0
   -8.9380   23.1950  -31.2130 H   0  0  0  0  0  0  0  0  0  0  0  0
   -8.1988   23.1963  -29.1174 H   0  0  0  0  0  0  0  0  0  0  0  0
   -7.2076   21.7110  -29.3908 H   0  0  0  0  0  0  0  0  0  0  0  0
   -4.8998   21.8838  -29.8715 H   0  0  0  0  0  0  0  0  0  0  0  0
   -2.9044   23.3515  -30.2042 H   0  0  0  0  0  0  0  0  0  0  0  0
   -5.4166   26.7557  -30.7238 H   0  0  0  0  0  0  0  0  0  0  0  0
   -7.4553   25.3475  -30.3892 H   0  0  0  0  0  0  0  0  0  0  0  0
  1  2  1  0
  2  3  2  0
  3  4  1  0
  4  5  1  0
  5  6  2  0
  5  7  2  0
  5  8  1  0
  8  9  1  0
  8 10  1  0
  4 11  2  0
 11 12  1  0
 12 13  2  0
 13 14  1  0
 14 15  1  0
 15 16  1  0
 16 17  1  0
 17 18  2  0
 18 19  1  0
 19 20  2  0
 20 21  1  0
 21 22  2  0
 13  2  1  0
 22 17  1  0
  1 23  1  0
  1 24  1  0
  1 25  1  0
  3 26  1  0
  8 27  1  0
  9 28  1  0
  9 29  1  0
  9 30  1  0
 10 31  1  0
 10 32  1  0
 10 33  1  0
 11 34  1  0
 12 35  1  0
 14 36  1  0
 14 37  1  0
 15 38  1  0
 16 39  1  0
 16 40  1  0
 18 41  1  0
 19 42  1  0
 21 43  1  0
 22 44  1  0
M  CHG  1   8   1
M  END
>  <UniqueID>  (33) 
31

>  <SMILES>  (33) 
Cc1cc(S(=O)(=O)[NH+](C)C)ccc1CNCc1ccncc1

>  <Energy>  (33) 
39.79370072914901

>  <Genealogy>  (33) 
Cc1cc(S(=O)(=O)[NH+](C)C)ccc1CNCc1ccncc1 (protonated)
Cc1cc(S(=O)(=O)[NH+](C)C)ccc1CNCc1ccncc1 (3D coordinates assigned)
Cc1cc(S(=O)(=O)[NH+](C)C)ccc1CNCc1ccncc1 (optimized conformer: 39.79370072914901 kcal/mol)

>  <smiles>  (33) 
Cc1cc(S(=O)(=O)N(C)C)ccc1CNCc1ccncc1

>  <score_type>  (33) 
oracle

>  <origin>  (33) 
adg

>  <m_score__min__energy>  (33) 
-7.8200000000000003

>  <m_primary>  (33) 
energy

$$$$
33:0
     RDKit          3D

 50 53  0  0  0  0  0  0  0  0999 V2000
    0.6941   21.1940  -31.0498 H   0  0  0  0  0  0  0  0  0  0  0  0
   -0.2840   21.0840  -31.5410 C   0  0  0  0  0  0  0  0  0  0  0  0
   -0.3800   21.1580  -32.9310 C   0  0  0  0  0  0  0  0  0  0  0  0
    0.5217   21.3430  -33.5333 H   0  0  0  0  0  0  0  0  0  0  0  0
   -1.6170   20.9980  -33.5610 C   0  0  0  0  0  0  0  0  0  0  0  0
   -1.6864   21.0717  -34.6563 H   0  0  0  0  0  0  0  0  0  0  0  0
   -2.7750   20.7430  -32.8020 C   0  0  0  0  0  0  0  0  0  0  0  0
   -4.1220   20.5670  -33.4850 C   0  0  0  0  0  0  0  0  0  0  0  0
   -3.9443   20.4267  -34.5614 H   0  0  0  0  0  0  0  0  0  0  0  0
   -4.7061   21.4706  -33.2562 H   0  0  0  0  0  0  0  0  0  0  0  0
   -4.9250   19.4120  -32.9930 N   0  0  2  0  0  0  0  0  0  0  0  0
   -5.2280   19.7110  -32.0340 H   0  0  0  0  0  0  0  0  0  0  0  0
   -4.0880   18.2070  -32.7570 C   0  0  0  0  0  0  0  0  0  0  0  0
   -3.4386   18.3857  -31.8873 H   0  0  0  0  0  0  0  0  0  0  0  0
   -3.4856   18.0188  -33.6580 H   0  0  0  0  0  0  0  0  0  0  0  0
   -4.9550   16.9770  -32.4880 C   0  0  0  0  0  0  0  0  0  0  0  0
   -5.6456   17.1938  -31.6598 H   0  0  0  0  0  0  0  0  0  0  0  0
   -4.3038   16.1308  -32.2236 H   0  0  0  0  0  0  0  0  0  0  0  0
   -5.7650   16.6120  -33.7410 C   0  0  0  0  0  0  0  0  0  0  0  0
   -6.7093   16.1443  -33.4255 H   0  0  0  0  0  0  0  0  0  0  0  0
   -5.1523   15.9258  -34.3440 H   0  0  0  0  0  0  0  0  0  0  0  0
   -6.0910   17.8390  -34.6190 C   0  0  0  0  0  0  0  0  0  0  0  0
   -7.0628   17.6720  -35.1065 H   0  0  0  0  0  0  0  0  0  0  0  0
   -5.2755   17.9447  -35.3497 H   0  0  0  0  0  0  0  0  0  0  0  0
   -6.1640   19.1630  -33.8140 C   0  0  1  0  0  0  0  0  0  0  0  0
   -6.2202   19.9652  -34.5646 H   0  0  0  0  0  0  0  0  0  0  0  0
   -7.4190   19.2550  -32.9600 C   0  0  0  0  0  0  0  0  0  0  0  0
   -7.8800   18.1950  -32.4510 O   0  0  0  0  0  0  0  0  0  0  0  0
   -8.0550   20.5200  -32.7150 N   0  0  0  0  0  0  0  0  0  0  0  0
   -7.5460   21.5570  -32.1180 C   0  0  0  0  0  0  0  0  0  0  0  0
   -6.2100   21.6800  -31.9260 N   0  0  0  0  0  0  0  0  0  0  0  0
   -5.9120   22.8580  -31.3220 C   0  0  0  0  0  0  0  0  0  0  0  0
   -4.6190   23.2710  -30.9960 C   0  0  0  0  0  0  0  0  0  0  0  0
   -3.7563   22.6253  -31.2169 H   0  0  0  0  0  0  0  0  0  0  0  0
   -4.4320   24.5240  -30.3810 C   0  0  0  0  0  0  0  0  0  0  0  0
   -3.1240   24.9180  -30.0670 O   0  0  0  0  0  0  0  0  0  0  0  0
   -2.2230   24.1500  -29.2740 C   0  0  0  0  0  0  0  0  0  0  0  0
   -2.4304   24.3268  -28.2083 H   0  0  0  0  0  0  0  0  0  0  0  0
   -2.3542   23.0817  -29.5008 H   0  0  0  0  0  0  0  0  0  0  0  0
   -1.1889   24.4487  -29.5008 H   0  0  0  0  0  0  0  0  0  0  0  0
   -5.5590   25.3440  -30.1040 C   0  0  0  0  0  0  0  0  0  0  0  0
   -5.4158   26.3238  -29.6250 H   0  0  0  0  0  0  0  0  0  0  0  0
   -6.8520   24.9150  -30.4360 C   0  0  0  0  0  0  0  0  0  0  0  0
   -7.7279   25.5457  -30.2239 H   0  0  0  0  0  0  0  0  0  0  0  0
   -6.9980   23.6700  -31.0410 C   0  0  0  0  0  0  0  0  0  0  0  0
   -8.4040   22.9120  -31.5530 S   0  0  0  0  0  0  0  0  0  0  0  0
   -2.6740   20.7120  -31.3960 C   0  0  0  0  0  0  0  0  0  0  0  0
   -3.7760   20.5250  -30.6260 F   0  0  0  0  0  0  0  0  0  0  0  0
   -1.4320   20.8700  -30.7740 C   0  0  0  0  0  0  0  0  0  0  0  0
   -1.3584   20.8257  -29.6774 H   0  0  0  0  0  0  0  0  0  0  0  0
  1  2  1  0
  2  3  2  0
  3  4  1  0
  3  5  1  0
  5  6  1  0
  5  7  2  0
  7  8  1  0
  8  9  1  0
  8 10  1  0
  8 11  1  0
 11 12  1  1
 11 13  1  0
 13 14  1  0
 13 15  1  0
 13 16  1  0
 16 17  1  0
 16 18  1  0
 16 19  1  0
 19 20  1  0
 19 21  1  0
 19 22  1  0
 22 23  1  0
 22 24  1  0
 22 25  1  0
 25 26  1  6
 25 27  1  0
 27 28  2  0
 27 29  1  0
 29 30  2  0
 30 31  1  0
 31 32  1  0
 32 33  2  0
 33 34  1  0
 33 35  1  0
 35 36  1  0
 36 37  1  0
 37 38  1  0
 37 39  1  0
 37 40  1  0
 35 41  2  0
 41 42  1  0
 41 43  1  0
 43 44  1  0
 43 45  2  0
 45 46  1  0
  7 47  1  0
 47 48  1  0
 47 49  2  0
 49 50  1  0
 49  2  1  0
 25 11  1  0
 46 30  1  0
 45 32  1  0
M  CHG  2  11   1  31  -1
M  END
>  <UniqueID>  (34) 
32

>  <SMILES>  (34) 
COc1ccc2s/c(=N\C(=O)[C@@H]3CCCC[N@H+]3Cc3ccccc3F)[n-]c2c1

>  <Energy>  (34) 
106.90303344515223

>  <Genealogy>  (34) 
COc1ccc2sc(=NC(=O)C3CCCC[NH+]3Cc3ccccc3F)[n-]c2c1 (protonated)
COc1ccc2sc(=NC(=O)[C@@H]3CCCC[N@H+]3Cc3ccccc3F)[n-]c2c1 (chirality)
COc1ccc2s/c(=N\C(=O)[C@@H]3CCCC[N@H+]3Cc3ccccc3F)[n-]c2c1 (cis-trans isomerization)
COc1ccc2s/c(=N\C(=O)[C@@H]3CCCC[N@H+]3Cc3ccccc3F)[n-]c2c1 (3D coordinates assigned)
COc1ccc2s/c(=N\C(=O)[C@@H]3CCCC[N@H+]3Cc3ccccc3F)[n-]c2c1 (nonaromatic ring conformer: 106.90303344515223 kcal/mol)

>  <smiles>  (34) 
COc1ccc2sc(=NC(=O)C3CCCCN3Cc3ccccc3F)[nH]c2c1

>  <score_type>  (34) 
oracle

>  <origin>  (34) 
adg

>  <m_score__min__energy>  (34) 
-9.7799999999999994

>  <m_primary>  (34) 
energy

$$$$
34:0
     RDKit          3D

 42 44  0  0  0  0  0  0  0  0999 V2000
   -3.9600   24.1240  -27.9740 C   0  0  0  0  0  0  0  0  0  0  0  0
   -3.1840   24.2780  -29.2760 C   0  0  0  0  0  0  0  0  0  0  0  0
   -3.8080   25.3120  -30.1140 N   0  0  0  0  0  0  0  0  0  0  0  0
   -4.9040   24.7570  -30.9200 C   0  0  0  0  0  0  0  0  0  0  0  0
   -6.2580   25.1200  -30.3020 C   0  0  0  0  0  0  0  0  0  0  0  0
   -6.9800   23.9110  -29.9010 N   0  0  0  0  0  0  0  0  0  0  0  0
   -7.0450   22.6990  -30.6790 C   0  0  0  0  0  0  0  0  0  0  0  0
   -5.8750   21.9660  -31.0280 C   0  0  0  0  0  0  0  0  0  0  0  0
   -5.9620   20.7860  -31.7880 C   0  0  0  0  0  0  0  0  0  0  0  0
   -7.2310   20.3470  -32.1700 C   0  0  0  0  0  0  0  0  0  0  0  0
   -8.3560   21.0580  -31.8490 C   0  0  0  0  0  0  0  0  0  0  0  0
   -9.4100   20.3870  -32.4330 C   0  0  0  0  0  0  0  0  0  0  0  0
   -8.9030   19.3130  -33.0780 N   0  0  0  0  0  0  0  0  0  0  0  0
   -7.5830   19.2780  -32.9160 N   0  0  0  0  0  0  0  0  0  0  0  0
   -6.7310   18.2590  -33.4640 C   0  0  0  0  0  0  0  0  0  0  0  0
   -5.7700   18.5930  -34.4320 C   0  0  0  0  0  0  0  0  0  0  0  0
   -4.9510   17.6040  -34.9840 C   0  0  0  0  0  0  0  0  0  0  0  0
   -5.0900   16.2730  -34.5810 C   0  0  0  0  0  0  0  0  0  0  0  0
   -6.0550   15.9290  -33.6300 C   0  0  0  0  0  0  0  0  0  0  0  0
   -6.8770   16.9160  -33.0760 C   0  0  0  0  0  0  0  0  0  0  0  0
   -8.3080   22.2310  -31.1050 C   0  0  0  0  0  0  0  0  0  0  0  0
   -3.2774   24.2595  -27.1221 H   0  0  0  0  0  0  0  0  0  0  0  0
   -4.7563   24.8816  -27.9299 H   0  0  0  0  0  0  0  0  0  0  0  0
   -4.4066   23.1197  -27.9299 H   0  0  0  0  0  0  0  0  0  0  0  0
   -2.1475   24.5688  -29.0501 H   0  0  0  0  0  0  0  0  0  0  0  0
   -3.1933   23.3204  -29.8173 H   0  0  0  0  0  0  0  0  0  0  0  0
   -3.0750   25.6650  -30.7750 H   0  0  0  0  0  0  0  0  0  0  0  0
   -4.8487   25.1679  -31.9389 H   0  0  0  0  0  0  0  0  0  0  0  0
   -4.8068   23.6617  -30.9485 H   0  0  0  0  0  0  0  0  0  0  0  0
   -6.0940   25.7536  -29.4179 H   0  0  0  0  0  0  0  0  0  0  0  0
   -6.8569   25.6600  -31.0501 H   0  0  0  0  0  0  0  0  0  0  0  0
   -7.4640   23.9330  -28.9740 H   0  0  0  0  0  0  0  0  0  0  0  0
   -4.8898   22.3277  -30.6986 H   0  0  0  0  0  0  0  0  0  0  0  0
   -5.0587   20.2265  -32.0725 H   0  0  0  0  0  0  0  0  0  0  0  0
  -10.4707   20.6739  -32.3829 H   0  0  0  0  0  0  0  0  0  0  0  0
   -9.4580   18.6050  -33.6100 H   0  0  0  0  0  0  0  0  0  0  0  0
   -5.6613   19.6381  -34.7574 H   0  0  0  0  0  0  0  0  0  0  0  0
   -4.1958   17.8737  -35.7369 H   0  0  0  0  0  0  0  0  0  0  0  0
   -4.4405   15.4967  -35.0118 H   0  0  0  0  0  0  0  0  0  0  0  0
   -6.1682   14.8806  -33.3168 H   0  0  0  0  0  0  0  0  0  0  0  0
   -7.6406   16.6400  -32.3339 H   0  0  0  0  0  0  0  0  0  0  0  0
   -9.2280   22.7797  -30.8548 H   0  0  0  0  0  0  0  0  0  0  0  0
  1  2  1  0
  2  3  1  0
  3  4  1  0
  4  5  1  0
  5  6  1  0
  6  7  1  0
  7  8  2  0
  8  9  1  0
  9 10  2  0
 10 11  1  0
 11 12  1  0
 12 13  2  0
 13 14  1  0
 14 15  1  0
 15 16  2  0
 16 17  1  0
 17 18  2  0
 18 19  1  0
 19 20  2  0
 11 21  2  0
 21  7  1  0
 14 10  1  0
 20 15  1  0
  1 22  1  0
  1 23  1  0
  1 24  1  0
  2 25  1  0
  2 26  1  0
  3 27  1  0
  4 28  1  0
  4 29  1  0
  5 30  1  0
  5 31  1  0
  6 32  1  0
  8 33  1  0
  9 34  1  0
 12 35  1  0
 13 36  1  0
 16 37  1  0
 17 38  1  0
 18 39  1  0
 19 40  1  0
 20 41  1  0
 21 42  1  0
M  CHG  1  13   1
M  END
>  <UniqueID>  (35) 
33

>  <SMILES>  (35) 
CCNCCNc1ccc2c(c[nH+]n2-c2ccccc2)c1

>  <Energy>  (35) 
82.84680892993518

>  <Genealogy>  (35) 
CCNCCNc1ccc2c(c[nH+]n2-c2ccccc2)c1 (protonated)
CCNCCNc1ccc2c(c[nH+]n2-c2ccccc2)c1 (3D coordinates assigned)
CCNCCNc1ccc2c(c[nH+]n2-c2ccccc2)c1 (optimized conformer: 82.84680892993518 kcal/mol)

>  <smiles>  (35) 
CCNCCNc1ccc2c(cnn2-c2ccccc2)c1

>  <score_type>  (35) 
oracle

>  <origin>  (35) 
adg

>  <m_score__min__energy>  (35) 
-8.0500000000000007

>  <m_primary>  (35) 
energy

$$$$
35:0
     RDKit          3D

 36 38  0  0  0  0  0  0  0  0999 V2000
   -2.0180   25.3370  -27.8070 C   0  0  0  0  0  0  0  0  0  0  0  0
   -2.2880   25.2840  -29.2030 O   0  0  0  0  0  0  0  0  0  0  0  0
   -3.2020   24.4040  -29.8030 C   0  0  0  0  0  0  0  0  0  0  0  0
   -4.3760   24.8590  -30.4330 C   0  0  0  0  0  0  0  0  0  0  0  0
   -5.2600   23.9510  -31.0210 C   0  0  0  0  0  0  0  0  0  0  0  0
   -4.9850   22.5750  -30.9990 C   0  0  0  0  0  0  0  0  0  0  0  0
   -5.8940   21.6360  -31.6030 N   0  0  0  0  0  0  0  0  0  0  0  0
   -7.2120   21.5490  -31.3530 C   0  0  0  0  0  0  0  0  0  0  0  0
   -7.7400   20.5880  -32.1860 C   0  0  0  0  0  0  0  0  0  0  0  0
   -9.1630   20.1270  -32.2020 C   0  0  0  0  0  0  0  0  0  0  0  0
   -9.4900   19.6920  -33.4730 F   0  0  0  0  0  0  0  0  0  0  0  0
  -10.0020   21.1680  -31.8490 F   0  0  0  0  0  0  0  0  0  0  0  0
   -9.3310   19.0880  -31.3060 F   0  0  0  0  0  0  0  0  0  0  0  0
   -6.7620   20.0450  -32.9390 N   0  0  0  0  0  0  0  0  0  0  0  0
   -5.6480   20.7140  -32.5670 C   0  0  0  0  0  0  0  0  0  0  0  0
   -4.3080   20.3700  -33.0910 C   0  0  0  0  0  0  0  0  0  0  0  0
   -3.3810   21.3950  -33.3480 C   0  0  0  0  0  0  0  0  0  0  0  0
   -2.1060   21.0930  -33.8300 C   0  0  0  0  0  0  0  0  0  0  0  0
   -1.7390   19.7650  -34.0530 C   0  0  0  0  0  0  0  0  0  0  0  0
   -2.6460   18.7360  -33.7940 C   0  0  0  0  0  0  0  0  0  0  0  0
   -3.9270   19.0270  -33.3110 C   0  0  0  0  0  0  0  0  0  0  0  0
   -5.0440   17.6920  -33.0460 Cl  0  0  0  0  0  0  0  0  0  0  0  0
   -3.8230   22.1200  -30.3590 C   0  0  0  0  0  0  0  0  0  0  0  0
   -2.9360   23.0250  -29.7700 C   0  0  0  0  0  0  0  0  0  0  0  0
   -1.3540   22.3600  -28.9210 Br  0  0  0  0  0  0  0  0  0  0  0  0
   -2.9469   25.1547  -27.2467 H   0  0  0  0  0  0  0  0  0  0  0  0
   -1.2762   24.5673  -27.5475 H   0  0  0  0  0  0  0  0  0  0  0  0
   -1.6222   26.3300  -27.5475 H   0  0  0  0  0  0  0  0  0  0  0  0
   -4.5985   25.9359  -30.4624 H   0  0  0  0  0  0  0  0  0  0  0  0
   -6.1778   24.3170  -31.5045 H   0  0  0  0  0  0  0  0  0  0  0  0
   -7.7704   22.1413  -30.6132 H   0  0  0  0  0  0  0  0  0  0  0  0
   -3.6623   22.4431  -33.1680 H   0  0  0  0  0  0  0  0  0  0  0  0
   -1.3899   21.9026  -34.0342 H   0  0  0  0  0  0  0  0  0  0  0  0
   -0.7341   19.5290  -34.4332 H   0  0  0  0  0  0  0  0  0  0  0  0
   -2.3523   17.6907  -33.9705 H   0  0  0  0  0  0  0  0  0  0  0  0
   -3.6081   21.0419  -30.3204 H   0  0  0  0  0  0  0  0  0  0  0  0
  1  2  1  0
  2  3  1  0
  3  4  2  0
  4  5  1  0
  5  6  2  0
  6  7  1  0
  7  8  1  0
  8  9  2  0
  9 10  1  0
 10 11  1  0
 10 12  1  0
 10 13  1  0
  9 14  1  0
 14 15  2  0
 15 16  1  0
 16 17  2  0
 17 18  1  0
 18 19  2  0
 19 20  1  0
 20 21  2  0
 21 22  1  0
  6 23  1  0
 23 24  2  0
 24 25  1  0
 24  3  1  0
 15  7  1  0
 21 16  1  0
  1 26  1  0
  1 27  1  0
  1 28  1  0
  4 29  1  0
  5 30  1  0
  8 31  1  0
 17 32  1  0
 18 33  1  0
 19 34  1  0
 20 35  1  0
 23 36  1  0
M  END
>  <UniqueID>  (36) 
34

>  <SMILES>  (36) 
COc1ccc(-n2cc(C(F)(F)F)nc2-c2ccccc2Cl)cc1Br

>  <Energy>  (36) 
77.01968890877282

>  <Genealogy>  (36) 
COc1ccc(-n2cc(C(F)(F)F)nc2-c2ccccc2Cl)cc1Br (3D coordinates assigned)
COc1ccc(-n2cc(C(F)(F)F)nc2-c2ccccc2Cl)cc1Br (optimized conformer: 77.01968890877282 kcal/mol)

>  <smiles>  (36) 
COc1ccc(-n2cc(C(F)(F)F)nc2-c2ccccc2Cl)cc1Br

>  <score_type>  (36) 
oracle

>  <origin>  (36) 
adg

>  <m_score__min__energy>  (36) 
-7.79

>  <m_primary>  (36) 
energy

$$$$
36:0
     RDKit          3D

 59 59  0  0  0  0  0  0  0  0999 V2000
   -5.8280   19.2850  -34.1980 C   0  0  0  0  0  0  0  0  0  0  0  0
   -5.3230   17.9770  -33.5850 C   0  0  0  0  0  0  0  0  0  0  0  0
   -6.1480   17.5320  -32.3680 C   0  0  0  0  0  0  0  0  0  0  0  0
   -7.6510   17.8060  -32.5490 C   0  0  0  0  0  0  0  0  0  0  0  0
   -8.2270   18.7330  -31.4680 C   0  0  0  0  0  0  0  0  0  0  0  0
   -9.0820   19.8730  -32.0510 C   0  0  0  0  0  0  0  0  0  0  0  0
   -8.2330   21.1160  -32.3800 C   0  0  0  0  0  0  0  0  0  0  0  0
   -7.1490   21.4000  -31.3250 C   0  0  0  0  0  0  0  0  0  0  0  0
   -7.3000   22.8050  -30.7160 C   0  0  0  0  0  0  0  0  0  0  0  0
   -6.6470   23.8970  -31.5790 C   0  0  0  0  0  0  0  0  0  0  0  0
   -5.9520   24.9990  -30.7510 C   0  0  0  0  0  0  0  0  0  0  0  0
   -4.6830   24.5020  -30.0240 C   0  0  1  0  0  0  0  0  0  0  0  0
   -3.5630   25.2490  -30.4250 O   0  0  0  0  0  0  0  0  0  0  0  0
   -4.8280   24.5330  -28.4830 C   0  0  0  0  0  0  0  0  0  0  0  0
   -3.7720   23.7400  -27.6830 C   0  0  0  0  0  0  0  0  0  0  0  0
   -3.0080   24.5910  -26.6550 C   0  0  0  0  0  0  0  0  0  0  0  0
   -1.5450   24.6440  -26.9800 C   0  0  0  0  0  0  0  0  0  0  0  0
   -0.5250   24.0020  -26.3050 C   0  0  0  0  0  0  0  0  0  0  0  0
    0.6340   24.3470  -26.9780 C   0  0  0  0  0  0  0  0  0  0  0  0
    2.0080   23.8780  -26.6370 C   0  0  0  0  0  0  0  0  0  0  0  0
    0.3590   25.1360  -27.9940 O   0  0  0  0  0  0  0  0  0  0  0  0
   -0.9390   25.3290  -28.0150 C   0  0  0  0  0  0  0  0  0  0  0  0
   -1.5970   26.1070  -28.9650 O   0  0  0  0  0  0  0  0  0  0  0  0
   -6.0986   19.9860  -33.3946 H   0  0  0  0  0  0  0  0  0  0  0  0
   -5.0363   19.7281  -34.8200 H   0  0  0  0  0  0  0  0  0  0  0  0
   -6.7121   19.0811  -34.8200 H   0  0  0  0  0  0  0  0  0  0  0  0
   -5.3721   17.1883  -34.3502 H   0  0  0  0  0  0  0  0  0  0  0  0
   -4.2923   18.1487  -33.2413 H   0  0  0  0  0  0  0  0  0  0  0  0
   -6.0010   16.4524  -32.2168 H   0  0  0  0  0  0  0  0  0  0  0  0
   -5.8031   18.1104  -31.4982 H   0  0  0  0  0  0  0  0  0  0  0  0
   -7.8058   18.2752  -33.5318 H   0  0  0  0  0  0  0  0  0  0  0  0
   -8.1733   16.8413  -32.4674 H   0  0  0  0  0  0  0  0  0  0  0  0
   -8.8541   18.1350  -30.7903 H   0  0  0  0  0  0  0  0  0  0  0  0
   -7.3783   19.1929  -30.9406 H   0  0  0  0  0  0  0  0  0  0  0  0
   -9.5664   19.5188  -32.9729 H   0  0  0  0  0  0  0  0  0  0  0  0
   -9.8290   20.1598  -31.2962 H   0  0  0  0  0  0  0  0  0  0  0  0
   -7.7432   20.9587  -33.3523 H   0  0  0  0  0  0  0  0  0  0  0  0
   -8.9106   21.9823  -32.3971 H   0  0  0  0  0  0  0  0  0  0  0  0
   -7.2294   20.6530  -30.5216 H   0  0  0  0  0  0  0  0  0  0  0  0
   -6.1677   21.3446  -31.8189 H   0  0  0  0  0  0  0  0  0  0  0  0
   -8.3716   23.0311  -30.6132 H   0  0  0  0  0  0  0  0  0  0  0  0
   -6.7906   22.8019  -29.7411 H   0  0  0  0  0  0  0  0  0  0  0  0
   -5.8967   23.4246  -32.2301 H   0  0  0  0  0  0  0  0  0  0  0  0
   -7.4507   24.3807  -32.1535 H   0  0  0  0  0  0  0  0  0  0  0  0
   -5.6693   25.8192  -31.4273 H   0  0  0  0  0  0  0  0  0  0  0  0
   -6.6641   25.3277  -29.9797 H   0  0  0  0  0  0  0  0  0  0  0  0
   -4.5410   23.4500  -30.3122 H   0  0  0  0  0  0  0  0  0  0  0  0
   -3.4910   26.0210  -29.8040 H   0  0  0  0  0  0  0  0  0  0  0  0
   -4.7731   25.5836  -28.1618 H   0  0  0  0  0  0  0  0  0  0  0  0
   -5.7892   24.0434  -28.2678 H   0  0  0  0  0  0  0  0  0  0  0  0
   -4.2814   22.9244  -27.1488 H   0  0  0  0  0  0  0  0  0  0  0  0
   -3.0317   23.3693  -28.4072 H   0  0  0  0  0  0  0  0  0  0  0  0
   -3.4148   25.6130  -26.6610 H   0  0  0  0  0  0  0  0  0  0  0  0
   -3.1294   24.1329  -25.6623 H   0  0  0  0  0  0  0  0  0  0  0  0
   -0.6149   23.3542  -25.4205 H   0  0  0  0  0  0  0  0  0  0  0  0
    2.1214   23.8393  -25.5435 H   0  0  0  0  0  0  0  0  0  0  0  0
    2.1679   22.8744  -27.0580 H   0  0  0  0  0  0  0  0  0  0  0  0
    2.7482   24.5744  -27.0580 H   0  0  0  0  0  0  0  0  0  0  0  0
   -1.9980   25.6780  -29.7920 H   0  0  0  0  0  0  0  0  0  0  0  0
  1  2  1  0
  2  3  1  0
  3  4  1  0
  4  5  1  0
  5  6  1  0
  6  7  1  0
  7  8  1  0
  8  9  1  0
  9 10  1  0
 10 11  1  0
 11 12  1  0
 12 13  1  0
 12 14  1  0
 14 15  1  0
 15 16  1  0
 16 17  1  0
 17 18  1  0
 18 19  2  0
 19 20  1  0
 19 21  1  0
 21 22  1  0
 22 23  1  0
 22 17  2  0
  1 24  1  0
  1 25  1  0
  1 26  1  0
  2 27  1  0
  2 28  1  0
  3 29  1  0
  3 30  1  0
  4 31  1  0
  4 32  1  0
  5 33  1  0
  5 34  1  0
  6 35  1  0
  6 36  1  0
  7 37  1  0
  7 38  1  0
  8 39  1  0
  8 40  1  0
  9 41  1  0
  9 42  1  0
 10 43  1  0
 10 44  1  0
 11 45  1  0
 11 46  1  0
 12 47  1  6
 13 48  1  0
 14 49  1  0
 14 50  1  0
 15 51  1  0
 15 52  1  0
 16 53  1  0
 16 54  1  0
 18 55  1  0
 20 56  1  0
 20 57  1  0
 20 58  1  0
 23 59  1  0
M  END
>  <UniqueID>  (37) 
35

>  <SMILES>  (37) 
CCCCCCCCCCC[C@@H](O)CCCc1cc(C)oc1O

>  <Energy>  (37) 
58.016380121248545

>  <Genealogy>  (37) 
CCCCCCCCCCC[C@@H](O)CCCc1cc(C)oc1O (chirality)
CCCCCCCCCCC[C@@H](O)CCCc1cc(C)oc1O (3D coordinates assigned)
CCCCCCCCCCC[C@@H](O)CCCc1cc(C)oc1O (optimized conformer: 58.016380121248545 kcal/mol)

>  <smiles>  (37) 
CCCCCCCCCCCC(O)CCCc1cc(C)oc1O

>  <score_type>  (37) 
oracle

>  <origin>  (37) 
adg

>  <m_score__min__energy>  (37) 
-9.6199999999999992

>  <m_primary>  (37) 
energy

$$$$
37:0
     RDKit          3D

 25 26  0  0  0  0  0  0  0  0999 V2000
   -2.6260   24.5380  -29.3720 C   0  0  0  0  0  0  0  0  0  0  0  0
   -3.4880   24.9380  -30.4340 O   0  0  0  0  0  0  0  0  0  0  0  0
   -4.7600   24.3950  -30.6670 C   0  0  0  0  0  0  0  0  0  0  0  0
   -5.9480   25.0160  -30.2000 C   0  0  0  0  0  0  0  0  0  0  0  0
   -7.2020   24.4370  -30.4560 C   0  0  0  0  0  0  0  0  0  0  0  0
   -7.2570   23.2440  -31.1750 C   0  0  0  0  0  0  0  0  0  0  0  0
   -6.1090   22.6430  -31.6260 C   0  0  0  0  0  0  0  0  0  0  0  0
   -4.8490   23.1930  -31.3890 C   0  0  0  0  0  0  0  0  0  0  0  0
   -6.4570   21.4380  -32.3350 C   0  0  0  0  0  0  0  0  0  0  0  0
   -5.6300   20.6700  -32.8960 O   0  0  0  0  0  0  0  0  0  0  0  0
   -7.9430   21.2410  -32.3340 C   0  0  1  0  0  0  0  0  0  0  0  0
   -8.3240   19.9200  -31.6610 C   0  0  0  0  0  0  0  0  0  0  0  0
   -8.4830   22.4740  -31.5540 C   0  0  0  0  0  0  0  0  0  0  0  0
   -3.1053   24.7604  -28.4072 H   0  0  0  0  0  0  0  0  0  0  0  0
   -2.4317   23.4577  -29.4445 H   0  0  0  0  0  0  0  0  0  0  0  0
   -1.6756   25.0871  -29.4445 H   0  0  0  0  0  0  0  0  0  0  0  0
   -5.8862   25.9571  -29.6338 H   0  0  0  0  0  0  0  0  0  0  0  0
   -8.1241   24.9164  -30.0955 H   0  0  0  0  0  0  0  0  0  0  0  0
   -3.9416   22.6946  -31.7607 H   0  0  0  0  0  0  0  0  0  0  0  0
   -8.3685   21.1753  -33.3462 H   0  0  0  0  0  0  0  0  0  0  0  0
   -8.2889   20.0417  -30.5683 H   0  0  0  0  0  0  0  0  0  0  0  0
   -9.3414   19.6334  -31.9655 H   0  0  0  0  0  0  0  0  0  0  0  0
   -7.6155   19.1356  -31.9655 H   0  0  0  0  0  0  0  0  0  0  0  0
   -9.1411   23.0808  -32.1933 H   0  0  0  0  0  0  0  0  0  0  0  0
   -9.0828   22.1851  -30.6784 H   0  0  0  0  0  0  0  0  0  0  0  0
  1  2  1  0
  2  3  1  0
  3  4  2  0
  4  5  1  0
  5  6  2  0
  6  7  1  0
  7  8  2  0
  7  9  1  0
  9 10  2  0
  9 11  1  0
 11 12  1  0
 11 13  1  0
  8  3  1  0
 13  6  1  0
  1 14  1  0
  1 15  1  0
  1 16  1  0
  4 17  1  0
  5 18  1  0
  8 19  1  0
 11 20  1  6
 12 21  1  0
 12 22  1  0
 12 23  1  0
 13 24  1  0
 13 25  1  0
M  END
>  <UniqueID>  (38) 
36

>  <SMILES>  (38) 
COc1ccc2c(c1)C(=O)[C@@H](C)C2

>  <Energy>  (38) 
35.79924751932931

>  <Genealogy>  (38) 
COc1ccc2c(c1)C(=O)[C@@H](C)C2 (chirality)
COc1ccc2c(c1)C(=O)[C@@H](C)C2 (3D coordinates assigned)
COc1ccc2c(c1)C(=O)[C@@H](C)C2 (nonaromatic ring conformer: 35.79924751932931 kcal/mol)

>  <smiles>  (38) 
COc1ccc2c(c1)C(=O)C(C)C2

>  <score_type>  (38) 
oracle

>  <origin>  (38) 
adg

>  <m_score__min__energy>  (38) 
-6.4400000000000004

>  <m_primary>  (38) 
energy

$$$$
38:0
     RDKit          3D

 35 36  0  0  0  0  0  0  0  0999 V2000
   -1.9580   18.5550  -26.5820 C   0  0  0  0  0  0  0  0  0  0  0  0
   -1.1550   19.4780  -27.4900 C   0  0  0  0  0  0  0  0  0  0  0  0
   -1.9990   20.5670  -27.9770 N   0  0  0  0  0  0  0  0  0  0  0  0
   -2.6770   20.6000  -29.1440 C   0  0  0  0  0  0  0  0  0  0  0  0
   -3.2440   21.8520  -29.2840 C   0  0  0  0  0  0  0  0  0  0  0  0
   -2.8960   22.6060  -28.2200 N   0  0  0  0  0  0  0  0  0  0  0  0
   -3.2540   24.0070  -27.9870 C   0  0  0  0  0  0  0  0  0  0  0  0
   -2.7830   24.8980  -29.1110 C   0  0  0  0  0  0  0  0  0  0  0  0
   -1.7090   25.5390  -28.9660 O   0  0  0  0  0  0  0  0  0  0  0  0
   -3.4940   25.0170  -30.3530 N   0  0  0  0  0  0  0  0  0  0  0  0
   -4.7600   24.4200  -30.6540 C   0  0  0  0  0  0  0  0  0  0  0  0
   -4.8120   23.3510  -31.5560 C   0  0  0  0  0  0  0  0  0  0  0  0
   -6.0320   22.7300  -31.8420 C   0  0  0  0  0  0  0  0  0  0  0  0
   -7.2140   23.1820  -31.2360 C   0  0  0  0  0  0  0  0  0  0  0  0
   -8.5260   22.5370  -31.5670 C   0  0  0  0  0  0  0  0  0  0  0  0
   -7.1680   24.2900  -30.3750 C   0  0  0  0  0  0  0  0  0  0  0  0
   -5.9470   24.9060  -30.0860 C   0  0  0  0  0  0  0  0  0  0  0  0
   -2.1490   21.7950  -27.4420 C   0  0  0  0  0  0  0  0  0  0  0  0
   -1.6330   22.1510  -26.3490 O   0  0  0  0  0  0  0  0  0  0  0  0
   -1.7456   18.7992  -25.5307 H   0  0  0  0  0  0  0  0  0  0  0  0
   -3.0317   18.6892  -26.7799 H   0  0  0  0  0  0  0  0  0  0  0  0
   -1.6765   17.5102  -26.7799 H   0  0  0  0  0  0  0  0  0  0  0  0
   -0.3099   19.8982  -26.9250 H   0  0  0  0  0  0  0  0  0  0  0  0
   -0.7827   18.9009  -28.3493 H   0  0  0  0  0  0  0  0  0  0  0  0
   -2.7633   19.7708  -29.8616 H   0  0  0  0  0  0  0  0  0  0  0  0
   -3.8746   22.1800  -30.1235 H   0  0  0  0  0  0  0  0  0  0  0  0
   -4.3480   24.0863  -27.9038 H   0  0  0  0  0  0  0  0  0  0  0  0
   -2.7632   24.3367  -27.0594 H   0  0  0  0  0  0  0  0  0  0  0  0
   -3.8902   22.9981  -32.0416 H   0  0  0  0  0  0  0  0  0  0  0  0
   -6.0650   21.8842  -32.5445 H   0  0  0  0  0  0  0  0  0  0  0  0
   -9.0524   22.2782  -30.6365 H   0  0  0  0  0  0  0  0  0  0  0  0
   -9.1404   23.2358  -32.1537 H   0  0  0  0  0  0  0  0  0  0  0  0
   -8.3479   21.6237  -32.1537 H   0  0  0  0  0  0  0  0  0  0  0  0
   -8.0958   24.6746  -29.9264 H   0  0  0  0  0  0  0  0  0  0  0  0
   -5.9168   25.7743  -29.4113 H   0  0  0  0  0  0  0  0  0  0  0  0
  1  2  1  0
  2  3  1  0
  3  4  1  0
  4  5  2  0
  5  6  1  0
  6  7  1  0
  7  8  1  0
  8  9  2  0
  8 10  1  0
 10 11  1  0
 11 12  2  0
 12 13  1  0
 13 14  2  0
 14 15  1  0
 14 16  1  0
 16 17  2  0
  6 18  1  0
 18 19  2  0
 18  3  1  0
 17 11  1  0
  1 20  1  0
  1 21  1  0
  1 22  1  0
  2 23  1  0
  2 24  1  0
  4 25  1  0
  5 26  1  0
  7 27  1  0
  7 28  1  0
 12 29  1  0
 13 30  1  0
 15 31  1  0
 15 32  1  0
 15 33  1  0
 16 34  1  0
 17 35  1  0
M  CHG  1  10  -1
M  END
>  <UniqueID>  (39) 
37

>  <SMILES>  (39) 
CCn1ccn(CC(=O)[N-]c2ccc(C)cc2)c1=O

>  <Energy>  (39) 
64.94796255240853

>  <Genealogy>  (39) 
CCn1ccn(CC(=O)[N-]c2ccc(C)cc2)c1=O (protonated)
CCn1ccn(CC(=O)[N-]c2ccc(C)cc2)c1=O (3D coordinates assigned)
CCn1ccn(CC(=O)[N-]c2ccc(C)cc2)c1=O (optimized conformer: 64.94796255240853 kcal/mol)

>  <smiles>  (39) 
CCn1ccn(CC(=O)Nc2ccc(C)cc2)c1=O

>  <score_type>  (39) 
oracle

>  <origin>  (39) 
adg

>  <m_score__min__energy>  (39) 
-8.2400000000000002

>  <m_primary>  (39) 
energy

$$$$
39:0
     RDKit          3D

 44 46  0  0  0  0  0  0  0  0999 V2000
   -3.2650   24.7670  -26.8470 C   0  0  0  0  0  0  0  0  0  0  0  0
   -2.0660   24.9510  -27.7730 C   0  0  0  0  0  0  0  0  0  0  0  0
   -2.4860   25.0050  -29.1750 N   0  0  0  0  0  0  0  0  0  0  0  0
   -3.5390   24.1840  -29.7140 C   0  0  0  0  0  0  0  0  0  0  0  0
   -3.5840   22.7940  -29.4930 C   0  0  0  0  0  0  0  0  0  0  0  0
   -4.6180   22.0250  -30.0330 C   0  0  0  0  0  0  0  0  0  0  0  0
   -5.6190   22.6260  -30.8110 C   0  0  0  0  0  0  0  0  0  0  0  0
   -6.7070   21.8120  -31.4010 C   0  0  0  0  0  0  0  0  0  0  0  0
   -8.0370   22.0950  -31.0460 C   0  0  0  0  0  0  0  0  0  0  0  0
   -9.0890   21.3490  -31.5820 C   0  0  0  0  0  0  0  0  0  0  0  0
  -10.3670   21.6300  -31.2250 F   0  0  0  0  0  0  0  0  0  0  0  0
   -8.8270   20.3220  -32.4890 C   0  0  0  0  0  0  0  0  0  0  0  0
   -9.8500   19.6080  -33.0220 F   0  0  0  0  0  0  0  0  0  0  0  0
   -7.5120   20.0360  -32.8630 C   0  0  0  0  0  0  0  0  0  0  0  0
   -6.4420   20.7650  -32.3190 C   0  0  0  0  0  0  0  0  0  0  0  0
   -5.0660   20.4730  -32.7810 C   0  0  0  0  0  0  0  0  0  0  0  0
   -4.2270   21.5440  -33.1280 C   0  0  0  0  0  0  0  0  0  0  0  0
   -2.9010   21.3110  -33.5020 C   0  0  0  0  0  0  0  0  0  0  0  0
   -2.4000   20.0080  -33.5220 C   0  0  0  0  0  0  0  0  0  0  0  0
   -3.2230   18.9350  -33.1740 C   0  0  0  0  0  0  0  0  0  0  0  0
   -4.5600   19.1550  -32.8160 C   0  0  0  0  0  0  0  0  0  0  0  0
   -5.5670   17.7440  -32.3230 S   0  0  0  0  0  0  0  0  0  0  0  0
   -6.0020   17.2780  -34.0290 C   0  0  0  0  0  0  0  0  0  0  0  0
   -5.5840   24.0120  -31.0220 C   0  0  0  0  0  0  0  0  0  0  0  0
   -4.5520   24.7830  -30.4800 C   0  0  0  0  0  0  0  0  0  0  0  0
   -2.9311   24.8182  -25.8002 H   0  0  0  0  0  0  0  0  0  0  0  0
   -4.0003   25.5628  -27.0367 H   0  0  0  0  0  0  0  0  0  0  0  0
   -3.7278   23.7873  -27.0367 H   0  0  0  0  0  0  0  0  0  0  0  0
   -1.5536   25.8896  -27.5151 H   0  0  0  0  0  0  0  0  0  0  0  0
   -1.3898   24.0931  -27.6437 H   0  0  0  0  0  0  0  0  0  0  0  0
   -1.9980   25.6680  -29.8210 H   0  0  0  0  0  0  0  0  0  0  0  0
   -2.8001   22.3106  -28.8914 H   0  0  0  0  0  0  0  0  0  0  0  0
   -4.6475   20.9412  -29.8470 H   0  0  0  0  0  0  0  0  0  0  0  0
   -8.2512   22.9109  -30.3400 H   0  0  0  0  0  0  0  0  0  0  0  0
   -7.3130   19.2339  -33.5890 H   0  0  0  0  0  0  0  0  0  0  0  0
   -4.6159   22.5727  -33.1053 H   0  0  0  0  0  0  0  0  0  0  0  0
   -2.2519   22.1542  -33.7807 H   0  0  0  0  0  0  0  0  0  0  0  0
   -1.3547   19.8263  -33.8125 H   0  0  0  0  0  0  0  0  0  0  0  0
   -2.8198   17.9116  -33.1809 H   0  0  0  0  0  0  0  0  0  0  0  0
   -6.7525   16.4740  -34.0095 H   0  0  0  0  0  0  0  0  0  0  0  0
   -6.4147   18.1521  -34.5540 H   0  0  0  0  0  0  0  0  0  0  0  0
   -5.1016   16.9264  -34.5540 H   0  0  0  0  0  0  0  0  0  0  0  0
   -6.3730   24.4949  -31.6173 H   0  0  0  0  0  0  0  0  0  0  0  0
   -4.5331   25.8688  -30.6550 H   0  0  0  0  0  0  0  0  0  0  0  0
  1  2  1  0
  2  3  1  0
  3  4  1  0
  4  5  2  0
  5  6  1  0
  6  7  2  0
  7  8  1  0
  8  9  2  0
  9 10  1  0
 10 11  1  0
 10 12  2  0
 12 13  1  0
 12 14  1  0
 14 15  2  0
 15 16  1  0
 16 17  2  0
 17 18  1  0
 18 19  2  0
 19 20  1  0
 20 21  2  0
 21 22  1  0
 22 23  1  0
  7 24  1  0
 24 25  2  0
 25  4  1  0
 15  8  1  0
 21 16  1  0
  1 26  1  0
  1 27  1  0
  1 28  1  0
  2 29  1  0
  2 30  1  0
  3 31  1  0
  5 32  1  0
  6 33  1  0
  9 34  1  0
 14 35  1  0
 17 36  1  0
 18 37  1  0
 19 38  1  0
 20 39  1  0
 23 40  1  0
 23 41  1  0
 23 42  1  0
 24 43  1  0
 25 44  1  0
M  END
>  <UniqueID>  (40) 
38

>  <SMILES>  (40) 
CCNc1ccc(-c2cc(F)c(F)cc2-c2ccccc2SC)cc1

>  <Energy>  (40) 
53.34821812732662

>  <Genealogy>  (40) 
CCNc1ccc(-c2cc(F)c(F)cc2-c2ccccc2SC)cc1 (3D coordinates assigned)
CCNc1ccc(-c2cc(F)c(F)cc2-c2ccccc2SC)cc1 (optimized conformer: 53.34821812732662 kcal/mol)

>  <smiles>  (40) 
CCNc1ccc(-c2cc(F)c(F)cc2-c2ccccc2SC)cc1

>  <score_type>  (40) 
oracle

>  <origin>  (40) 
adg

>  <m_score__min__energy>  (40) 
-9

>  <m_primary>  (40) 
energy

$$$$
40:0
     RDKit          3D

 67 69  0  0  0  0  0  0  0  0999 V2000
    0.2530   17.8640  -28.9910 C   0  0  0  0  0  0  0  0  0  0  0  0
    0.5330   18.6940  -27.8670 O   0  0  0  0  0  0  0  0  0  0  0  0
   -0.0560   19.9460  -27.6370 C   0  0  0  0  0  0  0  0  0  0  0  0
    0.6440   21.1490  -27.8430 C   0  0  0  0  0  0  0  0  0  0  0  0
    0.0240   22.3770  -27.6080 C   0  0  0  0  0  0  0  0  0  0  0  0
   -1.3060   22.4270  -27.1690 C   0  0  0  0  0  0  0  0  0  0  0  0
   -1.9660   23.7520  -26.8850 C   0  0  0  0  0  0  0  0  0  0  0  0
   -2.0740   24.6310  -28.1460 C   0  0  0  0  0  0  0  0  0  0  0  0
   -3.4020   24.5540  -28.7850 N   0  0  0  0  0  0  0  0  0  0  0  0
   -3.9940   23.2150  -28.6540 C   0  0  0  0  0  0  0  0  0  0  0  0
   -4.2860   22.6350  -30.0140 C   0  0  0  0  0  0  0  0  0  0  0  0
   -3.3780   22.0380  -30.8790 C   0  0  0  0  0  0  0  0  0  0  0  0
   -1.9110   21.9860  -30.7260 C   0  0  0  0  0  0  0  0  0  0  0  0
   -1.1640   20.6960  -30.8620 C   0  0  0  0  0  0  0  0  0  0  0  0
   -1.2740   23.0380  -30.4560 O   0  0  0  0  0  0  0  0  0  0  0  0
   -4.1150   21.5390  -31.9450 C   0  0  0  0  0  0  0  0  0  0  0  0
   -3.5410   20.9020  -33.1810 C   0  0  0  0  0  0  0  0  0  0  0  0
   -5.4260   21.8380  -31.7810 N   0  0  0  0  0  0  0  0  0  0  0  0
   -6.5120   21.5190  -32.7190 C   0  0  0  0  0  0  0  0  0  0  0  0
   -6.5430   20.0410  -33.0100 C   0  0  0  0  0  0  0  0  0  0  0  0
   -7.0900   19.1460  -32.0760 C   0  0  0  0  0  0  0  0  0  0  0  0
   -7.1450   17.7780  -32.3570 C   0  0  0  0  0  0  0  0  0  0  0  0
   -6.6580   17.2920  -33.5750 C   0  0  0  0  0  0  0  0  0  0  0  0
   -6.7390   15.5380  -33.9410 S   0  0  0  0  0  0  0  0  0  0  0  0
   -5.0710   15.2030  -33.2960 C   0  0  0  0  0  0  0  0  0  0  0  0
   -6.1010   18.1760  -34.5070 C   0  0  0  0  0  0  0  0  0  0  0  0
   -6.0410   19.5440  -34.2260 C   0  0  0  0  0  0  0  0  0  0  0  0
   -5.5350   22.5160  -30.6110 C   0  0  0  0  0  0  0  0  0  0  0  0
   -6.8330   22.9830  -30.0100 C   0  0  0  0  0  0  0  0  0  0  0  0
   -2.0050   21.2310  -26.9550 C   0  0  0  0  0  0  0  0  0  0  0  0
   -1.3840   19.9860  -27.1860 C   0  0  0  0  0  0  0  0  0  0  0  0
   -2.0520   18.7700  -26.9700 O   0  0  0  0  0  0  0  0  0  0  0  0
   -3.1140   18.5860  -26.0400 C   0  0  0  0  0  0  0  0  0  0  0  0
   -0.0805   16.8753  -28.6427 H   0  0  0  0  0  0  0  0  0  0  0  0
   -0.5393   18.3251  -29.5990 H   0  0  0  0  0  0  0  0  0  0  0  0
    1.1627   17.7509  -29.5990 H   0  0  0  0  0  0  0  0  0  0  0  0
    1.6869   21.1214  -28.1916 H   0  0  0  0  0  0  0  0  0  0  0  0
    0.5824   23.3111  -27.7683 H   0  0  0  0  0  0  0  0  0  0  0  0
   -2.9776   23.5673  -26.4943 H   0  0  0  0  0  0  0  0  0  0  0  0
   -1.3452   24.2881  -26.1520 H   0  0  0  0  0  0  0  0  0  0  0  0
   -1.8801   25.6762  -27.8634 H   0  0  0  0  0  0  0  0  0  0  0  0
   -1.3353   24.2607  -28.8720 H   0  0  0  0  0  0  0  0  0  0  0  0
   -4.0530   25.2670  -28.3800 H   0  0  0  0  0  0  0  0  0  0  0  0
   -3.2898   22.5576  -28.1231 H   0  0  0  0  0  0  0  0  0  0  0  0
   -4.9351   23.2943  -28.0901 H   0  0  0  0  0  0  0  0  0  0  0  0
   -0.9338   20.2985  -29.8625 H   0  0  0  0  0  0  0  0  0  0  0  0
   -1.7819   19.9707  -31.4117 H   0  0  0  0  0  0  0  0  0  0  0  0
   -0.2274   20.8708  -31.4117 H   0  0  0  0  0  0  0  0  0  0  0  0
   -2.8307   20.1137  -32.8911 H   0  0  0  0  0  0  0  0  0  0  0  0
   -4.3535   20.4620  -33.7778 H   0  0  0  0  0  0  0  0  0  0  0  0
   -3.0191   21.6645  -33.7778 H   0  0  0  0  0  0  0  0  0  0  0  0
   -7.4727   21.8207  -32.2762 H   0  0  0  0  0  0  0  0  0  0  0  0
   -6.3398   22.0625  -33.6597 H   0  0  0  0  0  0  0  0  0  0  0  0
   -7.4772   19.5237  -31.1182 H   0  0  0  0  0  0  0  0  0  0  0  0
   -7.5718   17.0825  -31.6194 H   0  0  0  0  0  0  0  0  0  0  0  0
   -5.0953   15.2079  -32.1963 H   0  0  0  0  0  0  0  0  0  0  0  0
   -4.7315   14.2187  -33.6509 H   0  0  0  0  0  0  0  0  0  0  0  0
   -4.3778   15.9799  -33.6509 H   0  0  0  0  0  0  0  0  0  0  0  0
   -5.7102   17.7936  -35.4615 H   0  0  0  0  0  0  0  0  0  0  0  0
   -5.5992   20.2348  -34.9592 H   0  0  0  0  0  0  0  0  0  0  0  0
   -6.7595   22.9566  -28.9128 H   0  0  0  0  0  0  0  0  0  0  0  0
   -7.0401   24.0120  -30.3389 H   0  0  0  0  0  0  0  0  0  0  0  0
   -7.6482   22.3218  -30.3389 H   0  0  0  0  0  0  0  0  0  0  0  0
   -3.0469   21.2638  -26.6038 H   0  0  0  0  0  0  0  0  0  0  0  0
   -2.7200   18.6543  -25.0153 H   0  0  0  0  0  0  0  0  0  0  0  0
   -3.8746   19.3657  -26.1931 H   0  0  0  0  0  0  0  0  0  0  0  0
   -3.5680   17.5958  -26.1931 H   0  0  0  0  0  0  0  0  0  0  0  0
  1  2  1  0
  2  3  1  0
  3  4  2  0
  4  5  1  0
  5  6  2  0
  6  7  1  0
  7  8  1  0
  8  9  1  0
  9 10  1  0
 10 11  1  0
 11 12  1  0
 12 13  1  0
 13 14  1  0
 13 15  2  0
 12 16  2  0
 16 17  1  0
 16 18  1  0
 18 19  1  0
 19 20  1  0
 20 21  2  0
 21 22  1  0
 22 23  2  0
 23 24  1  0
 24 25  1  0
 23 26  1  0
 26 27  2  0
 18 28  1  0
 28 29  1  0
  6 30  1  0
 30 31  2  0
 31 32  1  0
 32 33  1  0
 31  3  1  0
 28 11  2  0
 27 20  1  0
  1 34  1  0
  1 35  1  0
  1 36  1  0
  4 37  1  0
  5 38  1  0
  7 39  1  0
  7 40  1  0
  8 41  1  0
  8 42  1  0
  9 43  1  0
 10 44  1  0
 10 45  1  0
 14 46  1  0
 14 47  1  0
 14 48  1  0
 17 49  1  0
 17 50  1  0
 17 51  1  0
 19 52  1  0
 19 53  1  0
 21 54  1  0
 22 55  1  0
 25 56  1  0
 25 57  1  0
 25 58  1  0
 26 59  1  0
 27 60  1  0
 29 61  1  0
 29 62  1  0
 29 63  1  0
 30 64  1  0
 33 65  1  0
 33 66  1  0
 33 67  1  0
M  END
>  <UniqueID>  (41) 
39

>  <SMILES>  (41) 
COc1ccc(CCNCc2c(C(C)=O)c(C)n(Cc3ccc(SC)cc3)c2C)cc1OC

>  <Energy>  (41) 
87.18508751330057

>  <Genealogy>  (41) 
COc1ccc(CCNCc2c(C(C)=O)c(C)n(Cc3ccc(SC)cc3)c2C)cc1OC (3D coordinates assigned)
COc1ccc(CCNCc2c(C(C)=O)c(C)n(Cc3ccc(SC)cc3)c2C)cc1OC (optimized conformer: 87.18508751330057 kcal/mol)

>  <smiles>  (41) 
COc1ccc(CCNCc2c(C(C)=O)c(C)n(Cc3ccc(SC)cc3)c2C)cc1OC

>  <score_type>  (41) 
oracle

>  <origin>  (41) 
adg

>  <m_score__min__energy>  (41) 
-9.0600000000000005

>  <m_primary>  (41) 
energy

$$$$
41:0
     RDKit          3D

 46 48  0  0  0  0  0  0  0  0999 V2000
   -0.8820   24.9741  -27.5135 H   0  0  0  0  0  0  0  0  0  0  0  0
   -1.4610   24.4650  -28.2980 C   0  0  0  0  0  0  0  0  0  0  0  0
   -2.4010   25.1520  -29.0120 N   0  0  0  0  0  0  0  0  0  0  0  0
   -3.1450   24.5660  -29.9960 C   0  0  0  0  0  0  0  0  0  0  0  0
   -4.0230   25.2920  -30.6310 N   0  0  0  0  0  0  0  0  0  0  0  0
   -5.4500   25.4160  -30.3460 C   0  0  0  0  0  0  0  0  0  0  0  0
   -5.9132   26.0770  -31.0933 H   0  0  0  0  0  0  0  0  0  0  0  0
   -5.5783   25.8382  -29.3384 H   0  0  0  0  0  0  0  0  0  0  0  0
   -6.1250   24.0400  -30.4000 C   0  0  0  0  0  0  0  0  0  0  0  0
   -7.0514   24.0833  -29.8085 H   0  0  0  0  0  0  0  0  0  0  0  0
   -5.4061   23.3113  -29.9973 H   0  0  0  0  0  0  0  0  0  0  0  0
   -6.4790   23.5850  -31.8260 C   0  0  0  0  0  0  0  0  0  0  0  0
   -5.5774   23.1599  -32.2912 H   0  0  0  0  0  0  0  0  0  0  0  0
   -6.8470   24.4681  -32.3689 H   0  0  0  0  0  0  0  0  0  0  0  0
   -7.5880   22.5330  -31.8650 C   0  0  0  0  0  0  0  0  0  0  0  0
   -7.8731   22.2625  -30.8376 H   0  0  0  0  0  0  0  0  0  0  0  0
   -8.4625   22.9414  -32.3927 H   0  0  0  0  0  0  0  0  0  0  0  0
   -7.2262   21.6382  -32.3927 H   0  0  0  0  0  0  0  0  0  0  0  0
   -2.9080   23.2010  -30.2580 C   0  0  0  0  0  0  0  0  0  0  0  0
   -3.5320   22.4190  -31.1670 N   0  0  0  0  0  0  0  0  0  0  0  0
   -2.9400   21.2100  -31.0160 C   0  0  0  0  0  0  0  0  0  0  0  0
   -3.4000   19.9750  -31.7320 C   0  0  0  0  0  0  0  0  0  0  0  0
   -2.9335   19.9386  -32.7275 H   0  0  0  0  0  0  0  0  0  0  0  0
   -3.1073   19.0926  -31.1440 H   0  0  0  0  0  0  0  0  0  0  0  0
   -4.9230   19.9830  -31.8890 C   0  0  0  0  0  0  0  0  0  0  0  0
   -5.3403   19.0987  -31.3851 H   0  0  0  0  0  0  0  0  0  0  0  0
   -5.3147   20.9070  -31.4387 H   0  0  0  0  0  0  0  0  0  0  0  0
   -5.3260   19.9540  -33.3590 C   0  0  0  0  0  0  0  0  0  0  0  0
   -6.4204   19.8753  -33.4377 H   0  0  0  0  0  0  0  0  0  0  0  0
   -4.9887   20.8787  -33.8500 H   0  0  0  0  0  0  0  0  0  0  0  0
   -4.8598   19.0871  -33.8500 H   0  0  0  0  0  0  0  0  0  0  0  0
   -1.9840   21.2750  -30.0130 C   0  0  0  0  0  0  0  0  0  0  0  0
   -1.1750   20.1650  -29.4760 C   0  0  0  0  0  0  0  0  0  0  0  0
   -0.1460   19.6270  -30.2640 C   0  0  0  0  0  0  0  0  0  0  0  0
    0.0377   20.0273  -31.2720 H   0  0  0  0  0  0  0  0  0  0  0  0
    0.6460   18.5860  -29.7750 C   0  0  0  0  0  0  0  0  0  0  0  0
    1.4552   18.1730  -30.3952 H   0  0  0  0  0  0  0  0  0  0  0  0
    0.4110   18.0680  -28.4970 C   0  0  0  0  0  0  0  0  0  0  0  0
    1.4060   16.7600  -27.8850 Cl  0  0  0  0  0  0  0  0  0  0  0  0
   -0.6200   18.5900  -27.7110 C   0  0  0  0  0  0  0  0  0  0  0  0
   -0.8062   18.1780  -26.7082 H   0  0  0  0  0  0  0  0  0  0  0  0
   -1.4170   19.6350  -28.1940 C   0  0  0  0  0  0  0  0  0  0  0  0
   -2.7400   20.2230  -27.1900 Cl  0  0  0  0  0  0  0  0  0  0  0  0
   -1.9800   22.5350  -29.5460 N   0  0  0  0  0  0  0  0  0  0  0  0
   -1.2380   23.1110  -28.5690 C   0  0  0  0  0  0  0  0  0  0  0  0
   -0.4871   22.5342  -28.0091 H   0  0  0  0  0  0  0  0  0  0  0  0
  1  2  1  0
  2  3  1  0
  3  4  1  0
  4  5  2  0
  5  6  1  0
  6  7  1  0
  6  8  1  0
  6  9  1  0
  9 10  1  0
  9 11  1  0
  9 12  1  0
 12 13  1  0
 12 14  1  0
 12 15  1  0
 15 16  1  0
 15 17  1  0
 15 18  1  0
  4 19  1  0
 19 20  2  0
 20 21  1  0
 21 22  1  0
 22 23  1  0
 22 24  1  0
 22 25  1  0
 25 26  1  0
 25 27  1  0
 25 28  1  0
 28 29  1  0
 28 30  1  0
 28 31  1  0
 21 32  2  0
 32 33  1  0
 33 34  2  0
 34 35  1  0
 34 36  1  0
 36 37  1  0
 36 38  2  0
 38 39  1  0
 38 40  1  0
 40 41  1  0
 40 42  2  0
 42 43  1  0
 32 44  1  0
 44 45  1  0
 45 46  1  0
 45  2  2  0
 44 19  1  0
 42 33  1  0
M  CHG  1   3  -1
M  END
>  <UniqueID>  (42) 
40

>  <SMILES>  (42) 
CCCC/N=c1/[n-]ccn2c(-c3ccc(Cl)cc3Cl)c(CCC)nc12

>  <Energy>  (42) 
82.73508282387048

>  <Genealogy>  (42) 
CCCCN=c1[n-]ccn2c(-c3ccc(Cl)cc3Cl)c(CCC)nc12 (protonated)
CCCC/N=c1/[n-]ccn2c(-c3ccc(Cl)cc3Cl)c(CCC)nc12 (cis-trans isomerization)
CCCC/N=c1/[n-]ccn2c(-c3ccc(Cl)cc3Cl)c(CCC)nc12 (3D coordinates assigned)
CCCC/N=c1/[n-]ccn2c(-c3ccc(Cl)cc3Cl)c(CCC)nc12 (optimized conformer: 82.73508282387048 kcal/mol)

>  <smiles>  (42) 
CCCCN=c1[nH]ccn2c(-c3ccc(Cl)cc3Cl)c(CCC)nc12

>  <score_type>  (42) 
oracle

>  <origin>  (42) 
adg

>  <m_score__min__energy>  (42) 
-9.8000000000000007

>  <m_primary>  (42) 
energy

$$$$
42:0
     RDKit          3D

 40 42  0  0  0  0  0  0  0  0999 V2000
    0.9290   23.5870  -27.4270 C   0  0  0  0  0  0  0  0  0  0  0  0
    0.3620   24.1560  -28.6030 O   0  0  0  0  0  0  0  0  0  0  0  0
   -0.8840   23.7960  -29.1390 C   0  0  0  0  0  0  0  0  0  0  0  0
   -1.1440   22.4990  -29.6210 C   0  0  0  0  0  0  0  0  0  0  0  0
   -2.3950   22.1780  -30.1470 C   0  0  0  0  0  0  0  0  0  0  0  0
   -3.4140   23.1410  -30.2060 C   0  0  0  0  0  0  0  0  0  0  0  0
   -4.7440   22.7970  -30.7700 C   0  0  0  0  0  0  0  0  0  0  0  0
   -5.7990   23.7250  -30.7290 C   0  0  0  0  0  0  0  0  0  0  0  0
   -7.0480   23.3980  -31.2570 C   0  0  0  0  0  0  0  0  0  0  0  0
   -7.2640   22.1450  -31.8330 C   0  0  0  0  0  0  0  0  0  0  0  0
   -6.2250   21.1990  -31.8870 C   0  0  0  0  0  0  0  0  0  0  0  0
   -6.4510   19.8650  -32.5000 C   0  0  0  0  0  0  0  0  0  0  0  0
   -5.7120   19.4600  -33.6260 C   0  0  0  0  0  0  0  0  0  0  0  0
   -5.9270   18.2030  -34.2000 C   0  0  0  0  0  0  0  0  0  0  0  0
   -6.8800   17.3370  -33.6570 C   0  0  0  0  0  0  0  0  0  0  0  0
   -7.6190   17.7280  -32.5390 C   0  0  0  0  0  0  0  0  0  0  0  0
   -7.4100   18.9840  -31.9620 C   0  0  0  0  0  0  0  0  0  0  0  0
   -4.9670   21.5350  -31.3520 C   0  0  0  0  0  0  0  0  0  0  0  0
   -3.1550   24.4370  -29.7260 C   0  0  0  0  0  0  0  0  0  0  0  0
   -1.8940   24.7680  -29.1920 C   0  0  0  0  0  0  0  0  0  0  0  0
   -1.6070   26.0530  -28.7020 O   0  0  0  0  0  0  0  0  0  0  0  0
   -1.2190   26.3390  -27.3620 C   0  0  0  0  0  0  0  0  0  0  0  0
    0.4705   24.0471  -26.5393 H   0  0  0  0  0  0  0  0  0  0  0  0
    0.7410   22.5032  -27.4167 H   0  0  0  0  0  0  0  0  0  0  0  0
    2.0134   23.7712  -27.4167 H   0  0  0  0  0  0  0  0  0  0  0  0
   -0.3549   21.7336  -29.5824 H   0  0  0  0  0  0  0  0  0  0  0  0
   -2.5848   21.1604  -30.5191 H   0  0  0  0  0  0  0  0  0  0  0  0
   -5.6386   24.7153  -30.2777 H   0  0  0  0  0  0  0  0  0  0  0  0
   -7.8670   24.1314  -31.2193 H   0  0  0  0  0  0  0  0  0  0  0  0
   -8.2523   21.8963  -32.2469 H   0  0  0  0  0  0  0  0  0  0  0  0
   -4.9599   20.1365  -34.0581 H   0  0  0  0  0  0  0  0  0  0  0  0
   -5.3446   17.8952  -35.0810 H   0  0  0  0  0  0  0  0  0  0  0  0
   -7.0476   16.3487  -34.1099 H   0  0  0  0  0  0  0  0  0  0  0  0
   -8.3680   17.0457  -32.1108 H   0  0  0  0  0  0  0  0  0  0  0  0
   -7.9977   19.2863  -31.0827 H   0  0  0  0  0  0  0  0  0  0  0  0
   -4.1478   20.8019  -31.3893 H   0  0  0  0  0  0  0  0  0  0  0  0
   -3.9455   25.2007  -29.7679 H   0  0  0  0  0  0  0  0  0  0  0  0
   -1.9046   25.8336  -26.6659 H   0  0  0  0  0  0  0  0  0  0  0  0
   -0.1934   25.9792  -27.1925 H   0  0  0  0  0  0  0  0  0  0  0  0
   -1.2592   27.4251  -27.1925 H   0  0  0  0  0  0  0  0  0  0  0  0
  1  2  1  0
  2  3  1  0
  3  4  2  0
  4  5  1  0
  5  6  2  0
  6  7  1  0
  7  8  2  0
  8  9  1  0
  9 10  2  0
 10 11  1  0
 11 12  1  0
 12 13  2  0
 13 14  1  0
 14 15  2  0
 15 16  1  0
 16 17  2  0
 11 18  2  0
  6 19  1  0
 19 20  2  0
 20 21  1  0
 21 22  1  0
 20  3  1  0
 18  7  1  0
 17 12  1  0
  1 23  1  0
  1 24  1  0
  1 25  1  0
  4 26  1  0
  5 27  1  0
  8 28  1  0
  9 29  1  0
 10 30  1  0
 13 31  1  0
 14 32  1  0
 15 33  1  0
 16 34  1  0
 17 35  1  0
 18 36  1  0
 19 37  1  0
 22 38  1  0
 22 39  1  0
 22 40  1  0
M  END
>  <UniqueID>  (43) 
41

>  <SMILES>  (43) 
COc1ccc(-c2cccc(-c3ccccc3)c2)cc1OC

>  <Energy>  (43) 
52.07544090834397

>  <Genealogy>  (43) 
COc1ccc(-c2cccc(-c3ccccc3)c2)cc1OC (3D coordinates assigned)
COc1ccc(-c2cccc(-c3ccccc3)c2)cc1OC (optimized conformer: 52.07544090834397 kcal/mol)

>  <smiles>  (43) 
COc1ccc(-c2cccc(-c3ccccc3)c2)cc1OC

>  <score_type>  (43) 
oracle

>  <origin>  (43) 
adg

>  <m_score__min__energy>  (43) 
-8.5199999999999996

>  <m_primary>  (43) 
energy

$$$$
43:0
     RDKit          3D

 34 35  0  0  0  0  0  0  0  0999 V2000
   -3.8540   23.9410  -27.6510 C   0  0  0  0  0  0  0  0  0  0  0  0
   -4.6010   23.9920  -28.9880 C   0  0  0  0  0  0  0  0  0  0  0  0
   -5.7220   24.9520  -28.9610 N   0  0  0  0  0  0  0  0  0  0  0  0
   -6.4090   25.0780  -30.2690 C   0  0  0  0  0  0  0  0  0  0  0  0
   -5.7470   24.2350  -31.3730 C   0  0  0  0  0  0  0  0  0  0  0  0
   -6.5780   23.0480  -31.7500 C   0  0  0  0  0  0  0  0  0  0  0  0
   -6.0930   21.8380  -32.2270 C   0  0  0  0  0  0  0  0  0  0  0  0
   -7.0990   20.8730  -32.4290 C   0  0  0  0  0  0  0  0  0  0  0  0
   -6.8320   19.5010  -32.9290 C   0  0  0  0  0  0  0  0  0  0  0  0
   -7.3490   18.3780  -32.2550 C   0  0  0  0  0  0  0  0  0  0  0  0
   -7.0960   17.0870  -32.7290 C   0  0  0  0  0  0  0  0  0  0  0  0
   -6.3280   16.9000  -33.8790 C   0  0  0  0  0  0  0  0  0  0  0  0
   -6.0850   15.6480  -34.3370 F   0  0  0  0  0  0  0  0  0  0  0  0
   -5.8100   18.0040  -34.5580 C   0  0  0  0  0  0  0  0  0  0  0  0
   -6.0580   19.2980  -34.0890 C   0  0  0  0  0  0  0  0  0  0  0  0
   -8.3730   21.3400  -32.1000 C   0  0  0  0  0  0  0  0  0  0  0  0
   -8.2430   22.9280  -31.5640 S   0  0  0  0  0  0  0  0  0  0  0  0
   -4.5780   23.9904  -26.8244 H   0  0  0  0  0  0  0  0  0  0  0  0
   -3.2851   23.0019  -27.5844 H   0  0  0  0  0  0  0  0  0  0  0  0
   -3.1627   24.7940  -27.5844 H   0  0  0  0  0  0  0  0  0  0  0  0
   -3.8959   24.2921  -29.7771 H   0  0  0  0  0  0  0  0  0  0  0  0
   -5.0158   22.9920  -29.1829 H   0  0  0  0  0  0  0  0  0  0  0  0
   -6.3990   24.6530  -28.2200 H   0  0  0  0  0  0  0  0  0  0  0  0
   -5.3660   25.8920  -28.6680 H   0  0  0  0  0  0  0  0  0  0  0  0
   -7.4516   24.7475  -30.1518 H   0  0  0  0  0  0  0  0  0  0  0  0
   -6.3476   26.1327  -30.5755 H   0  0  0  0  0  0  0  0  0  0  0  0
   -5.6045   24.8653  -32.2632 H   0  0  0  0  0  0  0  0  0  0  0  0
   -4.7853   23.8663  -30.9868 H   0  0  0  0  0  0  0  0  0  0  0  0
   -5.0277   21.6511  -32.4275 H   0  0  0  0  0  0  0  0  0  0  0  0
   -7.9566   18.5173  -31.3487 H   0  0  0  0  0  0  0  0  0  0  0  0
   -7.5035   16.2165  -32.1939 H   0  0  0  0  0  0  0  0  0  0  0  0
   -5.2050   17.8558  -35.4646 H   0  0  0  0  0  0  0  0  0  0  0  0
   -5.6461   20.1632  -34.6292 H   0  0  0  0  0  0  0  0  0  0  0  0
   -9.3070   20.7642  -32.1785 H   0  0  0  0  0  0  0  0  0  0  0  0
  1  2  1  0
  2  3  1  0
  3  4  1  0
  4  5  1  0
  5  6  1  0
  6  7  2  0
  7  8  1  0
  8  9  1  0
  9 10  2  0
 10 11  1  0
 11 12  2  0
 12 13  1  0
 12 14  1  0
 14 15  2  0
  8 16  2  0
 16 17  1  0
 17  6  1  0
 15  9  1  0
  1 18  1  0
  1 19  1  0
  1 20  1  0
  2 21  1  0
  2 22  1  0
  3 23  1  0
  3 24  1  0
  4 25  1  0
  4 26  1  0
  5 27  1  0
  5 28  1  0
  7 29  1  0
 10 30  1  0
 11 31  1  0
 14 32  1  0
 15 33  1  0
 16 34  1  0
M  CHG  1   3   1
M  END
>  <UniqueID>  (44) 
42

>  <SMILES>  (44) 
CC[NH2+]CCc1cc(-c2ccc(F)cc2)cs1

>  <Energy>  (44) 
60.5397803192175

>  <Genealogy>  (44) 
CC[NH2+]CCc1cc(-c2ccc(F)cc2)cs1 (protonated)
CC[NH2+]CCc1cc(-c2ccc(F)cc2)cs1 (3D coordinates assigned)
CC[NH2+]CCc1cc(-c2ccc(F)cc2)cs1 (optimized conformer: 60.5397803192175 kcal/mol)

>  <smiles>  (44) 
CCNCCc1cc(-c2ccc(F)cc2)cs1

>  <score_type>  (44) 
oracle

>  <origin>  (44) 
adg

>  <m_score__min__energy>  (44) 
-6.5499999999999998

>  <m_primary>  (44) 
energy

$$$$
44:0
     RDKit          3D

 39 41  0  0  0  0  0  0  0  0999 V2000
   -6.3760   24.9190  -29.6750 C   0  0  0  0  0  0  0  0  0  0  0  0
   -5.6280   25.9880  -30.4640 C   0  0  0  0  0  0  0  0  0  0  0  0
   -4.2340   25.6840  -30.5340 O   0  0  0  0  0  0  0  0  0  0  0  0
   -3.6710   24.3970  -30.5060 C   0  0  0  0  0  0  0  0  0  0  0  0
   -4.2170   23.3160  -31.2260 C   0  0  0  0  0  0  0  0  0  0  0  0
   -3.6240   22.0440  -31.1720 C   0  0  0  0  0  0  0  0  0  0  0  0
   -4.1820   20.9410  -31.9110 N   0  0  0  0  0  0  0  0  0  0  0  0
   -3.6080   20.2730  -32.9460 C   0  0  0  0  0  0  0  0  0  0  0  0
   -2.3670   20.5710  -33.4980 O   0  0  0  0  0  0  0  0  0  0  0  0
   -4.4990   19.3220  -33.3970 C   0  0  0  0  0  0  0  0  0  0  0  0
   -5.6010   19.4000  -32.6870 N   0  0  0  0  0  0  0  0  0  0  0  0
   -5.4240   20.3980  -31.8060 C   0  0  0  0  0  0  0  0  0  0  0  0
   -6.3130   20.7920  -31.0030 O   0  0  0  0  0  0  0  0  0  0  0  0
   -6.7250   18.7130  -33.2710 C   0  0  0  0  0  0  0  0  0  0  0  0
   -6.1050   18.0330  -34.5230 C   0  0  0  0  0  0  0  0  0  0  0  0
   -4.6340   18.5220  -34.6290 C   0  0  0  0  0  0  0  0  0  0  0  0
   -2.4750   21.8590  -30.3920 C   0  0  0  0  0  0  0  0  0  0  0  0
   -1.9300   22.9220  -29.6710 C   0  0  0  0  0  0  0  0  0  0  0  0
   -2.5230   24.1960  -29.7220 C   0  0  0  0  0  0  0  0  0  0  0  0
   -2.0040   25.2880  -29.0090 O   0  0  0  0  0  0  0  0  0  0  0  0
   -1.7930   25.3060  -27.6010 C   0  0  0  0  0  0  0  0  0  0  0  0
   -6.2482   25.1016  -28.5978 H   0  0  0  0  0  0  0  0  0  0  0  0
   -7.4456   24.9570  -29.9290 H   0  0  0  0  0  0  0  0  0  0  0  0
   -5.9738   23.9272  -29.9290 H   0  0  0  0  0  0  0  0  0  0  0  0
   -6.0381   26.0370  -31.4835 H   0  0  0  0  0  0  0  0  0  0  0  0
   -5.7530   26.9547  -29.9543 H   0  0  0  0  0  0  0  0  0  0  0  0
   -5.1183   23.4701  -31.8376 H   0  0  0  0  0  0  0  0  0  0  0  0
   -2.2890   21.1830  -34.3010 H   0  0  0  0  0  0  0  0  0  0  0  0
   -7.1355   17.9648  -32.5769 H   0  0  0  0  0  0  0  0  0  0  0  0
   -7.5651   19.3812  -33.5113 H   0  0  0  0  0  0  0  0  0  0  0  0
   -6.1315   16.9391  -34.4100 H   0  0  0  0  0  0  0  0  0  0  0  0
   -6.6701   18.2942  -35.4299 H   0  0  0  0  0  0  0  0  0  0  0  0
   -3.9296   17.6771  -34.6384 H   0  0  0  0  0  0  0  0  0  0  0  0
   -4.4125   19.0790  -35.5513 H   0  0  0  0  0  0  0  0  0  0  0  0
   -1.9990   20.8683  -30.3477 H   0  0  0  0  0  0  0  0  0  0  0  0
   -1.0303   22.7623  -29.0585 H   0  0  0  0  0  0  0  0  0  0  0  0
   -2.7605   25.2235  -27.0842 H   0  0  0  0  0  0  0  0  0  0  0  0
   -1.1514   24.4593  -27.3155 H   0  0  0  0  0  0  0  0  0  0  0  0
   -1.3041   26.2491  -27.3155 H   0  0  0  0  0  0  0  0  0  0  0  0
  1  2  1  0
  2  3  1  0
  3  4  1  0
  4  5  2  0
  5  6  1  0
  6  7  1  0
  7  8  1  0
  8  9  1  0
  8 10  2  0
 10 11  1  0
 11 12  1  0
 12 13  2  0
 11 14  1  0
 14 15  1  0
 15 16  1  0
  6 17  2  0
 17 18  1  0
 18 19  2  0
 19 20  1  0
 20 21  1  0
 19  4  1  0
 12  7  1  0
 16 10  1  0
  1 22  1  0
  1 23  1  0
  1 24  1  0
  2 25  1  0
  2 26  1  0
  5 27  1  0
  9 28  1  0
 14 29  1  0
 14 30  1  0
 15 31  1  0
 15 32  1  0
 16 33  1  0
 16 34  1  0
 17 35  1  0
 18 36  1  0
 21 37  1  0
 21 38  1  0
 21 39  1  0
M  END
>  <UniqueID>  (45) 
43

>  <SMILES>  (45) 
CCOc1cc(-n2c(O)c3n(c2=O)CCC3)ccc1OC

>  <Energy>  (45) 
98.27176201500846

>  <Genealogy>  (45) 
CCOc1cc(-n2c(O)c3n(c2=O)CCC3)ccc1OC (3D coordinates assigned)
CCOc1cc(-n2c(O)c3n(c2=O)CCC3)ccc1OC (nonaromatic ring conformer: 98.27176201500846 kcal/mol)

>  <smiles>  (45) 
CCOc1cc(-n2c(O)c3n(c2=O)CCC3)ccc1OC

>  <score_type>  (45) 
oracle

>  <origin>  (45) 
adg

>  <m_score__min__energy>  (45) 
-6.9900000000000002

>  <m_primary>  (45) 
energy

$$$$
45:0
     RDKit          3D

 41 42  0  0  0  0  0  0  0  0999 V2000
   -3.4680   20.8900  -30.1520 C   0  0  0  0  0  0  0  0  0  0  0  0
   -4.5920   20.7840  -31.1920 C   0  0  0  0  0  0  0  0  0  0  0  0
   -4.7250   21.9750  -32.0690 N   0  0  0  0  0  0  0  0  0  0  0  0
   -3.8510   21.9430  -33.2650 C   0  0  0  0  0  0  0  0  0  0  0  0
   -3.2300   20.5610  -33.4690 C   0  0  0  0  0  0  0  0  0  0  0  0
   -4.5820   23.2440  -31.3210 C   0  0  0  0  0  0  0  0  0  0  0  0
   -5.9460   23.9430  -31.2000 C   0  0  0  0  0  0  0  0  0  0  0  0
   -6.8180   23.6660  -32.3580 N   0  0  0  0  0  0  0  0  0  0  0  0
   -8.1090   23.0680  -31.9860 C   0  0  0  0  0  0  0  0  0  0  0  0
   -8.1260   21.5830  -32.2080 C   0  0  0  0  0  0  0  0  0  0  0  0
   -9.0680   20.6930  -31.7360 C   0  0  0  0  0  0  0  0  0  0  0  0
   -8.6830   19.4860  -32.0810 O   0  0  0  0  0  0  0  0  0  0  0  0
   -7.5470   19.6060  -32.7330 C   0  0  0  0  0  0  0  0  0  0  0  0
   -6.7910   18.4640  -33.2640 C   0  0  0  0  0  0  0  0  0  0  0  0
   -6.8180   17.1590  -32.7870 C   0  0  0  0  0  0  0  0  0  0  0  0
   -5.9990   16.2890  -33.5160 C   0  0  0  0  0  0  0  0  0  0  0  0
   -5.3280   16.9020  -34.5660 C   0  0  0  0  0  0  0  0  0  0  0  0
   -5.7560   18.5280  -34.5880 S   0  0  0  0  0  0  0  0  0  0  0  0
   -7.1600   20.8930  -32.8390 N   0  0  0  0  0  0  0  0  0  0  0  0
   -3.8991   20.8493  -29.1408 H   0  0  0  0  0  0  0  0  0  0  0  0
   -2.7654   20.0541  -30.2850 H   0  0  0  0  0  0  0  0  0  0  0  0
   -2.9341   21.8425  -30.2850 H   0  0  0  0  0  0  0  0  0  0  0  0
   -4.3925   19.9085  -31.8273 H   0  0  0  0  0  0  0  0  0  0  0  0
   -5.5343   20.6981  -30.6310 H   0  0  0  0  0  0  0  0  0  0  0  0
   -4.4491   22.2004  -34.1516 H   0  0  0  0  0  0  0  0  0  0  0  0
   -3.0373   22.6683  -33.1171 H   0  0  0  0  0  0  0  0  0  0  0  0
   -3.0243   20.1033  -32.4901 H   0  0  0  0  0  0  0  0  0  0  0  0
   -3.9287   19.9245  -34.0318 H   0  0  0  0  0  0  0  0  0  0  0  0
   -2.2902   20.6608  -34.0318 H   0  0  0  0  0  0  0  0  0  0  0  0
   -4.1918   23.0312  -30.3148 H   0  0  0  0  0  0  0  0  0  0  0  0
   -3.8863   23.9034  -31.8607 H   0  0  0  0  0  0  0  0  0  0  0  0
   -6.4462   23.5883  -30.2868 H   0  0  0  0  0  0  0  0  0  0  0  0
   -5.7679   25.0278  -31.1627 H   0  0  0  0  0  0  0  0  0  0  0  0
   -6.3380   23.0650  -33.0690 H   0  0  0  0  0  0  0  0  0  0  0  0
   -8.3005   23.2702  -30.9218 H   0  0  0  0  0  0  0  0  0  0  0  0
   -8.8867   23.5156  -32.6224 H   0  0  0  0  0  0  0  0  0  0  0  0
   -9.9775   20.9482  -31.1724 H   0  0  0  0  0  0  0  0  0  0  0  0
   -7.4218   16.8419  -31.9240 H   0  0  0  0  0  0  0  0  0  0  0  0
   -5.8964   15.2197  -33.2793 H   0  0  0  0  0  0  0  0  0  0  0  0
   -4.6353   16.4085  -35.2636 H   0  0  0  0  0  0  0  0  0  0  0  0
   -6.2980   21.2780  -33.2860 H   0  0  0  0  0  0  0  0  0  0  0  0
  1  2  1  0
  2  3  1  0
  3  4  1  0
  4  5  1  0
  3  6  1  0
  6  7  1  0
  7  8  1  0
  8  9  1  0
  9 10  1  0
 10 11  2  0
 11 12  1  0
 12 13  1  0
 13 14  1  0
 14 15  2  0
 15 16  1  0
 16 17  2  0
 17 18  1  0
 13 19  2  0
 19 10  1  0
 18 14  1  0
  1 20  1  0
  1 21  1  0
  1 22  1  0
  2 23  1  0
  2 24  1  0
  4 25  1  0
  4 26  1  0
  5 27  1  0
  5 28  1  0
  5 29  1  0
  6 30  1  0
  6 31  1  0
  7 32  1  0
  7 33  1  0
  8 34  1  0
  9 35  1  0
  9 36  1  0
 11 37  1  0
 15 38  1  0
 16 39  1  0
 17 40  1  0
 19 41  1  0
M  CHG  1  19   1
M  END
>  <UniqueID>  (46) 
44

>  <SMILES>  (46) 
CCN(CC)CCNCc1coc(-c2cccs2)[nH+]1

>  <Energy>  (46) 
96.7367368351087

>  <Genealogy>  (46) 
CCN(CC)CCNCc1coc(-c2cccs2)[nH+]1 (protonated)
CCN(CC)CCNCc1coc(-c2cccs2)[nH+]1 (3D coordinates assigned)
CCN(CC)CCNCc1coc(-c2cccs2)[nH+]1 (optimized conformer: 96.7367368351087 kcal/mol)

>  <smiles>  (46) 
CCN(CC)CCNCc1coc(-c2cccs2)n1

>  <score_type>  (46) 
oracle

>  <origin>  (46) 
adg

>  <m_score__min__energy>  (46) 
-4.7000000000000002

>  <m_primary>  (46) 
energy

$$$$
