0:0
     RDKit          3D

 60 62  0  0  0  0  0  0  0  0999 V2000
   -3.8510   22.3080  -27.8500 C   0  0  0  0  0  0  0  0  0  0  0  0
   -2.6040   21.7600  -28.5560 C   0  0  0  0  0  0  0  0  0  0  0  0
   -2.4130   20.3010  -28.3320 N   0  0  0  0  0  0  0  0  0  0  0  0
   -3.1170   19.8570  -27.0970 C   0  0  0  0  0  0  0  0  0  0  0  0
   -2.4520   18.6750  -26.3750 C   0  0  0  0  0  0  0  0  0  0  0  0
   -0.9690   19.9440  -28.3540 C   0  0  0  0  0  0  0  0  0  0  0  0
   -0.4350   19.6700  -29.7730 C   0  0  0  0  0  0  0  0  0  0  0  0
   -1.4900   19.7140  -30.7150 O   0  0  0  0  0  0  0  0  0  0  0  0
   -0.9950   20.0000  -32.0080 C   0  0  0  0  0  0  0  0  0  0  0  0
   -1.4680   21.3890  -32.4440 C   0  0  0  0  0  0  0  0  0  0  0  0
   -2.9370   21.4100  -32.8920 C   0  0  0  0  0  0  0  0  0  0  0  0
   -3.8170   20.7830  -31.9010 N   0  0  0  0  0  0  0  0  0  0  0  0
   -5.2040   21.1390  -31.8510 C   0  0  0  0  0  0  0  0  0  0  0  0
   -5.5550   22.4120  -31.3600 C   0  0  0  0  0  0  0  0  0  0  0  0
   -4.5580   23.3590  -31.0350 C   0  0  0  0  0  0  0  0  0  0  0  0
   -4.8970   24.5970  -30.4960 C   0  0  0  0  0  0  0  0  0  0  0  0
   -6.2290   24.9080  -30.2580 C   0  0  0  0  0  0  0  0  0  0  0  0
   -7.2320   23.9950  -30.5810 C   0  0  0  0  0  0  0  0  0  0  0  0
   -6.9200   22.7420  -31.1710 C   0  0  0  0  0  0  0  0  0  0  0  0
   -7.9050   21.8430  -31.5250 N   0  0  0  0  0  0  0  0  0  0  0  0
   -9.3180   22.2820  -31.5800 C   0  0  0  0  0  0  0  0  0  0  0  0
   -7.5720   20.5440  -31.8660 C   0  0  0  0  0  0  0  0  0  0  0  0
   -8.5610   19.5340  -31.9380 C   0  0  0  0  0  0  0  0  0  0  0  0
   -8.2520   18.2520  -32.3730 C   0  0  0  0  0  0  0  0  0  0  0  0
   -6.9590   17.9450  -32.7670 C   0  0  0  0  0  0  0  0  0  0  0  0
   -5.9390   18.8940  -32.6710 C   0  0  0  0  0  0  0  0  0  0  0  0
   -4.2670   18.3370  -33.4420 Br  0  0  0  0  0  0  0  0  0  0  0  0
   -6.2150   20.1910  -32.1360 C   0  0  0  0  0  0  0  0  0  0  0  0
   -3.7121   22.2470  -26.7605 H   0  0  0  0  0  0  0  0  0  0  0  0
   -4.0061   23.3572  -28.1416 H   0  0  0  0  0  0  0  0  0  0  0  0
   -4.7288   21.7127  -28.1416 H   0  0  0  0  0  0  0  0  0  0  0  0
   -2.7033   21.9403  -29.6366 H   0  0  0  0  0  0  0  0  0  0  0  0
   -1.7292   22.2784  -28.1364 H   0  0  0  0  0  0  0  0  0  0  0  0
   -2.8770   19.7930  -29.1240 H   0  0  0  0  0  0  0  0  0  0  0  0
   -3.1571   20.7070  -26.3999 H   0  0  0  0  0  0  0  0  0  0  0  0
   -4.1129   19.5115  -27.4114 H   0  0  0  0  0  0  0  0  0  0  0  0
   -2.5323   18.8177  -25.2872 H   0  0  0  0  0  0  0  0  0  0  0  0
   -2.9566   17.7402  -26.6604 H   0  0  0  0  0  0  0  0  0  0  0  0
   -1.3911   18.6209  -26.6604 H   0  0  0  0  0  0  0  0  0  0  0  0
   -0.3961   20.7763  -27.9191 H   0  0  0  0  0  0  0  0  0  0  0  0
   -0.8520   19.0161  -27.7750 H   0  0  0  0  0  0  0  0  0  0  0  0
    0.3139   20.4330  -30.0319 H   0  0  0  0  0  0  0  0  0  0  0  0
    0.0211   18.6693  -29.7951 H   0  0  0  0  0  0  0  0  0  0  0  0
    0.1046   19.9760  -31.9925 H   0  0  0  0  0  0  0  0  0  0  0  0
   -1.3701   19.2474  -32.7172 H   0  0  0  0  0  0  0  0  0  0  0  0
   -1.3499   22.0812  -31.5973 H   0  0  0  0  0  0  0  0  0  0  0  0
   -0.8564   21.6885  -33.3079 H   0  0  0  0  0  0  0  0  0  0  0  0
   -3.2504   22.4545  -33.0364 H   0  0  0  0  0  0  0  0  0  0  0  0
   -3.0169   20.8403  -33.8296 H   0  0  0  0  0  0  0  0  0  0  0  0
   -3.5230   19.9060  -31.4140 H   0  0  0  0  0  0  0  0  0  0  0  0
   -3.4999   23.1148  -31.2102 H   0  0  0  0  0  0  0  0  0  0  0  0
   -4.1102   25.3282  -30.2589 H   0  0  0  0  0  0  0  0  0  0  0  0
   -6.4940   25.8784  -29.8129 H   0  0  0  0  0  0  0  0  0  0  0  0
   -8.2822   24.2497  -30.3753 H   0  0  0  0  0  0  0  0  0  0  0  0
   -9.7047   22.4021  -30.5572 H   0  0  0  0  0  0  0  0  0  0  0  0
   -9.3830   23.2427  -32.1118 H   0  0  0  0  0  0  0  0  0  0  0  0
   -9.9160   21.5273  -32.1118 H   0  0  0  0  0  0  0  0  0  0  0  0
   -9.5945   19.7692  -31.6436 H   0  0  0  0  0  0  0  0  0  0  0  0
   -9.0342   17.4792  -32.4050 H   0  0  0  0  0  0  0  0  0  0  0  0
   -6.7338   16.9425  -33.1597 H   0  0  0  0  0  0  0  0  0  0  0  0
  1  2  1  0
  2  3  1  0
  3  4  1  0
  4  5  1  0
  3  6  1  0
  6  7  1  0
  7  8  1  0
  8  9  1  0
  9 10  1  0
 10 11  1  0
 11 12  1  0
 12 13  1  0
 13 14  2  0
 14 15  1  0
 15 16  2  0
 16 17  1  0
 17 18  2  0
 18 19  1  0
 19 20  2  0
 20 21  1  0
 20 22  1  0
 22 23  2  0
 23 24  1  0
 24 25  2  0
 25 26  1  0
 26 27  1  0
 26 28  2  0
 28 13  1  0
 19 14  1  0
 28 22  1  0
  1 29  1  0
  1 30  1  0
  1 31  1  0
  2 32  1  0
  2 33  1  0
  3 34  1  0
  4 35  1  0
  4 36  1  0
  5 37  1  0
  5 38  1  0
  5 39  1  0
  6 40  1  0
  6 41  1  0
  7 42  1  0
  7 43  1  0
  9 44  1  0
  9 45  1  0
 10 46  1  0
 10 47  1  0
 11 48  1  0
 11 49  1  0
 12 50  1  0
 15 51  1  0
 16 52  1  0
 17 53  1  0
 18 54  1  0
 21 55  1  0
 21 56  1  0
 21 57  1  0
 23 58  1  0
 24 59  1  0
 25 60  1  0
M  CHG  2   3   1  20   1
M  END
>  <UniqueID>  (1) 
1

>  <SMILES>  (1) 
CC[NH+](CC)CCOCCCNc1c2ccccc2[n+](C)c2cccc(Br)c12

>  <Energy>  (1) 
95.29920015779453

>  <Genealogy>  (1) 
CC[NH+](CC)CCOCCCNc1c2ccccc2[n+](C)c2cccc(Br)c12 (protonated)
CC[NH+](CC)CCOCCCNc1c2ccccc2[n+](C)c2cccc(Br)c12 (3D coordinates assigned)
CC[NH+](CC)CCOCCCNc1c2ccccc2[n+](C)c2cccc(Br)c12 (optimized conformer: 95.29920015779453 kcal/mol)

>  <smiles>  (1) 
CCN(CC)CCOCCCNc1c2ccccc2[n+](C)c2cccc(Br)c12

>  <score_type>  (1) 
oracle

>  <origin>  (1) 
adg

>  <m_score__min__energy>  (1) 
-7.5599999999999996

>  <m_primary>  (1) 
energy

$$$$
1:0
     RDKit          3D

 78 81  0  0  0  0  0  0  0  0999 V2000
   -5.7380   14.5460  -33.9540 C   0  0  0  0  0  0  0  0  0  0  0  0
   -6.4540   16.2210  -34.1110 S   0  0  0  0  0  0  0  0  0  0  0  0
   -4.8500   17.0300  -34.0820 C   0  0  0  0  0  0  0  0  0  0  0  0
   -4.7400   18.3990  -34.3480 C   0  0  0  0  0  0  0  0  0  0  0  0
   -3.4780   19.0000  -34.3560 C   0  0  0  0  0  0  0  0  0  0  0  0
   -2.3170   18.2310  -34.0750 C   0  0  0  0  0  0  0  0  0  0  0  0
   -1.0050   18.7960  -34.0230 C   0  0  0  0  0  0  0  0  0  0  0  0
   -0.7990   20.2750  -34.2550 C   0  0  0  0  0  0  0  0  0  0  0  0
    0.0980   17.9540  -33.6880 C   0  0  0  0  0  0  0  0  0  0  0  0
    1.4080   18.4400  -33.5740 O   0  0  0  0  0  0  0  0  0  0  0  0
    1.7240   19.6040  -32.7840 C   0  0  0  0  0  0  0  0  0  0  0  0
    1.9870   19.2500  -31.2920 C   0  0  0  0  0  0  0  0  0  0  0  0
    1.2850   18.0180  -30.8540 N   0  0  0  0  0  0  0  0  0  0  0  0
   -0.1540   18.2540  -30.5940 C   0  0  0  0  0  0  0  0  0  0  0  0
   -0.4240   19.5160  -29.7360 C   0  0  0  0  0  0  0  0  0  0  0  0
   -0.5240   20.7970  -30.5910 C   0  0  0  0  0  0  0  0  0  0  0  0
   -1.7900   20.8470  -31.3200 N   0  0  0  0  0  0  0  0  0  0  0  0
   -2.7230   21.9120  -31.0480 C   0  0  0  0  0  0  0  0  0  0  0  0
   -2.2370   23.0860  -30.4210 C   0  0  0  0  0  0  0  0  0  0  0  0
   -3.1170   24.1390  -30.1100 C   0  0  0  0  0  0  0  0  0  0  0  0
   -2.6110   25.2940  -29.5100 O   0  0  0  0  0  0  0  0  0  0  0  0
   -4.4890   24.0170  -30.3820 C   0  0  0  0  0  0  0  0  0  0  0  0
   -5.4080   25.0510  -30.0810 C   0  0  0  0  0  0  0  0  0  0  0  0
   -6.7620   24.9050  -30.3500 C   0  0  0  0  0  0  0  0  0  0  0  0
   -7.2430   23.7340  -30.9490 C   0  0  0  0  0  0  0  0  0  0  0  0
   -6.3690   22.6930  -31.2450 C   0  0  0  0  0  0  0  0  0  0  0  0
   -4.9860   22.8310  -31.0040 C   0  0  0  0  0  0  0  0  0  0  0  0
   -4.1010   21.8000  -31.3510 C   0  0  0  0  0  0  0  0  0  0  0  0
   -4.6710   20.6320  -31.9370 O   0  0  0  0  0  0  0  0  0  0  0  0
   -5.1790   19.4700  -31.2640 C   0  0  0  0  0  0  0  0  0  0  0  0
   -6.5010   18.9300  -31.8930 C   0  0  0  0  0  0  0  0  0  0  0  0
   -7.2840   19.9430  -32.7610 C   0  0  0  0  0  0  0  0  0  0  0  0
   -8.7470   19.8000  -32.5730 N   0  0  0  0  0  0  0  0  0  0  0  0
   -9.3640   21.0210  -31.9870 C   0  0  0  0  0  0  0  0  0  0  0  0
   -9.0870   18.6260  -31.7500 C   0  0  0  0  0  0  0  0  0  0  0  0
   -0.1330   16.5930  -33.4360 C   0  0  0  0  0  0  0  0  0  0  0  0
   -1.4060   16.0420  -33.5210 C   0  0  0  0  0  0  0  0  0  0  0  0
   -2.4920   16.8460  -33.8320 C   0  0  0  0  0  0  0  0  0  0  0  0
   -3.7330   16.2920  -33.8530 N   0  0  0  0  0  0  0  0  0  0  0  0
   -5.6294   14.2920  -32.8893 H   0  0  0  0  0  0  0  0  0  0  0  0
   -6.4028   13.8161  -34.4391 H   0  0  0  0  0  0  0  0  0  0  0  0
   -4.7511   14.5222  -34.4391 H   0  0  0  0  0  0  0  0  0  0  0  0
   -5.6402   18.9982  -34.5494 H   0  0  0  0  0  0  0  0  0  0  0  0
   -3.3835   20.0726  -34.5808 H   0  0  0  0  0  0  0  0  0  0  0  0
   -0.7271   20.7915  -33.2865 H   0  0  0  0  0  0  0  0  0  0  0  0
    0.1296   20.4311  -34.8237 H   0  0  0  0  0  0  0  0  0  0  0  0
   -1.6496   20.6789  -34.8237 H   0  0  0  0  0  0  0  0  0  0  0  0
    2.6249   20.0795  -33.1991 H   0  0  0  0  0  0  0  0  0  0  0  0
    0.8587   20.2821  -32.8220 H   0  0  0  0  0  0  0  0  0  0  0  0
    3.0684   19.1055  -31.1518 H   0  0  0  0  0  0  0  0  0  0  0  0
    1.6006   20.0816  -30.6843 H   0  0  0  0  0  0  0  0  0  0  0  0
    1.3310   17.3360  -31.6530 H   0  0  0  0  0  0  0  0  0  0  0  0
   -0.6683   18.3717  -31.5592 H   0  0  0  0  0  0  0  0  0  0  0  0
   -0.5284   17.3889  -30.0270 H   0  0  0  0  0  0  0  0  0  0  0  0
   -1.3708   19.3785  -29.1932 H   0  0  0  0  0  0  0  0  0  0  0  0
    0.4223   19.6392  -29.0442 H   0  0  0  0  0  0  0  0  0  0  0  0
   -0.4543   21.6749  -29.9319 H   0  0  0  0  0  0  0  0  0  0  0  0
    0.2990   20.7944  -31.3209 H   0  0  0  0  0  0  0  0  0  0  0  0
   -2.2200   19.9240  -31.5480 H   0  0  0  0  0  0  0  0  0  0  0  0
   -1.1682   23.1745  -30.1765 H   0  0  0  0  0  0  0  0  0  0  0  0
   -5.0436   25.9843  -29.6270 H   0  0  0  0  0  0  0  0  0  0  0  0
   -7.4612   25.7138  -30.0912 H   0  0  0  0  0  0  0  0  0  0  0  0
   -8.3129   23.6373  -31.1856 H   0  0  0  0  0  0  0  0  0  0  0  0
   -6.7589   21.7562  -31.6697 H   0  0  0  0  0  0  0  0  0  0  0  0
   -4.4185   18.6767  -31.3119 H   0  0  0  0  0  0  0  0  0  0  0  0
   -5.4032   19.7620  -30.2274 H   0  0  0  0  0  0  0  0  0  0  0  0
   -6.2481   18.0657  -32.5247 H   0  0  0  0  0  0  0  0  0  0  0  0
   -7.1598   18.6816  -31.0479 H   0  0  0  0  0  0  0  0  0  0  0  0
   -6.9849   20.9630  -32.4779 H   0  0  0  0  0  0  0  0  0  0  0  0
   -7.0502   19.7464  -33.8177 H   0  0  0  0  0  0  0  0  0  0  0  0
   -9.3318   20.9574  -30.8893 H   0  0  0  0  0  0  0  0  0  0  0  0
   -8.8065   21.9091  -32.3193 H   0  0  0  0  0  0  0  0  0  0  0  0
  -10.4097   21.0990  -32.3193 H   0  0  0  0  0  0  0  0  0  0  0  0
   -9.0105   18.8903  -30.6850 H   0  0  0  0  0  0  0  0  0  0  0  0
  -10.1149   18.3055  -31.9753 H   0  0  0  0  0  0  0  0  0  0  0  0
   -8.3895   17.8058  -31.9753 H   0  0  0  0  0  0  0  0  0  0  0  0
    0.7144   15.9463  -33.1645 H   0  0  0  0  0  0  0  0  0  0  0  0
   -1.5522   14.9667  -33.3413 H   0  0  0  0  0  0  0  0  0  0  0  0
  1  2  1  0
  2  3  1  0
  3  4  2  0
  4  5  1  0
  5  6  2  0
  6  7  1  0
  7  8  1  0
  7  9  2  0
  9 10  1  0
 10 11  1  0
 11 12  1  0
 12 13  1  0
 13 14  1  0
 14 15  1  0
 15 16  1  0
 16 17  1  0
 17 18  1  0
 18 19  2  0
 19 20  1  0
 20 21  1  0
 20 22  2  0
 22 23  1  0
 23 24  2  0
 24 25  1  0
 25 26  2  0
 26 27  1  0
 27 28  2  0
 28 29  1  0
 29 30  1  0
 30 31  1  0
 31 32  1  0
 32 33  1  0
 33 34  1  0
 33 35  1  0
  9 36  1  0
 36 37  2  0
 37 38  1  0
 38 39  2  0
 39  3  1  0
 38  6  1  0
 28 18  1  0
 27 22  1  0
  1 40  1  0
  1 41  1  0
  1 42  1  0
  4 43  1  0
  5 44  1  0
  8 45  1  0
  8 46  1  0
  8 47  1  0
 11 48  1  0
 11 49  1  0
 12 50  1  0
 12 51  1  0
 13 52  1  0
 14 53  1  0
 14 54  1  0
 15 55  1  0
 15 56  1  0
 16 57  1  0
 16 58  1  0
 17 59  1  0
 19 60  1  0
 23 61  1  0
 24 62  1  0
 25 63  1  0
 26 64  1  0
 30 65  1  0
 30 66  1  0
 31 67  1  0
 31 68  1  0
 32 69  1  0
 32 70  1  0
 34 71  1  0
 34 72  1  0
 34 73  1  0
 35 74  1  0
 35 75  1  0
 35 76  1  0
 36 77  1  0
 37 78  1  0
M  CHG  1  21  -1
M  END
>  <UniqueID>  (2) 
2

>  <SMILES>  (2) 
CSc1ccc2c(C)c(OCCNCCCNc3cc([O-])c4ccccc4c3OCCCN(C)C)ccc2n1

>  <Energy>  (2) 
112.35632391657488

>  <Genealogy>  (2) 
CSc1ccc2c(C)c(OCCNCCCNc3cc([O-])c4ccccc4c3OCCCN(C)C)ccc2n1 (protonated)
CSc1ccc2c(C)c(OCCNCCCNc3cc([O-])c4ccccc4c3OCCCN(C)C)ccc2n1 (3D coordinates assigned)
CSc1ccc2c(C)c(OCCNCCCNc3cc([O-])c4ccccc4c3OCCCN(C)C)ccc2n1 (optimized conformer: 112.35632391657488 kcal/mol)

>  <smiles>  (2) 
CSc1ccc2c(C)c(OCCNCCCNc3cc(O)c4ccccc4c3OCCCN(C)C)ccc2n1

>  <score_type>  (2) 
oracle

>  <origin>  (2) 
adg

>  <m_score__min__energy>  (2) 
-11.77

>  <m_primary>  (2) 
energy

$$$$
2:0
     RDKit          3D

 43 46  0  0  0  0  0  0  0  0999 V2000
    0.7040   25.9190  -24.4080 C   0  0  0  0  0  0  0  0  0  0  0  0
   -0.3130   25.4050  -25.3840 C   0  0  0  0  0  0  0  0  0  0  0  0
   -1.6640   25.7330  -25.2310 C   0  0  0  0  0  0  0  0  0  0  0  0
   -2.6090   25.2780  -26.1520 C   0  0  0  0  0  0  0  0  0  0  0  0
   -2.2220   24.4950  -27.2510 C   0  0  0  0  0  0  0  0  0  0  0  0
   -3.2750   24.0100  -28.1720 C   0  0  0  0  0  0  0  0  0  0  0  0
   -4.4080   24.7110  -28.4420 N   0  0  0  0  0  0  0  0  0  0  0  0
   -5.2430   24.0190  -29.2590 C   0  0  0  0  0  0  0  0  0  0  0  0
   -6.4750   24.4670  -29.7280 C   0  0  0  0  0  0  0  0  0  0  0  0
   -7.2170   23.6210  -30.5670 C   0  0  0  0  0  0  0  0  0  0  0  0
   -6.7120   22.3400  -30.9160 C   0  0  0  0  0  0  0  0  0  0  0  0
   -7.4560   21.4490  -31.7760 N   0  0  0  0  0  0  0  0  0  0  0  0
   -6.7300   20.6010  -32.7310 C   0  0  0  0  0  0  0  0  0  0  0  0
   -7.5440   19.3430  -33.0490 C   0  0  0  0  0  0  0  0  0  0  0  0
   -8.8610   19.6820  -33.4360 O   0  0  0  0  0  0  0  0  0  0  0  0
   -9.5400   20.2630  -32.3410 C   0  0  0  0  0  0  0  0  0  0  0  0
   -8.9060   21.6030  -31.9530 C   0  0  0  0  0  0  0  0  0  0  0  0
   -5.4940   21.9460  -30.4320 N   0  0  0  0  0  0  0  0  0  0  0  0
   -4.7860   22.7730  -29.6260 C   0  0  0  0  0  0  0  0  0  0  0  0
   -3.2920   22.4840  -28.9240 S   0  0  0  0  0  0  0  0  0  0  0  0
   -0.8470   24.2030  -27.4420 C   0  0  0  0  0  0  0  0  0  0  0  0
   -0.3510   23.4270  -28.6340 C   0  0  0  0  0  0  0  0  0  0  0  0
    0.0910   24.6520  -26.4950 C   0  0  0  0  0  0  0  0  0  0  0  0
    0.3504   25.7403  -23.3818 H   0  0  0  0  0  0  0  0  0  0  0  0
    1.6587   25.3952  -24.5633 H   0  0  0  0  0  0  0  0  0  0  0  0
    0.8485   26.9984  -24.5633 H   0  0  0  0  0  0  0  0  0  0  0  0
   -1.9835   26.3529  -24.3803 H   0  0  0  0  0  0  0  0  0  0  0  0
   -3.6695   25.5360  -26.0150 H   0  0  0  0  0  0  0  0  0  0  0  0
   -4.6130   25.6680  -28.0740 H   0  0  0  0  0  0  0  0  0  0  0  0
   -6.8575   25.4596  -29.4479 H   0  0  0  0  0  0  0  0  0  0  0  0
   -8.1920   23.9508  -30.9552 H   0  0  0  0  0  0  0  0  0  0  0  0
   -6.5567   21.1655  -33.6590 H   0  0  0  0  0  0  0  0  0  0  0  0
   -5.7688   20.3030  -32.2868 H   0  0  0  0  0  0  0  0  0  0  0  0
   -7.0566   18.7958  -33.8693 H   0  0  0  0  0  0  0  0  0  0  0  0
   -7.5919   18.7163  -32.1462 H   0  0  0  0  0  0  0  0  0  0  0  0
  -10.5920   20.4286  -32.6164 H   0  0  0  0  0  0  0  0  0  0  0  0
   -9.4707   19.5796  -31.4818 H   0  0  0  0  0  0  0  0  0  0  0  0
   -9.0984   22.3390  -32.7476 H   0  0  0  0  0  0  0  0  0  0  0  0
   -9.3475   21.9467  -31.0059 H   0  0  0  0  0  0  0  0  0  0  0  0
    0.2117   22.5466  -28.2901 H   0  0  0  0  0  0  0  0  0  0  0  0
   -1.2080   23.1001  -29.2412 H   0  0  0  0  0  0  0  0  0  0  0  0
    0.3055   24.0676  -29.2412 H   0  0  0  0  0  0  0  0  0  0  0  0
    1.1556   24.4090  -26.6280 H   0  0  0  0  0  0  0  0  0  0  0  0
  1  2  1  0
  2  3  2  0
  3  4  1  0
  4  5  2  0
  5  6  1  0
  6  7  2  0
  7  8  1  0
  8  9  2  0
  9 10  1  0
 10 11  2  0
 11 12  1  0
 12 13  1  0
 13 14  1  0
 14 15  1  0
 15 16  1  0
 16 17  1  0
 11 18  1  0
 18 19  2  0
 19 20  1  0
  5 21  1  0
 21 22  1  0
 21 23  2  0
 23  2  1  0
 20  6  1  0
 19  8  1  0
 17 12  1  0
  1 24  1  0
  1 25  1  0
  1 26  1  0
  3 27  1  0
  4 28  1  0
  7 29  1  0
  9 30  1  0
 10 31  1  0
 13 32  1  0
 13 33  1  0
 14 34  1  0
 14 35  1  0
 16 36  1  0
 16 37  1  0
 17 38  1  0
 17 39  1  0
 22 40  1  0
 22 41  1  0
 22 42  1  0
 23 43  1  0
M  CHG  1   7   1
M  END
>  <UniqueID>  (3) 
3

>  <SMILES>  (3) 
Cc1ccc(-c2[nH+]c3ccc(N4CCOCC4)nc3s2)c(C)c1

>  <Energy>  (3) 
91.4679571923248

>  <Genealogy>  (3) 
Cc1ccc(-c2[nH+]c3ccc(N4CCOCC4)nc3s2)c(C)c1 (protonated)
Cc1ccc(-c2[nH+]c3ccc(N4CCOCC4)nc3s2)c(C)c1 (3D coordinates assigned)
Cc1ccc(-c2[nH+]c3ccc(N4CCOCC4)nc3s2)c(C)c1 (nonaromatic ring conformer: 91.4679571923248 kcal/mol)

>  <smiles>  (3) 
Cc1ccc(-c2nc3ccc(N4CCOCC4)nc3s2)c(C)c1

>  <score_type>  (3) 
oracle

>  <origin>  (3) 
adg

>  <m_score__min__energy>  (3) 
-7.25

>  <m_primary>  (3) 
energy

$$$$
3:0
     RDKit          3D

 56 59  0  0  0  0  0  0  0  0999 V2000
   -6.5070   24.5390  -31.2450 C   0  0  0  0  0  0  0  0  0  0  0  0
   -6.0580   25.4730  -30.1320 C   0  0  0  0  0  0  0  0  0  0  0  0
   -4.7390   25.1340  -29.7430 O   0  0  0  0  0  0  0  0  0  0  0  0
   -4.7510   24.5880  -28.4830 N   0  0  0  0  0  0  0  0  0  0  0  0
   -4.0870   23.2770  -28.5330 C   0  0  0  0  0  0  0  0  0  0  0  0
   -4.7880   22.3070  -29.5000 C   0  0  0  0  0  0  0  0  0  0  0  0
   -3.8240   21.6940  -30.5250 C   0  0  0  0  0  0  0  0  0  0  0  0
   -3.6660   22.6060  -31.7450 C   0  0  0  0  0  0  0  0  0  0  0  0
   -4.6940   22.2980  -32.7370 N   0  0  0  0  0  0  0  0  0  0  0  0
   -5.2470   20.9830  -32.8920 C   0  0  0  0  0  0  0  0  0  0  0  0
   -4.4560   19.9270  -33.3450 C   0  0  0  0  0  0  0  0  0  0  0  0
   -4.9680   18.6430  -33.4250 C   0  0  0  0  0  0  0  0  0  0  0  0
   -6.2250   18.3340  -32.9680 N   0  0  0  0  0  0  0  0  0  0  0  0
   -6.6100   16.9270  -32.7560 C   0  0  0  0  0  0  0  0  0  0  0  0
   -7.0850   19.3710  -32.6440 C   0  0  0  0  0  0  0  0  0  0  0  0
   -8.4610   19.1480  -32.3900 C   0  0  0  0  0  0  0  0  0  0  0  0
   -9.3040   20.2000  -32.0300 C   0  0  0  0  0  0  0  0  0  0  0  0
   -8.8080   21.4960  -31.9280 C   0  0  0  0  0  0  0  0  0  0  0  0
   -7.4670   21.7570  -32.2020 C   0  0  0  0  0  0  0  0  0  0  0  0
   -6.5940   20.7140  -32.5710 C   0  0  0  0  0  0  0  0  0  0  0  0
   -3.9050   17.7670  -33.9360 C   0  0  0  0  0  0  0  0  0  0  0  0
   -3.9370   16.4480  -34.4110 C   0  0  0  0  0  0  0  0  0  0  0  0
   -2.7560   15.8870  -34.9220 C   0  0  0  0  0  0  0  0  0  0  0  0
   -1.5780   16.6520  -34.9970 C   0  0  0  0  0  0  0  0  0  0  0  0
   -1.5800   17.9920  -34.5860 C   0  0  0  0  0  0  0  0  0  0  0  0
   -2.7580   18.5330  -34.0660 C   0  0  0  0  0  0  0  0  0  0  0  0
   -2.9980   19.9640  -33.7050 C   0  0  0  0  0  0  0  0  0  0  0  0
   -6.9441   23.6297  -30.8066 H   0  0  0  0  0  0  0  0  0  0  0  0
   -7.2603   25.0450  -31.8667 H   0  0  0  0  0  0  0  0  0  0  0  0
   -5.6414   24.2667  -31.8667 H   0  0  0  0  0  0  0  0  0  0  0  0
   -6.0796   26.5120  -30.4925 H   0  0  0  0  0  0  0  0  0  0  0  0
   -6.7345   25.3731  -29.2704 H   0  0  0  0  0  0  0  0  0  0  0  0
   -5.7570   24.4460  -28.2340 H   0  0  0  0  0  0  0  0  0  0  0  0
   -4.3260   25.2030  -27.7430 H   0  0  0  0  0  0  0  0  0  0  0  0
   -3.0478   23.4186  -28.8647 H   0  0  0  0  0  0  0  0  0  0  0  0
   -4.1292   22.8384  -27.5251 H   0  0  0  0  0  0  0  0  0  0  0  0
   -5.2433   21.4943  -28.9150 H   0  0  0  0  0  0  0  0  0  0  0  0
   -5.5443   22.8803  -30.0561 H   0  0  0  0  0  0  0  0  0  0  0  0
   -2.8407   21.5511  -30.0531 H   0  0  0  0  0  0  0  0  0  0  0  0
   -4.2352   20.7301  -30.8594 H   0  0  0  0  0  0  0  0  0  0  0  0
   -3.7662   23.6553  -31.4306 H   0  0  0  0  0  0  0  0  0  0  0  0
   -2.6739   22.4428  -32.1912 H   0  0  0  0  0  0  0  0  0  0  0  0
   -5.0300   23.0600  -33.3710 H   0  0  0  0  0  0  0  0  0  0  0  0
   -6.6664   16.7209  -31.6770 H   0  0  0  0  0  0  0  0  0  0  0  0
   -7.5918   16.7421  -33.2164 H   0  0  0  0  0  0  0  0  0  0  0  0
   -5.8592   16.2680  -33.2164 H   0  0  0  0  0  0  0  0  0  0  0  0
   -8.8706   18.1309  -32.4779 H   0  0  0  0  0  0  0  0  0  0  0  0
  -10.3669   20.0036  -31.8256 H   0  0  0  0  0  0  0  0  0  0  0  0
   -9.4766   22.3171  -31.6301 H   0  0  0  0  0  0  0  0  0  0  0  0
   -7.0863   22.7865  -32.1296 H   0  0  0  0  0  0  0  0  0  0  0  0
   -4.8691   15.8645  -34.3837 H   0  0  0  0  0  0  0  0  0  0  0  0
   -2.7518   14.8422  -35.2661 H   0  0  0  0  0  0  0  0  0  0  0  0
   -0.6523   16.1972  -35.3794 H   0  0  0  0  0  0  0  0  0  0  0  0
   -0.6712   18.6058  -34.6713 H   0  0  0  0  0  0  0  0  0  0  0  0
   -2.3785   20.2747  -32.8507 H   0  0  0  0  0  0  0  0  0  0  0  0
   -2.7448   20.6812  -34.4997 H   0  0  0  0  0  0  0  0  0  0  0  0
  1  2  1  0
  2  3  1  0
  3  4  1  0
  4  5  1  0
  5  6  1  0
  6  7  1  0
  7  8  1  0
  8  9  1  0
  9 10  1  0
 10 11  2  0
 11 12  1  0
 12 13  2  0
 13 14  1  0
 13 15  1  0
 15 16  2  0
 16 17  1  0
 17 18  2  0
 18 19  1  0
 19 20  2  0
 12 21  1  0
 21 22  2  0
 22 23  1  0
 23 24  2  0
 24 25  1  0
 25 26  2  0
 26 27  1  0
 20 10  1  0
 26 21  1  0
 27 11  1  0
 20 15  1  0
  1 28  1  0
  1 29  1  0
  1 30  1  0
  2 31  1  0
  2 32  1  0
  4 33  1  0
  4 34  1  0
  5 35  1  0
  5 36  1  0
  6 37  1  0
  6 38  1  0
  7 39  1  0
  7 40  1  0
  8 41  1  0
  8 42  1  0
  9 43  1  0
 14 44  1  0
 14 45  1  0
 14 46  1  0
 16 47  1  0
 17 48  1  0
 18 49  1  0
 19 50  1  0
 22 51  1  0
 23 52  1  0
 24 53  1  0
 25 54  1  0
 27 55  1  0
 27 56  1  0
M  CHG  2   4   1  13   1
M  END
>  <UniqueID>  (4) 
4

>  <SMILES>  (4) 
CCO[NH2+]CCCCNc1c2c([n+](C)c3ccccc13)-c1ccccc1C2

>  <Energy>  (4) 
97.5228719023326

>  <Genealogy>  (4) 
CCO[NH2+]CCCCNc1c2c([n+](C)c3ccccc13)-c1ccccc1C2 (protonated)
CCO[NH2+]CCCCNc1c2c([n+](C)c3ccccc13)-c1ccccc1C2 (3D coordinates assigned)
CCO[NH2+]CCCCNc1c2c([n+](C)c3ccccc13)-c1ccccc1C2 (nonaromatic ring conformer: 97.5228719023326 kcal/mol)

>  <smiles>  (4) 
CCONCCCCNc1c2c([n+](C)c3ccccc13)-c1ccccc1C2

>  <score_type>  (4) 
oracle

>  <origin>  (4) 
adg

>  <m_score__min__energy>  (4) 
-8.6600000000000001

>  <m_primary>  (4) 
energy

$$$$
4:0
     RDKit          3D

 47 49  0  0  0  0  0  0  0  0999 V2000
   -1.5620   21.0100  -29.5210 C   0  0  0  0  0  0  0  0  0  0  0  0
   -3.0750   20.8100  -29.5390 C   0  0  0  0  0  0  0  0  0  0  0  0
   -3.7700   22.1010  -29.6610 N   0  0  0  0  0  0  0  0  0  0  0  0
   -2.9830   23.1970  -29.0780 C   0  0  0  0  0  0  0  0  0  0  0  0
   -3.5860   24.5510  -29.4640 C   0  0  0  0  0  0  0  0  0  0  0  0
   -4.2640   24.4560  -30.7700 N   0  0  0  0  0  0  0  0  0  0  0  0
   -5.4630   25.3070  -30.8560 C   0  0  0  0  0  0  0  0  0  0  0  0
   -6.7600   24.4860  -30.7970 C   0  0  0  0  0  0  0  0  0  0  0  0
   -6.4900   23.0740  -30.5180 N   0  0  0  0  0  0  0  0  0  0  0  0
   -7.0890   21.9900  -31.2510 C   0  0  0  0  0  0  0  0  0  0  0  0
   -8.4710   21.7320  -31.1710 C   0  0  0  0  0  0  0  0  0  0  0  0
   -9.0320   20.6570  -31.8580 C   0  0  0  0  0  0  0  0  0  0  0  0
   -8.2300   19.8130  -32.6290 C   0  0  0  0  0  0  0  0  0  0  0  0
   -6.8450   20.0380  -32.7090 C   0  0  0  0  0  0  0  0  0  0  0  0
   -6.0010   19.2010  -33.4650 C   0  0  0  0  0  0  0  0  0  0  0  0
   -6.4750   18.2160  -34.0940 O   0  0  0  0  0  0  0  0  0  0  0  0
   -4.6210   19.4700  -33.4990 C   0  0  0  0  0  0  0  0  0  0  0  0
   -3.7180   18.6690  -34.2250 C   0  0  0  0  0  0  0  0  0  0  0  0
   -2.3510   18.9680  -34.2190 C   0  0  0  0  0  0  0  0  0  0  0  0
   -1.8760   20.0660  -33.4980 C   0  0  0  0  0  0  0  0  0  0  0  0
   -2.7630   20.8700  -32.7780 C   0  0  0  0  0  0  0  0  0  0  0  0
   -4.1330   20.5790  -32.7750 C   0  0  0  0  0  0  0  0  0  0  0  0
   -4.9600   21.3470  -32.0770 O   0  0  0  0  0  0  0  0  0  0  0  0
   -6.2750   21.1320  -32.0190 C   0  0  0  0  0  0  0  0  0  0  0  0
   -1.2106   21.0564  -28.4797 H   0  0  0  0  0  0  0  0  0  0  0  0
   -1.0748   20.1685  -30.0352 H   0  0  0  0  0  0  0  0  0  0  0  0
   -1.3102   21.9492  -30.0352 H   0  0  0  0  0  0  0  0  0  0  0  0
   -3.3446   20.1728  -30.3941 H   0  0  0  0  0  0  0  0  0  0  0  0
   -3.3794   20.3329  -28.5958 H   0  0  0  0  0  0  0  0  0  0  0  0
   -3.8810   22.2990  -30.6830 H   0  0  0  0  0  0  0  0  0  0  0  0
   -2.9821   23.0997  -27.9823 H   0  0  0  0  0  0  0  0  0  0  0  0
   -1.9541   23.1417  -29.4631 H   0  0  0  0  0  0  0  0  0  0  0  0
   -4.3147   24.8552  -28.6982 H   0  0  0  0  0  0  0  0  0  0  0  0
   -2.7790   25.2953  -29.5333 H   0  0  0  0  0  0  0  0  0  0  0  0
   -4.5780   23.4670  -30.9040 H   0  0  0  0  0  0  0  0  0  0  0  0
   -5.4545   26.0176  -30.0163 H   0  0  0  0  0  0  0  0  0  0  0  0
   -5.4377   25.8311  -31.8228 H   0  0  0  0  0  0  0  0  0  0  0  0
   -7.4032   24.8907  -30.0017 H   0  0  0  0  0  0  0  0  0  0  0  0
   -7.2567   24.5552  -31.7760 H   0  0  0  0  0  0  0  0  0  0  0  0
   -5.7950   22.8450  -29.7720 H   0  0  0  0  0  0  0  0  0  0  0  0
   -9.1132   22.3844  -30.5611 H   0  0  0  0  0  0  0  0  0  0  0  0
  -10.1144   20.4720  -31.7924 H   0  0  0  0  0  0  0  0  0  0  0  0
   -8.6825   18.9715  -33.1741 H   0  0  0  0  0  0  0  0  0  0  0  0
   -4.0883   17.8062  -34.7981 H   0  0  0  0  0  0  0  0  0  0  0  0
   -1.6488   18.3369  -34.7834 H   0  0  0  0  0  0  0  0  0  0  0  0
   -0.8008   20.2982  -33.4971 H   0  0  0  0  0  0  0  0  0  0  0  0
   -2.3845   21.7339  -32.2119 H   0  0  0  0  0  0  0  0  0  0  0  0
  1  2  1  0
  2  3  1  0
  3  4  1  0
  4  5  1  0
  5  6  1  0
  6  7  1  0
  7  8  1  0
  8  9  1  0
  9 10  1  0
 10 11  2  0
 11 12  1  0
 12 13  2  0
 13 14  1  0
 14 15  1  0
 15 16  2  0
 15 17  1  0
 17 18  2  0
 18 19  1  0
 19 20  2  0
 20 21  1  0
 21 22  2  0
 22 23  1  0
 23 24  1  0
 24 10  1  0
 24 14  2  0
 22 17  1  0
  1 25  1  0
  1 26  1  0
  1 27  1  0
  2 28  1  0
  2 29  1  0
  3 30  1  0
  4 31  1  0
  4 32  1  0
  5 33  1  0
  5 34  1  0
  6 35  1  0
  7 36  1  0
  7 37  1  0
  8 38  1  0
  8 39  1  0
  9 40  1  0
 11 41  1  0
 12 42  1  0
 13 43  1  0
 18 44  1  0
 19 45  1  0
 20 46  1  0
 21 47  1  0
M  END
>  <UniqueID>  (5) 
5

>  <SMILES>  (5) 
CCNCCNCCNc1cccc2c(=O)c3ccccc3oc12

>  <Energy>  (5) 
52.38888399719194

>  <Genealogy>  (5) 
CCNCCNCCNc1cccc2c(=O)c3ccccc3oc12 (3D coordinates assigned)
CCNCCNCCNc1cccc2c(=O)c3ccccc3oc12 (optimized conformer: 52.38888399719194 kcal/mol)

>  <smiles>  (5) 
CCNCCNCCNc1cccc2c(=O)c3ccccc3oc12

>  <score_type>  (5) 
oracle

>  <origin>  (5) 
adg

>  <m_score__min__energy>  (5) 
-9.25

>  <m_primary>  (5) 
energy

$$$$
5:0
     RDKit          3D

 40 41  0  0  0  0  0  0  0  0999 V2000
   -5.0760   18.2840  -32.4690 C   0  0  0  0  0  0  0  0  0  0  0  0
   -5.7330   17.3730  -33.4210 N   0  0  0  0  0  0  0  0  0  0  0  0
   -5.6670   17.9480  -34.7760 C   0  0  0  0  0  0  0  0  0  0  0  0
   -7.1340   17.1300  -33.0140 C   0  0  0  0  0  0  0  0  0  0  0  0
   -7.4420   17.8300  -31.6800 C   0  0  0  0  0  0  0  0  0  0  0  0
   -8.9390   18.1700  -31.5310 C   0  0  0  0  0  0  0  0  0  0  0  0
   -9.5040   19.4100  -32.7540 S   0  0  0  0  0  0  0  0  0  0  0  0
   -8.0540   20.4590  -32.6180 C   0  0  0  0  0  0  0  0  0  0  0  0
   -7.0250   20.4080  -33.4860 N   0  0  0  0  0  0  0  0  0  0  0  0
   -6.1670   21.3360  -33.0910 N   0  0  0  0  0  0  0  0  0  0  0  0
   -6.6770   21.9490  -32.0050 C   0  0  0  0  0  0  0  0  0  0  0  0
   -6.0110   23.0760  -31.3170 C   0  0  0  0  0  0  0  0  0  0  0  0
   -6.7340   24.2180  -30.9330 C   0  0  0  0  0  0  0  0  0  0  0  0
   -6.0870   25.2840  -30.3030 C   0  0  0  0  0  0  0  0  0  0  0  0
   -4.7120   25.2250  -30.0600 C   0  0  0  0  0  0  0  0  0  0  0  0
   -3.9810   24.1010  -30.4550 C   0  0  0  0  0  0  0  0  0  0  0  0
   -4.6250   23.0330  -31.0870 C   0  0  0  0  0  0  0  0  0  0  0  0
   -7.8630   21.3980  -31.6650 N   0  0  0  0  0  0  0  0  0  0  0  0
   -8.7530   21.7360  -30.5570 C   0  0  0  0  0  0  0  0  0  0  0  0
   -5.3046   17.9670  -31.4408 H   0  0  0  0  0  0  0  0  0  0  0  0
   -3.9878   18.2574  -32.6275 H   0  0  0  0  0  0  0  0  0  0  0  0
   -5.4447   19.3082  -32.6275 H   0  0  0  0  0  0  0  0  0  0  0  0
   -5.5418   19.0386  -34.7058 H   0  0  0  0  0  0  0  0  0  0  0  0
   -4.8127   17.5149  -35.3169 H   0  0  0  0  0  0  0  0  0  0  0  0
   -6.5972   17.7198  -35.3169 H   0  0  0  0  0  0  0  0  0  0  0  0
   -7.8084   17.5201  -33.7906 H   0  0  0  0  0  0  0  0  0  0  0  0
   -7.2828   16.0474  -32.8878 H   0  0  0  0  0  0  0  0  0  0  0  0
   -7.1461   17.1654  -30.8549 H   0  0  0  0  0  0  0  0  0  0  0  0
   -6.8779   18.7741  -31.6565 H   0  0  0  0  0  0  0  0  0  0  0  0
   -9.5248   17.2489  -31.6667 H   0  0  0  0  0  0  0  0  0  0  0  0
   -9.0852   18.5995  -30.5289 H   0  0  0  0  0  0  0  0  0  0  0  0
   -5.2710   21.5570  -33.5790 H   0  0  0  0  0  0  0  0  0  0  0  0
   -7.8149   24.2730  -31.1294 H   0  0  0  0  0  0  0  0  0  0  0  0
   -6.6609   26.1714  -29.9977 H   0  0  0  0  0  0  0  0  0  0  0  0
   -4.2054   26.0626  -29.5582 H   0  0  0  0  0  0  0  0  0  0  0  0
   -2.8978   24.0567  -30.2684 H   0  0  0  0  0  0  0  0  0  0  0  0
   -4.0442   22.1549  -31.4058 H   0  0  0  0  0  0  0  0  0  0  0  0
   -8.2410   21.5416  -29.6030 H   0  0  0  0  0  0  0  0  0  0  0  0
   -9.0252   22.8001  -30.6168 H   0  0  0  0  0  0  0  0  0  0  0  0
   -9.6629   21.1208  -30.6168 H   0  0  0  0  0  0  0  0  0  0  0  0
  1  2  1  0
  2  3  1  0
  2  4  1  0
  4  5  1  0
  5  6  1  0
  6  7  1  0
  7  8  1  0
  8  9  2  0
  9 10  1  0
 10 11  2  0
 11 12  1  0
 12 13  2  0
 13 14  1  0
 14 15  2  0
 15 16  1  0
 16 17  2  0
 11 18  1  0
 18 19  1  0
 18  8  1  0
 17 12  1  0
  1 20  1  0
  1 21  1  0
  1 22  1  0
  3 23  1  0
  3 24  1  0
  3 25  1  0
  4 26  1  0
  4 27  1  0
  5 28  1  0
  5 29  1  0
  6 30  1  0
  6 31  1  0
 10 32  1  0
 13 33  1  0
 14 34  1  0
 15 35  1  0
 16 36  1  0
 17 37  1  0
 19 38  1  0
 19 39  1  0
 19 40  1  0
M  CHG  1  10   1
M  END
>  <UniqueID>  (6) 
6

>  <SMILES>  (6) 
CN(C)CCCSc1n[nH+]c(-c2ccccc2)n1C

>  <Energy>  (6) 
74.6818132541944

>  <Genealogy>  (6) 
CN(C)CCCSc1n[nH+]c(-c2ccccc2)n1C (protonated)
CN(C)CCCSc1n[nH+]c(-c2ccccc2)n1C (3D coordinates assigned)
CN(C)CCCSc1n[nH+]c(-c2ccccc2)n1C (optimized conformer: 74.6818132541944 kcal/mol)

>  <smiles>  (6) 
CN(C)CCCSc1nnc(-c2ccccc2)n1C

>  <score_type>  (6) 
oracle

>  <origin>  (6) 
adg

>  <m_score__min__energy>  (6) 
-7.0199999999999996

>  <m_primary>  (6) 
energy

$$$$
6:0
     RDKit          3D

 44 46  0  0  0  0  0  0  0  0999 V2000
   -3.8930   22.3620  -27.9040 C   0  0  0  0  0  0  0  0  0  0  0  0
   -3.0870   22.8880  -29.0880 C   0  0  0  0  0  0  0  0  0  0  0  0
   -3.1560   24.4190  -29.1690 C   0  0  0  0  0  0  0  0  0  0  0  0
   -3.6780   24.8530  -30.4730 N   0  0  0  0  0  0  0  0  0  0  0  0
   -5.0850   25.2920  -30.4070 C   0  0  0  0  0  0  0  0  0  0  0  0
   -5.9960   24.0620  -30.3740 C   0  0  0  0  0  0  0  0  0  0  0  0
   -6.8660   23.9260  -31.6350 C   0  0  0  0  0  0  0  0  0  0  0  0
   -7.3800   22.5070  -31.8240 C   0  0  0  0  0  0  0  0  0  0  0  0
   -8.7310   22.2830  -31.5260 C   0  0  0  0  0  0  0  0  0  0  0  0
   -9.2980   21.0270  -31.6780 C   0  0  0  0  0  0  0  0  0  0  0  0
   -8.5330   19.9590  -32.1340 C   0  0  0  0  0  0  0  0  0  0  0  0
   -7.1670   20.1260  -32.4630 C   0  0  0  0  0  0  0  0  0  0  0  0
   -6.5850   21.4250  -32.3130 C   0  0  0  0  0  0  0  0  0  0  0  0
   -5.2330   21.6080  -32.6650 C   0  0  0  0  0  0  0  0  0  0  0  0
   -4.4630   20.5550  -33.1370 C   0  0  0  0  0  0  0  0  0  0  0  0
   -5.0050   19.2770  -33.2770 C   0  0  0  0  0  0  0  0  0  0  0  0
   -4.2180   18.2620  -33.7420 N   0  0  0  0  0  0  0  0  0  0  0  0
   -4.6950   16.9980  -33.8970 C   0  0  0  0  0  0  0  0  0  0  0  0
   -3.9400   16.0870  -34.3270 O   0  0  0  0  0  0  0  0  0  0  0  0
   -6.0180   16.7100  -33.5790 C   0  0  0  0  0  0  0  0  0  0  0  0
   -6.8500   17.7220  -33.1050 C   0  0  0  0  0  0  0  0  0  0  0  0
   -6.3640   19.0420  -32.9410 C   0  0  0  0  0  0  0  0  0  0  0  0
   -3.4127   22.6754  -26.9653 H   0  0  0  0  0  0  0  0  0  0  0  0
   -4.9145   22.7678  -27.9466 H   0  0  0  0  0  0  0  0  0  0  0  0
   -3.9328   21.2635  -27.9466 H   0  0  0  0  0  0  0  0  0  0  0  0
   -2.0369   22.5817  -28.9718 H   0  0  0  0  0  0  0  0  0  0  0  0
   -3.5124   22.4704  -30.0125 H   0  0  0  0  0  0  0  0  0  0  0  0
   -3.8182   24.7921  -28.3738 H   0  0  0  0  0  0  0  0  0  0  0  0
   -2.1405   24.8233  -29.0450 H   0  0  0  0  0  0  0  0  0  0  0  0
   -3.0960   25.6640  -30.7910 H   0  0  0  0  0  0  0  0  0  0  0  0
   -5.2414   25.8900  -29.4971 H   0  0  0  0  0  0  0  0  0  0  0  0
   -5.3226   25.9039  -31.2897 H   0  0  0  0  0  0  0  0  0  0  0  0
   -5.3686   23.1632  -30.2821 H   0  0  0  0  0  0  0  0  0  0  0  0
   -6.6748   24.1776  -29.5162 H   0  0  0  0  0  0  0  0  0  0  0  0
   -7.7260   24.6063  -31.5479 H   0  0  0  0  0  0  0  0  0  0  0  0
   -6.2434   24.1800  -32.5056 H   0  0  0  0  0  0  0  0  0  0  0  0
   -9.3513   23.1169  -31.1658 H   0  0  0  0  0  0  0  0  0  0  0  0
  -10.3602   20.8742  -31.4363 H   0  0  0  0  0  0  0  0  0  0  0  0
   -8.9976   18.9677  -32.2407 H   0  0  0  0  0  0  0  0  0  0  0  0
   -4.7794   22.6050  -32.5636 H   0  0  0  0  0  0  0  0  0  0  0  0
   -3.4105   20.7301  -33.4046 H   0  0  0  0  0  0  0  0  0  0  0  0
   -3.2170   18.4490  -33.9870 H   0  0  0  0  0  0  0  0  0  0  0  0
   -6.4057   15.6879  -33.7012 H   0  0  0  0  0  0  0  0  0  0  0  0
   -7.8965   17.4931  -32.8553 H   0  0  0  0  0  0  0  0  0  0  0  0
  1  2  1  0
  2  3  1  0
  3  4  1  0
  4  5  1  0
  5  6  1  0
  6  7  1  0
  7  8  1  0
  8  9  2  0
  9 10  1  0
 10 11  2  0
 11 12  1  0
 12 13  2  0
 13 14  1  0
 14 15  2  0
 15 16  1  0
 16 17  1  0
 17 18  1  0
 18 19  2  0
 18 20  1  0
 20 21  2  0
 21 22  1  0
 13  8  1  0
 22 16  2  0
 22 12  1  0
  1 23  1  0
  1 24  1  0
  1 25  1  0
  2 26  1  0
  2 27  1  0
  3 28  1  0
  3 29  1  0
  4 30  1  0
  5 31  1  0
  5 32  1  0
  6 33  1  0
  6 34  1  0
  7 35  1  0
  7 36  1  0
  9 37  1  0
 10 38  1  0
 11 39  1  0
 14 40  1  0
 15 41  1  0
 17 42  1  0
 20 43  1  0
 21 44  1  0
M  END
>  <UniqueID>  (7) 
7

>  <SMILES>  (7) 
CCCNCCCc1cccc2c1ccc1[nH]c(=O)ccc12

>  <Energy>  (7) 
53.72872726036338

>  <Genealogy>  (7) 
CCCNCCCc1cccc2c1ccc1[nH]c(=O)ccc12 (3D coordinates assigned)
CCCNCCCc1cccc2c1ccc1[nH]c(=O)ccc12 (optimized conformer: 53.72872726036338 kcal/mol)

>  <smiles>  (7) 
CCCNCCCc1cccc2c1ccc1[nH]c(=O)ccc12

>  <score_type>  (7) 
oracle

>  <origin>  (7) 
adg

>  <m_score__min__energy>  (7) 
-9.3000000000000007

>  <m_primary>  (7) 
energy

$$$$
7:0
     RDKit          3D

 43 45  0  0  0  0  0  0  0  0999 V2000
   -6.0320   25.1890  -30.1400 C   0  0  0  0  0  0  0  0  0  0  0  0
   -6.4030   24.1420  -31.1850 C   0  0  0  0  0  0  0  0  0  0  0  0
   -5.2700   23.7980  -31.9600 O   0  0  0  0  0  0  0  0  0  0  0  0
   -4.3390   23.0380  -31.2100 C   0  0  0  0  0  0  0  0  0  0  0  0
   -3.4400   22.2020  -32.1350 C   0  0  0  0  0  0  0  0  0  0  0  0
   -4.1240   21.7790  -33.3740 N   0  0  0  0  0  0  0  0  0  0  0  0
   -4.5390   20.3800  -33.3200 C   0  0  0  0  0  0  0  0  0  0  0  0
   -3.6300   19.3530  -33.7030 C   0  0  0  0  0  0  0  0  0  0  0  0
   -2.3110   19.6460  -34.1400 C   0  0  0  0  0  0  0  0  0  0  0  0
   -1.4570   18.6400  -34.5810 C   0  0  0  0  0  0  0  0  0  0  0  0
   -1.8880   17.3240  -34.6120 C   0  0  0  0  0  0  0  0  0  0  0  0
   -3.1620   16.9980  -34.1590 C   0  0  0  0  0  0  0  0  0  0  0  0
   -4.0420   17.9920  -33.6530 C   0  0  0  0  0  0  0  0  0  0  0  0
   -5.2740   17.6550  -33.1360 N   0  0  0  0  0  0  0  0  0  0  0  0
   -5.5640   16.2470  -32.7790 C   0  0  0  0  0  0  0  0  0  0  0  0
   -6.2230   18.6300  -32.9120 C   0  0  0  0  0  0  0  0  0  0  0  0
   -7.5760   18.2860  -32.6590 C   0  0  0  0  0  0  0  0  0  0  0  0
   -8.5240   19.2550  -32.3500 C   0  0  0  0  0  0  0  0  0  0  0  0
   -8.1570   20.5900  -32.2930 C   0  0  0  0  0  0  0  0  0  0  0  0
   -9.4580   21.9140  -31.8330 Br  0  0  0  0  0  0  0  0  0  0  0  0
   -6.8500   20.9690  -32.5890 C   0  0  0  0  0  0  0  0  0  0  0  0
   -5.8630   20.0090  -32.9410 C   0  0  0  0  0  0  0  0  0  0  0  0
   -6.1802   24.7709  -29.1334 H   0  0  0  0  0  0  0  0  0  0  0  0
   -4.9776   25.4757  -30.2664 H   0  0  0  0  0  0  0  0  0  0  0  0
   -6.6707   26.0756  -30.2664 H   0  0  0  0  0  0  0  0  0  0  0  0
   -6.7827   23.2425  -30.6784 H   0  0  0  0  0  0  0  0  0  0  0  0
   -7.1770   24.5567  -31.8476 H   0  0  0  0  0  0  0  0  0  0  0  0
   -3.7111   23.7203  -30.6182 H   0  0  0  0  0  0  0  0  0  0  0  0
   -4.8941   22.3556  -30.5495 H   0  0  0  0  0  0  0  0  0  0  0  0
   -2.5608   22.8042  -32.4077 H   0  0  0  0  0  0  0  0  0  0  0  0
   -3.1586   21.2911  -31.5862 H   0  0  0  0  0  0  0  0  0  0  0  0
   -4.8950   22.4370  -33.6070 H   0  0  0  0  0  0  0  0  0  0  0  0
   -3.4830   21.9220  -34.1850 H   0  0  0  0  0  0  0  0  0  0  0  0
   -1.9579   20.6877  -34.1297 H   0  0  0  0  0  0  0  0  0  0  0  0
   -0.4364   18.8905  -34.9060 H   0  0  0  0  0  0  0  0  0  0  0  0
   -1.2224   16.5364  -34.9950 H   0  0  0  0  0  0  0  0  0  0  0  0
   -3.4947   15.9501  -34.1932 H   0  0  0  0  0  0  0  0  0  0  0  0
   -5.5854   16.1433  -31.6841 H   0  0  0  0  0  0  0  0  0  0  0  0
   -6.5407   15.9572  -33.1939 H   0  0  0  0  0  0  0  0  0  0  0  0
   -4.7813   15.5949  -33.1939 H   0  0  0  0  0  0  0  0  0  0  0  0
   -7.8814   17.2304  -32.7084 H   0  0  0  0  0  0  0  0  0  0  0  0
   -9.5653   18.9619  -32.1508 H   0  0  0  0  0  0  0  0  0  0  0  0
   -6.5759   22.0336  -32.5495 H   0  0  0  0  0  0  0  0  0  0  0  0
  1  2  1  0
  2  3  1  0
  3  4  1  0
  4  5  1  0
  5  6  1  0
  6  7  1  0
  7  8  2  0
  8  9  1  0
  9 10  2  0
 10 11  1  0
 11 12  2  0
 12 13  1  0
 13 14  2  0
 14 15  1  0
 14 16  1  0
 16 17  2  0
 17 18  1  0
 18 19  2  0
 19 20  1  0
 19 21  1  0
 21 22  2  0
 22  7  1  0
 13  8  1  0
 22 16  1  0
  1 23  1  0
  1 24  1  0
  1 25  1  0
  2 26  1  0
  2 27  1  0
  4 28  1  0
  4 29  1  0
  5 30  1  0
  5 31  1  0
  6 32  1  0
  6 33  1  0
  9 34  1  0
 10 35  1  0
 11 36  1  0
 12 37  1  0
 15 38  1  0
 15 39  1  0
 15 40  1  0
 17 41  1  0
 18 42  1  0
 21 43  1  0
M  CHG  2   6   1  14   1
M  END
>  <UniqueID>  (8) 
8

>  <SMILES>  (8) 
CCOCC[NH2+]c1c2ccccc2[n+](C)c2ccc(Br)cc12

>  <Energy>  (8) 
74.56023534400998

>  <Genealogy>  (8) 
CCOCC[NH2+]c1c2ccccc2[n+](C)c2ccc(Br)cc12 (protonated)
CCOCC[NH2+]c1c2ccccc2[n+](C)c2ccc(Br)cc12 (3D coordinates assigned)
CCOCC[NH2+]c1c2ccccc2[n+](C)c2ccc(Br)cc12 (optimized conformer: 74.56023534400998 kcal/mol)

>  <smiles>  (8) 
CCOCCNc1c2ccccc2[n+](C)c2ccc(Br)cc12

>  <score_type>  (8) 
oracle

>  <origin>  (8) 
adg

>  <m_score__min__energy>  (8) 
-7.4400000000000004

>  <m_primary>  (8) 
energy

$$$$
8:0
     RDKit          3D

 41 42  0  0  0  0  0  0  0  0999 V2000
   -6.6570   24.9870  -29.8530 C   0  0  0  0  0  0  0  0  0  0  0  0
   -5.3290   25.3490  -30.5100 C   0  0  0  0  0  0  0  0  0  0  0  0
   -4.6210   24.1730  -30.9040 O   0  0  0  0  0  0  0  0  0  0  0  0
   -3.9580   23.2850  -30.0390 C   0  0  0  0  0  0  0  0  0  0  0  0
   -4.2200   23.2410  -28.6550 C   0  0  0  0  0  0  0  0  0  0  0  0
   -3.5350   22.3420  -27.8360 C   0  0  0  0  0  0  0  0  0  0  0  0
   -2.5800   21.4850  -28.3820 C   0  0  0  0  0  0  0  0  0  0  0  0
   -2.3070   21.5220  -29.7500 C   0  0  0  0  0  0  0  0  0  0  0  0
   -2.9960   22.4210  -30.5900 C   0  0  0  0  0  0  0  0  0  0  0  0
   -2.7540   22.4940  -31.9740 O   0  0  0  0  0  0  0  0  0  0  0  0
   -2.6570   21.3770  -32.8560 C   0  0  0  0  0  0  0  0  0  0  0  0
   -4.0330   20.7160  -33.0400 C   0  0  0  0  0  0  0  0  0  0  0  0
   -5.1470   21.6480  -32.7790 N   0  0  0  0  0  0  0  0  0  0  0  0
   -6.3750   20.9540  -32.4440 C   0  0  0  0  0  0  0  0  0  0  0  0
   -6.3430   19.5550  -32.2630 C   0  0  0  0  0  0  0  0  0  0  0  0
   -7.4910   18.8540  -31.8950 C   0  0  0  0  0  0  0  0  0  0  0  0
   -8.6860   19.5340  -31.6780 C   0  0  0  0  0  0  0  0  0  0  0  0
   -8.7380   20.9200  -31.8240 C   0  0  0  0  0  0  0  0  0  0  0  0
   -7.5970   21.6460  -32.2100 C   0  0  0  0  0  0  0  0  0  0  0  0
   -7.6980   23.0740  -32.3270 N   0  0  0  0  0  0  0  0  0  0  0  0
   -8.8190   23.6220  -32.2900 O   0  0  0  0  0  0  0  0  0  0  0  0
   -6.6130   23.8170  -32.7300 O   0  0  0  0  0  0  0  0  0  0  0  0
   -6.5452   25.0175  -28.7591 H   0  0  0  0  0  0  0  0  0  0  0  0
   -7.4280   25.7078  -30.1630 H   0  0  0  0  0  0  0  0  0  0  0  0
   -6.9556   23.9747  -30.1630 H   0  0  0  0  0  0  0  0  0  0  0  0
   -5.5230   25.9678  -31.3985 H   0  0  0  0  0  0  0  0  0  0  0  0
   -4.7159   25.9031  -29.7840 H   0  0  0  0  0  0  0  0  0  0  0  0
   -4.9682   23.9186  -28.2179 H   0  0  0  0  0  0  0  0  0  0  0  0
   -3.7489   22.3095  -26.7575 H   0  0  0  0  0  0  0  0  0  0  0  0
   -2.0411   20.7787  -27.7334 H   0  0  0  0  0  0  0  0  0  0  0  0
   -1.5503   20.8463  -30.1753 H   0  0  0  0  0  0  0  0  0  0  0  0
   -2.2857   21.7186  -33.8335 H   0  0  0  0  0  0  0  0  0  0  0  0
   -1.9634   20.6409  -32.4234 H   0  0  0  0  0  0  0  0  0  0  0  0
   -4.1135   20.3509  -34.0745 H   0  0  0  0  0  0  0  0  0  0  0  0
   -4.1084   19.8932  -32.3138 H   0  0  0  0  0  0  0  0  0  0  0  0
   -4.8830   22.2460  -31.9610 H   0  0  0  0  0  0  0  0  0  0  0  0
   -5.2620   22.2970  -33.5880 H   0  0  0  0  0  0  0  0  0  0  0  0
   -5.3996   19.0099  -32.4142 H   0  0  0  0  0  0  0  0  0  0  0  0
   -7.4521   17.7612  -31.7759 H   0  0  0  0  0  0  0  0  0  0  0  0
   -9.5904   18.9775  -31.3910 H   0  0  0  0  0  0  0  0  0  0  0  0
   -9.6824   21.4515  -31.6351 H   0  0  0  0  0  0  0  0  0  0  0  0
  1  2  1  0
  2  3  1  0
  3  4  1  0
  4  5  2  0
  5  6  1  0
  6  7  2  0
  7  8  1  0
  8  9  2  0
  9 10  1  0
 10 11  1  0
 11 12  1  0
 12 13  1  0
 13 14  1  0
 14 15  2  0
 15 16  1  0
 16 17  2  0
 17 18  1  0
 18 19  2  0
 19 20  1  0
 20 21  2  0
 20 22  1  0
  9  4  1  0
 19 14  1  0
  1 23  1  0
  1 24  1  0
  1 25  1  0
  2 26  1  0
  2 27  1  0
  5 28  1  0
  6 29  1  0
  7 30  1  0
  8 31  1  0
 11 32  1  0
 11 33  1  0
 12 34  1  0
 12 35  1  0
 13 36  1  0
 13 37  1  0
 15 38  1  0
 16 39  1  0
 17 40  1  0
 18 41  1  0
M  CHG  3  13   1  20   1  22  -1
M  END
>  <UniqueID>  (9) 
9

>  <SMILES>  (9) 
CCOc1ccccc1OCC[NH2+]c1ccccc1[N+](=O)[O-]

>  <Energy>  (9) 
46.869759193174644

>  <Genealogy>  (9) 
CCOc1ccccc1OCC[NH2+]c1ccccc1[N+](=O)[O-] (protonated)
CCOc1ccccc1OCC[NH2+]c1ccccc1[N+](=O)[O-] (3D coordinates assigned)
CCOc1ccccc1OCC[NH2+]c1ccccc1[N+](=O)[O-] (optimized conformer: 46.869759193174644 kcal/mol)

>  <smiles>  (9) 
CCOc1ccccc1OCCNc1ccccc1[N+](=O)[O-]

>  <score_type>  (9) 
oracle

>  <origin>  (9) 
adg

>  <m_score__min__energy>  (9) 
-7.25

>  <m_primary>  (9) 
energy

$$$$
9:0
     RDKit          3D

 54 57  0  0  0  0  0  0  0  0999 V2000
   -1.7330   24.9330  -28.1520 C   0  0  0  0  0  0  0  0  0  0  0  0
   -3.1280   24.3180  -28.2340 C   0  0  0  0  0  0  0  0  0  0  0  0
   -3.3110   23.6050  -29.5140 N   0  0  0  0  0  0  0  0  0  0  0  0
   -2.2040   22.9590  -30.0210 C   0  0  0  0  0  0  0  0  0  0  0  0
   -2.3190   22.2730  -31.2120 C   0  0  0  0  0  0  0  0  0  0  0  0
   -1.4620   21.5520  -32.0000 C   0  0  0  0  0  0  0  0  0  0  0  0
   -0.2420   21.3350  -31.7670 O   0  0  0  0  0  0  0  0  0  0  0  0
   -2.1300   21.1120  -33.0950 N   0  0  0  0  0  0  0  0  0  0  0  0
   -1.5590   20.3560  -34.2090 C   0  0  0  0  0  0  0  0  0  0  0  0
   -1.5590   18.8550  -33.9080 C   0  0  0  0  0  0  0  0  0  0  0  0
   -2.7260   18.4940  -33.0940 N   0  0  0  0  0  0  0  0  0  0  0  0
   -3.6770   17.7020  -33.8820 C   0  0  0  0  0  0  0  0  0  0  0  0
   -4.8560   18.5740  -34.3490 C   0  0  0  0  0  0  0  0  0  0  0  0
   -5.1900   19.6530  -33.4010 N   0  0  0  0  0  0  0  0  0  0  0  0
   -6.5150   19.4890  -32.8510 C   0  0  0  0  0  0  0  0  0  0  0  0
   -6.8330   18.3570  -32.0780 C   0  0  0  0  0  0  0  0  0  0  0  0
   -8.1290   18.1810  -31.5830 C   0  0  0  0  0  0  0  0  0  0  0  0
   -9.1170   19.1320  -31.8510 C   0  0  0  0  0  0  0  0  0  0  0  0
   -8.8100   20.2620  -32.6130 C   0  0  0  0  0  0  0  0  0  0  0  0
   -7.5160   20.4430  -33.1110 C   0  0  0  0  0  0  0  0  0  0  0  0
   -3.3950   21.5260  -33.0630 N   0  0  0  0  0  0  0  0  0  0  0  0
   -3.5470   22.2340  -31.9240 C   0  0  0  0  0  0  0  0  0  0  0  0
   -4.6630   22.8990  -31.4430 C   0  0  0  0  0  0  0  0  0  0  0  0
   -5.8780   22.8920  -32.1430 C   0  0  0  0  0  0  0  0  0  0  0  0
   -6.9760   23.5870  -31.6390 C   0  0  0  0  0  0  0  0  0  0  0  0
   -8.1490   23.5820  -32.3180 F   0  0  0  0  0  0  0  0  0  0  0  0
   -6.8660   24.2940  -30.4420 C   0  0  0  0  0  0  0  0  0  0  0  0
   -5.6620   24.3100  -29.7320 C   0  0  0  0  0  0  0  0  0  0  0  0
   -4.5270   23.6080  -30.2050 C   0  0  0  0  0  0  0  0  0  0  0  0
   -1.4489   25.0582  -27.0967 H   0  0  0  0  0  0  0  0  0  0  0  0
   -1.0102   24.2701  -28.6501 H   0  0  0  0  0  0  0  0  0  0  0  0
   -1.7348   25.9138  -28.6501 H   0  0  0  0  0  0  0  0  0  0  0  0
   -3.2589   23.6084  -27.4037 H   0  0  0  0  0  0  0  0  0  0  0  0
   -3.8736   25.1241  -28.1691 H   0  0  0  0  0  0  0  0  0  0  0  0
   -1.2443   22.9901  -29.4844 H   0  0  0  0  0  0  0  0  0  0  0  0
   -2.1562   20.5418  -35.1139 H   0  0  0  0  0  0  0  0  0  0  0  0
   -0.5200   20.6840  -34.3601 H   0  0  0  0  0  0  0  0  0  0  0  0
   -1.5911   18.2959  -34.8548 H   0  0  0  0  0  0  0  0  0  0  0  0
   -0.6447   18.6040  -33.3502 H   0  0  0  0  0  0  0  0  0  0  0  0
   -3.2110   19.3770  -32.8110 H   0  0  0  0  0  0  0  0  0  0  0  0
   -3.1617   17.2902  -34.7622 H   0  0  0  0  0  0  0  0  0  0  0  0
   -4.0666   16.8885  -33.2524 H   0  0  0  0  0  0  0  0  0  0  0  0
   -4.5944   19.0270  -35.3166 H   0  0  0  0  0  0  0  0  0  0  0  0
   -5.7373   17.9200  -34.4245 H   0  0  0  0  0  0  0  0  0  0  0  0
   -5.1480   20.5670  -33.9090 H   0  0  0  0  0  0  0  0  0  0  0  0
   -4.4750   19.6970  -32.6380 H   0  0  0  0  0  0  0  0  0  0  0  0
   -6.0582   17.6067  -31.8620 H   0  0  0  0  0  0  0  0  0  0  0  0
   -8.3710   17.2923  -30.9816 H   0  0  0  0  0  0  0  0  0  0  0  0
  -10.1363   18.9910  -31.4621 H   0  0  0  0  0  0  0  0  0  0  0  0
   -9.5880   21.0111  -32.8217 H   0  0  0  0  0  0  0  0  0  0  0  0
   -7.2795   21.3355  -33.7089 H   0  0  0  0  0  0  0  0  0  0  0  0
   -5.9645   22.3382  -33.0895 H   0  0  0  0  0  0  0  0  0  0  0  0
   -7.7352   24.8445  -30.0527 H   0  0  0  0  0  0  0  0  0  0  0  0
   -5.5953   24.8766  -28.7915 H   0  0  0  0  0  0  0  0  0  0  0  0
  1  2  1  0
  2  3  1  0
  3  4  1  0
  4  5  2  0
  5  6  1  0
  6  7  2  0
  6  8  1  0
  8  9  1  0
  9 10  1  0
 10 11  1  0
 11 12  1  0
 12 13  1  0
 13 14  1  0
 14 15  1  0
 15 16  2  0
 16 17  1  0
 17 18  2  0
 18 19  1  0
 19 20  2  0
  8 21  1  0
 21 22  2  0
 22 23  1  0
 23 24  2  0
 24 25  1  0
 25 26  1  0
 25 27  2  0
 27 28  1  0
 28 29  2  0
 29  3  1  0
 22  5  1  0
 29 23  1  0
 20 15  1  0
  1 30  1  0
  1 31  1  0
  1 32  1  0
  2 33  1  0
  2 34  1  0
  4 35  1  0
  9 36  1  0
  9 37  1  0
 10 38  1  0
 10 39  1  0
 11 40  1  0
 12 41  1  0
 12 42  1  0
 13 43  1  0
 13 44  1  0
 14 45  1  0
 14 46  1  0
 16 47  1  0
 17 48  1  0
 18 49  1  0
 19 50  1  0
 20 51  1  0
 24 52  1  0
 27 53  1  0
 28 54  1  0
M  CHG  1  14   1
M  END
>  <UniqueID>  (10) 
10

>  <SMILES>  (10) 
CCn1cc2c(=O)n(CCNCC[NH2+]c3ccccc3)nc-2c2cc(F)ccc21

>  <Energy>  (10) 
100.34541990511829

>  <Genealogy>  (10) 
CCn1cc2c(=O)n(CCNCC[NH2+]c3ccccc3)nc-2c2cc(F)ccc21 (protonated)
CCn1cc2c(=O)n(CCNCC[NH2+]c3ccccc3)nc-2c2cc(F)ccc21 (3D coordinates assigned)
CCn1cc2c(=O)n(CCNCC[NH2+]c3ccccc3)nc-2c2cc(F)ccc21 (optimized conformer: 100.34541990511829 kcal/mol)

>  <smiles>  (10) 
CCn1cc2c(=O)n(CCNCCNc3ccccc3)nc-2c2cc(F)ccc21

>  <score_type>  (10) 
oracle

>  <origin>  (10) 
adg

>  <m_score__min__energy>  (10) 
-7.5

>  <m_primary>  (10) 
energy

$$$$
10:0
     RDKit          3D

 74 78  0  0  0  0  0  0  0  0999 V2000
   -1.6400   19.3760  -27.1280 C   0  0  0  0  0  0  0  0  0  0  0  0
   -0.6100   20.1250  -27.7620 O   0  0  0  0  0  0  0  0  0  0  0  0
   -0.8420   21.4150  -28.2520 C   0  0  0  0  0  0  0  0  0  0  0  0
   -1.1110   21.6020  -29.6240 C   0  0  0  0  0  0  0  0  0  0  0  0
   -1.1550   20.4630  -30.5080 N   0  0  0  0  0  0  0  0  0  0  0  0
   -0.2210   20.2400  -31.6160 C   0  0  0  0  0  0  0  0  0  0  0  0
   -0.3620   21.3400  -32.6830 C   0  0  0  0  0  0  0  0  0  0  0  0
   -0.9760   20.8470  -33.9310 N   0  0  0  0  0  0  0  0  0  0  0  0
   -2.2990   20.3160  -33.6890 C   0  0  0  0  0  0  0  0  0  0  0  0
   -2.5620   18.9490  -33.8270 C   0  0  0  0  0  0  0  0  0  0  0  0
   -3.8530   18.4530  -33.6430 C   0  0  0  0  0  0  0  0  0  0  0  0
   -4.9360   19.3140  -33.3300 C   0  0  0  0  0  0  0  0  0  0  0  0
   -4.6530   20.6900  -33.1300 C   0  0  0  0  0  0  0  0  0  0  0  0
   -3.3430   21.1730  -33.3240 C   0  0  0  0  0  0  0  0  0  0  0  0
   -5.6840   21.5590  -32.7380 C   0  0  0  0  0  0  0  0  0  0  0  0
   -5.4110   22.9530  -32.5410 N   0  0  0  0  0  0  0  0  0  0  0  0
   -4.7580   23.4140  -31.3170 C   0  0  0  0  0  0  0  0  0  0  0  0
   -4.9160   22.3900  -30.1860 C   0  0  0  0  0  0  0  0  0  0  0  0
   -5.1260   23.0710  -28.8890 N   0  0  0  0  0  0  0  0  0  0  0  0
   -4.1760   22.5880  -27.8730 C   0  0  0  0  0  0  0  0  0  0  0  0
   -4.9940   24.5290  -29.0390 C   0  0  0  0  0  0  0  0  0  0  0  0
   -6.9590   21.0430  -32.4610 C   0  0  0  0  0  0  0  0  0  0  0  0
   -7.9810   21.8790  -31.9620 C   0  0  0  0  0  0  0  0  0  0  0  0
   -9.2300   21.3560  -31.6390 C   0  0  0  0  0  0  0  0  0  0  0  0
   -9.4760   19.9970  -31.7870 C   0  0  0  0  0  0  0  0  0  0  0  0
   -8.4820   19.1530  -32.2830 C   0  0  0  0  0  0  0  0  0  0  0  0
   -7.2130   19.6600  -32.6650 C   0  0  0  0  0  0  0  0  0  0  0  0
   -6.2330   18.8460  -33.2060 N   0  0  0  0  0  0  0  0  0  0  0  0
   -6.5760   17.4840  -33.6750 C   0  0  0  0  0  0  0  0  0  0  0  0
   -1.3730   22.8980  -30.1030 C   0  0  0  0  0  0  0  0  0  0  0  0
   -1.3290   23.9980  -29.2440 C   0  0  0  0  0  0  0  0  0  0  0  0
   -1.0510   23.8230  -27.8830 C   0  0  0  0  0  0  0  0  0  0  0  0
   -1.0190   24.9270  -27.0190 C   0  0  0  0  0  0  0  0  0  0  0  0
   -0.7620   24.7480  -25.6580 C   0  0  0  0  0  0  0  0  0  0  0  0
   -0.5400   23.4660  -25.1490 C   0  0  0  0  0  0  0  0  0  0  0  0
   -0.5680   22.3570  -25.9980 C   0  0  0  0  0  0  0  0  0  0  0  0
   -0.8170   22.5210  -27.3760 C   0  0  0  0  0  0  0  0  0  0  0  0
   -1.5317   19.4548  -26.0362 H   0  0  0  0  0  0  0  0  0  0  0  0
   -2.6206   19.7734  -27.4288 H   0  0  0  0  0  0  0  0  0  0  0  0
   -1.5642   18.3206  -27.4288 H   0  0  0  0  0  0  0  0  0  0  0  0
   -1.7360   19.6400  -30.2240 H   0  0  0  0  0  0  0  0  0  0  0  0
    0.8077   20.2458  -31.2265 H   0  0  0  0  0  0  0  0  0  0  0  0
   -0.4509   19.2693  -32.0795 H   0  0  0  0  0  0  0  0  0  0  0  0
   -0.9900   22.1464  -32.2764 H   0  0  0  0  0  0  0  0  0  0  0  0
    0.6492   21.6967  -32.9284 H   0  0  0  0  0  0  0  0  0  0  0  0
   -0.3750   20.0850  -34.3190 H   0  0  0  0  0  0  0  0  0  0  0  0
   -1.0080   21.5980  -34.6570 H   0  0  0  0  0  0  0  0  0  0  0  0
   -1.7441   18.2593  -34.0827 H   0  0  0  0  0  0  0  0  0  0  0  0
   -4.0347   17.3727  -33.7426 H   0  0  0  0  0  0  0  0  0  0  0  0
   -3.1375   22.2447  -33.1857 H   0  0  0  0  0  0  0  0  0  0  0  0
   -5.8130   23.6330  -33.2290 H   0  0  0  0  0  0  0  0  0  0  0  0
   -3.6870   23.5659  -31.5168 H   0  0  0  0  0  0  0  0  0  0  0  0
   -5.2308   24.3563  -31.0030 H   0  0  0  0  0  0  0  0  0  0  0  0
   -5.7819   21.7463  -30.4002 H   0  0  0  0  0  0  0  0  0  0  0  0
   -3.9980   21.7871  -30.1242 H   0  0  0  0  0  0  0  0  0  0  0  0
   -4.5773   22.7920  -26.8694 H   0  0  0  0  0  0  0  0  0  0  0  0
   -4.0275   21.5050  -27.9953 H   0  0  0  0  0  0  0  0  0  0  0  0
   -3.2134   23.1062  -27.9953 H   0  0  0  0  0  0  0  0  0  0  0  0
   -4.9516   24.9975  -28.0447 H   0  0  0  0  0  0  0  0  0  0  0  0
   -4.0714   24.7587  -29.5922 H   0  0  0  0  0  0  0  0  0  0  0  0
   -5.8604   24.9206  -29.5922 H   0  0  0  0  0  0  0  0  0  0  0  0
   -7.7887   22.9536  -31.8271 H   0  0  0  0  0  0  0  0  0  0  0  0
  -10.0235   22.0202  -31.2659 H   0  0  0  0  0  0  0  0  0  0  0  0
  -10.4581   19.5847  -31.5121 H   0  0  0  0  0  0  0  0  0  0  0  0
   -8.6855   18.0763  -32.3796 H   0  0  0  0  0  0  0  0  0  0  0  0
   -6.7412   16.8282  -32.8074 H   0  0  0  0  0  0  0  0  0  0  0  0
   -7.4918   17.5253  -34.2830 H   0  0  0  0  0  0  0  0  0  0  0  0
   -5.7499   17.0867  -34.2830 H   0  0  0  0  0  0  0  0  0  0  0  0
   -1.6152   23.0468  -31.1657 H   0  0  0  0  0  0  0  0  0  0  0  0
   -1.5138   25.0079  -29.6389 H   0  0  0  0  0  0  0  0  0  0  0  0
   -1.1970   25.9378  -27.4147 H   0  0  0  0  0  0  0  0  0  0  0  0
   -0.7343   25.6180  -24.9855 H   0  0  0  0  0  0  0  0  0  0  0  0
   -0.3424   23.3294  -24.0756 H   0  0  0  0  0  0  0  0  0  0  0  0
   -0.3949   21.3505  -25.5893 H   0  0  0  0  0  0  0  0  0  0  0  0
  1  2  1  0
  2  3  1  0
  3  4  2  0
  4  5  1  0
  5  6  1  0
  6  7  1  0
  7  8  1  0
  8  9  1  0
  9 10  2  0
 10 11  1  0
 11 12  2  0
 12 13  1  0
 13 14  2  0
 13 15  1  0
 15 16  1  0
 16 17  1  0
 17 18  1  0
 18 19  1  0
 19 20  1  0
 19 21  1  0
 15 22  2  0
 22 23  1  0
 23 24  2  0
 24 25  1  0
 25 26  2  0
 26 27  1  0
 27 28  2  0
 28 29  1  0
  4 30  1  0
 30 31  2  0
 31 32  1  0
 32 33  2  0
 33 34  1  0
 34 35  2  0
 35 36  1  0
 36 37  2  0
 37  3  1  0
 14  9  1  0
 27 22  1  0
 37 32  1  0
 28 12  1  0
  1 38  1  0
  1 39  1  0
  1 40  1  0
  5 41  1  0
  6 42  1  0
  6 43  1  0
  7 44  1  0
  7 45  1  0
  8 46  1  0
  8 47  1  0
 10 48  1  0
 11 49  1  0
 14 50  1  0
 16 51  1  0
 17 52  1  0
 17 53  1  0
 18 54  1  0
 18 55  1  0
 20 56  1  0
 20 57  1  0
 20 58  1  0
 21 59  1  0
 21 60  1  0
 21 61  1  0
 23 62  1  0
 24 63  1  0
 25 64  1  0
 26 65  1  0
 29 66  1  0
 29 67  1  0
 29 68  1  0
 30 69  1  0
 31 70  1  0
 33 71  1  0
 34 72  1  0
 35 73  1  0
 36 74  1  0
M  CHG  2   8   1  28   1
M  END
>  <UniqueID>  (11) 
11

>  <SMILES>  (11) 
COc1c(NCC[NH2+]c2ccc3c(c2)c(NCCN(C)C)c2ccccc2[n+]3C)ccc2ccccc12

>  <Energy>  (11) 
115.00867515034062

>  <Genealogy>  (11) 
COc1c(NCC[NH2+]c2ccc3c(c2)c(NCCN(C)C)c2ccccc2[n+]3C)ccc2ccccc12 (protonated)
COc1c(NCC[NH2+]c2ccc3c(c2)c(NCCN(C)C)c2ccccc2[n+]3C)ccc2ccccc12 (3D coordinates assigned)
COc1c(NCC[NH2+]c2ccc3c(c2)c(NCCN(C)C)c2ccccc2[n+]3C)ccc2ccccc12 (optimized conformer: 115.00867515034062 kcal/mol)

>  <smiles>  (11) 
COc1c(NCCNc2ccc3c(c2)c(NCCN(C)C)c2ccccc2[n+]3C)ccc2ccccc12

>  <score_type>  (11) 
oracle

>  <origin>  (11) 
adg

>  <m_score__min__energy>  (11) 
-9.3900000000000006

>  <m_primary>  (11) 
energy

$$$$
11:0
     RDKit          3D

 42 44  0  0  0  0  0  0  0  0999 V2000
   -9.8670   21.5490  -31.7350 C   0  0  0  0  0  0  0  0  0  0  0  0
   -8.9100   20.4740  -31.2340 C   0  0  0  0  0  0  0  0  0  0  0  0
   -7.7070   20.4300  -32.0710 N   0  0  0  0  0  0  0  0  0  0  0  0
   -6.9320   21.4700  -32.4990 C   0  0  0  0  0  0  0  0  0  0  0  0
   -7.1470   22.9180  -32.1360 C   0  0  0  0  0  0  0  0  0  0  0  0
   -5.9560   23.7400  -32.4090 N   0  0  0  0  0  0  0  0  0  0  0  0
   -5.1670   24.0340  -31.1990 C   0  0  0  0  0  0  0  0  0  0  0  0
   -4.7710   22.7390  -30.4830 C   0  0  0  0  0  0  0  0  0  0  0  0
   -3.7460   21.9660  -31.2610 C   0  0  0  0  0  0  0  0  0  0  0  0
   -3.0200   20.9250  -30.6600 C   0  0  0  0  0  0  0  0  0  0  0  0
   -2.1160   20.1890  -31.4290 C   0  0  0  0  0  0  0  0  0  0  0  0
   -1.9460   20.4930  -32.7810 C   0  0  0  0  0  0  0  0  0  0  0  0
   -2.6840   21.5340  -33.3460 C   0  0  0  0  0  0  0  0  0  0  0  0
   -3.5620   22.2390  -32.5830 N   0  0  0  0  0  0  0  0  0  0  0  0
   -5.9400   21.0680  -33.3310 N   0  0  0  0  0  0  0  0  0  0  0  0
   -6.1080   19.7400  -33.4380 C   0  0  0  0  0  0  0  0  0  0  0  0
   -5.3700   18.8400  -34.2020 C   0  0  0  0  0  0  0  0  0  0  0  0
   -5.7630   17.4890  -34.1780 C   0  0  0  0  0  0  0  0  0  0  0  0
   -6.8740   17.0800  -33.4060 C   0  0  0  0  0  0  0  0  0  0  0  0
   -7.6010   18.0190  -32.6490 C   0  0  0  0  0  0  0  0  0  0  0  0
   -7.1790   19.3500  -32.6850 C   0  0  0  0  0  0  0  0  0  0  0  0
  -10.3240   22.0623  -30.8761 H   0  0  0  0  0  0  0  0  0  0  0  0
   -9.3131   22.2775  -32.3453 H   0  0  0  0  0  0  0  0  0  0  0  0
  -10.6547   21.0831  -32.3453 H   0  0  0  0  0  0  0  0  0  0  0  0
   -8.6218   20.7002  -30.1968 H   0  0  0  0  0  0  0  0  0  0  0  0
   -9.4139   19.4974  -31.2820 H   0  0  0  0  0  0  0  0  0  0  0  0
   -7.9905   23.3095  -32.7235 H   0  0  0  0  0  0  0  0  0  0  0  0
   -7.3543   22.9697  -31.0569 H   0  0  0  0  0  0  0  0  0  0  0  0
   -5.3520   23.2440  -33.1060 H   0  0  0  0  0  0  0  0  0  0  0  0
   -4.2567   24.5811  -31.4856 H   0  0  0  0  0  0  0  0  0  0  0  0
   -5.7790   24.6424  -30.5169 H   0  0  0  0  0  0  0  0  0  0  0  0
   -4.3548   22.9901  -29.4962 H   0  0  0  0  0  0  0  0  0  0  0  0
   -5.6701   22.1131  -30.3837 H   0  0  0  0  0  0  0  0  0  0  0  0
   -3.1619   20.6917  -29.5944 H   0  0  0  0  0  0  0  0  0  0  0  0
   -1.5394   19.3720  -30.9707 H   0  0  0  0  0  0  0  0  0  0  0  0
   -1.2373   19.9177  -33.3948 H   0  0  0  0  0  0  0  0  0  0  0  0
   -2.5555   21.7846  -34.4093 H   0  0  0  0  0  0  0  0  0  0  0  0
   -5.2220   21.6600  -33.8060 H   0  0  0  0  0  0  0  0  0  0  0  0
   -4.5107   19.1730  -34.8027 H   0  0  0  0  0  0  0  0  0  0  0  0
   -5.2018   16.7463  -34.7640 H   0  0  0  0  0  0  0  0  0  0  0  0
   -7.1728   16.0214  -33.3964 H   0  0  0  0  0  0  0  0  0  0  0  0
   -8.4717   17.7145  -32.0497 H   0  0  0  0  0  0  0  0  0  0  0  0
  1  2  1  0
  2  3  1  0
  3  4  1  0
  4  5  1  0
  5  6  1  0
  6  7  1  0
  7  8  1  0
  8  9  1  0
  9 10  2  0
 10 11  1  0
 11 12  2  0
 12 13  1  0
 13 14  2  0
  4 15  2  0
 15 16  1  0
 16 17  2  0
 17 18  1  0
 18 19  2  0
 19 20  1  0
 20 21  2  0
 21  3  1  0
 14  9  1  0
 21 16  1  0
  1 22  1  0
  1 23  1  0
  1 24  1  0
  2 25  1  0
  2 26  1  0
  5 27  1  0
  5 28  1  0
  6 29  1  0
  7 30  1  0
  7 31  1  0
  8 32  1  0
  8 33  1  0
 10 34  1  0
 11 35  1  0
 12 36  1  0
 13 37  1  0
 15 38  1  0
 17 39  1  0
 18 40  1  0
 19 41  1  0
 20 42  1  0
M  CHG  1  15   1
M  END
>  <UniqueID>  (12) 
12

>  <SMILES>  (12) 
CCn1c(CNCCc2ccccn2)[nH+]c2ccccc21

>  <Energy>  (12) 
77.18494487187697

>  <Genealogy>  (12) 
CCn1c(CNCCc2ccccn2)[nH+]c2ccccc21 (protonated)
CCn1c(CNCCc2ccccn2)[nH+]c2ccccc21 (3D coordinates assigned)
CCn1c(CNCCc2ccccn2)[nH+]c2ccccc21 (optimized conformer: 77.18494487187697 kcal/mol)

>  <smiles>  (12) 
CCn1c(CNCCc2ccccn2)nc2ccccc21

>  <score_type>  (12) 
oracle

>  <origin>  (12) 
adg

>  <m_score__min__energy>  (12) 
-6.9900000000000002

>  <m_primary>  (12) 
energy

$$$$
12:0
     RDKit          3D

 55 57  0  0  0  0  0  0  0  0999 V2000
   -2.0070   26.1710  -25.5110 C   0  0  0  0  0  0  0  0  0  0  0  0
   -2.2160   25.1300  -26.6260 C   0  0  0  0  0  0  0  0  0  0  0  0
   -1.4770   25.5820  -27.8950 C   0  0  0  0  0  0  0  0  0  0  0  0
   -3.6580   24.9220  -26.9090 N   0  0  0  0  0  0  0  0  0  0  0  0
   -3.9870   23.5120  -27.2200 C   0  0  0  0  0  0  0  0  0  0  0  0
   -4.5670   23.3380  -28.6350 C   0  0  0  0  0  0  0  0  0  0  0  0
   -5.2950   24.5380  -29.0740 N   0  0  0  0  0  0  0  0  0  0  0  0
   -5.8120   24.3830  -30.4390 C   0  0  0  0  0  0  0  0  0  0  0  0
   -4.8600   23.5120  -31.2590 C   0  0  0  0  0  0  0  0  0  0  0  0
   -5.5400   22.9590  -32.4300 N   0  0  0  0  0  0  0  0  0  0  0  0
   -5.5780   21.5450  -32.6830 C   0  0  0  0  0  0  0  0  0  0  0  0
   -4.4190   20.8630  -33.0930 C   0  0  0  0  0  0  0  0  0  0  0  0
   -3.1710   21.5200  -33.1360 C   0  0  0  0  0  0  0  0  0  0  0  0
   -2.0180   20.8320  -33.5050 C   0  0  0  0  0  0  0  0  0  0  0  0
   -2.0840   19.4780  -33.8140 C   0  0  0  0  0  0  0  0  0  0  0  0
   -3.3050   18.8060  -33.7710 C   0  0  0  0  0  0  0  0  0  0  0  0
   -4.5030   19.4860  -33.4350 C   0  0  0  0  0  0  0  0  0  0  0  0
   -5.7250   18.8400  -33.4120 N   0  0  0  0  0  0  0  0  0  0  0  0
   -5.8690   17.5060  -34.0360 C   0  0  0  0  0  0  0  0  0  0  0  0
   -6.8170   19.4470  -32.8190 C   0  0  0  0  0  0  0  0  0  0  0  0
   -8.0060   18.7290  -32.5280 C   0  0  0  0  0  0  0  0  0  0  0  0
   -9.1170   19.3690  -31.9770 C   0  0  0  0  0  0  0  0  0  0  0  0
   -9.0710   20.7290  -31.6910 C   0  0  0  0  0  0  0  0  0  0  0  0
   -7.9050   21.4520  -31.9280 C   0  0  0  0  0  0  0  0  0  0  0  0
   -6.7650   20.8240  -32.4740 C   0  0  0  0  0  0  0  0  0  0  0  0
   -2.1051   25.6826  -24.5303 H   0  0  0  0  0  0  0  0  0  0  0  0
   -1.0027   26.6103  -25.6031 H   0  0  0  0  0  0  0  0  0  0  0  0
   -2.7639   26.9639  -25.6031 H   0  0  0  0  0  0  0  0  0  0  0  0
   -1.8046   24.1678  -26.2871 H   0  0  0  0  0  0  0  0  0  0  0  0
   -0.5699   26.1368  -27.6131 H   0  0  0  0  0  0  0  0  0  0  0  0
   -1.1974   24.7002  -28.4902 H   0  0  0  0  0  0  0  0  0  0  0  0
   -2.1346   26.2326  -28.4902 H   0  0  0  0  0  0  0  0  0  0  0  0
   -3.9620   25.5340  -27.7020 H   0  0  0  0  0  0  0  0  0  0  0  0
   -4.2190   25.2260  -26.0770 H   0  0  0  0  0  0  0  0  0  0  0  0
   -3.0699   22.9100  -27.1386 H   0  0  0  0  0  0  0  0  0  0  0  0
   -4.7534   23.1826  -26.5029 H   0  0  0  0  0  0  0  0  0  0  0  0
   -3.7427   23.1439  -29.3371 H   0  0  0  0  0  0  0  0  0  0  0  0
   -5.2737   22.4953  -28.6155 H   0  0  0  0  0  0  0  0  0  0  0  0
   -6.1180   24.6600  -28.4360 H   0  0  0  0  0  0  0  0  0  0  0  0
   -6.8026   23.9061  -30.4021 H   0  0  0  0  0  0  0  0  0  0  0  0
   -5.8941   25.3735  -30.9103 H   0  0  0  0  0  0  0  0  0  0  0  0
   -4.0083   24.1234  -31.5919 H   0  0  0  0  0  0  0  0  0  0  0  0
   -4.5115   22.6807  -30.6285 H   0  0  0  0  0  0  0  0  0  0  0  0
   -5.9530   23.6110  -33.1360 H   0  0  0  0  0  0  0  0  0  0  0  0
   -3.1083   22.5868  -32.8753 H   0  0  0  0  0  0  0  0  0  0  0  0
   -1.0542   21.3601  -33.5521 H   0  0  0  0  0  0  0  0  0  0  0  0
   -1.1693   18.9347  -34.0935 H   0  0  0  0  0  0  0  0  0  0  0  0
   -3.3394   17.7310  -34.0015 H   0  0  0  0  0  0  0  0  0  0  0  0
   -5.9516   16.7406  -33.2502 H   0  0  0  0  0  0  0  0  0  0  0  0
   -6.7742   17.4892  -34.6608 H   0  0  0  0  0  0  0  0  0  0  0  0
   -4.9883   17.2965  -34.6608 H   0  0  0  0  0  0  0  0  0  0  0  0
   -8.0527   17.6507  -32.7402 H   0  0  0  0  0  0  0  0  0  0  0  0
  -10.0322   18.7956  -31.7682 H   0  0  0  0  0  0  0  0  0  0  0  0
   -9.9564   21.2339  -31.2773 H   0  0  0  0  0  0  0  0  0  0  0  0
   -7.8719   22.5248  -31.6870 H   0  0  0  0  0  0  0  0  0  0  0  0
  1  2  1  0
  2  3  1  0
  2  4  1  0
  4  5  1  0
  5  6  1  0
  6  7  1  0
  7  8  1  0
  8  9  1  0
  9 10  1  0
 10 11  1  0
 11 12  2  0
 12 13  1  0
 13 14  2  0
 14 15  1  0
 15 16  2  0
 16 17  1  0
 17 18  2  0
 18 19  1  0
 18 20  1  0
 20 21  2  0
 21 22  1  0
 22 23  2  0
 23 24  1  0
 24 25  2  0
 25 11  1  0
 17 12  1  0
 25 20  1  0
  1 26  1  0
  1 27  1  0
  1 28  1  0
  2 29  1  0
  3 30  1  0
  3 31  1  0
  3 32  1  0
  4 33  1  0
  4 34  1  0
  5 35  1  0
  5 36  1  0
  6 37  1  0
  6 38  1  0
  7 39  1  0
  8 40  1  0
  8 41  1  0
  9 42  1  0
  9 43  1  0
 10 44  1  0
 13 45  1  0
 14 46  1  0
 15 47  1  0
 16 48  1  0
 19 49  1  0
 19 50  1  0
 19 51  1  0
 21 52  1  0
 22 53  1  0
 23 54  1  0
 24 55  1  0
M  CHG  2   4   1  18   1
M  END
>  <UniqueID>  (13) 
13

>  <SMILES>  (13) 
CC(C)[NH2+]CCNCCNc1c2ccccc2[n+](C)c2ccccc12

>  <Energy>  (13) 
76.94444610661161

>  <Genealogy>  (13) 
CC(C)[NH2+]CCNCCNc1c2ccccc2[n+](C)c2ccccc12 (protonated)
CC(C)[NH2+]CCNCCNc1c2ccccc2[n+](C)c2ccccc12 (3D coordinates assigned)
CC(C)[NH2+]CCNCCNc1c2ccccc2[n+](C)c2ccccc12 (optimized conformer: 76.94444610661161 kcal/mol)

>  <smiles>  (13) 
CC(C)NCCNCCNc1c2ccccc2[n+](C)c2ccccc12

>  <score_type>  (13) 
oracle

>  <origin>  (13) 
adg

>  <m_score__min__energy>  (13) 
-8.5299999999999994

>  <m_primary>  (13) 
energy

$$$$
13:0
     RDKit          3D

 54 58  0  0  0  0  0  0  0  0999 V2000
   -4.2390   23.8080  -27.5480 C   0  0  0  0  0  0  0  0  0  0  0  0
   -4.0040   23.7210  -28.9890 N   0  0  0  0  0  0  0  0  0  0  0  0
   -4.6050   24.4300  -29.9660 C   0  0  0  0  0  0  0  0  0  0  0  0
   -5.9370   25.6080  -29.7140 S   0  0  0  0  0  0  0  0  0  0  0  0
   -7.2350   24.5590  -30.4670 C   0  0  0  0  0  0  0  0  0  0  0  0
   -6.9970   23.0580  -30.2520 C   0  0  0  0  0  0  0  0  0  0  0  0
   -8.1260   22.1740  -30.8110 C   0  0  0  0  0  0  0  0  0  0  0  0
   -7.6650   21.3670  -31.9580 N   0  0  0  0  0  0  0  0  0  0  0  0
   -7.5210   19.9480  -31.5980 C   0  0  0  0  0  0  0  0  0  0  0  0
   -6.3580   19.3730  -32.3900 C   0  0  1  0  0  0  0  0  0  0  0  0
   -6.3680   19.6040  -33.8960 C   0  0  0  0  0  0  0  0  0  0  0  0
   -5.6280   20.5630  -32.9670 C   0  0  2  0  0  0  0  0  0  0  0  0
   -4.1260   20.4890  -32.8950 C   0  0  0  0  0  0  0  0  0  0  0  0
   -3.5010   19.3450  -32.3730 C   0  0  0  0  0  0  0  0  0  0  0  0
   -2.1050   19.2570  -32.3440 C   0  0  0  0  0  0  0  0  0  0  0  0
   -1.3270   20.3020  -32.8510 C   0  0  0  0  0  0  0  0  0  0  0  0
   -1.9420   21.4360  -33.3890 C   0  0  0  0  0  0  0  0  0  0  0  0
   -3.3360   21.5280  -33.4180 C   0  0  0  0  0  0  0  0  0  0  0  0
   -6.3590   21.8030  -32.4780 C   0  0  0  0  0  0  0  0  0  0  0  0
   -4.0730   24.1610  -31.1720 N   0  0  0  0  0  0  0  0  0  0  0  0
   -3.1260   23.2530  -30.9820 N   0  0  0  0  0  0  0  0  0  0  0  0
   -3.0960   22.9790  -29.6610 C   0  0  0  0  0  0  0  0  0  0  0  0
   -2.1700   21.9920  -29.0670 C   0  0  0  0  0  0  0  0  0  0  0  0
   -0.7760   22.1520  -29.1660 C   0  0  0  0  0  0  0  0  0  0  0  0
    0.0860   21.2200  -28.5800 C   0  0  0  0  0  0  0  0  0  0  0  0
   -0.4330   20.1260  -27.8830 C   0  0  0  0  0  0  0  0  0  0  0  0
   -1.8170   19.9700  -27.7620 C   0  0  0  0  0  0  0  0  0  0  0  0
   -2.6830   20.9010  -28.3440 C   0  0  0  0  0  0  0  0  0  0  0  0
   -3.3397   23.4751  -27.0091 H   0  0  0  0  0  0  0  0  0  0  0  0
   -4.4652   24.8495  -27.2756 H   0  0  0  0  0  0  0  0  0  0  0  0
   -5.0888   23.1649  -27.2756 H   0  0  0  0  0  0  0  0  0  0  0  0
   -8.2041   24.8271  -30.0209 H   0  0  0  0  0  0  0  0  0  0  0  0
   -7.2158   24.7418  -31.5515 H   0  0  0  0  0  0  0  0  0  0  0  0
   -6.0567   22.7792  -30.7501 H   0  0  0  0  0  0  0  0  0  0  0  0
   -6.9586   22.8876  -29.1660 H   0  0  0  0  0  0  0  0  0  0  0  0
   -8.4772   21.4985  -30.0171 H   0  0  0  0  0  0  0  0  0  0  0  0
   -8.9389   22.8300  -31.1556 H   0  0  0  0  0  0  0  0  0  0  0  0
   -7.3196   19.8557  -30.5205 H   0  0  0  0  0  0  0  0  0  0  0  0
   -8.4466   19.4011  -31.8307 H   0  0  0  0  0  0  0  0  0  0  0  0
   -6.1590   18.4637  -31.8039 H   0  0  0  0  0  0  0  0  0  0  0  0
   -5.8032   18.9339  -34.5607 H   0  0  0  0  0  0  0  0  0  0  0  0
   -7.1471   19.7068  -34.6657 H   0  0  0  0  0  0  0  0  0  0  0  0
   -4.1109   18.5155  -31.9857 H   0  0  0  0  0  0  0  0  0  0  0  0
   -1.6192   18.3649  -31.9219 H   0  0  0  0  0  0  0  0  0  0  0  0
   -0.2295   20.2317  -32.8265 H   0  0  0  0  0  0  0  0  0  0  0  0
   -1.3284   22.2563  -33.7897 H   0  0  0  0  0  0  0  0  0  0  0  0
   -3.8173   22.4169  -33.8518 H   0  0  0  0  0  0  0  0  0  0  0  0
   -5.7801   22.2905  -31.6797 H   0  0  0  0  0  0  0  0  0  0  0  0
   -6.4885   22.5260  -33.2968 H   0  0  0  0  0  0  0  0  0  0  0  0
   -0.3617   23.0152  -29.7075 H   0  0  0  0  0  0  0  0  0  0  0  0
    1.1749   21.3484  -28.6679 H   0  0  0  0  0  0  0  0  0  0  0  0
    0.2462   19.3887  -27.4302 H   0  0  0  0  0  0  0  0  0  0  0  0
   -2.2259   19.1125  -27.2074 H   0  0  0  0  0  0  0  0  0  0  0  0
   -3.7708   20.7791  -28.2356 H   0  0  0  0  0  0  0  0  0  0  0  0
  1  2  1  0
  2  3  1  0
  3  4  1  0
  4  5  1  0
  5  6  1  0
  6  7  1  0
  7  8  1  0
  8  9  1  0
  9 10  1  0
 10 11  1  0
 11 12  1  0
 12 13  1  6
 13 14  2  0
 14 15  1  0
 15 16  2  0
 16 17  1  0
 17 18  2  0
 12 19  1  0
  3 20  2  0
 20 21  1  0
 21 22  2  0
 22 23  1  0
 23 24  2  0
 24 25  1  0
 25 26  2  0
 26 27  1  0
 27 28  2  0
 22  2  1  0
 28 23  1  0
 19  8  1  0
 12 10  1  0
 18 13  1  0
  1 29  1  0
  1 30  1  0
  1 31  1  0
  5 32  1  0
  5 33  1  0
  6 34  1  0
  6 35  1  0
  7 36  1  0
  7 37  1  0
  9 38  1  0
  9 39  1  0
 10 40  1  6
 11 41  1  0
 11 42  1  0
 14 43  1  0
 15 44  1  0
 16 45  1  0
 17 46  1  0
 18 47  1  0
 19 48  1  0
 19 49  1  0
 24 50  1  0
 25 51  1  0
 26 52  1  0
 27 53  1  0
 28 54  1  0
M  END
>  <UniqueID>  (14) 
14

>  <SMILES>  (14) 
Cn1c(SCCCN2C[C@H]3C[C@@]3(c3ccccc3)C2)nnc1-c1ccccc1

>  <Energy>  (14) 
361.6861375036089

>  <Genealogy>  (14) 
Cn1c(SCCCN2C[C@H]3C[C@@]3(c3ccccc3)C2)nnc1-c1ccccc1 (chirality)
Cn1c(SCCCN2C[C@H]3C[C@@]3(c3ccccc3)C2)nnc1-c1ccccc1 (3D coordinates assigned)
Cn1c(SCCCN2C[C@H]3C[C@@]3(c3ccccc3)C2)nnc1-c1ccccc1 (nonaromatic ring conformer: 361.6861375036089 kcal/mol)

>  <smiles>  (14) 
Cn1c(SCCCN2CC3CC3(c3ccccc3)C2)nnc1-c1ccccc1

>  <score_type>  (14) 
oracle

>  <origin>  (14) 
adg

>  <m_score__min__energy>  (14) 
-10.01

>  <m_primary>  (14) 
energy

$$$$
14:0
     RDKit          3D

 49 52  0  0  0  0  0  0  0  0999 V2000
   -7.1670   18.6670  -32.9870 C   0  0  0  0  0  0  0  0  0  0  0  0
   -7.6170   20.0450  -33.4560 C   0  0  0  0  0  0  0  0  0  0  0  0
   -7.7850   20.9420  -32.3140 N   0  0  0  0  0  0  0  0  0  0  0  0
   -8.7590   20.8670  -31.3740 C   0  0  0  0  0  0  0  0  0  0  0  0
   -8.5740   21.8400  -30.3950 C   0  0  0  0  0  0  0  0  0  0  0  0
   -7.4300   22.5140  -30.7660 C   0  0  0  0  0  0  0  0  0  0  0  0
   -6.7520   23.5670  -30.1660 C   0  0  0  0  0  0  0  0  0  0  0  0
   -5.5810   24.0360  -30.7970 C   0  0  0  0  0  0  0  0  0  0  0  0
   -4.8110   25.1790  -30.1950 C   0  0  0  0  0  0  0  0  0  0  0  0
   -3.4120   24.8970  -30.1990 O   0  0  0  0  0  0  0  0  0  0  0  0
   -2.8160   23.7130  -29.7320 C   0  0  0  0  0  0  0  0  0  0  0  0
   -2.8680   22.5120  -30.4670 C   0  0  0  0  0  0  0  0  0  0  0  0
   -2.2900   21.3460  -29.9570 C   0  0  0  0  0  0  0  0  0  0  0  0
   -1.6590   21.3620  -28.7130 C   0  0  0  0  0  0  0  0  0  0  0  0
   -1.1000   20.2300  -28.2210 F   0  0  0  0  0  0  0  0  0  0  0  0
   -1.5980   22.5470  -27.9770 C   0  0  0  0  0  0  0  0  0  0  0  0
   -2.1670   23.7270  -28.4790 C   0  0  0  0  0  0  0  0  0  0  0  0
   -2.0610   24.9410  -27.7160 N   0  0  0  0  0  0  0  0  0  0  0  0
   -1.2420   26.0580  -28.1920 C   0  0  0  0  0  0  0  0  0  0  0  0
   -0.6230   26.7820  -26.9930 C   0  0  0  0  0  0  0  0  0  0  0  0
   -1.6200   27.1380  -26.0520 O   0  0  0  0  0  0  0  0  0  0  0  0
   -2.2010   25.9700  -25.5010 C   0  0  0  0  0  0  0  0  0  0  0  0
   -2.9480   25.1740  -26.5750 C   0  0  0  0  0  0  0  0  0  0  0  0
   -5.1370   23.4090  -31.9900 C   0  0  0  0  0  0  0  0  0  0  0  0
   -5.8410   22.3720  -32.5370 N   0  0  0  0  0  0  0  0  0  0  0  0
   -6.9770   21.9460  -31.9220 C   0  0  0  0  0  0  0  0  0  0  0  0
   -7.1578   18.6388  -31.8874 H   0  0  0  0  0  0  0  0  0  0  0  0
   -7.8629   17.9048  -33.3675 H   0  0  0  0  0  0  0  0  0  0  0  0
   -6.1554   18.4624  -33.3675 H   0  0  0  0  0  0  0  0  0  0  0  0
   -6.8594   20.4618  -34.1359 H   0  0  0  0  0  0  0  0  0  0  0  0
   -8.5804   19.9474  -33.9779 H   0  0  0  0  0  0  0  0  0  0  0  0
   -9.5824   20.1377  -31.3833 H   0  0  0  0  0  0  0  0  0  0  0  0
   -9.2053   22.0300  -29.5145 H   0  0  0  0  0  0  0  0  0  0  0  0
   -7.1154   24.0194  -29.2315 H   0  0  0  0  0  0  0  0  0  0  0  0
   -4.9981   26.0903  -30.7819 H   0  0  0  0  0  0  0  0  0  0  0  0
   -5.1418   25.3223  -29.1558 H   0  0  0  0  0  0  0  0  0  0  0  0
   -3.3662   22.4919  -31.4475 H   0  0  0  0  0  0  0  0  0  0  0  0
   -2.3328   20.4131  -30.5383 H   0  0  0  0  0  0  0  0  0  0  0  0
   -1.1001   22.5554  -26.9962 H   0  0  0  0  0  0  0  0  0  0  0  0
   -0.4419   25.6753  -28.8427 H   0  0  0  0  0  0  0  0  0  0  0  0
   -1.8713   26.7592  -28.7598 H   0  0  0  0  0  0  0  0  0  0  0  0
    0.1090   26.1185  -26.5094 H   0  0  0  0  0  0  0  0  0  0  0  0
   -0.1309   27.6988  -27.3498 H   0  0  0  0  0  0  0  0  0  0  0  0
   -1.4073   25.3404  -25.0725 H   0  0  0  0  0  0  0  0  0  0  0  0
   -2.9175   26.2675  -24.7212 H   0  0  0  0  0  0  0  0  0  0  0  0
   -3.2701   24.2084  -26.1580 H   0  0  0  0  0  0  0  0  0  0  0  0
   -3.8292   25.7430  -26.9062 H   0  0  0  0  0  0  0  0  0  0  0  0
   -4.2170   23.7607  -32.4799 H   0  0  0  0  0  0  0  0  0  0  0  0
   -5.5000   21.9220  -33.4140 H   0  0  0  0  0  0  0  0  0  0  0  0
  1  2  1  0
  2  3  1  0
  3  4  1  0
  4  5  2  0
  5  6  1  0
  6  7  2  0
  7  8  1  0
  8  9  1  0
  9 10  1  0
 10 11  1  0
 11 12  2  0
 12 13  1  0
 13 14  2  0
 14 15  1  0
 14 16  1  0
 16 17  2  0
 17 18  1  0
 18 19  1  0
 19 20  1  0
 20 21  1  0
 21 22  1  0
 22 23  1  0
  8 24  2  0
 24 25  1  0
 25 26  2  0
 26  3  1  0
 26  6  1  0
 17 11  1  0
 23 18  1  0
  1 27  1  0
  1 28  1  0
  1 29  1  0
  2 30  1  0
  2 31  1  0
  4 32  1  0
  5 33  1  0
  7 34  1  0
  9 35  1  0
  9 36  1  0
 12 37  1  0
 13 38  1  0
 16 39  1  0
 19 40  1  0
 19 41  1  0
 20 42  1  0
 20 43  1  0
 22 44  1  0
 22 45  1  0
 23 46  1  0
 23 47  1  0
 24 48  1  0
 25 49  1  0
M  CHG  1  25   1
M  END
>  <UniqueID>  (15) 
15

>  <SMILES>  (15) 
CCn1ccc2cc(COc3ccc(F)cc3N3CCOCC3)c[nH+]c21

>  <Energy>  (15) 
88.14863511885146

>  <Genealogy>  (15) 
CCn1ccc2cc(COc3ccc(F)cc3N3CCOCC3)c[nH+]c21 (protonated)
CCn1ccc2cc(COc3ccc(F)cc3N3CCOCC3)c[nH+]c21 (3D coordinates assigned)
CCn1ccc2cc(COc3ccc(F)cc3N3CCOCC3)c[nH+]c21 (nonaromatic ring conformer: 88.14863511885146 kcal/mol)

>  <smiles>  (15) 
CCn1ccc2cc(COc3ccc(F)cc3N3CCOCC3)cnc21

>  <score_type>  (15) 
oracle

>  <origin>  (15) 
adg

>  <m_score__min__energy>  (15) 
-7.5099999999999998

>  <m_primary>  (15) 
energy

$$$$
15:0
     RDKit          3D

 59 61  0  0  0  0  0  0  0  0999 V2000
   -6.4590   25.3060  -29.7090 C   0  0  0  0  0  0  0  0  0  0  0  0
   -5.4000   25.6160  -30.7630 C   0  0  0  0  0  0  0  0  0  0  0  0
   -4.4440   24.5710  -30.8280 O   0  0  0  0  0  0  0  0  0  0  0  0
   -4.0270   24.1630  -29.5350 C   0  0  0  0  0  0  0  0  0  0  0  0
   -4.6220   22.8000  -29.1940 C   0  0  0  0  0  0  0  0  0  0  0  0
   -3.6920   21.7850  -29.5150 O   0  0  0  0  0  0  0  0  0  0  0  0
   -2.6820   21.7020  -28.5270 C   0  0  0  0  0  0  0  0  0  0  0  0
   -1.4110   21.0640  -29.0990 C   0  0  0  0  0  0  0  0  0  0  0  0
   -1.2350   21.4200  -30.4580 O   0  0  0  0  0  0  0  0  0  0  0  0
   -1.6950   20.3890  -31.3070 C   0  0  0  0  0  0  0  0  0  0  0  0
   -2.1820   21.0080  -32.6170 C   0  0  0  0  0  0  0  0  0  0  0  0
   -3.4120   21.8880  -32.3920 C   0  0  0  0  0  0  0  0  0  0  0  0
   -4.4210   21.6140  -33.4130 N   0  0  0  0  0  0  0  0  0  0  0  0
   -5.5530   20.7700  -33.1290 C   0  0  0  0  0  0  0  0  0  0  0  0
   -5.5090   19.4000  -33.4420 C   0  0  0  0  0  0  0  0  0  0  0  0
   -4.3990   18.8500  -34.1200 C   0  0  0  0  0  0  0  0  0  0  0  0
   -4.3720   17.5000  -34.4650 C   0  0  0  0  0  0  0  0  0  0  0  0
   -5.4570   16.6850  -34.1640 C   0  0  0  0  0  0  0  0  0  0  0  0
   -6.5680   17.2080  -33.5020 C   0  0  0  0  0  0  0  0  0  0  0  0
   -6.6100   18.5690  -33.1000 C   0  0  0  0  0  0  0  0  0  0  0  0
   -7.6900   19.0920  -32.4160 N   0  0  0  0  0  0  0  0  0  0  0  0
   -8.6950   18.1880  -31.8130 C   0  0  0  0  0  0  0  0  0  0  0  0
   -7.8190   20.4630  -32.2720 C   0  0  0  0  0  0  0  0  0  0  0  0
   -9.0250   21.0540  -31.8140 C   0  0  0  0  0  0  0  0  0  0  0  0
   -9.1200   22.4290  -31.6080 C   0  0  0  0  0  0  0  0  0  0  0  0
   -8.0300   23.2510  -31.8650 C   0  0  0  0  0  0  0  0  0  0  0  0
   -6.8460   22.7080  -32.3570 C   0  0  0  0  0  0  0  0  0  0  0  0
   -6.7320   21.3200  -32.5920 C   0  0  0  0  0  0  0  0  0  0  0  0
   -6.0260   25.4328  -28.7058 H   0  0  0  0  0  0  0  0  0  0  0  0
   -7.3095   25.9929  -29.8307 H   0  0  0  0  0  0  0  0  0  0  0  0
   -6.8049   24.2689  -29.8307 H   0  0  0  0  0  0  0  0  0  0  0  0
   -5.8860   25.7236  -31.7439 H   0  0  0  0  0  0  0  0  0  0  0  0
   -4.8880   26.5503  -30.4892 H   0  0  0  0  0  0  0  0  0  0  0  0
   -2.9293   24.0962  -29.5117 H   0  0  0  0  0  0  0  0  0  0  0  0
   -4.3746   24.9007  -28.7968 H   0  0  0  0  0  0  0  0  0  0  0  0
   -4.8525   22.7593  -28.1192 H   0  0  0  0  0  0  0  0  0  0  0  0
   -5.5446   22.6479  -29.7734 H   0  0  0  0  0  0  0  0  0  0  0  0
   -2.4464   22.7142  -28.1664 H   0  0  0  0  0  0  0  0  0  0  0  0
   -3.0488   21.0762  -27.7000 H   0  0  0  0  0  0  0  0  0  0  0  0
   -0.5421   21.4107  -28.5204 H   0  0  0  0  0  0  0  0  0  0  0  0
   -1.5056   19.9702  -29.0315 H   0  0  0  0  0  0  0  0  0  0  0  0
   -0.8741   19.6864  -31.5131 H   0  0  0  0  0  0  0  0  0  0  0  0
   -2.5195   19.8461  -30.8217 H   0  0  0  0  0  0  0  0  0  0  0  0
   -1.3757   21.6218  -33.0449 H   0  0  0  0  0  0  0  0  0  0  0  0
   -2.4580   20.1945  -33.3040 H   0  0  0  0  0  0  0  0  0  0  0  0
   -3.8336   21.6763  -31.3983 H   0  0  0  0  0  0  0  0  0  0  0  0
   -3.1141   22.9450  -32.4557 H   0  0  0  0  0  0  0  0  0  0  0  0
   -4.4490   22.2290  -34.2560 H   0  0  0  0  0  0  0  0  0  0  0  0
   -3.5460   19.4945  -34.3788 H   0  0  0  0  0  0  0  0  0  0  0  0
   -3.4927   17.0797  -34.9751 H   0  0  0  0  0  0  0  0  0  0  0  0
   -5.4395   15.6227  -34.4491 H   0  0  0  0  0  0  0  0  0  0  0  0
   -7.4265   16.5545  -33.2877 H   0  0  0  0  0  0  0  0  0  0  0  0
   -8.6298   18.2466  -30.7165 H   0  0  0  0  0  0  0  0  0  0  0  0
   -9.7017   18.4905  -32.1372 H   0  0  0  0  0  0  0  0  0  0  0  0
   -8.5004   17.1550  -32.1372 H   0  0  0  0  0  0  0  0  0  0  0  0
   -9.8995   20.4161  -31.6183 H   0  0  0  0  0  0  0  0  0  0  0  0
  -10.0609   22.8647  -31.2408 H   0  0  0  0  0  0  0  0  0  0  0  0
   -8.1024   24.3328  -31.6795 H   0  0  0  0  0  0  0  0  0  0  0  0
   -5.9902   23.3671  -32.5649 H   0  0  0  0  0  0  0  0  0  0  0  0
  1  2  1  0
  2  3  1  0
  3  4  1  0
  4  5  1  0
  5  6  1  0
  6  7  1  0
  7  8  1  0
  8  9  1  0
  9 10  1  0
 10 11  1  0
 11 12  1  0
 12 13  1  0
 13 14  1  0
 14 15  2  0
 15 16  1  0
 16 17  2  0
 17 18  1  0
 18 19  2  0
 19 20  1  0
 20 21  2  0
 21 22  1  0
 21 23  1  0
 23 24  2  0
 24 25  1  0
 25 26  2  0
 26 27  1  0
 27 28  2  0
 28 14  1  0
 20 15  1  0
 28 23  1  0
  1 29  1  0
  1 30  1  0
  1 31  1  0
  2 32  1  0
  2 33  1  0
  4 34  1  0
  4 35  1  0
  5 36  1  0
  5 37  1  0
  7 38  1  0
  7 39  1  0
  8 40  1  0
  8 41  1  0
 10 42  1  0
 10 43  1  0
 11 44  1  0
 11 45  1  0
 12 46  1  0
 12 47  1  0
 13 48  1  0
 16 49  1  0
 17 50  1  0
 18 51  1  0
 19 52  1  0
 22 53  1  0
 22 54  1  0
 22 55  1  0
 24 56  1  0
 25 57  1  0
 26 58  1  0
 27 59  1  0
M  CHG  1  21   1
M  END
>  <UniqueID>  (16) 
16

>  <SMILES>  (16) 
CCOCCOCCOCCCNc1c2ccccc2[n+](C)c2ccccc12

>  <Energy>  (16) 
82.97508032884423

>  <Genealogy>  (16) 
CCOCCOCCOCCCNc1c2ccccc2[n+](C)c2ccccc12 (3D coordinates assigned)
CCOCCOCCOCCCNc1c2ccccc2[n+](C)c2ccccc12 (optimized conformer: 82.97508032884423 kcal/mol)

>  <smiles>  (16) 
CCOCCOCCOCCCNc1c2ccccc2[n+](C)c2ccccc12

>  <score_type>  (16) 
oracle

>  <origin>  (16) 
adg

>  <m_score__min__energy>  (16) 
-9.0099999999999998

>  <m_primary>  (16) 
energy

$$$$
16:0
     RDKit          3D

 43 45  0  0  0  0  0  0  0  0999 V2000
   -6.4010   25.1910  -29.6810 C   0  0  0  0  0  0  0  0  0  0  0  0
   -5.3850   25.6570  -30.7190 C   0  0  0  0  0  0  0  0  0  0  0  0
   -4.4710   24.5570  -31.0700 N   0  0  0  0  0  0  0  0  0  0  0  0
   -4.4220   23.5160  -30.0310 C   0  0  0  0  0  0  0  0  0  0  0  0
   -3.9220   22.1670  -30.5860 C   0  0  0  0  0  0  0  0  0  0  0  0
   -3.4060   22.2900  -32.0270 C   0  0  0  0  0  0  0  0  0  0  0  0
   -4.4810   22.0890  -33.0050 N   0  0  0  0  0  0  0  0  0  0  0  0
   -5.6230   21.2470  -32.7590 C   0  0  0  0  0  0  0  0  0  0  0  0
   -5.5930   19.8470  -32.9920 C   0  0  0  0  0  0  0  0  0  0  0  0
   -4.4330   19.2170  -33.4890 C   0  0  0  0  0  0  0  0  0  0  0  0
   -4.4200   17.8480  -33.7410 C   0  0  0  0  0  0  0  0  0  0  0  0
   -5.5550   17.0800  -33.5100 C   0  0  0  0  0  0  0  0  0  0  0  0
   -6.7200   17.6720  -33.0240 C   0  0  0  0  0  0  0  0  0  0  0  0
   -6.7750   19.0620  -32.7550 C   0  0  0  0  0  0  0  0  0  0  0  0
   -7.9360   19.6610  -32.2870 N   0  0  0  0  0  0  0  0  0  0  0  0
   -9.1550   18.8710  -32.0320 C   0  0  0  0  0  0  0  0  0  0  0  0
   -7.9210   21.0130  -32.0740 C   0  0  0  0  0  0  0  0  0  0  0  0
   -8.9150   21.8630  -31.6190 C   0  0  0  0  0  0  0  0  0  0  0  0
   -8.3220   23.1170  -31.5940 C   0  0  0  0  0  0  0  0  0  0  0  0
   -7.0700   23.0390  -32.0010 O   0  0  0  0  0  0  0  0  0  0  0  0
   -6.8170   21.7870  -32.2950 C   0  0  0  0  0  0  0  0  0  0  0  0
   -6.0038   25.3732  -28.6715 H   0  0  0  0  0  0  0  0  0  0  0  0
   -7.3404   25.7482  -29.8115 H   0  0  0  0  0  0  0  0  0  0  0  0
   -6.5915   24.1155  -29.8115 H   0  0  0  0  0  0  0  0  0  0  0  0
   -5.9164   25.9896  -31.6229 H   0  0  0  0  0  0  0  0  0  0  0  0
   -4.7996   26.4880  -30.2985 H   0  0  0  0  0  0  0  0  0  0  0  0
   -3.5090   24.9450  -31.2210 H   0  0  0  0  0  0  0  0  0  0  0  0
   -3.7421   23.8446  -29.2312 H   0  0  0  0  0  0  0  0  0  0  0  0
   -5.4434   23.3685  -29.6503 H   0  0  0  0  0  0  0  0  0  0  0  0
   -3.1048   21.8016  -29.9467 H   0  0  0  0  0  0  0  0  0  0  0  0
   -4.7704   21.4669  -30.5890 H   0  0  0  0  0  0  0  0  0  0  0  0
   -2.9779   23.2934  -32.1684 H   0  0  0  0  0  0  0  0  0  0  0  0
   -2.6452   21.5119  -32.1874 H   0  0  0  0  0  0  0  0  0  0  0  0
   -4.4420   22.6500  -33.8840 H   0  0  0  0  0  0  0  0  0  0  0  0
   -3.5289   19.8139  -33.6795 H   0  0  0  0  0  0  0  0  0  0  0  0
   -3.5061   17.3714  -34.1252 H   0  0  0  0  0  0  0  0  0  0  0  0
   -5.5341   15.9989  -33.7117 H   0  0  0  0  0  0  0  0  0  0  0  0
   -7.6101   17.0504  -32.8467 H   0  0  0  0  0  0  0  0  0  0  0  0
   -9.3076   18.7721  -30.9471 H   0  0  0  0  0  0  0  0  0  0  0  0
  -10.0218   19.3795  -32.4793 H   0  0  0  0  0  0  0  0  0  0  0  0
   -9.0448   17.8721  -32.4793 H   0  0  0  0  0  0  0  0  0  0  0  0
   -9.9463   21.6018  -31.3393 H   0  0  0  0  0  0  0  0  0  0  0  0
   -8.8243   24.0438  -31.2797 H   0  0  0  0  0  0  0  0  0  0  0  0
  1  2  1  0
  2  3  1  0
  3  4  1  0
  4  5  1  0
  5  6  1  0
  6  7  1  0
  7  8  1  0
  8  9  2  0
  9 10  1  0
 10 11  2  0
 11 12  1  0
 12 13  2  0
 13 14  1  0
 14 15  2  0
 15 16  1  0
 15 17  1  0
 17 18  1  0
 18 19  2  0
 19 20  1  0
 20 21  1  0
 21  8  1  0
 14  9  1  0
 21 17  2  0
  1 22  1  0
  1 23  1  0
  1 24  1  0
  2 25  1  0
  2 26  1  0
  3 27  1  0
  4 28  1  0
  4 29  1  0
  5 30  1  0
  5 31  1  0
  6 32  1  0
  6 33  1  0
  7 34  1  0
 10 35  1  0
 11 36  1  0
 12 37  1  0
 13 38  1  0
 16 39  1  0
 16 40  1  0
 16 41  1  0
 18 42  1  0
 19 43  1  0
M  CHG  1  15   1
M  END
>  <UniqueID>  (17) 
17

>  <SMILES>  (17) 
CCNCCCNc1c2ccccc2[n+](C)c2ccoc12

>  <Energy>  (17) 
84.44544317015342

>  <Genealogy>  (17) 
CCNCCCNc1c2ccccc2[n+](C)c2ccoc12 (3D coordinates assigned)
CCNCCCNc1c2ccccc2[n+](C)c2ccoc12 (optimized conformer: 84.44544317015342 kcal/mol)

>  <smiles>  (17) 
CCNCCCNc1c2ccccc2[n+](C)c2ccoc12

>  <score_type>  (17) 
oracle

>  <origin>  (17) 
adg

>  <m_score__min__energy>  (17) 
-7.9100000000000001

>  <m_primary>  (17) 
energy

$$$$
17:0
     RDKit          3D

 54 56  0  0  0  0  0  0  0  0999 V2000
   -2.3340   23.8320  -28.2450 C   0  0  0  0  0  0  0  0  0  0  0  0
   -3.2730   24.2590  -27.1120 C   0  0  0  0  0  0  0  0  0  0  0  0
   -4.6170   24.6180  -27.6020 N   0  0  0  0  0  0  0  0  0  0  0  0
   -4.8920   24.0470  -28.9320 C   0  0  0  0  0  0  0  0  0  0  0  0
   -5.6790   25.0210  -29.8290 C   0  0  0  0  0  0  0  0  0  0  0  0
   -6.1330   24.4000  -31.1660 C   0  0  0  0  0  0  0  0  0  0  0  0
   -5.2440   23.2260  -31.5960 C   0  0  0  0  0  0  0  0  0  0  0  0
   -5.8790   22.4640  -32.6710 N   0  0  0  0  0  0  0  0  0  0  0  0
   -5.6220   21.0600  -32.8150 C   0  0  0  0  0  0  0  0  0  0  0  0
   -4.3110   20.6300  -33.0810 C   0  0  0  0  0  0  0  0  0  0  0  0
   -3.2660   21.5630  -33.2510 C   0  0  0  0  0  0  0  0  0  0  0  0
   -1.9560   21.1380  -33.4520 C   0  0  0  0  0  0  0  0  0  0  0  0
   -1.6600   19.7800  -33.4760 C   0  0  0  0  0  0  0  0  0  0  0  0
    0.1470   19.2020  -33.7000 Br  0  0  0  0  0  0  0  0  0  0  0  0
   -2.6820   18.8400  -33.3330 C   0  0  0  0  0  0  0  0  0  0  0  0
   -4.0330   19.2430  -33.1730 C   0  0  0  0  0  0  0  0  0  0  0  0
   -5.0610   18.3240  -33.0900 N   0  0  0  0  0  0  0  0  0  0  0  0
   -4.8200   16.9140  -33.4770 C   0  0  0  0  0  0  0  0  0  0  0  0
   -6.3210   18.7240  -32.6840 C   0  0  0  0  0  0  0  0  0  0  0  0
   -7.3090   17.7760  -32.3220 C   0  0  0  0  0  0  0  0  0  0  0  0
   -8.5960   18.1690  -31.9850 C   0  0  0  0  0  0  0  0  0  0  0  0
   -8.9430   19.5110  -31.9960 C   0  0  0  0  0  0  0  0  0  0  0  0
   -7.9900   20.4970  -32.3030 C   0  0  0  0  0  0  0  0  0  0  0  0
   -8.3580   21.8540  -32.3250 O   0  0  0  0  0  0  0  0  0  0  0  0
   -9.4870   22.4100  -31.6580 C   0  0  0  0  0  0  0  0  0  0  0  0
   -6.6490   20.1090  -32.6030 C   0  0  0  0  0  0  0  0  0  0  0  0
   -1.4112   23.4124  -27.8179 H   0  0  0  0  0  0  0  0  0  0  0  0
   -2.8301   23.0710  -28.8652 H   0  0  0  0  0  0  0  0  0  0  0  0
   -2.0865   24.7061  -28.8652 H   0  0  0  0  0  0  0  0  0  0  0  0
   -3.3675   23.4269  -26.3987 H   0  0  0  0  0  0  0  0  0  0  0  0
   -2.8401   25.1508  -26.6352 H   0  0  0  0  0  0  0  0  0  0  0  0
   -5.3450   24.3110  -26.9150 H   0  0  0  0  0  0  0  0  0  0  0  0
   -4.6510   25.6600  -27.6760 H   0  0  0  0  0  0  0  0  0  0  0  0
   -3.9356   23.8089  -29.4205 H   0  0  0  0  0  0  0  0  0  0  0  0
   -5.5047   23.1441  -28.7930 H   0  0  0  0  0  0  0  0  0  0  0  0
   -6.5717   25.3552  -29.2800 H   0  0  0  0  0  0  0  0  0  0  0  0
   -5.0021   25.8529  -30.0733 H   0  0  0  0  0  0  0  0  0  0  0  0
   -7.1662   24.0390  -31.0553 H   0  0  0  0  0  0  0  0  0  0  0  0
   -6.0593   25.1782  -31.9400 H   0  0  0  0  0  0  0  0  0  0  0  0
   -4.2783   23.6153  -31.9509 H   0  0  0  0  0  0  0  0  0  0  0  0
   -5.0932   22.5615  -30.7325 H   0  0  0  0  0  0  0  0  0  0  0  0
   -6.5390   22.9210  -33.3400 H   0  0  0  0  0  0  0  0  0  0  0  0
   -3.4896   22.6397  -33.2243 H   0  0  0  0  0  0  0  0  0  0  0  0
   -1.1539   21.8776  -33.5920 H   0  0  0  0  0  0  0  0  0  0  0  0
   -2.4357   17.7680  -33.3446 H   0  0  0  0  0  0  0  0  0  0  0  0
   -4.7147   16.2981  -32.5717 H   0  0  0  0  0  0  0  0  0  0  0  0
   -5.6685   16.5473  -34.0733 H   0  0  0  0  0  0  0  0  0  0  0  0
   -3.8979   16.8499  -34.0733 H   0  0  0  0  0  0  0  0  0  0  0  0
   -7.0507   16.7069  -32.3078 H   0  0  0  0  0  0  0  0  0  0  0  0
   -9.3446   17.4122  -31.7078 H   0  0  0  0  0  0  0  0  0  0  0  0
   -9.9761   19.8075  -31.7618 H   0  0  0  0  0  0  0  0  0  0  0  0
   -9.3419   22.3386  -30.5699 H   0  0  0  0  0  0  0  0  0  0  0  0
   -9.5987   23.4662  -31.9445 H   0  0  0  0  0  0  0  0  0  0  0  0
  -10.3923   21.8547  -31.9445 H   0  0  0  0  0  0  0  0  0  0  0  0
  1  2  1  0
  2  3  1  0
  3  4  1  0
  4  5  1  0
  5  6  1  0
  6  7  1  0
  7  8  1  0
  8  9  1  0
  9 10  2  0
 10 11  1  0
 11 12  2  0
 12 13  1  0
 13 14  1  0
 13 15  2  0
 15 16  1  0
 16 17  2  0
 17 18  1  0
 17 19  1  0
 19 20  2  0
 20 21  1  0
 21 22  2  0
 22 23  1  0
 23 24  1  0
 24 25  1  0
 23 26  2  0
 26  9  1  0
 16 10  1  0
 26 19  1  0
  1 27  1  0
  1 28  1  0
  1 29  1  0
  2 30  1  0
  2 31  1  0
  3 32  1  0
  3 33  1  0
  4 34  1  0
  4 35  1  0
  5 36  1  0
  5 37  1  0
  6 38  1  0
  6 39  1  0
  7 40  1  0
  7 41  1  0
  8 42  1  0
 11 43  1  0
 12 44  1  0
 15 45  1  0
 18 46  1  0
 18 47  1  0
 18 48  1  0
 20 49  1  0
 21 50  1  0
 22 51  1  0
 25 52  1  0
 25 53  1  0
 25 54  1  0
M  CHG  2   3   1  17   1
M  END
>  <UniqueID>  (18) 
18

>  <SMILES>  (18) 
CC[NH2+]CCCCNc1c2ccc(Br)cc2[n+](C)c2cccc(OC)c12

>  <Energy>  (18) 
78.40167175326245

>  <Genealogy>  (18) 
CC[NH2+]CCCCNc1c2ccc(Br)cc2[n+](C)c2cccc(OC)c12 (protonated)
CC[NH2+]CCCCNc1c2ccc(Br)cc2[n+](C)c2cccc(OC)c12 (3D coordinates assigned)
CC[NH2+]CCCCNc1c2ccc(Br)cc2[n+](C)c2cccc(OC)c12 (optimized conformer: 78.40167175326245 kcal/mol)

>  <smiles>  (18) 
CCNCCCCNc1c2ccc(Br)cc2[n+](C)c2cccc(OC)c12

>  <score_type>  (18) 
oracle

>  <origin>  (18) 
adg

>  <m_score__min__energy>  (18) 
-7.6200000000000001

>  <m_primary>  (18) 
energy

$$$$
18:0
     RDKit          3D

 42 43  0  0  0  0  0  0  0  0999 V2000
   -6.4330   18.5490  -32.3870 C   0  0  0  0  0  0  0  0  0  0  0  0
   -7.7690   19.2970  -32.4240 C   0  0  0  0  0  0  0  0  0  0  0  0
   -8.8260   18.5440  -31.6090 C   0  0  0  0  0  0  0  0  0  0  0  0
   -7.5960   20.6560  -31.9010 N   0  0  0  0  0  0  0  0  0  0  0  0
   -8.6360   21.6420  -31.9680 C   0  0  0  0  0  0  0  0  0  0  0  0
   -9.7960   21.3230  -32.3460 O   0  0  0  0  0  0  0  0  0  0  0  0
   -8.3450   23.0630  -31.5890 C   0  0  0  0  0  0  0  0  0  0  0  0
   -6.9700   23.1790  -31.0640 N   0  0  0  0  0  0  0  0  0  0  0  0
   -5.9790   23.2430  -32.1550 C   0  0  0  0  0  0  0  0  0  0  0  0
   -4.5780   23.0320  -31.5680 C   0  0  0  0  0  0  0  0  0  0  0  0
   -4.4680   23.6780  -30.2540 N   0  0  0  0  0  0  0  0  0  0  0  0
   -3.5090   23.2020  -29.2900 C   0  0  0  0  0  0  0  0  0  0  0  0
   -3.6230   21.9010  -28.7690 C   0  0  0  0  0  0  0  0  0  0  0  0
   -2.6880   21.4250  -27.8460 C   0  0  0  0  0  0  0  0  0  0  0  0
   -1.6300   22.2400  -27.4370 C   0  0  0  0  0  0  0  0  0  0  0  0
   -1.5050   23.5340  -27.9500 C   0  0  0  0  0  0  0  0  0  0  0  0
   -2.4380   24.0160  -28.8750 C   0  0  0  0  0  0  0  0  0  0  0  0
   -2.3120   25.2850  -29.3380 F   0  0  0  0  0  0  0  0  0  0  0  0
   -5.3870   24.7720  -29.9180 C   0  0  0  0  0  0  0  0  0  0  0  0
   -6.8520   24.3530  -30.1670 C   0  0  0  0  0  0  0  0  0  0  0  0
   -6.1350   18.3822  -31.3414 H   0  0  0  0  0  0  0  0  0  0  0  0
   -6.5410   17.5801  -32.8965 H   0  0  0  0  0  0  0  0  0  0  0  0
   -5.6635   19.1475  -32.8965 H   0  0  0  0  0  0  0  0  0  0  0  0
   -8.1125   19.3576  -33.4672 H   0  0  0  0  0  0  0  0  0  0  0  0
   -8.6297   18.6839  -30.5357 H   0  0  0  0  0  0  0  0  0  0  0  0
   -9.8246   18.9353  -31.8531 H   0  0  0  0  0  0  0  0  0  0  0  0
   -8.7824   17.4723  -31.8531 H   0  0  0  0  0  0  0  0  0  0  0  0
   -6.6790   20.9330  -31.4820 H   0  0  0  0  0  0  0  0  0  0  0  0
   -8.4506   23.7047  -32.4762 H   0  0  0  0  0  0  0  0  0  0  0  0
   -9.0546   23.3794  -30.8103 H   0  0  0  0  0  0  0  0  0  0  0  0
   -6.1920   22.4562  -32.8937 H   0  0  0  0  0  0  0  0  0  0  0  0
   -6.0318   24.2246  -32.6487 H   0  0  0  0  0  0  0  0  0  0  0  0
   -4.3903   21.9537  -31.4581 H   0  0  0  0  0  0  0  0  0  0  0  0
   -3.8369   23.4788  -32.2471 H   0  0  0  0  0  0  0  0  0  0  0  0
   -4.4529   21.2542  -29.0898 H   0  0  0  0  0  0  0  0  0  0  0  0
   -2.7854   20.4069  -27.4409 H   0  0  0  0  0  0  0  0  0  0  0  0
   -0.8948   21.8632  -26.7107 H   0  0  0  0  0  0  0  0  0  0  0  0
   -0.6717   24.1748  -27.6261 H   0  0  0  0  0  0  0  0  0  0  0  0
   -5.2623   25.0348  -28.8572 H   0  0  0  0  0  0  0  0  0  0  0  0
   -5.1541   25.6369  -30.5565 H   0  0  0  0  0  0  0  0  0  0  0  0
   -7.3155   24.1048  -29.2008 H   0  0  0  0  0  0  0  0  0  0  0  0
   -7.3585   25.1969  -30.6583 H   0  0  0  0  0  0  0  0  0  0  0  0
  1  2  1  0
  2  3  1  0
  2  4  1  0
  4  5  1  0
  5  6  2  0
  5  7  1  0
  7  8  1  0
  8  9  1  0
  9 10  1  0
 10 11  1  0
 11 12  1  0
 12 13  2  0
 13 14  1  0
 14 15  2  0
 15 16  1  0
 16 17  2  0
 17 18  1  0
 11 19  1  0
 19 20  1  0
 20  8  1  0
 17 12  1  0
  1 21  1  0
  1 22  1  0
  1 23  1  0
  2 24  1  0
  3 25  1  0
  3 26  1  0
  3 27  1  0
  4 28  1  0
  7 29  1  0
  7 30  1  0
  9 31  1  0
  9 32  1  0
 10 33  1  0
 10 34  1  0
 13 35  1  0
 14 36  1  0
 15 37  1  0
 16 38  1  0
 19 39  1  0
 19 40  1  0
 20 41  1  0
 20 42  1  0
M  END
>  <UniqueID>  (19) 
19

>  <SMILES>  (19) 
CC(C)NC(=O)CN1CCN(c2ccccc2F)CC1

>  <Energy>  (19) 
43.94937769071427

>  <Genealogy>  (19) 
CC(C)NC(=O)CN1CCN(c2ccccc2F)CC1 (3D coordinates assigned)
CC(C)NC(=O)CN1CCN(c2ccccc2F)CC1 (nonaromatic ring conformer: 43.94937769071427 kcal/mol)

>  <smiles>  (19) 
CC(C)NC(=O)CN1CCN(c2ccccc2F)CC1

>  <score_type>  (19) 
oracle

>  <origin>  (19) 
adg

>  <m_score__min__energy>  (19) 
-7.4900000000000002

>  <m_primary>  (19) 
energy

$$$$
19:0
     RDKit          3D

 70 72  0  0  0  0  0  0  0  0999 V2000
   -4.1070   24.1230  -28.0860 C   0  0  0  0  0  0  0  0  0  0  0  0
   -3.0320   24.5330  -29.0870 C   0  0  0  0  0  0  0  0  0  0  0  0
   -3.6480   24.8660  -30.3780 N   0  0  0  0  0  0  0  0  0  0  0  0
   -5.0450   25.2940  -30.2160 C   0  0  0  0  0  0  0  0  0  0  0  0
   -5.9890   24.1750  -30.6560 C   0  0  0  0  0  0  0  0  0  0  0  0
   -5.4430   23.4490  -31.8040 N   0  0  0  0  0  0  0  0  0  0  0  0
   -5.7500   22.0590  -31.9870 C   0  0  0  0  0  0  0  0  0  0  0  0
   -7.1020   21.6720  -32.0450 C   0  0  0  0  0  0  0  0  0  0  0  0
   -8.1280   22.5930  -31.7350 C   0  0  0  0  0  0  0  0  0  0  0  0
   -9.4680   22.2250  -31.8280 C   0  0  0  0  0  0  0  0  0  0  0  0
   -9.8110   20.9460  -32.2460 C   0  0  0  0  0  0  0  0  0  0  0  0
   -8.8160   20.0200  -32.5590 C   0  0  0  0  0  0  0  0  0  0  0  0
   -7.4410   20.3540  -32.4440 C   0  0  0  0  0  0  0  0  0  0  0  0
   -6.4450   19.4500  -32.7590 N   0  0  0  0  0  0  0  0  0  0  0  0
   -6.7780   18.0230  -32.9600 C   0  0  0  0  0  0  0  0  0  0  0  0
   -5.1330   19.8700  -32.8550 C   0  0  0  0  0  0  0  0  0  0  0  0
   -4.1630   19.0870  -33.5220 C   0  0  0  0  0  0  0  0  0  0  0  0
   -2.8390   19.4930  -33.5920 C   0  0  0  0  0  0  0  0  0  0  0  0
   -2.4210   20.6360  -32.9270 C   0  0  0  0  0  0  0  0  0  0  0  0
   -3.3330   21.4190  -32.1900 C   0  0  0  0  0  0  0  0  0  0  0  0
   -2.8480   22.4820  -31.3190 N   0  0  0  0  0  0  0  0  0  0  0  0
   -1.4960   22.2770  -30.7560 C   0  0  0  0  0  0  0  0  0  0  0  0
   -1.5230   21.9090  -29.2550 C   0  0  0  0  0  0  0  0  0  0  0  0
   -1.6700   20.3910  -28.9620 C   0  0  0  0  0  0  0  0  0  0  0  0
   -1.6730   19.9460  -27.5240 N   0  0  0  0  0  0  0  0  0  0  0  0
   -0.8230   18.7260  -27.4590 C   0  0  0  0  0  0  0  0  0  0  0  0
   -1.0570   20.9810  -26.6520 C   0  0  0  0  0  0  0  0  0  0  0  0
   -3.0660   19.6310  -27.0760 C   0  0  0  0  0  0  0  0  0  0  0  0
   -3.1740   18.5720  -25.9640 C   0  0  0  0  0  0  0  0  0  0  0  0
   -4.7350   21.1300  -32.3210 C   0  0  0  0  0  0  0  0  0  0  0  0
   -3.7294   24.2670  -27.0629 H   0  0  0  0  0  0  0  0  0  0  0  0
   -5.0035   24.7423  -28.2365 H   0  0  0  0  0  0  0  0  0  0  0  0
   -4.3634   23.0639  -28.2365 H   0  0  0  0  0  0  0  0  0  0  0  0
   -2.4931   25.4118  -28.7032 H   0  0  0  0  0  0  0  0  0  0  0  0
   -2.3310   23.6968  -29.2266 H   0  0  0  0  0  0  0  0  0  0  0  0
   -3.1190   25.6670  -30.7970 H   0  0  0  0  0  0  0  0  0  0  0  0
   -5.2322   25.5340  -29.1589 H   0  0  0  0  0  0  0  0  0  0  0  0
   -5.2246   26.1834  -30.8379 H   0  0  0  0  0  0  0  0  0  0  0  0
   -6.1294   23.4735  -29.8204 H   0  0  0  0  0  0  0  0  0  0  0  0
   -6.9502   24.6224  -30.9492 H   0  0  0  0  0  0  0  0  0  0  0  0
   -4.6620   23.8620  -32.3640 H   0  0  0  0  0  0  0  0  0  0  0  0
   -7.8652   23.6126  -31.4165 H   0  0  0  0  0  0  0  0  0  0  0  0
  -10.2555   22.9483  -31.5700 H   0  0  0  0  0  0  0  0  0  0  0  0
  -10.8704   20.6623  -32.3305 H   0  0  0  0  0  0  0  0  0  0  0  0
   -9.1015   19.0141  -32.9007 H   0  0  0  0  0  0  0  0  0  0  0  0
   -6.8926   17.5320  -31.9824 H   0  0  0  0  0  0  0  0  0  0  0  0
   -7.7192   17.9420  -33.5236 H   0  0  0  0  0  0  0  0  0  0  0  0
   -5.9699   17.5338  -33.5236 H   0  0  0  0  0  0  0  0  0  0  0  0
   -4.4637   18.1397  -33.9934 H   0  0  0  0  0  0  0  0  0  0  0  0
   -2.1167   18.9056  -34.1779 H   0  0  0  0  0  0  0  0  0  0  0  0
   -1.3637   20.9357  -32.9752 H   0  0  0  0  0  0  0  0  0  0  0  0
   -2.8450   23.3780  -31.8570 H   0  0  0  0  0  0  0  0  0  0  0  0
   -3.4710   22.5780  -30.4870 H   0  0  0  0  0  0  0  0  0  0  0  0
   -1.0045   21.4629  -31.3089 H   0  0  0  0  0  0  0  0  0  0  0  0
   -0.9481   23.2256  -30.8551 H   0  0  0  0  0  0  0  0  0  0  0  0
   -0.5837   22.2565  -28.8000 H   0  0  0  0  0  0  0  0  0  0  0  0
   -2.4144   22.3950  -28.8318 H   0  0  0  0  0  0  0  0  0  0  0  0
   -2.6202   20.0622  -29.4081 H   0  0  0  0  0  0  0  0  0  0  0  0
   -0.7614   19.9398  -29.3874 H   0  0  0  0  0  0  0  0  0  0  0  0
   -0.6395   18.4626  -26.4069 H   0  0  0  0  0  0  0  0  0  0  0  0
   -1.3376   17.8934  -27.9610 H   0  0  0  0  0  0  0  0  0  0  0  0
    0.1363   18.9203  -27.9610 H   0  0  0  0  0  0  0  0  0  0  0  0
   -1.2162   20.7136  -25.5969 H   0  0  0  0  0  0  0  0  0  0  0  0
    0.0222   21.0382  -26.8570 H   0  0  0  0  0  0  0  0  0  0  0  0
   -1.5214   21.9569  -26.8570 H   0  0  0  0  0  0  0  0  0  0  0  0
   -3.5227   20.5607  -26.7058 H   0  0  0  0  0  0  0  0  0  0  0  0
   -3.5794   19.2071  -27.9516 H   0  0  0  0  0  0  0  0  0  0  0  0
   -3.1237   19.0651  -24.9820 H   0  0  0  0  0  0  0  0  0  0  0  0
   -4.1312   18.0382  -26.0577 H   0  0  0  0  0  0  0  0  0  0  0  0
   -2.3442   17.8560  -26.0577 H   0  0  0  0  0  0  0  0  0  0  0  0
  1  2  1  0
  2  3  1  0
  3  4  1  0
  4  5  1  0
  5  6  1  0
  6  7  1  0
  7  8  2  0
  8  9  1  0
  9 10  2  0
 10 11  1  0
 11 12  2  0
 12 13  1  0
 13 14  2  0
 14 15  1  0
 14 16  1  0
 16 17  2  0
 17 18  1  0
 18 19  2  0
 19 20  1  0
 20 21  1  0
 21 22  1  0
 22 23  1  0
 23 24  1  0
 24 25  1  0
 25 26  1  0
 25 27  1  0
 25 28  1  0
 28 29  1  0
 20 30  2  0
 30  7  1  0
 13  8  1  0
 30 16  1  0
  1 31  1  0
  1 32  1  0
  1 33  1  0
  2 34  1  0
  2 35  1  0
  3 36  1  0
  4 37  1  0
  4 38  1  0
  5 39  1  0
  5 40  1  0
  6 41  1  0
  9 42  1  0
 10 43  1  0
 11 44  1  0
 12 45  1  0
 15 46  1  0
 15 47  1  0
 15 48  1  0
 17 49  1  0
 18 50  1  0
 19 51  1  0
 21 52  1  0
 21 53  1  0
 22 54  1  0
 22 55  1  0
 23 56  1  0
 23 57  1  0
 24 58  1  0
 24 59  1  0
 26 60  1  0
 26 61  1  0
 26 62  1  0
 27 63  1  0
 27 64  1  0
 27 65  1  0
 28 66  1  0
 28 67  1  0
 29 68  1  0
 29 69  1  0
 29 70  1  0
M  CHG  3  14   1  21   1  25   1
M  END
>  <UniqueID>  (20) 
20

>  <SMILES>  (20) 
CCNCCNc1c2ccccc2[n+](C)c2cccc([NH2+]CCC[N+](C)(C)CC)c12

>  <Energy>  (20) 
119.06105514724031

>  <Genealogy>  (20) 
CCNCCNc1c2ccccc2[n+](C)c2cccc([NH2+]CCC[N+](C)(C)CC)c12 (protonated)
CCNCCNc1c2ccccc2[n+](C)c2cccc([NH2+]CCC[N+](C)(C)CC)c12 (3D coordinates assigned)
CCNCCNc1c2ccccc2[n+](C)c2cccc([NH2+]CCC[N+](C)(C)CC)c12 (optimized conformer: 119.06105514724031 kcal/mol)

>  <smiles>  (20) 
CCNCCNc1c2ccccc2[n+](C)c2cccc(NCCC[N+](C)(C)CC)c12

>  <score_type>  (20) 
oracle

>  <origin>  (20) 
adg

>  <m_score__min__energy>  (20) 
-7.3899999999999997

>  <m_primary>  (20) 
energy

$$$$
20:0
     RDKit          3D

 55 57  0  0  0  0  0  0  0  0999 V2000
   -1.3160   21.9800  -30.7250 C   0  0  0  0  0  0  0  0  0  0  0  0
   -2.5250   21.2880  -30.0960 C   0  0  0  0  0  0  0  0  0  0  0  0
   -3.4670   20.6760  -31.1440 C   0  0  0  0  0  0  0  0  0  0  0  0
   -3.0900   21.0760  -32.5760 C   0  0  0  0  0  0  0  0  0  0  0  0
   -4.2910   21.3160  -33.3810 N   0  0  0  0  0  0  0  0  0  0  0  0
   -5.5290   20.6670  -33.0580 C   0  0  0  0  0  0  0  0  0  0  0  0
   -5.6930   19.3190  -33.4400 C   0  0  0  0  0  0  0  0  0  0  0  0
   -4.7330   18.6710  -34.2510 C   0  0  0  0  0  0  0  0  0  0  0  0
   -4.8920   17.3390  -34.6240 C   0  0  0  0  0  0  0  0  0  0  0  0
   -6.0190   16.6340  -34.2210 C   0  0  0  0  0  0  0  0  0  0  0  0
   -6.9920   17.2580  -33.4430 C   0  0  0  0  0  0  0  0  0  0  0  0
   -6.8440   18.6080  -33.0280 C   0  0  0  0  0  0  0  0  0  0  0  0
   -7.8040   19.2380  -32.2700 N   0  0  0  0  0  0  0  0  0  0  0  0
   -8.8450   18.4390  -31.5860 C   0  0  0  0  0  0  0  0  0  0  0  0
   -7.7980   20.6140  -32.1530 C   0  0  0  0  0  0  0  0  0  0  0  0
   -8.9720   21.2980  -31.7670 C   0  0  0  0  0  0  0  0  0  0  0  0
   -8.9920   22.6750  -31.6380 C   0  0  0  0  0  0  0  0  0  0  0  0
   -7.8370   23.4090  -31.8310 C   0  0  0  0  0  0  0  0  0  0  0  0
   -6.6190   22.7850  -32.1680 C   0  0  0  0  0  0  0  0  0  0  0  0
   -5.3820   23.6750  -32.2680 C   0  0  0  0  0  0  0  0  0  0  0  0
   -5.4990   24.9280  -31.5020 N   0  0  0  0  0  0  0  0  0  0  0  0
   -5.4460   24.7350  -30.0400 C   0  0  0  0  0  0  0  0  0  0  0  0
   -4.0970   24.1970  -29.5100 C   0  0  0  0  0  0  0  0  0  0  0  0
   -4.1070   23.8980  -28.0110 C   0  0  0  0  0  0  0  0  0  0  0  0
   -6.6190   21.3690  -32.4560 C   0  0  0  0  0  0  0  0  0  0  0  0
   -0.6556   22.3580  -29.9307 H   0  0  0  0  0  0  0  0  0  0  0  0
   -0.7650   21.2605  -31.3485 H   0  0  0  0  0  0  0  0  0  0  0  0
   -1.6573   22.8195  -31.3485 H   0  0  0  0  0  0  0  0  0  0  0  0
   -2.1668   20.4863  -29.4334 H   0  0  0  0  0  0  0  0  0  0  0  0
   -3.0933   22.0492  -29.5414 H   0  0  0  0  0  0  0  0  0  0  0  0
   -3.4234   19.5800  -31.0606 H   0  0  0  0  0  0  0  0  0  0  0  0
   -4.4801   21.0562  -30.9460 H   0  0  0  0  0  0  0  0  0  0  0  0
   -2.4855   21.9946  -32.5469 H   0  0  0  0  0  0  0  0  0  0  0  0
   -2.5168   20.2557  -33.0326 H   0  0  0  0  0  0  0  0  0  0  0  0
   -4.2580   21.9390  -34.2190 H   0  0  0  0  0  0  0  0  0  0  0  0
   -3.8476   19.2274  -34.5923 H   0  0  0  0  0  0  0  0  0  0  0  0
   -4.1248   16.8447  -35.2381 H   0  0  0  0  0  0  0  0  0  0  0  0
   -6.1435   15.5818  -34.5165 H   0  0  0  0  0  0  0  0  0  0  0  0
   -7.8894   16.6958  -33.1454 H   0  0  0  0  0  0  0  0  0  0  0  0
   -8.7227   18.5329  -30.4969 H   0  0  0  0  0  0  0  0  0  0  0  0
   -9.8399   18.8076  -31.8764 H   0  0  0  0  0  0  0  0  0  0  0  0
   -8.7462   17.3826  -31.8764 H   0  0  0  0  0  0  0  0  0  0  0  0
   -9.8885   20.7242  -31.5650 H   0  0  0  0  0  0  0  0  0  0  0  0
   -9.9306   23.1877  -31.3809 H   0  0  0  0  0  0  0  0  0  0  0  0
   -7.8690   24.5028  -31.7193 H   0  0  0  0  0  0  0  0  0  0  0  0
   -4.5165   23.1130  -31.8871 H   0  0  0  0  0  0  0  0  0  0  0  0
   -5.2655   23.9512  -33.3264 H   0  0  0  0  0  0  0  0  0  0  0  0
   -4.7560   25.5960  -31.8090 H   0  0  0  0  0  0  0  0  0  0  0  0
   -5.6415   25.7046  -29.5587 H   0  0  0  0  0  0  0  0  0  0  0  0
   -6.2018   23.9731  -29.7987 H   0  0  0  0  0  0  0  0  0  0  0  0
   -3.8565   23.2686  -30.0487 H   0  0  0  0  0  0  0  0  0  0  0  0
   -3.3463   24.9832  -29.6783 H   0  0  0  0  0  0  0  0  0  0  0  0
   -4.0754   24.8427  -27.4485 H   0  0  0  0  0  0  0  0  0  0  0  0
   -5.0240   23.3481  -27.7529 H   0  0  0  0  0  0  0  0  0  0  0  0
   -3.2288   23.2880  -27.7529 H   0  0  0  0  0  0  0  0  0  0  0  0
  1  2  1  0
  2  3  1  0
  3  4  1  0
  4  5  1  0
  5  6  1  0
  6  7  2  0
  7  8  1  0
  8  9  2  0
  9 10  1  0
 10 11  2  0
 11 12  1  0
 12 13  2  0
 13 14  1  0
 13 15  1  0
 15 16  2  0
 16 17  1  0
 17 18  2  0
 18 19  1  0
 19 20  1  0
 20 21  1  0
 21 22  1  0
 22 23  1  0
 23 24  1  0
 19 25  2  0
 25  6  1  0
 12  7  1  0
 25 15  1  0
  1 26  1  0
  1 27  1  0
  1 28  1  0
  2 29  1  0
  2 30  1  0
  3 31  1  0
  3 32  1  0
  4 33  1  0
  4 34  1  0
  5 35  1  0
  8 36  1  0
  9 37  1  0
 10 38  1  0
 11 39  1  0
 14 40  1  0
 14 41  1  0
 14 42  1  0
 16 43  1  0
 17 44  1  0
 18 45  1  0
 20 46  1  0
 20 47  1  0
 21 48  1  0
 22 49  1  0
 22 50  1  0
 23 51  1  0
 23 52  1  0
 24 53  1  0
 24 54  1  0
 24 55  1  0
M  CHG  1  13   1
M  END
>  <UniqueID>  (21) 
21

>  <SMILES>  (21) 
CCCCNc1c2ccccc2[n+](C)c2cccc(CNCCC)c12

>  <Energy>  (21) 
86.4577151529253

>  <Genealogy>  (21) 
CCCCNc1c2ccccc2[n+](C)c2cccc(CNCCC)c12 (3D coordinates assigned)
CCCCNc1c2ccccc2[n+](C)c2cccc(CNCCC)c12 (optimized conformer: 86.4577151529253 kcal/mol)

>  <smiles>  (21) 
CCCCNc1c2ccccc2[n+](C)c2cccc(CNCCC)c12

>  <score_type>  (21) 
oracle

>  <origin>  (21) 
adg

>  <m_score__min__energy>  (21) 
-8.7400000000000002

>  <m_primary>  (21) 
energy

$$$$
21:0
     RDKit          3D

 63 65  0  0  0  0  0  0  0  0999 V2000
   -2.7000   20.9040  -29.4590 C   0  0  0  0  0  0  0  0  0  0  0  0
   -1.7730   21.9760  -30.0300 C   0  0  0  0  0  0  0  0  0  0  0  0
   -2.3580   23.3200  -29.9070 N   0  0  0  0  0  0  0  0  0  0  0  0
   -1.9130   24.0270  -28.6920 C   0  0  0  0  0  0  0  0  0  0  0  0
   -3.1320   24.5430  -27.9230 C   0  0  0  0  0  0  0  0  0  0  0  0
   -4.2030   23.4650  -27.7700 C   0  0  0  0  0  0  0  0  0  0  0  0
   -5.0010   23.4600  -28.9330 O   0  0  0  0  0  0  0  0  0  0  0  0
   -5.2630   24.7790  -29.3730 C   0  0  0  0  0  0  0  0  0  0  0  0
   -6.2920   24.7450  -30.5090 C   0  0  0  0  0  0  0  0  0  0  0  0
   -5.7530   24.0810  -31.7860 C   0  0  0  0  0  0  0  0  0  0  0  0
   -5.0560   22.8260  -31.4940 N   0  0  0  0  0  0  0  0  0  0  0  0
   -5.4550   21.5790  -32.0890 C   0  0  0  0  0  0  0  0  0  0  0  0
   -4.5160   20.7990  -32.7790 C   0  0  0  0  0  0  0  0  0  0  0  0
   -4.9040   19.5690  -33.3430 C   0  0  0  0  0  0  0  0  0  0  0  0
   -6.1810   19.0740  -33.1480 N   0  0  0  0  0  0  0  0  0  0  0  0
   -6.4960   17.6750  -33.5260 C   0  0  0  0  0  0  0  0  0  0  0  0
   -6.0160   16.6920  -32.4600 C   0  0  0  0  0  0  0  0  0  0  0  0
   -7.1510   19.8860  -32.5800 C   0  0  0  0  0  0  0  0  0  0  0  0
   -8.5210   19.5070  -32.5400 C   0  0  0  0  0  0  0  0  0  0  0  0
   -9.4860   20.3430  -31.9810 C   0  0  0  0  0  0  0  0  0  0  0  0
   -9.1270   21.5810  -31.4660 C   0  0  0  0  0  0  0  0  0  0  0  0
   -7.7990   21.9910  -31.5030 C   0  0  0  0  0  0  0  0  0  0  0  0
   -6.7960   21.1550  -32.0420 C   0  0  0  0  0  0  0  0  0  0  0  0
   -3.8560   18.8820  -34.2110 C   0  0  0  0  0  0  0  0  0  0  0  0
   -2.5180   18.7840  -33.4680 C   0  0  0  0  0  0  0  0  0  0  0  0
   -2.0990   20.0980  -32.7660 C   0  0  0  0  0  0  0  0  0  0  0  0
   -3.0850   21.2590  -32.9760 C   0  0  0  0  0  0  0  0  0  0  0  0
   -2.6689   20.9399  -28.3600 H   0  0  0  0  0  0  0  0  0  0  0  0
   -3.7286   21.0876  -29.8029 H   0  0  0  0  0  0  0  0  0  0  0  0
   -2.3698   19.9127  -29.8029 H   0  0  0  0  0  0  0  0  0  0  0  0
   -0.8188   21.9507  -29.4833 H   0  0  0  0  0  0  0  0  0  0  0  0
   -1.6197   21.7643  -31.0985 H   0  0  0  0  0  0  0  0  0  0  0  0
   -3.3980   23.1990  -29.8500 H   0  0  0  0  0  0  0  0  0  0  0  0
   -1.3434   23.3354  -28.0539 H   0  0  0  0  0  0  0  0  0  0  0  0
   -1.2742   24.8761  -28.9765 H   0  0  0  0  0  0  0  0  0  0  0  0
   -2.8102   24.8699  -26.9232 H   0  0  0  0  0  0  0  0  0  0  0  0
   -3.5664   25.3789  -28.4910 H   0  0  0  0  0  0  0  0  0  0  0  0
   -3.7252   22.4823  -27.6434 H   0  0  0  0  0  0  0  0  0  0  0  0
   -4.8246   23.6734  -26.8868 H   0  0  0  0  0  0  0  0  0  0  0  0
   -5.6603   25.3723  -28.5363 H   0  0  0  0  0  0  0  0  0  0  0  0
   -4.3308   25.2357  -29.7369 H   0  0  0  0  0  0  0  0  0  0  0  0
   -7.1737   24.1833  -30.1669 H   0  0  0  0  0  0  0  0  0  0  0  0
   -6.5413   25.7868  -30.7592 H   0  0  0  0  0  0  0  0  0  0  0  0
   -6.5957   23.8715  -32.4613 H   0  0  0  0  0  0  0  0  0  0  0  0
   -5.0343   24.7707  -32.2528 H   0  0  0  0  0  0  0  0  0  0  0  0
   -4.3050   22.8150  -30.7690 H   0  0  0  0  0  0  0  0  0  0  0  0
   -7.5847   17.5721  -33.6445 H   0  0  0  0  0  0  0  0  0  0  0  0
   -5.9791   17.4448  -34.4693 H   0  0  0  0  0  0  0  0  0  0  0  0
   -6.2184   17.1064  -31.4613 H   0  0  0  0  0  0  0  0  0  0  0  0
   -6.5490   15.7367  -32.5755 H   0  0  0  0  0  0  0  0  0  0  0  0
   -4.9349   16.5249  -32.5755 H   0  0  0  0  0  0  0  0  0  0  0  0
   -8.8248   18.5359  -32.9580 H   0  0  0  0  0  0  0  0  0  0  0  0
  -10.5370   20.0202  -31.9478 H   0  0  0  0  0  0  0  0  0  0  0  0
   -9.8933   22.2378  -31.0285 H   0  0  0  0  0  0  0  0  0  0  0  0
   -7.5256   22.9802  -31.1070 H   0  0  0  0  0  0  0  0  0  0  0  0
   -4.2037   17.8696  -34.4640 H   0  0  0  0  0  0  0  0  0  0  0  0
   -3.7103   19.4747  -35.1261 H   0  0  0  0  0  0  0  0  0  0  0  0
   -2.6005   17.9944  -32.7066 H   0  0  0  0  0  0  0  0  0  0  0  0
   -1.7475   18.5618  -34.2210 H   0  0  0  0  0  0  0  0  0  0  0  0
   -2.0183   19.9033  -31.6864 H   0  0  0  0  0  0  0  0  0  0  0  0
   -1.1423   20.4072  -33.2123 H   0  0  0  0  0  0  0  0  0  0  0  0
   -2.8608   22.0567  -32.2525 H   0  0  0  0  0  0  0  0  0  0  0  0
   -2.9749   21.6303  -34.0056 H   0  0  0  0  0  0  0  0  0  0  0  0
  1  2  1  0
  2  3  1  0
  3  4  1  0
  4  5  1  0
  5  6  1  0
  6  7  1  0
  7  8  1  0
  8  9  1  0
  9 10  1  0
 10 11  1  0
 11 12  1  0
 12 13  2  0
 13 14  1  0
 14 15  2  0
 15 16  1  0
 16 17  1  0
 15 18  1  0
 18 19  2  0
 19 20  1  0
 20 21  2  0
 21 22  1  0
 22 23  2  0
 14 24  1  0
 24 25  1  0
 25 26  1  0
 26 27  1  0
 23 12  1  0
 27 13  1  0
 23 18  1  0
  1 28  1  0
  1 29  1  0
  1 30  1  0
  2 31  1  0
  2 32  1  0
  3 33  1  0
  4 34  1  0
  4 35  1  0
  5 36  1  0
  5 37  1  0
  6 38  1  0
  6 39  1  0
  8 40  1  0
  8 41  1  0
  9 42  1  0
  9 43  1  0
 10 44  1  0
 10 45  1  0
 11 46  1  0
 16 47  1  0
 16 48  1  0
 17 49  1  0
 17 50  1  0
 17 51  1  0
 19 52  1  0
 20 53  1  0
 21 54  1  0
 22 55  1  0
 24 56  1  0
 24 57  1  0
 25 58  1  0
 25 59  1  0
 26 60  1  0
 26 61  1  0
 27 62  1  0
 27 63  1  0
M  CHG  1  15   1
M  END
>  <UniqueID>  (22) 
22

>  <SMILES>  (22) 
CCNCCCOCCCNc1c2c([n+](CC)c3ccccc13)CCCC2

>  <Energy>  (22) 
79.84756855654355

>  <Genealogy>  (22) 
CCNCCCOCCCNc1c2c([n+](CC)c3ccccc13)CCCC2 (3D coordinates assigned)
CCNCCCOCCCNc1c2c([n+](CC)c3ccccc13)CCCC2 (nonaromatic ring conformer: 79.84756855654355 kcal/mol)

>  <smiles>  (22) 
CCNCCCOCCCNc1c2c([n+](CC)c3ccccc13)CCCC2

>  <score_type>  (22) 
oracle

>  <origin>  (22) 
adg

>  <m_score__min__energy>  (22) 
-9.2100000000000009

>  <m_primary>  (22) 
energy

$$$$
22:0
     RDKit          3D

 38 40  0  0  0  0  0  0  0  0999 V2000
   -6.4530   15.5990  -33.9560 C   0  0  0  0  0  0  0  0  0  0  0  0
   -5.7380   16.2210  -32.7570 C   0  0  0  0  0  0  0  0  0  0  0  0
   -6.0970   17.6460  -32.5970 N   0  0  0  0  0  0  0  0  0  0  0  0
   -7.5430   17.7880  -32.3430 C   0  0  0  0  0  0  0  0  0  0  0  0
   -7.8420   19.2240  -31.8970 C   0  0  0  0  0  0  0  0  0  0  0  0
   -7.0420   20.1840  -32.6680 N   0  0  0  0  0  0  0  0  0  0  0  0
   -6.5970   21.4140  -32.0660 C   0  0  0  0  0  0  0  0  0  0  0  0
   -5.2790   21.6940  -31.8830 N   0  0  0  0  0  0  0  0  0  0  0  0
   -5.3070   22.8880  -31.2650 C   0  0  0  0  0  0  0  0  0  0  0  0
   -4.2180   23.6410  -30.8320 C   0  0  0  0  0  0  0  0  0  0  0  0
   -4.4820   24.8670  -30.1930 C   0  0  0  0  0  0  0  0  0  0  0  0
   -5.8130   25.3030  -30.0040 C   0  0  0  0  0  0  0  0  0  0  0  0
   -6.8910   24.5190  -30.4540 C   0  0  0  0  0  0  0  0  0  0  0  0
   -6.5950   23.3080  -31.0870 C   0  0  0  0  0  0  0  0  0  0  0  0
   -7.4280   22.3890  -31.6040 N   0  0  0  0  0  0  0  0  0  0  0  0
   -8.8890   22.4390  -31.6700 C   0  0  0  0  0  0  0  0  0  0  0  0
   -6.4780   19.7510  -33.9480 C   0  0  0  0  0  0  0  0  0  0  0  0
   -5.6650   18.4540  -33.7690 C   0  0  0  0  0  0  0  0  0  0  0  0
   -7.2384   14.9158  -33.6006 H   0  0  0  0  0  0  0  0  0  0  0  0
   -6.9071   16.3944  -34.5652 H   0  0  0  0  0  0  0  0  0  0  0  0
   -5.7281   15.0392  -34.5652 H   0  0  0  0  0  0  0  0  0  0  0  0
   -6.0246   15.6749  -31.8462 H   0  0  0  0  0  0  0  0  0  0  0  0
   -4.6532   16.1534  -32.9265 H   0  0  0  0  0  0  0  0  0  0  0  0
   -8.1012   17.5660  -33.2645 H   0  0  0  0  0  0  0  0  0  0  0  0
   -7.8484   17.0863  -31.5528 H   0  0  0  0  0  0  0  0  0  0  0  0
   -8.9100   19.4358  -32.0537 H   0  0  0  0  0  0  0  0  0  0  0  0
   -7.5853   19.3243  -30.8321 H   0  0  0  0  0  0  0  0  0  0  0  0
   -3.1869   23.2895  -30.9843 H   0  0  0  0  0  0  0  0  0  0  0  0
   -3.6473   25.4896  -29.8386 H   0  0  0  0  0  0  0  0  0  0  0  0
   -6.0074   26.2620  -29.5015 H   0  0  0  0  0  0  0  0  0  0  0  0
   -7.9312   24.8475  -30.3127 H   0  0  0  0  0  0  0  0  0  0  0  0
   -9.3018   22.4531  -30.6505 H   0  0  0  0  0  0  0  0  0  0  0  0
   -9.2010   23.3483  -32.2046 H   0  0  0  0  0  0  0  0  0  0  0  0
   -9.2624   21.5531  -32.2046 H   0  0  0  0  0  0  0  0  0  0  0  0
   -7.2958   19.5700  -34.6611 H   0  0  0  0  0  0  0  0  0  0  0  0
   -5.8111   20.5392  -34.3275 H   0  0  0  0  0  0  0  0  0  0  0  0
   -5.7792   17.8423  -34.6761 H   0  0  0  0  0  0  0  0  0  0  0  0
   -4.6189   18.7464  -33.5955 H   0  0  0  0  0  0  0  0  0  0  0  0
  1  2  1  0
  2  3  1  0
  3  4  1  0
  4  5  1  0
  5  6  1  0
  6  7  1  0
  7  8  2  0
  8  9  1  0
  9 10  2  0
 10 11  1  0
 11 12  2  0
 12 13  1  0
 13 14  2  0
 14 15  1  0
 15 16  1  0
  6 17  1  0
 17 18  1  0
 18  3  1  0
 15  7  1  0
 14  9  1  0
  1 19  1  0
  1 20  1  0
  1 21  1  0
  2 22  1  0
  2 23  1  0
  4 24  1  0
  4 25  1  0
  5 26  1  0
  5 27  1  0
 10 28  1  0
 11 29  1  0
 12 30  1  0
 13 31  1  0
 16 32  1  0
 16 33  1  0
 16 34  1  0
 17 35  1  0
 17 36  1  0
 18 37  1  0
 18 38  1  0
M  END
>  <UniqueID>  (23) 
23

>  <SMILES>  (23) 
CCN1CCN(c2nc3ccccc3n2C)CC1

>  <Energy>  (23) 
84.51916731951279

>  <Genealogy>  (23) 
CCN1CCN(c2nc3ccccc3n2C)CC1 (3D coordinates assigned)
CCN1CCN(c2nc3ccccc3n2C)CC1 (nonaromatic ring conformer: 84.51916731951279 kcal/mol)

>  <smiles>  (23) 
CCN1CCN(c2nc3ccccc3n2C)CC1

>  <score_type>  (23) 
oracle

>  <origin>  (23) 
adg

>  <m_score__min__energy>  (23) 
-6.6200000000000001

>  <m_primary>  (23) 
energy

$$$$
23:0
     RDKit          3D

 54 56  0  0  0  0  0  0  0  0999 V2000
   -6.4830   25.3150  -29.3620 C   0  0  0  0  0  0  0  0  0  0  0  0
   -5.7170   25.6750  -30.6260 C   0  0  0  0  0  0  0  0  0  0  0  0
   -4.7660   24.6750  -30.8930 O   0  0  0  0  0  0  0  0  0  0  0  0
   -3.5670   25.1790  -30.5040 N   0  0  0  0  0  0  0  0  0  0  0  0
   -2.7390   24.5030  -29.5560 C   0  0  0  0  0  0  0  0  0  0  0  0
   -1.8920   25.1450  -28.8800 O   0  0  0  0  0  0  0  0  0  0  0  0
   -2.8950   23.0240  -29.3690 C   0  0  0  0  0  0  0  0  0  0  0  0
   -3.8340   22.4780  -30.3620 N   0  0  0  0  0  0  0  0  0  0  0  0
   -3.3260   21.2740  -31.0450 C   0  0  0  0  0  0  0  0  0  0  0  0
   -3.0420   21.4740  -32.5470 C   0  0  0  0  0  0  0  0  0  0  0  0
   -4.2700   21.4940  -33.3520 N   0  0  0  0  0  0  0  0  0  0  0  0
   -5.4150   20.6640  -33.0530 C   0  0  0  0  0  0  0  0  0  0  0  0
   -6.5640   21.2170  -32.4510 C   0  0  0  0  0  0  0  0  0  0  0  0
   -6.7180   22.6150  -32.3240 C   0  0  0  0  0  0  0  0  0  0  0  0
   -7.8010   23.1560  -31.6370 C   0  0  0  0  0  0  0  0  0  0  0  0
   -8.7520   22.3180  -31.0710 C   0  0  0  0  0  0  0  0  0  0  0  0
   -8.6590   20.9370  -31.2420 C   0  0  0  0  0  0  0  0  0  0  0  0
   -7.6000   20.3610  -31.9910 C   0  0  0  0  0  0  0  0  0  0  0  0
   -7.5600   19.0070  -32.2710 N   0  0  0  0  0  0  0  0  0  0  0  0
   -8.7580   18.1690  -32.0310 C   0  0  0  0  0  0  0  0  0  0  0  0
   -6.4250   18.4460  -32.8270 C   0  0  0  0  0  0  0  0  0  0  0  0
   -6.2650   17.0390  -32.9230 C   0  0  0  0  0  0  0  0  0  0  0  0
   -5.1500   16.4800  -33.5410 C   0  0  0  0  0  0  0  0  0  0  0  0
   -4.1650   17.2960  -34.0920 C   0  0  0  0  0  0  0  0  0  0  0  0
   -2.9500   16.6890  -34.7300 C   0  0  0  0  0  0  0  0  0  0  0  0
   -4.2660   18.6830  -33.9520 C   0  0  0  0  0  0  0  0  0  0  0  0
   -5.3670   19.2740  -33.2900 C   0  0  0  0  0  0  0  0  0  0  0  0
   -5.8877   25.5948  -28.4803 H   0  0  0  0  0  0  0  0  0  0  0  0
   -7.4396   25.8578  -29.3458 H   0  0  0  0  0  0  0  0  0  0  0  0
   -6.6756   24.2321  -29.3458 H   0  0  0  0  0  0  0  0  0  0  0  0
   -6.4172   25.7513  -31.4709 H   0  0  0  0  0  0  0  0  0  0  0  0
   -5.2079   26.6401  -30.4864 H   0  0  0  0  0  0  0  0  0  0  0  0
   -1.9157   22.5379  -29.4905 H   0  0  0  0  0  0  0  0  0  0  0  0
   -3.2899   22.8313  -28.3606 H   0  0  0  0  0  0  0  0  0  0  0  0
   -4.7200   22.2130  -29.8690 H   0  0  0  0  0  0  0  0  0  0  0  0
   -4.0750   23.2050  -31.0660 H   0  0  0  0  0  0  0  0  0  0  0  0
   -2.3903   20.9677  -30.5545 H   0  0  0  0  0  0  0  0  0  0  0  0
   -4.1148   20.5109  -30.9706 H   0  0  0  0  0  0  0  0  0  0  0  0
   -2.5154   22.4302  -32.6825 H   0  0  0  0  0  0  0  0  0  0  0  0
   -2.4314   20.6251  -32.8884 H   0  0  0  0  0  0  0  0  0  0  0  0
   -4.2570   22.0480  -34.2370 H   0  0  0  0  0  0  0  0  0  0  0  0
   -5.9716   23.2859  -32.7743 H   0  0  0  0  0  0  0  0  0  0  0  0
   -7.9032   24.2472  -31.5426 H   0  0  0  0  0  0  0  0  0  0  0  0
   -9.5807   22.7441  -30.4864 H   0  0  0  0  0  0  0  0  0  0  0  0
   -9.4190   20.2834  -30.7889 H   0  0  0  0  0  0  0  0  0  0  0  0
   -8.9168   18.0579  -30.9482 H   0  0  0  0  0  0  0  0  0  0  0  0
   -9.6381   18.6494  -32.4833 H   0  0  0  0  0  0  0  0  0  0  0  0
   -8.6085   17.1775  -32.4833 H   0  0  0  0  0  0  0  0  0  0  0  0
   -7.0365   16.3780  -32.5012 H   0  0  0  0  0  0  0  0  0  0  0  0
   -5.0461   15.3862  -33.5945 H   0  0  0  0  0  0  0  0  0  0  0  0
   -2.2587   16.3436  -33.9472 H   0  0  0  0  0  0  0  0  0  0  0  0
   -3.2517   15.8358  -35.3552 H   0  0  0  0  0  0  0  0  0  0  0  0
   -2.4489   17.4427  -35.3552 H   0  0  0  0  0  0  0  0  0  0  0  0
   -3.4748   19.3265  -34.3642 H   0  0  0  0  0  0  0  0  0  0  0  0
  1  2  1  0
  2  3  1  0
  3  4  1  0
  4  5  1  0
  5  6  2  0
  5  7  1  0
  7  8  1  0
  8  9  1  0
  9 10  1  0
 10 11  1  0
 11 12  1  0
 12 13  2  0
 13 14  1  0
 14 15  2  0
 15 16  1  0
 16 17  2  0
 17 18  1  0
 18 19  2  0
 19 20  1  0
 19 21  1  0
 21 22  2  0
 22 23  1  0
 23 24  2  0
 24 25  1  0
 24 26  1  0
 26 27  2  0
 27 12  1  0
 18 13  1  0
 27 21  1  0
  1 28  1  0
  1 29  1  0
  1 30  1  0
  2 31  1  0
  2 32  1  0
  7 33  1  0
  7 34  1  0
  8 35  1  0
  8 36  1  0
  9 37  1  0
  9 38  1  0
 10 39  1  0
 10 40  1  0
 11 41  1  0
 14 42  1  0
 15 43  1  0
 16 44  1  0
 17 45  1  0
 20 46  1  0
 20 47  1  0
 20 48  1  0
 22 49  1  0
 23 50  1  0
 25 51  1  0
 25 52  1  0
 25 53  1  0
 26 54  1  0
M  CHG  3   4  -1   8   1  19   1
M  END
>  <UniqueID>  (24) 
24

>  <SMILES>  (24) 
CCO[N-]C(=O)C[NH2+]CCNc1c2ccccc2[n+](C)c2ccc(C)cc12

>  <Energy>  (24) 
72.57071342577417

>  <Genealogy>  (24) 
CCO[N-]C(=O)C[NH2+]CCNc1c2ccccc2[n+](C)c2ccc(C)cc12 (protonated)
CCO[N-]C(=O)C[NH2+]CCNc1c2ccccc2[n+](C)c2ccc(C)cc12 (3D coordinates assigned)
CCO[N-]C(=O)C[NH2+]CCNc1c2ccccc2[n+](C)c2ccc(C)cc12 (optimized conformer: 72.57071342577417 kcal/mol)

>  <smiles>  (24) 
CCONC(=O)CNCCNc1c2ccccc2[n+](C)c2ccc(C)cc12

>  <score_type>  (24) 
oracle

>  <origin>  (24) 
adg

>  <m_score__min__energy>  (24) 
-10.06

>  <m_primary>  (24) 
energy

$$$$
24:0
     RDKit          3D

 49 51  0  0  0  0  0  0  0  0999 V2000
   -0.5930   24.2560  -27.9530 C   0  0  0  0  0  0  0  0  0  0  0  0
   -1.7580   25.2400  -27.9820 C   0  0  0  0  0  0  0  0  0  0  0  0
   -2.4410   25.2090  -29.2780 N   0  0  0  0  0  0  0  0  0  0  0  0
   -3.7170   24.5750  -29.4830 C   0  0  0  0  0  0  0  0  0  0  0  0
   -4.7040   25.2420  -30.2250 C   0  0  0  0  0  0  0  0  0  0  0  0
   -5.9520   24.6520  -30.4410 C   0  0  0  0  0  0  0  0  0  0  0  0
   -6.2390   23.3850  -29.9100 C   0  0  0  0  0  0  0  0  0  0  0  0
   -7.5710   22.7370  -30.1750 C   0  0  0  0  0  0  0  0  0  0  0  0
   -7.8200   22.6090  -31.6830 C   0  0  0  0  0  0  0  0  0  0  0  0
   -7.8490   21.1590  -32.0990 C   0  0  0  0  0  0  0  0  0  0  0  0
   -9.0560   20.4420  -31.9570 C   0  0  0  0  0  0  0  0  0  0  0  0
   -9.1330   19.0830  -32.2870 C   0  0  0  0  0  0  0  0  0  0  0  0
   -7.9940   18.4200  -32.7490 C   0  0  0  0  0  0  0  0  0  0  0  0
   -6.8340   19.1220  -32.8570 N   0  0  0  0  0  0  0  0  0  0  0  0
   -5.6190   18.7070  -33.2730 C   0  0  0  0  0  0  0  0  0  0  0  0
   -5.3220   17.3120  -33.7650 C   0  0  0  0  0  0  0  0  0  0  0  0
   -5.2190   16.2820  -32.6420 C   0  0  0  0  0  0  0  0  0  0  0  0
   -4.7340   19.7290  -33.2730 N   0  0  0  0  0  0  0  0  0  0  0  0
   -5.4030   20.8110  -32.8170 C   0  0  0  0  0  0  0  0  0  0  0  0
   -4.7680   22.1630  -32.7150 C   0  0  0  0  0  0  0  0  0  0  0  0
   -6.7240   20.4340  -32.5600 C   0  0  0  0  0  0  0  0  0  0  0  0
   -5.2520   22.7090  -29.1770 C   0  0  0  0  0  0  0  0  0  0  0  0
   -4.0030   23.2990  -28.9600 C   0  0  0  0  0  0  0  0  0  0  0  0
   -0.3280   24.0322  -26.9091 H   0  0  0  0  0  0  0  0  0  0  0  0
   -0.8849   23.3269  -28.4645 H   0  0  0  0  0  0  0  0  0  0  0  0
    0.2741   24.6992  -28.4645 H   0  0  0  0  0  0  0  0  0  0  0  0
   -2.4745   24.9722  -27.1915 H   0  0  0  0  0  0  0  0  0  0  0  0
   -1.3639   26.2538  -27.8184 H   0  0  0  0  0  0  0  0  0  0  0  0
   -1.9820   25.6680  -30.0990 H   0  0  0  0  0  0  0  0  0  0  0  0
   -4.4931   26.2385  -30.6404 H   0  0  0  0  0  0  0  0  0  0  0  0
   -6.7137   25.1834  -31.0304 H   0  0  0  0  0  0  0  0  0  0  0  0
   -7.5822   21.7353  -29.7207 H   0  0  0  0  0  0  0  0  0  0  0  0
   -8.3626   23.3629  -29.7373 H   0  0  0  0  0  0  0  0  0  0  0  0
   -8.7855   23.0747  -31.9301 H   0  0  0  0  0  0  0  0  0  0  0  0
   -7.0034   23.1140  -32.2198 H   0  0  0  0  0  0  0  0  0  0  0  0
   -9.9512   20.9589  -31.5809 H   0  0  0  0  0  0  0  0  0  0  0  0
  -10.0847   18.5413  -32.1829 H   0  0  0  0  0  0  0  0  0  0  0  0
   -8.0341   17.3545  -33.0194 H   0  0  0  0  0  0  0  0  0  0  0  0
   -6.1277   17.0041  -34.4477 H   0  0  0  0  0  0  0  0  0  0  0  0
   -4.3431   17.3457  -34.2656 H   0  0  0  0  0  0  0  0  0  0  0  0
   -5.2701   16.7935  -31.6695 H   0  0  0  0  0  0  0  0  0  0  0  0
   -6.0500   15.5660  -32.7238 H   0  0  0  0  0  0  0  0  0  0  0  0
   -4.2626   15.7447  -32.7238 H   0  0  0  0  0  0  0  0  0  0  0  0
   -3.7350   19.7050  -33.5760 H   0  0  0  0  0  0  0  0  0  0  0  0
   -4.6425   22.4302  -31.6553 H   0  0  0  0  0  0  0  0  0  0  0  0
   -3.7845   22.1443  -33.2074 H   0  0  0  0  0  0  0  0  0  0  0  0
   -5.4104   22.9079  -33.2074 H   0  0  0  0  0  0  0  0  0  0  0  0
   -5.4620   21.7087  -28.7705 H   0  0  0  0  0  0  0  0  0  0  0  0
   -3.2392   22.7633  -28.3773 H   0  0  0  0  0  0  0  0  0  0  0  0
  1  2  1  0
  2  3  1  0
  3  4  1  0
  4  5  2  0
  5  6  1  0
  6  7  2  0
  7  8  1  0
  8  9  1  0
  9 10  1  0
 10 11  2  0
 11 12  1  0
 12 13  2  0
 13 14  1  0
 14 15  1  0
 15 16  1  0
 16 17  1  0
 15 18  2  0
 18 19  1  0
 19 20  1  0
 19 21  2  0
  7 22  1  0
 22 23  2  0
 23  4  1  0
 21 10  1  0
 21 14  1  0
  1 24  1  0
  1 25  1  0
  1 26  1  0
  2 27  1  0
  2 28  1  0
  3 29  1  0
  5 30  1  0
  6 31  1  0
  8 32  1  0
  8 33  1  0
  9 34  1  0
  9 35  1  0
 11 36  1  0
 12 37  1  0
 13 38  1  0
 16 39  1  0
 16 40  1  0
 17 41  1  0
 17 42  1  0
 17 43  1  0
 18 44  1  0
 20 45  1  0
 20 46  1  0
 20 47  1  0
 22 48  1  0
 23 49  1  0
M  CHG  1  18   1
M  END
>  <UniqueID>  (25) 
25

>  <SMILES>  (25) 
CCNc1ccc(CCc2cccn3c(CC)[nH+]c(C)c23)cc1

>  <Energy>  (25) 
80.78323773095472

>  <Genealogy>  (25) 
CCNc1ccc(CCc2cccn3c(CC)[nH+]c(C)c23)cc1 (protonated)
CCNc1ccc(CCc2cccn3c(CC)[nH+]c(C)c23)cc1 (3D coordinates assigned)
CCNc1ccc(CCc2cccn3c(CC)[nH+]c(C)c23)cc1 (optimized conformer: 80.78323773095472 kcal/mol)

>  <smiles>  (25) 
CCNc1ccc(CCc2cccn3c(CC)nc(C)c23)cc1

>  <score_type>  (25) 
oracle

>  <origin>  (25) 
adg

>  <m_score__min__energy>  (25) 
-8.6300000000000008

>  <m_primary>  (25) 
energy

$$$$
25:0
     RDKit          3D

 56 58  0  0  0  0  0  0  0  0999 V2000
   -3.1150   18.9280  -26.5470 C   0  0  0  0  0  0  0  0  0  0  0  0
   -2.2560   20.0360  -27.1550 C   0  0  0  0  0  0  0  0  0  0  0  0
   -2.7340   20.4640  -28.5500 C   0  0  0  0  0  0  0  0  0  0  0  0
   -2.4200   21.9350  -28.8590 C   0  0  0  0  0  0  0  0  0  0  0  0
   -3.5110   22.5350  -29.6400 N   0  0  0  0  0  0  0  0  0  0  0  0
   -4.4140   23.3200  -28.7860 C   0  0  0  0  0  0  0  0  0  0  0  0
   -4.7190   24.6660  -29.4380 C   0  0  0  0  0  0  0  0  0  0  0  0
   -4.6030   24.5440  -30.8410 O   0  0  0  0  0  0  0  0  0  0  0  0
   -5.8780   24.6000  -31.4510 C   0  0  0  0  0  0  0  0  0  0  0  0
   -6.1280   23.3290  -32.2640 C   0  0  0  0  0  0  0  0  0  0  0  0
   -5.2270   22.2630  -31.8300 N   0  0  0  0  0  0  0  0  0  0  0  0
   -5.3180   20.9430  -32.3910 C   0  0  0  0  0  0  0  0  0  0  0  0
   -6.5140   20.2090  -32.2940 C   0  0  0  0  0  0  0  0  0  0  0  0
   -7.6310   20.7290  -31.6060 C   0  0  0  0  0  0  0  0  0  0  0  0
   -8.7980   19.9800  -31.4740 C   0  0  0  0  0  0  0  0  0  0  0  0
   -8.8690   18.7010  -32.0130 C   0  0  0  0  0  0  0  0  0  0  0  0
   -7.7870   18.1740  -32.7150 C   0  0  0  0  0  0  0  0  0  0  0  0
   -6.5990   18.9280  -32.9040 C   0  0  0  0  0  0  0  0  0  0  0  0
   -5.5410   18.4430  -33.6510 N   0  0  0  0  0  0  0  0  0  0  0  0
   -5.7320   17.2640  -34.5250 C   0  0  0  0  0  0  0  0  0  0  0  0
   -4.3120   19.0710  -33.5960 C   0  0  0  0  0  0  0  0  0  0  0  0
   -3.1390   18.4640  -34.1140 C   0  0  0  0  0  0  0  0  0  0  0  0
   -1.9090   19.1230  -34.0800 C   0  0  0  0  0  0  0  0  0  0  0  0
   -0.4780   18.3460  -34.7330 Cl  0  0  0  0  0  0  0  0  0  0  0  0
   -1.8110   20.3890  -33.5130 C   0  0  0  0  0  0  0  0  0  0  0  0
   -2.9370   20.9950  -32.9610 C   0  0  0  0  0  0  0  0  0  0  0  0
   -4.1910   20.3500  -32.9890 C   0  0  0  0  0  0  0  0  0  0  0  0
   -3.0683   18.9882  -25.4496 H   0  0  0  0  0  0  0  0  0  0  0  0
   -4.1573   19.0494  -26.8769 H   0  0  0  0  0  0  0  0  0  0  0  0
   -2.7377   17.9488  -26.8769 H   0  0  0  0  0  0  0  0  0  0  0  0
   -2.2884   20.9109  -26.4890 H   0  0  0  0  0  0  0  0  0  0  0  0
   -1.2349   19.6413  -27.2622 H   0  0  0  0  0  0  0  0  0  0  0  0
   -2.2368   19.8328  -29.3013 H   0  0  0  0  0  0  0  0  0  0  0  0
   -3.8272   20.3449  -28.5775 H   0  0  0  0  0  0  0  0  0  0  0  0
   -2.3029   22.4873  -27.9150 H   0  0  0  0  0  0  0  0  0  0  0  0
   -1.4897   21.9877  -29.4436 H   0  0  0  0  0  0  0  0  0  0  0  0
   -3.0850   23.1920  -30.3350 H   0  0  0  0  0  0  0  0  0  0  0  0
   -5.3527   22.7647  -28.6427 H   0  0  0  0  0  0  0  0  0  0  0  0
   -3.9283   23.4938  -27.8145 H   0  0  0  0  0  0  0  0  0  0  0  0
   -5.7425   24.9755  -29.1798 H   0  0  0  0  0  0  0  0  0  0  0  0
   -4.0063   25.4208  -29.0743 H   0  0  0  0  0  0  0  0  0  0  0  0
   -6.6499   24.6918  -30.6727 H   0  0  0  0  0  0  0  0  0  0  0  0
   -5.9180   25.4705  -32.1223 H   0  0  0  0  0  0  0  0  0  0  0  0
   -7.1693   23.0050  -32.1197 H   0  0  0  0  0  0  0  0  0  0  0  0
   -5.9433   23.5425  -33.3272 H   0  0  0  0  0  0  0  0  0  0  0  0
   -4.7010   22.3980  -30.9370 H   0  0  0  0  0  0  0  0  0  0  0  0
   -7.5795   21.7372  -31.1690 H   0  0  0  0  0  0  0  0  0  0  0  0
   -9.6642   20.4012  -30.9427 H   0  0  0  0  0  0  0  0  0  0  0  0
   -9.7829   18.1024  -31.8849 H   0  0  0  0  0  0  0  0  0  0  0  0
   -7.8543   17.1573  -33.1295 H   0  0  0  0  0  0  0  0  0  0  0  0
   -5.8773   16.3673  -33.9046 H   0  0  0  0  0  0  0  0  0  0  0  0
   -6.6169   17.4178  -35.1600 H   0  0  0  0  0  0  0  0  0  0  0  0
   -4.8438   17.1306  -35.1600 H   0  0  0  0  0  0  0  0  0  0  0  0
   -3.1999   17.4560  -34.5502 H   0  0  0  0  0  0  0  0  0  0  0  0
   -0.8435   20.9122  -33.5005 H   0  0  0  0  0  0  0  0  0  0  0  0
   -2.8472   21.9886  -32.4976 H   0  0  0  0  0  0  0  0  0  0  0  0
  1  2  1  0
  2  3  1  0
  3  4  1  0
  4  5  1  0
  5  6  1  0
  6  7  1  0
  7  8  1  0
  8  9  1  0
  9 10  1  0
 10 11  1  0
 11 12  1  0
 12 13  2  0
 13 14  1  0
 14 15  2  0
 15 16  1  0
 16 17  2  0
 17 18  1  0
 18 19  2  0
 19 20  1  0
 19 21  1  0
 21 22  2  0
 22 23  1  0
 23 24  1  0
 23 25  2  0
 25 26  1  0
 26 27  2  0
 27 12  1  0
 18 13  1  0
 27 21  1  0
  1 28  1  0
  1 29  1  0
  1 30  1  0
  2 31  1  0
  2 32  1  0
  3 33  1  0
  3 34  1  0
  4 35  1  0
  4 36  1  0
  5 37  1  0
  6 38  1  0
  6 39  1  0
  7 40  1  0
  7 41  1  0
  9 42  1  0
  9 43  1  0
 10 44  1  0
 10 45  1  0
 11 46  1  0
 14 47  1  0
 15 48  1  0
 16 49  1  0
 17 50  1  0
 20 51  1  0
 20 52  1  0
 20 53  1  0
 22 54  1  0
 25 55  1  0
 26 56  1  0
M  CHG  1  19   1
M  END
>  <UniqueID>  (26) 
26

>  <SMILES>  (26) 
CCCCNCCOCCNc1c2ccccc2[n+](C)c2cc(Cl)ccc12

>  <Energy>  (26) 
74.8666863876421

>  <Genealogy>  (26) 
CCCCNCCOCCNc1c2ccccc2[n+](C)c2cc(Cl)ccc12 (3D coordinates assigned)
CCCCNCCOCCNc1c2ccccc2[n+](C)c2cc(Cl)ccc12 (optimized conformer: 74.8666863876421 kcal/mol)

>  <smiles>  (26) 
CCCCNCCOCCNc1c2ccccc2[n+](C)c2cc(Cl)ccc12

>  <score_type>  (26) 
oracle

>  <origin>  (26) 
adg

>  <m_score__min__energy>  (26) 
-9.5299999999999994

>  <m_primary>  (26) 
energy

$$$$
26:0
     RDKit          3D

 44 46  0  0  0  0  0  0  0  0999 V2000
   -9.1480   21.5130  -30.9280 C   0  0  0  0  0  0  0  0  0  0  0  0
   -9.1350   20.3410  -31.9230 C   0  0  0  0  0  0  0  0  0  0  0  0
   -7.8040   19.7030  -32.1090 N   0  0  0  0  0  0  0  0  0  0  0  0
   -7.8020   18.2360  -31.8740 C   0  0  0  0  0  0  0  0  0  0  0  0
   -6.5080   17.7340  -31.2230 C   0  0  0  0  0  0  0  0  0  0  0  0
   -7.2410   20.0220  -33.4460 C   0  0  0  0  0  0  0  0  0  0  0  0
   -5.7700   19.9290  -33.4400 N   0  0  0  0  0  0  0  0  0  0  0  0
   -4.9000   20.7330  -32.7660 C   0  0  0  0  0  0  0  0  0  0  0  0
   -5.2790   21.9110  -31.9620 C   0  0  0  0  0  0  0  0  0  0  0  0
   -6.3600   22.7210  -32.3450 C   0  0  0  0  0  0  0  0  0  0  0  0
   -6.7140   23.8320  -31.5720 C   0  0  0  0  0  0  0  0  0  0  0  0
   -5.9840   24.1480  -30.4220 C   0  0  0  0  0  0  0  0  0  0  0  0
   -6.4700   25.6650  -29.3690 Br  0  0  0  0  0  0  0  0  0  0  0  0
   -4.8940   23.3560  -30.0480 C   0  0  0  0  0  0  0  0  0  0  0  0
   -4.5390   22.2450  -30.8180 C   0  0  0  0  0  0  0  0  0  0  0  0
   -3.5960   20.2630  -32.8830 C   0  0  0  0  0  0  0  0  0  0  0  0
   -3.6870   19.1380  -33.6690 C   0  0  0  0  0  0  0  0  0  0  0  0
   -2.6910   18.2610  -34.0920 C   0  0  0  0  0  0  0  0  0  0  0  0
   -3.0770   17.1570  -34.8730 C   0  0  0  0  0  0  0  0  0  0  0  0
   -4.4340   16.9550  -35.2020 C   0  0  0  0  0  0  0  0  0  0  0  0
   -5.4180   17.8560  -34.7570 C   0  0  0  0  0  0  0  0  0  0  0  0
   -5.0100   18.9540  -33.9890 C   0  0  0  0  0  0  0  0  0  0  0  0
   -9.1437   21.1214  -29.9001 H   0  0  0  0  0  0  0  0  0  0  0  0
   -8.2567   22.1380  -31.0860 H   0  0  0  0  0  0  0  0  0  0  0  0
  -10.0529   22.1181  -31.0860 H   0  0  0  0  0  0  0  0  0  0  0  0
   -9.8354   19.5745  -31.5599 H   0  0  0  0  0  0  0  0  0  0  0  0
   -9.4210   20.7576  -32.9001 H   0  0  0  0  0  0  0  0  0  0  0  0
   -7.1770   20.1330  -31.3900 H   0  0  0  0  0  0  0  0  0  0  0  0
   -8.6459   17.9858  -31.2143 H   0  0  0  0  0  0  0  0  0  0  0  0
   -7.8875   17.7461  -32.8552 H   0  0  0  0  0  0  0  0  0  0  0  0
   -6.6091   17.7732  -30.1284 H   0  0  0  0  0  0  0  0  0  0  0  0
   -6.3181   16.6969  -31.5368 H   0  0  0  0  0  0  0  0  0  0  0  0
   -5.6684   18.3716  -31.5368 H   0  0  0  0  0  0  0  0  0  0  0  0
   -7.6426   19.3114  -34.1834 H   0  0  0  0  0  0  0  0  0  0  0  0
   -7.5242   21.0524  -33.7068 H   0  0  0  0  0  0  0  0  0  0  0  0
   -6.9298   22.4815  -33.2549 H   0  0  0  0  0  0  0  0  0  0  0  0
   -7.5681   24.4581  -31.8694 H   0  0  0  0  0  0  0  0  0  0  0  0
   -4.3154   23.6076  -29.1469 H   0  0  0  0  0  0  0  0  0  0  0  0
   -3.6754   21.6296  -30.5257 H   0  0  0  0  0  0  0  0  0  0  0  0
   -2.6871   20.6978  -32.4416 H   0  0  0  0  0  0  0  0  0  0  0  0
   -1.6371   18.4265  -33.8240 H   0  0  0  0  0  0  0  0  0  0  0  0
   -2.3164   16.4468  -35.2295 H   0  0  0  0  0  0  0  0  0  0  0  0
   -4.7246   16.0863  -35.8111 H   0  0  0  0  0  0  0  0  0  0  0  0
   -6.4786   17.7026  -35.0052 H   0  0  0  0  0  0  0  0  0  0  0  0
  1  2  1  0
  2  3  1  0
  3  4  1  0
  4  5  1  0
  3  6  1  0
  6  7  1  0
  7  8  1  0
  8  9  1  0
  9 10  2  0
 10 11  1  0
 11 12  2  0
 12 13  1  0
 12 14  1  0
 14 15  2  0
  8 16  2  0
 16 17  1  0
 17 18  2  0
 18 19  1  0
 19 20  2  0
 20 21  1  0
 21 22  2  0
 22  7  1  0
 15  9  1  0
 22 17  1  0
  1 23  1  0
  1 24  1  0
  1 25  1  0
  2 26  1  0
  2 27  1  0
  3 28  1  0
  4 29  1  0
  4 30  1  0
  5 31  1  0
  5 32  1  0
  5 33  1  0
  6 34  1  0
  6 35  1  0
 10 36  1  0
 11 37  1  0
 14 38  1  0
 15 39  1  0
 16 40  1  0
 18 41  1  0
 19 42  1  0
 20 43  1  0
 21 44  1  0
M  CHG  1   3   1
M  END
>  <UniqueID>  (27) 
27

>  <SMILES>  (27) 
CC[NH+](CC)Cn1c(-c2ccc(Br)cc2)cc2ccccc21

>  <Energy>  (27) 
86.57884137182107

>  <Genealogy>  (27) 
CC[NH+](CC)Cn1c(-c2ccc(Br)cc2)cc2ccccc21 (protonated)
CC[NH+](CC)Cn1c(-c2ccc(Br)cc2)cc2ccccc21 (3D coordinates assigned)
CC[NH+](CC)Cn1c(-c2ccc(Br)cc2)cc2ccccc21 (optimized conformer: 86.57884137182107 kcal/mol)

>  <smiles>  (27) 
CCN(CC)Cn1c(-c2ccc(Br)cc2)cc2ccccc21

>  <score_type>  (27) 
oracle

>  <origin>  (27) 
adg

>  <m_score__min__energy>  (27) 
-7.2599999999999998

>  <m_primary>  (27) 
energy

$$$$
27:0
     RDKit          3D

 49 51  0  0  0  0  0  0  0  0999 V2000
   -6.1290   25.6170  -29.6150 C   0  0  0  0  0  0  0  0  0  0  0  0
   -5.3450   25.2870  -30.8800 C   0  0  0  0  0  0  0  0  0  0  0  0
   -3.9540   25.2940  -30.6170 O   0  0  0  0  0  0  0  0  0  0  0  0
   -3.6150   24.4060  -29.5660 C   0  0  0  0  0  0  0  0  0  0  0  0
   -4.0730   22.9890  -29.9040 C   0  0  0  0  0  0  0  0  0  0  0  0
   -3.9460   22.7700  -31.2930 O   0  0  0  0  0  0  0  0  0  0  0  0
   -2.9590   21.7910  -31.5550 C   0  0  0  0  0  0  0  0  0  0  0  0
   -3.2920   21.0500  -32.8600 C   0  0  0  0  0  0  0  0  0  0  0  0
   -4.5310   21.5470  -33.4850 N   0  0  0  0  0  0  0  0  0  0  0  0
   -5.6740   20.7040  -33.1680 C   0  0  0  0  0  0  0  0  0  0  0  0
   -5.6790   19.3150  -33.4590 C   0  0  0  0  0  0  0  0  0  0  0  0
   -4.5910   18.6910  -34.1170 C   0  0  0  0  0  0  0  0  0  0  0  0
   -4.6360   17.3420  -34.4550 C   0  0  0  0  0  0  0  0  0  0  0  0
   -5.7630   16.5870  -34.1630 C   0  0  0  0  0  0  0  0  0  0  0  0
   -6.8400   17.1660  -33.4970 C   0  0  0  0  0  0  0  0  0  0  0  0
   -6.8090   18.5260  -33.0930 C   0  0  0  0  0  0  0  0  0  0  0  0
   -7.8490   19.0860  -32.3740 N   0  0  0  0  0  0  0  0  0  0  0  0
   -8.8690   18.2190  -31.7440 C   0  0  0  0  0  0  0  0  0  0  0  0
   -7.9180   20.4560  -32.2180 C   0  0  0  0  0  0  0  0  0  0  0  0
   -9.0730   21.1010  -31.7100 C   0  0  0  0  0  0  0  0  0  0  0  0
   -9.0890   22.4790  -31.5100 C   0  0  0  0  0  0  0  0  0  0  0  0
   -7.9630   23.2280  -31.8320 C   0  0  0  0  0  0  0  0  0  0  0  0
   -6.8760   22.6160  -32.3620 N   0  0  0  0  0  0  0  0  0  0  0  0
   -6.8200   21.2710  -32.5800 C   0  0  0  0  0  0  0  0  0  0  0  0
   -5.5244   25.3625  -28.7320 H   0  0  0  0  0  0  0  0  0  0  0  0
   -6.3657   26.6911  -29.6001 H   0  0  0  0  0  0  0  0  0  0  0  0
   -7.0626   25.0355  -29.6001 H   0  0  0  0  0  0  0  0  0  0  0  0
   -5.6405   24.2902  -31.2394 H   0  0  0  0  0  0  0  0  0  0  0  0
   -5.5665   26.0466  -31.6442 H   0  0  0  0  0  0  0  0  0  0  0  0
   -2.5242   24.4110  -29.4238 H   0  0  0  0  0  0  0  0  0  0  0  0
   -4.1157   24.7344  -28.6433 H   0  0  0  0  0  0  0  0  0  0  0  0
   -3.4503   22.2633  -29.3603 H   0  0  0  0  0  0  0  0  0  0  0  0
   -5.1253   22.8645  -29.6088 H   0  0  0  0  0  0  0  0  0  0  0  0
   -1.9779   22.2789  -31.6525 H   0  0  0  0  0  0  0  0  0  0  0  0
   -2.9342   21.0698  -30.7247 H   0  0  0  0  0  0  0  0  0  0  0  0
   -2.4600   21.1865  -33.5665 H   0  0  0  0  0  0  0  0  0  0  0  0
   -3.4411   19.9880  -32.6153 H   0  0  0  0  0  0  0  0  0  0  0  0
   -4.6850   22.5390  -33.1940 H   0  0  0  0  0  0  0  0  0  0  0  0
   -4.4050   21.6060  -34.5210 H   0  0  0  0  0  0  0  0  0  0  0  0
   -3.6968   19.2819  -34.3646 H   0  0  0  0  0  0  0  0  0  0  0  0
   -3.7759   16.8728  -34.9550 H   0  0  0  0  0  0  0  0  0  0  0  0
   -5.8057   15.5283  -34.4584 H   0  0  0  0  0  0  0  0  0  0  0  0
   -7.7309   16.5583  -33.2801 H   0  0  0  0  0  0  0  0  0  0  0  0
   -8.7853   18.2901  -30.6495 H   0  0  0  0  0  0  0  0  0  0  0  0
   -9.8717   18.5455  -32.0571 H   0  0  0  0  0  0  0  0  0  0  0  0
   -8.7083   17.1768  -32.0571 H   0  0  0  0  0  0  0  0  0  0  0  0
   -9.9671   20.5064  -31.4709 H   0  0  0  0  0  0  0  0  0  0  0  0
   -9.9842   22.9703  -31.1011 H   0  0  0  0  0  0  0  0  0  0  0  0
   -7.9543   24.3140  -31.6572 H   0  0  0  0  0  0  0  0  0  0  0  0
  1  2  1  0
  2  3  1  0
  3  4  1  0
  4  5  1  0
  5  6  1  0
  6  7  1  0
  7  8  1  0
  8  9  1  0
  9 10  1  0
 10 11  2  0
 11 12  1  0
 12 13  2  0
 13 14  1  0
 14 15  2  0
 15 16  1  0
 16 17  2  0
 17 18  1  0
 17 19  1  0
 19 20  2  0
 20 21  1  0
 21 22  2  0
 22 23  1  0
 23 24  2  0
 24 10  1  0
 16 11  1  0
 24 19  1  0
  1 25  1  0
  1 26  1  0
  1 27  1  0
  2 28  1  0
  2 29  1  0
  4 30  1  0
  4 31  1  0
  5 32  1  0
  5 33  1  0
  7 34  1  0
  7 35  1  0
  8 36  1  0
  8 37  1  0
  9 38  1  0
  9 39  1  0
 12 40  1  0
 13 41  1  0
 14 42  1  0
 15 43  1  0
 18 44  1  0
 18 45  1  0
 18 46  1  0
 20 47  1  0
 21 48  1  0
 22 49  1  0
M  CHG  2   9   1  17   1
M  END
>  <UniqueID>  (28) 
28

>  <SMILES>  (28) 
CCOCCOCC[NH2+]c1c2ccccc2[n+](C)c2cccnc12

>  <Energy>  (28) 
74.67450042502882

>  <Genealogy>  (28) 
CCOCCOCC[NH2+]c1c2ccccc2[n+](C)c2cccnc12 (protonated)
CCOCCOCC[NH2+]c1c2ccccc2[n+](C)c2cccnc12 (3D coordinates assigned)
CCOCCOCC[NH2+]c1c2ccccc2[n+](C)c2cccnc12 (optimized conformer: 74.67450042502882 kcal/mol)

>  <smiles>  (28) 
CCOCCOCCNc1c2ccccc2[n+](C)c2cccnc12

>  <score_type>  (28) 
oracle

>  <origin>  (28) 
adg

>  <m_score__min__energy>  (28) 
-8.0500000000000007

>  <m_primary>  (28) 
energy

$$$$
28:0
     RDKit          3D

 87 89  0  0  0  0  0  0  0  0999 V2000
   -5.7480   24.8050  -29.4490 C   0  0  0  0  0  0  0  0  0  0  0  0
   -4.9930   24.9360  -30.7640 C   0  0  0  0  0  0  0  0  0  0  0  0
   -4.1780   23.7950  -30.9530 O   0  0  0  0  0  0  0  0  0  0  0  0
   -3.5220   23.4480  -29.7460 C   0  0  0  0  0  0  0  0  0  0  0  0
   -2.3060   22.5760  -30.0420 C   0  0  0  0  0  0  0  0  0  0  0  0
   -2.6890   21.2170  -29.9940 O   0  0  0  0  0  0  0  0  0  0  0  0
   -2.9270   20.8100  -28.6620 C   0  0  0  0  0  0  0  0  0  0  0  0
   -1.6980   20.0740  -28.1140 C   0  0  0  0  0  0  0  0  0  0  0  0
   -0.9120   19.5350  -29.1550 O   0  0  0  0  0  0  0  0  0  0  0  0
    0.4470   19.3910  -28.7750 C   0  0  0  0  0  0  0  0  0  0  0  0
    0.8430   17.9040  -28.7740 C   0  0  1  0  0  0  0  0  0  0  0  0
    0.3620   17.2360  -27.4740 C   0  0  0  0  0  0  0  0  0  0  0  0
    0.2900   17.1940  -30.0430 C   0  0  0  0  0  0  0  0  0  0  0  0
    1.0530   17.4720  -31.2730 N   0  0  0  0  0  0  0  0  0  0  0  0
    0.1920   17.7030  -32.4400 C   0  0  0  0  0  0  0  0  0  0  0  0
   -1.2370   17.9980  -31.9780 C   0  0  0  0  0  0  0  0  0  0  0  0
   -1.4750   19.4480  -31.9450 N   0  0  0  0  0  0  0  0  0  0  0  0
   -0.2270   20.2080  -32.1190 C   0  0  0  0  0  0  0  0  0  0  0  0
   -0.0800   20.7870  -33.5420 C   0  0  0  0  0  0  0  0  0  0  0  0
   -1.3750   21.1000  -34.1760 N   0  0  0  0  0  0  0  0  0  0  0  0
   -2.2580   21.8940  -33.3120 C   0  0  0  0  0  0  0  0  0  0  0  0
   -3.6980   21.3600  -33.3830 C   0  0  0  0  0  0  0  0  0  0  0  0
   -4.2020   20.8440  -32.0920 N   0  0  0  0  0  0  0  0  0  0  0  0
   -5.5040   20.1920  -32.2040 C   0  0  0  0  0  0  0  0  0  0  0  0
   -6.6980   20.9330  -31.9710 C   0  0  0  0  0  0  0  0  0  0  0  0
   -6.6710   22.3190  -31.6690 C   0  0  0  0  0  0  0  0  0  0  0  0
   -7.8460   23.0500  -31.5220 C   0  0  0  0  0  0  0  0  0  0  0  0
   -9.0750   22.4270  -31.6710 C   0  0  0  0  0  0  0  0  0  0  0  0
   -9.1380   21.0620  -31.9290 C   0  0  0  0  0  0  0  0  0  0  0  0
   -7.9590   20.2790  -32.0420 C   0  0  0  0  0  0  0  0  0  0  0  0
   -8.0260   18.9140  -32.2200 N   0  0  0  0  0  0  0  0  0  0  0  0
   -9.2900   18.1950  -31.9410 C   0  0  0  0  0  0  0  0  0  0  0  0
   -6.9080   18.2120  -32.6210 C   0  0  0  0  0  0  0  0  0  0  0  0
   -7.0180   16.8800  -33.0950 C   0  0  0  0  0  0  0  0  0  0  0  0
   -5.8940   16.1410  -33.4440 C   0  0  0  0  0  0  0  0  0  0  0  0
   -4.6350   16.7080  -33.3420 C   0  0  0  0  0  0  0  0  0  0  0  0
   -4.4930   18.0280  -32.9200 C   0  0  0  0  0  0  0  0  0  0  0  0
   -5.6200   18.8200  -32.5770 C   0  0  0  0  0  0  0  0  0  0  0  0
   -5.0470   24.9266  -28.6100 H   0  0  0  0  0  0  0  0  0  0  0  0
   -6.5249   25.5818  -29.3933 H   0  0  0  0  0  0  0  0  0  0  0  0
   -6.2178   23.8119  -29.3933 H   0  0  0  0  0  0  0  0  0  0  0  0
   -5.7112   25.0156  -31.5933 H   0  0  0  0  0  0  0  0  0  0  0  0
   -4.3632   25.8375  -30.7382 H   0  0  0  0  0  0  0  0  0  0  0  0
   -3.1960   24.3646  -29.2326 H   0  0  0  0  0  0  0  0  0  0  0  0
   -4.2192   22.8879  -29.1056 H   0  0  0  0  0  0  0  0  0  0  0  0
   -1.9170   22.8139  -31.0430 H   0  0  0  0  0  0  0  0  0  0  0  0
   -1.5223   22.7668  -29.2941 H   0  0  0  0  0  0  0  0  0  0  0  0
   -3.1293   21.6949  -28.0408 H   0  0  0  0  0  0  0  0  0  0  0  0
   -3.7943   20.1338  -28.6392 H   0  0  0  0  0  0  0  0  0  0  0  0
   -1.0869   20.7812  -27.5339 H   0  0  0  0  0  0  0  0  0  0  0  0
   -2.0459   19.2456  -27.4794 H   0  0  0  0  0  0  0  0  0  0  0  0
    1.0834   19.9362  -29.4876 H   0  0  0  0  0  0  0  0  0  0  0  0
    0.5822   19.7995  -27.7626 H   0  0  0  0  0  0  0  0  0  0  0  0
    1.9388   17.8142  -28.8078 H   0  0  0  0  0  0  0  0  0  0  0  0
    0.7594   17.7879  -26.6094 H   0  0  0  0  0  0  0  0  0  0  0  0
   -0.7375   17.2461  -27.4416 H   0  0  0  0  0  0  0  0  0  0  0  0
    0.7202   16.1965  -27.4416 H   0  0  0  0  0  0  0  0  0  0  0  0
    0.3060   16.1086  -29.8653 H   0  0  0  0  0  0  0  0  0  0  0  0
   -0.7252   17.5849  -30.2062 H   0  0  0  0  0  0  0  0  0  0  0  0
    1.6910   18.2890  -31.1360 H   0  0  0  0  0  0  0  0  0  0  0  0
    0.5752   18.5603  -33.0128 H   0  0  0  0  0  0  0  0  0  0  0  0
    0.1909   16.8046  -33.0748 H   0  0  0  0  0  0  0  0  0  0  0  0
   -1.9474   17.5297  -32.6752 H   0  0  0  0  0  0  0  0  0  0  0  0
   -1.3765   17.5901  -30.9660 H   0  0  0  0  0  0  0  0  0  0  0  0
   -1.8520   19.6910  -31.0000 H   0  0  0  0  0  0  0  0  0  0  0  0
   -0.2164   21.0384  -31.3976 H   0  0  0  0  0  0  0  0  0  0  0  0
    0.6114   19.5158  -31.9520 H   0  0  0  0  0  0  0  0  0  0  0  0
    0.5140   21.7110  -33.4844 H   0  0  0  0  0  0  0  0  0  0  0  0
    0.4105   20.0199  -34.1592 H   0  0  0  0  0  0  0  0  0  0  0  0
   -1.2240   21.6000  -35.0850 H   0  0  0  0  0  0  0  0  0  0  0  0
   -1.8996   21.8334  -32.2738 H   0  0  0  0  0  0  0  0  0  0  0  0
   -2.2474   22.9392  -33.6548 H   0  0  0  0  0  0  0  0  0  0  0  0
   -4.3564   22.1776  -33.7117 H   0  0  0  0  0  0  0  0  0  0  0  0
   -3.6949   20.5162  -34.0887 H   0  0  0  0  0  0  0  0  0  0  0  0
   -3.4820   20.2530  -31.6290 H   0  0  0  0  0  0  0  0  0  0  0  0
   -4.2830   21.6410  -31.4230 H   0  0  0  0  0  0  0  0  0  0  0  0
   -5.7021   22.8258  -31.5487 H   0  0  0  0  0  0  0  0  0  0  0  0
   -7.7993   24.1236  -31.2872 H   0  0  0  0  0  0  0  0  0  0  0  0
  -10.0019   23.0131  -31.5851 H   0  0  0  0  0  0  0  0  0  0  0  0
  -10.1196   20.5799  -32.0478 H   0  0  0  0  0  0  0  0  0  0  0  0
   -9.4331   18.1136  -30.8534 H   0  0  0  0  0  0  0  0  0  0  0  0
  -10.1320   18.7493  -32.3812 H   0  0  0  0  0  0  0  0  0  0  0  0
   -9.2439   17.1880  -32.3812 H   0  0  0  0  0  0  0  0  0  0  0  0
   -8.0138   16.4222  -33.1884 H   0  0  0  0  0  0  0  0  0  0  0  0
   -6.0045   15.1064  -33.8010 H   0  0  0  0  0  0  0  0  0  0  0  0
   -3.7442   16.1144  -33.5950 H   0  0  0  0  0  0  0  0  0  0  0  0
   -3.4862   18.4658  -32.8511 H   0  0  0  0  0  0  0  0  0  0  0  0
  1  2  1  0
  2  3  1  0
  3  4  1  0
  4  5  1  0
  5  6  1  0
  6  7  1  0
  7  8  1  0
  8  9  1  0
  9 10  1  0
 10 11  1  0
 11 12  1  0
 11 13  1  0
 13 14  1  0
 14 15  1  0
 15 16  1  0
 16 17  1  0
 17 18  1  0
 18 19  1  0
 19 20  1  0
 20 21  1  0
 21 22  1  0
 22 23  1  0
 23 24  1  0
 24 25  2  0
 25 26  1  0
 26 27  2  0
 27 28  1  0
 28 29  2  0
 29 30  1  0
 30 31  2  0
 31 32  1  0
 31 33  1  0
 33 34  2  0
 34 35  1  0
 35 36  2  0
 36 37  1  0
 37 38  2  0
 38 24  1  0
 30 25  1  0
 38 33  1  0
  1 39  1  0
  1 40  1  0
  1 41  1  0
  2 42  1  0
  2 43  1  0
  4 44  1  0
  4 45  1  0
  5 46  1  0
  5 47  1  0
  7 48  1  0
  7 49  1  0
  8 50  1  0
  8 51  1  0
 10 52  1  0
 10 53  1  0
 11 54  1  6
 12 55  1  0
 12 56  1  0
 12 57  1  0
 13 58  1  0
 13 59  1  0
 14 60  1  0
 15 61  1  0
 15 62  1  0
 16 63  1  0
 16 64  1  0
 17 65  1  0
 18 66  1  0
 18 67  1  0
 19 68  1  0
 19 69  1  0
 20 70  1  0
 21 71  1  0
 21 72  1  0
 22 73  1  0
 22 74  1  0
 23 75  1  0
 23 76  1  0
 26 77  1  0
 27 78  1  0
 28 79  1  0
 29 80  1  0
 32 81  1  0
 32 82  1  0
 32 83  1  0
 34 84  1  0
 35 85  1  0
 36 86  1  0
 37 87  1  0
M  CHG  2  23   1  31   1
M  END
>  <UniqueID>  (29) 
29

>  <SMILES>  (29) 
CCOCCOCCOC[C@@H](C)CNCCNCCNCC[NH2+]c1c2ccccc2[n+](C)c2ccccc12

>  <Energy>  (29) 
111.45404176167023

>  <Genealogy>  (29) 
CCOCCOCCOCC(C)CNCCNCCNCC[NH2+]c1c2ccccc2[n+](C)c2ccccc12 (protonated)
CCOCCOCCOC[C@@H](C)CNCCNCCNCC[NH2+]c1c2ccccc2[n+](C)c2ccccc12 (chirality)
CCOCCOCCOC[C@@H](C)CNCCNCCNCC[NH2+]c1c2ccccc2[n+](C)c2ccccc12 (3D coordinates assigned)
CCOCCOCCOC[C@@H](C)CNCCNCCNCC[NH2+]c1c2ccccc2[n+](C)c2ccccc12 (optimized conformer: 111.45404176167023 kcal/mol)

>  <smiles>  (29) 
CCOCCOCCOCC(C)CNCCNCCNCCNc1c2ccccc2[n+](C)c2ccccc12

>  <score_type>  (29) 
oracle

>  <origin>  (29) 
adg

>  <m_score__min__energy>  (29) 
-8.8000000000000007

>  <m_primary>  (29) 
energy

$$$$
29:0
     RDKit          3D

 66 68  0  0  0  0  0  0  0  0999 V2000
   -3.1170   19.0180  -26.6880 C   0  0  0  0  0  0  0  0  0  0  0  0
   -2.2870   20.0420  -27.4750 C   0  0  0  0  0  0  0  0  0  0  0  0
   -3.0780   20.9060  -28.3820 N   0  0  0  0  0  0  0  0  0  0  0  0
   -2.6890   20.7950  -29.8050 C   0  0  0  0  0  0  0  0  0  0  0  0
   -1.4910   21.6870  -30.1180 C   0  0  0  0  0  0  0  0  0  0  0  0
   -3.2590   22.2940  -27.9010 C   0  0  0  0  0  0  0  0  0  0  0  0
   -4.6120   22.7960  -28.2030 N   0  0  0  0  0  0  0  0  0  0  0  0
   -4.6080   24.2300  -28.5220 C   0  0  0  0  0  0  0  0  0  0  0  0
   -3.5210   24.5250  -29.5520 C   0  0  0  0  0  0  0  0  0  0  0  0
   -4.1150   25.1110  -30.6940 O   0  0  0  0  0  0  0  0  0  0  0  0
   -5.1450   24.2870  -31.2030 C   0  0  0  0  0  0  0  0  0  0  0  0
   -4.5720   22.9150  -31.5840 C   0  0  0  0  0  0  0  0  0  0  0  0
   -5.2200   22.3930  -32.8000 N   0  0  0  0  0  0  0  0  0  0  0  0
   -5.3340   20.9420  -32.7440 C   0  0  0  0  0  0  0  0  0  0  0  0
   -4.2120   20.1340  -33.0860 C   0  0  0  0  0  0  0  0  0  0  0  0
   -2.9320   20.6980  -33.3280 C   0  0  0  0  0  0  0  0  0  0  0  0
   -1.8580   19.9100  -33.7320 C   0  0  0  0  0  0  0  0  0  0  0  0
   -2.0270   18.5470  -33.9170 C   0  0  0  0  0  0  0  0  0  0  0  0
   -3.2620   17.9580  -33.6590 C   0  0  0  0  0  0  0  0  0  0  0  0
   -4.3640   18.7250  -33.1960 C   0  0  0  0  0  0  0  0  0  0  0  0
   -5.5660   18.1280  -32.8820 N   0  0  0  0  0  0  0  0  0  0  0  0
   -5.6320   16.6570  -32.7180 C   0  0  0  0  0  0  0  0  0  0  0  0
   -6.6920   18.8950  -32.6670 C   0  0  0  0  0  0  0  0  0  0  0  0
   -7.9780   18.3000  -32.6620 C   0  0  0  0  0  0  0  0  0  0  0  0
   -9.1090   19.0310  -32.3370 C   0  0  0  0  0  0  0  0  0  0  0  0
   -8.9950   20.3610  -31.9760 C   0  0  0  0  0  0  0  0  0  0  0  0
   -7.7490   21.0110  -32.0020 C   0  0  0  0  0  0  0  0  0  0  0  0
   -7.6480   22.3300  -31.5270 O   0  0  0  0  0  0  0  0  0  0  0  0
   -8.4380   23.4320  -31.9670 C   0  0  0  0  0  0  0  0  0  0  0  0
   -6.5870   20.3050  -32.4660 C   0  0  0  0  0  0  0  0  0  0  0  0
   -2.9805   19.1864  -25.6096 H   0  0  0  0  0  0  0  0  0  0  0  0
   -4.1804   19.1325  -26.9453 H   0  0  0  0  0  0  0  0  0  0  0  0
   -2.7849   18.0014  -26.9453 H   0  0  0  0  0  0  0  0  0  0  0  0
   -1.7645   20.6879  -26.7540 H   0  0  0  0  0  0  0  0  0  0  0  0
   -1.6001   19.4653  -28.1119 H   0  0  0  0  0  0  0  0  0  0  0  0
   -2.4260   19.7498  -30.0251 H   0  0  0  0  0  0  0  0  0  0  0  0
   -3.5375   21.1189  -30.4256 H   0  0  0  0  0  0  0  0  0  0  0  0
   -1.0325   22.0284  -29.1782 H   0  0  0  0  0  0  0  0  0  0  0  0
   -0.7521   21.1174  -30.7007 H   0  0  0  0  0  0  0  0  0  0  0  0
   -1.8248   22.5582  -30.7007 H   0  0  0  0  0  0  0  0  0  0  0  0
   -3.1028   22.3187  -26.8124 H   0  0  0  0  0  0  0  0  0  0  0  0
   -2.5288   22.9364  -28.4149 H   0  0  0  0  0  0  0  0  0  0  0  0
   -4.9700   22.2850  -29.0450 H   0  0  0  0  0  0  0  0  0  0  0  0
   -5.5877   24.5160  -28.9323 H   0  0  0  0  0  0  0  0  0  0  0  0
   -4.4083   24.8062  -27.6065 H   0  0  0  0  0  0  0  0  0  0  0  0
   -2.7844   25.2197  -29.1220 H   0  0  0  0  0  0  0  0  0  0  0  0
   -3.0141   23.5907  -29.8351 H   0  0  0  0  0  0  0  0  0  0  0  0
   -5.9224   24.1579  -30.4355 H   0  0  0  0  0  0  0  0  0  0  0  0
   -5.5807   24.7595  -32.0957 H   0  0  0  0  0  0  0  0  0  0  0  0
   -3.4917   23.0140  -31.7660 H   0  0  0  0  0  0  0  0  0  0  0  0
   -4.7602   22.2141  -30.7574 H   0  0  0  0  0  0  0  0  0  0  0  0
   -6.1450   22.8400  -32.9740 H   0  0  0  0  0  0  0  0  0  0  0  0
   -4.6800   22.6910  -33.6420 H   0  0  0  0  0  0  0  0  0  0  0  0
   -2.7858   21.7799  -33.1935 H   0  0  0  0  0  0  0  0  0  0  0  0
   -0.8737   20.3698  -33.9047 H   0  0  0  0  0  0  0  0  0  0  0  0
   -1.1859   17.9308  -34.2675 H   0  0  0  0  0  0  0  0  0  0  0  0
   -3.3867   16.8766  -33.8170 H   0  0  0  0  0  0  0  0  0  0  0  0
   -5.6432   16.4076  -31.6467 H   0  0  0  0  0  0  0  0  0  0  0  0
   -6.5481   16.2759  -33.1928 H   0  0  0  0  0  0  0  0  0  0  0  0
   -4.7537   16.1954  -33.1928 H   0  0  0  0  0  0  0  0  0  0  0  0
   -8.0804   17.2360  -32.9215 H   0  0  0  0  0  0  0  0  0  0  0  0
  -10.0992   18.5528  -32.3662 H   0  0  0  0  0  0  0  0  0  0  0  0
   -9.8912   20.9176  -31.6644 H   0  0  0  0  0  0  0  0  0  0  0  0
   -8.8277   23.9756  -31.0937 H   0  0  0  0  0  0  0  0  0  0  0  0
   -7.8180   24.1087  -32.5734 H   0  0  0  0  0  0  0  0  0  0  0  0
   -9.2779   23.0621  -32.5734 H   0  0  0  0  0  0  0  0  0  0  0  0
  1  2  1  0
  2  3  1  0
  3  4  1  0
  4  5  1  0
  3  6  1  0
  6  7  1  0
  7  8  1  0
  8  9  1  0
  9 10  1  0
 10 11  1  0
 11 12  1  0
 12 13  1  0
 13 14  1  0
 14 15  2  0
 15 16  1  0
 16 17  2  0
 17 18  1  0
 18 19  2  0
 19 20  1  0
 20 21  2  0
 21 22  1  0
 21 23  1  0
 23 24  2  0
 24 25  1  0
 25 26  2  0
 26 27  1  0
 27 28  1  0
 28 29  1  0
 27 30  2  0
 30 14  1  0
 20 15  1  0
 30 23  1  0
  1 31  1  0
  1 32  1  0
  1 33  1  0
  2 34  1  0
  2 35  1  0
  4 36  1  0
  4 37  1  0
  5 38  1  0
  5 39  1  0
  5 40  1  0
  6 41  1  0
  6 42  1  0
  7 43  1  0
  8 44  1  0
  8 45  1  0
  9 46  1  0
  9 47  1  0
 11 48  1  0
 11 49  1  0
 12 50  1  0
 12 51  1  0
 13 52  1  0
 13 53  1  0
 16 54  1  0
 17 55  1  0
 18 56  1  0
 19 57  1  0
 22 58  1  0
 22 59  1  0
 22 60  1  0
 24 61  1  0
 25 62  1  0
 26 63  1  0
 29 64  1  0
 29 65  1  0
 29 66  1  0
M  CHG  2  13   1  21   1
M  END
>  <UniqueID>  (30) 
30

>  <SMILES>  (30) 
CCN(CC)CNCCOCC[NH2+]c1c2ccccc2[n+](C)c2cccc(OC)c12

>  <Energy>  (30) 
102.06439598402687

>  <Genealogy>  (30) 
CCN(CC)CNCCOCC[NH2+]c1c2ccccc2[n+](C)c2cccc(OC)c12 (protonated)
CCN(CC)CNCCOCC[NH2+]c1c2ccccc2[n+](C)c2cccc(OC)c12 (3D coordinates assigned)
CCN(CC)CNCCOCC[NH2+]c1c2ccccc2[n+](C)c2cccc(OC)c12 (optimized conformer: 102.06439598402687 kcal/mol)

>  <smiles>  (30) 
CCN(CC)CNCCOCCNc1c2ccccc2[n+](C)c2cccc(OC)c12

>  <score_type>  (30) 
oracle

>  <origin>  (30) 
adg

>  <m_score__min__energy>  (30) 
-7.8600000000000003

>  <m_primary>  (30) 
energy

$$$$
30:0
     RDKit          3D

 52 54  0  0  0  0  0  0  0  0999 V2000
   -8.3539   21.4127  -32.5966 H   0  0  0  0  0  0  0  0  0  0  0  0
   -7.6750   22.1130  -32.0880 C   0  0  0  0  0  0  0  0  0  0  0  0
   -8.0670   23.2270  -31.4200 N   0  0  0  0  0  0  0  0  0  0  0  0
   -6.9060   23.7530  -30.9810 C   0  0  0  0  0  0  0  0  0  0  0  0
   -6.7500   24.9380  -30.2710 C   0  0  0  0  0  0  0  0  0  0  0  0
   -7.6184   25.5406  -29.9666 H   0  0  0  0  0  0  0  0  0  0  0  0
   -5.4410   25.3350  -29.9580 C   0  0  0  0  0  0  0  0  0  0  0  0
   -5.2664   26.2629  -29.3936 H   0  0  0  0  0  0  0  0  0  0  0  0
   -4.3490   24.5410  -30.3690 C   0  0  0  0  0  0  0  0  0  0  0  0
   -3.1360   24.9170  -30.0870 N   0  0  0  0  0  0  0  0  0  0  0  0
   -2.3870   24.4990  -28.9010 C   0  0  0  0  0  0  0  0  0  0  0  0
   -3.0903   24.3254  -28.0732 H   0  0  0  0  0  0  0  0  0  0  0  0
   -1.6731   25.2933  -28.6374 H   0  0  0  0  0  0  0  0  0  0  0  0
   -1.6020   23.2020  -29.1770 C   0  0  0  0  0  0  0  0  0  0  0  0
   -1.3954   22.7030  -28.2187 H   0  0  0  0  0  0  0  0  0  0  0  0
   -0.6719   23.4760  -29.6964 H   0  0  0  0  0  0  0  0  0  0  0  0
   -2.3530   22.2620  -30.0540 N   0  0  0  0  0  0  0  0  0  0  0  0
   -3.1230   22.7940  -30.5230 H   0  0  0  0  0  0  0  0  0  0  0  0
   -1.4580   21.7040  -31.1050 C   0  0  0  0  0  0  0  0  0  0  0  0
   -0.8812   22.5260  -31.5540 H   0  0  0  0  0  0  0  0  0  0  0  0
   -2.0858   21.2033  -31.8567 H   0  0  0  0  0  0  0  0  0  0  0  0
   -0.4770   20.6620  -30.5310 C   0  0  0  0  0  0  0  0  0  0  0  0
   -0.7710   20.4244  -29.4980 H   0  0  0  0  0  0  0  0  0  0  0  0
    0.5368   21.0878  -30.5597 H   0  0  0  0  0  0  0  0  0  0  0  0
   -0.4830   19.3800  -31.3560 C   0  0  0  0  0  0  0  0  0  0  0  0
   -0.4871   18.5104  -30.6823 H   0  0  0  0  0  0  0  0  0  0  0  0
   -1.3813   19.3565  -31.9905 H   0  0  0  0  0  0  0  0  0  0  0  0
    0.4150   19.3481  -31.9905 H   0  0  0  0  0  0  0  0  0  0  0  0
   -2.9420   21.1620  -29.2390 C   0  0  0  0  0  0  0  0  0  0  0  0
   -4.0384   21.2353  -29.2892 H   0  0  0  0  0  0  0  0  0  0  0  0
   -2.5781   20.2103  -29.6536 H   0  0  0  0  0  0  0  0  0  0  0  0
   -2.5110   21.2200  -27.7590 C   0  0  0  0  0  0  0  0  0  0  0  0
   -1.4630   21.5506  -27.7089 H   0  0  0  0  0  0  0  0  0  0  0  0
   -3.1805   21.9232  -27.2419 H   0  0  0  0  0  0  0  0  0  0  0  0
   -2.6320   19.8630  -27.0630 C   0  0  0  0  0  0  0  0  0  0  0  0
   -2.6191   20.0077  -25.9726 H   0  0  0  0  0  0  0  0  0  0  0  0
   -3.5765   19.3826  -27.3580 H   0  0  0  0  0  0  0  0  0  0  0  0
   -1.7874   19.2230  -27.3580 H   0  0  0  0  0  0  0  0  0  0  0  0
   -4.5840   23.3880  -31.0630 N   0  0  0  0  0  0  0  0  0  0  0  0
   -5.8370   23.0310  -31.3330 N   0  0  0  0  0  0  0  0  0  0  0  0
   -6.2910   21.9840  -32.0370 C   0  0  0  0  0  0  0  0  0  0  0  0
   -5.4650   20.9340  -32.6820 C   0  0  0  0  0  0  0  0  0  0  0  0
   -4.0910   21.1470  -32.8900 C   0  0  0  0  0  0  0  0  0  0  0  0
   -3.6329   22.0987  -32.5827 H   0  0  0  0  0  0  0  0  0  0  0  0
   -3.3030   20.1570  -33.4850 C   0  0  0  0  0  0  0  0  0  0  0  0
   -2.2272   20.3294  -33.6365 H   0  0  0  0  0  0  0  0  0  0  0  0
   -3.8780   18.9510  -33.8870 C   0  0  0  0  0  0  0  0  0  0  0  0
   -3.2556   18.1725  -34.3523 H   0  0  0  0  0  0  0  0  0  0  0  0
   -5.2450   18.7330  -33.6980 C   0  0  0  0  0  0  0  0  0  0  0  0
   -5.6993   17.7844  -34.0200 H   0  0  0  0  0  0  0  0  0  0  0  0
   -6.0370   19.7190  -33.1000 C   0  0  0  0  0  0  0  0  0  0  0  0
   -7.1132   19.5430  -32.9559 H   0  0  0  0  0  0  0  0  0  0  0  0
  1  2  1  0
  2  3  1  0
  3  4  2  0
  4  5  1  0
  5  6  1  0
  5  7  2  0
  7  8  1  0
  7  9  1  0
  9 10  2  0
 10 11  1  0
 11 12  1  0
 11 13  1  0
 11 14  1  0
 14 15  1  0
 14 16  1  0
 14 17  1  0
 17 18  1  0
 17 19  1  0
 19 20  1  0
 19 21  1  0
 19 22  1  0
 22 23  1  0
 22 24  1  0
 22 25  1  0
 25 26  1  0
 25 27  1  0
 25 28  1  0
 17 29  1  0
 29 30  1  0
 29 31  1  0
 29 32  1  0
 32 33  1  0
 32 34  1  0
 32 35  1  0
 35 36  1  0
 35 37  1  0
 35 38  1  0
  9 39  1  0
 39 40  1  0
 40 41  1  0
 41 42  1  0
 42 43  2  0
 43 44  1  0
 43 45  1  0
 45 46  1  0
 45 47  2  0
 47 48  1  0
 47 49  1  0
 49 50  1  0
 49 51  2  0
 51 52  1  0
 41  2  2  0
 51 42  1  0
 40  4  1  0
M  CHG  2  17   1  39  -1
M  END
>  <UniqueID>  (31) 
31

>  <SMILES>  (31) 
CCC[NH+](CCC)CC/N=c1/ccc2ncc(-c3ccccc3)n2[n-]1

>  <Energy>  (31) 
88.2592770414754

>  <Genealogy>  (31) 
CCC[NH+](CCC)CCN=c1ccc2ncc(-c3ccccc3)n2[n-]1 (protonated)
CCC[NH+](CCC)CC/N=c1/ccc2ncc(-c3ccccc3)n2[n-]1 (cis-trans isomerization)
CCC[NH+](CCC)CC/N=c1/ccc2ncc(-c3ccccc3)n2[n-]1 (3D coordinates assigned)
CCC[NH+](CCC)CC/N=c1/ccc2ncc(-c3ccccc3)n2[n-]1 (optimized conformer: 88.2592770414754 kcal/mol)

>  <smiles>  (31) 
CCCN(CCC)CCN=c1ccc2ncc(-c3ccccc3)n2[nH]1

>  <score_type>  (31) 
oracle

>  <origin>  (31) 
adg

>  <m_score__min__energy>  (31) 
-7.3200000000000003

>  <m_primary>  (31) 
energy

$$$$
