0:0
     RDKit          3D

 43 45  0  0  0  0  0  0  0  0999 V2000
   -3.4610   21.6580  -28.2160 C   0  0  0  0  0  0  0  0  0  0  0  0
   -4.5840   22.6710  -28.1920 C   0  0  0  0  0  0  0  0  0  0  0  0
   -4.4900   23.6570  -29.2330 N   0  0  0  0  0  0  0  0  0  0  0  0
   -5.5180   23.9120  -30.0860 C   0  0  0  0  0  0  0  0  0  0  0  0
   -7.1280   23.1410  -30.1070 S   0  0  0  0  0  0  0  0  0  0  0  0
   -7.8210   22.9990  -31.7600 C   0  0  0  0  0  0  0  0  0  0  0  0
   -6.9640   22.0630  -32.5630 C   0  0  0  0  0  0  0  0  0  0  0  0
   -7.3250   20.6720  -32.3570 N   0  0  0  0  0  0  0  0  0  0  0  0
   -6.8770   19.8220  -33.4530 C   0  0  0  0  0  0  0  0  0  0  0  0
   -6.7730   18.4320  -32.8510 C   0  0  0  0  0  0  0  0  0  0  0  0
   -7.9280   18.1520  -31.9180 C   0  0  0  0  0  0  0  0  0  0  0  0
   -9.0900   19.0710  -32.1340 C   0  0  0  0  0  0  0  0  0  0  0  0
   -8.7730   20.5040  -32.3460 C   0  0  0  0  0  0  0  0  0  0  0  0
   -5.1110   24.8730  -30.9340 N   0  0  0  0  0  0  0  0  0  0  0  0
   -3.8580   25.2290  -30.6400 N   0  0  0  0  0  0  0  0  0  0  0  0
   -3.4780   24.4710  -29.5840 C   0  0  0  0  0  0  0  0  0  0  0  0
   -2.1980   24.5440  -28.9650 C   0  0  0  0  0  0  0  0  0  0  0  0
   -1.6250   25.4150  -28.0200 C   0  0  0  0  0  0  0  0  0  0  0  0
   -0.3910   25.2350  -27.6310 C   0  0  0  0  0  0  0  0  0  0  0  0
    0.3650   24.1450  -28.1740 C   0  0  0  0  0  0  0  0  0  0  0  0
   -0.7980   23.3450  -29.3160 S   0  0  0  0  0  0  0  0  0  0  0  0
   -3.1766   21.4014  -27.1849 H   0  0  0  0  0  0  0  0  0  0  0  0
   -3.7965   20.7510  -28.7403 H   0  0  0  0  0  0  0  0  0  0  0  0
   -2.5933   22.0849  -28.7403 H   0  0  0  0  0  0  0  0  0  0  0  0
   -5.5382   22.1355  -28.3050 H   0  0  0  0  0  0  0  0  0  0  0  0
   -4.5162   23.2059  -27.2332 H   0  0  0  0  0  0  0  0  0  0  0  0
   -8.8453   22.6027  -31.6991 H   0  0  0  0  0  0  0  0  0  0  0  0
   -7.8482   23.9879  -32.2410 H   0  0  0  0  0  0  0  0  0  0  0  0
   -7.0801   22.3044  -33.6299 H   0  0  0  0  0  0  0  0  0  0  0  0
   -5.9228   22.1930  -32.2328 H   0  0  0  0  0  0  0  0  0  0  0  0
   -7.6072   19.8340  -34.2756 H   0  0  0  0  0  0  0  0  0  0  0  0
   -5.9209   20.1624  -33.8773 H   0  0  0  0  0  0  0  0  0  0  0  0
   -6.7786   17.6887  -33.6618 H   0  0  0  0  0  0  0  0  0  0  0  0
   -5.8378   18.3713  -32.2751 H   0  0  0  0  0  0  0  0  0  0  0  0
   -8.2650   17.1172  -32.0779 H   0  0  0  0  0  0  0  0  0  0  0  0
   -7.5679   18.3123  -30.8910 H   0  0  0  0  0  0  0  0  0  0  0  0
   -9.6364   18.7155  -33.0200 H   0  0  0  0  0  0  0  0  0  0  0  0
   -9.6648   19.0368  -31.1968 H   0  0  0  0  0  0  0  0  0  0  0  0
   -9.1903   20.8358  -33.3082 H   0  0  0  0  0  0  0  0  0  0  0  0
   -9.2113   21.1058  -31.5363 H   0  0  0  0  0  0  0  0  0  0  0  0
   -2.2158   26.2469  -27.6091 H   0  0  0  0  0  0  0  0  0  0  0  0
    0.0635   25.9133  -26.8939 H   0  0  0  0  0  0  0  0  0  0  0  0
    1.4040   23.8605  -27.9515 H   0  0  0  0  0  0  0  0  0  0  0  0
  1  2  1  0
  2  3  1  0
  3  4  1  0
  4  5  1  0
  5  6  1  0
  6  7  1  0
  7  8  1  0
  8  9  1  0
  9 10  1  0
 10 11  1  0
 11 12  1  0
 12 13  1  0
  4 14  2  0
 14 15  1  0
 15 16  2  0
 16 17  1  0
 17 18  2  0
 18 19  1  0
 19 20  2  0
 20 21  1  0
 16  3  1  0
 21 17  1  0
 13  8  1  0
  1 22  1  0
  1 23  1  0
  1 24  1  0
  2 25  1  0
  2 26  1  0
  6 27  1  0
  6 28  1  0
  7 29  1  0
  7 30  1  0
  9 31  1  0
  9 32  1  0
 10 33  1  0
 10 34  1  0
 11 35  1  0
 11 36  1  0
 12 37  1  0
 12 38  1  0
 13 39  1  0
 13 40  1  0
 18 41  1  0
 19 42  1  0
 20 43  1  0
M  END
>  <smiles>  (1) 
CCn1c(SCCN2CCCCC2)nnc1-c1cccs1

>  <score_type>  (1) 
oracle

>  <origin>  (1) 
adg

>  <m_score__min__energy>  (1) 
-8.25

>  <m_primary>  (1) 
energy

$$$$
1:0
     RDKit          3D

 56 59  0  0  0  0  0  0  0  0999 V2000
   -6.0840   17.1080  -31.5910 C   0  0  0  0  0  0  0  0  0  0  0  0
   -7.1530   17.7990  -32.3820 C   0  0  0  0  0  0  0  0  0  0  0  0
   -7.5990   19.0440  -31.6590 N   0  0  0  0  0  0  0  0  0  0  0  0
   -8.4090   19.7120  -32.6980 C   0  0  0  0  0  0  0  0  0  0  0  0
   -9.4750   20.6040  -32.1870 C   0  0  0  0  0  0  0  0  0  0  0  0
   -6.3020   19.7330  -31.4900 C   0  0  0  0  0  0  0  0  0  0  0  0
   -6.1010   20.9310  -32.3300 C   0  0  0  0  0  0  0  0  0  0  0  0
   -4.8900   20.9380  -33.1390 N   0  0  0  0  0  0  0  0  0  0  0  0
   -3.9110   19.9120  -33.0880 C   0  0  0  0  0  0  0  0  0  0  0  0
   -3.9680   18.7530  -33.8310 C   0  0  0  0  0  0  0  0  0  0  0  0
   -5.0010   18.5600  -34.7210 C   0  0  0  0  0  0  0  0  0  0  0  0
   -5.0810   17.4130  -35.4860 C   0  0  0  0  0  0  0  0  0  0  0  0
   -4.1310   16.4070  -35.3990 C   0  0  0  0  0  0  0  0  0  0  0  0
   -3.0830   16.6000  -34.5010 C   0  0  0  0  0  0  0  0  0  0  0  0
   -2.9980   17.7520  -33.7290 C   0  0  0  0  0  0  0  0  0  0  0  0
   -1.9610   17.8780  -32.8970 N   0  0  0  0  0  0  0  0  0  0  0  0
   -0.9650   16.8370  -32.8050 C   0  0  0  0  0  0  0  0  0  0  0  0
   -1.8670   19.0030  -32.1520 C   0  0  0  0  0  0  0  0  0  0  0  0
   -0.9020   19.3550  -31.2520 N   0  0  0  0  0  0  0  0  0  0  0  0
   -1.1950   20.5740  -30.7390 C   0  0  0  0  0  0  0  0  0  0  0  0
   -0.5220   21.3450  -29.8080 C   0  0  0  0  0  0  0  0  0  0  0  0
   -1.0530   22.5840  -29.4650 C   0  0  0  0  0  0  0  0  0  0  0  0
   -2.2240   23.0120  -30.0520 C   0  0  0  0  0  0  0  0  0  0  0  0
   -2.9050   24.5550  -29.6470 S   0  0  0  0  0  0  0  0  0  0  0  0
   -3.7560   24.4730  -28.3940 O   0  0  0  0  0  0  0  0  0  0  0  0
   -3.8230   25.0840  -30.7250 O   0  0  0  0  0  0  0  0  0  0  0  0
   -1.6450   25.6450  -29.3440 O   0  0  0  0  0  0  0  0  0  0  0  0
   -2.8770   22.2020  -30.9910 C   0  0  0  0  0  0  0  0  0  0  0  0
   -2.3680   20.9730  -31.3440 C   0  0  0  0  0  0  0  0  0  0  0  0
   -2.8110   20.0190  -32.2260 C   0  0  0  0  0  0  0  0  0  0  0  0
   -6.2822   17.2361  -30.5166 H   0  0  0  0  0  0  0  0  0  0  0  0
   -6.0802   16.0361  -31.8379 H   0  0  0  0  0  0  0  0  0  0  0  0
   -5.1050   17.5446  -31.8379 H   0  0  0  0  0  0  0  0  0  0  0  0
   -6.7562   18.0732  -33.3706 H   0  0  0  0  0  0  0  0  0  0  0  0
   -8.0113   17.1215  -32.5020 H   0  0  0  0  0  0  0  0  0  0  0  0
   -7.7325   20.3131  -33.3233 H   0  0  0  0  0  0  0  0  0  0  0  0
   -8.9198   18.9098  -33.2508 H   0  0  0  0  0  0  0  0  0  0  0  0
   -9.4645   20.5952  -31.0871 H   0  0  0  0  0  0  0  0  0  0  0  0
   -9.2998   21.6285  -32.5472 H   0  0  0  0  0  0  0  0  0  0  0  0
  -10.4525   20.2509  -32.5472 H   0  0  0  0  0  0  0  0  0  0  0  0
   -6.2166   20.0398  -30.4371 H   0  0  0  0  0  0  0  0  0  0  0  0
   -5.5347   19.0114  -31.8069 H   0  0  0  0  0  0  0  0  0  0  0  0
   -6.9620   21.0160  -33.0093 H   0  0  0  0  0  0  0  0  0  0  0  0
   -6.0000   21.7743  -31.6310 H   0  0  0  0  0  0  0  0  0  0  0  0
   -4.6730   21.7240  -33.8210 H   0  0  0  0  0  0  0  0  0  0  0  0
   -5.7764   19.3334  -34.8244 H   0  0  0  0  0  0  0  0  0  0  0  0
   -5.9225   17.2942  -36.1843 H   0  0  0  0  0  0  0  0  0  0  0  0
   -4.2014   15.4963  -36.0120 H   0  0  0  0  0  0  0  0  0  0  0  0
   -2.3083   15.8255  -34.4015 H   0  0  0  0  0  0  0  0  0  0  0  0
   -0.7577   16.6204  -31.7467 H   0  0  0  0  0  0  0  0  0  0  0  0
   -1.3381   15.9278  -33.2991 H   0  0  0  0  0  0  0  0  0  0  0  0
   -0.0402   17.1696  -33.2991 H   0  0  0  0  0  0  0  0  0  0  0  0
   -0.0570   18.8100  -30.9660 H   0  0  0  0  0  0  0  0  0  0  0  0
    0.4115   20.9864  -29.3496 H   0  0  0  0  0  0  0  0  0  0  0  0
   -0.5402   23.2197  -28.7281 H   0  0  0  0  0  0  0  0  0  0  0  0
   -3.8111   22.5541  -31.4531 H   0  0  0  0  0  0  0  0  0  0  0  0
  1  2  1  0
  2  3  1  0
  3  4  1  0
  4  5  1  0
  3  6  1  0
  6  7  1  0
  7  8  1  0
  8  9  1  0
  9 10  2  0
 10 11  1  0
 11 12  2  0
 12 13  1  0
 13 14  2  0
 14 15  1  0
 15 16  2  0
 16 17  1  0
 16 18  1  0
 18 19  1  0
 19 20  1  0
 20 21  2  0
 21 22  1  0
 22 23  2  0
 23 24  1  0
 24 25  2  0
 24 26  2  0
 24 27  1  0
 23 28  1  0
 28 29  2  0
 29 30  1  0
 30  9  1  0
 15 10  1  0
 30 18  2  0
 29 20  1  0
  1 31  1  0
  1 32  1  0
  1 33  1  0
  2 34  1  0
  2 35  1  0
  4 36  1  0
  4 37  1  0
  5 38  1  0
  5 39  1  0
  5 40  1  0
  6 41  1  0
  6 42  1  0
  7 43  1  0
  7 44  1  0
  8 45  1  0
 11 46  1  0
 12 47  1  0
 13 48  1  0
 14 49  1  0
 17 50  1  0
 17 51  1  0
 17 52  1  0
 19 53  1  0
 21 54  1  0
 22 55  1  0
 28 56  1  0
M  CHG  2  16   1  27  -1
M  END
>  <smiles>  (2) 
CCN(CC)CCNc1c2ccccc2[n+](C)c2[nH]c3ccc(S(=O)(=O)[O-])cc3c12

>  <score_type>  (2) 
oracle

>  <origin>  (2) 
adg

>  <m_score__min__energy>  (2) 
-10.890000000000001

>  <m_primary>  (2) 
energy

$$$$
2:0
     RDKit          3D

 56 58  0  0  0  0  0  0  0  0999 V2000
   -2.7220   20.3900  -33.8860 C   0  0  0  0  0  0  0  0  0  0  0  0
   -2.9970   19.1450  -33.2420 N   0  0  0  0  0  0  0  0  0  0  0  0
   -1.9020   18.7390  -32.4160 C   0  0  0  0  0  0  0  0  0  0  0  0
   -3.4010   18.1620  -34.2290 C   0  0  0  0  0  0  0  0  0  0  0  0
   -4.8890   17.8470  -34.0520 C   0  0  0  0  0  0  0  0  0  0  0  0
   -5.5520   19.0020  -33.4540 N   0  0  0  0  0  0  0  0  0  0  0  0
   -6.8930   18.9090  -32.9430 C   0  0  0  0  0  0  0  0  0  0  0  0
   -7.5530   17.8350  -32.9700 O   0  0  0  0  0  0  0  0  0  0  0  0
   -7.4510   20.1370  -32.3950 C   0  0  0  0  0  0  0  0  0  0  0  0
   -8.8490   20.2370  -32.4760 C   0  0  0  0  0  0  0  0  0  0  0  0
   -9.5300   21.3290  -31.9830 C   0  0  0  0  0  0  0  0  0  0  0  0
   -8.7780   22.3280  -31.4020 C   0  0  0  0  0  0  0  0  0  0  0  0
   -7.4160   22.2250  -31.3260 C   0  0  0  0  0  0  0  0  0  0  0  0
   -6.7290   23.2610  -30.7330 C   0  0  0  0  0  0  0  0  0  0  0  0
   -5.3570   23.1390  -30.6660 C   0  0  0  0  0  0  0  0  0  0  0  0
   -4.6820   24.1940  -30.0660 C   0  0  0  0  0  0  0  0  0  0  0  0
   -3.3020   24.1700  -29.9520 C   0  0  0  0  0  0  0  0  0  0  0  0
   -2.6630   25.2520  -29.3420 O   0  0  0  0  0  0  0  0  0  0  0  0
   -2.1600   25.0430  -28.0460 C   0  0  0  0  0  0  0  0  0  0  0  0
   -0.8420   25.7540  -27.7920 C   0  0  0  0  0  0  0  0  0  0  0  0
    0.2790   24.9300  -27.9200 N   0  0  0  0  0  0  0  0  0  0  0  0
    0.2030   23.6760  -28.5280 C   0  0  0  0  0  0  0  0  0  0  0  0
    1.4050   25.3110  -27.1710 C   0  0  0  0  0  0  0  0  0  0  0  0
   -2.6180   23.0810  -30.4450 C   0  0  0  0  0  0  0  0  0  0  0  0
   -3.2990   22.0170  -31.0490 C   0  0  0  0  0  0  0  0  0  0  0  0
   -4.6850   22.0300  -31.1700 C   0  0  0  0  0  0  0  0  0  0  0  0
   -5.3770   21.0250  -31.7480 N   0  0  0  0  0  0  0  0  0  0  0  0
   -6.7080   21.1320  -31.8180 C   0  0  0  0  0  0  0  0  0  0  0  0
   -2.5506   21.1661  -33.1256 H   0  0  0  0  0  0  0  0  0  0  0  0
   -1.8248   20.2876  -34.5142 H   0  0  0  0  0  0  0  0  0  0  0  0
   -3.5788   20.6750  -34.5142 H   0  0  0  0  0  0  0  0  0  0  0  0
   -2.1828   18.8431  -31.3576 H   0  0  0  0  0  0  0  0  0  0  0  0
   -1.6528   17.6887  -32.6276 H   0  0  0  0  0  0  0  0  0  0  0  0
   -1.0283   19.3730  -32.6276 H   0  0  0  0  0  0  0  0  0  0  0  0
   -3.2281   18.5629  -35.2386 H   0  0  0  0  0  0  0  0  0  0  0  0
   -2.8119   17.2427  -34.0952 H   0  0  0  0  0  0  0  0  0  0  0  0
   -5.3391   17.6300  -35.0320 H   0  0  0  0  0  0  0  0  0  0  0  0
   -5.0079   16.9706  -33.3979 H   0  0  0  0  0  0  0  0  0  0  0  0
   -5.0300   19.9230  -33.3930 H   0  0  0  0  0  0  0  0  0  0  0  0
   -9.4169   19.4207  -32.9463 H   0  0  0  0  0  0  0  0  0  0  0  0
  -10.6256   21.4005  -32.0501 H   0  0  0  0  0  0  0  0  0  0  0  0
   -9.2792   23.2185  -30.9947 H   0  0  0  0  0  0  0  0  0  0  0  0
   -7.2496   24.1432  -30.3322 H   0  0  0  0  0  0  0  0  0  0  0  0
   -5.2473   25.0545  -29.6787 H   0  0  0  0  0  0  0  0  0  0  0  0
   -2.9006   25.4105  -27.3204 H   0  0  0  0  0  0  0  0  0  0  0  0
   -1.9746   23.9641  -27.9382 H   0  0  0  0  0  0  0  0  0  0  0  0
   -0.7492   26.5797  -28.5129 H   0  0  0  0  0  0  0  0  0  0  0  0
   -0.8637   26.1044  -26.7495 H   0  0  0  0  0  0  0  0  0  0  0  0
    0.1557   22.8956  -27.7542 H   0  0  0  0  0  0  0  0  0  0  0  0
   -0.6998   23.6264  -29.1545 H   0  0  0  0  0  0  0  0  0  0  0  0
    1.0932   23.5177  -29.1545 H   0  0  0  0  0  0  0  0  0  0  0  0
    1.1752   25.2332  -26.0981 H   0  0  0  0  0  0  0  0  0  0  0  0
    2.2486   24.6483  -27.4142 H   0  0  0  0  0  0  0  0  0  0  0  0
    1.6728   26.3498  -27.4142 H   0  0  0  0  0  0  0  0  0  0  0  0
   -1.5216   23.0466  -30.3631 H   0  0  0  0  0  0  0  0  0  0  0  0
   -2.7297   21.1580  -31.4336 H   0  0  0  0  0  0  0  0  0  0  0  0
  1  2  1  0
  2  3  1  0
  2  4  1  0
  4  5  1  0
  5  6  1  0
  6  7  1  0
  7  8  2  0
  7  9  1  0
  9 10  2  0
 10 11  1  0
 11 12  2  0
 12 13  1  0
 13 14  2  0
 14 15  1  0
 15 16  2  0
 16 17  1  0
 17 18  1  0
 18 19  1  0
 19 20  1  0
 20 21  1  0
 21 22  1  0
 21 23  1  0
 17 24  2  0
 24 25  1  0
 25 26  2  0
 26 27  1  0
 27 28  2  0
 28  9  1  0
 28 13  1  0
 26 15  1  0
  1 29  1  0
  1 30  1  0
  1 31  1  0
  3 32  1  0
  3 33  1  0
  3 34  1  0
  4 35  1  0
  4 36  1  0
  5 37  1  0
  5 38  1  0
  6 39  1  0
 10 40  1  0
 11 41  1  0
 12 42  1  0
 14 43  1  0
 16 44  1  0
 19 45  1  0
 19 46  1  0
 20 47  1  0
 20 48  1  0
 22 49  1  0
 22 50  1  0
 22 51  1  0
 23 52  1  0
 23 53  1  0
 23 54  1  0
 24 55  1  0
 25 56  1  0
M  END
>  <smiles>  (3) 
CN(C)CCNC(=O)c1cccc2cc3cc(OCCN(C)C)ccc3nc12

>  <score_type>  (3) 
oracle

>  <origin>  (3) 
adg

>  <m_score__min__energy>  (3) 
-8.6099999999999994

>  <m_primary>  (3) 
energy

$$$$
3:0
     RDKit          3D

 64 66  0  0  0  0  0  0  0  0999 V2000
   -4.4370   24.6240  -29.8510 C   0  0  0  0  0  0  0  0  0  0  0  0
   -4.4950   23.5750  -28.7650 C   0  0  0  0  0  0  0  0  0  0  0  0
   -3.8820   24.1670  -27.5180 C   0  0  0  0  0  0  0  0  0  0  0  0
   -3.7770   22.4070  -29.2460 N   0  0  0  0  0  0  0  0  0  0  0  0
   -2.6880   22.0580  -28.3690 C   0  0  0  0  0  0  0  0  0  0  0  0
   -1.7660   21.0820  -29.0620 C   0  0  0  0  0  0  0  0  0  0  0  0
   -0.9480   21.7210  -30.1320 C   0  0  0  0  0  0  0  0  0  0  0  0
   -1.7740   22.0500  -31.2740 N   0  0  0  0  0  0  0  0  0  0  0  0
   -1.3420   21.4770  -32.5100 C   0  0  0  0  0  0  0  0  0  0  0  0
   -2.4800   21.1340  -33.4590 C   0  0  0  0  0  0  0  0  0  0  0  0
   -3.7770   21.7830  -33.0680 C   0  0  0  0  0  0  0  0  0  0  0  0
   -4.3840   21.1480  -31.8880 N   0  0  0  0  0  0  0  0  0  0  0  0
   -5.6810   20.6030  -31.9730 C   0  0  0  0  0  0  0  0  0  0  0  0
   -6.8290   21.2600  -31.5930 C   0  0  0  0  0  0  0  0  0  0  0  0
   -8.0950   20.6720  -31.6970 C   0  0  0  0  0  0  0  0  0  0  0  0
   -8.2380   19.4250  -32.1790 N   0  0  0  0  0  0  0  0  0  0  0  0
   -9.4840   18.7520  -32.3040 C   0  0  0  0  0  0  0  0  0  0  0  0
   -7.1170   18.7470  -32.5640 C   0  0  0  0  0  0  0  0  0  0  0  0
   -7.1760   17.4660  -33.0730 C   0  0  0  0  0  0  0  0  0  0  0  0
   -6.0580   16.7580  -33.4750 C   0  0  0  0  0  0  0  0  0  0  0  0
   -4.8040   17.3630  -33.3640 C   0  0  0  0  0  0  0  0  0  0  0  0
   -4.7140   18.6410  -32.8600 C   0  0  0  0  0  0  0  0  0  0  0  0
   -5.8570   19.3110  -32.4700 C   0  0  0  0  0  0  0  0  0  0  0  0
   -9.2300   21.5190  -31.2570 C   0  0  0  0  0  0  0  0  0  0  0  0
   -9.0670   22.8410  -31.9890 C   0  0  0  0  0  0  0  0  0  0  0  0
   -7.7250   23.4640  -31.8570 C   0  0  0  0  0  0  0  0  0  0  0  0
   -6.7260   22.6430  -31.0500 C   0  0  0  0  0  0  0  0  0  0  0  0
   -4.3818   25.6228  -29.3934 H   0  0  0  0  0  0  0  0  0  0  0  0
   -3.5467   24.4568  -30.4751 H   0  0  0  0  0  0  0  0  0  0  0  0
   -5.3403   24.5560  -30.4751 H   0  0  0  0  0  0  0  0  0  0  0  0
   -5.5218   23.2661  -28.5197 H   0  0  0  0  0  0  0  0  0  0  0  0
   -4.3491   23.7159  -26.6301 H   0  0  0  0  0  0  0  0  0  0  0  0
   -2.8013   23.9621  -27.5078 H   0  0  0  0  0  0  0  0  0  0  0  0
   -4.0491   25.2542  -27.5078 H   0  0  0  0  0  0  0  0  0  0  0  0
   -3.3660   22.6270  -30.1830 H   0  0  0  0  0  0  0  0  0  0  0  0
   -2.1265   22.9662  -28.1046 H   0  0  0  0  0  0  0  0  0  0  0  0
   -3.0906   21.5928  -27.4571 H   0  0  0  0  0  0  0  0  0  0  0  0
   -1.0876   20.6471  -28.3133 H   0  0  0  0  0  0  0  0  0  0  0  0
   -2.3935   20.3144  -29.5384 H   0  0  0  0  0  0  0  0  0  0  0  0
   -0.4921   22.6413  -29.7380 H   0  0  0  0  0  0  0  0  0  0  0  0
   -0.1658   21.0161  -30.4503 H   0  0  0  0  0  0  0  0  0  0  0  0
   -2.7450   21.7330  -31.0210 H   0  0  0  0  0  0  0  0  0  0  0  0
   -0.6769   22.1954  -33.0115 H   0  0  0  0  0  0  0  0  0  0  0  0
   -0.8339   20.5327  -32.2649 H   0  0  0  0  0  0  0  0  0  0  0  0
   -2.2086   21.4713  -34.4702 H   0  0  0  0  0  0  0  0  0  0  0  0
   -2.6285   20.0448  -33.4194 H   0  0  0  0  0  0  0  0  0  0  0  0
   -3.5885   22.8429  -32.8420 H   0  0  0  0  0  0  0  0  0  0  0  0
   -4.4772   21.6707  -33.9089 H   0  0  0  0  0  0  0  0  0  0  0  0
   -3.8280   21.1120  -30.9860 H   0  0  0  0  0  0  0  0  0  0  0  0
   -9.8856   18.5351  -31.3032 H   0  0  0  0  0  0  0  0  0  0  0  0
  -10.1921   19.3903  -32.8528 H   0  0  0  0  0  0  0  0  0  0  0  0
   -9.3384   17.8098  -32.8528 H   0  0  0  0  0  0  0  0  0  0  0  0
   -8.1607   16.9841  -33.1635 H   0  0  0  0  0  0  0  0  0  0  0  0
   -6.1546   15.7377  -33.8746 H   0  0  0  0  0  0  0  0  0  0  0  0
   -3.8975   16.8238  -33.6761 H   0  0  0  0  0  0  0  0  0  0  0  0
   -3.7321   19.1283  -32.7680 H   0  0  0  0  0  0  0  0  0  0  0  0
  -10.1868   21.0475  -31.5259 H   0  0  0  0  0  0  0  0  0  0  0  0
   -9.2330   21.6577  -30.1658 H   0  0  0  0  0  0  0  0  0  0  0  0
   -9.2598   22.6665  -33.0578 H   0  0  0  0  0  0  0  0  0  0  0  0
   -9.7801   23.5404  -31.5283 H   0  0  0  0  0  0  0  0  0  0  0  0
   -7.3134   23.6113  -32.8664 H   0  0  0  0  0  0  0  0  0  0  0  0
   -7.8695   24.4078  -31.3107 H   0  0  0  0  0  0  0  0  0  0  0  0
   -5.7070   23.0351  -31.1837 H   0  0  0  0  0  0  0  0  0  0  0  0
   -6.9403   22.6786  -29.9717 H   0  0  0  0  0  0  0  0  0  0  0  0
  1  2  1  0
  2  3  1  0
  2  4  1  0
  4  5  1  0
  5  6  1  0
  6  7  1  0
  7  8  1  0
  8  9  1  0
  9 10  1  0
 10 11  1  0
 11 12  1  0
 12 13  1  0
 13 14  2  0
 14 15  1  0
 15 16  2  0
 16 17  1  0
 16 18  1  0
 18 19  2  0
 19 20  1  0
 20 21  2  0
 21 22  1  0
 22 23  2  0
 15 24  1  0
 24 25  1  0
 25 26  1  0
 26 27  1  0
 23 13  1  0
 27 14  1  0
 23 18  1  0
  1 28  1  0
  1 29  1  0
  1 30  1  0
  2 31  1  0
  3 32  1  0
  3 33  1  0
  3 34  1  0
  4 35  1  0
  5 36  1  0
  5 37  1  0
  6 38  1  0
  6 39  1  0
  7 40  1  0
  7 41  1  0
  8 42  1  0
  9 43  1  0
  9 44  1  0
 10 45  1  0
 10 46  1  0
 11 47  1  0
 11 48  1  0
 12 49  1  0
 17 50  1  0
 17 51  1  0
 17 52  1  0
 19 53  1  0
 20 54  1  0
 21 55  1  0
 22 56  1  0
 24 57  1  0
 24 58  1  0
 25 59  1  0
 25 60  1  0
 26 61  1  0
 26 62  1  0
 27 63  1  0
 27 64  1  0
M  CHG  1  16   1
M  END
>  <smiles>  (4) 
CC(C)NCCCNCCCNc1c2c([n+](C)c3ccccc13)CCCC2

>  <score_type>  (4) 
oracle

>  <origin>  (4) 
adg

>  <m_score__min__energy>  (4) 
-9.2699999999999996

>  <m_primary>  (4) 
energy

$$$$
4:0
     RDKit          3D

 50 52  0  0  0  0  0  0  0  0999 V2000
   -4.1000   24.1460  -28.4230 C   0  0  0  0  0  0  0  0  0  0  0  0
   -3.2140   24.1150  -29.6690 C   0  0  0  0  0  0  0  0  0  0  0  0
   -3.8960   24.9000  -30.6310 O   0  0  0  0  0  0  0  0  0  0  0  0
   -5.2450   24.7560  -30.8620 C   0  0  0  0  0  0  0  0  0  0  0  0
   -6.0740   25.6690  -30.6120 O   0  0  0  0  0  0  0  0  0  0  0  0
   -5.7440   23.5030  -31.4170 C   0  0  0  0  0  0  0  0  0  0  0  0
   -4.9490   22.6730  -32.1800 C   0  0  0  0  0  0  0  0  0  0  0  0
   -5.4470   21.4850  -32.6980 C   0  0  0  0  0  0  0  0  0  0  0  0
   -6.7400   21.0720  -32.4850 C   0  0  0  0  0  0  0  0  0  0  0  0
   -7.2980   19.8730  -32.9740 N   0  0  0  0  0  0  0  0  0  0  0  0
   -7.1540   18.5690  -32.3730 C   0  0  0  0  0  0  0  0  0  0  0  0
   -7.3140   17.5410  -33.4700 C   0  0  0  0  0  0  0  0  0  0  0  0
   -6.1490   17.7780  -34.4450 C   0  0  0  0  0  0  0  0  0  0  0  0
   -4.9470   17.4220  -33.7170 N   0  0  0  0  0  0  0  0  0  0  0  0
   -3.7600   17.1720  -34.4700 C   0  0  0  0  0  0  0  0  0  0  0  0
   -3.8040   17.2670  -35.7050 O   0  0  0  0  0  0  0  0  0  0  0  0
   -2.5030   16.8100  -33.8260 C   0  0  0  0  0  0  0  0  0  0  0  0
   -2.1520   15.5410  -33.4720 C   0  0  0  0  0  0  0  0  0  0  0  0
   -0.9410   15.2940  -32.8630 C   0  0  0  0  0  0  0  0  0  0  0  0
   -0.0780   16.3510  -32.6130 C   0  0  0  0  0  0  0  0  0  0  0  0
   -0.4120   17.6470  -32.9630 C   0  0  0  0  0  0  0  0  0  0  0  0
   -1.6250   17.8620  -33.5680 C   0  0  0  0  0  0  0  0  0  0  0  0
   -4.9910   17.3310  -32.2710 C   0  0  0  0  0  0  0  0  0  0  0  0
   -5.8090   18.4610  -31.6910 C   0  0  0  0  0  0  0  0  0  0  0  0
   -7.5310   21.9260  -31.7100 C   0  0  0  0  0  0  0  0  0  0  0  0
   -7.0440   23.1060  -31.1930 C   0  0  0  0  0  0  0  0  0  0  0  0
   -3.4679   24.1239  -27.5230 H   0  0  0  0  0  0  0  0  0  0  0  0
   -4.7033   25.0658  -28.4249 H   0  0  0  0  0  0  0  0  0  0  0  0
   -4.7661   23.2706  -28.4249 H   0  0  0  0  0  0  0  0  0  0  0  0
   -2.2259   24.5460  -29.4502 H   0  0  0  0  0  0  0  0  0  0  0  0
   -3.0413   23.0885  -30.0245 H   0  0  0  0  0  0  0  0  0  0  0  0
   -3.9053   22.9565  -32.3809 H   0  0  0  0  0  0  0  0  0  0  0  0
   -4.7813   20.8506  -33.3016 H   0  0  0  0  0  0  0  0  0  0  0  0
   -7.8720   19.9240  -33.8530 H   0  0  0  0  0  0  0  0  0  0  0  0
   -7.9185   18.3988  -31.6007 H   0  0  0  0  0  0  0  0  0  0  0  0
   -7.2622   16.5248  -33.0522 H   0  0  0  0  0  0  0  0  0  0  0  0
   -8.2872   17.6369  -33.9737 H   0  0  0  0  0  0  0  0  0  0  0  0
   -6.2597   17.1425  -35.3360 H   0  0  0  0  0  0  0  0  0  0  0  0
   -6.1179   18.8210  -34.7932 H   0  0  0  0  0  0  0  0  0  0  0  0
   -2.8411   14.7078  -33.6742 H   0  0  0  0  0  0  0  0  0  0  0  0
   -0.6613   14.2691  -32.5779 H   0  0  0  0  0  0  0  0  0  0  0  0
    0.8895   16.1550  -32.1276 H   0  0  0  0  0  0  0  0  0  0  0  0
    0.2754   18.4819  -32.7620 H   0  0  0  0  0  0  0  0  0  0  0  0
   -1.9103   18.8848  -33.8551 H   0  0  0  0  0  0  0  0  0  0  0  0
   -5.4450   16.3714  -31.9830 H   0  0  0  0  0  0  0  0  0  0  0  0
   -3.9650   17.3995  -31.8803 H   0  0  0  0  0  0  0  0  0  0  0  0
   -5.9648   18.2770  -30.6177 H   0  0  0  0  0  0  0  0  0  0  0  0
   -5.2625   19.4026  -31.8480 H   0  0  0  0  0  0  0  0  0  0  0  0
   -8.5753   21.6464  -31.5069 H   0  0  0  0  0  0  0  0  0  0  0  0
   -7.7062   23.7440  -30.5893 H   0  0  0  0  0  0  0  0  0  0  0  0
  1  2  1  0
  2  3  1  0
  3  4  1  0
  4  5  2  0
  4  6  1  0
  6  7  2  0
  7  8  1  0
  8  9  2  0
  9 10  1  0
 10 11  1  0
 11 12  1  0
 12 13  1  0
 13 14  1  0
 14 15  1  0
 15 16  2  0
 15 17  1  0
 17 18  2  0
 18 19  1  0
 19 20  2  0
 20 21  1  0
 21 22  2  0
 14 23  1  0
 23 24  1  0
  9 25  1  0
 25 26  2  0
 26  6  1  0
 24 11  1  0
 22 17  1  0
  1 27  1  0
  1 28  1  0
  1 29  1  0
  2 30  1  0
  2 31  1  0
  7 32  1  0
  8 33  1  0
 10 34  1  0
 11 35  1  0
 12 36  1  0
 12 37  1  0
 13 38  1  0
 13 39  1  0
 18 40  1  0
 19 41  1  0
 20 42  1  0
 21 43  1  0
 22 44  1  0
 23 45  1  0
 23 46  1  0
 24 47  1  0
 24 48  1  0
 25 49  1  0
 26 50  1  0
M  END
>  <smiles>  (5) 
CCOC(=O)c1ccc(NC2CCN(C(=O)c3ccccc3)CC2)cc1

>  <score_type>  (5) 
oracle

>  <origin>  (5) 
adg

>  <m_score__min__energy>  (5) 
-8.3399999999999999

>  <m_primary>  (5) 
energy

$$$$
5:0
     RDKit          3D

 57 58  0  0  0  0  0  0  0  0999 V2000
   -2.7400   18.9780  -26.4320 C   0  0  0  0  0  0  0  0  0  0  0  0
   -2.7590   20.0510  -27.4570 C   0  0  0  0  0  0  0  0  0  0  0  0
   -1.5520   20.2980  -28.1600 N   0  0  0  0  0  0  0  0  0  0  0  0
   -0.9300   21.5100  -27.5850 C   0  0  0  0  0  0  0  0  0  0  0  0
   -1.7520   20.5850  -29.5490 C   0  0  0  0  0  0  0  0  0  0  0  0
   -1.8440   22.0920  -29.8280 C   0  0  0  0  0  0  0  0  0  0  0  0
   -3.1660   22.3810  -29.8570 O   0  0  0  0  0  0  0  0  0  0  0  0
   -3.7890   23.0320  -28.8560 C   0  0  0  0  0  0  0  0  0  0  0  0
   -3.9120   24.5270  -29.0500 C   0  0  0  0  0  0  0  0  0  0  0  0
   -3.9590   24.8330  -30.4090 O   0  0  0  0  0  0  0  0  0  0  0  0
   -5.0480   25.5520  -30.8190 C   0  0  0  0  0  0  0  0  0  0  0  0
   -6.2760   24.5970  -30.6310 C   0  0  0  0  0  0  0  0  0  0  0  0
   -6.1040   23.4950  -31.2700 N   0  0  0  0  0  0  0  0  0  0  0  0
   -5.9080   22.2480  -31.9920 C   0  0  0  0  0  0  0  0  0  0  0  0
   -4.8030   21.7380  -32.5760 C   0  0  0  0  0  0  0  0  0  0  0  0
   -4.9050   20.5150  -33.2120 C   0  0  0  0  0  0  0  0  0  0  0  0
   -6.0090   19.7910  -33.2960 N   0  0  0  0  0  0  0  0  0  0  0  0
   -6.0130   18.5170  -33.9510 C   0  0  0  0  0  0  0  0  0  0  0  0
   -4.6780   18.1380  -34.5470 C   0  0  0  0  0  0  0  0  0  0  0  0
   -7.1270   20.2590  -32.7310 C   0  0  0  0  0  0  0  0  0  0  0  0
   -8.3170   19.5670  -32.7840 C   0  0  0  0  0  0  0  0  0  0  0  0
   -9.4870   20.0050  -32.2180 C   0  0  0  0  0  0  0  0  0  0  0  0
   -9.4460   21.2110  -31.5610 C   0  0  0  0  0  0  0  0  0  0  0  0
   -8.2640   21.8960  -31.5170 C   0  0  0  0  0  0  0  0  0  0  0  0
   -7.0720   21.4800  -32.0810 C   0  0  0  0  0  0  0  0  0  0  0  0
   -2.7480   19.4291  -25.4288 H   0  0  0  0  0  0  0  0  0  0  0  0
   -3.6270   18.3389  -26.5537 H   0  0  0  0  0  0  0  0  0  0  0  0
   -1.8310   18.3707  -26.5537 H   0  0  0  0  0  0  0  0  0  0  0  0
   -3.5260   19.7856  -28.1995 H   0  0  0  0  0  0  0  0  0  0  0  0
   -2.9540   20.9763  -26.8950 H   0  0  0  0  0  0  0  0  0  0  0  0
   -0.9599   21.4517  -26.4869 H   0  0  0  0  0  0  0  0  0  0  0  0
    0.1154   21.5799  -27.9201 H   0  0  0  0  0  0  0  0  0  0  0  0
   -1.4828   22.4000  -27.9201 H   0  0  0  0  0  0  0  0  0  0  0  0
   -0.9082   20.1708  -30.1204 H   0  0  0  0  0  0  0  0  0  0  0  0
   -2.7062   20.1290  -29.8517 H   0  0  0  0  0  0  0  0  0  0  0  0
   -1.3449   22.6607  -29.0296 H   0  0  0  0  0  0  0  0  0  0  0  0
   -1.3499   22.3599  -30.7736 H   0  0  0  0  0  0  0  0  0  0  0  0
   -4.8022   22.6157  -28.7557 H   0  0  0  0  0  0  0  0  0  0  0  0
   -3.1686   22.8866  -27.9593 H   0  0  0  0  0  0  0  0  0  0  0  0
   -4.8336   24.8818  -28.5654 H   0  0  0  0  0  0  0  0  0  0  0  0
   -3.0378   25.0207  -28.6006 H   0  0  0  0  0  0  0  0  0  0  0  0
   -5.1660   26.4556  -30.2030 H   0  0  0  0  0  0  0  0  0  0  0  0
   -4.9470   25.8859  -31.8622 H   0  0  0  0  0  0  0  0  0  0  0  0
   -6.3999   24.3766  -29.5604 H   0  0  0  0  0  0  0  0  0  0  0  0
   -7.1724   25.0961  -31.0276 H   0  0  0  0  0  0  0  0  0  0  0  0
   -4.8910   23.3350  -30.7430 H   0  0  0  0  0  0  0  0  0  0  0  0
   -3.8469   22.2812  -32.5466 H   0  0  0  0  0  0  0  0  0  0  0  0
   -3.9973   20.1123  -33.6852 H   0  0  0  0  0  0  0  0  0  0  0  0
   -6.2960   17.7492  -33.2159 H   0  0  0  0  0  0  0  0  0  0  0  0
   -6.7295   18.5849  -34.7829 H   0  0  0  0  0  0  0  0  0  0  0  0
   -3.9602   17.9342  -33.7388 H   0  0  0  0  0  0  0  0  0  0  0  0
   -4.7960   17.2379  -35.1682 H   0  0  0  0  0  0  0  0  0  0  0  0
   -4.3055   18.9659  -35.1682 H   0  0  0  0  0  0  0  0  0  0  0  0
   -8.3296   18.6028  -33.3134 H   0  0  0  0  0  0  0  0  0  0  0  0
  -10.4148   19.4182  -32.2868 H   0  0  0  0  0  0  0  0  0  0  0  0
  -10.3475   21.6176  -31.0794 H   0  0  0  0  0  0  0  0  0  0  0  0
   -8.2607   22.8604  -30.9878 H   0  0  0  0  0  0  0  0  0  0  0  0
  1  2  1  0
  2  3  1  0
  3  4  1  0
  3  5  1  0
  5  6  1  0
  6  7  1  0
  7  8  1  0
  8  9  1  0
  9 10  1  0
 10 11  1  0
 11 12  1  0
 12 13  1  0
 13 14  1  0
 14 15  2  0
 15 16  1  0
 16 17  2  0
 17 18  1  0
 18 19  1  0
 17 20  1  0
 20 21  2  0
 21 22  1  0
 22 23  2  0
 23 24  1  0
 24 25  2  0
 25 14  1  0
 25 20  1  0
  1 26  1  0
  1 27  1  0
  1 28  1  0
  2 29  1  0
  2 30  1  0
  4 31  1  0
  4 32  1  0
  4 33  1  0
  5 34  1  0
  5 35  1  0
  6 36  1  0
  6 37  1  0
  8 38  1  0
  8 39  1  0
  9 40  1  0
  9 41  1  0
 11 42  1  0
 11 43  1  0
 12 44  1  0
 12 45  1  0
 13 46  1  0
 15 47  1  0
 16 48  1  0
 18 49  1  0
 18 50  1  0
 19 51  1  0
 19 52  1  0
 19 53  1  0
 21 54  1  0
 22 55  1  0
 23 56  1  0
 24 57  1  0
M  CHG  1  17   1
M  END
>  <smiles>  (6) 
CCN(C)CCOCCOCCNc1cc[n+](CC)c2ccccc12

>  <score_type>  (6) 
oracle

>  <origin>  (6) 
adg

>  <m_score__min__energy>  (6) 
-7.6799999999999997

>  <m_primary>  (6) 
energy

$$$$
6:0
     RDKit          3D

 67 70  0  0  0  0  0  0  0  0999 V2000
   -6.1110   25.6320  -29.6110 C   0  0  0  0  0  0  0  0  0  0  0  0
   -5.2910   25.3810  -30.8310 C   0  0  0  0  0  0  0  0  0  0  0  0
   -4.0020   24.7070  -30.4590 N   0  0  0  0  0  0  0  0  0  0  0  0
   -4.0240   24.5300  -29.0440 C   0  0  0  0  0  0  0  0  0  0  0  0
   -2.7080   24.5310  -28.3350 C   0  0  0  0  0  0  0  0  0  0  0  0
   -4.1460   23.4280  -31.1930 C   0  0  0  0  0  0  0  0  0  0  0  0
   -5.5240   22.9190  -31.2830 C   0  0  0  0  0  0  0  0  0  0  0  0
   -5.7480   22.2550  -32.5600 N   0  0  0  0  0  0  0  0  0  0  0  0
   -5.6870   20.8490  -32.7330 C   0  0  0  0  0  0  0  0  0  0  0  0
   -6.8000   20.0380  -32.4830 C   0  0  0  0  0  0  0  0  0  0  0  0
   -7.9830   20.6460  -32.0520 C   0  0  0  0  0  0  0  0  0  0  0  0
   -9.1230   19.9100  -31.7880 C   0  0  0  0  0  0  0  0  0  0  0  0
   -9.0770   18.5560  -31.9590 C   0  0  0  0  0  0  0  0  0  0  0  0
   -7.9020   17.9460  -32.3890 C   0  0  0  0  0  0  0  0  0  0  0  0
   -6.7510   18.6690  -32.6570 C   0  0  0  0  0  0  0  0  0  0  0  0
   -5.6160   18.0360  -33.0800 N   0  0  0  0  0  0  0  0  0  0  0  0
   -5.6900   16.6130  -33.2130 C   0  0  0  0  0  0  0  0  0  0  0  0
   -4.5360   18.7920  -33.3300 C   0  0  0  0  0  0  0  0  0  0  0  0
   -3.3820   18.1880  -33.7840 C   0  0  0  0  0  0  0  0  0  0  0  0
   -2.2460   18.9450  -34.0780 C   0  0  0  0  0  0  0  0  0  0  0  0
   -2.2410   20.3170  -33.9230 C   0  0  0  0  0  0  0  0  0  0  0  0
   -1.0990   21.1200  -34.1980 N   0  0  0  0  0  0  0  0  0  0  0  0
    0.0920   21.1590  -33.4180 C   0  0  0  0  0  0  0  0  0  0  0  0
    0.3240   19.9750  -32.5320 C   0  0  0  0  0  0  0  0  0  0  0  0
   -0.2900   20.2830  -31.1900 C   0  0  0  0  0  0  0  0  0  0  0  0
   -0.8960   21.5130  -31.0440 C   0  0  0  0  0  0  0  0  0  0  0  0
   -1.4870   21.8880  -29.8620 C   0  0  0  0  0  0  0  0  0  0  0  0
   -1.4570   20.9820  -28.8050 C   0  0  0  0  0  0  0  0  0  0  0  0
   -0.8430   19.7470  -28.9700 C   0  0  0  0  0  0  0  0  0  0  0  0
   -0.2500   19.3790  -30.1650 C   0  0  0  0  0  0  0  0  0  0  0  0
   -3.4090   20.8890  -33.4680 C   0  0  0  0  0  0  0  0  0  0  0  0
   -4.5490   20.1840  -33.1650 C   0  0  0  0  0  0  0  0  0  0  0  0
   -5.5013   25.4454  -28.7146 H   0  0  0  0  0  0  0  0  0  0  0  0
   -6.4554   26.6767  -29.6092 H   0  0  0  0  0  0  0  0  0  0  0  0
   -6.9812   24.9591  -29.6092 H   0  0  0  0  0  0  0  0  0  0  0  0
   -5.8536   24.7342  -31.5203 H   0  0  0  0  0  0  0  0  0  0  0  0
   -5.0666   26.3420  -31.3169 H   0  0  0  0  0  0  0  0  0  0  0  0
   -4.6300   25.3433  -28.6181 H   0  0  0  0  0  0  0  0  0  0  0  0
   -4.4278   23.5183  -28.8910 H   0  0  0  0  0  0  0  0  0  0  0  0
   -2.8771   24.5309  -27.2481 H   0  0  0  0  0  0  0  0  0  0  0  0
   -2.1386   23.6333  -28.6176 H   0  0  0  0  0  0  0  0  0  0  0  0
   -2.1399   25.4296  -28.6176 H   0  0  0  0  0  0  0  0  0  0  0  0
   -3.7686   23.5761  -32.2156 H   0  0  0  0  0  0  0  0  0  0  0  0
   -3.5761   22.6788  -30.6238 H   0  0  0  0  0  0  0  0  0  0  0  0
   -5.6971   22.2009  -30.4679 H   0  0  0  0  0  0  0  0  0  0  0  0
   -6.2193   23.7674  -31.2001 H   0  0  0  0  0  0  0  0  0  0  0  0
   -5.9740   22.8040  -33.4430 H   0  0  0  0  0  0  0  0  0  0  0  0
   -8.0072   21.7377  -31.9196 H   0  0  0  0  0  0  0  0  0  0  0  0
  -10.0455   20.4035  -31.4482 H   0  0  0  0  0  0  0  0  0  0  0  0
   -9.9699   17.9463  -31.7566 H   0  0  0  0  0  0  0  0  0  0  0  0
   -7.8869   16.8540  -32.5203 H   0  0  0  0  0  0  0  0  0  0  0  0
   -5.7140   16.1522  -32.2145 H   0  0  0  0  0  0  0  0  0  0  0  0
   -6.6034   16.3432  -33.7634 H   0  0  0  0  0  0  0  0  0  0  0  0
   -4.8095   16.2499  -33.7634 H   0  0  0  0  0  0  0  0  0  0  0  0
   -3.3563   17.0963  -33.9161 H   0  0  0  0  0  0  0  0  0  0  0  0
   -1.3387   18.4391  -34.4396 H   0  0  0  0  0  0  0  0  0  0  0  0
   -1.1420   21.7430  -35.0610 H   0  0  0  0  0  0  0  0  0  0  0  0
    0.9455   21.2383  -34.1073 H   0  0  0  0  0  0  0  0  0  0  0  0
   -0.0175   22.0219  -32.7446 H   0  0  0  0  0  0  0  0  0  0  0  0
   -0.1511   19.0828  -32.9660 H   0  0  0  0  0  0  0  0  0  0  0  0
    1.4007   19.7755  -32.4277 H   0  0  0  0  0  0  0  0  0  0  0  0
   -0.9064   22.2106  -31.8944 H   0  0  0  0  0  0  0  0  0  0  0  0
   -1.9680   22.8714  -29.7541 H   0  0  0  0  0  0  0  0  0  0  0  0
   -1.9185   21.2437  -27.8414 H   0  0  0  0  0  0  0  0  0  0  0  0
   -0.8277   19.0412  -28.1265 H   0  0  0  0  0  0  0  0  0  0  0  0
    0.2341   18.3986  -30.2854 H   0  0  0  0  0  0  0  0  0  0  0  0
   -3.4303   21.9812  -33.3389 H   0  0  0  0  0  0  0  0  0  0  0  0
  1  2  1  0
  2  3  1  0
  3  4  1  0
  4  5  1  0
  3  6  1  0
  6  7  1  0
  7  8  1  0
  8  9  1  0
  9 10  2  0
 10 11  1  0
 11 12  2  0
 12 13  1  0
 13 14  2  0
 14 15  1  0
 15 16  2  0
 16 17  1  0
 16 18  1  0
 18 19  2  0
 19 20  1  0
 20 21  2  0
 21 22  1  0
 22 23  1  0
 23 24  1  0
 24 25  1  0
 25 26  2  0
 26 27  1  0
 27 28  2  0
 28 29  1  0
 29 30  2  0
 21 31  1  0
 31 32  2  0
 32  9  1  0
 15 10  1  0
 32 18  1  0
 30 25  1  0
  1 33  1  0
  1 34  1  0
  1 35  1  0
  2 36  1  0
  2 37  1  0
  4 38  1  0
  4 39  1  0
  5 40  1  0
  5 41  1  0
  5 42  1  0
  6 43  1  0
  6 44  1  0
  7 45  1  0
  7 46  1  0
  8 47  1  0
 11 48  1  0
 12 49  1  0
 13 50  1  0
 14 51  1  0
 17 52  1  0
 17 53  1  0
 17 54  1  0
 19 55  1  0
 20 56  1  0
 22 57  1  0
 23 58  1  0
 23 59  1  0
 24 60  1  0
 24 61  1  0
 26 62  1  0
 27 63  1  0
 28 64  1  0
 29 65  1  0
 30 66  1  0
 31 67  1  0
M  CHG  1  16   1
M  END
>  <smiles>  (7) 
CCN(CC)CCNc1c2ccccc2[n+](C)c2ccc(NCCc3ccccc3)cc12

>  <score_type>  (7) 
oracle

>  <origin>  (7) 
adg

>  <m_score__min__energy>  (7) 
-9.6500000000000004

>  <m_primary>  (7) 
energy

$$$$
7:0
     RDKit          3D

 59 61  0  0  0  0  0  0  0  0999 V2000
   -2.0550   20.9790  -29.1690 C   0  0  0  0  0  0  0  0  0  0  0  0
   -1.5340   21.6490  -30.3900 C   0  0  0  0  0  0  0  0  0  0  0  0
   -1.3020   23.0420  -30.3380 N   0  0  0  0  0  0  0  0  0  0  0  0
   -0.6140   23.6080  -29.2450 C   0  0  0  0  0  0  0  0  0  0  0  0
   -1.0900   24.9350  -28.7870 C   0  0  0  0  0  0  0  0  0  0  0  0
   -2.3730   25.2460  -29.2790 O   0  0  0  0  0  0  0  0  0  0  0  0
   -3.3750   24.5300  -28.6390 C   0  0  0  0  0  0  0  0  0  0  0  0
   -4.1230   23.6240  -29.5620 C   0  0  0  0  0  0  0  0  0  0  0  0
   -4.2780   24.2620  -30.8450 N   0  0  0  0  0  0  0  0  0  0  0  0
   -5.5390   24.9330  -31.0310 C   0  0  0  0  0  0  0  0  0  0  0  0
   -6.5600   23.9110  -31.3820 C   0  0  0  0  0  0  0  0  0  0  0  0
   -6.3180   23.1020  -32.5460 N   0  0  0  0  0  0  0  0  0  0  0  0
   -6.1770   21.6900  -32.5320 C   0  0  0  0  0  0  0  0  0  0  0  0
   -4.8850   21.2090  -32.7050 C   0  0  0  0  0  0  0  0  0  0  0  0
   -4.6630   19.8500  -32.6990 C   0  0  0  0  0  0  0  0  0  0  0  0
   -5.6510   18.9430  -32.5300 N   0  0  0  0  0  0  0  0  0  0  0  0
   -5.4230   17.5280  -32.5220 C   0  0  0  0  0  0  0  0  0  0  0  0
   -6.9100   19.4060  -32.3600 C   0  0  0  0  0  0  0  0  0  0  0  0
   -7.9230   18.4890  -32.1750 C   0  0  0  0  0  0  0  0  0  0  0  0
   -9.2330   18.9020  -31.9820 C   0  0  0  0  0  0  0  0  0  0  0  0
   -9.4800   20.2610  -31.9820 C   0  0  0  0  0  0  0  0  0  0  0  0
   -8.4590   21.1640  -32.1680 C   0  0  0  0  0  0  0  0  0  0  0  0
   -7.1630   20.7720  -32.3610 C   0  0  0  0  0  0  0  0  0  0  0  0
   -3.2110   19.5650  -32.8990 C   0  0  0  0  0  0  0  0  0  0  0  0
   -2.7070   20.8820  -33.4930 C   0  0  0  0  0  0  0  0  0  0  0  0
   -3.5910   21.9390  -32.9130 C   0  0  0  0  0  0  0  0  0  0  0  0
   -1.6607   21.4860  -28.2760 H   0  0  0  0  0  0  0  0  0  0  0  0
   -3.1539   21.0290  -29.1639 H   0  0  0  0  0  0  0  0  0  0  0  0
   -1.7358   19.9263  -29.1639 H   0  0  0  0  0  0  0  0  0  0  0  0
   -0.5778   21.1680  -30.6435 H   0  0  0  0  0  0  0  0  0  0  0  0
   -2.3396   21.5335  -31.1300 H   0  0  0  0  0  0  0  0  0  0  0  0
   -2.1790   23.5540  -30.5730 H   0  0  0  0  0  0  0  0  0  0  0  0
   -0.6982   22.9109  -28.3983 H   0  0  0  0  0  0  0  0  0  0  0  0
    0.4151   23.7706  -29.5978 H   0  0  0  0  0  0  0  0  0  0  0  0
   -1.1233   24.9379  -27.6875 H   0  0  0  0  0  0  0  0  0  0  0  0
   -0.3912   25.6924  -29.1718 H   0  0  0  0  0  0  0  0  0  0  0  0
   -2.9188   23.9220  -27.8439 H   0  0  0  0  0  0  0  0  0  0  0  0
   -4.0947   25.2578  -28.2361 H   0  0  0  0  0  0  0  0  0  0  0  0
   -3.5642   22.6846  -29.6854 H   0  0  0  0  0  0  0  0  0  0  0  0
   -5.1152   23.4092  -29.1385 H   0  0  0  0  0  0  0  0  0  0  0  0
   -3.4980   24.9150  -31.0850 H   0  0  0  0  0  0  0  0  0  0  0  0
   -5.8289   25.4456  -30.1019 H   0  0  0  0  0  0  0  0  0  0  0  0
   -5.4575   25.6808  -31.8336 H   0  0  0  0  0  0  0  0  0  0  0  0
   -6.6546   23.2312  -30.5224 H   0  0  0  0  0  0  0  0  0  0  0  0
   -7.4629   24.4899  -31.6263 H   0  0  0  0  0  0  0  0  0  0  0  0
   -6.2330   23.5630  -33.4800 H   0  0  0  0  0  0  0  0  0  0  0  0
   -5.3656   17.1717  -31.4829 H   0  0  0  0  0  0  0  0  0  0  0  0
   -6.2509   17.0203  -33.0385 H   0  0  0  0  0  0  0  0  0  0  0  0
   -4.4775   17.3060  -33.0385 H   0  0  0  0  0  0  0  0  0  0  0  0
   -7.6888   17.4142  -32.1806 H   0  0  0  0  0  0  0  0  0  0  0  0
  -10.0448   18.1745  -31.8345 H   0  0  0  0  0  0  0  0  0  0  0  0
  -10.5067   20.6260  -31.8313 H   0  0  0  0  0  0  0  0  0  0  0  0
   -8.6931   22.2388  -32.1613 H   0  0  0  0  0  0  0  0  0  0  0  0
   -2.7126   19.3405  -31.9444 H   0  0  0  0  0  0  0  0  0  0  0  0
   -3.0145   18.6883  -33.5337 H   0  0  0  0  0  0  0  0  0  0  0  0
   -1.6590   21.0571  -33.2085 H   0  0  0  0  0  0  0  0  0  0  0  0
   -2.7411   20.8761  -34.5925 H   0  0  0  0  0  0  0  0  0  0  0  0
   -3.1890   22.3132  -31.9599 H   0  0  0  0  0  0  0  0  0  0  0  0
   -3.6890   22.8268  -33.5550 H   0  0  0  0  0  0  0  0  0  0  0  0
  1  2  1  0
  2  3  1  0
  3  4  1  0
  4  5  1  0
  5  6  1  0
  6  7  1  0
  7  8  1  0
  8  9  1  0
  9 10  1  0
 10 11  1  0
 11 12  1  0
 12 13  1  0
 13 14  2  0
 14 15  1  0
 15 16  2  0
 16 17  1  0
 16 18  1  0
 18 19  2  0
 19 20  1  0
 20 21  2  0
 21 22  1  0
 22 23  2  0
 15 24  1  0
 24 25  1  0
 25 26  1  0
 23 13  1  0
 26 14  1  0
 23 18  1  0
  1 27  1  0
  1 28  1  0
  1 29  1  0
  2 30  1  0
  2 31  1  0
  3 32  1  0
  4 33  1  0
  4 34  1  0
  5 35  1  0
  5 36  1  0
  7 37  1  0
  7 38  1  0
  8 39  1  0
  8 40  1  0
  9 41  1  0
 10 42  1  0
 10 43  1  0
 11 44  1  0
 11 45  1  0
 12 46  1  0
 17 47  1  0
 17 48  1  0
 17 49  1  0
 19 50  1  0
 20 51  1  0
 21 52  1  0
 22 53  1  0
 24 54  1  0
 24 55  1  0
 25 56  1  0
 25 57  1  0
 26 58  1  0
 26 59  1  0
M  CHG  1  16   1
M  END
>  <smiles>  (8) 
CCNCCOCCNCCNc1c2c([n+](C)c3ccccc13)CCC2

>  <score_type>  (8) 
oracle

>  <origin>  (8) 
adg

>  <m_score__min__energy>  (8) 
-9.1600000000000001

>  <m_primary>  (8) 
energy

$$$$
8:0
     RDKit          3D

 57 59  0  0  0  0  0  0  0  0999 V2000
   -2.0470   25.4460  -26.6470 C   0  0  0  0  0  0  0  0  0  0  0  0
   -1.2170   26.0080  -27.8010 C   0  0  0  0  0  0  0  0  0  0  0  0
   -1.8560   25.6550  -28.9620 O   0  0  0  0  0  0  0  0  0  0  0  0
   -2.3730   24.4100  -29.0330 C   0  0  0  0  0  0  0  0  0  0  0  0
   -3.4250   24.1280  -30.0580 C   0  0  0  0  0  0  0  0  0  0  0  0
   -3.8660   25.2600  -30.6520 O   0  0  0  0  0  0  0  0  0  0  0  0
   -5.1560   25.6570  -30.4860 C   0  0  0  0  0  0  0  0  0  0  0  0
   -5.9510   24.9720  -29.4310 C   0  0  0  0  0  0  0  0  0  0  0  0
   -6.7010   23.8970  -29.7960 O   0  0  0  0  0  0  0  0  0  0  0  0
   -7.5120   24.0720  -30.9110 C   0  0  0  0  0  0  0  0  0  0  0  0
   -7.0310   23.2510  -32.0900 C   0  0  0  0  0  0  0  0  0  0  0  0
   -6.0670   22.2670  -31.6420 N   0  0  0  0  0  0  0  0  0  0  0  0
   -5.9690   20.9580  -32.1810 C   0  0  0  0  0  0  0  0  0  0  0  0
   -6.9990   20.0480  -32.1880 C   0  0  0  0  0  0  0  0  0  0  0  0
   -6.7540   18.8130  -32.7510 C   0  0  0  0  0  0  0  0  0  0  0  0
   -5.5580   18.4900  -33.2810 N   0  0  0  0  0  0  0  0  0  0  0  0
   -5.2910   17.1870  -33.8780 C   0  0  0  0  0  0  0  0  0  0  0  0
   -4.5250   19.3650  -33.2900 C   0  0  0  0  0  0  0  0  0  0  0  0
   -3.3000   19.0390  -33.8310 C   0  0  0  0  0  0  0  0  0  0  0  0
   -2.2550   19.9660  -33.8240 C   0  0  0  0  0  0  0  0  0  0  0  0
   -2.4470   21.2220  -33.2700 C   0  0  0  0  0  0  0  0  0  0  0  0
   -3.6840   21.5280  -32.7320 C   0  0  0  0  0  0  0  0  0  0  0  0
   -4.7360   20.6100  -32.7340 C   0  0  0  0  0  0  0  0  0  0  0  0
   -7.9740   17.9680  -32.6670 C   0  0  0  0  0  0  0  0  0  0  0  0
   -8.7320   18.6260  -31.5340 C   0  0  0  0  0  0  0  0  0  0  0  0
   -8.3780   20.1040  -31.6970 C   0  0  0  0  0  0  0  0  0  0  0  0
   -1.5978   25.7502  -25.6901 H   0  0  0  0  0  0  0  0  0  0  0  0
   -3.0738   25.8354  -26.7102 H   0  0  0  0  0  0  0  0  0  0  0  0
   -2.0667   24.3480  -26.7102 H   0  0  0  0  0  0  0  0  0  0  0  0
   -1.1534   27.1034  -27.7225 H   0  0  0  0  0  0  0  0  0  0  0  0
   -0.1923   25.6086  -27.7792 H   0  0  0  0  0  0  0  0  0  0  0  0
   -1.5369   23.7226  -29.2292 H   0  0  0  0  0  0  0  0  0  0  0  0
   -2.8936   24.2811  -28.0726 H   0  0  0  0  0  0  0  0  0  0  0  0
   -3.0035   23.4638  -30.8269 H   0  0  0  0  0  0  0  0  0  0  0  0
   -4.2782   23.6548  -29.5499 H   0  0  0  0  0  0  0  0  0  0  0  0
   -5.1429   26.7302  -30.2452 H   0  0  0  0  0  0  0  0  0  0  0  0
   -5.6555   25.3952  -31.4304 H   0  0  0  0  0  0  0  0  0  0  0  0
   -5.2458   24.6322  -28.6582 H   0  0  0  0  0  0  0  0  0  0  0  0
   -6.6859   25.7239  -29.1076 H   0  0  0  0  0  0  0  0  0  0  0  0
   -8.5373   23.7646  -30.6575 H   0  0  0  0  0  0  0  0  0  0  0  0
   -7.4772   25.1338  -31.1963 H   0  0  0  0  0  0  0  0  0  0  0  0
   -7.8878   22.7388  -32.5522 H   0  0  0  0  0  0  0  0  0  0  0  0
   -6.5558   23.9161  -32.8260 H   0  0  0  0  0  0  0  0  0  0  0  0
   -5.3850   22.5000  -30.8750 H   0  0  0  0  0  0  0  0  0  0  0  0
   -5.1386   16.4433  -33.0820 H   0  0  0  0  0  0  0  0  0  0  0  0
   -6.1463   16.8870  -34.5012 H   0  0  0  0  0  0  0  0  0  0  0  0
   -4.3866   17.2476  -34.5012 H   0  0  0  0  0  0  0  0  0  0  0  0
   -3.1443   18.0429  -34.2709 H   0  0  0  0  0  0  0  0  0  0  0  0
   -1.2801   19.6993  -34.2580 H   0  0  0  0  0  0  0  0  0  0  0  0
   -1.6319   21.9606  -33.2584 H   0  0  0  0  0  0  0  0  0  0  0  0
   -3.8434   22.5226  -32.2901 H   0  0  0  0  0  0  0  0  0  0  0  0
   -8.5484   18.0003  -33.6046 H   0  0  0  0  0  0  0  0  0  0  0  0
   -7.7650   16.9008  -32.5013 H   0  0  0  0  0  0  0  0  0  0  0  0
   -9.8153   18.4651  -31.6370 H   0  0  0  0  0  0  0  0  0  0  0  0
   -8.4688   18.2235  -30.5447 H   0  0  0  0  0  0  0  0  0  0  0  0
   -9.0401   20.5931  -32.4266 H   0  0  0  0  0  0  0  0  0  0  0  0
   -8.4901   20.6863  -30.7705 H   0  0  0  0  0  0  0  0  0  0  0  0
  1  2  1  0
  2  3  1  0
  3  4  1  0
  4  5  1  0
  5  6  1  0
  6  7  1  0
  7  8  1  0
  8  9  1  0
  9 10  1  0
 10 11  1  0
 11 12  1  0
 12 13  1  0
 13 14  2  0
 14 15  1  0
 15 16  2  0
 16 17  1  0
 16 18  1  0
 18 19  2  0
 19 20  1  0
 20 21  2  0
 21 22  1  0
 22 23  2  0
 15 24  1  0
 24 25  1  0
 25 26  1  0
 23 13  1  0
 26 14  1  0
 23 18  1  0
  1 27  1  0
  1 28  1  0
  1 29  1  0
  2 30  1  0
  2 31  1  0
  4 32  1  0
  4 33  1  0
  5 34  1  0
  5 35  1  0
  7 36  1  0
  7 37  1  0
  8 38  1  0
  8 39  1  0
 10 40  1  0
 10 41  1  0
 11 42  1  0
 11 43  1  0
 12 44  1  0
 17 45  1  0
 17 46  1  0
 17 47  1  0
 19 48  1  0
 20 49  1  0
 21 50  1  0
 22 51  1  0
 24 52  1  0
 24 53  1  0
 25 54  1  0
 25 55  1  0
 26 56  1  0
 26 57  1  0
M  CHG  1  16   1
M  END
>  <smiles>  (9) 
CCOCCOCCOCCNc1c2c([n+](C)c3ccccc13)CCC2

>  <score_type>  (9) 
oracle

>  <origin>  (9) 
adg

>  <m_score__min__energy>  (9) 
-8.5099999999999998

>  <m_primary>  (9) 
energy

$$$$
9:0
     RDKit          3D

 66 68  0  0  0  0  0  0  0  0999 V2000
   -2.7510   19.9110  -27.4070 C   0  0  0  0  0  0  0  0  0  0  0  0
   -2.7570   20.8510  -28.5810 C   0  0  0  0  0  0  0  0  0  0  0  0
   -2.1290   22.1310  -28.3450 N   0  0  0  0  0  0  0  0  0  0  0  0
   -1.0800   22.2970  -29.3260 C   0  0  0  0  0  0  0  0  0  0  0  0
   -0.9840   21.1010  -30.2540 C   0  0  0  0  0  0  0  0  0  0  0  0
   -1.5450   22.0240  -27.0150 C   0  0  0  0  0  0  0  0  0  0  0  0
   -0.2100   22.7340  -26.9230 C   0  0  0  0  0  0  0  0  0  0  0  0
   -3.1390   23.1360  -28.4170 C   0  0  0  0  0  0  0  0  0  0  0  0
   -2.7420   24.5340  -28.6050 C   0  0  0  0  0  0  0  0  0  0  0  0
   -3.1710   24.9220  -29.9000 O   0  0  0  0  0  0  0  0  0  0  0  0
   -4.0270   23.9600  -30.4310 C   0  0  0  0  0  0  0  0  0  0  0  0
   -5.3470   24.6100  -30.7420 C   0  0  0  0  0  0  0  0  0  0  0  0
   -6.3360   23.5020  -31.0520 C   0  0  0  0  0  0  0  0  0  0  0  0
   -6.1660   22.9560  -32.3770 N   0  0  0  0  0  0  0  0  0  0  0  0
   -6.0510   21.5560  -32.5320 C   0  0  0  0  0  0  0  0  0  0  0  0
   -4.8110   20.9840  -32.8320 C   0  0  0  0  0  0  0  0  0  0  0  0
   -3.7610   21.8440  -32.9580 C   0  0  0  0  0  0  0  0  0  0  0  0
   -2.5120   21.3170  -33.2600 C   0  0  0  0  0  0  0  0  0  0  0  0
   -2.3220   19.9450  -33.4310 C   0  0  0  0  0  0  0  0  0  0  0  0
   -3.4420   19.1350  -33.2840 C   0  0  0  0  0  0  0  0  0  0  0  0
   -4.6900   19.5980  -32.9890 C   0  0  0  0  0  0  0  0  0  0  0  0
   -5.7770   18.7860  -32.8540 N   0  0  0  0  0  0  0  0  0  0  0  0
   -5.5770   17.3680  -33.0130 C   0  0  0  0  0  0  0  0  0  0  0  0
   -6.9770   19.3120  -32.5690 C   0  0  0  0  0  0  0  0  0  0  0  0
   -8.1110   18.5480  -32.4290 C   0  0  0  0  0  0  0  0  0  0  0  0
   -9.3320   19.1100  -32.1430 C   0  0  0  0  0  0  0  0  0  0  0  0
   -9.4820   20.4890  -31.9790 C   0  0  0  0  0  0  0  0  0  0  0  0
   -8.3370   21.2350  -32.1240 C   0  0  0  0  0  0  0  0  0  0  0  0
   -7.0990   20.6720  -32.4130 C   0  0  0  0  0  0  0  0  0  0  0  0
   -2.7547   20.4914  -26.4726 H   0  0  0  0  0  0  0  0  0  0  0  0
   -3.6451   19.2713  -27.4449 H   0  0  0  0  0  0  0  0  0  0  0  0
   -1.8488   19.2828  -27.4449 H   0  0  0  0  0  0  0  0  0  0  0  0
   -2.2295   20.3609  -29.4126 H   0  0  0  0  0  0  0  0  0  0  0  0
   -3.8143   21.0639  -28.7974 H   0  0  0  0  0  0  0  0  0  0  0  0
   -1.2904   23.1960  -29.9240 H   0  0  0  0  0  0  0  0  0  0  0  0
   -0.1234   22.3934  -28.7915 H   0  0  0  0  0  0  0  0  0  0  0  0
   -0.9100   20.1794  -29.6580 H   0  0  0  0  0  0  0  0  0  0  0  0
   -1.8814   21.0563  -30.8885 H   0  0  0  0  0  0  0  0  0  0  0  0
   -0.0909   21.2000  -30.8885 H   0  0  0  0  0  0  0  0  0  0  0  0
   -2.2366   22.4721  -26.2863 H   0  0  0  0  0  0  0  0  0  0  0  0
   -1.3784   20.9578  -26.8017 H   0  0  0  0  0  0  0  0  0  0  0  0
    0.0575   22.8763  -25.8656 H   0  0  0  0  0  0  0  0  0  0  0  0
    0.5627   22.1277  -27.4183 H   0  0  0  0  0  0  0  0  0  0  0  0
   -0.2808   23.7136  -27.4183 H   0  0  0  0  0  0  0  0  0  0  0  0
   -3.7960   22.8721  -29.2589 H   0  0  0  0  0  0  0  0  0  0  0  0
   -3.5925   23.1245  -27.4149 H   0  0  0  0  0  0  0  0  0  0  0  0
   -3.2212   25.1673  -27.8439 H   0  0  0  0  0  0  0  0  0  0  0  0
   -1.6524   24.6471  -28.5047 H   0  0  0  0  0  0  0  0  0  0  0  0
   -3.5921   23.5453  -31.3524 H   0  0  0  0  0  0  0  0  0  0  0  0
   -4.1714   23.1451  -29.7064 H   0  0  0  0  0  0  0  0  0  0  0  0
   -5.6934   25.1915  -29.8749 H   0  0  0  0  0  0  0  0  0  0  0  0
   -5.2508   25.2954  -31.5970 H   0  0  0  0  0  0  0  0  0  0  0  0
   -6.1997   22.6937  -30.3185 H   0  0  0  0  0  0  0  0  0  0  0  0
   -7.3459   23.9347  -30.9989 H   0  0  0  0  0  0  0  0  0  0  0  0
   -6.1200   23.5320  -33.2510 H   0  0  0  0  0  0  0  0  0  0  0  0
   -3.8993   22.9270  -32.8240 H   0  0  0  0  0  0  0  0  0  0  0  0
   -1.6533   21.9962  -33.3668 H   0  0  0  0  0  0  0  0  0  0  0  0
   -1.3339   19.5250  -33.6705 H   0  0  0  0  0  0  0  0  0  0  0  0
   -3.3131   18.0503  -33.4141 H   0  0  0  0  0  0  0  0  0  0  0  0
   -5.5101   16.8938  -32.0227 H   0  0  0  0  0  0  0  0  0  0  0  0
   -6.4234   16.9384  -33.5688 H   0  0  0  0  0  0  0  0  0  0  0  0
   -4.6448   17.1892  -33.5688 H   0  0  0  0  0  0  0  0  0  0  0  0
   -8.0392   17.4569  -32.5492 H   0  0  0  0  0  0  0  0  0  0  0  0
  -10.2123   18.4583  -32.0408 H   0  0  0  0  0  0  0  0  0  0  0  0
  -10.4545   20.9485  -31.7485 H   0  0  0  0  0  0  0  0  0  0  0  0
   -8.4029   22.3267  -32.0061 H   0  0  0  0  0  0  0  0  0  0  0  0
  1  2  1  0
  2  3  1  0
  3  4  1  0
  4  5  1  0
  3  6  1  0
  6  7  1  0
  3  8  1  0
  8  9  1  0
  9 10  1  0
 10 11  1  0
 11 12  1  0
 12 13  1  0
 13 14  1  0
 14 15  1  0
 15 16  2  0
 16 17  1  0
 17 18  2  0
 18 19  1  0
 19 20  2  0
 20 21  1  0
 21 22  2  0
 22 23  1  0
 22 24  1  0
 24 25  2  0
 25 26  1  0
 26 27  2  0
 27 28  1  0
 28 29  2  0
 29 15  1  0
 21 16  1  0
 29 24  1  0
  1 30  1  0
  1 31  1  0
  1 32  1  0
  2 33  1  0
  2 34  1  0
  4 35  1  0
  4 36  1  0
  5 37  1  0
  5 38  1  0
  5 39  1  0
  6 40  1  0
  6 41  1  0
  7 42  1  0
  7 43  1  0
  7 44  1  0
  8 45  1  0
  8 46  1  0
  9 47  1  0
  9 48  1  0
 11 49  1  0
 11 50  1  0
 12 51  1  0
 12 52  1  0
 13 53  1  0
 13 54  1  0
 14 55  1  0
 17 56  1  0
 18 57  1  0
 19 58  1  0
 20 59  1  0
 23 60  1  0
 23 61  1  0
 23 62  1  0
 25 63  1  0
 26 64  1  0
 27 65  1  0
 28 66  1  0
M  CHG  2   3   1  22   1
M  END
>  <smiles>  (10) 
CC[N+](CC)(CC)CCOCCCNc1c2ccccc2[n+](C)c2ccccc12

>  <score_type>  (10) 
oracle

>  <origin>  (10) 
adg

>  <m_score__min__energy>  (10) 
-8.1500000000000004

>  <m_primary>  (10) 
energy

$$$$
10:0
     RDKit          3D

 46 45  0  0  0  0  0  0  0  0999 V2000
   -2.6130   21.1840  -33.0640 C   0  0  0  0  0  0  0  0  0  0  0  0
   -3.9210   21.9380  -33.0690 C   0  0  0  0  0  0  0  0  0  0  0  0
   -4.6530   21.7790  -31.8540 N   0  0  0  0  0  0  0  0  0  0  0  0
   -3.9900   20.8240  -31.0290 C   0  0  0  0  0  0  0  0  0  0  0  0
   -6.0630   21.6510  -31.9860 C   0  0  0  0  0  0  0  0  0  0  0  0
   -6.7000   22.9950  -32.3360 C   0  0  0  0  0  0  0  0  0  0  0  0
   -5.9230   23.9900  -31.8220 O   0  0  0  0  0  0  0  0  0  0  0  0
   -6.4060   24.7030  -30.7670 C   0  0  0  0  0  0  0  0  0  0  0  0
   -5.3700   25.6570  -30.2520 C   0  0  0  0  0  0  0  0  0  0  0  0
   -4.1250   25.4080  -30.8350 O   0  0  0  0  0  0  0  0  0  0  0  0
   -3.6340   24.2000  -30.4440 N   0  0  0  0  0  0  0  0  0  0  0  0
   -2.4930   24.1360  -29.6200 C   0  0  0  0  0  0  0  0  0  0  0  0
   -1.9790   25.2550  -29.2830 O   0  0  0  0  0  0  0  0  0  0  0  0
   -1.8410   22.9280  -29.1130 C   0  0  0  0  0  0  0  0  0  0  0  0
   -2.4010   22.4160  -27.8860 N   0  0  0  0  0  0  0  0  0  0  0  0
   -2.5080   20.9820  -27.8730 C   0  0  0  0  0  0  0  0  0  0  0  0
   -1.4800   22.7630  -26.7830 C   0  0  0  0  0  0  0  0  0  0  0  0
   -3.6700   23.0040  -27.5450 C   0  0  0  0  0  0  0  0  0  0  0  0
   -2.2983   21.0026  -32.0257 H   0  0  0  0  0  0  0  0  0  0  0  0
   -2.7424   20.2219  -33.5813 H   0  0  0  0  0  0  0  0  0  0  0  0
   -1.8453   21.7781  -33.5813 H   0  0  0  0  0  0  0  0  0  0  0  0
   -3.7101   23.0076  -33.2154 H   0  0  0  0  0  0  0  0  0  0  0  0
   -4.5368   21.5296  -33.8838 H   0  0  0  0  0  0  0  0  0  0  0  0
   -4.1617   21.0714  -29.9710 H   0  0  0  0  0  0  0  0  0  0  0  0
   -4.3861   19.8197  -31.2397 H   0  0  0  0  0  0  0  0  0  0  0  0
   -2.9106   20.8440  -31.2397 H   0  0  0  0  0  0  0  0  0  0  0  0
   -6.2862   20.9275  -32.7840 H   0  0  0  0  0  0  0  0  0  0  0  0
   -6.4765   21.3040  -31.0276 H   0  0  0  0  0  0  0  0  0  0  0  0
   -6.7641   23.1016  -33.4289 H   0  0  0  0  0  0  0  0  0  0  0  0
   -7.7138   23.0526  -31.9131 H   0  0  0  0  0  0  0  0  0  0  0  0
   -7.2908   25.2710  -31.0901 H   0  0  0  0  0  0  0  0  0  0  0  0
   -6.6740   24.0038  -29.9612 H   0  0  0  0  0  0  0  0  0  0  0  0
   -5.6789   26.6857  -30.4893 H   0  0  0  0  0  0  0  0  0  0  0  0
   -5.2802   25.5224  -29.1640 H   0  0  0  0  0  0  0  0  0  0  0  0
   -4.1300   23.3520  -30.7760 H   0  0  0  0  0  0  0  0  0  0  0  0
   -1.9232   22.1450  -29.8812 H   0  0  0  0  0  0  0  0  0  0  0  0
   -0.7999   23.2044  -28.8903 H   0  0  0  0  0  0  0  0  0  0  0  0
   -2.5346   20.6257  -26.8326 H   0  0  0  0  0  0  0  0  0  0  0  0
   -3.4313   20.6785  -28.3882 H   0  0  0  0  0  0  0  0  0  0  0  0
   -1.6400   20.5449  -28.3882 H   0  0  0  0  0  0  0  0  0  0  0  0
   -1.9757   22.5762  -25.8189 H   0  0  0  0  0  0  0  0  0  0  0  0
   -0.5728   22.1450  -26.8547 H   0  0  0  0  0  0  0  0  0  0  0  0
   -1.2061   23.8260  -26.8547 H   0  0  0  0  0  0  0  0  0  0  0  0
   -3.7703   23.0505  -26.4506 H   0  0  0  0  0  0  0  0  0  0  0  0
   -3.7271   24.0203  -27.9619 H   0  0  0  0  0  0  0  0  0  0  0  0
   -4.4823   22.3905  -27.9619 H   0  0  0  0  0  0  0  0  0  0  0  0
  1  2  1  0
  2  3  1  0
  3  4  1  0
  3  5  1  0
  5  6  1  0
  6  7  1  0
  7  8  1  0
  8  9  1  0
  9 10  1  0
 10 11  1  0
 11 12  1  0
 12 13  2  0
 12 14  1  0
 14 15  1  0
 15 16  1  0
 15 17  1  0
 15 18  1  0
  1 19  1  0
  1 20  1  0
  1 21  1  0
  2 22  1  0
  2 23  1  0
  4 24  1  0
  4 25  1  0
  4 26  1  0
  5 27  1  0
  5 28  1  0
  6 29  1  0
  6 30  1  0
  8 31  1  0
  8 32  1  0
  9 33  1  0
  9 34  1  0
 11 35  1  0
 14 36  1  0
 14 37  1  0
 16 38  1  0
 16 39  1  0
 16 40  1  0
 17 41  1  0
 17 42  1  0
 17 43  1  0
 18 44  1  0
 18 45  1  0
 18 46  1  0
M  CHG  1  15   1
M  END
>  <smiles>  (11) 
CCN(C)CCOCCONC(=O)C[N+](C)(C)C

>  <score_type>  (11) 
oracle

>  <origin>  (11) 
adg

>  <m_score__min__energy>  (11) 
-5.6799999999999997

>  <m_primary>  (11) 
energy

$$$$
12:0
     RDKit          3D

 43 44  0  0  1  0  0  0  0  0999 V2000
   -6.1500   25.5240  -29.4820 C   0  0  0  0  0  0  0  0  0  0  0  0
   -5.3950   25.6660  -30.7840 C   0  0  0  0  0  0  0  0  0  0  0  0
   -4.0290   25.3260  -30.5570 O   0  0  0  0  0  0  0  0  0  0  0  0
   -3.6980   24.0200  -30.8430 N   0  0  0  0  0  0  0  0  0  0  0  0
   -4.1080   23.0000  -30.1920 C   0  0  0  0  0  0  0  0  0  0  0  0
   -3.1020   22.0120  -29.7730 C   0  0  0  0  0  0  0  0  0  0  0  0
   -3.0540   21.6430  -28.4500 C   0  0  0  0  0  0  0  0  0  0  0  0
   -2.1350   20.7220  -27.9970 C   0  0  0  0  0  0  0  0  0  0  0  0
   -1.2600   20.1780  -28.9060 C   0  0  0  0  0  0  0  0  0  0  0  0
   -1.3190   20.5570  -30.2370 C   0  0  0  0  0  0  0  0  0  0  0  0
   -2.2210   21.4710  -30.7270 C   0  0  0  0  0  0  0  0  0  0  0  0
   -2.3550   21.9040  -31.9940 O   0  0  0  0  0  0  0  0  0  0  0  0
   -3.0680   21.5310  -33.0960 C   0  0  0  0  0  0  0  0  0  0  0  0
   -3.5640   20.1270  -33.0550 C   0  0  0  0  0  0  0  0  0  0  0  0
   -4.6430   19.9150  -32.2000 O   0  0  0  0  0  0  0  0  0  0  0  0
   -5.8170   19.6350  -32.8480 C   0  0  0  0  0  0  0  0  0  0  0  0
   -6.8590   20.6240  -32.4620 C   0  0  0  0  0  0  0  0  0  0  0  0
   -8.1840   20.2400  -32.2600 C   0  0  0  0  0  0  0  0  0  0  0  0
   -9.1040   21.2000  -31.9040 C   0  0  0  0  0  0  0  0  0  0  0  0
   -8.8000   22.5290  -31.7320 C   0  0  0  0  0  0  0  0  0  0  0  0
   -7.4900   22.9090  -31.9330 C   0  0  0  0  0  0  0  0  0  0  0  0
   -6.5380   21.9510  -32.2930 C   0  0  0  0  0  0  0  0  0  0  0  0
   -5.4553   25.6547  -28.6392 H   0  0  0  0  0  0  0  0  0  0  0  0
   -6.9380   26.2897  -29.4297 H   0  0  0  0  0  0  0  0  0  0  0  0
   -6.6060   24.5243  -29.4297 H   0  0  0  0  0  0  0  0  0  0  0  0
   -5.8250   24.9896  -31.5374 H   0  0  0  0  0  0  0  0  0  0  0  0
   -5.4689   26.7005  -31.1504 H   0  0  0  0  0  0  0  0  0  0  0  0
   -5.1735   22.8657  -29.9537 H   0  0  0  0  0  0  0  0  0  0  0  0
   -3.7632   22.0918  -27.7389 H   0  0  0  0  0  0  0  0  0  0  0  0
   -2.1026   20.4302  -26.9369 H   0  0  0  0  0  0  0  0  0  0  0  0
   -0.5124   19.4413  -28.5767 H   0  0  0  0  0  0  0  0  0  0  0  0
   -0.6055   20.1019  -30.9397 H   0  0  0  0  0  0  0  0  0  0  0  0
   -3.9355   22.2009  -33.1888 H   0  0  0  0  0  0  0  0  0  0  0  0
   -2.3832   21.5998  -33.9541 H   0  0  0  0  0  0  0  0  0  0  0  0
   -3.8719   19.8427  -34.0720 H   0  0  0  0  0  0  0  0  0  0  0  0
   -2.7356   19.5164  -32.6666 H   0  0  0  0  0  0  0  0  0  0  0  0
   -5.6538   19.6831  -33.9348 H   0  0  0  0  0  0  0  0  0  0  0  0
   -6.1538   18.6266  -32.5658 H   0  0  0  0  0  0  0  0  0  0  0  0
   -8.4883   19.1901  -32.3828 H   0  0  0  0  0  0  0  0  0  0  0  0
  -10.1460   20.8841  -31.7477 H   0  0  0  0  0  0  0  0  0  0  0  0
   -9.5705   23.2600  -31.4456 H   0  0  0  0  0  0  0  0  0  0  0  0
   -7.1953   23.9617  -31.8106 H   0  0  0  0  0  0  0  0  0  0  0  0
   -5.4962   22.2691  -32.4465 H   0  0  0  0  0  0  0  0  0  0  0  0
  1  2  1  0
  2  3  1  0
  3  4  1  0
  4  5  2  0
  5  6  1  0
  6  7  2  0
  7  8  1  0
  8  9  2  0
  9 10  1  0
 10 11  2  0
 11 12  1  0
 12 13  1  0
 13 14  1  0
 14 15  1  0
 15 16  1  0
 16 17  1  0
 17 18  2  0
 18 19  1  0
 19 20  2  0
 20 21  1  0
 21 22  2  0
 11  6  1  0
 22 17  1  0
  1 23  1  0
  1 24  1  0
  1 25  1  0
  2 26  1  0
  2 27  1  0
  5 28  1  0
  7 29  1  0
  8 30  1  0
  9 31  1  0
 10 32  1  0
 13 33  1  0
 13 34  1  0
 14 35  1  0
 14 36  1  0
 16 37  1  0
 16 38  1  0
 18 39  1  0
 19 40  1  0
 20 41  1  0
 21 42  1  0
 22 43  1  0
M  END
>  <smiles>  (12) 
CCON=Cc1ccccc1OCCOCc1ccccc1

>  <score_type>  (12) 
oracle

>  <origin>  (12) 
adg

>  <m_score__min__energy>  (12) 
-7.8200000000000003

>  <m_primary>  (12) 
energy

$$$$
13:0
     RDKit          3D

 85 88  0  0  0  0  0  0  0  0999 V2000
   -7.2360   24.0640  -30.7460 C   0  0  0  0  0  0  0  0  0  0  0  0
   -6.2930   25.0560  -30.1290 C   0  0  0  0  0  0  0  0  0  0  0  0
   -4.9820   25.2280  -30.8010 C   0  0  0  0  0  0  0  0  0  0  0  0
   -3.9290   24.4160  -30.4090 N   0  0  0  0  0  0  0  0  0  0  0  0
   -3.3810   24.5180  -29.1030 C   0  0  0  0  0  0  0  0  0  0  0  0
   -4.1120   23.7480  -28.0430 C   0  0  0  0  0  0  0  0  0  0  0  0
   -3.9740   24.5460  -26.7550 C   0  0  0  0  0  0  0  0  0  0  0  0
   -3.5040   23.3220  -31.1680 C   0  0  0  0  0  0  0  0  0  0  0  0
   -4.4240   22.2120  -31.4390 C   0  0  0  0  0  0  0  0  0  0  0  0
   -4.7530   21.8370  -32.7680 N   0  0  0  0  0  0  0  0  0  0  0  0
   -5.1220   20.4940  -33.0300 C   0  0  0  0  0  0  0  0  0  0  0  0
   -6.4800   20.2240  -32.7600 C   0  0  0  0  0  0  0  0  0  0  0  0
   -7.3170   21.2330  -32.2900 C   0  0  0  0  0  0  0  0  0  0  0  0
   -8.6440   21.0450  -31.9980 C   0  0  0  0  0  0  0  0  0  0  0  0
   -9.1690   19.7940  -32.1800 C   0  0  0  0  0  0  0  0  0  0  0  0
   -8.3730   18.7760  -32.6420 C   0  0  0  0  0  0  0  0  0  0  0  0
   -7.0290   18.9840  -32.9330 C   0  0  0  0  0  0  0  0  0  0  0  0
   -6.2420   17.9620  -33.3870 N   0  0  0  0  0  0  0  0  0  0  0  0
   -6.9190   16.7000  -33.5550 C   0  0  0  0  0  0  0  0  0  0  0  0
   -4.9500   18.1950  -33.6490 C   0  0  0  0  0  0  0  0  0  0  0  0
   -4.1940   17.1340  -34.0900 C   0  0  0  0  0  0  0  0  0  0  0  0
   -2.8580   17.3410  -34.3590 C   0  0  0  0  0  0  0  0  0  0  0  0
   -2.3140   18.5940  -34.1850 C   0  0  0  0  0  0  0  0  0  0  0  0
   -3.0380   19.6890  -33.7430 C   0  0  0  0  0  0  0  0  0  0  0  0
   -2.3830   20.9310  -33.7070 N   0  0  0  0  0  0  0  0  0  0  0  0
   -1.3860   21.1760  -32.6260 C   0  0  0  0  0  0  0  0  0  0  0  0
   -1.6200   20.2670  -31.4760 C   0  0  0  0  0  0  0  0  0  0  0  0
   -1.4240   20.8110  -30.1120 C   0  0  0  0  0  0  0  0  0  0  0  0
   -0.5440   20.1450  -29.2240 N   0  0  0  0  0  0  0  0  0  0  0  0
    0.5370   19.4180  -29.8090 C   0  0  0  0  0  0  0  0  0  0  0  0
    0.0930   21.2310  -28.4220 C   0  0  0  0  0  0  0  0  0  0  0  0
   -0.9610   22.1040  -27.8230 C   0  0  0  0  0  0  0  0  0  0  0  0
   -2.0210   21.3900  -27.0580 C   0  0  0  0  0  0  0  0  0  0  0  0
   -2.3130   19.9940  -27.5050 C   0  0  0  0  0  0  0  0  0  0  0  0
   -1.1830   19.3190  -28.2160 C   0  0  0  0  0  0  0  0  0  0  0  0
   -4.3690   19.4700  -33.4760 C   0  0  0  0  0  0  0  0  0  0  0  0
   -7.7600   23.5128  -29.9512 H   0  0  0  0  0  0  0  0  0  0  0  0
   -7.9704   24.5950  -31.3694 H   0  0  0  0  0  0  0  0  0  0  0  0
   -6.6685   23.3574  -31.3694 H   0  0  0  0  0  0  0  0  0  0  0  0
   -6.7954   26.0345  -30.1207 H   0  0  0  0  0  0  0  0  0  0  0  0
   -6.0591   24.6546  -29.1319 H   0  0  0  0  0  0  0  0  0  0  0  0
   -5.1424   25.0566  -31.8757 H   0  0  0  0  0  0  0  0  0  0  0  0
   -4.6628   26.2414  -30.5161 H   0  0  0  0  0  0  0  0  0  0  0  0
   -2.3452   24.1493  -29.1385 H   0  0  0  0  0  0  0  0  0  0  0  0
   -3.4598   25.5781  -28.8202 H   0  0  0  0  0  0  0  0  0  0  0  0
   -5.1732   23.6435  -28.3132 H   0  0  0  0  0  0  0  0  0  0  0  0
   -3.6967   22.7357  -27.9296 H   0  0  0  0  0  0  0  0  0  0  0  0
   -4.0904   23.8732  -25.8926 H   0  0  0  0  0  0  0  0  0  0  0  0
   -2.9809   25.0178  -26.7206 H   0  0  0  0  0  0  0  0  0  0  0  0
   -4.7509   25.3239  -26.7206 H   0  0  0  0  0  0  0  0  0  0  0  0
   -3.1880   23.7174  -32.1446 H   0  0  0  0  0  0  0  0  0  0  0  0
   -2.7328   22.8603  -30.5338 H   0  0  0  0  0  0  0  0  0  0  0  0
   -3.9871   21.3217  -30.9630 H   0  0  0  0  0  0  0  0  0  0  0  0
   -5.3809   22.5945  -31.0542 H   0  0  0  0  0  0  0  0  0  0  0  0
   -4.7810   22.4740  -33.6140 H   0  0  0  0  0  0  0  0  0  0  0  0
   -6.8903   22.2364  -32.1449 H   0  0  0  0  0  0  0  0  0  0  0  0
   -9.2667   21.8734  -31.6292 H   0  0  0  0  0  0  0  0  0  0  0  0
  -10.2291   19.6046  -31.9559 H   0  0  0  0  0  0  0  0  0  0  0  0
   -8.8067   17.7753  -32.7850 H   0  0  0  0  0  0  0  0  0  0  0  0
   -7.1483   16.2726  -32.5677 H   0  0  0  0  0  0  0  0  0  0  0  0
   -7.8540   16.8569  -34.1127 H   0  0  0  0  0  0  0  0  0  0  0  0
   -6.2711   16.0078  -34.1127 H   0  0  0  0  0  0  0  0  0  0  0  0
   -4.6463   16.1405  -34.2253 H   0  0  0  0  0  0  0  0  0  0  0  0
   -2.2296   16.5095  -34.7109 H   0  0  0  0  0  0  0  0  0  0  0  0
   -1.2461   18.7329  -34.4093 H   0  0  0  0  0  0  0  0  0  0  0  0
   -2.4490   21.7310  -34.3330 H   0  0  0  0  0  0  0  0  0  0  0  0
   -0.3746   21.0028  -33.0224 H   0  0  0  0  0  0  0  0  0  0  0  0
   -1.4895   22.2151  -32.2803 H   0  0  0  0  0  0  0  0  0  0  0  0
   -2.6603   19.9158  -31.5423 H   0  0  0  0  0  0  0  0  0  0  0  0
   -0.8481   19.4898  -31.5768 H   0  0  0  0  0  0  0  0  0  0  0  0
   -1.0487   21.8387  -30.2263 H   0  0  0  0  0  0  0  0  0  0  0  0
   -2.4106   20.6959  -29.6393 H   0  0  0  0  0  0  0  0  0  0  0  0
    1.1671   18.9942  -29.0131 H   0  0  0  0  0  0  0  0  0  0  0  0
    0.1371   18.6046  -30.4322 H   0  0  0  0  0  0  0  0  0  0  0  0
    1.1395   20.0952  -30.4322 H   0  0  0  0  0  0  0  0  0  0  0  0
    0.6974   20.7848  -27.6185 H   0  0  0  0  0  0  0  0  0  0  0  0
    0.7361   21.8365  -29.0776 H   0  0  0  0  0  0  0  0  0  0  0  0
   -0.4681   22.8121  -27.1406 H   0  0  0  0  0  0  0  0  0  0  0  0
   -1.4709   22.5886  -28.6687 H   0  0  0  0  0  0  0  0  0  0  0  0
   -1.7081   21.3491  -26.0042 H   0  0  0  0  0  0  0  0  0  0  0  0
   -2.9473   21.9589  -27.2261 H   0  0  0  0  0  0  0  0  0  0  0  0
   -2.5665   19.3955  -26.6176 H   0  0  0  0  0  0  0  0  0  0  0  0
   -3.1390   20.0643  -28.2281 H   0  0  0  0  0  0  0  0  0  0  0  0
   -0.4257   19.0345  -27.4706 H   0  0  0  0  0  0  0  0  0  0  0  0
   -1.6090   18.4501  -28.7390 H   0  0  0  0  0  0  0  0  0  0  0  0
  1  2  1  0
  2  3  1  0
  3  4  1  0
  4  5  1  0
  5  6  1  0
  6  7  1  0
  4  8  1  0
  8  9  1  0
  9 10  1  0
 10 11  1  0
 11 12  2  0
 12 13  1  0
 13 14  2  0
 14 15  1  0
 15 16  2  0
 16 17  1  0
 17 18  2  0
 18 19  1  0
 18 20  1  0
 20 21  2  0
 21 22  1  0
 22 23  2  0
 23 24  1  0
 24 25  1  0
 25 26  1  0
 26 27  1  0
 27 28  1  0
 28 29  1  0
 29 30  1  0
 29 31  1  0
 31 32  1  0
 32 33  1  0
 33 34  1  0
 34 35  1  0
 24 36  2  0
 36 11  1  0
 17 12  1  0
 36 20  1  0
 35 29  1  0
  1 37  1  0
  1 38  1  0
  1 39  1  0
  2 40  1  0
  2 41  1  0
  3 42  1  0
  3 43  1  0
  5 44  1  0
  5 45  1  0
  6 46  1  0
  6 47  1  0
  7 48  1  0
  7 49  1  0
  7 50  1  0
  8 51  1  0
  8 52  1  0
  9 53  1  0
  9 54  1  0
 10 55  1  0
 13 56  1  0
 14 57  1  0
 15 58  1  0
 16 59  1  0
 19 60  1  0
 19 61  1  0
 19 62  1  0
 21 63  1  0
 22 64  1  0
 23 65  1  0
 25 66  1  0
 26 67  1  0
 26 68  1  0
 27 69  1  0
 27 70  1  0
 28 71  1  0
 28 72  1  0
 30 73  1  0
 30 74  1  0
 30 75  1  0
 31 76  1  0
 31 77  1  0
 32 78  1  0
 32 79  1  0
 33 80  1  0
 33 81  1  0
 34 82  1  0
 34 83  1  0
 35 84  1  0
 35 85  1  0
M  CHG  2  18   1  29   1
M  END
>  <smiles>  (13) 
CCCN(CCC)CCNc1c2ccccc2[n+](C)c2cccc(NCCC[N+]3(C)CCCCC3)c12

>  <score_type>  (13) 
oracle

>  <origin>  (13) 
adg

>  <m_score__min__energy>  (13) 
-9.6600000000000001

>  <m_primary>  (13) 
energy

$$$$
14:0
     RDKit          3D

 56 58  0  0  0  0  0  0  0  0999 V2000
   -0.0530   24.1480  -28.2020 C   0  0  0  0  0  0  0  0  0  0  0  0
   -1.2540   24.4050  -29.1240 C   0  0  0  0  0  0  0  0  0  0  0  0
   -2.0280   25.4790  -28.5280 N   0  0  0  0  0  0  0  0  0  0  0  0
   -1.5930   25.6040  -27.1350 C   0  0  0  0  0  0  0  0  0  0  0  0
   -2.7020   24.8840  -26.3420 C   0  0  0  0  0  0  0  0  0  0  0  0
   -3.8290   24.7660  -27.1910 N   0  0  0  0  0  0  0  0  0  0  0  0
   -4.2210   23.5490  -27.7150 C   0  0  0  0  0  0  0  0  0  0  0  0
   -4.5290   23.4160  -29.1720 C   0  0  0  0  0  0  0  0  0  0  0  0
   -4.3920   24.6210  -29.9150 N   0  0  0  0  0  0  0  0  0  0  0  0
   -5.5150   24.9470  -30.7910 C   0  0  0  0  0  0  0  0  0  0  0  0
   -6.2310   23.6700  -31.0360 C   0  0  0  0  0  0  0  0  0  0  0  0
   -6.1070   23.0360  -32.3070 N   0  0  0  0  0  0  0  0  0  0  0  0
   -6.0150   21.6410  -32.5280 C   0  0  0  0  0  0  0  0  0  0  0  0
   -7.0280   20.7360  -32.4510 C   0  0  0  0  0  0  0  0  0  0  0  0
   -8.2840   21.1630  -32.0950 C   0  0  0  0  0  0  0  0  0  0  0  0
   -9.3430   20.2800  -31.9940 C   0  0  0  0  0  0  0  0  0  0  0  0
   -9.1230   18.9420  -32.2590 C   0  0  0  0  0  0  0  0  0  0  0  0
   -7.8450   18.5360  -32.6170 C   0  0  0  0  0  0  0  0  0  0  0  0
   -6.7810   19.3910  -32.7240 C   0  0  0  0  0  0  0  0  0  0  0  0
   -5.5300   18.9740  -33.0680 N   0  0  0  0  0  0  0  0  0  0  0  0
   -5.3090   17.5720  -33.3430 C   0  0  0  0  0  0  0  0  0  0  0  0
   -4.4950   19.8490  -33.1550 C   0  0  0  0  0  0  0  0  0  0  0  0
   -3.2130   19.7160  -33.4590 O   0  0  0  0  0  0  0  0  0  0  0  0
   -2.6100   20.9000  -33.4000 C   0  0  0  0  0  0  0  0  0  0  0  0
   -3.5240   21.8720  -33.0400 C   0  0  0  0  0  0  0  0  0  0  0  0
   -4.7390   21.1850  -32.8840 C   0  0  0  0  0  0  0  0  0  0  0  0
   -0.3751   24.2169  -27.1525 H   0  0  0  0  0  0  0  0  0  0  0  0
    0.3502   23.1432  -28.3966 H   0  0  0  0  0  0  0  0  0  0  0  0
    0.7261   24.8998  -28.3966 H   0  0  0  0  0  0  0  0  0  0  0  0
   -0.9051   24.7015  -30.1242 H   0  0  0  0  0  0  0  0  0  0  0  0
   -1.8647   23.4967  -29.2336 H   0  0  0  0  0  0  0  0  0  0  0  0
   -3.0470   25.3280  -28.5770 H   0  0  0  0  0  0  0  0  0  0  0  0
   -0.6199   25.1143  -26.9821 H   0  0  0  0  0  0  0  0  0  0  0  0
   -1.4549   26.6497  -26.8229 H   0  0  0  0  0  0  0  0  0  0  0  0
   -2.3565   23.8853  -26.0366 H   0  0  0  0  0  0  0  0  0  0  0  0
   -2.9593   25.4520  -25.4358 H   0  0  0  0  0  0  0  0  0  0  0  0
   -4.0950   25.6260  -27.7270 H   0  0  0  0  0  0  0  0  0  0  0  0
   -3.4119   22.8364  -27.4972 H   0  0  0  0  0  0  0  0  0  0  0  0
   -5.1971   23.3763  -27.2382 H   0  0  0  0  0  0  0  0  0  0  0  0
   -3.8459   22.6681  -29.6009 H   0  0  0  0  0  0  0  0  0  0  0  0
   -5.5867   23.1224  -29.2432 H   0  0  0  0  0  0  0  0  0  0  0  0
   -4.0910   25.4390  -29.3810 H   0  0  0  0  0  0  0  0  0  0  0  0
   -6.1829   25.6713  -30.3018 H   0  0  0  0  0  0  0  0  0  0  0  0
   -5.1716   25.4018  -31.7319 H   0  0  0  0  0  0  0  0  0  0  0  0
   -5.8747   22.9521  -30.2826 H   0  0  0  0  0  0  0  0  0  0  0  0
   -7.2931   23.9519  -30.9867 H   0  0  0  0  0  0  0  0  0  0  0  0
   -6.0790   23.6270  -33.2060 H   0  0  0  0  0  0  0  0  0  0  0  0
   -8.4508   22.2300  -31.8859 H   0  0  0  0  0  0  0  0  0  0  0  0
  -10.3434   20.6365  -31.7076 H   0  0  0  0  0  0  0  0  0  0  0  0
   -9.9440   18.2134  -32.1877 H   0  0  0  0  0  0  0  0  0  0  0  0
   -7.6778   17.4691  -32.8262 H   0  0  0  0  0  0  0  0  0  0  0  0
   -5.2222   17.0216  -32.3946 H   0  0  0  0  0  0  0  0  0  0  0  0
   -6.1555   17.1740  -33.9218 H   0  0  0  0  0  0  0  0  0  0  0  0
   -4.3811   17.4537  -33.9218 H   0  0  0  0  0  0  0  0  0  0  0  0
   -1.5444   21.0786  -33.6066 H   0  0  0  0  0  0  0  0  0  0  0  0
   -3.3402   22.9481  -32.9052 H   0  0  0  0  0  0  0  0  0  0  0  0
  1  2  1  0
  2  3  1  0
  3  4  1  0
  4  5  1  0
  5  6  1  0
  6  7  1  0
  7  8  1  0
  8  9  1  0
  9 10  1  0
 10 11  1  0
 11 12  1  0
 12 13  1  0
 13 14  2  0
 14 15  1  0
 15 16  2  0
 16 17  1  0
 17 18  2  0
 18 19  1  0
 19 20  2  0
 20 21  1  0
 20 22  1  0
 22 23  1  0
 23 24  1  0
 24 25  2  0
 25 26  1  0
 26 13  1  0
 19 14  1  0
 26 22  2  0
  1 27  1  0
  1 28  1  0
  1 29  1  0
  2 30  1  0
  2 31  1  0
  3 32  1  0
  4 33  1  0
  4 34  1  0
  5 35  1  0
  5 36  1  0
  6 37  1  0
  7 38  1  0
  7 39  1  0
  8 40  1  0
  8 41  1  0
  9 42  1  0
 10 43  1  0
 10 44  1  0
 11 45  1  0
 11 46  1  0
 12 47  1  0
 15 48  1  0
 16 49  1  0
 17 50  1  0
 18 51  1  0
 21 52  1  0
 21 53  1  0
 21 54  1  0
 24 55  1  0
 25 56  1  0
M  CHG  1  20   1
M  END
>  <smiles>  (14) 
CCNCCNCCNCCNc1c2ccccc2[n+](C)c2occc12

>  <score_type>  (14) 
oracle

>  <origin>  (14) 
adg

>  <m_score__min__energy>  (14) 
-8.0500000000000007

>  <m_primary>  (14) 
energy

$$$$
15:0
     RDKit          3D

 36 38  0  0  1  0  0  0  0  0999 V2000
   -6.8430   16.9870  -33.3850 C   0  0  0  0  0  0  0  0  0  0  0  0
   -6.1280   17.9080  -34.3300 C   0  0  0  0  0  0  0  0  0  0  0  0
   -5.8120   19.2040  -33.6390 C   0  0  0  0  0  0  0  0  0  0  0  0
   -4.5020   19.6000  -33.4710 C   0  0  0  0  0  0  0  0  0  0  0  0
   -4.2230   20.7980  -32.8320 C   0  0  0  0  0  0  0  0  0  0  0  0
   -5.2160   21.6120  -32.3550 C   0  0  0  0  0  0  0  0  0  0  0  0
   -6.5340   21.2160  -32.5210 C   0  0  0  0  0  0  0  0  0  0  0  0
   -6.8020   20.0350  -33.1530 C   0  0  0  0  0  0  0  0  0  0  0  0
   -7.6830   22.0250  -32.0410 C   0  0  0  0  0  0  0  0  0  0  0  0
   -7.3060   23.2070  -31.2190 C   0  0  0  0  0  0  0  0  0  0  0  0
   -5.9850   23.8230  -31.6410 C   0  0  1  0  0  0  0  0  0  0  0  0
   -5.6520   25.0130  -30.7970 C   0  0  0  0  0  0  0  0  0  0  0  0
   -4.2360   25.3010  -30.7190 N   0  0  0  0  0  0  0  0  0  0  0  0
   -3.5290   24.1760  -30.1730 C   0  0  0  0  0  0  0  0  0  0  0  0
   -3.6310   23.0270  -31.1290 C   0  0  0  0  0  0  0  0  0  0  0  0
   -4.9440   22.8390  -31.6990 N   0  0  0  0  0  0  0  0  0  0  0  0
   -6.6172   17.2778  -32.3484 H   0  0  0  0  0  0  0  0  0  0  0  0
   -7.9274   17.0548  -33.5570 H   0  0  0  0  0  0  0  0  0  0  0  0
   -6.5085   15.9533  -33.5570 H   0  0  0  0  0  0  0  0  0  0  0  0
   -5.1926   17.4346  -34.6631 H   0  0  0  0  0  0  0  0  0  0  0  0
   -6.7729   18.1082  -35.1984 H   0  0  0  0  0  0  0  0  0  0  0  0
   -3.6819   18.9680  -33.8424 H   0  0  0  0  0  0  0  0  0  0  0  0
   -3.1741   21.1038  -32.7043 H   0  0  0  0  0  0  0  0  0  0  0  0
   -7.8520   19.7328  -33.2803 H   0  0  0  0  0  0  0  0  0  0  0  0
   -8.2425   22.3813  -32.9185 H   0  0  0  0  0  0  0  0  0  0  0  0
   -8.2773   21.3678  -31.3892 H   0  0  0  0  0  0  0  0  0  0  0  0
   -8.0947   23.9677  -31.3157 H   0  0  0  0  0  0  0  0  0  0  0  0
   -7.1931   22.8639  -30.1800 H   0  0  0  0  0  0  0  0  0  0  0  0
   -6.0851   24.2037  -32.6682 H   0  0  0  0  0  0  0  0  0  0  0  0
   -6.1608   25.8912  -31.2210 H   0  0  0  0  0  0  0  0  0  0  0  0
   -5.9868   24.7823  -29.7749 H   0  0  0  0  0  0  0  0  0  0  0  0
   -3.8200   25.6710  -31.5890 H   0  0  0  0  0  0  0  0  0  0  0  0
   -2.4716   24.4408  -30.0257 H   0  0  0  0  0  0  0  0  0  0  0  0
   -3.9683   23.8946  -29.2046 H   0  0  0  0  0  0  0  0  0  0  0  0
   -2.9208   23.1996  -31.9511 H   0  0  0  0  0  0  0  0  0  0  0  0
   -3.4068   22.1179  -30.5516 H   0  0  0  0  0  0  0  0  0  0  0  0
  1  2  1  0
  2  3  1  0
  3  4  2  0
  4  5  1  0
  5  6  2  0
  6  7  1  0
  7  8  2  0
  7  9  1  0
  9 10  1  0
 10 11  1  0
 11 12  1  0
 12 13  1  0
 13 14  1  0
 14 15  1  0
 15 16  1  0
  8  3  1  0
 16 11  1  0
 16  6  1  0
  1 17  1  0
  1 18  1  0
  1 19  1  0
  2 20  1  0
  2 21  1  0
  4 22  1  0
  5 23  1  0
  8 24  1  0
  9 25  1  0
  9 26  1  0
 10 27  1  0
 10 28  1  0
 11 29  1  6
 12 30  1  0
 12 31  1  0
 13 32  1  0
 14 33  1  0
 14 34  1  0
 15 35  1  0
 15 36  1  0
M  END
>  <smiles>  (15) 
CCc1ccc2c(c1)CCC1CNCCN21

>  <score_type>  (15) 
oracle

>  <origin>  (15) 
adg

>  <m_score__min__energy>  (15) 
-8.3200000000000003

>  <m_primary>  (15) 
energy

$$$$
16:0
     RDKit          3D

 53 56  0  0  0  0  0  0  0  0999 V2000
   -2.1660   25.3390  -26.5910 C   0  0  0  0  0  0  0  0  0  0  0  0
   -1.2680   25.8140  -27.7440 C   0  0  0  0  0  0  0  0  0  0  0  0
   -1.8990   25.6310  -28.9610 O   0  0  0  0  0  0  0  0  0  0  0  0
   -2.0270   24.3060  -29.3200 C   0  0  0  0  0  0  0  0  0  0  0  0
   -3.3360   24.0200  -30.0220 C   0  0  0  0  0  0  0  0  0  0  0  0
   -3.8420   25.2430  -30.4810 O   0  0  0  0  0  0  0  0  0  0  0  0
   -5.1690   25.1850  -30.8390 C   0  0  0  0  0  0  0  0  0  0  0  0
   -5.7570   23.7950  -30.8340 C   0  0  0  0  0  0  0  0  0  0  0  0
   -5.6390   23.2670  -32.1800 N   0  0  0  0  0  0  0  0  0  0  0  0
   -5.9640   21.9010  -32.4330 C   0  0  0  0  0  0  0  0  0  0  0  0
   -5.0070   20.9700  -32.8120 C   0  0  0  0  0  0  0  0  0  0  0  0
   -5.3260   19.6410  -33.0550 C   0  0  0  0  0  0  0  0  0  0  0  0
   -6.6090   19.2200  -32.9240 N   0  0  0  0  0  0  0  0  0  0  0  0
   -6.9090   17.8290  -33.1680 C   0  0  0  0  0  0  0  0  0  0  0  0
   -7.5330   20.1270  -32.5570 C   0  0  0  0  0  0  0  0  0  0  0  0
   -8.8580   19.7500  -32.4130 C   0  0  0  0  0  0  0  0  0  0  0  0
   -9.8450   20.6640  -32.0380 C   0  0  0  0  0  0  0  0  0  0  0  0
   -9.5110   21.9750  -31.8000 C   0  0  0  0  0  0  0  0  0  0  0  0
   -8.2040   22.3780  -31.9340 C   0  0  0  0  0  0  0  0  0  0  0  0
   -7.2480   21.4520  -32.3080 C   0  0  0  0  0  0  0  0  0  0  0  0
   -4.0650   19.0110  -33.4250 C   0  0  0  0  0  0  0  0  0  0  0  0
   -3.7400   17.7190  -33.7820 C   0  0  0  0  0  0  0  0  0  0  0  0
   -2.4310   17.3880  -34.0950 C   0  0  0  0  0  0  0  0  0  0  0  0
   -1.4000   18.3030  -34.0710 C   0  0  0  0  0  0  0  0  0  0  0  0
   -1.7250   19.5960  -33.7160 C   0  0  0  0  0  0  0  0  0  0  0  0
   -3.0290   19.9190  -33.4050 C   0  0  0  0  0  0  0  0  0  0  0  0
   -3.5850   21.2020  -33.0140 C   0  0  0  0  0  0  0  0  0  0  0  0
   -2.9480   22.2800  -32.8830 O   0  0  0  0  0  0  0  0  0  0  0  0
   -1.6924   25.5895  -25.6303 H   0  0  0  0  0  0  0  0  0  0  0  0
   -3.1441   25.8377  -26.6587 H   0  0  0  0  0  0  0  0  0  0  0  0
   -2.3042   24.2498  -26.6587 H   0  0  0  0  0  0  0  0  0  0  0  0
   -1.0435   26.8825  -27.6105 H   0  0  0  0  0  0  0  0  0  0  0  0
   -0.3388   25.2253  -27.7348 H   0  0  0  0  0  0  0  0  0  0  0  0
   -1.1996   24.0419  -29.9950 H   0  0  0  0  0  0  0  0  0  0  0  0
   -2.0040   23.7062  -28.3982 H   0  0  0  0  0  0  0  0  0  0  0  0
   -3.1668   23.3410  -30.8707 H   0  0  0  0  0  0  0  0  0  0  0  0
   -4.0477   23.5389  -29.3350 H   0  0  0  0  0  0  0  0  0  0  0  0
   -5.7429   25.8036  -30.1333 H   0  0  0  0  0  0  0  0  0  0  0  0
   -5.2301   25.5475  -31.8758 H   0  0  0  0  0  0  0  0  0  0  0  0
   -5.2040   23.1558  -30.1300 H   0  0  0  0  0  0  0  0  0  0  0  0
   -6.8106   23.8211  -30.5189 H   0  0  0  0  0  0  0  0  0  0  0  0
   -5.3220   23.8440  -32.9900 H   0  0  0  0  0  0  0  0  0  0  0  0
   -7.0221   17.3044  -32.2078 H   0  0  0  0  0  0  0  0  0  0  0  0
   -7.8447   17.7507  -33.7411 H   0  0  0  0  0  0  0  0  0  0  0  0
   -6.0888   17.3720  -33.7411 H   0  0  0  0  0  0  0  0  0  0  0  0
   -9.1402   18.7032  -32.5989 H   0  0  0  0  0  0  0  0  0  0  0  0
  -10.8892   20.3343  -31.9333 H   0  0  0  0  0  0  0  0  0  0  0  0
  -10.2852   22.6981  -31.5039 H   0  0  0  0  0  0  0  0  0  0  0  0
   -7.9220   23.4245  -31.7460 H   0  0  0  0  0  0  0  0  0  0  0  0
   -4.5234   16.9476  -33.8185 H   0  0  0  0  0  0  0  0  0  0  0  0
   -2.2046   16.3486  -34.3751 H   0  0  0  0  0  0  0  0  0  0  0  0
   -0.3683   18.0161  -34.3227 H   0  0  0  0  0  0  0  0  0  0  0  0
   -0.9436   20.3695  -33.6810 H   0  0  0  0  0  0  0  0  0  0  0  0
  1  2  1  0
  2  3  1  0
  3  4  1  0
  4  5  1  0
  5  6  1  0
  6  7  1  0
  7  8  1  0
  8  9  1  0
  9 10  1  0
 10 11  2  0
 11 12  1  0
 12 13  2  0
 13 14  1  0
 13 15  1  0
 15 16  2  0
 16 17  1  0
 17 18  2  0
 18 19  1  0
 19 20  2  0
 12 21  1  0
 21 22  2  0
 22 23  1  0
 23 24  2  0
 24 25  1  0
 25 26  2  0
 26 27  1  0
 27 28  2  0
 20 10  1  0
 26 21  1  0
 27 11  1  0
 20 15  1  0
  1 29  1  0
  1 30  1  0
  1 31  1  0
  2 32  1  0
  2 33  1  0
  4 34  1  0
  4 35  1  0
  5 36  1  0
  5 37  1  0
  7 38  1  0
  7 39  1  0
  8 40  1  0
  8 41  1  0
  9 42  1  0
 14 43  1  0
 14 44  1  0
 14 45  1  0
 16 46  1  0
 17 47  1  0
 18 48  1  0
 19 49  1  0
 22 50  1  0
 23 51  1  0
 24 52  1  0
 25 53  1  0
M  CHG  1  13   1
M  END
>  <smiles>  (16) 
CCOCCOCCNc1c2c([n+](C)c3ccccc13)-c1ccccc1C2=O

>  <score_type>  (16) 
oracle

>  <origin>  (16) 
adg

>  <m_score__min__energy>  (16) 
-9.6699999999999999

>  <m_primary>  (16) 
energy

$$$$
17:0
     RDKit          3D

 60 62  0  0  0  0  0  0  0  0999 V2000
   -2.4150   23.2170  -29.2110 C   0  0  0  0  0  0  0  0  0  0  0  0
   -3.8180   23.1610  -28.6730 C   0  0  0  0  0  0  0  0  0  0  0  0
   -4.6540   24.1970  -29.1140 O   0  0  0  0  0  0  0  0  0  0  0  0
   -5.1950   24.3270  -30.3720 C   0  0  0  0  0  0  0  0  0  0  0  0
   -4.6180   25.1050  -31.2120 O   0  0  0  0  0  0  0  0  0  0  0  0
   -6.3850   23.6180  -30.7690 N   0  0  0  0  0  0  0  0  0  0  0  0
   -6.9880   22.7670  -29.7890 C   0  0  0  0  0  0  0  0  0  0  0  0
   -8.2690   22.1210  -30.1880 C   0  0  0  0  0  0  0  0  0  0  0  0
   -8.2410   21.8450  -31.7380 C   0  0  0  0  0  0  0  0  0  0  0  0
   -9.4300   21.0260  -32.0210 C   0  0  0  0  0  0  0  0  0  0  0  0
   -9.2860   19.5740  -32.3230 C   0  0  0  0  0  0  0  0  0  0  0  0
   -8.7260   18.8220  -31.2560 N   0  0  0  0  0  0  0  0  0  0  0  0
   -7.6910   17.8480  -31.7380 C   0  0  0  0  0  0  0  0  0  0  0  0
   -6.5110   18.6030  -32.1200 C   0  0  0  0  0  0  0  0  0  0  0  0
   -6.1350   19.8340  -31.6280 C   0  0  0  0  0  0  0  0  0  0  0  0
   -4.9920   20.4750  -32.0600 C   0  0  0  0  0  0  0  0  0  0  0  0
   -4.1570   19.9410  -32.9950 C   0  0  0  0  0  0  0  0  0  0  0  0
   -3.0050   20.5060  -33.4830 O   0  0  0  0  0  0  0  0  0  0  0  0
   -2.3470   21.5460  -32.7980 C   0  0  0  0  0  0  0  0  0  0  0  0
   -1.4190   21.0440  -31.7180 C   0  0  0  0  0  0  0  0  0  0  0  0
   -4.5210   18.6900  -33.5090 C   0  0  0  0  0  0  0  0  0  0  0  0
   -3.7010   18.0990  -34.4570 C   0  0  0  0  0  0  0  0  0  0  0  0
   -3.9760   16.8680  -35.0090 C   0  0  0  0  0  0  0  0  0  0  0  0
   -5.1090   16.2140  -34.5910 C   0  0  0  0  0  0  0  0  0  0  0  0
   -5.9280   16.8090  -33.6430 C   0  0  0  0  0  0  0  0  0  0  0  0
   -5.6620   18.0420  -33.0830 C   0  0  0  0  0  0  0  0  0  0  0  0
   -8.3120   23.2940  -32.2470 C   0  0  0  0  0  0  0  0  0  0  0  0
   -6.8900   23.8070  -32.1200 C   0  0  0  0  0  0  0  0  0  0  0  0
   -1.7021   23.2455  -28.3738 H   0  0  0  0  0  0  0  0  0  0  0  0
   -2.2224   22.3258  -29.8264 H   0  0  0  0  0  0  0  0  0  0  0  0
   -2.2941   24.1207  -29.8264 H   0  0  0  0  0  0  0  0  0  0  0  0
   -4.2655   22.2044  -28.9807 H   0  0  0  0  0  0  0  0  0  0  0  0
   -3.7378   23.2684  -27.5812 H   0  0  0  0  0  0  0  0  0  0  0  0
   -6.2696   21.9699  -29.5471 H   0  0  0  0  0  0  0  0  0  0  0  0
   -7.2362   23.4205  -28.9397 H   0  0  0  0  0  0  0  0  0  0  0  0
   -8.3879   21.1712  -29.6461 H   0  0  0  0  0  0  0  0  0  0  0  0
   -9.1122   22.7835  -29.9430 H   0  0  0  0  0  0  0  0  0  0  0  0
   -7.3957   21.3011  -32.1848 H   0  0  0  0  0  0  0  0  0  0  0  0
  -10.0841   21.1027  -31.1399 H   0  0  0  0  0  0  0  0  0  0  0  0
   -9.8017   21.4432  -32.9685 H   0  0  0  0  0  0  0  0  0  0  0  0
  -10.2820   19.1660  -32.5502 H   0  0  0  0  0  0  0  0  0  0  0  0
   -8.5940   19.4896  -33.1739 H   0  0  0  0  0  0  0  0  0  0  0  0
   -9.5150   18.1680  -30.8880 H   0  0  0  0  0  0  0  0  0  0  0  0
   -7.4386   17.1421  -30.9331 H   0  0  0  0  0  0  0  0  0  0  0  0
   -8.0738   17.2755  -32.5957 H   0  0  0  0  0  0  0  0  0  0  0  0
   -6.7647   20.3201  -30.8683 H   0  0  0  0  0  0  0  0  0  0  0  0
   -4.7447   21.4576  -31.6319 H   0  0  0  0  0  0  0  0  0  0  0  0
   -1.7590   22.1271  -33.5236 H   0  0  0  0  0  0  0  0  0  0  0  0
   -3.1187   22.1600  -32.3106 H   0  0  0  0  0  0  0  0  0  0  0  0
   -1.8461   21.2751  -30.7310 H   0  0  0  0  0  0  0  0  0  0  0  0
   -1.2947   19.9556  -31.8181 H   0  0  0  0  0  0  0  0  0  0  0  0
   -0.4401   21.5356  -31.8181 H   0  0  0  0  0  0  0  0  0  0  0  0
   -2.7959   18.6337  -34.7808 H   0  0  0  0  0  0  0  0  0  0  0  0
   -3.3089   16.4222  -35.7615 H   0  0  0  0  0  0  0  0  0  0  0  0
   -5.3646   15.2272  -35.0044 H   0  0  0  0  0  0  0  0  0  0  0  0
   -6.8330   16.2724  -33.3221 H   0  0  0  0  0  0  0  0  0  0  0  0
   -8.6443   23.3228  -33.2952 H   0  0  0  0  0  0  0  0  0  0  0  0
   -9.0306   23.9036  -31.6796 H   0  0  0  0  0  0  0  0  0  0  0  0
   -6.2462   23.2597  -32.8243 H   0  0  0  0  0  0  0  0  0  0  0  0
   -6.8845   24.8830  -32.3482 H   0  0  0  0  0  0  0  0  0  0  0  0
  1  2  1  0
  2  3  1  0
  3  4  1  0
  4  5  2  0
  4  6  1  0
  6  7  1  0
  7  8  1  0
  8  9  1  0
  9 10  1  0
 10 11  1  0
 11 12  1  0
 12 13  1  0
 13 14  1  0
 14 15  2  0
 15 16  1  0
 16 17  2  0
 17 18  1  0
 18 19  1  0
 19 20  1  0
 17 21  1  0
 21 22  2  0
 22 23  1  0
 23 24  2  0
 24 25  1  0
 25 26  2  0
  9 27  1  0
 27 28  1  0
 28  6  1  0
 26 14  1  0
 26 21  1  0
  1 29  1  0
  1 30  1  0
  1 31  1  0
  2 32  1  0
  2 33  1  0
  7 34  1  0
  7 35  1  0
  8 36  1  0
  8 37  1  0
  9 38  1  0
 10 39  1  0
 10 40  1  0
 11 41  1  0
 11 42  1  0
 12 43  1  0
 13 44  1  0
 13 45  1  0
 15 46  1  0
 16 47  1  0
 19 48  1  0
 19 49  1  0
 20 50  1  0
 20 51  1  0
 20 52  1  0
 22 53  1  0
 23 54  1  0
 24 55  1  0
 25 56  1  0
 27 57  1  0
 27 58  1  0
 28 59  1  0
 28 60  1  0
M  END
>  <smiles>  (17) 
CCOC(=O)N1CCC(CCNCc2ccc(OCC)c3ccccc23)CC1

>  <score_type>  (17) 
oracle

>  <origin>  (17) 
adg

>  <m_score__min__energy>  (17) 
-9.5700000000000003

>  <m_primary>  (17) 
energy

$$$$
18:0
     RDKit          3D

 42 44  0  0  0  0  0  0  0  0999 V2000
   -2.9590   21.1550  -33.4150 C   0  0  0  0  0  0  0  0  0  0  0  0
   -2.0510   21.9190  -32.7320 O   0  0  0  0  0  0  0  0  0  0  0  0
   -2.0240   21.7350  -31.3930 C   0  0  0  0  0  0  0  0  0  0  0  0
   -2.8180   22.6620  -30.5620 C   0  0  0  0  0  0  0  0  0  0  0  0
   -2.5830   22.9180  -29.2340 C   0  0  0  0  0  0  0  0  0  0  0  0
   -3.3860   23.7780  -28.5060 C   0  0  0  0  0  0  0  0  0  0  0  0
   -4.4590   24.4070  -29.1060 C   0  0  0  0  0  0  0  0  0  0  0  0
   -4.6820   24.1330  -30.4590 C   0  0  0  0  0  0  0  0  0  0  0  0
   -5.8390   24.8170  -31.0870 C   0  0  0  0  0  0  0  0  0  0  0  0
   -6.2990   24.1870  -32.2830 N   0  0  0  0  0  0  0  0  0  0  0  0
   -7.5060   23.4130  -32.0750 C   0  0  0  0  0  0  0  0  0  0  0  0
   -7.2410   21.9470  -32.2940 C   0  0  0  0  0  0  0  0  0  0  0  0
   -6.1030   21.3660  -32.7180 N   0  0  0  0  0  0  0  0  0  0  0  0
   -6.2740   20.0230  -32.7840 C   0  0  0  0  0  0  0  0  0  0  0  0
   -5.4890   18.9490  -33.1370 C   0  0  0  0  0  0  0  0  0  0  0  0
   -5.9450   17.6380  -33.1070 C   0  0  0  0  0  0  0  0  0  0  0  0
   -7.2490   17.4090  -32.7010 C   0  0  0  0  0  0  0  0  0  0  0  0
   -8.0660   18.4810  -32.3370 C   0  0  0  0  0  0  0  0  0  0  0  0
   -7.5750   19.7890  -32.3800 C   0  0  0  0  0  0  0  0  0  0  0  0
   -8.1570   20.9630  -32.0840 N   0  0  0  0  0  0  0  0  0  0  0  0
   -9.5290   21.1200  -31.6210 C   0  0  0  0  0  0  0  0  0  0  0  0
   -3.8720   23.2880  -31.1250 N   0  0  0  0  0  0  0  0  0  0  0  0
   -3.5980   20.6173  -32.6991 H   0  0  0  0  0  0  0  0  0  0  0  0
   -3.5825   21.8042  -34.0473 H   0  0  0  0  0  0  0  0  0  0  0  0
   -2.4260   20.4297  -34.0473 H   0  0  0  0  0  0  0  0  0  0  0  0
   -2.3898   20.7171  -31.1927 H   0  0  0  0  0  0  0  0  0  0  0  0
   -0.9795   21.9244  -31.1048 H   0  0  0  0  0  0  0  0  0  0  0  0
   -1.7343   22.4267  -28.7357 H   0  0  0  0  0  0  0  0  0  0  0  0
   -3.1685   23.9617  -27.4435 H   0  0  0  0  0  0  0  0  0  0  0  0
   -5.1097   25.0934  -28.5443 H   0  0  0  0  0  0  0  0  0  0  0  0
   -6.6670   24.8341  -30.3630 H   0  0  0  0  0  0  0  0  0  0  0  0
   -5.5030   25.8269  -31.3647 H   0  0  0  0  0  0  0  0  0  0  0  0
   -5.5640   23.5050  -32.5700 H   0  0  0  0  0  0  0  0  0  0  0  0
   -7.8605   23.5662  -31.0450 H   0  0  0  0  0  0  0  0  0  0  0  0
   -8.2688   23.7463  -32.7940 H   0  0  0  0  0  0  0  0  0  0  0  0
   -4.4537   19.1378  -33.4573 H   0  0  0  0  0  0  0  0  0  0  0  0
   -5.2888   16.8044  -33.3976 H   0  0  0  0  0  0  0  0  0  0  0  0
   -7.6413   16.3820  -32.6653 H   0  0  0  0  0  0  0  0  0  0  0  0
   -9.1012   18.2954  -32.0148 H   0  0  0  0  0  0  0  0  0  0  0  0
   -9.5469   21.1220  -30.5211 H   0  0  0  0  0  0  0  0  0  0  0  0
   -9.9361   22.0706  -31.9961 H   0  0  0  0  0  0  0  0  0  0  0  0
  -10.1403   20.2859  -31.9961 H   0  0  0  0  0  0  0  0  0  0  0  0
  1  2  1  0
  2  3  1  0
  3  4  1  0
  4  5  2  0
  5  6  1  0
  6  7  2  0
  7  8  1  0
  8  9  1  0
  9 10  1  0
 10 11  1  0
 11 12  1  0
 12 13  2  0
 13 14  1  0
 14 15  2  0
 15 16  1  0
 16 17  2  0
 17 18  1  0
 18 19  2  0
 19 20  1  0
 20 21  1  0
  8 22  2  0
 22  4  1  0
 20 12  1  0
 19 14  1  0
  1 23  1  0
  1 24  1  0
  1 25  1  0
  3 26  1  0
  3 27  1  0
  5 28  1  0
  6 29  1  0
  7 30  1  0
  9 31  1  0
  9 32  1  0
 10 33  1  0
 11 34  1  0
 11 35  1  0
 15 36  1  0
 16 37  1  0
 17 38  1  0
 18 39  1  0
 21 40  1  0
 21 41  1  0
 21 42  1  0
M  END
>  <smiles>  (18) 
COCc1cccc(CNCc2nc3ccccc3n2C)n1

>  <score_type>  (18) 
oracle

>  <origin>  (18) 
adg

>  <m_score__min__energy>  (18) 
-8

>  <m_primary>  (18) 
energy

$$$$
19:0
     RDKit          3D

 57 59  0  0  0  0  0  0  0  0999 V2000
   -3.6700   24.1370  -28.0430 C   0  0  0  0  0  0  0  0  0  0  0  0
   -3.1290   24.5450  -29.4000 C   0  0  0  0  0  0  0  0  0  0  0  0
   -4.1850   24.2240  -30.3560 N   0  0  0  0  0  0  0  0  0  0  0  0
   -5.0700   25.3520  -30.5430 C   0  0  0  0  0  0  0  0  0  0  0  0
   -6.3690   25.2260  -29.8210 C   0  0  0  0  0  0  0  0  0  0  0  0
   -4.8880   23.0220  -29.9700 C   0  0  0  0  0  0  0  0  0  0  0  0
   -4.2430   21.8610  -30.6960 C   0  0  0  0  0  0  0  0  0  0  0  0
   -3.6100   22.4210  -31.9440 C   0  0  0  0  0  0  0  0  0  0  0  0
   -4.5400   22.2300  -33.0820 N   0  0  0  0  0  0  0  0  0  0  0  0
   -5.3990   21.1050  -32.9480 C   0  0  0  0  0  0  0  0  0  0  0  0
   -6.6850   21.4200  -32.5050 C   0  0  0  0  0  0  0  0  0  0  0  0
   -7.0530   22.7370  -32.2670 C   0  0  0  0  0  0  0  0  0  0  0  0
   -8.2990   23.1110  -31.8310 C   0  0  0  0  0  0  0  0  0  0  0  0
   -9.2310   22.1230  -31.6180 C   0  0  0  0  0  0  0  0  0  0  0  0
   -8.8820   20.8100  -31.8510 C   0  0  0  0  0  0  0  0  0  0  0  0
   -7.6090   20.4460  -32.2950 C   0  0  0  0  0  0  0  0  0  0  0  0
   -7.3030   19.1290  -32.5120 N   0  0  0  0  0  0  0  0  0  0  0  0
   -8.3610   18.2050  -32.2620 C   0  0  0  0  0  0  0  0  0  0  0  0
   -6.0660   18.8310  -32.9380 C   0  0  0  0  0  0  0  0  0  0  0  0
   -5.7810   17.4970  -33.1400 C   0  0  0  0  0  0  0  0  0  0  0  0
   -4.5190   17.1520  -33.5720 C   0  0  0  0  0  0  0  0  0  0  0  0
   -3.5810   18.1290  -33.7920 C   0  0  0  0  0  0  0  0  0  0  0  0
   -3.8250   19.4920  -33.6000 C   0  0  0  0  0  0  0  0  0  0  0  0
   -2.7990   20.3850  -33.9260 N   0  0  0  0  0  0  0  0  0  0  0  0
   -1.4800   20.1490  -33.2800 C   0  0  0  0  0  0  0  0  0  0  0  0
   -5.0890   19.8090  -33.1660 C   0  0  0  0  0  0  0  0  0  0  0  0
   -3.0600   24.5970  -27.2516 H   0  0  0  0  0  0  0  0  0  0  0  0
   -4.7120   24.4761  -27.9466 H   0  0  0  0  0  0  0  0  0  0  0  0
   -3.6304   23.0419  -27.9466 H   0  0  0  0  0  0  0  0  0  0  0  0
   -2.9095   25.6227  -29.4177 H   0  0  0  0  0  0  0  0  0  0  0  0
   -2.1911   24.0220  -29.6385 H   0  0  0  0  0  0  0  0  0  0  0  0
   -4.5592   26.2568  -30.1819 H   0  0  0  0  0  0  0  0  0  0  0  0
   -5.3043   25.4000  -31.6167 H   0  0  0  0  0  0  0  0  0  0  0  0
   -6.1887   25.2435  -28.7360 H   0  0  0  0  0  0  0  0  0  0  0  0
   -7.0249   26.0647  -30.0972 H   0  0  0  0  0  0  0  0  0  0  0  0
   -6.8515   24.2768  -30.0972 H   0  0  0  0  0  0  0  0  0  0  0  0
   -4.8097   22.8745  -28.8827 H   0  0  0  0  0  0  0  0  0  0  0  0
   -5.9538   23.0970  -30.2318 H   0  0  0  0  0  0  0  0  0  0  0  0
   -3.4762   21.3958  -30.0591 H   0  0  0  0  0  0  0  0  0  0  0  0
   -4.9873   21.0901  -30.9444 H   0  0  0  0  0  0  0  0  0  0  0  0
   -3.4099   23.4939  -31.8069 H   0  0  0  0  0  0  0  0  0  0  0  0
   -2.6621   21.9009  -32.1464 H   0  0  0  0  0  0  0  0  0  0  0  0
   -4.5660   22.8940  -33.8850 H   0  0  0  0  0  0  0  0  0  0  0  0
   -6.3042   23.5245  -32.4374 H   0  0  0  0  0  0  0  0  0  0  0  0
   -8.5447   24.1690  -31.6572 H   0  0  0  0  0  0  0  0  0  0  0  0
  -10.2418   22.3769  -31.2663 H   0  0  0  0  0  0  0  0  0  0  0  0
   -9.6312   20.0226  -31.6815 H   0  0  0  0  0  0  0  0  0  0  0  0
   -8.4960   18.0871  -31.1767 H   0  0  0  0  0  0  0  0  0  0  0  0
   -9.2921   18.5842  -32.7083 H   0  0  0  0  0  0  0  0  0  0  0  0
   -8.1105   17.2313  -32.7083 H   0  0  0  0  0  0  0  0  0  0  0  0
   -6.5442   16.7255  -32.9602 H   0  0  0  0  0  0  0  0  0  0  0  0
   -4.2639   16.0953  -33.7402 H   0  0  0  0  0  0  0  0  0  0  0  0
   -2.5828   17.8231  -34.1383 H   0  0  0  0  0  0  0  0  0  0  0  0
   -2.7590   21.1830  -34.5570 H   0  0  0  0  0  0  0  0  0  0  0  0
   -1.5982   20.1702  -32.1866 H   0  0  0  0  0  0  0  0  0  0  0  0
   -1.0914   19.1671  -33.5879 H   0  0  0  0  0  0  0  0  0  0  0  0
   -0.7750   20.9353  -33.5879 H   0  0  0  0  0  0  0  0  0  0  0  0
  1  2  1  0
  2  3  1  0
  3  4  1  0
  4  5  1  0
  3  6  1  0
  6  7  1  0
  7  8  1  0
  8  9  1  0
  9 10  1  0
 10 11  2  0
 11 12  1  0
 12 13  2  0
 13 14  1  0
 14 15  2  0
 15 16  1  0
 16 17  2  0
 17 18  1  0
 17 19  1  0
 19 20  2  0
 20 21  1  0
 21 22  2  0
 22 23  1  0
 23 24  1  0
 24 25  1  0
 23 26  2  0
 26 10  1  0
 16 11  1  0
 26 19  1  0
  1 27  1  0
  1 28  1  0
  1 29  1  0
  2 30  1  0
  2 31  1  0
  4 32  1  0
  4 33  1  0
  5 34  1  0
  5 35  1  0
  5 36  1  0
  6 37  1  0
  6 38  1  0
  7 39  1  0
  7 40  1  0
  8 41  1  0
  8 42  1  0
  9 43  1  0
 12 44  1  0
 13 45  1  0
 14 46  1  0
 15 47  1  0
 18 48  1  0
 18 49  1  0
 18 50  1  0
 20 51  1  0
 21 52  1  0
 22 53  1  0
 24 54  1  0
 25 55  1  0
 25 56  1  0
 25 57  1  0
M  CHG  1  17   1
M  END
>  <smiles>  (19) 
CCN(CC)CCCNc1c2ccccc2[n+](C)c2cccc(NC)c12

>  <score_type>  (19) 
oracle

>  <origin>  (19) 
adg

>  <m_score__min__energy>  (19) 
-8.8000000000000007

>  <m_primary>  (19) 
energy

$$$$
