0:0
     RDKit          3D

 26 27  0  0  0  0  0  0  0  0999 V2000
   -5.3580   25.6740  -30.4680 C   0  0  0  0  0  0  0  0  0  0  0  0
   -5.7970   24.3130  -30.9060 C   0  0  0  0  0  0  0  0  0  0  0  0
   -7.0060   23.7730  -30.4410 C   0  0  0  0  0  0  0  0  0  0  0  0
   -7.3820   22.4860  -30.8470 C   0  0  0  0  0  0  0  0  0  0  0  0
   -8.4570   22.0010  -30.4070 O   0  0  0  0  0  0  0  0  0  0  0  0
   -6.5660   21.7850  -31.6990 N   0  0  0  0  0  0  0  0  0  0  0  0
   -6.7270   20.5150  -32.2340 C   0  0  0  0  0  0  0  0  0  0  0  0
   -7.9230   19.6170  -31.9510 C   0  0  0  0  0  0  0  0  0  0  0  0
   -9.1830   20.0490  -32.7180 C   0  0  0  0  0  0  0  0  0  0  0  0
   -7.5770   18.1610  -32.2740 C   0  0  0  0  0  0  0  0  0  0  0  0
   -5.6850   20.0750  -33.0050 N   0  0  0  0  0  0  0  0  0  0  0  0
   -4.5540   21.2910  -33.0720 S   0  0  0  0  0  0  0  0  0  0  0  0
   -5.3960   22.3400  -32.1060 C   0  0  0  0  0  0  0  0  0  0  0  0
   -4.9990   23.5780  -31.7270 N   0  0  0  0  0  0  0  0  0  0  0  0
   -5.3436   25.7186  -29.3690 H   0  0  0  0  0  0  0  0  0  0  0  0
   -4.3490   25.8765  -30.8564 H   0  0  0  0  0  0  0  0  0  0  0  0
   -6.0585   26.4279  -30.8564 H   0  0  0  0  0  0  0  0  0  0  0  0
   -7.6511   24.3538  -29.7653 H   0  0  0  0  0  0  0  0  0  0  0  0
   -8.1526   19.7127  -30.8795 H   0  0  0  0  0  0  0  0  0  0  0  0
   -9.9731   20.3199  -32.0022 H   0  0  0  0  0  0  0  0  0  0  0  0
   -8.9475   20.9177  -33.3503 H   0  0  0  0  0  0  0  0  0  0  0  0
   -9.5301   19.2185  -33.3503 H   0  0  0  0  0  0  0  0  0  0  0  0
   -7.4436   17.5994  -31.3376 H   0  0  0  0  0  0  0  0  0  0  0  0
   -8.3932   17.7111  -32.8582 H   0  0  0  0  0  0  0  0  0  0  0  0
   -6.6456   18.1264  -32.8582 H   0  0  0  0  0  0  0  0  0  0  0  0
   -5.5880   19.1480  -33.4710 H   0  0  0  0  0  0  0  0  0  0  0  0
  1  2  1  0
  2  3  2  0
  3  4  1  0
  4  5  2  0
  4  6  1  0
  6  7  1  0
  7  8  1  0
  8  9  1  0
  8 10  1  0
  7 11  2  0
 11 12  1  0
 12 13  1  0
 13 14  2  0
 14  2  1  0
 13  6  1  0
  1 15  1  0
  1 16  1  0
  1 17  1  0
  3 18  1  0
  8 19  1  0
  9 20  1  0
  9 21  1  0
  9 22  1  0
 10 23  1  0
 10 24  1  0
 10 25  1  0
 11 26  1  0
M  CHG  1  11   1
M  END
>  <UniqueID>  (1) 
1

>  <SMILES>  (1) 
Cc1cc(=O)n2c(C(C)C)[nH+]sc2n1

>  <Energy>  (1) 
69.28002535948781

>  <Genealogy>  (1) 
Cc1cc(=O)n2c(C(C)C)[nH+]sc2n1 (protonated)
Cc1cc(=O)n2c(C(C)C)[nH+]sc2n1 (3D coordinates assigned)
Cc1cc(=O)n2c(C(C)C)[nH+]sc2n1 (optimized conformer: 69.28002535948781 kcal/mol)

>  <smiles>  (1) 
Cc1cc(=O)n2c(C(C)C)nsc2n1

>  <score_type>  (1) 
oracle

>  <origin>  (1) 
adg

>  <m_score__min__energy>  (1) 
-5.6600000000000001

>  <m_primary>  (1) 
energy

$$$$
1:0
     RDKit          3D

 34 35  0  0  0  0  0  0  0  0999 V2000
   -6.5670   15.9370  -33.8270 C   0  0  0  0  0  0  0  0  0  0  0  0
   -6.2910   17.4210  -34.0380 C   0  0  0  0  0  0  0  0  0  0  0  0
   -7.1110   18.2220  -33.1340 N   0  0  0  0  0  0  0  0  0  0  0  0
   -7.7740   17.7850  -32.0430 C   0  0  0  0  0  0  0  0  0  0  0  0
   -8.3640   18.7990  -31.3810 N   0  0  0  0  0  0  0  0  0  0  0  0
   -8.0480   19.9050  -32.0780 C   0  0  0  0  0  0  0  0  0  0  0  0
   -8.5190   21.5350  -31.6320 S   0  0  0  0  0  0  0  0  0  0  0  0
   -9.7960   21.8860  -32.3420 O   0  0  0  0  0  0  0  0  0  0  0  0
   -8.7430   21.6010  -30.1460 O   0  0  0  0  0  0  0  0  0  0  0  0
   -7.2610   22.6580  -32.0920 N   0  0  0  0  0  0  0  0  0  0  0  0
   -5.9450   22.0000  -32.1010 C   0  0  0  0  0  0  0  0  0  0  0  0
   -4.9550   22.9630  -31.4780 C   0  0  0  0  0  0  0  0  0  0  0  0
   -5.8020   23.7570  -30.5050 C   0  0  1  0  0  0  0  0  0  0  0  0
   -5.2470   25.1290  -30.2280 C   0  0  0  0  0  0  0  0  0  0  0  0
   -3.8640   25.3910  -30.4550 N   0  0  0  0  0  0  0  0  0  0  0  0
   -5.9930   26.0470  -29.7950 O   0  0  0  0  0  0  0  0  0  0  0  0
   -7.1830   23.7880  -31.1540 C   0  0  0  0  0  0  0  0  0  0  0  0
   -7.2690   19.5590  -33.1600 C   0  0  0  0  0  0  0  0  0  0  0  0
   -6.6071   15.7211  -32.7491 H   0  0  0  0  0  0  0  0  0  0  0  0
   -7.5295   15.6736  -34.2898 H   0  0  0  0  0  0  0  0  0  0  0  0
   -5.7635   15.3452  -34.2898 H   0  0  0  0  0  0  0  0  0  0  0  0
   -5.2282   17.6242  -33.8401 H   0  0  0  0  0  0  0  0  0  0  0  0
   -6.5384   17.6871  -35.0763 H   0  0  0  0  0  0  0  0  0  0  0  0
   -7.8262   16.7310  -31.7326 H   0  0  0  0  0  0  0  0  0  0  0  0
   -8.9270   18.7370  -30.5040 H   0  0  0  0  0  0  0  0  0  0  0  0
   -5.9852   21.0700  -31.5149 H   0  0  0  0  0  0  0  0  0  0  0  0
   -5.6451   21.7435  -33.1278 H   0  0  0  0  0  0  0  0  0  0  0  0
   -4.1557   22.4203  -30.9521 H   0  0  0  0  0  0  0  0  0  0  0  0
   -4.4465   23.5959  -32.2202 H   0  0  0  0  0  0  0  0  0  0  0  0
   -5.8279   23.2966  -29.5063 H   0  0  0  0  0  0  0  0  0  0  0  0
   -3.5560   25.9980  -31.2460 H   0  0  0  0  0  0  0  0  0  0  0  0
   -7.9616   23.6897  -30.3832 H   0  0  0  0  0  0  0  0  0  0  0  0
   -7.3391   24.7397  -31.6831 H   0  0  0  0  0  0  0  0  0  0  0  0
   -6.8521   20.2488  -33.9086 H   0  0  0  0  0  0  0  0  0  0  0  0
  1  2  1  0
  2  3  1  0
  3  4  1  0
  4  5  2  0
  5  6  1  0
  6  7  1  0
  7  8  2  0
  7  9  2  0
  7 10  1  0
 10 11  1  0
 11 12  1  0
 12 13  1  0
 13 14  1  0
 14 15  1  0
 14 16  2  0
 13 17  1  0
  6 18  2  0
 18  3  1  0
 17 10  1  0
  1 19  1  0
  1 20  1  0
  1 21  1  0
  2 22  1  0
  2 23  1  0
  4 24  1  0
  5 25  1  0
 11 26  1  0
 11 27  1  0
 12 28  1  0
 12 29  1  0
 13 30  1  1
 15 31  1  0
 17 32  1  0
 17 33  1  0
 18 34  1  0
M  CHG  2   5   1  15  -1
M  END
>  <UniqueID>  (2) 
2

>  <SMILES>  (2) 
CCn1c[nH+]c(S(=O)(=O)N2CC[C@@H](C([NH-])=O)C2)c1

>  <Energy>  (2) 
60.5495586887373

>  <Genealogy>  (2) 
CCn1c[nH+]c(S(=O)(=O)N2CCC(C([NH-])=O)C2)c1 (protonated)
CCn1c[nH+]c(S(=O)(=O)N2CC[C@@H](C([NH-])=O)C2)c1 (chirality)
CCn1c[nH+]c(S(=O)(=O)N2CC[C@@H](C([NH-])=O)C2)c1 (3D coordinates assigned)
CCn1c[nH+]c(S(=O)(=O)N2CC[C@@H](C([NH-])=O)C2)c1 (nonaromatic ring conformer: 60.5495586887373 kcal/mol)

>  <smiles>  (2) 
CCn1cnc(S(=O)(=O)N2CCC(C(N)=O)C2)c1

>  <score_type>  (2) 
oracle

>  <origin>  (2) 
adg

>  <m_score__min__energy>  (2) 
-9.6600000000000001

>  <m_primary>  (2) 
energy

$$$$
2:0
     RDKit          3D

 53 57  0  0  0  0  0  0  0  0999 V2000
   -3.1210   24.2790  -29.6850 C   0  0  0  0  0  0  0  0  0  0  0  0
   -3.9940   23.9800  -30.8320 N   0  0  0  0  0  0  0  0  0  0  0  0
   -5.2660   24.7090  -30.6760 C   0  0  0  0  0  0  0  0  0  0  0  0
   -4.2170   22.5190  -30.9240 C   0  0  0  0  0  0  0  0  0  0  0  0
   -3.6390   21.9160  -32.2210 C   0  0  0  0  0  0  0  0  0  0  0  0
   -4.6130   21.8770  -33.3300 N   0  0  0  0  0  0  0  0  0  0  0  0
   -5.7000   20.9370  -33.0680 C   0  0  0  0  0  0  0  0  0  0  0  0
   -6.9480   21.4160  -32.5710 C   0  0  0  0  0  0  0  0  0  0  0  0
   -7.1930   22.8010  -32.3710 C   0  0  0  0  0  0  0  0  0  0  0  0
   -8.4380   23.2610  -31.9530 C   0  0  0  0  0  0  0  0  0  0  0  0
   -9.4720   22.3660  -31.7300 C   0  0  0  0  0  0  0  0  0  0  0  0
   -9.2540   21.0010  -31.8830 C   0  0  0  0  0  0  0  0  0  0  0  0
   -7.9840   20.4940  -32.2610 C   0  0  0  0  0  0  0  0  0  0  0  0
   -7.7510   19.1390  -32.3320 N   0  0  0  0  0  0  0  0  0  0  0  0
   -8.6870   18.1970  -31.6730 C   0  0  0  0  0  0  0  0  0  0  0  0
   -6.6320   18.6580  -32.9790 C   0  0  0  0  0  0  0  0  0  0  0  0
   -6.5320   17.2860  -33.3280 C   0  0  0  0  0  0  0  0  0  0  0  0
   -5.3780   16.7600  -33.9050 C   0  0  0  0  0  0  0  0  0  0  0  0
   -5.2920   15.3830  -34.2130 C   0  0  0  0  0  0  0  0  0  0  0  0
   -4.1080   14.9130  -34.7740 C   0  0  0  0  0  0  0  0  0  0  0  0
   -3.0590   15.7320  -35.0300 C   0  0  0  0  0  0  0  0  0  0  0  0
   -3.1000   17.0940  -34.7500 C   0  0  0  0  0  0  0  0  0  0  0  0
   -4.2830   17.6180  -34.1800 C   0  0  0  0  0  0  0  0  0  0  0  0
   -4.3900   18.9830  -33.8990 C   0  0  0  0  0  0  0  0  0  0  0  0
   -5.5620   19.5380  -33.3190 C   0  0  0  0  0  0  0  0  0  0  0  0
   -2.0260   15.0000  -35.5810 O   0  0  0  0  0  0  0  0  0  0  0  0
   -2.4540   13.6340  -35.6780 C   0  0  0  0  0  0  0  0  0  0  0  0
   -3.7900   13.6240  -35.1510 O   0  0  0  0  0  0  0  0  0  0  0  0
   -3.6680   24.0916  -28.7492 H   0  0  0  0  0  0  0  0  0  0  0  0
   -2.2303   23.6347  -29.7244 H   0  0  0  0  0  0  0  0  0  0  0  0
   -2.8123   25.3341  -29.7244 H   0  0  0  0  0  0  0  0  0  0  0  0
   -5.4871   24.8357  -29.6059 H   0  0  0  0  0  0  0  0  0  0  0  0
   -5.1833   25.6968  -31.1528 H   0  0  0  0  0  0  0  0  0  0  0  0
   -6.0765   24.1383  -31.1528 H   0  0  0  0  0  0  0  0  0  0  0  0
   -3.7346   22.0332  -30.0631 H   0  0  0  0  0  0  0  0  0  0  0  0
   -5.3032   22.3453  -30.9286 H   0  0  0  0  0  0  0  0  0  0  0  0
   -2.7767   22.5228  -32.5345 H   0  0  0  0  0  0  0  0  0  0  0  0
   -3.3549   20.8767  -31.9994 H   0  0  0  0  0  0  0  0  0  0  0  0
   -4.1230   21.7240  -34.2320 H   0  0  0  0  0  0  0  0  0  0  0  0
   -5.0040   22.8320  -33.4770 H   0  0  0  0  0  0  0  0  0  0  0  0
   -6.3831   23.5235  -32.5500 H   0  0  0  0  0  0  0  0  0  0  0  0
   -8.6017   24.3378  -31.7992 H   0  0  0  0  0  0  0  0  0  0  0  0
  -10.4646   22.7349  -31.4322 H   0  0  0  0  0  0  0  0  0  0  0  0
  -10.0833   20.3000  -31.7073 H   0  0  0  0  0  0  0  0  0  0  0  0
   -8.5936   18.2910  -30.5810 H   0  0  0  0  0  0  0  0  0  0  0  0
   -9.7181   18.4336  -31.9745 H   0  0  0  0  0  0  0  0  0  0  0  0
   -8.4439   17.1674  -31.9745 H   0  0  0  0  0  0  0  0  0  0  0  0
   -7.3873   16.6209  -33.1381 H   0  0  0  0  0  0  0  0  0  0  0  0
   -6.1346   14.7040  -34.0155 H   0  0  0  0  0  0  0  0  0  0  0  0
   -2.2386   17.7433  -34.9654 H   0  0  0  0  0  0  0  0  0  0  0  0
   -3.5437   19.6455  -34.1333 H   0  0  0  0  0  0  0  0  0  0  0  0
   -2.4496   13.3011  -36.7264 H   0  0  0  0  0  0  0  0  0  0  0  0
   -1.7881   12.9527  -35.1281 H   0  0  0  0  0  0  0  0  0  0  0  0
  1  2  1  0
  2  3  1  0
  2  4  1  0
  4  5  1  0
  5  6  1  0
  6  7  1  0
  7  8  2  0
  8  9  1  0
  9 10  2  0
 10 11  1  0
 11 12  2  0
 12 13  1  0
 13 14  2  0
 14 15  1  0
 14 16  1  0
 16 17  2  0
 17 18  1  0
 18 19  2  0
 19 20  1  0
 20 21  2  0
 21 22  1  0
 22 23  2  0
 23 24  1  0
 24 25  2  0
 21 26  1  0
 26 27  1  0
 27 28  1  0
 25  7  1  0
 13  8  1  0
 25 16  1  0
 23 18  1  0
 28 20  1  0
  1 29  1  0
  1 30  1  0
  1 31  1  0
  3 32  1  0
  3 33  1  0
  3 34  1  0
  4 35  1  0
  4 36  1  0
  5 37  1  0
  5 38  1  0
  6 39  1  0
  6 40  1  0
  9 41  1  0
 10 42  1  0
 11 43  1  0
 12 44  1  0
 15 45  1  0
 15 46  1  0
 15 47  1  0
 17 48  1  0
 19 49  1  0
 22 50  1  0
 24 51  1  0
 27 52  1  0
 27 53  1  0
M  CHG  2   6   1  14   1
M  END
>  <UniqueID>  (3) 
3

>  <SMILES>  (3) 
CN(C)CC[NH2+]c1c2ccccc2[n+](C)c2cc3cc4c(cc3cc12)OCO4

>  <Energy>  (3) 
118.78921122767122

>  <Genealogy>  (3) 
CN(C)CC[NH2+]c1c2ccccc2[n+](C)c2cc3cc4c(cc3cc12)OCO4 (protonated)
CN(C)CC[NH2+]c1c2ccccc2[n+](C)c2cc3cc4c(cc3cc12)OCO4 (3D coordinates assigned)
CN(C)CC[NH2+]c1c2ccccc2[n+](C)c2cc3cc4c(cc3cc12)OCO4 (nonaromatic ring conformer: 118.78921122767122 kcal/mol)

>  <smiles>  (3) 
CN(C)CCNc1c2ccccc2[n+](C)c2cc3cc4c(cc3cc12)OCO4

>  <score_type>  (3) 
oracle

>  <origin>  (3) 
adg

>  <m_score__min__energy>  (3) 
-8.4900000000000002

>  <m_primary>  (3) 
energy

$$$$
3:0
     RDKit          3D

 52 54  0  0  0  0  0  0  0  0999 V2000
   -5.7530   17.8330  -34.3260 C   0  0  0  0  0  0  0  0  0  0  0  0
   -6.8930   17.3060  -33.4630 C   0  0  0  0  0  0  0  0  0  0  0  0
   -7.0210   18.1270  -32.2350 N   0  0  0  0  0  0  0  0  0  0  0  0
   -6.1220   17.6270  -31.1800 C   0  0  0  0  0  0  0  0  0  0  0  0
   -8.4200   18.1860  -31.7490 C   0  0  0  0  0  0  0  0  0  0  0  0
   -9.2050   19.2400  -32.5290 C   0  0  0  0  0  0  0  0  0  0  0  0
   -8.6890   20.5380  -32.2590 O   0  0  0  0  0  0  0  0  0  0  0  0
   -7.4350   20.9700  -32.6990 C   0  0  0  0  0  0  0  0  0  0  0  0
   -6.9600   20.5340  -33.7840 O   0  0  0  0  0  0  0  0  0  0  0  0
   -6.6980   22.0000  -31.9310 C   0  0  0  0  0  0  0  0  0  0  0  0
   -7.4460   22.9010  -31.1590 C   0  0  0  0  0  0  0  0  0  0  0  0
   -6.8200   23.8250  -30.3240 C   0  0  0  0  0  0  0  0  0  0  0  0
   -5.4190   23.8810  -30.2330 C   0  0  0  0  0  0  0  0  0  0  0  0
   -4.7690   24.8250  -29.3530 N   0  0  0  0  0  0  0  0  0  0  0  0
   -4.3390   24.4920  -27.9920 C   0  0  0  0  0  0  0  0  0  0  0  0
   -3.3040   23.3930  -28.0120 C   0  0  0  0  0  0  0  0  0  0  0  0
   -3.7080   22.0580  -27.8380 C   0  0  0  0  0  0  0  0  0  0  0  0
   -2.7710   21.0230  -27.8790 C   0  0  0  0  0  0  0  0  0  0  0  0
   -1.4230   21.3080  -28.1050 C   0  0  0  0  0  0  0  0  0  0  0  0
   -1.0090   22.6290  -28.2960 C   0  0  0  0  0  0  0  0  0  0  0  0
   -1.9420   23.6730  -28.2560 C   0  0  0  0  0  0  0  0  0  0  0  0
   -1.3700   25.3160  -28.5300 Cl  0  0  0  0  0  0  0  0  0  0  0  0
   -4.6500   23.0040  -31.0260 C   0  0  0  0  0  0  0  0  0  0  0  0
   -3.2890   23.0580  -30.9720 N   0  0  0  0  0  0  0  0  0  0  0  0
   -2.4980   22.2630  -31.7340 C   0  0  0  0  0  0  0  0  0  0  0  0
   -3.0700   21.3650  -32.6300 C   0  0  0  0  0  0  0  0  0  0  0  0
   -4.4590   21.2770  -32.7200 C   0  0  0  0  0  0  0  0  0  0  0  0
   -5.2810   22.0720  -31.8940 C   0  0  0  0  0  0  0  0  0  0  0  0
   -4.9456   18.2063  -33.6789 H   0  0  0  0  0  0  0  0  0  0  0  0
   -5.3684   17.0213  -34.9610 H   0  0  0  0  0  0  0  0  0  0  0  0
   -6.1221   18.6518  -34.9610 H   0  0  0  0  0  0  0  0  0  0  0  0
   -7.8329   17.3534  -34.0325 H   0  0  0  0  0  0  0  0  0  0  0  0
   -6.6801   16.2645  -33.1804 H   0  0  0  0  0  0  0  0  0  0  0  0
   -6.5472   17.8635  -30.1935 H   0  0  0  0  0  0  0  0  0  0  0  0
   -6.0104   16.5372  -31.2795 H   0  0  0  0  0  0  0  0  0  0  0  0
   -5.1373   18.1070  -31.2795 H   0  0  0  0  0  0  0  0  0  0  0  0
   -8.8945   17.2033  -31.8872 H   0  0  0  0  0  0  0  0  0  0  0  0
   -8.4187   18.4554  -30.6825 H   0  0  0  0  0  0  0  0  0  0  0  0
   -9.1206   19.0324  -33.6059 H   0  0  0  0  0  0  0  0  0  0  0  0
  -10.2601   19.2024  -32.2203 H   0  0  0  0  0  0  0  0  0  0  0  0
   -8.5444   22.8781  -31.2134 H   0  0  0  0  0  0  0  0  0  0  0  0
   -7.4308   24.5195  -29.7285 H   0  0  0  0  0  0  0  0  0  0  0  0
   -4.5970   25.7980  -29.6970 H   0  0  0  0  0  0  0  0  0  0  0  0
   -3.9061   25.3869  -27.5212 H   0  0  0  0  0  0  0  0  0  0  0  0
   -5.2124   24.1442  -27.4208 H   0  0  0  0  0  0  0  0  0  0  0  0
   -4.7699   21.8267  -27.6683 H   0  0  0  0  0  0  0  0  0  0  0  0
   -3.0955   19.9821  -27.7331 H   0  0  0  0  0  0  0  0  0  0  0  0
   -0.6860   20.4918  -28.1327 H   0  0  0  0  0  0  0  0  0  0  0  0
    0.0531   22.8497  -28.4784 H   0  0  0  0  0  0  0  0  0  0  0  0
   -1.4036   22.3279  -31.6439 H   0  0  0  0  0  0  0  0  0  0  0  0
   -2.4320   20.7298  -33.2620 H   0  0  0  0  0  0  0  0  0  0  0  0
   -4.9167   20.5828  -33.4401 H   0  0  0  0  0  0  0  0  0  0  0  0
  1  2  1  0
  2  3  1  0
  3  4  1  0
  3  5  1  0
  5  6  1  0
  6  7  1  0
  7  8  1  0
  8  9  2  0
  8 10  1  0
 10 11  2  0
 11 12  1  0
 12 13  2  0
 13 14  1  0
 14 15  1  0
 15 16  1  0
 16 17  2  0
 17 18  1  0
 18 19  2  0
 19 20  1  0
 20 21  2  0
 21 22  1  0
 13 23  1  0
 23 24  2  0
 24 25  1  0
 25 26  2  0
 26 27  1  0
 27 28  2  0
 28 10  1  0
 21 16  1  0
 28 23  1  0
  1 29  1  0
  1 30  1  0
  1 31  1  0
  2 32  1  0
  2 33  1  0
  4 34  1  0
  4 35  1  0
  4 36  1  0
  5 37  1  0
  5 38  1  0
  6 39  1  0
  6 40  1  0
 11 41  1  0
 12 42  1  0
 14 43  1  0
 15 44  1  0
 15 45  1  0
 17 46  1  0
 18 47  1  0
 19 48  1  0
 20 49  1  0
 25 50  1  0
 26 51  1  0
 27 52  1  0
M  END
>  <UniqueID>  (4) 
4

>  <SMILES>  (4) 
CCN(C)CCOC(=O)c1ccc(NCc2ccccc2Cl)c2ncccc12

>  <Energy>  (4) 
61.29674534219218

>  <Genealogy>  (4) 
CCN(C)CCOC(=O)c1ccc(NCc2ccccc2Cl)c2ncccc12 (3D coordinates assigned)
CCN(C)CCOC(=O)c1ccc(NCc2ccccc2Cl)c2ncccc12 (optimized conformer: 61.29674534219218 kcal/mol)

>  <smiles>  (4) 
CCN(C)CCOC(=O)c1ccc(NCc2ccccc2Cl)c2ncccc12

>  <score_type>  (4) 
oracle

>  <origin>  (4) 
adg

>  <m_score__min__energy>  (4) 
-9.3100000000000005

>  <m_primary>  (4) 
energy

$$$$
4:0
     RDKit          3D

 47 49  0  0  0  0  0  0  0  0999 V2000
   -6.7650   23.8520  -32.5670 C   0  0  0  0  0  0  0  0  0  0  0  0
   -7.5460   22.6390  -32.1560 C   0  0  0  0  0  0  0  0  0  0  0  0
   -8.8130   22.7760  -31.5900 C   0  0  0  0  0  0  0  0  0  0  0  0
   -9.4830   21.2570  -31.3660 S   0  0  0  0  0  0  0  0  0  0  0  0
   -8.1750   20.3930  -31.9840 C   0  0  0  0  0  0  0  0  0  0  0  0
   -7.1730   21.2820  -32.3680 C   0  0  0  0  0  0  0  0  0  0  0  0
   -5.9580   20.7650  -32.8640 C   0  0  0  0  0  0  0  0  0  0  0  0
   -4.7930   21.6010  -33.0020 N   0  0  0  0  0  0  0  0  0  0  0  0
   -3.7790   21.7200  -31.9470 C   0  0  0  0  0  0  0  0  0  0  0  0
   -4.0180   22.9530  -31.0560 C   0  0  0  0  0  0  0  0  0  0  0  0
   -4.9750   22.6860  -29.8740 C   0  0  0  0  0  0  0  0  0  0  0  0
   -5.2290   23.8990  -29.0450 N   0  0  0  0  0  0  0  0  0  0  0  0
   -5.4820   25.0790  -29.8900 C   0  0  0  0  0  0  0  0  0  0  0  0
   -4.1030   24.1740  -28.1340 C   0  0  0  0  0  0  0  0  0  0  0  0
   -5.8890   19.3760  -33.1460 C   0  0  0  0  0  0  0  0  0  0  0  0
   -4.7950   18.8350  -33.8530 C   0  0  0  0  0  0  0  0  0  0  0  0
   -4.7190   17.4700  -34.1170 C   0  0  0  0  0  0  0  0  0  0  0  0
   -5.7370   16.6200  -33.7010 C   0  0  0  0  0  0  0  0  0  0  0  0
   -6.8490   17.1310  -33.0340 C   0  0  0  0  0  0  0  0  0  0  0  0
   -6.9580   18.5150  -32.7480 C   0  0  0  0  0  0  0  0  0  0  0  0
   -8.0690   19.0350  -32.1140 N   0  0  0  0  0  0  0  0  0  0  0  0
   -9.1520   18.1550  -31.6320 C   0  0  0  0  0  0  0  0  0  0  0  0
   -6.4203   24.3874  -31.6701 H   0  0  0  0  0  0  0  0  0  0  0  0
   -5.8959   23.5428  -33.1662 H   0  0  0  0  0  0  0  0  0  0  0  0
   -7.4062   24.5153  -33.1662 H   0  0  0  0  0  0  0  0  0  0  0  0
   -9.2959   23.7300  -31.3316 H   0  0  0  0  0  0  0  0  0  0  0  0
   -4.6180   22.0940  -33.9030 H   0  0  0  0  0  0  0  0  0  0  0  0
   -3.8108   20.8168  -31.3199 H   0  0  0  0  0  0  0  0  0  0  0  0
   -2.7971   21.8339  -32.4297 H   0  0  0  0  0  0  0  0  0  0  0  0
   -3.0496   23.2827  -30.6516 H   0  0  0  0  0  0  0  0  0  0  0  0
   -4.4911   23.7198  -31.6870 H   0  0  0  0  0  0  0  0  0  0  0  0
   -5.9349   22.3275  -30.2741 H   0  0  0  0  0  0  0  0  0  0  0  0
   -4.4959   21.9382  -29.2250 H   0  0  0  0  0  0  0  0  0  0  0  0
   -6.0820   23.7650  -28.4600 H   0  0  0  0  0  0  0  0  0  0  0  0
   -5.6697   25.9543  -29.2508 H   0  0  0  0  0  0  0  0  0  0  0  0
   -4.6044   25.2702  -30.5251 H   0  0  0  0  0  0  0  0  0  0  0  0
   -6.3608   24.8936  -30.5251 H   0  0  0  0  0  0  0  0  0  0  0  0
   -4.4455   24.0903  -27.0920 H   0  0  0  0  0  0  0  0  0  0  0  0
   -3.2986   23.4459  -28.3151 H   0  0  0  0  0  0  0  0  0  0  0  0
   -3.7248   25.1909  -28.3151 H   0  0  0  0  0  0  0  0  0  0  0  0
   -3.9910   19.5004  -34.2005 H   0  0  0  0  0  0  0  0  0  0  0  0
   -3.8509   17.0632  -34.6563 H   0  0  0  0  0  0  0  0  0  0  0  0
   -5.6648   15.5404  -33.8989 H   0  0  0  0  0  0  0  0  0  0  0  0
   -7.6550   16.4493  -32.7246 H   0  0  0  0  0  0  0  0  0  0  0  0
   -9.1582   18.1500  -30.5320 H   0  0  0  0  0  0  0  0  0  0  0  0
  -10.1188   18.5267  -32.0024 H   0  0  0  0  0  0  0  0  0  0  0  0
   -8.9860   17.1326  -32.0024 H   0  0  0  0  0  0  0  0  0  0  0  0
  1  2  1  0
  2  3  2  0
  3  4  1  0
  4  5  1  0
  5  6  2  0
  6  7  1  0
  7  8  1  0
  8  9  1  0
  9 10  1  0
 10 11  1  0
 11 12  1  0
 12 13  1  0
 12 14  1  0
  7 15  2  0
 15 16  1  0
 16 17  2  0
 17 18  1  0
 18 19  2  0
 19 20  1  0
 20 21  2  0
 21 22  1  0
  6  2  1  0
 20 15  1  0
 21  5  1  0
  1 23  1  0
  1 24  1  0
  1 25  1  0
  3 26  1  0
  8 27  1  0
  9 28  1  0
  9 29  1  0
 10 30  1  0
 10 31  1  0
 11 32  1  0
 11 33  1  0
 12 34  1  0
 13 35  1  0
 13 36  1  0
 13 37  1  0
 14 38  1  0
 14 39  1  0
 14 40  1  0
 16 41  1  0
 17 42  1  0
 18 43  1  0
 19 44  1  0
 22 45  1  0
 22 46  1  0
 22 47  1  0
M  CHG  2  12   1  21   1
M  END
>  <UniqueID>  (5) 
5

>  <SMILES>  (5) 
Cc1csc2c1c(NCCC[NH+](C)C)c1ccccc1[n+]2C

>  <Energy>  (5) 
99.44843738475714

>  <Genealogy>  (5) 
Cc1csc2c1c(NCCC[NH+](C)C)c1ccccc1[n+]2C (protonated)
Cc1csc2c1c(NCCC[NH+](C)C)c1ccccc1[n+]2C (3D coordinates assigned)
Cc1csc2c1c(NCCC[NH+](C)C)c1ccccc1[n+]2C (optimized conformer: 99.44843738475714 kcal/mol)

>  <smiles>  (5) 
Cc1csc2c1c(NCCCN(C)C)c1ccccc1[n+]2C

>  <score_type>  (5) 
oracle

>  <origin>  (5) 
adg

>  <m_score__min__energy>  (5) 
-7.0800000000000001

>  <m_primary>  (5) 
energy

$$$$
5:0
     RDKit          3D

 45 47  0  0  0  0  0  0  0  0999 V2000
   -3.1040   20.8370  -29.9230 C   0  0  0  0  0  0  0  0  0  0  0  0
   -2.8170   21.7570  -30.9680 O   0  0  0  0  0  0  0  0  0  0  0  0
   -2.5700   21.3500  -32.2820 C   0  0  0  0  0  0  0  0  0  0  0  0
   -1.5270   21.7260  -32.8860 O   0  0  0  0  0  0  0  0  0  0  0  0
   -3.5770   20.5490  -32.9930 C   0  0  0  0  0  0  0  0  0  0  0  0
   -3.1340   19.4720  -33.7850 C   0  0  0  0  0  0  0  0  0  0  0  0
   -4.0430   18.5550  -34.3430 C   0  0  0  0  0  0  0  0  0  0  0  0
   -5.4310   18.6880  -34.1240 C   0  0  0  0  0  0  0  0  0  0  0  0
   -6.3850   17.7440  -34.6570 N   0  0  0  0  0  0  0  0  0  0  0  0
   -6.7460   16.4810  -34.0120 C   0  0  0  0  0  0  0  0  0  0  0  0
   -5.4990   15.5960  -33.8260 C   0  0  0  0  0  0  0  0  0  0  0  0
   -4.8700   15.7760  -32.4960 N   0  0  0  0  0  0  0  0  0  0  0  0
   -4.6250   14.4800  -31.8330 C   0  0  0  0  0  0  0  0  0  0  0  0
   -5.7350   16.6080  -31.6410 C   0  0  0  0  0  0  0  0  0  0  0  0
   -5.8570   19.7820  -33.3570 C   0  0  0  0  0  0  0  0  0  0  0  0
   -7.1430   20.1810  -33.0240 C   0  0  0  0  0  0  0  0  0  0  0  0
   -6.9770   21.3670  -32.3330 C   0  0  0  0  0  0  0  0  0  0  0  0
   -7.9820   22.1910  -31.8310 C   0  0  0  0  0  0  0  0  0  0  0  0
   -7.6020   23.4010  -31.2360 C   0  0  0  0  0  0  0  0  0  0  0  0
   -6.2470   23.7660  -31.1830 C   0  0  0  0  0  0  0  0  0  0  0  0
   -5.7340   25.4460  -30.4310 Br  0  0  0  0  0  0  0  0  0  0  0  0
   -5.2750   22.9030  -31.7090 C   0  0  0  0  0  0  0  0  0  0  0  0
   -5.6710   21.7070  -32.2320 N   0  0  0  0  0  0  0  0  0  0  0  0
   -4.9720   20.7110  -32.8350 C   0  0  0  0  0  0  0  0  0  0  0  0
   -2.9510   21.3275  -28.9504 H   0  0  0  0  0  0  0  0  0  0  0  0
   -4.1489   20.5033  -30.0050 H   0  0  0  0  0  0  0  0  0  0  0  0
   -2.4342   19.9683  -30.0050 H   0  0  0  0  0  0  0  0  0  0  0  0
   -2.0572   19.3456  -33.9707 H   0  0  0  0  0  0  0  0  0  0  0  0
   -3.6674   17.7238  -34.9578 H   0  0  0  0  0  0  0  0  0  0  0  0
   -6.8650   17.9650  -35.5580 H   0  0  0  0  0  0  0  0  0  0  0  0
   -7.1912   16.6909  -33.0283 H   0  0  0  0  0  0  0  0  0  0  0  0
   -7.4684   15.9494  -34.6488 H   0  0  0  0  0  0  0  0  0  0  0  0
   -5.7942   14.5422  -33.9371 H   0  0  0  0  0  0  0  0  0  0  0  0
   -4.7622   15.8914  -34.5875 H   0  0  0  0  0  0  0  0  0  0  0  0
   -3.9560   16.2750  -32.6040 H   0  0  0  0  0  0  0  0  0  0  0  0
   -4.6507   14.6158  -30.7417 H   0  0  0  0  0  0  0  0  0  0  0  0
   -5.4034   13.7624  -32.1316 H   0  0  0  0  0  0  0  0  0  0  0  0
   -3.6384   14.0961  -32.1316 H   0  0  0  0  0  0  0  0  0  0  0  0
   -5.5165   16.3979  -30.5836 H   0  0  0  0  0  0  0  0  0  0  0  0
   -5.5445   17.6709  -31.8506 H   0  0  0  0  0  0  0  0  0  0  0  0
   -6.7897   16.3763  -31.8506 H   0  0  0  0  0  0  0  0  0  0  0  0
   -8.0870   19.6671  -33.2581 H   0  0  0  0  0  0  0  0  0  0  0  0
   -9.0407   21.9006  -31.8997 H   0  0  0  0  0  0  0  0  0  0  0  0
   -8.3667   24.0667  -30.8094 H   0  0  0  0  0  0  0  0  0  0  0  0
   -4.2119   23.1855  -31.7000 H   0  0  0  0  0  0  0  0  0  0  0  0
  1  2  1  0
  2  3  1  0
  3  4  2  0
  3  5  1  0
  5  6  2  0
  6  7  1  0
  7  8  2  0
  8  9  1  0
  9 10  1  0
 10 11  1  0
 11 12  1  0
 12 13  1  0
 12 14  1  0
  8 15  1  0
 15 16  1  0
 16 17  2  0
 17 18  1  0
 18 19  2  0
 19 20  1  0
 20 21  1  0
 20 22  2  0
 22 23  1  0
 23 24  1  0
 24  5  1  0
 24 15  2  0
 23 17  1  0
  1 25  1  0
  1 26  1  0
  1 27  1  0
  6 28  1  0
  7 29  1  0
  9 30  1  0
 10 31  1  0
 10 32  1  0
 11 33  1  0
 11 34  1  0
 12 35  1  0
 13 36  1  0
 13 37  1  0
 13 38  1  0
 14 39  1  0
 14 40  1  0
 14 41  1  0
 16 42  1  0
 18 43  1  0
 19 44  1  0
 22 45  1  0
M  CHG  1  12   1
M  END
>  <UniqueID>  (6) 
6

>  <SMILES>  (6) 
COC(=O)c1ccc(NCC[NH+](C)C)c2cc3ccc(Br)cn3c12

>  <Energy>  (6) 
91.89508914622911

>  <Genealogy>  (6) 
COC(=O)c1ccc(NCC[NH+](C)C)c2cc3ccc(Br)cn3c12 (protonated)
COC(=O)c1ccc(NCC[NH+](C)C)c2cc3ccc(Br)cn3c12 (3D coordinates assigned)
COC(=O)c1ccc(NCC[NH+](C)C)c2cc3ccc(Br)cn3c12 (optimized conformer: 91.89508914622911 kcal/mol)

>  <smiles>  (6) 
COC(=O)c1ccc(NCCN(C)C)c2cc3ccc(Br)cn3c12

>  <score_type>  (6) 
oracle

>  <origin>  (6) 
adg

>  <m_score__min__energy>  (6) 
-7.2300000000000004

>  <m_primary>  (6) 
energy

$$$$
6:0
     RDKit          3D

 49 51  0  0  0  0  0  0  0  0999 V2000
   -5.6980   25.6750  -30.4350 C   0  0  0  0  0  0  0  0  0  0  0  0
   -5.6110   24.3890  -29.6020 C   0  0  0  0  0  0  0  0  0  0  0  0
   -4.2280   23.9200  -29.3570 N   0  0  0  0  0  0  0  0  0  0  0  0
   -3.9070   23.8520  -27.9210 C   0  0  0  0  0  0  0  0  0  0  0  0
   -3.9210   22.6560  -30.0600 C   0  0  0  0  0  0  0  0  0  0  0  0
   -3.4210   22.8990  -31.4970 C   0  0  0  0  0  0  0  0  0  0  0  0
   -3.3300   21.6350  -32.3690 C   0  0  0  0  0  0  0  0  0  0  0  0
   -4.4760   21.4960  -33.2730 N   0  0  0  0  0  0  0  0  0  0  0  0
   -5.6410   20.7110  -32.9570 C   0  0  0  0  0  0  0  0  0  0  0  0
   -6.8060   21.3480  -32.4960 C   0  0  0  0  0  0  0  0  0  0  0  0
   -6.8310   22.7450  -32.2940 C   0  0  0  0  0  0  0  0  0  0  0  0
   -8.0090   23.3910  -31.9260 C   0  0  0  0  0  0  0  0  0  0  0  0
   -9.1820   22.6610  -31.7690 C   0  0  0  0  0  0  0  0  0  0  0  0
   -9.1770   21.2790  -31.9480 C   0  0  0  0  0  0  0  0  0  0  0  0
   -7.9840   20.5840  -32.2760 C   0  0  0  0  0  0  0  0  0  0  0  0
   -7.9570   19.2080  -32.4110 N   0  0  0  0  0  0  0  0  0  0  0  0
   -9.1000   18.3970  -31.9340 C   0  0  0  0  0  0  0  0  0  0  0  0
   -6.8460   18.5860  -32.9500 C   0  0  0  0  0  0  0  0  0  0  0  0
   -6.8640   17.2160  -33.3210 C   0  0  0  0  0  0  0  0  0  0  0  0
   -5.7070   16.5750  -33.7660 C   0  0  0  0  0  0  0  0  0  0  0  0
   -5.7570   14.8760  -34.2060 Cl  0  0  0  0  0  0  0  0  0  0  0  0
   -4.5090   17.2760  -33.8490 C   0  0  0  0  0  0  0  0  0  0  0  0
   -4.4750   18.6350  -33.5450 C   0  0  0  0  0  0  0  0  0  0  0  0
   -5.6470   19.3180  -33.1580 C   0  0  0  0  0  0  0  0  0  0  0  0
   -5.7568   26.5439  -29.7630 H   0  0  0  0  0  0  0  0  0  0  0  0
   -4.8037   25.7621  -31.0695 H   0  0  0  0  0  0  0  0  0  0  0  0
   -6.5959   25.6408  -31.0695 H   0  0  0  0  0  0  0  0  0  0  0  0
   -6.0904   24.5743  -28.6294 H   0  0  0  0  0  0  0  0  0  0  0  0
   -6.1153   23.6013  -30.1809 H   0  0  0  0  0  0  0  0  0  0  0  0
   -4.8162   24.0446  -27.3325 H   0  0  0  0  0  0  0  0  0  0  0  0
   -3.5187   22.8517  -27.6791 H   0  0  0  0  0  0  0  0  0  0  0  0
   -3.1464   24.6090  -27.6791 H   0  0  0  0  0  0  0  0  0  0  0  0
   -3.1420   22.1185  -29.4995 H   0  0  0  0  0  0  0  0  0  0  0  0
   -4.8483   22.0672  -30.1189 H   0  0  0  0  0  0  0  0  0  0  0  0
   -4.1109   23.6030  -31.9853 H   0  0  0  0  0  0  0  0  0  0  0  0
   -2.3962   23.2887  -31.4073 H   0  0  0  0  0  0  0  0  0  0  0  0
   -2.4101   21.6859  -32.9700 H   0  0  0  0  0  0  0  0  0  0  0  0
   -3.3250   20.7638  -31.6974 H   0  0  0  0  0  0  0  0  0  0  0  0
   -4.4200   21.9400  -34.2180 H   0  0  0  0  0  0  0  0  0  0  0  0
   -5.9094   23.3303  -32.4288 H   0  0  0  0  0  0  0  0  0  0  0  0
   -8.0113   24.4783  -31.7596 H   0  0  0  0  0  0  0  0  0  0  0  0
  -10.1168   23.1760  -31.5027 H   0  0  0  0  0  0  0  0  0  0  0  0
  -10.1152   20.7164  -31.8329 H   0  0  0  0  0  0  0  0  0  0  0  0
   -9.1106   18.3895  -30.8341 H   0  0  0  0  0  0  0  0  0  0  0  0
  -10.0391   18.8319  -32.3068 H   0  0  0  0  0  0  0  0  0  0  0  0
   -8.9996   17.3670  -32.3068 H   0  0  0  0  0  0  0  0  0  0  0  0
   -7.8052   16.6504  -33.2567 H   0  0  0  0  0  0  0  0  0  0  0  0
   -3.5883   16.7575  -34.1547 H   0  0  0  0  0  0  0  0  0  0  0  0
   -3.5228   19.1821  -33.6075 H   0  0  0  0  0  0  0  0  0  0  0  0
  1  2  1  0
  2  3  1  0
  3  4  1  0
  3  5  1  0
  5  6  1  0
  6  7  1  0
  7  8  1  0
  8  9  1  0
  9 10  2  0
 10 11  1  0
 11 12  2  0
 12 13  1  0
 13 14  2  0
 14 15  1  0
 15 16  2  0
 16 17  1  0
 16 18  1  0
 18 19  2  0
 19 20  1  0
 20 21  1  0
 20 22  2  0
 22 23  1  0
 23 24  2  0
 24  9  1  0
 15 10  1  0
 24 18  1  0
  1 25  1  0
  1 26  1  0
  1 27  1  0
  2 28  1  0
  2 29  1  0
  4 30  1  0
  4 31  1  0
  4 32  1  0
  5 33  1  0
  5 34  1  0
  6 35  1  0
  6 36  1  0
  7 37  1  0
  7 38  1  0
  8 39  1  0
 11 40  1  0
 12 41  1  0
 13 42  1  0
 14 43  1  0
 17 44  1  0
 17 45  1  0
 17 46  1  0
 19 47  1  0
 22 48  1  0
 23 49  1  0
M  CHG  1  16   1
M  END
>  <UniqueID>  (7) 
7

>  <SMILES>  (7) 
CCN(C)CCCNc1c2ccccc2[n+](C)c2cc(Cl)ccc12

>  <Energy>  (7) 
74.0627634745071

>  <Genealogy>  (7) 
CCN(C)CCCNc1c2ccccc2[n+](C)c2cc(Cl)ccc12 (3D coordinates assigned)
CCN(C)CCCNc1c2ccccc2[n+](C)c2cc(Cl)ccc12 (optimized conformer: 74.0627634745071 kcal/mol)

>  <smiles>  (7) 
CCN(C)CCCNc1c2ccccc2[n+](C)c2cc(Cl)ccc12

>  <score_type>  (7) 
oracle

>  <origin>  (7) 
adg

>  <m_score__min__energy>  (7) 
-9.0399999999999991

>  <m_primary>  (7) 
energy

$$$$
7:0
     RDKit          3D

 47 49  0  0  0  0  0  0  0  0999 V2000
   -1.9820   25.2890  -26.3520 C   0  0  0  0  0  0  0  0  0  0  0  0
   -1.5720   25.6820  -27.7710 C   0  0  0  0  0  0  0  0  0  0  0  0
   -1.5160   24.5070  -28.7210 C   0  0  0  0  0  0  0  0  0  0  0  0
   -0.4150   23.9230  -28.9230 O   0  0  0  0  0  0  0  0  0  0  0  0
   -2.7090   24.0340  -29.3870 N   0  0  0  0  0  0  0  0  0  0  0  0
   -4.0320   24.4330  -28.8790 C   0  0  0  0  0  0  0  0  0  0  0  0
   -5.1550   23.8270  -29.7120 C   0  0  0  0  0  0  0  0  0  0  0  0
   -4.8040   23.9680  -31.1330 N   0  0  0  0  0  0  0  0  0  0  0  0
   -5.9710   23.7300  -32.0050 C   0  0  0  0  0  0  0  0  0  0  0  0
   -6.1710   22.2560  -32.2150 C   0  0  0  0  0  0  0  0  0  0  0  0
   -5.4390   21.5310  -33.0970 N   0  0  0  0  0  0  0  0  0  0  0  0
   -5.9100   20.2800  -32.9720 C   0  0  0  0  0  0  0  0  0  0  0  0
   -5.5150   19.1390  -33.6660 C   0  0  0  0  0  0  0  0  0  0  0  0
   -6.1780   17.9330  -33.3690 C   0  0  0  0  0  0  0  0  0  0  0  0
   -7.2090   17.9020  -32.4020 C   0  0  0  0  0  0  0  0  0  0  0  0
   -7.5840   19.0750  -31.7190 C   0  0  0  0  0  0  0  0  0  0  0  0
   -6.9020   20.2530  -32.0320 C   0  0  0  0  0  0  0  0  0  0  0  0
   -7.0720   21.4930  -31.5330 N   0  0  0  0  0  0  0  0  0  0  0  0
   -8.0680   21.9310  -30.5520 C   0  0  0  0  0  0  0  0  0  0  0  0
   -9.4630   21.9040  -31.1640 C   0  0  0  0  0  0  0  0  0  0  0  0
   -3.7020   23.0480  -31.4840 C   0  0  0  0  0  0  0  0  0  0  0  0
   -2.5950   22.9720  -30.4050 C   0  0  0  0  0  0  0  0  0  0  0  0
   -1.3853   25.8610  -25.6262 H   0  0  0  0  0  0  0  0  0  0  0  0
   -3.0494   25.5100  -26.2043 H   0  0  0  0  0  0  0  0  0  0  0  0
   -1.8064   24.2132  -26.2043 H   0  0  0  0  0  0  0  0  0  0  0  0
   -2.3013   26.4094  -28.1570 H   0  0  0  0  0  0  0  0  0  0  0  0
   -0.5582   26.1048  -27.7134 H   0  0  0  0  0  0  0  0  0  0  0  0
   -4.1337   24.0907  -27.8386 H   0  0  0  0  0  0  0  0  0  0  0  0
   -4.1094   25.5286  -28.9396 H   0  0  0  0  0  0  0  0  0  0  0  0
   -5.2709   22.7622  -29.4614 H   0  0  0  0  0  0  0  0  0  0  0  0
   -6.1032   24.3439  -29.5029 H   0  0  0  0  0  0  0  0  0  0  0  0
   -6.8694   24.1548  -31.5334 H   0  0  0  0  0  0  0  0  0  0  0  0
   -5.7947   24.2102  -32.9788 H   0  0  0  0  0  0  0  0  0  0  0  0
   -4.6820   21.8680  -33.7330 H   0  0  0  0  0  0  0  0  0  0  0  0
   -4.7140   19.1786  -34.4189 H   0  0  0  0  0  0  0  0  0  0  0  0
   -5.8920   17.0089  -33.8927 H   0  0  0  0  0  0  0  0  0  0  0  0
   -7.7221   16.9543  -32.1815 H   0  0  0  0  0  0  0  0  0  0  0  0
   -8.3856   19.0639  -30.9657 H   0  0  0  0  0  0  0  0  0  0  0  0
   -8.0406   21.2581  -29.6823 H   0  0  0  0  0  0  0  0  0  0  0  0
   -7.8344   22.9599  -30.2410 H   0  0  0  0  0  0  0  0  0  0  0  0
  -10.2152   21.8894  -30.3615 H   0  0  0  0  0  0  0  0  0  0  0  0
   -9.6079   22.7995  -31.7862 H   0  0  0  0  0  0  0  0  0  0  0  0
   -9.5731   21.0036  -31.7862 H   0  0  0  0  0  0  0  0  0  0  0  0
   -4.1208   22.0406  -31.6250 H   0  0  0  0  0  0  0  0  0  0  0  0
   -3.2347   23.4371  -32.4006 H   0  0  0  0  0  0  0  0  0  0  0  0
   -2.6617   21.9958  -29.9023 H   0  0  0  0  0  0  0  0  0  0  0  0
   -1.6292   23.1062  -30.9141 H   0  0  0  0  0  0  0  0  0  0  0  0
  1  2  1  0
  2  3  1  0
  3  4  2  0
  3  5  1  0
  5  6  1  0
  6  7  1  0
  7  8  1  0
  8  9  1  0
  9 10  1  0
 10 11  2  0
 11 12  1  0
 12 13  2  0
 13 14  1  0
 14 15  2  0
 15 16  1  0
 16 17  2  0
 17 18  1  0
 18 19  1  0
 19 20  1  0
  8 21  1  0
 21 22  1  0
 22  5  1  0
 18 10  1  0
 17 12  1  0
  1 23  1  0
  1 24  1  0
  1 25  1  0
  2 26  1  0
  2 27  1  0
  6 28  1  0
  6 29  1  0
  7 30  1  0
  7 31  1  0
  9 32  1  0
  9 33  1  0
 11 34  1  0
 13 35  1  0
 14 36  1  0
 15 37  1  0
 16 38  1  0
 19 39  1  0
 19 40  1  0
 20 41  1  0
 20 42  1  0
 20 43  1  0
 21 44  1  0
 21 45  1  0
 22 46  1  0
 22 47  1  0
M  CHG  1  11   1
M  END
>  <UniqueID>  (8) 
8

>  <SMILES>  (8) 
CCC(=O)N1CCN(Cc2[nH+]c3ccccc3n2CC)CC1

>  <Energy>  (8) 
85.59302632159049

>  <Genealogy>  (8) 
CCC(=O)N1CCN(Cc2[nH+]c3ccccc3n2CC)CC1 (protonated)
CCC(=O)N1CCN(Cc2[nH+]c3ccccc3n2CC)CC1 (3D coordinates assigned)
CCC(=O)N1CCN(Cc2[nH+]c3ccccc3n2CC)CC1 (nonaromatic ring conformer: 85.59302632159049 kcal/mol)

>  <smiles>  (8) 
CCC(=O)N1CCN(Cc2nc3ccccc3n2CC)CC1

>  <score_type>  (8) 
oracle

>  <origin>  (8) 
adg

>  <m_score__min__energy>  (8) 
-7.5499999999999998

>  <m_primary>  (8) 
energy

$$$$
8:0
     RDKit          3D

 54 56  0  0  0  0  0  0  0  0999 V2000
   -4.0210   24.1750  -27.1260 C   0  0  0  0  0  0  0  0  0  0  0  0
   -3.0900   23.6990  -28.2380 C   0  0  0  0  0  0  0  0  0  0  0  0
   -2.7110   24.8280  -29.1610 C   0  0  0  0  0  0  0  0  0  0  0  0
   -1.5990   25.3970  -29.0020 O   0  0  0  0  0  0  0  0  0  0  0  0
   -3.5130   25.1930  -30.2920 N   0  0  0  0  0  0  0  0  0  0  0  0
   -4.7370   24.5760  -30.7130 C   0  0  0  0  0  0  0  0  0  0  0  0
   -5.9520   25.1030  -30.2640 C   0  0  0  0  0  0  0  0  0  0  0  0
   -7.1590   24.5090  -30.6410 C   0  0  0  0  0  0  0  0  0  0  0  0
   -7.1660   23.3580  -31.4480 C   0  0  0  0  0  0  0  0  0  0  0  0
   -5.9510   22.7990  -31.8590 C   0  0  0  0  0  0  0  0  0  0  0  0
   -4.7440   23.4110  -31.4970 C   0  0  0  0  0  0  0  0  0  0  0  0
   -5.8990   21.6700  -32.6780 O   0  0  0  0  0  0  0  0  0  0  0  0
   -6.5370   20.4450  -32.4430 C   0  0  0  0  0  0  0  0  0  0  0  0
   -5.8380   19.3070  -32.8660 C   0  0  0  0  0  0  0  0  0  0  0  0
   -6.3290   18.0150  -32.6280 C   0  0  0  0  0  0  0  0  0  0  0  0
   -5.5880   16.8570  -33.0720 N   0  0  0  0  0  0  0  0  0  0  0  0
   -5.4200   16.8440  -34.5360 C   0  0  0  0  0  0  0  0  0  0  0  0
   -4.0090   17.2800  -34.9660 C   0  0  0  0  0  0  0  0  0  0  0  0
   -3.1790   17.5710  -33.7760 N   0  0  0  0  0  0  0  0  0  0  0  0
   -2.7150   18.9690  -33.7950 C   0  0  0  0  0  0  0  0  0  0  0  0
   -2.0150   16.6690  -33.7070 C   0  0  0  0  0  0  0  0  0  0  0  0
   -7.5480   17.8670  -31.9580 C   0  0  0  0  0  0  0  0  0  0  0  0
   -8.2730   18.9880  -31.5580 C   0  0  0  0  0  0  0  0  0  0  0  0
   -7.8000   20.2950  -31.8070 C   0  0  0  0  0  0  0  0  0  0  0  0
   -8.7040   21.4360  -31.4890 C   0  0  0  0  0  0  0  0  0  0  0  0
   -9.7980   21.2120  -30.8980 O   0  0  0  0  0  0  0  0  0  0  0  0
   -8.4000   22.7780  -31.8790 N   0  0  0  0  0  0  0  0  0  0  0  0
   -9.4860   23.6420  -32.3490 C   0  0  0  0  0  0  0  0  0  0  0  0
   -3.5719   23.9454  -26.1484 H   0  0  0  0  0  0  0  0  0  0  0  0
   -4.1721   25.2610  -27.2141 H   0  0  0  0  0  0  0  0  0  0  0  0
   -4.9899   23.6616  -27.2141 H   0  0  0  0  0  0  0  0  0  0  0  0
   -2.1766   23.2842  -27.7866 H   0  0  0  0  0  0  0  0  0  0  0  0
   -3.6177   22.9340  -28.8265 H   0  0  0  0  0  0  0  0  0  0  0  0
   -5.9574   25.9886  -29.6115 H   0  0  0  0  0  0  0  0  0  0  0  0
   -8.1109   24.9452  -30.3039 H   0  0  0  0  0  0  0  0  0  0  0  0
   -3.7912   22.9741  -31.8306 H   0  0  0  0  0  0  0  0  0  0  0  0
   -4.8824   19.4296  -33.3968 H   0  0  0  0  0  0  0  0  0  0  0  0
   -4.6400   16.8760  -32.6270 H   0  0  0  0  0  0  0  0  0  0  0  0
   -6.0550   15.9730  -32.7600 H   0  0  0  0  0  0  0  0  0  0  0  0
   -5.6023   15.8235  -34.9038 H   0  0  0  0  0  0  0  0  0  0  0  0
   -6.1379   17.5595  -34.9633 H   0  0  0  0  0  0  0  0  0  0  0  0
   -3.5404   16.4721  -35.5471 H   0  0  0  0  0  0  0  0  0  0  0  0
   -4.0860   18.1889  -35.5808 H   0  0  0  0  0  0  0  0  0  0  0  0
   -2.5953   19.3297  -32.7627 H   0  0  0  0  0  0  0  0  0  0  0  0
   -1.7492   19.0277  -34.3182 H   0  0  0  0  0  0  0  0  0  0  0  0
   -3.4540   19.5935  -34.3182 H   0  0  0  0  0  0  0  0  0  0  0  0
   -1.7639   16.4744  -32.6539 H   0  0  0  0  0  0  0  0  0  0  0  0
   -2.2564   15.7198  -34.2078 H   0  0  0  0  0  0  0  0  0  0  0  0
   -1.1562   17.1397  -34.2078 H   0  0  0  0  0  0  0  0  0  0  0  0
   -7.9366   16.8601  -31.7456 H   0  0  0  0  0  0  0  0  0  0  0  0
   -9.2327   18.8520  -31.0380 H   0  0  0  0  0  0  0  0  0  0  0  0
  -10.0181   24.0653  -31.4843 H   0  0  0  0  0  0  0  0  0  0  0  0
   -9.0684   24.4575  -32.9578 H   0  0  0  0  0  0  0  0  0  0  0  0
  -10.1868   23.0518  -32.9578 H   0  0  0  0  0  0  0  0  0  0  0  0
  1  2  1  0
  2  3  1  0
  3  4  2  0
  3  5  1  0
  5  6  1  0
  6  7  2  0
  7  8  1  0
  8  9  2  0
  9 10  1  0
 10 11  2  0
 10 12  1  0
 12 13  1  0
 13 14  2  0
 14 15  1  0
 15 16  1  0
 16 17  1  0
 17 18  1  0
 18 19  1  0
 19 20  1  0
 19 21  1  0
 15 22  2  0
 22 23  1  0
 23 24  2  0
 24 25  1  0
 25 26  2  0
 25 27  1  0
 27 28  1  0
 11  6  1  0
 24 13  1  0
 27  9  1  0
  1 29  1  0
  1 30  1  0
  1 31  1  0
  2 32  1  0
  2 33  1  0
  7 34  1  0
  8 35  1  0
 11 36  1  0
 14 37  1  0
 16 38  1  0
 16 39  1  0
 17 40  1  0
 17 41  1  0
 18 42  1  0
 18 43  1  0
 20 44  1  0
 20 45  1  0
 20 46  1  0
 21 47  1  0
 21 48  1  0
 21 49  1  0
 22 50  1  0
 23 51  1  0
 28 52  1  0
 28 53  1  0
 28 54  1  0
M  CHG  2   5  -1  16   1
M  END
>  <UniqueID>  (9) 
9

>  <SMILES>  (9) 
CCC(=O)[N-]c1ccc2c(c1)Oc1cc([NH2+]CCN(C)C)ccc1C(=O)N2C

>  <Energy>  (9) 
82.65551020124346

>  <Genealogy>  (9) 
CCC(=O)[N-]c1ccc2c(c1)Oc1cc([NH2+]CCN(C)C)ccc1C(=O)N2C (protonated)
CCC(=O)[N-]c1ccc2c(c1)Oc1cc([NH2+]CCN(C)C)ccc1C(=O)N2C (3D coordinates assigned)
CCC(=O)[N-]c1ccc2c(c1)Oc1cc([NH2+]CCN(C)C)ccc1C(=O)N2C (nonaromatic ring conformer: 82.65551020124346 kcal/mol)

>  <smiles>  (9) 
CCC(=O)Nc1ccc2c(c1)Oc1cc(NCCN(C)C)ccc1C(=O)N2C

>  <score_type>  (9) 
oracle

>  <origin>  (9) 
adg

>  <m_score__min__energy>  (9) 
-10.15

>  <m_primary>  (9) 
energy

$$$$
9:0
     RDKit          3D

 78 82  0  0  0  0  0  0  0  0999 V2000
   -2.6770   19.7110  -33.6260 C   0  0  0  0  0  0  0  0  0  0  0  0
   -3.4510   18.4870  -34.1230 C   0  0  0  0  0  0  0  0  0  0  0  0
   -4.8940   18.5440  -33.7850 N   0  0  1  0  0  0  0  0  0  0  0  0
   -5.6980   17.9940  -34.8940 C   0  0  0  0  0  0  0  0  0  0  0  0
   -5.2440   17.9070  -32.4870 C   0  0  0  0  0  0  0  0  0  0  0  0
   -5.7390   18.8860  -31.4030 C   0  0  0  0  0  0  0  0  0  0  0  0
   -5.9520   20.1760  -31.9710 O   0  0  0  0  0  0  0  0  0  0  0  0
   -7.1630   20.8890  -31.9790 C   0  0  0  0  0  0  0  0  0  0  0  0
   -8.4200   20.2530  -32.0470 C   0  0  0  0  0  0  0  0  0  0  0  0
   -9.5920   21.0140  -32.0710 C   0  0  0  0  0  0  0  0  0  0  0  0
   -9.5250   22.4080  -32.0250 C   0  0  0  0  0  0  0  0  0  0  0  0
   -8.2850   23.0470  -31.9540 C   0  0  0  0  0  0  0  0  0  0  0  0
   -7.1060   22.2940  -31.9320 C   0  0  0  0  0  0  0  0  0  0  0  0
   -5.8400   22.9550  -31.8350 N   0  0  0  0  0  0  0  0  0  0  0  0
   -5.7240   24.1420  -30.9740 C   0  0  0  0  0  0  0  0  0  0  0  0
   -4.2970   24.2840  -30.4380 C   0  0  0  0  0  0  0  0  0  0  0  0
   -3.7830   22.9550  -30.0810 N   0  0  0  0  0  0  0  0  0  0  0  0
   -3.7280   22.5670  -28.6920 C   0  0  0  0  0  0  0  0  0  0  0  0
   -4.5670   23.0590  -27.8900 O   0  0  0  0  0  0  0  0  0  0  0  0
   -2.7850   21.4810  -28.2010 C   0  0  1  0  0  0  0  0  0  0  0  0
   -1.8410   20.9380  -29.2780 C   0  0  0  0  0  0  0  0  0  0  0  0
   -0.6290   20.5600  -28.5720 N   0  0  0  0  0  0  0  0  0  0  0  0
    0.4710   19.8730  -29.1890 C   0  0  0  0  0  0  0  0  0  0  0  0
    0.8150   20.1690  -30.3650 O   0  0  0  0  0  0  0  0  0  0  0  0
    1.2270   18.8180  -28.4300 C   0  0  0  0  0  0  0  0  0  0  0  0
    1.1420   17.3960  -28.9760 C   0  0  0  0  0  0  0  0  0  0  0  0
    0.3160   17.7960  -27.7620 C   0  0  0  0  0  0  0  0  0  0  0  0
   -0.6430   20.9400  -27.1700 C   0  0  0  0  0  0  0  0  0  0  0  0
   -1.8560   21.8650  -27.0170 C   0  0  1  0  0  0  0  0  0  0  0  0
   -1.4250   23.3280  -27.0020 C   0  0  0  0  0  0  0  0  0  0  0  0
   -0.1550   23.6830  -27.4910 C   0  0  0  0  0  0  0  0  0  0  0  0
    0.2690   25.0150  -27.4650 C   0  0  0  0  0  0  0  0  0  0  0  0
   -0.5700   26.0110  -26.9590 C   0  0  0  0  0  0  0  0  0  0  0  0
   -0.0350   27.6800  -26.9340 Cl  0  0  0  0  0  0  0  0  0  0  0  0
   -1.8390   25.6720  -26.4800 C   0  0  0  0  0  0  0  0  0  0  0  0
   -2.2660   24.3430  -26.5020 C   0  0  0  0  0  0  0  0  0  0  0  0
   -3.7120   21.9290  -31.1380 C   0  0  0  0  0  0  0  0  0  0  0  0
   -4.6310   22.2790  -32.3210 C   0  0  0  0  0  0  0  0  0  0  0  0
   -2.6716   19.7196  -32.5260 H   0  0  0  0  0  0  0  0  0  0  0  0
   -1.6426   19.6664  -33.9974 H   0  0  0  0  0  0  0  0  0  0  0  0
   -3.1608   20.6264  -33.9974 H   0  0  0  0  0  0  0  0  0  0  0  0
   -3.3482   18.4262  -35.2165 H   0  0  0  0  0  0  0  0  0  0  0  0
   -3.0284   17.6025  -33.6239 H   0  0  0  0  0  0  0  0  0  0  0  0
   -5.1600   19.5540  -33.7050 H   0  0  0  0  0  0  0  0  0  0  0  0
   -6.5408   17.4174  -34.4851 H   0  0  0  0  0  0  0  0  0  0  0  0
   -6.0833   18.8186  -35.5117 H   0  0  0  0  0  0  0  0  0  0  0  0
   -5.0691   17.3361  -35.5117 H   0  0  0  0  0  0  0  0  0  0  0  0
   -6.0383   17.1685  -32.6706 H   0  0  0  0  0  0  0  0  0  0  0  0
   -4.3172   17.4577  -32.1008 H   0  0  0  0  0  0  0  0  0  0  0  0
   -6.6838   18.5138  -30.9801 H   0  0  0  0  0  0  0  0  0  0  0  0
   -4.9795   18.9614  -30.6109 H   0  0  0  0  0  0  0  0  0  0  0  0
   -8.4781   19.1551  -32.0812 H   0  0  0  0  0  0  0  0  0  0  0  0
  -10.5699   20.5134  -32.1263 H   0  0  0  0  0  0  0  0  0  0  0  0
  -10.4497   23.0035  -32.0447 H   0  0  0  0  0  0  0  0  0  0  0  0
   -8.2353   24.1452  -31.9153 H   0  0  0  0  0  0  0  0  0  0  0  0
   -5.9814   25.0381  -31.5577 H   0  0  0  0  0  0  0  0  0  0  0  0
   -6.4121   24.0304  -30.1231 H   0  0  0  0  0  0  0  0  0  0  0  0
   -3.6557   24.7313  -31.2118 H   0  0  0  0  0  0  0  0  0  0  0  0
   -4.2979   24.9320  -29.5491 H   0  0  0  0  0  0  0  0  0  0  0  0
   -3.5195   20.7300  -27.8746 H   0  0  0  0  0  0  0  0  0  0  0  0
   -2.2861   20.0632  -29.7747 H   0  0  0  0  0  0  0  0  0  0  0  0
   -1.6426   21.6833  -30.0623 H   0  0  0  0  0  0  0  0  0  0  0  0
    2.0605   19.4675  -28.1243 H   0  0  0  0  0  0  0  0  0  0  0  0
    0.6469   17.2055  -29.9396 H   0  0  0  0  0  0  0  0  0  0  0  0
    1.8709   16.6013  -29.1934 H   0  0  0  0  0  0  0  0  0  0  0  0
   -0.7762   17.8939  -27.8484 H   0  0  0  0  0  0  0  0  0  0  0  0
    0.2009   17.4092  -26.7387 H   0  0  0  0  0  0  0  0  0  0  0  0
   -0.7521   20.0517  -26.5305 H   0  0  0  0  0  0  0  0  0  0  0  0
    0.2921   21.4346  -26.8685 H   0  0  0  0  0  0  0  0  0  0  0  0
   -2.3888   21.7433  -26.0624 H   0  0  0  0  0  0  0  0  0  0  0  0
    0.5099   22.9065  -27.8971 H   0  0  0  0  0  0  0  0  0  0  0  0
    1.2670   25.2798  -27.8444 H   0  0  0  0  0  0  0  0  0  0  0  0
   -2.5030   26.4548  -26.0846 H   0  0  0  0  0  0  0  0  0  0  0  0
   -3.2672   24.0856  -26.1260 H   0  0  0  0  0  0  0  0  0  0  0  0
   -2.6753   21.8577  -31.4988 H   0  0  0  0  0  0  0  0  0  0  0  0
   -4.0437   20.9701  -30.7132 H   0  0  0  0  0  0  0  0  0  0  0  0
   -4.0953   22.9444  -33.0140 H   0  0  0  0  0  0  0  0  0  0  0  0
   -4.9192   21.3532  -32.8404 H   0  0  0  0  0  0  0  0  0  0  0  0
  1  2  1  0
  2  3  1  0
  3  4  1  0
  3  5  1  0
  5  6  1  0
  6  7  1  0
  7  8  1  0
  8  9  2  0
  9 10  1  0
 10 11  2  0
 11 12  1  0
 12 13  2  0
 13 14  1  0
 14 15  1  0
 15 16  1  0
 16 17  1  0
 17 18  1  0
 18 19  2  0
 18 20  1  0
 20 21  1  0
 21 22  1  0
 22 23  1  0
 23 24  2  0
 23 25  1  0
 25 26  1  0
 26 27  1  0
 22 28  1  0
 28 29  1  0
 29 30  1  0
 30 31  2  0
 31 32  1  0
 32 33  2  0
 33 34  1  0
 33 35  1  0
 35 36  2  0
 17 37  1  0
 37 38  1  0
 13  8  1  0
 38 14  1  0
 29 20  1  0
 36 30  1  0
 27 25  1  0
  1 39  1  0
  1 40  1  0
  1 41  1  0
  2 42  1  0
  2 43  1  0
  3 44  1  1
  4 45  1  0
  4 46  1  0
  4 47  1  0
  5 48  1  0
  5 49  1  0
  6 50  1  0
  6 51  1  0
  9 52  1  0
 10 53  1  0
 11 54  1  0
 12 55  1  0
 15 56  1  0
 15 57  1  0
 16 58  1  0
 16 59  1  0
 20 60  1  1
 21 61  1  0
 21 62  1  0
 25 63  1  0
 26 64  1  0
 26 65  1  0
 27 66  1  0
 27 67  1  0
 28 68  1  0
 28 69  1  0
 29 70  1  1
 31 71  1  0
 32 72  1  0
 35 73  1  0
 36 74  1  0
 37 75  1  0
 37 76  1  0
 38 77  1  0
 38 78  1  0
M  CHG  1   3   1
M  END
>  <UniqueID>  (10) 
10

>  <SMILES>  (10) 
CC[N@@H+](C)CCOc1ccccc1N1CCN(C(=O)[C@H]2CN(C(=O)C3CC3)CC2c2ccc(Cl)cc2)CC1

>  <Energy>  (10) 
357.51280804651407

>  <Genealogy>  (10) 
CC[NH+](C)CCOc1ccccc1N1CCN(C(=O)C2CN(C(=O)C3CC3)CC2c2ccc(Cl)cc2)CC1 (protonated)
CC[N@@H+](C)CCOc1ccccc1N1CCN(C(=O)[C@H]2CN(C(=O)C3CC3)CC2c2ccc(Cl)cc2)CC1 (chirality)
CC[N@@H+](C)CCOc1ccccc1N1CCN(C(=O)[C@H]2CN(C(=O)C3CC3)CC2c2ccc(Cl)cc2)CC1 (3D coordinates assigned)
CC[N@@H+](C)CCOc1ccccc1N1CCN(C(=O)[C@H]2CN(C(=O)C3CC3)CC2c2ccc(Cl)cc2)CC1 (nonaromatic ring conformer: 357.51280804651407 kcal/mol)

>  <smiles>  (10) 
CCN(C)CCOc1ccccc1N1CCN(C(=O)C2CN(C(=O)C3CC3)CC2c2ccc(Cl)cc2)CC1

>  <score_type>  (10) 
oracle

>  <origin>  (10) 
adg

>  <m_score__min__energy>  (10) 
-7.75

>  <m_primary>  (10) 
energy

$$$$
10:0
     RDKit          3D

 74 75  0  0  0  0  0  0  0  0999 V2000
   -2.7450   19.3770  -27.0610 C   0  0  0  0  0  0  0  0  0  0  0  0
   -2.7680   20.6850  -27.8370 C   0  0  0  0  0  0  0  0  0  0  0  0
   -2.6400   20.4200  -29.2280 O   0  0  0  0  0  0  0  0  0  0  0  0
   -2.1000   21.3430  -30.1250 C   0  0  0  0  0  0  0  0  0  0  0  0
   -0.9710   21.1260  -30.6590 O   0  0  0  0  0  0  0  0  0  0  0  0
   -2.8380   22.5960  -30.4240 C   0  0  0  0  0  0  0  0  0  0  0  0
   -2.5830   23.7570  -29.7590 C   0  0  0  0  0  0  0  0  0  0  0  0
   -1.4200   23.9270  -28.8080 C   0  0  0  0  0  0  0  0  0  0  0  0
   -1.8860   24.1760  -27.4930 O   0  0  0  0  0  0  0  0  0  0  0  0
   -1.6440   25.5230  -27.1280 C   0  0  0  0  0  0  0  0  0  0  0  0
   -2.2140   25.7660  -25.7200 C   0  0  0  0  0  0  0  0  0  0  0  0
   -1.5380   26.8540  -24.9650 N   0  0  0  0  0  0  0  0  0  0  0  0
   -0.8810   27.8960  -25.7790 C   0  0  0  0  0  0  0  0  0  0  0  0
   -0.7660   26.4200  -23.7720 C   0  0  0  0  0  0  0  0  0  0  0  0
    0.7150   26.0580  -24.0790 C   0  0  0  0  0  0  0  0  0  0  0  0
    1.7110   26.8370  -23.2900 N   0  0  1  0  0  0  0  0  0  0  0  0
    3.0930   26.6130  -23.7720 C   0  0  0  0  0  0  0  0  0  0  0  0
    1.3710   28.2840  -23.2430 C   0  0  0  0  0  0  0  0  0  0  0  0
    1.8670   28.9670  -21.9590 C   0  0  0  0  0  0  0  0  0  0  0  0
   -3.4480   24.8950  -29.9540 N   0  0  0  0  0  0  0  0  0  0  0  0
   -4.6320   24.8020  -30.4960 C   0  0  0  0  0  0  0  0  0  0  0  0
   -5.4580   26.0380  -30.6570 C   0  0  0  0  0  0  0  0  0  0  0  0
   -5.1710   23.4390  -30.8910 C   0  0  2  0  0  0  0  0  0  0  0  0
   -5.8310   22.8550  -29.6590 C   0  0  0  0  0  0  0  0  0  0  0  0
   -5.1850   22.7020  -28.5840 O   0  0  0  0  0  0  0  0  0  0  0  0
   -7.1930   22.5240  -29.7160 O   0  0  0  0  0  0  0  0  0  0  0  0
   -7.9320   22.5150  -30.9330 C   0  0  0  0  0  0  0  0  0  0  0  0
   -3.9700   22.6240  -31.4620 C   0  0  2  0  0  0  0  0  0  0  0  0
   -4.1940   21.3000  -32.2280 C   0  0  0  0  0  0  0  0  0  0  0  0
   -5.4030   20.6290  -31.9210 C   0  0  0  0  0  0  0  0  0  0  0  0
   -5.7710   19.4470  -32.5620 C   0  0  0  0  0  0  0  0  0  0  0  0
   -4.9350   18.8880  -33.5200 C   0  0  0  0  0  0  0  0  0  0  0  0
   -3.7130   19.4900  -33.8120 C   0  0  0  0  0  0  0  0  0  0  0  0
   -3.3200   20.6730  -33.1690 C   0  0  0  0  0  0  0  0  0  0  0  0
   -1.6830   21.1780  -33.5460 Cl  0  0  0  0  0  0  0  0  0  0  0  0
   -2.7488   19.5907  -25.9820 H   0  0  0  0  0  0  0  0  0  0  0  0
   -3.6328   18.7814  -27.3199 H   0  0  0  0  0  0  0  0  0  0  0  0
   -1.8368   18.8130  -27.3199 H   0  0  0  0  0  0  0  0  0  0  0  0
   -3.7195   21.2043  -27.6499 H   0  0  0  0  0  0  0  0  0  0  0  0
   -1.9305   21.3179  -27.5085 H   0  0  0  0  0  0  0  0  0  0  0  0
   -0.8141   23.0089  -28.8095 H   0  0  0  0  0  0  0  0  0  0  0  0
   -0.8129   24.7828  -29.1381 H   0  0  0  0  0  0  0  0  0  0  0  0
   -0.5612   25.7168  -27.1269 H   0  0  0  0  0  0  0  0  0  0  0  0
   -2.1287   26.1980  -27.8487 H   0  0  0  0  0  0  0  0  0  0  0  0
   -3.2783   26.0256  -25.8194 H   0  0  0  0  0  0  0  0  0  0  0  0
   -2.0511   24.8393  -25.1502 H   0  0  0  0  0  0  0  0  0  0  0  0
   -0.4129   28.6384  -25.1159 H   0  0  0  0  0  0  0  0  0  0  0  0
   -0.1106   27.4339  -26.4138 H   0  0  0  0  0  0  0  0  0  0  0  0
   -1.6301   28.3920  -26.4138 H   0  0  0  0  0  0  0  0  0  0  0  0
   -0.7776   27.2370  -23.0356 H   0  0  0  0  0  0  0  0  0  0  0  0
   -1.2473   25.5056  -23.3948 H   0  0  0  0  0  0  0  0  0  0  0  0
    0.8613   24.9899  -23.8606 H   0  0  0  0  0  0  0  0  0  0  0  0
    0.8876   26.3045  -25.1370 H   0  0  0  0  0  0  0  0  0  0  0  0
    1.6520   26.4610  -22.3130 H   0  0  0  0  0  0  0  0  0  0  0  0
    3.7685   26.5035  -22.9108 H   0  0  0  0  0  0  0  0  0  0  0  0
    3.1249   25.6980  -24.3817 H   0  0  0  0  0  0  0  0  0  0  0  0
    3.4123   27.4711  -24.3817 H   0  0  0  0  0  0  0  0  0  0  0  0
    1.8328   28.7825  -24.1080 H   0  0  0  0  0  0  0  0  0  0  0  0
    0.2745   28.3690  -23.2629 H   0  0  0  0  0  0  0  0  0  0  0  0
    1.4761   28.4288  -21.0829 H   0  0  0  0  0  0  0  0  0  0  0  0
    2.9667   28.9528  -21.9375 H   0  0  0  0  0  0  0  0  0  0  0  0
    1.5132   30.0083  -21.9375 H   0  0  0  0  0  0  0  0  0  0  0  0
   -5.7226   26.4339  -29.6654 H   0  0  0  0  0  0  0  0  0  0  0  0
   -4.8828   26.7937  -31.2120 H   0  0  0  0  0  0  0  0  0  0  0  0
   -6.3763   25.7956  -31.2120 H   0  0  0  0  0  0  0  0  0  0  0  0
   -5.9386   23.4503  -31.6788 H   0  0  0  0  0  0  0  0  0  0  0  0
   -9.0087   22.5019  -30.7081 H   0  0  0  0  0  0  0  0  0  0  0  0
   -7.6901   23.4162  -31.5156 H   0  0  0  0  0  0  0  0  0  0  0  0
   -7.6682   21.6200  -31.5156 H   0  0  0  0  0  0  0  0  0  0  0  0
   -3.6795   23.1988  -32.3538 H   0  0  0  0  0  0  0  0  0  0  0  0
   -6.0700   21.0523  -31.1556 H   0  0  0  0  0  0  0  0  0  0  0  0
   -6.7230   18.9573  -32.3092 H   0  0  0  0  0  0  0  0  0  0  0  0
   -5.2373   17.9713  -34.0474 H   0  0  0  0  0  0  0  0  0  0  0  0
   -3.0469   19.0310  -34.5574 H   0  0  0  0  0  0  0  0  0  0  0  0
  1  2  1  0
  2  3  1  0
  3  4  1  0
  4  5  2  0
  4  6  1  0
  6  7  2  0
  7  8  1  0
  8  9  1  0
  9 10  1  0
 10 11  1  0
 11 12  1  0
 12 13  1  0
 12 14  1  0
 14 15  1  0
 15 16  1  0
 16 17  1  0
 16 18  1  0
 18 19  1  0
  7 20  1  0
 20 21  2  0
 21 22  1  0
 21 23  1  0
 23 24  1  0
 24 25  2  0
 24 26  1  0
 26 27  1  0
 23 28  1  0
 28 29  1  0
 29 30  2  0
 30 31  1  0
 31 32  2  0
 32 33  1  0
 33 34  2  0
 34 35  1  0
 28  6  1  0
 34 29  1  0
  1 36  1  0
  1 37  1  0
  1 38  1  0
  2 39  1  0
  2 40  1  0
  8 41  1  0
  8 42  1  0
 10 43  1  0
 10 44  1  0
 11 45  1  0
 11 46  1  0
 13 47  1  0
 13 48  1  0
 13 49  1  0
 14 50  1  0
 14 51  1  0
 15 52  1  0
 15 53  1  0
 16 54  1  1
 17 55  1  0
 17 56  1  0
 17 57  1  0
 18 58  1  0
 18 59  1  0
 19 60  1  0
 19 61  1  0
 19 62  1  0
 22 63  1  0
 22 64  1  0
 22 65  1  0
 23 66  1  6
 27 67  1  0
 27 68  1  0
 27 69  1  0
 28 70  1  6
 30 71  1  0
 31 72  1  0
 32 73  1  0
 33 74  1  0
M  CHG  1  16   1
M  END
>  <UniqueID>  (11) 
11

>  <SMILES>  (11) 
CCOC(=O)C1=C(COCCN(C)CC[N@@H+](C)CC)N=C(C)[C@H](C(=O)OC)C1c1ccccc1Cl

>  <Energy>  (11) 
100.67772440998606

>  <Genealogy>  (11) 
CCOC(=O)C1=C(COCCN(C)CC[NH+](C)CC)N=C(C)C(C(=O)OC)C1c1ccccc1Cl (protonated)
CCOC(=O)C1=C(COCCN(C)CC[N@@H+](C)CC)N=C(C)[C@H](C(=O)OC)C1c1ccccc1Cl (chirality)
CCOC(=O)C1=C(COCCN(C)CC[N@@H+](C)CC)N=C(C)[C@H](C(=O)OC)C1c1ccccc1Cl (3D coordinates assigned)
CCOC(=O)C1=C(COCCN(C)CC[N@@H+](C)CC)N=C(C)[C@H](C(=O)OC)C1c1ccccc1Cl (nonaromatic ring conformer: 100.67772440998606 kcal/mol)

>  <smiles>  (11) 
CCOC(=O)C1=C(COCCN(C)CCN(C)CC)N=C(C)C(C(=O)OC)C1c1ccccc1Cl

>  <score_type>  (11) 
oracle

>  <origin>  (11) 
adg

>  <m_score__min__energy>  (11) 
-8.8000000000000007

>  <m_primary>  (11) 
energy

$$$$
11:0
     RDKit          3D

 45 47  0  0  0  0  0  0  0  0999 V2000
    0.3000   21.5410  -35.0800 C   0  0  0  0  0  0  0  0  0  0  0  0
   -0.7860   20.8390  -34.3770 N   0  0  0  0  0  0  0  0  0  0  0  0
   -0.6760   19.3920  -34.6300 C   0  0  0  0  0  0  0  0  0  0  0  0
   -0.7300   21.1350  -32.9280 C   0  0  0  0  0  0  0  0  0  0  0  0
   -2.1330   21.1470  -32.3090 C   0  0  0  0  0  0  0  0  0  0  0  0
   -3.1670   21.0740  -33.3410 N   0  0  0  0  0  0  0  0  0  0  0  0
   -4.5040   20.6870  -32.9970 C   0  0  0  0  0  0  0  0  0  0  0  0
   -5.0220   19.4670  -33.4590 C   0  0  0  0  0  0  0  0  0  0  0  0
   -4.2570   18.6330  -34.3020 C   0  0  0  0  0  0  0  0  0  0  0  0
   -4.7890   17.4450  -34.7970 C   0  0  0  0  0  0  0  0  0  0  0  0
   -6.0900   17.0770  -34.4740 C   0  0  0  0  0  0  0  0  0  0  0  0
   -6.8600   17.8790  -33.6310 C   0  0  0  0  0  0  0  0  0  0  0  0
   -6.3330   19.0740  -33.0760 C   0  0  0  0  0  0  0  0  0  0  0  0
   -7.0610   19.8560  -32.1980 N   0  0  0  0  0  0  0  0  0  0  0  0
   -8.2930   19.3180  -31.5770 C   0  0  0  0  0  0  0  0  0  0  0  0
   -6.6270   21.1310  -31.8820 C   0  0  0  0  0  0  0  0  0  0  0  0
   -7.4590   22.0580  -31.2090 C   0  0  0  0  0  0  0  0  0  0  0  0
   -6.9940   23.3240  -30.8590 C   0  0  0  0  0  0  0  0  0  0  0  0
   -5.6910   23.7230  -31.1800 C   0  0  0  0  0  0  0  0  0  0  0  0
   -5.2110   25.0310  -30.8140 N   0  0  0  0  0  0  0  0  0  0  0  0
   -6.0080   25.9280  -30.4710 O   0  0  0  0  0  0  0  0  0  0  0  0
   -3.8640   25.3120  -30.8280 O   0  0  0  0  0  0  0  0  0  0  0  0
   -4.8670   22.8340  -31.8830 C   0  0  0  0  0  0  0  0  0  0  0  0
   -5.3220   21.5510  -32.2510 C   0  0  0  0  0  0  0  0  0  0  0  0
    0.9865   21.9848  -34.3440 H   0  0  0  0  0  0  0  0  0  0  0  0
    0.8501   20.8271  -35.7107 H   0  0  0  0  0  0  0  0  0  0  0  0
   -0.1250   22.3357  -35.7107 H   0  0  0  0  0  0  0  0  0  0  0  0
   -0.6351   18.8542  -33.6713 H   0  0  0  0  0  0  0  0  0  0  0  0
   -1.5509   19.0525  -35.2038 H   0  0  0  0  0  0  0  0  0  0  0  0
    0.2402   19.1887  -35.2038 H   0  0  0  0  0  0  0  0  0  0  0  0
   -0.1239   20.3653  -32.4279 H   0  0  0  0  0  0  0  0  0  0  0  0
   -0.2817   22.1304  -32.7933 H   0  0  0  0  0  0  0  0  0  0  0  0
   -2.2358   20.2828  -31.6363 H   0  0  0  0  0  0  0  0  0  0  0  0
   -2.2608   22.0880  -31.7538 H   0  0  0  0  0  0  0  0  0  0  0  0
   -2.9290   21.1910  -34.3520 H   0  0  0  0  0  0  0  0  0  0  0  0
   -3.2308   18.9240  -34.5707 H   0  0  0  0  0  0  0  0  0  0  0  0
   -4.1792   16.7973  -35.4441 H   0  0  0  0  0  0  0  0  0  0  0  0
   -6.5145   16.1491  -34.8850 H   0  0  0  0  0  0  0  0  0  0  0  0
   -7.8916   17.5803  -33.3929 H   0  0  0  0  0  0  0  0  0  0  0  0
   -8.1995   19.3588  -30.4817 H   0  0  0  0  0  0  0  0  0  0  0  0
   -9.1568   19.9209  -31.8940 H   0  0  0  0  0  0  0  0  0  0  0  0
   -8.4379   18.2747  -31.8940 H   0  0  0  0  0  0  0  0  0  0  0  0
   -8.4915   21.7736  -30.9578 H   0  0  0  0  0  0  0  0  0  0  0  0
   -7.6587   24.0183  -30.3240 H   0  0  0  0  0  0  0  0  0  0  0  0
   -3.8463   23.1427  -32.1528 H   0  0  0  0  0  0  0  0  0  0  0  0
  1  2  1  0
  2  3  1  0
  2  4  1  0
  4  5  1  0
  5  6  1  0
  6  7  1  0
  7  8  2  0
  8  9  1  0
  9 10  2  0
 10 11  1  0
 11 12  2  0
 12 13  1  0
 13 14  2  0
 14 15  1  0
 14 16  1  0
 16 17  2  0
 17 18  1  0
 18 19  2  0
 19 20  1  0
 20 21  2  0
 20 22  1  0
 19 23  1  0
 23 24  2  0
 24  7  1  0
 13  8  1  0
 24 16  1  0
  1 25  1  0
  1 26  1  0
  1 27  1  0
  3 28  1  0
  3 29  1  0
  3 30  1  0
  4 31  1  0
  4 32  1  0
  5 33  1  0
  5 34  1  0
  6 35  1  0
  9 36  1  0
 10 37  1  0
 11 38  1  0
 12 39  1  0
 15 40  1  0
 15 41  1  0
 15 42  1  0
 17 43  1  0
 18 44  1  0
 23 45  1  0
M  CHG  3  14   1  20   1  22  -1
M  END
>  <UniqueID>  (12) 
12

>  <SMILES>  (12) 
CN(C)CCNc1c2ccccc2[n+](C)c2ccc([N+](=O)[O-])cc12

>  <Energy>  (12) 
72.60511394575248

>  <Genealogy>  (12) 
CN(C)CCNc1c2ccccc2[n+](C)c2ccc([N+](=O)[O-])cc12 (3D coordinates assigned)
CN(C)CCNc1c2ccccc2[n+](C)c2ccc([N+](=O)[O-])cc12 (optimized conformer: 72.60511394575248 kcal/mol)

>  <smiles>  (12) 
CN(C)CCNc1c2ccccc2[n+](C)c2ccc([N+](=O)[O-])cc12

>  <score_type>  (12) 
oracle

>  <origin>  (12) 
adg

>  <m_score__min__energy>  (12) 
-8.6999999999999993

>  <m_primary>  (12) 
energy

$$$$
12:0
     RDKit          3D

 48 50  0  0  0  0  0  0  0  0999 V2000
    1.6230   24.4930  -27.3770 C   0  0  0  0  0  0  0  0  0  0  0  0
    0.5120   24.9230  -28.1560 O   0  0  0  0  0  0  0  0  0  0  0  0
   -0.7980   24.9150  -27.6690 C   0  0  0  0  0  0  0  0  0  0  0  0
   -1.0570   25.3570  -26.3710 C   0  0  0  0  0  0  0  0  0  0  0  0
   -2.3350   25.3590  -25.9050 N   0  0  0  0  0  0  0  0  0  0  0  0
   -3.3670   24.9290  -26.6800 C   0  0  0  0  0  0  0  0  0  0  0  0
   -3.1120   24.4630  -27.9800 C   0  0  0  0  0  0  0  0  0  0  0  0
   -4.1760   24.0200  -28.8430 N   0  0  0  0  0  0  0  0  0  0  0  0
   -5.3610   24.8520  -29.0900 C   0  0  0  0  0  0  0  0  0  0  0  0
   -5.7680   24.8030  -30.5770 C   0  0  0  0  0  0  0  0  0  0  0  0
   -5.2460   23.6060  -31.2840 N   0  0  0  0  0  0  0  0  0  0  0  0
   -6.0030   23.3290  -32.5220 C   0  0  0  0  0  0  0  0  0  0  0  0
   -7.2830   22.5970  -32.2200 C   0  0  0  0  0  0  0  0  0  0  0  0
   -8.4300   23.2670  -31.9760 N   0  0  0  0  0  0  0  0  0  0  0  0
   -9.3540   22.3050  -31.8040 C   0  0  0  0  0  0  0  0  0  0  0  0
   -8.7650   21.0730  -31.9510 C   0  0  0  0  0  0  0  0  0  0  0  0
   -7.4590   21.2470  -32.2290 N   0  0  0  0  0  0  0  0  0  0  0  0
   -6.4950   20.1420  -32.3750 C   0  0  0  0  0  0  0  0  0  0  0  0
   -6.9690   18.8500  -31.6990 C   0  0  0  0  0  0  0  0  0  0  0  0
   -6.1330   19.9210  -33.8470 C   0  0  0  0  0  0  0  0  0  0  0  0
   -5.2380   22.4250  -30.4030 C   0  0  0  0  0  0  0  0  0  0  0  0
   -4.1820   22.6290  -29.3120 C   0  0  0  0  0  0  0  0  0  0  0  0
   -1.8320   24.4840  -28.4410 N   0  0  0  0  0  0  0  0  0  0  0  0
    1.3799   24.5871  -26.3083 H   0  0  0  0  0  0  0  0  0  0  0  0
    1.8497   23.4422  -27.6103 H   0  0  0  0  0  0  0  0  0  0  0  0
    2.4980   25.1174  -27.6103 H   0  0  0  0  0  0  0  0  0  0  0  0
   -0.2331   25.7016  -25.7288 H   0  0  0  0  0  0  0  0  0  0  0  0
   -2.5280   25.7050  -24.9390 H   0  0  0  0  0  0  0  0  0  0  0  0
   -4.3956   24.9462  -26.2905 H   0  0  0  0  0  0  0  0  0  0  0  0
   -6.1952   24.4819  -28.4759 H   0  0  0  0  0  0  0  0  0  0  0  0
   -5.1211   25.8924  -28.8255 H   0  0  0  0  0  0  0  0  0  0  0  0
   -6.8662   24.7954  -30.6394 H   0  0  0  0  0  0  0  0  0  0  0  0
   -5.3341   25.6880  -31.0655 H   0  0  0  0  0  0  0  0  0  0  0  0
   -6.2418   24.2813  -33.0181 H   0  0  0  0  0  0  0  0  0  0  0  0
   -5.3845   22.6974  -33.1767 H   0  0  0  0  0  0  0  0  0  0  0  0
  -10.4170   22.4781  -31.5802 H   0  0  0  0  0  0  0  0  0  0  0  0
   -9.2761   20.1035  -31.8571 H   0  0  0  0  0  0  0  0  0  0  0  0
   -5.5788   20.4408  -31.8445 H   0  0  0  0  0  0  0  0  0  0  0  0
   -6.9249   18.9703  -30.6065 H   0  0  0  0  0  0  0  0  0  0  0  0
   -8.0043   18.6357  -32.0028 H   0  0  0  0  0  0  0  0  0  0  0  0
   -6.3179   18.0171  -32.0028 H   0  0  0  0  0  0  0  0  0  0  0  0
   -5.1958   19.3488  -33.9122 H   0  0  0  0  0  0  0  0  0  0  0  0
   -6.9396   19.3612  -34.3429 H   0  0  0  0  0  0  0  0  0  0  0  0
   -6.0036   20.8943  -34.3429 H   0  0  0  0  0  0  0  0  0  0  0  0
   -6.2284   22.3024  -29.9404 H   0  0  0  0  0  0  0  0  0  0  0  0
   -5.0011   21.5242  -30.9882 H   0  0  0  0  0  0  0  0  0  0  0  0
   -4.4062   21.9642  -28.4648 H   0  0  0  0  0  0  0  0  0  0  0  0
   -3.1926   22.3953  -29.7321 H   0  0  0  0  0  0  0  0  0  0  0  0
  1  2  1  0
  2  3  1  0
  3  4  2  0
  4  5  1  0
  5  6  2  0
  6  7  1  0
  7  8  1  0
  8  9  1  0
  9 10  1  0
 10 11  1  0
 11 12  1  0
 12 13  1  0
 13 14  2  0
 14 15  1  0
 15 16  2  0
 16 17  1  0
 17 18  1  0
 18 19  1  0
 18 20  1  0
 11 21  1  0
 21 22  1  0
  7 23  2  0
 23  3  1  0
 22  8  1  0
 17 13  1  0
  1 24  1  0
  1 25  1  0
  1 26  1  0
  4 27  1  0
  5 28  1  0
  6 29  1  0
  9 30  1  0
  9 31  1  0
 10 32  1  0
 10 33  1  0
 12 34  1  0
 12 35  1  0
 15 36  1  0
 16 37  1  0
 18 38  1  0
 19 39  1  0
 19 40  1  0
 19 41  1  0
 20 42  1  0
 20 43  1  0
 20 44  1  0
 21 45  1  0
 21 46  1  0
 22 47  1  0
 22 48  1  0
M  CHG  1   5   1
M  END
>  <UniqueID>  (13) 
13

>  <SMILES>  (13) 
COc1c[nH+]cc(N2CCN(Cc3nccn3C(C)C)CC2)n1

>  <Energy>  (13) 
82.59702071473133

>  <Genealogy>  (13) 
COc1c[nH+]cc(N2CCN(Cc3nccn3C(C)C)CC2)n1 (protonated)
COc1c[nH+]cc(N2CCN(Cc3nccn3C(C)C)CC2)n1 (3D coordinates assigned)
COc1c[nH+]cc(N2CCN(Cc3nccn3C(C)C)CC2)n1 (nonaromatic ring conformer: 82.59702071473133 kcal/mol)

>  <smiles>  (13) 
COc1cncc(N2CCN(Cc3nccn3C(C)C)CC2)n1

>  <score_type>  (13) 
oracle

>  <origin>  (13) 
adg

>  <m_score__min__energy>  (13) 
-7.1399999999999997

>  <m_primary>  (13) 
energy

$$$$
13:0
     RDKit          3D

 43 45  0  0  0  0  0  0  0  0999 V2000
   -1.6240   20.2490  -26.3760 C   0  0  0  0  0  0  0  0  0  0  0  0
   -1.6080   21.6710  -26.9560 C   0  0  0  0  0  0  0  0  0  0  0  0
   -2.3640   21.8170  -28.2200 N   0  0  0  0  0  0  0  0  0  0  0  0
   -2.2880   20.6360  -29.0970 C   0  0  0  0  0  0  0  0  0  0  0  0
   -3.3980   20.7260  -30.1440 C   0  0  0  0  0  0  0  0  0  0  0  0
   -3.4890   22.0860  -30.7010 N   0  0  0  0  0  0  0  0  0  0  0  0
   -4.6150   22.4580  -31.5230 C   0  0  0  0  0  0  0  0  0  0  0  0
   -4.9430   23.6710  -31.6330 O   0  0  0  0  0  0  0  0  0  0  0  0
   -5.4320   21.4380  -32.2150 C   0  0  0  0  0  0  0  0  0  0  0  0
   -4.7770   20.4980  -33.0180 C   0  0  0  0  0  0  0  0  0  0  0  0
   -5.5160   19.5420  -33.7240 C   0  0  0  0  0  0  0  0  0  0  0  0
   -4.8070   18.5230  -34.5670 C   0  0  0  0  0  0  0  0  0  0  0  0
   -6.8730   19.5020  -33.5980 N   0  0  0  0  0  0  0  0  0  0  0  0
   -7.5470   20.3860  -32.8080 C   0  0  0  0  0  0  0  0  0  0  0  0
   -8.9440   20.3090  -32.6990 C   0  0  0  0  0  0  0  0  0  0  0  0
   -9.6380   21.1980  -31.8760 C   0  0  0  0  0  0  0  0  0  0  0  0
   -8.9450   22.1660  -31.1490 C   0  0  0  0  0  0  0  0  0  0  0  0
   -7.5540   22.2570  -31.2460 C   0  0  0  0  0  0  0  0  0  0  0  0
   -6.8370   21.3800  -32.0870 C   0  0  0  0  0  0  0  0  0  0  0  0
   -2.4120   23.0460  -30.4250 C   0  0  0  0  0  0  0  0  0  0  0  0
   -2.0890   23.0960  -28.9190 C   0  0  0  0  0  0  0  0  0  0  0  0
   -1.6234   20.3011  -25.2772 H   0  0  0  0  0  0  0  0  0  0  0  0
   -2.5281   19.7238  -26.7177 H   0  0  0  0  0  0  0  0  0  0  0  0
   -0.7319   19.7036  -26.7177 H   0  0  0  0  0  0  0  0  0  0  0  0
   -2.0451   22.3526  -26.2114 H   0  0  0  0  0  0  0  0  0  0  0  0
   -0.5586   21.9082  -27.1851 H   0  0  0  0  0  0  0  0  0  0  0  0
   -1.3090   20.6101  -29.5978 H   0  0  0  0  0  0  0  0  0  0  0  0
   -2.4109   19.7198  -28.5007 H   0  0  0  0  0  0  0  0  0  0  0  0
   -3.1833   20.0176  -30.9577 H   0  0  0  0  0  0  0  0  0  0  0  0
   -4.3555   20.4801  -29.6616 H   0  0  0  0  0  0  0  0  0  0  0  0
   -3.6797   20.5104  -33.0945 H   0  0  0  0  0  0  0  0  0  0  0  0
   -4.3010   17.7958  -33.9150 H   0  0  0  0  0  0  0  0  0  0  0  0
   -5.5374   18.0002  -35.2020 H   0  0  0  0  0  0  0  0  0  0  0  0
   -4.0629   19.0261  -35.2020 H   0  0  0  0  0  0  0  0  0  0  0  0
   -7.4060   18.7660  -34.1170 H   0  0  0  0  0  0  0  0  0  0  0  0
   -9.4954   19.5439  -33.2652 H   0  0  0  0  0  0  0  0  0  0  0  0
  -10.7336   21.1349  -31.8007 H   0  0  0  0  0  0  0  0  0  0  0  0
   -9.4955   22.8602  -30.4970 H   0  0  0  0  0  0  0  0  0  0  0  0
   -7.0143   23.0176  -30.6627 H   0  0  0  0  0  0  0  0  0  0  0  0
   -1.5098   22.7428  -30.9765 H   0  0  0  0  0  0  0  0  0  0  0  0
   -2.7424   24.0450  -30.7458 H   0  0  0  0  0  0  0  0  0  0  0  0
   -1.0229   23.3385  -28.7979 H   0  0  0  0  0  0  0  0  0  0  0  0
   -2.7401   23.8606  -28.4701 H   0  0  0  0  0  0  0  0  0  0  0  0
  1  2  1  0
  2  3  1  0
  3  4  1  0
  4  5  1  0
  5  6  1  0
  6  7  1  0
  7  8  2  0
  7  9  1  0
  9 10  2  0
 10 11  1  0
 11 12  1  0
 11 13  2  0
 13 14  1  0
 14 15  2  0
 15 16  1  0
 16 17  2  0
 17 18  1  0
 18 19  2  0
  6 20  1  0
 20 21  1  0
 21  3  1  0
 19  9  1  0
 19 14  1  0
  1 22  1  0
  1 23  1  0
  1 24  1  0
  2 25  1  0
  2 26  1  0
  4 27  1  0
  4 28  1  0
  5 29  1  0
  5 30  1  0
 10 31  1  0
 12 32  1  0
 12 33  1  0
 12 34  1  0
 13 35  1  0
 15 36  1  0
 16 37  1  0
 17 38  1  0
 18 39  1  0
 20 40  1  0
 20 41  1  0
 21 42  1  0
 21 43  1  0
M  CHG  1  13   1
M  END
>  <UniqueID>  (14) 
14

>  <SMILES>  (14) 
CCN1CCN(C(=O)c2cc(C)[nH+]c3ccccc23)CC1

>  <Energy>  (14) 
61.15822629798133

>  <Genealogy>  (14) 
CCN1CCN(C(=O)c2cc(C)[nH+]c3ccccc23)CC1 (protonated)
CCN1CCN(C(=O)c2cc(C)[nH+]c3ccccc23)CC1 (3D coordinates assigned)
CCN1CCN(C(=O)c2cc(C)[nH+]c3ccccc23)CC1 (nonaromatic ring conformer: 61.15822629798133 kcal/mol)

>  <smiles>  (14) 
CCN1CCN(C(=O)c2cc(C)nc3ccccc23)CC1

>  <score_type>  (14) 
oracle

>  <origin>  (14) 
adg

>  <m_score__min__energy>  (14) 
-6.96

>  <m_primary>  (14) 
energy

$$$$
14:0
     RDKit          3D

 58 63  0  0  0  0  0  0  0  0999 V2000
    0.2770   21.2710  -35.4240 C   0  0  0  0  0  0  0  0  0  0  0  0
    1.0540   20.7980  -34.1860 C   0  0  0  0  0  0  0  0  0  0  0  0
    0.1930   20.2110  -33.1340 N   0  0  0  0  0  0  0  0  0  0  0  0
    0.8030   19.0190  -32.5030 C   0  0  0  0  0  0  0  0  0  0  0  0
   -0.0770   18.4790  -31.3800 C   0  0  0  0  0  0  0  0  0  0  0  0
   -0.2880   21.2190  -32.1560 C   0  0  0  0  0  0  0  0  0  0  0  0
   -1.8150   21.3420  -32.2320 C   0  0  0  0  0  0  0  0  0  0  0  0
   -2.3360   20.8070  -33.5010 N   0  0  0  0  0  0  0  0  0  0  0  0
   -3.6180   20.1720  -33.2880 C   0  0  0  0  0  0  0  0  0  0  0  0
   -4.7840   20.8900  -32.9040 C   0  0  0  0  0  0  0  0  0  0  0  0
   -4.7700   22.2900  -32.7270 C   0  0  0  0  0  0  0  0  0  0  0  0
   -5.9180   22.9770  -32.3330 C   0  0  0  0  0  0  0  0  0  0  0  0
   -7.1080   22.2890  -32.0870 C   0  0  0  0  0  0  0  0  0  0  0  0
   -8.2570   22.9770  -31.6680 C   0  0  0  0  0  0  0  0  0  0  0  0
   -9.4370   22.2780  -31.4040 C   0  0  0  0  0  0  0  0  0  0  0  0
   -9.4820   20.8890  -31.5520 C   0  0  0  0  0  0  0  0  0  0  0  0
   -8.3430   20.1890  -31.9760 C   0  0  0  0  0  0  0  0  0  0  0  0
   -8.3610   18.8020  -32.0930 C   0  0  0  0  0  0  0  0  0  0  0  0
   -7.2200   18.1260  -32.5240 C   0  0  0  0  0  0  0  0  0  0  0  0
   -6.0840   18.8040  -32.8840 N   0  0  0  0  0  0  0  0  0  0  0  0
   -4.9750   18.1630  -33.3790 C   0  0  0  0  0  0  0  0  0  0  0  0
   -3.7670   18.8100  -33.5400 C   0  0  0  0  0  0  0  0  0  0  0  0
   -2.8380   17.9920  -33.9830 O   0  0  0  0  0  0  0  0  0  0  0  0
   -3.4070   16.8220  -34.1580 C   0  0  0  0  0  0  0  0  0  0  0  0
   -2.7960   15.6730  -34.6530 C   0  0  0  0  0  0  0  0  0  0  0  0
   -3.5920   14.5360  -34.8560 C   0  0  0  0  0  0  0  0  0  0  0  0
   -4.9750   14.5790  -34.5900 C   0  0  0  0  0  0  0  0  0  0  0  0
   -5.5740   15.7490  -34.0900 C   0  0  0  0  0  0  0  0  0  0  0  0
   -4.7510   16.8560  -33.8280 C   0  0  0  0  0  0  0  0  0  0  0  0
   -6.0080   20.1760  -32.6890 C   0  0  0  0  0  0  0  0  0  0  0  0
   -7.1530   20.8870  -32.2550 C   0  0  0  0  0  0  0  0  0  0  0  0
   -0.6223   21.8185  -35.1054 H   0  0  0  0  0  0  0  0  0  0  0  0
    0.9155   21.9338  -36.0265 H   0  0  0  0  0  0  0  0  0  0  0  0
   -0.0185   20.3994  -36.0265 H   0  0  0  0  0  0  0  0  0  0  0  0
    1.7833   20.0378  -34.5027 H   0  0  0  0  0  0  0  0  0  0  0  0
    1.5367   21.6850  -33.7499 H   0  0  0  0  0  0  0  0  0  0  0  0
    0.9330   18.2364  -33.2650 H   0  0  0  0  0  0  0  0  0  0  0  0
    1.7743   19.3092  -32.0759 H   0  0  0  0  0  0  0  0  0  0  0  0
    0.3622   18.7485  -30.4082 H   0  0  0  0  0  0  0  0  0  0  0  0
   -1.0836   18.9151  -31.4610 H   0  0  0  0  0  0  0  0  0  0  0  0
   -0.1441   17.3840  -31.4610 H   0  0  0  0  0  0  0  0  0  0  0  0
    0.0017   20.9083  -31.1413 H   0  0  0  0  0  0  0  0  0  0  0  0
    0.1635   22.1937  -32.3928 H   0  0  0  0  0  0  0  0  0  0  0  0
   -2.2609   20.7810  -31.3975 H   0  0  0  0  0  0  0  0  0  0  0  0
   -2.0792   22.4081  -32.1720 H   0  0  0  0  0  0  0  0  0  0  0  0
   -2.4400   21.5940  -34.1840 H   0  0  0  0  0  0  0  0  0  0  0  0
   -1.6670   20.1320  -33.9350 H   0  0  0  0  0  0  0  0  0  0  0  0
   -3.8387   22.8484  -32.9026 H   0  0  0  0  0  0  0  0  0  0  0  0
   -5.8858   24.0702  -32.2150 H   0  0  0  0  0  0  0  0  0  0  0  0
   -8.2283   24.0700  -31.5471 H   0  0  0  0  0  0  0  0  0  0  0  0
  -10.3351   22.8232  -31.0781 H   0  0  0  0  0  0  0  0  0  0  0  0
  -10.4125   20.3437  -31.3355 H   0  0  0  0  0  0  0  0  0  0  0  0
   -9.2738   18.2401  -31.8459 H   0  0  0  0  0  0  0  0  0  0  0  0
   -7.2316   17.0273  -32.5762 H   0  0  0  0  0  0  0  0  0  0  0  0
   -1.7195   15.6573  -34.8785 H   0  0  0  0  0  0  0  0  0  0  0  0
   -3.1343   13.6062  -35.2247 H   0  0  0  0  0  0  0  0  0  0  0  0
   -5.5927   13.6879  -34.7754 H   0  0  0  0  0  0  0  0  0  0  0  0
   -6.6580   15.7956  -33.9091 H   0  0  0  0  0  0  0  0  0  0  0  0
  1  2  1  0
  2  3  1  0
  3  4  1  0
  4  5  1  0
  3  6  1  0
  6  7  1  0
  7  8  1  0
  8  9  1  0
  9 10  2  0
 10 11  1  0
 11 12  2  0
 12 13  1  0
 13 14  1  0
 14 15  2  0
 15 16  1  0
 16 17  2  0
 17 18  1  0
 18 19  2  0
 19 20  1  0
 20 21  1  0
 21 22  2  0
 22 23  1  0
 23 24  1  0
 24 25  2  0
 25 26  1  0
 26 27  2  0
 27 28  1  0
 28 29  2  0
 20 30  2  0
 30 31  1  0
 22  9  1  0
 29 24  1  0
 30 10  1  0
 31 13  2  0
 31 17  1  0
 29 21  1  0
  1 32  1  0
  1 33  1  0
  1 34  1  0
  2 35  1  0
  2 36  1  0
  4 37  1  0
  4 38  1  0
  5 39  1  0
  5 40  1  0
  5 41  1  0
  6 42  1  0
  6 43  1  0
  7 44  1  0
  7 45  1  0
  8 46  1  0
  8 47  1  0
 11 48  1  0
 12 49  1  0
 14 50  1  0
 15 51  1  0
 16 52  1  0
 18 53  1  0
 19 54  1  0
 25 55  1  0
 26 56  1  0
 27 57  1  0
 28 58  1  0
M  CHG  2   8   1  20   1
M  END
>  <UniqueID>  (15) 
15

>  <SMILES>  (15) 
CCN(CC)CC[NH2+]c1c2ccc3cccc4cc[n+](c5c1oc1ccccc15)c2c34

>  <Energy>  (15) 
130.2471017757351

>  <Genealogy>  (15) 
CCN(CC)CC[NH2+]c1c2ccc3cccc4cc[n+](c5c1oc1ccccc15)c2c34 (protonated)
CCN(CC)CC[NH2+]c1c2ccc3cccc4cc[n+](c5c1oc1ccccc15)c2c34 (3D coordinates assigned)
CCN(CC)CC[NH2+]c1c2ccc3cccc4cc[n+](c5c1oc1ccccc15)c2c34 (optimized conformer: 130.2471017757351 kcal/mol)

>  <smiles>  (15) 
CCN(CC)CCNc1c2ccc3cccc4cc[n+](c5c1oc1ccccc15)c2c34

>  <score_type>  (15) 
oracle

>  <origin>  (15) 
adg

>  <m_score__min__energy>  (15) 
-8.2400000000000002

>  <m_primary>  (15) 
energy

$$$$
15:0
     RDKit          3D

 63 63  0  0  0  0  0  0  0  0999 V2000
   -9.1400   19.8390  -32.5110 C   0  0  0  0  0  0  0  0  0  0  0  0
   -7.9880   19.2830  -31.6670 C   0  0  0  0  0  0  0  0  0  0  0  0
   -6.7780   18.9930  -32.4620 N   0  0  0  0  0  0  0  0  0  0  0  0
   -6.6060   17.5770  -32.8430 C   0  0  0  0  0  0  0  0  0  0  0  0
   -6.1390   17.4010  -34.3020 C   0  0  0  0  0  0  0  0  0  0  0  0
   -4.7880   18.0860  -34.5600 C   0  0  0  0  0  0  0  0  0  0  0  0
   -4.6390   19.2730  -33.7080 N   0  0  0  0  0  0  0  0  0  0  0  0
   -3.2200   19.5840  -33.4960 C   0  0  0  0  0  0  0  0  0  0  0  0
   -2.9900   20.0720  -32.0600 C   0  0  0  0  0  0  0  0  0  0  0  0
   -3.2990   21.5710  -31.9210 C   0  0  0  0  0  0  0  0  0  0  0  0
   -4.4100   22.0290  -32.8750 C   0  0  0  0  0  0  0  0  0  0  0  0
   -5.6890   21.3800  -32.5530 N   0  0  0  0  0  0  0  0  0  0  0  0
   -6.6920   22.3560  -32.0950 C   0  0  0  0  0  0  0  0  0  0  0  0
   -6.2610   23.8040  -32.3840 C   0  0  0  0  0  0  0  0  0  0  0  0
   -5.9690   24.5740  -31.0940 C   0  0  0  0  0  0  0  0  0  0  0  0
   -4.5120   24.7440  -30.9430 N   0  0  0  0  0  0  0  0  0  0  0  0
   -4.0820   24.7840  -29.5380 C   0  0  0  0  0  0  0  0  0  0  0  0
   -2.5850   24.4740  -29.4100 C   0  0  0  0  0  0  0  0  0  0  0  0
   -2.3670   23.0450  -28.9920 C   0  0  0  0  0  0  0  0  0  0  0  0
   -1.1870   22.3720  -29.3520 C   0  0  0  0  0  0  0  0  0  0  0  0
   -0.9810   21.0480  -28.9510 C   0  0  0  0  0  0  0  0  0  0  0  0
   -1.9490   20.3900  -28.1830 C   0  0  0  0  0  0  0  0  0  0  0  0
   -3.1150   21.0600  -27.8050 C   0  0  0  0  0  0  0  0  0  0  0  0
   -3.3250   22.3830  -28.2060 C   0  0  0  0  0  0  0  0  0  0  0  0
   -9.9300   20.2203  -31.8473 H   0  0  0  0  0  0  0  0  0  0  0  0
   -8.7680   20.6568  -33.1458 H   0  0  0  0  0  0  0  0  0  0  0  0
   -9.5488   19.0390  -33.1458 H   0  0  0  0  0  0  0  0  0  0  0  0
   -7.7309   20.0225  -30.8943 H   0  0  0  0  0  0  0  0  0  0  0  0
   -8.3294   18.3334  -31.2291 H   0  0  0  0  0  0  0  0  0  0  0  0
   -6.8000   19.5700  -33.3350 H   0  0  0  0  0  0  0  0  0  0  0  0
   -5.9420   19.2970  -31.9110 H   0  0  0  0  0  0  0  0  0  0  0  0
   -5.8571   17.1229  -32.1775 H   0  0  0  0  0  0  0  0  0  0  0  0
   -7.5869   17.0882  -32.7490 H   0  0  0  0  0  0  0  0  0  0  0  0
   -6.0391   16.3266  -34.5159 H   0  0  0  0  0  0  0  0  0  0  0  0
   -6.8882   17.8690  -34.9576 H   0  0  0  0  0  0  0  0  0  0  0  0
   -3.9757   17.3780  -34.3388 H   0  0  0  0  0  0  0  0  0  0  0  0
   -4.7443   18.3983  -35.6138 H   0  0  0  0  0  0  0  0  0  0  0  0
   -5.0760   20.0920  -34.1910 H   0  0  0  0  0  0  0  0  0  0  0  0
   -2.6201   18.6790  -33.6720 H   0  0  0  0  0  0  0  0  0  0  0  0
   -2.9195   20.3777  -34.1958 H   0  0  0  0  0  0  0  0  0  0  0  0
   -3.6453   19.5070  -31.3807 H   0  0  0  0  0  0  0  0  0  0  0  0
   -1.9321   19.9115  -31.8051 H   0  0  0  0  0  0  0  0  0  0  0  0
   -3.6158   21.7722  -30.8870 H   0  0  0  0  0  0  0  0  0  0  0  0
   -2.3855   22.1274  -32.1776 H   0  0  0  0  0  0  0  0  0  0  0  0
   -4.5294   23.1191  -32.7895 H   0  0  0  0  0  0  0  0  0  0  0  0
   -4.1259   21.7489  -33.9001 H   0  0  0  0  0  0  0  0  0  0  0  0
   -6.0480   20.8750  -33.3980 H   0  0  0  0  0  0  0  0  0  0  0  0
   -7.6422   22.1583  -32.6127 H   0  0  0  0  0  0  0  0  0  0  0  0
   -6.8015   22.2450  -31.0061 H   0  0  0  0  0  0  0  0  0  0  0  0
   -5.3525   23.7889  -33.0039 H   0  0  0  0  0  0  0  0  0  0  0  0
   -7.0857   24.3101  -32.9071 H   0  0  0  0  0  0  0  0  0  0  0  0
   -6.4508   25.5618  -31.1394 H   0  0  0  0  0  0  0  0  0  0  0  0
   -6.3641   24.0129  -30.2343 H   0  0  0  0  0  0  0  0  0  0  0  0
   -4.2410   25.6580  -31.3780 H   0  0  0  0  0  0  0  0  0  0  0  0
   -4.2774   25.7870  -29.1308 H   0  0  0  0  0  0  0  0  0  0  0  0
   -4.6457   24.0232  -28.9781 H   0  0  0  0  0  0  0  0  0  0  0  0
   -2.0976   24.6435  -30.3815 H   0  0  0  0  0  0  0  0  0  0  0  0
   -2.1534   25.1344  -28.6435 H   0  0  0  0  0  0  0  0  0  0  0  0
   -0.4227   22.8884  -29.9513 H   0  0  0  0  0  0  0  0  0  0  0  0
   -0.0580   20.5235  -29.2392 H   0  0  0  0  0  0  0  0  0  0  0  0
   -1.7914   19.3452  -27.8771 H   0  0  0  0  0  0  0  0  0  0  0  0
   -3.8692   20.5460  -27.1909 H   0  0  0  0  0  0  0  0  0  0  0  0
   -4.2438   22.9075  -27.9049 H   0  0  0  0  0  0  0  0  0  0  0  0
  1  2  1  0
  2  3  1  0
  3  4  1  0
  4  5  1  0
  5  6  1  0
  6  7  1  0
  7  8  1  0
  8  9  1  0
  9 10  1  0
 10 11  1  0
 11 12  1  0
 12 13  1  0
 13 14  1  0
 14 15  1  0
 15 16  1  0
 16 17  1  0
 17 18  1  0
 18 19  1  0
 19 20  2  0
 20 21  1  0
 21 22  2  0
 22 23  1  0
 23 24  2  0
 24 19  1  0
  1 25  1  0
  1 26  1  0
  1 27  1  0
  2 28  1  0
  2 29  1  0
  3 30  1  0
  3 31  1  0
  4 32  1  0
  4 33  1  0
  5 34  1  0
  5 35  1  0
  6 36  1  0
  6 37  1  0
  7 38  1  0
  8 39  1  0
  8 40  1  0
  9 41  1  0
  9 42  1  0
 10 43  1  0
 10 44  1  0
 11 45  1  0
 11 46  1  0
 12 47  1  0
 13 48  1  0
 13 49  1  0
 14 50  1  0
 14 51  1  0
 15 52  1  0
 15 53  1  0
 16 54  1  0
 17 55  1  0
 17 56  1  0
 18 57  1  0
 18 58  1  0
 20 59  1  0
 21 60  1  0
 22 61  1  0
 23 62  1  0
 24 63  1  0
M  CHG  1   3   1
M  END
>  <UniqueID>  (16) 
16

>  <SMILES>  (16) 
CC[NH2+]CCCNCCCCNCCCNCCc1ccccc1

>  <Energy>  (16) 
45.9226373579856

>  <Genealogy>  (16) 
CC[NH2+]CCCNCCCCNCCCNCCc1ccccc1 (protonated)
CC[NH2+]CCCNCCCCNCCCNCCc1ccccc1 (3D coordinates assigned)
CC[NH2+]CCCNCCCCNCCCNCCc1ccccc1 (optimized conformer: 45.9226373579856 kcal/mol)

>  <smiles>  (16) 
CCNCCCNCCCCNCCCNCCc1ccccc1

>  <score_type>  (16) 
oracle

>  <origin>  (16) 
adg

>  <m_score__min__energy>  (16) 
-8.0800000000000001

>  <m_primary>  (16) 
energy

$$$$
16:0
     RDKit          3D

 40 43  0  0  0  0  0  0  0  0999 V2000
   -4.8190   12.6450  -35.4160 C   0  0  0  0  0  0  0  0  0  0  0  0
   -4.0860   13.8290  -35.1190 O   0  0  0  0  0  0  0  0  0  0  0  0
   -4.5110   14.8210  -34.2220 C   0  0  0  0  0  0  0  0  0  0  0  0
   -4.8770   16.1150  -34.6570 C   0  0  0  0  0  0  0  0  0  0  0  0
   -5.2990   17.0530  -33.7170 C   0  0  0  0  0  0  0  0  0  0  0  0
   -5.3540   16.7450  -32.3820 C   0  0  0  0  0  0  0  0  0  0  0  0
   -4.9900   15.4820  -31.9180 C   0  0  0  0  0  0  0  0  0  0  0  0
   -4.5680   14.5030  -32.8470 C   0  0  0  0  0  0  0  0  0  0  0  0
   -4.1970   13.2100  -32.4460 O   0  0  0  0  0  0  0  0  0  0  0  0
   -4.6950   12.5520  -31.2860 C   0  0  0  0  0  0  0  0  0  0  0  0
   -5.7830   17.9010  -31.5600 C   0  0  0  0  0  0  0  0  0  0  0  0
   -6.2770   18.9290  -32.6200 C   0  0  0  0  0  0  0  0  0  0  0  0
   -5.6830   18.4610  -33.9790 C   0  0  0  0  0  0  0  0  0  0  0  0
   -7.8420   19.0260  -32.6610 C   0  0  0  0  0  0  0  0  0  0  0  0
   -8.1360   20.4570  -32.3420 C   0  0  0  0  0  0  0  0  0  0  0  0
   -9.4010   21.0450  -32.2590 C   0  0  0  0  0  0  0  0  0  0  0  0
   -9.4930   22.4090  -31.9470 C   0  0  0  0  0  0  0  0  0  0  0  0
   -8.3290   23.1650  -31.7240 C   0  0  0  0  0  0  0  0  0  0  0  0
   -7.0620   22.5640  -31.8110 C   0  0  0  0  0  0  0  0  0  0  0  0
   -5.4960   23.6190  -31.5020 Br  0  0  0  0  0  0  0  0  0  0  0  0
   -6.9980   21.1970  -32.1250 C   0  0  0  0  0  0  0  0  0  0  0  0
   -5.8480   20.3310  -32.2770 C   0  0  0  0  0  0  0  0  0  0  0  0
   -4.6490   20.6970  -32.1430 O   0  0  0  0  0  0  0  0  0  0  0  0
   -5.1216   12.1562  -34.4782 H   0  0  0  0  0  0  0  0  0  0  0  0
   -5.7145   12.9048  -35.9996 H   0  0  0  0  0  0  0  0  0  0  0  0
   -4.1872   11.9593  -35.9996 H   0  0  0  0  0  0  0  0  0  0  0  0
   -4.8293   16.3782  -35.7240 H   0  0  0  0  0  0  0  0  0  0  0  0
   -5.0305   15.2500  -30.8435 H   0  0  0  0  0  0  0  0  0  0  0  0
   -4.3133   13.0564  -30.3861 H   0  0  0  0  0  0  0  0  0  0  0  0
   -5.7944   12.5876  -31.2878 H   0  0  0  0  0  0  0  0  0  0  0  0
   -4.3621   11.5036  -31.2878 H   0  0  0  0  0  0  0  0  0  0  0  0
   -6.5967   17.6181  -30.8760 H   0  0  0  0  0  0  0  0  0  0  0  0
   -4.9809   18.2951  -30.9187 H   0  0  0  0  0  0  0  0  0  0  0  0
   -6.4350   18.5219  -34.7795 H   0  0  0  0  0  0  0  0  0  0  0  0
   -4.8397   19.0814  -34.3165 H   0  0  0  0  0  0  0  0  0  0  0  0
   -8.2219   18.7641  -33.6595 H   0  0  0  0  0  0  0  0  0  0  0  0
   -8.3231   18.3325  -31.9556 H   0  0  0  0  0  0  0  0  0  0  0  0
  -10.3083   20.4486  -32.4353 H   0  0  0  0  0  0  0  0  0  0  0  0
  -10.4800   22.8894  -31.8765 H   0  0  0  0  0  0  0  0  0  0  0  0
   -8.4107   24.2344  -31.4797 H   0  0  0  0  0  0  0  0  0  0  0  0
  1  2  1  0
  2  3  1  0
  3  4  2  0
  4  5  1  0
  5  6  2  0
  6  7  1  0
  7  8  2  0
  8  9  1  0
  9 10  1  0
  6 11  1  0
 11 12  1  0
 12 13  1  0
 12 14  1  0
 14 15  1  0
 15 16  2  0
 16 17  1  0
 17 18  2  0
 18 19  1  0
 19 20  1  0
 19 21  2  0
 21 22  1  0
 22 23  2  0
  8  3  1  0
 22 12  1  0
 13  5  1  0
 21 15  1  0
  1 24  1  0
  1 25  1  0
  1 26  1  0
  4 27  1  0
  7 28  1  0
 10 29  1  0
 10 30  1  0
 10 31  1  0
 11 32  1  0
 11 33  1  0
 13 34  1  0
 13 35  1  0
 14 36  1  0
 14 37  1  0
 16 38  1  0
 17 39  1  0
 18 40  1  0
M  END
>  <UniqueID>  (17) 
17

>  <SMILES>  (17) 
COc1cc2c(cc1OC)CC1(C2)Cc2cccc(Br)c2C1=O

>  <Energy>  (17) 
69.41953649024148

>  <Genealogy>  (17) 
COc1cc2c(cc1OC)CC1(C2)Cc2cccc(Br)c2C1=O (3D coordinates assigned)
COc1cc2c(cc1OC)CC1(C2)Cc2cccc(Br)c2C1=O (nonaromatic ring conformer: 69.41953649024148 kcal/mol)

>  <smiles>  (17) 
COc1cc2c(cc1OC)CC1(C2)Cc2cccc(Br)c2C1=O

>  <score_type>  (17) 
oracle

>  <origin>  (17) 
adg

>  <m_score__min__energy>  (17) 
-7.8799999999999999

>  <m_primary>  (17) 
energy

$$$$
17:0
     RDKit          3D

 45 47  0  0  0  0  0  0  0  0999 V2000
   -6.4870   25.6670  -29.4210 C   0  0  0  0  0  0  0  0  0  0  0  0
   -5.3830   25.8510  -30.4590 C   0  0  0  0  0  0  0  0  0  0  0  0
   -4.8680   24.5350  -30.9050 N   0  0  0  0  0  0  0  0  0  0  0  0
   -3.7610   24.0670  -30.0390 C   0  0  0  0  0  0  0  0  0  0  0  0
   -4.2840   23.1710  -28.9170 C   0  0  0  0  0  0  0  0  0  0  0  0
   -5.9540   23.5250  -30.9970 C   0  0  0  0  0  0  0  0  0  0  0  0
   -5.8570   22.7590  -32.3200 C   0  0  0  0  0  0  0  0  0  0  0  0
   -5.9770   21.3110  -32.1080 N   0  0  0  0  0  0  0  0  0  0  0  0
   -4.9850   20.3740  -32.1180 C   0  0  0  0  0  0  0  0  0  0  0  0
   -3.5460   20.6660  -32.2300 C   0  0  0  0  0  0  0  0  0  0  0  0
   -2.8610   20.4970  -33.4410 C   0  0  0  0  0  0  0  0  0  0  0  0
   -1.4990   20.7980  -33.5050 C   0  0  0  0  0  0  0  0  0  0  0  0
   -0.8380   21.2750  -32.3710 C   0  0  0  0  0  0  0  0  0  0  0  0
   -1.5590   21.4540  -31.1860 C   0  0  0  0  0  0  0  0  0  0  0  0
   -0.6920   22.1210  -29.6250 Br  0  0  0  0  0  0  0  0  0  0  0  0
   -2.8840   21.1540  -31.1450 N   0  0  0  0  0  0  0  0  0  0  0  0
   -5.4660   19.1060  -32.1240 N   0  0  0  0  0  0  0  0  0  0  0  0
   -6.7990   19.2530  -32.1090 C   0  0  0  0  0  0  0  0  0  0  0  0
   -7.7720   18.2580  -32.1610 C   0  0  0  0  0  0  0  0  0  0  0  0
   -9.1170   18.6630  -32.2060 C   0  0  0  0  0  0  0  0  0  0  0  0
   -9.4520   20.0360  -32.2100 C   0  0  0  0  0  0  0  0  0  0  0  0
   -8.4440   21.0170  -32.1660 C   0  0  0  0  0  0  0  0  0  0  0  0
   -7.1160   20.5830  -32.1050 C   0  0  0  0  0  0  0  0  0  0  0  0
   -6.0566   25.7387  -28.4113 H   0  0  0  0  0  0  0  0  0  0  0  0
   -7.2477   26.4508  -29.5519 H   0  0  0  0  0  0  0  0  0  0  0  0
   -6.9523   24.6789  -29.5519 H   0  0  0  0  0  0  0  0  0  0  0  0
   -5.7874   26.3945  -31.3257 H   0  0  0  0  0  0  0  0  0  0  0  0
   -4.5589   26.4214  -30.0057 H   0  0  0  0  0  0  0  0  0  0  0  0
   -3.0434   23.4982  -30.6485 H   0  0  0  0  0  0  0  0  0  0  0  0
   -3.2740   24.9443  -29.5884 H   0  0  0  0  0  0  0  0  0  0  0  0
   -4.0256   23.6136  -27.9437 H   0  0  0  0  0  0  0  0  0  0  0  0
   -5.3771   23.0800  -28.9998 H   0  0  0  0  0  0  0  0  0  0  0  0
   -3.8257   22.1744  -28.9998 H   0  0  0  0  0  0  0  0  0  0  0  0
   -5.8628   22.8169  -30.1602 H   0  0  0  0  0  0  0  0  0  0  0  0
   -6.9255   24.0390  -30.9516 H   0  0  0  0  0  0  0  0  0  0  0  0
   -6.6660   23.0918  -32.9869 H   0  0  0  0  0  0  0  0  0  0  0  0
   -4.8738   22.9640  -32.7686 H   0  0  0  0  0  0  0  0  0  0  0  0
   -3.3912   20.1308  -34.3325 H   0  0  0  0  0  0  0  0  0  0  0  0
   -0.9477   20.6597  -34.4468 H   0  0  0  0  0  0  0  0  0  0  0  0
    0.2366   21.5071  -32.4093 H   0  0  0  0  0  0  0  0  0  0  0  0
   -4.9230   18.2150  -32.1640 H   0  0  0  0  0  0  0  0  0  0  0  0
   -7.4975   17.1928  -32.1666 H   0  0  0  0  0  0  0  0  0  0  0  0
   -9.9145   17.9061  -32.2383 H   0  0  0  0  0  0  0  0  0  0  0  0
  -10.5085   20.3401  -32.2478 H   0  0  0  0  0  0  0  0  0  0  0  0
   -8.6922   22.0886  -32.1791 H   0  0  0  0  0  0  0  0  0  0  0  0
  1  2  1  0
  2  3  1  0
  3  4  1  0
  4  5  1  0
  3  6  1  0
  6  7  1  0
  7  8  1  0
  8  9  1  0
  9 10  1  0
 10 11  2  0
 11 12  1  0
 12 13  2  0
 13 14  1  0
 14 15  1  0
 14 16  2  0
  9 17  2  0
 17 18  1  0
 18 19  2  0
 19 20  1  0
 20 21  2  0
 21 22  1  0
 22 23  2  0
 23  8  1  0
 16 10  1  0
 23 18  1  0
  1 24  1  0
  1 25  1  0
  1 26  1  0
  2 27  1  0
  2 28  1  0
  4 29  1  0
  4 30  1  0
  5 31  1  0
  5 32  1  0
  5 33  1  0
  6 34  1  0
  6 35  1  0
  7 36  1  0
  7 37  1  0
 11 38  1  0
 12 39  1  0
 13 40  1  0
 17 41  1  0
 19 42  1  0
 20 43  1  0
 21 44  1  0
 22 45  1  0
M  CHG  1  17   1
M  END
>  <UniqueID>  (18) 
18

>  <SMILES>  (18) 
CCN(CC)CCn1c(-c2cccc(Br)n2)[nH+]c2ccccc21

>  <Energy>  (18) 
86.48337945080335

>  <Genealogy>  (18) 
CCN(CC)CCn1c(-c2cccc(Br)n2)[nH+]c2ccccc21 (protonated)
CCN(CC)CCn1c(-c2cccc(Br)n2)[nH+]c2ccccc21 (3D coordinates assigned)
CCN(CC)CCn1c(-c2cccc(Br)n2)[nH+]c2ccccc21 (optimized conformer: 86.48337945080335 kcal/mol)

>  <smiles>  (18) 
CCN(CC)CCn1c(-c2cccc(Br)n2)nc2ccccc21

>  <score_type>  (18) 
oracle

>  <origin>  (18) 
adg

>  <m_score__min__energy>  (18) 
-7.6699999999999999

>  <m_primary>  (18) 
energy

$$$$
18:0
     RDKit          3D

 52 54  0  0  0  0  0  0  0  0999 V2000
   -3.6970   23.0080  -27.6170 C   0  0  0  0  0  0  0  0  0  0  0  0
   -3.2750   24.1100  -28.5830 C   0  0  0  0  0  0  0  0  0  0  0  0
   -4.0610   24.0210  -29.8380 N   0  0  0  0  0  0  0  0  0  0  0  0
   -5.4570   24.4720  -29.6240 C   0  0  0  0  0  0  0  0  0  0  0  0
   -5.7370   25.7390  -30.4280 C   0  0  0  0  0  0  0  0  0  0  0  0
   -4.0230   22.6470  -30.3890 C   0  0  0  0  0  0  0  0  0  0  0  0
   -3.0940   22.5850  -31.6110 C   0  0  0  0  0  0  0  0  0  0  0  0
   -3.3020   21.3100  -32.4350 C   0  0  0  0  0  0  0  0  0  0  0  0
   -4.4720   21.4300  -33.3060 N   0  0  0  0  0  0  0  0  0  0  0  0
   -5.6660   20.6660  -33.0600 C   0  0  0  0  0  0  0  0  0  0  0  0
   -6.8100   21.2920  -32.5340 C   0  0  0  0  0  0  0  0  0  0  0  0
   -6.8480   22.6920  -32.3500 C   0  0  0  0  0  0  0  0  0  0  0  0
   -7.9990   23.3160  -31.8770 C   0  0  0  0  0  0  0  0  0  0  0  0
   -9.1360   22.5650  -31.6020 C   0  0  0  0  0  0  0  0  0  0  0  0
   -9.1230   21.1830  -31.7800 C   0  0  0  0  0  0  0  0  0  0  0  0
   -7.9550   20.5110  -32.2200 C   0  0  0  0  0  0  0  0  0  0  0  0
   -7.9170   19.1370  -32.3670 N   0  0  0  0  0  0  0  0  0  0  0  0
   -8.9820   18.2990  -31.7720 C   0  0  0  0  0  0  0  0  0  0  0  0
   -6.8750   18.5450  -33.0570 C   0  0  0  0  0  0  0  0  0  0  0  0
   -6.9250   17.1850  -33.4610 C   0  0  0  0  0  0  0  0  0  0  0  0
   -5.8460   16.5860  -34.1100 C   0  0  0  0  0  0  0  0  0  0  0  0
   -4.7010   17.3230  -34.3900 C   0  0  0  0  0  0  0  0  0  0  0  0
   -3.3450   16.5620  -35.2040 Cl  0  0  0  0  0  0  0  0  0  0  0  0
   -4.6400   18.6700  -34.0450 C   0  0  0  0  0  0  0  0  0  0  0  0
   -5.7190   19.3000  -33.3920 C   0  0  0  0  0  0  0  0  0  0  0  0
   -3.5635   23.3565  -26.5822 H   0  0  0  0  0  0  0  0  0  0  0  0
   -4.7547   22.7575  -27.7860 H   0  0  0  0  0  0  0  0  0  0  0  0
   -3.0772   22.1151  -27.7860 H   0  0  0  0  0  0  0  0  0  0  0  0
   -3.4487   25.0899  -28.1144 H   0  0  0  0  0  0  0  0  0  0  0  0
   -2.2074   23.9902  -28.8193 H   0  0  0  0  0  0  0  0  0  0  0  0
   -6.1475   23.6786  -29.9461 H   0  0  0  0  0  0  0  0  0  0  0  0
   -5.6017   24.6888  -28.5553 H   0  0  0  0  0  0  0  0  0  0  0  0
   -5.9221   26.5767  -29.7395 H   0  0  0  0  0  0  0  0  0  0  0  0
   -4.8683   25.9705  -31.0619 H   0  0  0  0  0  0  0  0  0  0  0  0
   -6.6223   25.5828  -31.0619 H   0  0  0  0  0  0  0  0  0  0  0  0
   -3.6523   21.9570  -29.6167 H   0  0  0  0  0  0  0  0  0  0  0  0
   -5.0385   22.3585  -30.6981 H   0  0  0  0  0  0  0  0  0  0  0  0
   -3.2933   23.4567  -32.2516 H   0  0  0  0  0  0  0  0  0  0  0  0
   -2.0565   22.5842  -31.2455 H   0  0  0  0  0  0  0  0  0  0  0  0
   -2.4101   21.1329  -33.0540 H   0  0  0  0  0  0  0  0  0  0  0  0
   -3.4661   20.4703  -31.7436 H   0  0  0  0  0  0  0  0  0  0  0  0
   -4.3720   21.9350  -34.2160 H   0  0  0  0  0  0  0  0  0  0  0  0
   -5.9585   23.2957  -32.5830 H   0  0  0  0  0  0  0  0  0  0  0  0
   -8.0088   24.4048  -31.7207 H   0  0  0  0  0  0  0  0  0  0  0  0
  -10.0486   23.0631  -31.2428 H   0  0  0  0  0  0  0  0  0  0  0  0
  -10.0352   20.6033  -31.5755 H   0  0  0  0  0  0  0  0  0  0  0  0
   -8.9182   18.3492  -30.6750 H   0  0  0  0  0  0  0  0  0  0  0  0
   -9.9651   18.6683  -32.0994 H   0  0  0  0  0  0  0  0  0  0  0  0
   -8.8543   17.2566  -32.0994 H   0  0  0  0  0  0  0  0  0  0  0  0
   -7.8302   16.5938  -33.2586 H   0  0  0  0  0  0  0  0  0  0  0  0
   -5.9010   15.5267  -34.4014 H   0  0  0  0  0  0  0  0  0  0  0  0
   -3.7374   19.2511  -34.2852 H   0  0  0  0  0  0  0  0  0  0  0  0
  1  2  1  0
  2  3  1  0
  3  4  1  0
  4  5  1  0
  3  6  1  0
  6  7  1  0
  7  8  1  0
  8  9  1  0
  9 10  1  0
 10 11  2  0
 11 12  1  0
 12 13  2  0
 13 14  1  0
 14 15  2  0
 15 16  1  0
 16 17  2  0
 17 18  1  0
 17 19  1  0
 19 20  2  0
 20 21  1  0
 21 22  2  0
 22 23  1  0
 22 24  1  0
 24 25  2  0
 25 10  1  0
 16 11  1  0
 25 19  1  0
  1 26  1  0
  1 27  1  0
  1 28  1  0
  2 29  1  0
  2 30  1  0
  4 31  1  0
  4 32  1  0
  5 33  1  0
  5 34  1  0
  5 35  1  0
  6 36  1  0
  6 37  1  0
  7 38  1  0
  7 39  1  0
  8 40  1  0
  8 41  1  0
  9 42  1  0
 12 43  1  0
 13 44  1  0
 14 45  1  0
 15 46  1  0
 18 47  1  0
 18 48  1  0
 18 49  1  0
 20 50  1  0
 21 51  1  0
 24 52  1  0
M  CHG  1  17   1
M  END
>  <UniqueID>  (19) 
19

>  <SMILES>  (19) 
CCN(CC)CCCNc1c2ccccc2[n+](C)c2ccc(Cl)cc12

>  <Energy>  (19) 
73.30387223007753

>  <Genealogy>  (19) 
CCN(CC)CCCNc1c2ccccc2[n+](C)c2ccc(Cl)cc12 (3D coordinates assigned)
CCN(CC)CCCNc1c2ccccc2[n+](C)c2ccc(Cl)cc12 (optimized conformer: 73.30387223007753 kcal/mol)

>  <smiles>  (19) 
CCN(CC)CCCNc1c2ccccc2[n+](C)c2ccc(Cl)cc12

>  <score_type>  (19) 
oracle

>  <origin>  (19) 
adg

>  <m_score__min__energy>  (19) 
-9.2300000000000004

>  <m_primary>  (19) 
energy

$$$$
19:0
     RDKit          3D

 55 58  0  0  0  0  0  0  0  0999 V2000
   -6.4800   24.9300  -30.0420 C   0  0  0  0  0  0  0  0  0  0  0  0
   -6.0310   23.5960  -29.8250 O   0  0  0  0  0  0  0  0  0  0  0  0
   -5.2530   22.8570  -30.7320 C   0  0  0  0  0  0  0  0  0  0  0  0
   -5.8450   21.9800  -31.6660 C   0  0  0  0  0  0  0  0  0  0  0  0
   -5.0520   21.2400  -32.5440 C   0  0  0  0  0  0  0  0  0  0  0  0
   -3.6640   21.3640  -32.5080 C   0  0  0  0  0  0  0  0  0  0  0  0
   -3.0630   22.2310  -31.5940 C   0  0  0  0  0  0  0  0  0  0  0  0
   -3.8450   22.9820  -30.6960 C   0  0  0  0  0  0  0  0  0  0  0  0
   -3.1830   23.9040  -29.7410 C   0  0  0  0  0  0  0  0  0  0  0  0
   -3.4040   25.1430  -29.8140 O   0  0  0  0  0  0  0  0  0  0  0  0
   -2.2590   23.4040  -28.7000 C   0  0  0  0  0  0  0  0  0  0  0  0
   -1.2500   24.1170  -28.0420 C   0  0  0  0  0  0  0  0  0  0  0  0
   -0.8780   25.5520  -28.2980 C   0  0  0  0  0  0  0  0  0  0  0  0
   -0.6550   23.3340  -27.1010 N   0  0  0  0  0  0  0  0  0  0  0  0
    0.3670   23.7400  -26.1300 C   0  0  0  0  0  0  0  0  0  0  0  0
   -0.3020   24.1340  -24.8010 C   0  0  0  0  0  0  0  0  0  0  0  0
    0.3120   25.3010  -24.1150 N   0  0  0  0  0  0  0  0  0  0  0  0
    1.2830   26.0420  -24.9590 C   0  0  0  0  0  0  0  0  0  0  0  0
    0.6490   27.1790  -25.7990 C   0  0  0  0  0  0  0  0  0  0  0  0
   -0.7040   27.4300  -25.4770 O   0  0  0  0  0  0  0  0  0  0  0  0
   -0.8420   27.5450  -24.0820 C   0  0  0  0  0  0  0  0  0  0  0  0
   -0.6790   26.1700  -23.4200 C   0  0  0  0  0  0  0  0  0  0  0  0
   -1.2890   22.1410  -27.1510 C   0  0  0  0  0  0  0  0  0  0  0  0
   -1.0790   21.0210  -26.3370 C   0  0  0  0  0  0  0  0  0  0  0  0
   -1.8930   19.8940  -26.5400 C   0  0  0  0  0  0  0  0  0  0  0  0
   -2.9020   19.9070  -27.5260 C   0  0  0  0  0  0  0  0  0  0  0  0
   -3.1030   21.0470  -28.3210 C   0  0  0  0  0  0  0  0  0  0  0  0
   -2.2660   22.1480  -28.1170 C   0  0  0  0  0  0  0  0  0  0  0  0
   -6.6460   25.4232  -29.0729 H   0  0  0  0  0  0  0  0  0  0  0  0
   -5.7192   25.4851  -30.6104 H   0  0  0  0  0  0  0  0  0  0  0  0
   -7.4216   24.9121  -30.6104 H   0  0  0  0  0  0  0  0  0  0  0  0
   -6.9398   21.8790  -31.7021 H   0  0  0  0  0  0  0  0  0  0  0  0
   -5.5233   20.5572  -33.2662 H   0  0  0  0  0  0  0  0  0  0  0  0
   -3.0418   20.7781  -33.2005 H   0  0  0  0  0  0  0  0  0  0  0  0
   -1.9675   22.3284  -31.5752 H   0  0  0  0  0  0  0  0  0  0  0  0
   -0.7430   26.0726  -27.3384 H   0  0  0  0  0  0  0  0  0  0  0  0
    0.0599   25.5910  -28.8714 H   0  0  0  0  0  0  0  0  0  0  0  0
   -1.6789   26.0417  -28.8714 H   0  0  0  0  0  0  0  0  0  0  0  0
    1.0585   22.9024  -25.9562 H   0  0  0  0  0  0  0  0  0  0  0  0
    0.9216   24.6031  -26.5267 H   0  0  0  0  0  0  0  0  0  0  0  0
   -1.3558   24.3735  -25.0064 H   0  0  0  0  0  0  0  0  0  0  0  0
   -0.1753   23.2758  -24.1246 H   0  0  0  0  0  0  0  0  0  0  0  0
    0.8890   24.8680  -23.3550 H   0  0  0  0  0  0  0  0  0  0  0  0
    2.0471   26.4825  -24.3016 H   0  0  0  0  0  0  0  0  0  0  0  0
    1.7038   25.3169  -25.6712 H   0  0  0  0  0  0  0  0  0  0  0  0
    1.2245   28.1007  -25.6280 H   0  0  0  0  0  0  0  0  0  0  0  0
    0.6774   26.8588  -26.8510 H   0  0  0  0  0  0  0  0  0  0  0  0
   -0.0716   28.2284  -23.6954 H   0  0  0  0  0  0  0  0  0  0  0  0
   -1.8426   27.9392  -23.8508 H   0  0  0  0  0  0  0  0  0  0  0  0
   -0.3473   26.3183  -22.3817 H   0  0  0  0  0  0  0  0  0  0  0  0
   -1.6538   25.6629  -23.4722 H   0  0  0  0  0  0  0  0  0  0  0  0
   -0.2993   21.0235  -25.5611 H   0  0  0  0  0  0  0  0  0  0  0  0
   -1.7424   18.9943  -25.9253 H   0  0  0  0  0  0  0  0  0  0  0  0
   -3.5347   19.0193  -27.6728 H   0  0  0  0  0  0  0  0  0  0  0  0
   -3.8964   21.0729  -29.0825 H   0  0  0  0  0  0  0  0  0  0  0  0
  1  2  1  0
  2  3  1  0
  3  4  2  0
  4  5  1  0
  5  6  2  0
  6  7  1  0
  7  8  2  0
  8  9  1  0
  9 10  2  0
  9 11  1  0
 11 12  2  0
 12 13  1  0
 12 14  1  0
 14 15  1  0
 15 16  1  0
 16 17  1  0
 17 18  1  0
 18 19  1  0
 19 20  1  0
 20 21  1  0
 21 22  1  0
 14 23  1  0
 23 24  2  0
 24 25  1  0
 25 26  2  0
 26 27  1  0
 27 28  2  0
  8  3  1  0
 28 11  1  0
 22 17  1  0
 28 23  1  0
  1 29  1  0
  1 30  1  0
  1 31  1  0
  4 32  1  0
  5 33  1  0
  6 34  1  0
  7 35  1  0
 13 36  1  0
 13 37  1  0
 13 38  1  0
 15 39  1  0
 15 40  1  0
 16 41  1  0
 16 42  1  0
 17 43  1  0
 18 44  1  0
 18 45  1  0
 19 46  1  0
 19 47  1  0
 21 48  1  0
 21 49  1  0
 22 50  1  0
 22 51  1  0
 24 52  1  0
 25 53  1  0
 26 54  1  0
 27 55  1  0
M  CHG  1  17   1
M  END
>  <UniqueID>  (20) 
20

>  <SMILES>  (20) 
COc1ccccc1C(=O)c1c(C)n(CC[NH+]2CCOCC2)c2ccccc12

>  <Energy>  (20) 
113.18758548731532

>  <Genealogy>  (20) 
COc1ccccc1C(=O)c1c(C)n(CC[NH+]2CCOCC2)c2ccccc12 (protonated)
COc1ccccc1C(=O)c1c(C)n(CC[NH+]2CCOCC2)c2ccccc12 (3D coordinates assigned)
COc1ccccc1C(=O)c1c(C)n(CC[NH+]2CCOCC2)c2ccccc12 (nonaromatic ring conformer: 113.18758548731532 kcal/mol)

>  <smiles>  (20) 
COc1ccccc1C(=O)c1c(C)n(CCN2CCOCC2)c2ccccc12

>  <score_type>  (20) 
oracle

>  <origin>  (20) 
adg

>  <m_score__min__energy>  (20) 
-8.9800000000000004

>  <m_primary>  (20) 
energy

$$$$
20:0
     RDKit          3D

 47 48  0  0  0  0  0  0  0  0999 V2000
   -2.6030   24.8200  -28.6070 C   0  0  0  0  0  0  0  0  0  0  0  0
   -3.1380   24.8940  -29.9240 O   0  0  0  0  0  0  0  0  0  0  0  0
   -3.9480   23.9090  -30.5140 C   0  0  0  0  0  0  0  0  0  0  0  0
   -5.1250   24.2290  -31.2090 C   0  0  0  0  0  0  0  0  0  0  0  0
   -5.9180   23.2280  -31.7990 C   0  0  0  0  0  0  0  0  0  0  0  0
   -5.5260   21.8650  -31.6860 C   0  0  0  0  0  0  0  0  0  0  0  0
   -4.3470   21.5650  -30.9730 C   0  0  0  0  0  0  0  0  0  0  0  0
   -3.5560   22.5740  -30.3980 C   0  0  0  0  0  0  0  0  0  0  0  0
   -2.3720   22.2860  -29.6990 O   0  0  0  0  0  0  0  0  0  0  0  0
   -1.1600   21.8480  -30.3050 C   0  0  0  0  0  0  0  0  0  0  0  0
   -6.3320   20.6750  -32.2230 C   0  0  2  0  0  0  0  0  0  0  0  0
   -5.8310   20.0850  -33.5830 C   0  0  0  0  0  0  0  0  0  0  0  0
   -4.9200   18.9070  -33.5730 N   0  0  0  0  0  0  0  0  0  0  0  0
   -5.1260   17.9710  -34.6910 C   0  0  0  0  0  0  0  0  0  0  0  0
   -3.4960   19.2410  -33.4040 C   0  0  0  0  0  0  0  0  0  0  0  0
   -7.8710   20.7250  -32.0800 C   0  0  0  0  0  0  0  0  0  0  0  0
   -8.2530   21.8560  -31.2080 N   0  0  0  0  0  0  0  0  0  0  0  0
   -9.4680   21.5480  -30.4380 C   0  0  0  0  0  0  0  0  0  0  0  0
   -8.4470   23.1050  -31.9760 C   0  0  0  0  0  0  0  0  0  0  0  0
   -7.1420   23.6620  -32.5700 C   0  0  0  0  0  0  0  0  0  0  0  0
   -3.4157   24.9324  -27.8743 H   0  0  0  0  0  0  0  0  0  0  0  0
   -2.1130   23.8455  -28.4645 H   0  0  0  0  0  0  0  0  0  0  0  0
   -1.8669   25.6249  -28.4645 H   0  0  0  0  0  0  0  0  0  0  0  0
   -5.4328   25.2817  -31.2938 H   0  0  0  0  0  0  0  0  0  0  0  0
   -4.0388   20.5147  -30.8642 H   0  0  0  0  0  0  0  0  0  0  0  0
   -0.4329   21.5852  -29.5225 H   0  0  0  0  0  0  0  0  0  0  0  0
   -1.3607   20.9655  -30.9303 H   0  0  0  0  0  0  0  0  0  0  0  0
   -0.7502   22.6549  -30.9303 H   0  0  0  0  0  0  0  0  0  0  0  0
   -6.0683   19.9161  -31.4716 H   0  0  0  0  0  0  0  0  0  0  0  0
   -6.7242   19.7955  -34.1561 H   0  0  0  0  0  0  0  0  0  0  0  0
   -5.2120   20.8904  -34.0051 H   0  0  0  0  0  0  0  0  0  0  0  0
   -5.1850   18.3720  -32.7100 H   0  0  0  0  0  0  0  0  0  0  0  0
   -5.3465   16.9690  -34.2944 H   0  0  0  0  0  0  0  0  0  0  0  0
   -5.9698   18.3155  -35.3069 H   0  0  0  0  0  0  0  0  0  0  0  0
   -4.2155   17.9294  -35.3069 H   0  0  0  0  0  0  0  0  0  0  0  0
   -3.2573   19.2970  -32.3317 H   0  0  0  0  0  0  0  0  0  0  0  0
   -2.8783   18.4634  -33.8770 H   0  0  0  0  0  0  0  0  0  0  0  0
   -3.2885   20.2122  -33.8770 H   0  0  0  0  0  0  0  0  0  0  0  0
   -8.3265   20.8581  -33.0724 H   0  0  0  0  0  0  0  0  0  0  0  0
   -8.2266   19.7844  -31.6340 H   0  0  0  0  0  0  0  0  0  0  0  0
   -9.2446   21.6046  -29.3624 H   0  0  0  0  0  0  0  0  0  0  0  0
  -10.2546   22.2751  -30.6879 H   0  0  0  0  0  0  0  0  0  0  0  0
   -9.8133   20.5339  -30.6879 H   0  0  0  0  0  0  0  0  0  0  0  0
   -9.1476   22.9033  -32.7997 H   0  0  0  0  0  0  0  0  0  0  0  0
   -8.8358   23.8604  -31.2773 H   0  0  0  0  0  0  0  0  0  0  0  0
   -7.0483   23.3078  -33.6072 H   0  0  0  0  0  0  0  0  0  0  0  0
   -7.1954   24.7595  -32.5177 H   0  0  0  0  0  0  0  0  0  0  0  0
  1  2  1  0
  2  3  1  0
  3  4  2  0
  4  5  1  0
  5  6  2  0
  6  7  1  0
  7  8  2  0
  8  9  1  0
  9 10  1  0
  6 11  1  0
 11 12  1  0
 12 13  1  0
 13 14  1  0
 13 15  1  0
 11 16  1  0
 16 17  1  0
 17 18  1  0
 17 19  1  0
 19 20  1  0
  8  3  1  0
 20  5  1  0
  1 21  1  0
  1 22  1  0
  1 23  1  0
  4 24  1  0
  7 25  1  0
 10 26  1  0
 10 27  1  0
 10 28  1  0
 11 29  1  1
 12 30  1  0
 12 31  1  0
 13 32  1  0
 14 33  1  0
 14 34  1  0
 14 35  1  0
 15 36  1  0
 15 37  1  0
 15 38  1  0
 16 39  1  0
 16 40  1  0
 18 41  1  0
 18 42  1  0
 18 43  1  0
 19 44  1  0
 19 45  1  0
 20 46  1  0
 20 47  1  0
M  CHG  1  13   1
M  END
>  <UniqueID>  (21) 
21

>  <SMILES>  (21) 
COc1cc2c(cc1OC)[C@H](C[NH+](C)C)CN(C)CC2

>  <Energy>  (21) 
68.55210610532711

>  <Genealogy>  (21) 
COc1cc2c(cc1OC)C(C[NH+](C)C)CN(C)CC2 (protonated)
COc1cc2c(cc1OC)[C@H](C[NH+](C)C)CN(C)CC2 (chirality)
COc1cc2c(cc1OC)[C@H](C[NH+](C)C)CN(C)CC2 (3D coordinates assigned)
COc1cc2c(cc1OC)[C@H](C[NH+](C)C)CN(C)CC2 (nonaromatic ring conformer: 68.55210610532711 kcal/mol)

>  <smiles>  (21) 
COc1cc2c(cc1OC)C(CN(C)C)CN(C)CC2

>  <score_type>  (21) 
oracle

>  <origin>  (21) 
adg

>  <m_score__min__energy>  (21) 
-4.8600000000000003

>  <m_primary>  (21) 
energy

$$$$
21:0
     RDKit          3D

 49 51  0  0  0  0  0  0  0  0999 V2000
   -7.9980   22.2910  -30.0900 C   0  0  0  0  0  0  0  0  0  0  0  0
   -8.4540   22.1020  -31.4740 N   0  0  0  0  0  0  0  0  0  0  0  0
   -8.8520   23.3800  -32.0860 C   0  0  0  0  0  0  0  0  0  0  0  0
   -9.4800   21.0420  -31.6150 C   0  0  0  0  0  0  0  0  0  0  0  0
   -8.9990   19.7540  -32.3270 C   0  0  0  0  0  0  0  0  0  0  0  0
   -8.0520   20.0450  -33.4080 N   0  0  0  0  0  0  0  0  0  0  0  0
   -6.6370   20.2010  -33.1710 C   0  0  0  0  0  0  0  0  0  0  0  0
   -6.1810   21.2770  -32.4600 N   0  0  0  0  0  0  0  0  0  0  0  0
   -4.8470   21.4900  -32.2610 C   0  0  0  0  0  0  0  0  0  0  0  0
   -4.3900   22.6290  -31.5090 N   0  0  0  0  0  0  0  0  0  0  0  0
   -3.0230   22.6440  -30.9840 C   0  0  0  0  0  0  0  0  0  0  0  0
   -2.8370   23.7940  -29.9790 C   0  0  0  0  0  0  0  0  0  0  0  0
   -4.0340   23.9790  -29.1290 N   0  0  0  0  0  0  0  0  0  0  0  0
   -4.2300   22.8460  -28.2080 C   0  0  0  0  0  0  0  0  0  0  0  0
   -5.2670   24.2840  -29.9030 C   0  0  0  0  0  0  0  0  0  0  0  0
   -5.2090   23.8370  -31.3750 C   0  0  0  0  0  0  0  0  0  0  0  0
   -3.9440   20.6030  -32.7470 N   0  0  0  0  0  0  0  0  0  0  0  0
   -4.3320   19.5100  -33.4480 C   0  0  0  0  0  0  0  0  0  0  0  0
   -3.3700   18.6180  -33.9270 C   0  0  0  0  0  0  0  0  0  0  0  0
   -3.7780   17.4830  -34.6270 C   0  0  0  0  0  0  0  0  0  0  0  0
   -5.1010   17.2470  -34.8270 N   0  0  0  0  0  0  0  0  0  0  0  0
   -6.0620   18.0960  -34.3750 C   0  0  0  0  0  0  0  0  0  0  0  0
   -5.7010   19.2700  -33.6810 C   0  0  0  0  0  0  0  0  0  0  0  0
   -8.7866   21.9641  -29.3963 H   0  0  0  0  0  0  0  0  0  0  0  0
   -7.0891   21.6955  -29.9188 H   0  0  0  0  0  0  0  0  0  0  0  0
   -7.7769   23.3549  -29.9188 H   0  0  0  0  0  0  0  0  0  0  0  0
   -9.0794   24.1101  -31.2953 H   0  0  0  0  0  0  0  0  0  0  0  0
   -8.0295   23.7596  -32.7101 H   0  0  0  0  0  0  0  0  0  0  0  0
   -9.7446   23.2255  -32.7101 H   0  0  0  0  0  0  0  0  0  0  0  0
   -9.8257   20.7660  -30.6079 H   0  0  0  0  0  0  0  0  0  0  0  0
  -10.2729   21.4651  -32.2492 H   0  0  0  0  0  0  0  0  0  0  0  0
   -8.5069   19.1031  -31.5894 H   0  0  0  0  0  0  0  0  0  0  0  0
   -9.8778   19.2614  -32.7686 H   0  0  0  0  0  0  0  0  0  0  0  0
   -8.4110   20.1060  -34.3840 H   0  0  0  0  0  0  0  0  0  0  0  0
   -6.8600   21.9500  -32.0470 H   0  0  0  0  0  0  0  0  0  0  0  0
   -2.8197   21.6878  -30.4797 H   0  0  0  0  0  0  0  0  0  0  0  0
   -2.3250   22.7908  -31.8214 H   0  0  0  0  0  0  0  0  0  0  0  0
   -1.9743   23.5682  -29.3350 H   0  0  0  0  0  0  0  0  0  0  0  0
   -2.6739   24.7218  -30.5469 H   0  0  0  0  0  0  0  0  0  0  0  0
   -4.1683   23.2029  -27.1693 H   0  0  0  0  0  0  0  0  0  0  0  0
   -5.2190   22.3977  -28.3835 H   0  0  0  0  0  0  0  0  0  0  0  0
   -3.4490   22.0915  -28.3835 H   0  0  0  0  0  0  0  0  0  0  0  0
   -6.1136   23.7743  -29.4198 H   0  0  0  0  0  0  0  0  0  0  0  0
   -5.3777   25.3784  -29.9069 H   0  0  0  0  0  0  0  0  0  0  0  0
   -6.2283   23.6253  -31.7302 H   0  0  0  0  0  0  0  0  0  0  0  0
   -4.7597   24.6418  -31.9754 H   0  0  0  0  0  0  0  0  0  0  0  0
   -2.3006   18.8089  -33.7537 H   0  0  0  0  0  0  0  0  0  0  0  0
   -3.0286   16.7787  -35.0173 H   0  0  0  0  0  0  0  0  0  0  0  0
   -7.1234   17.8669  -34.5509 H   0  0  0  0  0  0  0  0  0  0  0  0
  1  2  1  0
  2  3  1  0
  2  4  1  0
  4  5  1  0
  5  6  1  0
  6  7  1  0
  7  8  2  0
  8  9  1  0
  9 10  1  0
 10 11  1  0
 11 12  1  0
 12 13  1  0
 13 14  1  0
 13 15  1  0
 15 16  1  0
  9 17  2  0
 17 18  1  0
 18 19  2  0
 19 20  1  0
 20 21  2  0
 21 22  1  0
 22 23  2  0
 23  7  1  0
 16 10  1  0
 23 18  1  0
  1 24  1  0
  1 25  1  0
  1 26  1  0
  3 27  1  0
  3 28  1  0
  3 29  1  0
  4 30  1  0
  4 31  1  0
  5 32  1  0
  5 33  1  0
  6 34  1  0
  8 35  1  0
 11 36  1  0
 11 37  1  0
 12 38  1  0
 12 39  1  0
 14 40  1  0
 14 41  1  0
 14 42  1  0
 15 43  1  0
 15 44  1  0
 16 45  1  0
 16 46  1  0
 19 47  1  0
 20 48  1  0
 22 49  1  0
M  CHG  1   8   1
M  END
>  <UniqueID>  (22) 
22

>  <SMILES>  (22) 
CN(C)CCNc1[nH+]c(N2CCN(C)CC2)nc2ccncc12

>  <Energy>  (22) 
70.10929662470598

>  <Genealogy>  (22) 
CN(C)CCNc1[nH+]c(N2CCN(C)CC2)nc2ccncc12 (protonated)
CN(C)CCNc1[nH+]c(N2CCN(C)CC2)nc2ccncc12 (3D coordinates assigned)
CN(C)CCNc1[nH+]c(N2CCN(C)CC2)nc2ccncc12 (nonaromatic ring conformer: 70.10929662470598 kcal/mol)

>  <smiles>  (22) 
CN(C)CCNc1nc(N2CCN(C)CC2)nc2ccncc12

>  <score_type>  (22) 
oracle

>  <origin>  (22) 
adg

>  <m_score__min__energy>  (22) 
-7.2300000000000004

>  <m_primary>  (22) 
energy

$$$$
22:0
     RDKit          3D

 39 41  0  0  0  0  0  0  0  0999 V2000
   -1.1839   22.9972  -30.0576 H   0  0  0  0  0  0  0  0  0  0  0  0
   -1.8680   22.4930  -30.7560 C   0  0  0  0  0  0  0  0  0  0  0  0
   -1.4100   21.4770  -31.5230 N   0  0  0  0  0  0  0  0  0  0  0  0
   -2.2190   20.7830  -32.3590 C   0  0  0  0  0  0  0  0  0  0  0  0
   -1.6940   19.6940  -33.0640 C   0  0  0  0  0  0  0  0  0  0  0  0
   -0.6174   19.4748  -33.0111 H   0  0  0  0  0  0  0  0  0  0  0  0
   -2.5300   18.8860  -33.8330 C   0  0  0  0  0  0  0  0  0  0  0  0
   -2.1086   18.0516  -34.4129 H   0  0  0  0  0  0  0  0  0  0  0  0
   -3.9010   19.1370  -33.8660 C   0  0  0  0  0  0  0  0  0  0  0  0
   -4.9640   18.0650  -34.7610 Cl  0  0  0  0  0  0  0  0  0  0  0  0
   -4.4340   20.2270  -33.1720 C   0  0  0  0  0  0  0  0  0  0  0  0
   -5.5220   20.3893  -33.1687 H   0  0  0  0  0  0  0  0  0  0  0  0
   -3.5910   21.1250  -32.4730 C   0  0  0  0  0  0  0  0  0  0  0  0
   -4.0600   22.2910  -31.7890 C   0  0  0  0  0  0  0  0  0  0  0  0
   -5.2120   22.8670  -32.0290 N   0  0  0  0  0  0  0  0  0  0  0  0
   -6.5510   22.3650  -31.9200 C   0  0  0  0  0  0  0  0  0  0  0  0
   -7.6240   23.2570  -32.0080 C   0  0  0  0  0  0  0  0  0  0  0  0
   -7.4331   24.3346  -32.1194 H   0  0  0  0  0  0  0  0  0  0  0  0
   -8.9370   22.7850  -31.9550 C   0  0  0  0  0  0  0  0  0  0  0  0
   -9.7772   23.4933  -32.0039 H   0  0  0  0  0  0  0  0  0  0  0  0
   -9.1860   21.4150  -31.8400 C   0  0  0  0  0  0  0  0  0  0  0  0
  -10.2227   21.0507  -31.7890 H   0  0  0  0  0  0  0  0  0  0  0  0
   -8.1200   20.4980  -31.7890 C   0  0  0  0  0  0  0  0  0  0  0  0
   -8.3710   19.0840  -31.6840 N   0  0  0  0  0  0  0  0  0  0  0  0
   -9.4930   18.6140  -31.9670 O   0  0  0  0  0  0  0  0  0  0  0  0
   -7.3820   18.2280  -31.2590 O   0  0  0  0  0  0  0  0  0  0  0  0
   -6.8020   20.9830  -31.8490 C   0  0  0  0  0  0  0  0  0  0  0  0
   -5.9597   20.2756  -31.8403 H   0  0  0  0  0  0  0  0  0  0  0  0
   -3.2050   22.9120  -30.8400 C   0  0  0  0  0  0  0  0  0  0  0  0
   -3.6590   24.0400  -29.9810 C   0  0  0  0  0  0  0  0  0  0  0  0
   -3.7730   23.8770  -28.7340 O   0  0  0  0  0  0  0  0  0  0  0  0
   -3.9830   25.2760  -30.5510 O   0  0  0  0  0  0  0  0  0  0  0  0
   -5.3210   25.6750  -30.8270 C   0  0  0  0  0  0  0  0  0  0  0  0
   -5.6932   25.1279  -31.7057 H   0  0  0  0  0  0  0  0  0  0  0  0
   -5.3475   26.7557  -31.0306 H   0  0  0  0  0  0  0  0  0  0  0  0
   -6.1990   25.3630  -29.6260 C   0  0  0  0  0  0  0  0  0  0  0  0
   -5.6387   25.5621  -28.7006 H   0  0  0  0  0  0  0  0  0  0  0  0
   -7.0976   25.9969  -29.6542 H   0  0  0  0  0  0  0  0  0  0  0  0
   -6.4961   24.3043  -29.6542 H   0  0  0  0  0  0  0  0  0  0  0  0
  1  2  1  0
  2  3  1  0
  3  4  1  0
  4  5  2  0
  5  6  1  0
  5  7  1  0
  7  8  1  0
  7  9  2  0
  9 10  1  0
  9 11  1  0
 11 12  1  0
 11 13  2  0
 13 14  1  0
 14 15  2  0
 15 16  1  0
 16 17  2  0
 17 18  1  0
 17 19  1  0
 19 20  1  0
 19 21  2  0
 21 22  1  0
 21 23  1  0
 23 24  1  0
 24 25  2  0
 24 26  1  0
 23 27  2  0
 27 28  1  0
 14 29  1  0
 29 30  1  0
 30 31  2  0
 30 32  1  0
 32 33  1  0
 33 34  1  0
 33 35  1  0
 33 36  1  0
 36 37  1  0
 36 38  1  0
 36 39  1  0
 29  2  2  0
 13  4  1  0
 27 16  1  0
M  CHG  3   3  -1  24   1  26  -1
M  END
>  <UniqueID>  (23) 
23

>  <SMILES>  (23) 
CCOC(=O)c1c[n-]c2ccc(Cl)cc2/c1=N\c1cccc([N+](=O)[O-])c1

>  <Energy>  (23) 
64.1775987327124

>  <Genealogy>  (23) 
CCOC(=O)c1c[n-]c2ccc(Cl)cc2c1=Nc1cccc([N+](=O)[O-])c1 (protonated)
CCOC(=O)c1c[n-]c2ccc(Cl)cc2/c1=N\c1cccc([N+](=O)[O-])c1 (cis-trans isomerization)
CCOC(=O)c1c[n-]c2ccc(Cl)cc2/c1=N\c1cccc([N+](=O)[O-])c1 (3D coordinates assigned)
CCOC(=O)c1c[n-]c2ccc(Cl)cc2/c1=N\c1cccc([N+](=O)[O-])c1 (optimized conformer: 64.1775987327124 kcal/mol)

>  <smiles>  (23) 
CCOC(=O)c1c[nH]c2ccc(Cl)cc2c1=Nc1cccc([N+](=O)[O-])c1

>  <score_type>  (23) 
oracle

>  <origin>  (23) 
adg

>  <m_score__min__energy>  (23) 
-9.4299999999999997

>  <m_primary>  (23) 
energy

$$$$
23:0
     RDKit          3D

 41 41  0  0  0  0  0  0  0  0999 V2000
   -6.1060   16.4630  -34.2150 C   0  0  0  0  0  0  0  0  0  0  0  0
   -5.8130   17.9140  -34.6140 C   0  0  0  0  0  0  0  0  0  0  0  0
   -6.4690   18.9110  -33.7250 N   0  0  0  0  0  0  0  0  0  0  0  0
   -5.6150   20.1010  -33.4360 C   0  0  0  0  0  0  0  0  0  0  0  0
   -5.0370   20.1730  -32.0110 C   0  0  0  0  0  0  0  0  0  0  0  0
   -7.1060   18.3390  -32.5060 C   0  0  0  0  0  0  0  0  0  0  0  0
   -8.5140   18.8900  -32.1890 C   0  0  0  0  0  0  0  0  0  0  0  0
   -8.8730   20.0250  -33.0570 N   0  0  0  0  0  0  0  0  0  0  0  0
   -9.5590   21.1090  -32.3320 C   0  0  0  0  0  0  0  0  0  0  0  0
   -8.9250   21.3290  -30.9540 C   0  0  0  0  0  0  0  0  0  0  0  0
   -7.7890   22.3160  -31.0140 C   0  0  0  0  0  0  0  0  0  0  0  0
   -7.1840   22.7800  -29.8330 C   0  0  0  0  0  0  0  0  0  0  0  0
   -6.1800   23.7500  -29.8910 C   0  0  0  0  0  0  0  0  0  0  0  0
   -5.7730   24.2670  -31.1250 C   0  0  0  0  0  0  0  0  0  0  0  0
   -4.8030   25.2120  -31.1780 F   0  0  0  0  0  0  0  0  0  0  0  0
   -6.3720   23.8120  -32.3040 C   0  0  0  0  0  0  0  0  0  0  0  0
   -7.3770   22.8420  -32.2510 C   0  0  0  0  0  0  0  0  0  0  0  0
   -6.1227   16.3805  -33.1182 H   0  0  0  0  0  0  0  0  0  0  0  0
   -7.0832   16.1615  -34.6203 H   0  0  0  0  0  0  0  0  0  0  0  0
   -5.3224   15.8059  -34.6203 H   0  0  0  0  0  0  0  0  0  0  0  0
   -4.7254   18.0741  -34.5760 H   0  0  0  0  0  0  0  0  0  0  0  0
   -6.2177   18.0625  -35.6260 H   0  0  0  0  0  0  0  0  0  0  0  0
   -7.2730   19.2940  -34.2810 H   0  0  0  0  0  0  0  0  0  0  0  0
   -4.7725   20.0930  -34.1432 H   0  0  0  0  0  0  0  0  0  0  0  0
   -6.2730   20.9765  -33.5391 H   0  0  0  0  0  0  0  0  0  0  0  0
   -5.8520   20.0715  -31.2792 H   0  0  0  0  0  0  0  0  0  0  0  0
   -4.3120   19.3582  -31.8678 H   0  0  0  0  0  0  0  0  0  0  0  0
   -4.5340   21.1407  -31.8678 H   0  0  0  0  0  0  0  0  0  0  0  0
   -7.1875   17.2505  -32.6417 H   0  0  0  0  0  0  0  0  0  0  0  0
   -6.4647   18.6251  -31.6593 H   0  0  0  0  0  0  0  0  0  0  0  0
   -9.2505   18.0859  -32.3337 H   0  0  0  0  0  0  0  0  0  0  0  0
   -8.5120   19.2466  -31.1484 H   0  0  0  0  0  0  0  0  0  0  0  0
   -9.4830   19.6850  -33.8370 H   0  0  0  0  0  0  0  0  0  0  0  0
   -9.4831   22.0379  -32.9163 H   0  0  0  0  0  0  0  0  0  0  0  0
  -10.6136   20.8283  -32.1940 H   0  0  0  0  0  0  0  0  0  0  0  0
   -9.6930   21.7110  -30.2653 H   0  0  0  0  0  0  0  0  0  0  0  0
   -8.5244   20.3664  -30.6035 H   0  0  0  0  0  0  0  0  0  0  0  0
   -7.5021   22.3780  -28.8598 H   0  0  0  0  0  0  0  0  0  0  0  0
   -5.7086   24.1078  -28.9638 H   0  0  0  0  0  0  0  0  0  0  0  0
   -6.0517   24.2182  -33.2748 H   0  0  0  0  0  0  0  0  0  0  0  0
   -7.8473   22.4889  -33.1806 H   0  0  0  0  0  0  0  0  0  0  0  0
  1  2  1  0
  2  3  1  0
  3  4  1  0
  4  5  1  0
  3  6  1  0
  6  7  1  0
  7  8  1  0
  8  9  1  0
  9 10  1  0
 10 11  1  0
 11 12  2  0
 12 13  1  0
 13 14  2  0
 14 15  1  0
 14 16  1  0
 16 17  2  0
 17 11  1  0
  1 18  1  0
  1 19  1  0
  1 20  1  0
  2 21  1  0
  2 22  1  0
  3 23  1  0
  4 24  1  0
  4 25  1  0
  5 26  1  0
  5 27  1  0
  5 28  1  0
  6 29  1  0
  6 30  1  0
  7 31  1  0
  7 32  1  0
  8 33  1  0
  9 34  1  0
  9 35  1  0
 10 36  1  0
 10 37  1  0
 12 38  1  0
 13 39  1  0
 16 40  1  0
 17 41  1  0
M  CHG  1   3   1
M  END
>  <UniqueID>  (24) 
24

>  <SMILES>  (24) 
CC[NH+](CC)CCNCCc1ccc(F)cc1

>  <Energy>  (24) 
43.157311831817125

>  <Genealogy>  (24) 
CC[NH+](CC)CCNCCc1ccc(F)cc1 (protonated)
CC[NH+](CC)CCNCCc1ccc(F)cc1 (3D coordinates assigned)
CC[NH+](CC)CCNCCc1ccc(F)cc1 (optimized conformer: 43.157311831817125 kcal/mol)

>  <smiles>  (24) 
CCN(CC)CCNCCc1ccc(F)cc1

>  <score_type>  (24) 
oracle

>  <origin>  (24) 
adg

>  <m_score__min__energy>  (24) 
-5.6900000000000004

>  <m_primary>  (24) 
energy

$$$$
24:0
     RDKit          3D

 43 45  0  0  0  0  0  0  0  0999 V2000
   -2.4001   21.1486  -30.9746 H   0  0  0  0  0  0  0  0  0  0  0  0
   -2.5460   22.0280  -30.3300 C   0  0  0  0  0  0  0  0  0  0  0  0
   -3.1580   23.1380  -30.8230 N   0  0  0  0  0  0  0  0  0  0  0  0
   -3.3620   24.2490  -30.0570 C   0  0  0  0  0  0  0  0  0  0  0  0
   -3.9480   25.3020  -30.5480 N   0  0  0  0  0  0  0  0  0  0  0  0
   -5.3640   25.6280  -30.3820 C   0  0  0  0  0  0  0  0  0  0  0  0
   -5.5374   26.6642  -30.7080 H   0  0  0  0  0  0  0  0  0  0  0  0
   -5.6332   25.5137  -29.3216 H   0  0  0  0  0  0  0  0  0  0  0  0
   -6.2380   24.6800  -31.2220 C   0  0  0  0  0  0  0  0  0  0  0  0
   -6.2620   25.0464  -32.2589 H   0  0  0  0  0  0  0  0  0  0  0  0
   -7.2442   24.6669  -30.7777 H   0  0  0  0  0  0  0  0  0  0  0  0
   -5.7250   23.2980  -31.2190 N   0  0  0  0  0  0  0  0  0  0  0  0
   -5.0030   23.1820  -31.9670 H   0  0  0  0  0  0  0  0  0  0  0  0
   -5.2610   23.1260  -30.2950 H   0  0  0  0  0  0  0  0  0  0  0  0
   -6.8000   22.3070  -31.3880 C   0  0  0  0  0  0  0  0  0  0  0  0
   -7.6331   22.7668  -31.9399 H   0  0  0  0  0  0  0  0  0  0  0  0
   -7.1399   21.9772  -30.3952 H   0  0  0  0  0  0  0  0  0  0  0  0
   -6.2990   21.1140  -32.1520 C   0  0  0  0  0  0  0  0  0  0  0  0
   -4.9950   20.9820  -32.5110 N   0  0  0  0  0  0  0  0  0  0  0  0
   -4.9820   19.8200  -33.1890 C   0  0  0  0  0  0  0  0  0  0  0  0
   -3.8840   19.1910  -33.7700 C   0  0  0  0  0  0  0  0  0  0  0  0
   -2.8804   19.6387  -33.7220 H   0  0  0  0  0  0  0  0  0  0  0  0
   -4.1030   17.9620  -34.4210 C   0  0  0  0  0  0  0  0  0  0  0  0
   -3.2604   17.4369  -34.8946 H   0  0  0  0  0  0  0  0  0  0  0  0
   -5.3970   17.3990  -34.4700 C   0  0  0  0  0  0  0  0  0  0  0  0
   -5.5547   16.4363  -34.9782 H   0  0  0  0  0  0  0  0  0  0  0  0
   -6.4870   18.0610  -33.8730 C   0  0  0  0  0  0  0  0  0  0  0  0
   -7.5001   17.6335  -33.9041 H   0  0  0  0  0  0  0  0  0  0  0  0
   -6.2350   19.2800  -33.2400 C   0  0  0  0  0  0  0  0  0  0  0  0
   -7.0880   20.0990  -32.6020 N   0  0  0  0  0  0  0  0  0  0  0  0
   -8.5200   19.8860  -32.3650 C   0  0  0  0  0  0  0  0  0  0  0  0
   -9.0380   19.7952  -33.3311 H   0  0  0  0  0  0  0  0  0  0  0  0
   -8.9204   20.7416  -31.8014 H   0  0  0  0  0  0  0  0  0  0  0  0
   -8.7390   18.6140  -31.5560 C   0  0  0  0  0  0  0  0  0  0  0  0
   -8.6983   18.8506  -30.4825 H   0  0  0  0  0  0  0  0  0  0  0  0
   -9.7236   18.1888  -31.8006 H   0  0  0  0  0  0  0  0  0  0  0  0
   -7.9533   17.8840  -31.8006 H   0  0  0  0  0  0  0  0  0  0  0  0
   -2.9270   24.2590  -28.7270 C   0  0  0  0  0  0  0  0  0  0  0  0
   -3.0805   25.1497  -28.1000 H   0  0  0  0  0  0  0  0  0  0  0  0
   -2.2960   23.1280  -28.2020 C   0  0  0  0  0  0  0  0  0  0  0  0
   -1.9523   23.1235  -27.1571 H   0  0  0  0  0  0  0  0  0  0  0  0
   -2.1030   22.0040  -29.0070 C   0  0  0  0  0  0  0  0  0  0  0  0
   -1.6071   21.1092  -28.6028 H   0  0  0  0  0  0  0  0  0  0  0  0
  1  2  1  0
  2  3  1  0
  3  4  1  0
  4  5  2  0
  5  6  1  0
  6  7  1  0
  6  8  1  0
  6  9  1  0
  9 10  1  0
  9 11  1  0
  9 12  1  0
 12 13  1  0
 12 14  1  0
 12 15  1  0
 15 16  1  0
 15 17  1  0
 15 18  1  0
 18 19  2  0
 19 20  1  0
 20 21  2  0
 21 22  1  0
 21 23  1  0
 23 24  1  0
 23 25  2  0
 25 26  1  0
 25 27  1  0
 27 28  1  0
 27 29  2  0
 29 30  1  0
 30 31  1  0
 31 32  1  0
 31 33  1  0
 31 34  1  0
 34 35  1  0
 34 36  1  0
 34 37  1  0
  4 38  1  0
 38 39  1  0
 38 40  2  0
 40 41  1  0
 40 42  1  0
 42 43  1  0
 42  2  2  0
 30 18  1  0
 29 20  1  0
M  CHG  2   3  -1  12   1
M  END
>  <UniqueID>  (25) 
25

>  <SMILES>  (25) 
CCn1c(C[NH2+]CC/N=c2/cccc[n-]2)nc2ccccc21

>  <Energy>  (25) 
77.43191135264259

>  <Genealogy>  (25) 
CCn1c(C[NH2+]CCN=c2cccc[n-]2)nc2ccccc21 (protonated)
CCn1c(C[NH2+]CC/N=c2/cccc[n-]2)nc2ccccc21 (cis-trans isomerization)
CCn1c(C[NH2+]CC/N=c2/cccc[n-]2)nc2ccccc21 (3D coordinates assigned)
CCn1c(C[NH2+]CC/N=c2/cccc[n-]2)nc2ccccc21 (optimized conformer: 77.43191135264259 kcal/mol)

>  <smiles>  (25) 
CCn1c(CNCCN=c2cccc[nH]2)nc2ccccc21

>  <score_type>  (25) 
oracle

>  <origin>  (25) 
adg

>  <m_score__min__energy>  (25) 
-8.5199999999999996

>  <m_primary>  (25) 
energy

$$$$
25:0
     RDKit          3D

 67 69  0  0  0  0  0  0  0  0999 V2000
   -2.7860   19.0850  -26.6790 C   0  0  0  0  0  0  0  0  0  0  0  0
   -1.3230   18.9220  -27.1230 C   0  0  0  0  0  0  0  0  0  0  0  0
   -0.9140   19.7750  -28.2720 N   0  0  1  0  0  0  0  0  0  0  0  0
    0.1140   20.7570  -27.8710 C   0  0  0  0  0  0  0  0  0  0  0  0
   -0.4590   19.0170  -29.4640 C   0  0  0  0  0  0  0  0  0  0  0  0
   -0.5330   19.8170  -30.7850 C   0  0  0  0  0  0  0  0  0  0  0  0
   -1.9520   19.8880  -31.3870 C   0  0  0  0  0  0  0  0  0  0  0  0
   -2.1570   21.1170  -32.1940 N   0  0  0  0  0  0  0  0  0  0  0  0
   -0.8620   21.5490  -32.7570 C   0  0  0  0  0  0  0  0  0  0  0  0
   -3.1310   20.8650  -33.2840 C   0  0  0  0  0  0  0  0  0  0  0  0
   -4.5420   21.2640  -32.8860 C   0  0  0  0  0  0  0  0  0  0  0  0
   -4.7460   22.5680  -32.4290 C   0  0  0  0  0  0  0  0  0  0  0  0
   -5.9970   23.0100  -31.9810 C   0  0  0  0  0  0  0  0  0  0  0  0
   -6.1130   24.4490  -31.5150 C   0  0  0  0  0  0  0  0  0  0  0  0
   -5.5770   24.6560  -30.0910 C   0  0  0  0  0  0  0  0  0  0  0  0
   -4.4180   23.7660  -29.8380 N   0  0  0  0  0  0  0  0  0  0  0  0
   -3.2210   24.5360  -29.4430 C   0  0  0  0  0  0  0  0  0  0  0  0
   -1.9890   23.6130  -29.3450 C   0  0  0  0  0  0  0  0  0  0  0  0
   -2.3520   22.1870  -29.2790 N   0  0  0  0  0  0  0  0  0  0  0  0
   -3.4780   21.9720  -28.3620 C   0  0  0  0  0  0  0  0  0  0  0  0
   -4.7340   22.7510  -28.8090 C   0  0  0  0  0  0  0  0  0  0  0  0
   -7.0960   22.1140  -32.0020 C   0  0  0  0  0  0  0  0  0  0  0  0
   -8.3740   22.4980  -31.5350 C   0  0  0  0  0  0  0  0  0  0  0  0
   -9.4480   21.6120  -31.5830 C   0  0  0  0  0  0  0  0  0  0  0  0
   -9.2760   20.3320  -32.0950 C   0  0  0  0  0  0  0  0  0  0  0  0
   -8.0260   19.9200  -32.5500 C   0  0  0  0  0  0  0  0  0  0  0  0
   -6.9160   20.7920  -32.5080 C   0  0  0  0  0  0  0  0  0  0  0  0
   -5.6370   20.3710  -32.9550 C   0  0  0  0  0  0  0  0  0  0  0  0
   -5.3880   18.5880  -33.6710 Br  0  0  0  0  0  0  0  0  0  0  0  0
   -2.8372   19.0907  -25.5802 H   0  0  0  0  0  0  0  0  0  0  0  0
   -3.1843   20.0331  -27.0696 H   0  0  0  0  0  0  0  0  0  0  0  0
   -3.3832   18.2478  -27.0696 H   0  0  0  0  0  0  0  0  0  0  0  0
   -0.6775   19.1699  -26.2675 H   0  0  0  0  0  0  0  0  0  0  0  0
   -1.2196   17.8807  -27.4620 H   0  0  0  0  0  0  0  0  0  0  0  0
   -1.7530   20.3320  -28.5520 H   0  0  0  0  0  0  0  0  0  0  0  0
    0.1656   20.8063  -26.7733 H   0  0  0  0  0  0  0  0  0  0  0  0
    1.0914   20.4486  -28.2705 H   0  0  0  0  0  0  0  0  0  0  0  0
   -0.1494   21.7474  -28.2705 H   0  0  0  0  0  0  0  0  0  0  0  0
    0.5856   18.7127  -29.3022 H   0  0  0  0  0  0  0  0  0  0  0  0
   -1.1386   18.1590  -29.5735 H   0  0  0  0  0  0  0  0  0  0  0  0
   -0.1865   20.8426  -30.5900 H   0  0  0  0  0  0  0  0  0  0  0  0
    0.1007   19.2923  -31.5152 H   0  0  0  0  0  0  0  0  0  0  0  0
   -2.1077   19.0105  -32.0318 H   0  0  0  0  0  0  0  0  0  0  0  0
   -2.6716   19.9058  -30.5552 H   0  0  0  0  0  0  0  0  0  0  0  0
   -0.1654   21.7814  -31.9380 H   0  0  0  0  0  0  0  0  0  0  0  0
   -0.4438   20.7417  -33.3762 H   0  0  0  0  0  0  0  0  0  0  0  0
   -1.0122   22.4457  -33.3762 H   0  0  0  0  0  0  0  0  0  0  0  0
   -2.8331   21.4467  -34.1688 H   0  0  0  0  0  0  0  0  0  0  0  0
   -3.1297   19.7864  -33.4999 H   0  0  0  0  0  0  0  0  0  0  0  0
   -3.8983   23.2690  -32.4207 H   0  0  0  0  0  0  0  0  0  0  0  0
   -5.5407   25.0888  -32.2028 H   0  0  0  0  0  0  0  0  0  0  0  0
   -7.1813   24.7112  -31.5092 H   0  0  0  0  0  0  0  0  0  0  0  0
   -5.2622   25.7032  -29.9713 H   0  0  0  0  0  0  0  0  0  0  0  0
   -6.3741   24.4152  -29.3722 H   0  0  0  0  0  0  0  0  0  0  0  0
   -3.0291   25.3163  -30.1942 H   0  0  0  0  0  0  0  0  0  0  0  0
   -3.4017   24.9916  -28.4582 H   0  0  0  0  0  0  0  0  0  0  0  0
   -1.3566   23.7747  -30.2304 H   0  0  0  0  0  0  0  0  0  0  0  0
   -1.4581   23.8645  -28.4150 H   0  0  0  0  0  0  0  0  0  0  0  0
   -2.6380   21.8750  -30.2370 H   0  0  0  0  0  0  0  0  0  0  0  0
   -3.7154   20.8983  -28.3342 H   0  0  0  0  0  0  0  0  0  0  0  0
   -3.1844   22.3362  -27.3664 H   0  0  0  0  0  0  0  0  0  0  0  0
   -5.4642   22.0403  -29.2233 H   0  0  0  0  0  0  0  0  0  0  0  0
   -5.1417   23.2725  -27.9304 H   0  0  0  0  0  0  0  0  0  0  0  0
   -8.5222   23.5093  -31.1285 H   0  0  0  0  0  0  0  0  0  0  0  0
  -10.4354   21.9269  -31.2143 H   0  0  0  0  0  0  0  0  0  0  0  0
  -10.1307   19.6411  -32.1412 H   0  0  0  0  0  0  0  0  0  0  0  0
   -7.9016   18.9019  -32.9474 H   0  0  0  0  0  0  0  0  0  0  0  0
  1  2  1  0
  2  3  1  0
  3  4  1  0
  3  5  1  0
  5  6  1  0
  6  7  1  0
  7  8  1  0
  8  9  1  0
  8 10  1  0
 10 11  1  0
 11 12  2  0
 12 13  1  0
 13 14  1  0
 14 15  1  0
 15 16  1  0
 16 17  1  0
 17 18  1  0
 18 19  1  0
 19 20  1  0
 20 21  1  0
 13 22  2  0
 22 23  1  0
 23 24  2  0
 24 25  1  0
 25 26  2  0
 26 27  1  0
 27 28  2  0
 28 29  1  0
 28 11  1  0
 21 16  1  0
 27 22  1  0
  1 30  1  0
  1 31  1  0
  1 32  1  0
  2 33  1  0
  2 34  1  0
  3 35  1  6
  4 36  1  0
  4 37  1  0
  4 38  1  0
  5 39  1  0
  5 40  1  0
  6 41  1  0
  6 42  1  0
  7 43  1  0
  7 44  1  0
  9 45  1  0
  9 46  1  0
  9 47  1  0
 10 48  1  0
 10 49  1  0
 12 50  1  0
 14 51  1  0
 14 52  1  0
 15 53  1  0
 15 54  1  0
 17 55  1  0
 17 56  1  0
 18 57  1  0
 18 58  1  0
 19 59  1  0
 20 60  1  0
 20 61  1  0
 21 62  1  0
 21 63  1  0
 23 64  1  0
 24 65  1  0
 25 66  1  0
 26 67  1  0
M  CHG  1   3   1
M  END
>  <UniqueID>  (26) 
26

>  <SMILES>  (26) 
CC[N@@H+](C)CCCN(C)Cc1cc(CCN2CCNCC2)c2ccccc2c1Br

>  <Energy>  (26) 
84.34418576404309

>  <Genealogy>  (26) 
CC[NH+](C)CCCN(C)Cc1cc(CCN2CCNCC2)c2ccccc2c1Br (protonated)
CC[N@@H+](C)CCCN(C)Cc1cc(CCN2CCNCC2)c2ccccc2c1Br (chirality)
CC[N@@H+](C)CCCN(C)Cc1cc(CCN2CCNCC2)c2ccccc2c1Br (3D coordinates assigned)
CC[N@@H+](C)CCCN(C)Cc1cc(CCN2CCNCC2)c2ccccc2c1Br (nonaromatic ring conformer: 84.34418576404309 kcal/mol)

>  <smiles>  (26) 
CCN(C)CCCN(C)Cc1cc(CCN2CCNCC2)c2ccccc2c1Br

>  <score_type>  (26) 
oracle

>  <origin>  (26) 
adg

>  <m_score__min__energy>  (26) 
-8.8900000000000006

>  <m_primary>  (26) 
energy

$$$$
26:0
     RDKit          3D

 50 51  0  0  0  0  0  0  0  0999 V2000
   -6.2820   18.3560  -33.8600 C   0  0  0  0  0  0  0  0  0  0  0  0
   -6.6750   18.3670  -32.4400 N   0  0  0  0  0  0  0  0  0  0  0  0
   -6.1090   17.1810  -31.7730 C   0  0  0  0  0  0  0  0  0  0  0  0
   -8.1490   18.3960  -32.3310 C   0  0  0  0  0  0  0  0  0  0  0  0
   -8.6900   19.6730  -31.6370 C   0  0  0  0  0  0  0  0  0  0  0  0
   -8.0190   20.9370  -32.0130 N   0  0  0  0  0  0  0  0  0  0  0  0
   -6.5910   21.0510  -31.6340 C   0  0  0  0  0  0  0  0  0  0  0  0
   -6.3690   22.1550  -30.5920 C   0  0  0  0  0  0  0  0  0  0  0  0
   -6.8320   23.4630  -31.1080 N   0  0  0  0  0  0  0  0  0  0  0  0
   -6.8540   24.5480  -30.1020 C   0  0  0  0  0  0  0  0  0  0  0  0
   -5.5750   25.4150  -30.0270 C   0  0  0  0  0  0  0  0  0  0  0  0
   -4.5060   24.9040  -30.9020 N   0  0  0  0  0  0  0  0  0  0  0  0
   -3.5910   23.9810  -30.2140 C   0  0  0  0  0  0  0  0  0  0  0  0
   -3.3200   22.7680  -31.0530 C   0  0  0  0  0  0  0  0  0  0  0  0
   -2.5550   21.7060  -30.5470 C   0  0  0  0  0  0  0  0  0  0  0  0
   -2.3570   20.5700  -31.3340 C   0  0  0  0  0  0  0  0  0  0  0  0
   -2.9180   20.5020  -32.6100 C   0  0  0  0  0  0  0  0  0  0  0  0
   -3.6740   21.5770  -33.0820 C   0  0  0  0  0  0  0  0  0  0  0  0
   -3.8600   22.6740  -32.3000 N   0  0  0  0  0  0  0  0  0  0  0  0
   -7.9900   23.4150  -32.0310 C   0  0  0  0  0  0  0  0  0  0  0  0
   -8.8350   22.1540  -31.8100 C   0  0  0  0  0  0  0  0  0  0  0  0
   -5.1851   18.3253  -33.9366 H   0  0  0  0  0  0  0  0  0  0  0  0
   -6.7089   17.4695  -34.3517 H   0  0  0  0  0  0  0  0  0  0  0  0
   -6.6586   19.2650  -34.3517 H   0  0  0  0  0  0  0  0  0  0  0  0
   -6.1703   17.3095  -30.6823 H   0  0  0  0  0  0  0  0  0  0  0  0
   -6.6777   16.2873  -32.0694 H   0  0  0  0  0  0  0  0  0  0  0  0
   -5.0565   17.0609  -32.0694 H   0  0  0  0  0  0  0  0  0  0  0  0
   -8.5747   18.3426  -33.3439 H   0  0  0  0  0  0  0  0  0  0  0  0
   -8.4457   17.5381  -31.7097 H   0  0  0  0  0  0  0  0  0  0  0  0
   -9.7568   19.7684  -31.8876 H   0  0  0  0  0  0  0  0  0  0  0  0
   -8.4964   19.5371  -30.5627 H   0  0  0  0  0  0  0  0  0  0  0  0
   -6.2555   20.0913  -31.2141 H   0  0  0  0  0  0  0  0  0  0  0  0
   -6.0155   21.3083  -32.5355 H   0  0  0  0  0  0  0  0  0  0  0  0
   -6.9305   21.9078  -29.6790 H   0  0  0  0  0  0  0  0  0  0  0  0
   -5.2933   22.2225  -30.3723 H   0  0  0  0  0  0  0  0  0  0  0  0
   -7.6993   25.2112  -30.3378 H   0  0  0  0  0  0  0  0  0  0  0  0
   -6.9386   24.0508  -29.1245 H   0  0  0  0  0  0  0  0  0  0  0  0
   -5.8241   26.4415  -30.3340 H   0  0  0  0  0  0  0  0  0  0  0  0
   -5.2069   25.3860  -28.9908 H   0  0  0  0  0  0  0  0  0  0  0  0
   -4.9590   24.3640  -31.6750 H   0  0  0  0  0  0  0  0  0  0  0  0
   -2.6415   24.4989  -30.0131 H   0  0  0  0  0  0  0  0  0  0  0  0
   -4.0607   23.6585  -29.2731 H   0  0  0  0  0  0  0  0  0  0  0  0
   -2.1158   21.7679  -29.5404 H   0  0  0  0  0  0  0  0  0  0  0  0
   -1.7600   19.7301  -30.9491 H   0  0  0  0  0  0  0  0  0  0  0  0
   -2.7663   19.6112  -33.2372 H   0  0  0  0  0  0  0  0  0  0  0  0
   -4.1194   21.5365  -34.0870 H   0  0  0  0  0  0  0  0  0  0  0  0
   -8.6193   24.3010  -31.8609 H   0  0  0  0  0  0  0  0  0  0  0  0
   -7.6080   23.3973  -33.0624 H   0  0  0  0  0  0  0  0  0  0  0  0
   -9.2283   22.1581  -30.7827 H   0  0  0  0  0  0  0  0  0  0  0  0
   -9.6624   22.1506  -32.5348 H   0  0  0  0  0  0  0  0  0  0  0  0
  1  2  1  0
  2  3  1  0
  2  4  1  0
  4  5  1  0
  5  6  1  0
  6  7  1  0
  7  8  1  0
  8  9  1  0
  9 10  1  0
 10 11  1  0
 11 12  1  0
 12 13  1  0
 13 14  1  0
 14 15  2  0
 15 16  1  0
 16 17  2  0
 17 18  1  0
 18 19  2  0
  9 20  1  0
 20 21  1  0
 21  6  1  0
 19 14  1  0
  1 22  1  0
  1 23  1  0
  1 24  1  0
  3 25  1  0
  3 26  1  0
  3 27  1  0
  4 28  1  0
  4 29  1  0
  5 30  1  0
  5 31  1  0
  7 32  1  0
  7 33  1  0
  8 34  1  0
  8 35  1  0
 10 36  1  0
 10 37  1  0
 11 38  1  0
 11 39  1  0
 12 40  1  0
 13 41  1  0
 13 42  1  0
 15 43  1  0
 16 44  1  0
 17 45  1  0
 18 46  1  0
 20 47  1  0
 20 48  1  0
 21 49  1  0
 21 50  1  0
M  END
>  <UniqueID>  (27) 
27

>  <SMILES>  (27) 
CN(C)CCN1CCN(CCNCc2ccccn2)CC1

>  <Energy>  (27) 
66.34499320101929

>  <Genealogy>  (27) 
CN(C)CCN1CCN(CCNCc2ccccn2)CC1 (3D coordinates assigned)
CN(C)CCN1CCN(CCNCc2ccccn2)CC1 (nonaromatic ring conformer: 66.34499320101929 kcal/mol)

>  <smiles>  (27) 
CN(C)CCN1CCN(CCNCc2ccccn2)CC1

>  <score_type>  (27) 
oracle

>  <origin>  (27) 
adg

>  <m_score__min__energy>  (27) 
-6.6500000000000004

>  <m_primary>  (27) 
energy

$$$$
27:0
     RDKit          3D

 40 41  0  0  0  0  0  0  0  0999 V2000
   -4.1010   18.5110  -34.1380 C   0  0  0  0  0  0  0  0  0  0  0  0
   -4.7690   17.5510  -33.1600 C   0  0  0  0  0  0  0  0  0  0  0  0
   -6.1450   17.4100  -33.4600 O   0  0  0  0  0  0  0  0  0  0  0  0
   -6.8790   17.1110  -32.2900 C   0  0  0  0  0  0  0  0  0  0  0  0
   -7.9570   18.1800  -32.0530 C   0  0  0  0  0  0  0  0  0  0  0  0
   -7.9600   19.2430  -33.0740 N   0  0  0  0  0  0  0  0  0  0  0  0
   -7.4980   20.5050  -32.5450 C   0  0  0  0  0  0  0  0  0  0  0  0
   -8.3940   21.3800  -31.9130 C   0  0  0  0  0  0  0  0  0  0  0  0
   -7.9590   22.6220  -31.4510 C   0  0  0  0  0  0  0  0  0  0  0  0
   -6.6200   23.0120  -31.6070 C   0  0  0  0  0  0  0  0  0  0  0  0
   -5.7090   22.1440  -32.2510 C   0  0  0  0  0  0  0  0  0  0  0  0
   -6.1560   20.8880  -32.6940 C   0  0  0  0  0  0  0  0  0  0  0  0
   -4.2510   22.5230  -32.4410 C   0  0  0  0  0  0  0  0  0  0  0  0
   -3.4540   22.8470  -31.1460 C   0  0  0  0  0  0  0  0  0  0  0  0
   -3.7370   24.1700  -30.5670 N   0  0  0  0  0  0  0  0  0  0  0  0
   -5.1160   24.3070  -30.0620 C   0  0  0  0  0  0  0  0  0  0  0  0
   -6.1830   24.3850  -31.1710 C   0  0  0  0  0  0  0  0  0  0  0  0
   -3.5604   19.2880  -33.5776 H   0  0  0  0  0  0  0  0  0  0  0  0
   -3.3931   17.9559  -34.7710 H   0  0  0  0  0  0  0  0  0  0  0  0
   -4.8676   18.9818  -34.7710 H   0  0  0  0  0  0  0  0  0  0  0  0
   -4.2815   16.5674  -33.2293 H   0  0  0  0  0  0  0  0  0  0  0  0
   -4.6681   17.9555  -32.1420 H   0  0  0  0  0  0  0  0  0  0  0  0
   -7.3603   16.1285  -32.4040 H   0  0  0  0  0  0  0  0  0  0  0  0
   -6.1934   17.0954  -31.4300 H   0  0  0  0  0  0  0  0  0  0  0  0
   -8.9416   17.6895  -32.0571 H   0  0  0  0  0  0  0  0  0  0  0  0
   -7.7350   18.6573  -31.0871 H   0  0  0  0  0  0  0  0  0  0  0  0
   -8.9190   19.3370  -33.4830 H   0  0  0  0  0  0  0  0  0  0  0  0
   -7.3230   18.9550  -33.8540 H   0  0  0  0  0  0  0  0  0  0  0  0
   -9.4454   21.0849  -31.7811 H   0  0  0  0  0  0  0  0  0  0  0  0
   -8.6714   23.3015  -30.9603 H   0  0  0  0  0  0  0  0  0  0  0  0
   -5.4436   20.1944  -33.1646 H   0  0  0  0  0  0  0  0  0  0  0  0
   -3.7484   21.6836  -32.9438 H   0  0  0  0  0  0  0  0  0  0  0  0
   -4.2618   23.4566  -33.0226 H   0  0  0  0  0  0  0  0  0  0  0  0
   -3.6983   22.0835  -30.3928 H   0  0  0  0  0  0  0  0  0  0  0  0
   -2.3906   22.8510  -31.4273 H   0  0  0  0  0  0  0  0  0  0  0  0
   -3.5050   24.9360  -31.2420 H   0  0  0  0  0  0  0  0  0  0  0  0
   -5.3400   23.4374  -29.4266 H   0  0  0  0  0  0  0  0  0  0  0  0
   -5.1604   25.2570  -29.5093 H   0  0  0  0  0  0  0  0  0  0  0  0
   -7.0562   24.9349  -30.7901 H   0  0  0  0  0  0  0  0  0  0  0  0
   -5.7456   24.9018  -32.0379 H   0  0  0  0  0  0  0  0  0  0  0  0
  1  2  1  0
  2  3  1  0
  3  4  1  0
  4  5  1  0
  5  6  1  0
  6  7  1  0
  7  8  2  0
  8  9  1  0
  9 10  2  0
 10 11  1  0
 11 12  2  0
 11 13  1  0
 13 14  1  0
 14 15  1  0
 15 16  1  0
 16 17  1  0
 12  7  1  0
 17 10  1  0
  1 18  1  0
  1 19  1  0
  1 20  1  0
  2 21  1  0
  2 22  1  0
  4 23  1  0
  4 24  1  0
  5 25  1  0
  5 26  1  0
  6 27  1  0
  6 28  1  0
  8 29  1  0
  9 30  1  0
 12 31  1  0
 13 32  1  0
 13 33  1  0
 14 34  1  0
 14 35  1  0
 15 36  1  0
 16 37  1  0
 16 38  1  0
 17 39  1  0
 17 40  1  0
M  CHG  1   6   1
M  END
>  <UniqueID>  (28) 
28

>  <SMILES>  (28) 
CCOCC[NH2+]c1ccc2c(c1)CCNCC2

>  <Energy>  (28) 
47.12187350504955

>  <Genealogy>  (28) 
CCOCC[NH2+]c1ccc2c(c1)CCNCC2 (protonated)
CCOCC[NH2+]c1ccc2c(c1)CCNCC2 (3D coordinates assigned)
CCOCC[NH2+]c1ccc2c(c1)CCNCC2 (nonaromatic ring conformer: 47.12187350504955 kcal/mol)

>  <smiles>  (28) 
CCOCCNc1ccc2c(c1)CCNCC2

>  <score_type>  (28) 
oracle

>  <origin>  (28) 
adg

>  <m_score__min__energy>  (28) 
-5.1600000000000001

>  <m_primary>  (28) 
energy

$$$$
28:0
     RDKit          3D

 46 48  0  0  0  0  0  0  0  0999 V2000
   -9.4860   21.9170  -31.7450 C   0  0  0  0  0  0  0  0  0  0  0  0
   -8.4980   20.8500  -32.1180 C   0  0  0  0  0  0  0  0  0  0  0  0
   -8.9240   19.5390  -32.3260 C   0  0  0  0  0  0  0  0  0  0  0  0
   -8.0120   18.5480  -32.6840 C   0  0  0  0  0  0  0  0  0  0  0  0
   -6.6350   18.8440  -32.8530 C   0  0  0  0  0  0  0  0  0  0  0  0
   -6.2260   20.2000  -32.7500 C   0  0  0  0  0  0  0  0  0  0  0  0
   -7.1590   21.1800  -32.3460 C   0  0  0  0  0  0  0  0  0  0  0  0
   -4.8930   20.5460  -33.0400 C   0  0  0  0  0  0  0  0  0  0  0  0
   -4.4720   21.9210  -32.9860 N   0  0  0  0  0  0  0  0  0  0  0  0
   -4.2830   22.6110  -31.7090 C   0  0  0  0  0  0  0  0  0  0  0  0
   -5.2960   23.7490  -31.5610 C   0  0  0  0  0  0  0  0  0  0  0  0
   -4.6980   24.8880  -30.8320 N   0  0  0  0  0  0  0  0  0  0  0  0
   -3.7080   24.4050  -29.8560 C   0  0  0  0  0  0  0  0  0  0  0  0
   -5.7330   25.6700  -30.1300 C   0  0  0  0  0  0  0  0  0  0  0  0
   -3.9880   19.5450  -33.4380 C   0  0  0  0  0  0  0  0  0  0  0  0
   -2.6580   19.8660  -33.7830 C   0  0  0  0  0  0  0  0  0  0  0  0
   -1.7840   18.8860  -34.2460 C   0  0  0  0  0  0  0  0  0  0  0  0
   -2.2210   17.5750  -34.3860 C   0  0  0  0  0  0  0  0  0  0  0  0
   -3.5250   17.2290  -34.0370 C   0  0  0  0  0  0  0  0  0  0  0  0
   -4.4270   18.1950  -33.5190 C   0  0  0  0  0  0  0  0  0  0  0  0
   -5.7070   17.8550  -33.1210 N   0  0  0  0  0  0  0  0  0  0  0  0
   -6.0710   16.4310  -32.9430 C   0  0  0  0  0  0  0  0  0  0  0  0
   -9.5522   21.9885  -30.6493 H   0  0  0  0  0  0  0  0  0  0  0  0
   -9.1558   22.8824  -32.1562 H   0  0  0  0  0  0  0  0  0  0  0  0
  -10.4739   21.6619  -32.1562 H   0  0  0  0  0  0  0  0  0  0  0  0
   -9.9876   19.2850  -32.2067 H   0  0  0  0  0  0  0  0  0  0  0  0
   -8.3661   17.5181  -32.8383 H   0  0  0  0  0  0  0  0  0  0  0  0
   -6.8268   22.2196  -32.2085 H   0  0  0  0  0  0  0  0  0  0  0  0
   -4.5590   22.5050  -33.8490 H   0  0  0  0  0  0  0  0  0  0  0  0
   -4.4207   21.8942  -30.8861 H   0  0  0  0  0  0  0  0  0  0  0  0
   -3.2672   23.0320  -31.6784 H   0  0  0  0  0  0  0  0  0  0  0  0
   -5.6108   24.0847  -32.5601 H   0  0  0  0  0  0  0  0  0  0  0  0
   -6.1624   23.3802  -30.9924 H   0  0  0  0  0  0  0  0  0  0  0  0
   -4.0795   24.5862  -28.8366 H   0  0  0  0  0  0  0  0  0  0  0  0
   -3.5461   23.3267  -30.0010 H   0  0  0  0  0  0  0  0  0  0  0  0
   -2.7585   24.9411  -30.0010 H   0  0  0  0  0  0  0  0  0  0  0  0
   -5.5965   25.5668  -29.0434 H   0  0  0  0  0  0  0  0  0  0  0  0
   -5.6458   26.7298  -30.4115 H   0  0  0  0  0  0  0  0  0  0  0  0
   -6.7286   25.2966  -30.4115 H   0  0  0  0  0  0  0  0  0  0  0  0
   -2.3071   20.9039  -33.6849 H   0  0  0  0  0  0  0  0  0  0  0  0
   -0.7471   19.1501  -34.5010 H   0  0  0  0  0  0  0  0  0  0  0  0
   -1.5353   16.8072  -34.7737 H   0  0  0  0  0  0  0  0  0  0  0  0
   -3.8611   16.1895  -34.1651 H   0  0  0  0  0  0  0  0  0  0  0  0
   -6.1303   16.1991  -31.8693 H   0  0  0  0  0  0  0  0  0  0  0  0
   -7.0468   16.2404  -33.4137 H   0  0  0  0  0  0  0  0  0  0  0  0
   -5.3064   15.7955  -33.4137 H   0  0  0  0  0  0  0  0  0  0  0  0
  1  2  1  0
  2  3  2  0
  3  4  1  0
  4  5  2  0
  5  6  1  0
  6  7  2  0
  6  8  1  0
  8  9  1  0
  9 10  1  0
 10 11  1  0
 11 12  1  0
 12 13  1  0
 12 14  1  0
  8 15  2  0
 15 16  1  0
 16 17  2  0
 17 18  1  0
 18 19  2  0
 19 20  1  0
 20 21  2  0
 21 22  1  0
  7  2  1  0
 20 15  1  0
 21  5  1  0
  1 23  1  0
  1 24  1  0
  1 25  1  0
  3 26  1  0
  4 27  1  0
  7 28  1  0
  9 29  1  0
 10 30  1  0
 10 31  1  0
 11 32  1  0
 11 33  1  0
 13 34  1  0
 13 35  1  0
 13 36  1  0
 14 37  1  0
 14 38  1  0
 14 39  1  0
 16 40  1  0
 17 41  1  0
 18 42  1  0
 19 43  1  0
 22 44  1  0
 22 45  1  0
 22 46  1  0
M  CHG  1  21   1
M  END
>  <UniqueID>  (29) 
29

>  <SMILES>  (29) 
Cc1ccc2c(c1)c(NCCN(C)C)c1ccccc1[n+]2C

>  <Energy>  (29) 
71.68571784811289

>  <Genealogy>  (29) 
Cc1ccc2c(c1)c(NCCN(C)C)c1ccccc1[n+]2C (3D coordinates assigned)
Cc1ccc2c(c1)c(NCCN(C)C)c1ccccc1[n+]2C (optimized conformer: 71.68571784811289 kcal/mol)

>  <smiles>  (29) 
Cc1ccc2c(c1)c(NCCN(C)C)c1ccccc1[n+]2C

>  <score_type>  (29) 
oracle

>  <origin>  (29) 
adg

>  <m_score__min__energy>  (29) 
-8.25

>  <m_primary>  (29) 
energy

$$$$
29:0
     RDKit          3D

 40 42  0  0  0  0  0  0  0  0999 V2000
   -5.4780   15.2900  -33.8910 C   0  0  0  0  0  0  0  0  0  0  0  0
   -6.7440   16.1320  -34.0000 C   0  0  0  0  0  0  0  0  0  0  0  0
   -7.0550   16.7440  -32.7490 O   0  0  0  0  0  0  0  0  0  0  0  0
   -7.3340   18.1080  -32.5490 C   0  0  0  0  0  0  0  0  0  0  0  0
   -8.5050   18.5520  -31.9060 C   0  0  0  0  0  0  0  0  0  0  0  0
   -8.7390   19.9160  -31.7240 C   0  0  0  0  0  0  0  0  0  0  0  0
   -7.8050   20.8610  -32.1690 C   0  0  0  0  0  0  0  0  0  0  0  0
   -8.0560   22.3340  -31.9770 C   0  0  0  0  0  0  0  0  0  0  0  0
   -6.9300   23.1220  -32.4820 N   0  0  0  0  0  0  0  0  0  0  0  0
   -5.9180   23.7230  -31.6510 C   0  0  0  0  0  0  0  0  0  0  0  0
   -6.1410   24.9520  -30.9690 C   0  0  0  0  0  0  0  0  0  0  0  0
   -5.1400   25.5160  -30.1580 C   0  0  0  0  0  0  0  0  0  0  0  0
   -3.9320   24.8360  -30.0510 C   0  0  0  0  0  0  0  0  0  0  0  0
   -2.8510   25.1900  -29.3390 N   0  0  0  0  0  0  0  0  0  0  0  0
   -1.9920   24.1740  -29.6060 C   0  0  0  0  0  0  0  0  0  0  0  0
   -0.8340   24.1250  -29.1180 O   0  0  0  0  0  0  0  0  0  0  0  0
   -2.4710   23.2130  -30.4380 N   0  0  0  0  0  0  0  0  0  0  0  0
   -3.7060   23.6640  -30.7030 C   0  0  0  0  0  0  0  0  0  0  0  0
   -4.6700   23.0720  -31.5140 C   0  0  0  0  0  0  0  0  0  0  0  0
   -6.6410   20.4230  -32.8180 C   0  0  0  0  0  0  0  0  0  0  0  0
   -6.3970   19.0490  -33.0040 C   0  0  0  0  0  0  0  0  0  0  0  0
   -5.2370   18.5790  -33.6400 O   0  0  0  0  0  0  0  0  0  0  0  0
   -3.9500   19.1780  -33.5190 C   0  0  0  0  0  0  0  0  0  0  0  0
   -5.2352   15.1285  -32.8303 H   0  0  0  0  0  0  0  0  0  0  0  0
   -5.6400   14.3191  -34.3820 H   0  0  0  0  0  0  0  0  0  0  0  0
   -4.6452   15.8148  -34.3820 H   0  0  0  0  0  0  0  0  0  0  0  0
   -6.5919   16.9156  -34.7568 H   0  0  0  0  0  0  0  0  0  0  0  0
   -7.5791   15.4771  -34.2893 H   0  0  0  0  0  0  0  0  0  0  0  0
   -9.2409   17.8187  -31.5444 H   0  0  0  0  0  0  0  0  0  0  0  0
   -9.6621   20.2510  -31.2283 H   0  0  0  0  0  0  0  0  0  0  0  0
   -8.9686   22.6186  -32.5213 H   0  0  0  0  0  0  0  0  0  0  0  0
   -8.1739   22.5350  -30.9020 H   0  0  0  0  0  0  0  0  0  0  0  0
   -6.8360   23.2060  -33.5200 H   0  0  0  0  0  0  0  0  0  0  0  0
   -7.1072   25.4666  -31.0774 H   0  0  0  0  0  0  0  0  0  0  0  0
   -5.3073   26.4640  -29.6258 H   0  0  0  0  0  0  0  0  0  0  0  0
   -4.4668   22.1242  -32.0339 H   0  0  0  0  0  0  0  0  0  0  0  0
   -5.9119   21.1603  -33.1851 H   0  0  0  0  0  0  0  0  0  0  0  0
   -3.6986   19.2950  -32.4545 H   0  0  0  0  0  0  0  0  0  0  0  0
   -3.1999   18.5365  -34.0045 H   0  0  0  0  0  0  0  0  0  0  0  0
   -3.9578   20.1650  -34.0045 H   0  0  0  0  0  0  0  0  0  0  0  0
  1  2  1  0
  2  3  1  0
  3  4  1  0
  4  5  2  0
  5  6  1  0
  6  7  2  0
  7  8  1  0
  8  9  1  0
  9 10  1  0
 10 11  2  0
 11 12  1  0
 12 13  2  0
 13 14  1  0
 14 15  1  0
 15 16  2  0
 15 17  1  0
 17 18  1  0
 18 19  2  0
  7 20  1  0
 20 21  2  0
 21 22  1  0
 22 23  1  0
 21  4  1  0
 19 10  1  0
 18 13  1  0
  1 24  1  0
  1 25  1  0
  1 26  1  0
  2 27  1  0
  2 28  1  0
  5 29  1  0
  6 30  1  0
  8 31  1  0
  8 32  1  0
  9 33  1  0
 11 34  1  0
 12 35  1  0
 19 36  1  0
 20 37  1  0
 23 38  1  0
 23 39  1  0
 23 40  1  0
M  CHG  2  14  -1  17  -1
M  END
>  <UniqueID>  (30) 
30

>  <SMILES>  (30) 
CCOc1ccc(CNc2ccc3[n-]c(=O)[n-]c3c2)cc1OC

>  <Energy>  (30) 
74.02808786705853

>  <Genealogy>  (30) 
CCOc1ccc(CNc2ccc3[n-]c(=O)[n-]c3c2)cc1OC (protonated)
CCOc1ccc(CNc2ccc3[n-]c(=O)[n-]c3c2)cc1OC (3D coordinates assigned)
CCOc1ccc(CNc2ccc3[n-]c(=O)[n-]c3c2)cc1OC (optimized conformer: 74.02808786705853 kcal/mol)

>  <smiles>  (30) 
CCOc1ccc(CNc2ccc3[nH]c(=O)[nH]c3c2)cc1OC

>  <score_type>  (30) 
oracle

>  <origin>  (30) 
adg

>  <m_score__min__energy>  (30) 
-9.8599999999999994

>  <m_primary>  (30) 
energy

$$$$
30:0
     RDKit          3D

 56 57  0  0  0  0  0  0  0  0999 V2000
   -0.7370   20.6800  -30.5340 C   0  0  0  0  0  0  0  0  0  0  0  0
   -0.9000   22.1950  -30.4110 C   0  0  0  0  0  0  0  0  0  0  0  0
   -2.2720   22.5850  -30.0090 N   0  0  0  0  0  0  0  0  0  0  0  0
   -2.9780   21.4190  -29.4250 C   0  0  0  0  0  0  0  0  0  0  0  0
   -3.0910   21.4960  -27.9020 C   0  0  0  0  0  0  0  0  0  0  0  0
   -2.3270   23.8150  -29.1710 C   0  0  0  0  0  0  0  0  0  0  0  0
   -3.6770   24.5480  -29.1930 C   0  0  0  0  0  0  0  0  0  0  0  0
   -3.8610   25.1420  -30.4620 O   0  0  0  0  0  0  0  0  0  0  0  0
   -5.2400   25.3050  -30.7410 C   0  0  0  0  0  0  0  0  0  0  0  0
   -5.7770   24.1840  -31.6530 C   0  0  0  0  0  0  0  0  0  0  0  0
   -4.9940   22.9550  -31.4940 N   0  0  0  0  0  0  0  0  0  0  0  0
   -5.3270   21.7380  -32.1860 C   0  0  0  0  0  0  0  0  0  0  0  0
   -4.3400   21.0420  -32.9060 C   0  0  0  0  0  0  0  0  0  0  0  0
   -2.9340   21.5620  -33.0440 C   0  0  0  0  0  0  0  0  0  0  0  0
   -4.6640   19.8200  -33.5020 C   0  0  0  0  0  0  0  0  0  0  0  0
   -5.9310   19.3080  -33.4530 N   0  0  0  0  0  0  0  0  0  0  0  0
   -6.1560   18.0130  -34.1310 C   0  0  0  0  0  0  0  0  0  0  0  0
   -4.9190   17.5910  -34.9170 C   0  0  0  0  0  0  0  0  0  0  0  0
   -6.9280   19.9780  -32.7700 C   0  0  0  0  0  0  0  0  0  0  0  0
   -8.2390   19.4530  -32.6540 C   0  0  0  0  0  0  0  0  0  0  0  0
   -9.2300   20.1430  -31.9570 C   0  0  0  0  0  0  0  0  0  0  0  0
   -8.9450   21.3640  -31.3580 C   0  0  0  0  0  0  0  0  0  0  0  0
   -7.6630   21.9010  -31.4450 C   0  0  0  0  0  0  0  0  0  0  0  0
   -6.6400   21.2230  -32.1400 C   0  0  0  0  0  0  0  0  0  0  0  0
   -0.6890   20.2337  -29.5298 H   0  0  0  0  0  0  0  0  0  0  0  0
   -1.5954   20.2620  -31.0804 H   0  0  0  0  0  0  0  0  0  0  0  0
    0.1906   20.4542  -31.0804 H   0  0  0  0  0  0  0  0  0  0  0  0
   -0.1917   22.5663  -29.6558 H   0  0  0  0  0  0  0  0  0  0  0  0
   -0.7025   22.6348  -31.3997 H   0  0  0  0  0  0  0  0  0  0  0  0
   -3.9913   21.3725  -29.8506 H   0  0  0  0  0  0  0  0  0  0  0  0
   -2.3913   20.5209  -29.6684 H   0  0  0  0  0  0  0  0  0  0  0  0
   -2.2645   20.9328  -27.4441 H   0  0  0  0  0  0  0  0  0  0  0  0
   -3.0391   22.5475  -27.5832 H   0  0  0  0  0  0  0  0  0  0  0  0
   -4.0506   21.0631  -27.5832 H   0  0  0  0  0  0  0  0  0  0  0  0
   -2.1085   23.5309  -28.1310 H   0  0  0  0  0  0  0  0  0  0  0  0
   -1.5886   24.5120  -29.5940 H   0  0  0  0  0  0  0  0  0  0  0  0
   -4.4886   23.8307  -29.0011 H   0  0  0  0  0  0  0  0  0  0  0  0
   -3.6888   25.3256  -28.4151 H   0  0  0  0  0  0  0  0  0  0  0  0
   -5.7988   25.2914  -29.7936 H   0  0  0  0  0  0  0  0  0  0  0  0
   -5.3716   26.2635  -31.2644 H   0  0  0  0  0  0  0  0  0  0  0  0
   -6.8254   23.9787  -31.3909 H   0  0  0  0  0  0  0  0  0  0  0  0
   -5.6983   24.5160  -32.6987 H   0  0  0  0  0  0  0  0  0  0  0  0
   -4.0700   23.0230  -31.0120 H   0  0  0  0  0  0  0  0  0  0  0  0
   -2.5024   21.7216  -32.0449 H   0  0  0  0  0  0  0  0  0  0  0  0
   -2.3246   20.8298  -33.5940 H   0  0  0  0  0  0  0  0  0  0  0  0
   -2.9477   22.5145  -33.5940 H   0  0  0  0  0  0  0  0  0  0  0  0
   -3.8784   19.2547  -34.0247 H   0  0  0  0  0  0  0  0  0  0  0  0
   -6.3830   17.2455  -33.3764 H   0  0  0  0  0  0  0  0  0  0  0  0
   -6.9977   18.1229  -34.8306 H   0  0  0  0  0  0  0  0  0  0  0  0
   -4.1158   17.3170  -34.2172 H   0  0  0  0  0  0  0  0  0  0  0  0
   -5.1645   16.7258  -35.5503 H   0  0  0  0  0  0  0  0  0  0  0  0
   -4.5845   18.4259  -35.5503 H   0  0  0  0  0  0  0  0  0  0  0  0
   -8.4786   18.4863  -33.1210 H   0  0  0  0  0  0  0  0  0  0  0  0
  -10.2421   19.7189  -31.8809 H   0  0  0  0  0  0  0  0  0  0  0  0
   -9.7325   21.9068  -30.8147 H   0  0  0  0  0  0  0  0  0  0  0  0
   -7.4454   22.8667  -30.9653 H   0  0  0  0  0  0  0  0  0  0  0  0
  1  2  1  0
  2  3  1  0
  3  4  1  0
  4  5  1  0
  3  6  1  0
  6  7  1  0
  7  8  1  0
  8  9  1  0
  9 10  1  0
 10 11  1  0
 11 12  1  0
 12 13  2  0
 13 14  1  0
 13 15  1  0
 15 16  2  0
 16 17  1  0
 17 18  1  0
 16 19  1  0
 19 20  2  0
 20 21  1  0
 21 22  2  0
 22 23  1  0
 23 24  2  0
 24 12  1  0
 24 19  1  0
  1 25  1  0
  1 26  1  0
  1 27  1  0
  2 28  1  0
  2 29  1  0
  4 30  1  0
  4 31  1  0
  5 32  1  0
  5 33  1  0
  5 34  1  0
  6 35  1  0
  6 36  1  0
  7 37  1  0
  7 38  1  0
  9 39  1  0
  9 40  1  0
 10 41  1  0
 10 42  1  0
 11 43  1  0
 14 44  1  0
 14 45  1  0
 14 46  1  0
 15 47  1  0
 17 48  1  0
 17 49  1  0
 18 50  1  0
 18 51  1  0
 18 52  1  0
 20 53  1  0
 21 54  1  0
 22 55  1  0
 23 56  1  0
M  CHG  1  16   1
M  END
>  <UniqueID>  (31) 
31

>  <SMILES>  (31) 
CCN(CC)CCOCCNc1c(C)c[n+](CC)c2ccccc12

>  <Energy>  (31) 
65.60836823957851

>  <Genealogy>  (31) 
CCN(CC)CCOCCNc1c(C)c[n+](CC)c2ccccc12 (3D coordinates assigned)
CCN(CC)CCOCCNc1c(C)c[n+](CC)c2ccccc12 (optimized conformer: 65.60836823957851 kcal/mol)

>  <smiles>  (31) 
CCN(CC)CCOCCNc1c(C)c[n+](CC)c2ccccc12

>  <score_type>  (31) 
oracle

>  <origin>  (31) 
adg

>  <m_score__min__energy>  (31) 
-8.0299999999999994

>  <m_primary>  (31) 
energy

$$$$
31:0
     RDKit          3D

 43 46  0  0  0  0  0  0  0  0999 V2000
   -6.0840   17.9660  -34.9220 C   0  0  0  0  0  0  0  0  0  0  0  0
   -6.4800   19.2250  -34.2910 N   0  0  0  0  0  0  0  0  0  0  0  0
   -5.3870   19.7640  -33.5110 C   0  0  0  0  0  0  0  0  0  0  0  0
   -4.0860   19.2810  -33.7340 C   0  0  0  0  0  0  0  0  0  0  0  0
   -2.9940   19.8120  -33.0480 C   0  0  0  0  0  0  0  0  0  0  0  0
   -3.1770   20.8530  -32.1260 C   0  0  0  0  0  0  0  0  0  0  0  0
   -2.0970   21.4180  -31.4220 C   0  0  0  0  0  0  0  0  0  0  0  0
   -0.9210   20.9920  -31.6030 O   0  0  0  0  0  0  0  0  0  0  0  0
   -2.3390   22.4640  -30.5140 C   0  0  0  0  0  0  0  0  0  0  0  0
   -1.3060   23.0740  -29.7800 C   0  0  0  0  0  0  0  0  0  0  0  0
   -1.5980   24.1120  -28.8890 C   0  0  0  0  0  0  0  0  0  0  0  0
   -2.9140   24.5480  -28.7240 C   0  0  0  0  0  0  0  0  0  0  0  0
   -3.9480   23.9490  -29.4470 C   0  0  0  0  0  0  0  0  0  0  0  0
   -3.6690   22.9100  -30.3420 C   0  0  0  0  0  0  0  0  0  0  0  0
   -4.6610   22.3490  -31.0240 O   0  0  0  0  0  0  0  0  0  0  0  0
   -4.4760   21.3590  -31.8950 C   0  0  0  0  0  0  0  0  0  0  0  0
   -5.5800   20.8190  -32.5820 C   0  0  0  0  0  0  0  0  0  0  0  0
   -6.9260   21.3800  -32.3230 C   0  0  0  0  0  0  0  0  0  0  0  0
   -7.1110   22.7710  -32.3380 C   0  0  0  0  0  0  0  0  0  0  0  0
   -8.3780   23.3140  -32.1200 C   0  0  0  0  0  0  0  0  0  0  0  0
   -9.4710   22.4740  -31.8970 C   0  0  0  0  0  0  0  0  0  0  0  0
   -9.3000   21.0880  -31.8930 C   0  0  0  0  0  0  0  0  0  0  0  0
   -8.0270   20.5260  -32.1110 C   0  0  0  0  0  0  0  0  0  0  0  0
   -7.8170   19.1360  -32.1190 O   0  0  0  0  0  0  0  0  0  0  0  0
   -8.7360   18.1790  -31.6050 C   0  0  0  0  0  0  0  0  0  0  0  0
   -5.8505   17.2237  -34.1445 H   0  0  0  0  0  0  0  0  0  0  0  0
   -6.9086   17.5943  -35.5480 H   0  0  0  0  0  0  0  0  0  0  0  0
   -5.1951   18.1333  -35.5480 H   0  0  0  0  0  0  0  0  0  0  0  0
   -6.7910   19.9000  -35.0250 H   0  0  0  0  0  0  0  0  0  0  0  0
   -7.3060   19.0470  -33.6730 H   0  0  0  0  0  0  0  0  0  0  0  0
   -3.9266   18.4712  -34.4612 H   0  0  0  0  0  0  0  0  0  0  0  0
   -1.9854   19.4129  -33.2307 H   0  0  0  0  0  0  0  0  0  0  0  0
   -0.2674   22.7345  -29.9067 H   0  0  0  0  0  0  0  0  0  0  0  0
   -0.7877   24.5866  -28.3161 H   0  0  0  0  0  0  0  0  0  0  0  0
   -3.1371   25.3655  -28.0227 H   0  0  0  0  0  0  0  0  0  0  0  0
   -4.9836   24.2946  -29.3127 H   0  0  0  0  0  0  0  0  0  0  0  0
   -6.2542   23.4358  -32.5223 H   0  0  0  0  0  0  0  0  0  0  0  0
   -8.5159   24.4053  -32.1238 H   0  0  0  0  0  0  0  0  0  0  0  0
  -10.4683   22.9047  -31.7242 H   0  0  0  0  0  0  0  0  0  0  0  0
  -10.1649   20.4311  -31.7185 H   0  0  0  0  0  0  0  0  0  0  0  0
   -8.7133   18.2026  -30.5055 H   0  0  0  0  0  0  0  0  0  0  0  0
   -9.7504   18.4194  -31.9561 H   0  0  0  0  0  0  0  0  0  0  0  0
   -8.4547   17.1752  -31.9561 H   0  0  0  0  0  0  0  0  0  0  0  0
  1  2  1  0
  2  3  1  0
  3  4  2  0
  4  5  1  0
  5  6  2  0
  6  7  1  0
  7  8  2  0
  7  9  1  0
  9 10  2  0
 10 11  1  0
 11 12  2  0
 12 13  1  0
 13 14  2  0
 14 15  1  0
 15 16  1  0
 16 17  2  0
 17 18  1  0
 18 19  2  0
 19 20  1  0
 20 21  2  0
 21 22  1  0
 22 23  2  0
 23 24  1  0
 24 25  1  0
 17  3  1  0
 23 18  1  0
 16  6  1  0
 14  9  1  0
  1 26  1  0
  1 27  1  0
  1 28  1  0
  2 29  1  0
  2 30  1  0
  4 31  1  0
  5 32  1  0
 10 33  1  0
 11 34  1  0
 12 35  1  0
 13 36  1  0
 19 37  1  0
 20 38  1  0
 21 39  1  0
 22 40  1  0
 25 41  1  0
 25 42  1  0
 25 43  1  0
M  CHG  1   2   1
M  END
>  <UniqueID>  (32) 
32

>  <SMILES>  (32) 
C[NH2+]c1ccc2c(=O)c3ccccc3oc2c1-c1ccccc1OC

>  <Energy>  (32) 
63.87492770130713

>  <Genealogy>  (32) 
C[NH2+]c1ccc2c(=O)c3ccccc3oc2c1-c1ccccc1OC (protonated)
C[NH2+]c1ccc2c(=O)c3ccccc3oc2c1-c1ccccc1OC (3D coordinates assigned)
C[NH2+]c1ccc2c(=O)c3ccccc3oc2c1-c1ccccc1OC (optimized conformer: 63.87492770130713 kcal/mol)

>  <smiles>  (32) 
CNc1ccc2c(=O)c3ccccc3oc2c1-c1ccccc1OC

>  <score_type>  (32) 
oracle

>  <origin>  (32) 
adg

>  <m_score__min__energy>  (32) 
-7.4400000000000004

>  <m_primary>  (32) 
energy

$$$$
32:0
     RDKit          3D

 54 57  0  0  0  0  0  0  0  0999 V2000
    0.0010   19.9860  -33.7880 C   0  0  0  0  0  0  0  0  0  0  0  0
   -1.2480   20.5270  -33.1660 C   0  0  0  0  0  0  0  0  0  0  0  0
   -1.1670   21.4970  -32.1410 C   0  0  0  0  0  0  0  0  0  0  0  0
   -2.3540   21.9920  -31.5830 C   0  0  0  0  0  0  0  0  0  0  0  0
   -3.5270   21.5220  -32.0710 N   0  0  0  0  0  0  0  0  0  0  0  0
   -4.7420   21.8290  -31.6550 N   0  0  0  0  0  0  0  0  0  0  0  0
   -5.6070   21.1020  -32.4070 C   0  0  0  0  0  0  0  0  0  0  0  0
   -7.0690   21.1380  -32.2090 C   0  0  0  0  0  0  0  0  0  0  0  0
   -7.8150   19.9520  -32.2960 C   0  0  0  0  0  0  0  0  0  0  0  0
   -9.2020   19.9800  -32.1460 C   0  0  0  0  0  0  0  0  0  0  0  0
   -9.8580   21.1900  -31.9200 C   0  0  0  0  0  0  0  0  0  0  0  0
   -9.1280   22.3790  -31.8440 C   0  0  0  0  0  0  0  0  0  0  0  0
   -7.7270   22.3650  -31.9910 C   0  0  0  0  0  0  0  0  0  0  0  0
   -6.9560   23.5380  -31.9080 O   0  0  0  0  0  0  0  0  0  0  0  0
   -6.5060   24.1580  -30.7020 C   0  0  0  0  0  0  0  0  0  0  0  0
   -5.1080   24.7620  -30.8730 C   0  0  0  0  0  0  0  0  0  0  0  0
   -4.1870   24.3140  -29.7740 C   0  0  0  0  0  0  0  0  0  0  0  0
   -4.5840   23.3210  -28.8660 C   0  0  0  0  0  0  0  0  0  0  0  0
   -3.7230   22.9600  -27.8270 C   0  0  0  0  0  0  0  0  0  0  0  0
   -2.4860   23.5920  -27.6990 C   0  0  0  0  0  0  0  0  0  0  0  0
   -2.1270   24.5820  -28.6150 C   0  0  0  0  0  0  0  0  0  0  0  0
   -2.9770   24.9210  -29.6210 N   0  0  0  0  0  0  0  0  0  0  0  0
   -4.9000   20.3120  -33.3230 C   0  0  0  0  0  0  0  0  0  0  0  0
   -5.4020   19.2130  -34.2180 C   0  0  0  0  0  0  0  0  0  0  0  0
   -5.1980   17.8940  -33.5820 N   0  0  0  0  0  0  0  0  0  0  0  0
   -6.4270   17.0820  -33.6490 C   0  0  0  0  0  0  0  0  0  0  0  0
   -4.1010   17.1790  -34.2530 C   0  0  0  0  0  0  0  0  0  0  0  0
   -3.5860   20.6180  -33.0530 C   0  0  0  0  0  0  0  0  0  0  0  0
   -2.4670   20.0980  -33.6120 N   0  0  0  0  0  0  0  0  0  0  0  0
    0.7026   19.6821  -32.9971 H   0  0  0  0  0  0  0  0  0  0  0  0
   -0.2477   19.1150  -34.4120 H   0  0  0  0  0  0  0  0  0  0  0  0
    0.4662   20.7633  -34.4120 H   0  0  0  0  0  0  0  0  0  0  0  0
   -0.1896   21.8572  -31.7874 H   0  0  0  0  0  0  0  0  0  0  0  0
   -2.3335   22.7380  -30.7749 H   0  0  0  0  0  0  0  0  0  0  0  0
   -7.3038   18.9962  -32.4833 H   0  0  0  0  0  0  0  0  0  0  0  0
   -9.7794   19.0457  -32.2061 H   0  0  0  0  0  0  0  0  0  0  0  0
  -10.9514   21.2082  -31.8014 H   0  0  0  0  0  0  0  0  0  0  0  0
   -9.6501   23.3311  -31.6684 H   0  0  0  0  0  0  0  0  0  0  0  0
   -7.2099   24.9569  -30.4258 H   0  0  0  0  0  0  0  0  0  0  0  0
   -6.4584   23.3911  -29.9148 H   0  0  0  0  0  0  0  0  0  0  0  0
   -4.6945   24.4423  -31.8409 H   0  0  0  0  0  0  0  0  0  0  0  0
   -5.1936   25.8579  -30.8320 H   0  0  0  0  0  0  0  0  0  0  0  0
   -5.5635   22.8316  -28.9712 H   0  0  0  0  0  0  0  0  0  0  0  0
   -4.0197   22.1791  -27.1113 H   0  0  0  0  0  0  0  0  0  0  0  0
   -1.8009   23.3131  -26.8849 H   0  0  0  0  0  0  0  0  0  0  0  0
   -1.1551   25.0888  -28.5231 H   0  0  0  0  0  0  0  0  0  0  0  0
   -6.4754   19.3618  -34.4069 H   0  0  0  0  0  0  0  0  0  0  0  0
   -4.8430   19.2418  -35.1649 H   0  0  0  0  0  0  0  0  0  0  0  0
   -6.7719   16.8541  -32.6296 H   0  0  0  0  0  0  0  0  0  0  0  0
   -7.2081   17.6424  -34.1837 H   0  0  0  0  0  0  0  0  0  0  0  0
   -6.2179   16.1437  -34.1837 H   0  0  0  0  0  0  0  0  0  0  0  0
   -3.4314   16.7426  -33.4972 H   0  0  0  0  0  0  0  0  0  0  0  0
   -4.5162   16.3775  -34.8817 H   0  0  0  0  0  0  0  0  0  0  0  0
   -3.5353   17.8824  -34.8817 H   0  0  0  0  0  0  0  0  0  0  0  0
  1  2  1  0
  2  3  1  0
  3  4  2  0
  4  5  1  0
  5  6  1  0
  6  7  2  0
  7  8  1  0
  8  9  2  0
  9 10  1  0
 10 11  2  0
 11 12  1  0
 12 13  2  0
 13 14  1  0
 14 15  1  0
 15 16  1  0
 16 17  1  0
 17 18  2  0
 18 19  1  0
 19 20  2  0
 20 21  1  0
 21 22  2  0
  7 23  1  0
 23 24  1  0
 24 25  1  0
 25 26  1  0
 25 27  1  0
 23 28  2  0
 28 29  1  0
 29  2  2  0
 28  5  1  0
 13  8  1  0
 22 17  1  0
  1 30  1  0
  1 31  1  0
  1 32  1  0
  3 33  1  0
  4 34  1  0
  9 35  1  0
 10 36  1  0
 11 37  1  0
 12 38  1  0
 15 39  1  0
 15 40  1  0
 16 41  1  0
 16 42  1  0
 18 43  1  0
 19 44  1  0
 20 45  1  0
 21 46  1  0
 24 47  1  0
 24 48  1  0
 26 49  1  0
 26 50  1  0
 26 51  1  0
 27 52  1  0
 27 53  1  0
 27 54  1  0
M  END
>  <UniqueID>  (33) 
33

>  <SMILES>  (33) 
Cc1ccn2nc(-c3ccccc3OCCc3ccccn3)c(CN(C)C)c2n1

>  <Energy>  (33) 
93.9486406659131

>  <Genealogy>  (33) 
Cc1ccn2nc(-c3ccccc3OCCc3ccccn3)c(CN(C)C)c2n1 (3D coordinates assigned)
Cc1ccn2nc(-c3ccccc3OCCc3ccccn3)c(CN(C)C)c2n1 (optimized conformer: 93.9486406659131 kcal/mol)

>  <smiles>  (33) 
Cc1ccn2nc(-c3ccccc3OCCc3ccccn3)c(CN(C)C)c2n1

>  <score_type>  (33) 
oracle

>  <origin>  (33) 
adg

>  <m_score__min__energy>  (33) 
-8.9700000000000006

>  <m_primary>  (33) 
energy

$$$$
33:0
     RDKit          3D

 17 18  0  0  0  0  0  0  0  0999 V2000
   -5.4700   26.4250  -30.4190 O   0  0  0  0  0  0  0  0  0  0  0  0
   -4.8660   25.3450  -30.6500 C   0  0  0  0  0  0  0  0  0  0  0  0
   -3.4900   25.2770  -30.4720 O   0  0  0  0  0  0  0  0  0  0  0  0
   -5.6070   24.1630  -31.1030 C   0  0  0  0  0  0  0  0  0  0  0  0
   -5.0120   23.1220  -31.7450 N   0  0  0  0  0  0  0  0  0  0  0  0
   -6.0410   22.2840  -31.9680 C   0  0  0  0  0  0  0  0  0  0  0  0
   -6.0080   21.0440  -32.6010 C   0  0  0  0  0  0  0  0  0  0  0  0
   -7.2220   20.3390  -32.7190 C   0  0  0  0  0  0  0  0  0  0  0  0
   -8.4210   20.8870  -32.2090 C   0  0  0  0  0  0  0  0  0  0  0  0
   -8.4170   22.1430  -31.5740 C   0  0  0  0  0  0  0  0  0  0  0  0
   -7.1980   22.8100  -31.4750 C   0  0  0  0  0  0  0  0  0  0  0  0
   -6.9420   24.0020  -30.9230 N   0  0  0  0  0  0  0  0  0  0  0  0
   -5.0680   20.6300  -32.9946 H   0  0  0  0  0  0  0  0  0  0  0  0
   -7.2369   19.3554  -33.2113 H   0  0  0  0  0  0  0  0  0  0  0  0
   -9.3632   20.3282  -32.3091 H   0  0  0  0  0  0  0  0  0  0  0  0
   -9.3418   22.5816  -31.1710 H   0  0  0  0  0  0  0  0  0  0  0  0
   -7.6170   24.6520  -30.4610 H   0  0  0  0  0  0  0  0  0  0  0  0
  1  2  2  0
  2  3  1  0
  2  4  1  0
  4  5  2  0
  5  6  1  0
  6  7  2  0
  7  8  1  0
  8  9  2  0
  9 10  1  0
 10 11  2  0
 11 12  1  0
 12  4  1  0
 11  6  1  0
  7 13  1  0
  8 14  1  0
  9 15  1  0
 10 16  1  0
 12 17  1  0
M  CHG  1   3  -1
M  END
>  <UniqueID>  (34) 
34

>  <SMILES>  (34) 
O=C([O-])c1nc2ccccc2[nH]1

>  <Energy>  (34) 
52.90575839824254

>  <Genealogy>  (34) 
O=C([O-])c1nc2ccccc2[nH]1 (protonated)
O=C([O-])c1nc2ccccc2[nH]1 (3D coordinates assigned)
O=C([O-])c1nc2ccccc2[nH]1 (optimized conformer: 52.90575839824254 kcal/mol)

>  <smiles>  (34) 
O=C(O)c1nc2ccccc2[nH]1

>  <score_type>  (34) 
oracle

>  <origin>  (34) 
adg

>  <m_score__min__energy>  (34) 
-7.46

>  <m_primary>  (34) 
energy

$$$$
34:0
     RDKit          3D

 60 63  0  0  0  0  0  0  0  0999 V2000
   -4.1920   24.1930  -28.3160 C   0  0  0  0  0  0  0  0  0  0  0  0
   -3.4440   24.5600  -29.5950 C   0  0  0  0  0  0  0  0  0  0  0  0
   -4.3980   24.7000  -30.7190 N   0  0  0  0  0  0  0  0  0  0  0  0
   -5.5920   25.4820  -30.3220 C   0  0  0  0  0  0  0  0  0  0  0  0
   -6.8380   24.6010  -30.3640 C   0  0  0  0  0  0  0  0  0  0  0  0
   -4.7810   23.3760  -31.2650 C   0  0  0  0  0  0  0  0  0  0  0  0
   -3.6810   22.3480  -30.9960 C   0  0  0  0  0  0  0  0  0  0  0  0
   -3.0030   22.0410  -32.2010 O   0  0  0  0  0  0  0  0  0  0  0  0
   -1.8280   21.2900  -31.9690 C   0  0  0  0  0  0  0  0  0  0  0  0
   -1.5180   20.3560  -33.1470 C   0  0  0  0  0  0  0  0  0  0  0  0
   -2.6420   20.2980  -34.0820 N   0  0  0  0  0  0  0  0  0  0  0  0
   -3.6590   19.2900  -33.9590 C   0  0  0  0  0  0  0  0  0  0  0  0
   -3.3900   17.9140  -34.1570 C   0  0  0  0  0  0  0  0  0  0  0  0
   -2.1320   17.4840  -34.6220 C   0  0  0  0  0  0  0  0  0  0  0  0
   -1.8470   16.1260  -34.7480 C   0  0  0  0  0  0  0  0  0  0  0  0
   -2.8070   15.1760  -34.4160 C   0  0  0  0  0  0  0  0  0  0  0  0
   -4.0770   15.5730  -33.9970 C   0  0  0  0  0  0  0  0  0  0  0  0
   -4.4190   16.9440  -33.9020 C   0  0  0  0  0  0  0  0  0  0  0  0
   -5.7000   17.3540  -33.5590 N   0  0  0  0  0  0  0  0  0  0  0  0
   -6.8380   16.4180  -33.5490 C   0  0  0  0  0  0  0  0  0  0  0  0
   -5.9050   18.6870  -33.3080 C   0  0  0  0  0  0  0  0  0  0  0  0
   -4.9390   19.6410  -33.5440 C   0  0  0  0  0  0  0  0  0  0  0  0
   -5.3790   20.8830  -33.2420 N   0  0  0  0  0  0  0  0  0  0  0  0
   -6.6330   20.7110  -32.7820 C   0  0  0  0  0  0  0  0  0  0  0  0
   -7.4710   21.7050  -32.2800 C   0  0  0  0  0  0  0  0  0  0  0  0
   -8.7120   21.3200  -31.7540 C   0  0  0  0  0  0  0  0  0  0  0  0
   -9.0810   19.9590  -31.7170 C   0  0  0  0  0  0  0  0  0  0  0  0
   -8.2190   18.9690  -32.2230 C   0  0  0  0  0  0  0  0  0  0  0  0
   -7.0020   19.3760  -32.7870 C   0  0  0  0  0  0  0  0  0  0  0  0
   -3.5915   24.4876  -27.4427 H   0  0  0  0  0  0  0  0  0  0  0  0
   -5.1574   24.7198  -28.2918 H   0  0  0  0  0  0  0  0  0  0  0  0
   -4.3661   23.1071  -28.2918 H   0  0  0  0  0  0  0  0  0  0  0  0
   -2.9143   25.5126  -29.4463 H   0  0  0  0  0  0  0  0  0  0  0  0
   -2.7225   23.7641  -29.8316 H   0  0  0  0  0  0  0  0  0  0  0  0
   -5.4522   25.8649  -29.3003 H   0  0  0  0  0  0  0  0  0  0  0  0
   -5.7214   26.3198  -31.0230 H   0  0  0  0  0  0  0  0  0  0  0  0
   -7.1606   24.3729  -29.3374 H   0  0  0  0  0  0  0  0  0  0  0  0
   -7.6442   25.1310  -30.8924 H   0  0  0  0  0  0  0  0  0  0  0  0
   -6.6071   23.6643  -30.8924 H   0  0  0  0  0  0  0  0  0  0  0  0
   -5.7133   23.0426  -30.7858 H   0  0  0  0  0  0  0  0  0  0  0  0
   -4.9252   23.4671  -32.3517 H   0  0  0  0  0  0  0  0  0  0  0  0
   -2.9654   22.7611  -30.2699 H   0  0  0  0  0  0  0  0  0  0  0  0
   -4.1336   21.4307  -30.5913 H   0  0  0  0  0  0  0  0  0  0  0  0
   -0.9837   21.9809  -31.8284 H   0  0  0  0  0  0  0  0  0  0  0  0
   -1.9826   20.6743  -31.0707 H   0  0  0  0  0  0  0  0  0  0  0  0
   -0.6287   20.7284  -33.6766 H   0  0  0  0  0  0  0  0  0  0  0  0
   -1.3378   19.3447  -32.7535 H   0  0  0  0  0  0  0  0  0  0  0  0
   -2.8880   21.1800  -34.5870 H   0  0  0  0  0  0  0  0  0  0  0  0
   -1.3667   18.2279  -34.8884 H   0  0  0  0  0  0  0  0  0  0  0  0
   -0.8598   15.8043  -35.1111 H   0  0  0  0  0  0  0  0  0  0  0  0
   -2.5635   14.1055  -34.4842 H   0  0  0  0  0  0  0  0  0  0  0  0
   -4.8245   14.8092  -33.7363 H   0  0  0  0  0  0  0  0  0  0  0  0
   -7.1157   16.1896  -32.5094 H   0  0  0  0  0  0  0  0  0  0  0  0
   -7.6944   16.8765  -34.0650 H   0  0  0  0  0  0  0  0  0  0  0  0
   -6.5534   15.4892  -34.0650 H   0  0  0  0  0  0  0  0  0  0  0  0
   -4.8480   21.7810  -33.2960 H   0  0  0  0  0  0  0  0  0  0  0  0
   -7.1671   22.7621  -32.2961 H   0  0  0  0  0  0  0  0  0  0  0  0
   -9.4025   22.0841  -31.3676 H   0  0  0  0  0  0  0  0  0  0  0  0
  -10.0518   19.6691  -31.2885 H   0  0  0  0  0  0  0  0  0  0  0  0
   -8.4926   17.9045  -32.1773 H   0  0  0  0  0  0  0  0  0  0  0  0
  1  2  1  0
  2  3  1  0
  3  4  1  0
  4  5  1  0
  3  6  1  0
  6  7  1  0
  7  8  1  0
  8  9  1  0
  9 10  1  0
 10 11  1  0
 11 12  1  0
 12 13  2  0
 13 14  1  0
 14 15  2  0
 15 16  1  0
 16 17  2  0
 17 18  1  0
 18 19  2  0
 19 20  1  0
 19 21  1  0
 21 22  2  0
 22 23  1  0
 23 24  1  0
 24 25  2  0
 25 26  1  0
 26 27  2  0
 27 28  1  0
 28 29  2  0
 22 12  1  0
 29 24  1  0
 18 13  1  0
 29 21  1  0
  1 30  1  0
  1 31  1  0
  1 32  1  0
  2 33  1  0
  2 34  1  0
  4 35  1  0
  4 36  1  0
  5 37  1  0
  5 38  1  0
  5 39  1  0
  6 40  1  0
  6 41  1  0
  7 42  1  0
  7 43  1  0
  9 44  1  0
  9 45  1  0
 10 46  1  0
 10 47  1  0
 11 48  1  0
 14 49  1  0
 15 50  1  0
 16 51  1  0
 17 52  1  0
 20 53  1  0
 20 54  1  0
 20 55  1  0
 23 56  1  0
 25 57  1  0
 26 58  1  0
 27 59  1  0
 28 60  1  0
M  CHG  1  19   1
M  END
>  <UniqueID>  (35) 
35

>  <SMILES>  (35) 
CCN(CC)CCOCCNc1c2ccccc2[n+](C)c2c1[nH]c1ccccc12

>  <Energy>  (35) 
118.33320229334268

>  <Genealogy>  (35) 
CCN(CC)CCOCCNc1c2ccccc2[n+](C)c2c1[nH]c1ccccc12 (3D coordinates assigned)
CCN(CC)CCOCCNc1c2ccccc2[n+](C)c2c1[nH]c1ccccc12 (optimized conformer: 118.33320229334268 kcal/mol)

>  <smiles>  (35) 
CCN(CC)CCOCCNc1c2ccccc2[n+](C)c2c1[nH]c1ccccc12

>  <score_type>  (35) 
oracle

>  <origin>  (35) 
adg

>  <m_score__min__energy>  (35) 
-8.8800000000000008

>  <m_primary>  (35) 
energy

$$$$
35:0
     RDKit          3D

 54 57  0  0  0  0  0  0  0  0999 V2000
   -6.2280   24.8860  -29.8160 C   0  0  0  0  0  0  0  0  0  0  0  0
   -4.9950   25.3970  -30.5600 C   0  0  0  0  0  0  0  0  0  0  0  0
   -3.8620   24.4550  -30.4060 N   0  0  0  0  0  0  0  0  0  0  0  0
   -3.3040   24.5490  -29.0400 C   0  0  0  0  0  0  0  0  0  0  0  0
   -4.2940   23.0690  -30.7010 C   0  0  0  0  0  0  0  0  0  0  0  0
   -3.6080   22.5220  -31.9620 C   0  0  0  0  0  0  0  0  0  0  0  0
   -4.5940   22.2140  -32.9990 N   0  0  0  0  0  0  0  0  0  0  0  0
   -5.5880   21.2050  -32.7750 C   0  0  0  0  0  0  0  0  0  0  0  0
   -5.2600   19.8530  -32.9540 C   0  0  0  0  0  0  0  0  0  0  0  0
   -6.2540   18.8670  -32.7740 C   0  0  0  0  0  0  0  0  0  0  0  0
   -7.4570   19.2060  -32.1850 N   0  0  0  0  0  0  0  0  0  0  0  0
   -8.2920   18.1700  -31.5420 C   0  0  0  0  0  0  0  0  0  0  0  0
   -7.8320   20.5320  -32.1020 C   0  0  0  0  0  0  0  0  0  0  0  0
   -9.1450   20.9100  -31.7240 C   0  0  0  0  0  0  0  0  0  0  0  0
   -9.5120   22.2540  -31.6540 C   0  0  0  0  0  0  0  0  0  0  0  0
   -8.5920   23.2490  -31.9650 C   0  0  0  0  0  0  0  0  0  0  0  0
   -7.2960   22.9090  -32.3460 C   0  0  0  0  0  0  0  0  0  0  0  0
   -6.8980   21.5570  -32.4100 C   0  0  0  0  0  0  0  0  0  0  0  0
   -5.9220   17.4700  -33.2110 C   0  0  0  0  0  0  0  0  0  0  0  0
   -6.8930   16.6030  -33.7490 C   0  0  0  0  0  0  0  0  0  0  0  0
   -6.5420   15.3160  -34.1660 C   0  0  0  0  0  0  0  0  0  0  0  0
   -5.2140   14.8930  -34.0920 C   0  0  0  0  0  0  0  0  0  0  0  0
   -4.2270   15.7680  -33.6370 C   0  0  0  0  0  0  0  0  0  0  0  0
   -4.5690   17.0670  -33.2330 C   0  0  0  0  0  0  0  0  0  0  0  0
   -3.5040   18.0520  -32.8410 C   0  0  0  0  0  0  0  0  0  0  0  0
   -3.8600   19.4440  -33.3800 C   0  0  0  0  0  0  0  0  0  0  0  0
   -6.0574   24.9567  -28.7316 H   0  0  0  0  0  0  0  0  0  0  0  0
   -7.1010   25.4964  -30.0904 H   0  0  0  0  0  0  0  0  0  0  0  0
   -6.4132   23.8370  -30.0904 H   0  0  0  0  0  0  0  0  0  0  0  0
   -5.2354   25.5009  -31.6284 H   0  0  0  0  0  0  0  0  0  0  0  0
   -4.7053   26.3703  -30.1372 H   0  0  0  0  0  0  0  0  0  0  0  0
   -4.1104   24.4131  -28.3043 H   0  0  0  0  0  0  0  0  0  0  0  0
   -2.5440   23.7662  -28.8997 H   0  0  0  0  0  0  0  0  0  0  0  0
   -2.8424   25.5376  -28.8997 H   0  0  0  0  0  0  0  0  0  0  0  0
   -4.0376   22.4252  -29.8467 H   0  0  0  0  0  0  0  0  0  0  0  0
   -5.3803   23.0755  -30.8742 H   0  0  0  0  0  0  0  0  0  0  0  0
   -2.9049   23.2759  -32.3457 H   0  0  0  0  0  0  0  0  0  0  0  0
   -3.0730   21.5976  -31.6990 H   0  0  0  0  0  0  0  0  0  0  0  0
   -4.4680   22.5730  -33.9740 H   0  0  0  0  0  0  0  0  0  0  0  0
   -8.2160   18.2643  -30.4487 H   0  0  0  0  0  0  0  0  0  0  0  0
   -9.3400   18.3009  -31.8494 H   0  0  0  0  0  0  0  0  0  0  0  0
   -7.9415   17.1737  -31.8494 H   0  0  0  0  0  0  0  0  0  0  0  0
   -9.8848   20.1326  -31.4825 H   0  0  0  0  0  0  0  0  0  0  0  0
  -10.5335   22.5278  -31.3515 H   0  0  0  0  0  0  0  0  0  0  0  0
   -8.8882   24.3069  -31.9101 H   0  0  0  0  0  0  0  0  0  0  0  0
   -6.5765   23.7016  -32.5992 H   0  0  0  0  0  0  0  0  0  0  0  0
   -7.9355   16.9414  -33.8417 H   0  0  0  0  0  0  0  0  0  0  0  0
   -7.3141   14.6350  -34.5534 H   0  0  0  0  0  0  0  0  0  0  0  0
   -4.9454   13.8695  -34.3925 H   0  0  0  0  0  0  0  0  0  0  0  0
   -3.1784   15.4384  -33.5950 H   0  0  0  0  0  0  0  0  0  0  0  0
   -3.4302   18.0929  -31.7442 H   0  0  0  0  0  0  0  0  0  0  0  0
   -2.5405   17.7335  -33.2656 H   0  0  0  0  0  0  0  0  0  0  0  0
   -3.1374   20.1760  -32.9901 H   0  0  0  0  0  0  0  0  0  0  0  0
   -3.8238   19.4133  -34.4790 H   0  0  0  0  0  0  0  0  0  0  0  0
  1  2  1  0
  2  3  1  0
  3  4  1  0
  3  5  1  0
  5  6  1  0
  6  7  1  0
  7  8  1  0
  8  9  2  0
  9 10  1  0
 10 11  2  0
 11 12  1  0
 11 13  1  0
 13 14  2  0
 14 15  1  0
 15 16  2  0
 16 17  1  0
 17 18  2  0
 10 19  1  0
 19 20  2  0
 20 21  1  0
 21 22  2  0
 22 23  1  0
 23 24  2  0
 24 25  1  0
 25 26  1  0
 18  8  1  0
 24 19  1  0
 26  9  1  0
 18 13  1  0
  1 27  1  0
  1 28  1  0
  1 29  1  0
  2 30  1  0
  2 31  1  0
  4 32  1  0
  4 33  1  0
  4 34  1  0
  5 35  1  0
  5 36  1  0
  6 37  1  0
  6 38  1  0
  7 39  1  0
 12 40  1  0
 12 41  1  0
 12 42  1  0
 14 43  1  0
 15 44  1  0
 16 45  1  0
 17 46  1  0
 20 47  1  0
 21 48  1  0
 22 49  1  0
 23 50  1  0
 25 51  1  0
 25 52  1  0
 26 53  1  0
 26 54  1  0
M  CHG  1  11   1
M  END
>  <UniqueID>  (36) 
36

>  <SMILES>  (36) 
CCN(C)CCNc1c2c([n+](C)c3ccccc13)-c1ccccc1CC2

>  <Energy>  (36) 
86.03121897247111

>  <Genealogy>  (36) 
CCN(C)CCNc1c2c([n+](C)c3ccccc13)-c1ccccc1CC2 (3D coordinates assigned)
CCN(C)CCNc1c2c([n+](C)c3ccccc13)-c1ccccc1CC2 (nonaromatic ring conformer: 86.03121897247111 kcal/mol)

>  <smiles>  (36) 
CCN(C)CCNc1c2c([n+](C)c3ccccc13)-c1ccccc1CC2

>  <score_type>  (36) 
oracle

>  <origin>  (36) 
adg

>  <m_score__min__energy>  (36) 
-9.3900000000000006

>  <m_primary>  (36) 
energy

$$$$
