0:0
     RDKit          3D

 43 47  0  0  0  0  0  0  0  0999 V2000
    0.6540   19.7780  -35.6900 O   0  0  0  0  0  0  0  0  0  0  0  0
    0.3800   20.9370  -35.2730 C   0  0  0  0  0  0  0  0  0  0  0  0
   -0.8900   21.1920  -34.6460 N   0  0  0  0  0  0  0  0  0  0  0  0
   -1.7700   20.1600  -34.1700 C   0  0  0  0  0  0  0  0  0  0  0  0
   -1.3160   18.8460  -33.9690 C   0  0  0  0  0  0  0  0  0  0  0  0
   -2.1850   17.8680  -33.4820 C   0  0  0  0  0  0  0  0  0  0  0  0
   -3.5100   18.1910  -33.1770 C   0  0  0  0  0  0  0  0  0  0  0  0
   -3.9790   19.5050  -33.3480 C   0  0  0  0  0  0  0  0  0  0  0  0
   -5.3780   19.8640  -33.0180 C   0  0  0  0  0  0  0  0  0  0  0  0
   -5.7510   21.1050  -32.6110 N   0  0  0  0  0  0  0  0  0  0  0  0
   -7.0860   21.1700  -32.3740 C   0  0  0  0  0  0  0  0  0  0  0  0
   -7.7550   22.3170  -31.9440 C   0  0  0  0  0  0  0  0  0  0  0  0
   -9.1430   22.2500  -31.7350 C   0  0  0  0  0  0  0  0  0  0  0  0
   -9.8410   21.0450  -31.9570 C   0  0  0  0  0  0  0  0  0  0  0  0
   -9.1570   19.8980  -32.3890 C   0  0  0  0  0  0  0  0  0  0  0  0
   -7.7810   19.9920  -32.5880 C   0  0  0  0  0  0  0  0  0  0  0  0
   -6.7090   18.8080  -33.0940 S   0  0  0  0  0  0  0  0  0  0  0  0
   -3.0960   20.4840  -33.8390 C   0  0  0  0  0  0  0  0  0  0  0  0
    1.3510   22.0350  -35.4660 C   0  0  0  0  0  0  0  0  0  0  0  0
    2.7280   21.7750  -35.5740 C   0  0  0  0  0  0  0  0  0  0  0  0
    3.6220   22.8340  -35.7520 C   0  0  0  0  0  0  0  0  0  0  0  0
    3.1420   24.1460  -35.8200 C   0  0  0  0  0  0  0  0  0  0  0  0
    4.0120   25.2330  -35.9980 C   0  0  0  0  0  0  0  0  0  0  0  0
    3.5000   26.5330  -36.0620 C   0  0  0  0  0  0  0  0  0  0  0  0
    2.1230   26.7540  -35.9490 C   0  0  0  0  0  0  0  0  0  0  0  0
    1.2500   25.6770  -35.7710 C   0  0  0  0  0  0  0  0  0  0  0  0
    1.7530   24.3720  -35.7060 C   0  0  0  0  0  0  0  0  0  0  0  0
    0.9070   23.3210  -35.5340 N   0  0  0  0  0  0  0  0  0  0  0  0
   -1.2360   22.1780  -34.6160 H   0  0  0  0  0  0  0  0  0  0  0  0
   -0.2715   18.5866  -34.1963 H   0  0  0  0  0  0  0  0  0  0  0  0
   -1.8252   16.8386  -33.3377 H   0  0  0  0  0  0  0  0  0  0  0  0
   -4.1899   17.4124  -32.8009 H   0  0  0  0  0  0  0  0  0  0  0  0
   -7.2066   23.2549  -31.7721 H   0  0  0  0  0  0  0  0  0  0  0  0
   -9.6884   23.1431  -31.3961 H   0  0  0  0  0  0  0  0  0  0  0  0
  -10.9276   21.0037  -31.7907 H   0  0  0  0  0  0  0  0  0  0  0  0
   -9.6914   18.9528  -32.5653 H   0  0  0  0  0  0  0  0  0  0  0  0
   -3.4491   21.5181  -33.9655 H   0  0  0  0  0  0  0  0  0  0  0  0
    3.1006   20.7415  -35.5186 H   0  0  0  0  0  0  0  0  0  0  0  0
    4.7006   22.6364  -35.8384 H   0  0  0  0  0  0  0  0  0  0  0  0
    5.0951   25.0627  -36.0871 H   0  0  0  0  0  0  0  0  0  0  0  0
    4.1822   27.3845  -36.2016 H   0  0  0  0  0  0  0  0  0  0  0  0
    1.7262   27.7786  -36.0004 H   0  0  0  0  0  0  0  0  0  0  0  0
    0.1681   25.8547  -35.6820 H   0  0  0  0  0  0  0  0  0  0  0  0
  1  2  2  0
  2  3  1  0
  3  4  1  0
  4  5  2  0
  5  6  1  0
  6  7  2  0
  7  8  1  0
  8  9  1  0
  9 10  2  0
 10 11  1  0
 11 12  2  0
 12 13  1  0
 13 14  2  0
 14 15  1  0
 15 16  2  0
 16 17  1  0
  8 18  2  0
  2 19  1  0
 19 20  2  0
 20 21  1  0
 21 22  2  0
 22 23  1  0
 23 24  2  0
 24 25  1  0
 25 26  2  0
 26 27  1  0
 27 28  2  0
 18  4  1  0
 28 19  1  0
 17  9  1  0
 27 22  1  0
 16 11  1  0
  3 29  1  0
  5 30  1  0
  6 31  1  0
  7 32  1  0
 12 33  1  0
 13 34  1  0
 14 35  1  0
 15 36  1  0
 18 37  1  0
 20 38  1  0
 21 39  1  0
 23 40  1  0
 24 41  1  0
 25 42  1  0
 26 43  1  0
M  END
>  <UniqueID>  (1) 
1

>  <SMILES>  (1) 
O=C(Nc1cccc(-c2nc3ccccc3s2)c1)c1ccc2ccccc2n1

>  <Energy>  (1) 
92.45488108818333

>  <Genealogy>  (1) 
O=C(Nc1cccc(-c2nc3ccccc3s2)c1)c1ccc2ccccc2n1 (3D coordinates assigned)
O=C(Nc1cccc(-c2nc3ccccc3s2)c1)c1ccc2ccccc2n1 (optimized conformer: 92.45488108818333 kcal/mol)

>  <smiles>  (1) 
O=C(Nc1cccc(-c2nc3ccccc3s2)c1)c1ccc2ccccc2n1

>  <score_type>  (1) 
oracle

>  <origin>  (1) 
adg

>  <m_score__min__energy>  (1) 
-9.9700000000000006

>  <m_primary>  (1) 
energy

$$$$
1:0
     RDKit          3D

 40 43  0  0  0  0  0  0  0  0999 V2000
   -6.2030   25.7420  -29.4790 C   0  0  0  0  0  0  0  0  0  0  0  0
   -5.9490   24.5040  -30.2950 C   0  0  0  0  0  0  0  0  0  0  0  0
   -7.0340   23.6610  -30.5910 C   0  0  0  0  0  0  0  0  0  0  0  0
   -6.8590   22.5260  -31.3930 C   0  0  0  0  0  0  0  0  0  0  0  0
   -7.9460   21.6890  -31.6950 C   0  0  0  0  0  0  0  0  0  0  0  0
   -7.7620   20.5640  -32.5030 C   0  0  0  0  0  0  0  0  0  0  0  0
   -6.4970   20.2670  -33.0180 C   0  0  0  0  0  0  0  0  0  0  0  0
   -5.4080   21.0920  -32.7250 C   0  0  0  0  0  0  0  0  0  0  0  0
   -5.5800   22.2250  -31.9130 C   0  0  0  0  0  0  0  0  0  0  0  0
   -4.4930   23.0530  -31.6030 C   0  0  0  0  0  0  0  0  0  0  0  0
   -4.6570   24.1650  -30.7680 C   0  0  0  0  0  0  0  0  0  0  0  0
   -3.4930   24.9360  -30.4380 N   0  0  0  0  0  0  0  0  0  0  0  0
   -2.5730   24.6510  -29.3740 C   0  0  0  0  0  0  0  0  0  0  0  0
   -1.8220   25.5770  -28.9650 O   0  0  0  0  0  0  0  0  0  0  0  0
   -2.4640   23.3050  -28.7630 C   0  0  0  0  0  0  0  0  0  0  0  0
   -3.5500   22.7750  -28.0450 C   0  0  0  0  0  0  0  0  0  0  0  0
   -3.4750   21.5000  -27.4790 C   0  0  0  0  0  0  0  0  0  0  0  0
   -2.3070   20.7370  -27.6120 C   0  0  0  0  0  0  0  0  0  0  0  0
   -2.2220   19.4520  -27.0530 C   0  0  0  0  0  0  0  0  0  0  0  0
   -1.0490   18.7040  -27.1880 C   0  0  0  0  0  0  0  0  0  0  0  0
    0.0450   19.2310  -27.8800 C   0  0  0  0  0  0  0  0  0  0  0  0
   -0.0260   20.5090  -28.4400 C   0  0  0  0  0  0  0  0  0  0  0  0
   -1.1990   21.2700  -28.3130 C   0  0  0  0  0  0  0  0  0  0  0  0
   -1.2820   22.5530  -28.8730 C   0  0  0  0  0  0  0  0  0  0  0  0
   -6.1518   25.4927  -28.4089 H   0  0  0  0  0  0  0  0  0  0  0  0
   -5.4416   26.4998  -29.7157 H   0  0  0  0  0  0  0  0  0  0  0  0
   -7.2013   26.1388  -29.7157 H   0  0  0  0  0  0  0  0  0  0  0  0
   -8.0307   23.8949  -30.1887 H   0  0  0  0  0  0  0  0  0  0  0  0
   -8.9442   21.9197  -31.2945 H   0  0  0  0  0  0  0  0  0  0  0  0
   -8.6155   19.9099  -32.7346 H   0  0  0  0  0  0  0  0  0  0  0  0
   -6.3584   19.3815  -33.6557 H   0  0  0  0  0  0  0  0  0  0  0  0
   -4.4139   20.8536  -33.1311 H   0  0  0  0  0  0  0  0  0  0  0  0
   -3.5005   22.8271  -32.0199 H   0  0  0  0  0  0  0  0  0  0  0  0
   -4.4678   23.3699  -27.9277 H   0  0  0  0  0  0  0  0  0  0  0  0
   -4.3354   21.0936  -26.9272 H   0  0  0  0  0  0  0  0  0  0  0  0
   -3.0804   19.0329  -26.5076 H   0  0  0  0  0  0  0  0  0  0  0  0
   -0.9867   17.6976  -26.7483 H   0  0  0  0  0  0  0  0  0  0  0  0
    0.9652   18.6374  -27.9841 H   0  0  0  0  0  0  0  0  0  0  0  0
    0.8389   20.9198  -28.9815 H   0  0  0  0  0  0  0  0  0  0  0  0
   -0.4148   22.9742  -29.4027 H   0  0  0  0  0  0  0  0  0  0  0  0
  1  2  1  0
  2  3  2  0
  3  4  1  0
  4  5  2  0
  5  6  1  0
  6  7  2  0
  7  8  1  0
  8  9  2  0
  9 10  1  0
 10 11  2  0
 11 12  1  0
 12 13  1  0
 13 14  2  0
 13 15  1  0
 15 16  2  0
 16 17  1  0
 17 18  2  0
 18 19  1  0
 19 20  2  0
 20 21  1  0
 21 22  2  0
 22 23  1  0
 23 24  2  0
 11  2  1  0
 24 15  1  0
  9  4  1  0
 23 18  1  0
  1 25  1  0
  1 26  1  0
  1 27  1  0
  3 28  1  0
  5 29  1  0
  6 30  1  0
  7 31  1  0
  8 32  1  0
 10 33  1  0
 16 34  1  0
 17 35  1  0
 19 36  1  0
 20 37  1  0
 21 38  1  0
 22 39  1  0
 24 40  1  0
M  CHG  1  12  -1
M  END
>  <UniqueID>  (2) 
2

>  <SMILES>  (2) 
Cc1cc2ccccc2cc1[N-]C(=O)c1ccc2ccccc2c1

>  <Energy>  (2) 
59.9041325317547

>  <Genealogy>  (2) 
Cc1cc2ccccc2cc1[N-]C(=O)c1ccc2ccccc2c1 (protonated)
Cc1cc2ccccc2cc1[N-]C(=O)c1ccc2ccccc2c1 (3D coordinates assigned)
Cc1cc2ccccc2cc1[N-]C(=O)c1ccc2ccccc2c1 (optimized conformer: 59.9041325317547 kcal/mol)

>  <smiles>  (2) 
Cc1cc2ccccc2cc1NC(=O)c1ccc2ccccc2c1

>  <score_type>  (2) 
oracle

>  <origin>  (2) 
adg

>  <m_score__min__energy>  (2) 
-11.4

>  <m_primary>  (2) 
energy

$$$$
2:0
     RDKit          3D

 54 58  0  0  0  0  0  0  0  0999 V2000
   -1.6800   25.2310  -25.5330 C   0  0  0  0  0  0  0  0  0  0  0  0
   -2.1590   24.8560  -26.8570 N   0  0  0  0  0  0  0  0  0  0  0  0
   -3.4320   24.5670  -27.1800 C   0  0  0  0  0  0  0  0  0  0  0  0
   -3.4850   24.3340  -28.5400 C   0  0  0  0  0  0  0  0  0  0  0  0
   -4.6840   23.9730  -29.3230 C   0  0  0  0  0  0  0  0  0  0  0  0
   -5.8070   24.8160  -29.3910 C   0  0  0  0  0  0  0  0  0  0  0  0
   -6.8810   24.4480  -30.1410 N   0  0  0  0  0  0  0  0  0  0  0  0
   -6.8930   23.2760  -30.8260 C   0  0  0  0  0  0  0  0  0  0  0  0
   -7.9990   22.9120  -31.5960 C   0  0  0  0  0  0  0  0  0  0  0  0
   -7.9910   21.7020  -32.2980 C   0  0  0  0  0  0  0  0  0  0  0  0
   -6.8790   20.8400  -32.2380 C   0  0  0  0  0  0  0  0  0  0  0  0
   -6.8820   19.5940  -32.9710 N   0  0  0  0  0  0  0  0  0  0  0  0
   -6.1250   19.4660  -34.2290 C   0  0  0  0  0  0  0  0  0  0  0  0
   -4.6590   19.2730  -33.9430 C   0  0  0  0  0  0  0  0  0  0  0  0
   -4.0440   18.0340  -34.1880 C   0  0  0  0  0  0  0  0  0  0  0  0
   -2.6750   17.8680  -33.9590 C   0  0  0  0  0  0  0  0  0  0  0  0
   -1.9100   18.9350  -33.4830 C   0  0  0  0  0  0  0  0  0  0  0  0
   -2.5150   20.1690  -33.2310 C   0  0  0  0  0  0  0  0  0  0  0  0
   -3.8830   20.3400  -33.4600 C   0  0  0  0  0  0  0  0  0  0  0  0
   -7.4980   18.4000  -32.3670 C   0  0  0  0  0  0  0  0  0  0  0  0
   -6.7070   17.1540  -32.6790 C   0  0  0  0  0  0  0  0  0  0  0  0
   -6.9580   16.4300  -33.8580 C   0  0  0  0  0  0  0  0  0  0  0  0
   -6.2500   15.2540  -34.1280 C   0  0  0  0  0  0  0  0  0  0  0  0
   -5.2900   14.7910  -33.2240 C   0  0  0  0  0  0  0  0  0  0  0  0
   -4.6150   13.6440  -33.4810 F   0  0  0  0  0  0  0  0  0  0  0  0
   -5.0300   15.5070  -32.0520 C   0  0  0  0  0  0  0  0  0  0  0  0
   -5.7350   16.6830  -31.7800 C   0  0  0  0  0  0  0  0  0  0  0  0
   -5.7730   21.2100  -31.4460 C   0  0  0  0  0  0  0  0  0  0  0  0
   -5.7750   22.4240  -30.7530 C   0  0  0  0  0  0  0  0  0  0  0  0
   -4.7030   22.7960  -30.0070 N   0  0  0  0  0  0  0  0  0  0  0  0
   -2.1840   24.5170  -28.9850 C   0  0  0  0  0  0  0  0  0  0  0  0
   -1.3990   24.8420  -27.9410 N   0  0  0  0  0  0  0  0  0  0  0  0
   -2.3015   24.7444  -24.7668 H   0  0  0  0  0  0  0  0  0  0  0  0
   -0.6348   24.9086  -25.4163 H   0  0  0  0  0  0  0  0  0  0  0  0
   -1.7421   26.3230  -25.4163 H   0  0  0  0  0  0  0  0  0  0  0  0
   -4.2820   24.5238  -26.4831 H   0  0  0  0  0  0  0  0  0  0  0  0
   -5.8174   25.7684  -28.8406 H   0  0  0  0  0  0  0  0  0  0  0  0
   -8.8749   23.5752  -31.6506 H   0  0  0  0  0  0  0  0  0  0  0  0
   -8.8644   21.4203  -32.9045 H   0  0  0  0  0  0  0  0  0  0  0  0
   -6.5015   18.5992  -34.7919 H   0  0  0  0  0  0  0  0  0  0  0  0
   -6.2552   20.3855  -34.8186 H   0  0  0  0  0  0  0  0  0  0  0  0
   -4.6426   17.1903  -34.5619 H   0  0  0  0  0  0  0  0  0  0  0  0
   -2.1996   16.8954  -34.1540 H   0  0  0  0  0  0  0  0  0  0  0  0
   -0.8322   18.8041  -33.3066 H   0  0  0  0  0  0  0  0  0  0  0  0
   -1.9131   21.0079  -32.8515 H   0  0  0  0  0  0  0  0  0  0  0  0
   -4.3541   21.3139  -33.2613 H   0  0  0  0  0  0  0  0  0  0  0  0
   -7.5408   18.5327  -31.2759 H   0  0  0  0  0  0  0  0  0  0  0  0
   -8.5081   18.2824  -32.7863 H   0  0  0  0  0  0  0  0  0  0  0  0
   -7.7143   16.7899  -34.5711 H   0  0  0  0  0  0  0  0  0  0  0  0
   -6.4492   14.6930  -35.0530 H   0  0  0  0  0  0  0  0  0  0  0  0
   -4.2704   15.1449  -31.3435 H   0  0  0  0  0  0  0  0  0  0  0  0
   -5.5276   17.2433  -30.8564 H   0  0  0  0  0  0  0  0  0  0  0  0
   -4.9038   20.5398  -31.3730 H   0  0  0  0  0  0  0  0  0  0  0  0
   -1.8469   24.4129  -30.0269 H   0  0  0  0  0  0  0  0  0  0  0  0
  1  2  1  0
  2  3  1  0
  3  4  2  0
  4  5  1  0
  5  6  2  0
  6  7  1  0
  7  8  2  0
  8  9  1  0
  9 10  2  0
 10 11  1  0
 11 12  1  0
 12 13  1  0
 13 14  1  0
 14 15  2  0
 15 16  1  0
 16 17  2  0
 17 18  1  0
 18 19  2  0
 12 20  1  0
 20 21  1  0
 21 22  2  0
 22 23  1  0
 23 24  2  0
 24 25  1  0
 24 26  1  0
 26 27  2  0
 11 28  2  0
 28 29  1  0
 29 30  2  0
  4 31  1  0
 31 32  2  0
 32  2  1  0
 30  5  1  0
 29  8  1  0
 19 14  1  0
 27 21  1  0
  1 33  1  0
  1 34  1  0
  1 35  1  0
  3 36  1  0
  6 37  1  0
  9 38  1  0
 10 39  1  0
 13 40  1  0
 13 41  1  0
 15 42  1  0
 16 43  1  0
 17 44  1  0
 18 45  1  0
 19 46  1  0
 20 47  1  0
 20 48  1  0
 22 49  1  0
 23 50  1  0
 26 51  1  0
 27 52  1  0
 28 53  1  0
 31 54  1  0
M  END
>  <UniqueID>  (3) 
3

>  <SMILES>  (3) 
Cn1cc(-c2cnc3ccc(N(Cc4ccccc4)Cc4ccc(F)cc4)cc3n2)cn1

>  <Energy>  (3) 
95.03535932109813

>  <Genealogy>  (3) 
Cn1cc(-c2cnc3ccc(N(Cc4ccccc4)Cc4ccc(F)cc4)cc3n2)cn1 (3D coordinates assigned)
Cn1cc(-c2cnc3ccc(N(Cc4ccccc4)Cc4ccc(F)cc4)cc3n2)cn1 (optimized conformer: 95.03535932109813 kcal/mol)

>  <smiles>  (3) 
Cn1cc(-c2cnc3ccc(N(Cc4ccccc4)Cc4ccc(F)cc4)cc3n2)cn1

>  <score_type>  (3) 
oracle

>  <origin>  (3) 
adg

>  <m_score__min__energy>  (3) 
-9.2699999999999996

>  <m_primary>  (3) 
energy

$$$$
3:0
     RDKit          3D

 24 25  0  0  0  0  0  0  0  0999 V2000
   -8.8250   18.5520  -31.9780 C   0  0  0  0  0  0  0  0  0  0  0  0
   -8.5060   19.6830  -32.7820 O   0  0  0  0  0  0  0  0  0  0  0  0
   -7.5170   20.6320  -32.4760 C   0  0  0  0  0  0  0  0  0  0  0  0
   -6.2070   20.5090  -32.9780 C   0  0  0  0  0  0  0  0  0  0  0  0
   -5.2330   21.4550  -32.6690 C   0  0  0  0  0  0  0  0  0  0  0  0
   -5.5390   22.5410  -31.8540 C   0  0  0  0  0  0  0  0  0  0  0  0
   -4.5920   23.4330  -31.5730 O   0  0  0  0  0  0  0  0  0  0  0  0
   -4.8090   24.4940  -30.8050 C   0  0  0  0  0  0  0  0  0  0  0  0
   -3.8690   25.3000  -30.5760 O   0  0  0  0  0  0  0  0  0  0  0  0
   -6.0700   24.7170  -30.2510 C   0  0  0  0  0  0  0  0  0  0  0  0
   -7.0950   23.8110  -30.5180 C   0  0  0  0  0  0  0  0  0  0  0  0
   -6.8470   22.6920  -31.3350 C   0  0  0  0  0  0  0  0  0  0  0  0
   -7.8460   21.7310  -31.6460 C   0  0  0  0  0  0  0  0  0  0  0  0
   -9.2490   21.8740  -31.1000 C   0  0  0  0  0  0  0  0  0  0  0  0
   -8.7482   18.8244  -30.9150 H   0  0  0  0  0  0  0  0  0  0  0  0
   -9.8511   18.2227  -32.1989 H   0  0  0  0  0  0  0  0  0  0  0  0
   -8.1222   17.7351  -32.1989 H   0  0  0  0  0  0  0  0  0  0  0  0
   -5.9500   19.6551  -33.6221 H   0  0  0  0  0  0  0  0  0  0  0  0
   -4.2154   21.3433  -33.0715 H   0  0  0  0  0  0  0  0  0  0  0  0
   -6.2524   25.5945  -29.6132 H   0  0  0  0  0  0  0  0  0  0  0  0
   -8.0961   23.9702  -30.0909 H   0  0  0  0  0  0  0  0  0  0  0  0
   -9.2167   21.8707  -30.0005 H   0  0  0  0  0  0  0  0  0  0  0  0
   -9.6844   22.8212  -31.4512 H   0  0  0  0  0  0  0  0  0  0  0  0
   -9.8665   21.0341  -31.4512 H   0  0  0  0  0  0  0  0  0  0  0  0
  1  2  1  0
  2  3  1  0
  3  4  2  0
  4  5  1  0
  5  6  2  0
  6  7  1  0
  7  8  1  0
  8  9  2  0
  8 10  1  0
 10 11  2  0
 11 12  1  0
 12 13  2  0
 13 14  1  0
 13  3  1  0
 12  6  1  0
  1 15  1  0
  1 16  1  0
  1 17  1  0
  4 18  1  0
  5 19  1  0
 10 20  1  0
 11 21  1  0
 14 22  1  0
 14 23  1  0
 14 24  1  0
M  END
>  <UniqueID>  (4) 
4

>  <SMILES>  (4) 
COc1ccc2oc(=O)ccc2c1C

>  <Energy>  (4) 
30.839203103645776

>  <Genealogy>  (4) 
COc1ccc2oc(=O)ccc2c1C (3D coordinates assigned)
COc1ccc2oc(=O)ccc2c1C (optimized conformer: 30.839203103645776 kcal/mol)

>  <smiles>  (4) 
COc1ccc2oc(=O)ccc2c1C

>  <score_type>  (4) 
oracle

>  <origin>  (4) 
adg

>  <m_score__min__energy>  (4) 
-6.8799999999999999

>  <m_primary>  (4) 
energy

$$$$
4:0
     RDKit          3D

 34 35  0  0  0  0  0  0  0  0999 V2000
   -2.4350   22.2660  -31.2050 C   0  0  0  0  0  0  0  0  0  0  0  0
   -3.7510   22.9750  -31.2010 C   0  0  0  0  0  0  0  0  0  0  0  0
   -3.8970   24.2600  -30.8260 N   0  0  0  0  0  0  0  0  0  0  0  0
   -5.1900   24.5430  -30.8610 N   0  0  0  0  0  0  0  0  0  0  0  0
   -5.7380   25.8390  -30.4780 C   0  0  0  0  0  0  0  0  0  0  0  0
   -5.8900   23.4550  -31.2460 C   0  0  0  0  0  0  0  0  0  0  0  0
   -7.3900   23.3920  -31.2970 C   0  0  0  0  0  0  0  0  0  0  0  0
   -4.9940   22.4170  -31.4650 C   0  0  0  0  0  0  0  0  0  0  0  0
   -5.2920   20.9710  -31.7870 C   0  0  0  0  0  0  0  0  0  0  0  0
   -5.7360   20.7970  -33.1790 N   0  0  0  0  0  0  0  0  0  0  0  0
   -5.6510   19.4210  -33.5870 C   0  0  0  0  0  0  0  0  0  0  0  0
   -4.6880   18.9420  -34.4010 N   0  0  0  0  0  0  0  0  0  0  0  0
   -5.0290   17.6480  -34.5810 C   0  0  0  0  0  0  0  0  0  0  0  0
   -6.1530   17.3080  -33.9150 N   0  0  0  0  0  0  0  0  0  0  0  0
   -6.8520   16.0300  -33.9810 C   0  0  0  0  0  0  0  0  0  0  0  0
   -6.5620   18.4280  -33.2950 C   0  0  0  0  0  0  0  0  0  0  0  0
   -8.0310   18.5800  -32.3410 Cl  0  0  0  0  0  0  0  0  0  0  0  0
   -2.1098   22.0908  -30.1689 H   0  0  0  0  0  0  0  0  0  0  0  0
   -2.5394   21.3021  -31.7245 H   0  0  0  0  0  0  0  0  0  0  0  0
   -1.6874   22.8834  -31.7245 H   0  0  0  0  0  0  0  0  0  0  0  0
   -5.7697   25.9140  -29.3810 H   0  0  0  0  0  0  0  0  0  0  0  0
   -5.1016   26.6401  -30.8820 H   0  0  0  0  0  0  0  0  0  0  0  0
   -6.7561   25.9405  -30.8820 H   0  0  0  0  0  0  0  0  0  0  0  0
   -7.7913   23.3751  -30.2730 H   0  0  0  0  0  0  0  0  0  0  0  0
   -7.7762   24.2747  -31.8277 H   0  0  0  0  0  0  0  0  0  0  0  0
   -7.7009   22.4800  -31.8277 H   0  0  0  0  0  0  0  0  0  0  0  0
   -4.3803   20.3765  -31.6280 H   0  0  0  0  0  0  0  0  0  0  0  0
   -6.1053   20.6362  -31.1263 H   0  0  0  0  0  0  0  0  0  0  0  0
   -5.1750   21.4030  -33.8200 H   0  0  0  0  0  0  0  0  0  0  0  0
   -6.7350   21.0980  -33.2500 H   0  0  0  0  0  0  0  0  0  0  0  0
   -4.4533   16.9468  -35.2030 H   0  0  0  0  0  0  0  0  0  0  0  0
   -7.0503   15.6675  -32.9616 H   0  0  0  0  0  0  0  0  0  0  0  0
   -7.8045   16.1602  -34.5156 H   0  0  0  0  0  0  0  0  0  0  0  0
   -6.2285   15.2982  -34.5156 H   0  0  0  0  0  0  0  0  0  0  0  0
  1  2  1  0
  2  3  2  0
  3  4  1  0
  4  5  1  0
  4  6  1  0
  6  7  1  0
  6  8  2  0
  8  9  1  0
  9 10  1  0
 10 11  1  0
 11 12  1  0
 12 13  2  0
 13 14  1  0
 14 15  1  0
 14 16  1  0
 16 17  1  0
  8  2  1  0
 16 11  2  0
  1 18  1  0
  1 19  1  0
  1 20  1  0
  5 21  1  0
  5 22  1  0
  5 23  1  0
  7 24  1  0
  7 25  1  0
  7 26  1  0
  9 27  1  0
  9 28  1  0
 10 29  1  0
 10 30  1  0
 13 31  1  0
 15 32  1  0
 15 33  1  0
 15 34  1  0
M  CHG  1  10   1
M  END
>  <UniqueID>  (5) 
5

>  <SMILES>  (5) 
Cc1nn(C)c(C)c1C[NH2+]c1ncn(C)c1Cl

>  <Energy>  (5) 
88.48230496784612

>  <Genealogy>  (5) 
Cc1nn(C)c(C)c1C[NH2+]c1ncn(C)c1Cl (protonated)
Cc1nn(C)c(C)c1C[NH2+]c1ncn(C)c1Cl (3D coordinates assigned)
Cc1nn(C)c(C)c1C[NH2+]c1ncn(C)c1Cl (optimized conformer: 88.48230496784612 kcal/mol)

>  <smiles>  (5) 
Cc1nn(C)c(C)c1CNc1ncn(C)c1Cl

>  <score_type>  (5) 
oracle

>  <origin>  (5) 
adg

>  <m_score__min__energy>  (5) 
-6.2000000000000002

>  <m_primary>  (5) 
energy

$$$$
5:0
     RDKit          3D

 58 61  0  0  0  0  0  0  0  0999 V2000
   -3.8700   25.3280  -30.8600 O   0  0  0  0  0  0  0  0  0  0  0  0
   -4.3620   24.3920  -30.1740 C   0  0  0  0  0  0  0  0  0  0  0  0
   -5.6900   23.8230  -30.6000 C   0  0  0  0  0  0  0  0  0  0  0  0
   -5.5700   23.1750  -31.9080 N   0  0  0  0  0  0  0  0  0  0  0  0
   -5.9600   21.8100  -32.1410 C   0  0  0  0  0  0  0  0  0  0  0  0
   -7.3200   21.4530  -32.1900 C   0  0  0  0  0  0  0  0  0  0  0  0
   -7.6980   20.1380  -32.4760 C   0  0  0  0  0  0  0  0  0  0  0  0
   -9.3980   19.7060  -32.5340 Cl  0  0  0  0  0  0  0  0  0  0  0  0
   -6.7250   19.1700  -32.7310 C   0  0  0  0  0  0  0  0  0  0  0  0
   -5.3730   19.5140  -32.7020 C   0  0  0  0  0  0  0  0  0  0  0  0
   -4.9800   20.8290  -32.4100 C   0  0  0  0  0  0  0  0  0  0  0  0
   -3.5820   21.1440  -32.3520 N   0  0  0  0  0  0  0  0  0  0  0  0
   -2.9530   21.4470  -31.0620 C   0  0  0  0  0  0  0  0  0  0  0  0
   -1.6570   20.6420  -30.9110 C   0  0  0  0  0  0  0  0  0  0  0  0
   -0.7520   20.6860  -32.1660 C   0  0  0  0  0  0  0  0  0  0  0  0
   -1.3310   21.5220  -33.3170 C   0  0  0  0  0  0  0  0  0  0  0  0
   -2.7930   21.1480  -33.5890 C   0  0  0  0  0  0  0  0  0  0  0  0
   -3.6130   23.8600  -29.0580 N   0  0  0  0  0  0  0  0  0  0  0  0
   -4.2530   23.1220  -27.9540 C   0  0  0  0  0  0  0  0  0  0  0  0
   -3.4870   21.8220  -27.6790 C   0  0  0  0  0  0  0  0  0  0  0  0
   -2.0330   22.0310  -27.7190 N   0  0  0  0  0  0  0  0  0  0  0  0
   -1.1560   20.8890  -27.7890 C   0  0  0  0  0  0  0  0  0  0  0  0
   -1.6190   19.6080  -27.4350 C   0  0  0  0  0  0  0  0  0  0  0  0
   -0.7580   18.5080  -27.4780 C   0  0  0  0  0  0  0  0  0  0  0  0
    0.5730   18.6750  -27.8690 C   0  0  0  0  0  0  0  0  0  0  0  0
    1.0450   19.9420  -28.2150 C   0  0  0  0  0  0  0  0  0  0  0  0
    0.1880   21.0460  -28.1730 C   0  0  0  0  0  0  0  0  0  0  0  0
   -1.5060   23.3990  -27.8170 C   0  0  0  0  0  0  0  0  0  0  0  0
   -2.1630   24.1150  -29.0010 C   0  0  0  0  0  0  0  0  0  0  0  0
   -6.0224   23.0826  -29.8575 H   0  0  0  0  0  0  0  0  0  0  0  0
   -6.4227   24.6403  -30.6718 H   0  0  0  0  0  0  0  0  0  0  0  0
   -4.9500   23.6290  -32.6160 H   0  0  0  0  0  0  0  0  0  0  0  0
   -8.0914   22.2142  -32.0019 H   0  0  0  0  0  0  0  0  0  0  0  0
   -7.0243   18.1355  -32.9549 H   0  0  0  0  0  0  0  0  0  0  0  0
   -4.6101   18.7492  -32.9094 H   0  0  0  0  0  0  0  0  0  0  0  0
   -2.7228   22.5215  -31.0120 H   0  0  0  0  0  0  0  0  0  0  0  0
   -3.6439   21.1763  -30.2500 H   0  0  0  0  0  0  0  0  0  0  0  0
   -1.0916   21.0491  -30.0598 H   0  0  0  0  0  0  0  0  0  0  0  0
   -1.9451   19.5916  -30.7570 H   0  0  0  0  0  0  0  0  0  0  0  0
    0.2189   21.1161  -31.8789 H   0  0  0  0  0  0  0  0  0  0  0  0
   -0.6620   19.6530  -32.5332 H   0  0  0  0  0  0  0  0  0  0  0  0
   -1.2764   22.5877  -33.0500 H   0  0  0  0  0  0  0  0  0  0  0  0
   -0.7438   21.3207  -34.2251 H   0  0  0  0  0  0  0  0  0  0  0  0
   -3.2258   21.8793  -34.2875 H   0  0  0  0  0  0  0  0  0  0  0  0
   -2.8178   20.1361  -34.0195 H   0  0  0  0  0  0  0  0  0  0  0  0
   -4.2489   23.7459  -27.0481 H   0  0  0  0  0  0  0  0  0  0  0  0
   -5.2884   22.8787  -28.2345 H   0  0  0  0  0  0  0  0  0  0  0  0
   -3.7663   21.4471  -26.6833 H   0  0  0  0  0  0  0  0  0  0  0  0
   -3.7514   21.0953  -28.4613 H   0  0  0  0  0  0  0  0  0  0  0  0
   -2.6649   19.4717  -27.1226 H   0  0  0  0  0  0  0  0  0  0  0  0
   -1.1287   17.5093  -27.2036 H   0  0  0  0  0  0  0  0  0  0  0  0
    1.2488   17.8078  -27.9041 H   0  0  0  0  0  0  0  0  0  0  0  0
    2.0934   20.0724  -28.5214 H   0  0  0  0  0  0  0  0  0  0  0  0
    0.5670   22.0430  -28.4418 H   0  0  0  0  0  0  0  0  0  0  0  0
   -1.7288   23.9453  -26.8886 H   0  0  0  0  0  0  0  0  0  0  0  0
   -0.4171   23.3627  -27.9685 H   0  0  0  0  0  0  0  0  0  0  0  0
   -1.9955   25.1975  -28.9001 H   0  0  0  0  0  0  0  0  0  0  0  0
   -1.7113   23.7299  -29.9271 H   0  0  0  0  0  0  0  0  0  0  0  0
  1  2  2  0
  2  3  1  0
  3  4  1  0
  4  5  1  0
  5  6  2  0
  6  7  1  0
  7  8  1  0
  7  9  2  0
  9 10  1  0
 10 11  2  0
 11 12  1  0
 12 13  1  0
 13 14  1  0
 14 15  1  0
 15 16  1  0
 16 17  1  0
  2 18  1  0
 18 19  1  0
 19 20  1  0
 20 21  1  0
 21 22  1  0
 22 23  2  0
 23 24  1  0
 24 25  2  0
 25 26  1  0
 26 27  2  0
 21 28  1  0
 28 29  1  0
 11  5  1  0
 17 12  1  0
 29 18  1  0
 27 22  1  0
  3 30  1  0
  3 31  1  0
  4 32  1  0
  6 33  1  0
  9 34  1  0
 10 35  1  0
 13 36  1  0
 13 37  1  0
 14 38  1  0
 14 39  1  0
 15 40  1  0
 15 41  1  0
 16 42  1  0
 16 43  1  0
 17 44  1  0
 17 45  1  0
 19 46  1  0
 19 47  1  0
 20 48  1  0
 20 49  1  0
 23 50  1  0
 24 51  1  0
 25 52  1  0
 26 53  1  0
 27 54  1  0
 28 55  1  0
 28 56  1  0
 29 57  1  0
 29 58  1  0
M  END
>  <UniqueID>  (6) 
6

>  <SMILES>  (6) 
O=C(CNc1cc(Cl)ccc1N1CCCCC1)N1CCN(c2ccccc2)CC1

>  <Energy>  (6) 
71.79908837587962

>  <Genealogy>  (6) 
O=C(CNc1cc(Cl)ccc1N1CCCCC1)N1CCN(c2ccccc2)CC1 (3D coordinates assigned)
O=C(CNc1cc(Cl)ccc1N1CCCCC1)N1CCN(c2ccccc2)CC1 (nonaromatic ring conformer: 71.79908837587962 kcal/mol)

>  <smiles>  (6) 
O=C(CNc1cc(Cl)ccc1N1CCCCC1)N1CCN(c2ccccc2)CC1

>  <score_type>  (6) 
oracle

>  <origin>  (6) 
adg

>  <m_score__min__energy>  (6) 
-9.5700000000000003

>  <m_primary>  (6) 
energy

$$$$
6:0
     RDKit          3D

 61 63  0  0  0  0  0  0  0  0999 V2000
   -7.2040   23.7870  -30.8220 C   0  0  0  0  0  0  0  0  0  0  0  0
   -7.6440   22.9600  -31.9580 N   0  0  0  0  0  0  0  0  0  0  0  0
   -6.5580   22.0380  -32.3720 C   0  0  0  0  0  0  0  0  0  0  0  0
   -7.1120   20.7970  -33.0890 C   0  0  0  0  0  0  0  0  0  0  0  0
   -8.0260   20.0100  -32.2220 N   0  0  0  0  0  0  0  0  0  0  0  0
   -7.3460   18.8520  -31.6030 C   0  0  0  0  0  0  0  0  0  0  0  0
   -6.5030   18.1300  -32.6210 C   0  0  0  0  0  0  0  0  0  0  0  0
   -7.0060   17.0140  -33.3060 C   0  0  0  0  0  0  0  0  0  0  0  0
   -6.2150   16.3540  -34.2490 C   0  0  0  0  0  0  0  0  0  0  0  0
   -4.9160   16.7950  -34.5120 C   0  0  0  0  0  0  0  0  0  0  0  0
   -4.3910   17.9030  -33.8200 C   0  0  0  0  0  0  0  0  0  0  0  0
   -3.0970   18.4000  -34.0410 O   0  0  0  0  0  0  0  0  0  0  0  0
   -2.0210   17.6830  -34.6530 C   0  0  0  0  0  0  0  0  0  0  0  0
   -0.6930   18.1140  -34.0290 C   0  0  0  0  0  0  0  0  0  0  0  0
   -0.8430   19.4020  -33.1970 C   0  0  0  0  0  0  0  0  0  0  0  0
   -1.6650   19.1950  -31.9930 N   0  0  0  0  0  0  0  0  0  0  0  0
   -2.1370   20.4460  -31.4470 C   0  0  0  0  0  0  0  0  0  0  0  0
   -1.7140   20.8740  -30.1760 C   0  0  0  0  0  0  0  0  0  0  0  0
   -2.1300   22.1090  -29.6710 C   0  0  0  0  0  0  0  0  0  0  0  0
   -2.9730   22.9330  -30.4260 C   0  0  0  0  0  0  0  0  0  0  0  0
   -3.4810   24.4880  -29.7760 S   0  0  0  0  0  0  0  0  0  0  0  0
   -4.5970   24.2290  -28.4120 C   0  0  0  0  0  0  0  0  0  0  0  0
   -4.1770   25.2900  -30.8410 O   0  0  0  0  0  0  0  0  0  0  0  0
   -2.2720   25.2530  -29.3110 O   0  0  0  0  0  0  0  0  0  0  0  0
   -3.4150   22.5050  -31.6860 C   0  0  0  0  0  0  0  0  0  0  0  0
   -2.9990   21.2710  -32.1940 C   0  0  0  0  0  0  0  0  0  0  0  0
   -5.1960   18.5690  -32.8860 C   0  0  0  0  0  0  0  0  0  0  0  0
   -8.7020   20.8260  -31.1870 C   0  0  0  0  0  0  0  0  0  0  0  0
   -8.9240   22.2710  -31.6600 C   0  0  0  0  0  0  0  0  0  0  0  0
   -7.4703   23.2866  -29.8793 H   0  0  0  0  0  0  0  0  0  0  0  0
   -6.1136   23.9243  -30.8690 H   0  0  0  0  0  0  0  0  0  0  0  0
   -7.6994   24.7680  -30.8690 H   0  0  0  0  0  0  0  0  0  0  0  0
   -5.8783   22.5703  -33.0536 H   0  0  0  0  0  0  0  0  0  0  0  0
   -6.0266   21.7046  -31.4684 H   0  0  0  0  0  0  0  0  0  0  0  0
   -7.6640   21.1214  -33.9835 H   0  0  0  0  0  0  0  0  0  0  0  0
   -6.2612   20.1528  -33.3557 H   0  0  0  0  0  0  0  0  0  0  0  0
   -6.7017   19.2055  -30.7845 H   0  0  0  0  0  0  0  0  0  0  0  0
   -8.1064   18.1587  -31.2143 H   0  0  0  0  0  0  0  0  0  0  0  0
   -8.0261   16.6578  -33.0999 H   0  0  0  0  0  0  0  0  0  0  0  0
   -6.6168   15.4828  -34.7871 H   0  0  0  0  0  0  0  0  0  0  0  0
   -4.3015   16.2752  -35.2618 H   0  0  0  0  0  0  0  0  0  0  0  0
   -2.1652   16.6038  -34.4966 H   0  0  0  0  0  0  0  0  0  0  0  0
   -2.0046   17.9013  -35.7310 H   0  0  0  0  0  0  0  0  0  0  0  0
   -0.3287   17.3081  -33.3750 H   0  0  0  0  0  0  0  0  0  0  0  0
    0.0185   18.3142  -34.8437 H   0  0  0  0  0  0  0  0  0  0  0  0
    0.1564   19.7430  -32.8890 H   0  0  0  0  0  0  0  0  0  0  0  0
   -1.3467   20.1521  -33.8244 H   0  0  0  0  0  0  0  0  0  0  0  0
   -1.0850   18.7100  -31.2690 H   0  0  0  0  0  0  0  0  0  0  0  0
   -2.4680   18.5610  -32.2200 H   0  0  0  0  0  0  0  0  0  0  0  0
   -1.0517   20.2329  -29.5757 H   0  0  0  0  0  0  0  0  0  0  0  0
   -1.7935   22.4350  -28.6758 H   0  0  0  0  0  0  0  0  0  0  0  0
   -4.0531   24.3552  -27.4642 H   0  0  0  0  0  0  0  0  0  0  0  0
   -5.4166   24.9608  -28.4647 H   0  0  0  0  0  0  0  0  0  0  0  0
   -5.0105   23.2110  -28.4647 H   0  0  0  0  0  0  0  0  0  0  0  0
   -4.0906   23.1417  -32.2760 H   0  0  0  0  0  0  0  0  0  0  0  0
   -3.3476   20.9423  -33.1842 H   0  0  0  0  0  0  0  0  0  0  0  0
   -4.7991   19.4462  -32.3541 H   0  0  0  0  0  0  0  0  0  0  0  0
   -9.6771   20.3725  -30.9558 H   0  0  0  0  0  0  0  0  0  0  0  0
   -8.0586   20.8515  -30.2952 H   0  0  0  0  0  0  0  0  0  0  0  0
   -9.5400   22.2560  -32.5712 H   0  0  0  0  0  0  0  0  0  0  0  0
   -9.4259   22.8208  -30.8502 H   0  0  0  0  0  0  0  0  0  0  0  0
  1  2  1  0
  2  3  1  0
  3  4  1  0
  4  5  1  0
  5  6  1  0
  6  7  1  0
  7  8  2  0
  8  9  1  0
  9 10  2  0
 10 11  1  0
 11 12  1  0
 12 13  1  0
 13 14  1  0
 14 15  1  0
 15 16  1  0
 16 17  1  0
 17 18  2  0
 18 19  1  0
 19 20  2  0
 20 21  1  0
 21 22  1  0
 21 23  2  0
 21 24  2  0
 20 25  1  0
 25 26  2  0
 11 27  2  0
  5 28  1  0
 28 29  1  0
 29  2  1  0
 27  7  1  0
 26 17  1  0
  1 30  1  0
  1 31  1  0
  1 32  1  0
  3 33  1  0
  3 34  1  0
  4 35  1  0
  4 36  1  0
  6 37  1  0
  6 38  1  0
  8 39  1  0
  9 40  1  0
 10 41  1  0
 13 42  1  0
 13 43  1  0
 14 44  1  0
 14 45  1  0
 15 46  1  0
 15 47  1  0
 16 48  1  0
 16 49  1  0
 18 50  1  0
 19 51  1  0
 22 52  1  0
 22 53  1  0
 22 54  1  0
 25 55  1  0
 26 56  1  0
 27 57  1  0
 28 58  1  0
 28 59  1  0
 29 60  1  0
 29 61  1  0
M  CHG  1  16   1
M  END
>  <UniqueID>  (7) 
7

>  <SMILES>  (7) 
CN1CCN(Cc2cccc(OCCC[NH2+]c3ccc(S(C)(=O)=O)cc3)c2)CC1

>  <Energy>  (7) 
73.47354725057147

>  <Genealogy>  (7) 
CN1CCN(Cc2cccc(OCCC[NH2+]c3ccc(S(C)(=O)=O)cc3)c2)CC1 (protonated)
CN1CCN(Cc2cccc(OCCC[NH2+]c3ccc(S(C)(=O)=O)cc3)c2)CC1 (3D coordinates assigned)
CN1CCN(Cc2cccc(OCCC[NH2+]c3ccc(S(C)(=O)=O)cc3)c2)CC1 (nonaromatic ring conformer: 73.47354725057147 kcal/mol)

>  <smiles>  (7) 
CN1CCN(Cc2cccc(OCCCNc3ccc(S(C)(=O)=O)cc3)c2)CC1

>  <score_type>  (7) 
oracle

>  <origin>  (7) 
adg

>  <m_score__min__energy>  (7) 
-8.5

>  <m_primary>  (7) 
energy

$$$$
7:0
     RDKit          3D

 38 41  0  0  0  0  0  0  0  0999 V2000
    0.7710   25.0500  -36.4050 C   0  0  0  0  0  0  0  0  0  0  0  0
    1.3110   23.7910  -36.7980 O   0  0  0  0  0  0  0  0  0  0  0  0
    1.4120   22.6740  -35.9560 C   0  0  0  0  0  0  0  0  0  0  0  0
    2.6420   22.2290  -35.4410 C   0  0  0  0  0  0  0  0  0  0  0  0
    2.6900   21.1070  -34.6120 C   0  0  0  0  0  0  0  0  0  0  0  0
    1.5180   20.4220  -34.2860 C   0  0  0  0  0  0  0  0  0  0  0  0
    0.2760   20.8550  -34.7840 C   0  0  0  0  0  0  0  0  0  0  0  0
   -0.9670   20.1230  -34.4350 C   0  0  0  0  0  0  0  0  0  0  0  0
   -1.1310   18.7830  -34.5480 N   0  0  0  0  0  0  0  0  0  0  0  0
   -2.3700   18.3570  -34.1630 C   0  0  0  0  0  0  0  0  0  0  0  0
   -2.7390   16.9060  -34.2260 C   0  0  0  0  0  0  0  0  0  0  0  0
   -3.2260   19.3830  -33.7300 C   0  0  0  0  0  0  0  0  0  0  0  0
   -4.6220   19.3020  -33.2500 C   0  0  0  0  0  0  0  0  0  0  0  0
   -5.3890   20.4070  -33.0760 N   0  0  0  0  0  0  0  0  0  0  0  0
   -6.6300   20.0870  -32.6290 C   0  0  0  0  0  0  0  0  0  0  0  0
   -7.6370   21.0160  -32.3590 C   0  0  0  0  0  0  0  0  0  0  0  0
   -8.8810   20.5490  -31.8990 C   0  0  0  0  0  0  0  0  0  0  0  0
   -9.1010   19.1690  -31.7140 C   0  0  0  0  0  0  0  0  0  0  0  0
   -8.0810   18.2440  -31.9870 C   0  0  0  0  0  0  0  0  0  0  0  0
   -6.8590   18.7350  -32.4430 C   0  0  0  0  0  0  0  0  0  0  0  0
   -5.4710   17.8880  -32.8480 S   0  0  0  0  0  0  0  0  0  0  0  0
   -2.3770   20.8310  -33.8500 S   0  0  0  0  0  0  0  0  0  0  0  0
    0.2390   21.9840  -35.6240 C   0  0  0  0  0  0  0  0  0  0  0  0
    0.7448   25.1111  -35.3070 H   0  0  0  0  0  0  0  0  0  0  0  0
    1.4011   25.8594  -36.8023 H   0  0  0  0  0  0  0  0  0  0  0  0
   -0.2497   25.1513  -36.8023 H   0  0  0  0  0  0  0  0  0  0  0  0
    3.5686   22.7661  -35.6918 H   0  0  0  0  0  0  0  0  0  0  0  0
    3.6553   20.7611  -34.2139 H   0  0  0  0  0  0  0  0  0  0  0  0
    1.5663   19.5369  -33.6347 H   0  0  0  0  0  0  0  0  0  0  0  0
   -0.4010   18.1340  -34.9160 H   0  0  0  0  0  0  0  0  0  0  0  0
   -2.8400   16.5087  -33.2052 H   0  0  0  0  0  0  0  0  0  0  0  0
   -3.6944   16.7934  -34.7595 H   0  0  0  0  0  0  0  0  0  0  0  0
   -1.9535   16.3507  -34.7595 H   0  0  0  0  0  0  0  0  0  0  0  0
   -7.4605   22.0921  -32.5033 H   0  0  0  0  0  0  0  0  0  0  0  0
   -9.6875   21.2650  -31.6822 H   0  0  0  0  0  0  0  0  0  0  0  0
  -10.0780   18.8148  -31.3535 H   0  0  0  0  0  0  0  0  0  0  0  0
   -8.2413   17.1650  -31.8454 H   0  0  0  0  0  0  0  0  0  0  0  0
   -0.7251   22.3294  -36.0255 H   0  0  0  0  0  0  0  0  0  0  0  0
  1  2  1  0
  2  3  1  0
  3  4  2  0
  4  5  1  0
  5  6  2  0
  6  7  1  0
  7  8  1  0
  8  9  2  0
  9 10  1  0
 10 11  1  0
 10 12  2  0
 12 13  1  0
 13 14  2  0
 14 15  1  0
 15 16  2  0
 16 17  1  0
 17 18  2  0
 18 19  1  0
 19 20  2  0
 20 21  1  0
 12 22  1  0
  7 23  2  0
 23  3  1  0
 22  8  1  0
 21 13  1  0
 20 15  1  0
  1 24  1  0
  1 25  1  0
  1 26  1  0
  4 27  1  0
  5 28  1  0
  6 29  1  0
  9 30  1  0
 11 31  1  0
 11 32  1  0
 11 33  1  0
 16 34  1  0
 17 35  1  0
 18 36  1  0
 19 37  1  0
 23 38  1  0
M  CHG  1   9   1
M  END
>  <UniqueID>  (8) 
8

>  <SMILES>  (8) 
COc1cccc(-c2[nH+]c(C)c(-c3nc4ccccc4s3)s2)c1

>  <Energy>  (8) 
108.75010238680015

>  <Genealogy>  (8) 
COc1cccc(-c2[nH+]c(C)c(-c3nc4ccccc4s3)s2)c1 (protonated)
COc1cccc(-c2[nH+]c(C)c(-c3nc4ccccc4s3)s2)c1 (3D coordinates assigned)
COc1cccc(-c2[nH+]c(C)c(-c3nc4ccccc4s3)s2)c1 (optimized conformer: 108.75010238680015 kcal/mol)

>  <smiles>  (8) 
COc1cccc(-c2nc(C)c(-c3nc4ccccc4s3)s2)c1

>  <score_type>  (8) 
oracle

>  <origin>  (8) 
adg

>  <m_score__min__energy>  (8) 
-7.9800000000000004

>  <m_primary>  (8) 
energy

$$$$
8:0
     RDKit          3D

 29 31  0  0  0  0  0  0  0  0999 V2000
   -6.7980   16.7840  -33.4480 C   0  0  0  0  0  0  0  0  0  0  0  0
   -7.2020   17.8610  -33.0850 C   0  0  0  0  0  0  0  0  0  0  0  0
   -7.6830   19.1470  -32.6520 C   0  0  0  0  0  0  0  0  0  0  0  0
   -9.0590   19.3970  -32.5990 C   0  0  0  0  0  0  0  0  0  0  0  0
   -9.5260   20.6430  -32.1760 C   0  0  0  0  0  0  0  0  0  0  0  0
   -8.6240   21.6450  -31.8070 C   0  0  0  0  0  0  0  0  0  0  0  0
   -7.2370   21.4100  -31.8620 C   0  0  0  0  0  0  0  0  0  0  0  0
   -6.2900   22.4300  -31.4820 N   0  0  0  0  0  0  0  0  0  0  0  0
   -5.7110   22.4990  -30.2940 N   0  0  0  0  0  0  0  0  0  0  0  0
   -4.9070   23.5800  -30.3770 C   0  0  0  0  0  0  0  0  0  0  0  0
   -4.0450   24.0630  -29.2790 C   0  0  0  0  0  0  0  0  0  0  0  0
   -4.5130   24.0890  -27.9570 C   0  0  0  0  0  0  0  0  0  0  0  0
   -3.6860   24.5480  -26.9300 C   0  0  0  0  0  0  0  0  0  0  0  0
   -2.3930   24.9780  -27.2330 C   0  0  0  0  0  0  0  0  0  0  0  0
   -1.9510   24.9490  -28.5170 N   0  0  0  0  0  0  0  0  0  0  0  0
   -2.7370   24.5070  -29.5360 C   0  0  0  0  0  0  0  0  0  0  0  0
   -4.9870   24.1590  -31.5940 N   0  0  0  0  0  0  0  0  0  0  0  0
   -5.8590   23.4150  -32.2540 N   0  0  0  0  0  0  0  0  0  0  0  0
   -6.7760   20.1480  -32.2810 C   0  0  0  0  0  0  0  0  0  0  0  0
   -6.4296   15.8018  -33.7790 H   0  0  0  0  0  0  0  0  0  0  0  0
   -9.7724   18.6121  -32.8905 H   0  0  0  0  0  0  0  0  0  0  0  0
  -10.6079   20.8368  -32.1330 H   0  0  0  0  0  0  0  0  0  0  0  0
   -9.0001   22.6228  -31.4717 H   0  0  0  0  0  0  0  0  0  0  0  0
   -5.5334   23.7472  -27.7290 H   0  0  0  0  0  0  0  0  0  0  0  0
   -4.0498   24.5706  -25.8922 H   0  0  0  0  0  0  0  0  0  0  0  0
   -1.7320   25.3404  -26.4319 H   0  0  0  0  0  0  0  0  0  0  0  0
   -2.3470   24.4973  -30.5645 H   0  0  0  0  0  0  0  0  0  0  0  0
   -6.1300   23.5840  -33.2480 H   0  0  0  0  0  0  0  0  0  0  0  0
   -5.6953   19.9461  -32.3174 H   0  0  0  0  0  0  0  0  0  0  0  0
  1  2  3  0
  2  3  1  0
  3  4  2  0
  4  5  1  0
  5  6  2  0
  6  7  1  0
  7  8  1  0
  8  9  1  0
  9 10  2  0
 10 11  1  0
 11 12  2  0
 12 13  1  0
 13 14  2  0
 14 15  1  0
 15 16  2  0
 10 17  1  0
 17 18  2  0
  7 19  2  0
 19  3  1  0
 18  8  1  0
 16 11  1  0
  1 20  1  0
  4 21  1  0
  5 22  1  0
  6 23  1  0
 12 24  1  0
 13 25  1  0
 14 26  1  0
 16 27  1  0
 18 28  1  0
 19 29  1  0
M  CHG  1  18   1
M  END
>  <UniqueID>  (9) 
9

>  <SMILES>  (9) 
C#Cc1cccc(-n2nc(-c3cccnc3)n[nH+]2)c1

>  <Energy>  (9) 
72.49498079267947

>  <Genealogy>  (9) 
C#Cc1cccc(-n2nc(-c3cccnc3)n[nH+]2)c1 (protonated)
C#Cc1cccc(-n2nc(-c3cccnc3)n[nH+]2)c1 (3D coordinates assigned)
C#Cc1cccc(-n2nc(-c3cccnc3)n[nH+]2)c1 (optimized conformer: 72.49498079267947 kcal/mol)

>  <smiles>  (9) 
C#Cc1cccc(-n2nnc(-c3cccnc3)n2)c1

>  <score_type>  (9) 
oracle

>  <origin>  (9) 
adg

>  <m_score__min__energy>  (9) 
-7.5800000000000001

>  <m_primary>  (9) 
energy

$$$$
9:0
     RDKit          3D

 33 35  0  0  1  0  0  0  0  0999 V2000
   -2.6030   24.5290  -28.2070 C   0  0  0  0  0  0  0  0  0  0  0  0
   -2.8900   24.9060  -29.5290 O   0  0  0  0  0  0  0  0  0  0  0  0
   -3.5020   24.1150  -30.4670 C   0  0  0  0  0  0  0  0  0  0  0  0
   -4.7750   24.2600  -30.8780 N   0  0  0  0  0  0  0  0  0  0  0  0
   -5.3110   23.4430  -31.8080 C   0  0  0  0  0  0  0  0  0  0  0  0
   -6.5260   23.5600  -32.2190 N   0  0  0  0  0  0  0  0  0  0  0  0
   -7.4170   22.4520  -32.1740 C   0  0  0  0  0  0  0  0  0  0  0  0
   -7.1050   21.2050  -32.6710 C   0  0  0  0  0  0  0  0  0  0  0  0
   -7.9990   20.1510  -32.6110 C   0  0  0  0  0  0  0  0  0  0  0  0
   -9.2360   20.3050  -32.0500 C   0  0  0  0  0  0  0  0  0  0  0  0
   -9.5700   21.5490  -31.5450 C   0  0  0  0  0  0  0  0  0  0  0  0
   -8.6820   22.6040  -31.6030 C   0  0  0  0  0  0  0  0  0  0  0  0
   -4.5450   22.4480  -32.3400 N   0  0  0  0  0  0  0  0  0  0  0  0
   -3.2690   22.2890  -31.9380 C   0  0  0  0  0  0  0  0  0  0  0  0
   -2.5010   21.3630  -32.4120 N   0  0  0  0  0  0  0  0  0  0  0  0
   -3.2220   20.2640  -33.0440 C   0  0  0  0  0  0  0  0  0  0  0  0
   -4.2940   19.9070  -33.2380 N   0  0  0  0  0  0  0  0  0  0  0  0
   -4.7690   18.8430  -33.8510 C   0  0  0  0  0  0  0  0  0  0  0  0
   -3.7560   18.0070  -34.3510 C   0  0  0  0  0  0  0  0  0  0  0  0
   -2.1850   18.9010  -33.8490 S   0  0  0  0  0  0  0  0  0  0  0  0
   -2.7660   23.1180  -31.0140 N   0  0  0  0  0  0  0  0  0  0  0  0
   -3.1194   25.2074  -27.5119 H   0  0  0  0  0  0  0  0  0  0  0  0
   -2.9470   23.4981  -28.0368 H   0  0  0  0  0  0  0  0  0  0  0  0
   -1.5178   24.5862  -28.0368 H   0  0  0  0  0  0  0  0  0  0  0  0
   -6.1176   21.0433  -33.1281 H   0  0  0  0  0  0  0  0  0  0  0  0
   -7.7096   19.1724  -33.0217 H   0  0  0  0  0  0  0  0  0  0  0  0
   -9.9446   19.4650  -32.0015 H   0  0  0  0  0  0  0  0  0  0  0  0
  -10.5599   21.6998  -31.0896 H   0  0  0  0  0  0  0  0  0  0  0  0
   -8.9759   23.5812  -31.1924 H   0  0  0  0  0  0  0  0  0  0  0  0
   -4.9590   21.8270  -33.0490 H   0  0  0  0  0  0  0  0  0  0  0  0
   -5.8429   18.6312  -33.9600 H   0  0  0  0  0  0  0  0  0  0  0  0
   -3.8590   17.0604  -34.9018 H   0  0  0  0  0  0  0  0  0  0  0  0
   -1.7650   22.9850  -30.7060 H   0  0  0  0  0  0  0  0  0  0  0  0
  1  2  1  0
  2  3  1  0
  3  4  2  0
  4  5  1  0
  5  6  2  0
  6  7  1  0
  7  8  2  0
  8  9  1  0
  9 10  2  0
 10 11  1  0
 11 12  2  0
  5 13  1  0
 13 14  1  0
 14 15  2  0
 15 16  1  0
 16 17  2  0
 17 18  1  0
 18 19  2  0
 19 20  1  0
 14 21  1  0
 21  3  1  0
 12  7  1  0
 20 16  1  0
  1 22  1  0
  1 23  1  0
  1 24  1  0
  8 25  1  0
  9 26  1  0
 10 27  1  0
 11 28  1  0
 12 29  1  0
 13 30  1  0
 18 31  1  0
 19 32  1  0
 21 33  1  0
M  END
>  <smiles>  (10) 
COc1nc(=Nc2ccccc2)[nH]c(=Nc2nccs2)[nH]1

>  <score_type>  (10) 
oracle

>  <origin>  (10) 
adg

>  <m_score__min__energy>  (10) 
-7.1600000000000001

>  <m_primary>  (10) 
energy

$$$$
10:0
     RDKit          3D

 44 45  0  0  0  0  0  0  0  0999 V2000
   -5.3711   25.4008  -31.5964 H   0  0  0  0  0  0  0  0  0  0  0  0
   -5.4790   24.5210  -30.9450 C   0  0  0  0  0  0  0  0  0  0  0  0
   -4.8920   24.5500  -29.7420 C   0  0  0  0  0  0  0  0  0  0  0  0
   -4.5848   25.5242  -29.3339 H   0  0  0  0  0  0  0  0  0  0  0  0
   -4.6310   23.3150  -28.9190 C   0  0  0  0  0  0  0  0  0  0  0  0
   -5.1659   22.4642  -29.3662 H   0  0  0  0  0  0  0  0  0  0  0  0
   -4.9852   23.4941  -27.8931 H   0  0  0  0  0  0  0  0  0  0  0  0
   -3.1530   23.0020  -28.8730 C   0  0  0  0  0  0  0  0  0  0  0  0
   -2.3150   23.7290  -29.6430 C   0  0  0  0  0  0  0  0  0  0  0  0
   -2.4698   23.6760  -30.7308 H   0  0  0  0  0  0  0  0  0  0  0  0
   -1.2090   24.5900  -29.1680 C   0  0  0  0  0  0  0  0  0  0  0  0
   -0.0510   24.1330  -28.9710 O   0  0  0  0  0  0  0  0  0  0  0  0
   -1.4760   25.9410  -28.9340 O   0  0  0  0  0  0  0  0  0  0  0  0
   -0.8950   26.6640  -27.8540 C   0  0  0  0  0  0  0  0  0  0  0  0
   -1.2161   27.7150  -27.9021 H   0  0  0  0  0  0  0  0  0  0  0  0
    0.2013   26.6106  -27.9261 H   0  0  0  0  0  0  0  0  0  0  0  0
   -1.3450   26.0570  -26.5340 C   0  0  0  0  0  0  0  0  0  0  0  0
   -0.9175   26.6337  -25.7006 H   0  0  0  0  0  0  0  0  0  0  0  0
   -2.4430   26.0840  -26.4734 H   0  0  0  0  0  0  0  0  0  0  0  0
   -1.0000   25.0143  -26.4734 H   0  0  0  0  0  0  0  0  0  0  0  0
   -2.6790   21.8760  -27.9900 C   0  0  0  0  0  0  0  0  0  0  0  0
   -2.7994   22.1620  -26.9347 H   0  0  0  0  0  0  0  0  0  0  0  0
   -3.2736   20.9737  -28.1955 H   0  0  0  0  0  0  0  0  0  0  0  0
   -1.6181   21.6706  -28.1955 H   0  0  0  0  0  0  0  0  0  0  0  0
   -6.2650   23.3720  -31.4480 C   0  0  0  0  0  0  0  0  0  0  0  0
   -7.6470   23.3570  -31.2310 C   0  0  0  0  0  0  0  0  0  0  0  0
   -8.1249   24.2041  -30.7172 H   0  0  0  0  0  0  0  0  0  0  0  0
   -8.4240   22.2860  -31.6560 C   0  0  0  0  0  0  0  0  0  0  0  0
   -9.5109   22.3055  -31.4876 H   0  0  0  0  0  0  0  0  0  0  0  0
   -7.8450   21.1810  -32.2960 C   0  0  0  0  0  0  0  0  0  0  0  0
   -8.7540   20.0560  -32.7350 C   0  0  0  0  0  0  0  0  0  0  0  0
   -9.7944   20.4129  -32.7471 H   0  0  0  0  0  0  0  0  0  0  0  0
   -8.4587   19.7274  -33.7424 H   0  0  0  0  0  0  0  0  0  0  0  0
   -8.6160   18.6810  -31.6100 Cl  0  0  0  0  0  0  0  0  0  0  0  0
   -6.4420   21.1720  -32.5320 C   0  0  0  0  0  0  0  0  0  0  0  0
   -5.8110   20.0980  -33.1970 C   0  0  0  0  0  0  0  0  0  0  0  0
   -6.4129   19.2453  -33.5444 H   0  0  0  0  0  0  0  0  0  0  0  0
   -4.4330   20.1050  -33.4190 C   0  0  0  0  0  0  0  0  0  0  0  0
   -3.9566   19.2587  -33.9356 H   0  0  0  0  0  0  0  0  0  0  0  0
   -3.6600   21.1790  -32.9890 C   0  0  0  0  0  0  0  0  0  0  0  0
   -2.5742   21.1775  -33.1650 H   0  0  0  0  0  0  0  0  0  0  0  0
   -4.2560   22.2570  -32.3360 C   0  0  0  0  0  0  0  0  0  0  0  0
   -3.6363   23.1037  -32.0058 H   0  0  0  0  0  0  0  0  0  0  0  0
   -5.6480   22.2730  -32.0940 C   0  0  0  0  0  0  0  0  0  0  0  0
  1  2  1  0
  2  3  2  0
  3  4  1  0
  3  5  1  0
  5  6  1  0
  5  7  1  0
  5  8  1  0
  8  9  2  0
  9 10  1  0
  9 11  1  0
 11 12  2  0
 11 13  1  0
 13 14  1  0
 14 15  1  0
 14 16  1  0
 14 17  1  0
 17 18  1  0
 17 19  1  0
 17 20  1  0
  8 21  1  0
 21 22  1  0
 21 23  1  0
 21 24  1  0
  2 25  1  0
 25 26  2  0
 26 27  1  0
 26 28  1  0
 28 29  1  0
 28 30  2  0
 30 31  1  0
 31 32  1  0
 31 33  1  0
 31 34  1  0
 30 35  1  0
 35 36  2  0
 36 37  1  0
 36 38  1  0
 38 39  1  0
 38 40  2  0
 40 41  1  0
 40 42  1  0
 42 43  1  0
 42 44  2  0
 44 25  1  0
 44 35  1  0
M  END
>  <UniqueID>  (11) 
10

>  <SMILES>  (11) 
CCOC(=O)/C=C(\C)C/C=C\c1ccc(CCl)c2ccccc12

>  <Energy>  (11) 
50.602224517928235

>  <Genealogy>  (11) 
CCOC(=O)/C=C(\C)C/C=C\c1ccc(CCl)c2ccccc12 (cis-trans isomerization)
CCOC(=O)/C=C(\C)C/C=C\c1ccc(CCl)c2ccccc12 (3D coordinates assigned)
CCOC(=O)/C=C(\C)C/C=C\c1ccc(CCl)c2ccccc12 (optimized conformer: 50.602224517928235 kcal/mol)

>  <smiles>  (11) 
CCOC(=O)C=C(C)CC=Cc1ccc(CCl)c2ccccc12

>  <score_type>  (11) 
oracle

>  <origin>  (11) 
adg

>  <m_score__min__energy>  (11) 
-9.0099999999999998

>  <m_primary>  (11) 
energy

$$$$
11:0
     RDKit          3D

 48 50  0  0  0  0  0  0  0  0999 V2000
   -8.4120   18.1720  -31.9650 C   0  0  0  0  0  0  0  0  0  0  0  0
   -8.3030   19.6660  -31.9150 C   0  0  0  0  0  0  0  0  0  0  0  0
   -9.4530   20.4630  -32.0200 C   0  0  0  0  0  0  0  0  0  0  0  0
   -9.3530   21.8540  -31.9400 C   0  0  0  0  0  0  0  0  0  0  0  0
   -8.1100   22.4600  -31.7460 C   0  0  0  0  0  0  0  0  0  0  0  0
   -6.9510   21.6760  -31.6250 C   0  0  0  0  0  0  0  0  0  0  0  0
   -5.5990   22.3250  -31.4220 C   0  0  0  0  0  0  0  0  0  0  0  0
   -5.4770   22.9460  -30.0760 N   0  0  2  0  0  0  0  0  0  0  0  0
   -6.0600   24.3130  -30.0700 C   0  0  0  0  0  0  0  0  0  0  0  0
   -5.2350   25.3020  -30.8920 C   0  0  0  0  0  0  0  0  0  0  0  0
   -3.8580   25.3010  -30.4330 N   0  0  0  0  0  0  0  0  0  0  0  0
   -3.2450   24.1240  -29.9080 C   0  0  0  0  0  0  0  0  0  0  0  0
   -2.0030   24.1230  -29.6980 O   0  0  0  0  0  0  0  0  0  0  0  0
   -4.0640   22.8950  -29.5670 C   0  0  1  0  0  0  0  0  0  0  0  0
   -3.9870   22.5590  -28.0550 C   0  0  0  0  0  0  0  0  0  0  0  0
   -2.6050   22.1740  -27.5830 C   0  0  0  0  0  0  0  0  0  0  0  0
   -1.9100   23.0530  -27.0030 O   0  0  0  0  0  0  0  0  0  0  0  0
   -2.0740   20.8390  -27.7460 N   0  0  0  0  0  0  0  0  0  0  0  0
   -1.6460   20.3950  -29.0840 C   0  0  0  0  0  0  0  0  0  0  0  0
   -2.0110   19.9920  -26.5310 C   0  0  0  0  0  0  0  0  0  0  0  0
   -3.0760   18.9190  -26.3500 C   0  0  0  0  0  0  0  0  0  0  0  0
   -1.6650   18.5330  -26.7820 C   0  0  0  0  0  0  0  0  0  0  0  0
   -7.0580   20.2770  -31.6990 C   0  0  0  0  0  0  0  0  0  0  0  0
   -8.4412   17.7720  -30.9407 H   0  0  0  0  0  0  0  0  0  0  0  0
   -9.3332   17.8891  -32.4955 H   0  0  0  0  0  0  0  0  0  0  0  0
   -7.5416   17.7584  -32.4955 H   0  0  0  0  0  0  0  0  0  0  0  0
  -10.4359   19.9912  -32.1657 H   0  0  0  0  0  0  0  0  0  0  0  0
  -10.2569   22.4744  -32.0302 H   0  0  0  0  0  0  0  0  0  0  0  0
   -8.0383   23.5561  -31.6877 H   0  0  0  0  0  0  0  0  0  0  0  0
   -4.8170   21.5592  -31.5323 H   0  0  0  0  0  0  0  0  0  0  0  0
   -5.4862   23.1192  -32.1747 H   0  0  0  0  0  0  0  0  0  0  0  0
   -6.0850   22.3910  -29.4290 H   0  0  0  0  0  0  0  0  0  0  0  0
   -7.0756   24.2657  -30.4898 H   0  0  0  0  0  0  0  0  0  0  0  0
   -6.0701   24.6686  -29.0291 H   0  0  0  0  0  0  0  0  0  0  0  0
   -5.2660   25.0097  -31.9520 H   0  0  0  0  0  0  0  0  0  0  0  0
   -5.6554   26.3113  -30.7711 H   0  0  0  0  0  0  0  0  0  0  0  0
   -3.5989   22.0611  -30.1131 H   0  0  0  0  0  0  0  0  0  0  0  0
   -4.3133   23.4426  -27.4869 H   0  0  0  0  0  0  0  0  0  0  0  0
   -4.6357   21.6864  -27.8885 H   0  0  0  0  0  0  0  0  0  0  0  0
   -0.8858   19.6064  -28.9829 H   0  0  0  0  0  0  0  0  0  0  0  0
   -2.5129   20.0002  -29.6341 H   0  0  0  0  0  0  0  0  0  0  0  0
   -1.2197   21.2469  -29.6341 H   0  0  0  0  0  0  0  0  0  0  0  0
   -1.6303   20.8010  -25.8902 H   0  0  0  0  0  0  0  0  0  0  0  0
   -3.4326   18.6620  -25.3417 H   0  0  0  0  0  0  0  0  0  0  0  0
   -4.0866   18.7496  -26.7499 H   0  0  0  0  0  0  0  0  0  0  0  0
   -1.0038   17.9968  -26.0853 H   0  0  0  0  0  0  0  0  0  0  0  0
   -1.2360   17.9689  -27.6233 H   0  0  0  0  0  0  0  0  0  0  0  0
   -6.1578   19.6549  -31.5866 H   0  0  0  0  0  0  0  0  0  0  0  0
  1  2  1  0
  2  3  2  0
  3  4  1  0
  4  5  2  0
  5  6  1  0
  6  7  1  0
  7  8  1  0
  8  9  1  0
  9 10  1  0
 10 11  1  0
 11 12  1  0
 12 13  2  0
 12 14  1  0
 14 15  1  0
 15 16  1  0
 16 17  2  0
 16 18  1  0
 18 19  1  0
 18 20  1  0
 20 21  1  0
 21 22  1  0
  6 23  2  0
 23  2  1  0
 14  8  1  0
 22 20  1  0
  1 24  1  0
  1 25  1  0
  1 26  1  0
  3 27  1  0
  4 28  1  0
  5 29  1  0
  7 30  1  0
  7 31  1  0
  8 32  1  1
  9 33  1  0
  9 34  1  0
 10 35  1  0
 10 36  1  0
 14 37  1  6
 15 38  1  0
 15 39  1  0
 19 40  1  0
 19 41  1  0
 19 42  1  0
 20 43  1  0
 21 44  1  0
 21 45  1  0
 22 46  1  0
 22 47  1  0
 23 48  1  0
M  CHG  2   8   1  11  -1
M  END
>  <UniqueID>  (12) 
11

>  <SMILES>  (12) 
Cc1cccc(C[N@@H+]2CC[N-]C(=O)[C@H]2CC(=O)N(C)C2CC2)c1

>  <Energy>  (12) 
325.959299996442

>  <Genealogy>  (12) 
Cc1cccc(C[NH+]2CC[N-]C(=O)C2CC(=O)N(C)C2CC2)c1 (protonated)
Cc1cccc(C[N@@H+]2CC[N-]C(=O)[C@H]2CC(=O)N(C)C2CC2)c1 (chirality)
Cc1cccc(C[N@@H+]2CC[N-]C(=O)[C@H]2CC(=O)N(C)C2CC2)c1 (3D coordinates assigned)
Cc1cccc(C[N@@H+]2CC[N-]C(=O)[C@H]2CC(=O)N(C)C2CC2)c1 (nonaromatic ring conformer: 325.959299996442 kcal/mol)

>  <smiles>  (12) 
Cc1cccc(CN2CCNC(=O)C2CC(=O)N(C)C2CC2)c1

>  <score_type>  (12) 
oracle

>  <origin>  (12) 
adg

>  <m_score__min__energy>  (12) 
-9.5899999999999999

>  <m_primary>  (12) 
energy

$$$$
12:0
     RDKit          3D

 46 49  0  0  0  0  0  0  0  0999 V2000
   -6.5045   23.9997  -30.7368 H   0  0  0  0  0  0  0  0  0  0  0  0
   -5.5370   23.7360  -31.1890 C   0  0  0  0  0  0  0  0  0  0  0  0
   -4.2980   24.1960  -30.5260 C   0  0  0  0  0  0  0  0  0  0  0  0
   -3.8740   25.3530  -30.7880 O   0  0  0  0  0  0  0  0  0  0  0  0
   -3.5370   23.3560  -29.5720 C   0  0  0  0  0  0  0  0  0  0  0  0
   -2.1480   23.5060  -29.4300 C   0  0  0  0  0  0  0  0  0  0  0  0
   -1.6143   24.2532  -30.0358 H   0  0  0  0  0  0  0  0  0  0  0  0
   -1.4400   22.7130  -28.5250 C   0  0  0  0  0  0  0  0  0  0  0  0
   -0.3504   22.8321  -28.4321 H   0  0  0  0  0  0  0  0  0  0  0  0
   -2.1040   21.7680  -27.7350 C   0  0  0  0  0  0  0  0  0  0  0  0
   -1.3470   20.9940  -26.8430 O   0  0  0  0  0  0  0  0  0  0  0  0
   -1.7300   19.7060  -26.3720 C   0  0  0  0  0  0  0  0  0  0  0  0
   -1.7308   19.7032  -25.2720 H   0  0  0  0  0  0  0  0  0  0  0  0
   -2.7384   19.4659  -26.7401 H   0  0  0  0  0  0  0  0  0  0  0  0
   -1.0166   18.9539  -26.7401 H   0  0  0  0  0  0  0  0  0  0  0  0
   -3.5000   21.6310  -27.8570 C   0  0  0  0  0  0  0  0  0  0  0  0
   -4.0350   20.8972  -27.2363 H   0  0  0  0  0  0  0  0  0  0  0  0
   -4.2090   22.4250  -28.7650 C   0  0  0  0  0  0  0  0  0  0  0  0
   -5.3008   22.3188  -28.8469 H   0  0  0  0  0  0  0  0  0  0  0  0
   -5.5330   23.0130  -32.3150 C   0  0  0  0  0  0  0  0  0  0  0  0
   -5.3188   23.5194  -33.2677 H   0  0  0  0  0  0  0  0  0  0  0  0
   -5.8050   21.5620  -32.3280 C   0  0  0  0  0  0  0  0  0  0  0  0
   -4.8480   20.5420  -32.2620 C   0  0  0  0  0  0  0  0  0  0  0  0
   -3.3800   20.7130  -32.2920 C   0  0  0  0  0  0  0  0  0  0  0  0
   -2.7470   21.1660  -33.4610 C   0  0  0  0  0  0  0  0  0  0  0  0
   -3.3471   21.3993  -34.3529 H   0  0  0  0  0  0  0  0  0  0  0  0
   -1.3580   21.3220  -33.4970 C   0  0  0  0  0  0  0  0  0  0  0  0
   -0.8678   21.6709  -34.4179 H   0  0  0  0  0  0  0  0  0  0  0  0
   -0.5920   21.0350  -32.3640 C   0  0  0  0  0  0  0  0  0  0  0  0
    0.5016   21.1493  -32.3965 H   0  0  0  0  0  0  0  0  0  0  0  0
   -1.2140   20.6030  -31.1900 C   0  0  0  0  0  0  0  0  0  0  0  0
   -0.6106   20.3839  -30.2967 H   0  0  0  0  0  0  0  0  0  0  0  0
   -2.6030   20.4490  -31.1500 C   0  0  0  0  0  0  0  0  0  0  0  0
   -3.0905   20.1197  -30.2206 H   0  0  0  0  0  0  0  0  0  0  0  0
   -5.4480   19.3340  -32.1590 N   0  0  0  0  0  0  0  0  0  0  0  0
   -4.9820   18.4010  -32.0930 H   0  0  0  0  0  0  0  0  0  0  0  0
   -6.7700   19.5740  -32.1490 C   0  0  0  0  0  0  0  0  0  0  0  0
   -7.7900   18.6320  -32.0130 C   0  0  0  0  0  0  0  0  0  0  0  0
   -7.5648   17.5569  -31.9538 H   0  0  0  0  0  0  0  0  0  0  0  0
   -9.1140   19.0990  -31.9540 C   0  0  0  0  0  0  0  0  0  0  0  0
   -9.9431   18.3821  -31.8605 H   0  0  0  0  0  0  0  0  0  0  0  0
   -9.3860   20.4820  -32.0140 C   0  0  0  0  0  0  0  0  0  0  0  0
  -10.4257   20.8367  -31.9571 H   0  0  0  0  0  0  0  0  0  0  0  0
   -8.3380   21.4110  -32.1460 C   0  0  0  0  0  0  0  0  0  0  0  0
   -8.5397   22.4920  -32.1753 H   0  0  0  0  0  0  0  0  0  0  0  0
   -7.0310   20.9190  -32.2390 C   0  0  0  0  0  0  0  0  0  0  0  0
  1  2  1  0
  2  3  1  0
  3  4  2  0
  3  5  1  0
  5  6  2  0
  6  7  1  0
  6  8  1  0
  8  9  1  0
  8 10  2  0
 10 11  1  0
 11 12  1  0
 12 13  1  0
 12 14  1  0
 12 15  1  0
 10 16  1  0
 16 17  1  0
 16 18  2  0
 18 19  1  0
  2 20  2  0
 20 21  1  0
 20 22  1  0
 22 23  2  0
 23 24  1  0
 24 25  2  0
 25 26  1  0
 25 27  1  0
 27 28  1  0
 27 29  2  0
 29 30  1  0
 29 31  1  0
 31 32  1  0
 31 33  2  0
 33 34  1  0
 23 35  1  0
 35 36  1  0
 35 37  1  0
 37 38  2  0
 38 39  1  0
 38 40  1  0
 40 41  1  0
 40 42  2  0
 42 43  1  0
 42 44  1  0
 44 45  1  0
 44 46  2  0
 18  5  1  0
 46 22  1  0
 33 24  1  0
 46 37  1  0
M  END
>  <UniqueID>  (13) 
12

>  <SMILES>  (13) 
COc1ccc(C(=O)/C=C/c2c(-c3ccccc3)[nH]c3ccccc23)cc1

>  <Energy>  (13) 
94.3273566731099

>  <Genealogy>  (13) 
COc1ccc(C(=O)/C=C/c2c(-c3ccccc3)[nH]c3ccccc23)cc1 (cis-trans isomerization)
COc1ccc(C(=O)/C=C/c2c(-c3ccccc3)[nH]c3ccccc23)cc1 (3D coordinates assigned)
COc1ccc(C(=O)/C=C/c2c(-c3ccccc3)[nH]c3ccccc23)cc1 (optimized conformer: 94.3273566731099 kcal/mol)

>  <smiles>  (13) 
COc1ccc(C(=O)C=Cc2c(-c3ccccc3)[nH]c3ccccc23)cc1

>  <score_type>  (13) 
oracle

>  <origin>  (13) 
adg

>  <m_score__min__energy>  (13) 
-9.2300000000000004

>  <m_primary>  (13) 
energy

$$$$
13:0
     RDKit          3D

 42 44  0  0  0  0  0  0  0  0999 V2000
   -6.3190   17.0230  -32.2210 C   0  0  0  0  0  0  0  0  0  0  0  0
   -7.0240   18.2690  -32.5660 N   0  0  0  0  0  0  0  0  0  0  0  0
   -8.3950   18.2920  -31.9960 C   0  0  0  0  0  0  0  0  0  0  0  0
   -9.2480   19.5220  -32.3920 C   0  0  0  0  0  0  0  0  0  0  0  0
   -8.9700   20.8000  -31.5700 C   0  0  0  0  0  0  0  0  0  0  0  0
   -7.6920   21.4350  -31.9300 N   0  0  0  0  0  0  0  0  0  0  0  0
   -7.4650   22.8110  -31.5640 C   0  0  0  0  0  0  0  0  0  0  0  0
   -8.4090   23.6440  -31.6620 O   0  0  0  0  0  0  0  0  0  0  0  0
   -6.1440   23.2780  -31.0900 C   0  0  0  0  0  0  0  0  0  0  0  0
   -5.8690   24.6520  -31.0170 C   0  0  0  0  0  0  0  0  0  0  0  0
   -4.6220   25.1010  -30.5740 C   0  0  0  0  0  0  0  0  0  0  0  0
   -3.6420   24.1840  -30.1770 C   0  0  0  0  0  0  0  0  0  0  0  0
   -3.9170   22.8030  -30.2180 C   0  0  0  0  0  0  0  0  0  0  0  0
   -5.1640   22.3580  -30.6810 C   0  0  0  0  0  0  0  0  0  0  0  0
   -2.8330   21.8090  -29.8750 C   0  0  0  0  0  0  0  0  0  0  0  0
   -1.8920   22.3350  -28.7830 C   0  0  0  0  0  0  0  0  0  0  0  0
   -1.4540   23.7370  -29.0870 C   0  0  0  0  0  0  0  0  0  0  0  0
   -0.3120   24.1350  -28.7310 O   0  0  0  0  0  0  0  0  0  0  0  0
   -2.3660   24.6460  -29.7120 N   0  0  0  0  0  0  0  0  0  0  0  0
   -6.7340   20.7600  -32.8260 C   0  0  0  0  0  0  0  0  0  0  0  0
   -6.1800   19.4420  -32.2480 C   0  0  0  0  0  0  0  0  0  0  0  0
   -6.2631   16.9242  -31.1269 H   0  0  0  0  0  0  0  0  0  0  0  0
   -6.8653   16.1647  -32.6392 H   0  0  0  0  0  0  0  0  0  0  0  0
   -5.3019   17.0493  -32.6392 H   0  0  0  0  0  0  0  0  0  0  0  0
   -8.9212   17.3880  -32.3364 H   0  0  0  0  0  0  0  0  0  0  0  0
   -8.2730   18.3414  -30.9039 H   0  0  0  0  0  0  0  0  0  0  0  0
   -9.0513   19.7474  -33.4505 H   0  0  0  0  0  0  0  0  0  0  0  0
  -10.2944   19.2485  -32.1914 H   0  0  0  0  0  0  0  0  0  0  0  0
   -9.7836   21.5184  -31.7489 H   0  0  0  0  0  0  0  0  0  0  0  0
   -8.9122   20.5099  -30.5105 H   0  0  0  0  0  0  0  0  0  0  0  0
   -6.6396   25.3801  -31.3102 H   0  0  0  0  0  0  0  0  0  0  0  0
   -4.4097   26.1797  -30.5372 H   0  0  0  0  0  0  0  0  0  0  0  0
   -5.3765   21.2796  -30.7243 H   0  0  0  0  0  0  0  0  0  0  0  0
   -3.3031   20.8797  -29.5207 H   0  0  0  0  0  0  0  0  0  0  0  0
   -2.2352   21.6335  -30.7815 H   0  0  0  0  0  0  0  0  0  0  0  0
   -2.4182   22.3230  -27.8171 H   0  0  0  0  0  0  0  0  0  0  0  0
   -1.0027   21.6888  -28.7427 H   0  0  0  0  0  0  0  0  0  0  0  0
   -2.1050   25.6540  -29.8040 H   0  0  0  0  0  0  0  0  0  0  0  0
   -7.2420   20.5379  -33.7761 H   0  0  0  0  0  0  0  0  0  0  0  0
   -5.8801   21.4402  -32.9605 H   0  0  0  0  0  0  0  0  0  0  0  0
   -5.1751   19.2730  -32.6623 H   0  0  0  0  0  0  0  0  0  0  0  0
   -6.1617   19.5459  -31.1531 H   0  0  0  0  0  0  0  0  0  0  0  0
  1  2  1  0
  2  3  1  0
  3  4  1  0
  4  5  1  0
  5  6  1  0
  6  7  1  0
  7  8  2  0
  7  9  1  0
  9 10  2  0
 10 11  1  0
 11 12  2  0
 12 13  1  0
 13 14  2  0
 13 15  1  0
 15 16  1  0
 16 17  1  0
 17 18  2  0
 17 19  1  0
  6 20  1  0
 20 21  1  0
 21  2  1  0
 14  9  1  0
 19 12  1  0
  1 22  1  0
  1 23  1  0
  1 24  1  0
  3 25  1  0
  3 26  1  0
  4 27  1  0
  4 28  1  0
  5 29  1  0
  5 30  1  0
 10 31  1  0
 11 32  1  0
 14 33  1  0
 15 34  1  0
 15 35  1  0
 16 36  1  0
 16 37  1  0
 19 38  1  0
 20 39  1  0
 20 40  1  0
 21 41  1  0
 21 42  1  0
M  END
>  <UniqueID>  (14) 
13

>  <SMILES>  (14) 
CN1CCCN(C(=O)c2ccc3c(c2)CCC(=O)N3)CC1

>  <Energy>  (14) 
58.80786619030968

>  <Genealogy>  (14) 
CN1CCCN(C(=O)c2ccc3c(c2)CCC(=O)N3)CC1 (3D coordinates assigned)
CN1CCCN(C(=O)c2ccc3c(c2)CCC(=O)N3)CC1 (nonaromatic ring conformer: 58.80786619030968 kcal/mol)

>  <smiles>  (14) 
CN1CCCN(C(=O)c2ccc3c(c2)CCC(=O)N3)CC1

>  <score_type>  (14) 
oracle

>  <origin>  (14) 
adg

>  <m_score__min__energy>  (14) 
-6.6900000000000004

>  <m_primary>  (14) 
energy

$$$$
14:0
     RDKit          3D

 43 45  0  0  0  0  0  0  0  0999 V2000
   -0.2710   26.9030  -27.2340 C   0  0  0  0  0  0  0  0  0  0  0  0
   -1.1630   25.7930  -27.6740 C   0  0  0  0  0  0  0  0  0  0  0  0
   -2.2130   25.3460  -26.9490 N   0  0  0  0  0  0  0  0  0  0  0  0
   -2.7310   24.4010  -27.7580 C   0  0  0  0  0  0  0  0  0  0  0  0
   -3.9460   23.5990  -27.4160 C   0  0  0  0  0  0  0  0  0  0  0  0
   -2.0430   24.3080  -28.9140 N   0  0  0  0  0  0  0  0  0  0  0  0
   -2.2670   23.3820  -30.0230 C   0  0  0  0  0  0  0  0  0  0  0  0
   -3.4920   23.8120  -30.8430 C   0  0  1  0  0  0  0  0  0  0  0  0
   -4.5470   22.6820  -30.8540 C   0  0  0  0  0  0  0  0  0  0  0  0
   -5.7020   23.0720  -31.6870 N   0  0  0  0  0  0  0  0  0  0  0  0
   -6.8790   22.1910  -31.5140 C   0  0  0  0  0  0  0  0  0  0  0  0
   -6.8460   20.9580  -32.3870 C   0  0  0  0  0  0  0  0  0  0  0  0
   -5.9670   20.7590  -33.3880 N   0  0  0  0  0  0  0  0  0  0  0  0
   -6.2020   19.5650  -33.9120 N   0  0  0  0  0  0  0  0  0  0  0  0
   -7.2330   19.0430  -33.2200 C   0  0  0  0  0  0  0  0  0  0  0  0
   -7.6650   19.8920  -32.2660 N   0  0  0  0  0  0  0  0  0  0  0  0
   -8.6640   19.6150  -31.2380 C   0  0  0  0  0  0  0  0  0  0  0  0
   -6.0110   24.5180  -31.6370 C   0  0  0  0  0  0  0  0  0  0  0  0
   -5.3950   25.1880  -30.3970 C   0  0  0  0  0  0  0  0  0  0  0  0
   -3.9820   25.0490  -30.3320 O   0  0  0  0  0  0  0  0  0  0  0  0
   -1.0500   25.1790  -28.8700 N   0  0  0  0  0  0  0  0  0  0  0  0
   -0.2433   26.9374  -26.1349 H   0  0  0  0  0  0  0  0  0  0  0  0
    0.7444   26.7328  -27.6212 H   0  0  0  0  0  0  0  0  0  0  0  0
   -0.6558   27.8580  -27.6212 H   0  0  0  0  0  0  0  0  0  0  0  0
   -4.0460   23.5330  -26.3225 H   0  0  0  0  0  0  0  0  0  0  0  0
   -4.8377   24.0866  -27.8369 H   0  0  0  0  0  0  0  0  0  0  0  0
   -3.8481   22.5875  -27.8369 H   0  0  0  0  0  0  0  0  0  0  0  0
   -1.3801   23.3750  -30.6736 H   0  0  0  0  0  0  0  0  0  0  0  0
   -2.4464   22.3759  -29.6160 H   0  0  0  0  0  0  0  0  0  0  0  0
   -3.2205   23.9820  -31.8953 H   0  0  0  0  0  0  0  0  0  0  0  0
   -4.0952   21.7669  -31.2645 H   0  0  0  0  0  0  0  0  0  0  0  0
   -4.8909   22.5015  -29.8248 H   0  0  0  0  0  0  0  0  0  0  0  0
   -6.9224   21.8713  -30.4624 H   0  0  0  0  0  0  0  0  0  0  0  0
   -7.7637   22.7730  -31.8115 H   0  0  0  0  0  0  0  0  0  0  0  0
   -5.2010   21.3960  -33.6980 H   0  0  0  0  0  0  0  0  0  0  0  0
   -7.6673   18.0502  -33.4092 H   0  0  0  0  0  0  0  0  0  0  0  0
   -8.2112   19.7406  -30.2434 H   0  0  0  0  0  0  0  0  0  0  0  0
   -9.5067   20.3134  -31.3480 H   0  0  0  0  0  0  0  0  0  0  0  0
   -9.0268   18.5824  -31.3480 H   0  0  0  0  0  0  0  0  0  0  0  0
   -5.6083   25.0002  -32.5400 H   0  0  0  0  0  0  0  0  0  0  0  0
   -7.1035   24.6339  -31.5827 H   0  0  0  0  0  0  0  0  0  0  0  0
   -5.6406   26.2600  -30.4200 H   0  0  0  0  0  0  0  0  0  0  0  0
   -5.8147   24.6881  -29.5116 H   0  0  0  0  0  0  0  0  0  0  0  0
  1  2  1  0
  2  3  1  0
  3  4  2  0
  4  5  1  0
  4  6  1  0
  6  7  1  0
  7  8  1  0
  8  9  1  0
  9 10  1  0
 10 11  1  0
 11 12  1  0
 12 13  2  0
 13 14  1  0
 14 15  2  0
 15 16  1  0
 16 17  1  0
 10 18  1  0
 18 19  1  0
 19 20  1  0
  6 21  1  0
 21  2  2  0
 20  8  1  0
 16 12  1  0
  1 22  1  0
  1 23  1  0
  1 24  1  0
  5 25  1  0
  5 26  1  0
  5 27  1  0
  7 28  1  0
  7 29  1  0
  8 30  1  6
  9 31  1  0
  9 32  1  0
 11 33  1  0
 11 34  1  0
 13 35  1  0
 15 36  1  0
 17 37  1  0
 17 38  1  0
 17 39  1  0
 18 40  1  0
 18 41  1  0
 19 42  1  0
 19 43  1  0
M  CHG  1  13   1
M  END
>  <UniqueID>  (15) 
14

>  <SMILES>  (15) 
Cc1nc(C)n(C[C@H]2CN(Cc3[nH+]ncn3C)CCO2)n1

>  <Energy>  (15) 
121.33057838650132

>  <Genealogy>  (15) 
Cc1nc(C)n(CC2CN(Cc3[nH+]ncn3C)CCO2)n1 (protonated)
Cc1nc(C)n(C[C@H]2CN(Cc3[nH+]ncn3C)CCO2)n1 (chirality)
Cc1nc(C)n(C[C@H]2CN(Cc3[nH+]ncn3C)CCO2)n1 (3D coordinates assigned)
Cc1nc(C)n(C[C@H]2CN(Cc3[nH+]ncn3C)CCO2)n1 (nonaromatic ring conformer: 121.33057838650132 kcal/mol)

>  <smiles>  (15) 
Cc1nc(C)n(CC2CN(Cc3nncn3C)CCO2)n1

>  <score_type>  (15) 
oracle

>  <origin>  (15) 
adg

>  <m_score__min__energy>  (15) 
-7.25

>  <m_primary>  (15) 
energy

$$$$
15:0
     RDKit          3D

 59 61  0  0  0  0  0  0  0  0999 V2000
    0.4330   23.9910  -36.1260 C   0  0  0  0  0  0  0  0  0  0  0  0
    1.1940   23.0130  -35.3300 N   0  0  0  0  0  0  0  0  0  0  0  0
    2.4970   22.7590  -35.9700 C   0  0  0  0  0  0  0  0  0  0  0  0
    0.4170   21.7620  -35.1790 C   0  0  0  0  0  0  0  0  0  0  0  0
    0.7280   21.0430  -33.8540 C   0  0  0  0  0  0  0  0  0  0  0  0
   -0.4770   20.9180  -32.9080 C   0  0  0  0  0  0  0  0  0  0  0  0
   -1.8230   21.0560  -33.6370 C   0  0  0  0  0  0  0  0  0  0  0  0
   -2.8450   20.2560  -32.9640 N   0  0  0  0  0  0  0  0  0  0  0  0
   -3.8440   19.5230  -33.3850 C   0  0  0  0  0  0  0  0  0  0  0  0
   -5.1350   20.0090  -33.1440 C   0  0  0  0  0  0  0  0  0  0  0  0
   -6.2360   19.4460  -33.7450 C   0  0  0  0  0  0  0  0  0  0  0  0
   -6.1150   18.3390  -34.5660 C   0  0  0  0  0  0  0  0  0  0  0  0
   -4.8300   17.8020  -34.7400 C   0  0  0  0  0  0  0  0  0  0  0  0
   -3.7230   18.3490  -34.1240 N   0  0  0  0  0  0  0  0  0  0  0  0
   -2.4870   17.5550  -34.1760 C   0  0  0  0  0  0  0  0  0  0  0  0
   -7.3600   20.1550  -33.5010 N   0  0  0  0  0  0  0  0  0  0  0  0
   -6.9570   21.1780  -32.7170 C   0  0  0  0  0  0  0  0  0  0  0  0
   -7.7360   22.2310  -32.2490 C   0  0  0  0  0  0  0  0  0  0  0  0
   -7.0940   23.2650  -31.5420 C   0  0  0  0  0  0  0  0  0  0  0  0
   -5.6930   23.2330  -31.2950 C   0  0  0  0  0  0  0  0  0  0  0  0
   -5.0400   24.4260  -30.6670 C   0  0  0  0  0  0  0  0  0  0  0  0
   -5.1750   25.5500  -31.2260 O   0  0  0  0  0  0  0  0  0  0  0  0
   -4.1480   24.3430  -29.4710 C   0  0  0  0  0  0  0  0  0  0  0  0
   -2.9690   24.7910  -29.5280 O   0  0  0  0  0  0  0  0  0  0  0  0
   -4.6140   23.7530  -28.2300 N   0  0  0  0  0  0  0  0  0  0  0  0
   -4.1770   22.3490  -28.1500 C   0  0  0  0  0  0  0  0  0  0  0  0
   -4.0970   24.5230  -27.0800 C   0  0  0  0  0  0  0  0  0  0  0  0
   -4.9590   22.0940  -31.7090 C   0  0  0  0  0  0  0  0  0  0  0  0
   -5.6070   21.1200  -32.4670 C   0  0  0  0  0  0  0  0  0  0  0  0
   -0.1007   24.6768  -35.4516 H   0  0  0  0  0  0  0  0  0  0  0  0
    1.1245   24.5649  -36.7605 H   0  0  0  0  0  0  0  0  0  0  0  0
   -0.2932   23.4617  -36.7605 H   0  0  0  0  0  0  0  0  0  0  0  0
    3.2632   22.6096  -35.1950 H   0  0  0  0  0  0  0  0  0  0  0  0
    2.4283   21.8573  -36.5963 H   0  0  0  0  0  0  0  0  0  0  0  0
    2.7720   23.6204  -36.5963 H   0  0  0  0  0  0  0  0  0  0  0  0
   -0.6554   22.0051  -35.2073 H   0  0  0  0  0  0  0  0  0  0  0  0
    0.6958   21.0888  -36.0030 H   0  0  0  0  0  0  0  0  0  0  0  0
    1.0901   20.0308  -34.0873 H   0  0  0  0  0  0  0  0  0  0  0  0
    1.4788   21.6538  -33.3312 H   0  0  0  0  0  0  0  0  0  0  0  0
   -0.4406   19.9325  -32.4207 H   0  0  0  0  0  0  0  0  0  0  0  0
   -0.4107   21.7372  -32.1769 H   0  0  0  0  0  0  0  0  0  0  0  0
   -2.1298   22.1123  -33.6369 H   0  0  0  0  0  0  0  0  0  0  0  0
   -1.7099   20.6983  -34.6711 H   0  0  0  0  0  0  0  0  0  0  0  0
   -6.9913   17.8972  -35.0628 H   0  0  0  0  0  0  0  0  0  0  0  0
   -4.7018   16.9205  -35.3854 H   0  0  0  0  0  0  0  0  0  0  0  0
   -2.1478   17.3371  -33.1525 H   0  0  0  0  0  0  0  0  0  0  0  0
   -2.6796   16.6112  -34.7072 H   0  0  0  0  0  0  0  0  0  0  0  0
   -1.7087   18.1225  -34.7072 H   0  0  0  0  0  0  0  0  0  0  0  0
   -8.3260   19.9610  -33.8520 H   0  0  0  0  0  0  0  0  0  0  0  0
   -8.8214   22.2550  -32.4261 H   0  0  0  0  0  0  0  0  0  0  0  0
   -7.6871   24.1148  -31.1731 H   0  0  0  0  0  0  0  0  0  0  0  0
   -5.6610   23.7770  -28.1660 H   0  0  0  0  0  0  0  0  0  0  0  0
   -4.0849   22.0532  -27.0945 H   0  0  0  0  0  0  0  0  0  0  0  0
   -4.9174   21.7056  -28.6479 H   0  0  0  0  0  0  0  0  0  0  0  0
   -3.2023   22.2394  -28.6479 H   0  0  0  0  0  0  0  0  0  0  0  0
   -4.4187   24.0439  -26.1435 H   0  0  0  0  0  0  0  0  0  0  0  0
   -2.9980   24.5486  -27.1201 H   0  0  0  0  0  0  0  0  0  0  0  0
   -4.4893   25.5499  -27.1201 H   0  0  0  0  0  0  0  0  0  0  0  0
   -3.8990   21.9806  -31.4377 H   0  0  0  0  0  0  0  0  0  0  0  0
  1  2  1  0
  2  3  1  0
  2  4  1  0
  4  5  1  0
  5  6  1  0
  6  7  1  0
  7  8  1  0
  8  9  2  3
  9 10  1  0
 10 11  2  0
 11 12  1  0
 12 13  2  0
 13 14  1  0
 14 15  1  0
 11 16  1  0
 16 17  1  0
 17 18  2  0
 18 19  1  0
 19 20  2  0
 20 21  1  0
 21 22  2  0
 21 23  1  0
 23 24  2  0
 23 25  1  0
 25 26  1  0
 25 27  1  0
 20 28  1  0
 28 29  2  0
 14  9  1  0
 29 17  1  0
 29 10  1  0
  1 30  1  0
  1 31  1  0
  1 32  1  0
  3 33  1  0
  3 34  1  0
  3 35  1  0
  4 36  1  0
  4 37  1  0
  5 38  1  0
  5 39  1  0
  6 40  1  0
  6 41  1  0
  7 42  1  0
  7 43  1  0
 12 44  1  0
 13 45  1  0
 15 46  1  0
 15 47  1  0
 15 48  1  0
 16 49  1  0
 18 50  1  0
 19 51  1  0
 25 52  1  0
 26 53  1  0
 26 54  1  0
 26 55  1  0
 27 56  1  0
 27 57  1  0
 27 58  1  0
 28 59  1  0
M  CHG  1  25   1
M  END
>  <UniqueID>  (16) 
15

>  <SMILES>  (16) 
CN(C)CCCCN=c1c2c(ccn1C)[nH]c1ccc(C(=O)C(=O)[NH+](C)C)cc12

>  <Energy>  (16) 
122.28984361482124

>  <Genealogy>  (16) 
CN(C)CCCCN=c1c2c(ccn1C)[nH]c1ccc(C(=O)C(=O)[NH+](C)C)cc12 (protonated)
CN(C)CCCCN=c1c2c(ccn1C)[nH]c1ccc(C(=O)C(=O)[NH+](C)C)cc12 (3D coordinates assigned)
CN(C)CCCCN=c1c2c(ccn1C)[nH]c1ccc(C(=O)C(=O)[NH+](C)C)cc12 (optimized conformer: 122.28984361482124 kcal/mol)

>  <smiles>  (16) 
CN(C)CCCCN=c1c2c(ccn1C)[nH]c1ccc(C(=O)C(=O)N(C)C)cc12

>  <score_type>  (16) 
oracle

>  <origin>  (16) 
adg

>  <m_score__min__energy>  (16) 
-8.8599999999999994

>  <m_primary>  (16) 
energy

$$$$
16:0
     RDKit          3D

 53 55  0  0  0  0  0  0  0  0999 V2000
   -3.1160   21.2120  -33.0370 C   0  0  0  0  0  0  0  0  0  0  0  0
   -4.1940   21.2400  -31.9500 C   0  0  0  0  0  0  0  0  0  0  0  0
   -5.4880   21.9980  -32.3370 C   0  0  2  0  0  0  0  0  0  0  0  0
   -5.7300   23.3010  -31.5320 C   0  0  0  0  0  0  0  0  0  0  0  0
   -4.7870   23.4500  -30.3290 C   0  0  0  0  0  0  0  0  0  0  0  0
   -4.0900   24.7740  -30.3830 C   0  0  0  0  0  0  0  0  0  0  0  0
   -4.6610   25.7600  -30.9200 O   0  0  0  0  0  0  0  0  0  0  0  0
   -2.8310   24.9270  -29.7160 N   0  0  0  0  0  0  0  0  0  0  0  0
   -1.9200   23.8790  -29.3540 C   0  0  0  0  0  0  0  0  0  0  0  0
   -1.7760   22.7220  -30.1410 C   0  0  0  0  0  0  0  0  0  0  0  0
   -0.8720   21.7220  -29.7680 C   0  0  0  0  0  0  0  0  0  0  0  0
   -0.1140   21.8630  -28.6050 C   0  0  0  0  0  0  0  0  0  0  0  0
   -0.2610   22.9990  -27.8070 C   0  0  0  0  0  0  0  0  0  0  0  0
   -1.1710   24.0040  -28.1670 C   0  0  0  0  0  0  0  0  0  0  0  0
   -1.3070   25.1770  -27.3480 N   0  0  0  0  0  0  0  0  0  0  0  0
   -2.3720   25.2520  -26.3460 C   0  0  0  0  0  0  0  0  0  0  0  0
   -1.9350   26.1790  -25.2070 C   0  0  0  0  0  0  0  0  0  0  0  0
   -1.5110   27.4310  -25.7140 O   0  0  0  0  0  0  0  0  0  0  0  0
   -0.3500   27.2620  -26.5040 C   0  0  0  0  0  0  0  0  0  0  0  0
   -0.6560   26.4250  -27.7500 C   0  0  0  0  0  0  0  0  0  0  0  0
   -6.6960   21.0690  -32.3180 C   0  0  0  0  0  0  0  0  0  0  0  0
   -6.6050   19.7160  -32.7060 C   0  0  0  0  0  0  0  0  0  0  0  0
   -7.7360   18.8960  -32.6870 C   0  0  0  0  0  0  0  0  0  0  0  0
   -8.9720   19.4130  -32.2970 C   0  0  0  0  0  0  0  0  0  0  0  0
   -9.0830   20.7560  -31.9350 C   0  0  0  0  0  0  0  0  0  0  0  0
   -7.9540   21.5810  -31.9490 C   0  0  0  0  0  0  0  0  0  0  0  0
   -2.1218   21.1862  -32.5669 H   0  0  0  0  0  0  0  0  0  0  0  0
   -3.2492   20.3170  -33.6625 H   0  0  0  0  0  0  0  0  0  0  0  0
   -3.2025   22.1127  -33.6625 H   0  0  0  0  0  0  0  0  0  0  0  0
   -4.4648   20.2012  -31.7100 H   0  0  0  0  0  0  0  0  0  0  0  0
   -3.7601   21.7837  -31.0979 H   0  0  0  0  0  0  0  0  0  0  0  0
   -5.3381   22.3404  -33.3715 H   0  0  0  0  0  0  0  0  0  0  0  0
   -5.5801   24.1598  -32.2028 H   0  0  0  0  0  0  0  0  0  0  0  0
   -6.7570   23.2586  -31.1403 H   0  0  0  0  0  0  0  0  0  0  0  0
   -5.3705   23.3836  -29.3989 H   0  0  0  0  0  0  0  0  0  0  0  0
   -4.0364   22.6464  -30.3580 H   0  0  0  0  0  0  0  0  0  0  0  0
   -2.3774   22.6031  -31.0544 H   0  0  0  0  0  0  0  0  0  0  0  0
   -0.7585   20.8234  -30.3922 H   0  0  0  0  0  0  0  0  0  0  0  0
    0.6004   21.0779  -28.3165 H   0  0  0  0  0  0  0  0  0  0  0  0
    0.3395   23.1065  -26.8917 H   0  0  0  0  0  0  0  0  0  0  0  0
   -3.2865   25.6484  -26.8114 H   0  0  0  0  0  0  0  0  0  0  0  0
   -2.5713   24.2470  -25.9458 H   0  0  0  0  0  0  0  0  0  0  0  0
   -2.7825   26.3348  -24.5232 H   0  0  0  0  0  0  0  0  0  0  0  0
   -1.0945   25.7110  -24.6736 H   0  0  0  0  0  0  0  0  0  0  0  0
    0.0211   28.2496  -26.8153 H   0  0  0  0  0  0  0  0  0  0  0  0
    0.4100   26.7382  -25.9057 H   0  0  0  0  0  0  0  0  0  0  0  0
   -1.3244   26.9897  -28.4167 H   0  0  0  0  0  0  0  0  0  0  0  0
    0.2809   26.1973  -28.2796 H   0  0  0  0  0  0  0  0  0  0  0  0
   -5.6367   19.3035  -33.0258 H   0  0  0  0  0  0  0  0  0  0  0  0
   -7.6518   17.8392  -32.9805 H   0  0  0  0  0  0  0  0  0  0  0  0
   -9.8585   18.7621  -32.2749 H   0  0  0  0  0  0  0  0  0  0  0  0
  -10.0596   21.1662  -31.6383 H   0  0  0  0  0  0  0  0  0  0  0  0
   -8.0500   22.6404  -31.6689 H   0  0  0  0  0  0  0  0  0  0  0  0
  1  2  1  0
  2  3  1  0
  3  4  1  0
  4  5  1  0
  5  6  1  0
  6  7  2  0
  6  8  1  0
  8  9  1  0
  9 10  2  0
 10 11  1  0
 11 12  2  0
 12 13  1  0
 13 14  2  0
 14 15  1  0
 15 16  1  0
 16 17  1  0
 17 18  1  0
 18 19  1  0
 19 20  1  0
  3 21  1  0
 21 22  2  0
 22 23  1  0
 23 24  2  0
 24 25  1  0
 25 26  2  0
 14  9  1  0
 20 15  1  0
 26 21  1  0
  1 27  1  0
  1 28  1  0
  1 29  1  0
  2 30  1  0
  2 31  1  0
  3 32  1  6
  4 33  1  0
  4 34  1  0
  5 35  1  0
  5 36  1  0
 10 37  1  0
 11 38  1  0
 12 39  1  0
 13 40  1  0
 16 41  1  0
 16 42  1  0
 17 43  1  0
 17 44  1  0
 19 45  1  0
 19 46  1  0
 20 47  1  0
 20 48  1  0
 22 49  1  0
 23 50  1  0
 24 51  1  0
 25 52  1  0
 26 53  1  0
M  CHG  1   8  -1
M  END
>  <UniqueID>  (17) 
16

>  <SMILES>  (17) 
CC[C@H](CCC(=O)[N-]c1ccccc1N1CCOCC1)c1ccccc1

>  <Energy>  (17) 
57.82945584578085

>  <Genealogy>  (17) 
CCC(CCC(=O)[N-]c1ccccc1N1CCOCC1)c1ccccc1 (protonated)
CC[C@H](CCC(=O)[N-]c1ccccc1N1CCOCC1)c1ccccc1 (chirality)
CC[C@H](CCC(=O)[N-]c1ccccc1N1CCOCC1)c1ccccc1 (3D coordinates assigned)
CC[C@H](CCC(=O)[N-]c1ccccc1N1CCOCC1)c1ccccc1 (nonaromatic ring conformer: 57.82945584578085 kcal/mol)

>  <smiles>  (17) 
CCC(CCC(=O)Nc1ccccc1N1CCOCC1)c1ccccc1

>  <score_type>  (17) 
oracle

>  <origin>  (17) 
adg

>  <m_score__min__energy>  (17) 
-10.630000000000001

>  <m_primary>  (17) 
energy

$$$$
17:0
     RDKit          3D

 43 46  0  0  0  0  0  0  0  0999 V2000
   -3.6440   25.9740  -29.6730 H   0  0  0  0  0  0  0  0  0  0  0  0
   -4.2490   25.7420  -30.4920 N   0  0  0  0  0  0  0  0  0  0  0  0
   -4.5760   24.5200  -30.7640 C   0  0  0  0  0  0  0  0  0  0  0  0
   -3.6950   23.5050  -30.7820 N   0  0  0  0  0  0  0  0  0  0  0  0
   -4.3720   22.4110  -31.0950 N   0  0  0  0  0  0  0  0  0  0  0  0
   -3.7500   21.0870  -31.1490 C   0  0  0  0  0  0  0  0  0  0  0  0
   -3.1258   20.9425  -30.2549 H   0  0  0  0  0  0  0  0  0  0  0  0
   -4.5395   20.3219  -31.1849 H   0  0  0  0  0  0  0  0  0  0  0  0
   -2.8980   20.9640  -32.3700 C   0  0  0  0  0  0  0  0  0  0  0  0
   -1.6090   21.3620  -32.4310 N   0  0  0  0  0  0  0  0  0  0  0  0
   -1.2880   21.0630  -33.7100 C   0  0  0  0  0  0  0  0  0  0  0  0
    0.0570   21.2990  -34.2910 C   0  0  0  0  0  0  0  0  0  0  0  0
    1.1530   20.5390  -33.8440 C   0  0  0  0  0  0  0  0  0  0  0  0
    1.0073   19.7757  -33.0655 H   0  0  0  0  0  0  0  0  0  0  0  0
    2.4250   20.7470  -34.3820 C   0  0  0  0  0  0  0  0  0  0  0  0
    3.2747   20.1452  -34.0271 H   0  0  0  0  0  0  0  0  0  0  0  0
    2.6230   21.7150  -35.3680 C   0  0  0  0  0  0  0  0  0  0  0  0
    3.6274   21.8736  -35.7877 H   0  0  0  0  0  0  0  0  0  0  0  0
    1.5410   22.4880  -35.8260 C   0  0  0  0  0  0  0  0  0  0  0  0
    1.6880   23.4730  -36.8140 O   0  0  0  0  0  0  0  0  0  0  0  0
    1.4270   24.8590  -36.6120 C   0  0  0  0  0  0  0  0  0  0  0  0
    1.3870   25.0712  -35.5334 H   0  0  0  0  0  0  0  0  0  0  0  0
    2.2289   25.4542  -37.0733 H   0  0  0  0  0  0  0  0  0  0  0  0
    0.4636   25.1217  -37.0733 H   0  0  0  0  0  0  0  0  0  0  0  0
    0.2670   22.2740  -35.2850 C   0  0  0  0  0  0  0  0  0  0  0  0
   -0.5816   22.8762  -35.6417 H   0  0  0  0  0  0  0  0  0  0  0  0
   -2.3360   20.5230  -34.3660 N   0  0  0  0  0  0  0  0  0  0  0  0
   -2.3920   20.1880  -35.3510 H   0  0  0  0  0  0  0  0  0  0  0  0
   -3.3120   20.4780  -33.5150 O   0  0  0  0  0  0  0  0  0  0  0  0
   -5.6790   22.7240  -31.2850 C   0  0  0  0  0  0  0  0  0  0  0  0
   -6.7620   21.7820  -31.6340 C   0  0  0  0  0  0  0  0  0  0  0  0
   -6.5720   20.8020  -32.6210 C   0  0  0  0  0  0  0  0  0  0  0  0
   -5.6034   20.7251  -33.1366 H   0  0  0  0  0  0  0  0  0  0  0  0
   -7.6080   19.9230  -32.9520 C   0  0  0  0  0  0  0  0  0  0  0  0
   -7.4490   19.1504  -33.7186 H   0  0  0  0  0  0  0  0  0  0  0  0
   -8.8450   20.0250  -32.3100 C   0  0  0  0  0  0  0  0  0  0  0  0
   -9.6574   19.3290  -32.5664 H   0  0  0  0  0  0  0  0  0  0  0  0
   -9.0490   21.0120  -31.3420 C   0  0  0  0  0  0  0  0  0  0  0  0
  -10.0250   21.0968  -30.8418 H   0  0  0  0  0  0  0  0  0  0  0  0
   -8.0150   21.8920  -31.0080 C   0  0  0  0  0  0  0  0  0  0  0  0
   -8.1832   22.6734  -30.2523 H   0  0  0  0  0  0  0  0  0  0  0  0
   -5.8490   24.0790  -31.0660 C   0  0  0  0  0  0  0  0  0  0  0  0
   -6.7778   24.6659  -31.1197 H   0  0  0  0  0  0  0  0  0  0  0  0
  1  2  1  0
  2  3  2  0
  3  4  1  0
  4  5  1  0
  5  6  1  0
  6  7  1  0
  6  8  1  0
  6  9  1  0
  9 10  2  0
 10 11  1  0
 11 12  1  0
 12 13  2  0
 13 14  1  0
 13 15  1  0
 15 16  1  0
 15 17  2  0
 17 18  1  0
 17 19  1  0
 19 20  1  0
 20 21  1  0
 21 22  1  0
 21 23  1  0
 21 24  1  0
 19 25  2  0
 25 26  1  0
 11 27  2  0
 27 28  1  0
 27 29  1  0
  5 30  1  0
 30 31  1  0
 31 32  2  0
 32 33  1  0
 32 34  1  0
 34 35  1  0
 34 36  2  0
 36 37  1  0
 36 38  1  0
 38 39  1  0
 38 40  2  0
 40 41  1  0
 30 42  2  0
 42 43  1  0
 42  3  1  0
 29  9  1  0
 40 31  1  0
 25 12  1  0
M  CHG  2   4  -1  27   1
M  END
>  <UniqueID>  (18) 
17

>  <SMILES>  (18) 
[H]/N=c1\cc(-c2ccccc2)n(Cc2nc(-c3cccc(OC)c3)[nH+]o2)[n-]1

>  <Energy>  (18) 
116.73020842938855

>  <Genealogy>  (18) 
COc1cccc(-c2nc(Cn3[n-]c(=N)cc3-c3ccccc3)o[nH+]2)c1 (protonated)
[H]/N=c1\cc(-c2ccccc2)n(Cc2nc(-c3cccc(OC)c3)[nH+]o2)[n-]1 (cis-trans isomerization)
[H]/N=c1\cc(-c2ccccc2)n(Cc2nc(-c3cccc(OC)c3)[nH+]o2)[n-]1 (3D coordinates assigned)
[H]/N=c1\cc(-c2ccccc2)n(Cc2nc(-c3cccc(OC)c3)[nH+]o2)[n-]1 (optimized conformer: 116.73020842938855 kcal/mol)

>  <smiles>  (18) 
COc1cccc(-c2noc(Cn3[nH]c(=N)cc3-c3ccccc3)n2)c1

>  <score_type>  (18) 
oracle

>  <origin>  (18) 
adg

>  <m_score__min__energy>  (18) 
-9.75

>  <m_primary>  (18) 
energy

$$$$
18:0
     RDKit          3D

 29 31  0  0  0  0  0  0  0  0999 V2000
   -8.4620   18.5610  -31.6960 C   0  0  0  0  0  0  0  0  0  0  0  0
   -7.2620   18.7390  -32.5120 N   0  0  0  0  0  0  0  0  0  0  0  0
   -6.5930   19.8920  -32.7950 C   0  0  0  0  0  0  0  0  0  0  0  0
   -6.9510   21.2370  -32.2920 C   0  0  0  0  0  0  0  0  0  0  0  0
   -8.2950   21.6040  -32.1130 C   0  0  0  0  0  0  0  0  0  0  0  0
   -8.6210   22.8710  -31.6230 C   0  0  0  0  0  0  0  0  0  0  0  0
   -7.6110   23.7800  -31.2980 C   0  0  0  0  0  0  0  0  0  0  0  0
   -6.2680   23.4200  -31.4570 C   0  0  0  0  0  0  0  0  0  0  0  0
   -5.2260   24.3520  -31.1140 C   0  0  0  0  0  0  0  0  0  0  0  0
   -4.3890   25.1030  -30.8390 N   0  0  0  0  0  0  0  0  0  0  0  0
   -5.9390   22.1490  -31.9480 C   0  0  0  0  0  0  0  0  0  0  0  0
   -5.5100   19.6370  -33.6420 C   0  0  0  0  0  0  0  0  0  0  0  0
   -5.5250   18.2750  -33.8470 C   0  0  0  0  0  0  0  0  0  0  0  0
   -4.6890   17.4470  -34.5890 C   0  0  0  0  0  0  0  0  0  0  0  0
   -4.9810   16.0720  -34.5950 C   0  0  0  0  0  0  0  0  0  0  0  0
   -6.0880   15.5850  -33.8640 C   0  0  0  0  0  0  0  0  0  0  0  0
   -6.8790   16.4420  -33.1500 N   0  0  0  0  0  0  0  0  0  0  0  0
   -6.5850   17.7670  -33.1520 C   0  0  0  0  0  0  0  0  0  0  0  0
   -8.1904   18.6013  -30.6308 H   0  0  0  0  0  0  0  0  0  0  0  0
   -9.1810   19.3623  -31.9216 H   0  0  0  0  0  0  0  0  0  0  0  0
   -8.9175   17.5855  -31.9216 H   0  0  0  0  0  0  0  0  0  0  0  0
   -9.0948   20.8902  -32.3599 H   0  0  0  0  0  0  0  0  0  0  0  0
   -9.6760   23.1538  -31.4927 H   0  0  0  0  0  0  0  0  0  0  0  0
   -7.8714   24.7786  -30.9172 H   0  0  0  0  0  0  0  0  0  0  0  0
   -4.8830   21.8641  -32.0646 H   0  0  0  0  0  0  0  0  0  0  0  0
   -4.7989   20.3672  -34.0557 H   0  0  0  0  0  0  0  0  0  0  0  0
   -3.8333   17.8522  -35.1489 H   0  0  0  0  0  0  0  0  0  0  0  0
   -4.3493   15.3767  -35.1674 H   0  0  0  0  0  0  0  0  0  0  0  0
   -6.3151   14.5087  -33.8694 H   0  0  0  0  0  0  0  0  0  0  0  0
  1  2  1  0
  2  3  1  0
  3  4  1  0
  4  5  2  0
  5  6  1  0
  6  7  2  0
  7  8  1  0
  8  9  1  0
  9 10  3  0
  8 11  2  0
  3 12  2  0
 12 13  1  0
 13 14  2  0
 14 15  1  0
 15 16  2  0
 16 17  1  0
 17 18  2  0
 18  2  1  0
 11  4  1  0
 18 13  1  0
  1 19  1  0
  1 20  1  0
  1 21  1  0
  5 22  1  0
  6 23  1  0
  7 24  1  0
 11 25  1  0
 12 26  1  0
 14 27  1  0
 15 28  1  0
 16 29  1  0
M  END
>  <UniqueID>  (19) 
18

>  <SMILES>  (19) 
Cn1c(-c2cccc(C#N)c2)cc2cccnc21

>  <Energy>  (19) 
71.12666582616524

>  <Genealogy>  (19) 
Cn1c(-c2cccc(C#N)c2)cc2cccnc21 (3D coordinates assigned)
Cn1c(-c2cccc(C#N)c2)cc2cccnc21 (optimized conformer: 71.12666582616524 kcal/mol)

>  <smiles>  (19) 
Cn1c(-c2cccc(C#N)c2)cc2cccnc21

>  <score_type>  (19) 
oracle

>  <origin>  (19) 
adg

>  <m_score__min__energy>  (19) 
-7.75

>  <m_primary>  (19) 
energy

$$$$
19:0
     RDKit          3D

 52 54  0  0  0  0  0  0  0  0999 V2000
   -3.0220   21.3970  -32.5710 C   0  0  0  0  0  0  0  0  0  0  0  0
   -2.8220   20.4400  -31.3990 C   0  0  0  0  0  0  0  0  0  0  0  0
   -1.4290   20.5440  -30.7430 C   0  0  0  0  0  0  0  0  0  0  0  0
   -1.4750   21.0080  -29.3250 N   0  0  0  0  0  0  0  0  0  0  0  0
   -2.8560   20.9380  -28.7500 C   0  0  0  0  0  0  0  0  0  0  0  0
   -3.5320   22.3070  -28.5480 C   0  0  0  0  0  0  0  0  0  0  0  0
   -3.1380   23.2350  -29.6130 N   0  0  0  0  0  0  0  0  0  0  0  0
   -4.1140   24.0740  -30.2560 C   0  0  0  0  0  0  0  0  0  0  0  0
   -3.8500   25.2890  -30.4690 O   0  0  0  0  0  0  0  0  0  0  0  0
   -5.4200   23.5290  -30.6740 C   0  0  0  0  0  0  0  0  0  0  0  0
   -5.7920   23.5570  -32.0260 C   0  0  0  0  0  0  0  0  0  0  0  0
   -6.9930   22.9820  -32.4400 C   0  0  0  0  0  0  0  0  0  0  0  0
   -7.8340   22.3530  -31.5080 C   0  0  0  0  0  0  0  0  0  0  0  0
   -9.0450   21.5940  -31.9770 C   0  0  0  0  0  0  0  0  0  0  0  0
   -9.0680   19.8950  -31.2950 S   0  0  0  0  0  0  0  0  0  0  0  0
   -7.6000   19.3310  -32.1660 C   0  0  0  0  0  0  0  0  0  0  0  0
   -6.8150   18.3000  -31.6340 C   0  0  0  0  0  0  0  0  0  0  0  0
   -5.7010   17.8320  -32.3390 C   0  0  0  0  0  0  0  0  0  0  0  0
   -5.3650   18.3980  -33.5730 C   0  0  0  0  0  0  0  0  0  0  0  0
   -6.1360   19.4400  -34.0990 C   0  0  0  0  0  0  0  0  0  0  0  0
   -7.2500   19.9100  -33.3950 C   0  0  0  0  0  0  0  0  0  0  0  0
   -7.4810   22.3540  -30.1500 C   0  0  0  0  0  0  0  0  0  0  0  0
   -6.2860   22.9530  -29.7330 C   0  0  0  0  0  0  0  0  0  0  0  0
   -1.7130   23.4360  -29.8810 C   0  0  0  0  0  0  0  0  0  0  0  0
   -0.8710   22.3560  -29.1820 C   0  0  0  0  0  0  0  0  0  0  0  0
   -3.2330   22.4064  -32.1882 H   0  0  0  0  0  0  0  0  0  0  0  0
   -2.1094   21.4209  -33.1847 H   0  0  0  0  0  0  0  0  0  0  0  0
   -3.8677   21.0534  -33.1847 H   0  0  0  0  0  0  0  0  0  0  0  0
   -3.5825   20.6620  -30.6359 H   0  0  0  0  0  0  0  0  0  0  0  0
   -2.9134   19.4193  -31.7987 H   0  0  0  0  0  0  0  0  0  0  0  0
   -0.9559   19.5513  -30.7699 H   0  0  0  0  0  0  0  0  0  0  0  0
   -0.8573   21.2925  -31.3113 H   0  0  0  0  0  0  0  0  0  0  0  0
   -0.8680   20.3710  -28.7550 H   0  0  0  0  0  0  0  0  0  0  0  0
   -3.4821   20.3424  -29.4306 H   0  0  0  0  0  0  0  0  0  0  0  0
   -2.7576   20.4865  -27.7518 H   0  0  0  0  0  0  0  0  0  0  0  0
   -4.6242   22.1778  -28.5658 H   0  0  0  0  0  0  0  0  0  0  0  0
   -3.2156   22.7212  -27.5793 H   0  0  0  0  0  0  0  0  0  0  0  0
   -5.1321   24.0356  -32.7645 H   0  0  0  0  0  0  0  0  0  0  0  0
   -7.2826   23.0213  -33.5005 H   0  0  0  0  0  0  0  0  0  0  0  0
   -9.9506   22.1248  -31.6480 H   0  0  0  0  0  0  0  0  0  0  0  0
   -9.0107   21.5279  -33.0745 H   0  0  0  0  0  0  0  0  0  0  0  0
   -7.0748   17.8579  -30.6608 H   0  0  0  0  0  0  0  0  0  0  0  0
   -5.0890   17.0184  -31.9225 H   0  0  0  0  0  0  0  0  0  0  0  0
   -4.4938   18.0235  -34.1304 H   0  0  0  0  0  0  0  0  0  0  0  0
   -5.8665   19.8898  -35.0660 H   0  0  0  0  0  0  0  0  0  0  0  0
   -7.8519   20.7342  -33.8055 H   0  0  0  0  0  0  0  0  0  0  0  0
   -8.1452   21.8827  -29.4106 H   0  0  0  0  0  0  0  0  0  0  0  0
   -6.0257   22.9719  -28.6644 H   0  0  0  0  0  0  0  0  0  0  0  0
   -1.5387   23.3838  -30.9659 H   0  0  0  0  0  0  0  0  0  0  0  0
   -1.4159   24.4218  -29.4937 H   0  0  0  0  0  0  0  0  0  0  0  0
    0.1346   22.3447  -29.6276 H   0  0  0  0  0  0  0  0  0  0  0  0
   -0.8257   22.5984  -28.1100 H   0  0  0  0  0  0  0  0  0  0  0  0
  1  2  1  0
  2  3  1  0
  3  4  1  0
  4  5  1  0
  5  6  1  0
  6  7  1  0
  7  8  1  0
  8  9  2  0
  8 10  1  0
 10 11  2  0
 11 12  1  0
 12 13  2  0
 13 14  1  0
 14 15  1  0
 15 16  1  0
 16 17  2  0
 17 18  1  0
 18 19  2  0
 19 20  1  0
 20 21  2  0
 13 22  1  0
 22 23  2  0
  7 24  1  0
 24 25  1  0
 25  4  1  0
 23 10  1  0
 21 16  1  0
  1 26  1  0
  1 27  1  0
  1 28  1  0
  2 29  1  0
  2 30  1  0
  3 31  1  0
  3 32  1  0
  4 33  1  0
  5 34  1  0
  5 35  1  0
  6 36  1  0
  6 37  1  0
 11 38  1  0
 12 39  1  0
 14 40  1  0
 14 41  1  0
 17 42  1  0
 18 43  1  0
 19 44  1  0
 20 45  1  0
 21 46  1  0
 22 47  1  0
 23 48  1  0
 24 49  1  0
 24 50  1  0
 25 51  1  0
 25 52  1  0
M  CHG  1   4   1
M  END
>  <UniqueID>  (20) 
19

>  <SMILES>  (20) 
CCC[NH+]1CCN(C(=O)c2ccc(CSc3ccccc3)cc2)CC1

>  <Energy>  (20) 
58.15588810296124

>  <Genealogy>  (20) 
CCC[NH+]1CCN(C(=O)c2ccc(CSc3ccccc3)cc2)CC1 (protonated)
CCC[NH+]1CCN(C(=O)c2ccc(CSc3ccccc3)cc2)CC1 (3D coordinates assigned)
CCC[NH+]1CCN(C(=O)c2ccc(CSc3ccccc3)cc2)CC1 (nonaromatic ring conformer: 58.15588810296124 kcal/mol)

>  <smiles>  (20) 
CCCN1CCN(C(=O)c2ccc(CSc3ccccc3)cc2)CC1

>  <score_type>  (20) 
oracle

>  <origin>  (20) 
adg

>  <m_score__min__energy>  (20) 
-8.2799999999999994

>  <m_primary>  (20) 
energy

$$$$
20:0
     RDKit          3D

 49 51  0  0  0  0  0  0  0  0999 V2000
   -3.0960   19.1390  -26.7250 C   0  0  0  0  0  0  0  0  0  0  0  0
   -1.6680   19.6730  -26.6150 C   0  0  0  0  0  0  0  0  0  0  0  0
   -1.3770   20.8050  -27.6210 C   0  0  0  0  0  0  0  0  0  0  0  0
   -1.5550   22.2170  -27.0320 C   0  0  0  0  0  0  0  0  0  0  0  0
   -2.2560   23.1210  -27.9660 N   0  0  0  0  0  0  0  0  0  0  0  0
   -1.5920   24.2180  -28.4900 C   0  0  0  0  0  0  0  0  0  0  0  0
   -0.4030   24.4700  -28.1550 O   0  0  0  0  0  0  0  0  0  0  0  0
   -2.2100   25.0480  -29.3830 N   0  0  0  0  0  0  0  0  0  0  0  0
   -3.4850   24.7830  -29.7420 C   0  0  0  0  0  0  0  0  0  0  0  0
   -4.2150   25.4610  -30.6440 N   0  0  0  0  0  0  0  0  0  0  0  0
   -5.3770   24.7570  -30.6700 C   0  0  0  0  0  0  0  0  0  0  0  0
   -5.3820   23.6940  -29.8240 N   0  0  0  0  0  0  0  0  0  0  0  0
   -6.4280   22.6770  -29.7140 C   0  0  0  0  0  0  0  0  0  0  0  0
   -7.4270   22.8180  -30.8680 C   0  0  0  0  0  0  0  0  0  0  0  0
   -7.7300   21.4950  -31.4530 N   0  0  0  0  0  0  0  0  0  0  0  0
   -6.7130   21.1220  -32.4600 C   0  0  0  0  0  0  0  0  0  0  0  0
   -7.1780   19.9530  -33.3600 C   0  0  0  0  0  0  0  0  0  0  0  0
   -8.2720   19.1690  -32.7550 N   0  0  0  0  0  0  0  0  0  0  0  0
   -7.8070   18.3700  -31.6070 C   0  0  0  0  0  0  0  0  0  0  0  0
   -9.4470   20.0090  -32.4170 C   0  0  0  0  0  0  0  0  0  0  0  0
   -9.0760   21.4580  -32.0480 C   0  0  0  0  0  0  0  0  0  0  0  0
   -4.1670   23.7260  -29.2490 C   0  0  0  0  0  0  0  0  0  0  0  0
   -3.5610   22.8650  -28.3360 C   0  0  0  0  0  0  0  0  0  0  0  0
   -4.1910   21.8760  -27.8730 O   0  0  0  0  0  0  0  0  0  0  0  0
   -3.5085   18.9848  -25.7170 H   0  0  0  0  0  0  0  0  0  0  0  0
   -3.7182   19.8652  -27.2686 H   0  0  0  0  0  0  0  0  0  0  0  0
   -3.0890   18.1827  -27.2686 H   0  0  0  0  0  0  0  0  0  0  0  0
   -1.5141   20.0591  -25.5965 H   0  0  0  0  0  0  0  0  0  0  0  0
   -0.9840   18.8421  -26.8426 H   0  0  0  0  0  0  0  0  0  0  0  0
   -0.3385   20.7021  -27.9689 H   0  0  0  0  0  0  0  0  0  0  0  0
   -2.1054   20.7035  -28.4390 H   0  0  0  0  0  0  0  0  0  0  0  0
   -2.1394   22.1433  -26.1030 H   0  0  0  0  0  0  0  0  0  0  0  0
   -0.5553   22.6342  -26.8408 H   0  0  0  0  0  0  0  0  0  0  0  0
   -6.2296   25.0217  -31.3127 H   0  0  0  0  0  0  0  0  0  0  0  0
   -5.9689   21.6781  -29.7509 H   0  0  0  0  0  0  0  0  0  0  0  0
   -6.9599   22.8109  -28.7605 H   0  0  0  0  0  0  0  0  0  0  0  0
   -8.3565   23.2682  -30.4895 H   0  0  0  0  0  0  0  0  0  0  0  0
   -6.9853   23.4587  -31.6454 H   0  0  0  0  0  0  0  0  0  0  0  0
   -6.5065   21.9964  -33.0947 H   0  0  0  0  0  0  0  0  0  0  0  0
   -5.8115   20.7939  -31.9218 H   0  0  0  0  0  0  0  0  0  0  0  0
   -7.5280   20.3643  -34.3183 H   0  0  0  0  0  0  0  0  0  0  0  0
   -6.3208   19.2772  -33.4963 H   0  0  0  0  0  0  0  0  0  0  0  0
   -8.0976   18.8694  -30.6710 H   0  0  0  0  0  0  0  0  0  0  0  0
   -8.2644   17.3704  -31.6466 H   0  0  0  0  0  0  0  0  0  0  0  0
   -6.7119   18.2739  -31.6466 H   0  0  0  0  0  0  0  0  0  0  0  0
  -10.1210   20.0319  -33.2860 H   0  0  0  0  0  0  0  0  0  0  0  0
   -9.9241   19.5603  -31.5332 H   0  0  0  0  0  0  0  0  0  0  0  0
   -9.0911   22.0805  -32.9548 H   0  0  0  0  0  0  0  0  0  0  0  0
   -9.8044   21.8439  -31.3197 H   0  0  0  0  0  0  0  0  0  0  0  0
  1  2  1  0
  2  3  1  0
  3  4  1  0
  4  5  1  0
  5  6  1  0
  6  7  2  0
  6  8  1  0
  8  9  1  0
  9 10  1  0
 10 11  2  0
 11 12  1  0
 12 13  1  0
 13 14  1  0
 14 15  1  0
 15 16  1  0
 16 17  1  0
 17 18  1  0
 18 19  1  0
 18 20  1  0
 20 21  1  0
 12 22  1  0
 22 23  1  0
 23 24  2  0
 23  5  1  0
 22  9  2  0
 21 15  1  0
  1 25  1  0
  1 26  1  0
  1 27  1  0
  2 28  1  0
  2 29  1  0
  3 30  1  0
  3 31  1  0
  4 32  1  0
  4 33  1  0
 11 34  1  0
 13 35  1  0
 13 36  1  0
 14 37  1  0
 14 38  1  0
 16 39  1  0
 16 40  1  0
 17 41  1  0
 17 42  1  0
 19 43  1  0
 19 44  1  0
 19 45  1  0
 20 46  1  0
 20 47  1  0
 21 48  1  0
 21 49  1  0
M  CHG  1   8  -1
M  END
>  <UniqueID>  (21) 
20

>  <SMILES>  (21) 
CCCCn1c(=O)[n-]c2ncn(CCN3CCN(C)CC3)c2c1=O

>  <Energy>  (21) 
97.73951451266021

>  <Genealogy>  (21) 
CCCCn1c(=O)[n-]c2ncn(CCN3CCN(C)CC3)c2c1=O (protonated)
CCCCn1c(=O)[n-]c2ncn(CCN3CCN(C)CC3)c2c1=O (3D coordinates assigned)
CCCCn1c(=O)[n-]c2ncn(CCN3CCN(C)CC3)c2c1=O (nonaromatic ring conformer: 97.73951451266021 kcal/mol)

>  <smiles>  (21) 
CCCCn1c(=O)[nH]c2ncn(CCN3CCN(C)CC3)c2c1=O

>  <score_type>  (21) 
oracle

>  <origin>  (21) 
adg

>  <m_score__min__energy>  (21) 
-9.1600000000000001

>  <m_primary>  (21) 
energy

$$$$
21:0
     RDKit          3D

 41 42  0  0  0  0  0  0  0  0999 V2000
   -0.5680   21.1710  -31.9420 C   0  0  0  0  0  0  0  0  0  0  0  0
   -1.4580   21.3420  -32.9210 C   0  0  0  0  0  0  0  0  0  0  0  0
   -0.9490   21.6800  -34.1860 O   0  0  0  0  0  0  0  0  0  0  0  0
   -0.0930   20.8630  -34.9750 C   0  0  0  0  0  0  0  0  0  0  0  0
   -2.9130   21.1660  -32.6430 C   0  0  0  0  0  0  0  0  0  0  0  0
   -3.6470   22.1600  -32.0820 N   0  0  0  0  0  0  0  0  0  0  0  0
   -4.9900   22.0680  -31.8510 C   0  0  0  0  0  0  0  0  0  0  0  0
   -5.6610   23.2980  -31.1870 C   0  0  0  0  0  0  0  0  0  0  0  0
   -6.6110   23.9000  -32.2550 C   0  0  0  0  0  0  0  0  0  0  0  0
   -6.4780   22.9240  -29.9080 C   0  0  0  0  0  0  0  0  0  0  0  0
   -4.5810   24.2870  -30.8320 N   0  0  0  0  0  0  0  0  0  0  0  0
   -5.0400   25.6650  -30.5550 C   0  0  0  0  0  0  0  0  0  0  0  0
   -3.6830   23.8310  -29.7460 C   0  0  0  0  0  0  0  0  0  0  0  0
   -5.6620   20.8890  -32.3100 C   0  0  0  0  0  0  0  0  0  0  0  0
   -7.0640   20.7070  -32.3070 C   0  0  0  0  0  0  0  0  0  0  0  0
   -7.6340   19.5010  -32.7300 C   0  0  0  0  0  0  0  0  0  0  0  0
   -9.3770   19.2980  -32.7040 Cl  0  0  0  0  0  0  0  0  0  0  0  0
   -6.8240   18.4640  -33.1890 C   0  0  0  0  0  0  0  0  0  0  0  0
   -5.4440   18.6400  -33.2570 C   0  0  0  0  0  0  0  0  0  0  0  0
   -4.8640   19.8440  -32.8410 C   0  0  0  0  0  0  0  0  0  0  0  0
   -3.5300   20.0120  -32.9950 N   0  0  0  0  0  0  0  0  0  0  0  0
   -0.9077   20.9054  -30.9301 H   0  0  0  0  0  0  0  0  0  0  0  0
    0.5056   21.2956  -32.1467 H   0  0  0  0  0  0  0  0  0  0  0  0
    0.5439   20.2551  -34.3155 H   0  0  0  0  0  0  0  0  0  0  0  0
   -0.7005   20.2013  -35.6098 H   0  0  0  0  0  0  0  0  0  0  0  0
    0.5397   21.5007  -35.6098 H   0  0  0  0  0  0  0  0  0  0  0  0
   -7.4388   24.4246  -31.7554 H   0  0  0  0  0  0  0  0  0  0  0  0
   -6.0532   24.6098  -32.8835 H   0  0  0  0  0  0  0  0  0  0  0  0
   -7.0147   23.0925  -32.8835 H   0  0  0  0  0  0  0  0  0  0  0  0
   -5.8980   23.1895  -29.0118 H   0  0  0  0  0  0  0  0  0  0  0  0
   -7.4293   23.4763  -29.9061 H   0  0  0  0  0  0  0  0  0  0  0  0
   -6.6816   21.8430  -29.9061 H   0  0  0  0  0  0  0  0  0  0  0  0
   -5.0924   25.8224  -29.4676 H   0  0  0  0  0  0  0  0  0  0  0  0
   -4.3324   26.3827  -30.9957 H   0  0  0  0  0  0  0  0  0  0  0  0
   -6.0366   25.8151  -30.9957 H   0  0  0  0  0  0  0  0  0  0  0  0
   -4.1387   24.0624  -28.7719 H   0  0  0  0  0  0  0  0  0  0  0  0
   -3.5283   22.7452  -29.8298 H   0  0  0  0  0  0  0  0  0  0  0  0
   -2.7150   24.3468  -29.8298 H   0  0  0  0  0  0  0  0  0  0  0  0
   -7.7161   21.5251  -31.9673 H   0  0  0  0  0  0  0  0  0  0  0  0
   -7.2736   17.5085  -33.4970 H   0  0  0  0  0  0  0  0  0  0  0  0
   -4.8069   17.8289  -33.6395 H   0  0  0  0  0  0  0  0  0  0  0  0
  1  2  2  0
  2  3  1  0
  3  4  1  0
  2  5  1  0
  5  6  2  0
  6  7  1  0
  7  8  1  0
  8  9  1  0
  8 10  1  0
  8 11  1  0
 11 12  1  0
 11 13  1  0
  7 14  2  0
 14 15  1  0
 15 16  2  0
 16 17  1  0
 16 18  1  0
 18 19  2  0
 19 20  1  0
 20 21  2  0
 21  5  1  0
 20 14  1  0
  1 22  1  0
  1 23  1  0
  4 24  1  0
  4 25  1  0
  4 26  1  0
  9 27  1  0
  9 28  1  0
  9 29  1  0
 10 30  1  0
 10 31  1  0
 10 32  1  0
 12 33  1  0
 12 34  1  0
 12 35  1  0
 13 36  1  0
 13 37  1  0
 13 38  1  0
 15 39  1  0
 18 40  1  0
 19 41  1  0
M  END
>  <UniqueID>  (22) 
21

>  <SMILES>  (22) 
C=C(OC)c1nc(C(C)(C)N(C)C)c2cc(Cl)ccc2n1

>  <Energy>  (22) 
64.78161229117475

>  <Genealogy>  (22) 
C=C(OC)c1nc(C(C)(C)N(C)C)c2cc(Cl)ccc2n1 (3D coordinates assigned)
C=C(OC)c1nc(C(C)(C)N(C)C)c2cc(Cl)ccc2n1 (optimized conformer: 64.78161229117475 kcal/mol)

>  <smiles>  (22) 
C=C(OC)c1nc(C(C)(C)N(C)C)c2cc(Cl)ccc2n1

>  <score_type>  (22) 
oracle

>  <origin>  (22) 
adg

>  <m_score__min__energy>  (22) 
-7.75

>  <m_primary>  (22) 
energy

$$$$
22:0
     RDKit          3D

 54 57  0  0  0  0  0  0  0  0999 V2000
   -3.0680   18.6510  -34.0250 C   0  0  0  0  0  0  0  0  0  0  0  0
   -3.0110   19.7970  -33.0530 C   0  0  0  0  0  0  0  0  0  0  0  0
   -1.7990   20.4830  -32.8660 C   0  0  0  0  0  0  0  0  0  0  0  0
   -1.7210   21.5490  -31.9650 C   0  0  0  0  0  0  0  0  0  0  0  0
   -2.8520   21.9460  -31.2500 C   0  0  0  0  0  0  0  0  0  0  0  0
   -4.0670   21.2840  -31.4400 C   0  0  0  0  0  0  0  0  0  0  0  0
   -4.1610   20.2160  -32.3450 C   0  0  0  0  0  0  0  0  0  0  0  0
   -5.4310   19.5730  -32.5340 N   0  0  0  0  0  0  0  0  0  0  0  0
   -6.1880   19.7710  -33.7710 C   0  0  0  0  0  0  0  0  0  0  0  0
   -7.6710   20.0630  -33.4650 C   0  0  0  0  0  0  0  0  0  0  0  0
   -8.1820   19.4160  -32.2240 N   0  0  0  0  0  0  0  0  0  0  0  0
   -8.3710   20.3810  -31.1170 C   0  0  0  0  0  0  0  0  0  0  0  0
   -7.4880   21.6160  -31.3330 C   0  0  0  0  0  0  0  0  0  0  0  0
   -7.4980   22.4690  -30.1340 N   0  0  0  0  0  0  0  0  0  0  0  0
   -7.2480   23.8870  -30.4420 C   0  0  0  0  0  0  0  0  0  0  0  0
   -5.8170   24.2740  -30.1870 C   0  0  0  0  0  0  0  0  0  0  0  0
   -5.0170   25.0440  -31.0040 C   0  0  0  0  0  0  0  0  0  0  0  0
   -3.8560   25.1860  -30.4060 O   0  0  0  0  0  0  0  0  0  0  0  0
   -3.9220   24.5380  -29.2620 C   0  0  0  0  0  0  0  0  0  0  0  0
   -2.8160   24.4650  -28.2980 C   0  0  0  0  0  0  0  0  0  0  0  0
   -2.9450   24.4950  -26.9160 C   0  0  0  0  0  0  0  0  0  0  0  0
   -1.7190   24.4070  -26.2460 C   0  0  0  0  0  0  0  0  0  0  0  0
   -0.6250   24.3060  -27.0970 C   0  0  0  0  0  0  0  0  0  0  0  0
   -1.1850   24.3280  -28.6830 S   0  0  0  0  0  0  0  0  0  0  0  0
   -5.1240   23.9560  -29.0800 N   0  0  0  0  0  0  0  0  0  0  0  0
   -7.3780   18.2460  -31.8130 C   0  0  0  0  0  0  0  0  0  0  0  0
   -5.9280   18.6480  -31.5130 C   0  0  0  0  0  0  0  0  0  0  0  0
   -3.1152   17.7021  -33.4707 H   0  0  0  0  0  0  0  0  0  0  0  0
   -3.9623   18.7509  -34.6577 H   0  0  0  0  0  0  0  0  0  0  0  0
   -2.1682   18.6617  -34.6577 H   0  0  0  0  0  0  0  0  0  0  0  0
   -0.9061   20.1793  -33.4321 H   0  0  0  0  0  0  0  0  0  0  0  0
   -0.7665   22.0759  -31.8193 H   0  0  0  0  0  0  0  0  0  0  0  0
   -2.7864   22.7807  -30.5365 H   0  0  0  0  0  0  0  0  0  0  0  0
   -4.9564   21.6021  -30.8762 H   0  0  0  0  0  0  0  0  0  0  0  0
   -5.7599   20.6202  -34.3237 H   0  0  0  0  0  0  0  0  0  0  0  0
   -6.1265   18.8522  -34.3727 H   0  0  0  0  0  0  0  0  0  0  0  0
   -7.7931   21.1512  -33.3610 H   0  0  0  0  0  0  0  0  0  0  0  0
   -8.2523   19.6443  -34.2997 H   0  0  0  0  0  0  0  0  0  0  0  0
   -9.4259   20.6906  -31.0813 H   0  0  0  0  0  0  0  0  0  0  0  0
   -8.0881   19.8994  -30.1694 H   0  0  0  0  0  0  0  0  0  0  0  0
   -6.4570   21.2929  -31.5395 H   0  0  0  0  0  0  0  0  0  0  0  0
   -7.8810   22.1916  -32.1840 H   0  0  0  0  0  0  0  0  0  0  0  0
   -6.7660   22.1300  -29.4670 H   0  0  0  0  0  0  0  0  0  0  0  0
   -7.4813   24.0669  -31.5018 H   0  0  0  0  0  0  0  0  0  0  0  0
   -7.8873   24.4956  -29.7856 H   0  0  0  0  0  0  0  0  0  0  0  0
   -5.2998   25.4638  -31.9806 H   0  0  0  0  0  0  0  0  0  0  0  0
   -3.9126   24.5794  -26.3997 H   0  0  0  0  0  0  0  0  0  0  0  0
   -1.6300   24.4169  -25.1496 H   0  0  0  0  0  0  0  0  0  0  0  0
    0.4272   24.2254  -26.7865 H   0  0  0  0  0  0  0  0  0  0  0  0
   -5.4510   23.3930  -28.2630 H   0  0  0  0  0  0  0  0  0  0  0  0
   -7.8226   17.8047  -30.9088 H   0  0  0  0  0  0  0  0  0  0  0  0
   -7.3745   17.5182  -32.6378 H   0  0  0  0  0  0  0  0  0  0  0  0
   -5.8842   19.1374  -30.5288 H   0  0  0  0  0  0  0  0  0  0  0  0
   -5.3004   17.7446  -31.5153 H   0  0  0  0  0  0  0  0  0  0  0  0
  1  2  1  0
  2  3  2  0
  3  4  1  0
  4  5  2  0
  5  6  1  0
  6  7  2  0
  7  8  1  0
  8  9  1  0
  9 10  1  0
 10 11  1  0
 11 12  1  0
 12 13  1  0
 13 14  1  0
 14 15  1  0
 15 16  1  0
 16 17  2  0
 17 18  1  0
 18 19  1  0
 19 20  1  0
 20 21  2  0
 21 22  1  0
 22 23  2  0
 23 24  1  0
 19 25  2  0
 11 26  1  0
 26 27  1  0
  7  2  1  0
 27  8  1  0
 25 16  1  0
 24 20  1  0
  1 28  1  0
  1 29  1  0
  1 30  1  0
  3 31  1  0
  4 32  1  0
  5 33  1  0
  6 34  1  0
  9 35  1  0
  9 36  1  0
 10 37  1  0
 10 38  1  0
 12 39  1  0
 12 40  1  0
 13 41  1  0
 13 42  1  0
 14 43  1  0
 15 44  1  0
 15 45  1  0
 17 46  1  0
 21 47  1  0
 22 48  1  0
 23 49  1  0
 25 50  1  0
 26 51  1  0
 26 52  1  0
 27 53  1  0
 27 54  1  0
M  CHG  1  25   1
M  END
>  <UniqueID>  (23) 
22

>  <SMILES>  (23) 
Cc1ccccc1N1CCN(CCNCc2coc(-c3cccs3)[nH+]2)CC1

>  <Energy>  (23) 
124.50481632383377

>  <Genealogy>  (23) 
Cc1ccccc1N1CCN(CCNCc2coc(-c3cccs3)[nH+]2)CC1 (protonated)
Cc1ccccc1N1CCN(CCNCc2coc(-c3cccs3)[nH+]2)CC1 (3D coordinates assigned)
Cc1ccccc1N1CCN(CCNCc2coc(-c3cccs3)[nH+]2)CC1 (nonaromatic ring conformer: 124.50481632383377 kcal/mol)

>  <smiles>  (23) 
Cc1ccccc1N1CCN(CCNCc2coc(-c3cccs3)n2)CC1

>  <score_type>  (23) 
oracle

>  <origin>  (23) 
adg

>  <m_score__min__energy>  (23) 
-7.7599999999999998

>  <m_primary>  (23) 
energy

$$$$
23:0
     RDKit          3D

 41 43  0  0  1  0  0  0  0  0999 V2000
   -1.5700   25.7660  -26.9420 C   0  0  0  0  0  0  0  0  0  0  0  0
   -1.7910   24.2770  -26.8440 C   0  0  0  0  0  0  0  0  0  0  0  0
   -1.9200   23.6520  -28.1300 N   0  0  0  0  0  0  0  0  0  0  0  0
   -1.0550   22.7480  -28.6690 C   0  0  0  0  0  0  0  0  0  0  0  0
   -1.4930   22.3770  -29.8870 N   0  0  0  0  0  0  0  0  0  0  0  0
   -2.6260   23.0320  -30.1340 C   0  0  0  0  0  0  0  0  0  0  0  0
   -3.4960   23.0460  -31.2030 C   0  0  0  0  0  0  0  0  0  0  0  0
   -3.2340   22.3060  -32.2040 N   0  0  0  0  0  0  0  0  0  0  0  0
   -4.0380   21.2210  -32.6460 C   0  0  0  0  0  0  0  0  0  0  0  0
   -3.3690   20.0660  -33.0190 C   0  0  0  0  0  0  0  0  0  0  0  0
   -4.0170   18.9450  -33.4640 C   0  0  0  0  0  0  0  0  0  0  0  0
   -5.3930   18.9920  -33.5370 C   0  0  0  0  0  0  0  0  0  0  0  0
   -6.0740   20.1550  -33.1620 C   0  0  0  0  0  0  0  0  0  0  0  0
   -7.4900   20.1160  -33.2670 N   0  0  0  0  0  0  0  0  0  0  0  0
   -8.3010   20.6340  -32.2230 C   0  0  0  0  0  0  0  0  0  0  0  0
   -9.7850   20.5890  -32.3450 C   0  0  0  0  0  0  0  0  0  0  0  0
   -7.7990   21.1360  -31.1840 O   0  0  0  0  0  0  0  0  0  0  0  0
   -5.4060   21.2610  -32.7200 C   0  0  0  0  0  0  0  0  0  0  0  0
   -4.6100   23.8050  -31.2380 N   0  0  0  0  0  0  0  0  0  0  0  0
   -4.8460   24.5790  -30.1420 C   0  0  0  0  0  0  0  0  0  0  0  0
   -6.0380   25.4640  -30.0490 C   0  0  0  0  0  0  0  0  0  0  0  0
   -4.0030   24.5780  -29.0830 N   0  0  0  0  0  0  0  0  0  0  0  0
   -2.8900   23.8270  -29.0360 C   0  0  0  0  0  0  0  0  0  0  0  0
   -1.5064   26.1946  -25.9309 H   0  0  0  0  0  0  0  0  0  0  0  0
   -0.6328   25.9627  -27.4833 H   0  0  0  0  0  0  0  0  0  0  0  0
   -2.4096   26.2265  -27.4833 H   0  0  0  0  0  0  0  0  0  0  0  0
   -0.9356   23.8278  -26.3182 H   0  0  0  0  0  0  0  0  0  0  0  0
   -2.7327   24.1152  -26.2991 H   0  0  0  0  0  0  0  0  0  0  0  0
   -0.1397   22.3781  -28.1839 H   0  0  0  0  0  0  0  0  0  0  0  0
   -2.2710   20.0492  -32.9548 H   0  0  0  0  0  0  0  0  0  0  0  0
   -3.4607   18.0409  -33.7524 H   0  0  0  0  0  0  0  0  0  0  0  0
   -5.9553   18.1150  -33.8901 H   0  0  0  0  0  0  0  0  0  0  0  0
   -7.9610   19.7080  -34.1130 H   0  0  0  0  0  0  0  0  0  0  0  0
  -10.2352   20.5754  -31.3414 H   0  0  0  0  0  0  0  0  0  0  0  0
  -10.1350   21.4769  -32.8918 H   0  0  0  0  0  0  0  0  0  0  0  0
  -10.0806   19.6815  -32.8918 H   0  0  0  0  0  0  0  0  0  0  0  0
   -5.9561   22.1679  -32.4285 H   0  0  0  0  0  0  0  0  0  0  0  0
   -6.2798   25.6435  -28.9910 H   0  0  0  0  0  0  0  0  0  0  0  0
   -5.8225   26.4226  -30.5436 H   0  0  0  0  0  0  0  0  0  0  0  0
   -6.8932   24.9804  -30.5436 H   0  0  0  0  0  0  0  0  0  0  0  0
   -4.1900   25.1770  -28.2420 H   0  0  0  0  0  0  0  0  0  0  0  0
  1  2  1  0
  2  3  1  0
  3  4  1  0
  4  5  2  0
  5  6  1  0
  6  7  1  0
  7  8  2  0
  8  9  1  0
  9 10  2  0
 10 11  1  0
 11 12  2  0
 12 13  1  0
 13 14  1  0
 14 15  1  0
 15 16  1  0
 15 17  2  0
 13 18  2  0
  7 19  1  0
 19 20  2  0
 20 21  1  0
 20 22  1  0
 22 23  1  0
 23  3  1  0
 23  6  2  0
 18  9  1  0
  1 24  1  0
  1 25  1  0
  1 26  1  0
  2 27  1  0
  2 28  1  0
  4 29  1  0
 10 30  1  0
 11 31  1  0
 12 32  1  0
 14 33  1  0
 16 34  1  0
 16 35  1  0
 16 36  1  0
 18 37  1  0
 21 38  1  0
 21 39  1  0
 21 40  1  0
 22 41  1  0
M  END
>  <smiles>  (24) 
CCn1cnc2c(=Nc3cccc(NC(C)=O)c3)nc(C)[nH]c21

>  <score_type>  (24) 
oracle

>  <origin>  (24) 
adg

>  <m_score__min__energy>  (24) 
-7.9699999999999998

>  <m_primary>  (24) 
energy

$$$$
24:0
     RDKit          3D

 37 38  0  0  0  0  0  0  0  0999 V2000
   -3.9060   24.4580  -27.0890 C   0  0  0  0  0  0  0  0  0  0  0  0
   -2.9930   23.8790  -28.1620 C   0  0  0  0  0  0  0  0  0  0  0  0
   -2.6400   24.9240  -29.1730 C   0  0  0  0  0  0  0  0  0  0  0  0
   -1.6350   25.6600  -28.9820 O   0  0  0  0  0  0  0  0  0  0  0  0
   -3.4850   25.1080  -30.3140 N   0  0  0  0  0  0  0  0  0  0  0  0
   -4.8330   24.6450  -30.4710 C   0  0  0  0  0  0  0  0  0  0  0  0
   -6.0090   25.2490  -30.0590 C   0  0  0  0  0  0  0  0  0  0  0  0
   -7.0470   24.4530  -30.3920 N   0  0  0  0  0  0  0  0  0  0  0  0
   -6.5650   23.3740  -30.9940 N   0  0  0  0  0  0  0  0  0  0  0  0
   -7.4140   22.3130  -31.5230 C   0  0  0  0  0  0  0  0  0  0  0  0
   -5.2190   23.4570  -31.0540 C   0  0  0  0  0  0  0  0  0  0  0  0
   -4.3440   22.4680  -31.6320 N   0  0  0  0  0  0  0  0  0  0  0  0
   -3.1800   21.9840  -30.8750 C   0  0  0  0  0  0  0  0  0  0  0  0
   -2.0480   21.5810  -31.8260 C   0  0  0  0  0  0  0  0  0  0  0  0
   -2.4980   20.5110  -32.8420 C   0  0  0  0  0  0  0  0  0  0  0  0
   -1.6800   20.5950  -33.9800 O   0  0  0  0  0  0  0  0  0  0  0  0
   -3.9880   20.6450  -33.2470 C   0  0  0  0  0  0  0  0  0  0  0  0
   -4.5300   22.0610  -33.0310 C   0  0  0  0  0  0  0  0  0  0  0  0
   -3.5088   24.2061  -26.0946 H   0  0  0  0  0  0  0  0  0  0  0  0
   -3.9533   25.5515  -27.1988 H   0  0  0  0  0  0  0  0  0  0  0  0
   -4.9153   24.0345  -27.1988 H   0  0  0  0  0  0  0  0  0  0  0  0
   -2.0717   23.5065  -27.6903 H   0  0  0  0  0  0  0  0  0  0  0  0
   -3.5193   23.0575  -28.6700 H   0  0  0  0  0  0  0  0  0  0  0  0
   -6.0848   26.2184  -29.5447 H   0  0  0  0  0  0  0  0  0  0  0  0
   -7.8625   21.7525  -30.6896 H   0  0  0  0  0  0  0  0  0  0  0  0
   -8.2112   22.7542  -32.1392 H   0  0  0  0  0  0  0  0  0  0  0  0
   -6.8087   21.6319  -32.1392 H   0  0  0  0  0  0  0  0  0  0  0  0
   -2.8246   22.7833  -30.2081 H   0  0  0  0  0  0  0  0  0  0  0  0
   -3.4800   21.1037  -30.2875 H   0  0  0  0  0  0  0  0  0  0  0  0
   -1.7117   22.4727  -32.3753 H   0  0  0  0  0  0  0  0  0  0  0  0
   -1.2337   21.1540  -31.2222 H   0  0  0  0  0  0  0  0  0  0  0  0
   -2.3962   19.5282  -32.3585 H   0  0  0  0  0  0  0  0  0  0  0  0
   -2.1140   21.2370  -34.6010 H   0  0  0  0  0  0  0  0  0  0  0  0
   -4.0886   20.3875  -34.3117 H   0  0  0  0  0  0  0  0  0  0  0  0
   -4.5701   19.9637  -32.6091 H   0  0  0  0  0  0  0  0  0  0  0  0
   -3.9913   22.7602  -33.6874 H   0  0  0  0  0  0  0  0  0  0  0  0
   -5.6039   22.0741  -33.2686 H   0  0  0  0  0  0  0  0  0  0  0  0
  1  2  1  0
  2  3  1  0
  3  4  2  0
  3  5  1  0
  5  6  1  0
  6  7  1  0
  7  8  2  0
  8  9  1  0
  9 10  1  0
  9 11  1  0
 11 12  1  0
 12 13  1  0
 13 14  1  0
 14 15  1  0
 15 16  1  0
 15 17  1  0
 17 18  1  0
 11  6  2  0
 18 12  1  0
  1 19  1  0
  1 20  1  0
  1 21  1  0
  2 22  1  0
  2 23  1  0
  7 24  1  0
 10 25  1  0
 10 26  1  0
 10 27  1  0
 13 28  1  0
 13 29  1  0
 14 30  1  0
 14 31  1  0
 15 32  1  0
 16 33  1  0
 17 34  1  0
 17 35  1  0
 18 36  1  0
 18 37  1  0
M  CHG  1   5  -1
M  END
>  <UniqueID>  (25) 
23

>  <SMILES>  (25) 
CCC(=O)[N-]c1cnn(C)c1N1CCC(O)CC1

>  <Energy>  (25) 
69.4648668078298

>  <Genealogy>  (25) 
CCC(=O)[N-]c1cnn(C)c1N1CCC(O)CC1 (protonated)
CCC(=O)[N-]c1cnn(C)c1N1CCC(O)CC1 (3D coordinates assigned)
CCC(=O)[N-]c1cnn(C)c1N1CCC(O)CC1 (nonaromatic ring conformer: 69.4648668078298 kcal/mol)

>  <smiles>  (25) 
CCC(=O)Nc1cnn(C)c1N1CCC(O)CC1

>  <score_type>  (25) 
oracle

>  <origin>  (25) 
adg

>  <m_score__min__energy>  (25) 
-8.3000000000000007

>  <m_primary>  (25) 
energy

$$$$
25:0
     RDKit          3D

 30 31  0  0  0  0  0  0  0  0999 V2000
   -6.5600   15.5330  -34.2180 C   0  0  0  0  0  0  0  0  0  0  0  0
   -6.0370   16.8950  -33.8890 C   0  0  0  0  0  0  0  0  0  0  0  0
   -4.7120   17.2330  -34.1730 C   0  0  0  0  0  0  0  0  0  0  0  0
   -4.2680   18.5240  -33.8690 C   0  0  0  0  0  0  0  0  0  0  0  0
   -2.8680   18.9380  -34.2160 C   0  0  0  0  0  0  0  0  0  0  0  0
   -5.1370   19.4250  -33.3300 N   0  0  0  0  0  0  0  0  0  0  0  0
   -6.4220   19.0740  -33.0390 C   0  0  0  0  0  0  0  0  0  0  0  0
   -7.3390   20.0240  -32.4760 N   0  0  0  0  0  0  0  0  0  0  0  0
   -7.1630   21.3320  -32.5810 N   0  0  0  0  0  0  0  0  0  0  0  0
   -8.2000   21.9340  -31.9690 C   0  0  0  0  0  0  0  0  0  0  0  0
   -8.4010   23.4120  -31.9300 C   0  0  0  0  0  0  0  0  0  0  0  0
   -9.0840   20.9860  -31.4890 C   0  0  0  0  0  0  0  0  0  0  0  0
   -8.5080   19.7810  -31.8370 C   0  0  0  0  0  0  0  0  0  0  0  0
   -9.1240   18.4370  -31.5930 C   0  0  0  0  0  0  0  0  0  0  0  0
   -6.8620   17.8220  -33.3370 N   0  0  0  0  0  0  0  0  0  0  0  0
   -6.7700   14.9861  -33.2870 H   0  0  0  0  0  0  0  0  0  0  0  0
   -7.4858   15.6275  -34.8045 H   0  0  0  0  0  0  0  0  0  0  0  0
   -5.8089   14.9836  -34.8045 H   0  0  0  0  0  0  0  0  0  0  0  0
   -4.0308   16.4982  -34.6269 H   0  0  0  0  0  0  0  0  0  0  0  0
   -2.2959   19.1072  -33.2918 H   0  0  0  0  0  0  0  0  0  0  0  0
   -2.3862   18.1439  -34.8053 H   0  0  0  0  0  0  0  0  0  0  0  0
   -2.8956   19.8664  -34.8053 H   0  0  0  0  0  0  0  0  0  0  0  0
   -4.8180   20.4070  -33.1720 H   0  0  0  0  0  0  0  0  0  0  0  0
   -8.4467   23.7483  -30.8837 H   0  0  0  0  0  0  0  0  0  0  0  0
   -7.5623   23.9097  -32.4388 H   0  0  0  0  0  0  0  0  0  0  0  0
   -9.3422   23.6676  -32.4388 H   0  0  0  0  0  0  0  0  0  0  0  0
  -10.0297   21.1535  -30.9527 H   0  0  0  0  0  0  0  0  0  0  0  0
   -9.2044   18.2616  -30.5100 H   0  0  0  0  0  0  0  0  0  0  0  0
  -10.1264   18.4056  -32.0449 H   0  0  0  0  0  0  0  0  0  0  0  0
   -8.4934   17.6571  -32.0449 H   0  0  0  0  0  0  0  0  0  0  0  0
  1  2  1  0
  2  3  2  0
  3  4  1  0
  4  5  1  0
  4  6  2  0
  6  7  1  0
  7  8  1  0
  8  9  1  0
  9 10  2  0
 10 11  1  0
 10 12  1  0
 12 13  2  0
 13 14  1  0
  7 15  2  0
 15  2  1  0
 13  8  1  0
  1 16  1  0
  1 17  1  0
  1 18  1  0
  3 19  1  0
  5 20  1  0
  5 21  1  0
  5 22  1  0
  6 23  1  0
 11 24  1  0
 11 25  1  0
 11 26  1  0
 12 27  1  0
 14 28  1  0
 14 29  1  0
 14 30  1  0
M  CHG  1   6   1
M  END
>  <UniqueID>  (26) 
24

>  <SMILES>  (26) 
Cc1cc(C)[nH+]c(-n2nc(C)cc2C)n1

>  <Energy>  (26) 
59.84482470520241

>  <Genealogy>  (26) 
Cc1cc(C)[nH+]c(-n2nc(C)cc2C)n1 (protonated)
Cc1cc(C)[nH+]c(-n2nc(C)cc2C)n1 (3D coordinates assigned)
Cc1cc(C)[nH+]c(-n2nc(C)cc2C)n1 (optimized conformer: 59.84482470520241 kcal/mol)

>  <smiles>  (26) 
Cc1cc(C)nc(-n2nc(C)cc2C)n1

>  <score_type>  (26) 
oracle

>  <origin>  (26) 
adg

>  <m_score__min__energy>  (26) 
-5.6500000000000004

>  <m_primary>  (26) 
energy

$$$$
26:0
     RDKit          3D

 47 49  0  0  0  0  0  0  0  0999 V2000
   -2.5720   16.1710  -34.6730 C   0  0  0  0  0  0  0  0  0  0  0  0
   -3.8750   16.6570  -35.2980 C   0  0  0  0  0  0  0  0  0  0  0  0
   -4.8170   17.1430  -34.2410 C   0  0  0  0  0  0  0  0  0  0  0  0
   -4.4060   18.0740  -33.3390 N   0  0  0  0  0  0  0  0  0  0  0  0
   -5.2530   18.5530  -32.3910 C   0  0  0  0  0  0  0  0  0  0  0  0
   -6.5750   18.0960  -32.3390 C   0  0  0  0  0  0  0  0  0  0  0  0
   -7.5230   18.6050  -31.2840 C   0  0  0  0  0  0  0  0  0  0  0  0
   -8.5610   19.4850  -31.8690 N   0  0  0  0  0  0  0  0  0  0  0  0
   -9.1130   20.4300  -30.8650 C   0  0  0  0  0  0  0  0  0  0  0  0
   -8.5050   21.8500  -30.9220 C   0  0  0  0  0  0  0  0  0  0  0  0
   -7.1740   21.8460  -31.5390 N   0  0  0  0  0  0  0  0  0  0  0  0
   -6.1470   22.7300  -31.0510 C   0  0  0  0  0  0  0  0  0  0  0  0
   -6.4750   24.0220  -30.6090 C   0  0  0  0  0  0  0  0  0  0  0  0
   -5.4810   24.8830  -30.1350 C   0  0  0  0  0  0  0  0  0  0  0  0
   -4.1380   24.4630  -30.0940 C   0  0  0  0  0  0  0  0  0  0  0  0
   -3.1050   25.2880  -29.6250 O   0  0  0  0  0  0  0  0  0  0  0  0
   -2.1890   24.9250  -28.5980 C   0  0  0  0  0  0  0  0  0  0  0  0
   -3.8130   23.1760  -30.5360 C   0  0  0  0  0  0  0  0  0  0  0  0
   -4.8060   22.3160  -31.0120 C   0  0  0  0  0  0  0  0  0  0  0  0
   -6.9770   21.1600  -32.8210 C   0  0  0  0  0  0  0  0  0  0  0  0
   -8.1250   20.1800  -33.1000 C   0  0  0  0  0  0  0  0  0  0  0  0
   -6.9810   17.1450  -33.2830 C   0  0  0  0  0  0  0  0  0  0  0  0
   -6.0990   16.6940  -34.2130 N   0  0  0  0  0  0  0  0  0  0  0  0
   -2.6570   16.2027  -33.5767 H   0  0  0  0  0  0  0  0  0  0  0  0
   -2.3734   15.1383  -34.9957 H   0  0  0  0  0  0  0  0  0  0  0  0
   -1.7456   16.8214  -34.9957 H   0  0  0  0  0  0  0  0  0  0  0  0
   -3.6570   17.4802  -35.9943 H   0  0  0  0  0  0  0  0  0  0  0  0
   -4.3452   15.8196  -35.8343 H   0  0  0  0  0  0  0  0  0  0  0  0
   -4.9000   19.2997  -31.6645 H   0  0  0  0  0  0  0  0  0  0  0  0
   -8.0126   17.7476  -30.7991 H   0  0  0  0  0  0  0  0  0  0  0  0
   -6.9455   19.1897  -30.5528 H   0  0  0  0  0  0  0  0  0  0  0  0
  -10.1973   20.5132  -31.0307 H   0  0  0  0  0  0  0  0  0  0  0  0
   -8.8603   20.0200  -29.8761 H   0  0  0  0  0  0  0  0  0  0  0  0
   -9.1693   22.4988  -31.5117 H   0  0  0  0  0  0  0  0  0  0  0  0
   -8.4042   22.2215  -29.8915 H   0  0  0  0  0  0  0  0  0  0  0  0
   -7.5218   24.3589  -30.6360 H   0  0  0  0  0  0  0  0  0  0  0  0
   -5.7494   25.8933  -29.7925 H   0  0  0  0  0  0  0  0  0  0  0  0
   -2.6487   25.1072  -27.6154 H   0  0  0  0  0  0  0  0  0  0  0  0
   -1.9360   23.8587  -28.6924 H   0  0  0  0  0  0  0  0  0  0  0  0
   -1.2743   25.5286  -28.6924 H   0  0  0  0  0  0  0  0  0  0  0  0
   -2.7665   22.8382  -30.5085 H   0  0  0  0  0  0  0  0  0  0  0  0
   -4.5353   21.3077  -31.3585 H   0  0  0  0  0  0  0  0  0  0  0  0
   -6.9376   21.9074  -33.6271 H   0  0  0  0  0  0  0  0  0  0  0  0
   -6.0349   20.5939  -32.7755 H   0  0  0  0  0  0  0  0  0  0  0  0
   -8.9771   20.7378  -33.5155 H   0  0  0  0  0  0  0  0  0  0  0  0
   -7.7649   19.4232  -33.8124 H   0  0  0  0  0  0  0  0  0  0  0  0
   -8.0127   16.7635  -33.2718 H   0  0  0  0  0  0  0  0  0  0  0  0
  1  2  1  0
  2  3  1  0
  3  4  2  0
  4  5  1  0
  5  6  2  0
  6  7  1  0
  7  8  1  0
  8  9  1  0
  9 10  1  0
 10 11  1  0
 11 12  1  0
 12 13  2  0
 13 14  1  0
 14 15  2  0
 15 16  1  0
 16 17  1  0
 15 18  1  0
 18 19  2  0
 11 20  1  0
 20 21  1  0
  6 22  1  0
 22 23  2  0
 23  3  1  0
 21  8  1  0
 19 12  1  0
  1 24  1  0
  1 25  1  0
  1 26  1  0
  2 27  1  0
  2 28  1  0
  5 29  1  0
  7 30  1  0
  7 31  1  0
  9 32  1  0
  9 33  1  0
 10 34  1  0
 10 35  1  0
 13 36  1  0
 14 37  1  0
 17 38  1  0
 17 39  1  0
 17 40  1  0
 18 41  1  0
 19 42  1  0
 20 43  1  0
 20 44  1  0
 21 45  1  0
 21 46  1  0
 22 47  1  0
M  END
>  <UniqueID>  (27) 
25

>  <SMILES>  (27) 
CCc1ncc(CN2CCN(c3ccc(OC)cc3)CC2)cn1

>  <Energy>  (27) 
56.99190311347142

>  <Genealogy>  (27) 
CCc1ncc(CN2CCN(c3ccc(OC)cc3)CC2)cn1 (3D coordinates assigned)
CCc1ncc(CN2CCN(c3ccc(OC)cc3)CC2)cn1 (nonaromatic ring conformer: 56.99190311347142 kcal/mol)

>  <smiles>  (27) 
CCc1ncc(CN2CCN(c3ccc(OC)cc3)CC2)cn1

>  <score_type>  (27) 
oracle

>  <origin>  (27) 
adg

>  <m_score__min__energy>  (27) 
-7.6200000000000001

>  <m_primary>  (27) 
energy

$$$$
27:0
     RDKit          3D

 28 29  0  0  0  0  0  0  0  0999 V2000
   -8.6520   19.8070  -33.8710 H   0  0  0  0  0  0  0  0  0  0  0  0
   -8.4790   20.4150  -33.0800 O   0  0  0  0  0  0  0  0  0  0  0  0
   -7.1900   20.7890  -32.6970 C   0  0  0  0  0  0  0  0  0  0  0  0
   -7.0390   21.7550  -31.6970 C   0  0  0  0  0  0  0  0  0  0  0  0
   -7.9305   22.2126  -31.2433 H   0  0  0  0  0  0  0  0  0  0  0  0
   -5.7640   22.1460  -31.2670 C   0  0  0  0  0  0  0  0  0  0  0  0
   -5.6450   23.1950  -30.2330 C   0  0  0  0  0  0  0  0  0  0  0  0
   -6.5704   23.6560  -29.8573 H   0  0  0  0  0  0  0  0  0  0  0  0
   -4.4770   23.6210  -29.7230 C   0  0  0  0  0  0  0  0  0  0  0  0
   -3.5620   22.7890  -28.4140 S   0  0  0  0  0  0  0  0  0  0  0  0
   -2.4250   24.1790  -28.4150 C   0  0  0  0  0  0  0  0  0  0  0  0
   -1.0190   24.1360  -27.5870 S   0  0  0  0  0  0  0  0  0  0  0  0
   -2.6960   25.2130  -29.3530 N   0  0  0  0  0  0  0  0  0  0  0  0
   -3.8680   24.8990  -30.0810 C   0  0  0  0  0  0  0  0  0  0  0  0
   -4.3260   25.6730  -30.9630 O   0  0  0  0  0  0  0  0  0  0  0  0
   -4.6340   21.5920  -31.8860 C   0  0  0  0  0  0  0  0  0  0  0  0
   -3.6288   21.9198  -31.5826 H   0  0  0  0  0  0  0  0  0  0  0  0
   -4.7770   20.6270  -32.8850 C   0  0  0  0  0  0  0  0  0  0  0  0
   -3.8827   20.1866  -33.3501 H   0  0  0  0  0  0  0  0  0  0  0  0
   -6.0570   20.2130  -33.3020 C   0  0  0  0  0  0  0  0  0  0  0  0
   -6.2460   19.2390  -34.2990 O   0  0  0  0  0  0  0  0  0  0  0  0
   -6.0550   17.8330  -34.1390 C   0  0  0  0  0  0  0  0  0  0  0  0
   -4.9797   17.6242  -34.0383 H   0  0  0  0  0  0  0  0  0  0  0  0
   -6.4637   17.3189  -35.0214 H   0  0  0  0  0  0  0  0  0  0  0  0
   -6.7810   17.3260  -32.8980 C   0  0  0  0  0  0  0  0  0  0  0  0
   -6.2635   17.6874  -31.9971 H   0  0  0  0  0  0  0  0  0  0  0  0
   -7.8159   17.6987  -32.9007 H   0  0  0  0  0  0  0  0  0  0  0  0
   -6.7874   16.2260  -32.9007 H   0  0  0  0  0  0  0  0  0  0  0  0
  1  2  1  0
  2  3  1  0
  3  4  2  0
  4  5  1  0
  4  6  1  0
  6  7  1  0
  7  8  1  0
  7  9  2  0
  9 10  1  0
 10 11  1  0
 11 12  2  0
 11 13  1  0
 13 14  1  0
 14 15  2  0
  6 16  2  0
 16 17  1  0
 16 18  1  0
 18 19  1  0
 18 20  2  0
 20 21  1  0
 21 22  1  0
 22 23  1  0
 22 24  1  0
 22 25  1  0
 25 26  1  0
 25 27  1  0
 25 28  1  0
 20  3  1  0
 14  9  1  0
M  CHG  1  13  -1
M  END
>  <UniqueID>  (28) 
26

>  <SMILES>  (28) 
CCOc1ccc(/C=C2\SC(=S)[N-]C2=O)cc1O

>  <Energy>  (28) 
50.52430543088294

>  <Genealogy>  (28) 
CCOc1ccc(C=C2SC(=S)[N-]C2=O)cc1O (protonated)
CCOc1ccc(/C=C2\SC(=S)[N-]C2=O)cc1O (cis-trans isomerization)
CCOc1ccc(/C=C2\SC(=S)[N-]C2=O)cc1O (3D coordinates assigned)
CCOc1ccc(/C=C2\SC(=S)[N-]C2=O)cc1O (nonaromatic ring conformer: 50.52430543088294 kcal/mol)

>  <smiles>  (28) 
CCOc1ccc(C=C2SC(=S)NC2=O)cc1O

>  <score_type>  (28) 
oracle

>  <origin>  (28) 
adg

>  <m_score__min__energy>  (28) 
-8.4600000000000009

>  <m_primary>  (28) 
energy

$$$$
28:0
     RDKit          3D

 46 49  0  0  1  0  0  0  0  0999 V2000
   -6.8100   24.5870  -30.1020 C   0  0  0  0  0  0  0  0  0  0  0  0
   -5.7940   25.6650  -30.4150 C   0  0  0  0  0  0  0  0  0  0  0  0
   -4.6460   25.0760  -31.0410 N   0  0  0  0  0  0  0  0  0  0  0  0
   -3.8140   24.4180  -30.3050 C   0  0  0  0  0  0  0  0  0  0  0  0
   -3.0060   25.0240  -29.4050 N   0  0  0  0  0  0  0  0  0  0  0  0
   -2.1360   24.3490  -28.6330 C   0  0  0  0  0  0  0  0  0  0  0  0
   -1.2800   24.9700  -27.6850 N   0  0  0  0  0  0  0  0  0  0  0  0
   -0.7940   24.3470  -26.4890 C   0  0  0  0  0  0  0  0  0  0  0  0
   -0.9360   25.3280  -25.3360 C   0  0  0  0  0  0  0  0  0  0  0  0
   -0.2460   26.4950  -25.6210 O   0  0  0  0  0  0  0  0  0  0  0  0
   -0.8410   27.1740  -26.6840 C   0  0  0  0  0  0  0  0  0  0  0  0
   -0.8560   26.3430  -27.9430 C   0  0  0  0  0  0  0  0  0  0  0  0
   -2.1060   23.0090  -28.8000 N   0  0  0  0  0  0  0  0  0  0  0  0
   -2.8840   22.3550  -29.6760 C   0  0  0  0  0  0  0  0  0  0  0  0
   -2.7880   20.9900  -29.7820 C   0  0  0  0  0  0  0  0  0  0  0  0
   -3.5780   20.3600  -30.6660 N   0  0  0  0  0  0  0  0  0  0  0  0
   -4.4670   21.0190  -31.4600 C   0  0  0  0  0  0  0  0  0  0  0  0
   -5.2480   20.2360  -32.3590 N   0  0  0  0  0  0  0  0  0  0  0  0
   -6.5920   20.2390  -32.4840 C   0  0  0  0  0  0  0  0  0  0  0  0
   -6.9180   19.3250  -33.4760 C   0  0  0  0  0  0  0  0  0  0  0  0
   -5.7380   18.7780  -33.9380 C   0  0  0  0  0  0  0  0  0  0  0  0
   -5.5610   17.7420  -35.0100 C   0  0  0  0  0  0  0  0  0  0  0  0
   -4.7500   19.3600  -33.2320 N   0  0  0  0  0  0  0  0  0  0  0  0
   -4.5700   22.3780  -31.3640 C   0  0  0  0  0  0  0  0  0  0  0  0
   -3.7730   23.0590  -30.4640 C   0  0  0  0  0  0  0  0  0  0  0  0
   -6.9090   24.4820  -29.0115 H   0  0  0  0  0  0  0  0  0  0  0  0
   -7.7832   24.8639  -30.5335 H   0  0  0  0  0  0  0  0  0  0  0  0
   -6.4760   23.6319  -30.5335 H   0  0  0  0  0  0  0  0  0  0  0  0
   -6.2425   26.4047  -31.0945 H   0  0  0  0  0  0  0  0  0  0  0  0
   -5.4877   26.1607  -29.4820 H   0  0  0  0  0  0  0  0  0  0  0  0
   -3.0900   26.0520  -29.3360 H   0  0  0  0  0  0  0  0  0  0  0  0
   -1.3813   23.4410  -26.2786 H   0  0  0  0  0  0  0  0  0  0  0  0
    0.2623   24.0670  -26.6149 H   0  0  0  0  0  0  0  0  0  0  0  0
   -2.0003   25.5614  -25.1849 H   0  0  0  0  0  0  0  0  0  0  0  0
   -0.5207   24.8760  -24.4232 H   0  0  0  0  0  0  0  0  0  0  0  0
   -1.8766   27.4249  -26.4109 H   0  0  0  0  0  0  0  0  0  0  0  0
   -0.2524   28.0821  -26.8813 H   0  0  0  0  0  0  0  0  0  0  0  0
   -1.5510   26.8004  -28.6626 H   0  0  0  0  0  0  0  0  0  0  0  0
    0.1679   26.3136  -28.3438 H   0  0  0  0  0  0  0  0  0  0  0  0
   -2.0803   20.4253  -29.1572 H   0  0  0  0  0  0  0  0  0  0  0  0
   -7.2986   20.8528  -31.9061 H   0  0  0  0  0  0  0  0  0  0  0  0
   -7.9308   19.0812  -33.8293 H   0  0  0  0  0  0  0  0  0  0  0  0
   -5.3931   16.7590  -34.5458 H   0  0  0  0  0  0  0  0  0  0  0  0
   -6.4654   17.7027  -35.6348 H   0  0  0  0  0  0  0  0  0  0  0  0
   -4.6948   18.0052  -35.6348 H   0  0  0  0  0  0  0  0  0  0  0  0
   -5.2822   22.9259  -31.9985 H   0  0  0  0  0  0  0  0  0  0  0  0
  1  2  1  0
  2  3  1  0
  3  4  2  0
  4  5  1  0
  5  6  1  0
  6  7  1  0
  7  8  1  0
  8  9  1  0
  9 10  1  0
 10 11  1  0
 11 12  1  0
  6 13  2  0
 13 14  1  0
 14 15  2  0
 15 16  1  0
 16 17  2  0
 17 18  1  0
 18 19  1  0
 19 20  2  0
 20 21  1  0
 21 22  1  0
 21 23  2  0
 17 24  1  0
 24 25  2  0
 25  4  1  0
 12  7  1  0
 25 14  1  0
 23 18  1  0
  1 26  1  0
  1 27  1  0
  1 28  1  0
  2 29  1  0
  2 30  1  0
  5 31  1  0
  8 32  1  0
  8 33  1  0
  9 34  1  0
  9 35  1  0
 11 36  1  0
 11 37  1  0
 12 38  1  0
 12 39  1  0
 15 40  1  0
 19 41  1  0
 20 42  1  0
 22 43  1  0
 22 44  1  0
 22 45  1  0
 24 46  1  0
M  END
>  <smiles>  (29) 
CCN=c1[nH]c(N2CCOCC2)nc2cnc(-n3ccc(C)n3)cc12

>  <score_type>  (29) 
oracle

>  <origin>  (29) 
adg

>  <m_score__min__energy>  (29) 
-7.7199999999999998

>  <m_primary>  (29) 
energy

$$$$
29:0
     RDKit          3D

 33 34  0  0  0  0  0  0  0  0999 V2000
   -5.5190   25.5740  -30.3160 C   0  0  0  0  0  0  0  0  0  0  0  0
   -4.2740   25.1240  -30.8400 O   0  0  0  0  0  0  0  0  0  0  0  0
   -3.8140   23.7990  -30.7790 C   0  0  0  0  0  0  0  0  0  0  0  0
   -2.7090   23.4360  -29.9830 C   0  0  0  0  0  0  0  0  0  0  0  0
   -2.2770   22.1090  -29.9340 C   0  0  0  0  0  0  0  0  0  0  0  0
   -2.9350   21.1320  -30.6790 C   0  0  0  0  0  0  0  0  0  0  0  0
   -4.0290   21.4770  -31.4740 C   0  0  0  0  0  0  0  0  0  0  0  0
   -4.4850   22.8080  -31.5280 C   0  0  0  0  0  0  0  0  0  0  0  0
   -5.6170   23.1740  -32.3420 N   0  0  0  0  0  0  0  0  0  0  0  0
   -7.2660   22.9020  -31.8690 S   0  0  0  0  0  0  0  0  0  0  0  0
   -7.4350   23.2790  -30.4250 O   0  0  0  0  0  0  0  0  0  0  0  0
   -8.1670   23.7630  -32.7090 O   0  0  0  0  0  0  0  0  0  0  0  0
   -7.6740   21.2000  -32.0590 C   0  0  0  0  0  0  0  0  0  0  0  0
   -8.7840   20.6590  -31.3970 C   0  0  0  0  0  0  0  0  0  0  0  0
   -9.1100   19.3110  -31.5640 C   0  0  0  0  0  0  0  0  0  0  0  0
   -8.3330   18.4960  -32.3910 C   0  0  0  0  0  0  0  0  0  0  0  0
   -7.2130   19.0220  -33.0600 C   0  0  0  0  0  0  0  0  0  0  0  0
   -6.4140   18.1820  -33.9130 N   0  0  0  0  0  0  0  0  0  0  0  0
   -6.3020   16.9600  -33.6810 O   0  0  0  0  0  0  0  0  0  0  0  0
   -5.7530   18.7130  -34.9970 O   0  0  0  0  0  0  0  0  0  0  0  0
   -6.8890   20.3800  -32.8820 C   0  0  0  0  0  0  0  0  0  0  0  0
   -5.4807   25.5601  -29.2168 H   0  0  0  0  0  0  0  0  0  0  0  0
   -5.7138   26.5994  -30.6632 H   0  0  0  0  0  0  0  0  0  0  0  0
   -6.3244   24.9101  -30.6632 H   0  0  0  0  0  0  0  0  0  0  0  0
   -2.1831   24.2035  -29.3961 H   0  0  0  0  0  0  0  0  0  0  0  0
   -1.4162   21.8344  -29.3066 H   0  0  0  0  0  0  0  0  0  0  0  0
   -2.5916   20.0877  -30.6404 H   0  0  0  0  0  0  0  0  0  0  0  0
   -4.5398   20.7017  -32.0640 H   0  0  0  0  0  0  0  0  0  0  0  0
   -5.4690   23.7260  -33.2150 H   0  0  0  0  0  0  0  0  0  0  0  0
   -9.3994   21.2964  -30.7451 H   0  0  0  0  0  0  0  0  0  0  0  0
   -9.9819   18.8895  -31.0423 H   0  0  0  0  0  0  0  0  0  0  0  0
   -8.5987   17.4364  -32.5198 H   0  0  0  0  0  0  0  0  0  0  0  0
   -6.0114   20.8022  -33.3935 H   0  0  0  0  0  0  0  0  0  0  0  0
  1  2  1  0
  2  3  1  0
  3  4  2  0
  4  5  1  0
  5  6  2  0
  6  7  1  0
  7  8  2  0
  8  9  1  0
  9 10  1  0
 10 11  2  0
 10 12  2  0
 10 13  1  0
 13 14  2  0
 14 15  1  0
 15 16  2  0
 16 17  1  0
 17 18  1  0
 18 19  2  0
 18 20  1  0
 17 21  2  0
  8  3  1  0
 21 13  1  0
  1 22  1  0
  1 23  1  0
  1 24  1  0
  4 25  1  0
  5 26  1  0
  6 27  1  0
  7 28  1  0
  9 29  1  0
 14 30  1  0
 15 31  1  0
 16 32  1  0
 21 33  1  0
M  CHG  2  18   1  20  -1
M  END
>  <UniqueID>  (30) 
27

>  <SMILES>  (30) 
COc1ccccc1NS(=O)(=O)c1cccc([N+](=O)[O-])c1

>  <Energy>  (30) 
37.486659718940594

>  <Genealogy>  (30) 
COc1ccccc1NS(=O)(=O)c1cccc([N+](=O)[O-])c1 (3D coordinates assigned)
COc1ccccc1NS(=O)(=O)c1cccc([N+](=O)[O-])c1 (optimized conformer: 37.486659718940594 kcal/mol)

>  <smiles>  (30) 
COc1ccccc1NS(=O)(=O)c1cccc([N+](=O)[O-])c1

>  <score_type>  (30) 
oracle

>  <origin>  (30) 
adg

>  <m_score__min__energy>  (30) 
-8.2799999999999994

>  <m_primary>  (30) 
energy

$$$$
30:0
     RDKit          3D

 20 21  0  0  0  0  0  0  0  0999 V2000
   -8.3520   18.9720  -32.3260 C   0  0  0  0  0  0  0  0  0  0  0  0
   -7.6360   20.0060  -32.9940 O   0  0  0  0  0  0  0  0  0  0  0  0
   -7.2200   21.2000  -32.3860 C   0  0  0  0  0  0  0  0  0  0  0  0
   -5.8510   21.5520  -32.2790 C   0  0  0  0  0  0  0  0  0  0  0  0
   -5.5300   22.7580  -31.6590 C   0  0  0  0  0  0  0  0  0  0  0  0
   -4.3050   23.2700  -31.4580 N   0  0  0  0  0  0  0  0  0  0  0  0
   -4.5130   24.4460  -30.8250 C   0  0  0  0  0  0  0  0  0  0  0  0
   -3.4870   25.2960  -30.4340 O   0  0  0  0  0  0  0  0  0  0  0  0
   -5.8640   24.6900  -30.6190 C   0  0  0  0  0  0  0  0  0  0  0  0
   -6.4970   23.5930  -31.1630 C   0  0  0  0  0  0  0  0  0  0  0  0
   -7.8510   23.2830  -31.2500 C   0  0  0  0  0  0  0  0  0  0  0  0
   -8.2090   22.0720  -31.8700 C   0  0  0  0  0  0  0  0  0  0  0  0
   -9.5210   21.7390  -31.9720 F   0  0  0  0  0  0  0  0  0  0  0  0
   -8.2594   19.1057  -31.2381 H   0  0  0  0  0  0  0  0  0  0  0  0
   -9.4132   19.0171  -32.6120 H   0  0  0  0  0  0  0  0  0  0  0  0
   -7.9364   17.9945  -32.6120 H   0  0  0  0  0  0  0  0  0  0  0  0
   -5.0646   20.8921  -32.6741 H   0  0  0  0  0  0  0  0  0  0  0  0
   -3.3870   22.8520  -31.7300 H   0  0  0  0  0  0  0  0  0  0  0  0
   -6.3251   25.5618  -30.1318 H   0  0  0  0  0  0  0  0  0  0  0  0
   -8.6163   23.9627  -30.8471 H   0  0  0  0  0  0  0  0  0  0  0  0
  1  2  1  0
  2  3  1  0
  3  4  2  0
  4  5  1  0
  5  6  1  0
  6  7  1  0
  7  8  1  0
  7  9  2  0
  9 10  1  0
 10 11  1  0
 11 12  2  0
 12 13  1  0
 12  3  1  0
 10  5  2  0
  1 14  1  0
  1 15  1  0
  1 16  1  0
  4 17  1  0
  6 18  1  0
  9 19  1  0
 11 20  1  0
M  CHG  1   8  -1
M  END
>  <UniqueID>  (31) 
28

>  <SMILES>  (31) 
COc1cc2[nH]c([O-])cc2cc1F

>  <Energy>  (31) 
53.276485612495314

>  <Genealogy>  (31) 
COc1cc2[nH]c([O-])cc2cc1F (protonated)
COc1cc2[nH]c([O-])cc2cc1F (3D coordinates assigned)
COc1cc2[nH]c([O-])cc2cc1F (optimized conformer: 53.276485612495314 kcal/mol)

>  <smiles>  (31) 
COc1cc2[nH]c(O)cc2cc1F

>  <score_type>  (31) 
oracle

>  <origin>  (31) 
adg

>  <m_score__min__energy>  (31) 
-8.1600000000000001

>  <m_primary>  (31) 
energy

$$$$
31:0
     RDKit          3D

 42 44  0  0  0  0  0  0  0  0999 V2000
   -8.1960   19.2240  -32.2300 C   0  0  0  0  0  0  0  0  0  0  0  0
   -7.3320   19.8370  -33.1810 O   0  0  0  0  0  0  0  0  0  0  0  0
   -6.1280   19.2800  -33.6410 C   0  0  0  0  0  0  0  0  0  0  0  0
   -6.1040   18.2650  -34.6200 C   0  0  0  0  0  0  0  0  0  0  0  0
   -4.8880   17.7550  -35.0790 C   0  0  0  0  0  0  0  0  0  0  0  0
   -3.6850   18.2480  -34.5720 C   0  0  0  0  0  0  0  0  0  0  0  0
   -3.6950   19.2490  -33.5990 C   0  0  0  0  0  0  0  0  0  0  0  0
   -4.9110   19.7650  -33.1210 C   0  0  0  0  0  0  0  0  0  0  0  0
   -4.9020   20.7850  -32.1080 N   0  0  0  0  0  0  0  0  0  0  0  0
   -4.2680   20.5100  -30.8120 C   0  0  0  0  0  0  0  0  0  0  0  0
   -3.6360   21.7880  -30.2490 C   0  0  0  0  0  0  0  0  0  0  0  0
   -4.5390   22.9440  -30.3760 N   0  0  0  0  0  0  0  0  0  0  0  0
   -4.0460   24.2640  -30.0800 C   0  0  0  0  0  0  0  0  0  0  0  0
   -4.2260   25.1920  -30.9130 O   0  0  0  0  0  0  0  0  0  0  0  0
   -3.3280   24.5510  -28.8180 C   0  0  0  0  0  0  0  0  0  0  0  0
   -1.9610   24.8800  -28.8410 C   0  0  0  0  0  0  0  0  0  0  0  0
   -1.2840   25.1660  -27.6520 C   0  0  0  0  0  0  0  0  0  0  0  0
   -1.9660   25.1370  -26.4320 C   0  0  0  0  0  0  0  0  0  0  0  0
   -1.3060   25.4170  -25.2800 F   0  0  0  0  0  0  0  0  0  0  0  0
   -3.3280   24.8280  -26.4010 C   0  0  0  0  0  0  0  0  0  0  0  0
   -4.0090   24.5410  -27.5880 C   0  0  0  0  0  0  0  0  0  0  0  0
   -5.8630   22.7770  -30.9870 C   0  0  0  0  0  0  0  0  0  0  0  0
   -5.7350   21.9840  -32.2910 C   0  0  0  0  0  0  0  0  0  0  0  0
   -7.8535   19.4670  -31.2133 H   0  0  0  0  0  0  0  0  0  0  0  0
   -9.2208   19.5982  -32.3709 H   0  0  0  0  0  0  0  0  0  0  0  0
   -8.1813   18.1332  -32.3709 H   0  0  0  0  0  0  0  0  0  0  0  0
   -7.0489   17.8729  -35.0243 H   0  0  0  0  0  0  0  0  0  0  0  0
   -4.8783   16.9627  -35.8420 H   0  0  0  0  0  0  0  0  0  0  0  0
   -2.7285   17.8477  -34.9392 H   0  0  0  0  0  0  0  0  0  0  0  0
   -2.7443   19.6363  -33.2039 H   0  0  0  0  0  0  0  0  0  0  0  0
   -5.0273   20.1396  -30.1076 H   0  0  0  0  0  0  0  0  0  0  0  0
   -3.4824   19.7526  -30.9507 H   0  0  0  0  0  0  0  0  0  0  0  0
   -3.4040   21.6321  -29.1851 H   0  0  0  0  0  0  0  0  0  0  0  0
   -2.7231   22.0012  -30.8245 H   0  0  0  0  0  0  0  0  0  0  0  0
   -1.4219   24.9124  -29.7993 H   0  0  0  0  0  0  0  0  0  0  0  0
   -0.2127   25.4143  -27.6763 H   0  0  0  0  0  0  0  0  0  0  0  0
   -3.8655   24.8104  -25.4414 H   0  0  0  0  0  0  0  0  0  0  0  0
   -5.0833   24.3061  -27.5593 H   0  0  0  0  0  0  0  0  0  0  0  0
   -6.5203   22.2338  -30.2920 H   0  0  0  0  0  0  0  0  0  0  0  0
   -6.2910   23.7669  -31.2038 H   0  0  0  0  0  0  0  0  0  0  0  0
   -6.7375   21.6765  -32.6233 H   0  0  0  0  0  0  0  0  0  0  0  0
   -5.2561   22.6279  -33.0434 H   0  0  0  0  0  0  0  0  0  0  0  0
  1  2  1  0
  2  3  1  0
  3  4  2  0
  4  5  1  0
  5  6  2  0
  6  7  1  0
  7  8  2  0
  8  9  1  0
  9 10  1  0
 10 11  1  0
 11 12  1  0
 12 13  1  0
 13 14  2  0
 13 15  1  0
 15 16  2  0
 16 17  1  0
 17 18  2  0
 18 19  1  0
 18 20  1  0
 20 21  2  0
 12 22  1  0
 22 23  1  0
  8  3  1  0
 23  9  1  0
 21 15  1  0
  1 24  1  0
  1 25  1  0
  1 26  1  0
  4 27  1  0
  5 28  1  0
  6 29  1  0
  7 30  1  0
 10 31  1  0
 10 32  1  0
 11 33  1  0
 11 34  1  0
 16 35  1  0
 17 36  1  0
 20 37  1  0
 21 38  1  0
 22 39  1  0
 22 40  1  0
 23 41  1  0
 23 42  1  0
M  END
>  <UniqueID>  (32) 
29

>  <SMILES>  (32) 
COc1ccccc1N1CCN(C(=O)c2ccc(F)cc2)CC1

>  <Energy>  (32) 
53.717727136142855

>  <Genealogy>  (32) 
COc1ccccc1N1CCN(C(=O)c2ccc(F)cc2)CC1 (3D coordinates assigned)
COc1ccccc1N1CCN(C(=O)c2ccc(F)cc2)CC1 (nonaromatic ring conformer: 53.717727136142855 kcal/mol)

>  <smiles>  (32) 
COc1ccccc1N1CCN(C(=O)c2ccc(F)cc2)CC1

>  <score_type>  (32) 
oracle

>  <origin>  (32) 
adg

>  <m_score__min__energy>  (32) 
-7.04

>  <m_primary>  (32) 
energy

$$$$
32:0
     RDKit          3D

 43 45  0  0  0  0  0  0  0  0999 V2000
    1.7290   24.3260  -27.1200 C   0  0  0  0  0  0  0  0  0  0  0  0
    0.9180   24.7440  -28.2100 O   0  0  0  0  0  0  0  0  0  0  0  0
   -0.4680   24.5610  -28.2330 C   0  0  0  0  0  0  0  0  0  0  0  0
   -1.2410   25.0210  -27.1680 C   0  0  0  0  0  0  0  0  0  0  0  0
   -2.6240   24.8230  -27.2110 C   0  0  0  0  0  0  0  0  0  0  0  0
   -3.4930   25.3020  -26.0910 C   0  0  0  0  0  0  0  0  0  0  0  0
   -3.1820   24.2000  -28.2830 N   0  0  0  0  0  0  0  0  0  0  0  0
   -2.4200   23.7560  -29.3210 C   0  0  0  0  0  0  0  0  0  0  0  0
   -3.0300   23.0940  -30.4480 N   0  0  0  0  0  0  0  0  0  0  0  0
   -2.2270   22.2730  -31.3660 C   0  0  0  0  0  0  0  0  0  0  0  0
   -2.9980   21.0130  -31.7730 C   0  0  0  0  0  0  0  0  0  0  0  0
   -4.3840   21.3180  -32.1570 N   0  0  0  0  0  0  0  0  0  0  0  0
   -5.1290   20.3400  -32.9040 C   0  0  0  0  0  0  0  0  0  0  0  0
   -4.5640   19.7000  -33.8300 O   0  0  0  0  0  0  0  0  0  0  0  0
   -6.5520   20.0820  -32.6290 C   0  0  0  0  0  0  0  0  0  0  0  0
   -7.4380   21.0560  -32.3360 N   0  0  0  0  0  0  0  0  0  0  0  0
   -8.6230   20.4820  -32.1920 N   0  0  0  0  0  0  0  0  0  0  0  0
   -9.8560   21.2190  -31.9470 C   0  0  0  0  0  0  0  0  0  0  0  0
   -8.5310   19.1600  -32.4230 C   0  0  0  0  0  0  0  0  0  0  0  0
   -7.2150   18.8660  -32.7000 C   0  0  0  0  0  0  0  0  0  0  0  0
   -6.5930   17.3150  -33.2290 Cl  0  0  0  0  0  0  0  0  0  0  0  0
   -4.8940   22.6930  -32.0540 C   0  0  0  0  0  0  0  0  0  0  0  0
   -4.4510   23.3400  -30.7370 C   0  0  0  0  0  0  0  0  0  0  0  0
   -1.0720   23.9410  -29.2840 N   0  0  0  0  0  0  0  0  0  0  0  0
    1.2313   24.5825  -26.1732 H   0  0  0  0  0  0  0  0  0  0  0  0
    1.8802   23.2377  -27.1717 H   0  0  0  0  0  0  0  0  0  0  0  0
    2.7031   24.8343  -27.1717 H   0  0  0  0  0  0  0  0  0  0  0  0
   -0.7726   25.5289  -26.3121 H   0  0  0  0  0  0  0  0  0  0  0  0
   -3.0261   25.0446  -25.1288 H   0  0  0  0  0  0  0  0  0  0  0  0
   -3.6123   26.3933  -26.1604 H   0  0  0  0  0  0  0  0  0  0  0  0
   -4.4794   24.8202  -26.1604 H   0  0  0  0  0  0  0  0  0  0  0  0
   -1.9925   22.8604  -32.2660 H   0  0  0  0  0  0  0  0  0  0  0  0
   -1.2994   21.9734  -30.8564 H   0  0  0  0  0  0  0  0  0  0  0  0
   -2.4874   20.5441  -32.6271 H   0  0  0  0  0  0  0  0  0  0  0  0
   -3.0256   20.3357  -30.9067 H   0  0  0  0  0  0  0  0  0  0  0  0
  -10.0166   21.3150  -30.8630 H   0  0  0  0  0  0  0  0  0  0  0  0
   -9.7803   22.2201  -32.3965 H   0  0  0  0  0  0  0  0  0  0  0  0
  -10.7019   20.6783  -32.3965 H   0  0  0  0  0  0  0  0  0  0  0  0
   -9.3620   18.4398  -32.3954 H   0  0  0  0  0  0  0  0  0  0  0  0
   -4.5059   23.2857  -32.8955 H   0  0  0  0  0  0  0  0  0  0  0  0
   -5.9933   22.6645  -32.0809 H   0  0  0  0  0  0  0  0  0  0  0  0
   -4.6166   24.4255  -30.8022 H   0  0  0  0  0  0  0  0  0  0  0  0
   -5.0433   22.8930  -29.9250 H   0  0  0  0  0  0  0  0  0  0  0  0
  1  2  1  0
  2  3  1  0
  3  4  2  0
  4  5  1  0
  5  6  1  0
  5  7  2  0
  7  8  1  0
  8  9  1  0
  9 10  1  0
 10 11  1  0
 11 12  1  0
 12 13  1  0
 13 14  2  0
 13 15  1  0
 15 16  2  0
 16 17  1  0
 17 18  1  0
 17 19  1  0
 19 20  2  0
 20 21  1  0
 12 22  1  0
 22 23  1  0
  8 24  2  0
 24  3  1  0
 23  9  1  0
 20 15  1  0
  1 25  1  0
  1 26  1  0
  1 27  1  0
  4 28  1  0
  6 29  1  0
  6 30  1  0
  6 31  1  0
 10 32  1  0
 10 33  1  0
 11 34  1  0
 11 35  1  0
 18 36  1  0
 18 37  1  0
 18 38  1  0
 19 39  1  0
 22 40  1  0
 22 41  1  0
 23 42  1  0
 23 43  1  0
M  END
>  <UniqueID>  (33) 
30

>  <SMILES>  (33) 
COc1cc(C)nc(N2CCN(C(=O)c3nn(C)cc3Cl)CC2)n1

>  <Energy>  (33) 
75.37041528295167

>  <Genealogy>  (33) 
COc1cc(C)nc(N2CCN(C(=O)c3nn(C)cc3Cl)CC2)n1 (3D coordinates assigned)
COc1cc(C)nc(N2CCN(C(=O)c3nn(C)cc3Cl)CC2)n1 (nonaromatic ring conformer: 75.37041528295167 kcal/mol)

>  <smiles>  (33) 
COc1cc(C)nc(N2CCN(C(=O)c3nn(C)cc3Cl)CC2)n1

>  <score_type>  (33) 
oracle

>  <origin>  (33) 
adg

>  <m_score__min__energy>  (33) 
-7.4100000000000001

>  <m_primary>  (33) 
energy

$$$$
33:0
     RDKit          3D

 48 51  0  0  0  0  0  0  0  0999 V2000
   -3.8330   21.7830  -33.4660 C   0  0  0  0  0  0  0  0  0  0  0  0
   -4.8050   20.7800  -33.7370 O   0  0  0  0  0  0  0  0  0  0  0  0
   -4.6490   19.4150  -33.4370 C   0  0  0  0  0  0  0  0  0  0  0  0
   -3.4580   18.7220  -33.7250 C   0  0  0  0  0  0  0  0  0  0  0  0
   -3.3270   17.3690  -33.3930 C   0  0  0  0  0  0  0  0  0  0  0  0
   -2.1050   16.6680  -33.6900 C   0  0  0  0  0  0  0  0  0  0  0  0
   -1.1220   16.1050  -33.9270 N   0  0  0  0  0  0  0  0  0  0  0  0
   -4.3830   16.6980  -32.7690 C   0  0  0  0  0  0  0  0  0  0  0  0
   -5.5710   17.3720  -32.4810 C   0  0  0  0  0  0  0  0  0  0  0  0
   -6.5870   16.6990  -31.8840 F   0  0  0  0  0  0  0  0  0  0  0  0
   -5.7190   18.7270  -32.8260 C   0  0  0  0  0  0  0  0  0  0  0  0
   -6.9840   19.4260  -32.5070 C   0  0  0  0  0  0  0  0  0  0  0  0
   -8.1410   18.9070  -33.0020 N   0  0  0  0  0  0  0  0  0  0  0  0
   -9.3550   19.4540  -32.7400 C   0  0  0  0  0  0  0  0  0  0  0  0
   -9.4560   20.5860  -31.9360 C   0  0  0  0  0  0  0  0  0  0  0  0
   -8.2930   21.1660  -31.4140 C   0  0  0  0  0  0  0  0  0  0  0  0
   -8.3750   22.3130  -30.6120 C   0  0  0  0  0  0  0  0  0  0  0  0
   -7.2160   22.9010  -30.1040 C   0  0  0  0  0  0  0  0  0  0  0  0
   -5.9530   22.3640  -30.3980 C   0  0  0  0  0  0  0  0  0  0  0  0
   -4.7220   22.9890  -29.8530 C   0  0  0  0  0  0  0  0  0  0  0  0
   -4.7700   23.7480  -28.6690 C   0  0  0  0  0  0  0  0  0  0  0  0
   -3.6110   24.3380  -28.1570 C   0  0  0  0  0  0  0  0  0  0  0  0
   -2.3870   24.1740  -28.8140 C   0  0  0  0  0  0  0  0  0  0  0  0
   -0.9310   24.9330  -28.1760 S   0  0  0  0  0  0  0  0  0  0  0  0
   -0.9510   24.8470  -26.4010 C   0  0  0  0  0  0  0  0  0  0  0  0
   -0.8740   26.3710  -28.6100 O   0  0  0  0  0  0  0  0  0  0  0  0
    0.2850   24.2220  -28.7010 O   0  0  0  0  0  0  0  0  0  0  0  0
   -2.3310   23.4280  -29.9980 C   0  0  0  0  0  0  0  0  0  0  0  0
   -3.4880   22.8370  -30.5130 C   0  0  0  0  0  0  0  0  0  0  0  0
   -5.8680   21.2200  -31.2110 C   0  0  0  0  0  0  0  0  0  0  0  0
   -7.0310   20.5960  -31.7070 C   0  0  0  0  0  0  0  0  0  0  0  0
   -3.7200   21.8996  -32.3781 H   0  0  0  0  0  0  0  0  0  0  0  0
   -2.8688   21.4874  -33.9052 H   0  0  0  0  0  0  0  0  0  0  0  0
   -4.1587   22.7375  -33.9052 H   0  0  0  0  0  0  0  0  0  0  0  0
   -2.6248   19.2476  -34.2143 H   0  0  0  0  0  0  0  0  0  0  0  0
   -4.2773   15.6356  -32.5042 H   0  0  0  0  0  0  0  0  0  0  0  0
  -10.2630   19.0010  -33.1647 H   0  0  0  0  0  0  0  0  0  0  0  0
  -10.4412   21.0213  -31.7125 H   0  0  0  0  0  0  0  0  0  0  0  0
   -9.3574   22.7514  -30.3822 H   0  0  0  0  0  0  0  0  0  0  0  0
   -7.2930   23.7943  -29.4668 H   0  0  0  0  0  0  0  0  0  0  0  0
   -5.7270   23.8780  -28.1424 H   0  0  0  0  0  0  0  0  0  0  0  0
   -3.6616   24.9337  -27.2337 H   0  0  0  0  0  0  0  0  0  0  0  0
   -0.7205   25.8381  -25.9833 H   0  0  0  0  0  0  0  0  0  0  0  0
   -1.9472   24.5283  -26.0605 H   0  0  0  0  0  0  0  0  0  0  0  0
   -0.1976   24.1214  -26.0605 H   0  0  0  0  0  0  0  0  0  0  0  0
   -1.3728   23.3068  -30.5245 H   0  0  0  0  0  0  0  0  0  0  0  0
   -3.4340   22.2487  -31.4409 H   0  0  0  0  0  0  0  0  0  0  0  0
   -4.8806   20.8061  -31.4635 H   0  0  0  0  0  0  0  0  0  0  0  0
  1  2  1  0
  2  3  1  0
  3  4  2  0
  4  5  1  0
  5  6  1  0
  6  7  3  0
  5  8  2  0
  8  9  1  0
  9 10  1  0
  9 11  2  0
 11 12  1  0
 12 13  2  0
 13 14  1  0
 14 15  2  0
 15 16  1  0
 16 17  2  0
 17 18  1  0
 18 19  2  0
 19 20  1  0
 20 21  2  0
 21 22  1  0
 22 23  2  0
 23 24  1  0
 24 25  1  0
 24 26  2  0
 24 27  2  0
 23 28  1  0
 28 29  2  0
 19 30  1  0
 30 31  2  0
 11  3  1  0
 31 12  1  0
 31 16  1  0
 29 20  1  0
  1 32  1  0
  1 33  1  0
  1 34  1  0
  4 35  1  0
  8 36  1  0
 14 37  1  0
 15 38  1  0
 17 39  1  0
 18 40  1  0
 21 41  1  0
 22 42  1  0
 25 43  1  0
 25 44  1  0
 25 45  1  0
 28 46  1  0
 29 47  1  0
 30 48  1  0
M  END
>  <UniqueID>  (34) 
31

>  <SMILES>  (34) 
COc1cc(C#N)cc(F)c1-c1nccc2ccc(-c3ccc(S(C)(=O)=O)cc3)cc12

>  <Energy>  (34) 
65.9280289718715

>  <Genealogy>  (34) 
COc1cc(C#N)cc(F)c1-c1nccc2ccc(-c3ccc(S(C)(=O)=O)cc3)cc12 (3D coordinates assigned)
COc1cc(C#N)cc(F)c1-c1nccc2ccc(-c3ccc(S(C)(=O)=O)cc3)cc12 (optimized conformer: 65.9280289718715 kcal/mol)

>  <smiles>  (34) 
COc1cc(C#N)cc(F)c1-c1nccc2ccc(-c3ccc(S(C)(=O)=O)cc3)cc12

>  <score_type>  (34) 
oracle

>  <origin>  (34) 
adg

>  <m_score__min__energy>  (34) 
-9.2699999999999996

>  <m_primary>  (34) 
energy

$$$$
34:0
     RDKit          3D

 44 46  0  0  1  0  0  0  0  0999 V2000
    1.4920   18.6560  -32.1530 C   0  0  0  0  0  0  0  0  0  0  0  0
    0.1820   18.6530  -31.5360 N   0  0  0  0  0  0  0  0  0  0  0  0
   -0.4740   19.7380  -31.3500 C   0  0  0  0  0  0  0  0  0  0  0  0
   -0.0060   20.7480  -30.5840 N   0  0  0  0  0  0  0  0  0  0  0  0
   -0.6800   21.8810  -30.3850 C   0  0  0  0  0  0  0  0  0  0  0  0
   -0.2470   22.9380  -29.6140 O   0  0  0  0  0  0  0  0  0  0  0  0
   -0.7520   23.1310  -28.3030 C   0  0  0  0  0  0  0  0  0  0  0  0
   -2.0160   23.9460  -28.2650 C   0  0  0  0  0  0  0  0  0  0  0  0
   -2.2830   24.5380  -29.5840 N   0  0  0  0  0  0  0  0  0  0  0  0
   -1.8960   22.0170  -30.9850 N   0  0  0  0  0  0  0  0  0  0  0  0
   -2.4200   21.0510  -31.7580 C   0  0  0  0  0  0  0  0  0  0  0  0
   -1.7130   19.8850  -31.9580 C   0  0  0  0  0  0  0  0  0  0  0  0
   -2.4730   19.1120  -32.7640 N   0  0  0  0  0  0  0  0  0  0  0  0
   -3.6240   19.7840  -33.0580 C   0  0  0  0  0  0  0  0  0  0  0  0
   -3.5850   20.9930  -32.4290 N   0  0  0  0  0  0  0  0  0  0  0  0
   -4.5830   22.0260  -32.4570 C   0  0  2  0  0  0  0  0  0  0  0  0
   -4.2330   23.1250  -31.6610 O   0  0  0  0  0  0  0  0  0  0  0  0
   -5.4400   23.8010  -31.6060 C   0  0  2  0  0  0  0  0  0  0  0  0
   -5.4150   25.0150  -30.7230 C   0  0  0  0  0  0  0  0  0  0  0  0
   -4.1430   25.5850  -30.8290 O   0  0  0  0  0  0  0  0  0  0  0  0
   -6.3650   22.7220  -31.1170 C   0  0  1  0  0  0  0  0  0  0  0  0
   -7.7150   23.0280  -31.2750 O   0  0  0  0  0  0  0  0  0  0  0  0
   -5.9430   21.5800  -32.0530 C   0  0  1  0  0  0  0  0  0  0  0  0
   -6.8600   21.6010  -33.0950 O   0  0  0  0  0  0  0  0  0  0  0  0
    2.2656   18.6578  -31.3710 H   0  0  0  0  0  0  0  0  0  0  0  0
    1.6048   17.7581  -32.7784 H   0  0  0  0  0  0  0  0  0  0  0  0
    1.6007   19.5544  -32.7784 H   0  0  0  0  0  0  0  0  0  0  0  0
   -0.9588   22.1455  -27.8601 H   0  0  0  0  0  0  0  0  0  0  0  0
    0.0110   23.6876  -27.7391 H   0  0  0  0  0  0  0  0  0  0  0  0
   -2.8576   23.2968  -27.9818 H   0  0  0  0  0  0  0  0  0  0  0  0
   -1.8979   24.7541  -27.5281 H   0  0  0  0  0  0  0  0  0  0  0  0
   -1.3500   24.5540  -30.0610 H   0  0  0  0  0  0  0  0  0  0  0  0
   -2.9960   23.9470  -30.0390 H   0  0  0  0  0  0  0  0  0  0  0  0
   -2.4540   22.9070  -30.8430 H   0  0  0  0  0  0  0  0  0  0  0  0
   -4.4423   19.4139  -33.6931 H   0  0  0  0  0  0  0  0  0  0  0  0
   -4.6200   22.3157  -33.5175 H   0  0  0  0  0  0  0  0  0  0  0  0
   -5.7409   24.2392  -32.5690 H   0  0  0  0  0  0  0  0  0  0  0  0
   -6.1781   25.7353  -31.0530 H   0  0  0  0  0  0  0  0  0  0  0  0
   -5.6309   24.7402  -29.6800 H   0  0  0  0  0  0  0  0  0  0  0  0
   -3.5170   24.9280  -31.2590 H   0  0  0  0  0  0  0  0  0  0  0  0
   -6.2840   22.5225  -30.0383 H   0  0  0  0  0  0  0  0  0  0  0  0
   -8.1670   22.2120  -31.6090 H   0  0  0  0  0  0  0  0  0  0  0  0
   -5.9228   20.5553  -31.6535 H   0  0  0  0  0  0  0  0  0  0  0  0
   -7.1150   22.5150  -33.3130 H   0  0  0  0  0  0  0  0  0  0  0  0
  1  2  1  0
  2  3  2  0
  3  4  1  0
  4  5  2  0
  5  6  1  0
  6  7  1  0
  7  8  1  0
  8  9  1  0
  5 10  1  0
 10 11  1  0
 11 12  2  0
 12 13  1  0
 13 14  2  0
 14 15  1  0
 15 16  1  0
 16 17  1  0
 17 18  1  0
 18 19  1  0
 19 20  1  0
 18 21  1  0
 21 22  1  0
 21 23  1  0
 23 24  1  0
 12  3  1  0
 23 16  1  0
 15 11  1  0
  1 25  1  0
  1 26  1  0
  1 27  1  0
  7 28  1  0
  7 29  1  0
  8 30  1  0
  8 31  1  0
  9 32  1  0
  9 33  1  0
 10 34  1  0
 14 35  1  0
 16 36  1  6
 18 37  1  6
 19 38  1  0
 19 39  1  0
 20 40  1  0
 21 41  1  1
 22 42  1  0
 23 43  1  1
 24 44  1  0
M  END
>  <smiles>  (35) 
CN=c1nc(OCCN)[nH]c2c1ncn2C1OC(CO)C(O)C1O

>  <score_type>  (35) 
oracle

>  <origin>  (35) 
adg

>  <m_score__min__energy>  (35) 
-6.1699999999999999

>  <m_primary>  (35) 
energy

$$$$
35:0
     RDKit          3D

 38 40  0  0  0  0  0  0  0  0999 V2000
   -2.1670   24.7740  -28.5350 C   0  0  0  0  0  0  0  0  0  0  0  0
   -2.8670   24.9280  -29.7650 O   0  0  0  0  0  0  0  0  0  0  0  0
   -3.7190   23.9600  -30.3180 C   0  0  0  0  0  0  0  0  0  0  0  0
   -3.2890   22.6280  -30.3370 C   0  0  0  0  0  0  0  0  0  0  0  0
   -4.1010   21.6280  -30.8760 C   0  0  0  0  0  0  0  0  0  0  0  0
   -5.3630   21.9430  -31.4040 C   0  0  0  0  0  0  0  0  0  0  0  0
   -6.2000   20.9130  -31.9700 N   0  0  0  0  0  0  0  0  0  0  0  0
   -7.6360   20.9960  -31.8570 C   0  0  0  0  0  0  0  0  0  0  0  0
   -8.2360   21.6320  -30.9120 N   0  0  0  0  0  0  0  0  0  0  0  0
   -9.6800   21.5440  -31.0790 C   0  0  0  0  0  0  0  0  0  0  0  0
   -9.8750   20.6960  -32.3480 C   0  0  0  0  0  0  0  0  0  0  0  0
   -8.5220   20.3970  -32.7840 N   0  0  0  0  0  0  0  0  0  0  0  0
   -5.6000   19.7830  -32.6360 C   0  0  0  0  0  0  0  0  0  0  0  0
   -6.1050   18.4850  -32.4370 C   0  0  0  0  0  0  0  0  0  0  0  0
   -5.5260   17.3920  -33.0880 C   0  0  0  0  0  0  0  0  0  0  0  0
   -4.4390   17.5840  -33.9450 C   0  0  0  0  0  0  0  0  0  0  0  0
   -3.9310   18.8690  -34.1530 C   0  0  0  0  0  0  0  0  0  0  0  0
   -4.5080   19.9640  -33.5030 C   0  0  0  0  0  0  0  0  0  0  0  0
   -5.7960   23.2800  -31.3880 C   0  0  0  0  0  0  0  0  0  0  0  0
   -4.9830   24.2810  -30.8490 C   0  0  0  0  0  0  0  0  0  0  0  0
   -2.8618   24.9269  -27.6961 H   0  0  0  0  0  0  0  0  0  0  0  0
   -1.7421   23.7609  -28.4793 H   0  0  0  0  0  0  0  0  0  0  0  0
   -1.3562   25.5152  -28.4793 H   0  0  0  0  0  0  0  0  0  0  0  0
   -2.3035   22.3669  -29.9240 H   0  0  0  0  0  0  0  0  0  0  0  0
   -3.7492   20.5858  -30.8869 H   0  0  0  0  0  0  0  0  0  0  0  0
   -7.7610   22.1600  -30.1450 H   0  0  0  0  0  0  0  0  0  0  0  0
  -10.1419   21.0533  -30.2096 H   0  0  0  0  0  0  0  0  0  0  0  0
  -10.1505   22.5347  -31.1639 H   0  0  0  0  0  0  0  0  0  0  0  0
  -10.4252   19.7713  -32.1193 H   0  0  0  0  0  0  0  0  0  0  0  0
  -10.4620   21.2171  -33.1186 H   0  0  0  0  0  0  0  0  0  0  0  0
   -8.2600   19.8060  -33.6020 H   0  0  0  0  0  0  0  0  0  0  0  0
   -6.9614   18.3293  -31.7644 H   0  0  0  0  0  0  0  0  0  0  0  0
   -5.9261   16.3803  -32.9257 H   0  0  0  0  0  0  0  0  0  0  0  0
   -3.9831   16.7232  -34.4561 H   0  0  0  0  0  0  0  0  0  0  0  0
   -3.0762   19.0191  -34.8289 H   0  0  0  0  0  0  0  0  0  0  0  0
   -4.1051   20.9737  -33.6709 H   0  0  0  0  0  0  0  0  0  0  0  0
   -6.7812   23.5403  -31.8024 H   0  0  0  0  0  0  0  0  0  0  0  0
   -5.3321   25.3241  -30.8396 H   0  0  0  0  0  0  0  0  0  0  0  0
  1  2  1  0
  2  3  1  0
  3  4  2  0
  4  5  1  0
  5  6  2  0
  6  7  1  0
  7  8  1  0
  8  9  2  0
  9 10  1  0
 10 11  1  0
 11 12  1  0
  7 13  1  0
 13 14  2  0
 14 15  1  0
 15 16  2  0
 16 17  1  0
 17 18  2  0
  6 19  1  0
 19 20  2  0
 20  3  1  0
 12  8  1  0
 18 13  1  0
  1 21  1  0
  1 22  1  0
  1 23  1  0
  4 24  1  0
  5 25  1  0
  9 26  1  0
 10 27  1  0
 10 28  1  0
 11 29  1  0
 11 30  1  0
 12 31  1  0
 14 32  1  0
 15 33  1  0
 16 34  1  0
 17 35  1  0
 18 36  1  0
 19 37  1  0
 20 38  1  0
M  CHG  1   9   1
M  END
>  <UniqueID>  (36) 
32

>  <SMILES>  (36) 
COc1ccc(N(C2=[NH+]CCN2)c2ccccc2)cc1

>  <Energy>  (36) 
60.20117609871694

>  <Genealogy>  (36) 
COc1ccc(N(C2=[NH+]CCN2)c2ccccc2)cc1 (protonated)
COc1ccc(N(C2=[NH+]CCN2)c2ccccc2)cc1 (3D coordinates assigned)
COc1ccc(N(C2=[NH+]CCN2)c2ccccc2)cc1 (nonaromatic ring conformer: 60.20117609871694 kcal/mol)

>  <smiles>  (36) 
COc1ccc(N(C2=NCCN2)c2ccccc2)cc1

>  <score_type>  (36) 
oracle

>  <origin>  (36) 
adg

>  <m_score__min__energy>  (36) 
-6.4299999999999997

>  <m_primary>  (36) 
energy

$$$$
36:0
     RDKit          3D

 41 44  0  0  0  0  0  0  0  0999 V2000
   -1.0845   27.6921  -23.3761 H   0  0  0  0  0  0  0  0  0  0  0  0
   -0.9110   27.0470  -24.2500 C   0  0  0  0  0  0  0  0  0  0  0  0
   -0.9430   27.5900  -25.5350 C   0  0  0  0  0  0  0  0  0  0  0  0
   -1.1378   28.6638  -25.6727 H   0  0  0  0  0  0  0  0  0  0  0  0
   -0.7280   26.7720  -26.6470 C   0  0  0  0  0  0  0  0  0  0  0  0
   -0.7457   27.2075  -27.6570 H   0  0  0  0  0  0  0  0  0  0  0  0
   -0.4890   25.3950  -26.4840 C   0  0  0  0  0  0  0  0  0  0  0  0
   -0.2230   24.5480  -27.7020 C   0  0  0  0  0  0  0  0  0  0  0  0
    0.2259   23.5932  -27.3909 H   0  0  0  0  0  0  0  0  0  0  0  0
    0.4666   25.0836  -28.3711 H   0  0  0  0  0  0  0  0  0  0  0  0
   -1.4720   24.2870  -28.4100 N   0  0  0  0  0  0  0  0  0  0  0  0
   -1.9720   25.0850  -29.3400 N   0  0  0  0  0  0  0  0  0  0  0  0
   -3.1540   24.5530  -29.7090 C   0  0  0  0  0  0  0  0  0  0  0  0
   -3.9490   25.0580  -30.6050 N   0  0  0  0  0  0  0  0  0  0  0  0
   -5.3810   24.9290  -30.6360 C   0  0  0  0  0  0  0  0  0  0  0  0
   -6.1160   25.8570  -30.1990 O   0  0  0  0  0  0  0  0  0  0  0  0
   -5.9960   23.6950  -31.1820 C   0  0  0  0  0  0  0  0  0  0  0  0
   -7.3830   23.4900  -31.0770 C   0  0  0  0  0  0  0  0  0  0  0  0
   -8.0155   24.2458  -30.5885 H   0  0  0  0  0  0  0  0  0  0  0  0
   -7.9560   22.3290  -31.5920 C   0  0  0  0  0  0  0  0  0  0  0  0
   -9.0411   22.1677  -31.5114 H   0  0  0  0  0  0  0  0  0  0  0  0
   -7.1500   21.3700  -32.2110 C   0  0  0  0  0  0  0  0  0  0  0  0
   -7.7010   20.1920  -32.7380 C   0  0  0  0  0  0  0  0  0  0  0  0
   -8.7840   20.0126  -32.6675 H   0  0  0  0  0  0  0  0  0  0  0  0
   -6.8760   19.2470  -33.3520 C   0  0  0  0  0  0  0  0  0  0  0  0
   -7.3110   18.3243  -33.7636 H   0  0  0  0  0  0  0  0  0  0  0  0
   -5.5000   19.4700  -33.4450 C   0  0  0  0  0  0  0  0  0  0  0  0
   -4.8549   18.7222  -33.9295 H   0  0  0  0  0  0  0  0  0  0  0  0
   -4.9400   20.6410  -32.9240 C   0  0  0  0  0  0  0  0  0  0  0  0
   -3.8560   20.8120  -32.9999 H   0  0  0  0  0  0  0  0  0  0  0  0
   -5.7590   21.5990  -32.3040 C   0  0  0  0  0  0  0  0  0  0  0  0
   -5.2210   22.7450  -31.7910 N   0  0  0  0  0  0  0  0  0  0  0  0
   -4.1890   22.8950  -31.8710 H   0  0  0  0  0  0  0  0  0  0  0  0
   -3.4170   23.4020  -28.9950 C   0  0  0  0  0  0  0  0  0  0  0  0
   -4.2966   22.7455  -29.0674 H   0  0  0  0  0  0  0  0  0  0  0  0
   -2.3200   23.2660  -28.1690 C   0  0  0  0  0  0  0  0  0  0  0  0
   -2.1633   22.4602  -27.4368 H   0  0  0  0  0  0  0  0  0  0  0  0
   -0.4420   24.8550  -25.1790 C   0  0  0  0  0  0  0  0  0  0  0  0
   -0.1100   23.1510  -24.8870 Cl  0  0  0  0  0  0  0  0  0  0  0  0
   -0.6590   25.6860  -24.0730 C   0  0  0  0  0  0  0  0  0  0  0  0
   -0.6306   25.2631  -23.0579 H   0  0  0  0  0  0  0  0  0  0  0  0
  1  2  1  0
  2  3  2  0
  3  4  1  0
  3  5  1  0
  5  6  1  0
  5  7  2  0
  7  8  1  0
  8  9  1  0
  8 10  1  0
  8 11  1  0
 11 12  1  0
 12 13  1  0
 13 14  2  0
 14 15  1  0
 15 16  2  0
 15 17  1  0
 17 18  2  0
 18 19  1  0
 18 20  1  0
 20 21  1  0
 20 22  2  0
 22 23  1  0
 23 24  1  0
 23 25  2  0
 25 26  1  0
 25 27  1  0
 27 28  1  0
 27 29  2  0
 29 30  1  0
 29 31  1  0
 31 32  2  0
 32 33  1  0
 13 34  1  0
 34 35  1  0
 34 36  2  0
 36 37  1  0
  7 38  1  0
 38 39  1  0
 38 40  2  0
 40 41  1  0
 40  2  1  0
 36 11  1  0
 32 17  1  0
 31 22  1  0
M  CHG  2  12  -1  32   1
M  END
>  <UniqueID>  (37) 
33

>  <SMILES>  (37) 
O=C(/N=c1/ccn(Cc2ccccc2Cl)[n-]1)c1ccc2ccccc2[nH+]1

>  <Energy>  (37) 
81.29608795449656

>  <Genealogy>  (37) 
O=C(N=c1ccn(Cc2ccccc2Cl)[n-]1)c1ccc2ccccc2[nH+]1 (protonated)
O=C(/N=c1/ccn(Cc2ccccc2Cl)[n-]1)c1ccc2ccccc2[nH+]1 (cis-trans isomerization)
O=C(/N=c1/ccn(Cc2ccccc2Cl)[n-]1)c1ccc2ccccc2[nH+]1 (3D coordinates assigned)
O=C(/N=c1/ccn(Cc2ccccc2Cl)[n-]1)c1ccc2ccccc2[nH+]1 (optimized conformer: 81.29608795449656 kcal/mol)

>  <smiles>  (37) 
O=C(N=c1ccn(Cc2ccccc2Cl)[nH]1)c1ccc2ccccc2n1

>  <score_type>  (37) 
oracle

>  <origin>  (37) 
adg

>  <m_score__min__energy>  (37) 
-10.65

>  <m_primary>  (37) 
energy

$$$$
37:0
     RDKit          3D

 41 42  0  0  0  0  0  0  0  0999 V2000
   -3.2760   25.6760  -31.6110 H   0  0  0  0  0  0  0  0  0  0  0  0
   -3.9280   25.6210  -30.8400 O   0  0  0  0  0  0  0  0  0  0  0  0
   -4.7470   24.5230  -30.7070 N   0  0  0  0  0  0  0  0  0  0  0  0
   -4.2680   23.3210  -30.5890 C   0  0  0  0  0  0  0  0  0  0  0  0
   -4.7770   22.2350  -31.4700 C   0  0  0  0  0  0  0  0  0  0  0  0
   -3.8990   21.4680  -32.2530 C   0  0  0  0  0  0  0  0  0  0  0  0
   -2.8182   21.6702  -32.2198 H   0  0  0  0  0  0  0  0  0  0  0  0
   -4.3890   20.4520  -33.0720 C   0  0  0  0  0  0  0  0  0  0  0  0
   -3.6992   19.8590  -33.6905 H   0  0  0  0  0  0  0  0  0  0  0  0
   -5.7670   20.1900  -33.1030 C   0  0  0  0  0  0  0  0  0  0  0  0
   -6.3080   19.1870  -33.9230 O   0  0  0  0  0  0  0  0  0  0  0  0
   -5.7610   17.9100  -34.1140 C   0  0  0  0  0  0  0  0  0  0  0  0
   -6.4420   16.8020  -33.5930 C   0  0  0  0  0  0  0  0  0  0  0  0
   -7.3919   16.9463  -33.0574 H   0  0  0  0  0  0  0  0  0  0  0  0
   -5.9210   15.5130  -33.7500 C   0  0  0  0  0  0  0  0  0  0  0  0
   -6.4666   14.6469  -33.3473 H   0  0  0  0  0  0  0  0  0  0  0  0
   -4.7080   15.3250  -34.4180 C   0  0  0  0  0  0  0  0  0  0  0  0
   -4.2020   14.0760  -34.5680 F   0  0  0  0  0  0  0  0  0  0  0  0
   -4.0110   16.4260  -34.9240 C   0  0  0  0  0  0  0  0  0  0  0  0
   -3.0534   16.2780  -35.4446 H   0  0  0  0  0  0  0  0  0  0  0  0
   -4.5300   17.7160  -34.7690 C   0  0  0  0  0  0  0  0  0  0  0  0
   -3.9746   18.5812  -35.1601 H   0  0  0  0  0  0  0  0  0  0  0  0
   -6.6090   20.9530  -32.3550 N   0  0  0  0  0  0  0  0  0  0  0  0
   -7.6360   20.7660  -32.3920 H   0  0  0  0  0  0  0  0  0  0  0  0
   -6.1530   21.9500  -31.5470 C   0  0  0  0  0  0  0  0  0  0  0  0
   -6.8660   22.5373  -30.9497 H   0  0  0  0  0  0  0  0  0  0  0  0
   -3.2520   23.0440  -29.6090 N   0  0  0  0  0  0  0  0  0  0  0  0
   -3.6500   22.5090  -28.2990 C   0  0  0  0  0  0  0  0  0  0  0  0
   -4.7477   22.5106  -28.2275 H   0  0  0  0  0  0  0  0  0  0  0  0
   -3.2135   23.1424  -27.5127 H   0  0  0  0  0  0  0  0  0  0  0  0
   -3.1400   21.0850  -28.1170 C   0  0  0  0  0  0  0  0  0  0  0  0
   -3.0590   20.8589  -27.0435 H   0  0  0  0  0  0  0  0  0  0  0  0
   -3.8419   20.3811  -28.5880 H   0  0  0  0  0  0  0  0  0  0  0  0
   -2.1508   20.9868  -28.5880 H   0  0  0  0  0  0  0  0  0  0  0  0
   -1.8400   23.0640  -30.0190 C   0  0  0  0  0  0  0  0  0  0  0  0
   -1.4541   22.0340  -30.0325 H   0  0  0  0  0  0  0  0  0  0  0  0
   -1.7708   23.5128  -31.0209 H   0  0  0  0  0  0  0  0  0  0  0  0
   -1.0060   23.8970  -29.0530 C   0  0  0  0  0  0  0  0  0  0  0  0
   -1.2705   23.6329  -28.0184 H   0  0  0  0  0  0  0  0  0  0  0  0
    0.0619   23.6942  -29.2217 H   0  0  0  0  0  0  0  0  0  0  0  0
   -1.2075   24.9652  -29.2217 H   0  0  0  0  0  0  0  0  0  0  0  0
  1  2  1  0
  2  3  1  0
  3  4  2  0
  4  5  1  0
  5  6  2  0
  6  7  1  0
  6  8  1  0
  8  9  1  0
  8 10  2  0
 10 11  1  0
 11 12  1  0
 12 13  2  0
 13 14  1  0
 13 15  1  0
 15 16  1  0
 15 17  2  0
 17 18  1  0
 17 19  1  0
 19 20  1  0
 19 21  2  0
 21 22  1  0
 10 23  1  0
 23 24  1  0
 23 25  2  0
 25 26  1  0
  4 27  1  0
 27 28  1  0
 28 29  1  0
 28 30  1  0
 28 31  1  0
 31 32  1  0
 31 33  1  0
 31 34  1  0
 27 35  1  0
 35 36  1  0
 35 37  1  0
 35 38  1  0
 38 39  1  0
 38 40  1  0
 38 41  1  0
 25  5  1  0
 21 12  1  0
M  CHG  1  23   1
M  END
>  <UniqueID>  (38) 
34

>  <SMILES>  (38) 
CCN(CC)/C(=N\O)c1ccc(Oc2ccc(F)cc2)[nH+]c1

>  <Energy>  (38) 
46.68417594442525

>  <Genealogy>  (38) 
CCN(CC)C(=NO)c1ccc(Oc2ccc(F)cc2)[nH+]c1 (protonated)
CCN(CC)/C(=N\O)c1ccc(Oc2ccc(F)cc2)[nH+]c1 (cis-trans isomerization)
CCN(CC)/C(=N\O)c1ccc(Oc2ccc(F)cc2)[nH+]c1 (3D coordinates assigned)
CCN(CC)/C(=N\O)c1ccc(Oc2ccc(F)cc2)[nH+]c1 (optimized conformer: 46.68417594442525 kcal/mol)

>  <smiles>  (38) 
CCN(CC)C(=NO)c1ccc(Oc2ccc(F)cc2)nc1

>  <score_type>  (38) 
oracle

>  <origin>  (38) 
adg

>  <m_score__min__energy>  (38) 
-6.7699999999999996

>  <m_primary>  (38) 
energy

$$$$
38:0
     RDKit          3D

 51 54  0  0  0  0  0  0  0  0999 V2000
   -2.4280   21.9030  -31.4710 C   0  0  0  0  0  0  0  0  0  0  0  0
   -3.3850   22.9520  -31.5670 O   0  0  0  0  0  0  0  0  0  0  0  0
   -4.7720   22.7850  -31.4220 C   0  0  0  0  0  0  0  0  0  0  0  0
   -5.4100   21.5790  -31.7720 C   0  0  0  0  0  0  0  0  0  0  0  0
   -6.7880   21.4210  -31.5880 C   0  0  0  0  0  0  0  0  0  0  0  0
   -7.5640   19.9170  -32.0820 S   0  0  0  0  0  0  0  0  0  0  0  0
   -8.7000   19.6340  -31.1390 O   0  0  0  0  0  0  0  0  0  0  0  0
   -8.1140   20.0520  -33.4750 O   0  0  0  0  0  0  0  0  0  0  0  0
   -6.4060   18.6050  -32.0210 N   0  0  0  0  0  0  0  0  0  0  0  0
   -5.3440   18.7860  -33.0190 C   0  0  0  0  0  0  0  0  0  0  0  0
   -5.7660   18.0400  -34.2770 C   0  0  0  0  0  0  0  0  0  0  0  0
   -6.8420   17.0650  -33.8310 C   0  0  0  0  0  0  0  0  0  0  0  0
   -7.0440   17.3230  -32.3430 C   0  0  0  0  0  0  0  0  0  0  0  0
   -7.5380   22.4650  -31.0400 C   0  0  0  0  0  0  0  0  0  0  0  0
   -6.9190   23.6670  -30.6930 C   0  0  0  0  0  0  0  0  0  0  0  0
   -5.5430   23.8470  -30.9020 C   0  0  0  0  0  0  0  0  0  0  0  0
   -4.9320   25.1590  -30.5790 C   0  0  0  0  0  0  0  0  0  0  0  0
   -5.6640   26.1810  -30.5300 O   0  0  0  0  0  0  0  0  0  0  0  0
   -3.5330   25.2990  -30.2930 N   0  0  0  0  0  0  0  0  0  0  0  0
   -2.8160   24.6580  -29.2280 C   0  0  0  0  0  0  0  0  0  0  0  0
   -3.4380   23.7260  -28.3730 C   0  0  0  0  0  0  0  0  0  0  0  0
   -2.7170   23.1360  -27.3290 C   0  0  0  0  0  0  0  0  0  0  0  0
   -1.3720   23.4590  -27.1430 C   0  0  0  0  0  0  0  0  0  0  0  0
   -0.7330   24.3420  -28.0240 C   0  0  0  0  0  0  0  0  0  0  0  0
   -1.4550   24.9450  -29.0590 C   0  0  0  0  0  0  0  0  0  0  0  0
    0.6280   24.6110  -27.8490 O   0  0  0  0  0  0  0  0  0  0  0  0
    1.4330   23.8090  -26.9800 C   0  0  0  0  0  0  0  0  0  0  0  0
    0.6400   23.4270  -25.7240 C   0  0  0  0  0  0  0  0  0  0  0  0
   -0.6420   22.9070  -26.0850 O   0  0  0  0  0  0  0  0  0  0  0  0
   -2.2286   21.6844  -30.4115 H   0  0  0  0  0  0  0  0  0  0  0  0
   -2.8214   21.0016  -31.9636 H   0  0  0  0  0  0  0  0  0  0  0  0
   -1.4944   22.2122  -31.9636 H   0  0  0  0  0  0  0  0  0  0  0  0
   -4.8189   20.7530  -32.1943 H   0  0  0  0  0  0  0  0  0  0  0  0
   -5.9940   18.5710  -31.0590 H   0  0  0  0  0  0  0  0  0  0  0  0
   -5.2163   19.8556  -33.2417 H   0  0  0  0  0  0  0  0  0  0  0  0
   -4.3869   18.3974  -32.6409 H   0  0  0  0  0  0  0  0  0  0  0  0
   -6.1684   18.7414  -35.0228 H   0  0  0  0  0  0  0  0  0  0  0  0
   -4.9172   17.5225  -34.7479 H   0  0  0  0  0  0  0  0  0  0  0  0
   -7.7765   17.2474  -34.3818 H   0  0  0  0  0  0  0  0  0  0  0  0
   -6.5499   16.0225  -34.0254 H   0  0  0  0  0  0  0  0  0  0  0  0
   -8.1188   17.3715  -32.1138 H   0  0  0  0  0  0  0  0  0  0  0  0
   -6.5996   16.5116  -31.7478 H   0  0  0  0  0  0  0  0  0  0  0  0
   -8.6192   22.3392  -30.8816 H   0  0  0  0  0  0  0  0  0  0  0  0
   -7.5147   24.4799  -30.2521 H   0  0  0  0  0  0  0  0  0  0  0  0
   -4.4945   23.4614  -28.5271 H   0  0  0  0  0  0  0  0  0  0  0  0
   -3.2095   22.4187  -26.6559 H   0  0  0  0  0  0  0  0  0  0  0  0
   -0.9532   25.6462  -29.7420 H   0  0  0  0  0  0  0  0  0  0  0  0
    1.7380   22.8941  -27.5091 H   0  0  0  0  0  0  0  0  0  0  0  0
    2.3214   24.3848  -26.6816 H   0  0  0  0  0  0  0  0  0  0  0  0
    1.1965   22.6624  -25.1622 H   0  0  0  0  0  0  0  0  0  0  0  0
    0.5001   24.3240  -25.1029 H   0  0  0  0  0  0  0  0  0  0  0  0
  1  2  1  0
  2  3  1  0
  3  4  2  0
  4  5  1  0
  5  6  1  0
  6  7  2  0
  6  8  2  0
  6  9  1  0
  9 10  1  0
 10 11  1  0
 11 12  1  0
 12 13  1  0
  5 14  2  0
 14 15  1  0
 15 16  2  0
 16 17  1  0
 17 18  2  0
 17 19  1  0
 19 20  1  0
 20 21  2  0
 21 22  1  0
 22 23  2  0
 23 24  1  0
 24 25  2  0
 24 26  1  0
 26 27  1  0
 27 28  1  0
 28 29  1  0
 16  3  1  0
 25 20  1  0
 13  9  1  0
 29 23  1  0
  1 30  1  0
  1 31  1  0
  1 32  1  0
  4 33  1  0
  9 34  1  0
 10 35  1  0
 10 36  1  0
 11 37  1  0
 11 38  1  0
 12 39  1  0
 12 40  1  0
 13 41  1  0
 13 42  1  0
 14 43  1  0
 15 44  1  0
 21 45  1  0
 22 46  1  0
 25 47  1  0
 27 48  1  0
 27 49  1  0
 28 50  1  0
 28 51  1  0
M  CHG  2   9   1  19  -1
M  END
>  <UniqueID>  (39) 
35

>  <SMILES>  (39) 
COc1cc(S(=O)(=O)[NH+]2CCCC2)ccc1C(=O)[N-]c1ccc2c(c1)OCCO2

>  <Energy>  (39) 
62.14053818797788

>  <Genealogy>  (39) 
COc1cc(S(=O)(=O)[NH+]2CCCC2)ccc1C(=O)[N-]c1ccc2c(c1)OCCO2 (protonated)
COc1cc(S(=O)(=O)[NH+]2CCCC2)ccc1C(=O)[N-]c1ccc2c(c1)OCCO2 (3D coordinates assigned)
COc1cc(S(=O)(=O)[NH+]2CCCC2)ccc1C(=O)[N-]c1ccc2c(c1)OCCO2 (nonaromatic ring conformer: 62.14053818797788 kcal/mol)

>  <smiles>  (39) 
COc1cc(S(=O)(=O)N2CCCC2)ccc1C(=O)Nc1ccc2c(c1)OCCO2

>  <score_type>  (39) 
oracle

>  <origin>  (39) 
adg

>  <m_score__min__energy>  (39) 
-10.66

>  <m_primary>  (39) 
energy

$$$$
39:0
     RDKit          3D

 30 31  0  0  0  0  0  0  0  0999 V2000
    1.3720   24.8850  -26.5650 C   0  0  0  0  0  0  0  0  0  0  0  0
    0.7860   24.6260  -27.8360 O   0  0  0  0  0  0  0  0  0  0  0  0
   -0.5280   24.1710  -28.0240 C   0  0  0  0  0  0  0  0  0  0  0  0
   -1.0900   23.1370  -27.2560 C   0  0  0  0  0  0  0  0  0  0  0  0
   -2.3700   22.7350  -27.4820 N   0  0  0  0  0  0  0  0  0  0  0  0
   -3.1400   23.3120  -28.4440 C   0  0  0  0  0  0  0  0  0  0  0  0
   -2.6280   24.3450  -29.2340 C   0  0  0  0  0  0  0  0  0  0  0  0
   -3.4690   24.9290  -30.2380 N   0  0  0  0  0  0  0  0  0  0  0  0
   -5.1140   24.4800  -30.5470 S   0  0  0  0  0  0  0  0  0  0  0  0
   -5.8030   25.5980  -31.2820 O   0  0  0  0  0  0  0  0  0  0  0  0
   -5.8310   24.2170  -29.2530 O   0  0  0  0  0  0  0  0  0  0  0  0
   -5.1320   23.0090  -31.5260 C   0  0  0  0  0  0  0  0  0  0  0  0
   -3.9190   22.3920  -31.8740 C   0  0  0  0  0  0  0  0  0  0  0  0
   -3.9140   21.2270  -32.6450 C   0  0  0  0  0  0  0  0  0  0  0  0
   -5.1180   20.6660  -33.0740 C   0  0  0  0  0  0  0  0  0  0  0  0
   -6.3300   21.2690  -32.7340 C   0  0  0  0  0  0  0  0  0  0  0  0
   -6.3470   22.4380  -31.9620 C   0  0  0  0  0  0  0  0  0  0  0  0
   -7.9060   23.1530  -31.5660 Cl  0  0  0  0  0  0  0  0  0  0  0  0
   -1.3090   24.7720  -29.0160 C   0  0  0  0  0  0  0  0  0  0  0  0
    0.6759   24.5773  -25.7708 H   0  0  0  0  0  0  0  0  0  0  0  0
    2.3096   24.3174  -26.4710 H   0  0  0  0  0  0  0  0  0  0  0  0
    1.5834   25.9604  -26.4710 H   0  0  0  0  0  0  0  0  0  0  0  0
   -0.4933   22.6512  -26.4699 H   0  0  0  0  0  0  0  0  0  0  0  0
   -2.7730   21.9650  -26.9030 H   0  0  0  0  0  0  0  0  0  0  0  0
   -4.1715   22.9634  -28.6009 H   0  0  0  0  0  0  0  0  0  0  0  0
   -2.9672   22.8288  -31.5374 H   0  0  0  0  0  0  0  0  0  0  0  0
   -2.9596   20.7510  -32.9145 H   0  0  0  0  0  0  0  0  0  0  0  0
   -5.1116   19.7482  -33.6803 H   0  0  0  0  0  0  0  0  0  0  0  0
   -7.2768   20.8240  -33.0740 H   0  0  0  0  0  0  0  0  0  0  0  0
   -0.8877   25.5830  -29.6282 H   0  0  0  0  0  0  0  0  0  0  0  0
  1  2  1  0
  2  3  1  0
  3  4  2  0
  4  5  1  0
  5  6  2  0
  6  7  1  0
  7  8  1  0
  8  9  1  0
  9 10  2  0
  9 11  2  0
  9 12  1  0
 12 13  2  0
 13 14  1  0
 14 15  2  0
 15 16  1  0
 16 17  2  0
 17 18  1  0
  7 19  2  0
 19  3  1  0
 17 12  1  0
  1 20  1  0
  1 21  1  0
  1 22  1  0
  4 23  1  0
  5 24  1  0
  6 25  1  0
 13 26  1  0
 14 27  1  0
 15 28  1  0
 16 29  1  0
 19 30  1  0
M  CHG  2   5   1   8  -1
M  END
>  <UniqueID>  (40) 
36

>  <SMILES>  (40) 
COc1c[nH+]cc([N-]S(=O)(=O)c2ccccc2Cl)c1

>  <Energy>  (40) 
35.349627847382834

>  <Genealogy>  (40) 
COc1c[nH+]cc([N-]S(=O)(=O)c2ccccc2Cl)c1 (protonated)
COc1c[nH+]cc([N-]S(=O)(=O)c2ccccc2Cl)c1 (3D coordinates assigned)
COc1c[nH+]cc([N-]S(=O)(=O)c2ccccc2Cl)c1 (optimized conformer: 35.349627847382834 kcal/mol)

>  <smiles>  (40) 
COc1cncc(NS(=O)(=O)c2ccccc2Cl)c1

>  <score_type>  (40) 
oracle

>  <origin>  (40) 
adg

>  <m_score__min__energy>  (40) 
-7.21

>  <m_primary>  (40) 
energy

$$$$
40:0
     RDKit          3D

 45 47  0  0  0  0  0  0  0  0999 V2000
   -2.2250   24.8510  -28.1570 C   0  0  0  0  0  0  0  0  0  0  0  0
   -2.8760   25.2980  -29.3410 O   0  0  0  0  0  0  0  0  0  0  0  0
   -3.7870   24.5320  -30.0830 C   0  0  0  0  0  0  0  0  0  0  0  0
   -3.4700   23.2540  -30.5790 C   0  0  0  0  0  0  0  0  0  0  0  0
   -4.4120   22.5280  -31.3130 C   0  0  0  0  0  0  0  0  0  0  0  0
   -5.6890   23.0620  -31.5620 C   0  0  0  0  0  0  0  0  0  0  0  0
   -6.7180   22.2890  -32.3700 C   0  0  2  0  0  0  0  0  0  0  0  0
   -8.0550   22.1120  -31.6040 C   0  0  0  0  0  0  0  0  0  0  0  0
   -8.3060   20.6500  -31.2070 C   0  0  0  0  0  0  0  0  0  0  0  0
   -8.3280   19.7510  -32.3890 N   0  0  2  0  0  0  0  0  0  0  0  0
   -8.2820   18.3400  -31.9330 C   0  0  0  0  0  0  0  0  0  0  0  0
   -7.0870   17.5970  -32.4910 C   0  0  0  0  0  0  0  0  0  0  0  0
   -7.2110   16.8500  -33.6750 C   0  0  0  0  0  0  0  0  0  0  0  0
   -6.1090   16.1660  -34.1970 C   0  0  0  0  0  0  0  0  0  0  0  0
   -4.8760   16.2200  -33.5400 C   0  0  0  0  0  0  0  0  0  0  0  0
   -4.7450   16.9570  -32.3600 C   0  0  0  0  0  0  0  0  0  0  0  0
   -5.8450   17.6420  -31.8350 C   0  0  0  0  0  0  0  0  0  0  0  0
   -7.2560   20.0440  -33.3920 C   0  0  0  0  0  0  0  0  0  0  0  0
   -6.1370   20.9430  -32.8470 C   0  0  0  0  0  0  0  0  0  0  0  0
   -5.9980   24.3410  -31.0700 C   0  0  0  0  0  0  0  0  0  0  0  0
   -5.0540   25.0660  -30.3350 C   0  0  0  0  0  0  0  0  0  0  0  0
   -2.7685   25.2242  -27.2765 H   0  0  0  0  0  0  0  0  0  0  0  0
   -2.2100   23.7512  -28.1397 H   0  0  0  0  0  0  0  0  0  0  0  0
   -1.1933   25.2321  -28.1397 H   0  0  0  0  0  0  0  0  0  0  0  0
   -2.4756   22.8241  -30.3881 H   0  0  0  0  0  0  0  0  0  0  0  0
   -4.1526   21.5311  -31.6990 H   0  0  0  0  0  0  0  0  0  0  0  0
   -6.9573   22.8855  -33.2627 H   0  0  0  0  0  0  0  0  0  0  0  0
   -8.0251   22.7267  -30.6923 H   0  0  0  0  0  0  0  0  0  0  0  0
   -8.8711   22.4259  -32.2714 H   0  0  0  0  0  0  0  0  0  0  0  0
   -7.5054   20.3237  -30.5269 H   0  0  0  0  0  0  0  0  0  0  0  0
   -9.2895   20.5937  -30.7176 H   0  0  0  0  0  0  0  0  0  0  0  0
   -9.2520   19.9070  -32.8590 H   0  0  0  0  0  0  0  0  0  0  0  0
   -8.2274   18.3244  -30.8345 H   0  0  0  0  0  0  0  0  0  0  0  0
   -9.1911   17.8382  -32.2960 H   0  0  0  0  0  0  0  0  0  0  0  0
   -8.1799   16.8033  -34.1936 H   0  0  0  0  0  0  0  0  0  0  0  0
   -6.2121   15.5849  -35.1253 H   0  0  0  0  0  0  0  0  0  0  0  0
   -4.0092   15.6824  -33.9519 H   0  0  0  0  0  0  0  0  0  0  0  0
   -3.7748   16.9983  -31.8433 H   0  0  0  0  0  0  0  0  0  0  0  0
   -5.7378   18.2187  -30.9044 H   0  0  0  0  0  0  0  0  0  0  0  0
   -6.8111   19.0911  -33.7146 H   0  0  0  0  0  0  0  0  0  0  0  0
   -7.7302   20.5856  -34.2237 H   0  0  0  0  0  0  0  0  0  0  0  0
   -5.6461   20.4393  -32.0012 H   0  0  0  0  0  0  0  0  0  0  0  0
   -5.4069   21.1316  -33.6479 H   0  0  0  0  0  0  0  0  0  0  0  0
   -6.9896   24.7757  -31.2641 H   0  0  0  0  0  0  0  0  0  0  0  0
   -5.3109   26.0647  -29.9521 H   0  0  0  0  0  0  0  0  0  0  0  0
  1  2  1  0
  2  3  1  0
  3  4  2  0
  4  5  1  0
  5  6  2  0
  6  7  1  0
  7  8  1  0
  8  9  1  0
  9 10  1  0
 10 11  1  0
 11 12  1  0
 12 13  2  0
 13 14  1  0
 14 15  2  0
 15 16  1  0
 16 17  2  0
 10 18  1  0
 18 19  1  0
  6 20  1  0
 20 21  2  0
 21  3  1  0
 19  7  1  0
 17 12  1  0
  1 22  1  0
  1 23  1  0
  1 24  1  0
  4 25  1  0
  5 26  1  0
  7 27  1  6
  8 28  1  0
  8 29  1  0
  9 30  1  0
  9 31  1  0
 10 32  1  6
 11 33  1  0
 11 34  1  0
 13 35  1  0
 14 36  1  0
 15 37  1  0
 16 38  1  0
 17 39  1  0
 18 40  1  0
 18 41  1  0
 19 42  1  0
 19 43  1  0
 20 44  1  0
 21 45  1  0
M  CHG  1  10   1
M  END
>  <UniqueID>  (41) 
37

>  <SMILES>  (41) 
COc1ccc(C2CC[NH+](Cc3ccccc3)CC2)cc1

>  <Energy>  (41) 
56.37440639213472

>  <Genealogy>  (41) 
COc1ccc(C2CC[NH+](Cc3ccccc3)CC2)cc1 (protonated)
COc1ccc(C2CC[NH+](Cc3ccccc3)CC2)cc1 (3D coordinates assigned)
COc1ccc(C2CC[NH+](Cc3ccccc3)CC2)cc1 (nonaromatic ring conformer: 56.37440639213472 kcal/mol)

>  <smiles>  (41) 
COc1ccc(C2CCN(Cc3ccccc3)CC2)cc1

>  <score_type>  (41) 
oracle

>  <origin>  (41) 
adg

>  <m_score__min__energy>  (41) 
-7.8899999999999997

>  <m_primary>  (41) 
energy

$$$$
41:0
     RDKit          3D

 59 62  0  0  0  0  0  0  0  0999 V2000
   -0.2760   24.7470  -28.6660 O   0  0  0  0  0  0  0  0  0  0  0  0
   -1.5140   24.6860  -28.4400 C   0  0  0  0  0  0  0  0  0  0  0  0
   -2.0090   23.9980  -27.2080 C   0  0  0  0  0  0  0  0  0  0  0  0
   -1.8150   22.5110  -27.3380 C   0  0  0  0  0  0  0  0  0  0  0  0
   -0.5180   21.9670  -27.3450 C   0  0  0  0  0  0  0  0  0  0  0  0
   -0.3320   20.5890  -27.4980 C   0  0  0  0  0  0  0  0  0  0  0  0
   -1.4330   19.7460  -27.6560 C   0  0  0  0  0  0  0  0  0  0  0  0
   -2.7260   20.2800  -27.6660 C   0  0  0  0  0  0  0  0  0  0  0  0
   -2.9200   21.6560  -27.5090 C   0  0  0  0  0  0  0  0  0  0  0  0
   -4.1820   22.1540  -27.5310 F   0  0  0  0  0  0  0  0  0  0  0  0
   -2.4540   25.2730  -29.3480 N   0  0  0  0  0  0  0  0  0  0  0  0
   -3.4920   24.5780  -30.0520 C   0  0  0  0  0  0  0  0  0  0  0  0
   -4.6330   25.2880  -30.4420 C   0  0  0  0  0  0  0  0  0  0  0  0
   -5.6830   24.6370  -31.0920 C   0  0  0  0  0  0  0  0  0  0  0  0
   -5.6090   23.2660  -31.3440 C   0  0  0  0  0  0  0  0  0  0  0  0
   -4.4800   22.5350  -30.9470 C   0  0  0  0  0  0  0  0  0  0  0  0
   -4.4380   21.0440  -31.1550 C   0  0  0  0  0  0  0  0  0  0  0  0
   -3.2150   20.6560  -31.8890 N   0  0  0  0  0  0  0  0  0  0  0  0
   -2.0950   20.3760  -30.9560 C   0  0  0  0  0  0  0  0  0  0  0  0
   -0.7220   20.3150  -31.6660 C   0  0  0  0  0  0  0  0  0  0  0  0
   -0.8500   20.0910  -33.1800 C   0  0  0  0  0  0  0  0  0  0  0  0
   -1.3240   18.6830  -33.4760 C   0  0  0  0  0  0  0  0  0  0  0  0
   -0.4890   17.7680  -33.7170 O   0  0  0  0  0  0  0  0  0  0  0  0
   -2.7290   18.4010  -33.5290 N   0  0  0  0  0  0  0  0  0  0  0  0
   -3.2500   17.0530  -33.7350 C   0  0  0  0  0  0  0  0  0  0  0  0
   -4.7420   17.0630  -33.6540 C   0  0  0  0  0  0  0  0  0  0  0  0
   -5.4660   18.1620  -33.3560 N   0  0  0  0  0  0  0  0  0  0  0  0
   -6.7360   17.7220  -33.4250 C   0  0  0  0  0  0  0  0  0  0  0  0
   -6.7350   16.3860  -33.7600 C   0  0  0  0  0  0  0  0  0  0  0  0
   -5.4880   16.0100  -33.8950 O   0  0  0  0  0  0  0  0  0  0  0  0
   -1.7540   21.1730  -33.8220 C   0  0  0  0  0  0  0  0  0  0  0  0
   -2.8400   21.6980  -32.8630 C   0  0  0  0  0  0  0  0  0  0  0  0
   -3.4280   23.1940  -30.2900 C   0  0  0  0  0  0  0  0  0  0  0  0
   -1.4479   24.3640  -26.3355 H   0  0  0  0  0  0  0  0  0  0  0  0
   -3.0799   24.2133  -27.0787 H   0  0  0  0  0  0  0  0  0  0  0  0
    0.3538   22.6279  -27.2297 H   0  0  0  0  0  0  0  0  0  0  0  0
    0.6846   20.1688  -27.4938 H   0  0  0  0  0  0  0  0  0  0  0  0
   -1.2842   18.6624  -27.7726 H   0  0  0  0  0  0  0  0  0  0  0  0
   -3.5927   19.6155  -27.7978 H   0  0  0  0  0  0  0  0  0  0  0  0
   -4.7030   26.3661  -30.2351 H   0  0  0  0  0  0  0  0  0  0  0  0
   -6.5706   25.2056  -31.4063 H   0  0  0  0  0  0  0  0  0  0  0  0
   -6.4392   22.7572  -31.8558 H   0  0  0  0  0  0  0  0  0  0  0  0
   -4.4470   20.5419  -30.1763 H   0  0  0  0  0  0  0  0  0  0  0  0
   -5.3164   20.7430  -31.7448 H   0  0  0  0  0  0  0  0  0  0  0  0
   -2.0629   21.1717  -30.1972 H   0  0  0  0  0  0  0  0  0  0  0  0
   -2.2785   19.3891  -30.5062 H   0  0  0  0  0  0  0  0  0  0  0  0
   -0.1937   21.2643  -31.4936 H   0  0  0  0  0  0  0  0  0  0  0  0
   -0.1683   19.4612  -31.2483 H   0  0  0  0  0  0  0  0  0  0  0  0
    0.1439   20.1952  -33.6396 H   0  0  0  0  0  0  0  0  0  0  0  0
   -3.4110   19.1850  -33.4100 H   0  0  0  0  0  0  0  0  0  0  0  0
   -2.9416   16.6911  -34.7269 H   0  0  0  0  0  0  0  0  0  0  0  0
   -2.8508   16.3888  -32.9544 H   0  0  0  0  0  0  0  0  0  0  0  0
   -7.6327   18.3325  -33.2427 H   0  0  0  0  0  0  0  0  0  0  0  0
   -7.6224   15.7492  -33.8907 H   0  0  0  0  0  0  0  0  0  0  0  0
   -1.1223   22.0183  -34.1324 H   0  0  0  0  0  0  0  0  0  0  0  0
   -2.2671   20.7078  -34.6766 H   0  0  0  0  0  0  0  0  0  0  0  0
   -2.4536   22.5755  -32.3239 H   0  0  0  0  0  0  0  0  0  0  0  0
   -3.7290   21.9746  -33.4488 H   0  0  0  0  0  0  0  0  0  0  0  0
   -2.5478   22.6231  -29.9593 H   0  0  0  0  0  0  0  0  0  0  0  0
  1  2  2  0
  2  3  1  0
  3  4  1  0
  4  5  2  0
  5  6  1  0
  6  7  2  0
  7  8  1  0
  8  9  2  0
  9 10  1  0
  2 11  1  0
 11 12  1  0
 12 13  2  0
 13 14  1  0
 14 15  2  0
 15 16  1  0
 16 17  1  0
 17 18  1  0
 18 19  1  0
 19 20  1  0
 20 21  1  0
 21 22  1  0
 22 23  2  0
 22 24  1  0
 24 25  1  0
 25 26  1  0
 26 27  2  0
 27 28  1  0
 28 29  2  0
 29 30  1  0
 21 31  1  0
 31 32  1  0
 16 33  2  0
  9  4  1  0
 33 12  1  0
 32 18  1  0
 30 26  1  0
  3 34  1  0
  3 35  1  0
  5 36  1  0
  6 37  1  0
  7 38  1  0
  8 39  1  0
 13 40  1  0
 14 41  1  0
 15 42  1  0
 17 43  1  0
 17 44  1  0
 19 45  1  0
 19 46  1  0
 20 47  1  0
 20 48  1  0
 21 49  1  0
 24 50  1  0
 25 51  1  0
 25 52  1  0
 28 53  1  0
 29 54  1  0
 31 55  1  0
 31 56  1  0
 32 57  1  0
 32 58  1  0
 33 59  1  0
M  CHG  1  11  -1
M  END
>  <UniqueID>  (42) 
38

>  <SMILES>  (42) 
O=C(Cc1ccccc1F)[N-]c1cccc(CN2CCC(C(=O)NCc3ncco3)CC2)c1

>  <Energy>  (42) 
95.44135477059795

>  <Genealogy>  (42) 
O=C(Cc1ccccc1F)[N-]c1cccc(CN2CCC(C(=O)NCc3ncco3)CC2)c1 (protonated)
O=C(Cc1ccccc1F)[N-]c1cccc(CN2CCC(C(=O)NCc3ncco3)CC2)c1 (3D coordinates assigned)
O=C(Cc1ccccc1F)[N-]c1cccc(CN2CCC(C(=O)NCc3ncco3)CC2)c1 (nonaromatic ring conformer: 95.44135477059795 kcal/mol)

>  <smiles>  (42) 
O=C(Cc1ccccc1F)Nc1cccc(CN2CCC(C(=O)NCc3ncco3)CC2)c1

>  <score_type>  (42) 
oracle

>  <origin>  (42) 
adg

>  <m_score__min__energy>  (42) 
-10.630000000000001

>  <m_primary>  (42) 
energy

$$$$
42:0
     RDKit          3D

 44 46  0  0  0  0  0  0  0  0999 V2000
   -1.7550   19.8160  -33.8390 C   0  0  0  0  0  0  0  0  0  0  0  0
   -1.8640   21.1600  -33.5020 C   0  0  0  0  0  0  0  0  0  0  0  0
   -3.4570   21.4660  -33.0580 S   0  0  0  0  0  0  0  0  0  0  0  0
   -4.0160   19.8970  -33.2950 C   0  0  0  0  0  0  0  0  0  0  0  0
   -5.3860   19.4270  -33.0620 C   0  0  0  0  0  0  0  0  0  0  0  0
   -5.9300   18.2350  -33.5070 C   0  0  0  0  0  0  0  0  0  0  0  0
   -7.2410   18.2390  -33.0810 C   0  0  0  0  0  0  0  0  0  0  0  0
   -7.4100   19.4300  -32.4020 C   0  0  0  0  0  0  0  0  0  0  0  0
   -8.6910   19.9340  -31.8070 C   0  0  0  0  0  0  0  0  0  0  0  0
   -8.4670   21.0990  -30.9300 N   0  0  0  0  0  0  0  0  0  0  0  0
   -9.2230   22.2990  -31.3560 C   0  0  0  0  0  0  0  0  0  0  0  0
   -8.4040   23.1810  -32.3190 C   0  0  0  0  0  0  0  0  0  0  0  0
   -6.9070   23.1350  -31.9880 C   0  0  0  0  0  0  0  0  0  0  0  0
   -6.7030   23.3020  -30.5310 N   0  0  0  0  0  0  0  0  0  0  0  0
   -5.4040   22.7550  -30.0910 C   0  0  0  0  0  0  0  0  0  0  0  0
   -4.2220   23.6330  -30.5730 C   0  0  0  0  0  0  0  0  0  0  0  0
   -4.6120   24.9440  -30.9430 O   0  0  0  0  0  0  0  0  0  0  0  0
   -5.5250   25.4630  -30.0010 C   0  0  0  0  0  0  0  0  0  0  0  0
   -6.8660   24.7090  -30.0870 C   0  0  0  0  0  0  0  0  0  0  0  0
   -6.2900   20.1140  -32.4040 O   0  0  0  0  0  0  0  0  0  0  0  0
   -2.9560   19.1080  -33.7210 C   0  0  0  0  0  0  0  0  0  0  0  0
   -0.8131   19.3525  -34.1676 H   0  0  0  0  0  0  0  0  0  0  0  0
   -1.0480   21.8974  -33.5222 H   0  0  0  0  0  0  0  0  0  0  0  0
   -5.4214   17.4471  -34.0819 H   0  0  0  0  0  0  0  0  0  0  0  0
   -7.9958   17.4563  -33.2472 H   0  0  0  0  0  0  0  0  0  0  0  0
   -9.3707   20.2265  -32.6209 H   0  0  0  0  0  0  0  0  0  0  0  0
   -9.1262   19.1272  -31.1990 H   0  0  0  0  0  0  0  0  0  0  0  0
   -8.6840   20.8400  -29.9380 H   0  0  0  0  0  0  0  0  0  0  0  0
   -7.4460   21.3240  -30.9680 H   0  0  0  0  0  0  0  0  0  0  0  0
  -10.1440   21.9775  -31.8642 H   0  0  0  0  0  0  0  0  0  0  0  0
   -9.4524   22.8940  -30.4597 H   0  0  0  0  0  0  0  0  0  0  0  0
   -8.5538   22.8215  -33.3477 H   0  0  0  0  0  0  0  0  0  0  0  0
   -8.7490   24.2201  -32.2131 H   0  0  0  0  0  0  0  0  0  0  0  0
   -6.4940   22.1659  -32.3045 H   0  0  0  0  0  0  0  0  0  0  0  0
   -6.3954   23.9512  -32.5192 H   0  0  0  0  0  0  0  0  0  0  0  0
   -5.3898   22.7095  -28.9920 H   0  0  0  0  0  0  0  0  0  0  0  0
   -5.2877   21.7521  -30.5276 H   0  0  0  0  0  0  0  0  0  0  0  0
   -3.4855   23.7045  -29.7590 H   0  0  0  0  0  0  0  0  0  0  0  0
   -3.8036   23.1523  -31.4696 H   0  0  0  0  0  0  0  0  0  0  0  0
   -5.1080   25.3481  -28.9896 H   0  0  0  0  0  0  0  0  0  0  0  0
   -5.6977   26.5275  -30.2179 H   0  0  0  0  0  0  0  0  0  0  0  0
   -7.3363   24.7123  -29.0926 H   0  0  0  0  0  0  0  0  0  0  0  0
   -7.4898   25.2233  -30.8329 H   0  0  0  0  0  0  0  0  0  0  0  0
   -3.0508   18.0349  -33.9433 H   0  0  0  0  0  0  0  0  0  0  0  0
  1  2  2  0
  2  3  1  0
  3  4  1  0
  4  5  1  0
  5  6  2  0
  6  7  1  0
  7  8  2  0
  8  9  1  0
  9 10  1  0
 10 11  1  0
 11 12  1  0
 12 13  1  0
 13 14  1  0
 14 15  1  0
 15 16  1  0
 16 17  1  0
 17 18  1  0
 18 19  1  0
  8 20  1  0
  4 21  2  0
 21  1  1  0
 20  5  1  0
 19 14  1  0
  1 22  1  0
  2 23  1  0
  6 24  1  0
  7 25  1  0
  9 26  1  0
  9 27  1  0
 10 28  1  0
 10 29  1  0
 11 30  1  0
 11 31  1  0
 12 32  1  0
 12 33  1  0
 13 34  1  0
 13 35  1  0
 15 36  1  0
 15 37  1  0
 16 38  1  0
 16 39  1  0
 18 40  1  0
 18 41  1  0
 19 42  1  0
 19 43  1  0
 21 44  1  0
M  CHG  1  10   1
M  END
>  <UniqueID>  (43) 
39

>  <SMILES>  (43) 
c1csc(-c2ccc(C[NH2+]CCCN3CCOCC3)o2)c1

>  <Energy>  (43) 
102.38547247480484

>  <Genealogy>  (43) 
c1csc(-c2ccc(C[NH2+]CCCN3CCOCC3)o2)c1 (protonated)
c1csc(-c2ccc(C[NH2+]CCCN3CCOCC3)o2)c1 (3D coordinates assigned)
c1csc(-c2ccc(C[NH2+]CCCN3CCOCC3)o2)c1 (nonaromatic ring conformer: 102.38547247480484 kcal/mol)

>  <smiles>  (43) 
c1csc(-c2ccc(CNCCCN3CCOCC3)o2)c1

>  <score_type>  (43) 
oracle

>  <origin>  (43) 
adg

>  <m_score__min__energy>  (43) 
-7.2599999999999998

>  <m_primary>  (43) 
energy

$$$$
43:0
     RDKit          3D

 40 43  0  0  0  0  0  0  0  0999 V2000
   -0.8730   26.4600  -28.2030 C   0  0  0  0  0  0  0  0  0  0  0  0
   -1.7090   25.5860  -28.9520 O   0  0  0  0  0  0  0  0  0  0  0  0
   -1.8450   24.2110  -28.7050 C   0  0  0  0  0  0  0  0  0  0  0  0
   -0.7390   23.3370  -28.7030 C   0  0  0  0  0  0  0  0  0  0  0  0
   -0.9170   21.9750  -28.4460 C   0  0  0  0  0  0  0  0  0  0  0  0
   -2.1930   21.4710  -28.1890 C   0  0  0  0  0  0  0  0  0  0  0  0
   -3.2970   22.3270  -28.1930 C   0  0  0  0  0  0  0  0  0  0  0  0
   -3.1280   23.6920  -28.4560 C   0  0  0  0  0  0  0  0  0  0  0  0
   -4.2710   24.5470  -28.4870 N   0  0  0  0  0  0  0  0  0  0  0  0
   -5.0620   24.9090  -29.9810 S   0  0  0  0  0  0  0  0  0  0  0  0
   -4.0800   25.5590  -30.9140 O   0  0  0  0  0  0  0  0  0  0  0  0
   -6.1950   25.8670  -29.7350 O   0  0  0  0  0  0  0  0  0  0  0  0
   -5.6740   23.4260  -30.7060 C   0  0  0  0  0  0  0  0  0  0  0  0
   -7.0510   23.2890  -30.9950 C   0  0  0  0  0  0  0  0  0  0  0  0
   -7.5330   22.1390  -31.6420 C   0  0  0  0  0  0  0  0  0  0  0  0
   -6.6270   21.1420  -32.0040 C   0  0  0  0  0  0  0  0  0  0  0  0
   -6.9620   19.9990  -32.6540 N   0  0  0  0  0  0  0  0  0  0  0  0
   -5.8680   19.2340  -32.8840 C   0  0  0  0  0  0  0  0  0  0  0  0
   -5.9210   17.9420  -33.5720 C   0  0  0  0  0  0  0  0  0  0  0  0
   -6.8730   17.0150  -33.3590 N   0  0  0  0  0  0  0  0  0  0  0  0
   -6.4890   16.0460  -34.2150 C   0  0  0  0  0  0  0  0  0  0  0  0
   -7.1850   14.7330  -34.3420 C   0  0  0  0  0  0  0  0  0  0  0  0
   -5.3660   16.3610  -34.8880 N   0  0  0  0  0  0  0  0  0  0  0  0
   -5.0490   17.5470  -34.4650 O   0  0  0  0  0  0  0  0  0  0  0  0
   -4.4480   19.9460  -32.2920 S   0  0  0  0  0  0  0  0  0  0  0  0
   -5.2800   21.2840  -31.7170 C   0  0  0  0  0  0  0  0  0  0  0  0
   -4.7750   22.4080  -31.0700 C   0  0  0  0  0  0  0  0  0  0  0  0
   -1.0350   26.2907  -27.1282 H   0  0  0  0  0  0  0  0  0  0  0  0
    0.1802   26.2617  -28.4508 H   0  0  0  0  0  0  0  0  0  0  0  0
   -1.1178   27.5034  -28.4508 H   0  0  0  0  0  0  0  0  0  0  0  0
    0.2688   23.7289  -28.9047 H   0  0  0  0  0  0  0  0  0  0  0  0
   -0.0496   21.2986  -28.4462 H   0  0  0  0  0  0  0  0  0  0  0  0
   -2.3294   20.3991  -27.9832 H   0  0  0  0  0  0  0  0  0  0  0  0
   -4.3015   21.9278  -27.9891 H   0  0  0  0  0  0  0  0  0  0  0  0
   -7.7505   24.0891  -30.7111 H   0  0  0  0  0  0  0  0  0  0  0  0
   -8.6055   22.0267  -31.8592 H   0  0  0  0  0  0  0  0  0  0  0  0
   -7.3975   14.3322  -33.3399 H   0  0  0  0  0  0  0  0  0  0  0  0
   -8.1290   14.8699  -34.8899 H   0  0  0  0  0  0  0  0  0  0  0  0
   -6.5419   14.0286  -34.8899 H   0  0  0  0  0  0  0  0  0  0  0  0
   -3.7011   22.4976  -30.8493 H   0  0  0  0  0  0  0  0  0  0  0  0
  1  2  1  0
  2  3  1  0
  3  4  2  0
  4  5  1  0
  5  6  2  0
  6  7  1  0
  7  8  2  0
  8  9  1  0
  9 10  1  0
 10 11  2  0
 10 12  2  0
 10 13  1  0
 13 14  2  0
 14 15  1  0
 15 16  2  0
 16 17  1  0
 17 18  2  0
 18 19  1  0
 19 20  2  0
 20 21  1  0
 21 22  1  0
 21 23  2  0
 23 24  1  0
 18 25  1  0
 25 26  1  0
 26 27  2  0
  8  3  1  0
 27 13  1  0
 26 16  1  0
 24 19  1  0
  1 28  1  0
  1 29  1  0
  1 30  1  0
  4 31  1  0
  5 32  1  0
  6 33  1  0
  7 34  1  0
 14 35  1  0
 15 36  1  0
 22 37  1  0
 22 38  1  0
 22 39  1  0
 27 40  1  0
M  CHG  1   9  -1
M  END
>  <UniqueID>  (44) 
40

>  <SMILES>  (44) 
COc1ccccc1[N-]S(=O)(=O)c1ccc2nc(-c3nc(C)no3)sc2c1

>  <Energy>  (44) 
115.82875124794265

>  <Genealogy>  (44) 
COc1ccccc1[N-]S(=O)(=O)c1ccc2nc(-c3nc(C)no3)sc2c1 (protonated)
COc1ccccc1[N-]S(=O)(=O)c1ccc2nc(-c3nc(C)no3)sc2c1 (3D coordinates assigned)
COc1ccccc1[N-]S(=O)(=O)c1ccc2nc(-c3nc(C)no3)sc2c1 (optimized conformer: 115.82875124794265 kcal/mol)

>  <smiles>  (44) 
COc1ccccc1NS(=O)(=O)c1ccc2nc(-c3nc(C)no3)sc2c1

>  <score_type>  (44) 
oracle

>  <origin>  (44) 
adg

>  <m_score__min__energy>  (44) 
-10.73

>  <m_primary>  (44) 
energy

$$$$
44:0
     RDKit          3D

 32 33  0  0  0  0  0  0  0  0999 V2000
   -0.0940   23.0230  -25.7890 C   0  0  0  0  0  0  0  0  0  0  0  0
   -1.3560   23.3520  -26.5410 C   0  0  0  0  0  0  0  0  0  0  0  0
   -1.8790   22.4210  -27.4520 C   0  0  0  0  0  0  0  0  0  0  0  0
   -3.0480   22.6980  -28.1620 C   0  0  0  0  0  0  0  0  0  0  0  0
   -3.7290   23.9050  -27.9640 C   0  0  0  0  0  0  0  0  0  0  0  0
   -4.9190   24.1720  -28.7250 N   0  0  0  0  0  0  0  0  0  0  0  0
   -4.9230   24.7750  -30.0290 C   0  0  0  0  0  0  0  0  0  0  0  0
   -3.8760   25.3000  -30.4970 O   0  0  0  0  0  0  0  0  0  0  0  0
   -6.1990   24.8680  -30.8050 C   0  0  0  0  0  0  0  0  0  0  0  0
   -6.5990   23.5140  -31.2960 C   0  0  0  0  0  0  0  0  0  0  0  0
   -7.8940   23.0120  -31.3360 C   0  0  0  0  0  0  0  0  0  0  0  0
   -7.9730   21.7410  -31.9170 C   0  0  0  0  0  0  0  0  0  0  0  0
   -6.7480   21.2470  -32.3470 C   0  0  0  0  0  0  0  0  0  0  0  0
   -5.5660   22.3950  -32.0070 S   0  0  0  0  0  0  0  0  0  0  0  0
   -3.2030   24.8510  -27.0700 C   0  0  0  0  0  0  0  0  0  0  0  0
   -2.0290   24.5820  -26.3440 C   0  0  0  0  0  0  0  0  0  0  0  0
   -1.4930   25.6220  -25.3950 C   0  0  0  0  0  0  0  0  0  0  0  0
   -0.2879   23.0736  -24.7074 H   0  0  0  0  0  0  0  0  0  0  0  0
    0.2374   22.0084  -26.0551 H   0  0  0  0  0  0  0  0  0  0  0  0
    0.6906   23.7466  -26.0551 H   0  0  0  0  0  0  0  0  0  0  0  0
   -1.3618   21.4628  -27.6079 H   0  0  0  0  0  0  0  0  0  0  0  0
   -3.4370   21.9630  -28.8821 H   0  0  0  0  0  0  0  0  0  0  0  0
   -5.8440   24.0050  -28.2650 H   0  0  0  0  0  0  0  0  0  0  0  0
   -6.9915   25.2689  -30.1560 H   0  0  0  0  0  0  0  0  0  0  0  0
   -6.0495   25.5348  -31.6669 H   0  0  0  0  0  0  0  0  0  0  0  0
   -8.7678   23.5577  -30.9505 H   0  0  0  0  0  0  0  0  0  0  0  0
   -8.9165   21.1855  -32.0231 H   0  0  0  0  0  0  0  0  0  0  0  0
   -6.5796   20.2720  -32.8276 H   0  0  0  0  0  0  0  0  0  0  0  0
   -3.7157   25.8149  -26.9357 H   0  0  0  0  0  0  0  0  0  0  0  0
   -1.6618   25.2944  -24.3586 H   0  0  0  0  0  0  0  0  0  0  0  0
   -0.4145   25.7540  -25.5667 H   0  0  0  0  0  0  0  0  0  0  0  0
   -2.0112   26.5769  -25.5667 H   0  0  0  0  0  0  0  0  0  0  0  0
  1  2  1  0
  2  3  2  0
  3  4  1  0
  4  5  2  0
  5  6  1  0
  6  7  1  0
  7  8  2  0
  7  9  1  0
  9 10  1  0
 10 11  2  0
 11 12  1  0
 12 13  2  0
 13 14  1  0
  5 15  1  0
 15 16  2  0
 16 17  1  0
 16  2  1  0
 14 10  1  0
  1 18  1  0
  1 19  1  0
  1 20  1  0
  3 21  1  0
  4 22  1  0
  6 23  1  0
  9 24  1  0
  9 25  1  0
 11 26  1  0
 12 27  1  0
 13 28  1  0
 15 29  1  0
 17 30  1  0
 17 31  1  0
 17 32  1  0
M  END
>  <UniqueID>  (45) 
41

>  <SMILES>  (45) 
Cc1ccc(NC(=O)Cc2cccs2)cc1C

>  <Energy>  (45) 
58.46114313459559

>  <Genealogy>  (45) 
Cc1ccc(NC(=O)Cc2cccs2)cc1C (3D coordinates assigned)
Cc1ccc(NC(=O)Cc2cccs2)cc1C (optimized conformer: 58.46114313459559 kcal/mol)

>  <smiles>  (45) 
Cc1ccc(NC(=O)Cc2cccs2)cc1C

>  <score_type>  (45) 
oracle

>  <origin>  (45) 
adg

>  <m_score__min__energy>  (45) 
-7.2999999999999998

>  <m_primary>  (45) 
energy

$$$$
45:0
     RDKit          3D

 36 37  0  0  0  0  0  0  0  0999 V2000
   -2.7260   23.4910  -29.5560 C   0  0  0  0  0  0  0  0  0  0  0  0
   -3.8200   24.5400  -29.3930 C   0  0  0  0  0  0  0  0  0  0  0  0
   -4.0980   25.1910  -30.6820 N   0  0  0  0  0  0  0  0  0  0  0  0
   -5.5220   25.5430  -30.8550 C   0  0  0  0  0  0  0  0  0  0  0  0
   -6.4750   24.5390  -30.1820 C   0  0  0  0  0  0  0  0  0  0  0  0
   -6.4510   23.1940  -30.8580 C   0  0  0  0  0  0  0  0  0  0  0  0
   -7.4770   22.2670  -30.6200 C   0  0  0  0  0  0  0  0  0  0  0  0
   -7.4810   21.0330  -31.2770 C   0  0  0  0  0  0  0  0  0  0  0  0
   -6.4620   20.7060  -32.1890 C   0  0  0  0  0  0  0  0  0  0  0  0
   -6.4690   19.3980  -32.8930 C   0  0  0  0  0  0  0  0  0  0  0  0
   -7.1970   18.3100  -32.3720 C   0  0  0  0  0  0  0  0  0  0  0  0
   -7.2020   17.0800  -33.0380 C   0  0  0  0  0  0  0  0  0  0  0  0
   -6.4850   16.9220  -34.2260 C   0  0  0  0  0  0  0  0  0  0  0  0
   -5.7610   17.9930  -34.7510 C   0  0  0  0  0  0  0  0  0  0  0  0
   -5.7500   19.2250  -34.0900 C   0  0  0  0  0  0  0  0  0  0  0  0
   -5.4370   21.6400  -32.4270 C   0  0  0  0  0  0  0  0  0  0  0  0
   -5.4330   22.8720  -31.7680 C   0  0  0  0  0  0  0  0  0  0  0  0
   -2.3828   23.1619  -28.5641 H   0  0  0  0  0  0  0  0  0  0  0  0
   -3.1245   22.6288  -30.1108 H   0  0  0  0  0  0  0  0  0  0  0  0
   -1.8813   23.9253  -30.1108 H   0  0  0  0  0  0  0  0  0  0  0  0
   -4.7365   24.0547  -29.0263 H   0  0  0  0  0  0  0  0  0  0  0  0
   -3.4827   25.3003  -28.6732 H   0  0  0  0  0  0  0  0  0  0  0  0
   -3.4950   26.0420  -30.7760 H   0  0  0  0  0  0  0  0  0  0  0  0
   -5.6933   26.5371  -30.4164 H   0  0  0  0  0  0  0  0  0  0  0  0
   -5.7362   25.5281  -31.9338 H   0  0  0  0  0  0  0  0  0  0  0  0
   -6.1735   24.4133  -29.1316 H   0  0  0  0  0  0  0  0  0  0  0  0
   -7.4970   24.9384  -30.2592 H   0  0  0  0  0  0  0  0  0  0  0  0
   -8.2827   22.5126  -29.9125 H   0  0  0  0  0  0  0  0  0  0  0  0
   -8.2878   20.3121  -31.0789 H   0  0  0  0  0  0  0  0  0  0  0  0
   -7.7642   18.4284  -31.4370 H   0  0  0  0  0  0  0  0  0  0  0  0
   -7.7722   16.2349  -32.6249 H   0  0  0  0  0  0  0  0  0  0  0  0
   -6.4910   15.9536  -34.7476 H   0  0  0  0  0  0  0  0  0  0  0  0
   -5.1974   17.8677  -35.6873 H   0  0  0  0  0  0  0  0  0  0  0  0
   -5.1755   20.0645  -34.5085 H   0  0  0  0  0  0  0  0  0  0  0  0
   -4.6326   21.3984  -33.1374 H   0  0  0  0  0  0  0  0  0  0  0  0
   -4.6266   23.5940  -31.9639 H   0  0  0  0  0  0  0  0  0  0  0  0
  1  2  1  0
  2  3  1  0
  3  4  1  0
  4  5  1  0
  5  6  1  0
  6  7  2  0
  7  8  1  0
  8  9  2  0
  9 10  1  0
 10 11  2  0
 11 12  1  0
 12 13  2  0
 13 14  1  0
 14 15  2  0
  9 16  1  0
 16 17  2  0
 17  6  1  0
 15 10  1  0
  1 18  1  0
  1 19  1  0
  1 20  1  0
  2 21  1  0
  2 22  1  0
  3 23  1  0
  4 24  1  0
  4 25  1  0
  5 26  1  0
  5 27  1  0
  7 28  1  0
  8 29  1  0
 11 30  1  0
 12 31  1  0
 13 32  1  0
 14 33  1  0
 15 34  1  0
 16 35  1  0
 17 36  1  0
M  END
>  <UniqueID>  (46) 
42

>  <SMILES>  (46) 
CCNCCc1ccc(-c2ccccc2)cc1

>  <Energy>  (46) 
38.23194718898821

>  <Genealogy>  (46) 
CCNCCc1ccc(-c2ccccc2)cc1 (3D coordinates assigned)
CCNCCc1ccc(-c2ccccc2)cc1 (optimized conformer: 38.23194718898821 kcal/mol)

>  <smiles>  (46) 
CCNCCc1ccc(-c2ccccc2)cc1

>  <score_type>  (46) 
oracle

>  <origin>  (46) 
adg

>  <m_score__min__energy>  (46) 
-7.8700000000000001

>  <m_primary>  (46) 
energy

$$$$
46:0
     RDKit          3D

 41 43  0  0  0  0  0  0  0  0999 V2000
   -1.8390   21.2050  -32.7310 C   0  0  0  0  0  0  0  0  0  0  0  0
   -2.9110   21.1440  -31.6440 C   0  0  0  0  0  0  0  0  0  0  0  0
   -4.2780   21.1890  -32.2150 N   0  0  0  0  0  0  0  0  0  0  0  0
   -4.6270   22.5420  -32.7200 C   0  0  0  0  0  0  0  0  0  0  0  0
   -5.1000   23.4120  -31.5920 C   0  0  0  0  0  0  0  0  0  0  0  0
   -6.4680   23.5240  -31.3010 C   0  0  0  0  0  0  0  0  0  0  0  0
   -6.8800   24.3470  -30.2510 C   0  0  0  0  0  0  0  0  0  0  0  0
   -5.9320   25.0560  -29.5100 C   0  0  0  0  0  0  0  0  0  0  0  0
   -4.5790   24.9310  -29.8360 C   0  0  0  0  0  0  0  0  0  0  0  0
   -4.1970   24.1240  -30.8610 N   0  0  0  0  0  0  0  0  0  0  0  0
   -4.4170   20.1720  -33.2800 C   0  0  0  0  0  0  0  0  0  0  0  0
   -5.5720   19.2560  -32.9740 C   0  0  0  0  0  0  0  0  0  0  0  0
   -5.5200   17.8720  -32.8760 C   0  0  0  0  0  0  0  0  0  0  0  0
   -4.3040   17.0210  -33.0500 C   0  0  0  0  0  0  0  0  0  0  0  0
   -6.7300   17.3820  -32.5150 N   0  0  0  0  0  0  0  0  0  0  0  0
   -7.4950   18.4880  -32.4120 C   0  0  0  0  0  0  0  0  0  0  0  0
   -8.8420   18.5080  -32.0530 C   0  0  0  0  0  0  0  0  0  0  0  0
   -9.4810   19.7560  -31.9810 C   0  0  0  0  0  0  0  0  0  0  0  0
   -8.7670   20.9360  -32.2640 C   0  0  0  0  0  0  0  0  0  0  0  0
   -7.4130   20.8580  -32.6180 C   0  0  0  0  0  0  0  0  0  0  0  0
   -6.8310   19.6290  -32.6780 N   0  0  0  0  0  0  0  0  0  0  0  0
   -0.8451   21.2616  -32.2630 H   0  0  0  0  0  0  0  0  0  0  0  0
   -1.8990   20.3020  -33.3563 H   0  0  0  0  0  0  0  0  0  0  0  0
   -2.0011   22.0954  -33.3563 H   0  0  0  0  0  0  0  0  0  0  0  0
   -2.7920   20.2078  -31.0789 H   0  0  0  0  0  0  0  0  0  0  0  0
   -2.7848   22.0196  -30.9903 H   0  0  0  0  0  0  0  0  0  0  0  0
   -3.7386   22.9974  -33.1819 H   0  0  0  0  0  0  0  0  0  0  0  0
   -5.4324   22.4501  -33.4635 H   0  0  0  0  0  0  0  0  0  0  0  0
   -7.2091   22.9686  -31.8946 H   0  0  0  0  0  0  0  0  0  0  0  0
   -7.9490   24.4368  -30.0079 H   0  0  0  0  0  0  0  0  0  0  0  0
   -6.2467   25.7051  -28.6796 H   0  0  0  0  0  0  0  0  0  0  0  0
   -3.8222   25.4863  -29.2625 H   0  0  0  0  0  0  0  0  0  0  0  0
   -4.5964   20.6747  -34.2418 H   0  0  0  0  0  0  0  0  0  0  0  0
   -3.4921   19.5790  -33.3341 H   0  0  0  0  0  0  0  0  0  0  0  0
   -3.9067   16.7430  -32.0627 H   0  0  0  0  0  0  0  0  0  0  0  0
   -4.5701   16.1110  -33.6077 H   0  0  0  0  0  0  0  0  0  0  0  0
   -3.5401   17.5827  -33.6077 H   0  0  0  0  0  0  0  0  0  0  0  0
   -9.3858   17.5773  -31.8336 H   0  0  0  0  0  0  0  0  0  0  0  0
  -10.5437   19.8121  -31.7024 H   0  0  0  0  0  0  0  0  0  0  0  0
   -9.2687   21.9133  -32.2076 H   0  0  0  0  0  0  0  0  0  0  0  0
   -6.8354   21.7670  -32.8417 H   0  0  0  0  0  0  0  0  0  0  0  0
  1  2  1  0
  2  3  1  0
  3  4  1  0
  4  5  1  0
  5  6  2  0
  6  7  1  0
  7  8  2  0
  8  9  1  0
  9 10  2  0
  3 11  1  0
 11 12  1  0
 12 13  2  0
 13 14  1  0
 13 15  1  0
 15 16  2  0
 16 17  1  0
 17 18  2  0
 18 19  1  0
 19 20  2  0
 20 21  1  0
 10  5  1  0
 21 12  1  0
 21 16  1  0
  1 22  1  0
  1 23  1  0
  1 24  1  0
  2 25  1  0
  2 26  1  0
  4 27  1  0
  4 28  1  0
  6 29  1  0
  7 30  1  0
  8 31  1  0
  9 32  1  0
 11 33  1  0
 11 34  1  0
 14 35  1  0
 14 36  1  0
 14 37  1  0
 17 38  1  0
 18 39  1  0
 19 40  1  0
 20 41  1  0
M  END
>  <UniqueID>  (47) 
43

>  <SMILES>  (47) 
CCN(Cc1ccccn1)Cc1c(C)nc2ccccn12

>  <Energy>  (47) 
76.64055480164555

>  <Genealogy>  (47) 
CCN(Cc1ccccn1)Cc1c(C)nc2ccccn12 (3D coordinates assigned)
CCN(Cc1ccccn1)Cc1c(C)nc2ccccn12 (optimized conformer: 76.64055480164555 kcal/mol)

>  <smiles>  (47) 
CCN(Cc1ccccn1)Cc1c(C)nc2ccccn12

>  <score_type>  (47) 
oracle

>  <origin>  (47) 
adg

>  <m_score__min__energy>  (47) 
-7.7400000000000002

>  <m_primary>  (47) 
energy

$$$$
47:0
     RDKit          3D

 60 62  0  0  0  0  0  0  0  0999 V2000
   -9.1310   19.7940  -32.3600 C   0  0  0  0  0  0  0  0  0  0  0  0
   -8.7820   20.8190  -31.2840 C   0  0  0  0  0  0  0  0  0  0  0  0
   -8.9870   22.2510  -31.7980 C   0  0  0  0  0  0  0  0  0  0  0  0
   -7.7400   23.1350  -31.6170 C   0  0  0  0  0  0  0  0  0  0  0  0
   -7.0880   23.0660  -30.2220 C   0  0  0  0  0  0  0  0  0  0  0  0
   -6.4370   24.3760  -29.7410 C   0  0  0  0  0  0  0  0  0  0  0  0
   -5.7770   25.1640  -30.8730 C   0  0  0  0  0  0  0  0  0  0  0  0
   -4.4950   24.6070  -31.1490 O   0  0  0  0  0  0  0  0  0  0  0  0
   -3.6900   23.9840  -30.1850 C   0  0  0  0  0  0  0  0  0  0  0  0
   -3.1680   24.5830  -29.1270 C   0  0  0  0  0  0  0  0  0  0  0  0
   -2.4180   23.6280  -28.2600 C   0  0  2  0  0  0  0  0  0  0  0  0
   -1.1100   24.1580  -27.8340 N   0  0  0  0  0  0  0  0  0  0  0  0
    0.0540   24.1700  -28.5440 C   0  0  0  0  0  0  0  0  0  0  0  0
    1.1430   24.5290  -27.8100 N   0  0  0  0  0  0  0  0  0  0  0  0
    0.6230   24.7190  -26.5860 C   0  0  0  0  0  0  0  0  0  0  0  0
    1.2730   25.0290  -25.3980 C   0  0  0  0  0  0  0  0  0  0  0  0
    3.0010   25.3280  -25.3530 Cl  0  0  0  0  0  0  0  0  0  0  0  0
    0.5230   25.0750  -24.2560 N   0  0  0  0  0  0  0  0  0  0  0  0
   -0.8230   24.8080  -24.2810 C   0  0  0  0  0  0  0  0  0  0  0  0
   -1.4480   24.4950  -25.4560 N   0  0  0  0  0  0  0  0  0  0  0  0
   -0.7070   24.4770  -26.5900 C   0  0  0  0  0  0  0  0  0  0  0  0
   -2.2980   22.3750  -29.1520 C   0  0  0  0  0  0  0  0  0  0  0  0
   -3.3600   22.5410  -30.2480 C   0  0  2  0  0  0  0  0  0  0  0  0
   -2.8360   22.2320  -31.5270 O   0  0  0  0  0  0  0  0  0  0  0  0
   -3.5380   21.1540  -32.1160 C   0  0  0  0  0  0  0  0  0  0  0  0
   -4.8540   21.6520  -32.7230 C   0  0  0  0  0  0  0  0  0  0  0  0
   -5.7640   20.4790  -33.1060 C   0  0  0  0  0  0  0  0  0  0  0  0
   -5.6060   19.3170  -32.1290 C   0  0  0  0  0  0  0  0  0  0  0  0
   -9.4505   18.8558  -31.8828 H   0  0  0  0  0  0  0  0  0  0  0  0
   -9.9472   20.1833  -32.9863 H   0  0  0  0  0  0  0  0  0  0  0  0
   -8.2468   19.6043  -32.9863 H   0  0  0  0  0  0  0  0  0  0  0  0
   -9.4281   20.6554  -30.4089 H   0  0  0  0  0  0  0  0  0  0  0  0
   -7.7236   20.6935  -31.0119 H   0  0  0  0  0  0  0  0  0  0  0  0
   -9.2345   22.2078  -32.8689 H   0  0  0  0  0  0  0  0  0  0  0  0
   -9.7997   22.7008  -31.2087 H   0  0  0  0  0  0  0  0  0  0  0  0
   -6.9905   22.8235  -32.3595 H   0  0  0  0  0  0  0  0  0  0  0  0
   -8.0786   24.1735  -31.7464 H   0  0  0  0  0  0  0  0  0  0  0  0
   -7.8650   22.7847  -29.4960 H   0  0  0  0  0  0  0  0  0  0  0  0
   -6.2746   22.3295  -30.2995 H   0  0  0  0  0  0  0  0  0  0  0  0
   -7.2133   25.0055  -29.2815 H   0  0  0  0  0  0  0  0  0  0  0  0
   -5.6485   24.1079  -29.0224 H   0  0  0  0  0  0  0  0  0  0  0  0
   -6.4043   25.1070  -31.7748 H   0  0  0  0  0  0  0  0  0  0  0  0
   -5.6648   26.2163  -30.5729 H   0  0  0  0  0  0  0  0  0  0  0  0
   -3.2742   25.6566  -28.9123 H   0  0  0  0  0  0  0  0  0  0  0  0
   -2.9250   23.4225  -27.3057 H   0  0  0  0  0  0  0  0  0  0  0  0
    0.1082   23.9131  -29.6122 H   0  0  0  0  0  0  0  0  0  0  0  0
    0.9810   25.3040  -23.3460 H   0  0  0  0  0  0  0  0  0  0  0  0
   -1.4039   24.8462  -23.3477 H   0  0  0  0  0  0  0  0  0  0  0  0
   -1.2938   22.3159  -29.5970 H   0  0  0  0  0  0  0  0  0  0  0  0
   -2.4509   21.4506  -28.5757 H   0  0  0  0  0  0  0  0  0  0  0  0
   -4.2226   21.8752  -30.0973 H   0  0  0  0  0  0  0  0  0  0  0  0
   -2.9191   20.7056  -32.9071 H   0  0  0  0  0  0  0  0  0  0  0  0
   -3.7592   20.4031  -31.3432 H   0  0  0  0  0  0  0  0  0  0  0  0
   -5.3728   22.2837  -31.9869 H   0  0  0  0  0  0  0  0  0  0  0  0
   -4.6239   22.2270  -33.6321 H   0  0  0  0  0  0  0  0  0  0  0  0
   -6.8104   20.8179  -33.0945 H   0  0  0  0  0  0  0  0  0  0  0  0
   -5.4804   20.1312  -34.1103 H   0  0  0  0  0  0  0  0  0  0  0  0
   -5.6575   19.6956  -31.0975 H   0  0  0  0  0  0  0  0  0  0  0  0
   -6.4133   18.5880  -32.2927 H   0  0  0  0  0  0  0  0  0  0  0  0
   -4.6334   18.8300  -32.2927 H   0  0  0  0  0  0  0  0  0  0  0  0
  1  2  1  0
  2  3  1  0
  3  4  1  0
  4  5  1  0
  5  6  1  0
  6  7  1  0
  7  8  1  0
  8  9  1  0
  9 10  2  0
 10 11  1  0
 11 12  1  0
 12 13  1  0
 13 14  2  0
 14 15  1  0
 15 16  2  0
 16 17  1  0
 16 18  1  0
 18 19  2  0
 19 20  1  0
 20 21  2  0
 11 22  1  0
 22 23  1  0
 23 24  1  0
 24 25  1  0
 25 26  1  0
 26 27  1  0
 27 28  1  0
 23  9  1  0
 21 12  1  0
 21 15  1  0
  1 29  1  0
  1 30  1  0
  1 31  1  0
  2 32  1  0
  2 33  1  0
  3 34  1  0
  3 35  1  0
  4 36  1  0
  4 37  1  0
  5 38  1  0
  5 39  1  0
  6 40  1  0
  6 41  1  0
  7 42  1  0
  7 43  1  0
 10 44  1  0
 11 45  1  1
 13 46  1  0
 18 47  1  0
 19 48  1  0
 22 49  1  0
 22 50  1  0
 23 51  1  1
 25 52  1  0
 25 53  1  0
 26 54  1  0
 26 55  1  0
 27 56  1  0
 27 57  1  0
 28 58  1  0
 28 59  1  0
 28 60  1  0
M  CHG  1  18   1
M  END
>  <UniqueID>  (48) 
44

>  <SMILES>  (48) 
CCCCCCCOC1=C[C@H](n2cnc3c(Cl)[nH+]cnc32)C[C@@H]1OCCCC

>  <Energy>  (48) 
92.90334905290179

>  <Genealogy>  (48) 
CCCCCCCOC1=CC(n2cnc3c(Cl)[nH+]cnc32)CC1OCCCC (protonated)
CCCCCCCOC1=C[C@H](n2cnc3c(Cl)[nH+]cnc32)C[C@@H]1OCCCC (chirality)
CCCCCCCOC1=C[C@H](n2cnc3c(Cl)[nH+]cnc32)C[C@@H]1OCCCC (3D coordinates assigned)
CCCCCCCOC1=C[C@H](n2cnc3c(Cl)[nH+]cnc32)C[C@@H]1OCCCC (nonaromatic ring conformer: 92.90334905290179 kcal/mol)

>  <smiles>  (48) 
CCCCCCCOC1=CC(n2cnc3c(Cl)ncnc32)CC1OCCCC

>  <score_type>  (48) 
oracle

>  <origin>  (48) 
adg

>  <m_score__min__energy>  (48) 
-8.5399999999999991

>  <m_primary>  (48) 
energy

$$$$
48:0
     RDKit          3D

 35 38  0  0  0  0  0  0  0  0999 V2000
   -2.1600   19.6090  -33.8440 C   0  0  0  0  0  0  0  0  0  0  0  0
   -3.3410   18.7040  -33.9900 C   0  0  0  0  0  0  0  0  0  0  0  0
   -3.2410   17.5110  -34.7130 C   0  0  0  0  0  0  0  0  0  0  0  0
   -4.3230   16.6950  -34.8060 N   0  0  0  0  0  0  0  0  0  0  0  0
   -5.5060   17.0190  -34.2210 C   0  0  0  0  0  0  0  0  0  0  0  0
   -5.6180   18.2220  -33.5080 C   0  0  0  0  0  0  0  0  0  0  0  0
   -6.8680   18.6130  -32.8310 C   0  0  0  0  0  0  0  0  0  0  0  0
   -7.9880   17.7980  -32.6660 C   0  0  0  0  0  0  0  0  0  0  0  0
   -8.9650   18.4580  -32.0030 N   0  0  0  0  0  0  0  0  0  0  0  0
   -8.4640   19.6740  -31.7390 C   0  0  0  0  0  0  0  0  0  0  0  0
   -9.0890   20.6570  -31.0470 N   0  0  0  0  0  0  0  0  0  0  0  0
   -8.4310   21.8290  -30.8090 C   0  0  0  0  0  0  0  0  0  0  0  0
   -7.0970   22.0200  -31.2590 C   0  0  0  0  0  0  0  0  0  0  0  0
   -6.3760   23.2880  -30.9780 C   0  0  0  0  0  0  0  0  0  0  0  0
   -6.9720   24.3030  -30.2110 C   0  0  0  0  0  0  0  0  0  0  0  0
   -6.2790   25.4870  -29.9540 C   0  0  0  0  0  0  0  0  0  0  0  0
   -4.9940   25.6540  -30.4680 C   0  0  0  0  0  0  0  0  0  0  0  0
   -4.4250   24.6680  -31.2100 N   0  0  0  0  0  0  0  0  0  0  0  0
   -5.0760   23.5030  -31.4730 C   0  0  0  0  0  0  0  0  0  0  0  0
   -6.4620   20.9770  -31.9720 C   0  0  0  0  0  0  0  0  0  0  0  0
   -7.1910   19.8130  -32.2160 C   0  0  0  0  0  0  0  0  0  0  0  0
   -4.5230   19.0240  -33.3980 N   0  0  0  0  0  0  0  0  0  0  0  0
   -1.9507   19.7694  -32.7761 H   0  0  0  0  0  0  0  0  0  0  0  0
   -1.2839   19.1489  -34.3243 H   0  0  0  0  0  0  0  0  0  0  0  0
   -2.3764   20.5747  -34.3243 H   0  0  0  0  0  0  0  0  0  0  0  0
   -2.2948   17.2360  -35.2019 H   0  0  0  0  0  0  0  0  0  0  0  0
   -6.3695   16.3429  -34.3059 H   0  0  0  0  0  0  0  0  0  0  0  0
   -8.0660   16.7613  -33.0255 H   0  0  0  0  0  0  0  0  0  0  0  0
   -9.9050   18.0910  -31.7390 H   0  0  0  0  0  0  0  0  0  0  0  0
   -8.9401   22.6360  -30.2617 H   0  0  0  0  0  0  0  0  0  0  0  0
   -7.9876   24.1642  -29.8119 H   0  0  0  0  0  0  0  0  0  0  0  0
   -6.7428   26.2815  -29.3510 H   0  0  0  0  0  0  0  0  0  0  0  0
   -4.4404   26.5843  -30.2729 H   0  0  0  0  0  0  0  0  0  0  0  0
   -4.5841   22.7251  -32.0755 H   0  0  0  0  0  0  0  0  0  0  0  0
   -5.4248   21.0804  -32.3235 H   0  0  0  0  0  0  0  0  0  0  0  0
  1  2  1  0
  2  3  2  0
  3  4  1  0
  4  5  2  0
  5  6  1  0
  6  7  1  0
  7  8  2  0
  8  9  1  0
  9 10  1  0
 10 11  2  0
 11 12  1  0
 12 13  2  0
 13 14  1  0
 14 15  2  0
 15 16  1  0
 16 17  2  0
 17 18  1  0
 18 19  2  0
 13 20  1  0
 20 21  2  0
  6 22  2  0
 22  2  1  0
 21  7  1  0
 21 10  1  0
 19 14  1  0
  1 23  1  0
  1 24  1  0
  1 25  1  0
  3 26  1  0
  5 27  1  0
  8 28  1  0
  9 29  1  0
 12 30  1  0
 15 31  1  0
 16 32  1  0
 17 33  1  0
 19 34  1  0
 20 35  1  0
M  END
>  <UniqueID>  (49) 
45

>  <SMILES>  (49) 
Cc1cncc(-c2c[nH]c3ncc(-c4cccnc4)cc23)n1

>  <Energy>  (49) 
85.0303609365709

>  <Genealogy>  (49) 
Cc1cncc(-c2c[nH]c3ncc(-c4cccnc4)cc23)n1 (3D coordinates assigned)
Cc1cncc(-c2c[nH]c3ncc(-c4cccnc4)cc23)n1 (optimized conformer: 85.0303609365709 kcal/mol)

>  <smiles>  (49) 
Cc1cncc(-c2c[nH]c3ncc(-c4cccnc4)cc23)n1

>  <score_type>  (49) 
oracle

>  <origin>  (49) 
adg

>  <m_score__min__energy>  (49) 
-8.9600000000000009

>  <m_primary>  (49) 
energy

$$$$
49:0
     RDKit          3D

 72 76  0  0  0  0  0  0  0  0999 V2000
   -9.4880   20.0270  -32.3680 C   0  0  0  0  0  0  0  0  0  0  0  0
   -8.5770   19.1080  -31.7730 O   0  0  0  0  0  0  0  0  0  0  0  0
   -7.4130   18.6320  -32.3950 C   0  0  0  0  0  0  0  0  0  0  0  0
   -6.7990   17.4210  -32.0230 C   0  0  0  0  0  0  0  0  0  0  0  0
   -5.6420   16.9900  -32.6760 C   0  0  0  0  0  0  0  0  0  0  0  0
   -5.0700   17.7660  -33.6960 C   0  0  0  0  0  0  0  0  0  0  0  0
   -3.8650   17.2810  -34.3980 C   0  0  0  0  0  0  0  0  0  0  0  0
   -3.8070   16.1850  -35.2350 C   0  0  0  0  0  0  0  0  0  0  0  0
   -2.5270   16.0330  -35.6300 N   0  0  0  0  0  0  0  0  0  0  0  0
   -1.8350   16.9990  -35.0460 N   0  0  0  0  0  0  0  0  0  0  0  0
   -2.6100   17.7750  -34.3020 N   0  0  0  0  0  0  0  0  0  0  0  0
   -2.1060   18.8300  -33.4160 C   0  0  0  0  0  0  0  0  0  0  0  0
   -2.0260   20.1800  -34.1430 C   0  0  0  0  0  0  0  0  0  0  0  0
   -0.7230   20.9300  -33.8230 C   0  0  0  0  0  0  0  0  0  0  0  0
   -0.2660   20.7570  -32.3600 C   0  0  0  0  0  0  0  0  0  0  0  0
   -1.1150   21.5440  -31.3330 C   0  0  0  0  0  0  0  0  0  0  0  0
   -0.3300   22.1380  -30.1490 C   0  0  0  0  0  0  0  0  0  0  0  0
   -1.1410   22.1750  -28.9200 N   0  0  0  0  0  0  0  0  0  0  0  0
   -1.8340   23.4180  -28.5510 C   0  0  0  0  0  0  0  0  0  0  0  0
   -3.2850   23.1460  -28.2180 C   0  0  0  0  0  0  0  0  0  0  0  0
   -4.3120   24.2290  -28.3880 C   0  0  0  0  0  0  0  0  0  0  0  0
   -4.6030   24.4730  -29.8460 C   0  0  0  0  0  0  0  0  0  0  0  0
   -3.8570   25.2740  -30.4720 O   0  0  0  0  0  0  0  0  0  0  0  0
   -5.7550   23.8430  -30.5510 C   0  0  0  0  0  0  0  0  0  0  0  0
   -5.9890   24.0590  -31.9250 C   0  0  0  0  0  0  0  0  0  0  0  0
   -7.0740   23.4530  -32.5650 C   0  0  0  0  0  0  0  0  0  0  0  0
   -7.9390   22.6240  -31.8490 C   0  0  0  0  0  0  0  0  0  0  0  0
   -7.7220   22.4010  -30.4880 C   0  0  0  0  0  0  0  0  0  0  0  0
   -6.6390   23.0060  -29.8420 C   0  0  0  0  0  0  0  0  0  0  0  0
   -3.6440   21.9940  -27.7230 N   0  0  0  0  0  0  0  0  0  0  0  0
   -2.7240   20.9060  -27.5680 C   0  0  0  0  0  0  0  0  0  0  0  0
   -3.1080   19.7520  -26.8790 C   0  0  0  0  0  0  0  0  0  0  0  0
   -2.2130   18.6850  -26.7520 C   0  0  0  0  0  0  0  0  0  0  0  0
   -0.9330   18.7740  -27.3050 C   0  0  0  0  0  0  0  0  0  0  0  0
   -0.5460   19.9230  -28.0030 C   0  0  0  0  0  0  0  0  0  0  0  0
   -1.4520   20.9880  -28.1600 C   0  0  0  0  0  0  0  0  0  0  0  0
   -5.6930   18.9620  -34.0780 C   0  0  0  0  0  0  0  0  0  0  0  0
   -6.8530   19.3930  -33.4270 C   0  0  0  0  0  0  0  0  0  0  0  0
  -10.0275   20.5713  -31.5789 H   0  0  0  0  0  0  0  0  0  0  0  0
   -8.9322   20.7420  -32.9923 H   0  0  0  0  0  0  0  0  0  0  0  0
  -10.2079   19.4774  -32.9923 H   0  0  0  0  0  0  0  0  0  0  0  0
   -7.2318   16.8123  -31.2155 H   0  0  0  0  0  0  0  0  0  0  0  0
   -5.1759   16.0359  -32.3889 H   0  0  0  0  0  0  0  0  0  0  0  0
   -4.6549   15.5484  -35.5279 H   0  0  0  0  0  0  0  0  0  0  0  0
   -0.7990   17.1030  -35.1380 H   0  0  0  0  0  0  0  0  0  0  0  0
   -2.7824   18.9271  -32.5540 H   0  0  0  0  0  0  0  0  0  0  0  0
   -1.0934   18.5526  -33.0878 H   0  0  0  0  0  0  0  0  0  0  0  0
   -2.0767   20.0029  -35.2275 H   0  0  0  0  0  0  0  0  0  0  0  0
   -2.8677   20.8003  -33.8014 H   0  0  0  0  0  0  0  0  0  0  0  0
    0.0701   20.5508  -34.4842 H   0  0  0  0  0  0  0  0  0  0  0  0
   -0.9153   22.0015  -33.9809 H   0  0  0  0  0  0  0  0  0  0  0  0
   -0.3203   19.6882  -32.1057 H   0  0  0  0  0  0  0  0  0  0  0  0
    0.7564   21.1582  -32.2986 H   0  0  0  0  0  0  0  0  0  0  0  0
   -1.6087   22.3718  -31.8631 H   0  0  0  0  0  0  0  0  0  0  0  0
   -1.8179   20.8179  -30.8987 H   0  0  0  0  0  0  0  0  0  0  0  0
    0.5628   21.5214  -29.9683 H   0  0  0  0  0  0  0  0  0  0  0  0
   -0.0512   23.1705  -30.4065 H   0  0  0  0  0  0  0  0  0  0  0  0
   -1.3393   23.8598  -27.6734 H   0  0  0  0  0  0  0  0  0  0  0  0
   -1.7921   24.1115  -29.4038 H   0  0  0  0  0  0  0  0  0  0  0  0
   -5.2405   23.9269  -27.8815 H   0  0  0  0  0  0  0  0  0  0  0  0
   -3.9181   25.1575  -27.9490 H   0  0  0  0  0  0  0  0  0  0  0  0
   -5.3120   24.7098  -32.4978 H   0  0  0  0  0  0  0  0  0  0  0  0
   -7.2467   23.6301  -33.6368 H   0  0  0  0  0  0  0  0  0  0  0  0
   -8.7905   22.1470  -32.3564 H   0  0  0  0  0  0  0  0  0  0  0  0
   -8.4038   21.7485  -29.9229 H   0  0  0  0  0  0  0  0  0  0  0  0
   -6.4758   22.8264  -28.7691 H   0  0  0  0  0  0  0  0  0  0  0  0
   -4.1130   19.6832  -26.4372 H   0  0  0  0  0  0  0  0  0  0  0  0
   -2.5173   17.7740  -26.2158 H   0  0  0  0  0  0  0  0  0  0  0  0
   -0.2273   17.9379  -27.1912 H   0  0  0  0  0  0  0  0  0  0  0  0
    0.4658   19.9938  -28.4287 H   0  0  0  0  0  0  0  0  0  0  0  0
   -5.2673   19.5645  -34.8939 H   0  0  0  0  0  0  0  0  0  0  0  0
   -7.3290   20.3377  -33.7285 H   0  0  0  0  0  0  0  0  0  0  0  0
  1  2  1  0
  2  3  1  0
  3  4  2  0
  4  5  1  0
  5  6  2  0
  6  7  1  0
  7  8  2  0
  8  9  1  0
  9 10  2  0
 10 11  1  0
 11 12  1  0
 12 13  1  0
 13 14  1  0
 14 15  1  0
 15 16  1  0
 16 17  1  0
 17 18  1  0
 18 19  1  0
 19 20  1  0
 20 21  1  0
 21 22  1  0
 22 23  2  0
 22 24  1  0
 24 25  2  0
 25 26  1  0
 26 27  2  0
 27 28  1  0
 28 29  2  0
 20 30  2  0
 30 31  1  0
 31 32  2  0
 32 33  1  0
 33 34  2  0
 34 35  1  0
 35 36  2  0
  6 37  1  0
 37 38  2  0
 38  3  1  0
 11  7  1  0
 36 18  1  0
 29 24  1  0
 36 31  1  0
  1 39  1  0
  1 40  1  0
  1 41  1  0
  4 42  1  0
  5 43  1  0
  8 44  1  0
 10 45  1  0
 12 46  1  0
 12 47  1  0
 13 48  1  0
 13 49  1  0
 14 50  1  0
 14 51  1  0
 15 52  1  0
 15 53  1  0
 16 54  1  0
 16 55  1  0
 17 56  1  0
 17 57  1  0
 19 58  1  0
 19 59  1  0
 21 60  1  0
 21 61  1  0
 25 62  1  0
 26 63  1  0
 27 64  1  0
 28 65  1  0
 29 66  1  0
 32 67  1  0
 33 68  1  0
 34 69  1  0
 35 70  1  0
 37 71  1  0
 38 72  1  0
M  CHG  1  10   1
M  END
>  <UniqueID>  (50) 
46

>  <SMILES>  (50) 
COc1ccc(-c2cn[nH+]n2CCCCCCN2CC(CC(=O)c3ccccc3)=Nc3ccccc32)cc1

>  <Energy>  (50) 
116.18710585394366

>  <Genealogy>  (50) 
COc1ccc(-c2cn[nH+]n2CCCCCCN2CC(CC(=O)c3ccccc3)=Nc3ccccc32)cc1 (protonated)
COc1ccc(-c2cn[nH+]n2CCCCCCN2CC(CC(=O)c3ccccc3)=Nc3ccccc32)cc1 (3D coordinates assigned)
COc1ccc(-c2cn[nH+]n2CCCCCCN2CC(CC(=O)c3ccccc3)=Nc3ccccc32)cc1 (nonaromatic ring conformer: 116.18710585394366 kcal/mol)

>  <smiles>  (50) 
COc1ccc(-c2cnnn2CCCCCCN2CC(CC(=O)c3ccccc3)=Nc3ccccc32)cc1

>  <score_type>  (50) 
oracle

>  <origin>  (50) 
adg

>  <m_score__min__energy>  (50) 
-10.93

>  <m_primary>  (50) 
energy

$$$$
