0:0
     RDKit          3D

 65 68  0  0  0  0  0  0  0  0999 V2000
   -8.5180   19.8480  -32.7720 C   0  0  0  0  0  0  0  0  0  0  0  0
   -7.0530   20.0520  -32.6920 N   0  0  0  0  0  0  0  0  0  0  0  0
   -6.5550   21.1920  -32.0970 C   0  0  0  0  0  0  0  0  0  0  0  0
   -7.3540   22.0150  -31.2640 C   0  0  0  0  0  0  0  0  0  0  0  0
   -6.8520   23.2030  -30.7320 C   0  0  0  0  0  0  0  0  0  0  0  0
   -5.5480   23.5990  -31.0140 C   0  0  0  0  0  0  0  0  0  0  0  0
   -4.7330   22.7960  -31.8040 C   0  0  0  0  0  0  0  0  0  0  0  0
   -5.2120   21.5730  -32.3240 C   0  0  0  0  0  0  0  0  0  0  0  0
   -4.3740   20.7290  -33.0680 C   0  0  0  0  0  0  0  0  0  0  0  0
   -3.1430   21.2590  -33.5740 N   0  0  0  0  0  0  0  0  0  0  0  0
   -2.0530   21.5520  -32.6410 C   0  0  0  0  0  0  0  0  0  0  0  0
   -0.6920   21.1100  -33.2030 C   0  0  0  0  0  0  0  0  0  0  0  0
   -0.8050   20.3970  -34.4950 N   0  0  0  0  0  0  0  0  0  0  0  0
   -0.1090   21.0870  -35.5930 C   0  0  0  0  0  0  0  0  0  0  0  0
    1.4010   21.1340  -35.3490 C   0  0  0  0  0  0  0  0  0  0  0  0
    1.7580   22.3210  -34.7350 F   0  0  0  0  0  0  0  0  0  0  0  0
    1.7640   20.0820  -34.5260 F   0  0  0  0  0  0  0  0  0  0  0  0
    2.0780   21.0200  -36.5500 F   0  0  0  0  0  0  0  0  0  0  0  0
   -4.7980   19.4090  -33.3760 C   0  0  0  0  0  0  0  0  0  0  0  0
   -3.8970   18.3640  -33.7980 C   0  0  0  0  0  0  0  0  0  0  0  0
   -2.4530   18.4690  -33.6880 N   0  0  0  0  0  0  0  0  0  0  0  0
   -1.8940   17.2390  -33.0990 C   0  0  0  0  0  0  0  0  0  0  0  0
   -0.3780   17.3560  -32.8850 C   0  0  0  0  0  0  0  0  0  0  0  0
    0.0870   16.5870  -31.6380 C   0  0  0  0  0  0  0  0  0  0  0  0
    0.2350   17.4870  -30.4850 N   0  0  0  0  0  0  0  0  0  0  0  0
   -0.0780   18.8130  -30.6200 C   0  0  0  0  0  0  0  0  0  0  0  0
   -0.0120   19.6750  -29.5220 C   0  0  0  0  0  0  0  0  0  0  0  0
    0.3840   19.1770  -28.2830 C   0  0  0  0  0  0  0  0  0  0  0  0
    0.7210   17.8310  -28.1560 C   0  0  0  0  0  0  0  0  0  0  0  0
    0.6460   16.9950  -29.2750 C   0  0  0  0  0  0  0  0  0  0  0  0
   -4.4270   17.1160  -34.1660 C   0  0  0  0  0  0  0  0  0  0  0  0
   -5.7810   16.8540  -34.0620 C   0  0  0  0  0  0  0  0  0  0  0  0
   -6.6450   17.8150  -33.5600 C   0  0  0  0  0  0  0  0  0  0  0  0
   -6.1850   19.1060  -33.2100 C   0  0  0  0  0  0  0  0  0  0  0  0
   -8.9361   19.7898  -31.7562 H   0  0  0  0  0  0  0  0  0  0  0  0
   -8.9768   20.6909  -33.3096 H   0  0  0  0  0  0  0  0  0  0  0  0
   -8.7290   18.9118  -33.3096 H   0  0  0  0  0  0  0  0  0  0  0  0
   -8.3861   21.7121  -31.0335 H   0  0  0  0  0  0  0  0  0  0  0  0
   -7.4883   23.8281  -30.0882 H   0  0  0  0  0  0  0  0  0  0  0  0
   -5.1621   24.5473  -30.6119 H   0  0  0  0  0  0  0  0  0  0  0  0
   -3.7045   23.1164  -32.0264 H   0  0  0  0  0  0  0  0  0  0  0  0
   -2.9560   21.1880  -34.5990 H   0  0  0  0  0  0  0  0  0  0  0  0
   -2.0263   22.6354  -32.4523 H   0  0  0  0  0  0  0  0  0  0  0  0
   -2.2379   20.9952  -31.7105 H   0  0  0  0  0  0  0  0  0  0  0  0
   -0.0660   22.0027  -33.3486 H   0  0  0  0  0  0  0  0  0  0  0  0
   -0.2477   20.4113  -32.4788 H   0  0  0  0  0  0  0  0  0  0  0  0
   -0.4100   19.4310  -34.4220 H   0  0  0  0  0  0  0  0  0  0  0  0
   -0.3038   20.5514  -36.5338 H   0  0  0  0  0  0  0  0  0  0  0  0
   -0.4848   22.1193  -35.6490 H   0  0  0  0  0  0  0  0  0  0  0  0
   -2.0210   18.5900  -34.6340 H   0  0  0  0  0  0  0  0  0  0  0  0
   -2.1770   19.3230  -33.1640 H   0  0  0  0  0  0  0  0  0  0  0  0
   -2.3788   17.0550  -32.1289 H   0  0  0  0  0  0  0  0  0  0  0  0
   -2.0812   16.4075  -33.7943 H   0  0  0  0  0  0  0  0  0  0  0  0
    0.1379   16.9484  -33.7668 H   0  0  0  0  0  0  0  0  0  0  0  0
   -0.1358   18.4191  -32.7393 H   0  0  0  0  0  0  0  0  0  0  0  0
   -0.6557   15.8125  -31.3960 H   0  0  0  0  0  0  0  0  0  0  0  0
    1.0649   16.1316  -31.8532 H   0  0  0  0  0  0  0  0  0  0  0  0
   -0.3842   19.2034  -31.6017 H   0  0  0  0  0  0  0  0  0  0  0  0
   -0.2707   20.7381  -29.6353 H   0  0  0  0  0  0  0  0  0  0  0  0
    0.4305   19.8432  -27.4089 H   0  0  0  0  0  0  0  0  0  0  0  0
    1.0433   17.4292  -27.1840 H   0  0  0  0  0  0  0  0  0  0  0  0
    0.9194   15.9336  -29.1822 H   0  0  0  0  0  0  0  0  0  0  0  0
   -3.7529   16.3331  -34.5437 H   0  0  0  0  0  0  0  0  0  0  0  0
   -6.1748   15.8772  -34.3795 H   0  0  0  0  0  0  0  0  0  0  0  0
   -7.7093   17.5687  -33.4313 H   0  0  0  0  0  0  0  0  0  0  0  0
  1  2  1  0
  2  3  2  0
  3  4  1  0
  4  5  2  0
  5  6  1  0
  6  7  2  0
  7  8  1  0
  8  9  2  0
  9 10  1  0
 10 11  1  0
 11 12  1  0
 12 13  1  0
 13 14  1  0
 14 15  1  0
 15 16  1  0
 15 17  1  0
 15 18  1  0
  9 19  1  0
 19 20  2  0
 20 21  1  0
 21 22  1  0
 22 23  1  0
 23 24  1  0
 24 25  1  0
 25 26  2  0
 26 27  1  0
 27 28  2  0
 28 29  1  0
 29 30  2  0
 20 31  1  0
 31 32  2  0
 32 33  1  0
 33 34  2  0
 34  2  1  0
  8  3  1  0
 34 19  1  0
 30 25  1  0
  1 35  1  0
  1 36  1  0
  1 37  1  0
  4 38  1  0
  5 39  1  0
  6 40  1  0
  7 41  1  0
 10 42  1  0
 11 43  1  0
 11 44  1  0
 12 45  1  0
 12 46  1  0
 13 47  1  0
 14 48  1  0
 14 49  1  0
 21 50  1  0
 21 51  1  0
 22 52  1  0
 22 53  1  0
 23 54  1  0
 23 55  1  0
 24 56  1  0
 24 57  1  0
 26 58  1  0
 27 59  1  0
 28 60  1  0
 29 61  1  0
 30 62  1  0
 31 63  1  0
 32 64  1  0
 33 65  1  0
M  CHG  3   2   1  21   1  25   1
M  END
>  <UniqueID>  (1) 
1

>  <SMILES>  (1) 
C[n+]1c2ccccc2c(NCCNCC(F)(F)F)c2c([NH2+]CCC[n+]3ccccc3)cccc21

>  <Energy>  (1) 
98.68653579589665

>  <Genealogy>  (1) 
C[n+]1c2ccccc2c(NCCNCC(F)(F)F)c2c([NH2+]CCC[n+]3ccccc3)cccc21 (protonated)
C[n+]1c2ccccc2c(NCCNCC(F)(F)F)c2c([NH2+]CCC[n+]3ccccc3)cccc21 (3D coordinates assigned)
C[n+]1c2ccccc2c(NCCNCC(F)(F)F)c2c([NH2+]CCC[n+]3ccccc3)cccc21 (optimized conformer: 98.68653579589665 kcal/mol)

>  <smiles>  (1) 
C[n+]1c2ccccc2c(NCCNCC(F)(F)F)c2c(NCCC[n+]3ccccc3)cccc21

>  <score_type>  (1) 
oracle

>  <origin>  (1) 
adg

>  <m_score__min__energy>  (1) 
-7.8700000000000001

>  <m_primary>  (1) 
energy

$$$$
1:0
     RDKit          3D

 61 64  0  0  0  0  0  0  0  0999 V2000
    0.2830   25.0320  -36.1900 C   0  0  0  0  0  0  0  0  0  0  0  0
    1.6130   24.3720  -35.8200 C   0  0  0  0  0  0  0  0  0  0  0  0
    1.4240   22.9640  -35.4060 N   0  0  0  0  0  0  0  0  0  0  0  0
    2.6670   22.1720  -35.6130 C   0  0  0  0  0  0  0  0  0  0  0  0
    2.5540   20.6980  -35.1860 C   0  0  0  0  0  0  0  0  0  0  0  0
    1.7110   20.4750  -33.9150 C   0  0  0  0  0  0  0  0  0  0  0  0
    0.3140   20.9510  -34.0360 N   0  0  0  0  0  0  0  0  0  0  0  0
   -0.5870   20.1220  -33.2100 C   0  0  0  0  0  0  0  0  0  0  0  0
   -1.7110   20.9630  -32.6640 C   0  0  0  0  0  0  0  0  0  0  0  0
   -2.8540   21.2200  -33.4370 C   0  0  0  0  0  0  0  0  0  0  0  0
   -3.8870   22.0100  -32.9270 C   0  0  0  0  0  0  0  0  0  0  0  0
   -3.7980   22.5490  -31.6320 C   0  0  0  0  0  0  0  0  0  0  0  0
   -4.9030   23.3770  -31.0910 C   0  0  0  0  0  0  0  0  0  0  0  0
   -4.6340   24.7080  -30.7240 C   0  0  0  0  0  0  0  0  0  0  0  0
   -5.6280   25.5030  -30.1480 C   0  0  0  0  0  0  0  0  0  0  0  0
   -6.9010   24.9810  -29.9270 C   0  0  0  0  0  0  0  0  0  0  0  0
   -7.1900   23.6660  -30.2940 C   0  0  0  0  0  0  0  0  0  0  0  0
   -6.2110   22.8600  -30.8940 C   0  0  0  0  0  0  0  0  0  0  0  0
   -6.5890   21.4900  -31.3060 C   0  0  0  0  0  0  0  0  0  0  0  0
   -5.7460   20.4420  -31.2660 N   0  0  0  0  0  0  0  0  0  0  0  0
   -6.3900   19.3760  -31.7130 N   0  0  0  0  0  0  0  0  0  0  0  0
   -7.6370   19.7910  -32.0190 C   0  0  0  0  0  0  0  0  0  0  0  0
   -8.7080   18.8810  -32.5260 C   0  0  0  0  0  0  0  0  0  0  0  0
   -7.8030   21.1060  -31.7580 N   0  0  0  0  0  0  0  0  0  0  0  0
   -9.0260   21.8940  -31.9020 C   0  0  0  0  0  0  0  0  0  0  0  0
   -2.6440   22.3050  -30.8680 C   0  0  0  0  0  0  0  0  0  0  0  0
   -1.6130   21.5130  -31.3770 C   0  0  0  0  0  0  0  0  0  0  0  0
   -0.1410   21.0170  -35.4450 C   0  0  0  0  0  0  0  0  0  0  0  0
    0.2510   22.3670  -36.0880 C   0  0  0  0  0  0  0  0  0  0  0  0
   -0.2603   25.3016  -35.2723 H   0  0  0  0  0  0  0  0  0  0  0  0
    0.4759   25.9389  -36.7818 H   0  0  0  0  0  0  0  0  0  0  0  0
   -0.3226   24.3299  -36.7818 H   0  0  0  0  0  0  0  0  0  0  0  0
    2.2814   24.4010  -36.6932 H   0  0  0  0  0  0  0  0  0  0  0  0
    2.0486   24.9245  -34.9744 H   0  0  0  0  0  0  0  0  0  0  0  0
    2.9215   22.2028  -36.6827 H   0  0  0  0  0  0  0  0  0  0  0  0
    3.4412   22.6268  -34.9775 H   0  0  0  0  0  0  0  0  0  0  0  0
    2.0928   20.1338  -36.0100 H   0  0  0  0  0  0  0  0  0  0  0  0
    3.5734   20.3550  -34.9553 H   0  0  0  0  0  0  0  0  0  0  0  0
    1.6929   19.3974  -33.6950 H   0  0  0  0  0  0  0  0  0  0  0  0
    2.1813   21.0598  -33.1107 H   0  0  0  0  0  0  0  0  0  0  0  0
   -1.0049   19.3132  -33.8275 H   0  0  0  0  0  0  0  0  0  0  0  0
   -0.0161   19.6968  -32.3714 H   0  0  0  0  0  0  0  0  0  0  0  0
   -2.9367   20.7973  -34.4492 H   0  0  0  0  0  0  0  0  0  0  0  0
   -4.7759   22.2116  -33.5429 H   0  0  0  0  0  0  0  0  0  0  0  0
   -3.6310   25.1271  -30.8922 H   0  0  0  0  0  0  0  0  0  0  0  0
   -5.4053   26.5433  -29.8683 H   0  0  0  0  0  0  0  0  0  0  0  0
   -7.6784   25.6058  -29.4630 H   0  0  0  0  0  0  0  0  0  0  0  0
   -8.1949   23.2576  -30.1111 H   0  0  0  0  0  0  0  0  0  0  0  0
   -4.7500   20.4470  -30.9570 H   0  0  0  0  0  0  0  0  0  0  0  0
   -9.2390   18.4298  -31.6749 H   0  0  0  0  0  0  0  0  0  0  0  0
   -9.4183   19.4561  -33.1382 H   0  0  0  0  0  0  0  0  0  0  0  0
   -8.2552   18.0872  -33.1382 H   0  0  0  0  0  0  0  0  0  0  0  0
   -9.4186   22.1470  -30.9061 H   0  0  0  0  0  0  0  0  0  0  0  0
   -8.8033   22.8190  -32.4541 H   0  0  0  0  0  0  0  0  0  0  0  0
   -9.7763   21.3090  -32.4541 H   0  0  0  0  0  0  0  0  0  0  0  0
   -2.5524   22.7409  -29.8622 H   0  0  0  0  0  0  0  0  0  0  0  0
   -0.7192   21.3192  -30.7658 H   0  0  0  0  0  0  0  0  0  0  0  0
    0.3255   20.1985  -36.0129 H   0  0  0  0  0  0  0  0  0  0  0  0
   -1.2368   20.9227  -35.4655 H   0  0  0  0  0  0  0  0  0  0  0  0
    0.4972   22.2020  -37.1473 H   0  0  0  0  0  0  0  0  0  0  0  0
   -0.5984   23.0592  -35.9910 H   0  0  0  0  0  0  0  0  0  0  0  0
  1  2  1  0
  2  3  1  0
  3  4  1  0
  4  5  1  0
  5  6  1  0
  6  7  1  0
  7  8  1  0
  8  9  1  0
  9 10  2  0
 10 11  1  0
 11 12  2  0
 12 13  1  0
 13 14  2  0
 14 15  1  0
 15 16  2  0
 16 17  1  0
 17 18  2  0
 18 19  1  0
 19 20  2  0
 20 21  1  0
 21 22  2  0
 22 23  1  0
 22 24  1  0
 24 25  1  0
 12 26  1  0
 26 27  2  0
  7 28  1  0
 28 29  1  0
 29  3  1  0
 27  9  1  0
 18 13  1  0
 24 19  1  0
  1 30  1  0
  1 31  1  0
  1 32  1  0
  2 33  1  0
  2 34  1  0
  4 35  1  0
  4 36  1  0
  5 37  1  0
  5 38  1  0
  6 39  1  0
  6 40  1  0
  8 41  1  0
  8 42  1  0
 10 43  1  0
 11 44  1  0
 14 45  1  0
 15 46  1  0
 16 47  1  0
 17 48  1  0
 20 49  1  0
 23 50  1  0
 23 51  1  0
 23 52  1  0
 25 53  1  0
 25 54  1  0
 25 55  1  0
 26 56  1  0
 27 57  1  0
 28 58  1  0
 28 59  1  0
 29 60  1  0
 29 61  1  0
M  CHG  1  20   1
M  END
>  <UniqueID>  (2) 
2

>  <SMILES>  (2) 
CCN1CCCN(Cc2ccc(-c3ccccc3-c3[nH+]nc(C)n3C)cc2)CC1

>  <Energy>  (2) 
120.5245502054926

>  <Genealogy>  (2) 
CCN1CCCN(Cc2ccc(-c3ccccc3-c3[nH+]nc(C)n3C)cc2)CC1 (protonated)
CCN1CCCN(Cc2ccc(-c3ccccc3-c3[nH+]nc(C)n3C)cc2)CC1 (3D coordinates assigned)
CCN1CCCN(Cc2ccc(-c3ccccc3-c3[nH+]nc(C)n3C)cc2)CC1 (nonaromatic ring conformer: 120.5245502054926 kcal/mol)

>  <smiles>  (2) 
CCN1CCCN(Cc2ccc(-c3ccccc3-c3nnc(C)n3C)cc2)CC1

>  <score_type>  (2) 
oracle

>  <origin>  (2) 
adg

>  <m_score__min__energy>  (2) 
-7.2000000000000002

>  <m_primary>  (2) 
energy

$$$$
2:0
     RDKit          3D

 52 54  0  0  0  0  0  0  0  0999 V2000
   -3.9410   22.8010  -27.9650 C   0  0  0  0  0  0  0  0  0  0  0  0
   -3.2950   23.9440  -28.6330 N   0  0  0  0  0  0  0  0  0  0  0  0
   -2.1230   23.4700  -29.3860 C   0  0  0  0  0  0  0  0  0  0  0  0
   -4.2410   24.6370  -29.5370 C   0  0  0  0  0  0  0  0  0  0  0  0
   -5.2770   23.6520  -30.0930 C   0  0  0  0  0  0  0  0  0  0  0  0
   -4.9240   23.2810  -31.4840 N   0  0  0  0  0  0  0  0  0  0  0  0
   -6.0340   23.5620  -32.4320 C   0  0  0  0  0  0  0  0  0  0  0  0
   -7.4120   23.0780  -31.9470 C   0  0  0  0  0  0  0  0  0  0  0  0
   -7.4820   21.5810  -31.9140 C   0  0  0  0  0  0  0  0  0  0  0  0
   -8.5840   20.8130  -31.6080 C   0  0  0  0  0  0  0  0  0  0  0  0
   -8.2230   19.5190  -31.6860 N   0  0  0  0  0  0  0  0  0  0  0  0
   -9.1090   18.3760  -31.5230 C   0  0  0  0  0  0  0  0  0  0  0  0
   -6.9500   19.4210  -32.0370 N   0  0  0  0  0  0  0  0  0  0  0  0
   -6.4590   20.6730  -32.1510 C   0  0  0  0  0  0  0  0  0  0  0  0
   -5.0490   21.0050  -32.5940 C   0  0  2  0  0  0  0  0  0  0  0  0
   -4.2370   19.7090  -32.8230 C   0  0  0  0  0  0  0  0  0  0  0  0
   -4.2920   19.3040  -34.1800 O   0  0  0  0  0  0  0  0  0  0  0  0
   -5.5510   18.7460  -34.5030 C   0  0  0  0  0  0  0  0  0  0  0  0
   -5.5030   17.2200  -34.3510 C   0  0  0  0  0  0  0  0  0  0  0  0
   -5.7060   16.6750  -32.9440 C   0  0  0  0  0  0  0  0  0  0  0  0
   -6.8310   16.5890  -33.9630 C   0  0  0  0  0  0  0  0  0  0  0  0
   -4.3520   21.9140  -31.5480 C   0  0  0  0  0  0  0  0  0  0  0  0
   -3.8704   22.9259  -26.8744 H   0  0  0  0  0  0  0  0  0  0  0  0
   -4.9994   22.7537  -28.2609 H   0  0  0  0  0  0  0  0  0  0  0  0
   -3.4356   21.8699  -28.2609 H   0  0  0  0  0  0  0  0  0  0  0  0
   -1.3390   23.1529  -28.6826 H   0  0  0  0  0  0  0  0  0  0  0  0
   -2.4137   22.6188  -30.0191 H   0  0  0  0  0  0  0  0  0  0  0  0
   -1.7402   24.2840  -30.0191 H   0  0  0  0  0  0  0  0  0  0  0  0
   -4.7597   25.4300  -28.9783 H   0  0  0  0  0  0  0  0  0  0  0  0
   -3.6768   25.0693  -30.3765 H   0  0  0  0  0  0  0  0  0  0  0  0
   -5.2931   22.7476  -29.4671 H   0  0  0  0  0  0  0  0  0  0  0  0
   -6.2692   24.1270  -30.0853 H   0  0  0  0  0  0  0  0  0  0  0  0
   -6.0859   24.6493  -32.5907 H   0  0  0  0  0  0  0  0  0  0  0  0
   -5.8102   23.0081  -33.3557 H   0  0  0  0  0  0  0  0  0  0  0  0
   -7.5928   23.4677  -30.9344 H   0  0  0  0  0  0  0  0  0  0  0  0
   -8.1760   23.4463  -32.6475 H   0  0  0  0  0  0  0  0  0  0  0  0
   -9.5832   21.1910  -31.3460 H   0  0  0  0  0  0  0  0  0  0  0  0
   -9.2611   18.1798  -30.4514 H   0  0  0  0  0  0  0  0  0  0  0  0
  -10.0777   18.5924  -31.9972 H   0  0  0  0  0  0  0  0  0  0  0  0
   -8.6580   17.4919  -31.9972 H   0  0  0  0  0  0  0  0  0  0  0  0
   -5.0997   21.5532  -33.5463 H   0  0  0  0  0  0  0  0  0  0  0  0
   -3.1882   19.8885  -32.5441 H   0  0  0  0  0  0  0  0  0  0  0  0
   -4.6715   18.9110  -32.2030 H   0  0  0  0  0  0  0  0  0  0  0  0
   -6.3154   19.1556  -33.8264 H   0  0  0  0  0  0  0  0  0  0  0  0
   -5.8011   18.9975  -35.5442 H   0  0  0  0  0  0  0  0  0  0  0  0
   -4.7491   17.0590  -35.1357 H   0  0  0  0  0  0  0  0  0  0  0  0
   -5.1805   15.7623  -32.6265 H   0  0  0  0  0  0  0  0  0  0  0  0
   -5.6058   17.0858  -31.9285 H   0  0  0  0  0  0  0  0  0  0  0  0
   -7.1197   15.6139  -34.3823 H   0  0  0  0  0  0  0  0  0  0  0  0
   -7.8822   16.9119  -33.9894 H   0  0  0  0  0  0  0  0  0  0  0  0
   -4.4527   21.4468  -30.5573 H   0  0  0  0  0  0  0  0  0  0  0  0
   -3.3003   22.0152  -31.8539 H   0  0  0  0  0  0  0  0  0  0  0  0
  1  2  1  0
  2  3  1  0
  2  4  1  0
  4  5  1  0
  5  6  1  0
  6  7  1  0
  7  8  1  0
  8  9  1  0
  9 10  2  0
 10 11  1  0
 11 12  1  0
 11 13  1  0
 13 14  2  0
 14 15  1  0
 15 16  1  0
 16 17  1  0
 17 18  1  0
 18 19  1  0
 19 20  1  0
 20 21  1  0
 15 22  1  0
 22  6  1  0
 14  9  1  0
 21 19  1  0
  1 23  1  0
  1 24  1  0
  1 25  1  0
  3 26  1  0
  3 27  1  0
  3 28  1  0
  4 29  1  0
  4 30  1  0
  5 31  1  0
  5 32  1  0
  7 33  1  0
  7 34  1  0
  8 35  1  0
  8 36  1  0
 10 37  1  0
 12 38  1  0
 12 39  1  0
 12 40  1  0
 15 41  1  6
 16 42  1  0
 16 43  1  0
 18 44  1  0
 18 45  1  0
 19 46  1  0
 20 47  1  0
 20 48  1  0
 21 49  1  0
 21 50  1  0
 22 51  1  0
 22 52  1  0
M  END
>  <UniqueID>  (3) 
3

>  <SMILES>  (3) 
CN(C)CCN1CCc2cn(C)nc2[C@H](COCC2CC2)C1

>  <Energy>  (3) 
355.86847016042316

>  <Genealogy>  (3) 
CN(C)CCN1CCc2cn(C)nc2[C@H](COCC2CC2)C1 (chirality)
CN(C)CCN1CCc2cn(C)nc2[C@H](COCC2CC2)C1 (3D coordinates assigned)
CN(C)CCN1CCc2cn(C)nc2[C@H](COCC2CC2)C1 (nonaromatic ring conformer: 355.86847016042316 kcal/mol)

>  <smiles>  (3) 
CN(C)CCN1CCc2cn(C)nc2C(COCC2CC2)C1

>  <score_type>  (3) 
oracle

>  <origin>  (3) 
adg

>  <m_score__min__energy>  (3) 
-6.0800000000000001

>  <m_primary>  (3) 
energy

$$$$
3:0
     RDKit          3D

 61 64  0  0  0  0  0  0  0  0999 V2000
   -6.9100   25.1000  -29.7170 C   0  0  0  0  0  0  0  0  0  0  0  0
   -5.4000   25.3180  -29.8290 C   0  0  0  0  0  0  0  0  0  0  0  0
   -4.7880   24.4490  -30.8540 N   0  0  0  0  0  0  0  0  0  0  0  0
   -5.6930   24.1440  -31.9720 C   0  0  0  0  0  0  0  0  0  0  0  0
   -5.3220   22.8240  -32.6810 C   0  0  0  0  0  0  0  0  0  0  0  0
   -4.7630   21.8310  -31.7410 N   0  0  0  0  0  0  0  0  0  0  0  0
   -5.2660   20.4850  -32.0050 C   0  0  0  0  0  0  0  0  0  0  0  0
   -6.6620   20.2310  -31.9770 C   0  0  0  0  0  0  0  0  0  0  0  0
   -7.5560   21.1070  -31.3140 C   0  0  0  0  0  0  0  0  0  0  0  0
   -8.9310   20.8910  -31.3450 C   0  0  0  0  0  0  0  0  0  0  0  0
   -9.4490   19.8120  -32.0440 C   0  0  0  0  0  0  0  0  0  0  0  0
   -8.5950   18.9230  -32.6910 C   0  0  0  0  0  0  0  0  0  0  0  0
   -7.1850   19.0850  -32.6410 C   0  0  0  0  0  0  0  0  0  0  0  0
   -6.3360   18.1930  -33.2650 N   0  0  0  0  0  0  0  0  0  0  0  0
   -6.8630   16.9140  -33.7950 C   0  0  0  0  0  0  0  0  0  0  0  0
   -4.9840   18.4610  -33.3430 C   0  0  0  0  0  0  0  0  0  0  0  0
   -4.1370   17.7440  -34.2230 C   0  0  0  0  0  0  0  0  0  0  0  0
   -2.7600   17.9380  -34.2090 C   0  0  0  0  0  0  0  0  0  0  0  0
   -2.1890   18.7790  -33.2660 C   0  0  0  0  0  0  0  0  0  0  0  0
   -2.9940   19.5040  -32.3820 C   0  0  0  0  0  0  0  0  0  0  0  0
   -2.3580   20.0550  -31.2150 N   0  0  0  0  0  0  0  0  0  0  0  0
   -1.0890   20.7920  -31.2660 C   0  0  0  0  0  0  0  0  0  0  0  0
   -1.2990   22.3100  -31.1780 C   0  0  0  0  0  0  0  0  0  0  0  0
   -2.0470   22.7000  -29.9330 C   0  0  0  0  0  0  0  0  0  0  0  0
   -1.5580   23.7050  -29.0850 C   0  0  0  0  0  0  0  0  0  0  0  0
   -2.2900   24.0600  -27.9510 C   0  0  0  0  0  0  0  0  0  0  0  0
   -3.4920   23.4090  -27.6680 C   0  0  0  0  0  0  0  0  0  0  0  0
   -3.9460   22.4080  -28.5280 C   0  0  0  0  0  0  0  0  0  0  0  0
   -3.2210   22.0780  -29.6310 N   0  0  0  0  0  0  0  0  0  0  0  0
   -4.4100   19.4900  -32.5490 C   0  0  0  0  0  0  0  0  0  0  0  0
   -7.1968   25.0586  -28.6558 H   0  0  0  0  0  0  0  0  0  0  0  0
   -7.4378   25.9313  -30.2073 H   0  0  0  0  0  0  0  0  0  0  0  0
   -7.1812   24.1534  -30.2073 H   0  0  0  0  0  0  0  0  0  0  0  0
   -5.2121   26.3684  -30.0963 H   0  0  0  0  0  0  0  0  0  0  0  0
   -4.9484   25.0664  -28.8580 H   0  0  0  0  0  0  0  0  0  0  0  0
   -4.4140   23.5600  -30.4450 H   0  0  0  0  0  0  0  0  0  0  0  0
   -6.7191   24.0613  -31.5844 H   0  0  0  0  0  0  0  0  0  0  0  0
   -5.6064   24.9575  -32.7074 H   0  0  0  0  0  0  0  0  0  0  0  0
   -6.2261   22.4038  -33.1457 H   0  0  0  0  0  0  0  0  0  0  0  0
   -4.5544   23.0474  -33.4366 H   0  0  0  0  0  0  0  0  0  0  0  0
   -4.9800   22.1120  -30.7590 H   0  0  0  0  0  0  0  0  0  0  0  0
   -3.7300   21.9080  -31.8170 H   0  0  0  0  0  0  0  0  0  0  0  0
   -7.1571   21.9728  -30.7652 H   0  0  0  0  0  0  0  0  0  0  0  0
   -9.6071   21.5774  -30.8142 H   0  0  0  0  0  0  0  0  0  0  0  0
  -10.5373   19.6578  -32.0876 H   0  0  0  0  0  0  0  0  0  0  0  0
   -9.0209   18.0782  -33.2522 H   0  0  0  0  0  0  0  0  0  0  0  0
   -7.1348   16.2544  -32.9577 H   0  0  0  0  0  0  0  0  0  0  0  0
   -7.7532   17.1111  -34.4104 H   0  0  0  0  0  0  0  0  0  0  0  0
   -6.0923   16.4268  -34.4104 H   0  0  0  0  0  0  0  0  0  0  0  0
   -4.5751   17.0226  -34.9284 H   0  0  0  0  0  0  0  0  0  0  0  0
   -2.1243   17.4247  -34.9455 H   0  0  0  0  0  0  0  0  0  0  0  0
   -1.0946   18.8766  -33.2129 H   0  0  0  0  0  0  0  0  0  0  0  0
   -2.9200   20.1340  -30.3380 H   0  0  0  0  0  0  0  0  0  0  0  0
   -0.4587   20.4717  -30.4233 H   0  0  0  0  0  0  0  0  0  0  0  0
   -0.6080   20.5719  -32.2305 H   0  0  0  0  0  0  0  0  0  0  0  0
   -0.3169   22.8054  -31.1730 H   0  0  0  0  0  0  0  0  0  0  0  0
   -1.8959   22.6231  -32.0473 H   0  0  0  0  0  0  0  0  0  0  0  0
   -0.6066   24.2084  -29.3118 H   0  0  0  0  0  0  0  0  0  0  0  0
   -1.9206   24.8510  -27.2817 H   0  0  0  0  0  0  0  0  0  0  0  0
   -4.0753   23.6822  -26.7763 H   0  0  0  0  0  0  0  0  0  0  0  0
   -4.8902   21.8857  -28.3140 H   0  0  0  0  0  0  0  0  0  0  0  0
  1  2  1  0
  2  3  1  0
  3  4  1  0
  4  5  1  0
  5  6  1  0
  6  7  1  0
  7  8  2  0
  8  9  1  0
  9 10  2  0
 10 11  1  0
 11 12  2  0
 12 13  1  0
 13 14  2  0
 14 15  1  0
 14 16  1  0
 16 17  2  0
 17 18  1  0
 18 19  2  0
 19 20  1  0
 20 21  1  0
 21 22  1  0
 22 23  1  0
 23 24  1  0
 24 25  2  0
 25 26  1  0
 26 27  2  0
 27 28  1  0
 28 29  2  0
 20 30  2  0
 30  7  1  0
 13  8  1  0
 30 16  1  0
 29 24  1  0
  1 31  1  0
  1 32  1  0
  1 33  1  0
  2 34  1  0
  2 35  1  0
  3 36  1  0
  4 37  1  0
  4 38  1  0
  5 39  1  0
  5 40  1  0
  6 41  1  0
  6 42  1  0
  9 43  1  0
 10 44  1  0
 11 45  1  0
 12 46  1  0
 15 47  1  0
 15 48  1  0
 15 49  1  0
 17 50  1  0
 18 51  1  0
 19 52  1  0
 21 53  1  0
 22 54  1  0
 22 55  1  0
 23 56  1  0
 23 57  1  0
 25 58  1  0
 26 59  1  0
 27 60  1  0
 28 61  1  0
M  CHG  2   6   1  14   1
M  END
>  <UniqueID>  (4) 
4

>  <SMILES>  (4) 
CCNCC[NH2+]c1c2ccccc2[n+](C)c2cccc(NCCc3ccccn3)c12

>  <Energy>  (4) 
102.96386606454372

>  <Genealogy>  (4) 
CCNCC[NH2+]c1c2ccccc2[n+](C)c2cccc(NCCc3ccccn3)c12 (protonated)
CCNCC[NH2+]c1c2ccccc2[n+](C)c2cccc(NCCc3ccccn3)c12 (3D coordinates assigned)
CCNCC[NH2+]c1c2ccccc2[n+](C)c2cccc(NCCc3ccccn3)c12 (optimized conformer: 102.96386606454372 kcal/mol)

>  <smiles>  (4) 
CCNCCNc1c2ccccc2[n+](C)c2cccc(NCCc3ccccn3)c12

>  <score_type>  (4) 
oracle

>  <origin>  (4) 
adg

>  <m_score__min__energy>  (4) 
-8.5

>  <m_primary>  (4) 
energy

$$$$
4:0
     RDKit          3D

 67 69  0  0  0  0  0  0  0  0999 V2000
   -0.9460   30.6140  -26.2440 C   0  0  0  0  0  0  0  0  0  0  0  0
   -0.5840   30.0090  -24.8920 C   0  0  0  0  0  0  0  0  0  0  0  0
   -0.3550   28.5630  -25.0250 N   0  0  0  0  0  0  0  0  0  0  0  0
    0.2180   27.9610  -23.8070 C   0  0  0  0  0  0  0  0  0  0  0  0
   -0.5160   26.6780  -23.3890 C   0  0  0  0  0  0  0  0  0  0  0  0
   -1.4850   26.3380  -24.3640 O   0  0  0  0  0  0  0  0  0  0  0  0
   -1.2250   25.0580  -24.9000 C   0  0  0  0  0  0  0  0  0  0  0  0
   -0.8180   25.1930  -26.3680 C   0  0  0  0  0  0  0  0  0  0  0  0
   -0.6720   26.6080  -26.7410 N   0  0  0  0  0  0  0  0  0  0  0  0
   -0.8580   26.8080  -28.1860 C   0  0  0  0  0  0  0  0  0  0  0  0
   -1.2340   25.5100  -28.8510 C   0  0  0  0  0  0  0  0  0  0  0  0
   -0.3860   24.5800  -28.9210 O   0  0  0  0  0  0  0  0  0  0  0  0
   -2.5660   25.2570  -29.3230 N   0  0  0  0  0  0  0  0  0  0  0  0
   -3.5810   24.4750  -28.6260 C   0  0  0  0  0  0  0  0  0  0  0  0
   -2.9120   23.4430  -27.7070 C   0  0  0  0  0  0  0  0  0  0  0  0
   -2.1930   22.3330  -28.4910 C   0  0  0  0  0  0  0  0  0  0  0  0
   -1.8540   22.7570  -29.8590 N   0  0  0  0  0  0  0  0  0  0  0  0
   -2.6180   21.9880  -30.8110 C   0  0  0  0  0  0  0  0  0  0  0  0
   -2.1130   20.7770  -31.3140 C   0  0  0  0  0  0  0  0  0  0  0  0
   -2.8740   20.0080  -32.1980 C   0  0  0  0  0  0  0  0  0  0  0  0
   -4.1450   20.4370  -32.5850 C   0  0  0  0  0  0  0  0  0  0  0  0
   -4.6840   21.6270  -32.0640 C   0  0  0  0  0  0  0  0  0  0  0  0
   -3.9110   22.4000  -31.1790 C   0  0  0  0  0  0  0  0  0  0  0  0
   -6.0710   21.9440  -32.3160 N   0  0  0  0  0  0  0  0  0  0  0  0
   -6.5360   23.3340  -32.3180 C   0  0  0  0  0  0  0  0  0  0  0  0
   -7.0120   20.8490  -32.3530 C   0  0  0  0  0  0  0  0  0  0  0  0
   -8.2690   20.9460  -31.7270 C   0  0  0  0  0  0  0  0  0  0  0  0
   -9.1000   19.8250  -31.6370 C   0  0  0  0  0  0  0  0  0  0  0  0
   -8.6770   18.5950  -32.1490 C   0  0  0  0  0  0  0  0  0  0  0  0
   -7.4320   18.4870  -32.7750 C   0  0  0  0  0  0  0  0  0  0  0  0
   -6.6090   19.6120  -32.8930 C   0  0  0  0  0  0  0  0  0  0  0  0
   -5.0720   19.5130  -33.8130 S   0  0  0  0  0  0  0  0  0  0  0  0
   -1.5052   31.5486  -26.0896 H   0  0  0  0  0  0  0  0  0  0  0  0
   -0.0263   30.8261  -26.8089 H   0  0  0  0  0  0  0  0  0  0  0  0
   -1.5677   29.9038  -26.8089 H   0  0  0  0  0  0  0  0  0  0  0  0
    0.3310   30.4880  -24.5134 H   0  0  0  0  0  0  0  0  0  0  0  0
   -1.4149   30.1767  -24.1909 H   0  0  0  0  0  0  0  0  0  0  0  0
   -1.2610   28.0910  -25.2590 H   0  0  0  0  0  0  0  0  0  0  0  0
    1.2742   27.7186  -23.9957 H   0  0  0  0  0  0  0  0  0  0  0  0
    0.1124   28.6900  -22.9901 H   0  0  0  0  0  0  0  0  0  0  0  0
    0.2098   25.8569  -23.2942 H   0  0  0  0  0  0  0  0  0  0  0  0
   -1.0164   26.8450  -22.4238 H   0  0  0  0  0  0  0  0  0  0  0  0
   -0.4091   24.5829  -24.3355 H   0  0  0  0  0  0  0  0  0  0  0  0
   -2.1311   24.4387  -24.8262 H   0  0  0  0  0  0  0  0  0  0  0  0
    0.1410   24.6777  -26.5253 H   0  0  0  0  0  0  0  0  0  0  0  0
   -1.6019   24.7422  -26.9943 H   0  0  0  0  0  0  0  0  0  0  0  0
   -1.4250   27.1480  -26.2520 H   0  0  0  0  0  0  0  0  0  0  0  0
   -1.6584   27.5446  -28.3500 H   0  0  0  0  0  0  0  0  0  0  0  0
    0.0849   27.1717  -28.6204 H   0  0  0  0  0  0  0  0  0  0  0  0
   -4.2078   25.1478  -28.0222 H   0  0  0  0  0  0  0  0  0  0  0  0
   -4.2021   23.9493  -29.3662 H   0  0  0  0  0  0  0  0  0  0  0  0
   -2.1765   23.9599  -27.0731 H   0  0  0  0  0  0  0  0  0  0  0  0
   -3.7024   22.9690  -27.1065 H   0  0  0  0  0  0  0  0  0  0  0  0
   -1.2663   22.0670  -27.9614 H   0  0  0  0  0  0  0  0  0  0  0  0
   -2.8723   21.4706  -28.5604 H   0  0  0  0  0  0  0  0  0  0  0  0
   -2.0670   23.7720  -29.9860 H   0  0  0  0  0  0  0  0  0  0  0  0
   -0.8310   22.6160  -30.0320 H   0  0  0  0  0  0  0  0  0  0  0  0
   -1.1134   20.4327  -31.0102 H   0  0  0  0  0  0  0  0  0  0  0  0
   -2.4709   19.0625  -32.5899 H   0  0  0  0  0  0  0  0  0  0  0  0
   -4.3217   23.3354  -30.7711 H   0  0  0  0  0  0  0  0  0  0  0  0
   -6.6528   23.6831  -31.2814 H   0  0  0  0  0  0  0  0  0  0  0  0
   -5.8004   23.9660  -32.8370 H   0  0  0  0  0  0  0  0  0  0  0  0
   -7.5038   23.3961  -32.8370 H   0  0  0  0  0  0  0  0  0  0  0  0
   -8.5989   21.9076  -31.3069 H   0  0  0  0  0  0  0  0  0  0  0  0
  -10.0886   19.9112  -31.1623 H   0  0  0  0  0  0  0  0  0  0  0  0
   -9.3250   17.7107  -32.0591 H   0  0  0  0  0  0  0  0  0  0  0  0
   -7.0994   17.5177  -33.1748 H   0  0  0  0  0  0  0  0  0  0  0  0
  1  2  1  0
  2  3  1  0
  3  4  1  0
  4  5  1  0
  5  6  1  0
  6  7  1  0
  7  8  1  0
  8  9  1  0
  9 10  1  0
 10 11  1  0
 11 12  2  0
 11 13  1  0
 13 14  1  0
 14 15  1  0
 15 16  1  0
 16 17  1  0
 17 18  1  0
 18 19  2  0
 19 20  1  0
 20 21  2  0
 21 22  1  0
 22 23  2  0
 22 24  1  0
 24 25  1  0
 24 26  1  0
 26 27  2  0
 27 28  1  0
 28 29  2  0
 29 30  1  0
 30 31  2  0
 31 32  1  0
 23 18  1  0
 31 26  1  0
 32 21  1  0
  1 33  1  0
  1 34  1  0
  1 35  1  0
  2 36  1  0
  2 37  1  0
  3 38  1  0
  4 39  1  0
  4 40  1  0
  5 41  1  0
  5 42  1  0
  7 43  1  0
  7 44  1  0
  8 45  1  0
  8 46  1  0
  9 47  1  0
 10 48  1  0
 10 49  1  0
 14 50  1  0
 14 51  1  0
 15 52  1  0
 15 53  1  0
 16 54  1  0
 16 55  1  0
 17 56  1  0
 17 57  1  0
 19 58  1  0
 20 59  1  0
 23 60  1  0
 25 61  1  0
 25 62  1  0
 25 63  1  0
 27 64  1  0
 28 65  1  0
 29 66  1  0
 30 67  1  0
M  CHG  2  13  -1  17   1
M  END
>  <UniqueID>  (5) 
5

>  <SMILES>  (5) 
CCNCCOCCNCC(=O)[N-]CCC[NH2+]c1ccc2c(c1)N(C)c1ccccc1S2

>  <Energy>  (5) 
77.39497117100703

>  <Genealogy>  (5) 
CCNCCOCCNCC(=O)[N-]CCC[NH2+]c1ccc2c(c1)N(C)c1ccccc1S2 (protonated)
CCNCCOCCNCC(=O)[N-]CCC[NH2+]c1ccc2c(c1)N(C)c1ccccc1S2 (3D coordinates assigned)
CCNCCOCCNCC(=O)[N-]CCC[NH2+]c1ccc2c(c1)N(C)c1ccccc1S2 (nonaromatic ring conformer: 77.39497117100703 kcal/mol)

>  <smiles>  (5) 
CCNCCOCCNCC(=O)NCCCNc1ccc2c(c1)N(C)c1ccccc1S2

>  <score_type>  (5) 
oracle

>  <origin>  (5) 
adg

>  <m_score__min__energy>  (5) 
-8.9000000000000004

>  <m_primary>  (5) 
energy

$$$$
5:0
     RDKit          3D

 36 37  0  0  0  0  0  0  0  0999 V2000
   -8.8360   19.7180  -32.2990 C   0  0  0  0  0  0  0  0  0  0  0  0
   -8.7550   21.1390  -31.7410 C   0  0  0  0  0  0  0  0  0  0  0  0
   -7.5210   21.8980  -32.2580 C   0  0  0  0  0  0  0  0  0  0  0  0
   -7.2830   23.2330  -31.5230 C   0  0  0  0  0  0  0  0  0  0  0  0
   -6.8650   22.9810  -29.7600 S   0  0  0  0  0  0  0  0  0  0  0  0
   -5.2230   23.6960  -29.8900 C   0  0  0  0  0  0  0  0  0  0  0  0
   -4.8760   24.5740  -30.8500 N   0  0  0  0  0  0  0  0  0  0  0  0
   -3.6240   24.9310  -30.6110 N   0  0  0  0  0  0  0  0  0  0  0  0
   -3.2170   24.2570  -29.5170 C   0  0  0  0  0  0  0  0  0  0  0  0
   -1.8810   24.4520  -28.9160 C   0  0  0  0  0  0  0  0  0  0  0  0
   -0.8460   23.5260  -29.1160 C   0  0  0  0  0  0  0  0  0  0  0  0
    0.4100   23.7620  -28.5490 C   0  0  0  0  0  0  0  0  0  0  0  0
    0.6290   24.8880  -27.8220 N   0  0  0  0  0  0  0  0  0  0  0  0
   -0.3490   25.8110  -27.6270 C   0  0  0  0  0  0  0  0  0  0  0  0
   -1.6180   25.6150  -28.1770 C   0  0  0  0  0  0  0  0  0  0  0  0
   -4.2050   23.4670  -29.0340 N   0  0  0  0  0  0  0  0  0  0  0  0
   -4.2290   22.6360  -27.8250 C   0  0  0  0  0  0  0  0  0  0  0  0
   -3.1960   21.5170  -27.9160 C   0  0  0  0  0  0  0  0  0  0  0  0
   -8.8770   18.9993  -31.4673 H   0  0  0  0  0  0  0  0  0  0  0  0
   -9.7413   19.6173  -32.9156 H   0  0  0  0  0  0  0  0  0  0  0  0
   -7.9480   19.5150  -32.9156 H   0  0  0  0  0  0  0  0  0  0  0  0
   -9.6597   21.6888  -32.0398 H   0  0  0  0  0  0  0  0  0  0  0  0
   -8.6726   21.0673  -30.6464 H   0  0  0  0  0  0  0  0  0  0  0  0
   -6.6350   21.2603  -32.1223 H   0  0  0  0  0  0  0  0  0  0  0  0
   -7.6994   22.1330  -33.3177 H   0  0  0  0  0  0  0  0  0  0  0  0
   -6.4533   23.7644  -32.0121 H   0  0  0  0  0  0  0  0  0  0  0  0
   -8.2137   23.8173  -31.5709 H   0  0  0  0  0  0  0  0  0  0  0  0
   -1.0216   22.6203  -29.7150 H   0  0  0  0  0  0  0  0  0  0  0  0
    1.2224   23.0343  -28.6920 H   0  0  0  0  0  0  0  0  0  0  0  0
   -0.1410   26.7144  -27.0348 H   0  0  0  0  0  0  0  0  0  0  0  0
   -2.4064   26.3682  -28.0315 H   0  0  0  0  0  0  0  0  0  0  0  0
   -4.0037   23.2646  -26.9509 H   0  0  0  0  0  0  0  0  0  0  0  0
   -5.2280   22.1863  -27.7261 H   0  0  0  0  0  0  0  0  0  0  0  0
   -2.9058   21.2026  -26.9026 H   0  0  0  0  0  0  0  0  0  0  0  0
   -3.6286   20.6616  -28.4555 H   0  0  0  0  0  0  0  0  0  0  0  0
   -2.3088   21.8800  -28.4555 H   0  0  0  0  0  0  0  0  0  0  0  0
  1  2  1  0
  2  3  1  0
  3  4  1  0
  4  5  1  0
  5  6  1  0
  6  7  2  0
  7  8  1  0
  8  9  2  0
  9 10  1  0
 10 11  2  0
 11 12  1  0
 12 13  2  0
 13 14  1  0
 14 15  2  0
  9 16  1  0
 16 17  1  0
 17 18  1  0
 16  6  1  0
 15 10  1  0
  1 19  1  0
  1 20  1  0
  1 21  1  0
  2 22  1  0
  2 23  1  0
  3 24  1  0
  3 25  1  0
  4 26  1  0
  4 27  1  0
 11 28  1  0
 12 29  1  0
 14 30  1  0
 15 31  1  0
 17 32  1  0
 17 33  1  0
 18 34  1  0
 18 35  1  0
 18 36  1  0
M  END
>  <UniqueID>  (6) 
6

>  <SMILES>  (6) 
CCCCSc1nnc(-c2ccncc2)n1CC

>  <Energy>  (6) 
67.09845714457087

>  <Genealogy>  (6) 
CCCCSc1nnc(-c2ccncc2)n1CC (3D coordinates assigned)
CCCCSc1nnc(-c2ccncc2)n1CC (optimized conformer: 67.09845714457087 kcal/mol)

>  <smiles>  (6) 
CCCCSc1nnc(-c2ccncc2)n1CC

>  <score_type>  (6) 
oracle

>  <origin>  (6) 
adg

>  <m_score__min__energy>  (6) 
-6.9800000000000004

>  <m_primary>  (6) 
energy

$$$$
6:0
     RDKit          3D

 56 58  0  0  0  0  0  0  0  0999 V2000
   -0.8320   21.8120  -30.7500 C   0  0  0  0  0  0  0  0  0  0  0  0
   -2.0260   22.0310  -29.8260 C   0  0  0  0  0  0  0  0  0  0  0  0
   -2.3680   23.4030  -29.7860 O   0  0  0  0  0  0  0  0  0  0  0  0
   -3.2080   23.6730  -28.6820 C   0  0  0  0  0  0  0  0  0  0  0  0
   -4.4180   24.4790  -29.1500 C   0  0  0  0  0  0  0  0  0  0  0  0
   -4.2250   24.9420  -30.4740 O   0  0  0  0  0  0  0  0  0  0  0  0
   -5.4560   25.0790  -31.1610 C   0  0  0  0  0  0  0  0  0  0  0  0
   -5.8020   23.7900  -31.9100 C   0  0  0  0  0  0  0  0  0  0  0  0
   -5.0040   22.6660  -31.4230 N   0  0  0  0  0  0  0  0  0  0  0  0
   -5.3270   21.3250  -31.8130 C   0  0  0  0  0  0  0  0  0  0  0  0
   -6.5900   20.7920  -31.5100 C   0  0  0  0  0  0  0  0  0  0  0  0
   -6.9130   19.4780  -31.9350 C   0  0  0  0  0  0  0  0  0  0  0  0
   -5.9280   18.6740  -32.4780 N   0  0  0  0  0  0  0  0  0  0  0  0
   -6.1320   17.2130  -32.5590 C   0  0  0  0  0  0  0  0  0  0  0  0
   -4.7430   19.2330  -32.9180 C   0  0  0  0  0  0  0  0  0  0  0  0
   -3.8390   18.5190  -33.7450 C   0  0  0  0  0  0  0  0  0  0  0  0
   -2.6390   19.0930  -34.1620 C   0  0  0  0  0  0  0  0  0  0  0  0
   -2.3140   20.3910  -33.7840 C   0  0  0  0  0  0  0  0  0  0  0  0
   -3.1980   21.1320  -33.0030 C   0  0  0  0  0  0  0  0  0  0  0  0
   -4.4170   20.5700  -32.5690 C   0  0  0  0  0  0  0  0  0  0  0  0
   -8.3570   18.9820  -31.7610 C   0  0  0  0  0  0  0  0  0  0  0  0
   -9.4420   19.7550  -32.5620 C   0  0  0  0  0  0  0  0  0  0  0  0
   -9.8780   21.1210  -32.0030 C   0  0  0  0  0  0  0  0  0  0  0  0
   -8.7170   22.1140  -31.8310 C   0  0  0  0  0  0  0  0  0  0  0  0
   -7.6440   21.6510  -30.8350 C   0  0  0  0  0  0  0  0  0  0  0  0
    0.0728   21.6460  -30.1469 H   0  0  0  0  0  0  0  0  0  0  0  0
   -1.0160   20.9326  -31.3847 H   0  0  0  0  0  0  0  0  0  0  0  0
   -0.6919   22.6994  -31.3847 H   0  0  0  0  0  0  0  0  0  0  0  0
   -2.8846   21.4533  -30.1988 H   0  0  0  0  0  0  0  0  0  0  0  0
   -1.7607   21.6977  -28.8118 H   0  0  0  0  0  0  0  0  0  0  0  0
   -3.5476   22.7252  -28.2388 H   0  0  0  0  0  0  0  0  0  0  0  0
   -2.6511   24.2502  -27.9292 H   0  0  0  0  0  0  0  0  0  0  0  0
   -5.3129   23.8402  -29.1170 H   0  0  0  0  0  0  0  0  0  0  0  0
   -4.5456   25.3463  -28.4855 H   0  0  0  0  0  0  0  0  0  0  0  0
   -6.2523   25.3000  -30.4351 H   0  0  0  0  0  0  0  0  0  0  0  0
   -5.3662   25.8987  -31.8891 H   0  0  0  0  0  0  0  0  0  0  0  0
   -6.8683   23.5640  -31.7619 H   0  0  0  0  0  0  0  0  0  0  0  0
   -5.5818   23.9373  -32.9776 H   0  0  0  0  0  0  0  0  0  0  0  0
   -4.1240   22.8270  -30.8800 H   0  0  0  0  0  0  0  0  0  0  0  0
   -6.1905   16.7941  -31.5436 H   0  0  0  0  0  0  0  0  0  0  0  0
   -7.0682   17.0028  -33.0969 H   0  0  0  0  0  0  0  0  0  0  0  0
   -5.2892   16.7544  -33.0969 H   0  0  0  0  0  0  0  0  0  0  0  0
   -4.0886   17.4958  -34.0625 H   0  0  0  0  0  0  0  0  0  0  0  0
   -1.9463   18.5166  -34.7928 H   0  0  0  0  0  0  0  0  0  0  0  0
   -1.3582   20.8330  -34.1019 H   0  0  0  0  0  0  0  0  0  0  0  0
   -2.9433   22.1646  -32.7222 H   0  0  0  0  0  0  0  0  0  0  0  0
   -8.3918   17.9288  -32.0764 H   0  0  0  0  0  0  0  0  0  0  0  0
   -8.6005   19.1413  -30.7002 H   0  0  0  0  0  0  0  0  0  0  0  0
   -9.0512   19.9205  -33.5768 H   0  0  0  0  0  0  0  0  0  0  0  0
  -10.3412   19.1235  -32.5105 H   0  0  0  0  0  0  0  0  0  0  0  0
  -10.6126   21.5610  -32.6934 H   0  0  0  0  0  0  0  0  0  0  0  0
  -10.2996   20.9409  -31.0031 H   0  0  0  0  0  0  0  0  0  0  0  0
   -8.2394   22.2613  -32.8109 H   0  0  0  0  0  0  0  0  0  0  0  0
   -9.1480   23.0420  -31.4272 H   0  0  0  0  0  0  0  0  0  0  0  0
   -7.1575   22.5352  -30.3974 H   0  0  0  0  0  0  0  0  0  0  0  0
   -8.1338   21.0473  -30.0568 H   0  0  0  0  0  0  0  0  0  0  0  0
  1  2  1  0
  2  3  1  0
  3  4  1  0
  4  5  1  0
  5  6  1  0
  6  7  1  0
  7  8  1  0
  8  9  1  0
  9 10  1  0
 10 11  2  0
 11 12  1  0
 12 13  2  0
 13 14  1  0
 13 15  1  0
 15 16  2  0
 16 17  1  0
 17 18  2  0
 18 19  1  0
 19 20  2  0
 12 21  1  0
 21 22  1  0
 22 23  1  0
 23 24  1  0
 24 25  1  0
 20 10  1  0
 25 11  1  0
 20 15  1  0
  1 26  1  0
  1 27  1  0
  1 28  1  0
  2 29  1  0
  2 30  1  0
  4 31  1  0
  4 32  1  0
  5 33  1  0
  5 34  1  0
  7 35  1  0
  7 36  1  0
  8 37  1  0
  8 38  1  0
  9 39  1  0
 14 40  1  0
 14 41  1  0
 14 42  1  0
 16 43  1  0
 17 44  1  0
 18 45  1  0
 19 46  1  0
 21 47  1  0
 21 48  1  0
 22 49  1  0
 22 50  1  0
 23 51  1  0
 23 52  1  0
 24 53  1  0
 24 54  1  0
 25 55  1  0
 25 56  1  0
M  CHG  1  13   1
M  END
>  <UniqueID>  (7) 
7

>  <SMILES>  (7) 
CCOCCOCCNc1c2c([n+](C)c3ccccc13)CCCCC2

>  <Energy>  (7) 
85.80882822485485

>  <Genealogy>  (7) 
CCOCCOCCNc1c2c([n+](C)c3ccccc13)CCCCC2 (3D coordinates assigned)
CCOCCOCCNc1c2c([n+](C)c3ccccc13)CCCCC2 (nonaromatic ring conformer: 85.80882822485485 kcal/mol)

>  <smiles>  (7) 
CCOCCOCCNc1c2c([n+](C)c3ccccc13)CCCCC2

>  <score_type>  (7) 
oracle

>  <origin>  (7) 
adg

>  <m_score__min__energy>  (7) 
-7.3300000000000001

>  <m_primary>  (7) 
energy

$$$$
7:0
     RDKit          3D

 52 54  0  0  0  0  0  0  0  0999 V2000
   -3.7430   22.3350  -27.8140 C   0  0  0  0  0  0  0  0  0  0  0  0
   -3.1950   22.1390  -29.1680 N   0  0  0  0  0  0  0  0  0  0  0  0
   -2.7930   20.7320  -29.3300 C   0  0  0  0  0  0  0  0  0  0  0  0
   -2.0360   23.0260  -29.4150 C   0  0  0  0  0  0  0  0  0  0  0  0
   -2.3770   24.4930  -29.1370 C   0  0  0  0  0  0  0  0  0  0  0  0
   -3.7630   24.7120  -29.3240 O   0  0  0  0  0  0  0  0  0  0  0  0
   -4.0020   25.1600  -30.6000 N   0  0  0  0  0  0  0  0  0  0  0  0
   -5.4410   25.3700  -30.7750 C   0  0  0  0  0  0  0  0  0  0  0  0
   -6.1070   24.1330  -31.3840 C   0  0  0  0  0  0  0  0  0  0  0  0
   -5.3490   22.9250  -31.0620 N   0  0  0  0  0  0  0  0  0  0  0  0
   -5.5640   21.7000  -31.7850 C   0  0  0  0  0  0  0  0  0  0  0  0
   -6.8560   21.1540  -31.8910 C   0  0  0  0  0  0  0  0  0  0  0  0
   -7.9730   21.8180  -31.3410 C   0  0  0  0  0  0  0  0  0  0  0  0
   -9.2560   21.2940  -31.4850 C   0  0  0  0  0  0  0  0  0  0  0  0
   -9.4490   20.1090  -32.1850 C   0  0  0  0  0  0  0  0  0  0  0  0
   -8.3590   19.4250  -32.7210 C   0  0  0  0  0  0  0  0  0  0  0  0
   -7.0360   19.9100  -32.5550 C   0  0  0  0  0  0  0  0  0  0  0  0
   -5.9410   19.2110  -33.0300 N   0  0  0  0  0  0  0  0  0  0  0  0
   -6.0880   17.7990  -33.4480 C   0  0  0  0  0  0  0  0  0  0  0  0
   -4.7050   19.8250  -33.0940 C   0  0  0  0  0  0  0  0  0  0  0  0
   -3.6260   19.2570  -33.8200 C   0  0  0  0  0  0  0  0  0  0  0  0
   -2.3760   19.8750  -33.8530 C   0  0  0  0  0  0  0  0  0  0  0  0
   -2.1710   21.0770  -33.1870 C   0  0  0  0  0  0  0  0  0  0  0  0
   -3.2200   21.6790  -32.4970 C   0  0  0  0  0  0  0  0  0  0  0  0
   -4.4930   21.0700  -32.4450 C   0  0  0  0  0  0  0  0  0  0  0  0
   -2.9822   22.0629  -27.0676 H   0  0  0  0  0  0  0  0  0  0  0  0
   -4.0254   23.3899  -27.6819 H   0  0  0  0  0  0  0  0  0  0  0  0
   -4.6304   21.6985  -27.6819 H   0  0  0  0  0  0  0  0  0  0  0  0
   -2.6615   20.2719  -28.3396 H   0  0  0  0  0  0  0  0  0  0  0  0
   -3.5721   20.1897  -29.8857 H   0  0  0  0  0  0  0  0  0  0  0  0
   -1.8450   20.6832  -29.8857 H   0  0  0  0  0  0  0  0  0  0  0  0
   -1.2077   22.7217  -28.7582 H   0  0  0  0  0  0  0  0  0  0  0  0
   -1.7530   22.9341  -30.4740 H   0  0  0  0  0  0  0  0  0  0  0  0
   -2.1059   24.7397  -28.0999 H   0  0  0  0  0  0  0  0  0  0  0  0
   -1.8135   25.1326  -29.8322 H   0  0  0  0  0  0  0  0  0  0  0  0
   -3.4820   26.0370  -30.8530 H   0  0  0  0  0  0  0  0  0  0  0  0
   -5.8958   25.5776  -29.7952 H   0  0  0  0  0  0  0  0  0  0  0  0
   -5.5903   26.2197  -31.4575 H   0  0  0  0  0  0  0  0  0  0  0  0
   -7.1264   24.0372  -30.9819 H   0  0  0  0  0  0  0  0  0  0  0  0
   -6.1367   24.2502  -32.4773 H   0  0  0  0  0  0  0  0  0  0  0  0
   -4.4920   23.0200  -30.4740 H   0  0  0  0  0  0  0  0  0  0  0  0
   -7.8292   22.7604  -30.7921 H   0  0  0  0  0  0  0  0  0  0  0  0
  -10.1166   21.8186  -31.0444 H   0  0  0  0  0  0  0  0  0  0  0  0
  -10.4654   19.7094  -32.3165 H   0  0  0  0  0  0  0  0  0  0  0  0
   -8.5274   18.4939  -33.2819 H   0  0  0  0  0  0  0  0  0  0  0  0
   -6.1548   17.1578  -32.5567 H   0  0  0  0  0  0  0  0  0  0  0  0
   -7.0026   17.6878  -34.0490 H   0  0  0  0  0  0  0  0  0  0  0  0
   -5.2159   17.5018  -34.0490 H   0  0  0  0  0  0  0  0  0  0  0  0
   -3.7779   18.3140  -34.3656 H   0  0  0  0  0  0  0  0  0  0  0  0
   -1.5490   19.4088  -34.4086 H   0  0  0  0  0  0  0  0  0  0  0  0
   -1.1796   21.5533  -33.2048 H   0  0  0  0  0  0  0  0  0  0  0  0
   -3.0553   22.6395  -31.9868 H   0  0  0  0  0  0  0  0  0  0  0  0
  1  2  1  0
  2  3  1  0
  2  4  1  0
  4  5  1  0
  5  6  1  0
  6  7  1  0
  7  8  1  0
  8  9  1  0
  9 10  1  0
 10 11  1  0
 11 12  2  0
 12 13  1  0
 13 14  2  0
 14 15  1  0
 15 16  2  0
 16 17  1  0
 17 18  2  0
 18 19  1  0
 18 20  1  0
 20 21  2  0
 21 22  1  0
 22 23  2  0
 23 24  1  0
 24 25  2  0
 25 11  1  0
 17 12  1  0
 25 20  1  0
  1 26  1  0
  1 27  1  0
  1 28  1  0
  3 29  1  0
  3 30  1  0
  3 31  1  0
  4 32  1  0
  4 33  1  0
  5 34  1  0
  5 35  1  0
  7 36  1  0
  8 37  1  0
  8 38  1  0
  9 39  1  0
  9 40  1  0
 10 41  1  0
 13 42  1  0
 14 43  1  0
 15 44  1  0
 16 45  1  0
 19 46  1  0
 19 47  1  0
 19 48  1  0
 21 49  1  0
 22 50  1  0
 23 51  1  0
 24 52  1  0
M  CHG  1  18   1
M  END
>  <UniqueID>  (8) 
8

>  <SMILES>  (8) 
CN(C)CCONCCNc1c2ccccc2[n+](C)c2ccccc12

>  <Energy>  (8) 
81.8006790224116

>  <Genealogy>  (8) 
CN(C)CCONCCNc1c2ccccc2[n+](C)c2ccccc12 (3D coordinates assigned)
CN(C)CCONCCNc1c2ccccc2[n+](C)c2ccccc12 (optimized conformer: 81.8006790224116 kcal/mol)

>  <smiles>  (8) 
CN(C)CCONCCNc1c2ccccc2[n+](C)c2ccccc12

>  <score_type>  (8) 
oracle

>  <origin>  (8) 
adg

>  <m_score__min__energy>  (8) 
-8.1699999999999999

>  <m_primary>  (8) 
energy

$$$$
8:0
     RDKit          3D

 58 61  0  0  0  0  0  0  0  0999 V2000
    0.4180   20.4130  -32.6550 C   0  0  0  0  0  0  0  0  0  0  0  0
    0.1570   21.1480  -33.9760 C   0  0  0  0  0  0  0  0  0  0  0  0
   -1.2690   21.1480  -34.3530 N   0  0  0  0  0  0  0  0  0  0  0  0
   -2.0800   20.3020  -33.4580 C   0  0  0  0  0  0  0  0  0  0  0  0
   -3.5670   20.6780  -33.5240 C   0  0  0  0  0  0  0  0  0  0  0  0
   -4.2130   20.5480  -32.2130 N   0  0  0  0  0  0  0  0  0  0  0  0
   -5.5140   21.1090  -31.9490 C   0  0  0  0  0  0  0  0  0  0  0  0
   -6.6770   20.3410  -32.1440 C   0  0  0  0  0  0  0  0  0  0  0  0
   -6.5970   18.9540  -32.3950 C   0  0  0  0  0  0  0  0  0  0  0  0
   -7.7520   18.1940  -32.5630 C   0  0  0  0  0  0  0  0  0  0  0  0
   -9.0010   18.7930  -32.4580 C   0  0  0  0  0  0  0  0  0  0  0  0
   -9.1050   20.1560  -32.1890 C   0  0  0  0  0  0  0  0  0  0  0  0
   -7.9490   20.9650  -32.0430 C   0  0  0  0  0  0  0  0  0  0  0  0
   -8.0370   22.3190  -31.7830 N   0  0  0  0  0  0  0  0  0  0  0  0
   -9.3230   23.0280  -31.9660 C   0  0  0  0  0  0  0  0  0  0  0  0
   -6.9200   23.0130  -31.3560 C   0  0  0  0  0  0  0  0  0  0  0  0
   -7.0160   24.3100  -30.7970 C   0  0  0  0  0  0  0  0  0  0  0  0
   -5.8770   25.0100  -30.3990 C   0  0  0  0  0  0  0  0  0  0  0  0
   -4.6130   24.4430  -30.5240 C   0  0  0  0  0  0  0  0  0  0  0  0
   -3.5040   25.1900  -30.0910 O   0  0  0  0  0  0  0  0  0  0  0  0
   -2.6760   24.8700  -28.9700 C   0  0  0  0  0  0  0  0  0  0  0  0
   -2.3960   23.3910  -28.9070 C   0  0  0  0  0  0  0  0  0  0  0  0
   -1.4520   22.8140  -29.7740 C   0  0  0  0  0  0  0  0  0  0  0  0
   -1.1950   21.4400  -29.7200 C   0  0  0  0  0  0  0  0  0  0  0  0
   -1.8800   20.6340  -28.8060 C   0  0  0  0  0  0  0  0  0  0  0  0
   -2.8280   21.2000  -27.9460 C   0  0  0  0  0  0  0  0  0  0  0  0
   -3.0900   22.5720  -27.9990 C   0  0  0  0  0  0  0  0  0  0  0  0
   -4.4960   23.1510  -31.0590 C   0  0  0  0  0  0  0  0  0  0  0  0
   -5.6340   22.4210  -31.4570 C   0  0  0  0  0  0  0  0  0  0  0  0
    0.1815   21.0789  -31.8120 H   0  0  0  0  0  0  0  0  0  0  0  0
   -0.2166   19.5160  -32.6029 H   0  0  0  0  0  0  0  0  0  0  0  0
    1.4762   20.1171  -32.6029 H   0  0  0  0  0  0  0  0  0  0  0  0
    0.4939   22.1900  -33.8719 H   0  0  0  0  0  0  0  0  0  0  0  0
    0.7105   20.6196  -34.7662 H   0  0  0  0  0  0  0  0  0  0  0  0
   -1.3740   20.8410  -35.3450 H   0  0  0  0  0  0  0  0  0  0  0  0
   -1.6160   22.1330  -34.2830 H   0  0  0  0  0  0  0  0  0  0  0  0
   -1.9636   19.2501  -33.7577 H   0  0  0  0  0  0  0  0  0  0  0  0
   -1.7303   20.4560  -32.4265 H   0  0  0  0  0  0  0  0  0  0  0  0
   -3.6575   21.7198  -33.8654 H   0  0  0  0  0  0  0  0  0  0  0  0
   -4.0658   19.9918  -34.2242 H   0  0  0  0  0  0  0  0  0  0  0  0
   -3.6970   20.0710  -31.4410 H   0  0  0  0  0  0  0  0  0  0  0  0
   -5.6120   18.4684  -32.4586 H   0  0  0  0  0  0  0  0  0  0  0  0
   -7.6751   17.1182  -32.7791 H   0  0  0  0  0  0  0  0  0  0  0  0
   -9.9111   18.1890  -32.5877 H   0  0  0  0  0  0  0  0  0  0  0  0
  -10.1006   20.6127  -32.0881 H   0  0  0  0  0  0  0  0  0  0  0  0
   -9.7539   23.2656  -30.9822 H   0  0  0  0  0  0  0  0  0  0  0  0
   -9.1519   23.9592  -32.5259 H   0  0  0  0  0  0  0  0  0  0  0  0
  -10.0191   22.3862  -32.5259 H   0  0  0  0  0  0  0  0  0  0  0  0
   -8.0059   24.7738  -30.6744 H   0  0  0  0  0  0  0  0  0  0  0  0
   -5.9796   26.0224  -29.9813 H   0  0  0  0  0  0  0  0  0  0  0  0
   -1.7233   25.4124  -29.0606 H   0  0  0  0  0  0  0  0  0  0  0  0
   -3.2032   25.1652  -28.0508 H   0  0  0  0  0  0  0  0  0  0  0  0
   -0.9138   23.4446  -30.4970 H   0  0  0  0  0  0  0  0  0  0  0  0
   -0.4528   20.9931  -30.3978 H   0  0  0  0  0  0  0  0  0  0  0  0
   -1.6738   19.5544  -28.7627 H   0  0  0  0  0  0  0  0  0  0  0  0
   -3.3673   20.5648  -27.2279 H   0  0  0  0  0  0  0  0  0  0  0  0
   -3.8419   23.0126  -27.3278 H   0  0  0  0  0  0  0  0  0  0  0  0
   -3.4988   22.7001  -31.1697 H   0  0  0  0  0  0  0  0  0  0  0  0
  1  2  1  0
  2  3  1  0
  3  4  1  0
  4  5  1  0
  5  6  1  0
  6  7  1  0
  7  8  2  0
  8  9  1  0
  9 10  2  0
 10 11  1  0
 11 12  2  0
 12 13  1  0
 13 14  2  0
 14 15  1  0
 14 16  1  0
 16 17  2  0
 17 18  1  0
 18 19  2  0
 19 20  1  0
 20 21  1  0
 21 22  1  0
 22 23  2  0
 23 24  1  0
 24 25  2  0
 25 26  1  0
 26 27  2  0
 19 28  1  0
 28 29  2  0
 29  7  1  0
 13  8  1  0
 29 16  1  0
 27 22  1  0
  1 30  1  0
  1 31  1  0
  1 32  1  0
  2 33  1  0
  2 34  1  0
  3 35  1  0
  3 36  1  0
  4 37  1  0
  4 38  1  0
  5 39  1  0
  5 40  1  0
  6 41  1  0
  9 42  1  0
 10 43  1  0
 11 44  1  0
 12 45  1  0
 15 46  1  0
 15 47  1  0
 15 48  1  0
 17 49  1  0
 18 50  1  0
 21 51  1  0
 21 52  1  0
 23 53  1  0
 24 54  1  0
 25 55  1  0
 26 56  1  0
 27 57  1  0
 28 58  1  0
M  CHG  2   3   1  14   1
M  END
>  <UniqueID>  (9) 
9

>  <SMILES>  (9) 
CC[NH2+]CCNc1c2ccccc2[n+](C)c2ccc(OCc3ccccc3)cc12

>  <Energy>  (9) 
81.74914164076223

>  <Genealogy>  (9) 
CC[NH2+]CCNc1c2ccccc2[n+](C)c2ccc(OCc3ccccc3)cc12 (protonated)
CC[NH2+]CCNc1c2ccccc2[n+](C)c2ccc(OCc3ccccc3)cc12 (3D coordinates assigned)
CC[NH2+]CCNc1c2ccccc2[n+](C)c2ccc(OCc3ccccc3)cc12 (optimized conformer: 81.74914164076223 kcal/mol)

>  <smiles>  (9) 
CCNCCNc1c2ccccc2[n+](C)c2ccc(OCc3ccccc3)cc12

>  <score_type>  (9) 
oracle

>  <origin>  (9) 
adg

>  <m_score__min__energy>  (9) 
-8.7899999999999991

>  <m_primary>  (9) 
energy

$$$$
9:0
     RDKit          3D

 38 40  0  0  0  0  0  0  0  0999 V2000
   -9.4600   19.0780  -32.7060 C   0  0  0  0  0  0  0  0  0  0  0  0
   -8.3800   20.0590  -32.3700 C   0  0  0  0  0  0  0  0  0  0  0  0
   -8.5490   21.1630  -31.5390 C   0  0  0  0  0  0  0  0  0  0  0  0
   -7.3120   21.7670  -31.4880 C   0  0  0  0  0  0  0  0  0  0  0  0
   -6.8890   22.8940  -30.7870 C   0  0  0  0  0  0  0  0  0  0  0  0
   -5.5370   23.2770  -30.9000 C   0  0  0  0  0  0  0  0  0  0  0  0
   -4.9310   24.6740  -30.0160 S   0  0  0  0  0  0  0  0  0  0  0  0
   -3.8620   25.3400  -30.8370 O   0  0  0  0  0  0  0  0  0  0  0  0
   -6.0460   25.6590  -29.7900 O   0  0  0  0  0  0  0  0  0  0  0  0
   -4.2640   24.1650  -28.4840 N   0  0  0  0  0  0  0  0  0  0  0  0
   -2.8340   24.5260  -28.4120 C   0  0  0  0  0  0  0  0  0  0  0  0
   -2.1120   23.6700  -27.3590 C   0  0  0  0  0  0  0  0  0  0  0  0
   -2.1640   22.2710  -27.6080 O   0  0  0  0  0  0  0  0  0  0  0  0
   -3.2370   21.8790  -28.4530 C   0  0  0  0  0  0  0  0  0  0  0  0
   -4.5080   22.7230  -28.2500 C   0  0  0  0  0  0  0  0  0  0  0  0
   -4.6510   22.5140  -31.6970 C   0  0  0  0  0  0  0  0  0  0  0  0
   -5.1060   21.3800  -32.3920 C   0  0  0  0  0  0  0  0  0  0  0  0
   -6.4560   21.0330  -32.2700 C   0  0  0  0  0  0  0  0  0  0  0  0
   -7.1030   19.9920  -32.8310 N   0  0  0  0  0  0  0  0  0  0  0  0
   -6.5160   18.9460  -33.6670 C   0  0  0  0  0  0  0  0  0  0  0  0
   -9.8968   18.6813  -31.7776 H   0  0  0  0  0  0  0  0  0  0  0  0
  -10.2422   19.5808  -33.2936 H   0  0  0  0  0  0  0  0  0  0  0  0
   -9.0345   18.2512  -33.2936 H   0  0  0  0  0  0  0  0  0  0  0  0
   -9.4712   21.4838  -31.0324 H   0  0  0  0  0  0  0  0  0  0  0  0
   -7.5897   23.4685  -30.1633 H   0  0  0  0  0  0  0  0  0  0  0  0
   -2.3690   24.3585  -29.3947 H   0  0  0  0  0  0  0  0  0  0  0  0
   -2.7496   25.5850  -28.1265 H   0  0  0  0  0  0  0  0  0  0  0  0
   -1.0558   23.9761  -27.3311 H   0  0  0  0  0  0  0  0  0  0  0  0
   -2.6311   23.8401  -26.4042 H   0  0  0  0  0  0  0  0  0  0  0  0
   -2.9132   21.9807  -29.4993 H   0  0  0  0  0  0  0  0  0  0  0  0
   -3.4907   20.8394  -28.1983 H   0  0  0  0  0  0  0  0  0  0  0  0
   -5.2801   22.3756  -28.9523 H   0  0  0  0  0  0  0  0  0  0  0  0
   -4.8325   22.5999  -27.2062 H   0  0  0  0  0  0  0  0  0  0  0  0
   -3.5948   22.8115  -31.7735 H   0  0  0  0  0  0  0  0  0  0  0  0
   -4.4215   20.7835  -33.0130 H   0  0  0  0  0  0  0  0  0  0  0  0
   -6.0786   18.1665  -33.0258 H   0  0  0  0  0  0  0  0  0  0  0  0
   -7.2971   18.5027  -34.3021 H   0  0  0  0  0  0  0  0  0  0  0  0
   -5.7307   19.3818  -34.3021 H   0  0  0  0  0  0  0  0  0  0  0  0
  1  2  1  0
  2  3  2  0
  3  4  1  0
  4  5  2  0
  5  6  1  0
  6  7  1  0
  7  8  2  0
  7  9  2  0
  7 10  1  0
 10 11  1  0
 11 12  1  0
 12 13  1  0
 13 14  1  0
 14 15  1  0
  6 16  2  0
 16 17  1  0
 17 18  2  0
 18 19  1  0
 19 20  1  0
 19  2  1  0
 18  4  1  0
 15 10  1  0
  1 21  1  0
  1 22  1  0
  1 23  1  0
  3 24  1  0
  5 25  1  0
 11 26  1  0
 11 27  1  0
 12 28  1  0
 12 29  1  0
 14 30  1  0
 14 31  1  0
 15 32  1  0
 15 33  1  0
 16 34  1  0
 17 35  1  0
 20 36  1  0
 20 37  1  0
 20 38  1  0
M  END
>  <UniqueID>  (10) 
10

>  <SMILES>  (10) 
Cc1cc2cc(S(=O)(=O)N3CCOCC3)ccc2n1C

>  <Energy>  (10) 
83.32174269318945

>  <Genealogy>  (10) 
Cc1cc2cc(S(=O)(=O)N3CCOCC3)ccc2n1C (3D coordinates assigned)
Cc1cc2cc(S(=O)(=O)N3CCOCC3)ccc2n1C (nonaromatic ring conformer: 83.32174269318945 kcal/mol)

>  <smiles>  (10) 
Cc1cc2cc(S(=O)(=O)N3CCOCC3)ccc2n1C

>  <score_type>  (10) 
oracle

>  <origin>  (10) 
adg

>  <m_score__min__energy>  (10) 
-8.7200000000000006

>  <m_primary>  (10) 
energy

$$$$
10:0
     RDKit          3D

 79 82  0  0  0  0  0  0  0  0999 V2000
    1.8310   22.3600  -35.3000 C   0  0  0  0  0  0  0  0  0  0  0  0
    0.3580   22.4710  -35.6700 C   0  0  0  0  0  0  0  0  0  0  0  0
   -0.4730   21.9800  -34.5630 N   0  0  0  0  0  0  0  0  0  0  0  0
    0.2170   20.9610  -33.7580 C   0  0  0  0  0  0  0  0  0  0  0  0
   -0.7160   19.8010  -33.3540 C   0  0  0  0  0  0  0  0  0  0  0  0
   -1.8510   20.2570  -32.4200 C   0  0  0  0  0  0  0  0  0  0  0  0
   -2.4900   21.4970  -32.8970 N   0  0  0  0  0  0  0  0  0  0  0  0
   -3.8430   21.6140  -32.3740 C   0  0  0  0  0  0  0  0  0  0  0  0
   -4.8550   20.6970  -32.7670 C   0  0  0  0  0  0  0  0  0  0  0  0
   -4.5570   19.5390  -33.5280 C   0  0  0  0  0  0  0  0  0  0  0  0
   -5.5540   18.6340  -33.8800 C   0  0  0  0  0  0  0  0  0  0  0  0
   -6.8630   18.8470  -33.4720 C   0  0  0  0  0  0  0  0  0  0  0  0
   -7.1870   19.9750  -32.7230 C   0  0  0  0  0  0  0  0  0  0  0  0
   -6.2020   20.9370  -32.3800 C   0  0  0  0  0  0  0  0  0  0  0  0
   -6.5290   22.0730  -31.6710 N   0  0  0  0  0  0  0  0  0  0  0  0
   -7.9430   22.4960  -31.5590 C   0  0  0  0  0  0  0  0  0  0  0  0
   -5.5360   22.8250  -31.0770 C   0  0  0  0  0  0  0  0  0  0  0  0
   -5.8400   23.7940  -30.0880 C   0  0  0  0  0  0  0  0  0  0  0  0
   -4.8460   24.5830  -29.5160 C   0  0  0  0  0  0  0  0  0  0  0  0
   -3.5110   24.4230  -29.8980 C   0  0  0  0  0  0  0  0  0  0  0  0
   -2.4700   25.2020  -29.3680 O   0  0  0  0  0  0  0  0  0  0  0  0
   -1.3010   24.7030  -28.7150 C   0  0  0  0  0  0  0  0  0  0  0  0
   -1.6800   24.0480  -27.3640 C   0  0  0  0  0  0  0  0  0  0  0  0
   -0.9720   24.5820  -26.1530 N   0  0  0  0  0  0  0  0  0  0  0  0
   -0.4880   23.3890  -25.4010 C   0  0  0  0  0  0  0  0  0  0  0  0
    0.2140   25.3990  -26.5610 C   0  0  0  0  0  0  0  0  0  0  0  0
    0.7880   26.2240  -25.3920 C   0  0  0  0  0  0  0  0  0  0  0  0
   -0.2140   27.1660  -24.7850 N   0  0  0  0  0  0  0  0  0  0  0  0
    0.1040   28.5590  -25.1970 C   0  0  0  0  0  0  0  0  0  0  0  0
   -0.1200   27.1030  -23.3030 C   0  0  0  0  0  0  0  0  0  0  0  0
   -1.6150   26.8650  -25.2120 C   0  0  0  0  0  0  0  0  0  0  0  0
   -1.9130   25.3500  -25.2650 C   0  0  0  0  0  0  0  0  0  0  0  0
   -3.1840   23.4400  -30.8340 C   0  0  0  0  0  0  0  0  0  0  0  0
   -4.1760   22.6270  -31.4350 C   0  0  0  0  0  0  0  0  0  0  0  0
    1.9344   22.3522  -34.2049 H   0  0  0  0  0  0  0  0  0  0  0  0
    2.2438   21.4282  -35.7139 H   0  0  0  0  0  0  0  0  0  0  0  0
    2.3788   23.2194  -35.7139 H   0  0  0  0  0  0  0  0  0  0  0  0
    0.1110   23.5236  -35.8727 H   0  0  0  0  0  0  0  0  0  0  0  0
    0.1627   21.8644  -36.5666 H   0  0  0  0  0  0  0  0  0  0  0  0
   -1.3590   21.5780  -34.9530 H   0  0  0  0  0  0  0  0  0  0  0  0
    1.0535   20.5538  -34.3449 H   0  0  0  0  0  0  0  0  0  0  0  0
    0.5703   21.4446  -32.8353 H   0  0  0  0  0  0  0  0  0  0  0  0
   -1.1592   19.3711  -34.2643 H   0  0  0  0  0  0  0  0  0  0  0  0
   -0.1122   19.0598  -32.8099 H   0  0  0  0  0  0  0  0  0  0  0  0
   -2.6102   19.4626  -32.3686 H   0  0  0  0  0  0  0  0  0  0  0  0
   -1.4179   20.4560  -31.4286 H   0  0  0  0  0  0  0  0  0  0  0  0
   -2.5040   21.5350  -33.9380 H   0  0  0  0  0  0  0  0  0  0  0  0
   -1.9190   22.3310  -32.6320 H   0  0  0  0  0  0  0  0  0  0  0  0
   -3.5205   19.3525  -33.8457 H   0  0  0  0  0  0  0  0  0  0  0  0
   -5.3039   17.7484  -34.4826 H   0  0  0  0  0  0  0  0  0  0  0  0
   -7.6464   18.1231  -33.7409 H   0  0  0  0  0  0  0  0  0  0  0  0
   -8.2252   20.1231  -32.3912 H   0  0  0  0  0  0  0  0  0  0  0  0
   -8.2181   22.5783  -30.4971 H   0  0  0  0  0  0  0  0  0  0  0  0
   -8.0735   23.4725  -32.0483 H   0  0  0  0  0  0  0  0  0  0  0  0
   -8.5883   21.7516  -32.0483 H   0  0  0  0  0  0  0  0  0  0  0  0
   -6.8835   23.9252  -29.7657 H   0  0  0  0  0  0  0  0  0  0  0  0
   -5.1124   25.3360  -28.7597 H   0  0  0  0  0  0  0  0  0  0  0  0
   -0.8174   23.9536  -29.3588 H   0  0  0  0  0  0  0  0  0  0  0  0
   -0.6111   25.5389  -28.5270 H   0  0  0  0  0  0  0  0  0  0  0  0
   -2.7602   24.1899  -27.2123 H   0  0  0  0  0  0  0  0  0  0  0  0
   -1.3720   22.9953  -27.4478 H   0  0  0  0  0  0  0  0  0  0  0  0
   -0.5656   23.5803  -24.3205 H   0  0  0  0  0  0  0  0  0  0  0  0
   -1.1029   22.5156  -25.6638 H   0  0  0  0  0  0  0  0  0  0  0  0
    0.5616   23.1909  -25.6638 H   0  0  0  0  0  0  0  0  0  0  0  0
    0.9972   24.7230  -26.9347 H   0  0  0  0  0  0  0  0  0  0  0  0
   -0.1149   26.1032  -27.3394 H   0  0  0  0  0  0  0  0  0  0  0  0
    1.1339   25.5306  -24.6112 H   0  0  0  0  0  0  0  0  0  0  0  0
    1.6093   26.8349  -25.7948 H   0  0  0  0  0  0  0  0  0  0  0  0
    0.2464   29.1826  -24.3021 H   0  0  0  0  0  0  0  0  0  0  0  0
    1.0261   28.5625  -25.7968 H   0  0  0  0  0  0  0  0  0  0  0  0
   -0.7252   28.9623  -25.7968 H   0  0  0  0  0  0  0  0  0  0  0  0
   -0.9558   27.6632  -22.8584 H   0  0  0  0  0  0  0  0  0  0  0  0
   -0.1673   26.0535  -22.9769 H   0  0  0  0  0  0  0  0  0  0  0  0
    0.8327   27.5457  -22.9769 H   0  0  0  0  0  0  0  0  0  0  0  0
   -2.3083   27.3347  -24.4987 H   0  0  0  0  0  0  0  0  0  0  0  0
   -1.7437   27.2633  -26.2292 H   0  0  0  0  0  0  0  0  0  0  0  0
   -1.8374   24.9448  -24.2452 H   0  0  0  0  0  0  0  0  0  0  0  0
   -2.9221   25.2342  -25.6873 H   0  0  0  0  0  0  0  0  0  0  0  0
   -2.1298   23.2933  -31.1116 H   0  0  0  0  0  0  0  0  0  0  0  0
  1  2  1  0
  2  3  1  0
  3  4  1  0
  4  5  1  0
  5  6  1  0
  6  7  1  0
  7  8  1  0
  8  9  2  0
  9 10  1  0
 10 11  2  0
 11 12  1  0
 12 13  2  0
 13 14  1  0
 14 15  2  0
 15 16  1  0
 15 17  1  0
 17 18  2  0
 18 19  1  0
 19 20  2  0
 20 21  1  0
 21 22  1  0
 22 23  1  0
 23 24  1  0
 24 25  1  0
 24 26  1  0
 26 27  1  0
 27 28  1  0
 28 29  1  0
 28 30  1  0
 28 31  1  0
 31 32  1  0
 20 33  1  0
 33 34  2  0
 34  8  1  0
 14  9  1  0
 34 17  1  0
 32 24  1  0
  1 35  1  0
  1 36  1  0
  1 37  1  0
  2 38  1  0
  2 39  1  0
  3 40  1  0
  4 41  1  0
  4 42  1  0
  5 43  1  0
  5 44  1  0
  6 45  1  0
  6 46  1  0
  7 47  1  0
  7 48  1  0
 10 49  1  0
 11 50  1  0
 12 51  1  0
 13 52  1  0
 16 53  1  0
 16 54  1  0
 16 55  1  0
 18 56  1  0
 19 57  1  0
 22 58  1  0
 22 59  1  0
 23 60  1  0
 23 61  1  0
 25 62  1  0
 25 63  1  0
 25 64  1  0
 26 65  1  0
 26 66  1  0
 27 67  1  0
 27 68  1  0
 29 69  1  0
 29 70  1  0
 29 71  1  0
 30 72  1  0
 30 73  1  0
 30 74  1  0
 31 75  1  0
 31 76  1  0
 32 77  1  0
 32 78  1  0
 33 79  1  0
M  CHG  4   7   1  15   1  24   1  28   1
M  END
>  <UniqueID>  (11) 
11

>  <SMILES>  (11) 
CCNCCC[NH2+]c1c2ccccc2[n+](C)c2ccc(OCC[N+]3(C)CC[N+](C)(C)CC3)cc12

>  <Energy>  (11) 
131.01990671813448

>  <Genealogy>  (11) 
CCNCCC[NH2+]c1c2ccccc2[n+](C)c2ccc(OCC[N+]3(C)CC[N+](C)(C)CC3)cc12 (protonated)
CCNCCC[NH2+]c1c2ccccc2[n+](C)c2ccc(OCC[N+]3(C)CC[N+](C)(C)CC3)cc12 (3D coordinates assigned)
CCNCCC[NH2+]c1c2ccccc2[n+](C)c2ccc(OCC[N+]3(C)CC[N+](C)(C)CC3)cc12 (nonaromatic ring conformer: 131.01990671813448 kcal/mol)

>  <smiles>  (11) 
CCNCCCNc1c2ccccc2[n+](C)c2ccc(OCC[N+]3(C)CC[N+](C)(C)CC3)cc12

>  <score_type>  (11) 
oracle

>  <origin>  (11) 
adg

>  <m_score__min__energy>  (11) 
-8.0199999999999996

>  <m_primary>  (11) 
energy

$$$$
11:0
     RDKit          3D

 41 43  0  0  0  0  0  0  0  0999 V2000
   -3.8680   24.6330  -26.7350 C   0  0  0  0  0  0  0  0  0  0  0  0
   -4.2240   23.8000  -27.9680 C   0  0  0  0  0  0  0  0  0  0  0  0
   -5.1070   24.5150  -28.9070 N   0  0  0  0  0  0  0  0  0  0  0  0
   -4.8910   24.1970  -30.3340 C   0  0  0  0  0  0  0  0  0  0  0  0
   -6.1090   24.4850  -31.2320 C   0  0  0  0  0  0  0  0  0  0  0  0
   -6.3160   23.4240  -32.2190 N   0  0  0  0  0  0  0  0  0  0  0  0
   -7.2590   22.3410  -32.0600 C   0  0  0  0  0  0  0  0  0  0  0  0
   -8.5440   22.5980  -31.5430 C   0  0  0  0  0  0  0  0  0  0  0  0
   -9.5080   21.5910  -31.4890 C   0  0  0  0  0  0  0  0  0  0  0  0
   -9.2150   20.3110  -31.9480 C   0  0  0  0  0  0  0  0  0  0  0  0
   -7.9390   20.0150  -32.4430 C   0  0  0  0  0  0  0  0  0  0  0  0
   -7.6470   18.7220  -32.8870 C   0  0  0  0  0  0  0  0  0  0  0  0
   -6.3650   18.4190  -33.3580 C   0  0  0  0  0  0  0  0  0  0  0  0
   -6.0780   17.1220  -33.8080 C   0  0  0  0  0  0  0  0  0  0  0  0
   -4.7980   16.8210  -34.2660 C   0  0  0  0  0  0  0  0  0  0  0  0
   -3.8150   17.8070  -34.2680 C   0  0  0  0  0  0  0  0  0  0  0  0
   -4.1260   19.0910  -33.8150 C   0  0  0  0  0  0  0  0  0  0  0  0
   -5.3860   19.3890  -33.3680 N   0  0  0  0  0  0  0  0  0  0  0  0
   -5.6550   20.6600  -32.9380 C   0  0  0  0  0  0  0  0  0  0  0  0
   -6.9420   21.0210  -32.4870 C   0  0  0  0  0  0  0  0  0  0  0  0
   -4.1111   24.0641  -25.8255 H   0  0  0  0  0  0  0  0  0  0  0  0
   -2.7926   24.8639  -26.7465 H   0  0  0  0  0  0  0  0  0  0  0  0
   -4.4443   25.5699  -26.7465 H   0  0  0  0  0  0  0  0  0  0  0  0
   -3.2944   23.5348  -28.4929 H   0  0  0  0  0  0  0  0  0  0  0  0
   -4.7654   22.9083  -27.6192 H   0  0  0  0  0  0  0  0  0  0  0  0
   -6.1010   24.2890  -28.6690 H   0  0  0  0  0  0  0  0  0  0  0  0
   -4.9910   25.5460  -28.7620 H   0  0  0  0  0  0  0  0  0  0  0  0
   -4.0438   24.7970  -30.6976 H   0  0  0  0  0  0  0  0  0  0  0  0
   -4.7008   23.1152  -30.3935 H   0  0  0  0  0  0  0  0  0  0  0  0
   -7.0064   24.5650  -30.6009 H   0  0  0  0  0  0  0  0  0  0  0  0
   -5.9225   25.4248  -31.7723 H   0  0  0  0  0  0  0  0  0  0  0  0
   -5.7730   23.5050  -33.1070 H   0  0  0  0  0  0  0  0  0  0  0  0
   -8.7905   23.6057  -31.1772 H   0  0  0  0  0  0  0  0  0  0  0  0
  -10.5057   21.8105  -31.0810 H   0  0  0  0  0  0  0  0  0  0  0  0
   -9.9881   19.5289  -31.9220 H   0  0  0  0  0  0  0  0  0  0  0  0
   -8.4242   17.9439  -32.8661 H   0  0  0  0  0  0  0  0  0  0  0  0
   -6.8591   16.3475  -33.7992 H   0  0  0  0  0  0  0  0  0  0  0  0
   -4.5643   15.8078  -34.6250 H   0  0  0  0  0  0  0  0  0  0  0  0
   -2.8001   17.5762  -34.6240 H   0  0  0  0  0  0  0  0  0  0  0  0
   -3.3507   19.8714  -33.8172 H   0  0  0  0  0  0  0  0  0  0  0  0
   -4.8536   21.4134  -32.9441 H   0  0  0  0  0  0  0  0  0  0  0  0
  1  2  1  0
  2  3  1  0
  3  4  1  0
  4  5  1  0
  5  6  1  0
  6  7  1  0
  7  8  2  0
  8  9  1  0
  9 10  2  0
 10 11  1  0
 11 12  2  0
 12 13  1  0
 13 14  2  0
 14 15  1  0
 15 16  2  0
 16 17  1  0
 17 18  2  0
 18 19  1  0
 19 20  2  0
 20  7  1  0
 20 11  1  0
 18 13  1  0
  1 21  1  0
  1 22  1  0
  1 23  1  0
  2 24  1  0
  2 25  1  0
  3 26  1  0
  3 27  1  0
  4 28  1  0
  4 29  1  0
  5 30  1  0
  5 31  1  0
  6 32  1  0
  8 33  1  0
  9 34  1  0
 10 35  1  0
 12 36  1  0
 14 37  1  0
 15 38  1  0
 16 39  1  0
 17 40  1  0
 19 41  1  0
M  CHG  2   3   1  18   1
M  END
>  <UniqueID>  (12) 
12

>  <SMILES>  (12) 
CC[NH2+]CCNc1cccc2cc3cccc[n+]3cc12

>  <Energy>  (12) 
53.38695425149189

>  <Genealogy>  (12) 
CC[NH2+]CCNc1cccc2cc3cccc[n+]3cc12 (protonated)
CC[NH2+]CCNc1cccc2cc3cccc[n+]3cc12 (3D coordinates assigned)
CC[NH2+]CCNc1cccc2cc3cccc[n+]3cc12 (optimized conformer: 53.38695425149189 kcal/mol)

>  <smiles>  (12) 
CCNCCNc1cccc2cc3cccc[n+]3cc12

>  <score_type>  (12) 
oracle

>  <origin>  (12) 
adg

>  <m_score__min__energy>  (12) 
-7.3700000000000001

>  <m_primary>  (12) 
energy

$$$$
12:0
     RDKit          3D

 47 49  0  0  0  0  0  0  0  0999 V2000
    0.6240   19.4330  -31.9120 C   0  0  0  0  0  0  0  0  0  0  0  0
    0.0630   20.8180  -32.2310 C   0  0  0  0  0  0  0  0  0  0  0  0
    0.0610   21.1360  -33.7390 C   0  0  0  0  0  0  0  0  0  0  0  0
   -1.2870   21.2340  -34.3290 N   0  0  0  0  0  0  0  0  0  0  0  0
   -2.2620   20.3400  -33.6720 C   0  0  0  0  0  0  0  0  0  0  0  0
   -3.2670   21.1200  -32.8070 C   0  0  0  0  0  0  0  0  0  0  0  0
   -4.5970   21.1820  -33.4250 N   0  0  0  0  0  0  0  0  0  0  0  0
   -5.7100   20.4230  -32.9260 C   0  0  0  0  0  0  0  0  0  0  0  0
   -5.7640   19.0420  -33.1840 C   0  0  0  0  0  0  0  0  0  0  0  0
   -4.6380   18.3610  -33.6990 C   0  0  0  0  0  0  0  0  0  0  0  0
   -4.7060   17.0080  -34.0200 C   0  0  0  0  0  0  0  0  0  0  0  0
   -5.8950   16.3130  -33.8440 C   0  0  0  0  0  0  0  0  0  0  0  0
   -7.0120   16.9560  -33.3100 C   0  0  0  0  0  0  0  0  0  0  0  0
   -6.9580   18.3220  -32.9280 C   0  0  0  0  0  0  0  0  0  0  0  0
   -8.0400   18.9590  -32.3520 N   0  0  0  0  0  0  0  0  0  0  0  0
   -9.1880   18.1620  -31.8610 C   0  0  0  0  0  0  0  0  0  0  0  0
   -8.0330   20.3320  -32.1880 C   0  0  0  0  0  0  0  0  0  0  0  0
   -9.2210   21.0370  -31.8710 C   0  0  0  0  0  0  0  0  0  0  0  0
   -9.2000   22.4020  -31.6090 C   0  0  0  0  0  0  0  0  0  0  0  0
   -8.0010   23.0970  -31.6300 C   0  0  0  0  0  0  0  0  0  0  0  0
   -6.8150   22.4540  -31.9860 C   0  0  0  0  0  0  0  0  0  0  0  0
   -5.3480   23.4190  -31.8010 Cl  0  0  0  0  0  0  0  0  0  0  0  0
   -6.8300   21.0770  -32.3600 C   0  0  0  0  0  0  0  0  0  0  0  0
    0.6773   19.3013  -30.8212 H   0  0  0  0  0  0  0  0  0  0  0  0
   -0.0332   18.6631  -32.3426 H   0  0  0  0  0  0  0  0  0  0  0  0
    1.6317   19.3375  -32.3426 H   0  0  0  0  0  0  0  0  0  0  0  0
   -0.9714   20.8707  -31.8606 H   0  0  0  0  0  0  0  0  0  0  0  0
    0.7138   21.5568  -31.7405 H   0  0  0  0  0  0  0  0  0  0  0  0
    0.5758   22.0962  -33.8908 H   0  0  0  0  0  0  0  0  0  0  0  0
    0.5686   20.2995  -34.2416 H   0  0  0  0  0  0  0  0  0  0  0  0
   -1.5910   22.2280  -34.2330 H   0  0  0  0  0  0  0  0  0  0  0  0
   -1.2520   21.0260  -35.3540 H   0  0  0  0  0  0  0  0  0  0  0  0
   -2.8140   19.7865  -34.4459 H   0  0  0  0  0  0  0  0  0  0  0  0
   -1.7062   19.6560  -33.0138 H   0  0  0  0  0  0  0  0  0  0  0  0
   -3.3532   20.6238  -31.8291 H   0  0  0  0  0  0  0  0  0  0  0  0
   -2.8947   22.1496  -32.7010 H   0  0  0  0  0  0  0  0  0  0  0  0
   -4.7900   21.9410  -34.1180 H   0  0  0  0  0  0  0  0  0  0  0  0
   -3.6950   18.9073  -33.8483 H   0  0  0  0  0  0  0  0  0  0  0  0
   -3.8186   16.4901  -34.4127 H   0  0  0  0  0  0  0  0  0  0  0  0
   -5.9565   15.2517  -34.1266 H   0  0  0  0  0  0  0  0  0  0  0  0
   -7.9498   16.3953  -33.1829 H   0  0  0  0  0  0  0  0  0  0  0  0
   -9.1898   18.1608  -30.7610 H   0  0  0  0  0  0  0  0  0  0  0  0
  -10.1256   18.6045  -32.2287 H   0  0  0  0  0  0  0  0  0  0  0  0
   -9.1012   17.1289  -32.2287 H   0  0  0  0  0  0  0  0  0  0  0  0
  -10.1769   20.4942  -31.8316 H   0  0  0  0  0  0  0  0  0  0  0  0
  -10.1374   22.9320  -31.3844 H   0  0  0  0  0  0  0  0  0  0  0  0
   -7.9843   24.1642  -31.3638 H   0  0  0  0  0  0  0  0  0  0  0  0
  1  2  1  0
  2  3  1  0
  3  4  1  0
  4  5  1  0
  5  6  1  0
  6  7  1  0
  7  8  1  0
  8  9  2  0
  9 10  1  0
 10 11  2  0
 11 12  1  0
 12 13  2  0
 13 14  1  0
 14 15  2  0
 15 16  1  0
 15 17  1  0
 17 18  2  0
 18 19  1  0
 19 20  2  0
 20 21  1  0
 21 22  1  0
 21 23  2  0
 23  8  1  0
 14  9  1  0
 23 17  1  0
  1 24  1  0
  1 25  1  0
  1 26  1  0
  2 27  1  0
  2 28  1  0
  3 29  1  0
  3 30  1  0
  4 31  1  0
  4 32  1  0
  5 33  1  0
  5 34  1  0
  6 35  1  0
  6 36  1  0
  7 37  1  0
 10 38  1  0
 11 39  1  0
 12 40  1  0
 13 41  1  0
 16 42  1  0
 16 43  1  0
 16 44  1  0
 18 45  1  0
 19 46  1  0
 20 47  1  0
M  CHG  2   4   1  15   1
M  END
>  <UniqueID>  (13) 
13

>  <SMILES>  (13) 
CCC[NH2+]CCNc1c2ccccc2[n+](C)c2cccc(Cl)c12

>  <Energy>  (13) 
78.3888855893182

>  <Genealogy>  (13) 
CCC[NH2+]CCNc1c2ccccc2[n+](C)c2cccc(Cl)c12 (protonated)
CCC[NH2+]CCNc1c2ccccc2[n+](C)c2cccc(Cl)c12 (3D coordinates assigned)
CCC[NH2+]CCNc1c2ccccc2[n+](C)c2cccc(Cl)c12 (optimized conformer: 78.3888855893182 kcal/mol)

>  <smiles>  (13) 
CCCNCCNc1c2ccccc2[n+](C)c2cccc(Cl)c12

>  <score_type>  (13) 
oracle

>  <origin>  (13) 
adg

>  <m_score__min__energy>  (13) 
-7.8099999999999996

>  <m_primary>  (13) 
energy

$$$$
13:0
     RDKit          3D

 50 52  0  0  0  0  0  0  0  0999 V2000
   -2.6500   20.0140  -27.4820 C   0  0  0  0  0  0  0  0  0  0  0  0
   -2.9120   20.9860  -28.6200 C   0  0  0  0  0  0  0  0  0  0  0  0
   -2.4780   20.4100  -29.8350 O   0  0  0  0  0  0  0  0  0  0  0  0
   -1.0630   20.3370  -29.8760 C   0  0  0  0  0  0  0  0  0  0  0  0
   -0.5170   21.3750  -30.8600 C   0  0  0  0  0  0  0  0  0  0  0  0
   -1.5650   21.9880  -31.5880 O   0  0  0  0  0  0  0  0  0  0  0  0
   -1.6520   21.4480  -32.8900 C   0  0  0  0  0  0  0  0  0  0  0  0
   -3.0630   20.8650  -33.0910 C   0  0  0  0  0  0  0  0  0  0  0  0
   -3.8470   20.6110  -31.8500 N   0  0  0  0  0  0  0  0  0  0  0  0
   -5.2410   21.0370  -31.8750 C   0  0  0  0  0  0  0  0  0  0  0  0
   -5.5710   22.3520  -31.4420 C   0  0  0  0  0  0  0  0  0  0  0  0
   -4.5660   23.3200  -31.1870 C   0  0  0  0  0  0  0  0  0  0  0  0
   -4.8880   24.5870  -30.7100 C   0  0  0  0  0  0  0  0  0  0  0  0
   -6.2110   24.9190  -30.4600 C   0  0  0  0  0  0  0  0  0  0  0  0
   -7.2200   24.0000  -30.7220 C   0  0  0  0  0  0  0  0  0  0  0  0
   -6.9310   22.7170  -31.2560 C   0  0  0  0  0  0  0  0  0  0  0  0
   -7.9350   21.8250  -31.5580 N   0  0  0  0  0  0  0  0  0  0  0  0
   -9.3400   22.2940  -31.6250 C   0  0  0  0  0  0  0  0  0  0  0  0
   -7.6370   20.5100  -31.8500 C   0  0  0  0  0  0  0  0  0  0  0  0
   -8.6520   19.5220  -31.8330 C   0  0  0  0  0  0  0  0  0  0  0  0
   -8.4000   18.2210  -32.2380 C   0  0  0  0  0  0  0  0  0  0  0  0
   -7.1470   17.8760  -32.7110 C   0  0  0  0  0  0  0  0  0  0  0  0
   -6.1010   18.8010  -32.7050 C   0  0  0  0  0  0  0  0  0  0  0  0
   -4.6690   18.2530  -33.5820 Cl  0  0  0  0  0  0  0  0  0  0  0  0
   -6.2980   20.1150  -32.1570 C   0  0  0  0  0  0  0  0  0  0  0  0
   -2.7889   20.5294  -26.5202 H   0  0  0  0  0  0  0  0  0  0  0  0
   -3.3529   19.1707  -27.5509 H   0  0  0  0  0  0  0  0  0  0  0  0
   -1.6185   19.6382  -27.5509 H   0  0  0  0  0  0  0  0  0  0  0  0
   -3.9892   21.2008  -28.6792 H   0  0  0  0  0  0  0  0  0  0  0  0
   -2.3632   21.9220  -28.4390 H   0  0  0  0  0  0  0  0  0  0  0  0
   -0.6581   20.5367  -28.8729 H   0  0  0  0  0  0  0  0  0  0  0  0
   -0.7612   19.3317  -30.2049 H   0  0  0  0  0  0  0  0  0  0  0  0
    0.0311   22.1472  -30.3002 H   0  0  0  0  0  0  0  0  0  0  0  0
    0.1505   20.8655  -31.5706 H   0  0  0  0  0  0  0  0  0  0  0  0
   -1.4698   22.2396  -33.6317 H   0  0  0  0  0  0  0  0  0  0  0  0
   -0.8985   20.6569  -33.0181 H   0  0  0  0  0  0  0  0  0  0  0  0
   -3.6340   21.5716  -33.7112 H   0  0  0  0  0  0  0  0  0  0  0  0
   -2.9133   19.8787  -33.5546 H   0  0  0  0  0  0  0  0  0  0  0  0
   -3.3650   21.0780  -31.0490 H   0  0  0  0  0  0  0  0  0  0  0  0
   -3.7670   19.6150  -31.5580 H   0  0  0  0  0  0  0  0  0  0  0  0
   -3.5119   23.0642  -31.3698 H   0  0  0  0  0  0  0  0  0  0  0  0
   -4.0927   25.3256  -30.5312 H   0  0  0  0  0  0  0  0  0  0  0  0
   -6.4619   25.9101  -30.0542 H   0  0  0  0  0  0  0  0  0  0  0  0
   -8.2646   24.2726  -30.5111 H   0  0  0  0  0  0  0  0  0  0  0  0
   -9.7319   22.4248  -30.6055 H   0  0  0  0  0  0  0  0  0  0  0  0
   -9.3808   23.2545  -32.1596 H   0  0  0  0  0  0  0  0  0  0  0  0
   -9.9496   21.5506  -32.1596 H   0  0  0  0  0  0  0  0  0  0  0  0
   -9.6617   19.7933  -31.4910 H   0  0  0  0  0  0  0  0  0  0  0  0
   -9.1957   17.4634  -32.1834 H   0  0  0  0  0  0  0  0  0  0  0  0
   -6.9723   16.8607  -33.0966 H   0  0  0  0  0  0  0  0  0  0  0  0
  1  2  1  0
  2  3  1  0
  3  4  1  0
  4  5  1  0
  5  6  1  0
  6  7  1  0
  7  8  1  0
  8  9  1  0
  9 10  1  0
 10 11  2  0
 11 12  1  0
 12 13  2  0
 13 14  1  0
 14 15  2  0
 15 16  1  0
 16 17  2  0
 17 18  1  0
 17 19  1  0
 19 20  2  0
 20 21  1  0
 21 22  2  0
 22 23  1  0
 23 24  1  0
 23 25  2  0
 25 10  1  0
 16 11  1  0
 25 19  1  0
  1 26  1  0
  1 27  1  0
  1 28  1  0
  2 29  1  0
  2 30  1  0
  4 31  1  0
  4 32  1  0
  5 33  1  0
  5 34  1  0
  7 35  1  0
  7 36  1  0
  8 37  1  0
  8 38  1  0
  9 39  1  0
  9 40  1  0
 12 41  1  0
 13 42  1  0
 14 43  1  0
 15 44  1  0
 18 45  1  0
 18 46  1  0
 18 47  1  0
 20 48  1  0
 21 49  1  0
 22 50  1  0
M  CHG  2   9   1  17   1
M  END
>  <UniqueID>  (14) 
14

>  <SMILES>  (14) 
CCOCCOCC[NH2+]c1c2ccccc2[n+](C)c2cccc(Cl)c12

>  <Energy>  (14) 
94.53270304011797

>  <Genealogy>  (14) 
CCOCCOCC[NH2+]c1c2ccccc2[n+](C)c2cccc(Cl)c12 (protonated)
CCOCCOCC[NH2+]c1c2ccccc2[n+](C)c2cccc(Cl)c12 (3D coordinates assigned)
CCOCCOCC[NH2+]c1c2ccccc2[n+](C)c2cccc(Cl)c12 (optimized conformer: 94.53270304011797 kcal/mol)

>  <smiles>  (14) 
CCOCCOCCNc1c2ccccc2[n+](C)c2cccc(Cl)c12

>  <score_type>  (14) 
oracle

>  <origin>  (14) 
adg

>  <m_score__min__energy>  (14) 
-8.5199999999999996

>  <m_primary>  (14) 
energy

$$$$
14:0
     RDKit          3D

 60 62  0  0  0  0  0  0  0  0999 V2000
    1.1470   24.7710  -36.1190 C   0  0  0  0  0  0  0  0  0  0  0  0
    1.4360   23.3100  -35.7760 C   0  0  0  0  0  0  0  0  0  0  0  0
    0.1620   22.4530  -35.7060 C   0  0  0  0  0  0  0  0  0  0  0  0
    0.3330   21.2180  -34.7960 C   0  0  0  0  0  0  0  0  0  0  0  0
   -0.9350   20.7840  -34.1530 N   0  0  1  0  0  0  0  0  0  0  0  0
   -1.0430   19.3030  -34.2180 C   0  0  0  0  0  0  0  0  0  0  0  0
   -0.9290   18.6230  -32.8470 C   0  0  0  0  0  0  0  0  0  0  0  0
   -1.1500   21.3440  -32.7840 C   0  0  0  0  0  0  0  0  0  0  0  0
   -2.6190   21.5640  -32.3470 C   0  0  0  0  0  0  0  0  0  0  0  0
   -3.5720   21.3280  -33.4300 N   0  0  0  0  0  0  0  0  0  0  0  0
   -4.8720   20.7860  -33.1400 C   0  0  0  0  0  0  0  0  0  0  0  0
   -5.8560   21.5920  -32.5420 C   0  0  0  0  0  0  0  0  0  0  0  0
   -7.1360   21.0400  -32.2630 C   0  0  0  0  0  0  0  0  0  0  0  0
   -7.3740   19.6950  -32.4900 N   0  0  0  0  0  0  0  0  0  0  0  0
   -8.6380   19.0740  -32.0300 C   0  0  0  0  0  0  0  0  0  0  0  0
   -6.4450   18.9240  -33.1650 C   0  0  0  0  0  0  0  0  0  0  0  0
   -6.7360   17.5980  -33.5850 C   0  0  0  0  0  0  0  0  0  0  0  0
   -5.7750   16.8190  -34.2290 C   0  0  0  0  0  0  0  0  0  0  0  0
   -4.5120   17.3360  -34.4860 C   0  0  0  0  0  0  0  0  0  0  0  0
   -4.2060   18.6430  -34.1160 C   0  0  0  0  0  0  0  0  0  0  0  0
   -5.1640   19.4520  -33.4680 C   0  0  0  0  0  0  0  0  0  0  0  0
   -8.2160   21.9210  -31.6380 C   0  0  0  0  0  0  0  0  0  0  0  0
   -7.9470   23.4200  -31.7520 C   0  0  0  0  0  0  0  0  0  0  0  0
   -6.5230   23.7210  -31.3160 C   0  0  0  0  0  0  0  0  0  0  0  0
   -5.5480   23.0580  -32.2820 C   0  0  0  0  0  0  0  0  0  0  0  0
    1.0325   25.3498  -35.1907 H   0  0  0  0  0  0  0  0  0  0  0  0
    1.9813   25.1816  -36.7066 H   0  0  0  0  0  0  0  0  0  0  0  0
    0.2192   24.8331  -36.7066 H   0  0  0  0  0  0  0  0  0  0  0  0
    2.0991   22.8920  -36.5477 H   0  0  0  0  0  0  0  0  0  0  0  0
    1.9050   23.2892  -34.7812 H   0  0  0  0  0  0  0  0  0  0  0  0
   -0.6583   23.0711  -35.3123 H   0  0  0  0  0  0  0  0  0  0  0  0
   -0.0565   22.0932  -36.7223 H   0  0  0  0  0  0  0  0  0  0  0  0
    0.7190   20.3866  -35.4040 H   0  0  0  0  0  0  0  0  0  0  0  0
    1.0281   21.4990  -33.9911 H   0  0  0  0  0  0  0  0  0  0  0  0
   -1.7100   21.1620  -34.7520 H   0  0  0  0  0  0  0  0  0  0  0  0
   -2.0181   19.0434  -34.6560 H   0  0  0  0  0  0  0  0  0  0  0  0
   -0.2031   18.9426  -34.8301 H   0  0  0  0  0  0  0  0  0  0  0  0
   -1.0550   19.3743  -32.0535 H   0  0  0  0  0  0  0  0  0  0  0  0
   -1.7109   17.8551  -32.7524 H   0  0  0  0  0  0  0  0  0  0  0  0
    0.0606   18.1521  -32.7524 H   0  0  0  0  0  0  0  0  0  0  0  0
   -0.6879   20.6523  -32.0643 H   0  0  0  0  0  0  0  0  0  0  0  0
   -0.7014   22.3481  -32.8080 H   0  0  0  0  0  0  0  0  0  0  0  0
   -2.8473   20.8743  -31.5210 H   0  0  0  0  0  0  0  0  0  0  0  0
   -2.7198   22.6153  -32.0394 H   0  0  0  0  0  0  0  0  0  0  0  0
   -3.4790   21.8790  -34.3130 H   0  0  0  0  0  0  0  0  0  0  0  0
   -8.6618   19.0623  -30.9303 H   0  0  0  0  0  0  0  0  0  0  0  0
   -9.4914   19.6554  -32.4091 H   0  0  0  0  0  0  0  0  0  0  0  0
   -8.6993   18.0432  -32.4091 H   0  0  0  0  0  0  0  0  0  0  0  0
   -7.7359   17.1790  -33.3991 H   0  0  0  0  0  0  0  0  0  0  0  0
   -6.0185   15.7908  -34.5346 H   0  0  0  0  0  0  0  0  0  0  0  0
   -3.7532   16.7129  -34.9819 H   0  0  0  0  0  0  0  0  0  0  0  0
   -3.2067   19.0495  -34.3311 H   0  0  0  0  0  0  0  0  0  0  0  0
   -9.1709   21.7032  -32.1387 H   0  0  0  0  0  0  0  0  0  0  0  0
   -8.2333   21.6845  -30.5639 H   0  0  0  0  0  0  0  0  0  0  0  0
   -8.0842   23.7374  -32.7962 H   0  0  0  0  0  0  0  0  0  0  0  0
   -8.6487   23.9656  -31.1040 H   0  0  0  0  0  0  0  0  0  0  0  0
   -6.3603   24.8089  -31.3190 H   0  0  0  0  0  0  0  0  0  0  0  0
   -6.3586   23.3299  -30.3011 H   0  0  0  0  0  0  0  0  0  0  0  0
   -5.5859   23.5972  -33.2400 H   0  0  0  0  0  0  0  0  0  0  0  0
   -4.5516   23.1024  -31.8181 H   0  0  0  0  0  0  0  0  0  0  0  0
  1  2  1  0
  2  3  1  0
  3  4  1  0
  4  5  1  0
  5  6  1  0
  6  7  1  0
  5  8  1  0
  8  9  1  0
  9 10  1  0
 10 11  1  0
 11 12  2  0
 12 13  1  0
 13 14  2  0
 14 15  1  0
 14 16  1  0
 16 17  2  0
 17 18  1  0
 18 19  2  0
 19 20  1  0
 20 21  2  0
 13 22  1  0
 22 23  1  0
 23 24  1  0
 24 25  1  0
 21 11  1  0
 25 12  1  0
 21 16  1  0
  1 26  1  0
  1 27  1  0
  1 28  1  0
  2 29  1  0
  2 30  1  0
  3 31  1  0
  3 32  1  0
  4 33  1  0
  4 34  1  0
  5 35  1  6
  6 36  1  0
  6 37  1  0
  7 38  1  0
  7 39  1  0
  7 40  1  0
  8 41  1  0
  8 42  1  0
  9 43  1  0
  9 44  1  0
 10 45  1  0
 15 46  1  0
 15 47  1  0
 15 48  1  0
 17 49  1  0
 18 50  1  0
 19 51  1  0
 20 52  1  0
 22 53  1  0
 22 54  1  0
 23 55  1  0
 23 56  1  0
 24 57  1  0
 24 58  1  0
 25 59  1  0
 25 60  1  0
M  CHG  2   5   1  14   1
M  END
>  <UniqueID>  (15) 
15

>  <SMILES>  (15) 
CCCC[N@@H+](CC)CCNc1c2c([n+](C)c3ccccc13)CCCC2

>  <Energy>  (15) 
80.90248209869951

>  <Genealogy>  (15) 
CCCC[NH+](CC)CCNc1c2c([n+](C)c3ccccc13)CCCC2 (protonated)
CCCC[N@@H+](CC)CCNc1c2c([n+](C)c3ccccc13)CCCC2 (chirality)
CCCC[N@@H+](CC)CCNc1c2c([n+](C)c3ccccc13)CCCC2 (3D coordinates assigned)
CCCC[N@@H+](CC)CCNc1c2c([n+](C)c3ccccc13)CCCC2 (nonaromatic ring conformer: 80.90248209869951 kcal/mol)

>  <smiles>  (15) 
CCCCN(CC)CCNc1c2c([n+](C)c3ccccc13)CCCC2

>  <score_type>  (15) 
oracle

>  <origin>  (15) 
adg

>  <m_score__min__energy>  (15) 
-7.3799999999999999

>  <m_primary>  (15) 
energy

$$$$
15:0
     RDKit          3D

 51 55  0  0  0  0  0  0  0  0999 V2000
   -3.3760   18.4210  -33.7850 C   0  0  0  0  0  0  0  0  0  0  0  0
   -3.7770   19.8040  -33.5420 N   0  0  0  0  0  0  0  0  0  0  0  0
   -3.0050   20.9080  -33.3640 C   0  0  0  0  0  0  0  0  0  0  0  0
   -1.5290   20.9800  -33.3880 C   0  0  0  0  0  0  0  0  0  0  0  0
   -0.6090   20.3150  -32.5980 C   0  0  0  0  0  0  0  0  0  0  0  0
    0.6080   20.7650  -33.0560 C   0  0  0  0  0  0  0  0  0  0  0  0
    0.4140   21.6430  -34.0580 N   0  0  0  0  0  0  0  0  0  0  0  0
   -0.8710   21.7450  -34.2270 O   0  0  0  0  0  0  0  0  0  0  0  0
   -3.7610   21.9990  -33.1260 N   0  0  0  0  0  0  0  0  0  0  0  0
   -5.0200   21.5970  -33.1490 N   0  0  0  0  0  0  0  0  0  0  0  0
   -5.0310   20.2790  -33.3980 C   0  0  0  0  0  0  0  0  0  0  0  0
   -6.5380   19.3080  -33.4940 S   0  0  0  0  0  0  0  0  0  0  0  0
   -7.1630   19.8510  -31.8630 C   0  0  0  0  0  0  0  0  0  0  0  0
   -8.5610   20.4710  -31.9840 C   0  0  0  0  0  0  0  0  0  0  0  0
   -8.5810   21.9610  -31.6030 C   0  0  0  0  0  0  0  0  0  0  0  0
   -7.2130   22.4890  -31.4340 N   0  0  0  0  0  0  0  0  0  0  0  0
   -7.0120   23.7880  -32.0950 C   0  0  0  0  0  0  0  0  0  0  0  0
   -5.9890   24.5620  -31.2800 C   0  0  1  0  0  0  0  0  0  0  0  0
   -6.4870   25.2610  -30.0230 C   0  0  0  0  0  0  0  0  0  0  0  0
   -5.9110   23.8520  -29.9410 C   0  0  2  0  0  0  0  0  0  0  0  0
   -4.5090   23.6550  -29.4240 C   0  0  0  0  0  0  0  0  0  0  0  0
   -3.4410   23.5080  -30.3230 C   0  0  0  0  0  0  0  0  0  0  0  0
   -2.1340   23.3620  -29.8450 C   0  0  0  0  0  0  0  0  0  0  0  0
   -1.8860   23.3740  -28.4690 C   0  0  0  0  0  0  0  0  0  0  0  0
   -2.9420   23.5380  -27.5700 C   0  0  0  0  0  0  0  0  0  0  0  0
   -4.2490   23.6870  -28.0440 C   0  0  0  0  0  0  0  0  0  0  0  0
   -6.8680   22.6720  -30.0190 C   0  0  0  0  0  0  0  0  0  0  0  0
   -3.2273   17.9080  -32.8234 H   0  0  0  0  0  0  0  0  0  0  0  0
   -4.1620   17.9065  -34.3573 H   0  0  0  0  0  0  0  0  0  0  0  0
   -2.4367   18.4067  -34.3573 H   0  0  0  0  0  0  0  0  0  0  0  0
   -0.8047   19.5937  -31.7909 H   0  0  0  0  0  0  0  0  0  0  0  0
    1.5880   20.4552  -32.6640 H   0  0  0  0  0  0  0  0  0  0  0  0
   -5.8480   22.2170  -32.9930 H   0  0  0  0  0  0  0  0  0  0  0  0
   -7.2126   18.9822  -31.1902 H   0  0  0  0  0  0  0  0  0  0  0  0
   -6.4774   20.6123  -31.4627 H   0  0  0  0  0  0  0  0  0  0  0  0
   -8.9032   20.3686  -33.0244 H   0  0  0  0  0  0  0  0  0  0  0  0
   -9.2235   19.9391  -31.2853 H   0  0  0  0  0  0  0  0  0  0  0  0
   -9.0882   22.5275  -32.3979 H   0  0  0  0  0  0  0  0  0  0  0  0
   -9.1154   22.0682  -30.6475 H   0  0  0  0  0  0  0  0  0  0  0  0
   -6.6388   23.6349  -33.1184 H   0  0  0  0  0  0  0  0  0  0  0  0
   -7.9598   24.3430  -32.1547 H   0  0  0  0  0  0  0  0  0  0  0  0
   -5.3343   24.9193  -32.0885 H   0  0  0  0  0  0  0  0  0  0  0  0
   -5.9259   26.1104  -29.6063 H   0  0  0  0  0  0  0  0  0  0  0  0
   -7.4310   25.7359  -29.7175 H   0  0  0  0  0  0  0  0  0  0  0  0
   -3.6321   23.5076  -31.4063 H   0  0  0  0  0  0  0  0  0  0  0  0
   -1.3009   23.2377  -30.5524 H   0  0  0  0  0  0  0  0  0  0  0  0
   -0.8587   23.2542  -28.0945 H   0  0  0  0  0  0  0  0  0  0  0  0
   -2.7454   23.5500  -26.4878 H   0  0  0  0  0  0  0  0  0  0  0  0
   -5.0766   23.8298  -27.3336 H   0  0  0  0  0  0  0  0  0  0  0  0
   -6.3820   21.7656  -29.6288 H   0  0  0  0  0  0  0  0  0  0  0  0
   -7.7696   22.8586  -29.4171 H   0  0  0  0  0  0  0  0  0  0  0  0
  1  2  1  0
  2  3  1  0
  3  4  1  0
  4  5  2  0
  5  6  1  0
  6  7  2  0
  7  8  1  0
  3  9  2  0
  9 10  1  0
 10 11  2  0
 11 12  1  0
 12 13  1  0
 13 14  1  0
 14 15  1  0
 15 16  1  0
 16 17  1  0
 17 18  1  0
 18 19  1  0
 19 20  1  0
 20 21  1  1
 21 22  2  0
 22 23  1  0
 23 24  2  0
 24 25  1  0
 25 26  2  0
 20 27  1  0
 11  2  1  0
 27 16  1  0
  8  4  1  0
 20 18  1  0
 26 21  1  0
  1 28  1  0
  1 29  1  0
  1 30  1  0
  5 31  1  0
  6 32  1  0
 10 33  1  0
 13 34  1  0
 13 35  1  0
 14 36  1  0
 14 37  1  0
 15 38  1  0
 15 39  1  0
 17 40  1  0
 17 41  1  0
 18 42  1  6
 19 43  1  0
 19 44  1  0
 22 45  1  0
 23 46  1  0
 24 47  1  0
 25 48  1  0
 26 49  1  0
 27 50  1  0
 27 51  1  0
M  CHG  1  10   1
M  END
>  <UniqueID>  (16) 
16

>  <SMILES>  (16) 
Cn1c(-c2ccno2)n[nH+]c1SCCCN1C[C@H]2C[C@@]2(c2ccccc2)C1

>  <Energy>  (16) 
387.17895893067055

>  <Genealogy>  (16) 
Cn1c(-c2ccno2)n[nH+]c1SCCCN1CC2CC2(c2ccccc2)C1 (protonated)
Cn1c(-c2ccno2)n[nH+]c1SCCCN1C[C@H]2C[C@@]2(c2ccccc2)C1 (chirality)
Cn1c(-c2ccno2)n[nH+]c1SCCCN1C[C@H]2C[C@@]2(c2ccccc2)C1 (3D coordinates assigned)
Cn1c(-c2ccno2)n[nH+]c1SCCCN1C[C@H]2C[C@@]2(c2ccccc2)C1 (nonaromatic ring conformer: 387.17895893067055 kcal/mol)

>  <smiles>  (16) 
Cn1c(SCCCN2CC3CC3(c3ccccc3)C2)nnc1-c1ccno1

>  <score_type>  (16) 
oracle

>  <origin>  (16) 
adg

>  <m_score__min__energy>  (16) 
-9.3399999999999999

>  <m_primary>  (16) 
energy

$$$$
16:0
     RDKit          3D

 54 56  0  0  0  0  0  0  0  0999 V2000
   -5.7850   25.6160  -30.0950 C   0  0  0  0  0  0  0  0  0  0  0  0
   -4.7640   24.5420  -29.6990 C   0  0  0  0  0  0  0  0  0  0  0  0
   -3.9520   24.0930  -30.8420 N   0  0  0  0  0  0  0  0  0  0  0  0
   -2.9280   23.1240  -30.4300 C   0  0  0  0  0  0  0  0  0  0  0  0
   -3.2770   21.7200  -30.9490 C   0  0  0  0  0  0  0  0  0  0  0  0
   -2.8620   21.5130  -32.4180 C   0  0  0  0  0  0  0  0  0  0  0  0
   -3.9500   21.7820  -33.3860 N   0  0  0  0  0  0  0  0  0  0  0  0
   -5.1460   20.9840  -33.1410 C   0  0  0  0  0  0  0  0  0  0  0  0
   -6.2730   21.5730  -32.5100 C   0  0  0  0  0  0  0  0  0  0  0  0
   -7.4310   20.8050  -32.2670 C   0  0  0  0  0  0  0  0  0  0  0  0
   -7.5380   19.5130  -32.7410 N   0  0  0  0  0  0  0  0  0  0  0  0
   -8.8530   18.8280  -32.7080 C   0  0  0  0  0  0  0  0  0  0  0  0
   -9.1130   18.1910  -31.3410 C   0  0  0  0  0  0  0  0  0  0  0  0
   -6.4260   18.8800  -33.2720 C   0  0  0  0  0  0  0  0  0  0  0  0
   -6.4470   17.4910  -33.5820 C   0  0  0  0  0  0  0  0  0  0  0  0
   -5.3400   16.8510  -34.1230 C   0  0  0  0  0  0  0  0  0  0  0  0
   -4.1760   17.5590  -34.3620 C   0  0  0  0  0  0  0  0  0  0  0  0
   -4.1070   18.9140  -34.0540 C   0  0  0  0  0  0  0  0  0  0  0  0
   -5.2170   19.6060  -33.5000 C   0  0  0  0  0  0  0  0  0  0  0  0
   -8.5040   21.4690  -31.4050 C   0  0  0  0  0  0  0  0  0  0  0  0
   -8.8660   22.8600  -31.9480 C   0  0  0  0  0  0  0  0  0  0  0  0
   -7.6390   23.6770  -32.4090 C   0  0  0  0  0  0  0  0  0  0  0  0
   -6.3030   23.0220  -32.0330 C   0  0  0  0  0  0  0  0  0  0  0  0
   -6.2135   26.0668  -29.1877 H   0  0  0  0  0  0  0  0  0  0  0  0
   -5.2859   26.3945  -30.6906 H   0  0  0  0  0  0  0  0  0  0  0  0
   -6.5878   25.1569  -30.6906 H   0  0  0  0  0  0  0  0  0  0  0  0
   -4.0946   24.9567  -28.9310 H   0  0  0  0  0  0  0  0  0  0  0  0
   -5.3209   23.6723  -29.3202 H   0  0  0  0  0  0  0  0  0  0  0  0
   -3.4880   24.9230  -31.2810 H   0  0  0  0  0  0  0  0  0  0  0  0
   -1.9541   23.4299  -30.8399 H   0  0  0  0  0  0  0  0  0  0  0  0
   -2.8848   23.0970  -29.3312 H   0  0  0  0  0  0  0  0  0  0  0  0
   -2.7579   20.9753  -30.3277 H   0  0  0  0  0  0  0  0  0  0  0  0
   -4.3694   21.6048  -30.8913 H   0  0  0  0  0  0  0  0  0  0  0  0
   -2.0235   22.1892  -32.6409 H   0  0  0  0  0  0  0  0  0  0  0  0
   -2.5868   20.4538  -32.5288 H   0  0  0  0  0  0  0  0  0  0  0  0
   -3.5920   21.7120  -34.3600 H   0  0  0  0  0  0  0  0  0  0  0  0
   -4.2080   22.7920  -33.3370 H   0  0  0  0  0  0  0  0  0  0  0  0
   -9.6449   19.5620  -32.9179 H   0  0  0  0  0  0  0  0  0  0  0  0
   -8.8495   18.0321  -33.4673 H   0  0  0  0  0  0  0  0  0  0  0  0
   -8.8252   18.8961  -30.5472 H   0  0  0  0  0  0  0  0  0  0  0  0
  -10.1819   17.9489  -31.2466 H   0  0  0  0  0  0  0  0  0  0  0  0
   -8.5188   17.2701  -31.2466 H   0  0  0  0  0  0  0  0  0  0  0  0
   -7.3615   16.9111  -33.3885 H   0  0  0  0  0  0  0  0  0  0  0  0
   -5.3887   15.7784  -34.3621 H   0  0  0  0  0  0  0  0  0  0  0  0
   -3.3031   17.0497  -34.7964 H   0  0  0  0  0  0  0  0  0  0  0  0
   -3.1721   19.4617  -34.2437 H   0  0  0  0  0  0  0  0  0  0  0  0
   -9.4051   20.8381  -31.4035 H   0  0  0  0  0  0  0  0  0  0  0  0
   -8.1110   21.5835  -30.3840 H   0  0  0  0  0  0  0  0  0  0  0  0
   -9.5433   22.7341  -32.8056 H   0  0  0  0  0  0  0  0  0  0  0  0
   -9.3366   23.4175  -31.1248 H   0  0  0  0  0  0  0  0  0  0  0  0
   -7.6807   23.7839  -33.5030 H   0  0  0  0  0  0  0  0  0  0  0  0
   -7.6823   24.6500  -31.8978 H   0  0  0  0  0  0  0  0  0  0  0  0
   -5.4801   23.5774  -32.5067 H   0  0  0  0  0  0  0  0  0  0  0  0
   -6.1892   23.0419  -30.9391 H   0  0  0  0  0  0  0  0  0  0  0  0
  1  2  1  0
  2  3  1  0
  3  4  1  0
  4  5  1  0
  5  6  1  0
  6  7  1  0
  7  8  1  0
  8  9  2  0
  9 10  1  0
 10 11  2  0
 11 12  1  0
 12 13  1  0
 11 14  1  0
 14 15  2  0
 15 16  1  0
 16 17  2  0
 17 18  1  0
 18 19  2  0
 10 20  1  0
 20 21  1  0
 21 22  1  0
 22 23  1  0
 19  8  1  0
 23  9  1  0
 19 14  1  0
  1 24  1  0
  1 25  1  0
  1 26  1  0
  2 27  1  0
  2 28  1  0
  3 29  1  0
  4 30  1  0
  4 31  1  0
  5 32  1  0
  5 33  1  0
  6 34  1  0
  6 35  1  0
  7 36  1  0
  7 37  1  0
 12 38  1  0
 12 39  1  0
 13 40  1  0
 13 41  1  0
 13 42  1  0
 15 43  1  0
 16 44  1  0
 17 45  1  0
 18 46  1  0
 20 47  1  0
 20 48  1  0
 21 49  1  0
 21 50  1  0
 22 51  1  0
 22 52  1  0
 23 53  1  0
 23 54  1  0
M  CHG  2   7   1  11   1
M  END
>  <UniqueID>  (17) 
17

>  <SMILES>  (17) 
CCNCCC[NH2+]c1c2c([n+](CC)c3ccccc13)CCCC2

>  <Energy>  (17) 
78.12563100284018

>  <Genealogy>  (17) 
CCNCCC[NH2+]c1c2c([n+](CC)c3ccccc13)CCCC2 (protonated)
CCNCCC[NH2+]c1c2c([n+](CC)c3ccccc13)CCCC2 (3D coordinates assigned)
CCNCCC[NH2+]c1c2c([n+](CC)c3ccccc13)CCCC2 (nonaromatic ring conformer: 78.12563100284018 kcal/mol)

>  <smiles>  (17) 
CCNCCCNc1c2c([n+](CC)c3ccccc13)CCCC2

>  <score_type>  (17) 
oracle

>  <origin>  (17) 
adg

>  <m_score__min__energy>  (17) 
-8.5099999999999998

>  <m_primary>  (17) 
energy

$$$$
17:0
     RDKit          3D

 70 72  0  0  0  0  0  0  0  0999 V2000
   -3.7050   18.6120  -26.2640 C   0  0  0  0  0  0  0  0  0  0  0  0
   -2.3600   19.3040  -25.9900 C   0  0  0  0  0  0  0  0  0  0  0  0
   -1.6670   19.8020  -27.2040 N   0  0  0  0  0  0  0  0  0  0  0  0
   -0.5660   18.9090  -27.6370 C   0  0  0  0  0  0  0  0  0  0  0  0
   -0.1250   19.2690  -29.0510 C   0  0  0  0  0  0  0  0  0  0  0  0
   -2.5840   20.1430  -28.3180 C   0  0  0  0  0  0  0  0  0  0  0  0
   -3.2410   21.5090  -28.0910 C   0  0  0  0  0  0  0  0  0  0  0  0
   -3.3040   22.2270  -29.3090 O   0  0  0  0  0  0  0  0  0  0  0  0
   -2.1990   23.1010  -29.4650 C   0  0  0  0  0  0  0  0  0  0  0  0
   -2.6570   24.5500  -29.3380 C   0  0  0  0  0  0  0  0  0  0  0  0
   -3.4950   24.8740  -30.4200 O   0  0  0  0  0  0  0  0  0  0  0  0
   -4.7430   25.0570  -29.9100 N   0  0  0  0  0  0  0  0  0  0  0  0
   -5.7100   25.1510  -31.0110 C   0  0  0  0  0  0  0  0  0  0  0  0
   -5.8040   23.8400  -31.8180 C   0  0  0  0  0  0  0  0  0  0  0  0
   -5.0500   22.7350  -31.1940 N   0  0  0  0  0  0  0  0  0  0  0  0
   -5.3870   21.4370  -31.7700 C   0  0  0  0  0  0  0  0  0  0  0  0
   -4.3590   20.5780  -32.2430 C   0  0  0  0  0  0  0  0  0  0  0  0
   -4.6890   19.3360  -32.8210 C   0  0  0  0  0  0  0  0  0  0  0  0
   -5.9830   18.8690  -32.7910 N   0  0  0  0  0  0  0  0  0  0  0  0
   -6.2560   17.4490  -33.1080 C   0  0  0  0  0  0  0  0  0  0  0  0
   -7.0160   19.7200  -32.4550 C   0  0  0  0  0  0  0  0  0  0  0  0
   -8.3690   19.3450  -32.6650 C   0  0  0  0  0  0  0  0  0  0  0  0
   -9.4160   20.1670  -32.2660 C   0  0  0  0  0  0  0  0  0  0  0  0
   -9.1520   21.3850  -31.6610 C   0  0  0  0  0  0  0  0  0  0  0  0
   -7.8380   21.8090  -31.4880 C   0  0  0  0  0  0  0  0  0  0  0  0
   -6.7420   21.0070  -31.9020 C   0  0  0  0  0  0  0  0  0  0  0  0
   -3.5570   18.5320  -33.4470 C   0  0  0  0  0  0  0  0  0  0  0  0
   -2.6040   19.4520  -34.2180 C   0  0  0  0  0  0  0  0  0  0  0  0
   -2.0900   20.6400  -33.3800 C   0  0  0  0  0  0  0  0  0  0  0  0
   -2.8730   20.8710  -32.0770 C   0  0  0  0  0  0  0  0  0  0  0  0
   -4.1902   18.3624  -25.3089 H   0  0  0  0  0  0  0  0  0  0  0  0
   -4.3545   19.2879  -26.8396 H   0  0  0  0  0  0  0  0  0  0  0  0
   -3.5327   17.6906  -26.8396 H   0  0  0  0  0  0  0  0  0  0  0  0
   -2.5431   20.1596  -25.3233 H   0  0  0  0  0  0  0  0  0  0  0  0
   -1.7020   18.5443  -25.5430 H   0  0  0  0  0  0  0  0  0  0  0  0
    0.2858   19.0223  -26.9503 H   0  0  0  0  0  0  0  0  0  0  0  0
   -0.9208   17.8679  -27.6246 H   0  0  0  0  0  0  0  0  0  0  0  0
    0.7263   19.9640  -29.0038 H   0  0  0  0  0  0  0  0  0  0  0  0
    0.1764   18.3556  -29.5848 H   0  0  0  0  0  0  0  0  0  0  0  0
   -0.9595   19.7472  -29.5848 H   0  0  0  0  0  0  0  0  0  0  0  0
   -2.0133   20.1702  -29.2580 H   0  0  0  0  0  0  0  0  0  0  0  0
   -3.3735   19.3787  -28.3681 H   0  0  0  0  0  0  0  0  0  0  0  0
   -4.2594   21.3627  -27.7019 H   0  0  0  0  0  0  0  0  0  0  0  0
   -2.6420   22.0806  -27.3668 H   0  0  0  0  0  0  0  0  0  0  0  0
   -1.4518   22.8858  -28.6869 H   0  0  0  0  0  0  0  0  0  0  0  0
   -1.7562   22.9486  -30.4604 H   0  0  0  0  0  0  0  0  0  0  0  0
   -3.2092   24.6786  -28.3954 H   0  0  0  0  0  0  0  0  0  0  0  0
   -1.7795   25.2133  -29.3427 H   0  0  0  0  0  0  0  0  0  0  0  0
   -4.7360   25.9670  -29.3910 H   0  0  0  0  0  0  0  0  0  0  0  0
   -6.7011   25.3815  -30.5932 H   0  0  0  0  0  0  0  0  0  0  0  0
   -5.3687   25.9435  -31.6932 H   0  0  0  0  0  0  0  0  0  0  0  0
   -6.8617   23.5471  -31.8925 H   0  0  0  0  0  0  0  0  0  0  0  0
   -5.3642   24.0261  -32.8089 H   0  0  0  0  0  0  0  0  0  0  0  0
   -5.2420   22.7250  -30.1680 H   0  0  0  0  0  0  0  0  0  0  0  0
   -4.0320   22.9430  -31.2150 H   0  0  0  0  0  0  0  0  0  0  0  0
   -6.3655   16.8792  -32.1735 H   0  0  0  0  0  0  0  0  0  0  0  0
   -7.1846   17.3759  -33.6930 H   0  0  0  0  0  0  0  0  0  0  0  0
   -5.4207   17.0368  -33.6930 H   0  0  0  0  0  0  0  0  0  0  0  0
   -8.5930   18.3850  -33.1531 H   0  0  0  0  0  0  0  0  0  0  0  0
  -10.4563   19.8500  -32.4308 H   0  0  0  0  0  0  0  0  0  0  0  0
   -9.9829   22.0183  -31.3166 H   0  0  0  0  0  0  0  0  0  0  0  0
   -7.6444   22.7858  -31.0208 H   0  0  0  0  0  0  0  0  0  0  0  0
   -2.9977   18.0162  -32.6526 H   0  0  0  0  0  0  0  0  0  0  0  0
   -3.9867   17.8000  -34.1467 H   0  0  0  0  0  0  0  0  0  0  0  0
   -1.7390   18.8590  -34.5500 H   0  0  0  0  0  0  0  0  0  0  0  0
   -3.1693   19.8709  -35.0636 H   0  0  0  0  0  0  0  0  0  0  0  0
   -1.0373   20.4518  -33.1223 H   0  0  0  0  0  0  0  0  0  0  0  0
   -2.2206   21.5431  -33.9943 H   0  0  0  0  0  0  0  0  0  0  0  0
   -2.4661   20.2110  -31.2967 H   0  0  0  0  0  0  0  0  0  0  0  0
   -2.7650   21.9299  -31.7995 H   0  0  0  0  0  0  0  0  0  0  0  0
  1  2  1  0
  2  3  1  0
  3  4  1  0
  4  5  1  0
  3  6  1  0
  6  7  1  0
  7  8  1  0
  8  9  1  0
  9 10  1  0
 10 11  1  0
 11 12  1  0
 12 13  1  0
 13 14  1  0
 14 15  1  0
 15 16  1  0
 16 17  2  0
 17 18  1  0
 18 19  2  0
 19 20  1  0
 19 21  1  0
 21 22  2  0
 22 23  1  0
 23 24  2  0
 24 25  1  0
 25 26  2  0
 18 27  1  0
 27 28  1  0
 28 29  1  0
 29 30  1  0
 26 16  1  0
 30 17  1  0
 26 21  1  0
  1 31  1  0
  1 32  1  0
  1 33  1  0
  2 34  1  0
  2 35  1  0
  4 36  1  0
  4 37  1  0
  5 38  1  0
  5 39  1  0
  5 40  1  0
  6 41  1  0
  6 42  1  0
  7 43  1  0
  7 44  1  0
  9 45  1  0
  9 46  1  0
 10 47  1  0
 10 48  1  0
 12 49  1  0
 13 50  1  0
 13 51  1  0
 14 52  1  0
 14 53  1  0
 15 54  1  0
 15 55  1  0
 20 56  1  0
 20 57  1  0
 20 58  1  0
 22 59  1  0
 23 60  1  0
 24 61  1  0
 25 62  1  0
 27 63  1  0
 27 64  1  0
 28 65  1  0
 28 66  1  0
 29 67  1  0
 29 68  1  0
 30 69  1  0
 30 70  1  0
M  CHG  2  15   1  19   1
M  END
>  <UniqueID>  (18) 
18

>  <SMILES>  (18) 
CCN(CC)CCOCCONCC[NH2+]c1c2c([n+](C)c3ccccc13)CCCC2

>  <Energy>  (18) 
97.27201995392188

>  <Genealogy>  (18) 
CCN(CC)CCOCCONCC[NH2+]c1c2c([n+](C)c3ccccc13)CCCC2 (protonated)
CCN(CC)CCOCCONCC[NH2+]c1c2c([n+](C)c3ccccc13)CCCC2 (3D coordinates assigned)
CCN(CC)CCOCCONCC[NH2+]c1c2c([n+](C)c3ccccc13)CCCC2 (nonaromatic ring conformer: 97.27201995392188 kcal/mol)

>  <smiles>  (18) 
CCN(CC)CCOCCONCCNc1c2c([n+](C)c3ccccc13)CCCC2

>  <score_type>  (18) 
oracle

>  <origin>  (18) 
adg

>  <m_score__min__energy>  (18) 
-8.3699999999999992

>  <m_primary>  (18) 
energy

$$$$
18:0
     RDKit          3D

 82 86  0  0  0  0  0  0  0  0999 V2000
   -3.6190   15.7950  -33.0480 C   0  0  0  0  0  0  0  0  0  0  0  0
   -5.0090   15.4820  -32.4860 C   0  0  0  0  0  0  0  0  0  0  0  0
   -5.4690   16.5010  -31.5300 N   0  0  0  0  0  0  0  0  0  0  0  0
   -6.5370   17.3410  -32.0910 C   0  0  0  0  0  0  0  0  0  0  0  0
   -6.4800   17.3590  -33.6220 C   0  0  0  0  0  0  0  0  0  0  0  0
   -6.3750   18.7380  -34.1030 N   0  0  0  0  0  0  0  0  0  0  0  0
   -6.2630   19.8740  -33.2230 C   0  0  0  0  0  0  0  0  0  0  0  0
   -7.4290   20.4480  -32.6770 C   0  0  0  0  0  0  0  0  0  0  0  0
   -8.6920   19.8280  -32.8100 C   0  0  0  0  0  0  0  0  0  0  0  0
   -9.8380   20.4370  -32.3020 C   0  0  0  0  0  0  0  0  0  0  0  0
   -9.7510   21.6640  -31.6510 C   0  0  0  0  0  0  0  0  0  0  0  0
   -8.5170   22.2900  -31.5040 C   0  0  0  0  0  0  0  0  0  0  0  0
   -7.3330   21.6950  -32.0020 C   0  0  0  0  0  0  0  0  0  0  0  0
   -6.1100   22.3210  -31.8740 N   0  0  0  0  0  0  0  0  0  0  0  0
   -6.0780   23.7880  -32.0550 C   0  0  0  0  0  0  0  0  0  0  0  0
   -4.9560   21.5970  -32.0910 C   0  0  0  0  0  0  0  0  0  0  0  0
   -5.0070   20.4380  -32.9120 C   0  0  0  0  0  0  0  0  0  0  0  0
   -3.8060   19.9110  -33.4210 C   0  0  0  0  0  0  0  0  0  0  0  0
   -2.5730   20.3810  -32.9800 C   0  0  0  0  0  0  0  0  0  0  0  0
   -2.5130   21.3700  -31.9970 C   0  0  0  0  0  0  0  0  0  0  0  0
   -1.2700   21.7330  -31.4570 C   0  0  0  0  0  0  0  0  0  0  0  0
   -1.2040   22.6530  -30.4080 C   0  0  0  0  0  0  0  0  0  0  0  0
   -2.3760   23.2170  -29.8820 C   0  0  0  0  0  0  0  0  0  0  0  0
   -2.3700   24.0980  -28.7900 O   0  0  0  0  0  0  0  0  0  0  0  0
   -2.9460   23.8250  -27.5080 C   0  0  0  0  0  0  0  0  0  0  0  0
   -2.6740   24.9880  -26.5170 C   0  0  0  0  0  0  0  0  0  0  0  0
   -1.2400   25.1670  -26.0910 N   0  0  0  0  0  0  0  0  0  0  0  0
   -0.4350   23.9910  -26.5130 C   0  0  0  0  0  0  0  0  0  0  0  0
   -0.6970   26.3800  -26.8010 C   0  0  0  0  0  0  0  0  0  0  0  0
    0.4130   27.0940  -25.9940 C   0  0  0  0  0  0  0  0  0  0  0  0
   -0.0920   27.6120  -24.6830 N   0  0  0  0  0  0  0  0  0  0  0  0
    1.0210   27.6040  -23.6980 C   0  0  0  0  0  0  0  0  0  0  0  0
   -0.5530   29.0170  -24.8490 C   0  0  0  0  0  0  0  0  0  0  0  0
   -1.2250   26.7900  -24.1560 C   0  0  0  0  0  0  0  0  0  0  0  0
   -1.1180   25.3210  -24.6020 C   0  0  0  0  0  0  0  0  0  0  0  0
   -3.6110   22.8810  -30.4480 C   0  0  0  0  0  0  0  0  0  0  0  0
   -3.7020   21.9810  -31.5350 C   0  0  0  0  0  0  0  0  0  0  0  0
   -2.9150   15.9535  -32.2178 H   0  0  0  0  0  0  0  0  0  0  0  0
   -3.2746   14.9519  -33.6649 H   0  0  0  0  0  0  0  0  0  0  0  0
   -3.6692   16.7043  -33.6649 H   0  0  0  0  0  0  0  0  0  0  0  0
   -5.7243   15.4315  -33.3201 H   0  0  0  0  0  0  0  0  0  0  0  0
   -4.9465   14.5232  -31.9505 H   0  0  0  0  0  0  0  0  0  0  0  0
   -4.6500   17.1160  -31.2880 H   0  0  0  0  0  0  0  0  0  0  0  0
   -5.7980   16.0460  -30.6470 H   0  0  0  0  0  0  0  0  0  0  0  0
   -7.5117   16.9426  -31.7727 H   0  0  0  0  0  0  0  0  0  0  0  0
   -6.4006   18.3693  -31.7249 H   0  0  0  0  0  0  0  0  0  0  0  0
   -5.6034   16.7873  -33.9606 H   0  0  0  0  0  0  0  0  0  0  0  0
   -7.3986   16.9057  -34.0229 H   0  0  0  0  0  0  0  0  0  0  0  0
   -6.5750   18.9080  -35.1140 H   0  0  0  0  0  0  0  0  0  0  0  0
   -8.7712   18.8561  -33.3190 H   0  0  0  0  0  0  0  0  0  0  0  0
  -10.8156   19.9457  -32.4161 H   0  0  0  0  0  0  0  0  0  0  0  0
  -10.6591   22.1396  -31.2521 H   0  0  0  0  0  0  0  0  0  0  0  0
   -8.4607   23.2624  -30.9928 H   0  0  0  0  0  0  0  0  0  0  0  0
   -6.0673   24.2788  -31.0706 H   0  0  0  0  0  0  0  0  0  0  0  0
   -5.1735   24.0688  -32.6145 H   0  0  0  0  0  0  0  0  0  0  0  0
   -6.9694   24.1079  -32.6145 H   0  0  0  0  0  0  0  0  0  0  0  0
   -3.8424   19.1150  -34.1794 H   0  0  0  0  0  0  0  0  0  0  0  0
   -1.6448   19.9728  -33.4064 H   0  0  0  0  0  0  0  0  0  0  0  0
   -0.3462   21.2925  -31.8602 H   0  0  0  0  0  0  0  0  0  0  0  0
   -0.2264   22.9372  -29.9915 H   0  0  0  0  0  0  0  0  0  0  0  0
   -4.0325   23.6961  -27.6219 H   0  0  0  0  0  0  0  0  0  0  0  0
   -2.4892   22.9084  -27.1065 H   0  0  0  0  0  0  0  0  0  0  0  0
   -3.0027   25.9224  -26.9954 H   0  0  0  0  0  0  0  0  0  0  0  0
   -3.2275   24.7344  -25.6009 H   0  0  0  0  0  0  0  0  0  0  0  0
   -0.0701   23.4579  -25.6227 H   0  0  0  0  0  0  0  0  0  0  0  0
   -1.0607   23.3150  -27.1143 H   0  0  0  0  0  0  0  0  0  0  0  0
    0.4216   24.3297  -27.1143 H   0  0  0  0  0  0  0  0  0  0  0  0
   -0.2813   26.0648  -27.7694 H   0  0  0  0  0  0  0  0  0  0  0  0
   -1.5266   27.0911  -26.9280 H   0  0  0  0  0  0  0  0  0  0  0  0
    1.2285   26.3807  -25.8037 H   0  0  0  0  0  0  0  0  0  0  0  0
    0.7650   27.9520  -26.5856 H   0  0  0  0  0  0  0  0  0  0  0  0
    0.6083   27.6070  -22.6784 H   0  0  0  0  0  0  0  0  0  0  0  0
    1.6328   26.7014  -23.8433 H   0  0  0  0  0  0  0  0  0  0  0  0
    1.6457   28.4977  -23.8433 H   0  0  0  0  0  0  0  0  0  0  0  0
   -0.7027   29.4731  -23.8593 H   0  0  0  0  0  0  0  0  0  0  0  0
    0.2048   29.5883  -25.4052 H   0  0  0  0  0  0  0  0  0  0  0  0
   -1.5019   29.0282  -25.4052 H   0  0  0  0  0  0  0  0  0  0  0  0
   -1.2138   26.8306  -23.0568 H   0  0  0  0  0  0  0  0  0  0  0  0
   -2.1630   27.2024  -24.5561 H   0  0  0  0  0  0  0  0  0  0  0  0
   -0.1422   24.9250  -24.2842 H   0  0  0  0  0  0  0  0  0  0  0  0
   -1.9470   24.7670  -24.1374 H   0  0  0  0  0  0  0  0  0  0  0  0
   -4.5300   23.3262  -30.0389 H   0  0  0  0  0  0  0  0  0  0  0  0
  1  2  1  0
  2  3  1  0
  3  4  1  0
  4  5  1  0
  5  6  1  0
  6  7  1  0
  7  8  2  0
  8  9  1  0
  9 10  2  0
 10 11  1  0
 11 12  2  0
 12 13  1  0
 13 14  2  0
 14 15  1  0
 14 16  1  0
 16 17  2  0
 17 18  1  0
 18 19  2  0
 19 20  1  0
 20 21  2  0
 21 22  1  0
 22 23  2  0
 23 24  1  0
 24 25  1  0
 25 26  1  0
 26 27  1  0
 27 28  1  0
 27 29  1  0
 29 30  1  0
 30 31  1  0
 31 32  1  0
 31 33  1  0
 31 34  1  0
 34 35  1  0
 23 36  1  0
 36 37  2  0
 17  7  1  0
 37 20  1  0
 13  8  1  0
 37 16  1  0
 35 27  1  0
  1 38  1  0
  1 39  1  0
  1 40  1  0
  2 41  1  0
  2 42  1  0
  3 43  1  0
  3 44  1  0
  4 45  1  0
  4 46  1  0
  5 47  1  0
  5 48  1  0
  6 49  1  0
  9 50  1  0
 10 51  1  0
 11 52  1  0
 12 53  1  0
 15 54  1  0
 15 55  1  0
 15 56  1  0
 18 57  1  0
 19 58  1  0
 21 59  1  0
 22 60  1  0
 25 61  1  0
 25 62  1  0
 26 63  1  0
 26 64  1  0
 28 65  1  0
 28 66  1  0
 28 67  1  0
 29 68  1  0
 29 69  1  0
 30 70  1  0
 30 71  1  0
 32 72  1  0
 32 73  1  0
 32 74  1  0
 33 75  1  0
 33 76  1  0
 33 77  1  0
 34 78  1  0
 34 79  1  0
 35 80  1  0
 35 81  1  0
 36 82  1  0
M  CHG  4   3   1  14   1  27   1  31   1
M  END
>  <UniqueID>  (19) 
19

>  <SMILES>  (19) 
CC[NH2+]CCNc1c2ccccc2[n+](C)c2c1ccc1ccc(OCC[N+]3(C)CC[N+](C)(C)CC3)cc12

>  <Energy>  (19) 
157.9856241556515

>  <Genealogy>  (19) 
CC[NH2+]CCNc1c2ccccc2[n+](C)c2c1ccc1ccc(OCC[N+]3(C)CC[N+](C)(C)CC3)cc12 (protonated)
CC[NH2+]CCNc1c2ccccc2[n+](C)c2c1ccc1ccc(OCC[N+]3(C)CC[N+](C)(C)CC3)cc12 (3D coordinates assigned)
CC[NH2+]CCNc1c2ccccc2[n+](C)c2c1ccc1ccc(OCC[N+]3(C)CC[N+](C)(C)CC3)cc12 (nonaromatic ring conformer: 157.9856241556515 kcal/mol)

>  <smiles>  (19) 
CCNCCNc1c2ccccc2[n+](C)c2c1ccc1ccc(OCC[N+]3(C)CC[N+](C)(C)CC3)cc12

>  <score_type>  (19) 
oracle

>  <origin>  (19) 
adg

>  <m_score__min__energy>  (19) 
-8.9199999999999999

>  <m_primary>  (19) 
energy

$$$$
19:0
     RDKit          3D

 32 34  0  0  0  0  0  0  0  0999 V2000
   -6.0890   20.6990  -32.8990 C   0  0  0  0  0  0  0  0  0  0  0  0
   -7.3170   19.9680  -32.5850 N   0  0  0  0  0  0  0  0  0  0  0  0
   -8.4990   20.4790  -32.1890 C   0  0  0  0  0  0  0  0  0  0  0  0
   -8.8490   22.2270  -31.9620 S   0  0  0  0  0  0  0  0  0  0  0  0
   -8.1610   22.3040  -30.2720 C   0  0  0  0  0  0  0  0  0  0  0  0
   -6.8830   23.0970  -30.2460 C   0  0  0  0  0  0  0  0  0  0  0  0
   -5.6390   22.4450  -30.2450 C   0  0  0  0  0  0  0  0  0  0  0  0
   -4.4550   23.1870  -30.1930 C   0  0  0  0  0  0  0  0  0  0  0  0
   -4.5050   24.5830  -30.1410 C   0  0  0  0  0  0  0  0  0  0  0  0
   -3.3560   25.3000  -30.0900 F   0  0  0  0  0  0  0  0  0  0  0  0
   -5.7390   25.2390  -30.1380 C   0  0  0  0  0  0  0  0  0  0  0  0
   -6.9250   24.5000  -30.1890 C   0  0  0  0  0  0  0  0  0  0  0  0
   -9.4080   19.5130  -31.9650 N   0  0  0  0  0  0  0  0  0  0  0  0
   -8.8120   18.3580  -32.2210 N   0  0  0  0  0  0  0  0  0  0  0  0
   -7.5500   18.6360  -32.6070 C   0  0  0  0  0  0  0  0  0  0  0  0
   -6.5870   17.5790  -32.9720 C   0  0  0  0  0  0  0  0  0  0  0  0
   -6.2880   17.0970  -34.2430 C   0  0  0  0  0  0  0  0  0  0  0  0
   -5.3600   16.0490  -34.2360 C   0  0  0  0  0  0  0  0  0  0  0  0
   -4.9310   15.6890  -32.9660 C   0  0  0  0  0  0  0  0  0  0  0  0
   -5.7140   16.6730  -31.8530 S   0  0  0  0  0  0  0  0  0  0  0  0
   -5.5900   20.9960  -31.9648 H   0  0  0  0  0  0  0  0  0  0  0  0
   -5.4175   20.0535  -33.4841 H   0  0  0  0  0  0  0  0  0  0  0  0
   -6.3363   21.5970  -33.4841 H   0  0  0  0  0  0  0  0  0  0  0  0
   -8.8947   22.7822  -29.6064 H   0  0  0  0  0  0  0  0  0  0  0  0
   -7.9448   21.2796  -29.9346 H   0  0  0  0  0  0  0  0  0  0  0  0
   -5.5960   21.3466  -30.2853 H   0  0  0  0  0  0  0  0  0  0  0  0
   -3.4832   22.6717  -30.1930 H   0  0  0  0  0  0  0  0  0  0  0  0
   -5.7773   26.3375  -30.0955 H   0  0  0  0  0  0  0  0  0  0  0  0
   -7.8947   25.0193  -30.1845 H   0  0  0  0  0  0  0  0  0  0  0  0
   -6.7369   17.5001  -35.1628 H   0  0  0  0  0  0  0  0  0  0  0  0
   -5.0036   15.5562  -35.1526 H   0  0  0  0  0  0  0  0  0  0  0  0
   -4.2048   14.8973  -32.7298 H   0  0  0  0  0  0  0  0  0  0  0  0
  1  2  1  0
  2  3  1  0
  3  4  1  0
  4  5  1  0
  5  6  1  0
  6  7  2  0
  7  8  1  0
  8  9  2  0
  9 10  1  0
  9 11  1  0
 11 12  2  0
  3 13  2  0
 13 14  1  0
 14 15  2  0
 15 16  1  0
 16 17  2  0
 17 18  1  0
 18 19  2  0
 19 20  1  0
 15  2  1  0
 20 16  1  0
 12  6  1  0
  1 21  1  0
  1 22  1  0
  1 23  1  0
  5 24  1  0
  5 25  1  0
  7 26  1  0
  8 27  1  0
 11 28  1  0
 12 29  1  0
 17 30  1  0
 18 31  1  0
 19 32  1  0
M  END
>  <UniqueID>  (20) 
20

>  <SMILES>  (20) 
Cn1c(SCc2ccc(F)cc2)nnc1-c1cccs1

>  <Energy>  (20) 
92.83457050933178

>  <Genealogy>  (20) 
Cn1c(SCc2ccc(F)cc2)nnc1-c1cccs1 (3D coordinates assigned)
Cn1c(SCc2ccc(F)cc2)nnc1-c1cccs1 (optimized conformer: 92.83457050933178 kcal/mol)

>  <smiles>  (20) 
Cn1c(SCc2ccc(F)cc2)nnc1-c1cccs1

>  <score_type>  (20) 
oracle

>  <origin>  (20) 
adg

>  <m_score__min__energy>  (20) 
-7.8200000000000003

>  <m_primary>  (20) 
energy

$$$$
