0:0
     RDKit          3D

 44 47  0  0  0  0  0  0  0  0999 V2000
   -6.2610   25.3880  -29.3930 C   0  0  0  0  0  0  0  0  0  0  0  0
   -5.7470   25.3910  -30.8280 C   0  0  0  0  0  0  0  0  0  0  0  0
   -5.1660   24.0760  -31.1700 N   0  0  0  0  0  0  0  0  0  0  0  0
   -5.8860   23.1470  -31.9060 C   0  0  0  0  0  0  0  0  0  0  0  0
   -7.6160   23.4000  -32.3450 S   0  0  0  0  0  0  0  0  0  0  0  0
   -8.2680   22.4440  -30.9280 C   0  0  0  0  0  0  0  0  0  0  0  0
   -9.2400   21.3480  -31.3740 C   0  0  0  0  0  0  0  0  0  0  0  0
   -8.7520   20.6950  -32.5450 O   0  0  0  0  0  0  0  0  0  0  0  0
   -7.8400   19.6250  -32.5530 C   0  0  0  0  0  0  0  0  0  0  0  0
   -7.8760   18.5860  -31.6000 C   0  0  0  0  0  0  0  0  0  0  0  0
   -6.9430   17.5480  -31.6440 C   0  0  0  0  0  0  0  0  0  0  0  0
   -5.9620   17.5240  -32.6430 C   0  0  0  0  0  0  0  0  0  0  0  0
   -5.0190   16.4850  -32.6960 C   0  0  0  0  0  0  0  0  0  0  0  0
   -4.0460   16.4720  -33.6990 C   0  0  0  0  0  0  0  0  0  0  0  0
   -4.0060   17.4920  -34.6530 C   0  0  0  0  0  0  0  0  0  0  0  0
   -4.9390   18.5330  -34.6120 C   0  0  0  0  0  0  0  0  0  0  0  0
   -5.9210   18.5580  -33.6100 C   0  0  0  0  0  0  0  0  0  0  0  0
   -6.8620   19.5970  -33.5550 C   0  0  0  0  0  0  0  0  0  0  0  0
   -5.3050   21.9740  -32.2990 N   0  0  0  0  0  0  0  0  0  0  0  0
   -4.0290   21.6980  -31.9490 C   0  0  0  0  0  0  0  0  0  0  0  0
   -3.3430   20.5250  -32.2670 C   0  0  0  0  0  0  0  0  0  0  0  0
   -2.0450   20.5190  -31.7580 C   0  0  0  0  0  0  0  0  0  0  0  0
   -1.7710   21.9670  -30.9230 S   0  0  0  0  0  0  0  0  0  0  0  0
   -3.3020   22.5930  -31.2090 C   0  0  0  0  0  0  0  0  0  0  0  0
   -3.8610   23.8030  -30.8230 C   0  0  0  0  0  0  0  0  0  0  0  0
   -3.1690   24.6310  -30.1680 O   0  0  0  0  0  0  0  0  0  0  0  0
   -5.4083   25.3930  -28.6981 H   0  0  0  0  0  0  0  0  0  0  0  0
   -6.8781   26.2826  -29.2227 H   0  0  0  0  0  0  0  0  0  0  0  0
   -6.8676   24.4863  -29.2227 H   0  0  0  0  0  0  0  0  0  0  0  0
   -6.5814   25.6074  -31.5114 H   0  0  0  0  0  0  0  0  0  0  0  0
   -4.9682   26.1616  -30.9264 H   0  0  0  0  0  0  0  0  0  0  0  0
   -7.4255   21.9769  -30.3970 H   0  0  0  0  0  0  0  0  0  0  0  0
   -8.8156   23.1378  -30.2732 H   0  0  0  0  0  0  0  0  0  0  0  0
   -9.3486   20.6094  -30.5661 H   0  0  0  0  0  0  0  0  0  0  0  0
  -10.2137   21.8064  -31.6014 H   0  0  0  0  0  0  0  0  0  0  0  0
   -8.6462   18.5934  -30.8147 H   0  0  0  0  0  0  0  0  0  0  0  0
   -6.9787   16.7465  -30.8914 H   0  0  0  0  0  0  0  0  0  0  0  0
   -5.0462   15.6800  -31.9468 H   0  0  0  0  0  0  0  0  0  0  0  0
   -3.3092   15.6561  -33.7375 H   0  0  0  0  0  0  0  0  0  0  0  0
   -3.2373   17.4762  -35.4397 H   0  0  0  0  0  0  0  0  0  0  0  0
   -4.9030   19.3331  -35.3661 H   0  0  0  0  0  0  0  0  0  0  0  0
   -6.8313   20.3988  -34.3074 H   0  0  0  0  0  0  0  0  0  0  0  0
   -3.7764   19.7003  -32.8518 H   0  0  0  0  0  0  0  0  0  0  0  0
   -1.3158   19.7044  -31.8793 H   0  0  0  0  0  0  0  0  0  0  0  0
  1  2  1  0
  2  3  1  0
  3  4  1  0
  4  5  1  0
  5  6  1  0
  6  7  1  0
  7  8  1  0
  8  9  1  0
  9 10  2  0
 10 11  1  0
 11 12  2  0
 12 13  1  0
 13 14  2  0
 14 15  1  0
 15 16  2  0
 16 17  1  0
 17 18  2  0
  4 19  2  0
 19 20  1  0
 20 21  1  0
 21 22  2  0
 22 23  1  0
 23 24  1  0
 24 25  1  0
 25 26  2  0
 25  3  1  0
 18  9  1  0
 24 20  2  0
 17 12  1  0
  1 27  1  0
  1 28  1  0
  1 29  1  0
  2 30  1  0
  2 31  1  0
  6 32  1  0
  6 33  1  0
  7 34  1  0
  7 35  1  0
 10 36  1  0
 11 37  1  0
 13 38  1  0
 14 39  1  0
 15 40  1  0
 16 41  1  0
 18 42  1  0
 21 43  1  0
 22 44  1  0
M  END
>  <UniqueID>  (1) 
1

>  <SMILES>  (1) 
CCn1c(SCCOc2ccc3ccccc3c2)nc2ccsc2c1=O

>  <Energy>  (1) 
79.25147519827382

>  <Genealogy>  (1) 
CCn1c(SCCOc2ccc3ccccc3c2)nc2ccsc2c1=O (3D coordinates assigned)
CCn1c(SCCOc2ccc3ccccc3c2)nc2ccsc2c1=O (optimized conformer: 79.25147519827382 kcal/mol)

>  <smiles>  (1) 
CCn1c(SCCOc2ccc3ccccc3c2)nc2ccsc2c1=O

>  <score_type>  (1) 
oracle

>  <origin>  (1) 
adg

>  <m_score__min__energy>  (1) 
-9.2699999999999996

>  <m_primary>  (1) 
energy

$$$$
1:0
     RDKit          3D

 30 32  0  0  0  0  0  0  0  0999 V2000
   -8.6990   18.3240  -31.6160 C   0  0  0  0  0  0  0  0  0  0  0  0
   -8.9160   19.3530  -32.7190 C   0  0  0  0  0  0  0  0  0  0  0  0
   -8.7000   20.7020  -32.2000 N   0  0  0  0  0  0  0  0  0  0  0  0
   -9.6200   21.6440  -32.1070 N   0  0  0  0  0  0  0  0  0  0  0  0
   -9.0660   22.7670  -31.6770 N   0  0  0  0  0  0  0  0  0  0  0  0
   -7.7660   22.5750  -31.4920 N   0  0  0  0  0  0  0  0  0  0  0  0
   -7.5480   21.2870  -31.8250 C   0  0  0  0  0  0  0  0  0  0  0  0
   -5.9380   20.4950  -31.7910 S   0  0  0  0  0  0  0  0  0  0  0  0
   -5.0990   21.8180  -32.7250 C   0  0  0  0  0  0  0  0  0  0  0  0
   -4.7490   22.9510  -31.8190 C   0  0  0  0  0  0  0  0  0  0  0  0
   -5.3650   24.1490  -31.8310 N   0  0  0  0  0  0  0  0  0  0  0  0
   -4.8010   24.8660  -30.8700 N   0  0  0  0  0  0  0  0  0  0  0  0
   -3.8660   24.0740  -30.3120 C   0  0  0  0  0  0  0  0  0  0  0  0
   -3.0070   24.4780  -29.1960 C   0  0  0  0  0  0  0  0  0  0  0  0
   -3.1420   24.0670  -27.8850 C   0  0  0  0  0  0  0  0  0  0  0  0
   -2.1270   24.6960  -27.1960 C   0  0  0  0  0  0  0  0  0  0  0  0
   -1.4380   25.4470  -28.1270 C   0  0  0  0  0  0  0  0  0  0  0  0
   -1.9880   25.2980  -29.3110 O   0  0  0  0  0  0  0  0  0  0  0  0
   -3.8270   22.8970  -30.8880 O   0  0  0  0  0  0  0  0  0  0  0  0
   -8.8017   18.8109  -30.6350 H   0  0  0  0  0  0  0  0  0  0  0  0
   -9.4482   17.5239  -31.7084 H   0  0  0  0  0  0  0  0  0  0  0  0
   -7.6905   17.8945  -31.7084 H   0  0  0  0  0  0  0  0  0  0  0  0
   -8.2083   19.1615  -33.5390 H   0  0  0  0  0  0  0  0  0  0  0  0
   -9.9491   19.2714  -33.0880 H   0  0  0  0  0  0  0  0  0  0  0  0
  -10.6300   21.5290  -32.3480 H   0  0  0  0  0  0  0  0  0  0  0  0
   -4.1794   21.4166  -33.1757 H   0  0  0  0  0  0  0  0  0  0  0  0
   -5.7755   22.1848  -33.5110 H   0  0  0  0  0  0  0  0  0  0  0  0
   -3.8996   23.3821  -27.4764 H   0  0  0  0  0  0  0  0  0  0  0  0
   -1.9099   24.6156  -26.1206 H   0  0  0  0  0  0  0  0  0  0  0  0
   -0.5613   26.0751  -27.9105 H   0  0  0  0  0  0  0  0  0  0  0  0
  1  2  1  0
  2  3  1  0
  3  4  1  0
  4  5  2  0
  5  6  1  0
  6  7  2  0
  7  8  1  0
  8  9  1  0
  9 10  1  0
 10 11  2  0
 11 12  1  0
 12 13  2  0
 13 14  1  0
 14 15  2  0
 15 16  1  0
 16 17  2  0
 17 18  1  0
 13 19  1  0
  7  3  1  0
 19 10  1  0
 18 14  1  0
  1 20  1  0
  1 21  1  0
  1 22  1  0
  2 23  1  0
  2 24  1  0
  4 25  1  0
  9 26  1  0
  9 27  1  0
 15 28  1  0
 16 29  1  0
 17 30  1  0
M  CHG  1   4   1
M  END
>  <UniqueID>  (2) 
2

>  <SMILES>  (2) 
CCn1[nH+]nnc1SCc1nnc(-c2ccco2)o1

>  <Energy>  (2) 
123.0085619312441

>  <Genealogy>  (2) 
CCn1[nH+]nnc1SCc1nnc(-c2ccco2)o1 (protonated)
CCn1[nH+]nnc1SCc1nnc(-c2ccco2)o1 (3D coordinates assigned)
CCn1[nH+]nnc1SCc1nnc(-c2ccco2)o1 (optimized conformer: 123.0085619312441 kcal/mol)

>  <smiles>  (2) 
CCn1nnnc1SCc1nnc(-c2ccco2)o1

>  <score_type>  (2) 
oracle

>  <origin>  (2) 
adg

>  <m_score__min__energy>  (2) 
-7.7199999999999998

>  <m_primary>  (2) 
energy

$$$$
2:0
     RDKit          3D

 49 51  0  0  0  0  0  0  0  0999 V2000
   -9.4710   22.8020  -31.9960 C   0  0  0  0  0  0  0  0  0  0  0  0
   -9.6560   21.3000  -31.8120 C   0  0  0  0  0  0  0  0  0  0  0  0
   -8.4450   20.5620  -32.2820 C   0  0  0  0  0  0  0  0  0  0  0  0
   -7.2640   21.1640  -32.5500 N   0  0  0  0  0  0  0  0  0  0  0  0
   -6.3060   20.2610  -32.8930 C   0  0  0  0  0  0  0  0  0  0  0  0
   -4.9890   20.6020  -33.2190 C   0  0  0  0  0  0  0  0  0  0  0  0
   -4.5960   22.0000  -33.1940 N   0  0  0  0  0  0  0  0  0  0  0  0
   -3.6300   22.2820  -32.1150 C   0  0  0  0  0  0  0  0  0  0  0  0
   -4.2820   22.9560  -30.8980 C   0  0  0  0  0  0  0  0  0  0  0  0
   -5.0800   24.1260  -31.3300 N   0  0  0  0  0  0  0  0  0  0  0  0
   -6.5180   23.7950  -31.3410 C   0  0  0  0  0  0  0  0  0  0  0  0
   -4.8380   25.2980  -30.4610 C   0  0  0  0  0  0  0  0  0  0  0  0
   -6.1130   25.6770  -29.7100 C   0  0  0  0  0  0  0  0  0  0  0  0
   -4.0930   19.5370  -33.5420 C   0  0  0  0  0  0  0  0  0  0  0  0
   -2.7370   19.7730  -33.8720 C   0  0  0  0  0  0  0  0  0  0  0  0
   -1.8780   18.7220  -34.1830 C   0  0  0  0  0  0  0  0  0  0  0  0
   -2.3400   17.4140  -34.1750 C   0  0  0  0  0  0  0  0  0  0  0  0
   -3.6650   17.1400  -33.8530 C   0  0  0  0  0  0  0  0  0  0  0  0
   -4.5720   18.1800  -33.5290 C   0  0  0  0  0  0  0  0  0  0  0  0
   -5.8880   17.9010  -33.2010 N   0  0  0  0  0  0  0  0  0  0  0  0
   -6.3950   16.5160  -33.1800 C   0  0  0  0  0  0  0  0  0  0  0  0
   -6.7170   18.9410  -32.8900 C   0  0  0  0  0  0  0  0  0  0  0  0
   -8.3440   18.8840  -32.4360 S   0  0  0  0  0  0  0  0  0  0  0  0
   -9.4112   23.2875  -31.0107 H   0  0  0  0  0  0  0  0  0  0  0  0
   -8.5427   22.9913  -32.5550 H   0  0  0  0  0  0  0  0  0  0  0  0
  -10.3256   23.2109  -32.5550 H   0  0  0  0  0  0  0  0  0  0  0  0
   -9.8208   21.0835  -30.7462 H   0  0  0  0  0  0  0  0  0  0  0  0
  -10.5236   20.9733  -32.4040 H   0  0  0  0  0  0  0  0  0  0  0  0
   -5.4490   22.5810  -33.0160 H   0  0  0  0  0  0  0  0  0  0  0  0
   -4.2400   22.3460  -34.1110 H   0  0  0  0  0  0  0  0  0  0  0  0
   -3.1768   21.3334  -31.7913 H   0  0  0  0  0  0  0  0  0  0  0  0
   -2.8768   22.9762  -32.5159 H   0  0  0  0  0  0  0  0  0  0  0  0
   -4.9397   22.2342  -30.3915 H   0  0  0  0  0  0  0  0  0  0  0  0
   -3.4940   23.2930  -30.2084 H   0  0  0  0  0  0  0  0  0  0  0  0
   -6.8828   23.7110  -30.3067 H   0  0  0  0  0  0  0  0  0  0  0  0
   -7.0730   24.5889  -31.8623 H   0  0  0  0  0  0  0  0  0  0  0  0
   -6.6701   22.8384  -31.8623 H   0  0  0  0  0  0  0  0  0  0  0  0
   -4.0487   25.0538  -29.7348 H   0  0  0  0  0  0  0  0  0  0  0  0
   -4.5267   26.1476  -31.0866 H   0  0  0  0  0  0  0  0  0  0  0  0
   -5.9303   25.6227  -28.6266 H   0  0  0  0  0  0  0  0  0  0  0  0
   -6.4075   26.7015  -29.9813 H   0  0  0  0  0  0  0  0  0  0  0  0
   -6.9193   24.9797  -29.9813 H   0  0  0  0  0  0  0  0  0  0  0  0
   -2.3551   20.8045  -33.8830 H   0  0  0  0  0  0  0  0  0  0  0  0
   -0.8280   18.9300  -34.4362 H   0  0  0  0  0  0  0  0  0  0  0  0
   -1.6554   16.5899  -34.4244 H   0  0  0  0  0  0  0  0  0  0  0  0
   -4.0154   16.0973  -33.8497 H   0  0  0  0  0  0  0  0  0  0  0  0
   -6.5160   16.1856  -32.1378 H   0  0  0  0  0  0  0  0  0  0  0  0
   -7.3670   16.4735  -33.6933 H   0  0  0  0  0  0  0  0  0  0  0  0
   -5.6802   15.8560  -33.6933 H   0  0  0  0  0  0  0  0  0  0  0  0
  1  2  1  0
  2  3  1  0
  3  4  2  0
  4  5  1  0
  5  6  2  0
  6  7  1  0
  7  8  1  0
  8  9  1  0
  9 10  1  0
 10 11  1  0
 10 12  1  0
 12 13  1  0
  6 14  1  0
 14 15  2  0
 15 16  1  0
 16 17  2  0
 17 18  1  0
 18 19  2  0
 19 20  1  0
 20 21  1  0
 20 22  2  0
 22 23  1  0
 23  3  1  0
 22  5  1  0
 19 14  1  0
  1 24  1  0
  1 25  1  0
  1 26  1  0
  2 27  1  0
  2 28  1  0
  7 29  1  0
  7 30  1  0
  8 31  1  0
  8 32  1  0
  9 33  1  0
  9 34  1  0
 11 35  1  0
 11 36  1  0
 11 37  1  0
 12 38  1  0
 12 39  1  0
 13 40  1  0
 13 41  1  0
 13 42  1  0
 15 43  1  0
 16 44  1  0
 17 45  1  0
 18 46  1  0
 21 47  1  0
 21 48  1  0
 21 49  1  0
M  CHG  2   7   1  20   1
M  END
>  <UniqueID>  (3) 
3

>  <SMILES>  (3) 
CCc1nc2c([NH2+]CCN(C)CC)c3ccccc3[n+](C)c2s1

>  <Energy>  (3) 
93.50766684491026

>  <Genealogy>  (3) 
CCc1nc2c([NH2+]CCN(C)CC)c3ccccc3[n+](C)c2s1 (protonated)
CCc1nc2c([NH2+]CCN(C)CC)c3ccccc3[n+](C)c2s1 (3D coordinates assigned)
CCc1nc2c([NH2+]CCN(C)CC)c3ccccc3[n+](C)c2s1 (optimized conformer: 93.50766684491026 kcal/mol)

>  <smiles>  (3) 
CCc1nc2c(NCCN(C)CC)c3ccccc3[n+](C)c2s1

>  <score_type>  (3) 
oracle

>  <origin>  (3) 
adg

>  <m_score__min__energy>  (3) 
-7.4000000000000004

>  <m_primary>  (3) 
energy

$$$$
3:0
     RDKit          3D

 51 53  0  0  0  0  0  0  0  0999 V2000
   -3.2060   24.5330  -27.2300 C   0  0  0  0  0  0  0  0  0  0  0  0
   -2.3820   24.9040  -28.4590 C   0  0  0  0  0  0  0  0  0  0  0  0
   -3.1340   24.5450  -29.6860 N   0  0  0  0  0  0  0  0  0  0  0  0
   -2.7130   23.2280  -30.1900 C   0  0  0  0  0  0  0  0  0  0  0  0
   -4.5980   24.5780  -29.4850 C   0  0  0  0  0  0  0  0  0  0  0  0
   -5.3340   24.7270  -30.8260 C   0  0  0  0  0  0  0  0  0  0  0  0
   -6.3470   23.5990  -31.0650 C   0  0  0  0  0  0  0  0  0  0  0  0
   -6.1310   22.9870  -32.3800 N   0  0  0  0  0  0  0  0  0  0  0  0
   -5.9870   21.5580  -32.5060 C   0  0  0  0  0  0  0  0  0  0  0  0
   -7.1100   20.7180  -32.3760 C   0  0  0  0  0  0  0  0  0  0  0  0
   -8.3750   21.2440  -32.0300 C   0  0  0  0  0  0  0  0  0  0  0  0
   -9.5010   20.4250  -31.9890 C   0  0  0  0  0  0  0  0  0  0  0  0
   -9.3910   19.0760  -32.3040 C   0  0  0  0  0  0  0  0  0  0  0  0
   -8.1510   18.5280  -32.6260 C   0  0  0  0  0  0  0  0  0  0  0  0
   -6.9750   19.3260  -32.6320 C   0  0  0  0  0  0  0  0  0  0  0  0
   -5.7330   18.7840  -32.9050 N   0  0  0  0  0  0  0  0  0  0  0  0
   -5.5500   17.3140  -32.8970 C   0  0  0  0  0  0  0  0  0  0  0  0
   -4.6520   19.6120  -33.1460 C   0  0  0  0  0  0  0  0  0  0  0  0
   -3.4330   19.1140  -33.6750 C   0  0  0  0  0  0  0  0  0  0  0  0
   -2.3080   19.9390  -33.8350 C   0  0  0  0  0  0  0  0  0  0  0  0
   -1.0810   19.4080  -34.3680 N   0  0  0  0  0  0  0  0  0  0  0  0
   -0.6380   18.3090  -33.9760 O   0  0  0  0  0  0  0  0  0  0  0  0
   -0.3680   20.1090  -35.3130 O   0  0  0  0  0  0  0  0  0  0  0  0
   -2.3980   21.2850  -33.4640 C   0  0  0  0  0  0  0  0  0  0  0  0
   -3.6000   21.8100  -32.9980 C   0  0  0  0  0  0  0  0  0  0  0  0
   -4.7490   21.0020  -32.8830 C   0  0  0  0  0  0  0  0  0  0  0  0
   -2.6422   24.7869  -26.3202 H   0  0  0  0  0  0  0  0  0  0  0  0
   -4.1537   25.0913  -27.2418 H   0  0  0  0  0  0  0  0  0  0  0  0
   -3.4163   23.4533  -27.2418 H   0  0  0  0  0  0  0  0  0  0  0  0
   -2.1834   25.9859  -28.4542 H   0  0  0  0  0  0  0  0  0  0  0  0
   -1.4286   24.3557  -28.4400 H   0  0  0  0  0  0  0  0  0  0  0  0
   -2.5000   22.5616  -29.3412 H   0  0  0  0  0  0  0  0  0  0  0  0
   -3.5177   22.7955  -30.8028 H   0  0  0  0  0  0  0  0  0  0  0  0
   -1.8067   23.3425  -30.8028 H   0  0  0  0  0  0  0  0  0  0  0  0
   -4.9161   23.6423  -29.0019 H   0  0  0  0  0  0  0  0  0  0  0  0
   -4.8457   25.4421  -28.8510 H   0  0  0  0  0  0  0  0  0  0  0  0
   -5.8681   25.6886  -30.8310 H   0  0  0  0  0  0  0  0  0  0  0  0
   -4.5830   24.6793  -31.6283 H   0  0  0  0  0  0  0  0  0  0  0  0
   -6.2270   22.8330  -30.2848 H   0  0  0  0  0  0  0  0  0  0  0  0
   -7.3631   24.0190  -31.0299 H   0  0  0  0  0  0  0  0  0  0  0  0
   -5.7980   23.6000  -33.1560 H   0  0  0  0  0  0  0  0  0  0  0  0
   -8.4718   22.3132  -31.7901 H   0  0  0  0  0  0  0  0  0  0  0  0
  -10.4774   20.8461  -31.7073 H   0  0  0  0  0  0  0  0  0  0  0  0
  -10.2870   18.4378  -32.2991 H   0  0  0  0  0  0  0  0  0  0  0  0
   -8.0812   17.4600  -32.8798 H   0  0  0  0  0  0  0  0  0  0  0  0
   -5.5054   16.9557  -31.8579 H   0  0  0  0  0  0  0  0  0  0  0  0
   -6.3956   16.8364  -33.4136 H   0  0  0  0  0  0  0  0  0  0  0  0
   -4.6131   17.0583  -33.4136 H   0  0  0  0  0  0  0  0  0  0  0  0
   -3.3677   18.0555  -33.9670 H   0  0  0  0  0  0  0  0  0  0  0  0
   -1.5125   21.9330  -33.5411 H   0  0  0  0  0  0  0  0  0  0  0  0
   -3.6539   22.8717  -32.7152 H   0  0  0  0  0  0  0  0  0  0  0  0
  1  2  1  0
  2  3  1  0
  3  4  1  0
  3  5  1  0
  5  6  1  0
  6  7  1  0
  7  8  1  0
  8  9  1  0
  9 10  2  0
 10 11  1  0
 11 12  2  0
 12 13  1  0
 13 14  2  0
 14 15  1  0
 15 16  2  0
 16 17  1  0
 16 18  1  0
 18 19  2  0
 19 20  1  0
 20 21  1  0
 21 22  2  0
 21 23  1  0
 20 24  2  0
 24 25  1  0
 25 26  2  0
 26  9  1  0
 15 10  1  0
 26 18  1  0
  1 27  1  0
  1 28  1  0
  1 29  1  0
  2 30  1  0
  2 31  1  0
  4 32  1  0
  4 33  1  0
  4 34  1  0
  5 35  1  0
  5 36  1  0
  6 37  1  0
  6 38  1  0
  7 39  1  0
  7 40  1  0
  8 41  1  0
 11 42  1  0
 12 43  1  0
 13 44  1  0
 14 45  1  0
 17 46  1  0
 17 47  1  0
 17 48  1  0
 19 49  1  0
 24 50  1  0
 25 51  1  0
M  CHG  3  16   1  21   1  23  -1
M  END
>  <UniqueID>  (4) 
4

>  <SMILES>  (4) 
CCN(C)CCCNc1c2ccccc2[n+](C)c2cc([N+](=O)[O-])ccc12

>  <Energy>  (4) 
75.97486063852065

>  <Genealogy>  (4) 
CCN(C)CCCNc1c2ccccc2[n+](C)c2cc([N+](=O)[O-])ccc12 (3D coordinates assigned)
CCN(C)CCCNc1c2ccccc2[n+](C)c2cc([N+](=O)[O-])ccc12 (optimized conformer: 75.97486063852065 kcal/mol)

>  <smiles>  (4) 
CCN(C)CCCNc1c2ccccc2[n+](C)c2cc([N+](=O)[O-])ccc12

>  <score_type>  (4) 
oracle

>  <origin>  (4) 
adg

>  <m_score__min__energy>  (4) 
-8.8200000000000003

>  <m_primary>  (4) 
energy

$$$$
4:0
     RDKit          3D

 62 63  0  0  0  0  0  0  0  0999 V2000
   -8.7570   18.5900  -31.5720 C   0  0  0  0  0  0  0  0  0  0  0  0
   -7.4830   18.6600  -32.4110 C   0  0  0  0  0  0  0  0  0  0  0  0
   -7.3490   20.0250  -33.0970 C   0  0  0  0  0  0  0  0  0  0  0  0
   -5.9420   20.6470  -32.9800 C   0  0  0  0  0  0  0  0  0  0  0  0
   -5.7180   21.7060  -31.8620 C   0  0  1  0  0  0  0  0  0  0  0  0
   -7.0310   22.1030  -31.1380 C   0  0  0  0  0  0  0  0  0  0  0  0
   -7.8360   23.1410  -31.9240 C   0  0  0  0  0  0  0  0  0  0  0  0
   -4.6140   21.3080  -30.8530 C   0  0  0  0  0  0  0  0  0  0  0  0
   -3.5490   22.3370  -30.8070 N   0  0  0  0  0  0  0  0  0  0  0  0
   -2.2420   21.8940  -31.3610 C   0  0  0  0  0  0  0  0  0  0  0  0
   -1.0710   22.0550  -30.3830 C   0  0  0  0  0  0  0  0  0  0  0  0
   -1.4370   21.6130  -29.0320 N   0  0  0  0  0  0  0  0  0  0  0  0
   -1.6560   20.1530  -28.9510 C   0  0  0  0  0  0  0  0  0  0  0  0
   -0.4010   19.4690  -28.4770 C   0  0  0  0  0  0  0  0  0  0  0  0
   -0.4760   18.1890  -27.9030 C   0  0  0  0  0  0  0  0  0  0  0  0
    0.6860   17.5370  -27.4790 C   0  0  0  0  0  0  0  0  0  0  0  0
    1.9310   18.1550  -27.6280 C   0  0  0  0  0  0  0  0  0  0  0  0
    3.3900   17.3350  -27.0980 Cl  0  0  0  0  0  0  0  0  0  0  0  0
    2.0140   19.4290  -28.2020 C   0  0  0  0  0  0  0  0  0  0  0  0
    0.8520   20.0850  -28.6230 C   0  0  0  0  0  0  0  0  0  0  0  0
   -2.5550   22.4040  -28.4660 C   0  0  0  0  0  0  0  0  0  0  0  0
   -3.4980   23.0660  -29.5140 C   0  0  1  0  0  0  0  0  0  0  0  0
   -3.1610   24.5290  -29.7380 C   0  0  0  0  0  0  0  0  0  0  0  0
   -2.2370   25.0720  -29.0750 O   0  0  0  0  0  0  0  0  0  0  0  0
   -3.8800   25.3290  -30.6870 N   0  0  0  0  0  0  0  0  0  0  0  0
   -5.3280   25.3010  -30.8750 C   0  0  0  0  0  0  0  0  0  0  0  0
   -6.0210   25.3200  -29.5210 C   0  0  0  0  0  0  0  0  0  0  0  0
   -8.4940   18.6045  -30.5040 H   0  0  0  0  0  0  0  0  0  0  0  0
   -9.3967   19.4544  -31.8038 H   0  0  0  0  0  0  0  0  0  0  0  0
   -9.2981   17.6608  -31.8038 H   0  0  0  0  0  0  0  0  0  0  0  0
   -6.6129   18.4993  -31.7574 H   0  0  0  0  0  0  0  0  0  0  0  0
   -7.5321   17.8819  -33.1870 H   0  0  0  0  0  0  0  0  0  0  0  0
   -7.5855   19.9012  -34.1641 H   0  0  0  0  0  0  0  0  0  0  0  0
   -8.0441   20.7085  -32.5874 H   0  0  0  0  0  0  0  0  0  0  0  0
   -5.2318   19.8257  -32.8036 H   0  0  0  0  0  0  0  0  0  0  0  0
   -5.7985   21.1973  -33.9216 H   0  0  0  0  0  0  0  0  0  0  0  0
   -5.3541   22.6012  -32.3876 H   0  0  0  0  0  0  0  0  0  0  0  0
   -7.6485   21.2023  -31.0059 H   0  0  0  0  0  0  0  0  0  0  0  0
   -6.7601   22.5495  -30.1699 H   0  0  0  0  0  0  0  0  0  0  0  0
   -8.3552   23.8104  -31.2223 H   0  0  0  0  0  0  0  0  0  0  0  0
   -7.1559   23.7296  -32.5572 H   0  0  0  0  0  0  0  0  0  0  0  0
   -8.5754   22.6288  -32.5572 H   0  0  0  0  0  0  0  0  0  0  0  0
   -5.0596   21.2049  -29.8526 H   0  0  0  0  0  0  0  0  0  0  0  0
   -4.1697   20.3542  -31.1738 H   0  0  0  0  0  0  0  0  0  0  0  0
   -2.3228   20.8315  -31.6341 H   0  0  0  0  0  0  0  0  0  0  0  0
   -2.0267   22.5352  -32.2285 H   0  0  0  0  0  0  0  0  0  0  0  0
   -0.2221   21.4528  -30.7389 H   0  0  0  0  0  0  0  0  0  0  0  0
   -0.8018   23.1206  -30.3376 H   0  0  0  0  0  0  0  0  0  0  0  0
   -2.4729   19.9459  -28.2440 H   0  0  0  0  0  0  0  0  0  0  0  0
   -1.9200   19.7718  -29.9485 H   0  0  0  0  0  0  0  0  0  0  0  0
   -1.4532   17.6975  -27.7866 H   0  0  0  0  0  0  0  0  0  0  0  0
    0.6204   16.5361  -27.0274 H   0  0  0  0  0  0  0  0  0  0  0  0
    2.9935   19.9148  -28.3222 H   0  0  0  0  0  0  0  0  0  0  0  0
    0.9206   21.0876  -29.0703 H   0  0  0  0  0  0  0  0  0  0  0  0
   -3.1613   21.7347  -27.8379 H   0  0  0  0  0  0  0  0  0  0  0  0
   -2.0913   23.2309  -27.9081 H   0  0  0  0  0  0  0  0  0  0  0  0
   -4.5050   23.0051  -29.0756 H   0  0  0  0  0  0  0  0  0  0  0  0
   -5.6383   26.1813  -31.4570 H   0  0  0  0  0  0  0  0  0  0  0  0
   -5.6077   24.3842  -31.4147 H   0  0  0  0  0  0  0  0  0  0  0  0
   -5.2653   25.2993  -28.7220 H   0  0  0  0  0  0  0  0  0  0  0  0
   -6.6248   26.2350  -29.4309 H   0  0  0  0  0  0  0  0  0  0  0  0
   -6.6740   24.4394  -29.4309 H   0  0  0  0  0  0  0  0  0  0  0  0
  1  2  1  0
  2  3  1  0
  3  4  1  0
  4  5  1  0
  5  6  1  0
  6  7  1  0
  5  8  1  0
  8  9  1  0
  9 10  1  0
 10 11  1  0
 11 12  1  0
 12 13  1  0
 13 14  1  0
 14 15  2  0
 15 16  1  0
 16 17  2  0
 17 18  1  0
 17 19  1  0
 19 20  2  0
 12 21  1  0
 21 22  1  0
 22 23  1  0
 23 24  2  0
 23 25  1  0
 25 26  1  0
 26 27  1  0
 22  9  1  0
 20 14  1  0
  1 28  1  0
  1 29  1  0
  1 30  1  0
  2 31  1  0
  2 32  1  0
  3 33  1  0
  3 34  1  0
  4 35  1  0
  4 36  1  0
  5 37  1  6
  6 38  1  0
  6 39  1  0
  7 40  1  0
  7 41  1  0
  7 42  1  0
  8 43  1  0
  8 44  1  0
 10 45  1  0
 10 46  1  0
 11 47  1  0
 11 48  1  0
 13 49  1  0
 13 50  1  0
 15 51  1  0
 16 52  1  0
 19 53  1  0
 20 54  1  0
 21 55  1  0
 21 56  1  0
 22 57  1  1
 26 58  1  0
 26 59  1  0
 27 60  1  0
 27 61  1  0
 27 62  1  0
M  CHG  1  25  -1
M  END
>  <UniqueID>  (5) 
5

>  <SMILES>  (5) 
CCCC[C@@H](CC)CN1CCN(Cc2ccc(Cl)cc2)C[C@H]1C(=O)[N-]CC

>  <Energy>  (5) 
68.3082715832352

>  <Genealogy>  (5) 
CCCCC(CC)CN1CCN(Cc2ccc(Cl)cc2)CC1C(=O)[N-]CC (protonated)
CCCC[C@@H](CC)CN1CCN(Cc2ccc(Cl)cc2)C[C@H]1C(=O)[N-]CC (chirality)
CCCC[C@@H](CC)CN1CCN(Cc2ccc(Cl)cc2)C[C@H]1C(=O)[N-]CC (3D coordinates assigned)
CCCC[C@@H](CC)CN1CCN(Cc2ccc(Cl)cc2)C[C@H]1C(=O)[N-]CC (nonaromatic ring conformer: 68.3082715832352 kcal/mol)

>  <smiles>  (5) 
CCCCC(CC)CN1CCN(Cc2ccc(Cl)cc2)CC1C(=O)NCC

>  <score_type>  (5) 
oracle

>  <origin>  (5) 
adg

>  <m_score__min__energy>  (5) 
-9.8599999999999994

>  <m_primary>  (5) 
energy

$$$$
5:0
     RDKit          3D

 57 59  0  0  0  0  0  0  0  0999 V2000
    0.2910   22.6730  -35.7220 C   0  0  0  0  0  0  0  0  0  0  0  0
    0.4730   21.3560  -34.9570 C   0  0  0  0  0  0  0  0  0  0  0  0
   -0.8020   20.8170  -34.4140 N   0  0  0  0  0  0  0  0  0  0  0  0
   -0.9340   19.3430  -34.5720 C   0  0  0  0  0  0  0  0  0  0  0  0
    0.2080   18.6820  -35.3600 C   0  0  0  0  0  0  0  0  0  0  0  0
   -0.9870   21.2210  -32.9940 C   0  0  0  0  0  0  0  0  0  0  0  0
   -2.3470   20.7750  -32.4270 C   0  0  0  0  0  0  0  0  0  0  0  0
   -3.4070   20.9730  -33.4130 N   0  0  0  0  0  0  0  0  0  0  0  0
   -4.7420   20.5280  -33.1380 C   0  0  0  0  0  0  0  0  0  0  0  0
   -5.1400   19.2300  -33.4940 C   0  0  0  0  0  0  0  0  0  0  0  0
   -4.2560   18.3670  -34.1740 C   0  0  0  0  0  0  0  0  0  0  0  0
   -4.6670   17.0960  -34.5690 C   0  0  0  0  0  0  0  0  0  0  0  0
   -5.9650   16.6730  -34.3100 C   0  0  0  0  0  0  0  0  0  0  0  0
   -6.8550   17.5080  -33.6320 C   0  0  0  0  0  0  0  0  0  0  0  0
   -6.4550   18.7920  -33.1810 C   0  0  0  0  0  0  0  0  0  0  0  0
   -7.3090   19.6150  -32.4700 N   0  0  0  0  0  0  0  0  0  0  0  0
   -8.5600   19.0670  -31.8990 C   0  0  0  0  0  0  0  0  0  0  0  0
   -6.9830   20.9450  -32.2740 C   0  0  0  0  0  0  0  0  0  0  0  0
   -7.9280   21.8840  -31.7890 C   0  0  0  0  0  0  0  0  0  0  0  0
   -7.5710   23.2100  -31.5470 C   0  0  0  0  0  0  0  0  0  0  0  0
   -6.2650   23.6500  -31.7940 C   0  0  0  0  0  0  0  0  0  0  0  0
   -5.8560   24.9690  -31.5530 O   0  0  0  0  0  0  0  0  0  0  0  0
   -5.7380   25.5540  -30.2580 C   0  0  0  0  0  0  0  0  0  0  0  0
   -5.1360   24.5440  -29.2890 C   0  0  0  0  0  0  0  0  0  0  0  0
   -3.4150   24.2660  -29.6600 Cl  0  0  0  0  0  0  0  0  0  0  0  0
   -5.3300   22.7510  -32.3100 C   0  0  0  0  0  0  0  0  0  0  0  0
   -5.6770   21.4100  -32.5740 C   0  0  0  0  0  0  0  0  0  0  0  0
    0.1767   23.5002  -35.0060 H   0  0  0  0  0  0  0  0  0  0  0  0
    1.1726   22.8546  -36.3543 H   0  0  0  0  0  0  0  0  0  0  0  0
   -0.6068   22.6087  -36.3543 H   0  0  0  0  0  0  0  0  0  0  0  0
    0.9054   20.6106  -35.6407 H   0  0  0  0  0  0  0  0  0  0  0  0
    1.1334   21.5616  -34.1017 H   0  0  0  0  0  0  0  0  0  0  0  0
   -1.5840   21.2350  -34.9730 H   0  0  0  0  0  0  0  0  0  0  0  0
   -0.9660   18.8914  -33.5695 H   0  0  0  0  0  0  0  0  0  0  0  0
   -1.8537   19.1714  -35.1505 H   0  0  0  0  0  0  0  0  0  0  0  0
    0.9407   18.2579  -34.6576 H   0  0  0  0  0  0  0  0  0  0  0  0
   -0.1996   17.8802  -35.9932 H   0  0  0  0  0  0  0  0  0  0  0  0
    0.7003   19.4348  -35.9932 H   0  0  0  0  0  0  0  0  0  0  0  0
   -0.1871   20.7667  -32.3908 H   0  0  0  0  0  0  0  0  0  0  0  0
   -0.9510   22.3196  -32.9515 H   0  0  0  0  0  0  0  0  0  0  0  0
   -2.2954   19.7088  -32.1613 H   0  0  0  0  0  0  0  0  0  0  0  0
   -2.5746   21.3794  -31.5365 H   0  0  0  0  0  0  0  0  0  0  0  0
   -3.2280   21.4960  -34.3000 H   0  0  0  0  0  0  0  0  0  0  0  0
   -3.2314   18.7009  -34.3948 H   0  0  0  0  0  0  0  0  0  0  0  0
   -3.9637   16.4268  -35.0862 H   0  0  0  0  0  0  0  0  0  0  0  0
   -6.2926   15.6763  -34.6405 H   0  0  0  0  0  0  0  0  0  0  0  0
   -7.8831   17.1646  -33.4445 H   0  0  0  0  0  0  0  0  0  0  0  0
   -8.5034   19.0918  -30.8007 H   0  0  0  0  0  0  0  0  0  0  0  0
   -9.4135   19.6737  -32.2360 H   0  0  0  0  0  0  0  0  0  0  0  0
   -8.6927   18.0283  -32.2360 H   0  0  0  0  0  0  0  0  0  0  0  0
   -8.9622   21.5604  -31.6001 H   0  0  0  0  0  0  0  0  0  0  0  0
   -8.3208   23.9154  -31.1593 H   0  0  0  0  0  0  0  0  0  0  0  0
   -5.0868   26.4387  -30.3148 H   0  0  0  0  0  0  0  0  0  0  0  0
   -6.7353   25.8505  -29.9009 H   0  0  0  0  0  0  0  0  0  0  0  0
   -5.2267   24.9294  -28.2627 H   0  0  0  0  0  0  0  0  0  0  0  0
   -5.6780   23.5919  -29.3877 H   0  0  0  0  0  0  0  0  0  0  0  0
   -4.3051   23.0945  -32.5141 H   0  0  0  0  0  0  0  0  0  0  0  0
  1  2  1  0
  2  3  1  0
  3  4  1  0
  4  5  1  0
  3  6  1  0
  6  7  1  0
  7  8  1  0
  8  9  1  0
  9 10  2  0
 10 11  1  0
 11 12  2  0
 12 13  1  0
 13 14  2  0
 14 15  1  0
 15 16  2  0
 16 17  1  0
 16 18  1  0
 18 19  2  0
 19 20  1  0
 20 21  2  0
 21 22  1  0
 22 23  1  0
 23 24  1  0
 24 25  1  0
 21 26  1  0
 26 27  2  0
 27  9  1  0
 15 10  1  0
 27 18  1  0
  1 28  1  0
  1 29  1  0
  1 30  1  0
  2 31  1  0
  2 32  1  0
  3 33  1  0
  4 34  1  0
  4 35  1  0
  5 36  1  0
  5 37  1  0
  5 38  1  0
  6 39  1  0
  6 40  1  0
  7 41  1  0
  7 42  1  0
  8 43  1  0
 11 44  1  0
 12 45  1  0
 13 46  1  0
 14 47  1  0
 17 48  1  0
 17 49  1  0
 17 50  1  0
 19 51  1  0
 20 52  1  0
 23 53  1  0
 23 54  1  0
 24 55  1  0
 24 56  1  0
 26 57  1  0
M  CHG  2   3   1  16   1
M  END
>  <UniqueID>  (6) 
6

>  <SMILES>  (6) 
CC[NH+](CC)CCNc1c2ccccc2[n+](C)c2ccc(OCCCl)cc12

>  <Energy>  (6) 
82.61741612512017

>  <Genealogy>  (6) 
CC[NH+](CC)CCNc1c2ccccc2[n+](C)c2ccc(OCCCl)cc12 (protonated)
CC[NH+](CC)CCNc1c2ccccc2[n+](C)c2ccc(OCCCl)cc12 (3D coordinates assigned)
CC[NH+](CC)CCNc1c2ccccc2[n+](C)c2ccc(OCCCl)cc12 (optimized conformer: 82.61741612512017 kcal/mol)

>  <smiles>  (6) 
CCN(CC)CCNc1c2ccccc2[n+](C)c2ccc(OCCCl)cc12

>  <score_type>  (6) 
oracle

>  <origin>  (6) 
adg

>  <m_score__min__energy>  (6) 
-7.6299999999999999

>  <m_primary>  (6) 
energy

$$$$
6:0
     RDKit          3D

 34 35  0  0  0  0  0  0  0  0999 V2000
   -4.1830   24.6750  -26.7420 C   0  0  0  0  0  0  0  0  0  0  0  0
   -3.9490   24.1920  -28.1770 C   0  0  0  0  0  0  0  0  0  0  0  0
   -5.2090   23.9750  -28.9110 N   0  0  0  0  0  0  0  0  0  0  0  0
   -5.8140   25.2380  -29.3640 C   0  0  0  0  0  0  0  0  0  0  0  0
   -5.5370   25.4690  -30.8550 C   0  0  0  0  0  0  0  0  0  0  0  0
   -5.3400   24.2250  -31.5290 O   0  0  0  0  0  0  0  0  0  0  0  0
   -6.2960   23.2010  -31.6620 C   0  0  0  0  0  0  0  0  0  0  0  0
   -7.6720   23.4340  -31.4790 C   0  0  0  0  0  0  0  0  0  0  0  0
   -8.5920   22.3960  -31.6180 C   0  0  0  0  0  0  0  0  0  0  0  0
   -8.1600   21.1050  -31.9380 C   0  0  0  0  0  0  0  0  0  0  0  0
   -9.0930   20.0650  -32.0760 C   0  0  0  0  0  0  0  0  0  0  0  0
   -8.6660   18.7750  -32.3950 C   0  0  0  0  0  0  0  0  0  0  0  0
   -7.3080   18.5120  -32.5770 C   0  0  0  0  0  0  0  0  0  0  0  0
   -6.3680   19.5370  -32.4430 C   0  0  0  0  0  0  0  0  0  0  0  0
   -6.7770   20.8470  -32.1220 C   0  0  0  0  0  0  0  0  0  0  0  0
   -5.8490   21.9060  -31.9790 C   0  0  0  0  0  0  0  0  0  0  0  0
   -3.9550   21.6350  -32.2160 Br  0  0  0  0  0  0  0  0  0  0  0  0
   -3.8155   23.9164  -26.0353 H   0  0  0  0  0  0  0  0  0  0  0  0
   -3.6425   25.6193  -26.5802 H   0  0  0  0  0  0  0  0  0  0  0  0
   -5.2590   24.8361  -26.5802 H   0  0  0  0  0  0  0  0  0  0  0  0
   -3.3549   24.9479  -28.7114 H   0  0  0  0  0  0  0  0  0  0  0  0
   -3.4222   23.2278  -28.1239 H   0  0  0  0  0  0  0  0  0  0  0  0
   -4.9920   23.3860  -29.7500 H   0  0  0  0  0  0  0  0  0  0  0  0
   -5.8860   23.4490  -28.3100 H   0  0  0  0  0  0  0  0  0  0  0  0
   -6.9011   25.1963  -29.2011 H   0  0  0  0  0  0  0  0  0  0  0  0
   -5.3731   26.0666  -28.7903 H   0  0  0  0  0  0  0  0  0  0  0  0
   -6.3937   25.9921  -31.3049 H   0  0  0  0  0  0  0  0  0  0  0  0
   -4.6247   26.0752  -30.9562 H   0  0  0  0  0  0  0  0  0  0  0  0
   -8.0245   24.4443  -31.2240 H   0  0  0  0  0  0  0  0  0  0  0  0
   -9.6646   22.5936  -31.4751 H   0  0  0  0  0  0  0  0  0  0  0  0
  -10.1646   20.2676  -31.9322 H   0  0  0  0  0  0  0  0  0  0  0  0
   -9.4015   17.9642  -32.5031 H   0  0  0  0  0  0  0  0  0  0  0  0
   -6.9760   17.4935  -32.8270 H   0  0  0  0  0  0  0  0  0  0  0  0
   -5.2996   19.3197  -32.5893 H   0  0  0  0  0  0  0  0  0  0  0  0
  1  2  1  0
  2  3  1  0
  3  4  1  0
  4  5  1  0
  5  6  1  0
  6  7  1  0
  7  8  2  0
  8  9  1  0
  9 10  2  0
 10 11  1  0
 11 12  2  0
 12 13  1  0
 13 14  2  0
 14 15  1  0
 15 16  2  0
 16 17  1  0
 16  7  1  0
 15 10  1  0
  1 18  1  0
  1 19  1  0
  1 20  1  0
  2 21  1  0
  2 22  1  0
  3 23  1  0
  3 24  1  0
  4 25  1  0
  4 26  1  0
  5 27  1  0
  5 28  1  0
  8 29  1  0
  9 30  1  0
 11 31  1  0
 12 32  1  0
 13 33  1  0
 14 34  1  0
M  CHG  1   3   1
M  END
>  <UniqueID>  (7) 
7

>  <SMILES>  (7) 
CC[NH2+]CCOc1ccc2ccccc2c1Br

>  <Energy>  (7) 
36.19450907219895

>  <Genealogy>  (7) 
CC[NH2+]CCOc1ccc2ccccc2c1Br (protonated)
CC[NH2+]CCOc1ccc2ccccc2c1Br (3D coordinates assigned)
CC[NH2+]CCOc1ccc2ccccc2c1Br (optimized conformer: 36.19450907219895 kcal/mol)

>  <smiles>  (7) 
CCNCCOc1ccc2ccccc2c1Br

>  <score_type>  (7) 
oracle

>  <origin>  (7) 
adg

>  <m_score__min__energy>  (7) 
-7.21

>  <m_primary>  (7) 
energy

$$$$
7:0
     RDKit          3D

 49 52  0  0  0  0  0  0  0  0999 V2000
  -10.4358   18.7542  -32.9785 H   0  0  0  0  0  0  0  0  0  0  0  0
   -9.4990   19.2590  -32.7000 C   0  0  0  0  0  0  0  0  0  0  0  0
   -9.5120   20.6100  -32.3440 C   0  0  0  0  0  0  0  0  0  0  0  0
  -10.4596   21.1686  -32.3453 H   0  0  0  0  0  0  0  0  0  0  0  0
   -8.3230   21.2540  -31.9860 C   0  0  0  0  0  0  0  0  0  0  0  0
   -8.3398   22.3194  -31.7127 H   0  0  0  0  0  0  0  0  0  0  0  0
   -7.1030   20.5470  -31.9730 C   0  0  0  0  0  0  0  0  0  0  0  0
   -5.8270   21.2100  -31.6050 C   0  0  0  0  0  0  0  0  0  0  0  0
   -5.8650   22.4050  -30.9390 N   0  0  0  0  0  0  0  0  0  0  0  0
   -4.7050   23.0190  -30.6050 C   0  0  0  0  0  0  0  0  0  0  0  0
   -4.5280   24.2060  -29.9360 C   0  0  0  0  0  0  0  0  0  0  0  0
   -5.5720   25.0460  -29.4070 C   0  0  0  0  0  0  0  0  0  0  0  0
   -6.4120   25.7220  -28.9870 N   0  0  0  0  0  0  0  0  0  0  0  0
   -3.1290   24.3280  -29.8720 C   0  0  0  0  0  0  0  0  0  0  0  0
   -2.4270   25.2830  -29.3290 N   0  0  0  0  0  0  0  0  0  0  0  0
   -1.3330   25.1600  -28.3670 C   0  0  0  0  0  0  0  0  0  0  0  0
   -0.5712   24.4799  -28.7758 H   0  0  0  0  0  0  0  0  0  0  0  0
   -0.9093   26.1602  -28.1937 H   0  0  0  0  0  0  0  0  0  0  0  0
   -1.8300   24.6050  -27.0240 C   0  0  0  0  0  0  0  0  0  0  0  0
   -1.3073   25.1360  -26.2148 H   0  0  0  0  0  0  0  0  0  0  0  0
   -2.9185   24.7612  -26.9964 H   0  0  0  0  0  0  0  0  0  0  0  0
   -1.5890   23.0900  -26.8470 C   0  0  0  0  0  0  0  0  0  0  0  0
   -0.5738   22.9405  -26.4506 H   0  0  0  0  0  0  0  0  0  0  0  0
   -2.3587   22.7127  -26.1576 H   0  0  0  0  0  0  0  0  0  0  0  0
   -1.7190   22.3250  -28.1240 N   0  0  0  0  0  0  0  0  0  0  0  0
   -1.9600   22.9860  -28.9000 H   0  0  0  0  0  0  0  0  0  0  0  0
   -0.4540   21.6420  -28.5000 C   0  0  0  0  0  0  0  0  0  0  0  0
   -0.4251   21.5298  -29.5939 H   0  0  0  0  0  0  0  0  0  0  0  0
    0.3805   22.2587  -28.1350 H   0  0  0  0  0  0  0  0  0  0  0  0
   -0.3230   20.2450  -27.8550 C   0  0  0  0  0  0  0  0  0  0  0  0
   -0.6219   19.4808  -28.5876 H   0  0  0  0  0  0  0  0  0  0  0  0
    0.7231   20.0964  -27.5490 H   0  0  0  0  0  0  0  0  0  0  0  0
   -1.1460   20.1370  -26.7130 O   0  0  0  0  0  0  0  0  0  0  0  0
   -2.5090   20.1800  -27.0950 C   0  0  0  0  0  0  0  0  0  0  0  0
   -2.7653   19.2312  -27.5890 H   0  0  0  0  0  0  0  0  0  0  0  0
   -3.1029   20.3396  -26.1830 H   0  0  0  0  0  0  0  0  0  0  0  0
   -2.8250   21.3430  -28.0650 C   0  0  0  0  0  0  0  0  0  0  0  0
   -2.9904   20.9320  -29.0718 H   0  0  0  0  0  0  0  0  0  0  0  0
   -3.7230   21.8609  -27.6971 H   0  0  0  0  0  0  0  0  0  0  0  0
   -2.5390   23.2660  -30.4720 N   0  0  0  0  0  0  0  0  0  0  0  0
   -3.5160   22.4880  -30.9080 N   0  0  0  0  0  0  0  0  0  0  0  0
   -3.3980   21.3150  -31.5740 C   0  0  0  0  0  0  0  0  0  0  0  0
   -2.2640   20.8420  -31.8560 O   0  0  0  0  0  0  0  0  0  0  0  0
   -4.5710   20.6420  -31.9450 C   0  0  0  0  0  0  0  0  0  0  0  0
   -4.5188   19.6886  -32.4911 H   0  0  0  0  0  0  0  0  0  0  0  0
   -7.1040   19.1890  -32.3460 C   0  0  0  0  0  0  0  0  0  0  0  0
   -6.1591   18.6260  -32.3574 H   0  0  0  0  0  0  0  0  0  0  0  0
   -8.2960   18.5500  -32.7020 C   0  0  0  0  0  0  0  0  0  0  0  0
   -8.2859   17.4868  -32.9841 H   0  0  0  0  0  0  0  0  0  0  0  0
  1  2  1  0
  2  3  2  0
  3  4  1  0
  3  5  1  0
  5  6  1  0
  5  7  2  0
  7  8  1  0
  8  9  1  0
  9 10  1  0
 10 11  2  0
 11 12  1  0
 12 13  3  0
 11 14  1  0
 14 15  2  0
 15 16  1  0
 16 17  1  0
 16 18  1  0
 16 19  1  0
 19 20  1  0
 19 21  1  0
 19 22  1  0
 22 23  1  0
 22 24  1  0
 22 25  1  0
 25 26  1  0
 25 27  1  0
 27 28  1  0
 27 29  1  0
 27 30  1  0
 30 31  1  0
 30 32  1  0
 30 33  1  0
 33 34  1  0
 34 35  1  0
 34 36  1  0
 34 37  1  0
 37 38  1  0
 37 39  1  0
 14 40  1  0
 40 41  1  0
 41 42  1  0
 42 43  2  0
 42 44  1  0
 44 45  1  0
  7 46  1  0
 46 47  1  0
 46 48  2  0
 48 49  1  0
 48  2  1  0
 44  8  2  0
 41 10  1  0
 37 25  1  0
M  CHG  3   9  -1  25   1  40  -1
M  END
>  <UniqueID>  (8) 
8

>  <SMILES>  (8) 
N#Cc1/c(=N\CCC[NH+]2CCOCC2)[n-]n2c(=O)cc(-c3ccccc3)[n-]c12

>  <Energy>  (8) 
110.5230587089026

>  <Genealogy>  (8) 
N#Cc1c(=NCCC[NH+]2CCOCC2)[n-]n2c(=O)cc(-c3ccccc3)[n-]c12 (protonated)
N#Cc1/c(=N\CCC[NH+]2CCOCC2)[n-]n2c(=O)cc(-c3ccccc3)[n-]c12 (cis-trans isomerization)
N#Cc1/c(=N\CCC[NH+]2CCOCC2)[n-]n2c(=O)cc(-c3ccccc3)[n-]c12 (3D coordinates assigned)
N#Cc1/c(=N\CCC[NH+]2CCOCC2)[n-]n2c(=O)cc(-c3ccccc3)[n-]c12 (nonaromatic ring conformer: 110.5230587089026 kcal/mol)

>  <smiles>  (8) 
N#Cc1c(=NCCCN2CCOCC2)[nH]n2c(=O)cc(-c3ccccc3)[nH]c12

>  <score_type>  (8) 
oracle

>  <origin>  (8) 
adg

>  <m_score__min__energy>  (8) 
-11.09

>  <m_primary>  (8) 
energy

$$$$
8:0
     RDKit          3D

 27 28  0  0  0  0  0  0  0  0999 V2000
   -2.5110   24.3230  -28.6540 C   0  0  0  0  0  0  0  0  0  0  0  0
   -3.1020   25.0150  -29.7470 O   0  0  0  0  0  0  0  0  0  0  0  0
   -4.2560   24.5590  -30.3900 C   0  0  0  0  0  0  0  0  0  0  0  0
   -4.8680   25.2960  -31.2110 O   0  0  0  0  0  0  0  0  0  0  0  0
   -4.7590   23.1760  -30.1140 C   0  0  0  0  0  0  0  0  0  0  0  0
   -4.4530   22.2510  -31.2700 C   0  0  0  0  0  0  0  0  0  0  0  0
   -3.1140   21.8900  -31.5090 C   0  0  0  0  0  0  0  0  0  0  0  0
   -2.7880   20.9890  -32.5220 C   0  0  0  0  0  0  0  0  0  0  0  0
   -3.7910   20.4260  -33.3080 C   0  0  0  0  0  0  0  0  0  0  0  0
   -5.1270   20.7660  -33.0890 C   0  0  0  0  0  0  0  0  0  0  0  0
   -6.0840   20.2170  -33.8780 F   0  0  0  0  0  0  0  0  0  0  0  0
   -5.4750   21.6850  -32.0810 C   0  0  0  0  0  0  0  0  0  0  0  0
   -6.8610   22.0080  -31.8790 N   0  0  0  0  0  0  0  0  0  0  0  0
   -7.7190   21.2060  -31.2640 N   0  0  0  0  0  0  0  0  0  0  0  0
   -8.9090   21.8300  -31.3060 C   0  0  0  0  0  0  0  0  0  0  0  0
   -8.7370   23.0220  -31.9730 C   0  0  0  0  0  0  0  0  0  0  0  0
   -7.4430   23.1100  -32.3300 N   0  0  0  0  0  0  0  0  0  0  0  0
   -2.8762   24.7507  -27.7086 H   0  0  0  0  0  0  0  0  0  0  0  0
   -2.7828   23.2583  -28.7040 H   0  0  0  0  0  0  0  0  0  0  0  0
   -1.4169   24.4249  -28.7040 H   0  0  0  0  0  0  0  0  0  0  0  0
   -4.2730   22.7904  -29.2056 H   0  0  0  0  0  0  0  0  0  0  0  0
   -5.8496   23.2191  -29.9770 H   0  0  0  0  0  0  0  0  0  0  0  0
   -2.3152   22.3237  -30.8894 H   0  0  0  0  0  0  0  0  0  0  0  0
   -1.7360   20.7220  -32.7010 H   0  0  0  0  0  0  0  0  0  0  0  0
   -3.5296   19.7120  -34.1029 H   0  0  0  0  0  0  0  0  0  0  0  0
   -9.8524   21.4549  -30.8827 H   0  0  0  0  0  0  0  0  0  0  0  0
   -9.5181   23.7690  -32.1775 H   0  0  0  0  0  0  0  0  0  0  0  0
  1  2  1  0
  2  3  1  0
  3  4  2  0
  3  5  1  0
  5  6  1  0
  6  7  2  0
  7  8  1  0
  8  9  2  0
  9 10  1  0
 10 11  1  0
 10 12  2  0
 12 13  1  0
 13 14  1  0
 14 15  2  0
 15 16  1  0
 16 17  2  0
 12  6  1  0
 17 13  1  0
  1 18  1  0
  1 19  1  0
  1 20  1  0
  5 21  1  0
  5 22  1  0
  7 23  1  0
  8 24  1  0
  9 25  1  0
 15 26  1  0
 16 27  1  0
M  END
>  <UniqueID>  (9) 
9

>  <SMILES>  (9) 
COC(=O)Cc1cccc(F)c1-n1nccn1

>  <Energy>  (9) 
63.48961257766878

>  <Genealogy>  (9) 
COC(=O)Cc1cccc(F)c1-n1nccn1 (3D coordinates assigned)
COC(=O)Cc1cccc(F)c1-n1nccn1 (optimized conformer: 63.48961257766878 kcal/mol)

>  <smiles>  (9) 
COC(=O)Cc1cccc(F)c1-n1nccn1

>  <score_type>  (9) 
oracle

>  <origin>  (9) 
adg

>  <m_score__min__energy>  (9) 
-6.1200000000000001

>  <m_primary>  (9) 
energy

$$$$
9:0
     RDKit          3D

 50 50  0  0  0  0  0  0  0  0999 V2000
   -4.3420   24.1190  -28.7750 C   0  0  0  0  0  0  0  0  0  0  0  0
   -5.3950   24.8940  -29.0490 C   0  0  0  0  0  0  0  0  0  0  0  0
   -5.8580   25.1350  -30.4580 C   0  0  0  0  0  0  0  0  0  0  0  0
   -5.0090   24.4640  -31.3680 O   0  0  0  0  0  0  0  0  0  0  0  0
   -5.7690   23.8090  -32.3630 C   0  0  0  0  0  0  0  0  0  0  0  0
   -7.1750   23.4580  -31.8280 C   0  0  0  0  0  0  0  0  0  0  0  0
   -7.3150   22.1330  -31.1360 N   0  0  0  0  0  0  0  0  0  0  0  0
   -7.9860   22.2960  -29.8210 C   0  0  0  0  0  0  0  0  0  0  0  0
   -5.9920   21.4940  -30.9150 C   0  0  0  0  0  0  0  0  0  0  0  0
   -8.1820   21.2280  -31.9620 C   0  0  0  0  0  0  0  0  0  0  0  0
   -7.5280   19.9170  -32.3660 C   0  0  0  0  0  0  0  0  0  0  0  0
   -6.7210   19.8480  -33.5080 C   0  0  0  0  0  0  0  0  0  0  0  0
   -6.1210   18.6440  -33.8830 C   0  0  0  0  0  0  0  0  0  0  0  0
   -6.3180   17.4640  -33.1320 C   0  0  0  0  0  0  0  0  0  0  0  0
   -5.6320   16.1550  -33.5770 C   0  0  0  0  0  0  0  0  0  0  0  0
   -4.5630   16.4700  -34.6450 C   0  0  0  0  0  0  0  0  0  0  0  0
   -6.6880   15.1990  -34.1730 C   0  0  0  0  0  0  0  0  0  0  0  0
   -4.9300   15.4130  -32.4140 C   0  0  0  0  0  0  0  0  0  0  0  0
   -7.1510   17.5430  -31.9920 C   0  0  0  0  0  0  0  0  0  0  0  0
   -7.7490   18.7500  -31.6210 C   0  0  0  0  0  0  0  0  0  0  0  0
   -4.0300   23.9638  -27.7317 H   0  0  0  0  0  0  0  0  0  0  0  0
   -3.7870   23.6360  -29.5927 H   0  0  0  0  0  0  0  0  0  0  0  0
   -5.9387   25.3694  -28.2193 H   0  0  0  0  0  0  0  0  0  0  0  0
   -6.8852   24.7588  -30.5732 H   0  0  0  0  0  0  0  0  0  0  0  0
   -5.8301   26.2145  -30.6673 H   0  0  0  0  0  0  0  0  0  0  0  0
   -5.8689   24.4707  -33.2360 H   0  0  0  0  0  0  0  0  0  0  0  0
   -5.2550   22.8792  -32.6480 H   0  0  0  0  0  0  0  0  0  0  0  0
   -7.4659   24.2414  -31.1127 H   0  0  0  0  0  0  0  0  0  0  0  0
   -7.8179   23.3918  -32.7181 H   0  0  0  0  0  0  0  0  0  0  0  0
   -7.2594   22.1195  -29.0142 H   0  0  0  0  0  0  0  0  0  0  0  0
   -8.3858   23.3174  -29.7374 H   0  0  0  0  0  0  0  0  0  0  0  0
   -8.8098   21.5718  -29.7374 H   0  0  0  0  0  0  0  0  0  0  0  0
   -5.8044   21.4034  -29.8349 H   0  0  0  0  0  0  0  0  0  0  0  0
   -5.9867   20.4940  -31.3732 H   0  0  0  0  0  0  0  0  0  0  0  0
   -5.2054   22.1115  -31.3732 H   0  0  0  0  0  0  0  0  0  0  0  0
   -9.0861   20.9950  -31.3803 H   0  0  0  0  0  0  0  0  0  0  0  0
   -8.3956   21.7693  -32.8955 H   0  0  0  0  0  0  0  0  0  0  0  0
   -6.5581   20.7505  -34.1155 H   0  0  0  0  0  0  0  0  0  0  0  0
   -5.4837   18.6140  -34.7791 H   0  0  0  0  0  0  0  0  0  0  0  0
   -3.6208   16.7476  -34.1499 H   0  0  0  0  0  0  0  0  0  0  0  0
   -4.3994   15.5819  -35.2731 H   0  0  0  0  0  0  0  0  0  0  0  0
   -4.9071   17.3049  -35.2731 H   0  0  0  0  0  0  0  0  0  0  0  0
   -7.2355   14.7033  -33.3578 H   0  0  0  0  0  0  0  0  0  0  0  0
   -7.3932   15.7721  -34.7929 H   0  0  0  0  0  0  0  0  0  0  0  0
   -6.1876   14.4405  -34.7929 H   0  0  0  0  0  0  0  0  0  0  0  0
   -5.2992   15.8033  -31.4541 H   0  0  0  0  0  0  0  0  0  0  0  0
   -5.1484   14.3370  -32.4807 H   0  0  0  0  0  0  0  0  0  0  0  0
   -3.8435   15.5715  -32.4807 H   0  0  0  0  0  0  0  0  0  0  0  0
   -7.3308   16.6410  -31.3885 H   0  0  0  0  0  0  0  0  0  0  0  0
   -8.4001   18.7851  -30.7351 H   0  0  0  0  0  0  0  0  0  0  0  0
  1  2  2  0
  2  3  1  0
  3  4  1  0
  4  5  1  0
  5  6  1  0
  6  7  1  0
  7  8  1  0
  7  9  1  0
  7 10  1  0
 10 11  1  0
 11 12  2  0
 12 13  1  0
 13 14  2  0
 14 15  1  0
 15 16  1  0
 15 17  1  0
 15 18  1  0
 14 19  1  0
 19 20  2  0
 20 11  1  0
  1 21  1  0
  1 22  1  0
  2 23  1  0
  3 24  1  0
  3 25  1  0
  5 26  1  0
  5 27  1  0
  6 28  1  0
  6 29  1  0
  8 30  1  0
  8 31  1  0
  8 32  1  0
  9 33  1  0
  9 34  1  0
  9 35  1  0
 10 36  1  0
 10 37  1  0
 12 38  1  0
 13 39  1  0
 16 40  1  0
 16 41  1  0
 16 42  1  0
 17 43  1  0
 17 44  1  0
 17 45  1  0
 18 46  1  0
 18 47  1  0
 18 48  1  0
 19 49  1  0
 20 50  1  0
M  CHG  1   7   1
M  END
>  <UniqueID>  (10) 
10

>  <SMILES>  (10) 
C=CCOCC[N+](C)(C)Cc1ccc(C(C)(C)C)cc1

>  <Energy>  (10) 
58.229742086968564

>  <Genealogy>  (10) 
C=CCOCC[N+](C)(C)Cc1ccc(C(C)(C)C)cc1 (3D coordinates assigned)
C=CCOCC[N+](C)(C)Cc1ccc(C(C)(C)C)cc1 (optimized conformer: 58.229742086968564 kcal/mol)

>  <smiles>  (10) 
C=CCOCC[N+](C)(C)Cc1ccc(C(C)(C)C)cc1

>  <score_type>  (10) 
oracle

>  <origin>  (10) 
adg

>  <m_score__min__energy>  (10) 
-6.4199999999999999

>  <m_primary>  (10) 
energy

$$$$
10:0
     RDKit          3D

 53 55  0  0  0  0  0  0  0  0999 V2000
   -3.9790   16.0930  -35.3440 C   0  0  0  0  0  0  0  0  0  0  0  0
   -4.3330   17.3260  -34.5650 C   0  0  0  0  0  0  0  0  0  0  0  0
   -5.6660   17.5860  -34.2340 C   0  0  0  0  0  0  0  0  0  0  0  0
   -6.0230   18.7520  -33.5410 C   0  0  0  0  0  0  0  0  0  0  0  0
   -7.4110   19.0110  -33.2530 N   0  0  0  0  0  0  0  0  0  0  0  0
   -8.1190   18.4110  -32.1220 C   0  0  0  0  0  0  0  0  0  0  0  0
   -8.7090   19.5110  -31.2150 C   0  0  0  0  0  0  0  0  0  0  0  0
   -8.4090   20.8920  -31.6550 N   0  0  0  0  0  0  0  0  0  0  0  0
   -9.5440   21.5380  -32.3340 C   0  0  0  0  0  0  0  0  0  0  0  0
   -7.8860   21.7380  -30.5710 C   0  0  0  0  0  0  0  0  0  0  0  0
   -5.0180   19.6800  -33.1690 C   0  0  0  0  0  0  0  0  0  0  0  0
   -5.3250   20.7950  -32.4370 N   0  0  0  0  0  0  0  0  0  0  0  0
   -4.3820   21.7080  -32.0730 C   0  0  0  0  0  0  0  0  0  0  0  0
   -4.7560   22.8780  -31.3220 N   0  0  0  0  0  0  0  0  0  0  0  0
   -5.6990   23.8420  -31.9020 C   0  0  0  0  0  0  0  0  0  0  0  0
   -5.7320   25.1230  -31.0680 C   0  0  0  0  0  0  0  0  0  0  0  0
   -4.4280   25.4230  -30.6180 O   0  0  0  0  0  0  0  0  0  0  0  0
   -4.0520   24.5250  -29.5880 C   0  0  0  0  0  0  0  0  0  0  0  0
   -4.3130   23.0380  -29.9300 C   0  0  0  0  0  0  0  0  0  0  0  0
   -3.0500   21.5180  -32.4490 C   0  0  0  0  0  0  0  0  0  0  0  0
   -2.6760   20.3820  -33.1740 C   0  0  0  0  0  0  0  0  0  0  0  0
   -1.2240   20.2030  -33.5460 C   0  0  0  0  0  0  0  0  0  0  0  0
   -3.6660   19.4360  -33.5350 C   0  0  0  0  0  0  0  0  0  0  0  0
   -3.3430   18.2580  -34.2380 C   0  0  0  0  0  0  0  0  0  0  0  0
   -3.7440   15.2744  -34.6479 H   0  0  0  0  0  0  0  0  0  0  0  0
   -4.8301   15.8026  -35.9775 H   0  0  0  0  0  0  0  0  0  0  0  0
   -3.1035   16.2983  -35.9775 H   0  0  0  0  0  0  0  0  0  0  0  0
   -6.4462   16.8657  -34.5212 H   0  0  0  0  0  0  0  0  0  0  0  0
   -7.9420   19.6690  -33.8660 H   0  0  0  0  0  0  0  0  0  0  0  0
   -8.9341   17.7762  -32.4996 H   0  0  0  0  0  0  0  0  0  0  0  0
   -7.4107   17.8063  -31.5366 H   0  0  0  0  0  0  0  0  0  0  0  0
   -9.8018   19.3874  -31.1906 H   0  0  0  0  0  0  0  0  0  0  0  0
   -8.2414   19.3876  -30.2270 H   0  0  0  0  0  0  0  0  0  0  0  0
  -10.2425   21.9356  -31.5830 H   0  0  0  0  0  0  0  0  0  0  0  0
   -9.1746   22.3612  -32.9632 H   0  0  0  0  0  0  0  0  0  0  0  0
  -10.0631   20.8000  -32.9632 H   0  0  0  0  0  0  0  0  0  0  0  0
   -8.1575   21.2989  -29.5997 H   0  0  0  0  0  0  0  0  0  0  0  0
   -6.7908   21.8016  -30.6514 H   0  0  0  0  0  0  0  0  0  0  0  0
   -8.3187   22.7461  -30.6514 H   0  0  0  0  0  0  0  0  0  0  0  0
   -6.3010   20.9510  -32.1020 H   0  0  0  0  0  0  0  0  0  0  0  0
   -5.3839   24.0852  -32.9275 H   0  0  0  0  0  0  0  0  0  0  0  0
   -6.7046   23.3962  -31.9112 H   0  0  0  0  0  0  0  0  0  0  0  0
   -6.1075   25.9529  -31.6847 H   0  0  0  0  0  0  0  0  0  0  0  0
   -6.3959   24.9811  -30.2025 H   0  0  0  0  0  0  0  0  0  0  0  0
   -2.9771   24.6524  -29.3920 H   0  0  0  0  0  0  0  0  0  0  0  0
   -4.6710   24.7657  -28.7111 H   0  0  0  0  0  0  0  0  0  0  0  0
   -3.3837   22.4683  -29.7824 H   0  0  0  0  0  0  0  0  0  0  0  0
   -5.1086   22.6650  -29.2683 H   0  0  0  0  0  0  0  0  0  0  0  0
   -2.2916   22.2656  -32.1735 H   0  0  0  0  0  0  0  0  0  0  0  0
   -0.6177   20.1283  -32.6313 H   0  0  0  0  0  0  0  0  0  0  0  0
   -1.1080   19.2838  -34.1389 H   0  0  0  0  0  0  0  0  0  0  0  0
   -0.8882   21.0666  -34.1389 H   0  0  0  0  0  0  0  0  0  0  0  0
   -2.3002   18.0695  -34.5329 H   0  0  0  0  0  0  0  0  0  0  0  0
  1  2  1  0
  2  3  2  0
  3  4  1  0
  4  5  1  0
  5  6  1  0
  6  7  1  0
  7  8  1  0
  8  9  1  0
  8 10  1  0
  4 11  2  0
 11 12  1  0
 12 13  2  0
 13 14  1  0
 14 15  1  0
 15 16  1  0
 16 17  1  0
 17 18  1  0
 18 19  1  0
 13 20  1  0
 20 21  2  0
 21 22  1  0
 21 23  1  0
 23 24  2  0
 24  2  1  0
 23 11  1  0
 19 14  1  0
  1 25  1  0
  1 26  1  0
  1 27  1  0
  3 28  1  0
  5 29  1  0
  6 30  1  0
  6 31  1  0
  7 32  1  0
  7 33  1  0
  9 34  1  0
  9 35  1  0
  9 36  1  0
 10 37  1  0
 10 38  1  0
 10 39  1  0
 12 40  1  0
 15 41  1  0
 15 42  1  0
 16 43  1  0
 16 44  1  0
 18 45  1  0
 18 46  1  0
 19 47  1  0
 19 48  1  0
 20 49  1  0
 22 50  1  0
 22 51  1  0
 22 52  1  0
 24 53  1  0
M  CHG  1  12   1
M  END
>  <UniqueID>  (11) 
11

>  <SMILES>  (11) 
Cc1cc(NCCN(C)C)c2[nH+]c(N3CCOCC3)cc(C)c2c1

>  <Energy>  (11) 
72.60197849511688

>  <Genealogy>  (11) 
Cc1cc(NCCN(C)C)c2[nH+]c(N3CCOCC3)cc(C)c2c1 (protonated)
Cc1cc(NCCN(C)C)c2[nH+]c(N3CCOCC3)cc(C)c2c1 (3D coordinates assigned)
Cc1cc(NCCN(C)C)c2[nH+]c(N3CCOCC3)cc(C)c2c1 (nonaromatic ring conformer: 72.60197849511688 kcal/mol)

>  <smiles>  (11) 
Cc1cc(NCCN(C)C)c2nc(N3CCOCC3)cc(C)c2c1

>  <score_type>  (11) 
oracle

>  <origin>  (11) 
adg

>  <m_score__min__energy>  (11) 
-7.5599999999999996

>  <m_primary>  (11) 
energy

$$$$
11:0
     RDKit          3D

 48 48  0  0  0  0  0  0  0  0999 V2000
   -2.5300   22.3340  -31.0640 C   0  0  0  0  0  0  0  0  0  0  0  0
   -3.3100   21.4410  -31.6790 C   0  0  0  0  0  0  0  0  0  0  0  0
   -4.2280   21.8360  -32.8010 C   0  0  0  0  0  0  0  0  0  0  0  0
   -5.6580   21.9040  -32.3250 C   0  0  0  0  0  0  0  0  0  0  0  0
   -6.5040   20.7970  -32.5030 C   0  0  0  0  0  0  0  0  0  0  0  0
   -7.8400   20.8530  -32.0990 C   0  0  0  0  0  0  0  0  0  0  0  0
   -8.9790   19.3410  -32.3490 Br  0  0  0  0  0  0  0  0  0  0  0  0
   -8.3440   22.0170  -31.5180 C   0  0  0  0  0  0  0  0  0  0  0  0
   -7.5180   23.1290  -31.3440 C   0  0  0  0  0  0  0  0  0  0  0  0
   -6.1690   23.0900  -31.7540 C   0  0  0  0  0  0  0  0  0  0  0  0
   -5.3120   24.1980  -31.6150 O   0  0  0  0  0  0  0  0  0  0  0  0
   -5.5450   25.3260  -30.7720 C   0  0  0  0  0  0  0  0  0  0  0  0
   -5.4360   24.9310  -29.3010 C   0  0  0  0  0  0  0  0  0  0  0  0
   -4.0820   24.6740  -28.9920 O   0  0  0  0  0  0  0  0  0  0  0  0
   -3.9650   23.5590  -28.1250 C   0  0  0  0  0  0  0  0  0  0  0  0
   -2.8130   23.7860  -27.1300 C   0  0  0  0  0  0  0  0  0  0  0  0
   -2.4120   25.2170  -27.0260 N   0  0  0  0  0  0  0  0  0  0  0  0
   -1.0930   25.4380  -27.6810 C   0  0  0  0  0  0  0  0  0  0  0  0
   -0.8770   24.5010  -28.8750 C   0  0  0  0  0  0  0  0  0  0  0  0
   -2.3550   25.6350  -25.5980 C   0  0  0  0  0  0  0  0  0  0  0  0
   -1.2910   26.7130  -25.3530 C   0  0  0  0  0  0  0  0  0  0  0  0
   -1.8681   22.0148  -30.2455 H   0  0  0  0  0  0  0  0  0  0  0  0
   -2.5496   23.3886  -31.3760 H   0  0  0  0  0  0  0  0  0  0  0  0
   -3.2795   20.3899  -31.3559 H   0  0  0  0  0  0  0  0  0  0  0  0
   -3.9275   22.8231  -33.1822 H   0  0  0  0  0  0  0  0  0  0  0  0
   -4.1571   21.0802  -33.5970 H   0  0  0  0  0  0  0  0  0  0  0  0
   -6.1114   19.8787  -32.9642 H   0  0  0  0  0  0  0  0  0  0  0  0
   -9.3950   22.0587  -31.1961 H   0  0  0  0  0  0  0  0  0  0  0  0
   -7.9223   24.0426  -30.8836 H   0  0  0  0  0  0  0  0  0  0  0  0
   -4.7986   26.1030  -30.9937 H   0  0  0  0  0  0  0  0  0  0  0  0
   -6.5594   25.7066  -30.9622 H   0  0  0  0  0  0  0  0  0  0  0  0
   -5.8087   25.7516  -28.6704 H   0  0  0  0  0  0  0  0  0  0  0  0
   -6.0372   24.0292  -29.1133 H   0  0  0  0  0  0  0  0  0  0  0  0
   -4.9057   23.4286  -27.5699 H   0  0  0  0  0  0  0  0  0  0  0  0
   -3.7560   22.6582  -28.7207 H   0  0  0  0  0  0  0  0  0  0  0  0
   -3.1330   23.4378  -26.1368 H   0  0  0  0  0  0  0  0  0  0  0  0
   -1.9420   23.2245  -27.4989 H   0  0  0  0  0  0  0  0  0  0  0  0
   -3.1280   25.8070  -27.5090 H   0  0  0  0  0  0  0  0  0  0  0  0
   -1.0421   26.4788  -28.0333 H   0  0  0  0  0  0  0  0  0  0  0  0
   -0.3077   25.2282  -26.9398 H   0  0  0  0  0  0  0  0  0  0  0  0
   -0.6439   23.4898  -28.5101 H   0  0  0  0  0  0  0  0  0  0  0  0
   -1.7913   24.4687  -29.4858 H   0  0  0  0  0  0  0  0  0  0  0  0
   -0.0409   24.8722  -29.4858 H   0  0  0  0  0  0  0  0  0  0  0  0
   -3.3376   26.0339  -25.3059 H   0  0  0  0  0  0  0  0  0  0  0  0
   -2.0873   24.7529  -24.9978 H   0  0  0  0  0  0  0  0  0  0  0  0
   -1.1531   26.8528  -24.2707 H   0  0  0  0  0  0  0  0  0  0  0  0
   -0.3393   26.3986  -25.8063 H   0  0  0  0  0  0  0  0  0  0  0  0
   -1.6178   27.6605  -25.8063 H   0  0  0  0  0  0  0  0  0  0  0  0
  1  2  2  0
  2  3  1  0
  3  4  1  0
  4  5  2  0
  5  6  1  0
  6  7  1  0
  6  8  2  0
  8  9  1  0
  9 10  2  0
 10 11  1  0
 11 12  1  0
 12 13  1  0
 13 14  1  0
 14 15  1  0
 15 16  1  0
 16 17  1  0
 17 18  1  0
 18 19  1  0
 17 20  1  0
 20 21  1  0
 10  4  1  0
  1 22  1  0
  1 23  1  0
  2 24  1  0
  3 25  1  0
  3 26  1  0
  5 27  1  0
  8 28  1  0
  9 29  1  0
 12 30  1  0
 12 31  1  0
 13 32  1  0
 13 33  1  0
 15 34  1  0
 15 35  1  0
 16 36  1  0
 16 37  1  0
 17 38  1  0
 18 39  1  0
 18 40  1  0
 19 41  1  0
 19 42  1  0
 19 43  1  0
 20 44  1  0
 20 45  1  0
 21 46  1  0
 21 47  1  0
 21 48  1  0
M  CHG  1  17   1
M  END
>  <UniqueID>  (12) 
12

>  <SMILES>  (12) 
C=CCc1cc(Br)ccc1OCCOCC[NH+](CC)CC

>  <Energy>  (12) 
41.51938094146978

>  <Genealogy>  (12) 
C=CCc1cc(Br)ccc1OCCOCC[NH+](CC)CC (protonated)
C=CCc1cc(Br)ccc1OCCOCC[NH+](CC)CC (3D coordinates assigned)
C=CCc1cc(Br)ccc1OCCOCC[NH+](CC)CC (optimized conformer: 41.51938094146978 kcal/mol)

>  <smiles>  (12) 
C=CCc1cc(Br)ccc1OCCOCCN(CC)CC

>  <score_type>  (12) 
oracle

>  <origin>  (12) 
adg

>  <m_score__min__energy>  (12) 
-5.8499999999999996

>  <m_primary>  (12) 
energy

$$$$
12:0
     RDKit          3D

 50 51  0  0  0  0  0  0  0  0999 V2000
   -3.2700   23.0220  -30.2360 C   0  0  0  0  0  0  0  0  0  0  0  0
   -3.5400   24.4530  -29.7840 C   0  0  0  0  0  0  0  0  0  0  0  0
   -4.2690   25.1830  -30.8280 N   0  0  0  0  0  0  0  0  0  0  0  0
   -5.4370   25.8610  -30.2520 C   0  0  0  0  0  0  0  0  0  0  0  0
   -6.4670   24.8340  -29.7690 C   0  0  0  0  0  0  0  0  0  0  0  0
   -6.3490   23.6200  -30.4900 O   0  0  0  0  0  0  0  0  0  0  0  0
   -7.6090   23.1630  -30.9450 C   0  0  0  0  0  0  0  0  0  0  0  0
   -7.4700   22.5530  -32.3550 C   0  0  0  0  0  0  0  0  0  0  0  0
   -7.3190   21.0820  -32.3770 N   0  0  0  0  0  0  0  0  0  0  0  0
   -8.5270   20.3470  -31.9730 C   0  0  0  0  0  0  0  0  0  0  0  0
   -8.4020   18.8660  -32.3870 C   0  0  0  0  0  0  0  0  0  0  0  0
   -6.9980   18.3880  -32.4570 N   0  0  0  0  0  0  0  0  0  0  0  0
   -6.4520   18.4370  -33.8330 C   0  0  0  0  0  0  0  0  0  0  0  0
   -4.9680   18.1760  -33.8370 C   0  0  0  0  0  0  0  0  0  0  0  0
   -4.4720   16.8710  -33.9780 C   0  0  0  0  0  0  0  0  0  0  0  0
   -3.0940   16.6410  -34.0030 C   0  0  0  0  0  0  0  0  0  0  0  0
   -2.1980   17.7090  -33.8880 C   0  0  0  0  0  0  0  0  0  0  0  0
   -0.4710   17.3780  -33.9230 Cl  0  0  0  0  0  0  0  0  0  0  0  0
   -2.6860   19.0180  -33.7520 C   0  0  0  0  0  0  0  0  0  0  0  0
   -1.5940   20.3890  -33.6110 Cl  0  0  0  0  0  0  0  0  0  0  0  0
   -4.0670   19.2480  -33.7280 C   0  0  0  0  0  0  0  0  0  0  0  0
   -6.1360   19.0750  -31.4680 C   0  0  0  0  0  0  0  0  0  0  0  0
   -6.1150   20.6060  -31.6660 C   0  0  0  0  0  0  0  0  0  0  0  0
   -3.1481   22.3758  -29.3542 H   0  0  0  0  0  0  0  0  0  0  0  0
   -4.1161   22.6624  -30.8399 H   0  0  0  0  0  0  0  0  0  0  0  0
   -2.3510   22.9955  -30.8399 H   0  0  0  0  0  0  0  0  0  0  0  0
   -4.1423   24.4363  -28.8637 H   0  0  0  0  0  0  0  0  0  0  0  0
   -2.5811   24.9576  -29.5948 H   0  0  0  0  0  0  0  0  0  0  0  0
   -4.6170   24.4780  -31.5210 H   0  0  0  0  0  0  0  0  0  0  0  0
   -5.1143   26.4785  -29.4008 H   0  0  0  0  0  0  0  0  0  0  0  0
   -5.8991   26.4935  -31.0243 H   0  0  0  0  0  0  0  0  0  0  0  0
   -6.3026   24.6349  -28.6997 H   0  0  0  0  0  0  0  0  0  0  0  0
   -7.4746   25.2434  -29.9339 H   0  0  0  0  0  0  0  0  0  0  0  0
   -7.9909   22.3980  -30.2529 H   0  0  0  0  0  0  0  0  0  0  0  0
   -8.3082   24.0112  -30.9853 H   0  0  0  0  0  0  0  0  0  0  0  0
   -8.3693   22.8143  -32.9321 H   0  0  0  0  0  0  0  0  0  0  0  0
   -6.5462   22.9678  -32.7846 H   0  0  0  0  0  0  0  0  0  0  0  0
   -8.6458   20.4120  -30.8814 H   0  0  0  0  0  0  0  0  0  0  0  0
   -9.4036   20.7895  -32.4688 H   0  0  0  0  0  0  0  0  0  0  0  0
   -8.9428   18.2519  -31.6518 H   0  0  0  0  0  0  0  0  0  0  0  0
   -8.8259   18.7754  -33.3980 H   0  0  0  0  0  0  0  0  0  0  0  0
   -6.9529   17.6730  -34.4457 H   0  0  0  0  0  0  0  0  0  0  0  0
   -6.6314   19.4412  -34.2447 H   0  0  0  0  0  0  0  0  0  0  0  0
   -5.1704   16.0261  -34.0692 H   0  0  0  0  0  0  0  0  0  0  0  0
   -2.7120   15.6154  -34.1136 H   0  0  0  0  0  0  0  0  0  0  0  0
   -4.4486   20.2744  -33.6232 H   0  0  0  0  0  0  0  0  0  0  0  0
   -6.5127   18.8548  -30.4582 H   0  0  0  0  0  0  0  0  0  0  0  0
   -5.1090   18.7057  -31.6054 H   0  0  0  0  0  0  0  0  0  0  0  0
   -6.0676   21.0922  -30.6804 H   0  0  0  0  0  0  0  0  0  0  0  0
   -5.2346   20.8608  -32.2743 H   0  0  0  0  0  0  0  0  0  0  0  0
  1  2  1  0
  2  3  1  0
  3  4  1  0
  4  5  1  0
  5  6  1  0
  6  7  1  0
  7  8  1  0
  8  9  1  0
  9 10  1  0
 10 11  1  0
 11 12  1  0
 12 13  1  0
 13 14  1  0
 14 15  2  0
 15 16  1  0
 16 17  2  0
 17 18  1  0
 17 19  1  0
 19 20  1  0
 19 21  2  0
 12 22  1  0
 22 23  1  0
 23  9  1  0
 21 14  1  0
  1 24  1  0
  1 25  1  0
  1 26  1  0
  2 27  1  0
  2 28  1  0
  3 29  1  0
  4 30  1  0
  4 31  1  0
  5 32  1  0
  5 33  1  0
  7 34  1  0
  7 35  1  0
  8 36  1  0
  8 37  1  0
 10 38  1  0
 10 39  1  0
 11 40  1  0
 11 41  1  0
 13 42  1  0
 13 43  1  0
 15 44  1  0
 16 45  1  0
 21 46  1  0
 22 47  1  0
 22 48  1  0
 23 49  1  0
 23 50  1  0
M  END
>  <UniqueID>  (13) 
13

>  <SMILES>  (13) 
CCNCCOCCN1CCN(Cc2ccc(Cl)c(Cl)c2)CC1

>  <Energy>  (13) 
60.01355279785017

>  <Genealogy>  (13) 
CCNCCOCCN1CCN(Cc2ccc(Cl)c(Cl)c2)CC1 (3D coordinates assigned)
CCNCCOCCN1CCN(Cc2ccc(Cl)c(Cl)c2)CC1 (nonaromatic ring conformer: 60.01355279785017 kcal/mol)

>  <smiles>  (13) 
CCNCCOCCN1CCN(Cc2ccc(Cl)c(Cl)c2)CC1

>  <score_type>  (13) 
oracle

>  <origin>  (13) 
adg

>  <m_score__min__energy>  (13) 
-7.5300000000000002

>  <m_primary>  (13) 
energy

$$$$
13:0
     RDKit          3D

 50 53  0  0  0  0  0  0  0  0999 V2000
   -0.8200   22.8460  -29.1630 C   0  0  0  0  0  0  0  0  0  0  0  0
   -1.8320   22.2250  -30.0890 C   0  0  0  0  0  0  0  0  0  0  0  0
   -1.5710   20.9550  -30.6270 C   0  0  0  0  0  0  0  0  0  0  0  0
   -2.4850   20.3410  -31.4840 C   0  0  0  0  0  0  0  0  0  0  0  0
   -3.6820   20.9850  -31.8270 C   0  0  0  0  0  0  0  0  0  0  0  0
   -4.6600   20.3240  -32.7220 C   0  0  0  0  0  0  0  0  0  0  0  0
   -4.3440   20.0620  -33.9150 O   0  0  0  0  0  0  0  0  0  0  0  0
   -5.9700   19.9700  -32.2530 N   0  0  0  0  0  0  0  0  0  0  0  0
   -6.2190   18.5780  -31.8550 C   0  0  0  0  0  0  0  0  0  0  0  0
   -7.6260   18.1510  -32.2680 C   0  0  0  0  0  0  0  0  0  0  0  0
   -8.6670   19.0780  -31.6380 C   0  0  0  0  0  0  0  0  0  0  0  0
   -8.3580   20.5300  -31.9010 C   0  0  0  0  0  0  0  0  0  0  0  0
   -9.3860   21.4800  -31.8000 C   0  0  0  0  0  0  0  0  0  0  0  0
   -9.1130   22.8370  -31.9760 C   0  0  0  0  0  0  0  0  0  0  0  0
   -7.8100   23.2600  -32.2380 C   0  0  0  0  0  0  0  0  0  0  0  0
   -6.7740   22.3270  -32.3280 C   0  0  0  0  0  0  0  0  0  0  0  0
   -7.0320   20.9500  -32.1620 C   0  0  0  0  0  0  0  0  0  0  0  0
   -3.9520   22.2540  -31.2900 C   0  0  0  0  0  0  0  0  0  0  0  0
   -3.0390   22.8860  -30.4290 C   0  0  0  0  0  0  0  0  0  0  0  0
   -3.4300   24.4940  -29.7950 S   0  0  0  0  0  0  0  0  0  0  0  0
   -4.1250   25.3090  -30.8490 O   0  0  0  0  0  0  0  0  0  0  0  0
   -4.3350   24.3490  -28.6030 O   0  0  0  0  0  0  0  0  0  0  0  0
   -1.9630   25.2970  -29.3390 N   0  0  0  0  0  0  0  0  0  0  0  0
   -1.6170   25.6960  -28.0060 C   0  0  0  0  0  0  0  0  0  0  0  0
   -0.7430   26.7780  -27.8360 C   0  0  0  0  0  0  0  0  0  0  0  0
   -0.3770   27.1980  -26.5530 C   0  0  0  0  0  0  0  0  0  0  0  0
   -0.8840   26.5400  -25.4300 C   0  0  0  0  0  0  0  0  0  0  0  0
   -0.5250   26.9450  -24.1860 F   0  0  0  0  0  0  0  0  0  0  0  0
   -1.7610   25.4630  -25.5900 C   0  0  0  0  0  0  0  0  0  0  0  0
   -2.1280   25.0390  -26.8710 C   0  0  0  0  0  0  0  0  0  0  0  0
   -1.1172   22.6636  -28.1197 H   0  0  0  0  0  0  0  0  0  0  0  0
    0.1680   22.3985  -29.3464 H   0  0  0  0  0  0  0  0  0  0  0  0
   -0.7715   23.9295  -29.3464 H   0  0  0  0  0  0  0  0  0  0  0  0
   -0.6349   20.4377  -30.3699 H   0  0  0  0  0  0  0  0  0  0  0  0
   -2.2647   19.3441  -31.8936 H   0  0  0  0  0  0  0  0  0  0  0  0
   -5.4829   17.9236  -32.3448 H   0  0  0  0  0  0  0  0  0  0  0  0
   -6.1275   18.4971  -30.7618 H   0  0  0  0  0  0  0  0  0  0  0  0
   -7.7130   18.1986  -33.3635 H   0  0  0  0  0  0  0  0  0  0  0  0
   -7.8049   17.1227  -31.9208 H   0  0  0  0  0  0  0  0  0  0  0  0
   -9.6551   18.8424  -32.0601 H   0  0  0  0  0  0  0  0  0  0  0  0
   -8.6527   18.9177  -30.5498 H   0  0  0  0  0  0  0  0  0  0  0  0
  -10.4131   21.1529  -31.5808 H   0  0  0  0  0  0  0  0  0  0  0  0
   -9.9266   23.5742  -31.9080 H   0  0  0  0  0  0  0  0  0  0  0  0
   -7.5976   24.3307  -32.3741 H   0  0  0  0  0  0  0  0  0  0  0  0
   -5.7482   22.6690  -32.5300 H   0  0  0  0  0  0  0  0  0  0  0  0
   -4.8934   22.7615  -31.5475 H   0  0  0  0  0  0  0  0  0  0  0  0
   -0.3422   27.3004  -28.7171 H   0  0  0  0  0  0  0  0  0  0  0  0
    0.3108   28.0473  -26.4282 H   0  0  0  0  0  0  0  0  0  0  0  0
   -2.1635   24.9476  -24.7055 H   0  0  0  0  0  0  0  0  0  0  0  0
   -2.8174   24.1904  -26.9919 H   0  0  0  0  0  0  0  0  0  0  0  0
  1  2  1  0
  2  3  2  0
  3  4  1  0
  4  5  2  0
  5  6  1  0
  6  7  2  0
  6  8  1  0
  8  9  1  0
  9 10  1  0
 10 11  1  0
 11 12  1  0
 12 13  2  0
 13 14  1  0
 14 15  2  0
 15 16  1  0
 16 17  2  0
  5 18  1  0
 18 19  2  0
 19 20  1  0
 20 21  2  0
 20 22  2  0
 20 23  1  0
 23 24  1  0
 24 25  2  0
 25 26  1  0
 26 27  2  0
 27 28  1  0
 27 29  1  0
 29 30  2  0
 19  2  1  0
 30 24  1  0
 17  8  1  0
 17 12  1  0
  1 31  1  0
  1 32  1  0
  1 33  1  0
  3 34  1  0
  4 35  1  0
  9 36  1  0
  9 37  1  0
 10 38  1  0
 10 39  1  0
 11 40  1  0
 11 41  1  0
 13 42  1  0
 14 43  1  0
 15 44  1  0
 16 45  1  0
 18 46  1  0
 25 47  1  0
 26 48  1  0
 29 49  1  0
 30 50  1  0
M  CHG  1  23  -1
M  END
>  <UniqueID>  (14) 
14

>  <SMILES>  (14) 
Cc1ccc(C(=O)N2CCCc3ccccc32)cc1S(=O)(=O)[N-]c1ccc(F)cc1

>  <Energy>  (14) 
67.59785702782926

>  <Genealogy>  (14) 
Cc1ccc(C(=O)N2CCCc3ccccc32)cc1S(=O)(=O)[N-]c1ccc(F)cc1 (protonated)
Cc1ccc(C(=O)N2CCCc3ccccc32)cc1S(=O)(=O)[N-]c1ccc(F)cc1 (3D coordinates assigned)
Cc1ccc(C(=O)N2CCCc3ccccc32)cc1S(=O)(=O)[N-]c1ccc(F)cc1 (nonaromatic ring conformer: 67.59785702782926 kcal/mol)

>  <smiles>  (14) 
Cc1ccc(C(=O)N2CCCc3ccccc32)cc1S(=O)(=O)Nc1ccc(F)cc1

>  <score_type>  (14) 
oracle

>  <origin>  (14) 
adg

>  <m_score__min__energy>  (14) 
-12.359999999999999

>  <m_primary>  (14) 
energy

$$$$
14:0
     RDKit          3D

 42 42  0  0  0  0  0  0  0  0999 V2000
   -6.0880   17.8980  -34.2600 C   0  0  0  0  0  0  0  0  0  0  0  0
   -5.8580   19.3590  -33.8650 C   0  0  0  0  0  0  0  0  0  0  0  0
   -6.6260   19.7970  -32.6770 N   0  0  0  0  0  0  0  0  0  0  0  0
   -7.7790   18.9360  -32.3170 C   0  0  0  0  0  0  0  0  0  0  0  0
   -9.1360   19.6590  -32.3040 C   0  0  0  0  0  0  0  0  0  0  0  0
   -6.8540   21.2540  -32.5640 C   0  0  0  0  0  0  0  0  0  0  0  0
   -5.6030   22.0010  -32.0540 C   0  0  0  0  0  0  0  0  0  0  0  0
   -5.5870   23.4360  -32.3980 N   0  0  0  0  0  0  0  0  0  0  0  0
   -6.3970   24.2450  -31.4720 C   0  0  0  0  0  0  0  0  0  0  0  0
   -5.5450   25.3430  -30.8240 C   0  0  0  0  0  0  0  0  0  0  0  0
   -4.1820   24.9290  -30.7220 O   0  0  0  0  0  0  0  0  0  0  0  0
   -3.7090   23.8890  -29.9030 C   0  0  0  0  0  0  0  0  0  0  0  0
   -2.7040   23.0550  -30.4100 C   0  0  0  0  0  0  0  0  0  0  0  0
   -2.1890   22.0110  -29.6360 C   0  0  0  0  0  0  0  0  0  0  0  0
   -2.6780   21.7890  -28.3450 C   0  0  0  0  0  0  0  0  0  0  0  0
   -1.9730   20.3650  -27.2860 Br  0  0  0  0  0  0  0  0  0  0  0  0
   -3.6850   22.6120  -27.8310 C   0  0  0  0  0  0  0  0  0  0  0  0
   -4.2020   23.6550  -28.6040 C   0  0  0  0  0  0  0  0  0  0  0  0
   -6.1847   17.2837  -33.3526 H   0  0  0  0  0  0  0  0  0  0  0  0
   -7.0095   17.8199  -34.8556 H   0  0  0  0  0  0  0  0  0  0  0  0
   -5.2351   17.5406  -34.8556 H   0  0  0  0  0  0  0  0  0  0  0  0
   -4.7873   19.4939  -33.6520 H   0  0  0  0  0  0  0  0  0  0  0  0
   -6.2064   19.9722  -34.7091 H   0  0  0  0  0  0  0  0  0  0  0  0
   -7.8347   18.1141  -33.0460 H   0  0  0  0  0  0  0  0  0  0  0  0
   -7.6003   18.5881  -31.2889 H   0  0  0  0  0  0  0  0  0  0  0  0
   -9.4518   19.8273  -31.2638 H   0  0  0  0  0  0  0  0  0  0  0  0
   -9.0411   20.6261  -32.8194 H   0  0  0  0  0  0  0  0  0  0  0  0
   -9.8858   19.0408  -32.8194 H   0  0  0  0  0  0  0  0  0  0  0  0
   -7.1230   21.6486  -33.5549 H   0  0  0  0  0  0  0  0  0  0  0  0
   -7.6635   21.4142  -31.8367 H   0  0  0  0  0  0  0  0  0  0  0  0
   -5.5644   21.9061  -30.9588 H   0  0  0  0  0  0  0  0  0  0  0  0
   -4.7324   21.5429  -32.5462 H   0  0  0  0  0  0  0  0  0  0  0  0
   -4.6030   23.7890  -32.4160 H   0  0  0  0  0  0  0  0  0  0  0  0
   -5.9800   23.5350  -33.3630 H   0  0  0  0  0  0  0  0  0  0  0  0
   -7.2240   24.7106  -32.0281 H   0  0  0  0  0  0  0  0  0  0  0  0
   -6.7902   23.5895  -30.6810 H   0  0  0  0  0  0  0  0  0  0  0  0
   -5.6009   26.2536  -31.4386 H   0  0  0  0  0  0  0  0  0  0  0  0
   -5.9315   25.5408  -29.8133 H   0  0  0  0  0  0  0  0  0  0  0  0
   -2.3168   23.2231  -31.4258 H   0  0  0  0  0  0  0  0  0  0  0  0
   -1.3983   21.3635  -30.0430 H   0  0  0  0  0  0  0  0  0  0  0  0
   -4.0710   22.4379  -26.8158 H   0  0  0  0  0  0  0  0  0  0  0  0
   -4.9975   24.2962  -28.1965 H   0  0  0  0  0  0  0  0  0  0  0  0
  1  2  1  0
  2  3  1  0
  3  4  1  0
  4  5  1  0
  3  6  1  0
  6  7  1  0
  7  8  1  0
  8  9  1  0
  9 10  1  0
 10 11  1  0
 11 12  1  0
 12 13  2  0
 13 14  1  0
 14 15  2  0
 15 16  1  0
 15 17  1  0
 17 18  2  0
 18 12  1  0
  1 19  1  0
  1 20  1  0
  1 21  1  0
  2 22  1  0
  2 23  1  0
  4 24  1  0
  4 25  1  0
  5 26  1  0
  5 27  1  0
  5 28  1  0
  6 29  1  0
  6 30  1  0
  7 31  1  0
  7 32  1  0
  8 33  1  0
  8 34  1  0
  9 35  1  0
  9 36  1  0
 10 37  1  0
 10 38  1  0
 13 39  1  0
 14 40  1  0
 17 41  1  0
 18 42  1  0
M  CHG  1   8   1
M  END
>  <UniqueID>  (15) 
15

>  <SMILES>  (15) 
CCN(CC)CC[NH2+]CCOc1ccc(Br)cc1

>  <Energy>  (15) 
42.670553040398914

>  <Genealogy>  (15) 
CCN(CC)CC[NH2+]CCOc1ccc(Br)cc1 (protonated)
CCN(CC)CC[NH2+]CCOc1ccc(Br)cc1 (3D coordinates assigned)
CCN(CC)CC[NH2+]CCOc1ccc(Br)cc1 (optimized conformer: 42.670553040398914 kcal/mol)

>  <smiles>  (15) 
CCN(CC)CCNCCOc1ccc(Br)cc1

>  <score_type>  (15) 
oracle

>  <origin>  (15) 
adg

>  <m_score__min__energy>  (15) 
-5.71

>  <m_primary>  (15) 
energy

$$$$
15:0
     RDKit          3D

 49 50  0  0  0  0  0  0  0  0999 V2000
   -3.3477   23.5785  -31.2891 H   0  0  0  0  0  0  0  0  0  0  0  0
   -3.5890   24.2660  -30.4650 C   0  0  0  0  0  0  0  0  0  0  0  0
   -4.3140   25.3030  -30.7380 N   0  0  0  0  0  0  0  0  0  0  0  0
   -5.7370   25.4420  -30.5000 C   0  0  0  0  0  0  0  0  0  0  0  0
   -6.1540   26.1588  -31.2227 H   0  0  0  0  0  0  0  0  0  0  0  0
   -5.8861   25.8004  -29.4708 H   0  0  0  0  0  0  0  0  0  0  0  0
   -6.4570   24.0950  -30.6570 C   0  0  0  0  0  0  0  0  0  0  0  0
   -7.5342   24.2462  -30.4936 H   0  0  0  0  0  0  0  0  0  0  0  0
   -6.0385   23.3961  -29.9178 H   0  0  0  0  0  0  0  0  0  0  0  0
   -6.2460   23.4930  -32.0550 C   0  0  0  0  0  0  0  0  0  0  0  0
   -5.2305   23.0749  -32.1176 H   0  0  0  0  0  0  0  0  0  0  0  0
   -6.3811   24.2872  -32.8040 H   0  0  0  0  0  0  0  0  0  0  0  0
   -7.2290   22.4200  -32.3210 N   0  0  0  0  0  0  0  0  0  0  0  0
   -8.6150   22.7640  -31.9340 C   0  0  0  0  0  0  0  0  0  0  0  0
   -9.1304   23.1722  -32.8159 H   0  0  0  0  0  0  0  0  0  0  0  0
   -8.5475   23.4921  -31.1122 H   0  0  0  0  0  0  0  0  0  0  0  0
   -9.4220   21.5740  -31.4110 C   0  0  0  0  0  0  0  0  0  0  0  0
   -9.4164   21.5822  -30.3110 H   0  0  0  0  0  0  0  0  0  0  0  0
  -10.4582   21.6462  -31.7730 H   0  0  0  0  0  0  0  0  0  0  0  0
   -8.9715   20.6380  -31.7730 H   0  0  0  0  0  0  0  0  0  0  0  0
   -6.8170   21.0320  -31.9830 C   0  0  0  0  0  0  0  0  0  0  0  0
   -5.7985   21.0701  -31.5692 H   0  0  0  0  0  0  0  0  0  0  0  0
   -7.5657   20.6553  -31.2706 H   0  0  0  0  0  0  0  0  0  0  0  0
   -6.8150   20.0470  -33.1620 C   0  0  0  0  0  0  0  0  0  0  0  0
   -6.8129   19.0160  -32.7785 H   0  0  0  0  0  0  0  0  0  0  0  0
   -7.7135   20.2080  -33.7759 H   0  0  0  0  0  0  0  0  0  0  0  0
   -5.9172   20.2117  -33.7759 H   0  0  0  0  0  0  0  0  0  0  0  0
   -3.0500   23.9340  -29.0890 C   0  0  1  0  0  0  0  0  0  0  0  0
   -3.3042   24.7278  -28.3712 H   0  0  0  0  0  0  0  0  0  0  0  0
   -3.6950   22.6630  -28.5760 C   0  0  0  0  0  0  0  0  0  0  0  0
   -4.8760   22.6810  -28.2660 O   0  0  0  0  0  0  0  0  0  0  0  0
   -2.9220   21.3790  -28.3950 C   0  0  0  0  0  0  0  0  0  0  0  0
   -2.6073   21.3010  -27.3439 H   0  0  0  0  0  0  0  0  0  0  0  0
   -3.5819   20.5464  -28.6802 H   0  0  0  0  0  0  0  0  0  0  0  0
   -1.6730   21.3170  -29.2910 C   0  0  1  0  0  0  0  0  0  0  0  0
   -1.1105   20.4107  -29.0225 H   0  0  0  0  0  0  0  0  0  0  0  0
   -2.0010   21.1490  -30.7650 C   0  0  0  0  0  0  0  0  0  0  0  0
   -0.9690   21.4480  -32.0700 S   0  0  0  0  0  0  0  0  0  0  0  0
   -2.0940   21.1690  -33.2860 C   0  0  0  0  0  0  0  0  0  0  0  0
   -1.9023   21.2195  -34.3680 H   0  0  0  0  0  0  0  0  0  0  0  0
   -3.3060   20.8640  -32.6870 C   0  0  0  0  0  0  0  0  0  0  0  0
   -4.2189   20.6408  -33.2587 H   0  0  0  0  0  0  0  0  0  0  0  0
   -3.2620   20.8660  -31.2860 C   0  0  0  0  0  0  0  0  0  0  0  0
   -4.1410   20.6631  -30.6565 H   0  0  0  0  0  0  0  0  0  0  0  0
   -0.7880   22.5490  -29.0270 C   0  0  0  0  0  0  0  0  0  0  0  0
   -0.3788   22.4752  -28.0086 H   0  0  0  0  0  0  0  0  0  0  0  0
    0.0058   22.5538  -29.7885 H   0  0  0  0  0  0  0  0  0  0  0  0
   -1.5400   23.8510  -29.1500 C   0  0  0  0  0  0  0  0  0  0  0  0
   -0.8990   24.8830  -29.2800 O   0  0  0  0  0  0  0  0  0  0  0  0
  1  2  1  0
  2  3  2  0
  3  4  1  0
  4  5  1  0
  4  6  1  0
  4  7  1  0
  7  8  1  0
  7  9  1  0
  7 10  1  0
 10 11  1  0
 10 12  1  0
 10 13  1  0
 13 14  1  0
 14 15  1  0
 14 16  1  0
 14 17  1  0
 17 18  1  0
 17 19  1  0
 17 20  1  0
 13 21  1  0
 21 22  1  0
 21 23  1  0
 21 24  1  0
 24 25  1  0
 24 26  1  0
 24 27  1  0
  2 28  1  0
 28 29  1  1
 28 30  1  0
 30 31  2  0
 30 32  1  0
 32 33  1  0
 32 34  1  0
 32 35  1  0
 35 36  1  1
 35 37  1  0
 37 38  1  0
 38 39  1  0
 39 40  1  0
 39 41  2  0
 41 42  1  0
 41 43  1  0
 43 44  1  0
 35 45  1  0
 45 46  1  0
 45 47  1  0
 45 48  1  0
 48 49  2  0
 48 28  1  0
 43 37  2  0
M  END
>  <UniqueID>  (16) 
16

>  <SMILES>  (16) 
CCN(CC)CCC/N=C\C1C(=O)CC(c2cccs2)CC1=O

>  <Energy>  (16) 
77.1054290688274

>  <Genealogy>  (16) 
CCN(CC)CCC/N=C\C1C(=O)CC(c2cccs2)CC1=O (cis-trans isomerization)
CCN(CC)CCC/N=C\C1C(=O)CC(c2cccs2)CC1=O (3D coordinates assigned)
CCN(CC)CCC/N=C\C1C(=O)CC(c2cccs2)CC1=O (nonaromatic ring conformer: 77.1054290688274 kcal/mol)

>  <smiles>  (16) 
CCN(CC)CCCN=CC1C(=O)CC(c2cccs2)CC1=O

>  <score_type>  (16) 
oracle

>  <origin>  (16) 
adg

>  <m_score__min__energy>  (16) 
-7.2999999999999998

>  <m_primary>  (16) 
energy

$$$$
16:0
     RDKit          3D

 40 43  0  0  0  0  0  0  0  0999 V2000
   -3.4780   21.9550  -29.3470 C   0  0  0  0  0  0  0  0  0  0  0  0
   -4.2250   22.9510  -28.4660 C   0  0  0  0  0  0  0  0  0  0  0  0
   -5.3790   23.4910  -29.1930 N   0  0  0  0  0  0  0  0  0  0  0  0
   -4.9650   24.2170  -30.4030 C   0  0  0  0  0  0  0  0  0  0  0  0
   -6.0770   24.2100  -31.4580 C   0  0  0  0  0  0  0  0  0  0  0  0
   -6.2590   22.8670  -32.0140 N   0  0  0  0  0  0  0  0  0  0  0  0
   -7.3900   22.1120  -32.0330 C   0  0  0  0  0  0  0  0  0  0  0  0
   -8.6690   22.4670  -31.5960 C   0  0  0  0  0  0  0  0  0  0  0  0
   -9.6850   21.4950  -31.6620 C   0  0  0  0  0  0  0  0  0  0  0  0
   -9.4120   20.1980  -32.1560 C   0  0  0  0  0  0  0  0  0  0  0  0
   -8.1190   19.8560  -32.5890 C   0  0  0  0  0  0  0  0  0  0  0  0
   -7.1350   20.8370  -32.5140 C   0  0  0  0  0  0  0  0  0  0  0  0
   -5.7920   20.8070  -32.7930 C   0  0  0  0  0  0  0  0  0  0  0  0
   -4.9980   19.7840  -33.1920 N   0  0  0  0  0  0  0  0  0  0  0  0
   -3.6550   20.0200  -33.2990 C   0  0  0  0  0  0  0  0  0  0  0  0
   -2.7890   19.0010  -33.7110 C   0  0  0  0  0  0  0  0  0  0  0  0
   -1.4140   19.2480  -33.8000 C   0  0  0  0  0  0  0  0  0  0  0  0
   -0.9000   20.5110  -33.4840 C   0  0  0  0  0  0  0  0  0  0  0  0
   -1.7520   21.5400  -33.0740 C   0  0  0  0  0  0  0  0  0  0  0  0
   -3.1270   21.3100  -32.9760 C   0  0  0  0  0  0  0  0  0  0  0  0
   -3.9650   22.3070  -32.5590 N   0  0  0  0  0  0  0  0  0  0  0  0
   -5.2920   22.0420  -32.4770 C   0  0  0  0  0  0  0  0  0  0  0  0
   -2.9390   21.2363  -28.7122 H   0  0  0  0  0  0  0  0  0  0  0  0
   -4.1966   21.4163  -29.9821 H   0  0  0  0  0  0  0  0  0  0  0  0
   -2.7596   22.4941  -29.9821 H   0  0  0  0  0  0  0  0  0  0  0  0
   -4.5730   22.4428  -27.5546 H   0  0  0  0  0  0  0  0  0  0  0  0
   -3.5483   23.7751  -28.1960 H   0  0  0  0  0  0  0  0  0  0  0  0
   -5.8620   24.1710  -28.5610 H   0  0  0  0  0  0  0  0  0  0  0  0
   -4.7305   25.2578  -30.1350 H   0  0  0  0  0  0  0  0  0  0  0  0
   -4.0801   23.7177  -30.8246 H   0  0  0  0  0  0  0  0  0  0  0  0
   -7.0180   24.5379  -30.9921 H   0  0  0  0  0  0  0  0  0  0  0  0
   -5.7942   24.8931  -32.2725 H   0  0  0  0  0  0  0  0  0  0  0  0
   -8.8758   23.4767  -31.2116 H   0  0  0  0  0  0  0  0  0  0  0  0
  -10.7017   21.7466  -31.3260 H   0  0  0  0  0  0  0  0  0  0  0  0
  -10.2180   19.4509  -32.2017 H   0  0  0  0  0  0  0  0  0  0  0  0
   -7.8935   18.8501  -32.9729 H   0  0  0  0  0  0  0  0  0  0  0  0
   -3.1880   18.0077  -33.9645 H   0  0  0  0  0  0  0  0  0  0  0  0
   -0.7337   18.4451  -34.1201 H   0  0  0  0  0  0  0  0  0  0  0  0
    0.1819   20.6948  -33.5589 H   0  0  0  0  0  0  0  0  0  0  0  0
   -1.3407   22.5303  -32.8286 H   0  0  0  0  0  0  0  0  0  0  0  0
  1  2  1  0
  2  3  1  0
  3  4  1  0
  4  5  1  0
  5  6  1  0
  6  7  1  0
  7  8  2  0
  8  9  1  0
  9 10  2  0
 10 11  1  0
 11 12  2  0
 12 13  1  0
 13 14  2  0
 14 15  1  0
 15 16  2  0
 16 17  1  0
 17 18  2  0
 18 19  1  0
 19 20  2  0
 20 21  1  0
 21 22  2  0
 22  6  1  0
 12  7  1  0
 22 13  1  0
 20 15  1  0
  1 23  1  0
  1 24  1  0
  1 25  1  0
  2 26  1  0
  2 27  1  0
  3 28  1  0
  4 29  1  0
  4 30  1  0
  5 31  1  0
  5 32  1  0
  8 33  1  0
  9 34  1  0
 10 35  1  0
 11 36  1  0
 16 37  1  0
 17 38  1  0
 18 39  1  0
 19 40  1  0
M  END
>  <UniqueID>  (17) 
17

>  <SMILES>  (17) 
CCNCCn1c2ccccc2c2nc3ccccc3nc21

>  <Energy>  (17) 
85.08671675712337

>  <Genealogy>  (17) 
CCNCCn1c2ccccc2c2nc3ccccc3nc21 (3D coordinates assigned)
CCNCCn1c2ccccc2c2nc3ccccc3nc21 (optimized conformer: 85.08671675712337 kcal/mol)

>  <smiles>  (17) 
CCNCCn1c2ccccc2c2nc3ccccc3nc21

>  <score_type>  (17) 
oracle

>  <origin>  (17) 
adg

>  <m_score__min__energy>  (17) 
-8.6300000000000008

>  <m_primary>  (17) 
energy

$$$$
17:0
     RDKit          3D

 47 49  0  0  0  0  0  0  0  0999 V2000
   -6.3550   14.5250  -34.2190 C   0  0  0  0  0  0  0  0  0  0  0  0
   -7.1780   15.6850  -34.2840 O   0  0  0  0  0  0  0  0  0  0  0  0
   -6.8250   16.9370  -33.7600 C   0  0  0  0  0  0  0  0  0  0  0  0
   -7.2150   17.3540  -32.4710 C   0  0  0  0  0  0  0  0  0  0  0  0
   -6.8380   18.6110  -31.9930 C   0  0  0  0  0  0  0  0  0  0  0  0
   -6.0640   19.4670  -32.7900 C   0  0  0  0  0  0  0  0  0  0  0  0
   -5.6670   20.8010  -32.2860 C   0  0  0  0  0  0  0  0  0  0  0  0
   -6.6480   21.8030  -32.1780 C   0  0  0  0  0  0  0  0  0  0  0  0
   -7.9690   21.4990  -32.5550 O   0  0  0  0  0  0  0  0  0  0  0  0
   -9.0860   21.4930  -31.6710 C   0  0  0  0  0  0  0  0  0  0  0  0
   -6.2930   23.0700  -31.6940 C   0  0  0  0  0  0  0  0  0  0  0  0
   -4.9730   23.3510  -31.3080 C   0  0  0  0  0  0  0  0  0  0  0  0
   -4.6000   24.6220  -30.8350 O   0  0  0  0  0  0  0  0  0  0  0  0
   -5.4820   25.5520  -30.2150 C   0  0  0  0  0  0  0  0  0  0  0  0
   -3.9910   22.3460  -31.3980 C   0  0  0  0  0  0  0  0  0  0  0  0
   -4.3270   21.0740  -31.9200 C   0  0  0  0  0  0  0  0  0  0  0  0
   -3.2760   19.9900  -32.0330 C   0  0  0  0  0  0  0  0  0  0  0  0
   -1.8440   20.5230  -31.8910 C   0  0  0  0  0  0  0  0  0  0  0  0
   -1.7160   21.4960  -30.7900 N   0  0  2  0  0  0  0  0  0  0  0  0
   -1.9890   20.8960  -29.4690 C   0  0  0  0  0  0  0  0  0  0  0  0
   -2.5560   22.6860  -31.0380 C   0  0  0  0  0  0  0  0  0  0  0  0
   -5.6810   19.0570  -34.0750 C   0  0  0  0  0  0  0  0  0  0  0  0
   -6.0590   17.8000  -34.5520 C   0  0  0  0  0  0  0  0  0  0  0  0
   -6.1705   14.2649  -33.1663 H   0  0  0  0  0  0  0  0  0  0  0  0
   -6.8619   13.6873  -34.7203 H   0  0  0  0  0  0  0  0  0  0  0  0
   -5.3968   14.7267  -34.7203 H   0  0  0  0  0  0  0  0  0  0  0  0
   -7.8189   16.6864  -31.8389 H   0  0  0  0  0  0  0  0  0  0  0  0
   -7.1493   18.9308  -30.9876 H   0  0  0  0  0  0  0  0  0  0  0  0
   -8.7299   21.4949  -30.6302 H   0  0  0  0  0  0  0  0  0  0  0  0
   -9.7001   22.3879  -31.8501 H   0  0  0  0  0  0  0  0  0  0  0  0
   -9.6905   20.5916  -31.8501 H   0  0  0  0  0  0  0  0  0  0  0  0
   -7.0597   23.8549  -31.6156 H   0  0  0  0  0  0  0  0  0  0  0  0
   -5.3984   25.4638  -29.1217 H   0  0  0  0  0  0  0  0  0  0  0  0
   -5.2128   26.5734  -30.5221 H   0  0  0  0  0  0  0  0  0  0  0  0
   -6.5162   25.3373  -30.5221 H   0  0  0  0  0  0  0  0  0  0  0  0
   -3.4530   19.2468  -31.2416 H   0  0  0  0  0  0  0  0  0  0  0  0
   -3.3644   19.5508  -33.0376 H   0  0  0  0  0  0  0  0  0  0  0  0
   -1.1692   19.6766  -31.6954 H   0  0  0  0  0  0  0  0  0  0  0  0
   -1.5818   21.0375  -32.8272 H   0  0  0  0  0  0  0  0  0  0  0  0
   -0.7180   21.8150  -30.7770 H   0  0  0  0  0  0  0  0  0  0  0  0
   -1.6725   21.5916  -28.6779 H   0  0  0  0  0  0  0  0  0  0  0  0
   -3.0665   20.6966  -29.3724 H   0  0  0  0  0  0  0  0  0  0  0  0
   -1.4315   19.9527  -29.3724 H   0  0  0  0  0  0  0  0  0  0  0  0
   -2.5618   23.3045  -30.1284 H   0  0  0  0  0  0  0  0  0  0  0  0
   -2.1221   23.2164  -31.8984 H   0  0  0  0  0  0  0  0  0  0  0  0
   -5.0815   19.7269  -34.7088 H   0  0  0  0  0  0  0  0  0  0  0  0
   -5.7516   17.4851  -35.5602 H   0  0  0  0  0  0  0  0  0  0  0  0
  1  2  1  0
  2  3  1  0
  3  4  2  0
  4  5  1  0
  5  6  2  0
  6  7  1  0
  7  8  2  0
  8  9  1  0
  9 10  1  0
  8 11  1  0
 11 12  2  0
 12 13  1  0
 13 14  1  0
 12 15  1  0
 15 16  2  0
 16 17  1  0
 17 18  1  0
 18 19  1  0
 19 20  1  0
 19 21  1  0
  6 22  1  0
 22 23  2  0
 23  3  1  0
 16  7  1  0
 21 15  1  0
  1 24  1  0
  1 25  1  0
  1 26  1  0
  4 27  1  0
  5 28  1  0
 10 29  1  0
 10 30  1  0
 10 31  1  0
 11 32  1  0
 14 33  1  0
 14 34  1  0
 14 35  1  0
 17 36  1  0
 17 37  1  0
 18 38  1  0
 18 39  1  0
 19 40  1  1
 20 41  1  0
 20 42  1  0
 20 43  1  0
 21 44  1  0
 21 45  1  0
 22 46  1  0
 23 47  1  0
M  CHG  1  19   1
M  END
>  <UniqueID>  (18) 
18

>  <SMILES>  (18) 
COc1ccc(-c2c(OC)cc(OC)c3c2CC[N@H+](C)C3)cc1

>  <Energy>  (18) 
60.970521436045175

>  <Genealogy>  (18) 
COc1ccc(-c2c(OC)cc(OC)c3c2CC[NH+](C)C3)cc1 (protonated)
COc1ccc(-c2c(OC)cc(OC)c3c2CC[N@H+](C)C3)cc1 (chirality)
COc1ccc(-c2c(OC)cc(OC)c3c2CC[N@H+](C)C3)cc1 (3D coordinates assigned)
COc1ccc(-c2c(OC)cc(OC)c3c2CC[N@H+](C)C3)cc1 (nonaromatic ring conformer: 60.970521436045175 kcal/mol)

>  <smiles>  (18) 
COc1ccc(-c2c(OC)cc(OC)c3c2CCN(C)C3)cc1

>  <score_type>  (18) 
oracle

>  <origin>  (18) 
adg

>  <m_score__min__energy>  (18) 
-6.4699999999999998

>  <m_primary>  (18) 
energy

$$$$
18:0
     RDKit          3D

 71 74  0  0  0  0  0  0  0  0999 V2000
   -8.5958   19.2935  -33.5103 H   0  0  0  0  0  0  0  0  0  0  0  0
   -7.7140   19.6850  -32.9820 C   0  0  0  0  0  0  0  0  0  0  0  0
   -6.6980   18.8060  -32.5860 C   0  0  0  0  0  0  0  0  0  0  0  0
   -6.8470   17.4430  -32.8950 O   0  0  0  0  0  0  0  0  0  0  0  0
   -6.2420   16.7710  -34.0020 C   0  0  0  0  0  0  0  0  0  0  0  0
   -7.0034   16.1635  -34.5130 H   0  0  0  0  0  0  0  0  0  0  0  0
   -5.4296   16.1341  -33.6220 H   0  0  0  0  0  0  0  0  0  0  0  0
   -5.6490   17.7720  -34.9990 C   0  0  0  0  0  0  0  0  0  0  0  0
   -5.9906   18.7857  -34.7426 H   0  0  0  0  0  0  0  0  0  0  0  0
   -5.9827   17.5082  -36.0134 H   0  0  0  0  0  0  0  0  0  0  0  0
   -4.1810   17.7280  -34.9510 N   0  0  0  0  0  0  0  0  0  0  0  0
   -3.8320   18.7060  -35.0960 H   0  0  0  0  0  0  0  0  0  0  0  0
   -3.6930   17.2640  -33.6430 C   0  0  0  0  0  0  0  0  0  0  0  0
   -3.1977   16.2897  -33.7670 H   0  0  0  0  0  0  0  0  0  0  0  0
   -4.5487   17.1720  -32.9580 H   0  0  0  0  0  0  0  0  0  0  0  0
   -2.6940   18.2650  -33.0530 C   0  0  0  0  0  0  0  0  0  0  0  0
   -1.8164   17.7199  -32.6753 H   0  0  0  0  0  0  0  0  0  0  0  0
   -3.1830   18.8131  -32.2342 H   0  0  0  0  0  0  0  0  0  0  0  0
   -2.2580   19.2350  -34.0830 N   0  0  0  0  0  0  0  0  0  0  0  0
   -0.8810   18.9900  -34.5750 C   0  0  0  0  0  0  0  0  0  0  0  0
   -0.9173   18.1698  -35.3071 H   0  0  0  0  0  0  0  0  0  0  0  0
   -0.2692   18.7483  -33.6934 H   0  0  0  0  0  0  0  0  0  0  0  0
   -0.2250   20.2070  -35.2470 C   0  0  0  0  0  0  0  0  0  0  0  0
    0.1466   20.8964  -34.4745 H   0  0  0  0  0  0  0  0  0  0  0  0
    0.6145   19.8716  -35.8737 H   0  0  0  0  0  0  0  0  0  0  0  0
   -0.9667   20.7239  -35.8737 H   0  0  0  0  0  0  0  0  0  0  0  0
   -2.4990   20.6420  -33.7040 C   0  0  0  0  0  0  0  0  0  0  0  0
   -2.2607   21.2927  -34.5583 H   0  0  0  0  0  0  0  0  0  0  0  0
   -3.5558   20.7578  -33.4216 H   0  0  0  0  0  0  0  0  0  0  0  0
   -1.6250   21.0340  -32.5150 C   0  0  0  0  0  0  0  0  0  0  0  0
   -2.1520   20.7976  -31.5788 H   0  0  0  0  0  0  0  0  0  0  0  0
   -0.6791   20.4739  -32.5548 H   0  0  0  0  0  0  0  0  0  0  0  0
   -1.4142   22.1129  -32.5548 H   0  0  0  0  0  0  0  0  0  0  0  0
   -5.5770   19.3130  -31.8990 C   0  0  0  0  0  0  0  0  0  0  0  0
   -4.7788   18.6301  -31.5726 H   0  0  0  0  0  0  0  0  0  0  0  0
   -5.4760   20.6870  -31.6300 C   0  0  0  0  0  0  0  0  0  0  0  0
   -4.3620   21.2140  -30.9600 C   0  0  0  0  0  0  0  0  0  0  0  0
   -3.5546   20.5477  -30.6221 H   0  0  0  0  0  0  0  0  0  0  0  0
   -4.2820   22.5920  -30.7230 C   0  0  0  0  0  0  0  0  0  0  0  0
   -3.1750   23.1550  -30.0740 C   0  0  0  0  0  0  0  0  0  0  0  0
   -2.3600   22.5119  -29.7105 H   0  0  0  0  0  0  0  0  0  0  0  0
   -3.1130   24.5520  -29.8900 C   0  0  0  0  0  0  0  0  0  0  0  0
   -2.0890   25.1470  -29.3450 N   0  0  0  0  0  0  0  0  0  0  0  0
   -1.7320   25.2210  -27.9250 C   0  0  0  0  0  0  0  0  0  0  0  0
   -1.2772   26.2010  -27.7183 H   0  0  0  0  0  0  0  0  0  0  0  0
   -2.6443   25.0875  -27.3251 H   0  0  0  0  0  0  0  0  0  0  0  0
   -0.7330   24.1140  -27.5540 C   0  0  0  0  0  0  0  0  0  0  0  0
    0.2563   24.3722  -27.9597 H   0  0  0  0  0  0  0  0  0  0  0  0
   -0.6924   24.0333  -26.4577 H   0  0  0  0  0  0  0  0  0  0  0  0
   -1.1550   22.8100  -28.1050 N   0  0  0  0  0  0  0  0  0  0  0  0
    0.0060   22.0310  -28.5840 C   0  0  0  0  0  0  0  0  0  0  0  0
    0.3103   22.4063  -29.5722 H   0  0  0  0  0  0  0  0  0  0  0  0
    0.8299   22.1435  -27.8640 H   0  0  0  0  0  0  0  0  0  0  0  0
   -0.3520   20.5420  -28.6980 C   0  0  0  0  0  0  0  0  0  0  0  0
   -1.1926   20.4403  -29.4002 H   0  0  0  0  0  0  0  0  0  0  0  0
    0.5524   20.0209  -29.0453 H   0  0  0  0  0  0  0  0  0  0  0  0
   -0.7250   19.9450  -27.4630 O   0  0  0  0  0  0  0  0  0  0  0  0
   -1.2520   20.8690  -26.5180 C   0  0  0  0  0  0  0  0  0  0  0  0
   -1.9448   20.3308  -25.8544 H   0  0  0  0  0  0  0  0  0  0  0  0
   -0.3973   21.2958  -25.9727 H   0  0  0  0  0  0  0  0  0  0  0  0
   -2.0090   22.0440  -27.1620 C   0  0  0  0  0  0  0  0  0  0  0  0
   -2.8767   21.6487  -27.7105 H   0  0  0  0  0  0  0  0  0  0  0  0
   -2.3217   22.7264  -26.3580 H   0  0  0  0  0  0  0  0  0  0  0  0
   -4.1590   25.3200  -30.3060 N   0  0  0  0  0  0  0  0  0  0  0  0
   -5.2540   24.7980  -30.9190 C   0  0  0  0  0  0  0  0  0  0  0  0
   -6.0779   25.4574  -31.2295 H   0  0  0  0  0  0  0  0  0  0  0  0
   -5.3320   23.4250  -31.1540 C   0  0  0  0  0  0  0  0  0  0  0  0
   -6.4090   22.8950  -31.7950 N   0  0  0  0  0  0  0  0  0  0  0  0
   -6.5050   21.5610  -32.0440 C   0  0  0  0  0  0  0  0  0  0  0  0
   -7.6210   21.0540  -32.7140 C   0  0  0  0  0  0  0  0  0  0  0  0
   -8.4270   21.7322  -33.0309 H   0  0  0  0  0  0  0  0  0  0  0  0
  1  2  1  0
  2  3  1  0
  3  4  1  0
  4  5  1  0
  5  6  1  0
  5  7  1  0
  5  8  1  0
  8  9  1  0
  8 10  1  0
  8 11  1  0
 11 12  1  0
 11 13  1  0
 13 14  1  0
 13 15  1  0
 13 16  1  0
 16 17  1  0
 16 18  1  0
 16 19  1  0
 19 20  1  0
 20 21  1  0
 20 22  1  0
 20 23  1  0
 23 24  1  0
 23 25  1  0
 23 26  1  0
 19 27  1  0
 27 28  1  0
 27 29  1  0
 27 30  1  0
 30 31  1  0
 30 32  1  0
 30 33  1  0
  3 34  2  0
 34 35  1  0
 34 36  1  0
 36 37  2  0
 37 38  1  0
 37 39  1  0
 39 40  2  0
 40 41  1  0
 40 42  1  0
 42 43  2  0
 43 44  1  0
 44 45  1  0
 44 46  1  0
 44 47  1  0
 47 48  1  0
 47 49  1  0
 47 50  1  0
 50 51  1  0
 51 52  1  0
 51 53  1  0
 51 54  1  0
 54 55  1  0
 54 56  1  0
 54 57  1  0
 57 58  1  0
 58 59  1  0
 58 60  1  0
 58 61  1  0
 61 62  1  0
 61 63  1  0
 42 64  1  0
 64 65  1  0
 65 66  1  0
 65 67  2  0
 67 68  1  0
 68 69  2  0
 69 70  1  0
 70 71  1  0
 70  2  2  0
 69 36  1  0
 67 39  1  0
 61 50  1  0
M  CHG  1  64  -1
M  END
>  <UniqueID>  (19) 
19

>  <SMILES>  (19) 
CCN(CC)CCNCCOc1ccc2nc3c[n-]/c(=N/CCN4CCOCC4)cc3cc2c1

>  <Energy>  (19) 
92.89968106049106

>  <Genealogy>  (19) 
CCN(CC)CCNCCOc1ccc2nc3c[n-]c(=NCCN4CCOCC4)cc3cc2c1 (protonated)
CCN(CC)CCNCCOc1ccc2nc3c[n-]/c(=N/CCN4CCOCC4)cc3cc2c1 (cis-trans isomerization)
CCN(CC)CCNCCOc1ccc2nc3c[n-]/c(=N/CCN4CCOCC4)cc3cc2c1 (3D coordinates assigned)
CCN(CC)CCNCCOc1ccc2nc3c[n-]/c(=N/CCN4CCOCC4)cc3cc2c1 (nonaromatic ring conformer: 92.89968106049106 kcal/mol)

>  <smiles>  (19) 
CCN(CC)CCNCCOc1ccc2nc3c[nH]c(=NCCN4CCOCC4)cc3cc2c1

>  <score_type>  (19) 
oracle

>  <origin>  (19) 
adg

>  <m_score__min__energy>  (19) 
-9.7599999999999998

>  <m_primary>  (19) 
energy

$$$$
19:0
     RDKit          3D

 70 72  0  0  0  0  0  0  0  0999 V2000
   -0.1350   22.6820  -24.0820 C   0  0  0  0  0  0  0  0  0  0  0  0
    0.5080   23.9160  -24.7250 C   0  0  0  0  0  0  0  0  0  0  0  0
    0.1640   25.2170  -24.0900 N   0  0  0  0  0  0  0  0  0  0  0  0
    1.2760   26.2030  -24.1450 C   0  0  0  0  0  0  0  0  0  0  0  0
    0.9500   27.4850  -23.3690 C   0  0  0  0  0  0  0  0  0  0  0  0
   -1.1800   25.7400  -24.4730 C   0  0  0  0  0  0  0  0  0  0  0  0
   -1.7160   25.3150  -25.8650 C   0  0  0  0  0  0  0  0  0  0  0  0
   -0.8140   25.7820  -26.9300 N   0  0  0  0  0  0  0  0  0  0  0  0
   -1.2220   25.2820  -28.2520 C   0  0  0  0  0  0  0  0  0  0  0  0
   -2.1310   24.0500  -28.0920 C   0  0  0  0  0  0  0  0  0  0  0  0
   -2.6290   23.4040  -29.3840 C   0  0  0  0  0  0  0  0  0  0  0  0
   -1.8240   22.5010  -30.1000 C   0  0  0  0  0  0  0  0  0  0  0  0
   -2.2640   21.9260  -31.2840 C   0  0  0  0  0  0  0  0  0  0  0  0
   -3.5330   22.2060  -31.8050 C   0  0  0  0  0  0  0  0  0  0  0  0
   -3.8710   21.5970  -33.1540 C   0  0  0  0  0  0  0  0  0  0  0  0
   -3.9650   20.0650  -33.0620 C   0  0  0  0  0  0  0  0  0  0  0  0
   -5.3540   19.6110  -33.3070 N   0  0  0  0  0  0  0  0  0  0  0  0
   -6.3380   20.5060  -32.6660 C   0  0  0  0  0  0  0  0  0  0  0  0
   -7.7560   20.0280  -32.9960 C   0  0  0  0  0  0  0  0  0  0  0  0
   -8.0020   18.6170  -32.5880 N   0  0  0  0  0  0  0  0  0  0  0  0
   -9.0840   18.5290  -31.5860 C   0  0  0  0  0  0  0  0  0  0  0  0
   -6.7960   17.9180  -32.0930 C   0  0  0  0  0  0  0  0  0  0  0  0
   -5.5760   18.1730  -32.9980 C   0  0  0  0  0  0  0  0  0  0  0  0
   -4.3870   23.0960  -31.1000 C   0  0  0  0  0  0  0  0  0  0  0  0
   -5.6830   23.4120  -31.5700 C   0  0  0  0  0  0  0  0  0  0  0  0
   -6.5010   24.2990  -30.8770 C   0  0  0  0  0  0  0  0  0  0  0  0
   -6.0580   24.8820  -29.6970 C   0  0  0  0  0  0  0  0  0  0  0  0
   -4.7930   24.5830  -29.1970 C   0  0  0  0  0  0  0  0  0  0  0  0
   -3.9310   23.6960  -29.8830 C   0  0  0  0  0  0  0  0  0  0  0  0
   -0.0878   22.7726  -22.9868 H   0  0  0  0  0  0  0  0  0  0  0  0
   -1.1858   22.6089  -24.3989 H   0  0  0  0  0  0  0  0  0  0  0  0
    0.4072   21.7789  -24.3989 H   0  0  0  0  0  0  0  0  0  0  0  0
    1.6001   23.7933  -24.6780 H   0  0  0  0  0  0  0  0  0  0  0  0
    0.1132   23.9647  -25.7506 H   0  0  0  0  0  0  0  0  0  0  0  0
    0.0610   24.9630  -23.0760 H   0  0  0  0  0  0  0  0  0  0  0  0
    2.1774   25.7455  -23.7112 H   0  0  0  0  0  0  0  0  0  0  0  0
    1.4343   26.4762  -25.1987 H   0  0  0  0  0  0  0  0  0  0  0  0
    1.0014   27.2829  -22.2889 H   0  0  0  0  0  0  0  0  0  0  0  0
    1.6778   28.2671  -23.6307 H   0  0  0  0  0  0  0  0  0  0  0  0
   -0.0630   27.8245  -23.6307 H   0  0  0  0  0  0  0  0  0  0  0  0
   -1.9010   25.3946  -23.7174 H   0  0  0  0  0  0  0  0  0  0  0  0
   -1.0632   26.8325  -24.5267 H   0  0  0  0  0  0  0  0  0  0  0  0
   -1.7869   24.2181  -25.9060 H   0  0  0  0  0  0  0  0  0  0  0  0
   -2.7081   25.7654  -26.0166 H   0  0  0  0  0  0  0  0  0  0  0  0
    0.1390   25.4020  -26.7270 H   0  0  0  0  0  0  0  0  0  0  0  0
   -1.7699   26.0718  -28.7869 H   0  0  0  0  0  0  0  0  0  0  0  0
   -0.3256   24.9974  -28.8225 H   0  0  0  0  0  0  0  0  0  0  0  0
   -1.5682   23.2887  -27.5319 H   0  0  0  0  0  0  0  0  0  0  0  0
   -3.0333   24.4157  -27.5801 H   0  0  0  0  0  0  0  0  0  0  0  0
   -0.8261   22.2452  -29.7144 H   0  0  0  0  0  0  0  0  0  0  0  0
   -1.6010   21.2349  -31.8251 H   0  0  0  0  0  0  0  0  0  0  0  0
   -4.8371   21.9963  -33.4965 H   0  0  0  0  0  0  0  0  0  0  0  0
   -3.0719   21.8559  -33.8642 H   0  0  0  0  0  0  0  0  0  0  0  0
   -3.3002   19.6164  -33.8148 H   0  0  0  0  0  0  0  0  0  0  0  0
   -3.6630   19.7517  -32.0517 H   0  0  0  0  0  0  0  0  0  0  0  0
   -6.1908   20.4917  -31.5760 H   0  0  0  0  0  0  0  0  0  0  0  0
   -6.2003   21.5306  -33.0417 H   0  0  0  0  0  0  0  0  0  0  0  0
   -8.4752   20.6751  -32.4725 H   0  0  0  0  0  0  0  0  0  0  0  0
   -7.8764   20.0814  -34.0881 H   0  0  0  0  0  0  0  0  0  0  0  0
   -8.6514   18.5642  -30.5752 H   0  0  0  0  0  0  0  0  0  0  0  0
   -9.7759   19.3738  -31.7183 H   0  0  0  0  0  0  0  0  0  0  0  0
   -9.6303   17.5835  -31.7183 H   0  0  0  0  0  0  0  0  0  0  0  0
   -6.5679   18.2763  -31.0783 H   0  0  0  0  0  0  0  0  0  0  0  0
   -7.0024   16.8375  -32.0933 H   0  0  0  0  0  0  0  0  0  0  0  0
   -4.6802   17.7837  -32.4920 H   0  0  0  0  0  0  0  0  0  0  0  0
   -5.7711   17.6641  -33.9535 H   0  0  0  0  0  0  0  0  0  0  0  0
   -6.0501   22.9493  -32.4980 H   0  0  0  0  0  0  0  0  0  0  0  0
   -7.5018   24.5392  -31.2651 H   0  0  0  0  0  0  0  0  0  0  0  0
   -6.7093   25.5832  -29.1547 H   0  0  0  0  0  0  0  0  0  0  0  0
   -4.4595   25.0432  -28.2552 H   0  0  0  0  0  0  0  0  0  0  0  0
  1  2  1  0
  2  3  1  0
  3  4  1  0
  4  5  1  0
  3  6  1  0
  6  7  1  0
  7  8  1  0
  8  9  1  0
  9 10  1  0
 10 11  1  0
 11 12  2  0
 12 13  1  0
 13 14  2  0
 14 15  1  0
 15 16  1  0
 16 17  1  0
 17 18  1  0
 18 19  1  0
 19 20  1  0
 20 21  1  0
 20 22  1  0
 22 23  1  0
 14 24  1  0
 24 25  2  0
 25 26  1  0
 26 27  2  0
 27 28  1  0
 28 29  2  0
 29 11  1  0
 23 17  1  0
 29 24  1  0
  1 30  1  0
  1 31  1  0
  1 32  1  0
  2 33  1  0
  2 34  1  0
  3 35  1  0
  4 36  1  0
  4 37  1  0
  5 38  1  0
  5 39  1  0
  5 40  1  0
  6 41  1  0
  6 42  1  0
  7 43  1  0
  7 44  1  0
  8 45  1  0
  9 46  1  0
  9 47  1  0
 10 48  1  0
 10 49  1  0
 12 50  1  0
 13 51  1  0
 15 52  1  0
 15 53  1  0
 16 54  1  0
 16 55  1  0
 18 56  1  0
 18 57  1  0
 19 58  1  0
 19 59  1  0
 21 60  1  0
 21 61  1  0
 21 62  1  0
 22 63  1  0
 22 64  1  0
 23 65  1  0
 23 66  1  0
 25 67  1  0
 26 68  1  0
 27 69  1  0
 28 70  1  0
M  CHG  1   3   1
M  END
>  <UniqueID>  (20) 
20

>  <SMILES>  (20) 
CC[NH+](CC)CCNCCc1ccc(CCN2CCN(C)CC2)c2ccccc12

>  <Energy>  (20) 
102.00356966236878

>  <Genealogy>  (20) 
CC[NH+](CC)CCNCCc1ccc(CCN2CCN(C)CC2)c2ccccc12 (protonated)
CC[NH+](CC)CCNCCc1ccc(CCN2CCN(C)CC2)c2ccccc12 (3D coordinates assigned)
CC[NH+](CC)CCNCCc1ccc(CCN2CCN(C)CC2)c2ccccc12 (nonaromatic ring conformer: 102.00356966236878 kcal/mol)

>  <smiles>  (20) 
CCN(CC)CCNCCc1ccc(CCN2CCN(C)CC2)c2ccccc12

>  <score_type>  (20) 
oracle

>  <origin>  (20) 
adg

>  <m_score__min__energy>  (20) 
-9.2400000000000002

>  <m_primary>  (20) 
energy

$$$$
20:0
     RDKit          3D

 46 47  0  0  0  0  0  0  0  0999 V2000
   -8.2720   21.8900  -31.8990 C   0  0  0  0  0  0  0  0  0  0  0  0
   -7.3320   22.9980  -32.3630 C   0  0  0  0  0  0  0  0  0  0  0  0
   -6.4310   23.3960  -31.2600 N   0  0  0  0  0  0  0  0  0  0  0  0
   -6.8390   22.8190  -29.9700 C   0  0  0  0  0  0  0  0  0  0  0  0
   -6.1830   24.8580  -31.1950 C   0  0  0  0  0  0  0  0  0  0  0  0
   -5.2160   25.3070  -30.0830 C   0  0  0  0  0  0  0  0  0  0  0  0
   -3.8940   25.0980  -30.5320 O   0  0  0  0  0  0  0  0  0  0  0  0
   -3.1860   24.2370  -29.6560 C   0  0  0  0  0  0  0  0  0  0  0  0
   -2.7850   22.9690  -30.4110 C   0  0  0  0  0  0  0  0  0  0  0  0
   -3.6910   22.7070  -31.5330 N   0  0  0  0  0  0  0  0  0  0  0  0
   -3.7300   21.4580  -32.2500 C   0  0  0  0  0  0  0  0  0  0  0  0
   -2.5530   20.9710  -32.8380 C   0  0  0  0  0  0  0  0  0  0  0  0
   -2.5450   19.7570  -33.5290 C   0  0  0  0  0  0  0  0  0  0  0  0
   -3.7250   18.9970  -33.6460 C   0  0  0  0  0  0  0  0  0  0  0  0
   -3.7740   17.7590  -34.3280 C   0  0  0  0  0  0  0  0  0  0  0  0
   -2.5570   17.1560  -34.9820 C   0  0  0  0  0  0  0  0  0  0  0  0
   -4.9940   17.0740  -34.3870 C   0  0  0  0  0  0  0  0  0  0  0  0
   -6.1230   17.6270  -33.7790 C   0  0  0  0  0  0  0  0  0  0  0  0
   -7.2230   17.0160  -33.8240 O   0  0  0  0  0  0  0  0  0  0  0  0
   -6.0460   18.7930  -33.1500 O   0  0  0  0  0  0  0  0  0  0  0  0
   -4.9160   19.4870  -33.0590 C   0  0  0  0  0  0  0  0  0  0  0  0
   -4.9130   20.7070  -32.3720 C   0  0  0  0  0  0  0  0  0  0  0  0
   -8.2939   21.8642  -30.7995 H   0  0  0  0  0  0  0  0  0  0  0  0
   -9.2849   22.0844  -32.2814 H   0  0  0  0  0  0  0  0  0  0  0  0
   -7.9151   20.9223  -32.2814 H   0  0  0  0  0  0  0  0  0  0  0  0
   -6.7315   22.6346  -33.2100 H   0  0  0  0  0  0  0  0  0  0  0  0
   -7.9280   23.8691  -32.6728 H   0  0  0  0  0  0  0  0  0  0  0  0
   -6.4156   23.4178  -29.1502 H   0  0  0  0  0  0  0  0  0  0  0  0
   -7.9366   22.8224  -29.8976 H   0  0  0  0  0  0  0  0  0  0  0  0
   -6.4699   21.7853  -29.8976 H   0  0  0  0  0  0  0  0  0  0  0  0
   -5.7632   25.1759  -32.1608 H   0  0  0  0  0  0  0  0  0  0  0  0
   -7.1526   25.3237  -30.9648 H   0  0  0  0  0  0  0  0  0  0  0  0
   -5.3701   26.3741  -29.8650 H   0  0  0  0  0  0  0  0  0  0  0  0
   -5.3998   24.7286  -29.1656 H   0  0  0  0  0  0  0  0  0  0  0  0
   -2.2834   24.7473  -29.2888 H   0  0  0  0  0  0  0  0  0  0  0  0
   -3.8265   23.9712  -28.8021 H   0  0  0  0  0  0  0  0  0  0  0  0
   -1.7623   23.0906  -30.7974 H   0  0  0  0  0  0  0  0  0  0  0  0
   -2.8402   22.1190  -29.7150 H   0  0  0  0  0  0  0  0  0  0  0  0
   -4.3450   23.4620  -31.8400 H   0  0  0  0  0  0  0  0  0  0  0  0
   -1.6235   21.5532  -32.7537 H   0  0  0  0  0  0  0  0  0  0  0  0
   -1.6122   19.3927  -33.9841 H   0  0  0  0  0  0  0  0  0  0  0  0
   -1.8578   16.8096  -34.2067 H   0  0  0  0  0  0  0  0  0  0  0  0
   -2.8613   16.3044  -35.6083 H   0  0  0  0  0  0  0  0  0  0  0  0
   -2.0638   17.9140  -35.6083 H   0  0  0  0  0  0  0  0  0  0  0  0
   -5.0625   16.1078  -34.9083 H   0  0  0  0  0  0  0  0  0  0  0  0
   -5.8448   21.0818  -31.9234 H   0  0  0  0  0  0  0  0  0  0  0  0
  1  2  1  0
  2  3  1  0
  3  4  1  0
  3  5  1  0
  5  6  1  0
  6  7  1  0
  7  8  1  0
  8  9  1  0
  9 10  1  0
 10 11  1  0
 11 12  2  0
 12 13  1  0
 13 14  2  0
 14 15  1  0
 15 16  1  0
 15 17  2  0
 17 18  1  0
 18 19  2  0
 18 20  1  0
 20 21  1  0
 21 22  2  0
 22 11  1  0
 21 14  1  0
  1 23  1  0
  1 24  1  0
  1 25  1  0
  2 26  1  0
  2 27  1  0
  4 28  1  0
  4 29  1  0
  4 30  1  0
  5 31  1  0
  5 32  1  0
  6 33  1  0
  6 34  1  0
  8 35  1  0
  8 36  1  0
  9 37  1  0
  9 38  1  0
 10 39  1  0
 12 40  1  0
 13 41  1  0
 16 42  1  0
 16 43  1  0
 16 44  1  0
 17 45  1  0
 22 46  1  0
M  END
>  <UniqueID>  (21) 
21

>  <SMILES>  (21) 
CCN(C)CCOCCNc1ccc2c(C)cc(=O)oc2c1

>  <Energy>  (21) 
52.60795257654929

>  <Genealogy>  (21) 
CCN(C)CCOCCNc1ccc2c(C)cc(=O)oc2c1 (3D coordinates assigned)
CCN(C)CCOCCNc1ccc2c(C)cc(=O)oc2c1 (optimized conformer: 52.60795257654929 kcal/mol)

>  <smiles>  (21) 
CCN(C)CCOCCNc1ccc2c(C)cc(=O)oc2c1

>  <score_type>  (21) 
oracle

>  <origin>  (21) 
adg

>  <m_score__min__energy>  (21) 
-7.0800000000000001

>  <m_primary>  (21) 
energy

$$$$
21:0
     RDKit          3D

 49 53  0  0  0  0  0  0  0  0999 V2000
   -2.1530   20.8010  -31.6440 C   0  0  0  0  0  0  0  0  0  0  0  0
   -1.9240   21.6900  -30.4120 C   0  0  2  0  0  0  0  0  0  0  0  0
   -1.9210   20.8950  -29.1290 C   0  0  0  0  0  0  0  0  0  0  0  0
   -0.8020   20.1430  -28.7320 C   0  0  0  0  0  0  0  0  0  0  0  0
   -0.8520   19.4100  -27.5460 C   0  0  0  0  0  0  0  0  0  0  0  0
   -2.0090   19.4290  -26.7660 C   0  0  0  0  0  0  0  0  0  0  0  0
   -3.1040   20.1850  -27.1870 C   0  0  0  0  0  0  0  0  0  0  0  0
   -3.0370   20.8920  -28.3460 N   0  0  0  0  0  0  0  0  0  0  0  0
   -2.8400   22.8500  -30.3090 N   0  0  0  0  0  0  0  0  0  0  0  0
   -2.6420   23.9600  -29.5300 C   0  0  0  0  0  0  0  0  0  0  0  0
   -1.4310   24.2340  -28.7240 C   0  0  0  0  0  0  0  0  0  0  0  0
   -0.1720   24.1520  -29.1920 N   0  0  0  0  0  0  0  0  0  0  0  0
    0.6360   24.5370  -28.2140 N   0  0  0  0  0  0  0  0  0  0  0  0
   -0.1400   24.8590  -27.1630 C   0  0  0  0  0  0  0  0  0  0  0  0
   -1.4410   24.6790  -27.4500 N   0  0  0  0  0  0  0  0  0  0  0  0
   -2.5800   24.9500  -26.5800 C   0  0  0  0  0  0  0  0  0  0  0  0
   -3.7020   24.8040  -29.5060 N   0  0  0  0  0  0  0  0  0  0  0  0
   -4.6020   24.1970  -30.2900 C   0  0  0  0  0  0  0  0  0  0  0  0
   -5.8910   24.6370  -30.5690 C   0  0  0  0  0  0  0  0  0  0  0  0
   -6.7050   23.8230  -31.3720 C   0  0  0  0  0  0  0  0  0  0  0  0
   -6.2210   22.5950  -31.8730 C   0  0  0  0  0  0  0  0  0  0  0  0
   -7.0820   21.8040  -32.6490 O   0  0  0  0  0  0  0  0  0  0  0  0
   -6.9190   20.4330  -32.8990 C   0  0  0  0  0  0  0  0  0  0  0  0
   -7.6470   19.4520  -32.2040 C   0  0  0  0  0  0  0  0  0  0  0  0
   -7.4400   18.1000  -32.4850 C   0  0  0  0  0  0  0  0  0  0  0  0
   -6.4950   17.7400  -33.4500 C   0  0  0  0  0  0  0  0  0  0  0  0
   -6.2140   16.0500  -33.8220 Cl  0  0  0  0  0  0  0  0  0  0  0  0
   -5.7850   18.7000  -34.0980 N   0  0  0  0  0  0  0  0  0  0  0  0
   -5.9710   20.0230  -33.8420 C   0  0  0  0  0  0  0  0  0  0  0  0
   -4.9130   22.1690  -31.5440 C   0  0  0  0  0  0  0  0  0  0  0  0
   -4.1100   23.0130  -30.7630 C   0  0  0  0  0  0  0  0  0  0  0  0
   -2.4151   19.7835  -31.3183 H   0  0  0  0  0  0  0  0  0  0  0  0
   -2.9737   21.2155  -32.2479 H   0  0  0  0  0  0  0  0  0  0  0  0
   -1.2342   20.7675  -32.2479 H   0  0  0  0  0  0  0  0  0  0  0  0
   -0.9203   22.1129  -30.5664 H   0  0  0  0  0  0  0  0  0  0  0  0
    0.1066   20.1324  -29.3519 H   0  0  0  0  0  0  0  0  0  0  0  0
    0.0186   18.8184  -27.2265 H   0  0  0  0  0  0  0  0  0  0  0  0
   -2.0574   18.8543  -25.8293 H   0  0  0  0  0  0  0  0  0  0  0  0
   -4.0215   20.2087  -26.5807 H   0  0  0  0  0  0  0  0  0  0  0  0
    0.2400   25.2217  -26.1965 H   0  0  0  0  0  0  0  0  0  0  0  0
   -2.2645   24.8749  -25.5289 H   0  0  0  0  0  0  0  0  0  0  0  0
   -2.9593   25.9635  -26.7775 H   0  0  0  0  0  0  0  0  0  0  0  0
   -3.3751   24.2160  -26.7775 H   0  0  0  0  0  0  0  0  0  0  0  0
   -6.2616   25.5938  -30.1725 H   0  0  0  0  0  0  0  0  0  0  0  0
   -7.7289   24.1446  -31.6131 H   0  0  0  0  0  0  0  0  0  0  0  0
   -8.3795   19.7492  -31.4390 H   0  0  0  0  0  0  0  0  0  0  0  0
   -8.0140   17.3270  -31.9530 H   0  0  0  0  0  0  0  0  0  0  0  0
   -5.3730   20.7739  -34.3792 H   0  0  0  0  0  0  0  0  0  0  0  0
   -4.5339   21.1972  -31.8930 H   0  0  0  0  0  0  0  0  0  0  0  0
  1  2  1  0
  2  3  1  0
  3  4  2  0
  4  5  1  0
  5  6  2  0
  6  7  1  0
  7  8  2  0
  2  9  1  0
  9 10  1  0
 10 11  1  0
 11 12  2  0
 12 13  1  0
 13 14  2  0
 14 15  1  0
 15 16  1  0
 10 17  2  0
 17 18  1  0
 18 19  2  0
 19 20  1  0
 20 21  2  0
 21 22  1  0
 22 23  1  0
 23 24  2  0
 24 25  1  0
 25 26  2  0
 26 27  1  0
 26 28  1  0
 28 29  2  0
 21 30  1  0
 30 31  2  0
  8  3  1  0
 31  9  1  0
 15 11  1  0
 31 18  1  0
 29 23  1  0
  1 32  1  0
  1 33  1  0
  1 34  1  0
  2 35  1  6
  4 36  1  0
  5 37  1  0
  6 38  1  0
  7 39  1  0
 14 40  1  0
 16 41  1  0
 16 42  1  0
 16 43  1  0
 19 44  1  0
 20 45  1  0
 24 46  1  0
 25 47  1  0
 29 48  1  0
 30 49  1  0
M  END
>  <UniqueID>  (22) 
22

>  <SMILES>  (22) 
C[C@H](c1ccccn1)n1c(-c2nncn2C)nc2ccc(Oc3ccc(Cl)nc3)cc21

>  <Energy>  (22) 
141.71933811180787

>  <Genealogy>  (22) 
C[C@H](c1ccccn1)n1c(-c2nncn2C)nc2ccc(Oc3ccc(Cl)nc3)cc21 (chirality)
C[C@H](c1ccccn1)n1c(-c2nncn2C)nc2ccc(Oc3ccc(Cl)nc3)cc21 (3D coordinates assigned)
C[C@H](c1ccccn1)n1c(-c2nncn2C)nc2ccc(Oc3ccc(Cl)nc3)cc21 (optimized conformer: 141.71933811180787 kcal/mol)

>  <smiles>  (22) 
CC(c1ccccn1)n1c(-c2nncn2C)nc2ccc(Oc3ccc(Cl)nc3)cc21

>  <score_type>  (22) 
oracle

>  <origin>  (22) 
adg

>  <m_score__min__energy>  (22) 
-9.8000000000000007

>  <m_primary>  (22) 
energy

$$$$
22:0
     RDKit          3D

 49 50  0  0  0  0  0  0  0  0999 V2000
   -2.5220   20.6260  -28.8210 C   0  0  0  0  0  0  0  0  0  0  0  0
   -2.8570   21.3310  -30.1340 C   0  0  0  0  0  0  0  0  0  0  0  0
   -1.6530   21.8780  -30.8090 N   0  0  0  0  0  0  0  0  0  0  0  0
   -0.7900   22.6470  -29.8730 C   0  0  0  0  0  0  0  0  0  0  0  0
   -1.5490   23.8400  -29.2930 C   0  0  0  0  0  0  0  0  0  0  0  0
   -0.9010   20.7820  -31.4780 C   0  0  0  0  0  0  0  0  0  0  0  0
   -1.1070   20.8200  -33.0070 C   0  0  0  0  0  0  0  0  0  0  0  0
   -2.3990   21.3970  -33.4140 N   0  0  0  0  0  0  0  0  0  0  0  0
   -3.4570   20.4100  -33.4720 C   0  0  0  0  0  0  0  0  0  0  0  0
   -3.1730   19.1820  -33.9050 O   0  0  0  0  0  0  0  0  0  0  0  0
   -4.0710   18.2060  -33.9820 C   0  0  0  0  0  0  0  0  0  0  0  0
   -3.6870   16.9500  -34.4630 C   0  0  0  0  0  0  0  0  0  0  0  0
   -4.6220   15.9160  -34.5500 C   0  0  0  0  0  0  0  0  0  0  0  0
   -5.9480   16.1310  -34.1580 C   0  0  0  0  0  0  0  0  0  0  0  0
   -7.1170   14.8280  -34.2700 Cl  0  0  0  0  0  0  0  0  0  0  0  0
   -6.3410   17.3830  -33.6750 C   0  0  0  0  0  0  0  0  0  0  0  0
   -5.4050   18.4310  -33.5830 C   0  0  0  0  0  0  0  0  0  0  0  0
   -5.7500   19.7030  -33.0980 C   0  0  0  0  0  0  0  0  0  0  0  0
   -6.9320   19.9450  -32.7220 O   0  0  0  0  0  0  0  0  0  0  0  0
   -4.7700   20.7060  -33.0320 C   0  0  0  0  0  0  0  0  0  0  0  0
   -5.1140   22.0090  -32.5100 C   0  0  0  0  0  0  0  0  0  0  0  0
   -5.3990   23.0930  -32.0680 C   0  0  0  0  0  0  0  0  0  0  0  0
   -5.7430   24.4150  -31.5320 C   0  0  0  0  0  0  0  0  0  0  0  0
   -4.6430   24.9600  -30.8300 O   0  0  0  0  0  0  0  0  0  0  0  0
   -4.6790   24.5580  -29.4770 C   0  0  0  0  0  0  0  0  0  0  0  0
   -2.8242   21.2620  -27.9759 H   0  0  0  0  0  0  0  0  0  0  0  0
   -3.0615   19.6687  -28.7708 H   0  0  0  0  0  0  0  0  0  0  0  0
   -1.4391   20.4396  -28.7708 H   0  0  0  0  0  0  0  0  0  0  0  0
   -3.3421   20.6096  -30.8080 H   0  0  0  0  0  0  0  0  0  0  0  0
   -3.5215   22.1757  -29.8997 H   0  0  0  0  0  0  0  0  0  0  0  0
   -0.4716   21.9881  -29.0518 H   0  0  0  0  0  0  0  0  0  0  0  0
    0.0852   23.0199  -30.4252 H   0  0  0  0  0  0  0  0  0  0  0  0
   -1.5198   23.7941  -28.1943 H   0  0  0  0  0  0  0  0  0  0  0  0
   -1.0789   24.7744  -29.6336 H   0  0  0  0  0  0  0  0  0  0  0  0
   -2.5945   23.8101  -29.6336 H   0  0  0  0  0  0  0  0  0  0  0  0
    0.1707   20.8945  -31.2569 H   0  0  0  0  0  0  0  0  0  0  0  0
   -1.2749   19.8195  -31.0988 H   0  0  0  0  0  0  0  0  0  0  0  0
   -0.3015   21.4230  -33.4514 H   0  0  0  0  0  0  0  0  0  0  0  0
   -1.0936   19.7783  -33.3601 H   0  0  0  0  0  0  0  0  0  0  0  0
   -2.6770   22.1130  -32.7050 H   0  0  0  0  0  0  0  0  0  0  0  0
   -2.2710   21.8880  -34.3240 H   0  0  0  0  0  0  0  0  0  0  0  0
   -2.6462   16.7761  -34.7735 H   0  0  0  0  0  0  0  0  0  0  0  0
   -4.3150   14.9296  -34.9278 H   0  0  0  0  0  0  0  0  0  0  0  0
   -7.3836   17.5496  -33.3662 H   0  0  0  0  0  0  0  0  0  0  0  0
   -6.0118   25.0847  -32.3622 H   0  0  0  0  0  0  0  0  0  0  0  0
   -6.5931   24.3117  -30.8416 H   0  0  0  0  0  0  0  0  0  0  0  0
   -4.5997   25.4435  -28.8292 H   0  0  0  0  0  0  0  0  0  0  0  0
   -5.6272   24.0388  -29.2739 H   0  0  0  0  0  0  0  0  0  0  0  0
   -3.8381   23.8786  -29.2739 H   0  0  0  0  0  0  0  0  0  0  0  0
  1  2  1  0
  2  3  1  0
  3  4  1  0
  4  5  1  0
  3  6  1  0
  6  7  1  0
  7  8  1  0
  8  9  1  0
  9 10  1  0
 10 11  1  0
 11 12  2  0
 12 13  1  0
 13 14  2  0
 14 15  1  0
 14 16  1  0
 16 17  2  0
 17 18  1  0
 18 19  2  0
 18 20  1  0
 20 21  1  0
 21 22  3  0
 22 23  1  0
 23 24  1  0
 24 25  1  0
 20  9  2  0
 17 11  1  0
  1 26  1  0
  1 27  1  0
  1 28  1  0
  2 29  1  0
  2 30  1  0
  4 31  1  0
  4 32  1  0
  5 33  1  0
  5 34  1  0
  5 35  1  0
  6 36  1  0
  6 37  1  0
  7 38  1  0
  7 39  1  0
  8 40  1  0
  8 41  1  0
 12 42  1  0
 13 43  1  0
 16 44  1  0
 23 45  1  0
 23 46  1  0
 25 47  1  0
 25 48  1  0
 25 49  1  0
M  CHG  1   8   1
M  END
>  <UniqueID>  (23) 
23

>  <SMILES>  (23) 
CCN(CC)CC[NH2+]c1oc2ccc(Cl)cc2c(=O)c1C#CCOC

>  <Energy>  (23) 
54.99247945217086

>  <Genealogy>  (23) 
CCN(CC)CC[NH2+]c1oc2ccc(Cl)cc2c(=O)c1C#CCOC (protonated)
CCN(CC)CC[NH2+]c1oc2ccc(Cl)cc2c(=O)c1C#CCOC (3D coordinates assigned)
CCN(CC)CC[NH2+]c1oc2ccc(Cl)cc2c(=O)c1C#CCOC (optimized conformer: 54.99247945217086 kcal/mol)

>  <smiles>  (23) 
CCN(CC)CCNc1oc2ccc(Cl)cc2c(=O)c1C#CCOC

>  <score_type>  (23) 
oracle

>  <origin>  (23) 
adg

>  <m_score__min__energy>  (23) 
-6.7199999999999998

>  <m_primary>  (23) 
energy

$$$$
23:0
     RDKit          3D

 46 48  0  0  0  0  0  0  0  0999 V2000
   -5.6980   15.1190  -33.8380 C   0  0  0  0  0  0  0  0  0  0  0  0
   -5.2050   16.3410  -33.0830 C   0  0  0  0  0  0  0  0  0  0  0  0
   -5.2960   17.4870  -33.9200 O   0  0  0  0  0  0  0  0  0  0  0  0
   -5.6220   18.7260  -33.4060 N   0  0  0  0  0  0  0  0  0  0  0  0
   -4.7760   19.7750  -33.2750 C   0  0  0  0  0  0  0  0  0  0  0  0
   -3.3490   19.7670  -33.7320 C   0  0  0  0  0  0  0  0  0  0  0  0
   -5.4460   20.8570  -32.7000 C   0  0  0  0  0  0  0  0  0  0  0  0
   -4.8800   22.2080  -32.3570 C   0  0  0  0  0  0  0  0  0  0  0  0
   -5.8430   23.2750  -32.6680 N   0  0  0  0  0  0  0  0  0  0  0  0
   -6.2400   24.0610  -31.4880 C   0  0  0  0  0  0  0  0  0  0  0  0
   -5.9590   23.3280  -30.1670 C   0  0  0  0  0  0  0  0  0  0  0  0
   -4.6380   23.6920  -29.6630 N   0  0  0  0  0  0  0  0  0  0  0  0
   -3.8420   22.9040  -28.7340 C   0  0  0  0  0  0  0  0  0  0  0  0
   -2.5200   23.6890  -28.5560 C   0  0  0  0  0  0  0  0  0  0  0  0
   -2.6060   24.8570  -29.4290 N   0  0  0  0  0  0  0  0  0  0  0  0
   -3.8690   24.8090  -30.0520 C   0  0  0  0  0  0  0  0  0  0  0  0
   -4.2610   25.6720  -30.8810 O   0  0  0  0  0  0  0  0  0  0  0  0
   -6.7320   20.4100  -32.4530 C   0  0  0  0  0  0  0  0  0  0  0  0
   -7.8180   21.0440  -31.8480 C   0  0  0  0  0  0  0  0  0  0  0  0
   -9.0030   20.3050  -31.6860 C   0  0  0  0  0  0  0  0  0  0  0  0
   -9.0720   18.9610  -32.1120 C   0  0  0  0  0  0  0  0  0  0  0  0
   -7.9600   18.3440  -32.7140 C   0  0  0  0  0  0  0  0  0  0  0  0
   -6.8050   19.1080  -32.8880 C   0  0  0  0  0  0  0  0  0  0  0  0
   -6.0099   14.3458  -33.1204 H   0  0  0  0  0  0  0  0  0  0  0  0
   -6.5535   15.3991  -34.4702 H   0  0  0  0  0  0  0  0  0  0  0  0
   -4.8877   14.7270  -34.4702 H   0  0  0  0  0  0  0  0  0  0  0  0
   -5.8244   16.4921  -32.1866 H   0  0  0  0  0  0  0  0  0  0  0  0
   -4.1572   16.1884  -32.7848 H   0  0  0  0  0  0  0  0  0  0  0  0
   -2.6835   19.7633  -32.8561 H   0  0  0  0  0  0  0  0  0  0  0  0
   -3.1630   18.8678  -34.3377 H   0  0  0  0  0  0  0  0  0  0  0  0
   -3.1529   20.6641  -34.3377 H   0  0  0  0  0  0  0  0  0  0  0  0
   -4.6442   22.2375  -31.2830 H   0  0  0  0  0  0  0  0  0  0  0  0
   -3.9709   22.3701  -32.9546 H   0  0  0  0  0  0  0  0  0  0  0  0
   -5.4200   23.9090  -33.3850 H   0  0  0  0  0  0  0  0  0  0  0  0
   -5.6805   25.0081  -31.4912 H   0  0  0  0  0  0  0  0  0  0  0  0
   -7.3251   24.2302  -31.5505 H   0  0  0  0  0  0  0  0  0  0  0  0
   -6.7215   23.6089  -29.4256 H   0  0  0  0  0  0  0  0  0  0  0  0
   -5.9908   22.2427  -30.3434 H   0  0  0  0  0  0  0  0  0  0  0  0
   -4.3627   22.8037  -27.7702 H   0  0  0  0  0  0  0  0  0  0  0  0
   -3.6652   21.8852  -29.1093 H   0  0  0  0  0  0  0  0  0  0  0  0
   -2.4050   24.0057  -27.5089 H   0  0  0  0  0  0  0  0  0  0  0  0
   -1.6512   23.0653  -28.8132 H   0  0  0  0  0  0  0  0  0  0  0  0
   -7.7491   22.0881  -31.5088 H   0  0  0  0  0  0  0  0  0  0  0  0
   -9.8825   20.7774  -31.2241 H   0  0  0  0  0  0  0  0  0  0  0  0
  -10.0026   18.3915  -31.9722 H   0  0  0  0  0  0  0  0  0  0  0  0
   -7.9996   17.2933  -33.0371 H   0  0  0  0  0  0  0  0  0  0  0  0
  1  2  1  0
  2  3  1  0
  3  4  1  0
  4  5  1  0
  5  6  1  0
  5  7  2  0
  7  8  1  0
  8  9  1  0
  9 10  1  0
 10 11  1  0
 11 12  1  0
 12 13  1  0
 13 14  1  0
 14 15  1  0
 15 16  1  0
 16 17  2  0
  7 18  1  0
 18 19  2  0
 19 20  1  0
 20 21  2  0
 21 22  1  0
 22 23  2  0
 23  4  1  0
 16 12  1  0
 23 18  1  0
  1 24  1  0
  1 25  1  0
  1 26  1  0
  2 27  1  0
  2 28  1  0
  6 29  1  0
  6 30  1  0
  6 31  1  0
  8 32  1  0
  8 33  1  0
  9 34  1  0
 10 35  1  0
 10 36  1  0
 11 37  1  0
 11 38  1  0
 13 39  1  0
 13 40  1  0
 14 41  1  0
 14 42  1  0
 19 43  1  0
 20 44  1  0
 21 45  1  0
 22 46  1  0
M  CHG  1  15  -1
M  END
>  <UniqueID>  (24) 
24

>  <SMILES>  (24) 
CCOn1c(C)c(CNCCN2CC[N-]C2=O)c2ccccc21

>  <Energy>  (24) 
92.05915509856207

>  <Genealogy>  (24) 
CCOn1c(C)c(CNCCN2CC[N-]C2=O)c2ccccc21 (protonated)
CCOn1c(C)c(CNCCN2CC[N-]C2=O)c2ccccc21 (3D coordinates assigned)
CCOn1c(C)c(CNCCN2CC[N-]C2=O)c2ccccc21 (nonaromatic ring conformer: 92.05915509856207 kcal/mol)

>  <smiles>  (24) 
CCOn1c(C)c(CNCCN2CCNC2=O)c2ccccc21

>  <score_type>  (24) 
oracle

>  <origin>  (24) 
adg

>  <m_score__min__energy>  (24) 
-9.5399999999999991

>  <m_primary>  (24) 
energy

$$$$
24:0
     RDKit          3D

 50 52  0  0  0  0  0  0  0  0999 V2000
   -4.5940   24.6570  -30.4500 C   0  0  0  0  0  0  0  0  0  0  0  0
   -5.6240   23.6880  -30.9520 C   0  0  0  0  0  0  0  0  0  0  0  0
   -6.5750   24.0940  -31.8990 C   0  0  0  0  0  0  0  0  0  0  0  0
   -7.5580   23.2040  -32.3390 C   0  0  0  0  0  0  0  0  0  0  0  0
   -7.6280   21.9020  -31.8140 C   0  0  0  0  0  0  0  0  0  0  0  0
   -8.6920   20.9280  -32.2880 C   0  0  0  0  0  0  0  0  0  0  0  0
   -8.1750   19.7880  -33.0910 N   0  0  0  0  0  0  0  0  0  0  0  0
   -6.8520   20.0760  -33.7020 C   0  0  0  0  0  0  0  0  0  0  0  0
   -6.1890   18.7890  -34.2160 C   0  0  0  0  0  0  0  0  0  0  0  0
   -5.9570   17.7990  -33.1300 N   0  0  0  0  0  0  0  0  0  0  0  0
   -4.5370   17.7310  -32.7240 C   0  0  0  0  0  0  0  0  0  0  0  0
   -3.6350   17.5420  -33.9430 C   0  0  0  0  0  0  0  0  0  0  0  0
   -3.0480   18.7910  -34.3040 O   0  0  0  0  0  0  0  0  0  0  0  0
   -2.6940   19.7940  -33.3910 C   0  0  0  0  0  0  0  0  0  0  0  0
   -1.5580   19.6960  -32.5620 C   0  0  0  0  0  0  0  0  0  0  0  0
   -1.2490   20.7270  -31.6680 C   0  0  0  0  0  0  0  0  0  0  0  0
   -2.0660   21.8580  -31.5930 C   0  0  0  0  0  0  0  0  0  0  0  0
   -3.1930   21.9610  -32.4120 C   0  0  0  0  0  0  0  0  0  0  0  0
   -3.5040   20.9340  -33.3080 C   0  0  0  0  0  0  0  0  0  0  0  0
   -6.8290   18.0030  -31.9490 C   0  0  0  0  0  0  0  0  0  0  0  0
   -8.2240   18.4850  -32.3700 C   0  0  0  0  0  0  0  0  0  0  0  0
   -6.6620   21.4940  -30.8780 C   0  0  0  0  0  0  0  0  0  0  0  0
   -5.6790   22.3850  -30.4370 C   0  0  0  0  0  0  0  0  0  0  0  0
   -4.5950   24.6560  -29.3500 H   0  0  0  0  0  0  0  0  0  0  0  0
   -3.6006   24.3585  -30.8160 H   0  0  0  0  0  0  0  0  0  0  0  0
   -4.8314   25.6668  -30.8160 H   0  0  0  0  0  0  0  0  0  0  0  0
   -6.5470   25.1188  -32.2977 H   0  0  0  0  0  0  0  0  0  0  0  0
   -8.2826   23.5246  -33.1020 H   0  0  0  0  0  0  0  0  0  0  0  0
   -9.2027   20.5205  -31.4030 H   0  0  0  0  0  0  0  0  0  0  0  0
   -9.3621   21.4965  -32.9496 H   0  0  0  0  0  0  0  0  0  0  0  0
   -8.8450   19.6970  -33.8950 H   0  0  0  0  0  0  0  0  0  0  0  0
   -6.9885   20.7709  -34.5438 H   0  0  0  0  0  0  0  0  0  0  0  0
   -6.2020   20.5218  -32.9346 H   0  0  0  0  0  0  0  0  0  0  0  0
   -6.8419   18.3341  -34.9754 H   0  0  0  0  0  0  0  0  0  0  0  0
   -5.2100   19.0608  -34.6374 H   0  0  0  0  0  0  0  0  0  0  0  0
   -4.2624   18.6656  -32.2131 H   0  0  0  0  0  0  0  0  0  0  0  0
   -4.4030   16.8732  -32.0486 H   0  0  0  0  0  0  0  0  0  0  0  0
   -2.8405   16.8205  -33.7018 H   0  0  0  0  0  0  0  0  0  0  0  0
   -4.2338   17.1637  -34.7846 H   0  0  0  0  0  0  0  0  0  0  0  0
   -0.9129   18.8068  -32.6181 H   0  0  0  0  0  0  0  0  0  0  0  0
   -0.3614   20.6470  -31.0232 H   0  0  0  0  0  0  0  0  0  0  0  0
   -1.8218   22.6672  -30.8891 H   0  0  0  0  0  0  0  0  0  0  0  0
   -3.8364   22.8512  -32.3518 H   0  0  0  0  0  0  0  0  0  0  0  0
   -4.3911   21.0216  -33.9525 H   0  0  0  0  0  0  0  0  0  0  0  0
   -6.9263   17.0516  -31.4054 H   0  0  0  0  0  0  0  0  0  0  0  0
   -6.3731   18.7703  -31.3060 H   0  0  0  0  0  0  0  0  0  0  0  0
   -8.6748   17.7307  -33.0317 H   0  0  0  0  0  0  0  0  0  0  0  0
   -8.8223   18.6259  -31.4578 H   0  0  0  0  0  0  0  0  0  0  0  0
   -6.6796   20.4651  -30.4892 H   0  0  0  0  0  0  0  0  0  0  0  0
   -4.9458   22.0625  -29.6830 H   0  0  0  0  0  0  0  0  0  0  0  0
  1  2  1  0
  2  3  2  0
  3  4  1  0
  4  5  2  0
  5  6  1  0
  6  7  1  0
  7  8  1  0
  8  9  1  0
  9 10  1  0
 10 11  1  0
 11 12  1  0
 12 13  1  0
 13 14  1  0
 14 15  2  0
 15 16  1  0
 16 17  2  0
 17 18  1  0
 18 19  2  0
 10 20  1  0
 20 21  1  0
  5 22  1  0
 22 23  2  0
 23  2  1  0
 21  7  1  0
 19 14  1  0
  1 24  1  0
  1 25  1  0
  1 26  1  0
  3 27  1  0
  4 28  1  0
  6 29  1  0
  6 30  1  0
  7 31  1  0
  8 32  1  0
  8 33  1  0
  9 34  1  0
  9 35  1  0
 11 36  1  0
 11 37  1  0
 12 38  1  0
 12 39  1  0
 15 40  1  0
 16 41  1  0
 17 42  1  0
 18 43  1  0
 19 44  1  0
 20 45  1  0
 20 46  1  0
 21 47  1  0
 21 48  1  0
 22 49  1  0
 23 50  1  0
M  CHG  1   7   1
M  END
>  <UniqueID>  (25) 
25

>  <SMILES>  (25) 
Cc1ccc(C[NH+]2CCN(CCOc3ccccc3)CC2)cc1

>  <Energy>  (25) 
64.55742977058362

>  <Genealogy>  (25) 
Cc1ccc(C[NH+]2CCN(CCOc3ccccc3)CC2)cc1 (protonated)
Cc1ccc(C[NH+]2CCN(CCOc3ccccc3)CC2)cc1 (3D coordinates assigned)
Cc1ccc(C[NH+]2CCN(CCOc3ccccc3)CC2)cc1 (nonaromatic ring conformer: 64.55742977058362 kcal/mol)

>  <smiles>  (25) 
Cc1ccc(CN2CCN(CCOc3ccccc3)CC2)cc1

>  <score_type>  (25) 
oracle

>  <origin>  (25) 
adg

>  <m_score__min__energy>  (25) 
-8.4499999999999993

>  <m_primary>  (25) 
energy

$$$$
25:0
     RDKit          3D

 37 38  0  0  0  0  0  0  0  0999 V2000
   -3.1540   21.6720  -28.4810 C   0  0  0  0  0  0  0  0  0  0  0  0
   -2.5120   22.8720  -27.7860 C   0  0  0  0  0  0  0  0  0  0  0  0
   -3.2650   24.1810  -28.0640 C   0  0  0  0  0  0  0  0  0  0  0  0
   -2.7650   24.8590  -29.3020 C   0  0  0  0  0  0  0  0  0  0  0  0
   -1.6220   25.3880  -29.3040 O   0  0  0  0  0  0  0  0  0  0  0  0
   -3.6300   24.9770  -30.4390 N   0  0  0  0  0  0  0  0  0  0  0  0
   -4.6350   24.0390  -30.8490 C   0  0  0  0  0  0  0  0  0  0  0  0
   -6.0120   24.2370  -30.5550 C   0  0  0  0  0  0  0  0  0  0  0  0
   -6.9800   23.3160  -30.9930 C   0  0  0  0  0  0  0  0  0  0  0  0
   -6.5450   22.2110  -31.7230 C   0  0  0  0  0  0  0  0  0  0  0  0
   -5.2220   22.0250  -32.0270 C   0  0  0  0  0  0  0  0  0  0  0  0
   -4.2380   22.9260  -31.6170 C   0  0  0  0  0  0  0  0  0  0  0  0
   -5.0890   20.9130  -32.7780 N   0  0  0  0  0  0  0  0  0  0  0  0
   -3.8740   20.3960  -33.4040 C   0  0  0  0  0  0  0  0  0  0  0  0
   -6.3580   20.4620  -32.9320 C   0  0  0  0  0  0  0  0  0  0  0  0
   -6.6590   19.4540  -33.6260 O   0  0  0  0  0  0  0  0  0  0  0  0
   -7.2750   21.2210  -32.2780 N   0  0  0  0  0  0  0  0  0  0  0  0
   -8.7310   21.0710  -32.2970 C   0  0  0  0  0  0  0  0  0  0  0  0
   -9.1190   19.6360  -31.9620 C   0  0  0  0  0  0  0  0  0  0  0  0
   -3.5305   20.9682  -27.7241 H   0  0  0  0  0  0  0  0  0  0  0  0
   -3.9887   22.0157  -29.1096 H   0  0  0  0  0  0  0  0  0  0  0  0
   -2.4049   21.1683  -29.1096 H   0  0  0  0  0  0  0  0  0  0  0  0
   -2.5070   22.6909  -26.7010 H   0  0  0  0  0  0  0  0  0  0  0  0
   -1.4912   22.9818  -28.1809 H   0  0  0  0  0  0  0  0  0  0  0  0
   -4.3347   23.9567  -28.1884 H   0  0  0  0  0  0  0  0  0  0  0  0
   -3.0988   24.8579  -27.2130 H   0  0  0  0  0  0  0  0  0  0  0  0
   -6.3235   25.1205  -29.9785 H   0  0  0  0  0  0  0  0  0  0  0  0
   -8.0464   23.4628  -30.7668 H   0  0  0  0  0  0  0  0  0  0  0  0
   -3.1825   22.7717  -31.8857 H   0  0  0  0  0  0  0  0  0  0  0  0
   -3.1603   20.0923  -32.6240 H   0  0  0  0  0  0  0  0  0  0  0  0
   -4.1252   19.5268  -34.0296 H   0  0  0  0  0  0  0  0  0  0  0  0
   -3.4219   21.1797  -34.0296 H   0  0  0  0  0  0  0  0  0  0  0  0
   -9.1755   21.7499  -31.5544 H   0  0  0  0  0  0  0  0  0  0  0  0
   -9.1030   21.3169  -33.3025 H   0  0  0  0  0  0  0  0  0  0  0  0
   -9.1529   19.5108  -30.8697 H   0  0  0  0  0  0  0  0  0  0  0  0
  -10.1091   19.4151  -32.3872 H   0  0  0  0  0  0  0  0  0  0  0  0
   -8.3751   18.9462  -32.3872 H   0  0  0  0  0  0  0  0  0  0  0  0
  1  2  1  0
  2  3  1  0
  3  4  1  0
  4  5  2  0
  4  6  1  0
  6  7  1  0
  7  8  2  0
  8  9  1  0
  9 10  2  0
 10 11  1  0
 11 12  2  0
 11 13  1  0
 13 14  1  0
 13 15  1  0
 15 16  2  0
 15 17  1  0
 17 18  1  0
 18 19  1  0
 12  7  1  0
 17 10  1  0
  1 20  1  0
  1 21  1  0
  1 22  1  0
  2 23  1  0
  2 24  1  0
  3 25  1  0
  3 26  1  0
  8 27  1  0
  9 28  1  0
 12 29  1  0
 14 30  1  0
 14 31  1  0
 14 32  1  0
 18 33  1  0
 18 34  1  0
 19 35  1  0
 19 36  1  0
 19 37  1  0
M  CHG  1   6  -1
M  END
>  <UniqueID>  (26) 
26

>  <SMILES>  (26) 
CCCC(=O)[N-]c1ccc2c(c1)n(C)c(=O)n2CC

>  <Energy>  (26) 
71.71584303064313

>  <Genealogy>  (26) 
CCCC(=O)[N-]c1ccc2c(c1)n(C)c(=O)n2CC (protonated)
CCCC(=O)[N-]c1ccc2c(c1)n(C)c(=O)n2CC (3D coordinates assigned)
CCCC(=O)[N-]c1ccc2c(c1)n(C)c(=O)n2CC (optimized conformer: 71.71584303064313 kcal/mol)

>  <smiles>  (26) 
CCCC(=O)Nc1ccc2c(c1)n(C)c(=O)n2CC

>  <score_type>  (26) 
oracle

>  <origin>  (26) 
adg

>  <m_score__min__energy>  (26) 
-8.8699999999999992

>  <m_primary>  (26) 
energy

$$$$
26:0
     RDKit          3D

 27 28  0  0  0  0  0  0  0  0999 V2000
   -2.1890   23.7520  -28.9920 C   0  0  0  0  0  0  0  0  0  0  0  0
   -3.2870   24.0900  -29.9420 C   0  0  0  0  0  0  0  0  0  0  0  0
   -4.2370   23.2170  -30.4290 C   0  0  0  0  0  0  0  0  0  0  0  0
   -5.0210   24.0300  -31.2300 C   0  0  0  0  0  0  0  0  0  0  0  0
   -6.0890   23.6940  -31.8950 N   0  0  0  0  0  0  0  0  0  0  0  0
   -7.3970   23.4140  -31.3710 C   0  0  0  0  0  0  0  0  0  0  0  0
   -8.4040   23.7870  -32.0270 O   0  0  0  0  0  0  0  0  0  0  0  0
   -7.6070   22.6090  -30.1240 C   0  0  0  0  0  0  0  0  0  0  0  0
   -8.6490   21.6630  -30.3410 O   0  0  0  0  0  0  0  0  0  0  0  0
   -8.9280   21.1250  -31.6000 C   0  0  0  0  0  0  0  0  0  0  0  0
   -9.8090   21.6440  -32.3400 O   0  0  0  0  0  0  0  0  0  0  0  0
   -8.1810   19.9510  -32.0600 C   0  0  0  0  0  0  0  0  0  0  0  0
   -8.3610   18.6490  -31.6290 C   0  0  0  0  0  0  0  0  0  0  0  0
   -7.4470   17.8930  -32.3320 C   0  0  0  0  0  0  0  0  0  0  0  0
   -6.7720   18.7820  -33.1440 C   0  0  0  0  0  0  0  0  0  0  0  0
   -5.3760   18.3310  -34.3610 Br  0  0  0  0  0  0  0  0  0  0  0  0
   -7.2290   19.9990  -32.9620 O   0  0  0  0  0  0  0  0  0  0  0  0
   -4.5650   25.2960  -31.1910 N   0  0  0  0  0  0  0  0  0  0  0  0
   -3.5230   25.2930  -30.4120 O   0  0  0  0  0  0  0  0  0  0  0  0
   -2.5506   23.8633  -27.9591 H   0  0  0  0  0  0  0  0  0  0  0  0
   -1.8674   22.7133  -29.1580 H   0  0  0  0  0  0  0  0  0  0  0  0
   -1.3389   24.4300  -29.1580 H   0  0  0  0  0  0  0  0  0  0  0  0
   -4.3452   22.1405  -30.2302 H   0  0  0  0  0  0  0  0  0  0  0  0
   -6.6776   22.0790  -29.8686 H   0  0  0  0  0  0  0  0  0  0  0  0
   -7.8855   23.2788  -29.2971 H   0  0  0  0  0  0  0  0  0  0  0  0
   -9.0834   18.2910  -30.8807 H   0  0  0  0  0  0  0  0  0  0  0  0
   -7.2886   16.8068  -32.2606 H   0  0  0  0  0  0  0  0  0  0  0  0
  1  2  1  0
  2  3  2  0
  3  4  1  0
  4  5  2  3
  5  6  1  0
  6  7  2  0
  6  8  1  0
  8  9  1  0
  9 10  1  0
 10 11  2  0
 10 12  1  0
 12 13  2  0
 13 14  1  0
 14 15  2  0
 15 16  1  0
 15 17  1  0
  4 18  1  0
 18 19  1  0
 19  2  1  0
 17 12  1  0
  1 20  1  0
  1 21  1  0
  1 22  1  0
  3 23  1  0
  8 24  1  0
  8 25  1  0
 13 26  1  0
 14 27  1  0
M  CHG  1  18  -1
M  END
>  <UniqueID>  (27) 
27

>  <SMILES>  (27) 
Cc1cc(=NC(=O)COC(=O)c2ccc(Br)o2)[n-]o1

>  <Energy>  (27) 
85.25160070661885

>  <Genealogy>  (27) 
Cc1cc(=NC(=O)COC(=O)c2ccc(Br)o2)[n-]o1 (protonated)
Cc1cc(=NC(=O)COC(=O)c2ccc(Br)o2)[n-]o1 (3D coordinates assigned)
Cc1cc(=NC(=O)COC(=O)c2ccc(Br)o2)[n-]o1 (optimized conformer: 85.25160070661885 kcal/mol)

>  <smiles>  (27) 
Cc1cc(=NC(=O)COC(=O)c2ccc(Br)o2)[nH]o1

>  <score_type>  (27) 
oracle

>  <origin>  (27) 
adg

>  <m_score__min__energy>  (27) 
-8.7400000000000002

>  <m_primary>  (27) 
energy

$$$$
27:0
     RDKit          3D

 45 46  0  0  0  0  0  0  0  0999 V2000
   -3.3620   16.2110  -33.2640 C   0  0  0  0  0  0  0  0  0  0  0  0
   -3.3730   17.7510  -34.1550 S   0  0  0  0  0  0  0  0  0  0  0  0
   -2.8580   19.0860  -33.0860 C   0  0  0  0  0  0  0  0  0  0  0  0
   -1.9840   20.1080  -33.8330 C   0  0  0  0  0  0  0  0  0  0  0  0
   -2.5520   21.4700  -33.8440 N   0  0  0  0  0  0  0  0  0  0  0  0
   -3.1400   21.8740  -32.5460 C   0  0  0  0  0  0  0  0  0  0  0  0
   -4.6120   22.2900  -32.6910 C   0  0  0  0  0  0  0  0  0  0  0  0
   -5.0180   23.2080  -31.5700 C   0  0  0  0  0  0  0  0  0  0  0  0
   -4.0670   23.6570  -30.6380 C   0  0  0  0  0  0  0  0  0  0  0  0
   -4.4420   24.5350  -29.6170 C   0  0  0  0  0  0  0  0  0  0  0  0
   -5.7630   24.9790  -29.5250 C   0  0  0  0  0  0  0  0  0  0  0  0
   -6.7120   24.5480  -30.4550 C   0  0  0  0  0  0  0  0  0  0  0  0
   -6.3430   23.6690  -31.4780 C   0  0  0  0  0  0  0  0  0  0  0  0
   -4.9490   18.0610  -34.9440 C   0  0  0  0  0  0  0  0  0  0  0  0
   -6.0160   18.3970  -33.9300 C   0  0  0  0  0  0  0  0  0  0  0  0
   -6.1410   19.7290  -33.4940 C   0  0  0  0  0  0  0  0  0  0  0  0
   -7.1350   20.0880  -32.5780 C   0  0  0  0  0  0  0  0  0  0  0  0
   -8.0100   19.1210  -32.0840 C   0  0  0  0  0  0  0  0  0  0  0  0
   -7.8940   17.7940  -32.4980 C   0  0  0  0  0  0  0  0  0  0  0  0
   -6.9030   17.4220  -33.4160 C   0  0  0  0  0  0  0  0  0  0  0  0
   -6.8010   15.7240  -33.8710 Cl  0  0  0  0  0  0  0  0  0  0  0  0
   -3.3634   16.4130  -32.1827 H   0  0  0  0  0  0  0  0  0  0  0  0
   -4.2560   15.6275  -33.5292 H   0  0  0  0  0  0  0  0  0  0  0  0
   -2.4598   15.6404  -33.5292 H   0  0  0  0  0  0  0  0  0  0  0  0
   -3.7515   19.5970  -32.6981 H   0  0  0  0  0  0  0  0  0  0  0  0
   -2.2615   18.6586  -32.2666 H   0  0  0  0  0  0  0  0  0  0  0  0
   -0.9984   20.1455  -33.3460 H   0  0  0  0  0  0  0  0  0  0  0  0
   -1.9192   19.7754  -34.8795 H   0  0  0  0  0  0  0  0  0  0  0  0
   -3.3160   21.4750  -34.5620 H   0  0  0  0  0  0  0  0  0  0  0  0
   -1.8360   22.1560  -34.1780 H   0  0  0  0  0  0  0  0  0  0  0  0
   -3.0766   21.0267  -31.8473 H   0  0  0  0  0  0  0  0  0  0  0  0
   -2.5755   22.7399  -32.1697 H   0  0  0  0  0  0  0  0  0  0  0  0
   -4.7474   22.8102  -33.6507 H   0  0  0  0  0  0  0  0  0  0  0  0
   -5.2399   21.3876  -32.6542 H   0  0  0  0  0  0  0  0  0  0  0  0
   -3.0237   23.3163  -30.7122 H   0  0  0  0  0  0  0  0  0  0  0  0
   -3.6955   24.8768  -28.8849 H   0  0  0  0  0  0  0  0  0  0  0  0
   -6.0563   25.6685  -28.7197 H   0  0  0  0  0  0  0  0  0  0  0  0
   -7.7514   24.9007  -30.3825 H   0  0  0  0  0  0  0  0  0  0  0  0
   -7.0914   23.3373  -32.2127 H   0  0  0  0  0  0  0  0  0  0  0  0
   -4.8402   18.9043  -35.6418 H   0  0  0  0  0  0  0  0  0  0  0  0
   -5.2540   17.1491  -35.4783 H   0  0  0  0  0  0  0  0  0  0  0  0
   -5.4506   20.4949  -33.8771 H   0  0  0  0  0  0  0  0  0  0  0  0
   -7.2266   21.1331  -32.2472 H   0  0  0  0  0  0  0  0  0  0  0  0
   -8.7935   19.4054  -31.3662 H   0  0  0  0  0  0  0  0  0  0  0  0
   -8.5846   17.0352  -32.1015 H   0  0  0  0  0  0  0  0  0  0  0  0
  2  1  1  1
  2  3  1  0
  3  4  1  0
  4  5  1  0
  5  6  1  0
  6  7  1  0
  7  8  1  0
  8  9  2  0
  9 10  1  0
 10 11  2  0
 11 12  1  0
 12 13  2  0
  2 14  1  0
 14 15  1  0
 15 16  2  0
 16 17  1  0
 17 18  2  0
 18 19  1  0
 19 20  2  0
 20 21  1  0
 13  8  1  0
 20 15  1  0
  1 22  1  0
  1 23  1  0
  1 24  1  0
  3 25  1  0
  3 26  1  0
  4 27  1  0
  4 28  1  0
  5 29  1  0
  5 30  1  0
  6 31  1  0
  6 32  1  0
  7 33  1  0
  7 34  1  0
  9 35  1  0
 10 36  1  0
 11 37  1  0
 12 38  1  0
 13 39  1  0
 14 40  1  0
 14 41  1  0
 16 42  1  0
 17 43  1  0
 18 44  1  0
 19 45  1  0
M  CHG  2   2   1   5   1
M  END
>  <UniqueID>  (28) 
28

>  <SMILES>  (28) 
C[S@+](CC[NH2+]CCc1ccccc1)Cc1ccccc1Cl

>  <Energy>  (28) 
34.203105814979814

>  <Genealogy>  (28) 
C[S+](CC[NH2+]CCc1ccccc1)Cc1ccccc1Cl (protonated)
C[S@+](CC[NH2+]CCc1ccccc1)Cc1ccccc1Cl (chirality)
C[S@+](CC[NH2+]CCc1ccccc1)Cc1ccccc1Cl (3D coordinates assigned)
C[S@+](CC[NH2+]CCc1ccccc1)Cc1ccccc1Cl (optimized conformer: 34.203105814979814 kcal/mol)

>  <smiles>  (28) 
C[S+](CCNCCc1ccccc1)Cc1ccccc1Cl

>  <score_type>  (28) 
oracle

>  <origin>  (28) 
adg

>  <m_score__min__energy>  (28) 
-6.6699999999999999

>  <m_primary>  (28) 
energy

$$$$
28:0
     RDKit          3D

 68 72  0  0  0  0  0  0  0  0999 V2000
   -2.8200   20.6880  -28.3790 C   0  0  0  0  0  0  0  0  0  0  0  0
   -2.7100   20.8540  -29.8960 C   0  0  0  0  0  0  0  0  0  0  0  0
   -1.8520   21.9980  -30.2870 N   0  0  0  0  0  0  0  0  0  0  0  0
   -2.5670   23.2800  -30.0980 C   0  0  0  0  0  0  0  0  0  0  0  0
   -2.0150   24.0720  -28.9120 C   0  0  0  0  0  0  0  0  0  0  0  0
   -1.1850   21.8580  -31.6110 C   0  0  0  0  0  0  0  0  0  0  0  0
   -1.8250   20.8450  -32.5890 C   0  0  0  0  0  0  0  0  0  0  0  0
   -3.0490   21.3640  -33.1940 N   0  0  0  0  0  0  0  0  0  0  0  0
   -4.2900   20.6580  -33.0480 C   0  0  0  0  0  0  0  0  0  0  0  0
   -5.3680   21.2180  -32.3300 C   0  0  0  0  0  0  0  0  0  0  0  0
   -6.5640   20.4710  -32.1550 C   0  0  0  0  0  0  0  0  0  0  0  0
   -6.6910   19.2120  -32.7220 N   0  0  0  0  0  0  0  0  0  0  0  0
   -7.9790   18.5010  -32.7210 C   0  0  0  0  0  0  0  0  0  0  0  0
   -5.5890   18.6470  -33.3130 C   0  0  0  0  0  0  0  0  0  0  0  0
   -4.4330   19.3630  -33.5390 C   0  0  0  0  0  0  0  0  0  0  0  0
   -3.4260   18.5230  -34.2710 C   0  0  0  0  0  0  0  0  0  0  0  0
   -4.1080   17.2380  -34.3820 N   0  0  0  0  0  0  0  0  0  0  0  0
   -5.3390   17.2960  -33.8280 C   0  0  0  0  0  0  0  0  0  0  0  0
   -6.0850   16.1650  -33.6720 N   0  0  0  0  0  0  0  0  0  0  0  0
   -5.6340   14.9810  -34.1810 C   0  0  0  0  0  0  0  0  0  0  0  0
   -6.4090   13.8150  -34.0630 C   0  0  0  0  0  0  0  0  0  0  0  0
   -5.9450   12.6040  -34.5840 C   0  0  0  0  0  0  0  0  0  0  0  0
   -4.7030   12.5420  -35.2220 C   0  0  0  0  0  0  0  0  0  0  0  0
   -3.9150   13.6890  -35.3430 C   0  0  0  0  0  0  0  0  0  0  0  0
   -4.3690   14.9150  -34.8250 C   0  0  0  0  0  0  0  0  0  0  0  0
   -3.5980   16.0890  -34.8970 C   0  0  0  0  0  0  0  0  0  0  0  0
   -2.4490   16.0840  -35.4200 O   0  0  0  0  0  0  0  0  0  0  0  0
   -7.7160   21.1060  -31.3900 C   0  0  0  0  0  0  0  0  0  0  0  0
   -7.3410   22.2120  -30.5860 O   0  0  0  0  0  0  0  0  0  0  0  0
   -6.5800   23.1820  -31.2900 C   0  0  0  0  0  0  0  0  0  0  0  0
   -6.3290   24.3470  -30.3170 C   0  0  0  0  0  0  0  0  0  0  0  0
   -7.3330   23.7500  -32.5230 C   0  0  0  0  0  0  0  0  0  0  0  0
   -5.2220   22.5780  -31.6980 C   0  0  0  0  0  0  0  0  0  0  0  0
   -2.2784   21.5054  -27.8805 H   0  0  0  0  0  0  0  0  0  0  0  0
   -3.8790   20.7158  -28.0829 H   0  0  0  0  0  0  0  0  0  0  0  0
   -2.3817   19.7235  -28.0829 H   0  0  0  0  0  0  0  0  0  0  0  0
   -2.2834   19.9332  -30.3205 H   0  0  0  0  0  0  0  0  0  0  0  0
   -3.7210   21.0505  -30.2823 H   0  0  0  0  0  0  0  0  0  0  0  0
   -2.4595   23.8849  -31.0104 H   0  0  0  0  0  0  0  0  0  0  0  0
   -3.6240   23.0537  -29.8942 H   0  0  0  0  0  0  0  0  0  0  0  0
   -2.3426   23.6020  -27.9729 H   0  0  0  0  0  0  0  0  0  0  0  0
   -0.9159   24.0783  -28.9550 H   0  0  0  0  0  0  0  0  0  0  0  0
   -2.3895   25.1054  -28.9550 H   0  0  0  0  0  0  0  0  0  0  0  0
   -1.1911   22.8448  -32.0969 H   0  0  0  0  0  0  0  0  0  0  0  0
   -0.1791   21.4681  -31.3965 H   0  0  0  0  0  0  0  0  0  0  0  0
   -1.1032   20.6182  -33.3874 H   0  0  0  0  0  0  0  0  0  0  0  0
   -2.0857   19.9414  -32.0184 H   0  0  0  0  0  0  0  0  0  0  0  0
   -2.9530   21.9860  -34.0280 H   0  0  0  0  0  0  0  0  0  0  0  0
   -8.2994   18.3241  -31.6837 H   0  0  0  0  0  0  0  0  0  0  0  0
   -8.7344   19.1099  -33.2393 H   0  0  0  0  0  0  0  0  0  0  0  0
   -7.8663   17.5373  -33.2393 H   0  0  0  0  0  0  0  0  0  0  0  0
   -3.2045   18.9426  -35.2634 H   0  0  0  0  0  0  0  0  0  0  0  0
   -2.4533   18.4607  -33.7612 H   0  0  0  0  0  0  0  0  0  0  0  0
   -6.9780   16.1740  -33.1390 H   0  0  0  0  0  0  0  0  0  0  0  0
   -7.3855   13.8555  -33.5582 H   0  0  0  0  0  0  0  0  0  0  0  0
   -6.5595   11.6964  -34.4916 H   0  0  0  0  0  0  0  0  0  0  0  0
   -4.3445   11.5857  -35.6306 H   0  0  0  0  0  0  0  0  0  0  0  0
   -2.9375   13.6331  -35.8444 H   0  0  0  0  0  0  0  0  0  0  0  0
   -8.4666   21.4476  -32.1179 H   0  0  0  0  0  0  0  0  0  0  0  0
   -8.1039   20.3360  -30.7068 H   0  0  0  0  0  0  0  0  0  0  0  0
   -6.4073   23.9835  -29.2818 H   0  0  0  0  0  0  0  0  0  0  0  0
   -5.3221   24.7561  -30.4868 H   0  0  0  0  0  0  0  0  0  0  0  0
   -7.0781   25.1344  -30.4868 H   0  0  0  0  0  0  0  0  0  0  0  0
   -8.1685   24.3802  -32.1841 H   0  0  0  0  0  0  0  0  0  0  0  0
   -6.6412   24.3532  -33.1293 H   0  0  0  0  0  0  0  0  0  0  0  0
   -7.7229   22.9191  -33.1293 H   0  0  0  0  0  0  0  0  0  0  0  0
   -4.7369   23.2528  -32.4187 H   0  0  0  0  0  0  0  0  0  0  0  0
   -4.6175   22.4624  -30.7863 H   0  0  0  0  0  0  0  0  0  0  0  0
  1  2  1  0
  2  3  1  0
  3  4  1  0
  4  5  1  0
  3  6  1  0
  6  7  1  0
  7  8  1  0
  8  9  1  0
  9 10  2  0
 10 11  1  0
 11 12  2  0
 12 13  1  0
 12 14  1  0
 14 15  2  0
 15 16  1  0
 16 17  1  0
 17 18  1  0
 18 19  2  0
 19 20  1  0
 20 21  2  0
 21 22  1  0
 22 23  2  0
 23 24  1  0
 24 25  2  0
 25 26  1  0
 26 27  2  0
 11 28  1  0
 28 29  1  0
 29 30  1  0
 30 31  1  0
 30 32  1  0
 30 33  1  0
 15  9  1  0
 26 17  1  0
 33 10  1  0
 18 14  1  0
 25 20  1  0
  1 34  1  0
  1 35  1  0
  1 36  1  0
  2 37  1  0
  2 38  1  0
  4 39  1  0
  4 40  1  0
  5 41  1  0
  5 42  1  0
  5 43  1  0
  6 44  1  0
  6 45  1  0
  7 46  1  0
  7 47  1  0
  8 48  1  0
 13 49  1  0
 13 50  1  0
 13 51  1  0
 16 52  1  0
 16 53  1  0
 19 54  1  0
 21 55  1  0
 22 56  1  0
 23 57  1  0
 24 58  1  0
 28 59  1  0
 28 60  1  0
 31 61  1  0
 31 62  1  0
 31 63  1  0
 32 64  1  0
 32 65  1  0
 32 66  1  0
 33 67  1  0
 33 68  1  0
M  CHG  2  12   1  19   1
M  END
>  <UniqueID>  (29) 
29

>  <SMILES>  (29) 
CCN(CC)CCNc1c2c([n+](C)c3c1Cn1c-3[nH+]c3ccccc3c1=O)COC(C)(C)C2

>  <Energy>  (29) 
125.45611550150008

>  <Genealogy>  (29) 
CCN(CC)CCNc1c2c([n+](C)c3c1Cn1c-3[nH+]c3ccccc3c1=O)COC(C)(C)C2 (protonated)
CCN(CC)CCNc1c2c([n+](C)c3c1Cn1c-3[nH+]c3ccccc3c1=O)COC(C)(C)C2 (3D coordinates assigned)
CCN(CC)CCNc1c2c([n+](C)c3c1Cn1c-3[nH+]c3ccccc3c1=O)COC(C)(C)C2 (nonaromatic ring conformer: 125.45611550150008 kcal/mol)

>  <smiles>  (29) 
CCN(CC)CCNc1c2c([n+](C)c3c1Cn1c-3nc3ccccc3c1=O)COC(C)(C)C2

>  <score_type>  (29) 
oracle

>  <origin>  (29) 
adg

>  <m_score__min__energy>  (29) 
-7.9000000000000004

>  <m_primary>  (29) 
energy

$$$$
29:0
     RDKit          3D

 49 50  0  0  0  0  0  0  0  0999 V2000
   -8.9080   21.8930  -30.8630 C   0  0  0  0  0  0  0  0  0  0  0  0
   -8.4450   23.1240  -31.6380 C   0  0  0  0  0  0  0  0  0  0  0  0
   -6.9390   23.2690  -31.5810 C   0  0  0  0  0  0  0  0  0  0  0  0
   -6.4020   24.4400  -31.0250 C   0  0  0  0  0  0  0  0  0  0  0  0
   -5.0180   24.6030  -30.9610 C   0  0  0  0  0  0  0  0  0  0  0  0
   -4.5310   25.6410  -30.4440 O   0  0  0  0  0  0  0  0  0  0  0  0
   -4.2080   23.6670  -31.4420 O   0  0  0  0  0  0  0  0  0  0  0  0
   -4.6540   22.5490  -32.0030 C   0  0  0  0  0  0  0  0  0  0  0  0
   -3.7340   21.6200  -32.4980 C   0  0  0  0  0  0  0  0  0  0  0  0
   -4.1650   20.4400  -33.1130 C   0  0  0  0  0  0  0  0  0  0  0  0
   -3.1890   19.5560  -33.6050 O   0  0  0  0  0  0  0  0  0  0  0  0
   -1.9880   19.1870  -32.9270 C   0  0  0  0  0  0  0  0  0  0  0  0
   -1.3310   17.9920  -33.6130 C   0  0  0  0  0  0  0  0  0  0  0  0
   -2.0670   17.6710  -34.7760 O   0  0  0  0  0  0  0  0  0  0  0  0
   -2.2900   16.2780  -34.8350 C   0  0  0  0  0  0  0  0  0  0  0  0
   -3.7760   15.9880  -34.5760 C   0  0  0  0  0  0  0  0  0  0  0  0
   -4.5010   17.1730  -34.0430 N   0  0  1  0  0  0  0  0  0  0  0  0
   -5.5740   17.5770  -34.9750 C   0  0  0  0  0  0  0  0  0  0  0  0
   -5.0890   16.8870  -32.7080 C   0  0  0  0  0  0  0  0  0  0  0  0
   -6.6080   17.0870  -32.6910 C   0  0  0  0  0  0  0  0  0  0  0  0
   -5.5460   20.1830  -33.2090 C   0  0  0  0  0  0  0  0  0  0  0  0
   -6.4760   21.1000  -32.7100 C   0  0  0  0  0  0  0  0  0  0  0  0
   -6.0460   22.2970  -32.1020 C   0  0  0  0  0  0  0  0  0  0  0  0
   -8.8339   22.0901  -29.7834 H   0  0  0  0  0  0  0  0  0  0  0  0
   -9.9525   21.6671  -31.1236 H   0  0  0  0  0  0  0  0  0  0  0  0
   -8.2712   21.0347  -31.1236 H   0  0  0  0  0  0  0  0  0  0  0  0
   -8.7570   23.0257  -32.6882 H   0  0  0  0  0  0  0  0  0  0  0  0
   -8.8995   24.0157  -31.1816 H   0  0  0  0  0  0  0  0  0  0  0  0
   -7.0692   25.2259  -30.6413 H   0  0  0  0  0  0  0  0  0  0  0  0
   -2.6565   21.8198  -32.4025 H   0  0  0  0  0  0  0  0  0  0  0  0
   -1.2910   20.0379  -32.9367 H   0  0  0  0  0  0  0  0  0  0  0  0
   -2.2353   18.9104  -31.8914 H   0  0  0  0  0  0  0  0  0  0  0  0
   -0.2971   18.2469  -33.8888 H   0  0  0  0  0  0  0  0  0  0  0  0
   -1.3187   17.1301  -32.9297 H   0  0  0  0  0  0  0  0  0  0  0  0
   -2.0111   15.9035  -35.8310 H   0  0  0  0  0  0  0  0  0  0  0  0
   -1.6788   15.7753  -34.0710 H   0  0  0  0  0  0  0  0  0  0  0  0
   -4.2464   15.6823  -35.5222 H   0  0  0  0  0  0  0  0  0  0  0  0
   -3.8353   15.1909  -33.8203 H   0  0  0  0  0  0  0  0  0  0  0  0
   -3.8470   17.9880  -33.9550 H   0  0  0  0  0  0  0  0  0  0  0  0
   -6.4525   17.9078  -34.4015 H   0  0  0  0  0  0  0  0  0  0  0  0
   -5.2177   18.4025  -35.6087 H   0  0  0  0  0  0  0  0  0  0  0  0
   -5.8506   16.7215  -35.6087 H   0  0  0  0  0  0  0  0  0  0  0  0
   -4.8657   15.8442  -32.4384 H   0  0  0  0  0  0  0  0  0  0  0  0
   -4.6473   17.5898  -31.9863 H   0  0  0  0  0  0  0  0  0  0  0  0
   -6.9601   17.1334  -31.6499 H   0  0  0  0  0  0  0  0  0  0  0  0
   -6.8600   18.0261  -33.2054 H   0  0  0  0  0  0  0  0  0  0  0  0
   -7.0945   16.2452  -33.2054 H   0  0  0  0  0  0  0  0  0  0  0  0
   -5.8962   19.2529  -33.6806 H   0  0  0  0  0  0  0  0  0  0  0  0
   -7.5518   20.8858  -32.7925 H   0  0  0  0  0  0  0  0  0  0  0  0
  1  2  1  0
  2  3  1  0
  3  4  2  0
  4  5  1  0
  5  6  2  0
  5  7  1  0
  7  8  1  0
  8  9  2  0
  9 10  1  0
 10 11  1  0
 11 12  1  0
 12 13  1  0
 13 14  1  0
 14 15  1  0
 15 16  1  0
 16 17  1  0
 17 18  1  0
 17 19  1  0
 19 20  1  0
 10 21  2  0
 21 22  1  0
 22 23  2  0
 23  3  1  0
 23  8  1  0
  1 24  1  0
  1 25  1  0
  1 26  1  0
  2 27  1  0
  2 28  1  0
  4 29  1  0
  9 30  1  0
 12 31  1  0
 12 32  1  0
 13 33  1  0
 13 34  1  0
 15 35  1  0
 15 36  1  0
 16 37  1  0
 16 38  1  0
 17 39  1  1
 18 40  1  0
 18 41  1  0
 18 42  1  0
 19 43  1  0
 19 44  1  0
 20 45  1  0
 20 46  1  0
 20 47  1  0
 21 48  1  0
 22 49  1  0
M  CHG  1  17   1
M  END
>  <UniqueID>  (30) 
30

>  <SMILES>  (30) 
CCc1cc(=O)oc2cc(OCCOCC[N@@H+](C)CC)ccc12

>  <Energy>  (30) 
51.77112156647679

>  <Genealogy>  (30) 
CCc1cc(=O)oc2cc(OCCOCC[NH+](C)CC)ccc12 (protonated)
CCc1cc(=O)oc2cc(OCCOCC[N@@H+](C)CC)ccc12 (chirality)
CCc1cc(=O)oc2cc(OCCOCC[N@@H+](C)CC)ccc12 (3D coordinates assigned)
CCc1cc(=O)oc2cc(OCCOCC[N@@H+](C)CC)ccc12 (optimized conformer: 51.77112156647679 kcal/mol)

>  <smiles>  (30) 
CCc1cc(=O)oc2cc(OCCOCCN(C)CC)ccc12

>  <score_type>  (30) 
oracle

>  <origin>  (30) 
adg

>  <m_score__min__energy>  (30) 
-7.3200000000000003

>  <m_primary>  (30) 
energy

$$$$
30:0
     RDKit          3D

 33 35  0  0  0  0  0  0  0  0999 V2000
   -4.2150   24.5060  -27.0730 C   0  0  0  0  0  0  0  0  0  0  0  0
   -3.3870   23.7630  -27.5370 C   0  0  0  0  0  0  0  0  0  0  0  0
   -2.3810   22.8620  -28.1000 C   0  0  0  0  0  0  0  0  0  0  0  0
   -1.7300   23.5750  -29.6430 S   0  0  0  0  0  0  0  0  0  0  0  0
   -3.3570   23.8030  -30.3580 C   0  0  0  0  0  0  0  0  0  0  0  0
   -3.9300   25.0430  -30.4020 N   0  0  0  0  0  0  0  0  0  0  0  0
   -5.1730   25.2360  -30.9490 C   0  0  0  0  0  0  0  0  0  0  0  0
   -5.8740   24.1830  -31.4690 N   0  0  0  0  0  0  0  0  0  0  0  0
   -5.3030   22.9550  -31.4220 C   0  0  0  0  0  0  0  0  0  0  0  0
   -4.0780   22.7420  -30.8900 C   0  0  0  0  0  0  0  0  0  0  0  0
   -3.7410   21.4420  -30.9840 N   0  0  0  0  0  0  0  0  0  0  0  0
   -4.8260   20.8950  -31.5980 C   0  0  0  0  0  0  0  0  0  0  0  0
   -5.8050   21.7990  -31.8720 N   0  0  0  0  0  0  0  0  0  0  0  0
   -7.0790   21.5790  -32.5690 C   0  0  0  0  0  0  0  0  0  0  0  0
   -7.4250   20.0810  -32.5740 C   0  0  0  0  0  0  0  0  0  0  0  0
   -8.9250   19.8860  -32.8630 C   0  0  0  0  0  0  0  0  0  0  0  0
   -9.8140   20.5550  -31.9710 O   0  0  0  0  0  0  0  0  0  0  0  0
   -9.2000   21.5470  -31.1630 C   0  0  0  0  0  0  0  0  0  0  0  0
   -8.2130   22.4240  -31.9460 C   0  0  0  0  0  0  0  0  0  0  0  0
   -4.9706   25.1840  -26.6496 H   0  0  0  0  0  0  0  0  0  0  0  0
   -1.5596   22.7326  -27.3799 H   0  0  0  0  0  0  0  0  0  0  0  0
   -2.8390   21.8843  -28.3106 H   0  0  0  0  0  0  0  0  0  0  0  0
   -5.6094   26.2455  -30.9696 H   0  0  0  0  0  0  0  0  0  0  0  0
   -4.9035   19.8266  -31.8481 H   0  0  0  0  0  0  0  0  0  0  0  0
   -6.9699   21.9104  -33.6122 H   0  0  0  0  0  0  0  0  0  0  0  0
   -6.8355   19.5739  -33.3521 H   0  0  0  0  0  0  0  0  0  0  0  0
   -7.1894   19.6535  -31.5882 H   0  0  0  0  0  0  0  0  0  0  0  0
   -9.1248   20.2542  -33.8801 H   0  0  0  0  0  0  0  0  0  0  0  0
   -9.1202   18.8111  -32.7342 H   0  0  0  0  0  0  0  0  0  0  0  0
   -9.9848   22.1918  -30.7408 H   0  0  0  0  0  0  0  0  0  0  0  0
   -8.6313   21.0288  -30.3768 H   0  0  0  0  0  0  0  0  0  0  0  0
   -8.7555   22.9431  -32.7499 H   0  0  0  0  0  0  0  0  0  0  0  0
   -7.7634   23.1462  -31.2487 H   0  0  0  0  0  0  0  0  0  0  0  0
  1  2  3  0
  2  3  1  0
  3  4  1  0
  4  5  1  0
  5  6  2  0
  6  7  1  0
  7  8  2  0
  8  9  1  0
  9 10  2  0
 10 11  1  0
 11 12  2  0
 12 13  1  0
 13 14  1  0
 14 15  1  0
 15 16  1  0
 16 17  1  0
 17 18  1  0
 18 19  1  0
 10  5  1  0
 19 14  1  0
 13  9  1  0
  1 20  1  0
  3 21  1  0
  3 22  1  0
  7 23  1  0
 12 24  1  0
 14 25  1  0
 15 26  1  0
 15 27  1  0
 16 28  1  0
 16 29  1  0
 18 30  1  0
 18 31  1  0
 19 32  1  0
 19 33  1  0
M  END
>  <UniqueID>  (31) 
31

>  <SMILES>  (31) 
C#CCSc1ncnc2c1ncn2C1CCOCC1

>  <Energy>  (31) 
78.40658653920983

>  <Genealogy>  (31) 
C#CCSc1ncnc2c1ncn2C1CCOCC1 (3D coordinates assigned)
C#CCSc1ncnc2c1ncn2C1CCOCC1 (nonaromatic ring conformer: 78.40658653920983 kcal/mol)

>  <smiles>  (31) 
C#CCSc1ncnc2c1ncn2C1CCOCC1

>  <score_type>  (31) 
oracle

>  <origin>  (31) 
adg

>  <m_score__min__energy>  (31) 
-6.79

>  <m_primary>  (31) 
energy

$$$$
31:0
     RDKit          3D

 59 61  0  0  0  0  0  0  0  0999 V2000
   -9.1010   18.5450  -31.3270 C   0  0  0  0  0  0  0  0  0  0  0  0
   -8.4090   18.9060  -32.6400 C   0  0  0  0  0  0  0  0  0  0  0  0
   -7.1070   19.6820  -32.4060 C   0  0  0  0  0  0  0  0  0  0  0  0
   -5.9510   18.9640  -32.9790 N   0  0  0  0  0  0  0  0  0  0  0  0
   -6.2850   17.6480  -33.5820 C   0  0  0  0  0  0  0  0  0  0  0  0
   -5.3310   17.1790  -34.7100 C   0  0  0  0  0  0  0  0  0  0  0  0
   -4.2240   18.0150  -35.0240 O   0  0  0  0  0  0  0  0  0  0  0  0
   -3.2040   18.0560  -34.0440 C   0  0  0  0  0  0  0  0  0  0  0  0
   -3.3720   19.2140  -33.0170 C   0  0  0  0  0  0  0  0  0  0  0  0
   -3.3660   20.5700  -33.7930 C   0  0  0  0  0  0  0  0  0  0  0  0
   -2.9550   21.7850  -32.9320 C   0  0  0  0  0  0  0  0  0  0  0  0
   -3.0480   21.4770  -31.4950 N   0  0  0  0  0  0  0  0  0  0  0  0
   -2.8520   22.6950  -30.6840 C   0  0  0  0  0  0  0  0  0  0  0  0
   -4.1430   23.4670  -30.5620 C   0  0  0  0  0  0  0  0  0  0  0  0
   -5.3240   22.9360  -31.1080 C   0  0  0  0  0  0  0  0  0  0  0  0
   -6.5240   23.6460  -31.0240 C   0  0  0  0  0  0  0  0  0  0  0  0
   -8.1210   22.9140  -31.7730 Br  0  0  0  0  0  0  0  0  0  0  0  0
   -6.5550   24.8910  -30.3950 C   0  0  0  0  0  0  0  0  0  0  0  0
   -5.3880   25.4330  -29.8520 C   0  0  0  0  0  0  0  0  0  0  0  0
   -4.1670   24.7320  -29.9360 C   0  0  0  0  0  0  0  0  0  0  0  0
   -2.9690   25.2500  -29.4110 O   0  0  0  0  0  0  0  0  0  0  0  0
   -2.3380   24.8270  -28.2010 C   0  0  0  0  0  0  0  0  0  0  0  0
   -3.3720   24.4980  -27.1300 C   0  0  0  0  0  0  0  0  0  0  0  0
   -2.0750   20.4230  -31.1250 C   0  0  0  0  0  0  0  0  0  0  0  0
   -2.1330   19.2070  -32.0800 C   0  0  0  0  0  0  0  0  0  0  0  0
   -4.7040   19.0730  -32.1870 C   0  0  0  0  0  0  0  0  0  0  0  0
   -8.4767   18.8707  -30.4819 H   0  0  0  0  0  0  0  0  0  0  0  0
  -10.0777   19.0485  -31.2768 H   0  0  0  0  0  0  0  0  0  0  0  0
   -9.2469   17.4559  -31.2768 H   0  0  0  0  0  0  0  0  0  0  0  0
   -8.1776   17.9798  -33.1864 H   0  0  0  0  0  0  0  0  0  0  0  0
   -9.0893   19.5483  -33.2184 H   0  0  0  0  0  0  0  0  0  0  0  0
   -7.1875   20.6708  -32.8812 H   0  0  0  0  0  0  0  0  0  0  0  0
   -6.9518   19.7860  -31.3220 H   0  0  0  0  0  0  0  0  0  0  0  0
   -6.2649   16.8923  -32.7829 H   0  0  0  0  0  0  0  0  0  0  0  0
   -7.2742   17.7675  -34.0481 H   0  0  0  0  0  0  0  0  0  0  0  0
   -4.9299   16.1980  -34.4155 H   0  0  0  0  0  0  0  0  0  0  0  0
   -5.9501   17.1807  -35.6192 H   0  0  0  0  0  0  0  0  0  0  0  0
   -3.2095   17.1020  -33.4963 H   0  0  0  0  0  0  0  0  0  0  0  0
   -2.2553   18.2294  -34.5731 H   0  0  0  0  0  0  0  0  0  0  0  0
   -2.6592   20.4854  -34.6316 H   0  0  0  0  0  0  0  0  0  0  0  0
   -4.3987   20.7507  -34.1259 H   0  0  0  0  0  0  0  0  0  0  0  0
   -1.9178   22.0609  -33.1732 H   0  0  0  0  0  0  0  0  0  0  0  0
   -3.6400   22.6164  -33.1544 H   0  0  0  0  0  0  0  0  0  0  0  0
   -2.5061   22.4086  -29.6799 H   0  0  0  0  0  0  0  0  0  0  0  0
   -2.1036   23.3324  -31.1776 H   0  0  0  0  0  0  0  0  0  0  0  0
   -5.3033   21.9548  -31.6048 H   0  0  0  0  0  0  0  0  0  0  0  0
   -7.5015   25.4474  -30.3266 H   0  0  0  0  0  0  0  0  0  0  0  0
   -5.4214   26.4138  -29.3551 H   0  0  0  0  0  0  0  0  0  0  0  0
   -1.7340   23.9306  -28.4049 H   0  0  0  0  0  0  0  0  0  0  0  0
   -1.7019   25.6457  -27.8334 H   0  0  0  0  0  0  0  0  0  0  0  0
   -2.9264   24.6398  -26.1343 H   0  0  0  0  0  0  0  0  0  0  0  0
   -4.2401   25.1643  -27.2415 H   0  0  0  0  0  0  0  0  0  0  0  0
   -3.6955   23.4526  -27.2415 H   0  0  0  0  0  0  0  0  0  0  0  0
   -1.0618   20.8501  -31.1576 H   0  0  0  0  0  0  0  0  0  0  0  0
   -2.3304   20.0695  -30.1151 H   0  0  0  0  0  0  0  0  0  0  0  0
   -1.2259   19.2092  -32.7022 H   0  0  0  0  0  0  0  0  0  0  0  0
   -2.2064   18.3062  -31.4530 H   0  0  0  0  0  0  0  0  0  0  0  0
   -4.6196   18.1696  -31.5651 H   0  0  0  0  0  0  0  0  0  0  0  0
   -4.7969   20.0063  -31.6122 H   0  0  0  0  0  0  0  0  0  0  0  0
  1  2  1  0
  2  3  1  0
  3  4  1  0
  4  5  1  0
  5  6  1  0
  6  7  1  0
  7  8  1  0
  8  9  1  0
  9 10  1  0
 10 11  1  0
 11 12  1  0
 12 13  1  0
 13 14  1  0
 14 15  2  0
 15 16  1  0
 16 17  1  0
 16 18  2  0
 18 19  1  0
 19 20  2  0
 20 21  1  0
 21 22  1  0
 22 23  1  0
 12 24  1  0
 24 25  1  0
  9 26  1  0
 26  4  1  0
 25  9  1  0
 20 14  1  0
  1 27  1  0
  1 28  1  0
  1 29  1  0
  2 30  1  0
  2 31  1  0
  3 32  1  0
  3 33  1  0
  5 34  1  0
  5 35  1  0
  6 36  1  0
  6 37  1  0
  8 38  1  0
  8 39  1  0
 10 40  1  0
 10 41  1  0
 11 42  1  0
 11 43  1  0
 13 44  1  0
 13 45  1  0
 15 46  1  0
 18 47  1  0
 19 48  1  0
 22 49  1  0
 22 50  1  0
 23 51  1  0
 23 52  1  0
 23 53  1  0
 24 54  1  0
 24 55  1  0
 25 56  1  0
 25 57  1  0
 26 58  1  0
 26 59  1  0
M  END
>  <UniqueID>  (32) 
32

>  <SMILES>  (32) 
CCCN1CCOCC2(CCN(Cc3cc(Br)ccc3OCC)CC2)C1

>  <Energy>  (32) 
87.2212629632384

>  <Genealogy>  (32) 
CCCN1CCOCC2(CCN(Cc3cc(Br)ccc3OCC)CC2)C1 (3D coordinates assigned)
CCCN1CCOCC2(CCN(Cc3cc(Br)ccc3OCC)CC2)C1 (nonaromatic ring conformer: 87.2212629632384 kcal/mol)

>  <smiles>  (32) 
CCCN1CCOCC2(CCN(Cc3cc(Br)ccc3OCC)CC2)C1

>  <score_type>  (32) 
oracle

>  <origin>  (32) 
adg

>  <m_score__min__energy>  (32) 
-7.2400000000000002

>  <m_primary>  (32) 
energy

$$$$
32:0
     RDKit          3D

 64 66  0  0  0  0  0  0  0  0999 V2000
   -1.1670   27.0670  -24.9520 C   0  0  0  0  0  0  0  0  0  0  0  0
   -0.9160   26.9810  -26.4580 C   0  0  0  0  0  0  0  0  0  0  0  0
   -1.6660   25.8600  -27.0610 N   0  0  0  0  0  0  0  0  0  0  0  0
   -2.3940   25.0210  -26.0810 C   0  0  0  0  0  0  0  0  0  0  0  0
   -3.9100   24.9640  -26.3090 C   0  0  0  0  0  0  0  0  0  0  0  0
   -0.9870   25.0960  -28.1440 C   0  0  0  0  0  0  0  0  0  0  0  0
   -1.9060   24.1780  -28.9740 C   0  0  0  0  0  0  0  0  0  0  0  0
   -2.9060   24.9450  -29.6170 O   0  0  0  0  0  0  0  0  0  0  0  0
   -4.1830   24.3590  -29.4360 C   0  0  0  0  0  0  0  0  0  0  0  0
   -4.9960   24.5040  -30.7180 C   0  0  0  0  0  0  0  0  0  0  0  0
   -4.6130   23.4930  -31.6290 O   0  0  0  0  0  0  0  0  0  0  0  0
   -3.9520   22.4430  -30.9570 C   0  0  0  0  0  0  0  0  0  0  0  0
   -3.8590   21.2450  -31.9080 C   0  0  0  0  0  0  0  0  0  0  0  0
   -4.6400   21.4660  -33.1400 N   0  0  0  0  0  0  0  0  0  0  0  0
   -5.8970   20.7290  -33.0750 C   0  0  0  0  0  0  0  0  0  0  0  0
   -5.9310   19.3560  -33.4380 C   0  0  0  0  0  0  0  0  0  0  0  0
   -4.8860   18.7650  -34.1910 C   0  0  0  0  0  0  0  0  0  0  0  0
   -4.9300   17.4250  -34.5530 C   0  0  0  0  0  0  0  0  0  0  0  0
   -6.0010   16.6330  -34.1590 C   0  0  0  0  0  0  0  0  0  0  0  0
   -7.0180   17.1710  -33.3740 C   0  0  0  0  0  0  0  0  0  0  0  0
   -7.0080   18.5410  -33.0030 C   0  0  0  0  0  0  0  0  0  0  0  0
   -8.0240   19.0840  -32.2430 N   0  0  0  0  0  0  0  0  0  0  0  0
   -8.9940   18.1910  -31.5690 C   0  0  0  0  0  0  0  0  0  0  0  0
   -8.1620   20.4560  -32.1610 C   0  0  0  0  0  0  0  0  0  0  0  0
   -9.3720   21.0520  -31.7090 C   0  0  0  0  0  0  0  0  0  0  0  0
   -9.4910   22.4300  -31.5760 C   0  0  0  0  0  0  0  0  0  0  0  0
   -8.4360   23.2560  -31.9280 C   0  0  0  0  0  0  0  0  0  0  0  0
   -7.2610   22.7140  -32.4360 C   0  0  0  0  0  0  0  0  0  0  0  0
   -7.0850   21.3090  -32.5480 C   0  0  0  0  0  0  0  0  0  0  0  0
   -0.2610   26.7566  -24.4110 H   0  0  0  0  0  0  0  0  0  0  0  0
   -1.4192   28.1028  -24.6809 H   0  0  0  0  0  0  0  0  0  0  0  0
   -2.0014   26.4035  -24.6809 H   0  0  0  0  0  0  0  0  0  0  0  0
   -1.2362   27.9218  -26.9295 H   0  0  0  0  0  0  0  0  0  0  0  0
    0.1581   26.8106  -26.6231 H   0  0  0  0  0  0  0  0  0  0  0  0
   -1.9970   23.9969  -26.1407 H   0  0  0  0  0  0  0  0  0  0  0  0
   -2.2389   25.4800  -25.0934 H   0  0  0  0  0  0  0  0  0  0  0  0
   -4.4264   24.9446  -25.3379 H   0  0  0  0  0  0  0  0  0  0  0  0
   -4.2291   25.8508  -26.8763 H   0  0  0  0  0  0  0  0  0  0  0  0
   -4.1616   24.0558  -26.8763 H   0  0  0  0  0  0  0  0  0  0  0  0
   -0.5194   25.8188  -28.8288 H   0  0  0  0  0  0  0  0  0  0  0  0
   -0.2645   24.4340  -27.6442 H   0  0  0  0  0  0  0  0  0  0  0  0
   -1.3068   23.6524  -29.7321 H   0  0  0  0  0  0  0  0  0  0  0  0
   -2.3859   23.4486  -28.3050 H   0  0  0  0  0  0  0  0  0  0  0  0
   -4.0659   23.2921  -29.1949 H   0  0  0  0  0  0  0  0  0  0  0  0
   -4.7054   24.8664  -28.6116 H   0  0  0  0  0  0  0  0  0  0  0  0
   -6.0670   24.4049  -30.4875 H   0  0  0  0  0  0  0  0  0  0  0  0
   -4.8098   25.4924  -31.1635 H   0  0  0  0  0  0  0  0  0  0  0  0
   -2.9416   22.7658  -30.6658 H   0  0  0  0  0  0  0  0  0  0  0  0
   -4.5087   22.1642  -30.0502 H   0  0  0  0  0  0  0  0  0  0  0  0
   -2.8047   21.0848  -32.1779 H   0  0  0  0  0  0  0  0  0  0  0  0
   -4.2715   20.3649  -31.3931 H   0  0  0  0  0  0  0  0  0  0  0  0
   -4.0990   21.2030  -33.9990 H   0  0  0  0  0  0  0  0  0  0  0  0
   -4.7710   22.4950  -33.2180 H   0  0  0  0  0  0  0  0  0  0  0  0
   -4.0248   19.3785  -34.4941 H   0  0  0  0  0  0  0  0  0  0  0  0
   -4.1162   16.9905  -35.1521 H   0  0  0  0  0  0  0  0  0  0  0  0
   -6.0460   15.5782  -34.4678 H   0  0  0  0  0  0  0  0  0  0  0  0
   -7.8414   16.5244  -33.0365 H   0  0  0  0  0  0  0  0  0  0  0  0
   -8.8869   18.2896  -30.4787 H   0  0  0  0  0  0  0  0  0  0  0  0
  -10.0162   18.4708  -31.8638 H   0  0  0  0  0  0  0  0  0  0  0  0
   -8.7995   17.1492  -31.8638 H   0  0  0  0  0  0  0  0  0  0  0  0
  -10.2297   20.4098  -31.4601 H   0  0  0  0  0  0  0  0  0  0  0  0
  -10.4245   22.8658  -31.1905 H   0  0  0  0  0  0  0  0  0  0  0  0
   -8.5285   24.3452  -31.8050 H   0  0  0  0  0  0  0  0  0  0  0  0
   -6.4518   23.3862  -32.7575 H   0  0  0  0  0  0  0  0  0  0  0  0
  1  2  1  0
  2  3  1  0
  3  4  1  0
  4  5  1  0
  3  6  1  0
  6  7  1  0
  7  8  1  0
  8  9  1  0
  9 10  1  0
 10 11  1  0
 11 12  1  0
 12 13  1  0
 13 14  1  0
 14 15  1  0
 15 16  2  0
 16 17  1  0
 17 18  2  0
 18 19  1  0
 19 20  2  0
 20 21  1  0
 21 22  2  0
 22 23  1  0
 22 24  1  0
 24 25  2  0
 25 26  1  0
 26 27  2  0
 27 28  1  0
 28 29  2  0
 29 15  1  0
 21 16  1  0
 29 24  1  0
  1 30  1  0
  1 31  1  0
  1 32  1  0
  2 33  1  0
  2 34  1  0
  4 35  1  0
  4 36  1  0
  5 37  1  0
  5 38  1  0
  5 39  1  0
  6 40  1  0
  6 41  1  0
  7 42  1  0
  7 43  1  0
  9 44  1  0
  9 45  1  0
 10 46  1  0
 10 47  1  0
 12 48  1  0
 12 49  1  0
 13 50  1  0
 13 51  1  0
 14 52  1  0
 14 53  1  0
 17 54  1  0
 18 55  1  0
 19 56  1  0
 20 57  1  0
 23 58  1  0
 23 59  1  0
 23 60  1  0
 25 61  1  0
 26 62  1  0
 27 63  1  0
 28 64  1  0
M  CHG  2  14   1  22   1
M  END
>  <UniqueID>  (33) 
33

>  <SMILES>  (33) 
CCN(CC)CCOCCOCC[NH2+]c1c2ccccc2[n+](C)c2ccccc12

>  <Energy>  (33) 
103.94815993798589

>  <Genealogy>  (33) 
CCN(CC)CCOCCOCC[NH2+]c1c2ccccc2[n+](C)c2ccccc12 (protonated)
CCN(CC)CCOCCOCC[NH2+]c1c2ccccc2[n+](C)c2ccccc12 (3D coordinates assigned)
CCN(CC)CCOCCOCC[NH2+]c1c2ccccc2[n+](C)c2ccccc12 (optimized conformer: 103.94815993798589 kcal/mol)

>  <smiles>  (33) 
CCN(CC)CCOCCOCCNc1c2ccccc2[n+](C)c2ccccc12

>  <score_type>  (33) 
oracle

>  <origin>  (33) 
adg

>  <m_score__min__energy>  (33) 
-8.0999999999999996

>  <m_primary>  (33) 
energy

$$$$
33:0
     RDKit          3D

 45 47  0  0  0  0  0  0  0  0999 V2000
   -9.9867   19.2541  -32.8534 H   0  0  0  0  0  0  0  0  0  0  0  0
   -9.2770   20.0180  -32.5030 C   0  0  0  0  0  0  0  0  0  0  0  0
   -9.7490   21.2220  -31.9840 C   0  0  0  0  0  0  0  0  0  0  0  0
  -10.8320   21.4065  -31.9279 H   0  0  0  0  0  0  0  0  0  0  0  0
   -8.8530   22.1970  -31.5340 C   0  0  0  0  0  0  0  0  0  0  0  0
   -9.2382   23.1425  -31.1244 H   0  0  0  0  0  0  0  0  0  0  0  0
   -7.4550   21.9800  -31.6000 C   0  0  0  0  0  0  0  0  0  0  0  0
   -6.9980   20.7490  -32.1330 C   0  0  0  0  0  0  0  0  0  0  0  0
   -5.6720   20.4880  -32.2170 N   0  0  0  0  0  0  0  0  0  0  0  0
   -4.7170   21.3610  -31.8040 C   0  0  0  0  0  0  0  0  0  0  0  0
   -3.4560   21.0440  -31.8990 N   0  0  0  0  0  0  0  0  0  0  0  0
   -2.6230   21.1790  -33.0960 C   0  0  0  0  0  0  0  0  0  0  0  0
   -1.5688   21.2677  -32.7947 H   0  0  0  0  0  0  0  0  0  0  0  0
   -2.9379   22.0770  -33.6477 H   0  0  0  0  0  0  0  0  0  0  0  0
   -2.7860   19.9530  -34.0100 C   0  0  0  0  0  0  0  0  0  0  0  0
   -1.7961   19.5019  -34.1728 H   0  0  0  0  0  0  0  0  0  0  0  0
   -3.2364   20.2995  -34.9518 H   0  0  0  0  0  0  0  0  0  0  0  0
   -3.6950   18.9150  -33.4310 N   0  0  0  0  0  0  0  0  0  0  0  0
   -4.1440   19.2570  -32.5520 H   0  0  0  0  0  0  0  0  0  0  0  0
   -2.9460   17.6790  -33.0850 C   0  0  0  0  0  0  0  0  0  0  0  0
   -3.6486   16.8328  -33.0671 H   0  0  0  0  0  0  0  0  0  0  0  0
   -2.4779   17.8330  -32.1015 H   0  0  0  0  0  0  0  0  0  0  0  0
   -1.8300   17.3730  -34.0940 C   0  0  0  0  0  0  0  0  0  0  0  0
   -0.9062   17.1197  -33.5533 H   0  0  0  0  0  0  0  0  0  0  0  0
   -2.1296   16.5239  -34.7258 H   0  0  0  0  0  0  0  0  0  0  0  0
   -1.6546   18.2562  -34.7258 H   0  0  0  0  0  0  0  0  0  0  0  0
   -4.7980   18.5760  -34.3670 C   0  0  0  0  0  0  0  0  0  0  0  0
   -5.3790   19.4872  -34.5722 H   0  0  0  0  0  0  0  0  0  0  0  0
   -4.3453   18.1697  -35.2835 H   0  0  0  0  0  0  0  0  0  0  0  0
   -5.7420   17.5080  -33.8010 C   0  0  0  0  0  0  0  0  0  0  0  0
   -5.7142   17.5394  -32.7018 H   0  0  0  0  0  0  0  0  0  0  0  0
   -6.7674   17.7041  -34.1476 H   0  0  0  0  0  0  0  0  0  0  0  0
   -5.4215   16.5145  -34.1476 H   0  0  0  0  0  0  0  0  0  0  0  0
   -5.1010   22.6060  -31.2650 C   0  0  0  0  0  0  0  0  0  0  0  0
   -4.1330   23.5310  -30.8220 C   0  0  0  0  0  0  0  0  0  0  0  0
   -3.0648   23.2809  -30.9017 H   0  0  0  0  0  0  0  0  0  0  0  0
   -4.5150   24.7570  -30.2850 C   0  0  0  0  0  0  0  0  0  0  0  0
   -3.7497   25.4697  -29.9440 H   0  0  0  0  0  0  0  0  0  0  0  0
   -5.8630   25.0820  -30.1790 C   0  0  0  0  0  0  0  0  0  0  0  0
   -6.1595   26.0527  -29.7549 H   0  0  0  0  0  0  0  0  0  0  0  0
   -6.8410   24.1850  -30.6070 C   0  0  0  0  0  0  0  0  0  0  0  0
   -7.9031   24.4566  -30.5162 H   0  0  0  0  0  0  0  0  0  0  0  0
   -6.4860   22.9290  -31.1570 C   0  0  0  0  0  0  0  0  0  0  0  0
   -7.9060   19.7820  -32.5780 C   0  0  0  0  0  0  0  0  0  0  0  0
   -7.5357   18.8312  -32.9889 H   0  0  0  0  0  0  0  0  0  0  0  0
  1  2  1  0
  2  3  2  0
  3  4  1  0
  3  5  1  0
  5  6  1  0
  5  7  2  0
  7  8  1  0
  8  9  1  0
  9 10  1  0
 10 11  2  0
 11 12  1  0
 12 13  1  0
 12 14  1  0
 12 15  1  0
 15 16  1  0
 15 17  1  0
 15 18  1  0
 18 19  1  0
 18 20  1  0
 20 21  1  0
 20 22  1  0
 20 23  1  0
 23 24  1  0
 23 25  1  0
 23 26  1  0
 18 27  1  0
 27 28  1  0
 27 29  1  0
 27 30  1  0
 30 31  1  0
 30 32  1  0
 30 33  1  0
 10 34  1  0
 34 35  2  0
 35 36  1  0
 35 37  1  0
 37 38  1  0
 37 39  2  0
 39 40  1  0
 39 41  1  0
 41 42  1  0
 41 43  2  0
  8 44  2  0
 44 45  1  0
 44  2  1  0
 43  7  1  0
 43 34  1  0
M  CHG  2   9  -1  18   1
M  END
>  <UniqueID>  (34) 
34

>  <SMILES>  (34) 
CC[NH+](CC)CC/N=c1\[n-]c2ccccc2c2ccccc12

>  <Energy>  (34) 
60.74200052538159

>  <Genealogy>  (34) 
CC[NH+](CC)CCN=c1[n-]c2ccccc2c2ccccc12 (protonated)
CC[NH+](CC)CC/N=c1\[n-]c2ccccc2c2ccccc12 (cis-trans isomerization)
CC[NH+](CC)CC/N=c1\[n-]c2ccccc2c2ccccc12 (3D coordinates assigned)
CC[NH+](CC)CC/N=c1\[n-]c2ccccc2c2ccccc12 (optimized conformer: 60.74200052538159 kcal/mol)

>  <smiles>  (34) 
CCN(CC)CCN=c1[nH]c2ccccc2c2ccccc12

>  <score_type>  (34) 
oracle

>  <origin>  (34) 
adg

>  <m_score__min__energy>  (34) 
-6.5999999999999996

>  <m_primary>  (34) 
energy

$$$$
34:0
     RDKit          3D

 69 72  0  0  0  0  0  0  0  0999 V2000
   -6.9550   17.0600  -33.1930 C   0  0  0  0  0  0  0  0  0  0  0  0
   -5.5680   17.5580  -33.1140 N   0  0  0  0  0  0  0  0  0  0  0  0
   -4.6520   16.4220  -32.9200 C   0  0  0  0  0  0  0  0  0  0  0  0
   -5.1930   18.2990  -34.3380 C   0  0  0  0  0  0  0  0  0  0  0  0
   -3.7890   18.9290  -34.2210 C   0  0  0  0  0  0  0  0  0  0  0  0
   -3.8040   20.2240  -33.3940 C   0  0  0  0  0  0  0  0  0  0  0  0
   -4.1800   19.9510  -31.9970 N   0  0  0  0  0  0  0  0  0  0  0  0
   -4.9010   21.0760  -31.4240 C   0  0  0  0  0  0  0  0  0  0  0  0
   -6.3130   21.1720  -31.5410 C   0  0  0  0  0  0  0  0  0  0  0  0
   -7.0910   20.1120  -32.0660 C   0  0  0  0  0  0  0  0  0  0  0  0
   -8.4790   20.2080  -32.1420 C   0  0  0  0  0  0  0  0  0  0  0  0
   -9.1250   21.3460  -31.6810 C   0  0  0  0  0  0  0  0  0  0  0  0
   -8.3870   22.4050  -31.1610 C   0  0  0  0  0  0  0  0  0  0  0  0
   -6.9700   22.3590  -31.1080 C   0  0  0  0  0  0  0  0  0  0  0  0
   -6.2360   23.4250  -30.6340 N   0  0  0  0  0  0  0  0  0  0  0  0
   -6.8680   24.7590  -30.5040 C   0  0  0  0  0  0  0  0  0  0  0  0
   -4.9080   23.2540  -30.2910 C   0  0  0  0  0  0  0  0  0  0  0  0
   -4.2150   24.2240  -29.5210 C   0  0  0  0  0  0  0  0  0  0  0  0
   -2.8520   24.0770  -29.2170 C   0  0  0  0  0  0  0  0  0  0  0  0
   -2.1280   25.0420  -28.4990 O   0  0  0  0  0  0  0  0  0  0  0  0
   -2.2610   25.2860  -27.1010 C   0  0  0  0  0  0  0  0  0  0  0  0
   -1.2030   24.5060  -26.2920 C   0  0  0  0  0  0  0  0  0  0  0  0
   -0.5560   25.2410  -25.1570 N   0  0  0  0  0  0  0  0  0  0  0  0
   -0.4020   24.3480  -24.1260 O   0  0  0  0  0  0  0  0  0  0  0  0
   -1.3510   26.4020  -24.6730 C   0  0  0  0  0  0  0  0  0  0  0  0
   -0.6670   27.0780  -23.4570 C   0  0  0  0  0  0  0  0  0  0  0  0
    0.7040   26.7370  -23.3310 O   0  0  0  0  0  0  0  0  0  0  0  0
    1.3390   26.8020  -24.5900 C   0  0  0  0  0  0  0  0  0  0  0  0
    0.8210   25.6850  -25.5210 C   0  0  0  0  0  0  0  0  0  0  0  0
   -2.1820   22.9360  -29.6360 C   0  0  0  0  0  0  0  0  0  0  0  0
   -2.8460   21.9460  -30.3540 C   0  0  0  0  0  0  0  0  0  0  0  0
   -4.2120   22.0830  -30.6970 C   0  0  0  0  0  0  0  0  0  0  0  0
   -7.3518   16.9175  -32.1770 H   0  0  0  0  0  0  0  0  0  0  0  0
   -7.5770   17.7910  -33.7304 H   0  0  0  0  0  0  0  0  0  0  0  0
   -6.9700   16.1003  -33.7304 H   0  0  0  0  0  0  0  0  0  0  0  0
   -4.5096   16.2455  -31.8436 H   0  0  0  0  0  0  0  0  0  0  0  0
   -5.0801   15.5221  -33.3857 H   0  0  0  0  0  0  0  0  0  0  0  0
   -3.6818   16.6496  -33.3857 H   0  0  0  0  0  0  0  0  0  0  0  0
   -5.2013   17.6044  -35.1909 H   0  0  0  0  0  0  0  0  0  0  0  0
   -5.9206   19.1114  -34.4815 H   0  0  0  0  0  0  0  0  0  0  0  0
   -3.1153   18.2067  -33.7369 H   0  0  0  0  0  0  0  0  0  0  0  0
   -3.4440   19.1786  -35.2352 H   0  0  0  0  0  0  0  0  0  0  0  0
   -2.8016   20.6765  -33.4153 H   0  0  0  0  0  0  0  0  0  0  0  0
   -4.5449   20.9106  -33.8296 H   0  0  0  0  0  0  0  0  0  0  0  0
   -3.3310   19.7240  -31.4320 H   0  0  0  0  0  0  0  0  0  0  0  0
   -4.7510   19.0790  -31.9320 H   0  0  0  0  0  0  0  0  0  0  0  0
   -6.5916   19.1979  -32.4196 H   0  0  0  0  0  0  0  0  0  0  0  0
   -9.0639   19.3797  -32.5684 H   0  0  0  0  0  0  0  0  0  0  0  0
  -10.2221   21.4113  -31.7266 H   0  0  0  0  0  0  0  0  0  0  0  0
   -8.9124   23.2948  -30.7838 H   0  0  0  0  0  0  0  0  0  0  0  0
   -6.9854   25.0069  -29.4387 H   0  0  0  0  0  0  0  0  0  0  0  0
   -6.2322   25.5147  -30.9884 H   0  0  0  0  0  0  0  0  0  0  0  0
   -7.8555   24.7457  -30.9884 H   0  0  0  0  0  0  0  0  0  0  0  0
   -4.7565   25.1088  -29.1550 H   0  0  0  0  0  0  0  0  0  0  0  0
   -2.1350   26.3622  -26.9116 H   0  0  0  0  0  0  0  0  0  0  0  0
   -3.2587   24.9489  -26.7833 H   0  0  0  0  0  0  0  0  0  0  0  0
   -1.6915   23.6122  -25.8766 H   0  0  0  0  0  0  0  0  0  0  0  0
   -0.3908   24.2929  -27.0026 H   0  0  0  0  0  0  0  0  0  0  0  0
    0.2120   24.7450  -23.4500 H   0  0  0  0  0  0  0  0  0  0  0  0
   -1.4459   27.1366  -25.4862 H   0  0  0  0  0  0  0  0  0  0  0  0
   -2.3421   26.0412  -24.3607 H   0  0  0  0  0  0  0  0  0  0  0  0
   -0.7476   28.1690  -23.5715 H   0  0  0  0  0  0  0  0  0  0  0  0
   -1.1791   26.7208  -22.5514 H   0  0  0  0  0  0  0  0  0  0  0  0
    1.1313   27.7798  -25.0490 H   0  0  0  0  0  0  0  0  0  0  0  0
    2.4216   26.6695  -24.4472 H   0  0  0  0  0  0  0  0  0  0  0  0
    0.8101   26.0619  -26.5544 H   0  0  0  0  0  0  0  0  0  0  0  0
    1.4930   24.8203  -25.4172 H   0  0  0  0  0  0  0  0  0  0  0  0
   -1.1151   22.8130  -29.3981 H   0  0  0  0  0  0  0  0  0  0  0  0
   -2.2997   21.0416  -30.6601 H   0  0  0  0  0  0  0  0  0  0  0  0
  1  2  1  0
  2  3  1  0
  2  4  1  0
  4  5  1  0
  5  6  1  0
  6  7  1  0
  7  8  1  0
  8  9  2  0
  9 10  1  0
 10 11  2  0
 11 12  1  0
 12 13  2  0
 13 14  1  0
 14 15  2  0
 15 16  1  0
 15 17  1  0
 17 18  2  0
 18 19  1  0
 19 20  1  0
 20 21  1  0
 21 22  1  0
 22 23  1  0
 23 24  1  0
 23 25  1  0
 25 26  1  0
 26 27  1  0
 27 28  1  0
 28 29  1  0
 19 30  2  0
 30 31  1  0
 31 32  2  0
 32  8  1  0
 14  9  1  0
 32 17  1  0
 29 23  1  0
  1 33  1  0
  1 34  1  0
  1 35  1  0
  3 36  1  0
  3 37  1  0
  3 38  1  0
  4 39  1  0
  4 40  1  0
  5 41  1  0
  5 42  1  0
  6 43  1  0
  6 44  1  0
  7 45  1  0
  7 46  1  0
 10 47  1  0
 11 48  1  0
 12 49  1  0
 13 50  1  0
 16 51  1  0
 16 52  1  0
 16 53  1  0
 18 54  1  0
 21 55  1  0
 21 56  1  0
 22 57  1  0
 22 58  1  0
 24 59  1  0
 25 60  1  0
 25 61  1  0
 26 62  1  0
 26 63  1  0
 28 64  1  0
 28 65  1  0
 29 66  1  0
 29 67  1  0
 30 68  1  0
 31 69  1  0
M  CHG  3   7   1  15   1  23   1
M  END
>  <UniqueID>  (35) 
35

>  <SMILES>  (35) 
CN(C)CCC[NH2+]c1c2ccccc2[n+](C)c2cc(OCC[N+]3(O)CCOCC3)ccc12

>  <Energy>  (35) 
117.35572572655322

>  <Genealogy>  (35) 
CN(C)CCC[NH2+]c1c2ccccc2[n+](C)c2cc(OCC[N+]3(O)CCOCC3)ccc12 (protonated)
CN(C)CCC[NH2+]c1c2ccccc2[n+](C)c2cc(OCC[N+]3(O)CCOCC3)ccc12 (3D coordinates assigned)
CN(C)CCC[NH2+]c1c2ccccc2[n+](C)c2cc(OCC[N+]3(O)CCOCC3)ccc12 (nonaromatic ring conformer: 117.35572572655322 kcal/mol)

>  <smiles>  (35) 
CN(C)CCCNc1c2ccccc2[n+](C)c2cc(OCC[N+]3([O-])CCOCC3)ccc12

>  <score_type>  (35) 
oracle

>  <origin>  (35) 
adg

>  <m_score__min__energy>  (35) 
-7.4100000000000001

>  <m_primary>  (35) 
energy

$$$$
35:0
     RDKit          3D

 40 42  0  0  0  0  0  0  0  0999 V2000
   -6.0560   24.4030  -30.0700 C   0  0  0  0  0  0  0  0  0  0  0  0
   -5.2200   25.5980  -30.5150 C   0  0  0  0  0  0  0  0  0  0  0  0
   -3.8280   25.2880  -30.4670 O   0  0  0  0  0  0  0  0  0  0  0  0
   -3.2390   24.2450  -29.7300 C   0  0  0  0  0  0  0  0  0  0  0  0
   -2.7910   24.4280  -28.4060 C   0  0  0  0  0  0  0  0  0  0  0  0
   -2.2140   23.3710  -27.7000 C   0  0  0  0  0  0  0  0  0  0  0  0
   -2.0730   22.1230  -28.3020 C   0  0  0  0  0  0  0  0  0  0  0  0
   -2.5060   21.9250  -29.6140 C   0  0  0  0  0  0  0  0  0  0  0  0
   -3.0940   22.9800  -30.3430 C   0  0  0  0  0  0  0  0  0  0  0  0
   -3.5510   22.7850  -31.6990 N   0  0  0  0  0  0  0  0  0  0  0  0
   -3.6560   21.4800  -32.3540 C   0  0  0  0  0  0  0  0  0  0  0  0
   -5.0790   20.9980  -32.3540 C   0  0  0  0  0  0  0  0  0  0  0  0
   -6.1270   21.8200  -32.0760 N   0  0  0  0  0  0  0  0  0  0  0  0
   -7.1900   21.0020  -32.1820 C   0  0  0  0  0  0  0  0  0  0  0  0
   -8.5290   21.3240  -31.9700 C   0  0  0  0  0  0  0  0  0  0  0  0
   -9.4790   20.2960  -32.1140 C   0  0  0  0  0  0  0  0  0  0  0  0
   -9.0720   18.9880  -32.4580 C   0  0  0  0  0  0  0  0  0  0  0  0
   -7.7120   18.6950  -32.6640 C   0  0  0  0  0  0  0  0  0  0  0  0
   -6.7950   19.7400  -32.5200 C   0  0  0  0  0  0  0  0  0  0  0  0
   -5.4580   19.7270  -32.6580 N   0  0  0  0  0  0  0  0  0  0  0  0
   -4.5970   18.5820  -32.9540 C   0  0  0  0  0  0  0  0  0  0  0  0
   -6.0835   24.3636  -28.9710 H   0  0  0  0  0  0  0  0  0  0  0  0
   -7.0797   24.5065  -30.4590 H   0  0  0  0  0  0  0  0  0  0  0  0
   -5.6079   23.4768  -30.4590 H   0  0  0  0  0  0  0  0  0  0  0  0
   -5.4944   25.8664  -31.5458 H   0  0  0  0  0  0  0  0  0  0  0  0
   -5.4176   26.4397  -29.8349 H   0  0  0  0  0  0  0  0  0  0  0  0
   -2.8970   25.4117  -27.9253 H   0  0  0  0  0  0  0  0  0  0  0  0
   -1.8701   23.5240  -26.6664 H   0  0  0  0  0  0  0  0  0  0  0  0
   -1.6195   21.2917  -27.7423 H   0  0  0  0  0  0  0  0  0  0  0  0
   -2.3877   20.9374  -30.0838 H   0  0  0  0  0  0  0  0  0  0  0  0
   -3.8460   23.6140  -32.2620 H   0  0  0  0  0  0  0  0  0  0  0  0
   -3.3048   21.5681  -33.3927 H   0  0  0  0  0  0  0  0  0  0  0  0
   -3.0379   20.7567  -31.8018 H   0  0  0  0  0  0  0  0  0  0  0  0
   -8.8328   22.3460  -31.6995 H   0  0  0  0  0  0  0  0  0  0  0  0
  -10.5461   20.5126  -31.9576 H   0  0  0  0  0  0  0  0  0  0  0  0
   -9.8242   18.1927  -32.5656 H   0  0  0  0  0  0  0  0  0  0  0  0
   -7.3818   17.6798  -32.9290 H   0  0  0  0  0  0  0  0  0  0  0  0
   -4.2551   18.1273  -32.0126 H   0  0  0  0  0  0  0  0  0  0  0  0
   -5.1621   17.8391  -33.5360 H   0  0  0  0  0  0  0  0  0  0  0  0
   -3.7264   18.9187  -33.5360 H   0  0  0  0  0  0  0  0  0  0  0  0
  1  2  1  0
  2  3  1  0
  3  4  1  0
  4  5  2  0
  5  6  1  0
  6  7  2  0
  7  8  1  0
  8  9  2  0
  9 10  1  0
 10 11  1  0
 11 12  1  0
 12 13  2  0
 13 14  1  0
 14 15  2  0
 15 16  1  0
 16 17  2  0
 17 18  1  0
 18 19  2  0
 19 20  1  0
 20 21  1  0
  9  4  1  0
 20 12  1  0
 19 14  1  0
  1 22  1  0
  1 23  1  0
  1 24  1  0
  2 25  1  0
  2 26  1  0
  5 27  1  0
  6 28  1  0
  7 29  1  0
  8 30  1  0
 10 31  1  0
 11 32  1  0
 11 33  1  0
 15 34  1  0
 16 35  1  0
 17 36  1  0
 18 37  1  0
 21 38  1  0
 21 39  1  0
 21 40  1  0
M  END
>  <UniqueID>  (36) 
36

>  <SMILES>  (36) 
CCOc1ccccc1NCc1nc2ccccc2n1C

>  <Energy>  (36) 
77.07090563467588

>  <Genealogy>  (36) 
CCOc1ccccc1NCc1nc2ccccc2n1C (3D coordinates assigned)
CCOc1ccccc1NCc1nc2ccccc2n1C (optimized conformer: 77.07090563467588 kcal/mol)

>  <smiles>  (36) 
CCOc1ccccc1NCc1nc2ccccc2n1C

>  <score_type>  (36) 
oracle

>  <origin>  (36) 
adg

>  <m_score__min__energy>  (36) 
-7.8200000000000003

>  <m_primary>  (36) 
energy

$$$$
