0:0
     RDKit          3D

 57 59  0  0  0  0  0  0  0  0999 V2000
    0.7120   17.3090  -27.8310 C   0  0  0  0  0  0  0  0  0  0  0  0
   -0.5430   17.9500  -27.6120 O   0  0  0  0  0  0  0  0  0  0  0  0
   -0.7420   19.3400  -27.6370 C   0  0  0  0  0  0  0  0  0  0  0  0
   -1.9100   19.9450  -27.1330 C   0  0  0  0  0  0  0  0  0  0  0  0
   -2.0500   21.3380  -27.1630 C   0  0  0  0  0  0  0  0  0  0  0  0
   -1.0240   22.1460  -27.6830 C   0  0  0  0  0  0  0  0  0  0  0  0
   -1.1460   23.6460  -27.6390 C   0  0  0  0  0  0  0  0  0  0  0  0
   -1.1200   24.2740  -29.0410 C   0  0  0  0  0  0  0  0  0  0  0  0
   -2.3550   25.0020  -29.3330 N   0  0  0  0  0  0  0  0  0  0  0  0
   -3.4850   24.5520  -30.0960 C   0  0  0  0  0  0  0  0  0  0  0  0
   -4.0650   25.3800  -30.8460 O   0  0  0  0  0  0  0  0  0  0  0  0
   -4.0290   23.1420  -30.0120 C   0  0  0  0  0  0  0  0  0  0  0  0
   -3.1920   22.1680  -30.7600 N   0  0  0  0  0  0  0  0  0  0  0  0
   -3.4370   20.7620  -30.3140 C   0  0  0  0  0  0  0  0  0  0  0  0
   -4.3080   19.9330  -31.2810 C   0  0  0  0  0  0  0  0  0  0  0  0
   -5.2870   20.7880  -31.9630 N   0  0  0  0  0  0  0  0  0  0  0  0
   -6.6600   20.3640  -32.1140 C   0  0  0  0  0  0  0  0  0  0  0  0
   -6.9580   19.0000  -32.3050 C   0  0  0  0  0  0  0  0  0  0  0  0
   -8.2830   18.5690  -32.4290 C   0  0  0  0  0  0  0  0  0  0  0  0
   -9.3260   19.4920  -32.3670 C   0  0  0  0  0  0  0  0  0  0  0  0
   -9.0490   20.8500  -32.1840 C   0  0  0  0  0  0  0  0  0  0  0  0
   -7.7160   21.3010  -32.0600 C   0  0  0  0  0  0  0  0  0  0  0  0
   -7.4140   22.6630  -31.8890 O   0  0  0  0  0  0  0  0  0  0  0  0
   -7.2320   23.2960  -30.6250 C   0  0  0  0  0  0  0  0  0  0  0  0
   -4.8000   21.9810  -32.6690 C   0  0  0  0  0  0  0  0  0  0  0  0
   -3.3710   22.3350  -32.2230 C   0  0  0  0  0  0  0  0  0  0  0  0
    0.1330   21.5400  -28.1980 C   0  0  0  0  0  0  0  0  0  0  0  0
    0.2680   20.1480  -28.1770 C   0  0  0  0  0  0  0  0  0  0  0  0
    1.1765   17.0718  -26.8625 H   0  0  0  0  0  0  0  0  0  0  0  0
    0.5552   16.3806  -28.3997 H   0  0  0  0  0  0  0  0  0  0  0  0
    1.3723   17.9803  -28.3997 H   0  0  0  0  0  0  0  0  0  0  0  0
   -2.7141   19.3217  -26.7148 H   0  0  0  0  0  0  0  0  0  0  0  0
   -2.9691   21.8031  -26.7770 H   0  0  0  0  0  0  0  0  0  0  0  0
   -2.0958   23.9096  -27.1508 H   0  0  0  0  0  0  0  0  0  0  0  0
   -0.2843   24.0376  -27.0786 H   0  0  0  0  0  0  0  0  0  0  0  0
   -0.2721   24.9720  -29.1029 H   0  0  0  0  0  0  0  0  0  0  0  0
   -1.0189   23.4630  -29.7772 H   0  0  0  0  0  0  0  0  0  0  0  0
   -4.0647   22.8392  -28.9551 H   0  0  0  0  0  0  0  0  0  0  0  0
   -5.0315   23.1410  -30.4647 H   0  0  0  0  0  0  0  0  0  0  0  0
   -2.1850   22.3950  -30.5680 H   0  0  0  0  0  0  0  0  0  0  0  0
   -2.4643   20.2592  -30.2090 H   0  0  0  0  0  0  0  0  0  0  0  0
   -3.9902   20.8238  -29.3652 H   0  0  0  0  0  0  0  0  0  0  0  0
   -3.6603   19.4566  -32.0317 H   0  0  0  0  0  0  0  0  0  0  0  0
   -4.8488   19.1696  -30.7024 H   0  0  0  0  0  0  0  0  0  0  0  0
   -6.1400   18.2664  -32.3571 H   0  0  0  0  0  0  0  0  0  0  0  0
   -8.5021   17.5011  -32.5755 H   0  0  0  0  0  0  0  0  0  0  0  0
  -10.3676   19.1515  -32.4621 H   0  0  0  0  0  0  0  0  0  0  0  0
   -9.8761   21.5736  -32.1361 H   0  0  0  0  0  0  0  0  0  0  0  0
   -7.4393   22.5749  -29.8206 H   0  0  0  0  0  0  0  0  0  0  0  0
   -6.1949   23.6526  -30.5395 H   0  0  0  0  0  0  0  0  0  0  0  0
   -7.9213   24.1490  -30.5395 H   0  0  0  0  0  0  0  0  0  0  0  0
   -4.8018   21.7852  -33.7514 H   0  0  0  0  0  0  0  0  0  0  0  0
   -5.4628   22.8261  -32.4314 H   0  0  0  0  0  0  0  0  0  0  0  0
   -2.6617   21.6765  -32.7457 H   0  0  0  0  0  0  0  0  0  0  0  0
   -3.1877   23.3909  -32.4710 H   0  0  0  0  0  0  0  0  0  0  0  0
    0.9362   22.1622  -28.6195 H   0  0  0  0  0  0  0  0  0  0  0  0
    1.1759   19.6827  -28.5884 H   0  0  0  0  0  0  0  0  0  0  0  0
  1  2  1  0
  2  3  1  0
  3  4  2  0
  4  5  1  0
  5  6  2  0
  6  7  1  0
  7  8  1  0
  8  9  1  0
  9 10  1  0
 10 11  2  0
 10 12  1  0
 12 13  1  0
 13 14  1  0
 14 15  1  0
 15 16  1  0
 16 17  1  0
 17 18  2  0
 18 19  1  0
 19 20  2  0
 20 21  1  0
 21 22  2  0
 22 23  1  0
 23 24  1  0
 16 25  1  0
 25 26  1  0
  6 27  1  0
 27 28  2  0
 28  3  1  0
 26 13  1  0
 22 17  1  0
  1 29  1  0
  1 30  1  0
  1 31  1  0
  4 32  1  0
  5 33  1  0
  7 34  1  0
  7 35  1  0
  8 36  1  0
  8 37  1  0
 12 38  1  0
 12 39  1  0
 13 40  1  0
 14 41  1  0
 14 42  1  0
 15 43  1  0
 15 44  1  0
 18 45  1  0
 19 46  1  0
 20 47  1  0
 21 48  1  0
 24 49  1  0
 24 50  1  0
 24 51  1  0
 25 52  1  0
 25 53  1  0
 26 54  1  0
 26 55  1  0
 27 56  1  0
 28 57  1  0
M  CHG  2   9  -1  13   1
M  END
>  <UniqueID>  (1) 
1

>  <SMILES>  (1) 
COc1ccc(CC[N-]C(=O)C[NH+]2CCN(c3ccccc3OC)CC2)cc1

>  <Energy>  (1) 
62.981474037456955

>  <Genealogy>  (1) 
COc1ccc(CC[N-]C(=O)C[NH+]2CCN(c3ccccc3OC)CC2)cc1 (protonated)
COc1ccc(CC[N-]C(=O)C[NH+]2CCN(c3ccccc3OC)CC2)cc1 (3D coordinates assigned)
COc1ccc(CC[N-]C(=O)C[NH+]2CCN(c3ccccc3OC)CC2)cc1 (nonaromatic ring conformer: 62.981474037456955 kcal/mol)

>  <smiles>  (1) 
COc1ccc(CCNC(=O)CN2CCN(c3ccccc3OC)CC2)cc1

>  <score_type>  (1) 
oracle

>  <origin>  (1) 
adg

>  <m_score__min__energy>  (1) 
-8.4700000000000006

>  <m_primary>  (1) 
energy

$$$$
1:0
     RDKit          3D

 56 59  0  0  0  0  0  0  0  0999 V2000
   -0.3640   21.1930  -31.2930 C   0  0  0  0  0  0  0  0  0  0  0  0
   -1.7390   20.8650  -31.7010 N   0  0  0  0  0  0  0  0  0  0  0  0
   -2.7140   21.8410  -31.1920 C   0  0  0  0  0  0  0  0  0  0  0  0
   -3.7000   22.1560  -32.3140 C   0  0  0  0  0  0  0  0  0  0  0  0
   -3.3330   21.2240  -33.4490 C   0  0  0  0  0  0  0  0  0  0  0  0
   -1.8870   20.8490  -33.1630 C   0  0  2  0  0  0  0  0  0  0  0  0
   -1.5380   19.4890  -33.7260 C   0  0  0  0  0  0  0  0  0  0  0  0
   -0.4780   19.3310  -34.6290 C   0  0  0  0  0  0  0  0  0  0  0  0
   -0.1880   18.0730  -35.1490 C   0  0  0  0  0  0  0  0  0  0  0  0
   -0.9560   16.9750  -34.7630 C   0  0  0  0  0  0  0  0  0  0  0  0
   -1.9840   17.1250  -33.8730 N   0  0  0  0  0  0  0  0  0  0  0  0
   -2.8320   15.9750  -33.5340 C   0  0  0  0  0  0  0  0  0  0  0  0
   -4.1840   16.0570  -34.2560 C   0  0  0  0  0  0  0  0  0  0  0  0
   -4.9610   17.2130  -33.7890 N   0  0  0  0  0  0  0  0  0  0  0  0
   -5.3170   18.1950  -34.6720 C   0  0  0  0  0  0  0  0  0  0  0  0
   -6.1130   19.2660  -34.2600 C   0  0  0  0  0  0  0  0  0  0  0  0
   -6.5380   19.3390  -32.9290 C   0  0  0  0  0  0  0  0  0  0  0  0
   -7.4030   20.4550  -32.4840 C   0  0  0  0  0  0  0  0  0  0  0  0
   -6.8190   21.7230  -32.3250 C   0  0  0  0  0  0  0  0  0  0  0  0
   -7.6080   22.8050  -31.9450 C   0  0  0  0  0  0  0  0  0  0  0  0
   -8.9700   22.6240  -31.7290 C   0  0  0  0  0  0  0  0  0  0  0  0
   -9.5260   21.3530  -31.8800 C   0  0  0  0  0  0  0  0  0  0  0  0
   -8.7470   20.2830  -32.2310 N   0  0  0  0  0  0  0  0  0  0  0  0
   -9.3870   18.9640  -32.3480 C   0  0  0  0  0  0  0  0  0  0  0  0
   -6.1710   18.3230  -32.0390 C   0  0  0  0  0  0  0  0  0  0  0  0
   -5.3790   17.2650  -32.4890 C   0  0  0  0  0  0  0  0  0  0  0  0
   -2.2760   18.3550  -33.3500 C   0  0  0  0  0  0  0  0  0  0  0  0
   -0.3011   21.2080  -30.1949 H   0  0  0  0  0  0  0  0  0  0  0  0
    0.3269   20.4345  -31.6895 H   0  0  0  0  0  0  0  0  0  0  0  0
   -0.0899   22.1817  -31.6895 H   0  0  0  0  0  0  0  0  0  0  0  0
   -3.2518   21.4166  -30.3313 H   0  0  0  0  0  0  0  0  0  0  0  0
   -2.2009   22.7581  -30.8671 H   0  0  0  0  0  0  0  0  0  0  0  0
   -4.7321   21.9698  -31.9822 H   0  0  0  0  0  0  0  0  0  0  0  0
   -3.6468   23.2114  -32.6194 H   0  0  0  0  0  0  0  0  0  0  0  0
   -3.9764   20.3318  -33.4461 H   0  0  0  0  0  0  0  0  0  0  0  0
   -3.4627   21.6886  -34.4376 H   0  0  0  0  0  0  0  0  0  0  0  0
   -1.2003   21.5604  -33.6450 H   0  0  0  0  0  0  0  0  0  0  0  0
    0.1250   20.2015  -34.9269 H   0  0  0  0  0  0  0  0  0  0  0  0
    0.6417   17.9457  -35.8599 H   0  0  0  0  0  0  0  0  0  0  0  0
   -0.7335   15.9806  -35.1773 H   0  0  0  0  0  0  0  0  0  0  0  0
   -2.3194   15.0492  -33.8342 H   0  0  0  0  0  0  0  0  0  0  0  0
   -3.0131   15.9807  -32.4490 H   0  0  0  0  0  0  0  0  0  0  0  0
   -4.0089   16.1545  -35.3376 H   0  0  0  0  0  0  0  0  0  0  0  0
   -4.7534   15.1412  -34.0388 H   0  0  0  0  0  0  0  0  0  0  0  0
   -4.9734   18.1407  -35.7156 H   0  0  0  0  0  0  0  0  0  0  0  0
   -6.4040   20.0473  -34.9775 H   0  0  0  0  0  0  0  0  0  0  0  0
   -5.7418   21.8602  -32.5002 H   0  0  0  0  0  0  0  0  0  0  0  0
   -7.1560   23.7995  -31.8160 H   0  0  0  0  0  0  0  0  0  0  0  0
   -9.6038   23.4758  -31.4415 H   0  0  0  0  0  0  0  0  0  0  0  0
  -10.6039   21.2088  -31.7149 H   0  0  0  0  0  0  0  0  0  0  0  0
   -9.5826   18.5609  -31.3434 H   0  0  0  0  0  0  0  0  0  0  0  0
  -10.3366   19.0644  -32.8941 H   0  0  0  0  0  0  0  0  0  0  0  0
   -8.7205   18.2802  -32.8941 H   0  0  0  0  0  0  0  0  0  0  0  0
   -6.5046   18.3579  -30.9914 H   0  0  0  0  0  0  0  0  0  0  0  0
   -5.0888   16.4660  -31.7908 H   0  0  0  0  0  0  0  0  0  0  0  0
   -3.0984   18.4569  -32.6266 H   0  0  0  0  0  0  0  0  0  0  0  0
  1  2  1  0
  2  3  1  0
  3  4  1  0
  4  5  1  0
  5  6  1  0
  6  7  1  0
  7  8  2  0
  8  9  1  0
  9 10  2  0
 10 11  1  0
 11 12  1  0
 12 13  1  0
 13 14  1  0
 14 15  2  0
 15 16  1  0
 16 17  2  0
 17 18  1  0
 18 19  2  0
 19 20  1  0
 20 21  2  0
 21 22  1  0
 22 23  2  0
 23 24  1  0
 17 25  1  0
 25 26  2  0
 11 27  2  0
  6  2  1  0
 27  7  1  0
 26 14  1  0
 23 18  1  0
  1 28  1  0
  1 29  1  0
  1 30  1  0
  3 31  1  0
  3 32  1  0
  4 33  1  0
  4 34  1  0
  5 35  1  0
  5 36  1  0
  6 37  1  6
  8 38  1  0
  9 39  1  0
 10 40  1  0
 12 41  1  0
 12 42  1  0
 13 43  1  0
 13 44  1  0
 15 45  1  0
 16 46  1  0
 19 47  1  0
 20 48  1  0
 21 49  1  0
 22 50  1  0
 24 51  1  0
 24 52  1  0
 24 53  1  0
 25 54  1  0
 26 55  1  0
 27 56  1  0
M  CHG  3  11   1  14   1  23   1
M  END
>  <UniqueID>  (2) 
2

>  <SMILES>  (2) 
CN1CCC[C@@H]1c1ccc[n+](CC[n+]2ccc(-c3cccc[n+]3C)cc2)c1

>  <Energy>  (2) 
67.27888278231913

>  <Genealogy>  (2) 
CN1CCC[C@@H]1c1ccc[n+](CC[n+]2ccc(-c3cccc[n+]3C)cc2)c1 (chirality)
CN1CCC[C@@H]1c1ccc[n+](CC[n+]2ccc(-c3cccc[n+]3C)cc2)c1 (3D coordinates assigned)
CN1CCC[C@@H]1c1ccc[n+](CC[n+]2ccc(-c3cccc[n+]3C)cc2)c1 (nonaromatic ring conformer: 67.27888278231913 kcal/mol)

>  <smiles>  (2) 
CN1CCCC1c1ccc[n+](CC[n+]2ccc(-c3cccc[n+]3C)cc2)c1

>  <score_type>  (2) 
oracle

>  <origin>  (2) 
adg

>  <m_score__min__energy>  (2) 
-6.9800000000000004

>  <m_primary>  (2) 
energy

$$$$
2:0
     RDKit          3D

 67 70  0  0  0  0  0  0  0  0999 V2000
    2.6590   24.5990  -27.5850 C   0  0  0  0  0  0  0  0  0  0  0  0
    2.0000   25.7330  -26.7970 C   0  0  0  0  0  0  0  0  0  0  0  0
    0.5760   25.4440  -26.5120 N   0  0  0  0  0  0  0  0  0  0  0  0
    0.0580   26.3500  -25.4620 C   0  0  0  0  0  0  0  0  0  0  0  0
   -1.3930   26.7960  -25.7610 C   0  0  0  0  0  0  0  0  0  0  0  0
   -2.4250   25.6470  -25.7440 C   0  0  0  0  0  0  0  0  0  0  0  0
   -2.0890   24.5130  -26.6420 N   0  0  0  0  0  0  0  0  0  0  0  0
   -3.3180   23.8130  -27.0900 C   0  0  0  0  0  0  0  0  0  0  0  0
   -3.3520   23.6480  -28.6210 C   0  0  0  0  0  0  0  0  0  0  0  0
   -2.9250   24.9260  -29.3560 C   0  0  0  0  0  0  0  0  0  0  0  0
   -3.8790   25.2930  -30.4000 N   0  0  0  0  0  0  0  0  0  0  0  0
   -5.0950   24.5920  -30.6970 C   0  0  0  0  0  0  0  0  0  0  0  0
   -6.1940   25.1140  -30.3750 O   0  0  0  0  0  0  0  0  0  0  0  0
   -5.0910   23.2680  -31.3520 C   0  0  0  0  0  0  0  0  0  0  0  0
   -3.8640   22.7130  -31.7290 C   0  0  0  0  0  0  0  0  0  0  0  0
   -3.7930   21.4850  -32.3220 N   0  0  0  0  0  0  0  0  0  0  0  0
   -2.4980   20.9760  -32.7000 C   0  0  0  0  0  0  0  0  0  0  0  0
   -2.2820   20.5170  -34.0090 C   0  0  0  0  0  0  0  0  0  0  0  0
   -1.0310   20.0330  -34.3930 C   0  0  0  0  0  0  0  0  0  0  0  0
    0.0180   20.0050  -33.4730 C   0  0  0  0  0  0  0  0  0  0  0  0
   -0.1810   20.4590  -32.1670 C   0  0  0  0  0  0  0  0  0  0  0  0
   -1.4410   20.9470  -31.7660 C   0  0  0  0  0  0  0  0  0  0  0  0
   -1.6840   21.3970  -30.4580 O   0  0  0  0  0  0  0  0  0  0  0  0
   -0.6820   21.8920  -29.5750 C   0  0  0  0  0  0  0  0  0  0  0  0
   -4.9280   20.7580  -32.5680 C   0  0  0  0  0  0  0  0  0  0  0  0
   -4.8400   19.6170  -33.1060 O   0  0  0  0  0  0  0  0  0  0  0  0
   -6.1930   21.2710  -32.2170 C   0  0  0  0  0  0  0  0  0  0  0  0
   -7.3730   20.5470  -32.4780 C   0  0  0  0  0  0  0  0  0  0  0  0
   -8.6180   21.0770  -32.1380 C   0  0  0  0  0  0  0  0  0  0  0  0
   -8.7040   22.3320  -31.5410 C   0  0  0  0  0  0  0  0  0  0  0  0
   -7.5470   23.0650  -31.2730 C   0  0  0  0  0  0  0  0  0  0  0  0
   -6.2770   22.5430  -31.5990 C   0  0  0  0  0  0  0  0  0  0  0  0
   -1.1080   23.5540  -26.0740 C   0  0  0  0  0  0  0  0  0  0  0  0
    0.3690   24.0030  -26.1950 C   0  0  0  0  0  0  0  0  0  0  0  0
    3.0853   23.8655  -26.8848 H   0  0  0  0  0  0  0  0  0  0  0  0
    1.9062   24.1069  -28.2183 H   0  0  0  0  0  0  0  0  0  0  0  0
    3.4593   25.0094  -28.2183 H   0  0  0  0  0  0  0  0  0  0  0  0
    2.5351   25.8637  -25.8448 H   0  0  0  0  0  0  0  0  0  0  0  0
    2.0499   26.6483  -27.4051 H   0  0  0  0  0  0  0  0  0  0  0  0
    0.0783   25.8251  -24.4955 H   0  0  0  0  0  0  0  0  0  0  0  0
    0.6953   27.2462  -25.4353 H   0  0  0  0  0  0  0  0  0  0  0  0
   -1.6891   27.5368  -25.0037 H   0  0  0  0  0  0  0  0  0  0  0  0
   -1.3935   27.2061  -26.7817 H   0  0  0  0  0  0  0  0  0  0  0  0
   -2.4967   25.2631  -24.7157 H   0  0  0  0  0  0  0  0  0  0  0  0
   -3.3732   26.0686  -26.1089 H   0  0  0  0  0  0  0  0  0  0  0  0
   -3.3519   22.8176  -26.6231 H   0  0  0  0  0  0  0  0  0  0  0  0
   -4.1865   24.4180  -26.7904 H   0  0  0  0  0  0  0  0  0  0  0  0
   -2.6697   22.8329  -28.9039 H   0  0  0  0  0  0  0  0  0  0  0  0
   -4.3890   23.4241  -28.9116 H   0  0  0  0  0  0  0  0  0  0  0  0
   -2.8571   25.7493  -28.6296 H   0  0  0  0  0  0  0  0  0  0  0  0
   -1.9510   24.7389  -29.8317 H   0  0  0  0  0  0  0  0  0  0  0  0
   -2.9377   23.2768  -31.5442 H   0  0  0  0  0  0  0  0  0  0  0  0
   -3.1056   20.5391  -34.7378 H   0  0  0  0  0  0  0  0  0  0  0  0
   -0.8716   19.6737  -35.4204 H   0  0  0  0  0  0  0  0  0  0  0  0
    1.0042   19.6244  -33.7771 H   0  0  0  0  0  0  0  0  0  0  0  0
    0.6506   20.4355  -31.4473 H   0  0  0  0  0  0  0  0  0  0  0  0
   -1.0005   21.7347  -28.5339 H   0  0  0  0  0  0  0  0  0  0  0  0
    0.2620   21.3566  -29.7546 H   0  0  0  0  0  0  0  0  0  0  0  0
   -0.5336   22.9671  -29.7546 H   0  0  0  0  0  0  0  0  0  0  0  0
   -7.3123   19.5568  -32.9532 H   0  0  0  0  0  0  0  0  0  0  0  0
   -9.5335   20.5023  -32.3420 H   0  0  0  0  0  0  0  0  0  0  0  0
   -9.6883   22.7476  -31.2794 H   0  0  0  0  0  0  0  0  0  0  0  0
   -7.6256   24.0570  -30.8042 H   0  0  0  0  0  0  0  0  0  0  0  0
   -1.3394   23.4162  -25.0075 H   0  0  0  0  0  0  0  0  0  0  0  0
   -1.2027   22.6258  -26.6567 H   0  0  0  0  0  0  0  0  0  0  0  0
    0.8674   23.7914  -25.2375 H   0  0  0  0  0  0  0  0  0  0  0  0
    0.7868   23.4432  -27.0447 H   0  0  0  0  0  0  0  0  0  0  0  0
  1  2  1  0
  2  3  1  0
  3  4  1  0
  4  5  1  0
  5  6  1  0
  6  7  1  0
  7  8  1  0
  8  9  1  0
  9 10  1  0
 10 11  1  0
 11 12  1  0
 12 13  2  0
 12 14  1  0
 14 15  2  0
 15 16  1  0
 16 17  1  0
 17 18  2  0
 18 19  1  0
 19 20  2  0
 20 21  1  0
 21 22  2  0
 22 23  1  0
 23 24  1  0
 16 25  1  0
 25 26  2  0
 25 27  1  0
 27 28  2  0
 28 29  1  0
 29 30  2  0
 30 31  1  0
 31 32  2  0
  7 33  1  0
 33 34  1  0
 34  3  1  0
 32 14  1  0
 22 17  1  0
 32 27  1  0
  1 35  1  0
  1 36  1  0
  1 37  1  0
  2 38  1  0
  2 39  1  0
  4 40  1  0
  4 41  1  0
  5 42  1  0
  5 43  1  0
  6 44  1  0
  6 45  1  0
  8 46  1  0
  8 47  1  0
  9 48  1  0
  9 49  1  0
 10 50  1  0
 10 51  1  0
 15 52  1  0
 18 53  1  0
 19 54  1  0
 20 55  1  0
 21 56  1  0
 24 57  1  0
 24 58  1  0
 24 59  1  0
 28 60  1  0
 29 61  1  0
 30 62  1  0
 31 63  1  0
 33 64  1  0
 33 65  1  0
 34 66  1  0
 34 67  1  0
M  CHG  1  11  -1
M  END
>  <UniqueID>  (3) 
3

>  <SMILES>  (3) 
CCN1CCCN(CCC[N-]C(=O)c2cn(-c3ccccc3OC)c(=O)c3ccccc23)CC1

>  <Energy>  (3) 
103.04877091553797

>  <Genealogy>  (3) 
CCN1CCCN(CCC[N-]C(=O)c2cn(-c3ccccc3OC)c(=O)c3ccccc23)CC1 (protonated)
CCN1CCCN(CCC[N-]C(=O)c2cn(-c3ccccc3OC)c(=O)c3ccccc23)CC1 (3D coordinates assigned)
CCN1CCCN(CCC[N-]C(=O)c2cn(-c3ccccc3OC)c(=O)c3ccccc23)CC1 (nonaromatic ring conformer: 103.04877091553797 kcal/mol)

>  <smiles>  (3) 
CCN1CCCN(CCCNC(=O)c2cn(-c3ccccc3OC)c(=O)c3ccccc23)CC1

>  <score_type>  (3) 
oracle

>  <origin>  (3) 
adg

>  <m_score__min__energy>  (3) 
-9.4000000000000004

>  <m_primary>  (3) 
energy

$$$$
3:0
     RDKit          3D

 45 46  0  0  0  0  0  0  0  0999 V2000
   -2.7860   24.5280  -29.3090 C   0  0  0  0  0  0  0  0  0  0  0  0
   -4.1840   24.0030  -29.6170 C   0  0  0  0  0  0  0  0  0  0  0  0
   -4.7570   24.6830  -30.7970 N   0  0  0  0  0  0  0  0  0  0  0  0
   -5.6850   25.7640  -30.4210 C   0  0  0  0  0  0  0  0  0  0  0  0
   -5.3640   23.7340  -31.7590 C   0  0  0  0  0  0  0  0  0  0  0  0
   -6.8180   23.3460  -31.4260 C   0  0  0  0  0  0  0  0  0  0  0  0
   -7.3760   22.5310  -32.5020 N   0  0  0  0  0  0  0  0  0  0  0  0
   -7.7120   21.1470  -32.3250 C   0  0  0  0  0  0  0  0  0  0  0  0
   -6.9940   20.0450  -32.7790 C   0  0  0  0  0  0  0  0  0  0  0  0
   -5.7180   20.0150  -33.5740 C   0  0  0  0  0  0  0  0  0  0  0  0
   -4.5640   20.5760  -32.7960 C   0  0  0  0  0  0  0  0  0  0  0  0
   -4.3390   20.3730  -31.4400 C   0  0  0  0  0  0  0  0  0  0  0  0
   -3.1390   20.9350  -30.9890 C   0  0  0  0  0  0  0  0  0  0  0  0
   -2.5720   20.8510  -29.1700 Br  0  0  0  0  0  0  0  0  0  0  0  0
   -2.4030   21.5640  -31.9830 C   0  0  0  0  0  0  0  0  0  0  0  0
   -3.2470   21.4160  -33.4280 S   0  0  0  0  0  0  0  0  0  0  0  0
   -7.6750   18.9540  -32.2500 C   0  0  0  0  0  0  0  0  0  0  0  0
   -7.2630   17.5170  -32.3350 C   0  0  0  0  0  0  0  0  0  0  0  0
   -8.7110   19.3950  -31.5100 N   0  0  0  0  0  0  0  0  0  0  0  0
   -8.7330   20.7170  -31.5570 N   0  0  0  0  0  0  0  0  0  0  0  0
   -9.7050   21.5500  -30.8550 C   0  0  0  0  0  0  0  0  0  0  0  0
   -2.6459   24.5806  -28.2192 H   0  0  0  0  0  0  0  0  0  0  0  0
   -2.0360   23.8503  -29.7428 H   0  0  0  0  0  0  0  0  0  0  0  0
   -2.6675   25.5319  -29.7428 H   0  0  0  0  0  0  0  0  0  0  0  0
   -4.1266   22.9228  -29.8169 H   0  0  0  0  0  0  0  0  0  0  0  0
   -4.8314   24.2006  -28.7500 H   0  0  0  0  0  0  0  0  0  0  0  0
   -5.7435   25.8322  -29.3247 H   0  0  0  0  0  0  0  0  0  0  0  0
   -5.3206   26.7184  -30.8288 H   0  0  0  0  0  0  0  0  0  0  0  0
   -6.6836   25.5484  -30.8288 H   0  0  0  0  0  0  0  0  0  0  0  0
   -5.3496   24.1967  -32.7568 H   0  0  0  0  0  0  0  0  0  0  0  0
   -4.7696   22.8096  -31.7114 H   0  0  0  0  0  0  0  0  0  0  0  0
   -6.8363   22.7725  -30.4875 H   0  0  0  0  0  0  0  0  0  0  0  0
   -7.4197   24.2602  -31.3160 H   0  0  0  0  0  0  0  0  0  0  0  0
   -7.2070   22.8660  -33.4770 H   0  0  0  0  0  0  0  0  0  0  0  0
   -5.4918   18.9732  -33.8453 H   0  0  0  0  0  0  0  0  0  0  0  0
   -5.8594   20.6352  -34.4714 H   0  0  0  0  0  0  0  0  0  0  0  0
   -5.0342   19.8256  -30.7865 H   0  0  0  0  0  0  0  0  0  0  0  0
   -1.4361   22.0709  -31.8484 H   0  0  0  0  0  0  0  0  0  0  0  0
   -7.1459   17.1085  -31.3204 H   0  0  0  0  0  0  0  0  0  0  0  0
   -8.0336   16.9459  -32.8735 H   0  0  0  0  0  0  0  0  0  0  0  0
   -6.3069   17.4409  -32.8735 H   0  0  0  0  0  0  0  0  0  0  0  0
   -9.3760   18.8030  -30.9630 H   0  0  0  0  0  0  0  0  0  0  0  0
   -9.5705   21.4347  -29.7694 H   0  0  0  0  0  0  0  0  0  0  0  0
   -9.5540   22.6034  -31.1334 H   0  0  0  0  0  0  0  0  0  0  0  0
  -10.7229   21.2395  -31.1334 H   0  0  0  0  0  0  0  0  0  0  0  0
  1  2  1  0
  2  3  1  0
  3  4  1  0
  3  5  1  0
  5  6  1  0
  6  7  1  0
  7  8  1  0
  8  9  2  0
  9 10  1  0
 10 11  1  0
 11 12  2  0
 12 13  1  0
 13 14  1  0
 13 15  2  0
 15 16  1  0
  9 17  1  0
 17 18  1  0
 17 19  2  0
 19 20  1  0
 20 21  1  0
 20  8  1  0
 16 11  1  0
  1 22  1  0
  1 23  1  0
  1 24  1  0
  2 25  1  0
  2 26  1  0
  4 27  1  0
  4 28  1  0
  4 29  1  0
  5 30  1  0
  5 31  1  0
  6 32  1  0
  6 33  1  0
  7 34  1  0
 10 35  1  0
 10 36  1  0
 12 37  1  0
 15 38  1  0
 18 39  1  0
 18 40  1  0
 18 41  1  0
 19 42  1  0
 21 43  1  0
 21 44  1  0
 21 45  1  0
M  CHG  1  19   1
M  END
>  <UniqueID>  (4) 
4

>  <SMILES>  (4) 
CCN(C)CCNc1c(Cc2cc(Br)cs2)c(C)[nH+]n1C

>  <Energy>  (4) 
96.9728958638304

>  <Genealogy>  (4) 
CCN(C)CCNc1c(Cc2cc(Br)cs2)c(C)[nH+]n1C (protonated)
CCN(C)CCNc1c(Cc2cc(Br)cs2)c(C)[nH+]n1C (3D coordinates assigned)
CCN(C)CCNc1c(Cc2cc(Br)cs2)c(C)[nH+]n1C (optimized conformer: 96.9728958638304 kcal/mol)

>  <smiles>  (4) 
CCN(C)CCNc1c(Cc2cc(Br)cs2)c(C)nn1C

>  <score_type>  (4) 
oracle

>  <origin>  (4) 
adg

>  <m_score__min__energy>  (4) 
-7.6799999999999997

>  <m_primary>  (4) 
energy

$$$$
4:0
     RDKit          3D

 59 62  0  0  0  0  0  0  0  0999 V2000
   -6.3120   19.6680  -33.8030 C   0  0  0  0  0  0  0  0  0  0  0  0
   -5.2840   20.3820  -33.3440 C   0  0  0  0  0  0  0  0  0  0  0  0
   -4.8800   20.3510  -31.9000 C   0  0  0  0  0  0  0  0  0  0  0  0
   -3.7240   21.2200  -31.6670 N   0  0  0  0  0  0  0  0  0  0  0  0
   -2.4420   20.9820  -32.0230 C   0  0  0  0  0  0  0  0  0  0  0  0
   -1.8510   19.4460  -32.7550 S   0  0  0  0  0  0  0  0  0  0  0  0
   -0.9330   18.8700  -31.2860 C   0  0  0  0  0  0  0  0  0  0  0  0
   -0.6100   19.9810  -30.3340 C   0  0  0  0  0  0  0  0  0  0  0  0
    0.5280   20.5270  -30.3790 O   0  0  0  0  0  0  0  0  0  0  0  0
   -1.5740   20.3810  -29.3480 N   0  0  0  0  0  0  0  0  0  0  0  0
   -1.6060   21.6770  -28.7310 C   0  0  0  0  0  0  0  0  0  0  0  0
   -0.4960   22.5350  -28.7700 C   0  0  0  0  0  0  0  0  0  0  0  0
   -0.5780   23.8220  -28.2270 C   0  0  0  0  0  0  0  0  0  0  0  0
   -1.7770   24.2850  -27.6530 C   0  0  0  0  0  0  0  0  0  0  0  0
   -1.8850   25.6850  -27.0690 C   0  0  0  0  0  0  0  0  0  0  0  0
   -2.3860   25.6560  -25.5970 C   0  0  0  0  0  0  0  0  0  0  0  0
   -1.2730   25.9620  -24.5870 C   0  0  0  0  0  0  0  0  0  0  0  0
   -0.6150   27.3300  -24.8480 C   0  0  0  0  0  0  0  0  0  0  0  0
   -0.5390   27.7100  -26.3420 C   0  0  0  0  0  0  0  0  0  0  0  0
   -0.5670   26.4800  -27.2500 C   0  0  0  0  0  0  0  0  0  0  0  0
   -2.8810   23.4150  -27.6100 C   0  0  0  0  0  0  0  0  0  0  0  0
   -2.7970   22.1290  -28.1510 C   0  0  0  0  0  0  0  0  0  0  0  0
   -1.6710   22.0750  -31.8720 N   0  0  0  0  0  0  0  0  0  0  0  0
   -2.4610   23.0360  -31.4070 N   0  0  0  0  0  0  0  0  0  0  0  0
   -3.6990   22.5160  -31.2750 C   0  0  0  0  0  0  0  0  0  0  0  0
   -4.8600   23.3170  -30.8390 C   0  0  0  0  0  0  0  0  0  0  0  0
   -6.1440   22.7420  -30.8960 C   0  0  0  0  0  0  0  0  0  0  0  0
   -7.2650   23.4830  -30.5060 C   0  0  0  0  0  0  0  0  0  0  0  0
   -7.1140   24.7990  -30.0640 C   0  0  0  0  0  0  0  0  0  0  0  0
   -5.8480   25.3880  -30.0310 C   0  0  0  0  0  0  0  0  0  0  0  0
   -4.7240   24.6620  -30.4380 C   0  0  0  0  0  0  0  0  0  0  0  0
   -3.4870   25.2970  -30.4680 O   0  0  0  0  0  0  0  0  0  0  0  0
   -6.5814   19.7139  -34.8685 H   0  0  0  0  0  0  0  0  0  0  0  0
   -6.8908   19.0329  -33.1162 H   0  0  0  0  0  0  0  0  0  0  0  0
   -4.7159   21.0119  -34.0444 H   0  0  0  0  0  0  0  0  0  0  0  0
   -5.7219   20.6965  -31.2820 H   0  0  0  0  0  0  0  0  0  0  0  0
   -4.6072   19.3198  -31.6312 H   0  0  0  0  0  0  0  0  0  0  0  0
   -1.5444   18.1222  -30.7598 H   0  0  0  0  0  0  0  0  0  0  0  0
    0.0192   18.4440  -31.6350 H   0  0  0  0  0  0  0  0  0  0  0  0
   -2.3050   19.6860  -29.0670 H   0  0  0  0  0  0  0  0  0  0  0  0
    0.4433   22.1940  -29.2298 H   0  0  0  0  0  0  0  0  0  0  0  0
    0.3040   24.4790  -28.2489 H   0  0  0  0  0  0  0  0  0  0  0  0
   -2.6516   26.2303  -27.6391 H   0  0  0  0  0  0  0  0  0  0  0  0
   -3.1822   26.4062  -25.4814 H   0  0  0  0  0  0  0  0  0  0  0  0
   -2.7519   24.6394  -25.3905 H   0  0  0  0  0  0  0  0  0  0  0  0
   -1.7029   25.9624  -23.5745 H   0  0  0  0  0  0  0  0  0  0  0  0
   -0.4985   25.1878  -24.6910 H   0  0  0  0  0  0  0  0  0  0  0  0
   -1.1982   28.1011  -24.3233 H   0  0  0  0  0  0  0  0  0  0  0  0
    0.4200   27.2627  -24.4816 H   0  0  0  0  0  0  0  0  0  0  0  0
   -1.3969   28.3527  -26.5887 H   0  0  0  0  0  0  0  0  0  0  0  0
    0.4134   28.2340  -26.5104 H   0  0  0  0  0  0  0  0  0  0  0  0
   -0.4838   26.8045  -28.2977 H   0  0  0  0  0  0  0  0  0  0  0  0
    0.2759   25.8266  -26.9805 H   0  0  0  0  0  0  0  0  0  0  0  0
   -3.8203   23.7500  -27.1458 H   0  0  0  0  0  0  0  0  0  0  0  0
   -3.6745   21.4664  -28.1207 H   0  0  0  0  0  0  0  0  0  0  0  0
   -6.2662   21.7071  -31.2482 H   0  0  0  0  0  0  0  0  0  0  0  0
   -8.2659   23.0286  -30.5476 H   0  0  0  0  0  0  0  0  0  0  0  0
   -7.9947   25.3734  -29.7409 H   0  0  0  0  0  0  0  0  0  0  0  0
   -5.7347   26.4257  -29.6840 H   0  0  0  0  0  0  0  0  0  0  0  0
  1  2  2  0
  2  3  1  0
  3  4  1  0
  4  5  1  0
  5  6  1  0
  6  7  1  0
  7  8  1  0
  8  9  2  0
  8 10  1  0
 10 11  1  0
 11 12  2  0
 12 13  1  0
 13 14  2  0
 14 15  1  0
 15 16  1  0
 16 17  1  0
 17 18  1  0
 18 19  1  0
 19 20  1  0
 14 21  1  0
 21 22  2  0
  5 23  2  0
 23 24  1  0
 24 25  2  0
 25 26  1  0
 26 27  2  0
 27 28  1  0
 28 29  2  0
 29 30  1  0
 30 31  2  0
 31 32  1  0
 25  4  1  0
 31 26  1  0
 22 11  1  0
 20 15  1  0
  1 33  1  0
  1 34  1  0
  2 35  1  0
  3 36  1  0
  3 37  1  0
  7 38  1  0
  7 39  1  0
 10 40  1  0
 12 41  1  0
 13 42  1  0
 15 43  1  0
 16 44  1  0
 16 45  1  0
 17 46  1  0
 17 47  1  0
 18 48  1  0
 18 49  1  0
 19 50  1  0
 19 51  1  0
 20 52  1  0
 20 53  1  0
 21 54  1  0
 22 55  1  0
 27 56  1  0
 28 57  1  0
 29 58  1  0
 30 59  1  0
M  CHG  1  32  -1
M  END
>  <UniqueID>  (5) 
5

>  <SMILES>  (5) 
C=CCn1c(SCC(=O)Nc2ccc(C3CCCCC3)cc2)nnc1-c1ccccc1[O-]

>  <Energy>  (5) 
103.15751667185063

>  <Genealogy>  (5) 
C=CCn1c(SCC(=O)Nc2ccc(C3CCCCC3)cc2)nnc1-c1ccccc1[O-] (protonated)
C=CCn1c(SCC(=O)Nc2ccc(C3CCCCC3)cc2)nnc1-c1ccccc1[O-] (3D coordinates assigned)
C=CCn1c(SCC(=O)Nc2ccc(C3CCCCC3)cc2)nnc1-c1ccccc1[O-] (nonaromatic ring conformer: 103.15751667185063 kcal/mol)

>  <smiles>  (5) 
C=CCn1c(SCC(=O)Nc2ccc(C3CCCCC3)cc2)nnc1-c1ccccc1O

>  <score_type>  (5) 
oracle

>  <origin>  (5) 
adg

>  <m_score__min__energy>  (5) 
-12.789999999999999

>  <m_primary>  (5) 
energy

$$$$
5:0
     RDKit          3D

 41 44  0  0  0  0  0  0  0  0999 V2000
    1.1050   26.5850  -23.8930 C   0  0  0  0  0  0  0  0  0  0  0  0
    1.4720   26.2850  -25.2360 O   0  0  0  0  0  0  0  0  0  0  0  0
    0.5750   25.8520  -26.2250 C   0  0  0  0  0  0  0  0  0  0  0  0
   -0.3820   26.7040  -26.7960 C   0  0  0  0  0  0  0  0  0  0  0  0
   -1.2510   26.2290  -27.7760 C   0  0  0  0  0  0  0  0  0  0  0  0
   -1.1870   24.8910  -28.2090 C   0  0  0  0  0  0  0  0  0  0  0  0
   -2.0710   24.4240  -29.1990 C   0  0  0  0  0  0  0  0  0  0  0  0
   -3.0110   25.2990  -29.7430 O   0  0  0  0  0  0  0  0  0  0  0  0
   -2.0090   23.0830  -29.6360 C   0  0  0  0  0  0  0  0  0  0  0  0
   -2.8710   22.5650  -30.6310 C   0  0  0  0  0  0  0  0  0  0  0  0
   -3.7230   23.3040  -31.1960 O   0  0  0  0  0  0  0  0  0  0  0  0
   -2.7640   21.2150  -31.0130 C   0  0  0  0  0  0  0  0  0  0  0  0
   -3.6520   20.6160  -32.0410 C   0  0  0  0  0  0  0  0  0  0  0  0
   -3.1390   19.6950  -32.9720 C   0  0  0  0  0  0  0  0  0  0  0  0
   -3.9750   19.1230  -33.9350 C   0  0  0  0  0  0  0  0  0  0  0  0
   -5.3350   19.4570  -33.9760 C   0  0  0  0  0  0  0  0  0  0  0  0
   -6.1780   18.8920  -34.9310 O   0  0  0  0  0  0  0  0  0  0  0  0
   -5.8530   20.3660  -33.0480 C   0  0  0  0  0  0  0  0  0  0  0  0
   -5.0190   20.9410  -32.0850 C   0  0  0  0  0  0  0  0  0  0  0  0
   -1.7820   20.4320  -30.4000 C   0  0  0  0  0  0  0  0  0  0  0  0
   -0.9830   20.9450  -29.4760 O   0  0  0  0  0  0  0  0  0  0  0  0
   -1.0490   22.2110  -29.0690 C   0  0  0  0  0  0  0  0  0  0  0  0
   -0.1560   22.6680  -28.0750 C   0  0  0  0  0  0  0  0  0  0  0  0
    0.8610   21.7140  -27.4840 C   0  0  0  0  0  0  0  0  0  0  0  0
   -0.2240   24.0170  -27.6400 C   0  0  0  0  0  0  0  0  0  0  0  0
    0.6470   24.5220  -26.6480 C   0  0  0  0  0  0  0  0  0  0  0  0
    1.7677   26.0433  -23.2021 H   0  0  0  0  0  0  0  0  0  0  0  0
    1.2004   27.6671  -23.7198 H   0  0  0  0  0  0  0  0  0  0  0  0
    0.0635   26.2763  -23.7198 H   0  0  0  0  0  0  0  0  0  0  0  0
   -0.4467   27.7521  -26.4685 H   0  0  0  0  0  0  0  0  0  0  0  0
   -1.9961   26.9077  -28.2167 H   0  0  0  0  0  0  0  0  0  0  0  0
   -2.0735   19.4233  -32.9420 H   0  0  0  0  0  0  0  0  0  0  0  0
   -3.5638   18.4083  -34.6631 H   0  0  0  0  0  0  0  0  0  0  0  0
   -6.9210   19.4280  -35.3630 H   0  0  0  0  0  0  0  0  0  0  0  0
   -6.9206   20.6294  -33.0761 H   0  0  0  0  0  0  0  0  0  0  0  0
   -5.4351   21.6526  -31.3566 H   0  0  0  0  0  0  0  0  0  0  0  0
   -1.6710   19.3763  -30.6884 H   0  0  0  0  0  0  0  0  0  0  0  0
    0.8121   21.7599  -26.3860 H   0  0  0  0  0  0  0  0  0  0  0  0
    0.6403   20.6895  -27.8183 H   0  0  0  0  0  0  0  0  0  0  0  0
    1.8693   21.9996  -27.8183 H   0  0  0  0  0  0  0  0  0  0  0  0
    1.3972   23.8542  -26.1995 H   0  0  0  0  0  0  0  0  0  0  0  0
  1  2  1  0
  2  3  1  0
  3  4  2  0
  4  5  1  0
  5  6  2  0
  6  7  1  0
  7  8  1  0
  7  9  2  0
  9 10  1  0
 10 11  2  0
 10 12  1  0
 12 13  1  0
 13 14  2  0
 14 15  1  0
 15 16  2  0
 16 17  1  0
 16 18  1  0
 18 19  2  0
 12 20  2  0
 20 21  1  0
 21 22  1  0
 22 23  2  0
 23 24  1  0
 23 25  1  0
 25 26  2  0
 26  3  1  0
 25  6  1  0
 22  9  1  0
 19 13  1  0
  1 27  1  0
  1 28  1  0
  1 29  1  0
  4 30  1  0
  5 31  1  0
 14 32  1  0
 15 33  1  0
 17 34  1  0
 18 35  1  0
 19 36  1  0
 20 37  1  0
 24 38  1  0
 24 39  1  0
 24 40  1  0
 26 41  1  0
M  CHG  1   8  -1
M  END
>  <UniqueID>  (6) 
6

>  <SMILES>  (6) 
COc1ccc2c([O-])c3c(=O)c(-c4ccc(O)cc4)coc3c(C)c2c1

>  <Energy>  (6) 
66.64870924548929

>  <Genealogy>  (6) 
COc1ccc2c([O-])c3c(=O)c(-c4ccc(O)cc4)coc3c(C)c2c1 (protonated)
COc1ccc2c([O-])c3c(=O)c(-c4ccc(O)cc4)coc3c(C)c2c1 (3D coordinates assigned)
COc1ccc2c([O-])c3c(=O)c(-c4ccc(O)cc4)coc3c(C)c2c1 (optimized conformer: 66.64870924548929 kcal/mol)

>  <smiles>  (6) 
COc1ccc2c(O)c3c(=O)c(-c4ccc(O)cc4)coc3c(C)c2c1

>  <score_type>  (6) 
oracle

>  <origin>  (6) 
adg

>  <m_score__min__energy>  (6) 
-9.9199999999999999

>  <m_primary>  (6) 
energy

$$$$
6:0
     RDKit          3D

 45 47  0  0  0  0  0  0  0  0999 V2000
    1.1780   23.9530  -27.0770 C   0  0  0  0  0  0  0  0  0  0  0  0
    0.6260   24.1820  -28.3690 O   0  0  0  0  0  0  0  0  0  0  0  0
   -0.4170   23.4300  -28.9300 C   0  0  0  0  0  0  0  0  0  0  0  0
   -0.2460   22.0480  -29.0520 C   0  0  0  0  0  0  0  0  0  0  0  0
   -1.2490   21.2570  -29.6130 C   0  0  0  0  0  0  0  0  0  0  0  0
   -2.4360   21.8410  -30.0600 C   0  0  0  0  0  0  0  0  0  0  0  0
   -2.6350   23.2280  -29.9460 C   0  0  0  0  0  0  0  0  0  0  0  0
   -3.8980   23.8260  -30.4380 C   0  0  0  0  0  0  0  0  0  0  0  0
   -4.9320   23.1360  -30.9650 N   0  0  0  0  0  0  0  0  0  0  0  0
   -5.8530   24.0730  -31.2470 C   0  0  0  0  0  0  0  0  0  0  0  0
   -7.1890   23.7920  -31.8670 C   0  0  0  0  0  0  0  0  0  0  0  0
   -7.1810   22.5230  -32.6100 N   0  0  0  0  0  0  0  0  0  0  0  0
   -7.4160   21.3430  -31.7590 C   0  0  0  0  0  0  0  0  0  0  0  0
   -6.8550   20.0690  -32.3580 C   0  0  0  0  0  0  0  0  0  0  0  0
   -7.6980   18.9550  -32.5140 C   0  0  0  0  0  0  0  0  0  0  0  0
   -7.2160   17.7750  -33.0820 C   0  0  0  0  0  0  0  0  0  0  0  0
   -5.8890   17.6930  -33.5000 C   0  0  0  0  0  0  0  0  0  0  0  0
   -5.0360   18.7870  -33.3470 C   0  0  0  0  0  0  0  0  0  0  0  0
   -5.5060   19.9850  -32.7730 C   0  0  0  0  0  0  0  0  0  0  0  0
   -4.6660   21.0970  -32.5980 O   0  0  0  0  0  0  0  0  0  0  0  0
   -3.4400   21.3040  -33.2920 C   0  0  0  0  0  0  0  0  0  0  0  0
   -5.3480   25.3080  -30.9030 C   0  0  0  0  0  0  0  0  0  0  0  0
   -4.1470   25.1200  -30.4060 O   0  0  0  0  0  0  0  0  0  0  0  0
   -1.6190   24.0180  -29.3750 C   0  0  0  0  0  0  0  0  0  0  0  0
    0.4508   24.2547  -26.3088 H   0  0  0  0  0  0  0  0  0  0  0  0
    1.4107   22.8841  -26.9619 H   0  0  0  0  0  0  0  0  0  0  0  0
    2.0991   24.5433  -26.9619 H   0  0  0  0  0  0  0  0  0  0  0  0
    0.6866   21.5806  -28.7030 H   0  0  0  0  0  0  0  0  0  0  0  0
   -1.1044   20.1703  -29.7034 H   0  0  0  0  0  0  0  0  0  0  0  0
   -3.2209   21.2114  -30.5044 H   0  0  0  0  0  0  0  0  0  0  0  0
   -5.0190   22.1100  -31.1340 H   0  0  0  0  0  0  0  0  0  0  0  0
   -7.9475   23.7363  -31.0723 H   0  0  0  0  0  0  0  0  0  0  0  0
   -7.4204   24.6039  -32.5722 H   0  0  0  0  0  0  0  0  0  0  0  0
   -6.2500   22.4240  -33.0800 H   0  0  0  0  0  0  0  0  0  0  0  0
   -6.9388   21.5127  -30.7825 H   0  0  0  0  0  0  0  0  0  0  0  0
   -8.5042   21.2140  -31.6630 H   0  0  0  0  0  0  0  0  0  0  0  0
   -8.7462   19.0139  -32.1857 H   0  0  0  0  0  0  0  0  0  0  0  0
   -7.8839   16.9090  -33.1999 H   0  0  0  0  0  0  0  0  0  0  0  0
   -5.5128   16.7633  -33.9518 H   0  0  0  0  0  0  0  0  0  0  0  0
   -3.9892   18.7135  -33.6769 H   0  0  0  0  0  0  0  0  0  0  0  0
   -2.6259   21.4415  -32.5651 H   0  0  0  0  0  0  0  0  0  0  0  0
   -3.2240   20.4296  -33.9235 H   0  0  0  0  0  0  0  0  0  0  0  0
   -3.5230   22.2008  -33.9235 H   0  0  0  0  0  0  0  0  0  0  0  0
   -5.8579   26.2753  -31.0228 H   0  0  0  0  0  0  0  0  0  0  0  0
   -1.7642   25.1038  -29.2751 H   0  0  0  0  0  0  0  0  0  0  0  0
  1  2  1  0
  2  3  1  0
  3  4  2  0
  4  5  1  0
  5  6  2  0
  6  7  1  0
  7  8  1  0
  8  9  2  0
  9 10  1  0
 10 11  1  0
 11 12  1  0
 12 13  1  0
 13 14  1  0
 14 15  2  0
 15 16  1  0
 16 17  2  0
 17 18  1  0
 18 19  2  0
 19 20  1  0
 20 21  1  0
 10 22  2  0
 22 23  1  0
  7 24  2  0
 24  3  1  0
 23  8  1  0
 19 14  1  0
  1 25  1  0
  1 26  1  0
  1 27  1  0
  4 28  1  0
  5 29  1  0
  6 30  1  0
  9 31  1  0
 11 32  1  0
 11 33  1  0
 12 34  1  0
 13 35  1  0
 13 36  1  0
 15 37  1  0
 16 38  1  0
 17 39  1  0
 18 40  1  0
 21 41  1  0
 21 42  1  0
 21 43  1  0
 22 44  1  0
 24 45  1  0
M  CHG  1   9   1
M  END
>  <UniqueID>  (7) 
7

>  <SMILES>  (7) 
COc1cccc(-c2[nH+]c(CNCc3ccccc3OC)co2)c1

>  <Energy>  (7) 
75.96858831051851

>  <Genealogy>  (7) 
COc1cccc(-c2[nH+]c(CNCc3ccccc3OC)co2)c1 (protonated)
COc1cccc(-c2[nH+]c(CNCc3ccccc3OC)co2)c1 (3D coordinates assigned)
COc1cccc(-c2[nH+]c(CNCc3ccccc3OC)co2)c1 (optimized conformer: 75.96858831051851 kcal/mol)

>  <smiles>  (7) 
COc1cccc(-c2nc(CNCc3ccccc3OC)co2)c1

>  <score_type>  (7) 
oracle

>  <origin>  (7) 
adg

>  <m_score__min__energy>  (7) 
-7.7599999999999998

>  <m_primary>  (7) 
energy

$$$$
7:0
     RDKit          3D

 71 73  0  0  0  0  0  0  0  0999 V2000
    1.3131   20.0078  -33.7853 H   0  0  0  0  0  0  0  0  0  0  0  0
    0.5950   20.8260  -33.9430 C   0  0  0  0  0  0  0  0  0  0  0  0
   -0.1780   21.1600  -32.9490 N   0  0  0  0  0  0  0  0  0  0  0  0
   -1.6080   21.0340  -32.9060 C   0  0  0  0  0  0  0  0  0  0  0  0
   -2.2320   20.2010  -33.8350 C   0  0  0  0  0  0  0  0  0  0  0  0
   -1.6408   19.7387  -34.6392 H   0  0  0  0  0  0  0  0  0  0  0  0
   -3.5920   19.9530  -33.7500 C   0  0  0  0  0  0  0  0  0  0  0  0
   -4.0584   19.2349  -34.4405 H   0  0  0  0  0  0  0  0  0  0  0  0
   -4.3800   20.6070  -32.7940 C   0  0  0  0  0  0  0  0  0  0  0  0
   -5.7600   20.1820  -32.6300 N   0  0  0  0  0  0  0  0  0  0  0  0
   -6.3870   20.9870  -32.8670 H   0  0  0  0  0  0  0  0  0  0  0  0
   -5.9860   19.9000  -31.6500 H   0  0  0  0  0  0  0  0  0  0  0  0
   -6.0850   19.0520  -33.5200 C   0  0  0  0  0  0  0  0  0  0  0  0
   -5.1919   18.8005  -34.1108 H   0  0  0  0  0  0  0  0  0  0  0  0
   -6.9215   19.3635  -34.1628 H   0  0  0  0  0  0  0  0  0  0  0  0
   -6.5330   17.7990  -32.7450 C   0  0  0  0  0  0  0  0  0  0  0  0
   -5.6440   17.2506  -32.4003 H   0  0  0  0  0  0  0  0  0  0  0  0
   -7.1361   17.1667  -33.4131 H   0  0  0  0  0  0  0  0  0  0  0  0
   -7.3500   18.1720  -31.5830 N   0  0  0  0  0  0  0  0  0  0  0  0
   -6.9780   19.0820  -31.2140 H   0  0  0  0  0  0  0  0  0  0  0  0
   -8.7420   18.3970  -31.9890 C   0  0  0  0  0  0  0  0  0  0  0  0
   -9.4145   18.0155  -31.2066 H   0  0  0  0  0  0  0  0  0  0  0  0
   -8.9286   17.8693  -32.9360 H   0  0  0  0  0  0  0  0  0  0  0  0
   -9.0000   19.8900  -32.1920 C   0  0  0  0  0  0  0  0  0  0  0  0
  -10.0112   20.1367  -31.8362 H   0  0  0  0  0  0  0  0  0  0  0  0
   -8.9124   20.1295  -33.2620 H   0  0  0  0  0  0  0  0  0  0  0  0
   -8.0150   20.6760  -31.4400 N   0  0  0  0  0  0  0  0  0  0  0  0
   -7.7090   20.0920  -30.6270 H   0  0  0  0  0  0  0  0  0  0  0  0
   -8.6010   21.9120  -30.9020 C   0  0  0  0  0  0  0  0  0  0  0  0
   -7.7936   22.5876  -30.5832 H   0  0  0  0  0  0  0  0  0  0  0  0
   -9.2423   21.6603  -30.0444 H   0  0  0  0  0  0  0  0  0  0  0  0
   -9.4450   22.6040  -31.9660 C   0  0  0  0  0  0  0  0  0  0  0  0
  -10.2079   23.2295  -31.4793 H   0  0  0  0  0  0  0  0  0  0  0  0
   -8.7987   23.2355  -32.5933 H   0  0  0  0  0  0  0  0  0  0  0  0
   -9.9376   21.8464  -32.5933 H   0  0  0  0  0  0  0  0  0  0  0  0
   -3.7870   21.6020  -31.9510 C   0  0  0  0  0  0  0  0  0  0  0  0
   -2.3680   21.6540  -31.8760 C   0  0  0  0  0  0  0  0  0  0  0  0
   -1.6710   22.2320  -30.8040 C   0  0  0  0  0  0  0  0  0  0  0  0
   -0.6133   22.4809  -30.9752 H   0  0  0  0  0  0  0  0  0  0  0  0
   -2.1880   22.5200  -29.5480 C   0  0  0  0  0  0  0  0  0  0  0  0
   -1.4775   22.4562  -28.7107 H   0  0  0  0  0  0  0  0  0  0  0  0
   -3.4900   22.8790  -29.2130 C   0  0  0  0  0  0  0  0  0  0  0  0
   -3.7150   23.0570  -27.9830 O   0  0  0  0  0  0  0  0  0  0  0  0
   -4.5030   23.1960  -30.1400 C   0  0  0  0  0  0  0  0  0  0  0  0
   -5.5050   24.1060  -29.7160 C   0  0  0  0  0  0  0  0  0  0  0  0
   -5.5014   24.4607  -28.6748 H   0  0  0  0  0  0  0  0  0  0  0  0
   -6.4920   24.5610  -30.5840 C   0  0  0  0  0  0  0  0  0  0  0  0
   -7.2637   25.2573  -30.2239 H   0  0  0  0  0  0  0  0  0  0  0  0
   -6.5020   24.1360  -31.9030 C   0  0  0  0  0  0  0  0  0  0  0  0
   -7.2534   24.5295  -32.6033 H   0  0  0  0  0  0  0  0  0  0  0  0
   -5.5600   23.2110  -32.3390 C   0  0  0  0  0  0  0  0  0  0  0  0
   -5.5699   22.8918  -33.3916 H   0  0  0  0  0  0  0  0  0  0  0  0
   -4.5860   22.6680  -31.4610 C   0  0  0  0  0  0  0  0  0  0  0  0
    0.5670   21.4950  -35.3050 C   0  0  0  0  0  0  0  0  0  0  0  0
    1.1770   20.8992  -35.9999 H   0  0  0  0  0  0  0  0  0  0  0  0
   -0.4851   21.5490  -35.6215 H   0  0  0  0  0  0  0  0  0  0  0  0
    1.0930   22.8800  -35.2850 N   0  0  0  0  0  0  0  0  0  0  0  0
    2.5330   22.9440  -35.6090 C   0  0  0  0  0  0  0  0  0  0  0  0
    2.6980   23.7243  -36.3666 H   0  0  0  0  0  0  0  0  0  0  0  0
    3.0913   23.1783  -34.6906 H   0  0  0  0  0  0  0  0  0  0  0  0
    3.0260   21.6040  -36.1540 C   0  0  0  0  0  0  0  0  0  0  0  0
    3.2720   20.9354  -35.3158 H   0  0  0  0  0  0  0  0  0  0  0  0
    2.2375   21.1459  -36.7692 H   0  0  0  0  0  0  0  0  0  0  0  0
    3.9233   21.7662  -36.7692 H   0  0  0  0  0  0  0  0  0  0  0  0
    0.2720   23.8200  -36.0840 C   0  0  0  0  0  0  0  0  0  0  0  0
    0.2272   23.4711  -37.1262 H   0  0  0  0  0  0  0  0  0  0  0  0
   -0.7438   23.8630  -35.6642 H   0  0  0  0  0  0  0  0  0  0  0  0
    0.8940   25.2110  -36.0420 C   0  0  0  0  0  0  0  0  0  0  0  0
    1.0320   25.5195  -34.9952 H   0  0  0  0  0  0  0  0  0  0  0  0
    1.8694   25.1920  -36.5502 H   0  0  0  0  0  0  0  0  0  0  0  0
    0.2295   25.9253  -36.5502 H   0  0  0  0  0  0  0  0  0  0  0  0
  1  2  1  0
  2  3  2  0
  3  4  1  0
  4  5  2  0
  5  6  1  0
  5  7  1  0
  7  8  1  0
  7  9  2  0
  9 10  1  0
 10 11  1  0
 10 12  1  0
 10 13  1  0
 13 14  1  0
 13 15  1  0
 13 16  1  0
 16 17  1  0
 16 18  1  0
 16 19  1  0
 19 20  1  0
 19 21  1  0
 21 22  1  0
 21 23  1  0
 21 24  1  0
 24 25  1  0
 24 26  1  0
 24 27  1  0
 27 28  1  0
 27 29  1  0
 29 30  1  0
 29 31  1  0
 29 32  1  0
 32 33  1  0
 32 34  1  0
 32 35  1  0
  9 36  1  0
 36 37  2  0
 37 38  1  0
 38 39  1  0
 38 40  2  0
 40 41  1  0
 40 42  1  0
 42 43  2  0
 42 44  1  0
 44 45  2  0
 45 46  1  0
 45 47  1  0
 47 48  1  0
 47 49  2  0
 49 50  1  0
 49 51  1  0
 51 52  1  0
 51 53  2  0
  2 54  1  0
 54 55  1  0
 54 56  1  0
 54 57  1  0
 57 58  1  0
 58 59  1  0
 58 60  1  0
 58 61  1  0
 61 62  1  0
 61 63  1  0
 61 64  1  0
 57 65  1  0
 65 66  1  0
 65 67  1  0
 65 68  1  0
 68 69  1  0
 68 70  1  0
 68 71  1  0
 37  4  1  0
 53 44  1  0
 53 36  1  0
M  CHG  1  10   1
M  END
>  <UniqueID>  (8) 
8

>  <SMILES>  (8) 
CCNCCNCC[NH2+]c1ccc(/N=C\CN(CC)CC)c2ccc(=O)c3ccccc3c12

>  <Energy>  (8) 
128.6600424006503

>  <Genealogy>  (8) 
CCNCCNCC[NH2+]c1ccc(N=CCN(CC)CC)c2ccc(=O)c3ccccc3c12 (protonated)
CCNCCNCC[NH2+]c1ccc(/N=C\CN(CC)CC)c2ccc(=O)c3ccccc3c12 (cis-trans isomerization)
CCNCCNCC[NH2+]c1ccc(/N=C\CN(CC)CC)c2ccc(=O)c3ccccc3c12 (3D coordinates assigned)
CCNCCNCC[NH2+]c1ccc(/N=C\CN(CC)CC)c2ccc(=O)c3ccccc3c12 (optimized conformer: 128.6600424006503 kcal/mol)

>  <smiles>  (8) 
CCNCCNCCNc1ccc(N=CCN(CC)CC)c2ccc(=O)c3ccccc3c12

>  <score_type>  (8) 
oracle

>  <origin>  (8) 
adg

>  <m_score__min__energy>  (8) 
-9.2699999999999996

>  <m_primary>  (8) 
energy

$$$$
8:0
     RDKit          3D

 45 48  0  0  0  0  0  0  0  0999 V2000
   -8.0079   23.3435  -30.0346 H   0  0  0  0  0  0  0  0  0  0  0  0
   -7.1620   23.2530  -30.7320 C   0  0  0  0  0  0  0  0  0  0  0  0
   -7.4060   22.7550  -31.9500 C   0  0  0  0  0  0  0  0  0  0  0  0
   -7.9291   23.3854  -32.6842 H   0  0  0  0  0  0  0  0  0  0  0  0
   -7.0000   21.3920  -32.3460 C   0  0  0  0  0  0  0  0  0  0  0  0
   -5.7550   21.0150  -32.7670 N   0  0  0  0  0  0  0  0  0  0  0  0
   -4.5680   21.8430  -33.0160 C   0  0  0  0  0  0  0  0  0  0  0  0
   -4.3144   21.7887  -34.0850 H   0  0  0  0  0  0  0  0  0  0  0  0
   -4.8031   22.8749  -32.7161 H   0  0  0  0  0  0  0  0  0  0  0  0
   -3.3760   21.3790  -32.2060 C   0  0  0  0  0  0  0  0  0  0  0  0
   -3.4390   21.2770  -30.8030 C   0  0  0  0  0  0  0  0  0  0  0  0
   -4.3779   21.5114  -30.2801 H   0  0  0  0  0  0  0  0  0  0  0  0
   -2.3170   20.8800  -30.0700 C   0  0  0  0  0  0  0  0  0  0  0  0
   -2.3798   20.7912  -28.9754 H   0  0  0  0  0  0  0  0  0  0  0  0
   -1.1170   20.5960  -30.7240 C   0  0  0  0  0  0  0  0  0  0  0  0
   -0.0290   20.2130  -30.0110 F   0  0  0  0  0  0  0  0  0  0  0  0
   -1.0350   20.7140  -32.1140 C   0  0  0  0  0  0  0  0  0  0  0  0
   -0.0875   20.4950  -32.6280 H   0  0  0  0  0  0  0  0  0  0  0  0
   -2.1550   21.1100  -32.8540 C   0  0  0  0  0  0  0  0  0  0  0  0
   -2.0440   21.2340  -34.2010 F   0  0  0  0  0  0  0  0  0  0  0  0
   -5.8860   19.7010  -33.0430 C   0  0  0  0  0  0  0  0  0  0  0  0
   -4.9290   18.8060  -33.5270 C   0  0  0  0  0  0  0  0  0  0  0  0
   -3.8974   19.1299  -33.7291 H   0  0  0  0  0  0  0  0  0  0  0  0
   -5.3310   17.4750  -33.7470 C   0  0  0  0  0  0  0  0  0  0  0  0
   -4.6043   16.7397  -34.1228 H   0  0  0  0  0  0  0  0  0  0  0  0
   -6.6630   17.0770  -33.4880 C   0  0  0  0  0  0  0  0  0  0  0  0
   -7.0360   15.7920  -33.7080 F   0  0  0  0  0  0  0  0  0  0  0  0
   -7.6040   18.0070  -33.0100 C   0  0  0  0  0  0  0  0  0  0  0  0
   -8.6447   17.7123  -32.8100 H   0  0  0  0  0  0  0  0  0  0  0  0
   -7.1720   19.3130  -32.7990 C   0  0  0  0  0  0  0  0  0  0  0  0
   -7.8870   20.3660  -32.3710 N   0  0  0  0  0  0  0  0  0  0  0  0
   -8.8980   20.3870  -32.1130 H   0  0  0  0  0  0  0  0  0  0  0  0
   -5.8250   23.6910  -30.2610 C   0  0  0  0  0  0  0  0  0  0  0  0
   -5.0340   24.6290  -30.9520 C   0  0  0  0  0  0  0  0  0  0  0  0
   -5.4002   25.0682  -31.8917 H   0  0  0  0  0  0  0  0  0  0  0  0
   -3.8190   24.9940  -30.4620 N   0  0  0  0  0  0  0  0  0  0  0  0
   -3.3220   24.4790  -29.3060 C   0  0  0  0  0  0  0  0  0  0  0  0
   -1.9860   24.9260  -28.8040 C   0  0  0  0  0  0  0  0  0  0  0  0
   -1.9886   24.9251  -27.7040 H   0  0  0  0  0  0  0  0  0  0  0  0
   -1.2084   24.2391  -29.1694 H   0  0  0  0  0  0  0  0  0  0  0  0
   -1.7784   25.9426  -29.1694 H   0  0  0  0  0  0  0  0  0  0  0  0
   -4.0820   23.5600  -28.5750 C   0  0  0  0  0  0  0  0  0  0  0  0
   -3.6973   23.1486  -27.6301 H   0  0  0  0  0  0  0  0  0  0  0  0
   -5.3320   23.1700  -29.0550 C   0  0  0  0  0  0  0  0  0  0  0  0
   -5.9356   22.4490  -28.4842 H   0  0  0  0  0  0  0  0  0  0  0  0
  1  2  1  0
  2  3  2  0
  3  4  1  0
  3  5  1  0
  5  6  1  0
  6  7  1  0
  7  8  1  0
  7  9  1  0
  7 10  1  0
 10 11  2  0
 11 12  1  0
 11 13  1  0
 13 14  1  0
 13 15  2  0
 15 16  1  0
 15 17  1  0
 17 18  1  0
 17 19  2  0
 19 20  1  0
  6 21  1  0
 21 22  2  0
 22 23  1  0
 22 24  1  0
 24 25  1  0
 24 26  2  0
 26 27  1  0
 26 28  1  0
 28 29  1  0
 28 30  2  0
 30 31  1  0
 31 32  1  0
  2 33  1  0
 33 34  2  0
 34 35  1  0
 34 36  1  0
 36 37  2  0
 37 38  1  0
 38 39  1  0
 38 40  1  0
 38 41  1  0
 37 42  1  0
 42 43  1  0
 42 44  2  0
 44 45  1  0
 31  5  2  0
 44 33  1  0
 19 10  1  0
 30 21  1  0
M  CHG  1  31   1
M  END
>  <UniqueID>  (9) 
9

>  <SMILES>  (9) 
Cc1ccc(/C=C/c2[nH+]c3cc(F)ccc3n2Cc2ccc(F)cc2F)cn1

>  <Energy>  (9) 
94.81436179620374

>  <Genealogy>  (9) 
Cc1ccc(C=Cc2[nH+]c3cc(F)ccc3n2Cc2ccc(F)cc2F)cn1 (protonated)
Cc1ccc(/C=C/c2[nH+]c3cc(F)ccc3n2Cc2ccc(F)cc2F)cn1 (cis-trans isomerization)
Cc1ccc(/C=C/c2[nH+]c3cc(F)ccc3n2Cc2ccc(F)cc2F)cn1 (3D coordinates assigned)
Cc1ccc(/C=C/c2[nH+]c3cc(F)ccc3n2Cc2ccc(F)cc2F)cn1 (optimized conformer: 94.81436179620374 kcal/mol)

>  <smiles>  (9) 
Cc1ccc(C=Cc2nc3cc(F)ccc3n2Cc2ccc(F)cc2F)cn1

>  <score_type>  (9) 
oracle

>  <origin>  (9) 
adg

>  <m_score__min__energy>  (9) 
-7.9000000000000004

>  <m_primary>  (9) 
energy

$$$$
9:0
     RDKit          3D

 25 27  0  0  0  0  0  0  0  0999 V2000
   -2.7420   24.0300  -29.7680 C   0  0  0  0  0  0  0  0  0  0  0  0
   -3.6650   24.1740  -30.8430 O   0  0  0  0  0  0  0  0  0  0  0  0
   -4.8310   23.4070  -30.9950 C   0  0  0  0  0  0  0  0  0  0  0  0
   -4.8070   22.1230  -31.5950 C   0  0  0  0  0  0  0  0  0  0  0  0
   -6.0120   21.4340  -31.7040 C   0  0  0  0  0  0  0  0  0  0  0  0
   -7.2020   21.9590  -31.2530 C   0  0  0  0  0  0  0  0  0  0  0  0
   -7.2600   23.2150  -30.6600 C   0  0  0  0  0  0  0  0  0  0  0  0
   -6.0620   23.9430  -30.5320 C   0  0  0  0  0  0  0  0  0  0  0  0
   -6.1170   25.6750  -29.7200 Br  0  0  0  0  0  0  0  0  0  0  0  0
   -8.2030   21.1240  -31.4650 O   0  0  0  0  0  0  0  0  0  0  0  0
   -7.6850   20.0610  -32.0490 C   0  0  0  0  0  0  0  0  0  0  0  0
   -8.3530   18.9130  -32.4650 C   0  0  0  0  0  0  0  0  0  0  0  0
   -7.5960   17.8910  -33.0700 C   0  0  0  0  0  0  0  0  0  0  0  0
   -6.2000   18.0390  -33.2460 C   0  0  0  0  0  0  0  0  0  0  0  0
   -5.2770   16.7540  -34.0030 Cl  0  0  0  0  0  0  0  0  0  0  0  0
   -5.5460   19.2100  -32.8170 C   0  0  0  0  0  0  0  0  0  0  0  0
   -6.3240   20.2000  -32.2220 C   0  0  0  0  0  0  0  0  0  0  0  0
   -3.2778   24.1136  -28.8110 H   0  0  0  0  0  0  0  0  0  0  0  0
   -2.2561   23.0452  -29.8314 H   0  0  0  0  0  0  0  0  0  0  0  0
   -1.9792   24.8200  -29.8314 H   0  0  0  0  0  0  0  0  0  0  0  0
   -3.8671   21.6852  -31.9625 H   0  0  0  0  0  0  0  0  0  0  0  0
   -8.2143   23.6280  -30.3012 H   0  0  0  0  0  0  0  0  0  0  0  0
   -9.4390   18.8072  -32.3255 H   0  0  0  0  0  0  0  0  0  0  0  0
   -8.0941   16.9704  -33.4084 H   0  0  0  0  0  0  0  0  0  0  0  0
   -4.4612   19.3380  -32.9470 H   0  0  0  0  0  0  0  0  0  0  0  0
  1  2  1  0
  2  3  1  0
  3  4  2  0
  4  5  1  0
  5  6  2  0
  6  7  1  0
  7  8  2  0
  8  9  1  0
  6 10  1  0
 10 11  1  0
 11 12  2  0
 12 13  1  0
 13 14  2  0
 14 15  1  0
 14 16  1  0
 16 17  2  0
  8  3  1  0
 17 11  1  0
 17  5  1  0
  1 18  1  0
  1 19  1  0
  1 20  1  0
  4 21  1  0
  7 22  1  0
 12 23  1  0
 13 24  1  0
 16 25  1  0
M  END
>  <UniqueID>  (10) 
10

>  <SMILES>  (10) 
COc1cc2c(cc1Br)oc1ccc(Cl)cc12

>  <Energy>  (10) 
68.79257815597832

>  <Genealogy>  (10) 
COc1cc2c(cc1Br)oc1ccc(Cl)cc12 (3D coordinates assigned)
COc1cc2c(cc1Br)oc1ccc(Cl)cc12 (optimized conformer: 68.79257815597832 kcal/mol)

>  <smiles>  (10) 
COc1cc2c(cc1Br)oc1ccc(Cl)cc12

>  <score_type>  (10) 
oracle

>  <origin>  (10) 
adg

>  <m_score__min__energy>  (10) 
-7.54

>  <m_primary>  (10) 
energy

$$$$
10:0
     RDKit          3D

 37 39  0  0  0  0  0  0  0  0999 V2000
    0.7150   25.8750  -27.0660 C   0  0  0  0  0  0  0  0  0  0  0  0
    0.7100   24.8430  -28.0480 O   0  0  0  0  0  0  0  0  0  0  0  0
   -0.3620   23.9650  -28.2720 C   0  0  0  0  0  0  0  0  0  0  0  0
   -0.2780   22.6710  -27.7500 C   0  0  0  0  0  0  0  0  0  0  0  0
   -1.3190   21.7620  -27.9410 C   0  0  0  0  0  0  0  0  0  0  0  0
   -2.4560   22.1380  -28.6590 C   0  0  0  0  0  0  0  0  0  0  0  0
   -2.5650   23.4310  -29.2000 C   0  0  0  0  0  0  0  0  0  0  0  0
   -3.7460   23.8040  -29.9380 N   0  0  0  0  0  0  0  0  0  0  0  0
   -4.9020   23.1200  -30.0570 C   0  0  0  0  0  0  0  0  0  0  0  0
   -5.7210   23.8820  -30.8580 C   0  0  0  0  0  0  0  0  0  0  0  0
   -7.1190   23.5590  -31.2810 C   0  0  0  0  0  0  0  0  0  0  0  0
   -7.1070   22.6490  -32.4270 N   0  0  0  0  0  0  0  0  0  0  0  0
   -7.4910   21.2610  -32.3710 C   0  0  0  0  0  0  0  0  0  0  0  0
   -6.5670   20.2790  -32.7650 C   0  0  0  0  0  0  0  0  0  0  0  0
   -6.9070   18.9240  -32.7200 C   0  0  0  0  0  0  0  0  0  0  0  0
   -8.1760   18.5350  -32.2830 C   0  0  0  0  0  0  0  0  0  0  0  0
   -9.1050   19.5010  -31.8920 C   0  0  0  0  0  0  0  0  0  0  0  0
   -8.7710   20.8580  -31.9360 C   0  0  0  0  0  0  0  0  0  0  0  0
   -5.0600   25.0050  -31.2000 N   0  0  0  0  0  0  0  0  0  0  0  0
   -3.8670   24.9300  -30.6290 N   0  0  0  0  0  0  0  0  0  0  0  0
   -1.5090   24.3430  -28.9980 C   0  0  0  0  0  0  0  0  0  0  0  0
    0.7128   25.4257  -26.0619 H   0  0  0  0  0  0  0  0  0  0  0  0
    1.6162   26.4937  -27.1889 H   0  0  0  0  0  0  0  0  0  0  0  0
   -0.1801   26.5024  -27.1889 H   0  0  0  0  0  0  0  0  0  0  0  0
    0.6153   22.3672  -27.1846 H   0  0  0  0  0  0  0  0  0  0  0  0
   -1.2439   20.7465  -27.5249 H   0  0  0  0  0  0  0  0  0  0  0  0
   -3.2736   21.4162  -28.8026 H   0  0  0  0  0  0  0  0  0  0  0  0
   -5.1423   22.1468  -29.6040 H   0  0  0  0  0  0  0  0  0  0  0  0
   -7.6498   23.0814  -30.4443 H   0  0  0  0  0  0  0  0  0  0  0  0
   -7.6290   24.4900  -31.5695 H   0  0  0  0  0  0  0  0  0  0  0  0
   -6.7740   23.0380  -33.3380 H   0  0  0  0  0  0  0  0  0  0  0  0
   -5.5672   20.5790  -33.1120 H   0  0  0  0  0  0  0  0  0  0  0  0
   -6.1750   18.1632  -33.0289 H   0  0  0  0  0  0  0  0  0  0  0  0
   -8.4428   17.4684  -32.2471 H   0  0  0  0  0  0  0  0  0  0  0  0
  -10.1035   19.1934  -31.5480 H   0  0  0  0  0  0  0  0  0  0  0  0
   -9.5091   21.6142  -31.6303 H   0  0  0  0  0  0  0  0  0  0  0  0
   -1.5812   25.3598  -29.4113 H   0  0  0  0  0  0  0  0  0  0  0  0
  1  2  1  0
  2  3  1  0
  3  4  2  0
  4  5  1  0
  5  6  2  0
  6  7  1  0
  7  8  1  0
  8  9  1  0
  9 10  2  0
 10 11  1  0
 11 12  1  0
 12 13  1  0
 13 14  2  0
 14 15  1  0
 15 16  2  0
 16 17  1  0
 17 18  2  0
 10 19  1  0
 19 20  2  0
  7 21  2  0
 21  3  1  0
 20  8  1  0
 18 13  1  0
  1 22  1  0
  1 23  1  0
  1 24  1  0
  4 25  1  0
  5 26  1  0
  6 27  1  0
  9 28  1  0
 11 29  1  0
 11 30  1  0
 12 31  1  0
 14 32  1  0
 15 33  1  0
 16 34  1  0
 17 35  1  0
 18 36  1  0
 21 37  1  0
M  END
>  <UniqueID>  (11) 
11

>  <SMILES>  (11) 
COc1cccc(-n2cc(CNc3ccccc3)nn2)c1

>  <Energy>  (11) 
74.67609877743742

>  <Genealogy>  (11) 
COc1cccc(-n2cc(CNc3ccccc3)nn2)c1 (3D coordinates assigned)
COc1cccc(-n2cc(CNc3ccccc3)nn2)c1 (optimized conformer: 74.67609877743742 kcal/mol)

>  <smiles>  (11) 
COc1cccc(-n2cc(CNc3ccccc3)nn2)c1

>  <score_type>  (11) 
oracle

>  <origin>  (11) 
adg

>  <m_score__min__energy>  (11) 
-8.7699999999999996

>  <m_primary>  (11) 
energy

$$$$
11:0
     RDKit          3D

 52 55  0  0  0  0  0  0  0  0999 V2000
    4.2990   22.2200  -36.2730 C   0  0  0  0  0  0  0  0  0  0  0  0
    3.0210   21.9450  -36.8380 O   0  0  0  0  0  0  0  0  0  0  0  0
    1.9220   21.4580  -36.1170 C   0  0  0  0  0  0  0  0  0  0  0  0
    0.9710   22.3060  -35.5230 C   0  0  0  0  0  0  0  0  0  0  0  0
   -0.1200   21.7690  -34.8310 C   0  0  0  0  0  0  0  0  0  0  0  0
   -0.2840   20.3770  -34.7300 C   0  0  0  0  0  0  0  0  0  0  0  0
   -1.4530   19.7980  -34.0280 C   0  0  0  0  0  0  0  0  0  0  0  0
   -1.2910   18.7960  -33.2780 O   0  0  0  0  0  0  0  0  0  0  0  0
   -2.7550   20.3880  -34.1570 N   0  0  0  0  0  0  0  0  0  0  0  0
   -3.9090   19.8250  -33.5180 C   0  0  0  0  0  0  0  0  0  0  0  0
   -4.6370   18.8280  -34.1850 C   0  0  0  0  0  0  0  0  0  0  0  0
   -5.8110   18.3180  -33.6300 C   0  0  0  0  0  0  0  0  0  0  0  0
   -6.2720   18.8010  -32.4050 C   0  0  0  0  0  0  0  0  0  0  0  0
   -5.5510   19.7850  -31.7230 C   0  0  0  0  0  0  0  0  0  0  0  0
   -4.3580   20.3000  -32.2600 C   0  0  0  0  0  0  0  0  0  0  0  0
   -3.5800   21.2790  -31.4650 C   0  0  0  0  0  0  0  0  0  0  0  0
   -4.0830   22.4450  -31.0050 N   0  0  0  0  0  0  0  0  0  0  0  0
   -3.0480   23.0090  -30.3600 C   0  0  0  0  0  0  0  0  0  0  0  0
   -3.1300   24.3420  -29.6860 C   0  0  0  0  0  0  0  0  0  0  0  0
   -3.8570   25.2610  -30.5500 N   0  0  0  0  0  0  0  0  0  0  0  0
   -5.2690   25.4620  -30.4800 C   0  0  0  0  0  0  0  0  0  0  0  0
   -5.7380   26.5900  -30.1670 O   0  0  0  0  0  0  0  0  0  0  0  0
   -6.1730   24.3450  -30.7800 C   0  0  0  0  0  0  0  0  0  0  0  0
   -6.8540   23.5670  -29.8520 C   0  0  0  0  0  0  0  0  0  0  0  0
   -7.6260   22.5580  -30.4410 C   0  0  0  0  0  0  0  0  0  0  0  0
   -7.5520   22.5360  -31.8280 C   0  0  0  0  0  0  0  0  0  0  0  0
   -6.5330   23.7780  -32.3210 S   0  0  0  0  0  0  0  0  0  0  0  0
   -1.9500   22.1820  -30.4690 C   0  0  0  0  0  0  0  0  0  0  0  0
   -0.5830   22.4070  -29.9140 C   0  0  0  0  0  0  0  0  0  0  0  0
   -2.3110   21.1230  -31.1510 O   0  0  0  0  0  0  0  0  0  0  0  0
    0.6700   19.5350  -35.3230 C   0  0  0  0  0  0  0  0  0  0  0  0
    1.7670   20.0730  -36.0000 C   0  0  0  0  0  0  0  0  0  0  0  0
    4.2258   22.2042  -35.1756 H   0  0  0  0  0  0  0  0  0  0  0  0
    5.0181   21.4560  -36.6035 H   0  0  0  0  0  0  0  0  0  0  0  0
    4.6402   23.2121  -36.6035 H   0  0  0  0  0  0  0  0  0  0  0  0
    1.0852   23.3971  -35.6027 H   0  0  0  0  0  0  0  0  0  0  0  0
   -0.8544   22.4410  -34.3628 H   0  0  0  0  0  0  0  0  0  0  0  0
   -2.8480   21.3340  -34.5910 H   0  0  0  0  0  0  0  0  0  0  0  0
   -4.2795   18.4457  -35.1525 H   0  0  0  0  0  0  0  0  0  0  0  0
   -6.3736   17.5344  -34.1587 H   0  0  0  0  0  0  0  0  0  0  0  0
   -7.2046   18.4066  -31.9752 H   0  0  0  0  0  0  0  0  0  0  0  0
   -5.9203   20.1601  -30.7571 H   0  0  0  0  0  0  0  0  0  0  0  0
   -3.6591   24.2394  -28.7271 H   0  0  0  0  0  0  0  0  0  0  0  0
   -2.1174   24.7283  -29.4976 H   0  0  0  0  0  0  0  0  0  0  0  0
   -6.7930   23.7273  -28.7654 H   0  0  0  0  0  0  0  0  0  0  0  0
   -8.2341   21.8492  -29.8598 H   0  0  0  0  0  0  0  0  0  0  0  0
   -8.0712   21.8273  -32.4899 H   0  0  0  0  0  0  0  0  0  0  0  0
   -0.6277   22.3996  -28.8149 H   0  0  0  0  0  0  0  0  0  0  0  0
    0.0890   21.6074  -30.2590 H   0  0  0  0  0  0  0  0  0  0  0  0
   -0.2027   23.3798  -30.2590 H   0  0  0  0  0  0  0  0  0  0  0  0
    0.5528   18.4434  -35.2540 H   0  0  0  0  0  0  0  0  0  0  0  0
    2.5157   19.4012  -36.4451 H   0  0  0  0  0  0  0  0  0  0  0  0
  1  2  1  0
  2  3  1  0
  3  4  2  0
  4  5  1  0
  5  6  2  0
  6  7  1  0
  7  8  2  0
  7  9  1  0
  9 10  1  0
 10 11  2  0
 11 12  1  0
 12 13  2  0
 13 14  1  0
 14 15  2  0
 15 16  1  0
 16 17  2  0
 17 18  1  0
 18 19  1  0
 19 20  1  0
 20 21  1  0
 21 22  2  0
 21 23  1  0
 23 24  2  0
 24 25  1  0
 25 26  2  0
 26 27  1  0
 18 28  2  0
 28 29  1  0
 28 30  1  0
  6 31  1  0
 31 32  2  0
 32  3  1  0
 15 10  1  0
 30 16  1  0
 27 23  1  0
  1 33  1  0
  1 34  1  0
  1 35  1  0
  4 36  1  0
  5 37  1  0
  9 38  1  0
 11 39  1  0
 12 40  1  0
 13 41  1  0
 14 42  1  0
 19 43  1  0
 19 44  1  0
 24 45  1  0
 25 46  1  0
 26 47  1  0
 29 48  1  0
 29 49  1  0
 29 50  1  0
 31 51  1  0
 32 52  1  0
M  CHG  1  20  -1
M  END
>  <UniqueID>  (12) 
12

>  <SMILES>  (12) 
COc1ccc(C(=O)Nc2ccccc2-c2nc(C[N-]C(=O)c3cccs3)c(C)o2)cc1

>  <Energy>  (12) 
112.64760751613042

>  <Genealogy>  (12) 
COc1ccc(C(=O)Nc2ccccc2-c2nc(C[N-]C(=O)c3cccs3)c(C)o2)cc1 (protonated)
COc1ccc(C(=O)Nc2ccccc2-c2nc(C[N-]C(=O)c3cccs3)c(C)o2)cc1 (3D coordinates assigned)
COc1ccc(C(=O)Nc2ccccc2-c2nc(C[N-]C(=O)c3cccs3)c(C)o2)cc1 (optimized conformer: 112.64760751613042 kcal/mol)

>  <smiles>  (12) 
COc1ccc(C(=O)Nc2ccccc2-c2nc(CNC(=O)c3cccs3)c(C)o2)cc1

>  <score_type>  (12) 
oracle

>  <origin>  (12) 
adg

>  <m_score__min__energy>  (12) 
-10.630000000000001

>  <m_primary>  (12) 
energy

$$$$
12:0
     RDKit          3D

 59 61  0  0  0  0  0  0  0  0999 V2000
   -5.6953   25.8175  -29.4644 H   0  0  0  0  0  0  0  0  0  0  0  0
   -5.6200   24.9480  -30.1340 C   0  0  0  0  0  0  0  0  0  0  0  0
   -6.8360   24.5050  -30.6620 C   0  0  0  0  0  0  0  0  0  0  0  0
   -7.7132   25.0860  -30.3411 H   0  0  0  0  0  0  0  0  0  0  0  0
   -7.1270   23.4370  -31.5380 C   0  0  0  0  0  0  0  0  0  0  0  0
   -8.3590   23.2200  -31.9260 N   0  0  0  0  0  0  0  0  0  0  0  0
   -9.2090   22.0480  -31.7060 C   0  0  0  0  0  0  0  0  0  0  0  0
  -10.1308   22.1528  -32.2969 H   0  0  0  0  0  0  0  0  0  0  0  0
   -9.4519   21.9795  -30.6353 H   0  0  0  0  0  0  0  0  0  0  0  0
   -8.4760   20.7660  -32.1340 C   0  0  0  0  0  0  0  0  0  0  0  0
   -7.4058   20.8818  -31.9074 H   0  0  0  0  0  0  0  0  0  0  0  0
   -8.6552   20.6283  -33.2105 H   0  0  0  0  0  0  0  0  0  0  0  0
   -8.9960   19.5080  -31.4160 C   0  0  0  0  0  0  0  0  0  0  0  0
  -10.0932   19.4905  -31.4930 H   0  0  0  0  0  0  0  0  0  0  0  0
   -8.6545   19.5643  -30.3719 H   0  0  0  0  0  0  0  0  0  0  0  0
   -8.4440   18.1980  -32.0060 C   0  0  0  0  0  0  0  0  0  0  0  0
   -9.0686   17.8990  -32.8607 H   0  0  0  0  0  0  0  0  0  0  0  0
   -8.4641   17.4284  -31.2203 H   0  0  0  0  0  0  0  0  0  0  0  0
   -7.0470   18.3600  -32.4640 N   0  0  0  0  0  0  0  0  0  0  0  0
   -6.1210   18.2530  -31.3230 C   0  0  0  0  0  0  0  0  0  0  0  0
   -6.6884   18.3186  -30.3829 H   0  0  0  0  0  0  0  0  0  0  0  0
   -5.5947   17.2881  -31.3671 H   0  0  0  0  0  0  0  0  0  0  0  0
   -5.3885   19.0725  -31.3671 H   0  0  0  0  0  0  0  0  0  0  0  0
   -6.6990   17.3740  -33.5140 C   0  0  0  0  0  0  0  0  0  0  0  0
   -7.6226   16.9845  -33.9671 H   0  0  0  0  0  0  0  0  0  0  0  0
   -6.1281   16.5513  -33.0587 H   0  0  0  0  0  0  0  0  0  0  0  0
   -5.8470   18.0330  -34.5940 C   0  0  0  0  0  0  0  0  0  0  0  0
   -5.0614   18.6407  -34.1213 H   0  0  0  0  0  0  0  0  0  0  0  0
   -5.3831   17.2564  -35.2198 H   0  0  0  0  0  0  0  0  0  0  0  0
   -6.4821   18.6772  -35.2198 H   0  0  0  0  0  0  0  0  0  0  0  0
   -6.1890   22.5380  -32.0500 C   0  0  0  0  0  0  0  0  0  0  0  0
   -6.5919   21.7412  -32.6925 H   0  0  0  0  0  0  0  0  0  0  0  0
   -4.8120   22.5180  -31.8540 C   0  0  0  0  0  0  0  0  0  0  0  0
   -3.9870   23.3600  -31.1060 C   0  0  0  0  0  0  0  0  0  0  0  0
   -2.7280   22.9720  -31.2260 O   0  0  0  0  0  0  0  0  0  0  0  0
   -2.6890   21.9250  -32.0090 C   0  0  0  0  0  0  0  0  0  0  0  0
   -1.5640   21.2090  -32.4030 C   0  0  0  0  0  0  0  0  0  0  0  0
   -0.5635   21.4976  -32.0485 H   0  0  0  0  0  0  0  0  0  0  0  0
   -1.7310   20.0990  -33.2710 C   0  0  0  0  0  0  0  0  0  0  0  0
   -0.5840   19.3240  -33.7160 N   0  0  0  0  0  0  0  0  0  0  0  0
    0.7650   19.9040  -33.6840 C   0  0  0  0  0  0  0  0  0  0  0  0
    1.0810   20.0399  -32.6392 H   0  0  0  0  0  0  0  0  0  0  0  0
    1.4669   19.2281  -34.1944 H   0  0  0  0  0  0  0  0  0  0  0  0
    0.7574   20.8784  -34.1944 H   0  0  0  0  0  0  0  0  0  0  0  0
   -0.7550   17.9520  -34.2100 C   0  0  0  0  0  0  0  0  0  0  0  0
   -0.8409   17.2631  -33.3567 H   0  0  0  0  0  0  0  0  0  0  0  0
   -1.6674   17.8936  -34.8217 H   0  0  0  0  0  0  0  0  0  0  0  0
    0.1151   17.6714  -34.8217 H   0  0  0  0  0  0  0  0  0  0  0  0
   -3.0480   19.7650  -33.6990 C   0  0  0  0  0  0  0  0  0  0  0  0
   -3.1963   18.9067  -34.3708 H   0  0  0  0  0  0  0  0  0  0  0  0
   -4.1620   20.5130  -33.2780 C   0  0  0  0  0  0  0  0  0  0  0  0
   -5.1771   20.2505  -33.6107 H   0  0  0  0  0  0  0  0  0  0  0  0
   -3.9450   21.5970  -32.4270 C   0  0  0  0  0  0  0  0  0  0  0  0
   -4.3180   24.4590  -30.3230 C   0  0  0  0  0  0  0  0  0  0  0  0
   -3.2250   25.0890  -29.6950 O   0  0  0  0  0  0  0  0  0  0  0  0
   -2.4650   24.5580  -28.6120 C   0  0  0  0  0  0  0  0  0  0  0  0
   -2.9154   24.8727  -27.6590 H   0  0  0  0  0  0  0  0  0  0  0  0
   -2.4610   23.4596  -28.6707 H   0  0  0  0  0  0  0  0  0  0  0  0
   -1.4322   24.9321  -28.6707 H   0  0  0  0  0  0  0  0  0  0  0  0
  1  2  1  0
  2  3  2  0
  3  4  1  0
  3  5  1  0
  5  6  2  0
  6  7  1  0
  7  8  1  0
  7  9  1  0
  7 10  1  0
 10 11  1  0
 10 12  1  0
 10 13  1  0
 13 14  1  0
 13 15  1  0
 13 16  1  0
 16 17  1  0
 16 18  1  0
 16 19  1  0
 19 20  1  0
 20 21  1  0
 20 22  1  0
 20 23  1  0
 19 24  1  0
 24 25  1  0
 24 26  1  0
 24 27  1  0
 27 28  1  0
 27 29  1  0
 27 30  1  0
  5 31  1  0
 31 32  1  0
 31 33  2  0
 33 34  1  0
 34 35  1  0
 35 36  1  0
 36 37  2  0
 37 38  1  0
 37 39  1  0
 39 40  1  0
 40 41  1  0
 41 42  1  0
 41 43  1  0
 41 44  1  0
 40 45  1  0
 45 46  1  0
 45 47  1  0
 45 48  1  0
 39 49  2  0
 49 50  1  0
 49 51  1  0
 51 52  1  0
 51 53  2  0
 34 54  2  0
 54 55  1  0
 55 56  1  0
 56 57  1  0
 56 58  1  0
 56 59  1  0
 54  2  1  0
 53 33  1  0
 53 36  1  0
M  END
>  <UniqueID>  (13) 
13

>  <SMILES>  (13) 
CCN(C)CCCC/N=c1\ccc(OC)c2oc3cc(N(C)C)ccc3c2c1

>  <Energy>  (13) 
111.98809661759223

>  <Genealogy>  (13) 
CCN(C)CCCC/N=c1\ccc(OC)c2oc3cc(N(C)C)ccc3c2c1 (cis-trans isomerization)
CCN(C)CCCC/N=c1\ccc(OC)c2oc3cc(N(C)C)ccc3c2c1 (3D coordinates assigned)
CCN(C)CCCC/N=c1\ccc(OC)c2oc3cc(N(C)C)ccc3c2c1 (optimized conformer: 111.98809661759223 kcal/mol)

>  <smiles>  (13) 
CCN(C)CCCCN=c1ccc(OC)c2oc3cc(N(C)C)ccc3c2c1

>  <score_type>  (13) 
oracle

>  <origin>  (13) 
adg

>  <m_score__min__energy>  (13) 
-8.6799999999999997

>  <m_primary>  (13) 
energy

$$$$
13:0
     RDKit          3D

 50 52  0  0  0  0  0  0  0  0999 V2000
   -4.0520   18.0670  -33.1530 C   0  0  0  0  0  0  0  0  0  0  0  0
   -5.5230   17.9930  -33.1940 N   0  0  0  0  0  0  0  0  0  0  0  0
   -6.0930   19.1040  -34.0040 C   0  0  0  0  0  0  0  0  0  0  0  0
   -6.6080   20.2590  -33.1270 C   0  0  0  0  0  0  0  0  0  0  0  0
   -7.6680   19.8180  -32.1840 N   0  0  0  0  0  0  0  0  0  0  0  0
   -9.0200   20.1060  -32.7150 C   0  0  0  0  0  0  0  0  0  0  0  0
   -9.7530   21.1750  -31.8890 C   0  0  0  0  0  0  0  0  0  0  0  0
   -8.8580   22.4000  -31.6130 C   0  0  0  0  0  0  0  0  0  0  0  0
   -7.8710   22.1450  -30.5520 N   0  0  0  0  0  0  0  0  0  0  0  0
   -7.2400   23.3800  -30.0710 C   0  0  0  0  0  0  0  0  0  0  0  0
   -5.8010   23.3940  -30.4760 C   0  0  0  0  0  0  0  0  0  0  0  0
   -4.9530   24.4760  -30.4230 C   0  0  0  0  0  0  0  0  0  0  0  0
   -3.8060   24.0980  -30.9260 O   0  0  0  0  0  0  0  0  0  0  0  0
   -3.9310   22.8390  -31.2870 C   0  0  0  0  0  0  0  0  0  0  0  0
   -2.8440   22.0510  -31.9040 C   0  0  0  0  0  0  0  0  0  0  0  0
   -1.6280   21.8740  -31.2240 C   0  0  0  0  0  0  0  0  0  0  0  0
   -0.5970   21.1290  -31.8050 C   0  0  0  0  0  0  0  0  0  0  0  0
   -0.7710   20.5550  -33.0670 C   0  0  0  0  0  0  0  0  0  0  0  0
    0.2300   19.8330  -33.6290 F   0  0  0  0  0  0  0  0  0  0  0  0
   -1.9770   20.7270  -33.7500 C   0  0  0  0  0  0  0  0  0  0  0  0
   -3.0110   21.4710  -33.1740 C   0  0  0  0  0  0  0  0  0  0  0  0
   -5.1660   22.3480  -31.0370 N   0  0  0  0  0  0  0  0  0  0  0  0
   -7.5310   18.3950  -31.7750 C   0  0  0  0  0  0  0  0  0  0  0  0
   -6.0690   17.9320  -31.8150 C   0  0  0  0  0  0  0  0  0  0  0  0
   -3.7148   18.0840  -32.1061 H   0  0  0  0  0  0  0  0  0  0  0  0
   -3.6264   17.1891  -33.6611 H   0  0  0  0  0  0  0  0  0  0  0  0
   -3.7166   18.9832  -33.6611 H   0  0  0  0  0  0  0  0  0  0  0  0
   -5.7690   17.0940  -33.6730 H   0  0  0  0  0  0  0  0  0  0  0  0
   -5.3115   19.4901  -34.6750 H   0  0  0  0  0  0  0  0  0  0  0  0
   -6.9467   18.7045  -34.5712 H   0  0  0  0  0  0  0  0  0  0  0  0
   -5.7662   20.6669  -32.5482 H   0  0  0  0  0  0  0  0  0  0  0  0
   -7.0427   21.0200  -33.7918 H   0  0  0  0  0  0  0  0  0  0  0  0
   -8.9250   20.4626  -33.7512 H   0  0  0  0  0  0  0  0  0  0  0  0
   -9.6078   19.1777  -32.6632 H   0  0  0  0  0  0  0  0  0  0  0  0
  -10.6447   21.5033  -32.4430 H   0  0  0  0  0  0  0  0  0  0  0  0
  -10.0296   20.7293  -30.9221 H   0  0  0  0  0  0  0  0  0  0  0  0
   -8.3230   22.6623  -32.5377 H   0  0  0  0  0  0  0  0  0  0  0  0
   -9.5077   23.2215  -31.2767 H   0  0  0  0  0  0  0  0  0  0  0  0
   -7.1290   21.4990  -30.9130 H   0  0  0  0  0  0  0  0  0  0  0  0
   -7.7529   24.2488  -30.5094 H   0  0  0  0  0  0  0  0  0  0  0  0
   -7.3131   23.4264  -28.9744 H   0  0  0  0  0  0  0  0  0  0  0  0
   -5.1948   25.4746  -30.0302 H   0  0  0  0  0  0  0  0  0  0  0  0
   -1.4860   22.3233  -30.2301 H   0  0  0  0  0  0  0  0  0  0  0  0
    0.3532   20.9945  -31.2673 H   0  0  0  0  0  0  0  0  0  0  0  0
   -2.1137   20.2758  -34.7439 H   0  0  0  0  0  0  0  0  0  0  0  0
   -3.9588   21.6032  -33.7164 H   0  0  0  0  0  0  0  0  0  0  0  0
   -7.9135   18.2801  -30.7501 H   0  0  0  0  0  0  0  0  0  0  0  0
   -8.1058   17.7780  -32.4814 H   0  0  0  0  0  0  0  0  0  0  0  0
   -5.4687   18.5831  -31.1625 H   0  0  0  0  0  0  0  0  0  0  0  0
   -6.0250   16.8887  -31.4693 H   0  0  0  0  0  0  0  0  0  0  0  0
  1  2  1  0
  2  3  1  0
  3  4  1  0
  4  5  1  0
  5  6  1  0
  6  7  1  0
  7  8  1  0
  8  9  1  0
  9 10  1  0
 10 11  1  0
 11 12  2  0
 12 13  1  0
 13 14  1  0
 14 15  1  0
 15 16  2  0
 16 17  1  0
 17 18  2  0
 18 19  1  0
 18 20  1  0
 20 21  2  0
 14 22  2  0
  5 23  1  0
 23 24  1  0
 24  2  1  0
 22 11  1  0
 21 15  1  0
  1 25  1  0
  1 26  1  0
  1 27  1  0
  2 28  1  0
  3 29  1  0
  3 30  1  0
  4 31  1  0
  4 32  1  0
  6 33  1  0
  6 34  1  0
  7 35  1  0
  7 36  1  0
  8 37  1  0
  8 38  1  0
  9 39  1  0
 10 40  1  0
 10 41  1  0
 12 42  1  0
 16 43  1  0
 17 44  1  0
 20 45  1  0
 21 46  1  0
 23 47  1  0
 23 48  1  0
 24 49  1  0
 24 50  1  0
M  CHG  1   2   1
M  END
>  <UniqueID>  (14) 
14

>  <SMILES>  (14) 
C[NH+]1CCN(CCCNCc2coc(-c3ccc(F)cc3)n2)CC1

>  <Energy>  (14) 
89.2583953940252

>  <Genealogy>  (14) 
C[NH+]1CCN(CCCNCc2coc(-c3ccc(F)cc3)n2)CC1 (protonated)
C[NH+]1CCN(CCCNCc2coc(-c3ccc(F)cc3)n2)CC1 (3D coordinates assigned)
C[NH+]1CCN(CCCNCc2coc(-c3ccc(F)cc3)n2)CC1 (nonaromatic ring conformer: 89.2583953940252 kcal/mol)

>  <smiles>  (14) 
CN1CCN(CCCNCc2coc(-c3ccc(F)cc3)n2)CC1

>  <score_type>  (14) 
oracle

>  <origin>  (14) 
adg

>  <m_score__min__energy>  (14) 
-8.1300000000000008

>  <m_primary>  (14) 
energy

$$$$
14:0
     RDKit          3D

 29 30  0  0  0  0  0  0  0  0999 V2000
   -3.2640   25.6000  -31.6000 H   0  0  0  0  0  0  0  0  0  0  0  0
   -3.8660   25.4360  -30.8040 O   0  0  0  0  0  0  0  0  0  0  0  0
   -4.9170   24.5550  -30.9090 N   0  0  0  0  0  0  0  0  0  0  0  0
   -4.8980   23.4300  -30.2730 C   0  0  0  0  0  0  0  0  0  0  0  0
   -5.4796   23.3270  -29.3451 H   0  0  0  0  0  0  0  0  0  0  0  0
   -4.1150   22.2830  -30.7630 C   0  0  0  0  0  0  0  0  0  0  0  0
   -2.6880   21.7960  -30.0220 S   0  0  0  0  0  0  0  0  0  0  0  0
   -2.4710   20.4630  -31.0160 C   0  0  0  0  0  0  0  0  0  0  0  0
   -1.6420   19.7420  -30.9618 H   0  0  0  0  0  0  0  0  0  0  0  0
   -3.5240   20.4320  -31.9190 C   0  0  0  0  0  0  0  0  0  0  0  0
   -3.6268   19.6414  -32.6769 H   0  0  0  0  0  0  0  0  0  0  0  0
   -4.4250   21.4540  -31.8000 N   0  0  0  0  0  0  0  0  0  0  0  0
   -5.5670   21.5900  -32.7190 C   0  0  0  0  0  0  0  0  0  0  0  0
   -5.2229   21.3815  -33.7428 H   0  0  0  0  0  0  0  0  0  0  0  0
   -5.9530   22.6156  -32.6235 H   0  0  0  0  0  0  0  0  0  0  0  0
   -6.7010   20.6360  -32.3820 C   0  0  0  0  0  0  0  0  0  0  0  0
   -6.5140   19.2610  -32.6230 C   0  0  0  0  0  0  0  0  0  0  0  0
   -5.5640   18.9099  -33.0521 H   0  0  0  0  0  0  0  0  0  0  0  0
   -7.5170   18.3380  -32.3250 C   0  0  0  0  0  0  0  0  0  0  0  0
   -7.3485   17.2661  -32.5058 H   0  0  0  0  0  0  0  0  0  0  0  0
   -8.7310   18.7720  -31.7990 C   0  0  0  0  0  0  0  0  0  0  0  0
   -9.5141   18.0411  -31.5489 H   0  0  0  0  0  0  0  0  0  0  0  0
   -8.9550   20.1320  -31.5890 C   0  0  0  0  0  0  0  0  0  0  0  0
   -9.9177   20.4674  -31.1757 H   0  0  0  0  0  0  0  0  0  0  0  0
   -7.9630   21.0800  -31.9000 C   0  0  0  0  0  0  0  0  0  0  0  0
   -8.2730   22.5360  -31.6830 C   0  0  0  0  0  0  0  0  0  0  0  0
   -8.3174   22.7446  -30.6039 H   0  0  0  0  0  0  0  0  0  0  0  0
   -7.4857   23.1511  -32.1432 H   0  0  0  0  0  0  0  0  0  0  0  0
   -9.2426   22.7770  -32.1432 H   0  0  0  0  0  0  0  0  0  0  0  0
  1  2  1  0
  2  3  1  0
  3  4  2  0
  4  5  1  0
  4  6  1  0
  6  7  1  0
  7  8  1  0
  8  9  1  0
  8 10  2  0
 10 11  1  0
 10 12  1  0
 12 13  1  0
 13 14  1  0
 13 15  1  0
 13 16  1  0
 16 17  2  0
 17 18  1  0
 17 19  1  0
 19 20  1  0
 19 21  2  0
 21 22  1  0
 21 23  1  0
 23 24  1  0
 23 25  2  0
 25 26  1  0
 26 27  1  0
 26 28  1  0
 26 29  1  0
 12  6  2  0
 25 16  1  0
M  CHG  1  12   1
M  END
>  <UniqueID>  (15) 
15

>  <SMILES>  (15) 
Cc1ccccc1C[n+]1ccsc1/C=N/O

>  <Energy>  (15) 
60.66456364376722

>  <Genealogy>  (15) 
Cc1ccccc1C[n+]1ccsc1/C=N/O (cis-trans isomerization)
Cc1ccccc1C[n+]1ccsc1/C=N/O (3D coordinates assigned)
Cc1ccccc1C[n+]1ccsc1/C=N/O (optimized conformer: 60.66456364376722 kcal/mol)

>  <smiles>  (15) 
Cc1ccccc1C[n+]1ccsc1C=NO

>  <score_type>  (15) 
oracle

>  <origin>  (15) 
adg

>  <m_score__min__energy>  (15) 
-7.2999999999999998

>  <m_primary>  (15) 
energy

$$$$
15:0
     RDKit          3D

 39 41  0  0  0  0  0  0  0  0999 V2000
   -8.0860   23.2970  -31.9360 C   0  0  0  0  0  0  0  0  0  0  0  0
   -6.8570   23.6950  -31.1610 C   0  0  0  0  0  0  0  0  0  0  0  0
   -6.8630   24.9140  -30.4610 C   0  0  0  0  0  0  0  0  0  0  0  0
   -5.7530   25.3090  -29.7130 C   0  0  0  0  0  0  0  0  0  0  0  0
   -4.6200   24.4960  -29.6580 C   0  0  0  0  0  0  0  0  0  0  0  0
   -4.5900   23.2900  -30.3630 C   0  0  0  0  0  0  0  0  0  0  0  0
   -5.6940   22.8840  -31.1320 C   0  0  0  0  0  0  0  0  0  0  0  0
   -5.6030   21.6130  -31.8850 C   0  0  0  0  0  0  0  0  0  0  0  0
   -4.5110   21.3820  -32.7550 C   0  0  0  0  0  0  0  0  0  0  0  0
   -4.4150   20.1850  -33.4830 C   0  0  0  0  0  0  0  0  0  0  0  0
   -5.4210   19.2280  -33.3380 C   0  0  0  0  0  0  0  0  0  0  0  0
   -5.4530   18.0320  -33.9820 N   0  0  0  0  0  0  0  0  0  0  0  0
   -6.5520   17.3120  -33.6470 C   0  0  0  0  0  0  0  0  0  0  0  0
   -6.8520   15.9410  -34.1950 C   0  0  0  0  0  0  0  0  0  0  0  0
   -5.6770   15.0420  -34.2220 N   0  0  0  0  0  0  0  0  0  0  0  0
   -4.9190   15.0690  -32.9620 C   0  0  0  0  0  0  0  0  0  0  0  0
   -6.0330   13.6620  -34.5920 C   0  0  0  0  0  0  0  0  0  0  0  0
   -7.5320   18.1430  -32.5400 S   0  0  0  0  0  0  0  0  0  0  0  0
   -6.4940   19.4630  -32.4950 C   0  0  0  0  0  0  0  0  0  0  0  0
   -6.6150   20.6400  -31.7620 C   0  0  0  0  0  0  0  0  0  0  0  0
   -8.8927   23.0358  -31.2353 H   0  0  0  0  0  0  0  0  0  0  0  0
   -8.4081   24.1368  -32.5693 H   0  0  0  0  0  0  0  0  0  0  0  0
   -7.8546   22.4279  -32.5693 H   0  0  0  0  0  0  0  0  0  0  0  0
   -7.7506   25.5624  -30.5032 H   0  0  0  0  0  0  0  0  0  0  0  0
   -5.7712   26.2630  -29.1657 H   0  0  0  0  0  0  0  0  0  0  0  0
   -3.7503   24.8047  -29.0594 H   0  0  0  0  0  0  0  0  0  0  0  0
   -3.6945   22.6529  -30.3157 H   0  0  0  0  0  0  0  0  0  0  0  0
   -3.7291   22.1482  -32.8621 H   0  0  0  0  0  0  0  0  0  0  0  0
   -3.5630   20.0048  -34.1550 H   0  0  0  0  0  0  0  0  0  0  0  0
   -4.7220   17.7080  -34.6530 H   0  0  0  0  0  0  0  0  0  0  0  0
   -7.6289   15.4787  -33.5683 H   0  0  0  0  0  0  0  0  0  0  0  0
   -7.1786   16.0752  -35.2368 H   0  0  0  0  0  0  0  0  0  0  0  0
   -5.6180   15.0441  -32.1130 H   0  0  0  0  0  0  0  0  0  0  0  0
   -4.2541   14.1940  -32.9153 H   0  0  0  0  0  0  0  0  0  0  0  0
   -4.3180   15.9891  -32.9153 H   0  0  0  0  0  0  0  0  0  0  0  0
   -6.1867   13.0660  -33.6803 H   0  0  0  0  0  0  0  0  0  0  0  0
   -6.9588   13.6689  -35.1860 H   0  0  0  0  0  0  0  0  0  0  0  0
   -5.2194   13.2202  -35.1860 H   0  0  0  0  0  0  0  0  0  0  0  0
   -7.4796   20.8067  -31.1027 H   0  0  0  0  0  0  0  0  0  0  0  0
  1  2  1  0
  2  3  2  0
  3  4  1  0
  4  5  2  0
  5  6  1  0
  6  7  2  0
  7  8  1  0
  8  9  2  0
  9 10  1  0
 10 11  2  0
 11 12  1  0
 12 13  2  0
 13 14  1  0
 14 15  1  0
 15 16  1  0
 15 17  1  0
 13 18  1  0
 18 19  1  0
 19 20  2  0
  7  2  1  0
 20  8  1  0
 19 11  1  0
  1 21  1  0
  1 22  1  0
  1 23  1  0
  3 24  1  0
  4 25  1  0
  5 26  1  0
  6 27  1  0
  9 28  1  0
 10 29  1  0
 12 30  1  0
 14 31  1  0
 14 32  1  0
 16 33  1  0
 16 34  1  0
 16 35  1  0
 17 36  1  0
 17 37  1  0
 17 38  1  0
 20 39  1  0
M  CHG  1  12   1
M  END
>  <UniqueID>  (16) 
16

>  <SMILES>  (16) 
Cc1ccccc1-c1ccc2[nH+]c(CN(C)C)sc2c1

>  <Energy>  (16) 
82.99212649296638

>  <Genealogy>  (16) 
Cc1ccccc1-c1ccc2[nH+]c(CN(C)C)sc2c1 (protonated)
Cc1ccccc1-c1ccc2[nH+]c(CN(C)C)sc2c1 (3D coordinates assigned)
Cc1ccccc1-c1ccc2[nH+]c(CN(C)C)sc2c1 (optimized conformer: 82.99212649296638 kcal/mol)

>  <smiles>  (16) 
Cc1ccccc1-c1ccc2nc(CN(C)C)sc2c1

>  <score_type>  (16) 
oracle

>  <origin>  (16) 
adg

>  <m_score__min__energy>  (16) 
-6.7400000000000002

>  <m_primary>  (16) 
energy

$$$$
16:0
     RDKit          3D

 37 39  0  0  0  0  0  0  0  0999 V2000
   -5.4080   25.3040  -30.0420 C   0  0  0  0  0  0  0  0  0  0  0  0
   -4.6260   24.4590  -30.8800 O   0  0  0  0  0  0  0  0  0  0  0  0
   -5.1210   23.3250  -31.5410 C   0  0  0  0  0  0  0  0  0  0  0  0
   -4.2320   22.5820  -32.3510 C   0  0  0  0  0  0  0  0  0  0  0  0
   -4.6710   21.4370  -33.0380 C   0  0  0  0  0  0  0  0  0  0  0  0
   -6.0030   21.0590  -32.8930 C   0  0  0  0  0  0  0  0  0  0  0  0
   -6.8700   21.7690  -32.1140 C   0  0  0  0  0  0  0  0  0  0  0  0
   -6.4700   22.9110  -31.4220 C   0  0  0  0  0  0  0  0  0  0  0  0
   -8.1640   21.1090  -32.2010 C   0  0  0  0  0  0  0  0  0  0  0  0
   -9.2130   21.5290  -31.6400 O   0  0  0  0  0  0  0  0  0  0  0  0
   -8.1290   19.9330  -33.0370 N   0  0  2  0  0  0  0  0  0  0  0  0
   -8.4240   18.7260  -32.2460 C   0  0  0  0  0  0  0  0  0  0  0  0
   -7.6330   17.6250  -32.6920 O   0  0  0  0  0  0  0  0  0  0  0  0
   -6.4460   17.2230  -32.0670 C   0  0  0  0  0  0  0  0  0  0  0  0
   -6.3400   17.2830  -30.8100 O   0  0  0  0  0  0  0  0  0  0  0  0
   -5.3140   16.7340  -32.8850 C   0  0  0  0  0  0  0  0  0  0  0  0
   -5.3490   15.4530  -33.4680 C   0  0  0  0  0  0  0  0  0  0  0  0
   -4.2770   14.9990  -34.2410 C   0  0  0  0  0  0  0  0  0  0  0  0
   -3.1620   15.8160  -34.4430 C   0  0  0  0  0  0  0  0  0  0  0  0
   -3.1160   17.0890  -33.8700 C   0  0  0  0  0  0  0  0  0  0  0  0
   -2.0340   17.8810  -34.0670 F   0  0  0  0  0  0  0  0  0  0  0  0
   -4.1860   17.5480  -33.0960 C   0  0  0  0  0  0  0  0  0  0  0  0
   -6.7510   19.9520  -33.4710 C   0  0  0  0  0  0  0  0  0  0  0  0
   -6.2710   19.1250  -34.2910 O   0  0  0  0  0  0  0  0  0  0  0  0
   -5.1948   25.0736  -28.9877 H   0  0  0  0  0  0  0  0  0  0  0  0
   -5.1574   26.3556  -30.2455 H   0  0  0  0  0  0  0  0  0  0  0  0
   -6.4758   25.1355  -30.2455 H   0  0  0  0  0  0  0  0  0  0  0  0
   -3.1843   22.9037  -32.4448 H   0  0  0  0  0  0  0  0  0  0  0  0
   -3.9830   20.8573  -33.6709 H   0  0  0  0  0  0  0  0  0  0  0  0
   -7.1820   23.4746  -30.8011 H   0  0  0  0  0  0  0  0  0  0  0  0
   -8.7750   20.0500  -33.8520 H   0  0  0  0  0  0  0  0  0  0  0  0
   -8.2018   18.9249  -31.1872 H   0  0  0  0  0  0  0  0  0  0  0  0
   -9.4868   18.4718  -32.3716 H   0  0  0  0  0  0  0  0  0  0  0  0
   -6.2251   14.8059  -33.3142 H   0  0  0  0  0  0  0  0  0  0  0  0
   -4.3112   13.9960  -34.6914 H   0  0  0  0  0  0  0  0  0  0  0  0
   -2.3203   15.4568  -35.0533 H   0  0  0  0  0  0  0  0  0  0  0  0
   -4.1457   18.5523  -32.6490 H   0  0  0  0  0  0  0  0  0  0  0  0
  1  2  1  0
  2  3  1  0
  3  4  2  0
  4  5  1  0
  5  6  2  0
  6  7  1  0
  7  8  2  0
  7  9  1  0
  9 10  2  0
  9 11  1  0
 11 12  1  0
 12 13  1  0
 13 14  1  0
 14 15  2  0
 14 16  1  0
 16 17  2  0
 17 18  1  0
 18 19  2  0
 19 20  1  0
 20 21  1  0
 20 22  2  0
 11 23  1  0
 23 24  2  0
  8  3  1  0
 22 16  1  0
 23  6  1  0
  1 25  1  0
  1 26  1  0
  1 27  1  0
  4 28  1  0
  5 29  1  0
  8 30  1  0
 11 31  1  6
 12 32  1  0
 12 33  1  0
 17 34  1  0
 18 35  1  0
 19 36  1  0
 22 37  1  0
M  CHG  1  11   1
M  END
>  <UniqueID>  (17) 
17

>  <SMILES>  (17) 
COc1ccc2c(c1)C(=O)[N@H+](COC(=O)c1cccc(F)c1)C2=O

>  <Energy>  (17) 
63.27889192269042

>  <Genealogy>  (17) 
COc1ccc2c(c1)C(=O)[NH+](COC(=O)c1cccc(F)c1)C2=O (protonated)
COc1ccc2c(c1)C(=O)[N@H+](COC(=O)c1cccc(F)c1)C2=O (chirality)
COc1ccc2c(c1)C(=O)[N@H+](COC(=O)c1cccc(F)c1)C2=O (3D coordinates assigned)
COc1ccc2c(c1)C(=O)[N@H+](COC(=O)c1cccc(F)c1)C2=O (nonaromatic ring conformer: 63.27889192269042 kcal/mol)

>  <smiles>  (17) 
COc1ccc2c(c1)C(=O)N(COC(=O)c1cccc(F)c1)C2=O

>  <score_type>  (17) 
oracle

>  <origin>  (17) 
adg

>  <m_score__min__energy>  (17) 
-7.4900000000000002

>  <m_primary>  (17) 
energy

$$$$
17:0
     RDKit          3D

 43 45  0  0  0  0  0  0  0  0999 V2000
   -1.0470   26.6390  -25.9040 C   0  0  0  0  0  0  0  0  0  0  0  0
   -2.4140   25.9650  -25.7360 C   0  0  0  0  0  0  0  0  0  0  0  0
   -2.8060   25.1540  -26.9150 N   0  0  2  0  0  0  0  0  0  0  0  0
   -4.1350   24.5350  -26.7090 C   0  0  0  0  0  0  0  0  0  0  0  0
   -1.7810   24.1070  -27.1700 C   0  0  0  0  0  0  0  0  0  0  0  0
   -1.4700   23.9170  -28.6670 C   0  0  0  0  0  0  0  0  0  0  0  0
   -2.3920   24.7000  -29.4940 N   0  0  0  0  0  0  0  0  0  0  0  0
   -3.6310   24.2180  -30.0510 C   0  0  0  0  0  0  0  0  0  0  0  0
   -4.8570   24.9220  -29.8860 C   0  0  0  0  0  0  0  0  0  0  0  0
   -6.0490   24.4370  -30.4520 C   0  0  0  0  0  0  0  0  0  0  0  0
   -5.9940   23.2530  -31.1820 C   0  0  0  0  0  0  0  0  0  0  0  0
   -6.9860   22.5500  -31.8460 C   0  0  0  0  0  0  0  0  0  0  0  0
   -8.3820   22.8920  -31.9400 C   0  0  0  0  0  0  0  0  0  0  0  0
   -9.5030   23.1660  -32.0160 N   0  0  0  0  0  0  0  0  0  0  0  0
   -6.3460   21.4490  -32.4030 C   0  0  0  0  0  0  0  0  0  0  0  0
   -6.8920   20.4220  -33.1750 C   0  0  0  0  0  0  0  0  0  0  0  0
   -6.0270   19.4130  -33.6260 C   0  0  0  0  0  0  0  0  0  0  0  0
   -4.6580   19.4510  -33.3030 C   0  0  0  0  0  0  0  0  0  0  0  0
   -4.1590   20.5050  -32.5240 C   0  0  0  0  0  0  0  0  0  0  0  0
   -5.0260   21.4650  -32.1040 N   0  0  0  0  0  0  0  0  0  0  0  0
   -4.8120   22.5680  -31.3580 C   0  0  0  0  0  0  0  0  0  0  0  0
   -3.6140   23.0260  -30.8090 C   0  0  0  0  0  0  0  0  0  0  0  0
   -0.6182   26.8504  -24.9133 H   0  0  0  0  0  0  0  0  0  0  0  0
   -0.3739   25.9695  -26.4596 H   0  0  0  0  0  0  0  0  0  0  0  0
   -1.1682   27.5806  -26.4596 H   0  0  0  0  0  0  0  0  0  0  0  0
   -2.3755   25.3077  -24.8548 H   0  0  0  0  0  0  0  0  0  0  0  0
   -3.1632   26.7620  -25.6194 H   0  0  0  0  0  0  0  0  0  0  0  0
   -2.8600   25.7940  -27.7420 H   0  0  0  0  0  0  0  0  0  0  0  0
   -4.3333   24.4426  -25.6310 H   0  0  0  0  0  0  0  0  0  0  0  0
   -4.9088   25.1654  -27.1715 H   0  0  0  0  0  0  0  0  0  0  0  0
   -4.1503   23.5371  -27.1715 H   0  0  0  0  0  0  0  0  0  0  0  0
   -0.8529   24.3926  -26.6532 H   0  0  0  0  0  0  0  0  0  0  0  0
   -2.1849   23.1548  -26.7956 H   0  0  0  0  0  0  0  0  0  0  0  0
   -0.4393   24.2460  -28.8657 H   0  0  0  0  0  0  0  0  0  0  0  0
   -1.5878   22.8528  -28.9190 H   0  0  0  0  0  0  0  0  0  0  0  0
   -2.0910   25.6730  -29.7340 H   0  0  0  0  0  0  0  0  0  0  0  0
   -4.8720   25.8578  -29.3080 H   0  0  0  0  0  0  0  0  0  0  0  0
   -6.9980   24.9777  -30.3217 H   0  0  0  0  0  0  0  0  0  0  0  0
   -7.9639   20.4042  -33.4215 H   0  0  0  0  0  0  0  0  0  0  0  0
   -6.4218   18.5871  -34.2359 H   0  0  0  0  0  0  0  0  0  0  0  0
   -3.9832   18.6587  -33.6594 H   0  0  0  0  0  0  0  0  0  0  0  0
   -3.0925   20.5541  -32.2592 H   0  0  0  0  0  0  0  0  0  0  0  0
   -2.6768   22.4711  -30.9630 H   0  0  0  0  0  0  0  0  0  0  0  0
  1  2  1  0
  2  3  1  0
  3  4  1  0
  3  5  1  0
  5  6  1  0
  6  7  1  0
  7  8  1  0
  8  9  2  0
  9 10  1  0
 10 11  2  0
 11 12  1  0
 12 13  1  0
 13 14  3  0
 12 15  2  0
 15 16  1  0
 16 17  2  0
 17 18  1  0
 18 19  2  0
 19 20  1  0
 20 21  1  0
 21 22  2  0
 22  8  1  0
 21 11  1  0
 20 15  1  0
  1 23  1  0
  1 24  1  0
  1 25  1  0
  2 26  1  0
  2 27  1  0
  3 28  1  6
  4 29  1  0
  4 30  1  0
  4 31  1  0
  5 32  1  0
  5 33  1  0
  6 34  1  0
  6 35  1  0
  7 36  1  0
  9 37  1  0
 10 38  1  0
 16 39  1  0
 17 40  1  0
 18 41  1  0
 19 42  1  0
 22 43  1  0
M  CHG  1   3   1
M  END
>  <UniqueID>  (18) 
18

>  <SMILES>  (18) 
CC[N@H+](C)CCNc1ccc2c(C#N)c3ccccn3c2c1

>  <Energy>  (18) 
86.50473328503556

>  <Genealogy>  (18) 
CC[NH+](C)CCNc1ccc2c(C#N)c3ccccn3c2c1 (protonated)
CC[N@H+](C)CCNc1ccc2c(C#N)c3ccccn3c2c1 (chirality)
CC[N@H+](C)CCNc1ccc2c(C#N)c3ccccn3c2c1 (3D coordinates assigned)
CC[N@H+](C)CCNc1ccc2c(C#N)c3ccccn3c2c1 (optimized conformer: 86.50473328503556 kcal/mol)

>  <smiles>  (18) 
CCN(C)CCNc1ccc2c(C#N)c3ccccn3c2c1

>  <score_type>  (18) 
oracle

>  <origin>  (18) 
adg

>  <m_score__min__energy>  (18) 
-7.2999999999999998

>  <m_primary>  (18) 
energy

$$$$
18:0
     RDKit          3D

 39 41  0  0  0  0  0  0  0  0999 V2000
  -10.7581   21.8367  -31.3422 H   0  0  0  0  0  0  0  0  0  0  0  0
   -9.7400   21.5530  -31.6470 C   0  0  0  0  0  0  0  0  0  0  0  0
   -9.4700   20.2670  -31.9830 N   0  0  0  0  0  0  0  0  0  0  0  0
   -8.2300   19.8730  -32.3710 C   0  0  0  0  0  0  0  0  0  0  0  0
   -8.0070   18.5350  -32.7160 C   0  0  0  0  0  0  0  0  0  0  0  0
   -8.8336   17.8108  -32.6684 H   0  0  0  0  0  0  0  0  0  0  0  0
   -6.7360   18.1170  -33.1210 C   0  0  0  0  0  0  0  0  0  0  0  0
   -6.4610   16.4390  -33.5530 Cl  0  0  0  0  0  0  0  0  0  0  0  0
   -5.6830   19.0350  -33.1810 C   0  0  0  0  0  0  0  0  0  0  0  0
   -4.6841   18.7024  -33.4996 H   0  0  0  0  0  0  0  0  0  0  0  0
   -5.8940   20.3730  -32.8380 C   0  0  0  0  0  0  0  0  0  0  0  0
   -5.0597   21.0881  -32.8873 H   0  0  0  0  0  0  0  0  0  0  0  0
   -7.1700   20.8120  -32.4290 C   0  0  0  0  0  0  0  0  0  0  0  0
   -7.4220   22.1560  -32.0650 C   0  0  0  0  0  0  0  0  0  0  0  0
   -6.4540   23.0310  -32.1240 N   0  0  0  0  0  0  0  0  0  0  0  0
   -5.5060   23.3680  -31.0990 C   0  0  0  0  0  0  0  0  0  0  0  0
   -4.1480   23.0300  -31.2240 C   0  0  0  0  0  0  0  0  0  0  0  0
   -3.8045   22.4574  -32.0981 H   0  0  0  0  0  0  0  0  0  0  0  0
   -3.2320   23.4180  -30.2430 C   0  0  0  0  0  0  0  0  0  0  0  0
   -2.1732   23.1358  -30.3396 H   0  0  0  0  0  0  0  0  0  0  0  0
   -3.6580   24.1670  -29.1340 C   0  0  0  0  0  0  0  0  0  0  0  0
   -2.6740   24.6070  -28.0810 C   0  0  0  0  0  0  0  0  0  0  0  0
   -2.3918   23.7402  -27.4654 H   0  0  0  0  0  0  0  0  0  0  0  0
   -3.1454   25.3803  -27.4567 H   0  0  0  0  0  0  0  0  0  0  0  0
   -1.4610   25.1740  -28.7060 N   0  0  0  0  0  0  0  0  0  0  0  0
   -0.9050   26.2350  -27.8520 C   0  0  0  0  0  0  0  0  0  0  0  0
   -1.0459   25.9662  -26.7947 H   0  0  0  0  0  0  0  0  0  0  0  0
    0.1688   26.3492  -28.0614 H   0  0  0  0  0  0  0  0  0  0  0  0
   -1.4222   27.1830  -28.0614 H   0  0  0  0  0  0  0  0  0  0  0  0
   -0.4430   24.1300  -28.9200 C   0  0  0  0  0  0  0  0  0  0  0  0
   -0.0846   23.7624  -27.9471 H   0  0  0  0  0  0  0  0  0  0  0  0
   -0.8853   23.2971  -29.4863 H   0  0  0  0  0  0  0  0  0  0  0  0
    0.4007   24.5512  -29.4863 H   0  0  0  0  0  0  0  0  0  0  0  0
   -5.0080   24.5370  -29.0310 C   0  0  0  0  0  0  0  0  0  0  0  0
   -5.3480   25.1356  -28.1730 H   0  0  0  0  0  0  0  0  0  0  0  0
   -5.9220   24.1480  -30.0140 C   0  0  0  0  0  0  0  0  0  0  0  0
   -6.9748   24.4567  -29.9345 H   0  0  0  0  0  0  0  0  0  0  0  0
   -8.7330   22.5180  -31.6860 C   0  0  0  0  0  0  0  0  0  0  0  0
   -8.9606   23.5612  -31.4214 H   0  0  0  0  0  0  0  0  0  0  0  0
  1  2  1  0
  2  3  1  0
  3  4  1  0
  4  5  2  0
  5  6  1  0
  5  7  1  0
  7  8  1  0
  7  9  2  0
  9 10  1  0
  9 11  1  0
 11 12  1  0
 11 13  2  0
 13 14  1  0
 14 15  2  0
 15 16  1  0
 16 17  2  0
 17 18  1  0
 17 19  1  0
 19 20  1  0
 19 21  2  0
 21 22  1  0
 22 23  1  0
 22 24  1  0
 22 25  1  0
 25 26  1  0
 26 27  1  0
 26 28  1  0
 26 29  1  0
 25 30  1  0
 30 31  1  0
 30 32  1  0
 30 33  1  0
 21 34  1  0
 34 35  1  0
 34 36  2  0
 36 37  1  0
 14 38  1  0
 38 39  1  0
 38  2  2  0
 13  4  1  0
 36 16  1  0
M  CHG  1   3  -1
M  END
>  <UniqueID>  (19) 
19

>  <SMILES>  (19) 
CN(C)Cc1ccc(/N=c2\cc[n-]c3cc(Cl)ccc23)cc1

>  <Energy>  (19) 
55.476576812192874

>  <Genealogy>  (19) 
CN(C)Cc1ccc(N=c2cc[n-]c3cc(Cl)ccc23)cc1 (protonated)
CN(C)Cc1ccc(/N=c2\cc[n-]c3cc(Cl)ccc23)cc1 (cis-trans isomerization)
CN(C)Cc1ccc(/N=c2\cc[n-]c3cc(Cl)ccc23)cc1 (3D coordinates assigned)
CN(C)Cc1ccc(/N=c2\cc[n-]c3cc(Cl)ccc23)cc1 (optimized conformer: 55.476576812192874 kcal/mol)

>  <smiles>  (19) 
CN(C)Cc1ccc(N=c2cc[nH]c3cc(Cl)ccc23)cc1

>  <score_type>  (19) 
oracle

>  <origin>  (19) 
adg

>  <m_score__min__energy>  (19) 
-9.2300000000000004

>  <m_primary>  (19) 
energy

$$$$
19:0
     RDKit          3D

 63 66  0  0  0  0  0  0  0  0999 V2000
   -0.8450   22.4590  -25.9730 C   0  0  0  0  0  0  0  0  0  0  0  0
    0.1670   23.4660  -26.5340 C   0  0  0  0  0  0  0  0  0  0  0  0
   -0.0540   24.8540  -26.0500 N   0  0  0  0  0  0  0  0  0  0  0  0
   -0.4780   24.9190  -24.6220 C   0  0  0  0  0  0  0  0  0  0  0  0
   -0.8620   26.3200  -24.1260 C   0  0  0  0  0  0  0  0  0  0  0  0
   -0.9780   25.5550  -26.9830 C   0  0  0  0  0  0  0  0  0  0  0  0
   -0.8520   25.1060  -28.4470 C   0  0  0  0  0  0  0  0  0  0  0  0
   -2.0880   25.2700  -29.1140 O   0  0  0  0  0  0  0  0  0  0  0  0
   -3.1310   24.6520  -28.3870 C   0  0  0  0  0  0  0  0  0  0  0  0
   -4.3720   24.4890  -29.2710 C   0  0  0  0  0  0  0  0  0  0  0  0
   -3.9940   24.1850  -30.6510 N   0  0  0  0  0  0  0  0  0  0  0  0
   -4.1410   22.8660  -31.2060 C   0  0  0  0  0  0  0  0  0  0  0  0
   -3.0210   22.0330  -31.3730 C   0  0  0  0  0  0  0  0  0  0  0  0
   -1.7600   22.3870  -30.8500 C   0  0  0  0  0  0  0  0  0  0  0  0
   -0.6490   21.5730  -31.0630 C   0  0  0  0  0  0  0  0  0  0  0  0
   -0.7770   20.3920  -31.7890 C   0  0  0  0  0  0  0  0  0  0  0  0
   -2.0190   20.0130  -32.2970 C   0  0  0  0  0  0  0  0  0  0  0  0
   -3.1660   20.8200  -32.0920 C   0  0  0  0  0  0  0  0  0  0  0  0
   -4.4010   20.4480  -32.5810 N   0  0  0  0  0  0  0  0  0  0  0  0
   -4.4550   19.5430  -33.7490 C   0  0  0  0  0  0  0  0  0  0  0  0
   -5.5430   21.0900  -32.1280 C   0  0  0  0  0  0  0  0  0  0  0  0
   -5.4160   22.3840  -31.5560 C   0  0  0  0  0  0  0  0  0  0  0  0
   -6.5610   23.1780  -31.3670 C   0  0  0  0  0  0  0  0  0  0  0  0
   -7.8260   22.6890  -31.6670 C   0  0  0  0  0  0  0  0  0  0  0  0
   -7.9900   21.3590  -32.0560 C   0  0  0  0  0  0  0  0  0  0  0  0
   -9.2860   20.8390  -32.2140 C   0  0  0  0  0  0  0  0  0  0  0  0
   -9.4720   19.4810  -32.4620 C   0  0  0  0  0  0  0  0  0  0  0  0
   -8.3720   18.6270  -32.5190 C   0  0  0  0  0  0  0  0  0  0  0  0
   -7.0790   19.1350  -32.3820 C   0  0  0  0  0  0  0  0  0  0  0  0
   -6.8550   20.5230  -32.2310 C   0  0  0  0  0  0  0  0  0  0  0  0
   -0.8180   22.4858  -24.8737 H   0  0  0  0  0  0  0  0  0  0  0  0
   -1.8549   22.7212  -26.3215 H   0  0  0  0  0  0  0  0  0  0  0  0
   -0.5878   21.4479  -26.3215 H   0  0  0  0  0  0  0  0  0  0  0  0
    1.1771   23.1489  -26.2355 H   0  0  0  0  0  0  0  0  0  0  0  0
    0.0423   23.4785  -27.6268 H   0  0  0  0  0  0  0  0  0  0  0  0
    0.8710   25.3430  -26.1130 H   0  0  0  0  0  0  0  0  0  0  0  0
   -1.3495   24.2602  -24.4938 H   0  0  0  0  0  0  0  0  0  0  0  0
    0.3933   24.6085  -24.0266 H   0  0  0  0  0  0  0  0  0  0  0  0
   -0.8651   26.3315  -23.0261 H   0  0  0  0  0  0  0  0  0  0  0  0
   -0.1318   27.0537  -24.4982 H   0  0  0  0  0  0  0  0  0  0  0  0
   -1.8642   26.5788  -24.4982 H   0  0  0  0  0  0  0  0  0  0  0  0
   -2.0103   25.3680  -26.6521 H   0  0  0  0  0  0  0  0  0  0  0  0
   -0.7088   26.6212  -26.9542 H   0  0  0  0  0  0  0  0  0  0  0  0
   -0.0844   25.7133  -28.9490 H   0  0  0  0  0  0  0  0  0  0  0  0
   -0.5664   24.0441  -28.4744 H   0  0  0  0  0  0  0  0  0  0  0  0
   -2.7970   23.6615  -28.0444 H   0  0  0  0  0  0  0  0  0  0  0  0
   -3.3876   25.2830  -27.5233 H   0  0  0  0  0  0  0  0  0  0  0  0
   -4.9891   23.6678  -28.8775 H   0  0  0  0  0  0  0  0  0  0  0  0
   -4.9367   25.4329  -29.2613 H   0  0  0  0  0  0  0  0  0  0  0  0
   -3.5060   24.9180  -31.2140 H   0  0  0  0  0  0  0  0  0  0  0  0
   -1.6523   23.3144  -30.2684 H   0  0  0  0  0  0  0  0  0  0  0  0
    0.3309   21.8642  -30.6567 H   0  0  0  0  0  0  0  0  0  0  0  0
    0.1038   19.7563  -31.9623 H   0  0  0  0  0  0  0  0  0  0  0  0
   -2.1098   19.0751  -32.8645 H   0  0  0  0  0  0  0  0  0  0  0  0
   -4.5172   18.5008  -33.4027 H   0  0  0  0  0  0  0  0  0  0  0  0
   -5.3405   19.7810  -34.3566 H   0  0  0  0  0  0  0  0  0  0  0  0
   -3.5474   19.6740  -34.3566 H   0  0  0  0  0  0  0  0  0  0  0  0
   -6.4534   24.2006  -30.9761 H   0  0  0  0  0  0  0  0  0  0  0  0
   -8.7010   23.3521  -31.5977 H   0  0  0  0  0  0  0  0  0  0  0  0
  -10.1569   21.5070  -32.1415 H   0  0  0  0  0  0  0  0  0  0  0  0
  -10.4863   19.0829  -32.6128 H   0  0  0  0  0  0  0  0  0  0  0  0
   -8.5233   17.5483  -32.6726 H   0  0  0  0  0  0  0  0  0  0  0  0
   -6.2219   18.4455  -32.3916 H   0  0  0  0  0  0  0  0  0  0  0  0
  1  2  1  0
  2  3  1  0
  3  4  1  0
  4  5  1  0
  3  6  1  0
  6  7  1  0
  7  8  1  0
  8  9  1  0
  9 10  1  0
 10 11  1  0
 11 12  1  0
 12 13  2  0
 13 14  1  0
 14 15  2  0
 15 16  1  0
 16 17  2  0
 17 18  1  0
 18 19  2  0
 19 20  1  0
 19 21  1  0
 21 22  2  0
 22 23  1  0
 23 24  2  0
 24 25  1  0
 25 26  2  0
 26 27  1  0
 27 28  2  0
 28 29  1  0
 29 30  2  0
 22 12  1  0
 30 25  1  0
 18 13  1  0
 30 21  1  0
  1 31  1  0
  1 32  1  0
  1 33  1  0
  2 34  1  0
  2 35  1  0
  3 36  1  0
  4 37  1  0
  4 38  1  0
  5 39  1  0
  5 40  1  0
  5 41  1  0
  6 42  1  0
  6 43  1  0
  7 44  1  0
  7 45  1  0
  9 46  1  0
  9 47  1  0
 10 48  1  0
 10 49  1  0
 11 50  1  0
 14 51  1  0
 15 52  1  0
 16 53  1  0
 17 54  1  0
 20 55  1  0
 20 56  1  0
 20 57  1  0
 23 58  1  0
 24 59  1  0
 26 60  1  0
 27 61  1  0
 28 62  1  0
 29 63  1  0
M  CHG  2   3   1  19   1
M  END
>  <UniqueID>  (20) 
20

>  <SMILES>  (20) 
CC[NH+](CC)CCOCCNc1c2ccccc2[n+](C)c2c1ccc1ccccc12

>  <Energy>  (20) 
109.26402020385933

>  <Genealogy>  (20) 
CC[NH+](CC)CCOCCNc1c2ccccc2[n+](C)c2c1ccc1ccccc12 (protonated)
CC[NH+](CC)CCOCCNc1c2ccccc2[n+](C)c2c1ccc1ccccc12 (3D coordinates assigned)
CC[NH+](CC)CCOCCNc1c2ccccc2[n+](C)c2c1ccc1ccccc12 (optimized conformer: 109.26402020385933 kcal/mol)

>  <smiles>  (20) 
CCN(CC)CCOCCNc1c2ccccc2[n+](C)c2c1ccc1ccccc12

>  <score_type>  (20) 
oracle

>  <origin>  (20) 
adg

>  <m_score__min__energy>  (20) 
-8.1500000000000004

>  <m_primary>  (20) 
energy

$$$$
20:0
     RDKit          3D

 57 59  0  0  0  0  0  0  0  0999 V2000
    1.8020   24.3400  -26.3100 C   0  0  0  0  0  0  0  0  0  0  0  0
    1.6660   24.5500  -27.8180 C   0  0  0  0  0  0  0  0  0  0  0  0
    0.2630   24.3720  -28.2570 N   0  0  0  0  0  0  0  0  0  0  0  0
   -0.0130   22.9650  -28.6060 C   0  0  0  0  0  0  0  0  0  0  0  0
   -0.6940   24.8500  -27.2330 C   0  0  0  0  0  0  0  0  0  0  0  0
   -1.9500   25.4310  -27.8980 C   0  0  0  0  0  0  0  0  0  0  0  0
   -2.0700   24.9680  -29.2820 N   0  0  0  0  0  0  0  0  0  0  0  0
   -3.2090   24.2450  -29.7870 C   0  0  0  0  0  0  0  0  0  0  0  0
   -4.5070   24.5510  -29.3770 C   0  0  0  0  0  0  0  0  0  0  0  0
   -5.5920   23.8110  -29.8430 C   0  0  0  0  0  0  0  0  0  0  0  0
   -5.4170   22.7360  -30.7510 C   0  0  0  0  0  0  0  0  0  0  0  0
   -4.0920   22.4360  -31.1830 C   0  0  0  0  0  0  0  0  0  0  0  0
   -3.0110   23.2080  -30.7010 C   0  0  0  0  0  0  0  0  0  0  0  0
   -3.8700   21.3690  -32.0830 C   0  0  0  0  0  0  0  0  0  0  0  0
   -2.4850   21.0160  -32.5770 C   0  0  0  0  0  0  0  0  0  0  0  0
   -4.9480   20.6020  -32.5290 C   0  0  0  0  0  0  0  0  0  0  0  0
   -6.2670   20.8540  -32.1110 C   0  0  0  0  0  0  0  0  0  0  0  0
   -7.3570   20.0470  -32.5580 C   0  0  0  0  0  0  0  0  0  0  0  0
   -7.2120   18.8140  -33.4510 C   0  0  0  0  0  0  0  0  0  0  0  0
   -7.1140   17.5330  -32.7120 N   0  0  0  0  0  0  0  0  0  0  0  0
   -6.4750   17.6770  -31.3940 C   0  0  0  0  0  0  0  0  0  0  0  0
   -6.4700   16.4640  -33.4910 C   0  0  0  0  0  0  0  0  0  0  0  0
   -8.6520   20.3980  -32.1610 C   0  0  0  0  0  0  0  0  0  0  0  0
   -8.8680   21.4530  -31.3430 N   0  0  0  0  0  0  0  0  0  0  0  0
   -7.8540   22.2160  -30.8720 C   0  0  0  0  0  0  0  0  0  0  0  0
   -6.5110   21.9490  -31.2320 C   0  0  0  0  0  0  0  0  0  0  0  0
    1.2785   25.1484  -25.7785 H   0  0  0  0  0  0  0  0  0  0  0  0
    1.3588   23.3720  -26.0331 H   0  0  0  0  0  0  0  0  0  0  0  0
    2.8666   24.3485  -26.0331 H   0  0  0  0  0  0  0  0  0  0  0  0
    1.9946   25.5691  -28.0698 H   0  0  0  0  0  0  0  0  0  0  0  0
    2.2901   23.8042  -28.3321 H   0  0  0  0  0  0  0  0  0  0  0  0
   -0.1288   22.3747  -27.6850 H   0  0  0  0  0  0  0  0  0  0  0  0
   -0.9393   22.9086  -29.1966 H   0  0  0  0  0  0  0  0  0  0  0  0
    0.8234   22.5629  -29.1966 H   0  0  0  0  0  0  0  0  0  0  0  0
   -0.9833   24.0078  -26.5872 H   0  0  0  0  0  0  0  0  0  0  0  0
   -0.2113   25.6381  -26.6363 H   0  0  0  0  0  0  0  0  0  0  0  0
   -2.8377   25.1107  -27.3328 H   0  0  0  0  0  0  0  0  0  0  0  0
   -1.8711   26.5282  -27.9000 H   0  0  0  0  0  0  0  0  0  0  0  0
   -1.2190   25.0350  -29.8850 H   0  0  0  0  0  0  0  0  0  0  0  0
   -4.6756   25.3844  -28.6792 H   0  0  0  0  0  0  0  0  0  0  0  0
   -6.6053   24.0661  -29.4993 H   0  0  0  0  0  0  0  0  0  0  0  0
   -1.9925   22.9875  -31.0531 H   0  0  0  0  0  0  0  0  0  0  0  0
   -1.8209   20.8467  -31.7166 H   0  0  0  0  0  0  0  0  0  0  0  0
   -2.5351   20.1019  -33.1869 H   0  0  0  0  0  0  0  0  0  0  0  0
   -2.0915   21.8426  -33.1869 H   0  0  0  0  0  0  0  0  0  0  0  0
   -4.7598   19.7748  -33.2292 H   0  0  0  0  0  0  0  0  0  0  0  0
   -8.0889   18.7633  -34.1132 H   0  0  0  0  0  0  0  0  0  0  0  0
   -6.2668   18.9331  -34.0010 H   0  0  0  0  0  0  0  0  0  0  0  0
   -7.2218   17.5087  -30.6041 H   0  0  0  0  0  0  0  0  0  0  0  0
   -5.6654   16.9388  -31.2964 H   0  0  0  0  0  0  0  0  0  0  0  0
   -6.0603   18.6911  -31.2964 H   0  0  0  0  0  0  0  0  0  0  0  0
   -6.0261   15.7272  -32.8054 H   0  0  0  0  0  0  0  0  0  0  0  0
   -7.2205   15.9693  -34.1250 H   0  0  0  0  0  0  0  0  0  0  0  0
   -5.6819   16.8962  -34.1250 H   0  0  0  0  0  0  0  0  0  0  0  0
   -9.5074   19.8068  -32.5197 H   0  0  0  0  0  0  0  0  0  0  0  0
   -9.8480   21.6820  -31.0640 H   0  0  0  0  0  0  0  0  0  0  0  0
   -8.0769   23.0569  -30.1988 H   0  0  0  0  0  0  0  0  0  0  0  0
  1  2  1  0
  2  3  1  0
  3  4  1  0
  3  5  1  0
  5  6  1  0
  6  7  1  0
  7  8  1  0
  8  9  2  0
  9 10  1  0
 10 11  2  0
 11 12  1  0
 12 13  2  0
 12 14  1  0
 14 15  1  0
 14 16  2  0
 16 17  1  0
 17 18  2  0
 18 19  1  0
 19 20  1  0
 20 21  1  0
 20 22  1  0
 18 23  1  0
 23 24  2  0
 24 25  1  0
 25 26  2  0
 13  8  1  0
 26 17  1  0
 26 11  1  0
  1 27  1  0
  1 28  1  0
  1 29  1  0
  2 30  1  0
  2 31  1  0
  4 32  1  0
  4 33  1  0
  4 34  1  0
  5 35  1  0
  5 36  1  0
  6 37  1  0
  6 38  1  0
  7 39  1  0
  9 40  1  0
 10 41  1  0
 13 42  1  0
 15 43  1  0
 15 44  1  0
 15 45  1  0
 16 46  1  0
 19 47  1  0
 19 48  1  0
 21 49  1  0
 21 50  1  0
 21 51  1  0
 22 52  1  0
 22 53  1  0
 22 54  1  0
 23 55  1  0
 24 56  1  0
 25 57  1  0
M  CHG  1  24   1
M  END
>  <UniqueID>  (21) 
21

>  <SMILES>  (21) 
CCN(C)CCNc1ccc2c(c1)c(C)cc1c(CN(C)C)c[nH+]cc12

>  <Energy>  (21) 
76.96167538036099

>  <Genealogy>  (21) 
CCN(C)CCNc1ccc2c(c1)c(C)cc1c(CN(C)C)c[nH+]cc12 (protonated)
CCN(C)CCNc1ccc2c(c1)c(C)cc1c(CN(C)C)c[nH+]cc12 (3D coordinates assigned)
CCN(C)CCNc1ccc2c(c1)c(C)cc1c(CN(C)C)c[nH+]cc12 (optimized conformer: 76.96167538036099 kcal/mol)

>  <smiles>  (21) 
CCN(C)CCNc1ccc2c(c1)c(C)cc1c(CN(C)C)cncc12

>  <score_type>  (21) 
oracle

>  <origin>  (21) 
adg

>  <m_score__min__energy>  (21) 
-8.3200000000000003

>  <m_primary>  (21) 
energy

$$$$
21:0
     RDKit          3D

105109  0  0  0  0  0  0  0  0999 V2000
   -6.9658   25.6111  -31.5964 H   0  0  0  0  0  0  0  0  0  0  0  0
   -6.0950   24.9990  -31.3190 C   0  0  0  0  0  0  0  0  0  0  0  0
   -5.9670   23.7010  -31.8140 C   0  0  0  0  0  0  0  0  0  0  0  0
   -6.7234   23.3019  -32.5058 H   0  0  0  0  0  0  0  0  0  0  0  0
   -4.8820   22.9050  -31.4350 C   0  0  0  0  0  0  0  0  0  0  0  0
   -4.7685   21.9015  -31.8710 H   0  0  0  0  0  0  0  0  0  0  0  0
   -3.9270   23.3700  -30.4990 C   0  0  0  0  0  0  0  0  0  0  0  0
   -2.8290   22.5880  -30.0180 C   0  0  0  0  0  0  0  0  0  0  0  0
   -2.7900   21.2740  -30.0250 N   0  0  0  0  0  0  0  0  0  0  0  0
   -1.8730   20.3170  -30.6450 C   0  0  0  0  0  0  0  0  0  0  0  0
   -1.6475   19.5084  -29.9341 H   0  0  0  0  0  0  0  0  0  0  0  0
   -0.9374   20.8245  -30.9225 H   0  0  0  0  0  0  0  0  0  0  0  0
   -2.5360   19.7310  -31.8970 C   0  0  0  0  0  0  0  0  0  0  0  0
   -2.4345   18.6358  -31.8817 H   0  0  0  0  0  0  0  0  0  0  0  0
   -2.0419   20.1446  -32.7885 H   0  0  0  0  0  0  0  0  0  0  0  0
   -4.0330   20.1020  -31.9380 C   0  0  0  0  0  0  0  0  0  0  0  0
   -4.2159   20.8877  -31.1902 H   0  0  0  0  0  0  0  0  0  0  0  0
   -4.5966   19.1809  -31.7284 H   0  0  0  0  0  0  0  0  0  0  0  0
   -4.4890   20.5940  -33.2490 N   0  0  0  0  0  0  0  0  0  0  0  0
   -3.7500   20.3840  -33.9630 H   0  0  0  0  0  0  0  0  0  0  0  0
   -5.7800   20.0510  -33.7320 C   0  0  0  0  0  0  0  0  0  0  0  0
   -5.5952   19.0528  -34.1557 H   0  0  0  0  0  0  0  0  0  0  0  0
   -6.1631   20.7698  -34.4713 H   0  0  0  0  0  0  0  0  0  0  0  0
   -6.8670   19.9190  -32.6480 C   0  0  0  0  0  0  0  0  0  0  0  0
   -7.6251   20.6974  -32.8195 H   0  0  0  0  0  0  0  0  0  0  0  0
   -6.3662   20.0289  -31.6748 H   0  0  0  0  0  0  0  0  0  0  0  0
   -7.5700   18.5480  -32.6410 C   0  0  0  0  0  0  0  0  0  0  0  0
   -8.0401   18.3776  -33.6208 H   0  0  0  0  0  0  0  0  0  0  0  0
   -8.3321   18.5440  -31.8478 H   0  0  0  0  0  0  0  0  0  0  0  0
   -6.5620   17.4270  -32.3640 C   0  0  0  0  0  0  0  0  0  0  0  0
   -6.8009   16.9676  -31.3935 H   0  0  0  0  0  0  0  0  0  0  0  0
   -5.5557   17.8713  -32.3598 H   0  0  0  0  0  0  0  0  0  0  0  0
   -6.5910   16.3850  -33.4010 N   0  0  0  0  0  0  0  0  0  0  0  0
   -7.5620   16.3950  -33.7840 H   0  0  0  0  0  0  0  0  0  0  0  0
   -5.6640   16.6870  -34.5040 C   0  0  0  0  0  0  0  0  0  0  0  0
   -5.8965   17.6847  -34.9046 H   0  0  0  0  0  0  0  0  0  0  0  0
   -5.7861   15.9179  -35.2809 H   0  0  0  0  0  0  0  0  0  0  0  0
   -4.1990   16.6670  -34.0250 C   0  0  0  0  0  0  0  0  0  0  0  0
   -3.7301   15.7340  -34.3709 H   0  0  0  0  0  0  0  0  0  0  0  0
   -4.2114   16.7389  -32.9274 H   0  0  0  0  0  0  0  0  0  0  0  0
   -3.3740   17.8570  -34.5550 C   0  0  0  0  0  0  0  0  0  0  0  0
   -3.3099   18.6316  -33.7766 H   0  0  0  0  0  0  0  0  0  0  0  0
   -3.8650   18.2678  -35.4495 H   0  0  0  0  0  0  0  0  0  0  0  0
   -2.0180   17.4090  -34.9100 N   0  0  0  0  0  0  0  0  0  0  0  0
   -1.9280   16.4090  -34.6140 H   0  0  0  0  0  0  0  0  0  0  0  0
   -0.9850   18.1970  -34.2230 C   0  0  0  0  0  0  0  0  0  0  0  0
   -0.0326   17.6495  -34.2798 H   0  0  0  0  0  0  0  0  0  0  0  0
   -1.3198   18.3390  -33.1849 H   0  0  0  0  0  0  0  0  0  0  0  0
   -0.7800   19.6070  -34.8370 C   0  0  2  0  0  0  0  0  0  0  0  0
   -1.8081   19.7578  -35.1981 H   0  0  0  0  0  0  0  0  0  0  0  0
    0.1560   19.7010  -35.9770 N   0  0  0  0  0  0  0  0  0  0  0  0
    1.4780   19.0710  -35.7320 C   0  0  0  0  0  0  0  0  0  0  0  0
    1.8834   18.7024  -36.6859 H   0  0  0  0  0  0  0  0  0  0  0  0
    1.3448   18.2400  -35.0237 H   0  0  0  0  0  0  0  0  0  0  0  0
    2.4660   20.0830  -35.1220 C   0  0  0  0  0  0  0  0  0  0  0  0
    1.9564   21.0510  -35.0070 H   0  0  0  0  0  0  0  0  0  0  0  0
    3.3290   20.1642  -35.7992 H   0  0  0  0  0  0  0  0  0  0  0  0
    2.9830   19.6300  -33.7500 C   0  0  0  0  0  0  0  0  0  0  0  0
    2.6074   20.3268  -32.9862 H   0  0  0  0  0  0  0  0  0  0  0  0
    4.0820   19.6263  -33.7969 H   0  0  0  0  0  0  0  0  0  0  0  0
    2.5340   18.2100  -33.3800 C   0  0  0  0  0  0  0  0  0  0  0  0
    3.4134   17.5518  -33.3221 H   0  0  0  0  0  0  0  0  0  0  0  0
    1.8420   17.8347  -34.1483 H   0  0  0  0  0  0  0  0  0  0  0  0
    1.8530   18.2300  -32.0800 N   0  0  0  0  0  0  0  0  0  0  0  0
    1.1740   17.1240  -31.6560 C   0  0  0  0  0  0  0  0  0  0  0  0
    1.0937   16.2487  -32.3174 H   0  0  0  0  0  0  0  0  0  0  0  0
    0.5800   17.0910  -30.3920 C   0  0  0  0  0  0  0  0  0  0  0  0
    0.0312   16.1951  -30.0661 H   0  0  0  0  0  0  0  0  0  0  0  0
    0.6830   18.2030  -29.5350 C   0  0  0  0  0  0  0  0  0  0  0  0
    0.1040   18.1800  -28.2040 N   0  0  0  0  0  0  0  0  0  0  0  0
    0.3830   17.0650  -27.2890 C   0  0  0  0  0  0  0  0  0  0  0  0
    0.2958   17.4133  -26.2493 H   0  0  0  0  0  0  0  0  0  0  0  0
   -0.3403   16.2554  -27.4663 H   0  0  0  0  0  0  0  0  0  0  0  0
    1.4023   16.6914  -27.4663 H   0  0  0  0  0  0  0  0  0  0  0  0
   -0.7500   19.2850  -27.7440 C   0  0  0  0  0  0  0  0  0  0  0  0
   -0.7646   19.3038  -26.6443 H   0  0  0  0  0  0  0  0  0  0  0  0
   -0.3515   20.2381  -28.1218 H   0  0  0  0  0  0  0  0  0  0  0  0
   -1.7728   19.1397  -28.1218 H   0  0  0  0  0  0  0  0  0  0  0  0
    1.3820   19.3310  -30.0010 C   0  0  0  0  0  0  0  0  0  0  0  0
    1.4663   20.2246  -29.3651 H   0  0  0  0  0  0  0  0  0  0  0  0
    1.9690   19.3210  -31.2670 C   0  0  0  0  0  0  0  0  0  0  0  0
    2.5309   20.2009  -31.6135 H   0  0  0  0  0  0  0  0  0  0  0  0
    0.3130   21.1630  -36.1440 C   0  0  0  0  0  0  0  0  0  0  0  0
    1.3318   21.3902  -36.4910 H   0  0  0  0  0  0  0  0  0  0  0  0
   -0.4055   21.5382  -36.8876 H   0  0  0  0  0  0  0  0  0  0  0  0
    0.0660   21.8340  -34.7860 C   0  0  0  0  0  0  0  0  0  0  0  0
    0.9983   22.2695  -34.3972 H   0  0  0  0  0  0  0  0  0  0  0  0
   -0.6633   22.6539  -34.8627 H   0  0  0  0  0  0  0  0  0  0  0  0
   -0.4240   20.7300  -33.8720 C   0  0  0  0  0  0  0  0  0  0  0  0
    0.3671   20.4150  -33.1757 H   0  0  0  0  0  0  0  0  0  0  0  0
   -1.2700   21.0385  -33.2402 H   0  0  0  0  0  0  0  0  0  0  0  0
   -1.7660   23.2550  -29.3570 C   0  0  0  0  0  0  0  0  0  0  0  0
   -0.5740   22.5860  -28.9980 C   0  0  0  0  0  0  0  0  0  0  0  0
   -0.4334   21.5325  -29.2816 H   0  0  0  0  0  0  0  0  0  0  0  0
    0.4260   23.2500  -28.2870 C   0  0  0  0  0  0  0  0  0  0  0  0
    1.3549   22.7219  -28.0257 H   0  0  0  0  0  0  0  0  0  0  0  0
    0.2530   24.5810  -27.9060 C   0  0  0  0  0  0  0  0  0  0  0  0
    1.4990   25.3900  -26.9700 Cl  0  0  0  0  0  0  0  0  0  0  0  0
   -0.9100   25.2660  -28.2640 C   0  0  0  0  0  0  0  0  0  0  0  0
   -1.0397   26.3181  -27.9702 H   0  0  0  0  0  0  0  0  0  0  0  0
   -1.9140   24.6150  -28.9980 C   0  0  0  0  0  0  0  0  0  0  0  0
   -3.0360   25.2970  -29.3480 N   0  0  0  0  0  0  0  0  0  0  0  0
   -4.0230   24.7290  -30.0850 C   0  0  0  0  0  0  0  0  0  0  0  0
   -5.1170   25.5190  -30.4720 C   0  0  0  0  0  0  0  0  0  0  0  0
   -5.2031   26.5526  -30.1055 H   0  0  0  0  0  0  0  0  0  0  0  0
  1  2  1  0
  2  3  2  0
  3  4  1  0
  3  5  1  0
  5  6  1  0
  5  7  2  0
  7  8  1  0
  8  9  2  0
  9 10  1  0
 10 11  1  0
 10 12  1  0
 10 13  1  0
 13 14  1  0
 13 15  1  0
 13 16  1  0
 16 17  1  0
 16 18  1  0
 16 19  1  0
 19 20  1  0
 19 21  1  0
 21 22  1  0
 21 23  1  0
 21 24  1  0
 24 25  1  0
 24 26  1  0
 24 27  1  0
 27 28  1  0
 27 29  1  0
 27 30  1  0
 30 31  1  0
 30 32  1  0
 30 33  1  0
 33 34  1  0
 33 35  1  0
 35 36  1  0
 35 37  1  0
 35 38  1  0
 38 39  1  0
 38 40  1  0
 38 41  1  0
 41 42  1  0
 41 43  1  0
 41 44  1  0
 44 45  1  0
 44 46  1  0
 46 47  1  0
 46 48  1  0
 46 49  1  0
 49 50  1  6
 49 51  1  0
 51 52  1  0
 52 53  1  0
 52 54  1  0
 52 55  1  0
 55 56  1  0
 55 57  1  0
 55 58  1  0
 58 59  1  0
 58 60  1  0
 58 61  1  0
 61 62  1  0
 61 63  1  0
 61 64  1  0
 64 65  2  0
 65 66  1  0
 65 67  1  0
 67 68  1  0
 67 69  2  0
 69 70  1  0
 70 71  1  0
 71 72  1  0
 71 73  1  0
 71 74  1  0
 70 75  1  0
 75 76  1  0
 75 77  1  0
 75 78  1  0
 69 79  1  0
 79 80  1  0
 79 81  2  0
 81 82  1  0
 51 83  1  0
 83 84  1  0
 83 85  1  0
 83 86  1  0
 86 87  1  0
 86 88  1  0
 86 89  1  0
 89 90  1  0
 89 91  1  0
  8 92  1  0
 92 93  2  0
 93 94  1  0
 93 95  1  0
 95 96  1  0
 95 97  2  0
 97 98  1  0
 97 99  1  0
 99100  1  0
 99101  2  0
101102  1  0
102103  1  0
103104  2  0
104105  1  0
104  2  1  0
103  7  1  0
 89 49  1  0
101 92  1  0
 81 64  1  0
M  CHG  2  64   1 102  -1
M  END
>  <UniqueID>  (22) 
22

>  <SMILES>  (22) 
CN(C)c1cc[n+](CCCCN2CCC[C@@H]2CNCCCNCCCCNCCC/N=c2\c3ccccc3[n-]c3cc(Cl)ccc23)cc1

>  <Energy>  (22) 
131.43649171886585

>  <Genealogy>  (22) 
CN(C)c1cc[n+](CCCCN2CCCC2CNCCCNCCCCNCCCN=c2c3ccccc3[n-]c3cc(Cl)ccc23)cc1 (protonated)
CN(C)c1cc[n+](CCCCN2CCC[C@@H]2CNCCCNCCCCNCCCN=c2c3ccccc3[n-]c3cc(Cl)ccc23)cc1 (chirality)
CN(C)c1cc[n+](CCCCN2CCC[C@@H]2CNCCCNCCCCNCCC/N=c2\c3ccccc3[n-]c3cc(Cl)ccc23)cc1 (cis-trans isomerization)
CN(C)c1cc[n+](CCCCN2CCC[C@@H]2CNCCCNCCCCNCCC/N=c2\c3ccccc3[n-]c3cc(Cl)ccc23)cc1 (3D coordinates assigned)
CN(C)c1cc[n+](CCCCN2CCC[C@@H]2CNCCCNCCCCNCCC/N=c2\c3ccccc3[n-]c3cc(Cl)ccc23)cc1 (nonaromatic ring conformer: 131.43649171886585 kcal/mol)

>  <smiles>  (22) 
CN(C)c1cc[n+](CCCCN2CCCC2CNCCCNCCCCNCCCN=c2c3ccccc3[nH]c3cc(Cl)ccc23)cc1

>  <score_type>  (22) 
oracle

>  <origin>  (22) 
adg

>  <m_score__min__energy>  (22) 
-9.1799999999999997

>  <m_primary>  (22) 
energy

$$$$
22:0
     RDKit          3D

 52 52  0  0  0  0  0  0  0  0999 V2000
   -8.6980   22.2330  -31.6000 C   0  0  0  0  0  0  0  0  0  0  0  0
   -7.6250   22.3880  -30.5240 C   0  0  0  0  0  0  0  0  0  0  0  0
   -6.4990   23.2010  -31.0330 N   0  0  0  0  0  0  0  0  0  0  0  0
   -6.8480   23.7890  -32.3390 C   0  0  0  0  0  0  0  0  0  0  0  0
   -6.1140   24.2610  -30.0710 C   0  0  0  0  0  0  0  0  0  0  0  0
   -5.2850   25.3370  -30.7750 C   0  0  0  0  0  0  0  0  0  0  0  0
   -3.9080   25.0220  -30.6860 O   0  0  0  0  0  0  0  0  0  0  0  0
   -3.7240   23.7490  -30.1010 C   0  0  0  0  0  0  0  0  0  0  0  0
   -2.2330   23.4170  -30.0630 C   0  0  0  0  0  0  0  0  0  0  0  0
   -1.9550   22.1480  -30.7570 N   0  0  0  0  0  0  0  0  0  0  0  0
   -0.5570   21.7270  -30.9550 C   0  0  0  0  0  0  0  0  0  0  0  0
   -0.4110   20.8730  -32.2220 C   0  0  0  0  0  0  0  0  0  0  0  0
   -0.7690   21.6290  -33.3640 O   0  0  0  0  0  0  0  0  0  0  0  0
   -0.0340   21.1990  -34.4880 C   0  0  0  0  0  0  0  0  0  0  0  0
   -3.0650   21.3210  -31.1840 C   0  0  0  0  0  0  0  0  0  0  0  0
   -3.7500   20.7140  -30.3170 O   0  0  0  0  0  0  0  0  0  0  0  0
   -3.4050   21.1860  -32.5770 N   0  0  0  0  0  0  0  0  0  0  0  0
   -4.4490   20.3190  -33.0500 C   0  0  0  0  0  0  0  0  0  0  0  0
   -5.8000   20.6860  -32.9120 C   0  0  0  0  0  0  0  0  0  0  0  0
   -6.8140   19.8290  -33.3450 C   0  0  0  0  0  0  0  0  0  0  0  0
   -6.4930   18.5930  -33.9100 C   0  0  0  0  0  0  0  0  0  0  0  0
   -5.1560   18.2100  -34.0390 C   0  0  0  0  0  0  0  0  0  0  0  0
   -4.1330   19.0630  -33.6070 C   0  0  0  0  0  0  0  0  0  0  0  0
   -2.3150   18.4980  -33.8330 Br  0  0  0  0  0  0  0  0  0  0  0  0
   -9.6786   22.0913  -31.1222 H   0  0  0  0  0  0  0  0  0  0  0  0
   -8.7225   23.1369  -32.2263 H   0  0  0  0  0  0  0  0  0  0  0  0
   -8.4656   21.3591  -32.2263 H   0  0  0  0  0  0  0  0  0  0  0  0
   -8.0621   22.8841  -29.6449 H   0  0  0  0  0  0  0  0  0  0  0  0
   -7.2498   21.3916  -30.2477 H   0  0  0  0  0  0  0  0  0  0  0  0
   -7.4038   24.7253  -32.1828 H   0  0  0  0  0  0  0  0  0  0  0  0
   -5.9280   23.9986  -32.9044 H   0  0  0  0  0  0  0  0  0  0  0  0
   -7.4727   23.0818  -32.9044 H   0  0  0  0  0  0  0  0  0  0  0  0
   -7.0222   24.7184  -29.6515 H   0  0  0  0  0  0  0  0  0  0  0  0
   -5.5126   23.8139  -29.2657 H   0  0  0  0  0  0  0  0  0  0  0  0
   -5.5792   25.3891  -31.8337 H   0  0  0  0  0  0  0  0  0  0  0  0
   -5.4657   26.3075  -30.2897 H   0  0  0  0  0  0  0  0  0  0  0  0
   -4.1246   23.7548  -29.0766 H   0  0  0  0  0  0  0  0  0  0  0  0
   -4.2534   22.9913  -30.6973 H   0  0  0  0  0  0  0  0  0  0  0  0
   -1.6721   24.2257  -30.5544 H   0  0  0  0  0  0  0  0  0  0  0  0
   -1.9241   23.3157  -29.0121 H   0  0  0  0  0  0  0  0  0  0  0  0
    0.0774   22.6207  -31.0491 H   0  0  0  0  0  0  0  0  0  0  0  0
   -0.2482   21.1229  -30.0891 H   0  0  0  0  0  0  0  0  0  0  0  0
    0.6333   20.5412  -32.3184 H   0  0  0  0  0  0  0  0  0  0  0  0
   -1.0763   20.0003  -32.1457 H   0  0  0  0  0  0  0  0  0  0  0  0
    0.8706   20.6698  -34.1540 H   0  0  0  0  0  0  0  0  0  0  0  0
   -0.6532   20.5207  -35.0934 H   0  0  0  0  0  0  0  0  0  0  0  0
    0.2539   22.0711  -35.0934 H   0  0  0  0  0  0  0  0  0  0  0  0
   -2.9200   21.7740  -33.2880 H   0  0  0  0  0  0  0  0  0  0  0  0
   -6.0595   21.6547  -32.4599 H   0  0  0  0  0  0  0  0  0  0  0  0
   -7.8674   20.1281  -33.2408 H   0  0  0  0  0  0  0  0  0  0  0  0
   -7.2932   17.9209  -34.2535 H   0  0  0  0  0  0  0  0  0  0  0  0
   -4.9057   17.2346  -34.4816 H   0  0  0  0  0  0  0  0  0  0  0  0
  1  2  1  0
  2  3  1  0
  3  4  1  0
  3  5  1  0
  5  6  1  0
  6  7  1  0
  7  8  1  0
  8  9  1  0
  9 10  1  0
 10 11  1  0
 11 12  1  0
 12 13  1  0
 13 14  1  0
 10 15  1  0
 15 16  2  0
 15 17  1  0
 17 18  1  0
 18 19  2  0
 19 20  1  0
 20 21  2  0
 21 22  1  0
 22 23  2  0
 23 24  1  0
 23 18  1  0
  1 25  1  0
  1 26  1  0
  1 27  1  0
  2 28  1  0
  2 29  1  0
  4 30  1  0
  4 31  1  0
  4 32  1  0
  5 33  1  0
  5 34  1  0
  6 35  1  0
  6 36  1  0
  8 37  1  0
  8 38  1  0
  9 39  1  0
  9 40  1  0
 11 41  1  0
 11 42  1  0
 12 43  1  0
 12 44  1  0
 14 45  1  0
 14 46  1  0
 14 47  1  0
 17 48  1  0
 19 49  1  0
 20 50  1  0
 21 51  1  0
 22 52  1  0
M  END
>  <UniqueID>  (23) 
23

>  <SMILES>  (23) 
CCN(C)CCOCCN(CCOC)C(=O)Nc1ccccc1Br

>  <Energy>  (23) 
51.14831985636805

>  <Genealogy>  (23) 
CCN(C)CCOCCN(CCOC)C(=O)Nc1ccccc1Br (3D coordinates assigned)
CCN(C)CCOCCN(CCOC)C(=O)Nc1ccccc1Br (optimized conformer: 51.14831985636805 kcal/mol)

>  <smiles>  (23) 
CCN(C)CCOCCN(CCOC)C(=O)Nc1ccccc1Br

>  <score_type>  (23) 
oracle

>  <origin>  (23) 
adg

>  <m_score__min__energy>  (23) 
-7.3499999999999996

>  <m_primary>  (23) 
energy

$$$$
23:0
     RDKit          3D

 35 36  0  0  0  0  0  0  0  0999 V2000
   -5.9640   16.9610  -33.1650 C   0  0  0  0  0  0  0  0  0  0  0  0
   -6.2810   18.2740  -32.5830 N   0  0  0  0  0  0  0  0  0  0  0  0
   -7.3820   18.1770  -31.5930 C   0  0  0  0  0  0  0  0  0  0  0  0
   -8.7430   18.5820  -32.1850 C   0  0  0  0  0  0  0  0  0  0  0  0
   -8.7360   19.9610  -32.7410 N   0  0  0  0  0  0  0  0  0  0  0  0
   -9.3740   20.9330  -31.8300 C   0  0  0  0  0  0  0  0  0  0  0  0
   -8.5140   22.1520  -31.6880 C   0  0  0  0  0  0  0  0  0  0  0  0
   -8.7980   23.1950  -32.3370 O   0  0  0  0  0  0  0  0  0  0  0  0
   -7.3890   22.1330  -30.7970 N   0  0  0  0  0  0  0  0  0  0  0  0
   -6.4650   23.2250  -30.6940 C   0  0  0  0  0  0  0  0  0  0  0  0
   -6.8620   24.4020  -30.0490 C   0  0  0  0  0  0  0  0  0  0  0  0
   -5.9760   25.4740  -29.9380 C   0  0  0  0  0  0  0  0  0  0  0  0
   -4.6880   25.3520  -30.4610 C   0  0  0  0  0  0  0  0  0  0  0  0
   -4.3030   24.1920  -31.0560 N   0  0  0  0  0  0  0  0  0  0  0  0
   -5.1470   23.1330  -31.1840 C   0  0  0  0  0  0  0  0  0  0  0  0
   -4.5230   21.6470  -31.8880 Cl  0  0  0  0  0  0  0  0  0  0  0  0
   -7.3900   20.4290  -33.1410 C   0  0  0  0  0  0  0  0  0  0  0  0
   -6.5320   19.2670  -33.6540 C   0  0  0  0  0  0  0  0  0  0  0  0
   -5.7887   16.2347  -32.3577 H   0  0  0  0  0  0  0  0  0  0  0  0
   -6.8062   16.6223  -33.7863 H   0  0  0  0  0  0  0  0  0  0  0  0
   -5.0601   17.0439  -33.7863 H   0  0  0  0  0  0  0  0  0  0  0  0
   -7.4468   17.1379  -31.2379 H   0  0  0  0  0  0  0  0  0  0  0  0
   -7.1548   18.8716  -30.7708 H   0  0  0  0  0  0  0  0  0  0  0  0
   -9.0004   17.8785  -32.9905 H   0  0  0  0  0  0  0  0  0  0  0  0
   -9.4824   18.5542  -31.3711 H   0  0  0  0  0  0  0  0  0  0  0  0
  -10.3530   21.2247  -32.2380 H   0  0  0  0  0  0  0  0  0  0  0  0
   -9.5022   20.4675  -30.8416 H   0  0  0  0  0  0  0  0  0  0  0  0
   -7.3390   21.3740  -30.0800 H   0  0  0  0  0  0  0  0  0  0  0  0
   -7.8753   24.4820  -29.6285 H   0  0  0  0  0  0  0  0  0  0  0  0
   -6.2893   26.4053  -29.4436 H   0  0  0  0  0  0  0  0  0  0  0  0
   -3.9842   26.1946  -30.3918 H   0  0  0  0  0  0  0  0  0  0  0  0
   -7.4928   21.1793  -33.9388 H   0  0  0  0  0  0  0  0  0  0  0  0
   -6.8961   20.8662  -32.2607 H   0  0  0  0  0  0  0  0  0  0  0  0
   -7.0563   18.7734  -34.4855 H   0  0  0  0  0  0  0  0  0  0  0  0
   -5.5650   19.6693  -33.9902 H   0  0  0  0  0  0  0  0  0  0  0  0
  1  2  1  0
  2  3  1  0
  3  4  1  0
  4  5  1  0
  5  6  1  0
  6  7  1  0
  7  8  2  0
  7  9  1  0
  9 10  1  0
 10 11  2  0
 11 12  1  0
 12 13  2  0
 13 14  1  0
 14 15  2  0
 15 16  1  0
  5 17  1  0
 17 18  1  0
 18  2  1  0
 15 10  1  0
  1 19  1  0
  1 20  1  0
  1 21  1  0
  3 22  1  0
  3 23  1  0
  4 24  1  0
  4 25  1  0
  6 26  1  0
  6 27  1  0
  9 28  1  0
 11 29  1  0
 12 30  1  0
 13 31  1  0
 17 32  1  0
 17 33  1  0
 18 34  1  0
 18 35  1  0
M  END
>  <UniqueID>  (24) 
24

>  <SMILES>  (24) 
CN1CCN(CC(=O)Nc2cccnc2Cl)CC1

>  <Energy>  (24) 
51.404703602716495

>  <Genealogy>  (24) 
CN1CCN(CC(=O)Nc2cccnc2Cl)CC1 (3D coordinates assigned)
CN1CCN(CC(=O)Nc2cccnc2Cl)CC1 (nonaromatic ring conformer: 51.404703602716495 kcal/mol)

>  <smiles>  (24) 
CN1CCN(CC(=O)Nc2cccnc2Cl)CC1

>  <score_type>  (24) 
oracle

>  <origin>  (24) 
adg

>  <m_score__min__energy>  (24) 
-7.4000000000000004

>  <m_primary>  (24) 
energy

$$$$
24:0
     RDKit          3D

 46 48  0  0  0  0  0  0  0  0999 V2000
   -9.3870   21.8180  -30.4170 C   0  0  0  0  0  0  0  0  0  0  0  0
   -8.0420   21.6020  -30.9940 N   0  0  0  0  0  0  0  0  0  0  0  0
   -7.7630   20.4300  -31.6730 C   0  0  0  0  0  0  0  0  0  0  0  0
   -8.6210   19.3020  -31.6000 C   0  0  0  0  0  0  0  0  0  0  0  0
   -8.3700   18.1570  -32.3550 C   0  0  0  0  0  0  0  0  0  0  0  0
   -7.2630   18.1000  -33.1920 C   0  0  0  0  0  0  0  0  0  0  0  0
   -6.3760   19.1720  -33.2490 C   0  0  0  0  0  0  0  0  0  0  0  0
   -6.5870   20.3260  -32.4640 C   0  0  0  0  0  0  0  0  0  0  0  0
   -5.6560   21.3800  -32.4660 C   0  0  0  0  0  0  0  0  0  0  0  0
   -4.4410   21.2730  -33.2310 N   0  0  0  0  0  0  0  0  0  0  0  0
   -3.3050   20.4880  -32.7450 C   0  0  0  0  0  0  0  0  0  0  0  0
   -2.4400   20.0140  -33.9240 C   0  0  0  0  0  0  0  0  0  0  0  0
   -1.2710   20.8930  -34.1620 N   0  0  0  0  0  0  0  0  0  0  0  0
   -0.6620   21.2730  -32.8740 C   0  0  0  0  0  0  0  0  0  0  0  0
   -0.2580   20.2370  -35.0110 C   0  0  0  0  0  0  0  0  0  0  0  0
   -5.8900   22.5130  -31.6660 C   0  0  0  0  0  0  0  0  0  0  0  0
   -4.9510   23.5630  -31.6030 C   0  0  0  0  0  0  0  0  0  0  0  0
   -5.1480   24.6490  -30.7570 C   0  0  0  0  0  0  0  0  0  0  0  0
   -6.2760   24.7090  -29.9410 C   0  0  0  0  0  0  0  0  0  0  0  0
   -6.4540   25.8080  -29.0430 N   0  0  0  0  0  0  0  0  0  0  0  0
   -7.2280   23.6860  -30.0010 C   0  0  0  0  0  0  0  0  0  0  0  0
   -7.0780   22.5900  -30.8900 C   0  0  0  0  0  0  0  0  0  0  0  0
   -9.3210   21.8074  -29.3190 H   0  0  0  0  0  0  0  0  0  0  0  0
   -9.7776   22.7904  -30.7515 H   0  0  0  0  0  0  0  0  0  0  0  0
  -10.0625   21.0168  -30.7515 H   0  0  0  0  0  0  0  0  0  0  0  0
   -9.4983   19.3315  -30.9370 H   0  0  0  0  0  0  0  0  0  0  0  0
   -9.0510   17.2958  -32.2875 H   0  0  0  0  0  0  0  0  0  0  0  0
   -7.0868   17.2074  -33.8103 H   0  0  0  0  0  0  0  0  0  0  0  0
   -5.5009   19.1189  -33.9134 H   0  0  0  0  0  0  0  0  0  0  0  0
   -4.2710   21.9620  -33.9970 H   0  0  0  0  0  0  0  0  0  0  0  0
   -2.6944   21.1103  -32.0742 H   0  0  0  0  0  0  0  0  0  0  0  0
   -3.6836   19.6088  -32.2031 H   0  0  0  0  0  0  0  0  0  0  0  0
   -2.0787   18.9974  -33.7096 H   0  0  0  0  0  0  0  0  0  0  0  0
   -3.0659   20.0396  -34.8282 H   0  0  0  0  0  0  0  0  0  0  0  0
   -1.5870   21.7730  -34.6360 H   0  0  0  0  0  0  0  0  0  0  0  0
   -1.2791   20.8879  -32.0488 H   0  0  0  0  0  0  0  0  0  0  0  0
    0.3492   20.8453  -32.8062 H   0  0  0  0  0  0  0  0  0  0  0  0
   -0.6017   22.3693  -32.8062 H   0  0  0  0  0  0  0  0  0  0  0  0
    0.4946   19.7496  -34.3737 H   0  0  0  0  0  0  0  0  0  0  0  0
   -0.7449   19.4823  -35.6461 H   0  0  0  0  0  0  0  0  0  0  0  0
    0.2315   20.9900  -35.6461 H   0  0  0  0  0  0  0  0  0  0  0  0
   -4.0496   23.5225  -32.2321 H   0  0  0  0  0  0  0  0  0  0  0  0
   -4.4101   25.4644  -30.7318 H   0  0  0  0  0  0  0  0  0  0  0  0
   -5.7430   26.0170  -28.3070 H   0  0  0  0  0  0  0  0  0  0  0  0
   -7.2970   26.4220  -29.1060 H   0  0  0  0  0  0  0  0  0  0  0  0
   -8.1106   23.7319  -29.3460 H   0  0  0  0  0  0  0  0  0  0  0  0
  1  2  1  0
  2  3  2  0
  3  4  1  0
  4  5  2  0
  5  6  1  0
  6  7  2  0
  7  8  1  0
  8  9  2  0
  9 10  1  0
 10 11  1  0
 11 12  1  0
 12 13  1  0
 13 14  1  0
 13 15  1  0
  9 16  1  0
 16 17  2  0
 17 18  1  0
 18 19  2  0
 19 20  1  0
 19 21  1  0
 21 22  2  0
 22  2  1  0
  8  3  1  0
 22 16  1  0
  1 23  1  0
  1 24  1  0
  1 25  1  0
  4 26  1  0
  5 27  1  0
  6 28  1  0
  7 29  1  0
 10 30  1  0
 11 31  1  0
 11 32  1  0
 12 33  1  0
 12 34  1  0
 13 35  1  0
 14 36  1  0
 14 37  1  0
 14 38  1  0
 15 39  1  0
 15 40  1  0
 15 41  1  0
 17 42  1  0
 18 43  1  0
 20 44  1  0
 20 45  1  0
 21 46  1  0
M  CHG  2   2   1  13   1
M  END
>  <UniqueID>  (25) 
25

>  <SMILES>  (25) 
C[n+]1c2ccccc2c(NCC[NH+](C)C)c2ccc(N)cc21

>  <Energy>  (25) 
72.1703214228434

>  <Genealogy>  (25) 
C[n+]1c2ccccc2c(NCC[NH+](C)C)c2ccc(N)cc21 (protonated)
C[n+]1c2ccccc2c(NCC[NH+](C)C)c2ccc(N)cc21 (3D coordinates assigned)
C[n+]1c2ccccc2c(NCC[NH+](C)C)c2ccc(N)cc21 (optimized conformer: 72.1703214228434 kcal/mol)

>  <smiles>  (25) 
CN(C)CCNc1c2ccccc2[n+](C)c2cc(N)ccc12

>  <score_type>  (25) 
oracle

>  <origin>  (25) 
adg

>  <m_score__min__energy>  (25) 
-7.04

>  <m_primary>  (25) 
energy

$$$$
25:0
     RDKit          3D

 51 50  0  0  0  0  0  0  0  0999 V2000
   -9.8777   21.7414  -30.0318 H   0  0  0  0  0  0  0  0  0  0  0  0
   -9.1080   21.6650  -30.8140 C   0  0  0  0  0  0  0  0  0  0  0  0
   -9.4660   21.2980  -32.0530 C   0  0  0  0  0  0  0  0  0  0  0  0
   -9.8695   22.0568  -32.7395 H   0  0  0  0  0  0  0  0  0  0  0  0
   -9.3310   19.8740  -32.5320 C   0  0  0  0  0  0  0  0  0  0  0  0
   -9.6323   19.1994  -31.7170 H   0  0  0  0  0  0  0  0  0  0  0  0
   -9.9752   19.7606  -33.4164 H   0  0  0  0  0  0  0  0  0  0  0  0
   -7.9550   19.5340  -32.9400 N   0  0  0  0  0  0  0  0  0  0  0  0
   -7.3120   20.2920  -32.6110 H   0  0  0  0  0  0  0  0  0  0  0  0
   -7.9060   19.5190  -33.9860 H   0  0  0  0  0  0  0  0  0  0  0  0
   -7.4690   18.2350  -32.4350 C   0  0  0  0  0  0  0  0  0  0  0  0
   -6.7966   18.4191  -31.5841 H   0  0  0  0  0  0  0  0  0  0  0  0
   -8.3503   17.6455  -32.1421 H   0  0  0  0  0  0  0  0  0  0  0  0
   -6.7060   17.4250  -33.4960 C   0  0  0  0  0  0  0  0  0  0  0  0
   -6.1058   16.6496  -32.9975 H   0  0  0  0  0  0  0  0  0  0  0  0
   -7.4316   16.9603  -34.1798 H   0  0  0  0  0  0  0  0  0  0  0  0
   -5.7760   18.3430  -34.3050 C   0  0  0  0  0  0  0  0  0  0  0  0
   -5.2346   17.7330  -35.0431 H   0  0  0  0  0  0  0  0  0  0  0  0
   -6.4023   19.1068  -34.7890 H   0  0  0  0  0  0  0  0  0  0  0  0
   -4.7490   19.0750  -33.4230 C   0  0  0  0  0  0  0  0  0  0  0  0
   -4.6029   18.4957  -32.4994 H   0  0  0  0  0  0  0  0  0  0  0  0
   -3.8179   19.1621  -34.0022 H   0  0  0  0  0  0  0  0  0  0  0  0
   -5.1760   20.4420  -33.0600 N   0  0  0  0  0  0  0  0  0  0  0  0
   -5.4340   20.5300  -32.0510 H   0  0  0  0  0  0  0  0  0  0  0  0
   -4.2060   21.4860  -33.4300 C   0  0  0  0  0  0  0  0  0  0  0  0
   -3.4084   21.0242  -34.0305 H   0  0  0  0  0  0  0  0  0  0  0  0
   -4.7553   22.2561  -33.9914 H   0  0  0  0  0  0  0  0  0  0  0  0
   -3.5620   22.1810  -32.2130 C   0  0  0  0  0  0  0  0  0  0  0  0
   -2.4763   22.2465  -32.3775 H   0  0  0  0  0  0  0  0  0  0  0  0
   -4.0167   23.1780  -32.1174 H   0  0  0  0  0  0  0  0  0  0  0  0
   -3.8080   21.4500  -30.9480 N   0  0  0  0  0  0  0  0  0  0  0  0
   -2.7280   20.4770  -30.7120 C   0  0  0  0  0  0  0  0  0  0  0  0
   -2.5826   20.3460  -29.6296 H   0  0  0  0  0  0  0  0  0  0  0  0
   -2.9985   19.5118  -31.1651 H   0  0  0  0  0  0  0  0  0  0  0  0
   -1.7962   20.8464  -31.1651 H   0  0  0  0  0  0  0  0  0  0  0  0
   -3.8900   22.3720  -29.8030 C   0  0  0  0  0  0  0  0  0  0  0  0
   -3.8390   21.7983  -28.8659 H   0  0  0  0  0  0  0  0  0  0  0  0
   -3.0515   23.0828  -29.8439 H   0  0  0  0  0  0  0  0  0  0  0  0
   -4.8408   22.9237  -29.8439 H   0  0  0  0  0  0  0  0  0  0  0  0
   -7.6740   21.9750  -30.4700 C   0  0  0  0  0  0  0  0  0  0  0  0
   -7.2663   21.1444  -29.8751 H   0  0  0  0  0  0  0  0  0  0  0  0
   -7.6619   22.9197  -29.9066 H   0  0  0  0  0  0  0  0  0  0  0  0
   -6.8350   22.1560  -31.6650 N   0  0  0  0  0  0  0  0  0  0  0  0
   -5.8650   21.7930  -31.5060 H   0  0  0  0  0  0  0  0  0  0  0  0
   -6.8130   23.5420  -32.1680 C   0  0  0  0  0  0  0  0  0  0  0  0
   -7.8473   23.8644  -32.3583 H   0  0  0  0  0  0  0  0  0  0  0  0
   -6.2093   23.5537  -33.0875 H   0  0  0  0  0  0  0  0  0  0  0  0
   -6.1700   24.5160  -31.1780 C   0  0  0  0  0  0  0  0  0  0  0  0
   -6.3856   24.1895  -30.1499 H   0  0  0  0  0  0  0  0  0  0  0  0
   -5.0816   24.5345  -31.3363 H   0  0  0  0  0  0  0  0  0  0  0  0
   -6.5807   25.5241  -31.3363 H   0  0  0  0  0  0  0  0  0  0  0  0
  1  2  1  0
  2  3  2  0
  3  4  1  0
  3  5  1  0
  5  6  1  0
  5  7  1  0
  5  8  1  0
  8  9  1  0
  8 10  1  0
  8 11  1  0
 11 12  1  0
 11 13  1  0
 11 14  1  0
 14 15  1  0
 14 16  1  0
 14 17  1  0
 17 18  1  0
 17 19  1  0
 17 20  1  0
 20 21  1  0
 20 22  1  0
 20 23  1  0
 23 24  1  0
 23 25  1  0
 25 26  1  0
 25 27  1  0
 25 28  1  0
 28 29  1  0
 28 30  1  0
 28 31  1  0
 31 32  1  0
 32 33  1  0
 32 34  1  0
 32 35  1  0
 31 36  1  0
 36 37  1  0
 36 38  1  0
 36 39  1  0
  2 40  1  0
 40 41  1  0
 40 42  1  0
 40 43  1  0
 43 44  1  0
 43 45  1  0
 45 46  1  0
 45 47  1  0
 45 48  1  0
 48 49  1  0
 48 50  1  0
 48 51  1  0
M  CHG  1   8   1
M  END
>  <UniqueID>  (26) 
26

>  <SMILES>  (26) 
CCNC/C=C/C[NH2+]CCCCNCCN(C)C

>  <Energy>  (26) 
37.65339689887389

>  <Genealogy>  (26) 
CCNCC=CC[NH2+]CCCCNCCN(C)C (protonated)
CCNC/C=C/C[NH2+]CCCCNCCN(C)C (cis-trans isomerization)
CCNC/C=C/C[NH2+]CCCCNCCN(C)C (3D coordinates assigned)
CCNC/C=C/C[NH2+]CCCCNCCN(C)C (optimized conformer: 37.65339689887389 kcal/mol)

>  <smiles>  (26) 
CCNCC=CCNCCCCNCCN(C)C

>  <score_type>  (26) 
oracle

>  <origin>  (26) 
adg

>  <m_score__min__energy>  (26) 
-5.25

>  <m_primary>  (26) 
energy

$$$$
26:0
     RDKit          3D

 43 45  0  0  0  0  0  0  0  0999 V2000
   -5.7470   18.4750  -34.9620 C   0  0  0  0  0  0  0  0  0  0  0  0
   -4.7920   17.8800  -34.0090 N   0  0  0  0  0  0  0  0  0  0  0  0
   -3.4450   17.7960  -34.5990 C   0  0  0  0  0  0  0  0  0  0  0  0
   -5.2600   16.5800  -33.4670 C   0  0  0  0  0  0  0  0  0  0  0  0
   -6.0380   16.6810  -32.1390 C   0  0  0  0  0  0  0  0  0  0  0  0
   -6.0480   18.0620  -31.6520 N   0  0  0  0  0  0  0  0  0  0  0  0
   -7.1280   18.9740  -31.9310 C   0  0  0  0  0  0  0  0  0  0  0  0
   -8.4020   18.4680  -32.2450 C   0  0  0  0  0  0  0  0  0  0  0  0
   -9.4860   19.3270  -32.4170 C   0  0  0  0  0  0  0  0  0  0  0  0
   -9.3220   20.7010  -32.2630 C   0  0  0  0  0  0  0  0  0  0  0  0
   -8.0610   21.2380  -31.9590 C   0  0  0  0  0  0  0  0  0  0  0  0
   -6.9460   20.3790  -31.8220 C   0  0  0  0  0  0  0  0  0  0  0  0
   -5.6050   20.9940  -31.6430 C   0  0  0  0  0  0  0  0  0  0  0  0
   -4.5780   20.3810  -32.0420 O   0  0  0  0  0  0  0  0  0  0  0  0
   -5.4880   22.3910  -31.1500 C   0  0  0  0  0  0  0  0  0  0  0  0
   -4.2820   22.9120  -30.6060 C   0  0  0  0  0  0  0  0  0  0  0  0
   -3.1610   22.0720  -30.3000 N   0  0  0  0  0  0  0  0  0  0  0  0
   -4.1940   24.2770  -30.3010 C   0  0  0  0  0  0  0  0  0  0  0  0
   -5.2900   25.1180  -30.4840 C   0  0  0  0  0  0  0  0  0  0  0  0
   -6.4940   24.6050  -30.9610 C   0  0  0  0  0  0  0  0  0  0  0  0
   -6.6070   23.2440  -31.2900 C   0  0  0  0  0  0  0  0  0  0  0  0
   -7.8950   22.6990  -31.7780 C   0  0  0  0  0  0  0  0  0  0  0  0
   -8.8600   23.4780  -32.0170 O   0  0  0  0  0  0  0  0  0  0  0  0
   -6.5534   18.9774  -34.4076 H   0  0  0  0  0  0  0  0  0  0  0  0
   -5.2251   19.2080  -35.5947 H   0  0  0  0  0  0  0  0  0  0  0  0
   -6.1750   17.6834  -35.5947 H   0  0  0  0  0  0  0  0  0  0  0  0
   -4.7270   18.5370  -33.1940 H   0  0  0  0  0  0  0  0  0  0  0  0
   -2.6951   17.7492  -33.7956 H   0  0  0  0  0  0  0  0  0  0  0  0
   -3.3729   16.8916  -35.2210 H   0  0  0  0  0  0  0  0  0  0  0  0
   -3.2611   18.6844  -35.2210 H   0  0  0  0  0  0  0  0  0  0  0  0
   -5.9174   16.1130  -34.2152 H   0  0  0  0  0  0  0  0  0  0  0  0
   -4.3578   15.9873  -33.2556 H   0  0  0  0  0  0  0  0  0  0  0  0
   -7.0736   16.3469  -32.3002 H   0  0  0  0  0  0  0  0  0  0  0  0
   -5.5453   16.0440  -31.3897 H   0  0  0  0  0  0  0  0  0  0  0  0
   -5.2380   18.4020  -31.0870 H   0  0  0  0  0  0  0  0  0  0  0  0
   -8.5445   17.3829  -32.3560 H   0  0  0  0  0  0  0  0  0  0  0  0
  -10.4740   18.9182  -32.6752 H   0  0  0  0  0  0  0  0  0  0  0  0
  -10.1867   21.3706  -32.3804 H   0  0  0  0  0  0  0  0  0  0  0  0
   -2.5560   22.2790  -29.4740 H   0  0  0  0  0  0  0  0  0  0  0  0
   -3.0140   21.1540  -30.7740 H   0  0  0  0  0  0  0  0  0  0  0  0
   -3.2505   24.6886  -29.9133 H   0  0  0  0  0  0  0  0  0  0  0  0
   -5.2041   26.1896  -30.2512 H   0  0  0  0  0  0  0  0  0  0  0  0
   -7.3620   25.2700  -31.0808 H   0  0  0  0  0  0  0  0  0  0  0  0
  1  2  1  0
  2  3  1  0
  2  4  1  0
  4  5  1  0
  5  6  1  0
  6  7  1  0
  7  8  2  0
  8  9  1  0
  9 10  2  0
 10 11  1  0
 11 12  2  0
 12 13  1  0
 13 14  2  0
 13 15  1  0
 15 16  2  0
 16 17  1  0
 16 18  1  0
 18 19  2  0
 19 20  1  0
 20 21  2  0
 21 22  1  0
 22 23  2  0
 12  7  1  0
 21 15  1  0
 22 11  1  0
  1 24  1  0
  1 25  1  0
  1 26  1  0
  2 27  1  0
  3 28  1  0
  3 29  1  0
  3 30  1  0
  4 31  1  0
  4 32  1  0
  5 33  1  0
  5 34  1  0
  6 35  1  0
  8 36  1  0
  9 37  1  0
 10 38  1  0
 17 39  1  0
 17 40  1  0
 18 41  1  0
 19 42  1  0
 20 43  1  0
M  CHG  1   2   1
M  END
>  <UniqueID>  (27) 
27

>  <SMILES>  (27) 
C[NH+](C)CCNc1cccc2c1C(=O)c1c(N)cccc1C2=O

>  <Energy>  (27) 
61.45969468693555

>  <Genealogy>  (27) 
C[NH+](C)CCNc1cccc2c1C(=O)c1c(N)cccc1C2=O (protonated)
C[NH+](C)CCNc1cccc2c1C(=O)c1c(N)cccc1C2=O (3D coordinates assigned)
C[NH+](C)CCNc1cccc2c1C(=O)c1c(N)cccc1C2=O (nonaromatic ring conformer: 61.45969468693555 kcal/mol)

>  <smiles>  (27) 
CN(C)CCNc1cccc2c1C(=O)c1c(N)cccc1C2=O

>  <score_type>  (27) 
oracle

>  <origin>  (27) 
adg

>  <m_score__min__energy>  (27) 
-6.8499999999999996

>  <m_primary>  (27) 
energy

$$$$
27:0
     RDKit          3D

 51 53  0  0  0  0  0  0  0  0999 V2000
   -9.4450   20.6340  -31.9620 C   0  0  0  0  0  0  0  0  0  0  0  0
   -8.8270   19.2440  -31.8240 C   0  0  0  0  0  0  0  0  0  0  0  0
   -8.1930   18.8240  -33.0850 N   0  0  0  0  0  0  0  0  0  0  0  0
   -6.7950   18.4030  -32.8880 C   0  0  0  0  0  0  0  0  0  0  0  0
   -5.8410   19.5720  -32.9500 C   0  0  0  0  0  0  0  0  0  0  0  0
   -6.3090   20.8710  -32.7160 C   0  0  0  0  0  0  0  0  0  0  0  0
   -5.4190   21.9530  -32.6680 C   0  0  0  0  0  0  0  0  0  0  0  0
   -5.9160   23.3380  -32.3210 C   0  0  0  0  0  0  0  0  0  0  0  0
   -5.9250   23.6190  -30.8670 N   0  0  0  0  0  0  0  0  0  0  0  0
   -4.6920   23.2410  -30.1420 C   0  0  0  0  0  0  0  0  0  0  0  0
   -3.8260   24.4560  -29.7650 C   0  0  0  0  0  0  0  0  0  0  0  0
   -4.0810   25.5420  -30.6260 O   0  0  0  0  0  0  0  0  0  0  0  0
   -5.3840   26.0350  -30.3910 C   0  0  0  0  0  0  0  0  0  0  0  0
   -6.4700   24.9370  -30.4850 C   0  0  0  0  0  0  0  0  0  0  0  0
   -4.0540   21.7320  -32.9140 C   0  0  0  0  0  0  0  0  0  0  0  0
   -3.5710   20.4390  -33.1730 C   0  0  0  0  0  0  0  0  0  0  0  0
   -2.1620   20.2200  -33.3800 N   0  0  0  0  0  0  0  0  0  0  0  0
   -1.6040   19.1670  -34.2140 C   0  0  0  0  0  0  0  0  0  0  0  0
   -0.1000   19.4730  -34.3410 C   0  0  0  0  0  0  0  0  0  0  0  0
    0.2280   20.5660  -33.3140 C   0  0  0  0  0  0  0  0  0  0  0  0
   -1.1030   20.9900  -32.8360 C   0  0  0  0  0  0  0  0  0  0  0  0
   -1.2740   21.8970  -31.9780 O   0  0  0  0  0  0  0  0  0  0  0  0
   -4.4710   19.3610  -33.1710 C   0  0  0  0  0  0  0  0  0  0  0  0
   -9.6314   21.0533  -30.9623 H   0  0  0  0  0  0  0  0  0  0  0  0
   -8.7536   21.2897  -32.5116 H   0  0  0  0  0  0  0  0  0  0  0  0
  -10.3950   20.5600  -32.5116 H   0  0  0  0  0  0  0  0  0  0  0  0
   -8.0677   19.2647  -31.0284 H   0  0  0  0  0  0  0  0  0  0  0  0
   -9.6240   18.5278  -31.5754 H   0  0  0  0  0  0  0  0  0  0  0  0
   -8.7230   18.0100  -33.4760 H   0  0  0  0  0  0  0  0  0  0  0  0
   -8.2350   19.6050  -33.7820 H   0  0  0  0  0  0  0  0  0  0  0  0
   -6.7040   17.9215  -31.9032 H   0  0  0  0  0  0  0  0  0  0  0  0
   -6.5320   17.7050  -33.6964 H   0  0  0  0  0  0  0  0  0  0  0  0
   -7.3853   21.0440  -32.5685 H   0  0  0  0  0  0  0  0  0  0  0  0
   -5.2640   24.0746  -32.8133 H   0  0  0  0  0  0  0  0  0  0  0  0
   -6.9579   23.4025  -32.6679 H   0  0  0  0  0  0  0  0  0  0  0  0
   -4.9746   22.7112  -29.2203 H   0  0  0  0  0  0  0  0  0  0  0  0
   -4.0957   22.6042  -30.8120 H   0  0  0  0  0  0  0  0  0  0  0  0
   -4.0549   24.7545  -28.7313 H   0  0  0  0  0  0  0  0  0  0  0  0
   -2.7666   24.1749  -29.8582 H   0  0  0  0  0  0  0  0  0  0  0  0
   -5.4162   26.4750  -29.3833 H   0  0  0  0  0  0  0  0  0  0  0  0
   -5.6002   26.7803  -31.1706 H   0  0  0  0  0  0  0  0  0  0  0  0
   -6.9597   24.8432  -29.5045 H   0  0  0  0  0  0  0  0  0  0  0  0
   -7.1784   25.2406  -31.2699 H   0  0  0  0  0  0  0  0  0  0  0  0
   -3.3552   22.5815  -32.9037 H   0  0  0  0  0  0  0  0  0  0  0  0
   -1.7551   18.1854  -33.7411 H   0  0  0  0  0  0  0  0  0  0  0  0
   -2.0916   19.1346  -35.1995 H   0  0  0  0  0  0  0  0  0  0  0  0
    0.4882   18.5679  -34.1292 H   0  0  0  0  0  0  0  0  0  0  0  0
    0.1463   19.8071  -35.3597 H   0  0  0  0  0  0  0  0  0  0  0  0
    0.8335   20.1630  -32.4888 H   0  0  0  0  0  0  0  0  0  0  0  0
    0.8179   21.3925  -33.7371 H   0  0  0  0  0  0  0  0  0  0  0  0
   -4.0985   18.3406  -33.3444 H   0  0  0  0  0  0  0  0  0  0  0  0
  1  2  1  0
  2  3  1  0
  3  4  1  0
  4  5  1  0
  5  6  2  0
  6  7  1  0
  7  8  1  0
  8  9  1  0
  9 10  1  0
 10 11  1  0
 11 12  1  0
 12 13  1  0
 13 14  1  0
  7 15  2  0
 15 16  1  0
 16 17  1  0
 17 18  1  0
 18 19  1  0
 19 20  1  0
 20 21  1  0
 21 22  2  0
 16 23  2  0
 23  5  1  0
 14  9  1  0
 21 17  1  0
  1 24  1  0
  1 25  1  0
  1 26  1  0
  2 27  1  0
  2 28  1  0
  3 29  1  0
  3 30  1  0
  4 31  1  0
  4 32  1  0
  6 33  1  0
  8 34  1  0
  8 35  1  0
 10 36  1  0
 10 37  1  0
 11 38  1  0
 11 39  1  0
 13 40  1  0
 13 41  1  0
 14 42  1  0
 14 43  1  0
 15 44  1  0
 18 45  1  0
 18 46  1  0
 19 47  1  0
 19 48  1  0
 20 49  1  0
 20 50  1  0
 23 51  1  0
M  CHG  1   3   1
M  END
>  <UniqueID>  (28) 
28

>  <SMILES>  (28) 
CC[NH2+]Cc1cc(CN2CCOCC2)cc(N2CCCC2=O)c1

>  <Energy>  (28) 
70.04515794080046

>  <Genealogy>  (28) 
CC[NH2+]Cc1cc(CN2CCOCC2)cc(N2CCCC2=O)c1 (protonated)
CC[NH2+]Cc1cc(CN2CCOCC2)cc(N2CCCC2=O)c1 (3D coordinates assigned)
CC[NH2+]Cc1cc(CN2CCOCC2)cc(N2CCCC2=O)c1 (nonaromatic ring conformer: 70.04515794080046 kcal/mol)

>  <smiles>  (28) 
CCNCc1cc(CN2CCOCC2)cc(N2CCCC2=O)c1

>  <score_type>  (28) 
oracle

>  <origin>  (28) 
adg

>  <m_score__min__energy>  (28) 
-7.8200000000000003

>  <m_primary>  (28) 
energy

$$$$
28:0
     RDKit          3D

 66 69  0  0  0  0  0  0  0  0999 V2000
   -3.7980   18.6940  -26.2350 C   0  0  0  0  0  0  0  0  0  0  0  0
   -2.9460   19.5590  -27.1630 C   0  0  0  0  0  0  0  0  0  0  0  0
   -1.4420   19.3140  -26.9830 C   0  0  0  0  0  0  0  0  0  0  0  0
   -0.8890   18.6580  -28.1760 N   0  0  0  0  0  0  0  0  0  0  0  0
    0.2600   17.8070  -27.8390 C   0  0  0  0  0  0  0  0  0  0  0  0
    1.0020   17.4000  -29.1190 C   0  0  0  0  0  0  0  0  0  0  0  0
    0.5670   18.2220  -30.2670 N   0  0  0  0  0  0  0  0  0  0  0  0
    1.6810   19.0120  -30.8190 C   0  0  0  0  0  0  0  0  0  0  0  0
    1.1490   20.0330  -31.8490 C   0  0  0  0  0  0  0  0  0  0  0  0
   -0.1780   19.6640  -32.3960 N   0  0  0  0  0  0  0  0  0  0  0  0
   -1.3020   20.1830  -31.5800 C   0  0  0  0  0  0  0  0  0  0  0  0
   -1.3930   21.7080  -31.7050 C   0  0  0  0  0  0  0  0  0  0  0  0
   -2.2660   22.2880  -30.6720 N   0  0  0  0  0  0  0  0  0  0  0  0
   -1.7120   22.6950  -29.4130 C   0  0  0  0  0  0  0  0  0  0  0  0
   -0.8280   21.8360  -28.7320 C   0  0  0  0  0  0  0  0  0  0  0  0
   -0.2510   22.2290  -27.5240 C   0  0  0  0  0  0  0  0  0  0  0  0
   -0.5390   23.4840  -26.9880 C   0  0  0  0  0  0  0  0  0  0  0  0
   -1.4130   24.3450  -27.6580 C   0  0  0  0  0  0  0  0  0  0  0  0
   -2.0140   23.9580  -28.8630 C   0  0  0  0  0  0  0  0  0  0  0  0
   -2.8320   24.9160  -29.5440 N   0  0  0  0  0  0  0  0  0  0  0  0
   -3.9020   24.6820  -30.4670 C   0  0  0  0  0  0  0  0  0  0  0  0
   -4.4100   25.6740  -31.0520 O   0  0  0  0  0  0  0  0  0  0  0  0
   -4.4870   23.3420  -30.6910 C   0  0  0  0  0  0  0  0  0  0  0  0
   -5.8680   23.2180  -30.8790 C   0  0  0  0  0  0  0  0  0  0  0  0
   -6.4510   21.9760  -31.1450 C   0  0  0  0  0  0  0  0  0  0  0  0
   -8.3680   21.9600  -31.2520 Br  0  0  0  0  0  0  0  0  0  0  0  0
   -5.6140   20.8370  -31.2440 C   0  0  0  0  0  0  0  0  0  0  0  0
   -6.0740   19.5370  -31.5250 O   0  0  0  0  0  0  0  0  0  0  0  0
   -6.7700   19.1100  -32.6880 C   0  0  0  0  0  0  0  0  0  0  0  0
   -4.2740   20.9860  -31.0510 N   0  0  0  0  0  0  0  0  0  0  0  0
   -3.6930   22.1930  -30.7830 C   0  0  0  0  0  0  0  0  0  0  0  0
   -0.2710   18.2090  -32.6270 C   0  0  0  0  0  0  0  0  0  0  0  0
   -0.0610   17.4020  -31.3270 C   0  0  0  0  0  0  0  0  0  0  0  0
   -3.5605   18.9351  -25.1884 H   0  0  0  0  0  0  0  0  0  0  0  0
   -4.8633   18.8924  -26.4243 H   0  0  0  0  0  0  0  0  0  0  0  0
   -3.5835   17.6319  -26.4243 H   0  0  0  0  0  0  0  0  0  0  0  0
   -3.2177   19.3317  -28.2044 H   0  0  0  0  0  0  0  0  0  0  0  0
   -3.1442   20.6115  -26.9122 H   0  0  0  0  0  0  0  0  0  0  0  0
   -0.9328   20.2768  -26.8287 H   0  0  0  0  0  0  0  0  0  0  0  0
   -1.2860   18.6629  -26.1102 H   0  0  0  0  0  0  0  0  0  0  0  0
   -0.5460   19.4050  -28.8210 H   0  0  0  0  0  0  0  0  0  0  0  0
    0.9448   18.3625  -27.1815 H   0  0  0  0  0  0  0  0  0  0  0  0
   -0.0977   16.9028  -27.3248 H   0  0  0  0  0  0  0  0  0  0  0  0
    2.0828   17.5371  -28.9673 H   0  0  0  0  0  0  0  0  0  0  0  0
    0.7741   16.3460  -29.3362 H   0  0  0  0  0  0  0  0  0  0  0  0
    2.1861   19.5486  -30.0024 H   0  0  0  0  0  0  0  0  0  0  0  0
    2.3904   18.3347  -31.3170 H   0  0  0  0  0  0  0  0  0  0  0  0
    1.0660   21.0145  -31.3593 H   0  0  0  0  0  0  0  0  0  0  0  0
    1.8581   20.0530  -32.6897 H   0  0  0  0  0  0  0  0  0  0  0  0
   -2.2426   19.7337  -31.9312 H   0  0  0  0  0  0  0  0  0  0  0  0
   -1.1286   19.9210  -30.5258 H   0  0  0  0  0  0  0  0  0  0  0  0
   -0.3847   22.1350  -31.6003 H   0  0  0  0  0  0  0  0  0  0  0  0
   -1.8219   21.9462  -32.6895 H   0  0  0  0  0  0  0  0  0  0  0  0
   -0.5909   20.8488  -29.1552 H   0  0  0  0  0  0  0  0  0  0  0  0
    0.4316   21.5485  -26.9939 H   0  0  0  0  0  0  0  0  0  0  0  0
   -0.0788   23.7960  -26.0389 H   0  0  0  0  0  0  0  0  0  0  0  0
   -1.6312   25.3366  -27.2348 H   0  0  0  0  0  0  0  0  0  0  0  0
   -6.5051   24.1125  -30.8164 H   0  0  0  0  0  0  0  0  0  0  0  0
   -7.6731   18.5560  -32.3922 H   0  0  0  0  0  0  0  0  0  0  0  0
   -7.0575   19.9873  -33.2861 H   0  0  0  0  0  0  0  0  0  0  0  0
   -6.1182   18.4562  -33.2861 H   0  0  0  0  0  0  0  0  0  0  0  0
   -3.6710   20.1360  -31.1190 H   0  0  0  0  0  0  0  0  0  0  0  0
   -1.2669   17.9767  -33.0322 H   0  0  0  0  0  0  0  0  0  0  0  0
    0.5224   17.9260  -33.3344 H   0  0  0  0  0  0  0  0  0  0  0  0
   -1.0373   17.0436  -30.9686 H   0  0  0  0  0  0  0  0  0  0  0  0
    0.6107   16.5603  -31.5515 H   0  0  0  0  0  0  0  0  0  0  0  0
  1  2  1  0
  2  3  1  0
  3  4  1  0
  4  5  1  0
  5  6  1  0
  6  7  1  0
  7  8  1  0
  8  9  1  0
  9 10  1  0
 10 11  1  0
 11 12  1  0
 12 13  1  0
 13 14  1  0
 14 15  2  0
 15 16  1  0
 16 17  2  0
 17 18  1  0
 18 19  2  0
 19 20  1  0
 20 21  1  0
 21 22  2  0
 21 23  1  0
 23 24  2  0
 24 25  1  0
 25 26  1  0
 25 27  2  0
 27 28  1  0
 28 29  1  0
 27 30  1  0
 30 31  2  0
 10 32  1  0
 32 33  1  0
 33  7  1  0
 31 13  1  0
 19 14  1  0
 31 23  1  0
  1 34  1  0
  1 35  1  0
  1 36  1  0
  2 37  1  0
  2 38  1  0
  3 39  1  0
  3 40  1  0
  4 41  1  0
  5 42  1  0
  5 43  1  0
  6 44  1  0
  6 45  1  0
  8 46  1  0
  8 47  1  0
  9 48  1  0
  9 49  1  0
 11 50  1  0
 11 51  1  0
 12 52  1  0
 12 53  1  0
 15 54  1  0
 16 55  1  0
 17 56  1  0
 18 57  1  0
 24 58  1  0
 29 59  1  0
 29 60  1  0
 29 61  1  0
 30 62  1  0
 32 63  1  0
 32 64  1  0
 33 65  1  0
 33 66  1  0
M  CHG  2  20  -1  30   1
M  END
>  <UniqueID>  (29) 
29

>  <SMILES>  (29) 
CCCNCCN1CCN(CCN2c3ccccc3[N-]C(=O)c3cc(Br)c(OC)[nH+]c32)CC1

>  <Energy>  (29) 
96.48906475523384

>  <Genealogy>  (29) 
CCCNCCN1CCN(CCN2c3ccccc3[N-]C(=O)c3cc(Br)c(OC)[nH+]c32)CC1 (protonated)
CCCNCCN1CCN(CCN2c3ccccc3[N-]C(=O)c3cc(Br)c(OC)[nH+]c32)CC1 (3D coordinates assigned)
CCCNCCN1CCN(CCN2c3ccccc3[N-]C(=O)c3cc(Br)c(OC)[nH+]c32)CC1 (nonaromatic ring conformer: 96.48906475523384 kcal/mol)

>  <smiles>  (29) 
CCCNCCN1CCN(CCN2c3ccccc3NC(=O)c3cc(Br)c(OC)nc32)CC1

>  <score_type>  (29) 
oracle

>  <origin>  (29) 
adg

>  <m_score__min__energy>  (29) 
-10.18

>  <m_primary>  (29) 
energy

$$$$
29:0
     RDKit          3D

 49 50  0  0  0  0  0  0  0  0999 V2000
   -0.2430   23.2720  -28.6200 C   0  0  0  0  0  0  0  0  0  0  0  0
   -0.4350   24.7690  -28.3900 C   0  0  0  0  0  0  0  0  0  0  0  0
   -1.8030   25.1690  -28.7450 N   0  0  0  0  0  0  0  0  0  0  0  0
   -2.7960   24.4470  -27.9390 C   0  0  0  0  0  0  0  0  0  0  0  0
   -4.1600   24.4710  -28.6310 C   0  0  0  0  0  0  0  0  0  0  0  0
   -4.0550   25.1630  -29.9230 N   0  0  0  0  0  0  0  0  0  0  0  0
   -5.3730   25.5310  -30.4580 C   0  0  0  0  0  0  0  0  0  0  0  0
   -5.7580   24.5890  -31.6040 C   0  0  0  0  0  0  0  0  0  0  0  0
   -5.5620   23.1750  -31.2230 N   0  0  0  0  0  0  0  0  0  0  0  0
   -6.5420   22.5160  -30.3380 C   0  0  0  0  0  0  0  0  0  0  0  0
   -7.4670   21.6070  -31.1130 C   0  0  0  0  0  0  0  0  0  0  0  0
   -6.9930   20.3890  -31.6310 C   0  0  0  0  0  0  0  0  0  0  0  0
   -7.8620   19.5190  -32.2980 C   0  0  0  0  0  0  0  0  0  0  0  0
   -9.2070   19.8620  -32.4630 C   0  0  0  0  0  0  0  0  0  0  0  0
  -10.0480   19.0150  -33.1050 F   0  0  0  0  0  0  0  0  0  0  0  0
   -9.6840   21.0770  -31.9650 C   0  0  0  0  0  0  0  0  0  0  0  0
   -8.8200   21.9480  -31.2970 C   0  0  0  0  0  0  0  0  0  0  0  0
   -4.3790   22.4640  -31.6600 C   0  0  0  0  0  0  0  0  0  0  0  0
   -3.3410   22.1710  -30.7570 C   0  0  0  0  0  0  0  0  0  0  0  0
   -2.1740   21.5700  -31.2190 C   0  0  0  0  0  0  0  0  0  0  0  0
   -2.0430   21.2550  -32.5690 C   0  0  0  0  0  0  0  0  0  0  0  0
   -0.4500   20.4270  -33.2270 Br  0  0  0  0  0  0  0  0  0  0  0  0
   -3.0940   21.5370  -33.4400 C   0  0  0  0  0  0  0  0  0  0  0  0
   -4.2270   22.1250  -32.9750 N   0  0  0  0  0  0  0  0  0  0  0  0
   -0.1770   22.7575  -27.6500 H   0  0  0  0  0  0  0  0  0  0  0  0
   -1.0977   22.8757  -29.1879 H   0  0  0  0  0  0  0  0  0  0  0  0
    0.6840   23.1042  -29.1879 H   0  0  0  0  0  0  0  0  0  0  0  0
   -0.2534   24.9993  -27.3298 H   0  0  0  0  0  0  0  0  0  0  0  0
    0.2746   25.3217  -29.0232 H   0  0  0  0  0  0  0  0  0  0  0  0
   -1.9550   24.9070  -29.7410 H   0  0  0  0  0  0  0  0  0  0  0  0
   -2.4715   23.4036  -27.8126 H   0  0  0  0  0  0  0  0  0  0  0  0
   -2.8840   24.9357  -26.9575 H   0  0  0  0  0  0  0  0  0  0  0  0
   -4.5026   23.4390  -28.7971 H   0  0  0  0  0  0  0  0  0  0  0  0
   -4.8798   25.0044  -27.9927 H   0  0  0  0  0  0  0  0  0  0  0  0
   -3.5040   26.0420  -29.7860 H   0  0  0  0  0  0  0  0  0  0  0  0
   -6.1242   25.4565  -29.6579 H   0  0  0  0  0  0  0  0  0  0  0  0
   -5.3320   26.5624  -30.8381 H   0  0  0  0  0  0  0  0  0  0  0  0
   -6.8161   24.7484  -31.8592 H   0  0  0  0  0  0  0  0  0  0  0  0
   -5.1130   24.8094  -32.4673 H   0  0  0  0  0  0  0  0  0  0  0  0
   -6.0016   21.9200  -29.5878 H   0  0  0  0  0  0  0  0  0  0  0  0
   -7.1498   23.2959  -29.8560 H   0  0  0  0  0  0  0  0  0  0  0  0
   -5.9335   20.1187  -31.5112 H   0  0  0  0  0  0  0  0  0  0  0  0
   -7.4864   18.5636  -32.6932 H   0  0  0  0  0  0  0  0  0  0  0  0
  -10.7416   21.3482  -32.0991 H   0  0  0  0  0  0  0  0  0  0  0  0
   -9.1994   22.9062  -30.9125 H   0  0  0  0  0  0  0  0  0  0  0  0
   -3.4513   22.4159  -29.6903 H   0  0  0  0  0  0  0  0  0  0  0  0
   -1.3563   21.3441  -30.5188 H   0  0  0  0  0  0  0  0  0  0  0  0
   -3.0058   21.2828  -34.5066 H   0  0  0  0  0  0  0  0  0  0  0  0
   -4.9720   22.3400  -33.6650 H   0  0  0  0  0  0  0  0  0  0  0  0
  1  2  1  0
  2  3  1  0
  3  4  1  0
  4  5  1  0
  5  6  1  0
  6  7  1  0
  7  8  1  0
  8  9  1  0
  9 10  1  0
 10 11  1  0
 11 12  2  0
 12 13  1  0
 13 14  2  0
 14 15  1  0
 14 16  1  0
 16 17  2  0
  9 18  1  0
 18 19  2  0
 19 20  1  0
 20 21  2  0
 21 22  1  0
 21 23  1  0
 23 24  2  0
 17 11  1  0
 24 18  1  0
  1 25  1  0
  1 26  1  0
  1 27  1  0
  2 28  1  0
  2 29  1  0
  3 30  1  0
  4 31  1  0
  4 32  1  0
  5 33  1  0
  5 34  1  0
  6 35  1  0
  7 36  1  0
  7 37  1  0
  8 38  1  0
  8 39  1  0
 10 40  1  0
 10 41  1  0
 12 42  1  0
 13 43  1  0
 16 44  1  0
 17 45  1  0
 19 46  1  0
 20 47  1  0
 23 48  1  0
 24 49  1  0
M  CHG  1  24   1
M  END
>  <UniqueID>  (30) 
30

>  <SMILES>  (30) 
CCNCCNCCN(Cc1ccc(F)cc1)c1ccc(Br)c[nH+]1

>  <Energy>  (30) 
40.03346812733984

>  <Genealogy>  (30) 
CCNCCNCCN(Cc1ccc(F)cc1)c1ccc(Br)c[nH+]1 (protonated)
CCNCCNCCN(Cc1ccc(F)cc1)c1ccc(Br)c[nH+]1 (3D coordinates assigned)
CCNCCNCCN(Cc1ccc(F)cc1)c1ccc(Br)c[nH+]1 (optimized conformer: 40.03346812733984 kcal/mol)

>  <smiles>  (30) 
CCNCCNCCN(Cc1ccc(F)cc1)c1ccc(Br)cn1

>  <score_type>  (30) 
oracle

>  <origin>  (30) 
adg

>  <m_score__min__energy>  (30) 
-7.7300000000000004

>  <m_primary>  (30) 
energy

$$$$
30:0
     RDKit          3D

 36 38  0  0  0  0  0  0  0  0999 V2000
   -1.0520   26.0100  -27.6430 C   0  0  0  0  0  0  0  0  0  0  0  0
   -1.2830   25.3230  -28.9830 C   0  0  0  0  0  0  0  0  0  0  0  0
   -2.6580   24.8390  -29.0700 N   0  0  0  0  0  0  0  0  0  0  0  0
   -3.5370   25.2690  -29.9630 N   0  0  0  0  0  0  0  0  0  0  0  0
   -4.7040   24.6340  -29.7160 C   0  0  0  0  0  0  0  0  0  0  0  0
   -5.9260   24.7770  -30.5690 C   0  0  0  0  0  0  0  0  0  0  0  0
   -5.7140   24.1760  -31.9640 C   0  0  0  0  0  0  0  0  0  0  0  0
   -5.9170   22.7220  -31.9560 N   0  0  0  0  0  0  0  0  0  0  0  0
   -4.9770   21.7410  -32.0700 C   0  0  0  0  0  0  0  0  0  0  0  0
   -3.5040   21.9930  -32.1570 C   0  0  0  0  0  0  0  0  0  0  0  0
   -5.5040   20.4870  -32.1190 N   0  0  0  0  0  0  0  0  0  0  0  0
   -6.8230   20.7220  -32.0280 C   0  0  0  0  0  0  0  0  0  0  0  0
   -7.8080   19.7900  -32.0550 N   0  0  0  0  0  0  0  0  0  0  0  0
   -9.1100   20.2010  -31.9770 C   0  0  0  0  0  0  0  0  0  0  0  0
   -9.4240   21.5760  -31.8740 C   0  0  0  0  0  0  0  0  0  0  0  0
   -8.3900   22.5290  -31.8480 C   0  0  0  0  0  0  0  0  0  0  0  0
   -7.0820   22.0530  -31.9300 C   0  0  0  0  0  0  0  0  0  0  0  0
   -4.5670   23.7730  -28.6380 C   0  0  0  0  0  0  0  0  0  0  0  0
   -3.2560   23.9450  -28.2610 C   0  0  0  0  0  0  0  0  0  0  0  0
   -2.6860   23.3540  -27.3050 O   0  0  0  0  0  0  0  0  0  0  0  0
   -1.2871   25.3107  -26.8271 H   0  0  0  0  0  0  0  0  0  0  0  0
    0.0003   26.3214  -27.5672 H   0  0  0  0  0  0  0  0  0  0  0  0
   -1.7023   26.8939  -27.5672 H   0  0  0  0  0  0  0  0  0  0  0  0
   -1.0980   26.0405  -29.7960 H   0  0  0  0  0  0  0  0  0  0  0  0
   -0.5952   24.4693  -29.0725 H   0  0  0  0  0  0  0  0  0  0  0  0
   -6.7647   24.2591  -30.0808 H   0  0  0  0  0  0  0  0  0  0  0  0
   -6.1409   25.8495  -30.6854 H   0  0  0  0  0  0  0  0  0  0  0  0
   -6.4290   24.6336  -32.6635 H   0  0  0  0  0  0  0  0  0  0  0  0
   -4.6790   24.3799  -32.2758 H   0  0  0  0  0  0  0  0  0  0  0  0
   -3.0838   22.0649  -31.1430 H   0  0  0  0  0  0  0  0  0  0  0  0
   -3.0214   21.1644  -32.6960 H   0  0  0  0  0  0  0  0  0  0  0  0
   -3.3244   22.9349  -32.6960 H   0  0  0  0  0  0  0  0  0  0  0  0
   -9.9193   19.4562  -31.9945 H   0  0  0  0  0  0  0  0  0  0  0  0
  -10.4738   21.8992  -31.8144 H   0  0  0  0  0  0  0  0  0  0  0  0
   -8.6042   23.6048  -31.7664 H   0  0  0  0  0  0  0  0  0  0  0  0
   -5.3245   23.1118  -28.1919 H   0  0  0  0  0  0  0  0  0  0  0  0
  1  2  1  0
  2  3  1  0
  3  4  1  0
  4  5  1  0
  5  6  1  0
  6  7  1  0
  7  8  1  0
  8  9  1  0
  9 10  1  0
  9 11  2  0
 11 12  1  0
 12 13  2  0
 13 14  1  0
 14 15  2  0
 15 16  1  0
 16 17  2  0
  5 18  2  0
 18 19  1  0
 19 20  2  0
 19  3  1  0
 17  8  1  0
 17 12  1  0
  1 21  1  0
  1 22  1  0
  1 23  1  0
  2 24  1  0
  2 25  1  0
  6 26  1  0
  6 27  1  0
  7 28  1  0
  7 29  1  0
 10 30  1  0
 10 31  1  0
 10 32  1  0
 14 33  1  0
 15 34  1  0
 16 35  1  0
 18 36  1  0
M  CHG  1   4  -1
M  END
>  <UniqueID>  (31) 
31

>  <SMILES>  (31) 
CCn1[n-]c(CCn2c(C)nc3ncccc32)cc1=O

>  <Energy>  (31) 
98.84952936947896

>  <Genealogy>  (31) 
CCn1[n-]c(CCn2c(C)nc3ncccc32)cc1=O (protonated)
CCn1[n-]c(CCn2c(C)nc3ncccc32)cc1=O (3D coordinates assigned)
CCn1[n-]c(CCn2c(C)nc3ncccc32)cc1=O (optimized conformer: 98.84952936947896 kcal/mol)

>  <smiles>  (31) 
CCn1[nH]c(CCn2c(C)nc3ncccc32)cc1=O

>  <score_type>  (31) 
oracle

>  <origin>  (31) 
adg

>  <m_score__min__energy>  (31) 
-8.6199999999999992

>  <m_primary>  (31) 
energy

$$$$
31:0
     RDKit          3D

 40 42  0  0  0  0  0  0  0  0999 V2000
   -2.2890   24.1510  -29.2090 C   0  0  0  0  0  0  0  0  0  0  0  0
   -3.1370   24.9310  -30.0460 O   0  0  0  0  0  0  0  0  0  0  0  0
   -4.4410   24.5650  -30.4140 C   0  0  0  0  0  0  0  0  0  0  0  0
   -4.6130   23.4270  -31.2100 C   0  0  0  0  0  0  0  0  0  0  0  0
   -5.8920   23.0200  -31.6000 C   0  0  0  0  0  0  0  0  0  0  0  0
   -7.0240   23.7420  -31.1890 C   0  0  0  0  0  0  0  0  0  0  0  0
   -8.4050   23.3060  -31.6150 C   0  0  0  0  0  0  0  0  0  0  0  0
   -8.4100   21.9310  -32.3130 C   0  0  0  0  0  0  0  0  0  0  0  0
   -8.2320   20.8020  -31.3800 N   0  0  0  0  0  0  0  0  0  0  0  0
   -7.6370   19.6500  -32.0250 C   0  0  0  0  0  0  0  0  0  0  0  0
   -6.4240   19.7770  -32.7210 C   0  0  0  0  0  0  0  0  0  0  0  0
   -5.8590   18.6630  -33.3460 C   0  0  0  0  0  0  0  0  0  0  0  0
   -4.6570   18.7550  -34.0630 C   0  0  0  0  0  0  0  0  0  0  0  0
   -4.1240   17.6170  -34.6780 C   0  0  0  0  0  0  0  0  0  0  0  0
   -4.7860   16.3880  -34.5780 C   0  0  0  0  0  0  0  0  0  0  0  0
   -5.9830   16.2910  -33.8630 C   0  0  0  0  0  0  0  0  0  0  0  0
   -6.5240   17.4240  -33.2440 C   0  0  0  0  0  0  0  0  0  0  0  0
   -7.6600   17.3290  -32.5600 O   0  0  0  0  0  0  0  0  0  0  0  0
   -8.2260   18.3680  -31.9530 C   0  0  0  0  0  0  0  0  0  0  0  0
   -9.2900   18.1880  -31.3050 O   0  0  0  0  0  0  0  0  0  0  0  0
   -6.8510   24.8950  -30.4090 C   0  0  0  0  0  0  0  0  0  0  0  0
   -5.5720   25.3020  -30.0180 C   0  0  0  0  0  0  0  0  0  0  0  0
   -2.5193   24.3628  -28.1544 H   0  0  0  0  0  0  0  0  0  0  0  0
   -2.4544   23.0828  -29.4130 H   0  0  0  0  0  0  0  0  0  0  0  0
   -1.2383   24.4049  -29.4130 H   0  0  0  0  0  0  0  0  0  0  0  0
   -3.7346   22.8481  -31.5314 H   0  0  0  0  0  0  0  0  0  0  0  0
   -6.0125   22.1284  -32.2329 H   0  0  0  0  0  0  0  0  0  0  0  0
   -9.0462   23.2494  -30.7230 H   0  0  0  0  0  0  0  0  0  0  0  0
   -8.7767   24.0459  -32.3392 H   0  0  0  0  0  0  0  0  0  0  0  0
   -9.3718   21.8065  -32.8322 H   0  0  0  0  0  0  0  0  0  0  0  0
   -7.5582   21.9159  -33.0089 H   0  0  0  0  0  0  0  0  0  0  0  0
   -9.1450   20.5660  -30.9290 H   0  0  0  0  0  0  0  0  0  0  0  0
   -7.5900   21.1100  -30.6140 H   0  0  0  0  0  0  0  0  0  0  0  0
   -5.9192   20.7529  -32.7739 H   0  0  0  0  0  0  0  0  0  0  0  0
   -4.1345   19.7198  -34.1416 H   0  0  0  0  0  0  0  0  0  0  0  0
   -3.1821   17.6884  -35.2417 H   0  0  0  0  0  0  0  0  0  0  0  0
   -4.3631   15.4960  -35.0634 H   0  0  0  0  0  0  0  0  0  0  0  0
   -6.5005   15.3233  -33.7866 H   0  0  0  0  0  0  0  0  0  0  0  0
   -7.7284   25.4834  -30.1027 H   0  0  0  0  0  0  0  0  0  0  0  0
   -5.4494   26.2024  -29.3981 H   0  0  0  0  0  0  0  0  0  0  0  0
  1  2  1  0
  2  3  1  0
  3  4  2  0
  4  5  1  0
  5  6  2  0
  6  7  1  0
  7  8  1  0
  8  9  1  0
  9 10  1  0
 10 11  2  0
 11 12  1  0
 12 13  2  0
 13 14  1  0
 14 15  2  0
 15 16  1  0
 16 17  2  0
 17 18  1  0
 18 19  1  0
 19 20  2  0
  6 21  1  0
 21 22  2  0
 22  3  1  0
 19 10  1  0
 17 12  1  0
  1 23  1  0
  1 24  1  0
  1 25  1  0
  4 26  1  0
  5 27  1  0
  7 28  1  0
  7 29  1  0
  8 30  1  0
  8 31  1  0
  9 32  1  0
  9 33  1  0
 11 34  1  0
 13 35  1  0
 14 36  1  0
 15 37  1  0
 16 38  1  0
 21 39  1  0
 22 40  1  0
M  CHG  1   9   1
M  END
>  <UniqueID>  (32) 
32

>  <SMILES>  (32) 
COc1ccc(CC[NH2+]c2cc3ccccc3oc2=O)cc1

>  <Energy>  (32) 
47.06150321270262

>  <Genealogy>  (32) 
COc1ccc(CC[NH2+]c2cc3ccccc3oc2=O)cc1 (protonated)
COc1ccc(CC[NH2+]c2cc3ccccc3oc2=O)cc1 (3D coordinates assigned)
COc1ccc(CC[NH2+]c2cc3ccccc3oc2=O)cc1 (optimized conformer: 47.06150321270262 kcal/mol)

>  <smiles>  (32) 
COc1ccc(CCNc2cc3ccccc3oc2=O)cc1

>  <score_type>  (32) 
oracle

>  <origin>  (32) 
adg

>  <m_score__min__energy>  (32) 
-7.75

>  <m_primary>  (32) 
energy

$$$$
32:0
     RDKit          3D

 62 66  0  0  0  0  0  0  0  0999 V2000
   -8.8380   22.5470  -31.6090 F   0  0  0  0  0  0  0  0  0  0  0  0
   -8.3770   21.3150  -31.9420 C   0  0  0  0  0  0  0  0  0  0  0  0
   -9.1220   20.1830  -31.6040 C   0  0  0  0  0  0  0  0  0  0  0  0
   -8.6850   18.9140  -32.0000 C   0  0  0  0  0  0  0  0  0  0  0  0
   -7.4750   18.7760  -32.6930 C   0  0  0  0  0  0  0  0  0  0  0  0
   -6.6850   19.9080  -32.9860 C   0  0  0  0  0  0  0  0  0  0  0  0
   -7.1800   21.1800  -32.6540 C   0  0  0  0  0  0  0  0  0  0  0  0
   -5.4520   19.7110  -33.7240 N   0  0  0  0  0  0  0  0  0  0  0  0
   -4.1790   20.4380  -33.4660 C   0  0  0  0  0  0  0  0  0  0  0  0
   -4.4120   21.9030  -33.0190 C   0  0  0  0  0  0  0  0  0  0  0  0
   -3.9580   22.1810  -31.5720 C   0  0  0  0  0  0  0  0  0  0  0  0
   -2.5590   21.7510  -31.2810 N   0  0  0  0  0  0  0  0  0  0  0  0
   -2.3880   21.4310  -29.8440 C   0  0  0  0  0  0  0  0  0  0  0  0
   -2.3180   22.6890  -29.0170 C   0  0  0  0  0  0  0  0  0  0  0  0
   -1.1930   23.5240  -29.0790 C   0  0  0  0  0  0  0  0  0  0  0  0
   -1.0990   24.6440  -28.2480 C   0  0  0  0  0  0  0  0  0  0  0  0
   -2.1100   24.9230  -27.3140 C   0  0  0  0  0  0  0  0  0  0  0  0
   -1.9660   26.0830  -26.3400 C   0  0  0  0  0  0  0  0  0  0  0  0
   -1.6350   25.6790  -24.9480 N   0  0  0  0  0  0  0  0  0  0  0  0
   -0.6100   24.6210  -24.8660 C   0  0  0  0  0  0  0  0  0  0  0  0
    0.7220   25.2820  -24.5120 C   0  0  0  0  0  0  0  0  0  0  0  0
    0.3670   26.6740  -24.0120 C   0  0  0  0  0  0  0  0  0  0  0  0
   -1.1590   26.7780  -24.0980 C   0  0  0  0  0  0  0  0  0  0  0  0
   -3.2670   24.1210  -27.2990 C   0  0  0  0  0  0  0  0  0  0  0  0
   -3.3650   23.0060  -28.1340 C   0  0  0  0  0  0  0  0  0  0  0  0
   -2.0640   20.6430  -32.1400 C   0  0  0  0  0  0  0  0  0  0  0  0
   -3.1840   19.6850  -32.5580 C   0  0  0  0  0  0  0  0  0  0  0  0
   -5.4230   18.5250  -34.6010 C   0  0  0  0  0  0  0  0  0  0  0  0
   -5.8190   17.2930  -33.7860 C   0  0  0  0  0  0  0  0  0  0  0  0
   -7.0810   17.5100  -33.1480 O   0  0  0  0  0  0  0  0  0  0  0  0
  -10.0522   20.2890  -31.0265 H   0  0  0  0  0  0  0  0  0  0  0  0
   -9.2907   18.0257  -31.7675 H   0  0  0  0  0  0  0  0  0  0  0  0
   -6.6215   22.0781  -32.9565 H   0  0  0  0  0  0  0  0  0  0  0  0
   -3.6774   20.4808  -34.4440 H   0  0  0  0  0  0  0  0  0  0  0  0
   -3.8518   22.5668  -33.6939 H   0  0  0  0  0  0  0  0  0  0  0  0
   -5.4957   22.0868  -33.0604 H   0  0  0  0  0  0  0  0  0  0  0  0
   -4.0325   23.2629  -31.3880 H   0  0  0  0  0  0  0  0  0  0  0  0
   -4.6148   21.5929  -30.9141 H   0  0  0  0  0  0  0  0  0  0  0  0
   -3.2415   20.8250  -29.5060 H   0  0  0  0  0  0  0  0  0  0  0  0
   -1.4475   20.8747  -29.7175 H   0  0  0  0  0  0  0  0  0  0  0  0
   -0.3807   23.2965  -29.7850 H   0  0  0  0  0  0  0  0  0  0  0  0
   -0.2278   25.3110  -28.3261 H   0  0  0  0  0  0  0  0  0  0  0  0
   -1.1654   26.7424  -26.7064 H   0  0  0  0  0  0  0  0  0  0  0  0
   -2.9460   26.5807  -26.2977 H   0  0  0  0  0  0  0  0  0  0  0  0
   -0.8849   23.8942  -24.0874 H   0  0  0  0  0  0  0  0  0  0  0  0
   -0.5305   24.0900  -25.8261 H   0  0  0  0  0  0  0  0  0  0  0  0
    1.2370   24.7111  -23.7254 H   0  0  0  0  0  0  0  0  0  0  0  0
    1.4001   25.3207  -25.3772 H   0  0  0  0  0  0  0  0  0  0  0  0
    0.7007   26.8030  -22.9718 H   0  0  0  0  0  0  0  0  0  0  0  0
    0.8581   27.4545  -24.6116 H   0  0  0  0  0  0  0  0  0  0  0  0
   -1.5975   26.6911  -23.0929 H   0  0  0  0  0  0  0  0  0  0  0  0
   -1.4554   27.7487  -24.5220 H   0  0  0  0  0  0  0  0  0  0  0  0
   -4.0989   24.3742  -26.6254 H   0  0  0  0  0  0  0  0  0  0  0  0
   -4.2644   22.3736  -28.1007 H   0  0  0  0  0  0  0  0  0  0  0  0
   -1.6104   21.0730  -33.0452 H   0  0  0  0  0  0  0  0  0  0  0  0
   -1.3300   20.0677  -31.5566 H   0  0  0  0  0  0  0  0  0  0  0  0
   -2.7551   18.8341  -33.1075 H   0  0  0  0  0  0  0  0  0  0  0  0
   -3.7062   19.3125  -31.6644 H   0  0  0  0  0  0  0  0  0  0  0  0
   -6.1325   18.6622  -35.4303 H   0  0  0  0  0  0  0  0  0  0  0  0
   -4.4109   18.3902  -35.0102 H   0  0  0  0  0  0  0  0  0  0  0  0
   -5.8944   16.4231  -34.4550 H   0  0  0  0  0  0  0  0  0  0  0  0
   -5.0540   17.1089  -33.0173 H   0  0  0  0  0  0  0  0  0  0  0  0
  1  2  1  0
  2  3  2  0
  3  4  1  0
  4  5  2  0
  5  6  1  0
  6  7  2  0
  6  8  1  0
  8  9  1  0
  9 10  1  0
 10 11  1  0
 11 12  1  0
 12 13  1  0
 13 14  1  0
 14 15  2  0
 15 16  1  0
 16 17  2  0
 17 18  1  0
 18 19  1  0
 19 20  1  0
 20 21  1  0
 21 22  1  0
 22 23  1  0
 17 24  1  0
 24 25  2  0
 12 26  1  0
 26 27  1  0
  8 28  1  0
 28 29  1  0
 29 30  1  0
  7  2  1  0
 27  9  1  0
 30  5  1  0
 25 14  1  0
 23 19  1  0
  3 31  1  0
  4 32  1  0
  7 33  1  0
  9 34  1  0
 10 35  1  0
 10 36  1  0
 11 37  1  0
 11 38  1  0
 13 39  1  0
 13 40  1  0
 15 41  1  0
 16 42  1  0
 18 43  1  0
 18 44  1  0
 20 45  1  0
 20 46  1  0
 21 47  1  0
 21 48  1  0
 22 49  1  0
 22 50  1  0
 23 51  1  0
 23 52  1  0
 24 53  1  0
 25 54  1  0
 26 55  1  0
 26 56  1  0
 27 57  1  0
 27 58  1  0
 28 59  1  0
 28 60  1  0
 29 61  1  0
 29 62  1  0
M  END
>  <UniqueID>  (33) 
33

>  <SMILES>  (33) 
Fc1ccc2c(c1)N(C1CCN(Cc3ccc(CN4CCCC4)cc3)CC1)CCO2

>  <Energy>  (33) 
89.61495230914505

>  <Genealogy>  (33) 
Fc1ccc2c(c1)N(C1CCN(Cc3ccc(CN4CCCC4)cc3)CC1)CCO2 (3D coordinates assigned)
Fc1ccc2c(c1)N(C1CCN(Cc3ccc(CN4CCCC4)cc3)CC1)CCO2 (nonaromatic ring conformer: 89.61495230914505 kcal/mol)

>  <smiles>  (33) 
Fc1ccc2c(c1)N(C1CCN(Cc3ccc(CN4CCCC4)cc3)CC1)CCO2

>  <score_type>  (33) 
oracle

>  <origin>  (33) 
adg

>  <m_score__min__energy>  (33) 
-9.1799999999999997

>  <m_primary>  (33) 
energy

$$$$
33:0
     RDKit          3D

 48 48  0  0  0  0  0  0  0  0999 V2000
   -3.2720   20.5850  -33.2560 C   0  0  0  0  0  0  0  0  0  0  0  0
   -4.4390   20.0800  -32.3980 C   0  0  0  0  0  0  0  0  0  0  0  0
   -5.7580   20.3760  -33.0160 N   0  0  0  0  0  0  0  0  0  0  0  0
   -6.1120   19.5500  -34.2070 C   0  0  0  0  0  0  0  0  0  0  0  0
   -6.0400   18.0260  -34.0130 C   0  0  0  0  0  0  0  0  0  0  0  0
   -6.8530   20.4850  -32.0150 C   0  0  0  0  0  0  0  0  0  0  0  0
   -7.2840   21.9180  -31.6440 C   0  0  0  0  0  0  0  0  0  0  0  0
   -5.9050   22.9380  -31.1360 S   0  0  0  0  0  0  0  0  0  0  0  0
   -4.7930   23.0540  -32.3910 O   0  0  0  0  0  0  0  0  0  0  0  0
   -6.4070   24.5690  -30.6170 C   0  0  0  0  0  0  0  0  0  0  0  0
   -5.2220   25.4740  -30.5270 C   0  0  0  0  0  0  0  0  0  0  0  0
   -5.3790   26.6810  -30.1980 O   0  0  0  0  0  0  0  0  0  0  0  0
   -3.9130   24.9620  -30.8010 N   0  0  0  0  0  0  0  0  0  0  0  0
   -3.2620   23.9380  -29.9930 C   0  0  0  0  0  0  0  0  0  0  0  0
   -2.8090   24.5250  -28.6840 C   0  0  0  0  0  0  0  0  0  0  0  0
   -1.5910   25.2180  -28.6080 C   0  0  0  0  0  0  0  0  0  0  0  0
   -1.1870   25.8080  -27.4070 C   0  0  0  0  0  0  0  0  0  0  0  0
   -2.0080   25.7340  -26.2730 C   0  0  0  0  0  0  0  0  0  0  0  0
   -1.5790   26.3700  -24.9840 C   0  0  0  0  0  0  0  0  0  0  0  0
   -3.2180   25.0280  -26.3410 C   0  0  0  0  0  0  0  0  0  0  0  0
   -3.6210   24.4340  -27.5410 C   0  0  0  0  0  0  0  0  0  0  0  0
   -2.4607   20.9361  -32.6014 H   0  0  0  0  0  0  0  0  0  0  0  0
   -2.9025   19.7662  -33.8909 H   0  0  0  0  0  0  0  0  0  0  0  0
   -3.6159   21.4148  -33.8909 H   0  0  0  0  0  0  0  0  0  0  0  0
   -4.3422   18.9914  -32.2734 H   0  0  0  0  0  0  0  0  0  0  0  0
   -4.3955   20.5987  -31.4289 H   0  0  0  0  0  0  0  0  0  0  0  0
   -5.6770   21.3540  -33.3830 H   0  0  0  0  0  0  0  0  0  0  0  0
   -7.1415   19.8042  -34.4995 H   0  0  0  0  0  0  0  0  0  0  0  0
   -5.3566   19.7889  -34.9701 H   0  0  0  0  0  0  0  0  0  0  0  0
   -6.0290   17.7933  -32.9379 H   0  0  0  0  0  0  0  0  0  0  0  0
   -6.9169   17.5549  -34.4812 H   0  0  0  0  0  0  0  0  0  0  0  0
   -5.1226   17.6397  -34.4812 H   0  0  0  0  0  0  0  0  0  0  0  0
   -7.7325   19.9621  -32.4189 H   0  0  0  0  0  0  0  0  0  0  0  0
   -6.4557   20.0438  -31.0890 H   0  0  0  0  0  0  0  0  0  0  0  0
   -7.7612   22.3809  -32.5203 H   0  0  0  0  0  0  0  0  0  0  0  0
   -7.9793   21.8486  -30.7945 H   0  0  0  0  0  0  0  0  0  0  0  0
   -4.1790   23.7820  -32.1180 H   0  0  0  0  0  0  0  0  0  0  0  0
   -7.1210   24.9780  -31.3470 H   0  0  0  0  0  0  0  0  0  0  0  0
   -6.8788   24.4988  -29.6258 H   0  0  0  0  0  0  0  0  0  0  0  0
   -3.9725   23.1209  -29.7992 H   0  0  0  0  0  0  0  0  0  0  0  0
   -2.3875   23.5514  -30.5368 H   0  0  0  0  0  0  0  0  0  0  0  0
   -0.9505   25.2973  -29.4988 H   0  0  0  0  0  0  0  0  0  0  0  0
   -0.2215   26.3322  -27.3514 H   0  0  0  0  0  0  0  0  0  0  0  0
   -1.9725   25.7866  -24.1385 H   0  0  0  0  0  0  0  0  0  0  0  0
   -0.4804   26.3926  -24.9341 H   0  0  0  0  0  0  0  0  0  0  0  0
   -1.9695   27.3971  -24.9341 H   0  0  0  0  0  0  0  0  0  0  0  0
   -3.8525   24.9412  -25.4467 H   0  0  0  0  0  0  0  0  0  0  0  0
   -4.5776   23.8933  -27.5903 H   0  0  0  0  0  0  0  0  0  0  0  0
  1  2  1  0
  2  3  1  0
  3  4  1  0
  4  5  1  0
  3  6  1  0
  6  7  1  0
  7  8  1  0
  8  9  1  6
  8 10  1  0
 10 11  1  0
 11 12  2  0
 11 13  1  0
 13 14  1  0
 14 15  1  0
 15 16  2  0
 16 17  1  0
 17 18  2  0
 18 19  1  0
 18 20  1  0
 20 21  2  0
 21 15  1  0
  1 22  1  0
  1 23  1  0
  1 24  1  0
  2 25  1  0
  2 26  1  0
  3 27  1  0
  4 28  1  0
  4 29  1  0
  5 30  1  0
  5 31  1  0
  5 32  1  0
  6 33  1  0
  6 34  1  0
  7 35  1  0
  7 36  1  0
  9 37  1  0
 10 38  1  0
 10 39  1  0
 14 40  1  0
 14 41  1  0
 16 42  1  0
 17 43  1  0
 19 44  1  0
 19 45  1  0
 19 46  1  0
 20 47  1  0
 21 48  1  0
M  CHG  3   3   1   8   1  13  -1
M  END
>  <UniqueID>  (34) 
34

>  <SMILES>  (34) 
CC[NH+](CC)CC[S@@+](O)CC(=O)[N-]Cc1ccc(C)cc1

>  <Energy>  (34) 
37.75774917992008

>  <Genealogy>  (34) 
CC[NH+](CC)CC[S+](O)CC(=O)[N-]Cc1ccc(C)cc1 (protonated)
CC[NH+](CC)CC[S@@+](O)CC(=O)[N-]Cc1ccc(C)cc1 (chirality)
CC[NH+](CC)CC[S@@+](O)CC(=O)[N-]Cc1ccc(C)cc1 (3D coordinates assigned)
CC[NH+](CC)CC[S@@+](O)CC(=O)[N-]Cc1ccc(C)cc1 (optimized conformer: 37.75774917992008 kcal/mol)

>  <smiles>  (34) 
CCN(CC)CC[S+]([O-])CC(=O)NCc1ccc(C)cc1

>  <score_type>  (34) 
oracle

>  <origin>  (34) 
adg

>  <m_score__min__energy>  (34) 
-8.1899999999999995

>  <m_primary>  (34) 
energy

$$$$
34:0
     RDKit          3D

 55 59  0  0  0  0  0  0  0  0999 V2000
    0.1010   27.2100  -22.9700 C   0  0  0  0  0  0  0  0  0  0  0  0
   -0.4080   26.4600  -24.1650 C   0  0  0  0  0  0  0  0  0  0  0  0
   -0.3230   25.0630  -24.2130 C   0  0  0  0  0  0  0  0  0  0  0  0
   -0.8310   24.3600  -25.3090 C   0  0  0  0  0  0  0  0  0  0  0  0
   -1.4470   25.0430  -26.3760 C   0  0  0  0  0  0  0  0  0  0  0  0
   -1.9830   24.2880  -27.5380 C   0  0  0  0  0  0  0  0  0  0  0  0
   -2.6670   24.8270  -28.6390 C   0  0  0  0  0  0  0  0  0  0  0  0
   -3.0410   23.8500  -29.5640 C   0  0  0  0  0  0  0  0  0  0  0  0
   -3.7100   24.0850  -30.7180 N   0  0  0  0  0  0  0  0  0  0  0  0
   -4.0180   23.0430  -31.5430 C   0  0  0  0  0  0  0  0  0  0  0  0
   -3.6630   21.7530  -31.2170 N   0  0  0  0  0  0  0  0  0  0  0  0
   -4.0190   20.6810  -32.1120 C   0  0  0  0  0  0  0  0  0  0  0  0
   -3.0860   20.2180  -33.0760 C   0  0  0  0  0  0  0  0  0  0  0  0
   -3.4250   19.1820  -33.9660 C   0  0  0  0  0  0  0  0  0  0  0  0
   -4.7010   18.6290  -33.8680 C   0  0  0  0  0  0  0  0  0  0  0  0
   -5.2260   17.6560  -34.6310 N   0  0  0  0  0  0  0  0  0  0  0  0
   -6.4910   17.4740  -34.1870 C   0  0  0  0  0  0  0  0  0  0  0  0
   -6.7600   18.3340  -33.1250 C   0  0  0  0  0  0  0  0  0  0  0  0
   -8.0720   18.4940  -32.4150 C   0  0  0  0  0  0  0  0  0  0  0  0
   -8.6980   19.8660  -32.6960 C   0  0  0  0  0  0  0  0  0  0  0  0
   -8.2840   20.8680  -31.6880 N   0  0  0  0  0  0  0  0  0  0  0  0
   -9.4500   21.3130  -30.9070 C   0  0  0  0  0  0  0  0  0  0  0  0
   -7.6490   22.0340  -32.3280 C   0  0  0  0  0  0  0  0  0  0  0  0
   -5.6070   19.0710  -32.9400 C   0  0  0  0  0  0  0  0  0  0  0  0
   -5.3060   20.0990  -32.0490 C   0  0  0  0  0  0  0  0  0  0  0  0
   -2.9780   21.5030  -30.0510 C   0  0  0  0  0  0  0  0  0  0  0  0
   -2.6160   20.3360  -29.7390 O   0  0  0  0  0  0  0  0  0  0  0  0
   -2.6720   22.5730  -29.2190 C   0  0  0  0  0  0  0  0  0  0  0  0
   -1.8640   22.6050  -27.7490 S   0  0  0  0  0  0  0  0  0  0  0  0
   -1.5410   26.4460  -26.3150 C   0  0  0  0  0  0  0  0  0  0  0  0
   -1.0320   27.1460  -25.2160 C   0  0  0  0  0  0  0  0  0  0  0  0
   -0.2386   26.7096  -22.0511 H   0  0  0  0  0  0  0  0  0  0  0  0
    1.2006   27.2308  -22.9912 H   0  0  0  0  0  0  0  0  0  0  0  0
   -0.2857   28.2396  -22.9912 H   0  0  0  0  0  0  0  0  0  0  0  0
    0.1467   24.5153  -23.3827 H   0  0  0  0  0  0  0  0  0  0  0  0
   -0.7491   23.2635  -25.3387 H   0  0  0  0  0  0  0  0  0  0  0  0
   -2.8840   25.8986  -28.7596 H   0  0  0  0  0  0  0  0  0  0  0  0
   -4.5576   23.2360  -32.4819 H   0  0  0  0  0  0  0  0  0  0  0  0
   -2.0864   20.6742  -33.1281 H   0  0  0  0  0  0  0  0  0  0  0  0
   -2.7058   18.8199  -34.7154 H   0  0  0  0  0  0  0  0  0  0  0  0
   -4.7630   17.1520  -35.4190 H   0  0  0  0  0  0  0  0  0  0  0  0
   -7.2055   16.7498  -34.6053 H   0  0  0  0  0  0  0  0  0  0  0  0
   -8.7622   17.7090  -32.7576 H   0  0  0  0  0  0  0  0  0  0  0  0
   -7.8919   18.4112  -31.3330 H   0  0  0  0  0  0  0  0  0  0  0  0
   -8.3785   20.2075  -33.6916 H   0  0  0  0  0  0  0  0  0  0  0  0
   -9.7921   19.7620  -32.6501 H   0  0  0  0  0  0  0  0  0  0  0  0
   -9.2264   21.2277  -29.8334 H   0  0  0  0  0  0  0  0  0  0  0  0
   -9.6771   22.3610  -31.1521 H   0  0  0  0  0  0  0  0  0  0  0  0
  -10.3176   20.6828  -31.1521 H   0  0  0  0  0  0  0  0  0  0  0  0
   -7.2757   22.7195  -31.5530 H   0  0  0  0  0  0  0  0  0  0  0  0
   -6.8100   21.6968  -32.9543 H   0  0  0  0  0  0  0  0  0  0  0  0
   -8.3875   22.5559  -32.9543 H   0  0  0  0  0  0  0  0  0  0  0  0
   -6.0490   20.4481  -31.3169 H   0  0  0  0  0  0  0  0  0  0  0  0
   -2.0188   26.9968  -27.1386 H   0  0  0  0  0  0  0  0  0  0  0  0
   -1.1220   28.2416  -25.1764 H   0  0  0  0  0  0  0  0  0  0  0  0
  1  2  1  0
  2  3  2  0
  3  4  1  0
  4  5  2  0
  5  6  1  0
  6  7  2  0
  7  8  1  0
  8  9  1  0
  9 10  2  0
 10 11  1  0
 11 12  1  0
 12 13  2  0
 13 14  1  0
 14 15  2  0
 15 16  1  0
 16 17  1  0
 17 18  2  0
 18 19  1  0
 19 20  1  0
 20 21  1  0
 21 22  1  0
 21 23  1  0
 18 24  1  0
 24 25  2  0
 11 26  1  0
 26 27  2  0
 26 28  1  0
 28 29  1  0
  5 30  1  0
 30 31  2  0
 31  2  1  0
 29  6  1  0
 28  8  2  0
 25 12  1  0
 24 15  1  0
  1 32  1  0
  1 33  1  0
  1 34  1  0
  3 35  1  0
  4 36  1  0
  7 37  1  0
 10 38  1  0
 13 39  1  0
 14 40  1  0
 16 41  1  0
 17 42  1  0
 19 43  1  0
 19 44  1  0
 20 45  1  0
 20 46  1  0
 22 47  1  0
 22 48  1  0
 22 49  1  0
 23 50  1  0
 23 51  1  0
 23 52  1  0
 25 53  1  0
 30 54  1  0
 31 55  1  0
M  END
>  <UniqueID>  (35) 
35

>  <SMILES>  (35) 
Cc1ccc(-c2cc3ncn(-c4ccc5[nH]cc(CCN(C)C)c5c4)c(=O)c3s2)cc1

>  <Energy>  (35) 
134.0024115075038

>  <Genealogy>  (35) 
Cc1ccc(-c2cc3ncn(-c4ccc5[nH]cc(CCN(C)C)c5c4)c(=O)c3s2)cc1 (3D coordinates assigned)
Cc1ccc(-c2cc3ncn(-c4ccc5[nH]cc(CCN(C)C)c5c4)c(=O)c3s2)cc1 (optimized conformer: 134.0024115075038 kcal/mol)

>  <smiles>  (35) 
Cc1ccc(-c2cc3ncn(-c4ccc5[nH]cc(CCN(C)C)c5c4)c(=O)c3s2)cc1

>  <score_type>  (35) 
oracle

>  <origin>  (35) 
adg

>  <m_score__min__energy>  (35) 
-9.1400000000000006

>  <m_primary>  (35) 
energy

$$$$
35:0
     RDKit          3D

 35 36  0  0  0  0  0  0  0  0999 V2000
   -6.5010   17.1280  -32.8420 C   0  0  0  0  0  0  0  0  0  0  0  0
   -5.4570   18.1980  -32.5290 C   0  0  0  0  0  0  0  0  0  0  0  0
   -5.0690   18.9380  -33.7480 N   0  0  0  0  0  0  0  0  0  0  0  0
   -5.4360   18.1970  -34.9670 C   0  0  0  0  0  0  0  0  0  0  0  0
   -3.6590   19.4060  -33.7680 C   0  0  0  0  0  0  0  0  0  0  0  0
   -3.3900   20.7130  -32.9830 C   0  0  0  0  0  0  0  0  0  0  0  0
   -4.4010   21.7360  -33.2540 N   0  0  0  0  0  0  0  0  0  0  0  0
   -5.6190   21.8670  -32.5050 C   0  0  0  0  0  0  0  0  0  0  0  0
   -6.6090   21.0150  -32.5960 O   0  0  0  0  0  0  0  0  0  0  0  0
   -7.5530   21.4440  -31.7850 C   0  0  0  0  0  0  0  0  0  0  0  0
   -8.8550   20.7350  -31.5830 C   0  0  0  0  0  0  0  0  0  0  0  0
   -9.2370   19.7930  -32.7140 C   0  0  0  0  0  0  0  0  0  0  0  0
   -8.7360   19.2310  -31.3940 C   0  0  0  0  0  0  0  0  0  0  0  0
   -7.2160   22.5790  -31.1330 N   0  0  0  0  0  0  0  0  0  0  0  0
   -5.9810   22.8470  -31.5980 C   0  0  0  0  0  0  0  0  0  0  0  0
   -5.2220   23.9950  -31.1820 C   0  0  0  0  0  0  0  0  0  0  0  0
   -4.6090   24.9170  -30.8440 N   0  0  0  0  0  0  0  0  0  0  0  0
   -6.9000   16.7190  -31.9021 H   0  0  0  0  0  0  0  0  0  0  0  0
   -7.3203   17.5744  -33.4247 H   0  0  0  0  0  0  0  0  0  0  0  0
   -6.0346   16.3200  -33.4247 H   0  0  0  0  0  0  0  0  0  0  0  0
   -5.8759   18.9051  -31.7979 H   0  0  0  0  0  0  0  0  0  0  0  0
   -4.5626   17.7038  -32.1217 H   0  0  0  0  0  0  0  0  0  0  0  0
   -5.9083   17.2435  -34.6882 H   0  0  0  0  0  0  0  0  0  0  0  0
   -6.1417   18.7957  -35.5615 H   0  0  0  0  0  0  0  0  0  0  0  0
   -4.5321   17.9985  -35.5615 H   0  0  0  0  0  0  0  0  0  0  0  0
   -3.0306   18.6133  -33.3358 H   0  0  0  0  0  0  0  0  0  0  0  0
   -3.4241   19.6263  -34.8198 H   0  0  0  0  0  0  0  0  0  0  0  0
   -3.3935   20.4873  -31.9064 H   0  0  0  0  0  0  0  0  0  0  0  0
   -2.4147   21.1069  -33.3050 H   0  0  0  0  0  0  0  0  0  0  0  0
   -4.2550   22.4190  -34.0310 H   0  0  0  0  0  0  0  0  0  0  0  0
   -9.3561   21.5505  -31.0408 H   0  0  0  0  0  0  0  0  0  0  0  0
  -10.2932   19.6735  -32.9972 H   0  0  0  0  0  0  0  0  0  0  0  0
   -8.9420   19.6833  -33.7680 H   0  0  0  0  0  0  0  0  0  0  0  0
   -9.4296   18.7046  -30.7218 H   0  0  0  0  0  0  0  0  0  0  0  0
   -7.9281   18.5461  -31.0970 H   0  0  0  0  0  0  0  0  0  0  0  0
  1  2  1  0
  2  3  1  0
  3  4  1  0
  3  5  1  0
  5  6  1  0
  6  7  1  0
  7  8  1  0
  8  9  1  0
  9 10  1  0
 10 11  1  0
 11 12  1  0
 12 13  1  0
 10 14  2  0
 14 15  1  0
 15 16  1  0
 16 17  3  0
 15  8  2  0
 13 11  1  0
  1 18  1  0
  1 19  1  0
  1 20  1  0
  2 21  1  0
  2 22  1  0
  4 23  1  0
  4 24  1  0
  4 25  1  0
  5 26  1  0
  5 27  1  0
  6 28  1  0
  6 29  1  0
  7 30  1  0
 11 31  1  0
 12 32  1  0
 12 33  1  0
 13 34  1  0
 13 35  1  0
M  END
>  <UniqueID>  (36) 
36

>  <SMILES>  (36) 
CCN(C)CCNc1oc(C2CC2)nc1C#N

>  <Energy>  (36) 
328.9592389853869

>  <Genealogy>  (36) 
CCN(C)CCNc1oc(C2CC2)nc1C#N (3D coordinates assigned)
CCN(C)CCNc1oc(C2CC2)nc1C#N (nonaromatic ring conformer: 328.9592389853869 kcal/mol)

>  <smiles>  (36) 
CCN(C)CCNc1oc(C2CC2)nc1C#N

>  <score_type>  (36) 
oracle

>  <origin>  (36) 
adg

>  <m_score__min__energy>  (36) 
-5.8700000000000001

>  <m_primary>  (36) 
energy

$$$$
36:0
     RDKit          3D

 49 50  0  0  0  0  0  0  0  0999 V2000
   -8.3380   23.0140  -31.9310 C   0  0  0  0  0  0  0  0  0  0  0  0
   -8.9660   21.7430  -32.0600 O   0  0  0  0  0  0  0  0  0  0  0  0
   -8.2800   20.5390  -32.2920 C   0  0  0  0  0  0  0  0  0  0  0  0
   -8.7620   19.3730  -31.6850 C   0  0  0  0  0  0  0  0  0  0  0  0
   -8.1170   18.1500  -31.8870 C   0  0  0  0  0  0  0  0  0  0  0  0
   -6.9850   18.0780  -32.7010 C   0  0  0  0  0  0  0  0  0  0  0  0
   -6.4920   19.2340  -33.3340 C   0  0  0  0  0  0  0  0  0  0  0  0
   -5.2560   19.1580  -34.1990 C   0  0  0  0  0  0  0  0  0  0  0  0
   -3.9370   19.3400  -33.4160 C   0  0  0  0  0  0  0  0  0  0  0  0
   -3.4240   20.7340  -33.4530 N   0  0  2  0  0  0  0  0  0  0  0  0
   -1.9980   20.7610  -33.0740 C   0  0  0  0  0  0  0  0  0  0  0  0
   -4.1780   21.5990  -32.5600 C   0  0  0  0  0  0  0  0  0  0  0  0
   -4.4720   22.7380  -32.9070 O   0  0  0  0  0  0  0  0  0  0  0  0
   -4.6050   21.1280  -31.1880 C   0  0  0  0  0  0  0  0  0  0  0  0
   -4.1530   22.0550  -30.1290 N   0  0  0  0  0  0  0  0  0  0  0  0
   -2.7910   22.5710  -30.3960 C   0  0  0  0  0  0  0  0  0  0  0  0
   -2.5650   23.9350  -29.7190 C   0  0  0  0  0  0  0  0  0  0  0  0
   -3.4680   24.9470  -30.1400 O   0  0  0  0  0  0  0  0  0  0  0  0
   -4.7130   24.4470  -30.6120 C   0  0  2  0  0  0  0  0  0  0  0  0
   -5.7780   25.5250  -30.4220 C   0  0  0  0  0  0  0  0  0  0  0  0
   -5.1390   23.1400  -29.9070 C   0  0  0  0  0  0  0  0  0  0  0  0
   -7.1310   20.4670  -33.1060 C   0  0  0  0  0  0  0  0  0  0  0  0
   -8.2179   23.2571  -30.8649 H   0  0  0  0  0  0  0  0  0  0  0  0
   -7.3502   22.9857  -32.4142 H   0  0  0  0  0  0  0  0  0  0  0  0
   -8.9606   23.7814  -32.4142 H   0  0  0  0  0  0  0  0  0  0  0  0
   -9.6550   19.4200  -31.0444 H   0  0  0  0  0  0  0  0  0  0  0  0
   -8.5026   17.2406  -31.4029 H   0  0  0  0  0  0  0  0  0  0  0  0
   -6.4765   17.1138  -32.8481 H   0  0  0  0  0  0  0  0  0  0  0  0
   -5.2355   18.1736  -34.6894 H   0  0  0  0  0  0  0  0  0  0  0  0
   -5.3178   19.9858  -34.9208 H   0  0  0  0  0  0  0  0  0  0  0  0
   -4.1112   19.0589  -32.3669 H   0  0  0  0  0  0  0  0  0  0  0  0
   -3.1810   18.6998  -33.8942 H   0  0  0  0  0  0  0  0  0  0  0  0
   -3.4830   21.0960  -34.4340 H   0  0  0  0  0  0  0  0  0  0  0  0
   -1.9100   20.7627  -31.9775 H   0  0  0  0  0  0  0  0  0  0  0  0
   -1.4935   19.8722  -33.4810 H   0  0  0  0  0  0  0  0  0  0  0  0
   -1.5275   21.6682  -33.4810 H   0  0  0  0  0  0  0  0  0  0  0  0
   -5.7026   21.0611  -31.1592 H   0  0  0  0  0  0  0  0  0  0  0  0
   -4.1464   20.1453  -31.0036 H   0  0  0  0  0  0  0  0  0  0  0  0
   -2.0536   21.8525  -30.0086 H   0  0  0  0  0  0  0  0  0  0  0  0
   -2.6763   22.7002  -31.4823 H   0  0  0  0  0  0  0  0  0  0  0  0
   -2.6749   23.8040  -28.6324 H   0  0  0  0  0  0  0  0  0  0  0  0
   -1.5571   24.2691  -30.0063 H   0  0  0  0  0  0  0  0  0  0  0  0
   -4.5989   24.2001  -31.6778 H   0  0  0  0  0  0  0  0  0  0  0  0
   -5.9430   25.6920  -29.3474 H   0  0  0  0  0  0  0  0  0  0  0  0
   -5.4401   26.4609  -30.8909 H   0  0  0  0  0  0  0  0  0  0  0  0
   -6.7180   25.1985  -30.8909 H   0  0  0  0  0  0  0  0  0  0  0  0
   -5.2254   23.3286  -28.8267 H   0  0  0  0  0  0  0  0  0  0  0  0
   -6.1038   22.8202  -30.3277 H   0  0  0  0  0  0  0  0  0  0  0  0
   -6.7307   21.3822  -33.5667 H   0  0  0  0  0  0  0  0  0  0  0  0
  1  2  1  0
  2  3  1  0
  3  4  2  0
  4  5  1  0
  5  6  2  0
  6  7  1  0
  7  8  1  0
  8  9  1  0
  9 10  1  0
 10 11  1  0
 10 12  1  0
 12 13  2  0
 12 14  1  0
 14 15  1  0
 15 16  1  0
 16 17  1  0
 17 18  1  0
 18 19  1  0
 19 20  1  0
 19 21  1  0
  7 22  2  0
 22  3  1  0
 21 15  1  0
  1 23  1  0
  1 24  1  0
  1 25  1  0
  4 26  1  0
  5 27  1  0
  6 28  1  0
  8 29  1  0
  8 30  1  0
  9 31  1  0
  9 32  1  0
 10 33  1  6
 11 34  1  0
 11 35  1  0
 11 36  1  0
 14 37  1  0
 14 38  1  0
 16 39  1  0
 16 40  1  0
 17 41  1  0
 17 42  1  0
 19 43  1  6
 20 44  1  0
 20 45  1  0
 20 46  1  0
 21 47  1  0
 21 48  1  0
 22 49  1  0
M  CHG  1  10   1
M  END
>  <UniqueID>  (37) 
37

>  <SMILES>  (37) 
COc1cccc(CC[N@H+](C)C(=O)CN2CCO[C@H](C)C2)c1

>  <Energy>  (37) 
56.976124444957776

>  <Genealogy>  (37) 
COc1cccc(CC[NH+](C)C(=O)CN2CCOC(C)C2)c1 (protonated)
COc1cccc(CC[N@H+](C)C(=O)CN2CCO[C@H](C)C2)c1 (chirality)
COc1cccc(CC[N@H+](C)C(=O)CN2CCO[C@H](C)C2)c1 (3D coordinates assigned)
COc1cccc(CC[N@H+](C)C(=O)CN2CCO[C@H](C)C2)c1 (nonaromatic ring conformer: 56.976124444957776 kcal/mol)

>  <smiles>  (37) 
COc1cccc(CCN(C)C(=O)CN2CCOC(C)C2)c1

>  <score_type>  (37) 
oracle

>  <origin>  (37) 
adg

>  <m_score__min__energy>  (37) 
-7.21

>  <m_primary>  (37) 
energy

$$$$
