0:0
     RDKit          3D

 56 60  0  0  0  0  0  0  0  0999 V2000
   -1.7260   12.8120  -34.3520 C   0  0  0  0  0  0  0  0  0  0  0  0
   -0.7920   13.3630  -35.3500 N   0  0  0  0  0  0  0  0  0  0  0  0
   -0.0110   14.5040  -34.8050 C   0  0  0  0  0  0  0  0  0  0  0  0
   -0.4750   15.8810  -35.3150 C   0  0  0  0  0  0  0  0  0  0  0  0
   -1.9180   15.8680  -35.5730 N   0  0  0  0  0  0  0  0  0  0  0  0
   -2.7980   16.8250  -34.9510 C   0  0  0  0  0  0  0  0  0  0  0  0
   -4.1860   16.7500  -35.1490 C   0  0  0  0  0  0  0  0  0  0  0  0
   -5.0380   17.6870  -34.5590 C   0  0  0  0  0  0  0  0  0  0  0  0
   -4.5210   18.7240  -33.7630 C   0  0  0  0  0  0  0  0  0  0  0  0
   -5.4250   19.7200  -33.1370 C   0  0  0  0  0  0  0  0  0  0  0  0
   -4.9160   20.8440  -32.5630 N   0  0  0  0  0  0  0  0  0  0  0  0
   -5.7130   21.7800  -31.9820 C   0  0  0  0  0  0  0  0  0  0  0  0
   -5.1140   22.9520  -31.4130 N   0  0  0  0  0  0  0  0  0  0  0  0
   -5.7190   24.2600  -31.6760 C   0  0  0  0  0  0  0  0  0  0  0  0
   -5.2800   25.2520  -30.5960 C   0  0  0  0  0  0  0  0  0  0  0  0
   -3.8700   25.2740  -30.4760 O   0  0  0  0  0  0  0  0  0  0  0  0
   -3.4060   24.0160  -30.0210 C   0  0  0  0  0  0  0  0  0  0  0  0
   -3.6960   22.9210  -31.0530 C   0  0  0  0  0  0  0  0  0  0  0  0
   -7.1060   21.5790  -31.9520 C   0  0  0  0  0  0  0  0  0  0  0  0
   -7.9900   22.4760  -31.3240 C   0  0  0  0  0  0  0  0  0  0  0  0
   -9.3650   22.2210  -31.3280 C   0  0  0  0  0  0  0  0  0  0  0  0
   -9.8670   21.0730  -31.9470 C   0  0  0  0  0  0  0  0  0  0  0  0
   -8.9950   20.1680  -32.5590 C   0  0  0  0  0  0  0  0  0  0  0  0
   -7.6180   20.4120  -32.5580 C   0  0  0  0  0  0  0  0  0  0  0  0
   -6.7700   19.5190  -33.1320 N   0  0  0  0  0  0  0  0  0  0  0  0
   -3.1290   18.8030  -33.5750 C   0  0  0  0  0  0  0  0  0  0  0  0
   -2.2770   17.8660  -34.1660 C   0  0  0  0  0  0  0  0  0  0  0  0
   -2.4580   14.8460  -36.4770 C   0  0  0  0  0  0  0  0  0  0  0  0
   -1.4720   13.6750  -36.6260 C   0  0  0  0  0  0  0  0  0  0  0  0
   -1.3535   13.0318  -33.3406 H   0  0  0  0  0  0  0  0  0  0  0  0
   -2.7172   13.2701  -34.4853 H   0  0  0  0  0  0  0  0  0  0  0  0
   -1.8045   11.7229  -34.4853 H   0  0  0  0  0  0  0  0  0  0  0  0
   -0.1013   14.4927  -33.7088 H   0  0  0  0  0  0  0  0  0  0  0  0
    1.0264   14.3713  -35.1459 H   0  0  0  0  0  0  0  0  0  0  0  0
   -0.2489   16.6442  -34.5558 H   0  0  0  0  0  0  0  0  0  0  0  0
    0.0539   16.1127  -36.2513 H   0  0  0  0  0  0  0  0  0  0  0  0
   -4.6058   15.9475  -35.7733 H   0  0  0  0  0  0  0  0  0  0  0  0
   -6.1238   17.6126  -34.7189 H   0  0  0  0  0  0  0  0  0  0  0  0
   -5.3929   24.6232  -32.6618 H   0  0  0  0  0  0  0  0  0  0  0  0
   -6.8149   24.1661  -31.6638 H   0  0  0  0  0  0  0  0  0  0  0  0
   -5.6346   26.2579  -30.8649 H   0  0  0  0  0  0  0  0  0  0  0  0
   -5.7106   24.9383  -29.6336 H   0  0  0  0  0  0  0  0  0  0  0  0
   -2.3207   24.0724  -29.8508 H   0  0  0  0  0  0  0  0  0  0  0  0
   -3.9287   23.7655  -29.0861 H   0  0  0  0  0  0  0  0  0  0  0  0
   -3.0858   23.0936  -31.9518 H   0  0  0  0  0  0  0  0  0  0  0  0
   -3.4483   21.9387  -30.6242 H   0  0  0  0  0  0  0  0  0  0  0  0
   -7.5994   23.3778  -30.8299 H   0  0  0  0  0  0  0  0  0  0  0  0
  -10.0544   22.9270  -30.8419 H   0  0  0  0  0  0  0  0  0  0  0  0
  -10.9501   20.8813  -31.9526 H   0  0  0  0  0  0  0  0  0  0  0  0
   -9.3923   19.2630  -33.0419 H   0  0  0  0  0  0  0  0  0  0  0  0
   -2.7074   19.6096  -32.9572 H   0  0  0  0  0  0  0  0  0  0  0  0
   -1.1902   17.9446  -34.0151 H   0  0  0  0  0  0  0  0  0  0  0  0
   -3.4074   14.4688  -36.0693 H   0  0  0  0  0  0  0  0  0  0  0  0
   -2.6202   15.2993  -37.4660 H   0  0  0  0  0  0  0  0  0  0  0  0
   -2.0244   12.7850  -36.9618 H   0  0  0  0  0  0  0  0  0  0  0  0
   -0.7054   13.9650  -37.3597 H   0  0  0  0  0  0  0  0  0  0  0  0
  1  2  1  0
  2  3  1  0
  3  4  1  0
  4  5  1  0
  5  6  1  0
  6  7  2  0
  7  8  1  0
  8  9  2  0
  9 10  1  0
 10 11  2  0
 11 12  1  0
 12 13  1  0
 13 14  1  0
 14 15  1  0
 15 16  1  0
 16 17  1  0
 17 18  1  0
 12 19  2  0
 19 20  1  0
 20 21  2  0
 21 22  1  0
 22 23  2  0
 23 24  1  0
 24 25  2  0
  9 26  1  0
 26 27  2  0
  5 28  1  0
 28 29  1  0
 29  2  1  0
 27  6  1  0
 25 10  1  0
 18 13  1  0
 24 19  1  0
  1 30  1  0
  1 31  1  0
  1 32  1  0
  3 33  1  0
  3 34  1  0
  4 35  1  0
  4 36  1  0
  7 37  1  0
  8 38  1  0
 14 39  1  0
 14 40  1  0
 15 41  1  0
 15 42  1  0
 17 43  1  0
 17 44  1  0
 18 45  1  0
 18 46  1  0
 20 47  1  0
 21 48  1  0
 22 49  1  0
 23 50  1  0
 26 51  1  0
 27 52  1  0
 28 53  1  0
 28 54  1  0
 29 55  1  0
 29 56  1  0
M  END
>  <UniqueID>  (1) 
1

>  <SMILES>  (1) 
CN1CCN(c2ccc(-c3nc(N4CCOCC4)c4ccccc4n3)cc2)CC1

>  <Energy>  (1) 
82.59157564573448

>  <Genealogy>  (1) 
CN1CCN(c2ccc(-c3nc(N4CCOCC4)c4ccccc4n3)cc2)CC1 (3D coordinates assigned)
CN1CCN(c2ccc(-c3nc(N4CCOCC4)c4ccccc4n3)cc2)CC1 (nonaromatic ring conformer: 82.59157564573448 kcal/mol)

>  <smiles>  (1) 
CN1CCN(c2ccc(-c3nc(N4CCOCC4)c4ccccc4n3)cc2)CC1

>  <score_type>  (1) 
oracle

>  <origin>  (1) 
adg

>  <m_score__min__energy>  (1) 
-8.9800000000000004

>  <m_primary>  (1) 
energy

$$$$
1:0
     RDKit          3D

 40 42  0  0  0  0  0  0  0  0999 V2000
   -5.3030   25.5120  -30.5020 C   0  0  0  0  0  0  0  0  0  0  0  0
   -3.8890   25.3450  -30.5150 O   0  0  0  0  0  0  0  0  0  0  0  0
   -3.2340   24.1730  -30.1140 C   0  0  0  0  0  0  0  0  0  0  0  0
   -2.2180   24.1500  -29.1270 C   0  0  0  0  0  0  0  0  0  0  0  0
   -1.5960   22.9330  -28.7670 C   0  0  0  0  0  0  0  0  0  0  0  0
   -1.9760   21.7280  -29.3820 C   0  0  0  0  0  0  0  0  0  0  0  0
   -2.9750   21.7820  -30.3500 C   0  0  0  0  0  0  0  0  0  0  0  0
   -3.5460   20.7860  -31.1070 C   0  0  0  0  0  0  0  0  0  0  0  0
   -4.4930   21.4480  -31.8930 C   0  0  0  0  0  0  0  0  0  0  0  0
   -5.4040   20.8470  -32.8900 C   0  0  0  0  0  0  0  0  0  0  0  0
   -4.8960   20.1700  -33.8260 O   0  0  0  0  0  0  0  0  0  0  0  0
   -6.8440   21.0330  -32.8360 N   0  0  2  0  0  0  0  0  0  0  0  0
   -7.1700   22.4380  -32.4490 C   0  0  0  0  0  0  0  0  0  0  0  0
   -7.4870   22.5860  -30.9540 C   0  0  0  0  0  0  0  0  0  0  0  0
   -8.6980   21.7250  -30.5600 C   0  0  0  0  0  0  0  0  0  0  0  0
   -8.8330   20.4570  -31.4220 C   0  0  0  0  0  0  0  0  0  0  0  0
   -7.4590   19.9970  -31.9510 C   0  0  1  0  0  0  0  0  0  0  0  0
   -7.6050   18.6520  -32.6820 C   0  0  0  0  0  0  0  0  0  0  0  0
   -4.4870   22.7430  -31.6250 O   0  0  0  0  0  0  0  0  0  0  0  0
   -3.5820   22.9560  -30.7020 C   0  0  0  0  0  0  0  0  0  0  0  0
   -5.6577   25.5539  -29.4616 H   0  0  0  0  0  0  0  0  0  0  0  0
   -5.5665   26.4475  -31.0172 H   0  0  0  0  0  0  0  0  0  0  0  0
   -5.7772   24.6636  -31.0172 H   0  0  0  0  0  0  0  0  0  0  0  0
   -1.9110   25.0860  -28.6373 H   0  0  0  0  0  0  0  0  0  0  0  0
   -0.8082   22.9291  -27.9993 H   0  0  0  0  0  0  0  0  0  0  0  0
   -1.5004   20.7748  -29.1079 H   0  0  0  0  0  0  0  0  0  0  0  0
   -3.3106   19.7115  -31.0963 H   0  0  0  0  0  0  0  0  0  0  0  0
   -7.2370   20.9180  -33.7980 H   0  0  0  0  0  0  0  0  0  0  0  0
   -6.3084   23.0778  -32.6904 H   0  0  0  0  0  0  0  0  0  0  0  0
   -8.0691   22.7352  -33.0088 H   0  0  0  0  0  0  0  0  0  0  0  0
   -6.6127   22.2670  -30.3676 H   0  0  0  0  0  0  0  0  0  0  0  0
   -7.7248   23.6402  -30.7488 H   0  0  0  0  0  0  0  0  0  0  0  0
   -8.5883   21.4246  -29.5075 H   0  0  0  0  0  0  0  0  0  0  0  0
   -9.6018   22.3316  -30.7187 H   0  0  0  0  0  0  0  0  0  0  0  0
   -9.2709   19.6529  -30.8123 H   0  0  0  0  0  0  0  0  0  0  0  0
   -9.4799   20.6859  -32.2817 H   0  0  0  0  0  0  0  0  0  0  0  0
   -6.7810   19.8594  -31.0958 H   0  0  0  0  0  0  0  0  0  0  0  0
   -7.6930   17.8412  -31.9439 H   0  0  0  0  0  0  0  0  0  0  0  0
   -8.5061   18.6733  -33.3125 H   0  0  0  0  0  0  0  0  0  0  0  0
   -6.7203   18.4794  -33.3125 H   0  0  0  0  0  0  0  0  0  0  0  0
  1  2  1  0
  2  3  1  0
  3  4  2  0
  4  5  1  0
  5  6  2  0
  6  7  1  0
  7  8  1  0
  8  9  2  0
  9 10  1  0
 10 11  2  0
 10 12  1  0
 12 13  1  0
 13 14  1  0
 14 15  1  0
 15 16  1  0
 16 17  1  0
 17 18  1  0
  9 19  1  0
 19 20  1  0
 20  3  1  0
 20  7  2  0
 17 12  1  0
  1 21  1  0
  1 22  1  0
  1 23  1  0
  4 24  1  0
  5 25  1  0
  6 26  1  0
  8 27  1  0
 12 28  1  6
 13 29  1  0
 13 30  1  0
 14 31  1  0
 14 32  1  0
 15 33  1  0
 15 34  1  0
 16 35  1  0
 16 36  1  0
 17 37  1  1
 18 38  1  0
 18 39  1  0
 18 40  1  0
M  CHG  1  12   1
M  END
>  <UniqueID>  (2) 
2

>  <SMILES>  (2) 
COc1cccc2cc(C(=O)[N@@H+]3CCCC[C@H]3C)oc12

>  <Energy>  (2) 
81.48231753800744

>  <Genealogy>  (2) 
COc1cccc2cc(C(=O)[NH+]3CCCCC3C)oc12 (protonated)
COc1cccc2cc(C(=O)[N@@H+]3CCCC[C@H]3C)oc12 (chirality)
COc1cccc2cc(C(=O)[N@@H+]3CCCC[C@H]3C)oc12 (3D coordinates assigned)
COc1cccc2cc(C(=O)[N@@H+]3CCCC[C@H]3C)oc12 (nonaromatic ring conformer: 81.48231753800744 kcal/mol)

>  <smiles>  (2) 
COc1cccc2cc(C(=O)N3CCCCC3C)oc12

>  <score_type>  (2) 
oracle

>  <origin>  (2) 
adg

>  <m_score__min__energy>  (2) 
-7.5599999999999996

>  <m_primary>  (2) 
energy

$$$$
2:0
     RDKit          3D

 42 42  0  0  0  0  0  0  0  0999 V2000
   -9.6194   21.6177  -30.3499 H   0  0  0  0  0  0  0  0  0  0  0  0
   -8.9800   21.4490  -31.2290 C   0  0  0  0  0  0  0  0  0  0  0  0
   -8.0050   22.5020  -31.5680 C   0  0  0  0  0  0  0  0  0  0  0  0
   -8.3840   23.6130  -32.0320 O   0  0  0  0  0  0  0  0  0  0  0  0
   -6.6440   22.2280  -31.4170 O   0  0  0  0  0  0  0  0  0  0  0  0
   -5.6470   22.7920  -32.2650 C   0  0  0  0  0  0  0  0  0  0  0  0
   -6.0126   23.7449  -32.6753 H   0  0  0  0  0  0  0  0  0  0  0  0
   -5.4312   22.0938  -33.0871 H   0  0  0  0  0  0  0  0  0  0  0  0
   -4.3680   23.0410  -31.4640 C   0  0  0  0  0  0  0  0  0  0  0  0
   -3.5028   22.9739  -32.1400 H   0  0  0  0  0  0  0  0  0  0  0  0
   -4.3012   22.2818  -30.6708 H   0  0  0  0  0  0  0  0  0  0  0  0
   -4.3830   24.3810  -30.8300 N   0  0  0  0  0  0  0  0  0  0  0  0
   -3.9730   24.3240  -29.4020 C   0  0  0  0  0  0  0  0  0  0  0  0
   -4.5480   25.0640  -28.8260 H   0  0  0  0  0  0  0  0  0  0  0  0
   -2.8992   24.5484  -29.3204 H   0  0  0  0  0  0  0  0  0  0  0  0
   -4.2430   22.9290  -28.8490 C   0  0  0  0  0  0  0  0  0  0  0  0
   -4.2365   22.9628  -27.7495 H   0  0  0  0  0  0  0  0  0  0  0  0
   -5.2254   22.5795  -29.1993 H   0  0  0  0  0  0  0  0  0  0  0  0
   -3.4619   22.2382  -29.1993 H   0  0  0  0  0  0  0  0  0  0  0  0
   -5.7080   25.0190  -30.9980 C   0  0  0  0  0  0  0  0  0  0  0  0
   -5.6360   25.8006  -31.7686 H   0  0  0  0  0  0  0  0  0  0  0  0
   -6.4331   24.2483  -31.2982 H   0  0  0  0  0  0  0  0  0  0  0  0
   -6.1810   25.6500  -29.6880 C   0  0  0  0  0  0  0  0  0  0  0  0
   -5.7615   25.0904  -28.8390 H   0  0  0  0  0  0  0  0  0  0  0  0
   -5.8422   26.6955  -29.6413 H   0  0  0  0  0  0  0  0  0  0  0  0
   -7.2795   25.6181  -29.6413 H   0  0  0  0  0  0  0  0  0  0  0  0
   -9.1520   20.3020  -31.9040 C   0  0  0  0  0  0  0  0  0  0  0  0
  -10.1827   19.9383  -32.0282 H   0  0  0  0  0  0  0  0  0  0  0  0
   -8.0690   19.4880  -32.4940 C   0  0  0  0  0  0  0  0  0  0  0  0
   -7.8080   18.1840  -32.0400 C   0  0  0  0  0  0  0  0  0  0  0  0
   -8.4411   17.7395  -31.2580 H   0  0  0  0  0  0  0  0  0  0  0  0
   -6.7470   17.4490  -32.5780 C   0  0  0  0  0  0  0  0  0  0  0  0
   -6.5508   16.4289  -32.2162 H   0  0  0  0  0  0  0  0  0  0  0  0
   -5.9290   18.0040  -33.5780 C   0  0  0  0  0  0  0  0  0  0  0  0
   -4.7550   17.2300  -34.1230 C   0  0  0  0  0  0  0  0  0  0  0  0
   -4.8980   15.8790  -33.8570 F   0  0  0  0  0  0  0  0  0  0  0  0
   -4.6830   17.4160  -35.4900 F   0  0  0  0  0  0  0  0  0  0  0  0
   -3.5730   17.6620  -33.5460 F   0  0  0  0  0  0  0  0  0  0  0  0
   -6.1580   19.3290  -33.9860 C   0  0  0  0  0  0  0  0  0  0  0  0
   -5.4988   19.7913  -34.7355 H   0  0  0  0  0  0  0  0  0  0  0  0
   -7.2180   20.0640  -33.4460 C   0  0  0  0  0  0  0  0  0  0  0  0
   -7.3847   21.1016  -33.7710 H   0  0  0  0  0  0  0  0  0  0  0  0
  1  2  1  0
  2  3  1  0
  3  4  2  0
  3  5  1  0
  5  6  1  0
  6  7  1  0
  6  8  1  0
  6  9  1  0
  9 10  1  0
  9 11  1  0
  9 12  1  0
 12 13  1  0
 13 14  1  0
 13 15  1  0
 13 16  1  0
 16 17  1  0
 16 18  1  0
 16 19  1  0
 12 20  1  0
 20 21  1  0
 20 22  1  0
 20 23  1  0
 23 24  1  0
 23 25  1  0
 23 26  1  0
  2 27  2  0
 27 28  1  0
 27 29  1  0
 29 30  2  0
 30 31  1  0
 30 32  1  0
 32 33  1  0
 32 34  2  0
 34 35  1  0
 35 36  1  0
 35 37  1  0
 35 38  1  0
 34 39  1  0
 39 40  1  0
 39 41  2  0
 41 42  1  0
 41 29  1  0
M  END
>  <UniqueID>  (3) 
3

>  <SMILES>  (3) 
CCN(CC)CCOC(=O)/C=C\c1ccc(C(F)(F)F)cc1

>  <Energy>  (3) 
42.90693909755055

>  <Genealogy>  (3) 
CCN(CC)CCOC(=O)/C=C\c1ccc(C(F)(F)F)cc1 (cis-trans isomerization)
CCN(CC)CCOC(=O)/C=C\c1ccc(C(F)(F)F)cc1 (3D coordinates assigned)
CCN(CC)CCOC(=O)/C=C\c1ccc(C(F)(F)F)cc1 (optimized conformer: 42.90693909755055 kcal/mol)

>  <smiles>  (3) 
CCN(CC)CCOC(=O)C=Cc1ccc(C(F)(F)F)cc1

>  <score_type>  (3) 
oracle

>  <origin>  (3) 
adg

>  <m_score__min__energy>  (3) 
-6.6900000000000004

>  <m_primary>  (3) 
energy

$$$$
3:0
     RDKit          3D

 63 67  0  0  0  0  0  0  0  0999 V2000
    4.3750   17.1620  -32.5580 C   0  0  0  0  0  0  0  0  0  0  0  0
    3.2350   16.3580  -32.8410 O   0  0  0  0  0  0  0  0  0  0  0  0
    2.2440   16.6920  -33.7750 C   0  0  0  0  0  0  0  0  0  0  0  0
    2.2760   16.0710  -35.0280 C   0  0  0  0  0  0  0  0  0  0  0  0
    1.3040   16.3640  -35.9880 C   0  0  0  0  0  0  0  0  0  0  0  0
    0.2850   17.2740  -35.7000 C   0  0  0  0  0  0  0  0  0  0  0  0
    0.2270   17.8980  -34.4450 C   0  0  0  0  0  0  0  0  0  0  0  0
   -0.8550   18.8650  -34.1490 C   0  0  0  0  0  0  0  0  0  0  0  0
   -2.0630   18.5370  -33.5570 C   0  0  0  0  0  0  0  0  0  0  0  0
   -2.8030   19.7090  -33.5840 C   0  0  0  0  0  0  0  0  0  0  0  0
   -4.1780   19.8930  -33.0600 C   0  0  0  0  0  0  0  0  0  0  0  0
   -4.7420   18.9520  -32.1810 C   0  0  0  0  0  0  0  0  0  0  0  0
   -6.0420   19.1240  -31.6960 C   0  0  0  0  0  0  0  0  0  0  0  0
   -6.7980   20.2320  -32.0900 C   0  0  0  0  0  0  0  0  0  0  0  0
   -8.4660   20.4570  -31.4650 S   0  0  0  0  0  0  0  0  0  0  0  0
   -8.3290   22.2680  -31.2270 C   0  0  0  0  0  0  0  0  0  0  0  0
   -7.2200   22.6560  -30.2370 C   0  0  0  0  0  0  0  0  0  0  0  0
   -5.9740   23.0560  -30.9280 N   0  0  0  0  0  0  0  0  0  0  0  0
   -6.0800   24.4220  -31.4990 C   0  0  0  0  0  0  0  0  0  0  0  0
   -5.3620   25.4650  -30.6210 C   0  0  0  0  0  0  0  0  0  0  0  0
   -3.9750   25.2050  -30.4490 O   0  0  0  0  0  0  0  0  0  0  0  0
   -3.6430   23.8230  -30.4990 C   0  0  0  0  0  0  0  0  0  0  0  0
   -4.7880   22.8970  -30.0540 C   0  0  0  0  0  0  0  0  0  0  0  0
   -6.2420   21.1820  -32.9530 C   0  0  0  0  0  0  0  0  0  0  0  0
   -4.9420   21.0130  -33.4380 C   0  0  0  0  0  0  0  0  0  0  0  0
   -2.0610   20.6770  -34.1580 N   0  0  0  0  0  0  0  0  0  0  0  0
   -0.8800   20.1780  -34.4860 N   0  0  0  0  0  0  0  0  0  0  0  0
    0.1780   20.9810  -35.0350 C   0  0  0  0  0  0  0  0  0  0  0  0
    1.4450   20.4330  -35.3010 C   0  0  0  0  0  0  0  0  0  0  0  0
    2.4480   21.2500  -35.8260 C   0  0  0  0  0  0  0  0  0  0  0  0
    2.1920   22.6020  -36.0600 C   0  0  0  0  0  0  0  0  0  0  0  0
    0.9330   23.1220  -35.7570 C   0  0  0  0  0  0  0  0  0  0  0  0
   -0.0340   22.3090  -35.2530 N   0  0  0  0  0  0  0  0  0  0  0  0
    1.2250   17.6220  -33.4940 C   0  0  0  0  0  0  0  0  0  0  0  0
    4.5002   17.2503  -31.4687 H   0  0  0  0  0  0  0  0  0  0  0  0
    5.2706   16.6946  -32.9933 H   0  0  0  0  0  0  0  0  0  0  0  0
    4.2353   18.1625  -32.9933 H   0  0  0  0  0  0  0  0  0  0  0  0
    3.0715   15.3473  -35.2590 H   0  0  0  0  0  0  0  0  0  0  0  0
    1.3417   15.8764  -36.9733 H   0  0  0  0  0  0  0  0  0  0  0  0
   -0.4759   17.5027  -36.4608 H   0  0  0  0  0  0  0  0  0  0  0  0
   -2.3686   17.5603  -33.1536 H   0  0  0  0  0  0  0  0  0  0  0  0
   -4.1561   18.0737  -31.8724 H   0  0  0  0  0  0  0  0  0  0  0  0
   -6.4710   18.3856  -31.0026 H   0  0  0  0  0  0  0  0  0  0  0  0
   -8.1115   22.7348  -32.1990 H   0  0  0  0  0  0  0  0  0  0  0  0
   -9.2838   22.6204  -30.8097 H   0  0  0  0  0  0  0  0  0  0  0  0
   -7.5713   23.4981  -29.6227 H   0  0  0  0  0  0  0  0  0  0  0  0
   -6.9963   21.7760  -29.6160 H   0  0  0  0  0  0  0  0  0  0  0  0
   -5.6253   24.4258  -32.5006 H   0  0  0  0  0  0  0  0  0  0  0  0
   -7.1455   24.6909  -31.5482 H   0  0  0  0  0  0  0  0  0  0  0  0
   -5.4751   26.4529  -31.0915 H   0  0  0  0  0  0  0  0  0  0  0  0
   -5.8248   25.4215  -29.6240 H   0  0  0  0  0  0  0  0  0  0  0  0
   -3.3720   23.5679  -31.5341 H   0  0  0  0  0  0  0  0  0  0  0  0
   -2.8106   23.6661  -29.7972 H   0  0  0  0  0  0  0  0  0  0  0  0
   -4.4445   21.8531  -30.1011 H   0  0  0  0  0  0  0  0  0  0  0  0
   -5.0737   23.1644  -29.0259 H   0  0  0  0  0  0  0  0  0  0  0  0
   -6.8288   22.0636  -33.2505 H   0  0  0  0  0  0  0  0  0  0  0  0
   -4.5127   21.7612  -34.1205 H   0  0  0  0  0  0  0  0  0  0  0  0
   -2.3310   21.6780  -34.2800 H   0  0  0  0  0  0  0  0  0  0  0  0
    1.6442   19.3705  -35.0974 H   0  0  0  0  0  0  0  0  0  0  0  0
    3.4382   20.8290  -36.0548 H   0  0  0  0  0  0  0  0  0  0  0  0
    2.9749   23.2512  -36.4791 H   0  0  0  0  0  0  0  0  0  0  0  0
    0.7228   24.1885  -35.9256 H   0  0  0  0  0  0  0  0  0  0  0  0
    1.2096   18.1370  -32.5221 H   0  0  0  0  0  0  0  0  0  0  0  0
  1  2  1  0
  2  3  1  0
  3  4  2  0
  4  5  1  0
  5  6  2  0
  6  7  1  0
  7  8  1  0
  8  9  2  0
  9 10  1  0
 10 11  1  0
 11 12  2  0
 12 13  1  0
 13 14  2  0
 14 15  1  0
 15 16  1  0
 16 17  1  0
 17 18  1  0
 18 19  1  0
 19 20  1  0
 20 21  1  0
 21 22  1  0
 22 23  1  0
 14 24  1  0
 24 25  2  0
 10 26  2  0
 26 27  1  0
 27 28  1  0
 28 29  2  0
 29 30  1  0
 30 31  2  0
 31 32  1  0
 32 33  2  0
  7 34  2  0
 34  3  1  0
 27  8  1  0
 33 28  1  0
 25 11  1  0
 23 18  1  0
  1 35  1  0
  1 36  1  0
  1 37  1  0
  4 38  1  0
  5 39  1  0
  6 40  1  0
  9 41  1  0
 12 42  1  0
 13 43  1  0
 16 44  1  0
 16 45  1  0
 17 46  1  0
 17 47  1  0
 19 48  1  0
 19 49  1  0
 20 50  1  0
 20 51  1  0
 22 52  1  0
 22 53  1  0
 23 54  1  0
 23 55  1  0
 24 56  1  0
 25 57  1  0
 26 58  1  0
 29 59  1  0
 30 60  1  0
 31 61  1  0
 32 62  1  0
 34 63  1  0
M  CHG  1  26   1
M  END
>  <UniqueID>  (4) 
4

>  <SMILES>  (4) 
COc1cccc(-c2cc(-c3ccc(SCCN4CCOCC4)cc3)[nH+]n2-c2ccccn2)c1

>  <Energy>  (4) 
118.96258717666966

>  <Genealogy>  (4) 
COc1cccc(-c2cc(-c3ccc(SCCN4CCOCC4)cc3)[nH+]n2-c2ccccn2)c1 (protonated)
COc1cccc(-c2cc(-c3ccc(SCCN4CCOCC4)cc3)[nH+]n2-c2ccccn2)c1 (3D coordinates assigned)
COc1cccc(-c2cc(-c3ccc(SCCN4CCOCC4)cc3)[nH+]n2-c2ccccn2)c1 (nonaromatic ring conformer: 118.96258717666966 kcal/mol)

>  <smiles>  (4) 
COc1cccc(-c2cc(-c3ccc(SCCN4CCOCC4)cc3)nn2-c2ccccn2)c1

>  <score_type>  (4) 
oracle

>  <origin>  (4) 
adg

>  <m_score__min__energy>  (4) 
-8.8599999999999994

>  <m_primary>  (4) 
energy

$$$$
4:0
     RDKit          3D

 62 65  0  0  0  0  0  0  0  0999 V2000
   -9.1230   22.6190  -31.8840 C   0  0  0  0  0  0  0  0  0  0  0  0
   -9.3840   21.2580  -31.5570 O   0  0  0  0  0  0  0  0  0  0  0  0
   -8.6110   20.1750  -32.0010 C   0  0  0  0  0  0  0  0  0  0  0  0
   -7.6420   20.4090  -32.9830 C   0  0  0  0  0  0  0  0  0  0  0  0
   -6.8470   19.3620  -33.4600 C   0  0  0  0  0  0  0  0  0  0  0  0
   -7.0210   18.0610  -32.9660 C   0  0  0  0  0  0  0  0  0  0  0  0
   -6.1410   16.9430  -33.4580 C   0  0  0  0  0  0  0  0  0  0  0  0
   -4.6770   17.1980  -33.0790 C   0  0  0  0  0  0  0  0  0  0  0  0
   -4.0870   18.2340  -33.9450 N   0  0  0  0  0  0  0  0  0  0  0  0
   -3.3650   19.2660  -33.1820 C   0  0  0  0  0  0  0  0  0  0  0  0
   -3.9400   20.6770  -33.4010 C   0  0  0  0  0  0  0  0  0  0  0  0
   -3.5330   21.5930  -32.2770 C   0  0  0  0  0  0  0  0  0  0  0  0
   -2.2530   21.7600  -31.7390 C   0  0  0  0  0  0  0  0  0  0  0  0
   -1.0500   20.9840  -32.0950 C   0  0  0  0  0  0  0  0  0  0  0  0
   -0.4960   21.0670  -33.3810 C   0  0  0  0  0  0  0  0  0  0  0  0
    0.6490   20.3320  -33.7020 C   0  0  0  0  0  0  0  0  0  0  0  0
    1.2440   19.5060  -32.7450 C   0  0  0  0  0  0  0  0  0  0  0  0
    0.6860   19.4050  -31.4690 C   0  0  0  0  0  0  0  0  0  0  0  0
   -0.4640   20.1320  -31.1450 C   0  0  0  0  0  0  0  0  0  0  0  0
   -2.2200   22.8270  -30.9080 N   0  0  0  0  0  0  0  0  0  0  0  0
   -3.4660   23.3380  -30.9000 C   0  0  0  0  0  0  0  0  0  0  0  0
   -3.9210   24.4900  -30.2390 C   0  0  0  0  0  0  0  0  0  0  0  0
   -3.0980   25.2440  -29.3430 N   0  0  0  0  0  0  0  0  0  0  0  0
   -1.7590   24.5730  -28.4720 S   0  0  0  0  0  0  0  0  0  0  0  0
   -1.6400   25.3480  -26.8730 C   0  0  0  0  0  0  0  0  0  0  0  0
   -0.4750   24.7870  -29.2280 O   0  0  0  0  0  0  0  0  0  0  0  0
   -1.9800   23.0950  -28.2940 O   0  0  0  0  0  0  0  0  0  0  0  0
   -5.2320   24.9250  -30.5090 C   0  0  0  0  0  0  0  0  0  0  0  0
   -6.0650   24.1980  -31.3850 C   0  0  0  0  0  0  0  0  0  0  0  0
   -5.5920   23.0360  -32.0160 C   0  0  0  0  0  0  0  0  0  0  0  0
   -4.2840   22.6280  -31.7470 C   0  0  0  0  0  0  0  0  0  0  0  0
   -7.9820   17.8240  -31.9730 C   0  0  0  0  0  0  0  0  0  0  0  0
   -8.7770   18.8720  -31.4950 C   0  0  0  0  0  0  0  0  0  0  0  0
   -9.0109   23.2034  -30.9588 H   0  0  0  0  0  0  0  0  0  0  0  0
   -8.1961   22.6834  -32.4729 H   0  0  0  0  0  0  0  0  0  0  0  0
   -9.9603   23.0217  -32.4729 H   0  0  0  0  0  0  0  0  0  0  0  0
   -7.5045   21.4245  -33.3829 H   0  0  0  0  0  0  0  0  0  0  0  0
   -6.0823   19.5596  -34.2256 H   0  0  0  0  0  0  0  0  0  0  0  0
   -6.4718   15.9970  -33.0046 H   0  0  0  0  0  0  0  0  0  0  0  0
   -6.2181   16.8887  -34.5540 H   0  0  0  0  0  0  0  0  0  0  0  0
   -4.6281   17.5319  -32.0320 H   0  0  0  0  0  0  0  0  0  0  0  0
   -4.1105   16.2641  -33.2090 H   0  0  0  0  0  0  0  0  0  0  0  0
   -3.4010   17.7860  -34.5970 H   0  0  0  0  0  0  0  0  0  0  0  0
   -4.8390   18.6840  -34.5200 H   0  0  0  0  0  0  0  0  0  0  0  0
   -3.4295   19.0219  -32.1114 H   0  0  0  0  0  0  0  0  0  0  0  0
   -2.3233   19.2729  -33.5353 H   0  0  0  0  0  0  0  0  0  0  0  0
   -3.5597   21.0793  -34.3515 H   0  0  0  0  0  0  0  0  0  0  0  0
   -5.0378   20.6134  -33.4282 H   0  0  0  0  0  0  0  0  0  0  0  0
   -0.9639   21.7123  -34.1391 H   0  0  0  0  0  0  0  0  0  0  0  0
    1.0825   20.4041  -34.7104 H   0  0  0  0  0  0  0  0  0  0  0  0
    2.1507   18.9361  -32.9964 H   0  0  0  0  0  0  0  0  0  0  0  0
    1.1522   18.7519  -30.7166 H   0  0  0  0  0  0  0  0  0  0  0  0
   -0.9103   20.0362  -30.1442 H   0  0  0  0  0  0  0  0  0  0  0  0
   -1.3790   23.2060  -30.4220 H   0  0  0  0  0  0  0  0  0  0  0  0
   -1.7568   24.5872  -26.0872 H   0  0  0  0  0  0  0  0  0  0  0  0
   -0.6571   25.8314  -26.7721 H   0  0  0  0  0  0  0  0  0  0  0  0
   -2.4326   26.1041  -26.7721 H   0  0  0  0  0  0  0  0  0  0  0  0
   -5.6108   25.8410  -30.0322 H   0  0  0  0  0  0  0  0  0  0  0  0
   -7.0919   24.5435  -31.5751 H   0  0  0  0  0  0  0  0  0  0  0  0
   -6.2334   22.4637  -32.7024 H   0  0  0  0  0  0  0  0  0  0  0  0
   -8.1117   16.8096  -31.5677 H   0  0  0  0  0  0  0  0  0  0  0  0
   -9.5341   18.6768  -30.7213 H   0  0  0  0  0  0  0  0  0  0  0  0
  1  2  1  0
  2  3  1  0
  3  4  2  0
  4  5  1  0
  5  6  2  0
  6  7  1  0
  7  8  1  0
  8  9  1  0
  9 10  1  0
 10 11  1  0
 11 12  1  0
 12 13  2  0
 13 14  1  0
 14 15  2  0
 15 16  1  0
 16 17  2  0
 17 18  1  0
 18 19  2  0
 13 20  1  0
 20 21  1  0
 21 22  2  0
 22 23  1  0
 23 24  1  0
 24 25  1  0
 24 26  2  0
 24 27  2  0
 22 28  1  0
 28 29  2  0
 29 30  1  0
 30 31  2  0
  6 32  1  0
 32 33  2  0
 33  3  1  0
 31 12  1  0
 19 14  1  0
 31 21  1  0
  1 34  1  0
  1 35  1  0
  1 36  1  0
  4 37  1  0
  5 38  1  0
  7 39  1  0
  7 40  1  0
  8 41  1  0
  8 42  1  0
  9 43  1  0
  9 44  1  0
 10 45  1  0
 10 46  1  0
 11 47  1  0
 11 48  1  0
 15 49  1  0
 16 50  1  0
 17 51  1  0
 18 52  1  0
 19 53  1  0
 20 54  1  0
 25 55  1  0
 25 56  1  0
 25 57  1  0
 28 58  1  0
 29 59  1  0
 30 60  1  0
 32 61  1  0
 33 62  1  0
M  CHG  2   9   1  23  -1
M  END
>  <UniqueID>  (5) 
5

>  <SMILES>  (5) 
COc1ccc(CC[NH2+]CCc2c(-c3ccccc3)[nH]c3c([N-]S(C)(=O)=O)cccc23)cc1

>  <Energy>  (5) 
102.17065652237997

>  <Genealogy>  (5) 
COc1ccc(CC[NH2+]CCc2c(-c3ccccc3)[nH]c3c([N-]S(C)(=O)=O)cccc23)cc1 (protonated)
COc1ccc(CC[NH2+]CCc2c(-c3ccccc3)[nH]c3c([N-]S(C)(=O)=O)cccc23)cc1 (3D coordinates assigned)
COc1ccc(CC[NH2+]CCc2c(-c3ccccc3)[nH]c3c([N-]S(C)(=O)=O)cccc23)cc1 (optimized conformer: 102.17065652237997 kcal/mol)

>  <smiles>  (5) 
COc1ccc(CCNCCc2c(-c3ccccc3)[nH]c3c(NS(C)(=O)=O)cccc23)cc1

>  <score_type>  (5) 
oracle

>  <origin>  (5) 
adg

>  <m_score__min__energy>  (5) 
-10.32

>  <m_primary>  (5) 
energy

$$$$
5:0
     RDKit          3D

 42 42  0  0  0  0  0  0  0  0999 V2000
   -7.8760   22.6710  -31.3080 C   0  0  0  0  0  0  0  0  0  0  0  0
   -7.0410   23.2280  -32.4500 C   0  0  0  0  0  0  0  0  0  0  0  0
   -5.9040   23.8760  -31.9200 O   0  0  0  0  0  0  0  0  0  0  0  0
   -6.2510   24.6310  -30.7740 C   0  0  0  0  0  0  0  0  0  0  0  0
   -5.1570   25.6560  -30.4670 C   0  0  0  0  0  0  0  0  0  0  0  0
   -3.8800   25.0470  -30.5360 O   0  0  0  0  0  0  0  0  0  0  0  0
   -3.5350   24.4240  -29.3120 C   0  0  0  0  0  0  0  0  0  0  0  0
   -3.4730   22.9010  -29.4900 C   0  0  0  0  0  0  0  0  0  0  0  0
   -4.0710   22.4990  -30.7740 N   0  0  0  0  0  0  0  0  0  0  0  0
   -3.5040   21.2360  -31.2880 C   0  0  0  0  0  0  0  0  0  0  0  0
   -3.6700   21.0790  -32.8200 C   0  0  2  0  0  0  0  0  0  0  0  0
   -4.0270   22.2910  -33.4400 O   0  0  0  0  0  0  0  0  0  0  0  0
   -4.6830   19.9980  -33.1480 C   0  0  0  0  0  0  0  0  0  0  0  0
   -4.3210   18.9190  -33.9750 C   0  0  0  0  0  0  0  0  0  0  0  0
   -5.2440   17.9120  -34.2710 C   0  0  0  0  0  0  0  0  0  0  0  0
   -6.5360   17.9670  -33.7440 C   0  0  0  0  0  0  0  0  0  0  0  0
   -6.9070   19.0290  -32.9150 C   0  0  0  0  0  0  0  0  0  0  0  0
   -8.6720   19.1000  -32.1880 Br  0  0  0  0  0  0  0  0  0  0  0  0
   -5.9860   20.0390  -32.6150 C   0  0  0  0  0  0  0  0  0  0  0  0
   -7.4293   22.9689  -30.3479 H   0  0  0  0  0  0  0  0  0  0  0  0
   -8.8998   23.0677  -31.3749 H   0  0  0  0  0  0  0  0  0  0  0  0
   -7.9030   21.5734  -31.3749 H   0  0  0  0  0  0  0  0  0  0  0  0
   -6.7228   22.4061  -33.1082 H   0  0  0  0  0  0  0  0  0  0  0  0
   -7.6394   23.9463  -33.0296 H   0  0  0  0  0  0  0  0  0  0  0  0
   -7.1999   25.1561  -30.9581 H   0  0  0  0  0  0  0  0  0  0  0  0
   -6.3588   23.9521  -29.9153 H   0  0  0  0  0  0  0  0  0  0  0  0
   -5.2093   26.4736  -31.2010 H   0  0  0  0  0  0  0  0  0  0  0  0
   -5.3110   26.0508  -29.4519 H   0  0  0  0  0  0  0  0  0  0  0  0
   -2.5521   24.7913  -28.9820 H   0  0  0  0  0  0  0  0  0  0  0  0
   -4.2993   24.6660  -28.5588 H   0  0  0  0  0  0  0  0  0  0  0  0
   -2.4219   22.5776  -29.4650 H   0  0  0  0  0  0  0  0  0  0  0  0
   -4.0392   22.4277  -28.6743 H   0  0  0  0  0  0  0  0  0  0  0  0
   -5.0980   22.3490  -30.6300 H   0  0  0  0  0  0  0  0  0  0  0  0
   -3.9530   23.2640  -31.4780 H   0  0  0  0  0  0  0  0  0  0  0  0
   -2.4311   21.2093  -31.0468 H   0  0  0  0  0  0  0  0  0  0  0  0
   -4.0520   20.4103  -30.8107 H   0  0  0  0  0  0  0  0  0  0  0  0
   -2.6904   20.7781  -33.2199 H   0  0  0  0  0  0  0  0  0  0  0  0
   -5.0010   22.4320  -33.3080 H   0  0  0  0  0  0  0  0  0  0  0  0
   -3.3043   18.8675  -34.3917 H   0  0  0  0  0  0  0  0  0  0  0  0
   -4.9519   17.0739  -34.9208 H   0  0  0  0  0  0  0  0  0  0  0  0
   -7.2613   17.1748  -33.9813 H   0  0  0  0  0  0  0  0  0  0  0  0
   -6.2817   20.8706  -31.9585 H   0  0  0  0  0  0  0  0  0  0  0  0
  1  2  1  0
  2  3  1  0
  3  4  1  0
  4  5  1  0
  5  6  1  0
  6  7  1  0
  7  8  1  0
  8  9  1  0
  9 10  1  0
 10 11  1  0
 11 12  1  0
 11 13  1  0
 13 14  2  0
 14 15  1  0
 15 16  2  0
 16 17  1  0
 17 18  1  0
 17 19  2  0
 19 13  1  0
  1 20  1  0
  1 21  1  0
  1 22  1  0
  2 23  1  0
  2 24  1  0
  4 25  1  0
  4 26  1  0
  5 27  1  0
  5 28  1  0
  7 29  1  0
  7 30  1  0
  8 31  1  0
  8 32  1  0
  9 33  1  0
  9 34  1  0
 10 35  1  0
 10 36  1  0
 11 37  1  6
 12 38  1  0
 14 39  1  0
 15 40  1  0
 16 41  1  0
 19 42  1  0
M  CHG  1   9   1
M  END
>  <UniqueID>  (6) 
6

>  <SMILES>  (6) 
CCOCCOCC[NH2+]C[C@H](O)c1cccc(Br)c1

>  <Energy>  (6) 
39.43868898409473

>  <Genealogy>  (6) 
CCOCCOCC[NH2+]CC(O)c1cccc(Br)c1 (protonated)
CCOCCOCC[NH2+]C[C@H](O)c1cccc(Br)c1 (chirality)
CCOCCOCC[NH2+]C[C@H](O)c1cccc(Br)c1 (3D coordinates assigned)
CCOCCOCC[NH2+]C[C@H](O)c1cccc(Br)c1 (optimized conformer: 39.43868898409473 kcal/mol)

>  <smiles>  (6) 
CCOCCOCCNCC(O)c1cccc(Br)c1

>  <score_type>  (6) 
oracle

>  <origin>  (6) 
adg

>  <m_score__min__energy>  (6) 
-5.1699999999999999

>  <m_primary>  (6) 
energy

$$$$
6:0
     RDKit          3D

 18 18  0  0  0  0  0  0  0  0999 V2000
   -9.1046   21.4868  -30.4005 H   0  0  0  0  0  0  0  0  0  0  0  0
   -8.2360   21.7030  -31.0400 C   0  0  0  0  0  0  0  0  0  0  0  0
   -7.8060   20.7610  -31.9730 C   0  0  0  0  0  0  0  0  0  0  0  0
   -8.7170   19.0930  -32.1540 Br  0  0  0  0  0  0  0  0  0  0  0  0
   -6.7080   21.0570  -32.7820 C   0  0  0  0  0  0  0  0  0  0  0  0
   -6.3630   20.3247  -33.5268 H   0  0  0  0  0  0  0  0  0  0  0  0
   -6.0620   22.2490  -32.6530 N   0  0  0  0  0  0  0  0  0  0  0  0
   -5.2440   22.4410  -33.2750 H   0  0  0  0  0  0  0  0  0  0  0  0
   -6.4450   23.1840  -31.7340 C   0  0  0  0  0  0  0  0  0  0  0  0
   -5.7830   24.3060  -31.6710 N   0  0  0  0  0  0  0  0  0  0  0  0
   -4.9820   24.7960  -30.5840 C   0  0  0  0  0  0  0  0  0  0  0  0
   -3.8580   25.3040  -30.8360 O   0  0  0  0  0  0  0  0  0  0  0  0
   -5.3720   24.5560  -29.1550 C   0  0  0  0  0  0  0  0  0  0  0  0
   -5.4731   25.5226  -28.6398 H   0  0  0  0  0  0  0  0  0  0  0  0
   -6.3287   24.0135  -29.1330 H   0  0  0  0  0  0  0  0  0  0  0  0
   -4.1340   23.5770  -28.3280 Cl  0  0  0  0  0  0  0  0  0  0  0  0
   -7.5650   22.9200  -30.9170 C   0  0  0  0  0  0  0  0  0  0  0  0
   -7.9068   23.6692  -30.1877 H   0  0  0  0  0  0  0  0  0  0  0  0
  1  2  1  0
  2  3  1  0
  3  4  1  0
  3  5  2  0
  5  6  1  0
  5  7  1  0
  7  8  1  0
  7  9  1  0
  9 10  2  0
 10 11  1  0
 11 12  2  0
 11 13  1  0
 13 14  1  0
 13 15  1  0
 13 16  1  0
  9 17  1  0
 17 18  1  0
 17  2  2  0
M  END
>  <UniqueID>  (7) 
7

>  <SMILES>  (7) 
O=C(CCl)/N=c1\ccc(Br)c[nH]1

>  <Energy>  (7) 
24.73279746064325

>  <Genealogy>  (7) 
O=C(CCl)/N=c1\ccc(Br)c[nH]1 (cis-trans isomerization)
O=C(CCl)/N=c1\ccc(Br)c[nH]1 (3D coordinates assigned)
O=C(CCl)/N=c1\ccc(Br)c[nH]1 (optimized conformer: 24.73279746064325 kcal/mol)

>  <smiles>  (7) 
O=C(CCl)N=c1ccc(Br)c[nH]1

>  <score_type>  (7) 
oracle

>  <origin>  (7) 
adg

>  <m_score__min__energy>  (7) 
-6.46

>  <m_primary>  (7) 
energy

$$$$
7:0
     RDKit          3D

 34 35  0  0  0  0  0  0  0  0999 V2000
   -6.5130   18.3190  -33.2250 C   0  0  0  0  0  0  0  0  0  0  0  0
   -7.5920   17.7850  -32.2830 C   0  0  0  0  0  0  0  0  0  0  0  0
   -8.6700   18.8320  -31.9610 C   0  0  0  0  0  0  0  0  0  0  0  0
   -8.4440   20.1570  -32.7000 C   0  0  0  0  0  0  0  0  0  0  0  0
   -7.8990   21.1540  -31.7810 N   0  0  0  0  0  0  0  0  0  0  0  0
   -8.5060   21.7010  -30.6990 C   0  0  0  0  0  0  0  0  0  0  0  0
   -7.7350   22.6370  -30.0900 N   0  0  0  0  0  0  0  0  0  0  0  0
   -6.6180   22.6870  -30.8390 C   0  0  0  0  0  0  0  0  0  0  0  0
   -5.4520   23.4420  -30.6880 C   0  0  0  0  0  0  0  0  0  0  0  0
   -5.2810   24.4090  -29.6380 N   0  0  0  0  0  0  0  0  0  0  0  0
   -6.1040   25.6180  -29.6420 C   0  0  0  0  0  0  0  0  0  0  0  0
   -4.3400   24.1840  -28.5380 C   0  0  0  0  0  0  0  0  0  0  0  0
   -4.4440   23.2150  -31.5860 N   0  0  0  0  0  0  0  0  0  0  0  0
   -4.5720   22.3040  -32.6020 C   0  0  0  0  0  0  0  0  0  0  0  0
   -5.7210   21.5790  -32.7430 N   0  0  0  0  0  0  0  0  0  0  0  0
   -6.7190   21.7910  -31.8520 C   0  0  0  0  0  0  0  0  0  0  0  0
   -5.6814   18.7306  -32.6342 H   0  0  0  0  0  0  0  0  0  0  0  0
   -6.1422   17.5004  -33.8593 H   0  0  0  0  0  0  0  0  0  0  0  0
   -6.9390   19.1103  -33.8593 H   0  0  0  0  0  0  0  0  0  0  0  0
   -8.0746   16.9174  -32.7567 H   0  0  0  0  0  0  0  0  0  0  0  0
   -7.1014   17.5118  -31.3371 H   0  0  0  0  0  0  0  0  0  0  0  0
   -9.6511   18.4288  -32.2525 H   0  0  0  0  0  0  0  0  0  0  0  0
   -8.6213   19.0396  -30.8819 H   0  0  0  0  0  0  0  0  0  0  0  0
   -7.7357   19.9973  -33.5263 H   0  0  0  0  0  0  0  0  0  0  0  0
   -9.4043   20.5179  -33.0970 H   0  0  0  0  0  0  0  0  0  0  0  0
   -9.5112   21.4177  -30.3535 H   0  0  0  0  0  0  0  0  0  0  0  0
   -7.9650   23.1720  -29.2230 H   0  0  0  0  0  0  0  0  0  0  0  0
   -6.3119   25.9234  -28.6059 H   0  0  0  0  0  0  0  0  0  0  0  0
   -5.5671   26.4253  -30.1615 H   0  0  0  0  0  0  0  0  0  0  0  0
   -7.0520   25.4145  -30.1615 H   0  0  0  0  0  0  0  0  0  0  0  0
   -4.8619   24.3088  -27.5777 H   0  0  0  0  0  0  0  0  0  0  0  0
   -3.9347   23.1636  -28.6051 H   0  0  0  0  0  0  0  0  0  0  0  0
   -3.5169   24.9107  -28.6051 H   0  0  0  0  0  0  0  0  0  0  0  0
   -3.7429   22.1556  -33.3094 H   0  0  0  0  0  0  0  0  0  0  0  0
  1  2  1  0
  2  3  1  0
  3  4  1  0
  4  5  1  0
  5  6  1  0
  6  7  2  0
  7  8  1  0
  8  9  2  0
  9 10  1  0
 10 11  1  0
 10 12  1  0
  9 13  1  0
 13 14  2  0
 14 15  1  0
 15 16  2  0
 16  5  1  0
 16  8  1  0
  1 17  1  0
  1 18  1  0
  1 19  1  0
  2 20  1  0
  2 21  1  0
  3 22  1  0
  3 23  1  0
  4 24  1  0
  4 25  1  0
  6 26  1  0
  7 27  1  0
 11 28  1  0
 11 29  1  0
 11 30  1  0
 12 31  1  0
 12 32  1  0
 12 33  1  0
 14 34  1  0
M  CHG  1   7   1
M  END
>  <UniqueID>  (8) 
8

>  <SMILES>  (8) 
CCCCn1c[nH+]c2c(N(C)C)ncnc21

>  <Energy>  (8) 
71.08311427506227

>  <Genealogy>  (8) 
CCCCn1c[nH+]c2c(N(C)C)ncnc21 (protonated)
CCCCn1c[nH+]c2c(N(C)C)ncnc21 (3D coordinates assigned)
CCCCn1c[nH+]c2c(N(C)C)ncnc21 (optimized conformer: 71.08311427506227 kcal/mol)

>  <smiles>  (8) 
CCCCn1cnc2c(N(C)C)ncnc21

>  <score_type>  (8) 
oracle

>  <origin>  (8) 
adg

>  <m_score__min__energy>  (8) 
-4.9100000000000001

>  <m_primary>  (8) 
energy

$$$$
8:0
     RDKit          3D

 53 55  0  0  0  0  0  0  0  0999 V2000
   -6.4650   25.3090  -29.7640 C   0  0  0  0  0  0  0  0  0  0  0  0
   -5.0490   24.7870  -29.9880 C   0  0  0  0  0  0  0  0  0  0  0  0
   -4.9570   24.0890  -31.2290 O   0  0  0  0  0  0  0  0  0  0  0  0
   -5.3750   22.7670  -31.4550 C   0  0  0  0  0  0  0  0  0  0  0  0
   -6.6560   22.5570  -31.9810 C   0  0  0  0  0  0  0  0  0  0  0  0
   -7.1210   21.2640  -32.2340 C   0  0  0  0  0  0  0  0  0  0  0  0
   -6.3080   20.1580  -31.9600 C   0  0  0  0  0  0  0  0  0  0  0  0
   -6.8600   18.5230  -32.3080 S   0  0  0  0  0  0  0  0  0  0  0  0
   -6.1550   17.5820  -31.3690 O   0  0  0  0  0  0  0  0  0  0  0  0
   -8.3340   18.4250  -32.0300 O   0  0  0  0  0  0  0  0  0  0  0  0
   -6.4810   18.1470  -33.9930 N   0  0  1  0  0  0  0  0  0  0  0  0
   -5.5840   19.1620  -34.5950 C   0  0  0  0  0  0  0  0  0  0  0  0
   -4.0960   18.9300  -34.2500 C   0  0  0  0  0  0  0  0  0  0  0  0
   -3.9470   17.9320  -33.1730 N   0  0  0  0  0  0  0  0  0  0  0  0
   -2.5370   17.7890  -32.7620 C   0  0  0  0  0  0  0  0  0  0  0  0
   -1.7460   19.0010  -33.1860 C   0  0  0  0  0  0  0  0  0  0  0  0
   -1.8180   20.1750  -32.4180 C   0  0  0  0  0  0  0  0  0  0  0  0
   -1.1130   21.3180  -32.8070 C   0  0  0  0  0  0  0  0  0  0  0  0
   -0.3280   21.2960  -33.9620 C   0  0  0  0  0  0  0  0  0  0  0  0
   -0.2540   20.1350  -34.7360 C   0  0  0  0  0  0  0  0  0  0  0  0
   -0.9610   18.9890  -34.3550 C   0  0  0  0  0  0  0  0  0  0  0  0
   -0.8850   17.8790  -35.1310 F   0  0  0  0  0  0  0  0  0  0  0  0
   -4.5050   16.6290  -33.5920 C   0  0  0  0  0  0  0  0  0  0  0  0
   -5.9200   16.7870  -34.2120 C   0  0  1  0  0  0  0  0  0  0  0  0
   -6.8840   15.6650  -33.7900 C   0  0  0  0  0  0  0  0  0  0  0  0
   -5.0280   20.3590  -31.4270 C   0  0  0  0  0  0  0  0  0  0  0  0
   -4.5630   21.6510  -31.1710 C   0  0  0  0  0  0  0  0  0  0  0  0
   -6.6624   25.3818  -28.6843 H   0  0  0  0  0  0  0  0  0  0  0  0
   -6.5661   26.3035  -30.2231 H   0  0  0  0  0  0  0  0  0  0  0  0
   -7.1874   24.6181  -30.2231 H   0  0  0  0  0  0  0  0  0  0  0  0
   -4.3492   25.6357  -29.9988 H   0  0  0  0  0  0  0  0  0  0  0  0
   -4.7961   24.0926  -29.1732 H   0  0  0  0  0  0  0  0  0  0  0  0
   -7.3032   23.4197  -32.1973 H   0  0  0  0  0  0  0  0  0  0  0  0
   -8.1285   21.1148  -32.6495 H   0  0  0  0  0  0  0  0  0  0  0  0
   -7.3860   18.2040  -34.5180 H   0  0  0  0  0  0  0  0  0  0  0  0
   -5.7001   19.1286  -35.6883 H   0  0  0  0  0  0  0  0  0  0  0  0
   -5.8696   20.1409  -34.1826 H   0  0  0  0  0  0  0  0  0  0  0  0
   -3.5715   18.5703  -35.1475 H   0  0  0  0  0  0  0  0  0  0  0  0
   -3.6661   19.8818  -33.9047 H   0  0  0  0  0  0  0  0  0  0  0  0
   -2.4860   17.6862  -31.6680 H   0  0  0  0  0  0  0  0  0  0  0  0
   -2.1114   16.8960  -33.2432 H   0  0  0  0  0  0  0  0  0  0  0  0
   -2.4323   20.1952  -31.5057 H   0  0  0  0  0  0  0  0  0  0  0  0
   -1.1766   22.2352  -32.2030 H   0  0  0  0  0  0  0  0  0  0  0  0
    0.2325   22.1935  -34.2626 H   0  0  0  0  0  0  0  0  0  0  0  0
    0.3618   20.1218  -35.6474 H   0  0  0  0  0  0  0  0  0  0  0  0
   -3.8359   16.1777  -34.3394 H   0  0  0  0  0  0  0  0  0  0  0  0
   -4.5885   15.9878  -32.7021 H   0  0  0  0  0  0  0  0  0  0  0  0
   -5.7972   16.6767  -35.2996 H   0  0  0  0  0  0  0  0  0  0  0  0
   -6.9284   15.6134  -32.6921 H   0  0  0  0  0  0  0  0  0  0  0  0
   -7.8877   15.8750  -34.1881 H   0  0  0  0  0  0  0  0  0  0  0  0
   -6.5253   14.7044  -34.1881 H   0  0  0  0  0  0  0  0  0  0  0  0
   -4.3850   19.4936  -31.2087 H   0  0  0  0  0  0  0  0  0  0  0  0
   -3.5591   21.7978  -30.7461 H   0  0  0  0  0  0  0  0  0  0  0  0
  1  2  1  0
  2  3  1  0
  3  4  1  0
  4  5  2  0
  5  6  1  0
  6  7  2  0
  7  8  1  0
  8  9  2  0
  8 10  2  0
  8 11  1  0
 11 12  1  0
 12 13  1  0
 13 14  1  0
 14 15  1  0
 15 16  1  0
 16 17  2  0
 17 18  1  0
 18 19  2  0
 19 20  1  0
 20 21  2  0
 21 22  1  0
 14 23  1  0
 23 24  1  0
 24 25  1  0
  7 26  1  0
 26 27  2  0
 27  4  1  0
 24 11  1  0
 21 16  1  0
  1 28  1  0
  1 29  1  0
  1 30  1  0
  2 31  1  0
  2 32  1  0
  5 33  1  0
  6 34  1  0
 11 35  1  6
 12 36  1  0
 12 37  1  0
 13 38  1  0
 13 39  1  0
 15 40  1  0
 15 41  1  0
 17 42  1  0
 18 43  1  0
 19 44  1  0
 20 45  1  0
 23 46  1  0
 23 47  1  0
 24 48  1  6
 25 49  1  0
 25 50  1  0
 25 51  1  0
 26 52  1  0
 27 53  1  0
M  CHG  1  11   1
M  END
>  <UniqueID>  (9) 
9

>  <SMILES>  (9) 
CCOc1ccc(S(=O)(=O)[N@H+]2CCN(Cc3ccccc3F)C[C@H]2C)cc1

>  <Energy>  (9) 
65.36845798445287

>  <Genealogy>  (9) 
CCOc1ccc(S(=O)(=O)[NH+]2CCN(Cc3ccccc3F)CC2C)cc1 (protonated)
CCOc1ccc(S(=O)(=O)[N@H+]2CCN(Cc3ccccc3F)C[C@H]2C)cc1 (chirality)
CCOc1ccc(S(=O)(=O)[N@H+]2CCN(Cc3ccccc3F)C[C@H]2C)cc1 (3D coordinates assigned)
CCOc1ccc(S(=O)(=O)[N@H+]2CCN(Cc3ccccc3F)C[C@H]2C)cc1 (nonaromatic ring conformer: 65.36845798445287 kcal/mol)

>  <smiles>  (9) 
CCOc1ccc(S(=O)(=O)N2CCN(Cc3ccccc3F)CC2C)cc1

>  <score_type>  (9) 
oracle

>  <origin>  (9) 
adg

>  <m_score__min__energy>  (9) 
-7.2000000000000002

>  <m_primary>  (9) 
energy

$$$$
9:0
     RDKit          3D

 53 56  0  0  0  0  0  0  0  0999 V2000
   -7.6030   18.4600  -32.6310 C   0  0  0  0  0  0  0  0  0  0  0  0
   -6.9020   19.6070  -33.1050 O   0  0  0  0  0  0  0  0  0  0  0  0
   -6.9770   20.8860  -32.5290 C   0  0  0  0  0  0  0  0  0  0  0  0
   -8.2080   21.4560  -32.1400 C   0  0  0  0  0  0  0  0  0  0  0  0
   -8.2530   22.7490  -31.6070 C   0  0  0  0  0  0  0  0  0  0  0  0
   -7.0760   23.4820  -31.4530 C   0  0  0  0  0  0  0  0  0  0  0  0
   -5.8500   22.9280  -31.8240 C   0  0  0  0  0  0  0  0  0  0  0  0
   -5.7870   21.6270  -32.3560 C   0  0  0  0  0  0  0  0  0  0  0  0
   -4.5080   21.0600  -32.6990 N   0  0  0  0  0  0  0  0  0  0  0  0
   -4.2400   19.6410  -32.4660 C   0  0  0  0  0  0  0  0  0  0  0  0
   -2.7990   19.4510  -31.9620 C   0  0  0  0  0  0  0  0  0  0  0  0
   -1.7640   20.2340  -32.7120 N   0  0  0  0  0  0  0  0  0  0  0  0
   -0.6780   19.3280  -33.1750 C   0  0  0  0  0  0  0  0  0  0  0  0
    0.3470   18.9660  -32.0890 C   0  0  0  0  0  0  0  0  0  0  0  0
    0.4780   20.0400  -31.1600 O   0  0  0  0  0  0  0  0  0  0  0  0
   -0.2670   20.1730  -29.9800 C   0  0  0  0  0  0  0  0  0  0  0  0
   -0.2340   19.1130  -29.0540 C   0  0  0  0  0  0  0  0  0  0  0  0
   -0.9610   19.1830  -27.8470 C   0  0  0  0  0  0  0  0  0  0  0  0
   -1.7240   20.3190  -27.5410 C   0  0  0  0  0  0  0  0  0  0  0  0
   -1.7370   21.3610  -28.4650 C   0  0  0  0  0  0  0  0  0  0  0  0
   -2.3480   22.5140  -28.3420 O   0  0  0  0  0  0  0  0  0  0  0  0
   -2.0730   23.2240  -29.4210 C   0  0  0  0  0  0  0  0  0  0  0  0
   -2.5700   24.5850  -29.6500 C   0  0  0  0  0  0  0  0  0  0  0  0
   -3.5120   24.7800  -30.4640 O   0  0  0  0  0  0  0  0  0  0  0  0
   -2.0110   25.6640  -28.9670 O   0  0  0  0  0  0  0  0  0  0  0  0
   -1.2500   22.5120  -30.2830 C   0  0  0  0  0  0  0  0  0  0  0  0
   -1.0460   21.2960  -29.6540 C   0  0  0  0  0  0  0  0  0  0  0  0
   -2.3190   21.0250  -33.8400 C   0  0  0  0  0  0  0  0  0  0  0  0
   -3.5050   21.8840  -33.3770 C   0  0  0  0  0  0  0  0  0  0  0  0
   -7.6035   18.4592  -31.5310 H   0  0  0  0  0  0  0  0  0  0  0  0
   -8.6396   18.4862  -32.9981 H   0  0  0  0  0  0  0  0  0  0  0  0
   -7.1069   17.5494  -32.9981 H   0  0  0  0  0  0  0  0  0  0  0  0
   -9.1380   20.8802  -32.2565 H   0  0  0  0  0  0  0  0  0  0  0  0
   -9.2168   23.1877  -31.3093 H   0  0  0  0  0  0  0  0  0  0  0  0
   -7.1144   24.4999  -31.0378 H   0  0  0  0  0  0  0  0  0  0  0  0
   -4.9265   23.5125  -31.6996 H   0  0  0  0  0  0  0  0  0  0  0  0
   -4.9428   19.2570  -31.7119 H   0  0  0  0  0  0  0  0  0  0  0  0
   -4.3667   19.0909  -33.4101 H   0  0  0  0  0  0  0  0  0  0  0  0
   -2.7621   19.7578  -30.9063 H   0  0  0  0  0  0  0  0  0  0  0  0
   -2.5548   18.3892  -32.1133 H   0  0  0  0  0  0  0  0  0  0  0  0
   -1.3470   20.9140  -32.0360 H   0  0  0  0  0  0  0  0  0  0  0  0
   -1.1373   18.3974  -33.5396 H   0  0  0  0  0  0  0  0  0  0  0  0
   -0.1288   19.8687  -33.9599 H   0  0  0  0  0  0  0  0  0  0  0  0
    0.0100   18.0641  -31.5570 H   0  0  0  0  0  0  0  0  0  0  0  0
    1.3221   18.7793  -32.5627 H   0  0  0  0  0  0  0  0  0  0  0  0
    0.3667   18.2183  -29.2746 H   0  0  0  0  0  0  0  0  0  0  0  0
   -0.9291   18.3403  -27.1408 H   0  0  0  0  0  0  0  0  0  0  0  0
   -2.2935   20.3850  -26.6022 H   0  0  0  0  0  0  0  0  0  0  0  0
   -0.8484   22.8417  -31.2525 H   0  0  0  0  0  0  0  0  0  0  0  0
   -1.5328   21.6823  -34.2399 H   0  0  0  0  0  0  0  0  0  0  0  0
   -2.6710   20.3299  -34.6165 H   0  0  0  0  0  0  0  0  0  0  0  0
   -3.1423   22.6558  -32.6822 H   0  0  0  0  0  0  0  0  0  0  0  0
   -3.9685   22.3511  -34.2584 H   0  0  0  0  0  0  0  0  0  0  0  0
  1  2  1  0
  2  3  1  0
  3  4  2  0
  4  5  1  0
  5  6  2  0
  6  7  1  0
  7  8  2  0
  8  9  1  0
  9 10  1  0
 10 11  1  0
 11 12  1  0
 12 13  1  0
 13 14  1  0
 14 15  1  0
 15 16  1  0
 16 17  2  0
 17 18  1  0
 18 19  2  0
 19 20  1  0
 20 21  1  0
 21 22  1  0
 22 23  1  0
 23 24  2  0
 23 25  1  0
 22 26  2  0
 26 27  1  0
 12 28  1  0
 28 29  1  0
  8  3  1  0
 29  9  1  0
 27 16  1  0
 27 20  2  0
  1 30  1  0
  1 31  1  0
  1 32  1  0
  4 33  1  0
  5 34  1  0
  6 35  1  0
  7 36  1  0
 10 37  1  0
 10 38  1  0
 11 39  1  0
 11 40  1  0
 12 41  1  0
 13 42  1  0
 13 43  1  0
 14 44  1  0
 14 45  1  0
 17 46  1  0
 18 47  1  0
 19 48  1  0
 26 49  1  0
 28 50  1  0
 28 51  1  0
 29 52  1  0
 29 53  1  0
M  CHG  2  12   1  25  -1
M  END
>  <UniqueID>  (10) 
10

>  <SMILES>  (10) 
COc1ccccc1N1CC[NH+](CCOc2cccc3oc(C(=O)[O-])cc23)CC1

>  <Energy>  (10) 
104.88332055038119

>  <Genealogy>  (10) 
COc1ccccc1N1CC[NH+](CCOc2cccc3oc(C(=O)[O-])cc23)CC1 (protonated)
COc1ccccc1N1CC[NH+](CCOc2cccc3oc(C(=O)[O-])cc23)CC1 (3D coordinates assigned)
COc1ccccc1N1CC[NH+](CCOc2cccc3oc(C(=O)[O-])cc23)CC1 (nonaromatic ring conformer: 104.88332055038119 kcal/mol)

>  <smiles>  (10) 
COc1ccccc1N1CCN(CCOc2cccc3oc(C(=O)O)cc23)CC1

>  <score_type>  (10) 
oracle

>  <origin>  (10) 
adg

>  <m_score__min__energy>  (10) 
-9.6999999999999993

>  <m_primary>  (10) 
energy

$$$$
10:0
     RDKit          3D

 51 53  0  0  0  0  0  0  0  0999 V2000
   -0.9910   26.4940  -24.2850 C   0  0  0  0  0  0  0  0  0  0  0  0
   -1.9150   26.3620  -25.4910 C   0  0  0  0  0  0  0  0  0  0  0  0
   -1.8960   24.9770  -26.0150 N   0  0  0  0  0  0  0  0  0  0  0  0
   -0.5390   24.3790  -26.0870 C   0  0  0  0  0  0  0  0  0  0  0  0
   -0.3850   23.3270  -24.9950 C   0  0  0  0  0  0  0  0  0  0  0  0
   -2.6870   24.8050  -27.2610 C   0  0  0  0  0  0  0  0  0  0  0  0
   -1.9940   25.2990  -28.5490 C   0  0  0  0  0  0  0  0  0  0  0  0
   -2.3710   24.4840  -29.6960 N   0  0  0  0  0  0  0  0  0  0  0  0
   -3.6500   24.5570  -30.3280 C   0  0  0  0  0  0  0  0  0  0  0  0
   -4.2380   25.6690  -30.4540 O   0  0  0  0  0  0  0  0  0  0  0  0
   -4.2600   23.3290  -30.8750 C   0  0  0  0  0  0  0  0  0  0  0  0
   -5.2530   23.4420  -31.8570 C   0  0  0  0  0  0  0  0  0  0  0  0
   -5.9120   22.3400  -32.3050 N   0  0  0  0  0  0  0  0  0  0  0  0
   -5.6230   21.1050  -31.8090 C   0  0  0  0  0  0  0  0  0  0  0  0
   -6.3500   19.9050  -32.2740 C   0  0  0  0  0  0  0  0  0  0  0  0
   -5.8850   18.9820  -33.2060 C   0  0  0  0  0  0  0  0  0  0  0  0
   -6.7850   17.9360  -33.4500 C   0  0  0  0  0  0  0  0  0  0  0  0
   -7.9600   18.0260  -32.7160 C   0  0  0  0  0  0  0  0  0  0  0  0
   -7.8790   19.4090  -31.7650 S   0  0  0  0  0  0  0  0  0  0  0  0
   -4.6500   20.9740  -30.8720 N   0  0  0  0  0  0  0  0  0  0  0  0
   -3.9490   22.0400  -30.3970 C   0  0  0  0  0  0  0  0  0  0  0  0
   -2.8460   21.7730  -29.4420 C   0  0  0  0  0  0  0  0  0  0  0  0
   -1.5210   21.6310  -29.8900 C   0  0  0  0  0  0  0  0  0  0  0  0
   -0.4960   21.3320  -28.9820 C   0  0  0  0  0  0  0  0  0  0  0  0
   -0.7900   21.1500  -27.6290 C   0  0  0  0  0  0  0  0  0  0  0  0
   -2.1080   21.2630  -27.1780 C   0  0  0  0  0  0  0  0  0  0  0  0
   -3.1320   21.5650  -28.0810 C   0  0  0  0  0  0  0  0  0  0  0  0
   -1.5807   26.4098  -23.3603 H   0  0  0  0  0  0  0  0  0  0  0  0
   -0.2359   25.6946  -24.3124 H   0  0  0  0  0  0  0  0  0  0  0  0
   -0.4899   27.4728  -24.3124 H   0  0  0  0  0  0  0  0  0  0  0  0
   -2.9410   26.6203  -25.1899 H   0  0  0  0  0  0  0  0  0  0  0  0
   -1.5662   27.0440  -26.2805 H   0  0  0  0  0  0  0  0  0  0  0  0
   -0.3982   23.9083  -27.0712 H   0  0  0  0  0  0  0  0  0  0  0  0
    0.2153   25.1668  -25.9441 H   0  0  0  0  0  0  0  0  0  0  0  0
   -0.4556   23.8091  -24.0088 H   0  0  0  0  0  0  0  0  0  0  0  0
   -1.1828   22.5762  -25.0940 H   0  0  0  0  0  0  0  0  0  0  0  0
    0.5945   22.8364  -25.0940 H   0  0  0  0  0  0  0  0  0  0  0  0
   -2.9056   23.7336  -27.3809 H   0  0  0  0  0  0  0  0  0  0  0  0
   -3.5879   25.4246  -27.1404 H   0  0  0  0  0  0  0  0  0  0  0  0
   -2.2886   26.3419  -28.7375 H   0  0  0  0  0  0  0  0  0  0  0  0
   -0.9055   25.2224  -28.4101 H   0  0  0  0  0  0  0  0  0  0  0  0
   -5.5018   24.4310  -32.2693 H   0  0  0  0  0  0  0  0  0  0  0  0
   -6.6600   22.4670  -33.0220 H   0  0  0  0  0  0  0  0  0  0  0  0
   -4.9069   19.0654  -33.7024 H   0  0  0  0  0  0  0  0  0  0  0  0
   -6.5795   17.1192  -34.1576 H   0  0  0  0  0  0  0  0  0  0  0  0
   -8.7987   17.3151  -32.7509 H   0  0  0  0  0  0  0  0  0  0  0  0
   -1.2877   21.7551  -30.9578 H   0  0  0  0  0  0  0  0  0  0  0  0
    0.5416   21.2406  -29.3357 H   0  0  0  0  0  0  0  0  0  0  0  0
    0.0163   20.9175  -26.9178 H   0  0  0  0  0  0  0  0  0  0  0  0
   -2.3397   21.1144  -26.1130 H   0  0  0  0  0  0  0  0  0  0  0  0
   -4.1697   21.6405  -27.7238 H   0  0  0  0  0  0  0  0  0  0  0  0
  1  2  1  0
  2  3  1  0
  3  4  1  0
  4  5  1  0
  3  6  1  0
  6  7  1  0
  7  8  1  0
  8  9  1  0
  9 10  2  0
  9 11  1  0
 11 12  2  0
 12 13  1  0
 13 14  2  0
 14 15  1  0
 15 16  2  0
 16 17  1  0
 17 18  2  0
 18 19  1  0
 14 20  1  0
 20 21  2  0
 21 22  1  0
 22 23  2  0
 23 24  1  0
 24 25  2  0
 25 26  1  0
 26 27  2  0
 21 11  1  0
 27 22  1  0
 19 15  1  0
  1 28  1  0
  1 29  1  0
  1 30  1  0
  2 31  1  0
  2 32  1  0
  4 33  1  0
  4 34  1  0
  5 35  1  0
  5 36  1  0
  5 37  1  0
  6 38  1  0
  6 39  1  0
  7 40  1  0
  7 41  1  0
 12 42  1  0
 13 43  1  0
 16 44  1  0
 17 45  1  0
 18 46  1  0
 23 47  1  0
 24 48  1  0
 25 49  1  0
 26 50  1  0
 27 51  1  0
M  CHG  2   8  -1  13   1
M  END
>  <UniqueID>  (11) 
11

>  <SMILES>  (11) 
CCN(CC)CC[N-]C(=O)c1c[nH+]c(-c2cccs2)nc1-c1ccccc1

>  <Energy>  (11) 
88.6462734569009

>  <Genealogy>  (11) 
CCN(CC)CC[N-]C(=O)c1c[nH+]c(-c2cccs2)nc1-c1ccccc1 (protonated)
CCN(CC)CC[N-]C(=O)c1c[nH+]c(-c2cccs2)nc1-c1ccccc1 (3D coordinates assigned)
CCN(CC)CC[N-]C(=O)c1c[nH+]c(-c2cccs2)nc1-c1ccccc1 (optimized conformer: 88.6462734569009 kcal/mol)

>  <smiles>  (11) 
CCN(CC)CCNC(=O)c1cnc(-c2cccs2)nc1-c1ccccc1

>  <score_type>  (11) 
oracle

>  <origin>  (11) 
adg

>  <m_score__min__energy>  (11) 
-8.5399999999999991

>  <m_primary>  (11) 
energy

$$$$
11:0
     RDKit          3D

 28 29  0  0  0  0  0  0  0  0999 V2000
   -9.4740   19.1490  -32.7110 C   0  0  0  0  0  0  0  0  0  0  0  0
   -8.5100   20.2140  -32.2650 C   0  0  0  0  0  0  0  0  0  0  0  0
   -8.9810   21.3410  -31.5830 C   0  0  0  0  0  0  0  0  0  0  0  0
   -8.1000   22.3390  -31.1610 C   0  0  0  0  0  0  0  0  0  0  0  0
   -6.7130   22.2430  -31.4110 C   0  0  0  0  0  0  0  0  0  0  0  0
   -5.7890   23.2880  -30.9710 N   0  0  0  0  0  0  0  0  0  0  0  0
   -4.3950   22.9260  -30.6340 C   0  0  0  0  0  0  0  0  0  0  0  0
   -3.5640   24.1020  -30.1140 C   0  0  0  0  0  0  0  0  0  0  0  0
   -3.8780   25.2870  -30.8060 O   0  0  0  0  0  0  0  0  0  0  0  0
   -5.1820   25.6760  -30.4480 C   0  0  0  0  0  0  0  0  0  0  0  0
   -6.2200   24.7010  -31.0120 C   0  0  0  0  0  0  0  0  0  0  0  0
   -6.2500   21.0940  -32.0930 C   0  0  0  0  0  0  0  0  0  0  0  0
   -7.1330   20.0930  -32.5170 C   0  0  0  0  0  0  0  0  0  0  0  0
   -6.4070   18.5710  -33.4360 Br  0  0  0  0  0  0  0  0  0  0  0  0
   -9.9154   18.6614  -31.8293 H   0  0  0  0  0  0  0  0  0  0  0  0
  -10.2717   19.6061  -33.3149 H   0  0  0  0  0  0  0  0  0  0  0  0
   -8.9399   18.4007  -33.3149 H   0  0  0  0  0  0  0  0  0  0  0  0
  -10.0568   21.4421  -31.3769 H   0  0  0  0  0  0  0  0  0  0  0  0
   -8.4930   23.2152  -30.6245 H   0  0  0  0  0  0  0  0  0  0  0  0
   -4.4162   22.1457  -29.8589 H   0  0  0  0  0  0  0  0  0  0  0  0
   -3.9182   22.5805  -31.5632 H   0  0  0  0  0  0  0  0  0  0  0  0
   -3.7730   24.2445  -29.0435 H   0  0  0  0  0  0  0  0  0  0  0  0
   -2.4992   23.8756  -30.2722 H   0  0  0  0  0  0  0  0  0  0  0  0
   -5.2638   25.6937  -29.3512 H   0  0  0  0  0  0  0  0  0  0  0  0
   -5.3766   26.6751  -30.8651 H   0  0  0  0  0  0  0  0  0  0  0  0
   -7.1448   24.7996  -30.4245 H   0  0  0  0  0  0  0  0  0  0  0  0
   -6.3664   24.9627  -32.0703 H   0  0  0  0  0  0  0  0  0  0  0  0
   -5.1742   20.9842  -32.2946 H   0  0  0  0  0  0  0  0  0  0  0  0
  1  2  1  0
  2  3  2  0
  3  4  1  0
  4  5  2  0
  5  6  1  0
  6  7  1  0
  7  8  1  0
  8  9  1  0
  9 10  1  0
 10 11  1  0
  5 12  1  0
 12 13  2  0
 13 14  1  0
 13  2  1  0
 11  6  1  0
  1 15  1  0
  1 16  1  0
  1 17  1  0
  3 18  1  0
  4 19  1  0
  7 20  1  0
  7 21  1  0
  8 22  1  0
  8 23  1  0
 10 24  1  0
 10 25  1  0
 11 26  1  0
 11 27  1  0
 12 28  1  0
M  END
>  <UniqueID>  (12) 
12

>  <SMILES>  (12) 
Cc1ccc(N2CCOCC2)cc1Br

>  <Energy>  (12) 
35.608095877954234

>  <Genealogy>  (12) 
Cc1ccc(N2CCOCC2)cc1Br (3D coordinates assigned)
Cc1ccc(N2CCOCC2)cc1Br (nonaromatic ring conformer: 35.608095877954234 kcal/mol)

>  <smiles>  (12) 
Cc1ccc(N2CCOCC2)cc1Br

>  <score_type>  (12) 
oracle

>  <origin>  (12) 
adg

>  <m_score__min__energy>  (12) 
-7.5800000000000001

>  <m_primary>  (12) 
energy

$$$$
12:0
     RDKit          3D

 53 55  0  0  0  0  0  0  0  0999 V2000
   -9.3440   19.0800  -32.3440 C   0  0  0  0  0  0  0  0  0  0  0  0
   -9.0540   20.4190  -32.7330 O   0  0  0  0  0  0  0  0  0  0  0  0
   -7.9700   21.1730  -32.2540 C   0  0  0  0  0  0  0  0  0  0  0  0
   -8.1520   22.2480  -31.3630 C   0  0  0  0  0  0  0  0  0  0  0  0
   -7.0550   22.9740  -30.8960 C   0  0  0  0  0  0  0  0  0  0  0  0
   -5.7610   22.6390  -31.3060 C   0  0  0  0  0  0  0  0  0  0  0  0
   -4.3650   23.5370  -30.7160 S   0  0  0  0  0  0  0  0  0  0  0  0
   -4.6320   25.0150  -30.7990 O   0  0  0  0  0  0  0  0  0  0  0  0
   -3.1860   23.2050  -31.5880 O   0  0  0  0  0  0  0  0  0  0  0  0
   -4.0460   23.0670  -29.0580 N   0  0  0  0  0  0  0  0  0  0  0  0
   -4.1670   24.2110  -28.1280 C   0  0  0  0  0  0  0  0  0  0  0  0
   -2.8040   24.8150  -27.7460 C   0  0  0  0  0  0  0  0  0  0  0  0
   -1.9010   24.7020  -28.8210 O   0  0  0  0  0  0  0  0  0  0  0  0
   -1.5510   23.3430  -29.0280 C   0  0  0  0  0  0  0  0  0  0  0  0
   -2.7530   22.3720  -28.9290 C   0  0  0  0  0  0  0  0  0  0  0  0
   -5.5700   21.5730  -32.1900 C   0  0  0  0  0  0  0  0  0  0  0  0
   -6.6650   20.8370  -32.6790 C   0  0  0  0  0  0  0  0  0  0  0  0
   -6.4490   19.7440  -33.6030 N   0  0  0  0  0  0  0  0  0  0  0  0
   -5.2550   18.9420  -33.2360 C   0  0  0  0  0  0  0  0  0  0  0  0
   -5.5530   17.9300  -32.0940 C   0  0  0  0  0  0  0  0  0  0  0  0
   -5.9570   16.5350  -32.6090 C   0  0  0  0  0  0  0  0  0  0  0  0
   -6.6090   16.6420  -33.9260 N   0  0  0  0  0  0  0  0  0  0  0  0
   -7.2180   15.3580  -34.3060 C   0  0  0  0  0  0  0  0  0  0  0  0
   -5.6510   17.0860  -34.9650 C   0  0  0  0  0  0  0  0  0  0  0  0
   -4.6980   18.1930  -34.4640 C   0  0  0  0  0  0  0  0  0  0  0  0
   -9.3587   19.0121  -31.2462 H   0  0  0  0  0  0  0  0  0  0  0  0
  -10.3264   18.7870  -32.7427 H   0  0  0  0  0  0  0  0  0  0  0  0
   -8.5708   18.4067  -32.7427 H   0  0  0  0  0  0  0  0  0  0  0  0
   -9.1659   22.5177  -31.0326 H   0  0  0  0  0  0  0  0  0  0  0  0
   -7.2093   23.8135  -30.2022 H   0  0  0  0  0  0  0  0  0  0  0  0
   -4.7753   24.9916  -28.6082 H   0  0  0  0  0  0  0  0  0  0  0  0
   -4.6354   23.8394  -27.2047 H   0  0  0  0  0  0  0  0  0  0  0  0
   -2.9359   25.8773  -27.4930 H   0  0  0  0  0  0  0  0  0  0  0  0
   -2.4004   24.2689  -26.8806 H   0  0  0  0  0  0  0  0  0  0  0  0
   -1.1076   23.2467  -30.0301 H   0  0  0  0  0  0  0  0  0  0  0  0
   -0.8458   23.0662  -28.2305 H   0  0  0  0  0  0  0  0  0  0  0  0
   -2.6713   21.6250  -29.7323 H   0  0  0  0  0  0  0  0  0  0  0  0
   -2.7227   21.8995  -27.9361 H   0  0  0  0  0  0  0  0  0  0  0  0
   -4.5511   21.3063  -32.5072 H   0  0  0  0  0  0  0  0  0  0  0  0
   -6.3300   20.1490  -34.5600 H   0  0  0  0  0  0  0  0  0  0  0  0
   -7.3000   19.1350  -33.6450 H   0  0  0  0  0  0  0  0  0  0  0  0
   -4.4992   19.6517  -32.8684 H   0  0  0  0  0  0  0  0  0  0  0  0
   -4.6499   17.8260  -31.4746 H   0  0  0  0  0  0  0  0  0  0  0  0
   -6.4041   18.3258  -31.5205 H   0  0  0  0  0  0  0  0  0  0  0  0
   -5.0579   15.9079  -32.6997 H   0  0  0  0  0  0  0  0  0  0  0  0
   -6.6633   16.0829  -31.8972 H   0  0  0  0  0  0  0  0  0  0  0  0
   -7.4846   14.7959  -33.3988 H   0  0  0  0  0  0  0  0  0  0  0  0
   -8.1239   15.5439  -34.9017 H   0  0  0  0  0  0  0  0  0  0  0  0
   -6.5009   14.7741  -34.9017 H   0  0  0  0  0  0  0  0  0  0  0  0
   -5.0497   16.2210  -35.2818 H   0  0  0  0  0  0  0  0  0  0  0  0
   -6.2351   17.5031  -35.7986 H   0  0  0  0  0  0  0  0  0  0  0  0
   -3.7367   17.7335  -34.1906 H   0  0  0  0  0  0  0  0  0  0  0  0
   -4.5803   18.9251  -35.2765 H   0  0  0  0  0  0  0  0  0  0  0  0
  1  2  1  0
  2  3  1  0
  3  4  2  0
  4  5  1  0
  5  6  2  0
  6  7  1  0
  7  8  2  0
  7  9  2  0
  7 10  1  0
 10 11  1  0
 11 12  1  0
 12 13  1  0
 13 14  1  0
 14 15  1  0
  6 16  1  0
 16 17  2  0
 17 18  1  0
 18 19  1  0
 19 20  1  0
 20 21  1  0
 21 22  1  0
 22 23  1  0
 22 24  1  0
 24 25  1  0
 17  3  1  0
 25 19  1  0
 15 10  1  0
  1 26  1  0
  1 27  1  0
  1 28  1  0
  4 29  1  0
  5 30  1  0
 11 31  1  0
 11 32  1  0
 12 33  1  0
 12 34  1  0
 14 35  1  0
 14 36  1  0
 15 37  1  0
 15 38  1  0
 16 39  1  0
 18 40  1  0
 18 41  1  0
 19 42  1  0
 20 43  1  0
 20 44  1  0
 21 45  1  0
 21 46  1  0
 23 47  1  0
 23 48  1  0
 23 49  1  0
 24 50  1  0
 24 51  1  0
 25 52  1  0
 25 53  1  0
M  CHG  1  18   1
M  END
>  <UniqueID>  (13) 
13

>  <SMILES>  (13) 
COc1ccc(S(=O)(=O)N2CCOCC2)cc1[NH2+]C1CCN(C)CC1

>  <Energy>  (13) 
71.7006496961458

>  <Genealogy>  (13) 
COc1ccc(S(=O)(=O)N2CCOCC2)cc1[NH2+]C1CCN(C)CC1 (protonated)
COc1ccc(S(=O)(=O)N2CCOCC2)cc1[NH2+]C1CCN(C)CC1 (3D coordinates assigned)
COc1ccc(S(=O)(=O)N2CCOCC2)cc1[NH2+]C1CCN(C)CC1 (nonaromatic ring conformer: 71.7006496961458 kcal/mol)

>  <smiles>  (13) 
COc1ccc(S(=O)(=O)N2CCOCC2)cc1NC1CCN(C)CC1

>  <score_type>  (13) 
oracle

>  <origin>  (13) 
adg

>  <m_score__min__energy>  (13) 
-8.9199999999999999

>  <m_primary>  (13) 
energy

$$$$
13:0
     RDKit          3D

 28 29  0  0  0  0  0  0  0  0999 V2000
   -6.0060   26.0300  -30.4540 O   0  0  0  0  0  0  0  0  0  0  0  0
   -5.2290   25.0740  -30.7280 C   0  0  0  0  0  0  0  0  0  0  0  0
   -3.8210   25.2160  -30.4950 N   0  0  0  0  0  0  0  0  0  0  0  0
   -3.0300   24.2580  -29.7310 C   0  0  0  0  0  0  0  0  0  0  0  0
   -2.1970   24.9720  -28.7140 C   0  0  0  0  0  0  0  0  0  0  0  0
   -2.0400   24.5970  -27.3950 C   0  0  0  0  0  0  0  0  0  0  0  0
   -1.1770   25.5230  -26.8480 C   0  0  0  0  0  0  0  0  0  0  0  0
   -0.8590   26.3990  -27.8670 C   0  0  0  0  0  0  0  0  0  0  0  0
   -1.4810   26.0440  -28.9670 O   0  0  0  0  0  0  0  0  0  0  0  0
   -5.7690   23.8140  -31.2880 C   0  0  0  0  0  0  0  0  0  0  0  0
   -4.9090   22.8740  -31.8840 C   0  0  0  0  0  0  0  0  0  0  0  0
   -5.4190   21.6920  -32.4240 C   0  0  0  0  0  0  0  0  0  0  0  0
   -6.7870   21.4270  -32.3710 C   0  0  0  0  0  0  0  0  0  0  0  0
   -7.6630   22.3370  -31.7560 C   0  0  0  0  0  0  0  0  0  0  0  0
   -9.1500   22.0760  -31.7400 C   0  0  0  0  0  0  0  0  0  0  0  0
   -9.4540   20.9240  -32.4440 F   0  0  0  0  0  0  0  0  0  0  0  0
   -9.6010   21.9200  -30.4410 F   0  0  0  0  0  0  0  0  0  0  0  0
   -9.8050   23.1450  -32.3200 F   0  0  0  0  0  0  0  0  0  0  0  0
   -7.1490   23.5400  -31.2380 C   0  0  0  0  0  0  0  0  0  0  0  0
   -3.7045   23.5552  -29.2199 H   0  0  0  0  0  0  0  0  0  0  0  0
   -2.3677   23.7102  -30.4175 H   0  0  0  0  0  0  0  0  0  0  0  0
   -2.5055   23.7396  -26.8869 H   0  0  0  0  0  0  0  0  0  0  0  0
   -0.8151   25.5570  -25.8098 H   0  0  0  0  0  0  0  0  0  0  0  0
   -0.1860   27.2638  -27.7713 H   0  0  0  0  0  0  0  0  0  0  0  0
   -3.8276   23.0715  -31.9249 H   0  0  0  0  0  0  0  0  0  0  0  0
   -4.7386   20.9663  -32.8935 H   0  0  0  0  0  0  0  0  0  0  0  0
   -7.1823   20.5006  -32.8131 H   0  0  0  0  0  0  0  0  0  0  0  0
   -7.8333   24.2748  -30.7888 H   0  0  0  0  0  0  0  0  0  0  0  0
  1  2  2  0
  2  3  1  0
  3  4  1  0
  4  5  1  0
  5  6  2  0
  6  7  1  0
  7  8  2  0
  8  9  1  0
  2 10  1  0
 10 11  2  0
 11 12  1  0
 12 13  2  0
 13 14  1  0
 14 15  1  0
 15 16  1  0
 15 17  1  0
 15 18  1  0
 14 19  2  0
  9  5  1  0
 19 10  1  0
  4 20  1  0
  4 21  1  0
  6 22  1  0
  7 23  1  0
  8 24  1  0
 11 25  1  0
 12 26  1  0
 13 27  1  0
 19 28  1  0
M  CHG  1   3  -1
M  END
>  <UniqueID>  (14) 
14

>  <SMILES>  (14) 
O=C([N-]Cc1ccco1)c1cccc(C(F)(F)F)c1

>  <Energy>  (14) 
52.61542703140424

>  <Genealogy>  (14) 
O=C([N-]Cc1ccco1)c1cccc(C(F)(F)F)c1 (protonated)
O=C([N-]Cc1ccco1)c1cccc(C(F)(F)F)c1 (3D coordinates assigned)
O=C([N-]Cc1ccco1)c1cccc(C(F)(F)F)c1 (optimized conformer: 52.61542703140424 kcal/mol)

>  <smiles>  (14) 
O=C(NCc1ccco1)c1cccc(C(F)(F)F)c1

>  <score_type>  (14) 
oracle

>  <origin>  (14) 
adg

>  <m_score__min__energy>  (14) 
-8.9499999999999993

>  <m_primary>  (14) 
energy

$$$$
14:0
     RDKit          3D

 50 52  0  0  0  0  0  0  0  0999 V2000
   -0.4276   27.8337  -28.0732 H   0  0  0  0  0  0  0  0  0  0  0  0
   -0.8710   26.8350  -27.9470 C   0  0  0  0  0  0  0  0  0  0  0  0
   -1.1180   26.2720  -26.7470 N   0  0  0  0  0  0  0  0  0  0  0  0
   -1.6520   25.0760  -27.0610 C   0  0  0  0  0  0  0  0  0  0  0  0
   -1.9877   24.3167  -26.3393 H   0  0  0  0  0  0  0  0  0  0  0  0
   -1.7100   24.9570  -28.4380 C   0  0  0  0  0  0  0  0  0  0  0  0
   -2.2260   23.8100  -29.2320 C   0  0  0  0  0  0  0  0  0  0  0  0
   -1.7270   22.5140  -29.0060 C   0  0  0  0  0  0  0  0  0  0  0  0
   -0.9547   22.3556  -28.2389 H   0  0  0  0  0  0  0  0  0  0  0  0
   -2.1990   21.4280  -29.7420 C   0  0  0  0  0  0  0  0  0  0  0  0
   -1.8030   20.4206  -29.5459 H   0  0  0  0  0  0  0  0  0  0  0  0
   -3.1750   21.6130  -30.7300 C   0  0  0  0  0  0  0  0  0  0  0  0
   -3.6850   20.4990  -31.4850 N   0  0  0  0  0  0  0  0  0  0  0  0
   -3.7720   19.5880  -30.9770 H   0  0  0  0  0  0  0  0  0  0  0  0
   -4.0410   20.5570  -32.7420 C   0  0  0  0  0  0  0  0  0  0  0  0
   -5.0990   21.4210  -33.1890 N   0  0  0  0  0  0  0  0  0  0  0  0
   -4.9750   21.9160  -34.1020 H   0  0  0  0  0  0  0  0  0  0  0  0
   -6.4630   21.2950  -32.6760 C   0  0  0  0  0  0  0  0  0  0  0  0
   -6.4380   21.2690  -31.5766 H   0  0  0  0  0  0  0  0  0  0  0  0
   -7.0578   22.1561  -33.0148 H   0  0  0  0  0  0  0  0  0  0  0  0
   -7.1050   19.9970  -33.2030 C   0  0  0  0  0  0  0  0  0  0  0  0
   -8.0609   19.8487  -32.6794 H   0  0  0  0  0  0  0  0  0  0  0  0
   -7.2265   20.1249  -34.2888 H   0  0  0  0  0  0  0  0  0  0  0  0
   -6.2780   18.7840  -33.0100 N   0  0  0  0  0  0  0  0  0  0  0  0
   -6.3620   17.8160  -34.1180 C   0  0  0  0  0  0  0  0  0  0  0  0
   -7.3653   17.3654  -34.1352 H   0  0  0  0  0  0  0  0  0  0  0  0
   -6.1745   18.3335  -35.0704 H   0  0  0  0  0  0  0  0  0  0  0  0
   -5.3040   16.7080  -33.9190 C   0  0  0  0  0  0  0  0  0  0  0  0
   -5.7740   15.7336  -34.1183 H   0  0  0  0  0  0  0  0  0  0  0  0
   -4.4763   16.9121  -34.6142 H   0  0  0  0  0  0  0  0  0  0  0  0
   -4.7640   16.6910  -32.6050 O   0  0  0  0  0  0  0  0  0  0  0  0
   -5.8040   16.7580  -31.6510 C   0  0  0  0  0  0  0  0  0  0  0  0
   -6.5436   15.9727  -31.8662 H   0  0  0  0  0  0  0  0  0  0  0  0
   -5.3764   16.6120  -30.6481 H   0  0  0  0  0  0  0  0  0  0  0  0
   -6.4960   18.1340  -31.7020 C   0  0  0  0  0  0  0  0  0  0  0  0
   -7.5760   18.0004  -31.5415 H   0  0  0  0  0  0  0  0  0  0  0  0
   -6.0675   18.7728  -30.9157 H   0  0  0  0  0  0  0  0  0  0  0  0
   -3.3070   19.7340  -33.7590 C   0  0  0  0  0  0  0  0  0  0  0  0
   -2.6596   19.0081  -33.2452 H   0  0  0  0  0  0  0  0  0  0  0  0
   -4.0319   19.1974  -34.3888 H   0  0  0  0  0  0  0  0  0  0  0  0
   -2.6913   20.3930  -34.3888 H   0  0  0  0  0  0  0  0  0  0  0  0
   -3.7010   22.8910  -30.9440 C   0  0  0  0  0  0  0  0  0  0  0  0
   -4.4940   23.0328  -31.6931 H   0  0  0  0  0  0  0  0  0  0  0  0
   -3.2290   24.0000  -30.2130 C   0  0  0  0  0  0  0  0  0  0  0  0
   -3.7310   25.2920  -30.4420 O   0  0  0  0  0  0  0  0  0  0  0  0
   -5.1110   25.6390  -30.4560 C   0  0  0  0  0  0  0  0  0  0  0  0
   -5.4765   25.7309  -29.4226 H   0  0  0  0  0  0  0  0  0  0  0  0
   -5.2426   26.5982  -30.9781 H   0  0  0  0  0  0  0  0  0  0  0  0
   -5.6807   24.8561  -30.9781 H   0  0  0  0  0  0  0  0  0  0  0  0
   -1.2180   26.0600  -28.9480 O   0  0  0  0  0  0  0  0  0  0  0  0
  1  2  1  0
  2  3  2  0
  3  4  1  0
  4  5  1  0
  4  6  2  0
  6  7  1  0
  7  8  2  0
  8  9  1  0
  8 10  1  0
 10 11  1  0
 10 12  2  0
 12 13  1  0
 13 14  1  0
 13 15  2  0
 15 16  1  0
 16 17  1  0
 16 18  1  0
 18 19  1  0
 18 20  1  0
 18 21  1  0
 21 22  1  0
 21 23  1  0
 21 24  1  0
 24 25  1  0
 25 26  1  0
 25 27  1  0
 25 28  1  0
 28 29  1  0
 28 30  1  0
 28 31  1  0
 31 32  1  0
 32 33  1  0
 32 34  1  0
 32 35  1  0
 35 36  1  0
 35 37  1  0
 15 38  1  0
 38 39  1  0
 38 40  1  0
 38 41  1  0
 12 42  1  0
 42 43  1  0
 42 44  2  0
 44 45  1  0
 45 46  1  0
 46 47  1  0
 46 48  1  0
 46 49  1  0
  6 50  1  0
 50  2  1  0
 44  7  1  0
 35 24  1  0
M  CHG  1  13   1
M  END
>  <UniqueID>  (15) 
15

>  <SMILES>  (15) 
COc1cc(/[NH+]=C(/C)NCCN2CCOCC2)ccc1-c1cnco1

>  <Energy>  (15) 
100.57441612540326

>  <Genealogy>  (15) 
COc1cc([NH+]=C(C)NCCN2CCOCC2)ccc1-c1cnco1 (protonated)
COc1cc(/[NH+]=C(/C)NCCN2CCOCC2)ccc1-c1cnco1 (cis-trans isomerization)
COc1cc(/[NH+]=C(/C)NCCN2CCOCC2)ccc1-c1cnco1 (3D coordinates assigned)
COc1cc(/[NH+]=C(/C)NCCN2CCOCC2)ccc1-c1cnco1 (nonaromatic ring conformer: 100.57441612540326 kcal/mol)

>  <smiles>  (15) 
COc1cc(N=C(C)NCCN2CCOCC2)ccc1-c1cnco1

>  <score_type>  (15) 
oracle

>  <origin>  (15) 
adg

>  <m_score__min__energy>  (15) 
-7.5499999999999998

>  <m_primary>  (15) 
energy

$$$$
15:0
     RDKit          3D

 57 60  0  0  0  0  0  0  0  0999 V2000
   -1.9630   24.4790  -27.8390 C   0  0  0  0  0  0  0  0  0  0  0  0
   -1.7030   24.3140  -29.2290 O   0  0  0  0  0  0  0  0  0  0  0  0
   -2.3950   23.4240  -30.0650 C   0  0  0  0  0  0  0  0  0  0  0  0
   -1.9470   22.0980  -30.2770 C   0  0  0  0  0  0  0  0  0  0  0  0
   -2.6920   21.2810  -31.1200 C   0  0  0  0  0  0  0  0  0  0  0  0
   -2.4140   20.0160  -31.4800 N   0  0  0  0  0  0  0  0  0  0  0  0
   -3.4320   19.7070  -32.3250 C   0  0  0  0  0  0  0  0  0  0  0  0
   -3.5160   18.4030  -33.0030 C   0  0  0  0  0  0  0  0  0  0  0  0
   -2.4340   17.9650  -33.7790 C   0  0  0  0  0  0  0  0  0  0  0  0
   -2.4930   16.7400  -34.4450 C   0  0  0  0  0  0  0  0  0  0  0  0
   -3.6290   15.9380  -34.3310 C   0  0  0  0  0  0  0  0  0  0  0  0
   -4.7060   16.3530  -33.5420 C   0  0  0  0  0  0  0  0  0  0  0  0
   -4.6560   17.5860  -32.8610 C   0  0  0  0  0  0  0  0  0  0  0  0
   -5.7030   18.0170  -32.0300 O   0  0  0  0  0  0  0  0  0  0  0  0
   -6.1550   17.3220  -30.8740 C   0  0  0  0  0  0  0  0  0  0  0  0
   -4.3130   20.7290  -32.5080 N   0  0  0  0  0  0  0  0  0  0  0  0
   -5.4340   20.7960  -33.4580 C   0  0  0  0  0  0  0  0  0  0  0  0
   -6.7160   21.3410  -32.7950 C   0  0  0  0  0  0  0  0  0  0  0  0
   -7.2640   20.4450  -31.7380 N   0  0  0  0  0  0  0  0  0  0  0  0
   -8.1910   19.4250  -32.2780 C   0  0  0  0  0  0  0  0  0  0  0  0
   -9.5610   20.0230  -32.6780 C   0  0  0  0  0  0  0  0  0  0  0  0
   -9.6810   21.3900  -32.3360 O   0  0  0  0  0  0  0  0  0  0  0  0
   -9.3900   21.5660  -30.9680 C   0  0  0  0  0  0  0  0  0  0  0  0
   -7.9220   21.2080  -30.6480 C   0  0  0  0  0  0  0  0  0  0  0  0
   -3.8260   21.7180  -31.7340 C   0  0  0  0  0  0  0  0  0  0  0  0
   -4.3000   23.0190  -31.5610 C   0  0  0  0  0  0  0  0  0  0  0  0
   -3.5710   23.8870  -30.7110 C   0  0  0  0  0  0  0  0  0  0  0  0
   -3.9750   25.2120  -30.4850 O   0  0  0  0  0  0  0  0  0  0  0  0
   -5.3320   25.6410  -30.4300 C   0  0  0  0  0  0  0  0  0  0  0  0
   -1.1750   23.9789  -27.2567 H   0  0  0  0  0  0  0  0  0  0  0  0
   -1.9762   25.5511  -27.5932 H   0  0  0  0  0  0  0  0  0  0  0  0
   -2.9387   24.0344  -27.5932 H   0  0  0  0  0  0  0  0  0  0  0  0
   -1.0350   21.7244  -29.7885 H   0  0  0  0  0  0  0  0  0  0  0  0
   -1.5331   18.5905  -33.8635 H   0  0  0  0  0  0  0  0  0  0  0  0
   -1.6439   16.4068  -35.0598 H   0  0  0  0  0  0  0  0  0  0  0  0
   -3.6774   14.9766  -34.8633 H   0  0  0  0  0  0  0  0  0  0  0  0
   -5.5969   15.7140  -33.4523 H   0  0  0  0  0  0  0  0  0  0  0  0
   -5.8120   17.8494  -29.9716 H   0  0  0  0  0  0  0  0  0  0  0  0
   -7.2542   17.2793  -30.8782 H   0  0  0  0  0  0  0  0  0  0  0  0
   -5.7483   16.2999  -30.8782 H   0  0  0  0  0  0  0  0  0  0  0  0
   -5.1553   21.4578  -34.2913 H   0  0  0  0  0  0  0  0  0  0  0  0
   -5.6409   19.7762  -33.8147 H   0  0  0  0  0  0  0  0  0  0  0  0
   -6.4858   22.3159  -32.3404 H   0  0  0  0  0  0  0  0  0  0  0  0
   -7.4802   21.4186  -33.5823 H   0  0  0  0  0  0  0  0  0  0  0  0
   -6.4660   19.9380  -31.2910 H   0  0  0  0  0  0  0  0  0  0  0  0
   -7.7328   18.9670  -33.1670 H   0  0  0  0  0  0  0  0  0  0  0  0
   -8.3685   18.6818  -31.4867 H   0  0  0  0  0  0  0  0  0  0  0  0
   -9.6855   19.9203  -33.7661 H   0  0  0  0  0  0  0  0  0  0  0  0
  -10.3373   19.4731  -32.1258 H   0  0  0  0  0  0  0  0  0  0  0  0
   -9.5681   22.6173  -30.6976 H   0  0  0  0  0  0  0  0  0  0  0  0
  -10.0417   20.8954  -30.3887 H   0  0  0  0  0  0  0  0  0  0  0  0
   -7.3611   22.1398  -30.4834 H   0  0  0  0  0  0  0  0  0  0  0  0
   -7.9251   20.5692  -29.7525 H   0  0  0  0  0  0  0  0  0  0  0  0
   -5.2133   23.3608  -32.0699 H   0  0  0  0  0  0  0  0  0  0  0  0
   -5.6432   25.7394  -29.3795 H   0  0  0  0  0  0  0  0  0  0  0  0
   -5.4297   26.6139  -30.9340 H   0  0  0  0  0  0  0  0  0  0  0  0
   -5.9712   24.9011  -30.9340 H   0  0  0  0  0  0  0  0  0  0  0  0
  1  2  1  0
  2  3  1  0
  3  4  2  0
  4  5  1  0
  5  6  1  0
  6  7  2  0
  7  8  1  0
  8  9  2  0
  9 10  1  0
 10 11  2  0
 11 12  1  0
 12 13  2  0
 13 14  1  0
 14 15  1  0
  7 16  1  0
 16 17  1  0
 17 18  1  0
 18 19  1  0
 19 20  1  0
 20 21  1  0
 21 22  1  0
 22 23  1  0
 23 24  1  0
 16 25  1  0
 25 26  1  0
 26 27  2  0
 27 28  1  0
 28 29  1  0
 27  3  1  0
 25  5  2  0
 13  8  1  0
 24 19  1  0
  1 30  1  0
  1 31  1  0
  1 32  1  0
  4 33  1  0
  9 34  1  0
 10 35  1  0
 11 36  1  0
 12 37  1  0
 15 38  1  0
 15 39  1  0
 15 40  1  0
 17 41  1  0
 17 42  1  0
 18 43  1  0
 18 44  1  0
 19 45  1  0
 20 46  1  0
 20 47  1  0
 21 48  1  0
 21 49  1  0
 23 50  1  0
 23 51  1  0
 24 52  1  0
 24 53  1  0
 26 54  1  0
 29 55  1  0
 29 56  1  0
 29 57  1  0
M  CHG  1  19   1
M  END
>  <UniqueID>  (16) 
16

>  <SMILES>  (16) 
COc1cc2nc(-c3ccccc3OC)n(CC[NH+]3CCOCC3)c2cc1OC

>  <Energy>  (16) 
112.98996742421753

>  <Genealogy>  (16) 
COc1cc2nc(-c3ccccc3OC)n(CC[NH+]3CCOCC3)c2cc1OC (protonated)
COc1cc2nc(-c3ccccc3OC)n(CC[NH+]3CCOCC3)c2cc1OC (3D coordinates assigned)
COc1cc2nc(-c3ccccc3OC)n(CC[NH+]3CCOCC3)c2cc1OC (nonaromatic ring conformer: 112.98996742421753 kcal/mol)

>  <smiles>  (16) 
COc1cc2nc(-c3ccccc3OC)n(CCN3CCOCC3)c2cc1OC

>  <score_type>  (16) 
oracle

>  <origin>  (16) 
adg

>  <m_score__min__energy>  (16) 
-7.4900000000000002

>  <m_primary>  (16) 
energy

$$$$
16:0
     RDKit          3D

 59 63  0  0  0  0  0  0  0  0999 V2000
   -7.1660   25.3010  -29.7700 C   0  0  0  0  0  0  0  0  0  0  0  0
   -5.6480   25.2750  -29.5560 C   0  0  0  0  0  0  0  0  0  0  0  0
   -5.1800   24.0070  -28.9360 N   0  0  0  0  0  0  0  0  0  0  0  0
   -3.8560   24.1480  -28.2620 C   0  0  0  0  0  0  0  0  0  0  0  0
   -3.9930   24.5760  -26.7960 C   0  0  0  0  0  0  0  0  0  0  0  0
   -5.2070   22.8800  -29.9080 C   0  0  0  0  0  0  0  0  0  0  0  0
   -4.7170   23.2110  -31.3400 C   0  0  0  0  0  0  0  0  0  0  0  0
   -5.6470   22.7390  -32.3660 N   0  0  0  0  0  0  0  0  0  0  0  0
   -5.6980   21.3440  -32.6950 C   0  0  0  0  0  0  0  0  0  0  0  0
   -4.5730   20.7070  -33.2020 C   0  0  0  0  0  0  0  0  0  0  0  0
   -4.5980   19.3520  -33.4820 C   0  0  0  0  0  0  0  0  0  0  0  0
   -5.7160   18.5800  -33.3310 N   0  0  0  0  0  0  0  0  0  0  0  0
   -5.7030   17.1780  -33.7820 C   0  0  0  0  0  0  0  0  0  0  0  0
   -6.8400   19.1600  -32.7670 C   0  0  0  0  0  0  0  0  0  0  0  0
   -7.9930   18.3980  -32.4620 C   0  0  0  0  0  0  0  0  0  0  0  0
   -9.1320   19.0010  -31.9280 C   0  0  0  0  0  0  0  0  0  0  0  0
   -9.1520   20.3700  -31.6790 C   0  0  0  0  0  0  0  0  0  0  0  0
   -8.0260   21.1480  -31.9390 C   0  0  0  0  0  0  0  0  0  0  0  0
   -6.8560   20.5640  -32.4620 C   0  0  0  0  0  0  0  0  0  0  0  0
   -3.2420   18.9990  -33.8760 C   0  0  0  0  0  0  0  0  0  0  0  0
   -2.4790   17.8340  -33.8040 C   0  0  0  0  0  0  0  0  0  0  0  0
   -1.1680   18.3000  -33.7740 C   0  0  0  0  0  0  0  0  0  0  0  0
    0.0280   17.6070  -33.6010 C   0  0  0  0  0  0  0  0  0  0  0  0
    1.2100   18.3590  -33.4530 C   0  0  0  0  0  0  0  0  0  0  0  0
    1.1670   19.7720  -33.4480 C   0  0  0  0  0  0  0  0  0  0  0  0
   -0.0570   20.4500  -33.5980 C   0  0  0  0  0  0  0  0  0  0  0  0
   -1.2020   19.6780  -33.7860 C   0  0  0  0  0  0  0  0  0  0  0  0
   -2.4740   20.0870  -33.8740 N   0  0  0  0  0  0  0  0  0  0  0  0
   -3.1870   21.2710  -33.4140 C   0  0  0  0  0  0  0  0  0  0  0  0
   -7.6738   25.3097  -28.7942 H   0  0  0  0  0  0  0  0  0  0  0  0
   -7.4413   26.2040  -30.3346 H   0  0  0  0  0  0  0  0  0  0  0  0
   -7.4720   24.4080  -30.3346 H   0  0  0  0  0  0  0  0  0  0  0  0
   -5.1526   25.3944  -30.5308 H   0  0  0  0  0  0  0  0  0  0  0  0
   -5.3941   26.0956  -28.8689 H   0  0  0  0  0  0  0  0  0  0  0  0
   -5.8980   23.7410  -28.2190 H   0  0  0  0  0  0  0  0  0  0  0  0
   -3.3342   23.1804  -28.3009 H   0  0  0  0  0  0  0  0  0  0  0  0
   -3.2908   24.9302  -28.7899 H   0  0  0  0  0  0  0  0  0  0  0  0
   -3.7235   23.7340  -26.1415 H   0  0  0  0  0  0  0  0  0  0  0  0
   -3.3215   25.4243  -26.5974 H   0  0  0  0  0  0  0  0  0  0  0  0
   -5.0323   24.8767  -26.5974 H   0  0  0  0  0  0  0  0  0  0  0  0
   -4.5693   22.0766  -29.5106 H   0  0  0  0  0  0  0  0  0  0  0  0
   -6.2660   22.6015  -30.0122 H   0  0  0  0  0  0  0  0  0  0  0  0
   -4.6095   24.3017  -31.4342 H   0  0  0  0  0  0  0  0  0  0  0  0
   -3.7559   22.6988  -31.4945 H   0  0  0  0  0  0  0  0  0  0  0  0
   -5.9400   23.4130  -33.1080 H   0  0  0  0  0  0  0  0  0  0  0  0
   -5.6968   16.5114  -32.9070 H   0  0  0  0  0  0  0  0  0  0  0  0
   -6.5993   16.9794  -34.3879 H   0  0  0  0  0  0  0  0  0  0  0  0
   -4.8031   16.9961  -34.3879 H   0  0  0  0  0  0  0  0  0  0  0  0
   -7.9910   17.3140  -32.6488 H   0  0  0  0  0  0  0  0  0  0  0  0
  -10.0192   18.3910  -31.7025 H   0  0  0  0  0  0  0  0  0  0  0  0
  -10.0609   20.8399  -31.2751 H   0  0  0  0  0  0  0  0  0  0  0  0
   -8.0510   22.2284  -31.7339 H   0  0  0  0  0  0  0  0  0  0  0  0
   -2.8306   16.7920  -33.7772 H   0  0  0  0  0  0  0  0  0  0  0  0
    0.0488   16.5074  -33.5806 H   0  0  0  0  0  0  0  0  0  0  0  0
    2.1746   17.8423  -33.3404 H   0  0  0  0  0  0  0  0  0  0  0  0
    2.0974   20.3459  -33.3259 H   0  0  0  0  0  0  0  0  0  0  0  0
   -0.1081   21.5484  -33.5680 H   0  0  0  0  0  0  0  0  0  0  0  0
   -2.7615   21.6606  -32.4774 H   0  0  0  0  0  0  0  0  0  0  0  0
   -3.1451   22.1241  -34.1072 H   0  0  0  0  0  0  0  0  0  0  0  0
  1  2  1  0
  2  3  1  0
  3  4  1  0
  4  5  1  0
  3  6  1  0
  6  7  1  0
  7  8  1  0
  8  9  1  0
  9 10  2  0
 10 11  1  0
 11 12  2  0
 12 13  1  0
 12 14  1  0
 14 15  2  0
 15 16  1  0
 16 17  2  0
 17 18  1  0
 18 19  2  0
 11 20  1  0
 20 21  2  0
 21 22  1  0
 22 23  2  0
 23 24  1  0
 24 25  2  0
 25 26  1  0
 26 27  2  0
 27 28  1  0
 28 29  1  0
 19  9  1  0
 28 20  1  0
 29 10  1  0
 19 14  1  0
 27 22  1  0
  1 30  1  0
  1 31  1  0
  1 32  1  0
  2 33  1  0
  2 34  1  0
  3 35  1  0
  4 36  1  0
  4 37  1  0
  5 38  1  0
  5 39  1  0
  5 40  1  0
  6 41  1  0
  6 42  1  0
  7 43  1  0
  7 44  1  0
  8 45  1  0
 13 46  1  0
 13 47  1  0
 13 48  1  0
 15 49  1  0
 16 50  1  0
 17 51  1  0
 18 52  1  0
 21 53  1  0
 23 54  1  0
 24 55  1  0
 25 56  1  0
 26 57  1  0
 29 58  1  0
 29 59  1  0
M  CHG  2   3   1  12   1
M  END
>  <UniqueID>  (17) 
17

>  <SMILES>  (17) 
CC[NH+](CC)CCNc1c2c([n+](C)c3ccccc13)-c1cc3ccccc3n1C2

>  <Energy>  (17) 
158.27713965194522

>  <Genealogy>  (17) 
CC[NH+](CC)CCNc1c2c([n+](C)c3ccccc13)-c1cc3ccccc3n1C2 (protonated)
CC[NH+](CC)CCNc1c2c([n+](C)c3ccccc13)-c1cc3ccccc3n1C2 (3D coordinates assigned)
CC[NH+](CC)CCNc1c2c([n+](C)c3ccccc13)-c1cc3ccccc3n1C2 (nonaromatic ring conformer: 158.27713965194522 kcal/mol)

>  <smiles>  (17) 
CCN(CC)CCNc1c2c([n+](C)c3ccccc13)-c1cc3ccccc3n1C2

>  <score_type>  (17) 
oracle

>  <origin>  (17) 
adg

>  <m_score__min__energy>  (17) 
-7.8099999999999996

>  <m_primary>  (17) 
energy

$$$$
17:0
     RDKit          3D

 46 48  0  0  0  0  0  0  0  0999 V2000
   -5.5990   17.5970  -34.0880 C   0  0  0  0  0  0  0  0  0  0  0  0
   -6.0830   18.9070  -34.3650 O   0  0  0  0  0  0  0  0  0  0  0  0
   -6.5280   19.8110  -33.3890 C   0  0  0  0  0  0  0  0  0  0  0  0
   -7.7300   19.6240  -32.6800 C   0  0  0  0  0  0  0  0  0  0  0  0
   -8.1350   20.5510  -31.7170 C   0  0  0  0  0  0  0  0  0  0  0  0
   -7.3480   21.6780  -31.4460 C   0  0  0  0  0  0  0  0  0  0  0  0
   -7.7440   22.6130  -30.4800 C   0  0  0  0  0  0  0  0  0  0  0  0
   -6.9520   23.7320  -30.2160 C   0  0  0  0  0  0  0  0  0  0  0  0
   -5.7480   23.9400  -30.9140 C   0  0  0  0  0  0  0  0  0  0  0  0
   -4.9090   25.1270  -30.6240 C   0  0  0  0  0  0  0  0  0  0  0  0
   -5.4450   26.2590  -30.4680 O   0  0  0  0  0  0  0  0  0  0  0  0
   -3.4880   24.9940  -30.5170 N   0  0  0  0  0  0  0  0  0  0  0  0
   -2.8250   24.5270  -29.3050 C   0  0  0  0  0  0  0  0  0  0  0  0
   -2.7050   23.0010  -29.3210 C   0  0  0  0  0  0  0  0  0  0  0  0
   -1.7550   22.4330  -30.4030 C   0  0  0  0  0  0  0  0  0  0  0  0
   -2.3830   21.7440  -31.5560 N   0  0  0  0  0  0  0  0  0  0  0  0
   -1.5770   21.5430  -32.7640 C   0  0  0  0  0  0  0  0  0  0  0  0
   -2.2470   20.4160  -33.5210 C   0  0  0  0  0  0  0  0  0  0  0  0
   -2.8560   19.5510  -32.4360 C   0  0  0  0  0  0  0  0  0  0  0  0
   -3.0760   20.4860  -31.2530 C   0  0  0  0  0  0  0  0  0  0  0  0
   -5.3500   23.0020  -31.8840 C   0  0  0  0  0  0  0  0  0  0  0  0
   -6.1390   21.8740  -32.1540 C   0  0  0  0  0  0  0  0  0  0  0  0
   -5.7410   20.9370  -33.1200 C   0  0  0  0  0  0  0  0  0  0  0  0
   -5.5443   17.4489  -32.9994 H   0  0  0  0  0  0  0  0  0  0  0  0
   -6.2819   16.8537  -34.5253 H   0  0  0  0  0  0  0  0  0  0  0  0
   -4.5969   17.4763  -34.5253 H   0  0  0  0  0  0  0  0  0  0  0  0
   -8.3542   18.7420  -32.8859 H   0  0  0  0  0  0  0  0  0  0  0  0
   -9.0760   20.3956  -31.1689 H   0  0  0  0  0  0  0  0  0  0  0  0
   -8.6833   22.4645  -29.9272 H   0  0  0  0  0  0  0  0  0  0  0  0
   -7.2724   24.4584  -29.4546 H   0  0  0  0  0  0  0  0  0  0  0  0
   -1.8197   24.9697  -29.2475 H   0  0  0  0  0  0  0  0  0  0  0  0
   -3.4203   24.8305  -28.4312 H   0  0  0  0  0  0  0  0  0  0  0  0
   -2.3347   22.6771  -28.3371 H   0  0  0  0  0  0  0  0  0  0  0  0
   -3.7076   22.6153  -29.5577 H   0  0  0  0  0  0  0  0  0  0  0  0
   -1.1643   23.2720  -30.7994 H   0  0  0  0  0  0  0  0  0  0  0  0
   -1.1701   21.6555  -29.8898 H   0  0  0  0  0  0  0  0  0  0  0  0
   -1.5635   22.4591  -33.3728 H   0  0  0  0  0  0  0  0  0  0  0  0
   -0.5319   21.3025  -32.5193 H   0  0  0  0  0  0  0  0  0  0  0  0
   -3.0261   20.8060  -34.1925 H   0  0  0  0  0  0  0  0  0  0  0  0
   -1.5440   19.8599  -34.1586 H   0  0  0  0  0  0  0  0  0  0  0  0
   -3.8124   19.1254  -32.7739 H   0  0  0  0  0  0  0  0  0  0  0  0
   -2.2057   18.7035  -32.1737 H   0  0  0  0  0  0  0  0  0  0  0  0
   -4.1513   20.6723  -31.1154 H   0  0  0  0  0  0  0  0  0  0  0  0
   -2.6858   20.0399  -30.3263 H   0  0  0  0  0  0  0  0  0  0  0  0
   -4.4109   23.1546  -32.4361 H   0  0  0  0  0  0  0  0  0  0  0  0
   -4.8013   21.0889  -33.6713 H   0  0  0  0  0  0  0  0  0  0  0  0
  1  2  1  0
  2  3  1  0
  3  4  2  0
  4  5  1  0
  5  6  2  0
  6  7  1  0
  7  8  2  0
  8  9  1  0
  9 10  1  0
 10 11  2  0
 10 12  1  0
 12 13  1  0
 13 14  1  0
 14 15  1  0
 15 16  1  0
 16 17  1  0
 17 18  1  0
 18 19  1  0
 19 20  1  0
  9 21  2  0
 21 22  1  0
 22 23  2  0
 23  3  1  0
 22  6  1  0
 20 16  1  0
  1 24  1  0
  1 25  1  0
  1 26  1  0
  4 27  1  0
  5 28  1  0
  7 29  1  0
  8 30  1  0
 13 31  1  0
 13 32  1  0
 14 33  1  0
 14 34  1  0
 15 35  1  0
 15 36  1  0
 17 37  1  0
 17 38  1  0
 18 39  1  0
 18 40  1  0
 19 41  1  0
 19 42  1  0
 20 43  1  0
 20 44  1  0
 21 45  1  0
 23 46  1  0
M  CHG  1  12  -1
M  END
>  <UniqueID>  (18) 
18

>  <SMILES>  (18) 
COc1ccc2ccc(C(=O)[N-]CCCN3CCCC3)cc2c1

>  <Energy>  (18) 
54.626379021549646

>  <Genealogy>  (18) 
COc1ccc2ccc(C(=O)[N-]CCCN3CCCC3)cc2c1 (protonated)
COc1ccc2ccc(C(=O)[N-]CCCN3CCCC3)cc2c1 (3D coordinates assigned)
COc1ccc2ccc(C(=O)[N-]CCCN3CCCC3)cc2c1 (nonaromatic ring conformer: 54.626379021549646 kcal/mol)

>  <smiles>  (18) 
COc1ccc2ccc(C(=O)NCCCN3CCCC3)cc2c1

>  <score_type>  (18) 
oracle

>  <origin>  (18) 
adg

>  <m_score__min__energy>  (18) 
-9.8699999999999992

>  <m_primary>  (18) 
energy

$$$$
18:0
     RDKit          3D

 23 22  0  0  0  0  0  0  0  0999 V2000
   -5.7980   18.4960  -34.2470 C   0  0  0  0  0  0  0  0  0  0  0  0
   -6.8450   18.6420  -33.1310 C   0  0  0  0  0  0  0  0  0  0  0  0
   -7.6500   19.8920  -33.2030 N   0  0  0  0  0  0  0  0  0  0  0  0
   -8.9540   19.7950  -32.4930 C   0  0  0  0  0  0  0  0  0  0  0  0
   -9.0570   18.5560  -31.5960 C   0  0  0  0  0  0  0  0  0  0  0  0
   -6.8670   21.0620  -32.7150 C   0  0  0  0  0  0  0  0  0  0  0  0
   -7.7230   22.0710  -31.9310 C   0  0  0  0  0  0  0  0  0  0  0  0
   -6.7770   23.5220  -31.5010 Cl  0  0  0  0  0  0  0  0  0  0  0  0
   -4.8026   18.3572  -33.8000 H   0  0  0  0  0  0  0  0  0  0  0  0
   -6.0452   17.6236  -34.8698 H   0  0  0  0  0  0  0  0  0  0  0  0
   -5.7971   19.4027  -34.8698 H   0  0  0  0  0  0  0  0  0  0  0  0
   -7.5330   17.7858  -33.1905 H   0  0  0  0  0  0  0  0  0  0  0  0
   -6.2895   18.6805  -32.1824 H   0  0  0  0  0  0  0  0  0  0  0  0
   -7.8590   20.0380  -34.2190 H   0  0  0  0  0  0  0  0  0  0  0  0
   -9.0805   20.6915  -31.8683 H   0  0  0  0  0  0  0  0  0  0  0  0
   -9.7400   19.7135  -33.2582 H   0  0  0  0  0  0  0  0  0  0  0  0
   -9.0314   18.8644  -30.5404 H   0  0  0  0  0  0  0  0  0  0  0  0
  -10.0018   18.0317  -31.8020 H   0  0  0  0  0  0  0  0  0  0  0  0
   -8.2117   17.8829  -31.8020 H   0  0  0  0  0  0  0  0  0  0  0  0
   -6.0642   20.6973  -32.0574 H   0  0  0  0  0  0  0  0  0  0  0  0
   -6.4684   21.5834  -33.5978 H   0  0  0  0  0  0  0  0  0  0  0  0
   -8.5805   22.3722  -32.5507 H   0  0  0  0  0  0  0  0  0  0  0  0
   -8.0656   21.5905  -31.0027 H   0  0  0  0  0  0  0  0  0  0  0  0
  1  2  1  0
  2  3  1  0
  3  4  1  0
  4  5  1  0
  3  6  1  0
  6  7  1  0
  7  8  1  0
  1  9  1  0
  1 10  1  0
  1 11  1  0
  2 12  1  0
  2 13  1  0
  3 14  1  0
  4 15  1  0
  4 16  1  0
  5 17  1  0
  5 18  1  0
  5 19  1  0
  6 20  1  0
  6 21  1  0
  7 22  1  0
  7 23  1  0
M  CHG  1   3   1
M  END
>  <UniqueID>  (19) 
19

>  <SMILES>  (19) 
CC[NH+](CC)CCCl

>  <Energy>  (19) 
20.137697690207915

>  <Genealogy>  (19) 
CC[NH+](CC)CCCl (protonated)
CC[NH+](CC)CCCl (3D coordinates assigned)
CC[NH+](CC)CCCl (optimized conformer: 20.137697690207915 kcal/mol)

>  <smiles>  (19) 
CCN(CC)CCCl

>  <score_type>  (19) 
oracle

>  <origin>  (19) 
adg

>  <m_score__min__energy>  (19) 
-3.0499999999999998

>  <m_primary>  (19) 
energy

$$$$
19:0
     RDKit          3D

 58 60  0  0  0  0  0  0  0  0999 V2000
   -2.7620   21.1650  -33.4940 C   0  0  0  0  0  0  0  0  0  0  0  0
   -2.8180   19.8810  -32.6530 C   0  0  0  0  0  0  0  0  0  0  0  0
   -3.9820   18.9970  -32.9440 N   0  0  0  0  0  0  0  0  0  0  0  0
   -3.6620   17.8670  -33.8560 C   0  0  0  0  0  0  0  0  0  0  0  0
   -4.5980   17.7850  -35.0670 C   0  0  0  0  0  0  0  0  0  0  0  0
   -5.1300   19.7860  -33.4600 C   0  0  0  0  0  0  0  0  0  0  0  0
   -6.4290   19.4470  -32.7440 C   0  0  0  0  0  0  0  0  0  0  0  0
   -6.9780   18.1660  -32.9350 C   0  0  0  0  0  0  0  0  0  0  0  0
   -8.2010   17.8190  -32.3580 C   0  0  0  0  0  0  0  0  0  0  0  0
   -8.8970   18.7460  -31.5860 C   0  0  0  0  0  0  0  0  0  0  0  0
   -8.3700   20.0220  -31.3800 C   0  0  0  0  0  0  0  0  0  0  0  0
   -7.1350   20.3840  -31.9420 C   0  0  0  0  0  0  0  0  0  0  0  0
   -6.6180   21.7430  -31.6720 C   0  0  0  0  0  0  0  0  0  0  0  0
   -7.4190   22.8630  -31.9310 C   0  0  0  0  0  0  0  0  0  0  0  0
   -6.9330   24.1470  -31.6780 C   0  0  0  0  0  0  0  0  0  0  0  0
   -5.6500   24.3220  -31.1540 C   0  0  0  0  0  0  0  0  0  0  0  0
   -4.8400   23.2080  -30.8660 C   0  0  0  0  0  0  0  0  0  0  0  0
   -3.4770   23.3920  -30.3080 C   0  0  0  0  0  0  0  0  0  0  0  0
   -2.5320   22.3570  -30.3800 C   0  0  0  0  0  0  0  0  0  0  0  0
   -1.2500   22.5280  -29.8580 C   0  0  0  0  0  0  0  0  0  0  0  0
   -0.8830   23.7430  -29.2520 C   0  0  0  0  0  0  0  0  0  0  0  0
    0.3970   23.9530  -28.7150 O   0  0  0  0  0  0  0  0  0  0  0  0
    0.8490   23.4150  -27.4760 C   0  0  0  0  0  0  0  0  0  0  0  0
   -1.8170   24.7880  -29.1750 C   0  0  0  0  0  0  0  0  0  0  0  0
   -1.4220   25.9910  -28.5680 O   0  0  0  0  0  0  0  0  0  0  0  0
   -1.2170   26.1620  -27.1700 C   0  0  0  0  0  0  0  0  0  0  0  0
   -3.1100   24.6070  -29.7030 C   0  0  0  0  0  0  0  0  0  0  0  0
   -5.3390   21.9180  -31.1200 C   0  0  0  0  0  0  0  0  0  0  0  0
   -2.7239   22.0388  -32.8270 H   0  0  0  0  0  0  0  0  0  0  0  0
   -1.8637   21.1487  -34.1287 H   0  0  0  0  0  0  0  0  0  0  0  0
   -3.6583   21.2270  -34.1287 H   0  0  0  0  0  0  0  0  0  0  0  0
   -1.8976   19.3084  -32.8399 H   0  0  0  0  0  0  0  0  0  0  0  0
   -2.9238   20.1997  -31.6055 H   0  0  0  0  0  0  0  0  0  0  0  0
   -4.2660   18.5850  -32.0240 H   0  0  0  0  0  0  0  0  0  0  0  0
   -2.6310   17.9916  -34.2187 H   0  0  0  0  0  0  0  0  0  0  0  0
   -3.7883   16.9374  -33.2816 H   0  0  0  0  0  0  0  0  0  0  0  0
   -5.6382   17.6939  -34.7210 H   0  0  0  0  0  0  0  0  0  0  0  0
   -4.4922   18.6959  -35.6746 H   0  0  0  0  0  0  0  0  0  0  0  0
   -4.3354   16.9064  -35.6746 H   0  0  0  0  0  0  0  0  0  0  0  0
   -4.9165   20.8558  -33.3188 H   0  0  0  0  0  0  0  0  0  0  0  0
   -5.2573   19.5401  -34.5246 H   0  0  0  0  0  0  0  0  0  0  0  0
   -6.4371   17.4287  -33.5464 H   0  0  0  0  0  0  0  0  0  0  0  0
   -8.6155   16.8120  -32.5133 H   0  0  0  0  0  0  0  0  0  0  0  0
   -9.8635   18.4722  -31.1379 H   0  0  0  0  0  0  0  0  0  0  0  0
   -8.9269   20.7503  -30.7722 H   0  0  0  0  0  0  0  0  0  0  0  0
   -8.4336   22.7302  -32.3348 H   0  0  0  0  0  0  0  0  0  0  0  0
   -7.5622   25.0235  -31.8919 H   0  0  0  0  0  0  0  0  0  0  0  0
   -5.2705   25.3371  -30.9653 H   0  0  0  0  0  0  0  0  0  0  0  0
   -2.8049   21.4019  -30.8526 H   0  0  0  0  0  0  0  0  0  0  0  0
   -0.5208   21.7068  -29.9207 H   0  0  0  0  0  0  0  0  0  0  0  0
    0.3851   23.9672  -26.6454 H   0  0  0  0  0  0  0  0  0  0  0  0
    0.5678   22.3534  -27.4129 H   0  0  0  0  0  0  0  0  0  0  0  0
    1.9432   23.5089  -27.4129 H   0  0  0  0  0  0  0  0  0  0  0  0
   -1.9464   25.5535  -26.6153 H   0  0  0  0  0  0  0  0  0  0  0  0
   -0.1977   25.8426  -26.9071 H   0  0  0  0  0  0  0  0  0  0  0  0
   -1.3484   27.2220  -26.9071 H   0  0  0  0  0  0  0  0  0  0  0  0
   -3.8416   25.4261  -29.6413 H   0  0  0  0  0  0  0  0  0  0  0  0
   -4.7219   21.0385  -30.8842 H   0  0  0  0  0  0  0  0  0  0  0  0
  1  2  1  0
  2  3  1  0
  3  4  1  0
  4  5  1  0
  3  6  1  0
  6  7  1  0
  7  8  2  0
  8  9  1  0
  9 10  2  0
 10 11  1  0
 11 12  2  0
 12 13  1  0
 13 14  2  0
 14 15  1  0
 15 16  2  0
 16 17  1  0
 17 18  1  0
 18 19  2  0
 19 20  1  0
 20 21  2  0
 21 22  1  0
 22 23  1  0
 21 24  1  0
 24 25  1  0
 25 26  1  0
 24 27  2  0
 17 28  2  0
 12  7  1  0
 28 13  1  0
 27 18  1  0
  1 29  1  0
  1 30  1  0
  1 31  1  0
  2 32  1  0
  2 33  1  0
  3 34  1  0
  4 35  1  0
  4 36  1  0
  5 37  1  0
  5 38  1  0
  5 39  1  0
  6 40  1  0
  6 41  1  0
  8 42  1  0
  9 43  1  0
 10 44  1  0
 11 45  1  0
 14 46  1  0
 15 47  1  0
 16 48  1  0
 19 49  1  0
 20 50  1  0
 23 51  1  0
 23 52  1  0
 23 53  1  0
 26 54  1  0
 26 55  1  0
 26 56  1  0
 27 57  1  0
 28 58  1  0
M  CHG  1   3   1
M  END
>  <UniqueID>  (20) 
20

>  <SMILES>  (20) 
CC[NH+](CC)Cc1ccccc1-c1cccc(-c2ccc(OC)c(OC)c2)c1

>  <Energy>  (20) 
73.86761378893235

>  <Genealogy>  (20) 
CC[NH+](CC)Cc1ccccc1-c1cccc(-c2ccc(OC)c(OC)c2)c1 (protonated)
CC[NH+](CC)Cc1ccccc1-c1cccc(-c2ccc(OC)c(OC)c2)c1 (3D coordinates assigned)
CC[NH+](CC)Cc1ccccc1-c1cccc(-c2ccc(OC)c(OC)c2)c1 (optimized conformer: 73.86761378893235 kcal/mol)

>  <smiles>  (20) 
CCN(CC)Cc1ccccc1-c1cccc(-c2ccc(OC)c(OC)c2)c1

>  <score_type>  (20) 
oracle

>  <origin>  (20) 
adg

>  <m_score__min__energy>  (20) 
-8.3499999999999996

>  <m_primary>  (20) 
energy

$$$$
20:0
     RDKit          3D

 37 39  0  0  0  0  0  0  0  0999 V2000
   -3.8600   21.5380  -32.8770 C   0  0  0  0  0  0  0  0  0  0  0  0
   -4.2020   22.2950  -32.0040 C   0  0  0  0  0  0  0  0  0  0  0  0
   -4.6180   23.2220  -30.9360 C   0  0  0  0  0  0  0  0  0  0  0  0
   -6.0460   23.5920  -31.0270 N   0  0  0  0  0  0  0  0  0  0  0  0
   -6.8530   23.1340  -29.8690 C   0  0  0  0  0  0  0  0  0  0  0  0
   -7.8600   22.0420  -30.2560 C   0  0  0  0  0  0  0  0  0  0  0  0
   -8.7930   22.5150  -31.3030 N   0  0  0  0  0  0  0  0  0  0  0  0
   -9.4900   21.3720  -31.9250 C   0  0  0  0  0  0  0  0  0  0  0  0
   -8.5120   20.2970  -32.2840 C   0  0  0  0  0  0  0  0  0  0  0  0
   -7.5310   20.3880  -33.2710 C   0  0  0  0  0  0  0  0  0  0  0  0
   -6.7860   19.2100  -33.3880 C   0  0  0  0  0  0  0  0  0  0  0  0
   -5.7360   18.9830  -34.2820 C   0  0  0  0  0  0  0  0  0  0  0  0
   -5.0930   17.7340  -34.2670 C   0  0  0  0  0  0  0  0  0  0  0  0
   -5.5030   16.7310  -33.3670 C   0  0  0  0  0  0  0  0  0  0  0  0
   -6.5590   16.9680  -32.4720 C   0  0  0  0  0  0  0  0  0  0  0  0
   -7.1800   18.2150  -32.5060 C   0  0  0  0  0  0  0  0  0  0  0  0
   -8.4570   18.7660  -31.5640 S   0  0  0  0  0  0  0  0  0  0  0  0
   -8.1550   23.4000  -32.3150 C   0  0  0  0  0  0  0  0  0  0  0  0
   -6.6280   23.2620  -32.3450 C   0  0  0  0  0  0  0  0  0  0  0  0
   -3.5478   20.8470  -33.6739 H   0  0  0  0  0  0  0  0  0  0  0  0
   -4.4404   22.7405  -29.9630 H   0  0  0  0  0  0  0  0  0  0  0  0
   -4.0279   24.1437  -31.0472 H   0  0  0  0  0  0  0  0  0  0  0  0
   -6.1746   22.7335  -29.1013 H   0  0  0  0  0  0  0  0  0  0  0  0
   -7.4211   23.9973  -29.4923 H   0  0  0  0  0  0  0  0  0  0  0  0
   -7.3113   21.1669  -30.6343 H   0  0  0  0  0  0  0  0  0  0  0  0
   -8.4460   21.7790  -29.3630 H   0  0  0  0  0  0  0  0  0  0  0  0
  -10.2282   20.9685  -31.2164 H   0  0  0  0  0  0  0  0  0  0  0  0
   -9.9936   21.7164  -32.8403 H   0  0  0  0  0  0  0  0  0  0  0  0
   -7.3624   21.2836  -33.8870 H   0  0  0  0  0  0  0  0  0  0  0  0
   -5.4189   19.7678  -34.9845 H   0  0  0  0  0  0  0  0  0  0  0  0
   -4.2638   17.5380  -34.9627 H   0  0  0  0  0  0  0  0  0  0  0  0
   -4.9931   15.7563  -33.3652 H   0  0  0  0  0  0  0  0  0  0  0  0
   -6.8864   16.1918  -31.7647 H   0  0  0  0  0  0  0  0  0  0  0  0
   -8.5511   23.1413  -33.3081 H   0  0  0  0  0  0  0  0  0  0  0  0
   -8.3888   24.4394  -32.0412 H   0  0  0  0  0  0  0  0  0  0  0  0
   -6.3644   22.2266  -32.6068 H   0  0  0  0  0  0  0  0  0  0  0  0
   -6.2252   23.9602  -33.0935 H   0  0  0  0  0  0  0  0  0  0  0  0
  1  2  3  0
  2  3  1  0
  3  4  1  0
  4  5  1  0
  5  6  1  0
  6  7  1  0
  7  8  1  0
  8  9  1  0
  9 10  2  0
 10 11  1  0
 11 12  2  0
 12 13  1  0
 13 14  2  0
 14 15  1  0
 15 16  2  0
 16 17  1  0
  7 18  1  0
 18 19  1  0
 19  4  1  0
 17  9  1  0
 16 11  1  0
  1 20  1  0
  3 21  1  0
  3 22  1  0
  5 23  1  0
  5 24  1  0
  6 25  1  0
  6 26  1  0
  8 27  1  0
  8 28  1  0
 10 29  1  0
 12 30  1  0
 13 31  1  0
 14 32  1  0
 15 33  1  0
 18 34  1  0
 18 35  1  0
 19 36  1  0
 19 37  1  0
M  END
>  <UniqueID>  (21) 
21

>  <SMILES>  (21) 
C#CCN1CCN(Cc2cc3ccccc3s2)CC1

>  <Energy>  (21) 
80.2610628762391

>  <Genealogy>  (21) 
C#CCN1CCN(Cc2cc3ccccc3s2)CC1 (3D coordinates assigned)
C#CCN1CCN(Cc2cc3ccccc3s2)CC1 (nonaromatic ring conformer: 80.2610628762391 kcal/mol)

>  <smiles>  (21) 
C#CCN1CCN(Cc2cc3ccccc3s2)CC1

>  <score_type>  (21) 
oracle

>  <origin>  (21) 
adg

>  <m_score__min__energy>  (21) 
-7.3799999999999999

>  <m_primary>  (21) 
energy

$$$$
21:0
     RDKit          3D

 47 50  0  0  1  0  0  0  0  0999 V2000
   -2.7970   16.6080  -34.0170 C   0  0  0  0  0  0  0  0  0  0  0  0
   -4.2230   16.2230  -34.0870 C   0  0  0  0  0  0  0  0  0  0  0  0
   -4.5120   14.8600  -34.1000 C   0  0  0  0  0  0  0  0  0  0  0  0
   -5.8360   14.4830  -34.1670 C   0  0  0  0  0  0  0  0  0  0  0  0
   -6.8290   15.4220  -34.2180 C   0  0  0  0  0  0  0  0  0  0  0  0
   -6.5680   16.7780  -34.2050 C   0  0  0  0  0  0  0  0  0  0  0  0
   -5.2350   17.1740  -34.1380 C   0  0  0  0  0  0  0  0  0  0  0  0
   -4.9160   18.6410  -34.1230 C   0  0  0  0  0  0  0  0  0  0  0  0
   -6.1740   19.3420  -34.2840 N   0  0  0  0  0  0  0  0  0  0  0  0
   -6.6970   20.1200  -33.4070 C   0  0  0  0  0  0  0  0  0  0  0  0
   -5.9250   21.0690  -32.8500 N   0  0  0  0  0  0  0  0  0  0  0  0
   -6.4900   21.8750  -31.9360 C   0  0  0  0  0  0  0  0  0  0  0  0
   -7.8180   21.7050  -31.6050 C   0  0  0  0  0  0  0  0  0  0  0  0
   -8.6090   20.7280  -32.1800 C   0  0  0  0  0  0  0  0  0  0  0  0
   -7.9920   19.9330  -33.1050 N   0  0  0  0  0  0  0  0  0  0  0  0
   -8.1790   22.6110  -30.6740 N   0  0  0  0  0  0  0  0  0  0  0  0
   -7.0770   23.3580  -30.4140 C   0  0  0  0  0  0  0  0  0  0  0  0
   -6.0620   22.9080  -31.1780 N   0  0  0  0  0  0  0  0  0  0  0  0
   -4.7120   23.4750  -31.1640 C   0  0  2  0  0  0  0  0  0  0  0  0
   -3.8420   22.5120  -30.6660 O   0  0  0  0  0  0  0  0  0  0  0  0
   -3.6590   22.7190  -29.3240 C   0  0  1  0  0  0  0  0  0  0  0  0
   -2.2130   22.3260  -28.9910 C   0  0  0  0  0  0  0  0  0  0  0  0
   -2.1950   20.8550  -27.7370 Br  0  0  0  0  0  0  0  0  0  0  0  0
   -3.9000   24.1670  -29.0330 C   0  0  2  0  0  0  0  0  0  0  0  0
   -4.6040   24.3650  -27.8550 O   0  0  0  0  0  0  0  0  0  0  0  0
   -4.6470   24.6580  -30.2260 C   0  0  1  0  0  0  0  0  0  0  0  0
   -3.8790   25.6280  -30.8650 O   0  0  0  0  0  0  0  0  0  0  0  0
   -2.4908   16.6907  -32.9637 H   0  0  0  0  0  0  0  0  0  0  0  0
   -2.1856   15.8428  -34.5176 H   0  0  0  0  0  0  0  0  0  0  0  0
   -2.6538   17.5770  -34.5176 H   0  0  0  0  0  0  0  0  0  0  0  0
   -3.7093   14.1090  -34.0581 H   0  0  0  0  0  0  0  0  0  0  0  0
   -6.0970   13.4145  -34.1796 H   0  0  0  0  0  0  0  0  0  0  0  0
   -7.8746   15.0845  -34.2714 H   0  0  0  0  0  0  0  0  0  0  0  0
   -7.3820   17.5168  -34.2460 H   0  0  0  0  0  0  0  0  0  0  0  0
   -4.4476   18.9174  -33.1669 H   0  0  0  0  0  0  0  0  0  0  0  0
   -4.2121   18.9012  -34.9272 H   0  0  0  0  0  0  0  0  0  0  0  0
   -9.6676   20.5986  -31.9103 H   0  0  0  0  0  0  0  0  0  0  0  0
   -8.5980   19.2040  -33.5260 H   0  0  0  0  0  0  0  0  0  0  0  0
   -7.0211   24.1919  -29.6989 H   0  0  0  0  0  0  0  0  0  0  0  0
   -4.4456   23.7878  -32.1844 H   0  0  0  0  0  0  0  0  0  0  0  0
   -4.3520   22.1190  -28.7159 H   0  0  0  0  0  0  0  0  0  0  0  0
   -1.6967   22.0234  -29.9139 H   0  0  0  0  0  0  0  0  0  0  0  0
   -1.7005   23.1888  -28.5405 H   0  0  0  0  0  0  0  0  0  0  0  0
   -2.9605   24.7160  -28.8722 H   0  0  0  0  0  0  0  0  0  0  0  0
   -4.7960   25.3160  -27.6800 H   0  0  0  0  0  0  0  0  0  0  0  0
   -5.6324   25.0637  -29.9533 H   0  0  0  0  0  0  0  0  0  0  0  0
   -3.3600   25.1870  -31.5820 H   0  0  0  0  0  0  0  0  0  0  0  0
  1  2  1  0
  2  3  2  0
  3  4  1  0
  4  5  2  0
  5  6  1  0
  6  7  2  0
  7  8  1  0
  8  9  1  0
  9 10  2  0
 10 11  1  0
 11 12  2  0
 12 13  1  0
 13 14  2  0
 14 15  1  0
 13 16  1  0
 16 17  2  0
 17 18  1  0
 18 19  1  0
 19 20  1  0
 20 21  1  0
 21 22  1  0
 22 23  1  0
 21 24  1  0
 24 25  1  0
 24 26  1  0
 26 27  1  0
  7  2  1  0
 15 10  1  0
 26 19  1  0
 18 12  1  0
  1 28  1  0
  1 29  1  0
  1 30  1  0
  3 31  1  0
  4 32  1  0
  5 33  1  0
  6 34  1  0
  8 35  1  0
  8 36  1  0
 14 37  1  0
 15 38  1  0
 17 39  1  0
 19 40  1  6
 21 41  1  1
 22 42  1  0
 22 43  1  0
 24 44  1  1
 25 45  1  0
 26 46  1  1
 27 47  1  0
M  END
>  <smiles>  (22) 
Cc1ccccc1CN=c1nc2c(c[nH]1)ncn2C1OC(CBr)C(O)C1O

>  <score_type>  (22) 
oracle

>  <origin>  (22) 
adg

>  <m_score__min__energy>  (22) 
-9.1999999999999993

>  <m_primary>  (22) 
energy

$$$$
22:0
     RDKit          3D

 62 63  0  0  0  0  0  0  0  0999 V2000
   -6.3630   24.3130  -31.0240 C   0  0  0  0  0  0  0  0  0  0  0  0
   -6.1290   23.0970  -31.8720 C   0  0  0  0  0  0  0  0  0  0  0  0
   -5.0350   23.0130  -32.4900 O   0  0  0  0  0  0  0  0  0  0  0  0
   -7.1590   22.0230  -32.0100 C   0  0  0  0  0  0  0  0  0  0  0  0
   -8.4270   22.1820  -31.4110 C   0  0  0  0  0  0  0  0  0  0  0  0
   -9.4080   21.1990  -31.5370 C   0  0  0  0  0  0  0  0  0  0  0  0
   -9.1480   20.0420  -32.2640 C   0  0  0  0  0  0  0  0  0  0  0  0
   -7.9030   19.8590  -32.8670 C   0  0  0  0  0  0  0  0  0  0  0  0
   -6.8970   20.8380  -32.7480 C   0  0  0  0  0  0  0  0  0  0  0  0
   -5.6360   20.6550  -33.3430 O   0  0  0  0  0  0  0  0  0  0  0  0
   -4.9680   19.4010  -33.4620 C   0  0  0  0  0  0  0  0  0  0  0  0
   -3.5740   19.4680  -32.8180 C   0  0  0  0  0  0  0  0  0  0  0  0
   -3.2740   20.7790  -32.1890 N   0  0  0  0  0  0  0  0  0  0  0  0
   -1.8130   21.0560  -32.1670 C   0  0  0  0  0  0  0  0  0  0  0  0
   -1.4350   22.0070  -31.0240 C   0  0  0  0  0  0  0  0  0  0  0  0
   -1.7140   21.3860  -29.7090 N   0  0  0  0  0  0  0  0  0  0  0  0
   -1.7690   22.4060  -28.6400 C   0  0  0  0  0  0  0  0  0  0  0  0
   -3.0130   23.2960  -28.8030 C   0  0  0  0  0  0  0  0  0  0  0  0
   -2.7410   24.5530  -29.5960 C   0  0  0  0  0  0  0  0  0  0  0  0
   -3.5650   24.9390  -30.4680 O   0  0  0  0  0  0  0  0  0  0  0  0
   -1.5930   25.3670  -29.3310 N   0  0  0  0  0  0  0  0  0  0  0  0
   -1.2480   25.8980  -28.0180 C   0  0  0  0  0  0  0  0  0  0  0  0
   -0.2400   24.9700  -27.3360 C   0  0  0  0  0  0  0  0  0  0  0  0
   -0.4930   24.8950  -25.8810 N   0  0  0  0  0  0  0  0  0  0  0  0
   -0.4770   23.4920  -25.4340 C   0  0  0  0  0  0  0  0  0  0  0  0
   -1.7910   25.5020  -25.5330 C   0  0  0  0  0  0  0  0  0  0  0  0
   -2.9070   20.5000  -29.7140 C   0  0  0  0  0  0  0  0  0  0  0  0
   -3.8960   20.8610  -30.8360 C   0  0  0  0  0  0  0  0  0  0  0  0
   -6.3094   24.0347  -29.9611 H   0  0  0  0  0  0  0  0  0  0  0  0
   -5.5936   25.0675  -31.2447 H   0  0  0  0  0  0  0  0  0  0  0  0
   -7.3575   24.7281  -31.2447 H   0  0  0  0  0  0  0  0  0  0  0  0
   -8.6446   23.0945  -30.8365 H   0  0  0  0  0  0  0  0  0  0  0  0
  -10.3895   21.3388  -31.0605 H   0  0  0  0  0  0  0  0  0  0  0  0
   -9.9252   19.2700  -32.3637 H   0  0  0  0  0  0  0  0  0  0  0  0
   -7.7052   18.9416  -33.4407 H   0  0  0  0  0  0  0  0  0  0  0  0
   -5.5626   18.6252  -32.9573 H   0  0  0  0  0  0  0  0  0  0  0  0
   -4.8547   19.1592  -34.5291 H   0  0  0  0  0  0  0  0  0  0  0  0
   -3.5099   18.6882  -32.0448 H   0  0  0  0  0  0  0  0  0  0  0  0
   -2.8387   19.3196  -33.6226 H   0  0  0  0  0  0  0  0  0  0  0  0
   -3.7310   21.5190  -32.7710 H   0  0  0  0  0  0  0  0  0  0  0  0
   -1.2719   20.1074  -32.0357 H   0  0  0  0  0  0  0  0  0  0  0  0
   -1.5397   21.5361  -33.1182 H   0  0  0  0  0  0  0  0  0  0  0  0
   -0.3627   22.2431  -31.0911 H   0  0  0  0  0  0  0  0  0  0  0  0
   -2.0355   22.9241  -31.1153 H   0  0  0  0  0  0  0  0  0  0  0  0
   -1.8100   21.9031  -27.6625 H   0  0  0  0  0  0  0  0  0  0  0  0
   -0.8707   23.0373  -28.7063 H   0  0  0  0  0  0  0  0  0  0  0  0
   -3.7925   22.7173  -29.3202 H   0  0  0  0  0  0  0  0  0  0  0  0
   -3.3303   23.6049  -27.7961 H   0  0  0  0  0  0  0  0  0  0  0  0
   -0.8049   26.8983  -28.1328 H   0  0  0  0  0  0  0  0  0  0  0  0
   -2.1566   25.9655  -27.4017 H   0  0  0  0  0  0  0  0  0  0  0  0
   -0.3273   23.9627  -27.7692 H   0  0  0  0  0  0  0  0  0  0  0  0
    0.7717   25.3708  -27.4968 H   0  0  0  0  0  0  0  0  0  0  0  0
   -0.4766   23.4575  -24.3345 H   0  0  0  0  0  0  0  0  0  0  0  0
   -1.3693   22.9750  -25.8168 H   0  0  0  0  0  0  0  0  0  0  0  0
    0.4269   22.9955  -25.8168 H   0  0  0  0  0  0  0  0  0  0  0  0
   -1.8920   25.5493  -24.4387 H   0  0  0  0  0  0  0  0  0  0  0  0
   -1.8442   26.5184  -25.9504 H   0  0  0  0  0  0  0  0  0  0  0  0
   -2.6051   24.8912  -25.9504 H   0  0  0  0  0  0  0  0  0  0  0  0
   -2.5755   19.4607  -29.8552 H   0  0  0  0  0  0  0  0  0  0  0  0
   -3.4262   20.6283  -28.7528 H   0  0  0  0  0  0  0  0  0  0  0  0
   -4.7464   20.1645  -30.7952 H   0  0  0  0  0  0  0  0  0  0  0  0
   -4.2190   21.9005  -30.6773 H   0  0  0  0  0  0  0  0  0  0  0  0
  1  2  1  0
  2  3  2  0
  2  4  1  0
  4  5  2  0
  5  6  1  0
  6  7  2  0
  7  8  1  0
  8  9  2  0
  9 10  1  0
 10 11  1  0
 11 12  1  0
 12 13  1  0
 13 14  1  0
 14 15  1  0
 15 16  1  0
 16 17  1  0
 17 18  1  0
 18 19  1  0
 19 20  2  0
 19 21  1  0
 21 22  1  0
 22 23  1  0
 23 24  1  0
 24 25  1  0
 24 26  1  0
 16 27  1  0
 27 28  1  0
  9  4  1  0
 28 13  1  0
  1 29  1  0
  1 30  1  0
  1 31  1  0
  5 32  1  0
  6 33  1  0
  7 34  1  0
  8 35  1  0
 11 36  1  0
 11 37  1  0
 12 38  1  0
 12 39  1  0
 13 40  1  0
 14 41  1  0
 14 42  1  0
 15 43  1  0
 15 44  1  0
 17 45  1  0
 17 46  1  0
 18 47  1  0
 18 48  1  0
 22 49  1  0
 22 50  1  0
 23 51  1  0
 23 52  1  0
 25 53  1  0
 25 54  1  0
 25 55  1  0
 26 56  1  0
 26 57  1  0
 26 58  1  0
 27 59  1  0
 27 60  1  0
 28 61  1  0
 28 62  1  0
M  CHG  2  13   1  21  -1
M  END
>  <UniqueID>  (23) 
22

>  <SMILES>  (23) 
CC(=O)c1ccccc1OCC[NH+]1CCN(CCC(=O)[N-]CCN(C)C)CC1

>  <Energy>  (23) 
70.64078343548536

>  <Genealogy>  (23) 
CC(=O)c1ccccc1OCC[NH+]1CCN(CCC(=O)[N-]CCN(C)C)CC1 (protonated)
CC(=O)c1ccccc1OCC[NH+]1CCN(CCC(=O)[N-]CCN(C)C)CC1 (3D coordinates assigned)
CC(=O)c1ccccc1OCC[NH+]1CCN(CCC(=O)[N-]CCN(C)C)CC1 (nonaromatic ring conformer: 70.64078343548536 kcal/mol)

>  <smiles>  (23) 
CC(=O)c1ccccc1OCCN1CCN(CCC(=O)NCCN(C)C)CC1

>  <score_type>  (23) 
oracle

>  <origin>  (23) 
adg

>  <m_score__min__energy>  (23) 
-8.8900000000000006

>  <m_primary>  (23) 
energy

$$$$
23:0
     RDKit          3D

 50 51  0  0  0  0  0  0  0  0999 V2000
    0.5140   19.8110  -28.1060 C   0  0  0  0  0  0  0  0  0  0  0  0
   -0.7160   18.9080  -28.0640 C   0  0  0  0  0  0  0  0  0  0  0  0
   -1.8740   19.6340  -27.5170 N   0  0  0  0  0  0  0  0  0  0  0  0
   -2.4030   19.2480  -26.1970 C   0  0  0  0  0  0  0  0  0  0  0  0
   -3.7620   18.5670  -26.3370 C   0  0  0  0  0  0  0  0  0  0  0  0
   -2.4400   20.7340  -28.2740 C   0  0  0  0  0  0  0  0  0  0  0  0
   -3.3160   21.6670  -27.6890 C   0  0  0  0  0  0  0  0  0  0  0  0
   -3.8600   22.6890  -28.4690 C   0  0  0  0  0  0  0  0  0  0  0  0
   -3.5450   22.7830  -29.8310 C   0  0  0  0  0  0  0  0  0  0  0  0
   -4.1410   23.8480  -30.6710 C   0  0  0  0  0  0  0  0  0  0  0  0
   -3.7550   25.0390  -30.5190 O   0  0  0  0  0  0  0  0  0  0  0  0
   -5.1620   23.5550  -31.6470 N   0  0  0  0  0  0  0  0  0  0  0  0
   -6.4500   24.2700  -31.5560 C   0  0  0  0  0  0  0  0  0  0  0  0
   -7.6450   23.3320  -31.2980 C   0  0  0  0  0  0  0  0  0  0  0  0
   -7.2900   21.9880  -30.6220 C   0  0  0  0  0  0  0  0  0  0  0  0
   -6.7650   21.0070  -31.5870 N   0  0  0  0  0  0  0  0  0  0  0  0
   -7.6260   19.9520  -32.0850 C   0  0  0  0  0  0  0  0  0  0  0  0
   -8.7480   20.2390  -32.5860 O   0  0  0  0  0  0  0  0  0  0  0  0
   -7.2290   18.5060  -32.0260 C   0  0  0  0  0  0  0  0  0  0  0  0
   -7.7300   17.8340  -33.1470 O   0  0  0  0  0  0  0  0  0  0  0  0
   -5.3420   21.0780  -31.9680 C   0  0  0  0  0  0  0  0  0  0  0  0
   -4.9580   22.4350  -32.5840 C   0  0  0  0  0  0  0  0  0  0  0  0
   -2.6470   21.8540  -30.3720 C   0  0  0  0  0  0  0  0  0  0  0  0
   -2.1320   20.8660  -29.5940 N   0  0  0  0  0  0  0  0  0  0  0  0
    0.8325   20.0448  -27.0794 H   0  0  0  0  0  0  0  0  0  0  0  0
    1.3295   19.2955  -28.6344 H   0  0  0  0  0  0  0  0  0  0  0  0
    0.2664   20.7435  -28.6344 H   0  0  0  0  0  0  0  0  0  0  0  0
   -0.9507   18.5693  -29.0839 H   0  0  0  0  0  0  0  0  0  0  0  0
   -0.5004   18.0454  -27.4164 H   0  0  0  0  0  0  0  0  0  0  0  0
   -1.6992   18.5533  -25.7153 H   0  0  0  0  0  0  0  0  0  0  0  0
   -2.5237   20.1547  -25.5861 H   0  0  0  0  0  0  0  0  0  0  0  0
   -4.1735   18.3608  -25.3379 H   0  0  0  0  0  0  0  0  0  0  0  0
   -4.4483   19.2277  -26.8870 H   0  0  0  0  0  0  0  0  0  0  0  0
   -3.6435   17.6218  -26.8870 H   0  0  0  0  0  0  0  0  0  0  0  0
   -3.5710   21.5914  -26.6216 H   0  0  0  0  0  0  0  0  0  0  0  0
   -4.5391   23.4239  -28.0122 H   0  0  0  0  0  0  0  0  0  0  0  0
   -6.3901   24.9957  -30.7315 H   0  0  0  0  0  0  0  0  0  0  0  0
   -6.6217   24.7612  -32.5252 H   0  0  0  0  0  0  0  0  0  0  0  0
   -8.3596   23.8609  -30.6503 H   0  0  0  0  0  0  0  0  0  0  0  0
   -8.0544   23.0786  -32.2870 H   0  0  0  0  0  0  0  0  0  0  0  0
   -6.5280   22.1693  -29.8496 H   0  0  0  0  0  0  0  0  0  0  0  0
   -8.2103   21.5745  -30.1836 H   0  0  0  0  0  0  0  0  0  0  0  0
   -6.1318   18.4281  -32.0129 H   0  0  0  0  0  0  0  0  0  0  0  0
   -7.6421   18.0514  -31.1135 H   0  0  0  0  0  0  0  0  0  0  0  0
   -8.3340   18.4750  -33.6050 H   0  0  0  0  0  0  0  0  0  0  0  0
   -4.7288   20.9133  -31.0698 H   0  0  0  0  0  0  0  0  0  0  0  0
   -5.1637   20.3052  -32.7303 H   0  0  0  0  0  0  0  0  0  0  0  0
   -3.8970   22.4045  -32.8725 H   0  0  0  0  0  0  0  0  0  0  0  0
   -5.6077   22.6039  -33.4554 H   0  0  0  0  0  0  0  0  0  0  0  0
   -2.3575   21.9245  -31.4309 H   0  0  0  0  0  0  0  0  0  0  0  0
  1  2  1  0
  2  3  1  0
  3  4  1  0
  4  5  1  0
  3  6  1  0
  6  7  2  0
  7  8  1  0
  8  9  2  0
  9 10  1  0
 10 11  2  0
 10 12  1  0
 12 13  1  0
 13 14  1  0
 14 15  1  0
 15 16  1  0
 16 17  1  0
 17 18  2  0
 17 19  1  0
 19 20  1  0
 16 21  1  0
 21 22  1  0
  9 23  1  0
 23 24  2  0
 24  6  1  0
 22 12  1  0
  1 25  1  0
  1 26  1  0
  1 27  1  0
  2 28  1  0
  2 29  1  0
  4 30  1  0
  4 31  1  0
  5 32  1  0
  5 33  1  0
  5 34  1  0
  7 35  1  0
  8 36  1  0
 13 37  1  0
 13 38  1  0
 14 39  1  0
 14 40  1  0
 15 41  1  0
 15 42  1  0
 19 43  1  0
 19 44  1  0
 20 45  1  0
 21 46  1  0
 21 47  1  0
 22 48  1  0
 22 49  1  0
 23 50  1  0
M  END
>  <UniqueID>  (24) 
23

>  <SMILES>  (24) 
CCN(CC)c1ccc(C(=O)N2CCCN(C(=O)CO)CC2)cn1

>  <Energy>  (24) 
58.3992286096683

>  <Genealogy>  (24) 
CCN(CC)c1ccc(C(=O)N2CCCN(C(=O)CO)CC2)cn1 (3D coordinates assigned)
CCN(CC)c1ccc(C(=O)N2CCCN(C(=O)CO)CC2)cn1 (nonaromatic ring conformer: 58.3992286096683 kcal/mol)

>  <smiles>  (24) 
CCN(CC)c1ccc(C(=O)N2CCCN(C(=O)CO)CC2)cn1

>  <score_type>  (24) 
oracle

>  <origin>  (24) 
adg

>  <m_score__min__energy>  (24) 
-5.29

>  <m_primary>  (24) 
energy

$$$$
24:0
     RDKit          3D

 58 60  0  0  0  0  0  0  0  0999 V2000
   -9.8350   21.2940  -31.9600 C   0  0  0  0  0  0  0  0  0  0  0  0
   -8.6190   21.8270  -31.2090 C   0  0  0  0  0  0  0  0  0  0  0  0
   -7.3410   21.3420  -31.8490 C   0  0  0  0  0  0  0  0  0  0  0  0
   -7.3900   20.2960  -32.7820 C   0  0  0  0  0  0  0  0  0  0  0  0
   -6.2250   19.8290  -33.4010 C   0  0  0  0  0  0  0  0  0  0  0  0
   -6.3170   18.7440  -34.3360 N   0  0  0  0  0  0  0  0  0  0  0  0
   -6.4850   17.3610  -33.8950 C   0  0  0  0  0  0  0  0  0  0  0  0
   -5.1540   16.6630  -33.8740 C   0  0  0  0  0  0  0  0  0  0  0  0
   -4.2610   16.7980  -34.9470 C   0  0  0  0  0  0  0  0  0  0  0  0
   -3.0440   16.1150  -34.9200 C   0  0  0  0  0  0  0  0  0  0  0  0
   -2.7320   15.3160  -33.8650 N   0  0  0  0  0  0  0  0  0  0  0  0
   -3.5850   15.1570  -32.8170 C   0  0  0  0  0  0  0  0  0  0  0  0
   -4.8120   15.8220  -32.8050 C   0  0  0  0  0  0  0  0  0  0  0  0
   -4.9930   20.4530  -33.1330 C   0  0  0  0  0  0  0  0  0  0  0  0
   -3.8510   20.0260  -33.8300 O   0  0  0  0  0  0  0  0  0  0  0  0
   -2.7730   19.2950  -33.2530 C   0  0  0  0  0  0  0  0  0  0  0  0
   -4.9410   21.5040  -32.1990 C   0  0  0  0  0  0  0  0  0  0  0  0
   -6.1090   21.9550  -31.5530 C   0  0  0  0  0  0  0  0  0  0  0  0
   -6.0820   23.0080  -30.6240 O   0  0  0  0  0  0  0  0  0  0  0  0
   -6.4380   24.3570  -30.9120 C   0  0  0  0  0  0  0  0  0  0  0  0
   -5.2930   25.2480  -30.5670 C   0  0  0  0  0  0  0  0  0  0  0  0
   -5.4690   26.4950  -30.5110 O   0  0  0  0  0  0  0  0  0  0  0  0
   -4.0210   24.6970  -30.3770 O   0  0  0  0  0  0  0  0  0  0  0  0
   -3.7970   23.5550  -29.6290 N   0  0  0  0  0  0  0  0  0  0  0  0
   -3.4760   23.5750  -28.2270 C   0  0  0  0  0  0  0  0  0  0  0  0
   -3.8930   24.5540  -27.4780 N   0  0  0  0  0  0  0  0  0  0  0  0
   -2.6970   22.4490  -27.6490 C   0  0  0  0  0  0  0  0  0  0  0  0
   -1.5480   22.6770  -26.8680 C   0  0  0  0  0  0  0  0  0  0  0  0
   -0.8440   21.5910  -26.3410 C   0  0  0  0  0  0  0  0  0  0  0  0
   -1.2710   20.3220  -26.5750 N   0  0  0  0  0  0  0  0  0  0  0  0
   -2.3810   20.0700  -27.3160 C   0  0  0  0  0  0  0  0  0  0  0  0
   -3.1150   21.1260  -27.8630 C   0  0  0  0  0  0  0  0  0  0  0  0
  -10.5949   20.9609  -31.2378 H   0  0  0  0  0  0  0  0  0  0  0  0
  -10.2540   22.0910  -32.5919 H   0  0  0  0  0  0  0  0  0  0  0  0
   -9.5329   20.4458  -32.5919 H   0  0  0  0  0  0  0  0  0  0  0  0
   -8.6370   22.9267  -31.2271 H   0  0  0  0  0  0  0  0  0  0  0  0
   -8.6558   21.4614  -30.1722 H   0  0  0  0  0  0  0  0  0  0  0  0
   -8.3578   19.8362  -33.0307 H   0  0  0  0  0  0  0  0  0  0  0  0
   -6.6350   18.9690  -35.3070 H   0  0  0  0  0  0  0  0  0  0  0  0
   -6.9175   17.3511  -32.8837 H   0  0  0  0  0  0  0  0  0  0  0  0
   -7.1559   16.8384  -34.5927 H   0  0  0  0  0  0  0  0  0  0  0  0
   -4.5180   17.4378  -35.8041 H   0  0  0  0  0  0  0  0  0  0  0  0
   -2.3355   16.2234  -35.7544 H   0  0  0  0  0  0  0  0  0  0  0  0
   -3.3070   14.5029  -31.9774 H   0  0  0  0  0  0  0  0  0  0  0  0
   -5.5064   15.6874  -31.9625 H   0  0  0  0  0  0  0  0  0  0  0  0
   -2.8432   19.3426  -32.1563 H   0  0  0  0  0  0  0  0  0  0  0  0
   -2.8258   18.2456  -33.5786 H   0  0  0  0  0  0  0  0  0  0  0  0
   -1.8176   19.7323  -33.5786 H   0  0  0  0  0  0  0  0  0  0  0  0
   -3.9759   21.9797  -31.9702 H   0  0  0  0  0  0  0  0  0  0  0  0
   -6.6721   24.4557  -31.9822 H   0  0  0  0  0  0  0  0  0  0  0  0
   -7.3206   24.6418  -30.3204 H   0  0  0  0  0  0  0  0  0  0  0  0
   -3.9810   22.6320  -30.0810 H   0  0  0  0  0  0  0  0  0  0  0  0
   -3.7450   24.5440  -26.4450 H   0  0  0  0  0  0  0  0  0  0  0  0
   -4.3950   25.3780  -27.8760 H   0  0  0  0  0  0  0  0  0  0  0  0
   -1.2063   23.7044  -26.6737 H   0  0  0  0  0  0  0  0  0  0  0  0
    0.0579   21.7635  -25.7353 H   0  0  0  0  0  0  0  0  0  0  0  0
   -2.7031   19.0320  -27.4860 H   0  0  0  0  0  0  0  0  0  0  0  0
   -4.0167   20.9214  -28.4589 H   0  0  0  0  0  0  0  0  0  0  0  0
  1  2  1  0
  2  3  1  0
  3  4  2  0
  4  5  1  0
  5  6  1  0
  6  7  1  0
  7  8  1  0
  8  9  2  0
  9 10  1  0
 10 11  2  0
 11 12  1  0
 12 13  2  0
  5 14  2  0
 14 15  1  0
 15 16  1  0
 14 17  1  0
 17 18  2  0
 18 19  1  0
 19 20  1  0
 20 21  1  0
 21 22  2  0
 21 23  1  0
 23 24  1  0
 24 25  1  0
 25 26  2  0
 25 27  1  0
 27 28  2  0
 28 29  1  0
 29 30  2  0
 30 31  1  0
 31 32  2  0
 18  3  1  0
 32 27  1  0
 13  8  1  0
  1 33  1  0
  1 34  1  0
  1 35  1  0
  2 36  1  0
  2 37  1  0
  4 38  1  0
  6 39  1  0
  7 40  1  0
  7 41  1  0
  9 42  1  0
 10 43  1  0
 12 44  1  0
 13 45  1  0
 16 46  1  0
 16 47  1  0
 16 48  1  0
 17 49  1  0
 20 50  1  0
 20 51  1  0
 24 52  1  0
 26 53  1  0
 26 54  1  0
 28 55  1  0
 29 56  1  0
 31 57  1  0
 32 58  1  0
M  CHG  1  26   1
M  END
>  <UniqueID>  (25) 
24

>  <SMILES>  (25) 
CCc1cc(NCc2ccncc2)c(OC)cc1OCC(=O)ONC(=[NH2+])c1ccncc1

>  <Energy>  (25) 
67.96351483888571

>  <Genealogy>  (25) 
CCc1cc(NCc2ccncc2)c(OC)cc1OCC(=O)ONC(=[NH2+])c1ccncc1 (protonated)
CCc1cc(NCc2ccncc2)c(OC)cc1OCC(=O)ONC(=[NH2+])c1ccncc1 (3D coordinates assigned)
CCc1cc(NCc2ccncc2)c(OC)cc1OCC(=O)ONC(=[NH2+])c1ccncc1 (optimized conformer: 67.96351483888571 kcal/mol)

>  <smiles>  (25) 
CCc1cc(NCc2ccncc2)c(OC)cc1OCC(=O)ONC(=N)c1ccncc1

>  <score_type>  (25) 
oracle

>  <origin>  (25) 
adg

>  <m_score__min__energy>  (25) 
-8.0600000000000005

>  <m_primary>  (25) 
energy

$$$$
25:0
     RDKit          3D

 51 53  0  0  0  0  0  0  0  0999 V2000
   -2.8610   12.9830  -35.1770 C   0  0  0  0  0  0  0  0  0  0  0  0
   -2.4770   13.6710  -33.9920 O   0  0  0  0  0  0  0  0  0  0  0  0
   -2.8280   14.9970  -33.6970 C   0  0  0  0  0  0  0  0  0  0  0  0
   -4.0010   15.3270  -32.9920 C   0  0  0  0  0  0  0  0  0  0  0  0
   -4.3070   16.6650  -32.7230 C   0  0  0  0  0  0  0  0  0  0  0  0
   -3.4510   17.6930  -33.1410 C   0  0  0  0  0  0  0  0  0  0  0  0
   -3.7640   19.1210  -32.8780 C   0  0  0  0  0  0  0  0  0  0  0  0
   -2.8890   19.8600  -32.0690 C   0  0  0  0  0  0  0  0  0  0  0  0
   -3.2200   21.1560  -31.6660 C   0  0  0  0  0  0  0  0  0  0  0  0
   -2.3460   21.9100  -30.8710 C   0  0  0  0  0  0  0  0  0  0  0  0
   -2.7030   23.1990  -30.4660 C   0  0  0  0  0  0  0  0  0  0  0  0
   -3.9340   23.7500  -30.8410 C   0  0  0  0  0  0  0  0  0  0  0  0
   -4.2410   25.0480  -30.4080 O   0  0  0  0  0  0  0  0  0  0  0  0
   -5.5500   25.4940  -30.0690 C   0  0  0  0  0  0  0  0  0  0  0  0
   -4.8150   22.9910  -31.6360 C   0  0  0  0  0  0  0  0  0  0  0  0
   -4.4630   21.6970  -32.0510 C   0  0  0  0  0  0  0  0  0  0  0  0
   -5.3080   20.9640  -32.8300 N   0  0  0  0  0  0  0  0  0  0  0  0
   -4.9720   19.7270  -33.2980 C   0  0  0  0  0  0  0  0  0  0  0  0
   -6.1180   18.8760  -34.4030 S   0  0  0  0  0  0  0  0  0  0  0  0
   -7.2060   18.1520  -33.1080 C   0  0  0  0  0  0  0  0  0  0  0  0
   -7.4260   19.0490  -31.8760 C   0  0  0  0  0  0  0  0  0  0  0  0
   -7.9820   20.3750  -32.2280 N   0  0  0  0  0  0  0  0  0  0  0  0
   -9.3810   20.2330  -32.6670 C   0  0  0  0  0  0  0  0  0  0  0  0
   -7.9390   21.2990  -31.0790 C   0  0  0  0  0  0  0  0  0  0  0  0
   -2.2840   17.3580  -33.8500 C   0  0  0  0  0  0  0  0  0  0  0  0
   -1.9770   16.0230  -34.1210 C   0  0  0  0  0  0  0  0  0  0  0  0
   -3.3808   12.0516  -34.9081 H   0  0  0  0  0  0  0  0  0  0  0  0
   -3.5338   13.6205  -35.7694 H   0  0  0  0  0  0  0  0  0  0  0  0
   -1.9652   12.7451  -35.7694 H   0  0  0  0  0  0  0  0  0  0  0  0
   -4.6788   14.5303  -32.6517 H   0  0  0  0  0  0  0  0  0  0  0  0
   -5.2294   16.9131  -32.1775 H   0  0  0  0  0  0  0  0  0  0  0  0
   -1.9348   19.4159  -31.7493 H   0  0  0  0  0  0  0  0  0  0  0  0
   -1.3778   21.4866  -30.5655 H   0  0  0  0  0  0  0  0  0  0  0  0
   -2.0097   23.7866  -29.8463 H   0  0  0  0  0  0  0  0  0  0  0  0
   -5.6534   25.5292  -28.9744 H   0  0  0  0  0  0  0  0  0  0  0  0
   -5.7143   26.4988  -30.4853 H   0  0  0  0  0  0  0  0  0  0  0  0
   -6.2936   24.7985  -30.4853 H   0  0  0  0  0  0  0  0  0  0  0  0
   -5.7853   23.4151  -31.9336 H   0  0  0  0  0  0  0  0  0  0  0  0
   -6.2350   21.3670  -33.0950 H   0  0  0  0  0  0  0  0  0  0  0  0
   -8.1869   17.9457  -33.5610 H   0  0  0  0  0  0  0  0  0  0  0  0
   -6.6970   17.2466  -32.7457 H   0  0  0  0  0  0  0  0  0  0  0  0
   -8.1251   18.5441  -31.1931 H   0  0  0  0  0  0  0  0  0  0  0  0
   -6.4457   19.2137  -31.4050 H   0  0  0  0  0  0  0  0  0  0  0  0
  -10.0367   20.1664  -31.7863 H   0  0  0  0  0  0  0  0  0  0  0  0
   -9.6662   21.1068  -33.2713 H   0  0  0  0  0  0  0  0  0  0  0  0
   -9.4848   19.3197  -33.2713 H   0  0  0  0  0  0  0  0  0  0  0  0
   -7.9659   20.7217  -30.1430 H   0  0  0  0  0  0  0  0  0  0  0  0
   -7.0124   21.8904  -31.1186 H   0  0  0  0  0  0  0  0  0  0  0  0
   -8.8067   21.9739  -31.1186 H   0  0  0  0  0  0  0  0  0  0  0  0
   -1.6073   18.1540  -34.1940 H   0  0  0  0  0  0  0  0  0  0  0  0
   -1.0580   15.7760  -34.6727 H   0  0  0  0  0  0  0  0  0  0  0  0
  1  2  1  0
  2  3  1  0
  3  4  2  0
  4  5  1  0
  5  6  2  0
  6  7  1  0
  7  8  2  0
  8  9  1  0
  9 10  2  0
 10 11  1  0
 11 12  2  0
 12 13  1  0
 13 14  1  0
 12 15  1  0
 15 16  2  0
 16 17  1  0
 17 18  2  0
 18 19  1  0
 19 20  1  0
 20 21  1  0
 21 22  1  0
 22 23  1  0
 22 24  1  0
  6 25  1  0
 25 26  2  0
 26  3  1  0
 18  7  1  0
 16  9  1  0
  1 27  1  0
  1 28  1  0
  1 29  1  0
  4 30  1  0
  5 31  1  0
  8 32  1  0
 10 33  1  0
 11 34  1  0
 14 35  1  0
 14 36  1  0
 14 37  1  0
 15 38  1  0
 17 39  1  0
 20 40  1  0
 20 41  1  0
 21 42  1  0
 21 43  1  0
 23 44  1  0
 23 45  1  0
 23 46  1  0
 24 47  1  0
 24 48  1  0
 24 49  1  0
 25 50  1  0
 26 51  1  0
M  CHG  1  17   1
M  END
>  <UniqueID>  (26) 
25

>  <SMILES>  (26) 
COc1ccc(-c2cc3ccc(OC)cc3[nH+]c2SCCN(C)C)cc1

>  <Energy>  (26) 
60.276179479683044

>  <Genealogy>  (26) 
COc1ccc(-c2cc3ccc(OC)cc3[nH+]c2SCCN(C)C)cc1 (protonated)
COc1ccc(-c2cc3ccc(OC)cc3[nH+]c2SCCN(C)C)cc1 (3D coordinates assigned)
COc1ccc(-c2cc3ccc(OC)cc3[nH+]c2SCCN(C)C)cc1 (optimized conformer: 60.276179479683044 kcal/mol)

>  <smiles>  (26) 
COc1ccc(-c2cc3ccc(OC)cc3nc2SCCN(C)C)cc1

>  <score_type>  (26) 
oracle

>  <origin>  (26) 
adg

>  <m_score__min__energy>  (26) 
-6.3700000000000001

>  <m_primary>  (26) 
energy

$$$$
26:0
     RDKit          3D

 42 44  0  0  0  0  0  0  0  0999 V2000
   -0.0520   21.5290  -36.2220 C   0  0  0  0  0  0  0  0  0  0  0  0
    0.4890   21.8200  -34.8840 N   0  0  0  0  0  0  0  0  0  0  0  0
    1.8040   22.4730  -35.0220 C   0  0  0  0  0  0  0  0  0  0  0  0
    0.5940   20.5760  -34.0910 C   0  0  0  0  0  0  0  0  0  0  0  0
    0.2780   20.8490  -32.6120 C   0  0  0  0  0  0  0  0  0  0  0  0
   -1.0780   21.5460  -32.4310 C   0  0  0  0  0  0  0  0  0  0  0  0
   -1.9660   21.3080  -33.5730 N   0  0  0  0  0  0  0  0  0  0  0  0
   -3.2270   20.6230  -33.4600 C   0  0  0  0  0  0  0  0  0  0  0  0
   -3.3070   19.2600  -33.8330 C   0  0  0  0  0  0  0  0  0  0  0  0
   -4.5180   18.5560  -33.7390 C   0  0  0  0  0  0  0  0  0  0  0  0
   -5.6460   19.2250  -33.2670 C   0  0  0  0  0  0  0  0  0  0  0  0
   -5.5750   20.5540  -32.9010 C   0  0  0  0  0  0  0  0  0  0  0  0
   -4.3860   21.2790  -32.9840 C   0  0  0  0  0  0  0  0  0  0  0  0
   -6.8890   20.9700  -32.4560 C   0  0  0  0  0  0  0  0  0  0  0  0
   -7.3290   22.2090  -31.9890 C   0  0  0  0  0  0  0  0  0  0  0  0
   -8.6770   22.3370  -31.6190 C   0  0  0  0  0  0  0  0  0  0  0  0
   -9.5520   21.2370  -31.7220 C   0  0  0  0  0  0  0  0  0  0  0  0
   -9.0840   19.9990  -32.1950 C   0  0  0  0  0  0  0  0  0  0  0  0
   -7.7410   19.8870  -32.5600 C   0  0  0  0  0  0  0  0  0  0  0  0
   -7.0300   18.6730  -33.0860 C   0  0  0  0  0  0  0  0  0  0  0  0
   -1.0168   21.0101  -36.1225 H   0  0  0  0  0  0  0  0  0  0  0  0
   -0.1972   22.4707  -36.7716 H   0  0  0  0  0  0  0  0  0  0  0  0
    0.6537   20.8888  -36.7716 H   0  0  0  0  0  0  0  0  0  0  0  0
    2.2179   22.6785  -34.0238 H   0  0  0  0  0  0  0  0  0  0  0  0
    2.4870   21.8094  -35.5726 H   0  0  0  0  0  0  0  0  0  0  0  0
    1.6880   23.4182  -35.5726 H   0  0  0  0  0  0  0  0  0  0  0  0
   -0.1198   19.8363  -34.4826 H   0  0  0  0  0  0  0  0  0  0  0  0
    1.6216   20.1915  -34.1689 H   0  0  0  0  0  0  0  0  0  0  0  0
    0.2600   19.8917  -32.0704 H   0  0  0  0  0  0  0  0  0  0  0  0
    1.0578   21.5164  -32.2163 H   0  0  0  0  0  0  0  0  0  0  0  0
   -1.5582   21.1606  -31.5195 H   0  0  0  0  0  0  0  0  0  0  0  0
   -0.8998   22.6288  -32.3546 H   0  0  0  0  0  0  0  0  0  0  0  0
   -1.6710   21.6370  -34.5200 H   0  0  0  0  0  0  0  0  0  0  0  0
   -2.4076   18.7450  -34.2017 H   0  0  0  0  0  0  0  0  0  0  0  0
   -4.5755   17.4973  -34.0321 H   0  0  0  0  0  0  0  0  0  0  0  0
   -4.3507   22.3372  -32.6859 H   0  0  0  0  0  0  0  0  0  0  0  0
   -6.6386   23.0620  -31.9129 H   0  0  0  0  0  0  0  0  0  0  0  0
   -9.0526   23.3015  -31.2465 H   0  0  0  0  0  0  0  0  0  0  0  0
  -10.6069   21.3480  -31.4306 H   0  0  0  0  0  0  0  0  0  0  0  0
   -9.7617   19.1363  -32.2759 H   0  0  0  0  0  0  0  0  0  0  0  0
   -7.0461   17.8465  -32.3603 H   0  0  0  0  0  0  0  0  0  0  0  0
   -7.4734   18.2392  -33.9944 H   0  0  0  0  0  0  0  0  0  0  0  0
  1  2  1  0
  2  3  1  0
  2  4  1  0
  4  5  1  0
  5  6  1  0
  6  7  1  0
  7  8  1  0
  8  9  2  0
  9 10  1  0
 10 11  2  0
 11 12  1  0
 12 13  2  0
 12 14  1  0
 14 15  2  0
 15 16  1  0
 16 17  2  0
 17 18  1  0
 18 19  2  0
 19 20  1  0
 13  8  1  0
 19 14  1  0
 20 11  1  0
  1 21  1  0
  1 22  1  0
  1 23  1  0
  3 24  1  0
  3 25  1  0
  3 26  1  0
  4 27  1  0
  4 28  1  0
  5 29  1  0
  5 30  1  0
  6 31  1  0
  6 32  1  0
  7 33  1  0
  9 34  1  0
 10 35  1  0
 13 36  1  0
 15 37  1  0
 16 38  1  0
 17 39  1  0
 18 40  1  0
 20 41  1  0
 20 42  1  0
M  END
>  <UniqueID>  (27) 
26

>  <SMILES>  (27) 
CN(C)CCCNc1ccc2c(c1)-c1ccccc1C2

>  <Energy>  (27) 
62.35574223124908

>  <Genealogy>  (27) 
CN(C)CCCNc1ccc2c(c1)-c1ccccc1C2 (3D coordinates assigned)
CN(C)CCCNc1ccc2c(c1)-c1ccccc1C2 (nonaromatic ring conformer: 62.35574223124908 kcal/mol)

>  <smiles>  (27) 
CN(C)CCCNc1ccc2c(c1)-c1ccccc1C2

>  <score_type>  (27) 
oracle

>  <origin>  (27) 
adg

>  <m_score__min__energy>  (27) 
-8.0500000000000007

>  <m_primary>  (27) 
energy

$$$$
27:0
     RDKit          3D

 46 48  0  0  0  0  0  0  0  0999 V2000
   -3.7420   21.9010  -31.8260 C   0  0  0  0  0  0  0  0  0  0  0  0
   -4.9600   21.1440  -32.2760 C   0  0  0  0  0  0  0  0  0  0  0  0
   -4.8160   20.0220  -33.1080 C   0  0  0  0  0  0  0  0  0  0  0  0
   -5.9360   19.2930  -33.5080 C   0  0  0  0  0  0  0  0  0  0  0  0
   -5.7290   17.7740  -34.6480 Br  0  0  0  0  0  0  0  0  0  0  0  0
   -7.2080   19.6790  -33.0870 C   0  0  0  0  0  0  0  0  0  0  0  0
   -7.3740   20.7870  -32.2480 C   0  0  0  0  0  0  0  0  0  0  0  0
   -9.1730   21.3020  -31.8360 Br  0  0  0  0  0  0  0  0  0  0  0  0
   -6.2400   21.5170  -31.8140 C   0  0  0  0  0  0  0  0  0  0  0  0
   -6.3310   22.6160  -30.9460 O   0  0  0  0  0  0  0  0  0  0  0  0
   -6.0710   23.9650  -31.3200 C   0  0  0  0  0  0  0  0  0  0  0  0
   -4.9850   24.5050  -30.4480 C   0  0  0  0  0  0  0  0  0  0  0  0
   -4.3110   25.4960  -30.8400 O   0  0  0  0  0  0  0  0  0  0  0  0
   -4.6600   23.8360  -29.2200 N   0  0  0  0  0  0  0  0  0  0  0  0
   -3.7230   24.3350  -28.2520 C   0  0  0  0  0  0  0  0  0  0  0  0
   -2.3660   24.4080  -28.5840 C   0  0  0  0  0  0  0  0  0  0  0  0
   -1.4290   24.8710  -27.6560 C   0  0  0  0  0  0  0  0  0  0  0  0
   -1.8190   25.2580  -26.3530 C   0  0  0  0  0  0  0  0  0  0  0  0
   -0.8420   25.7430  -25.3810 N   0  0  0  0  0  0  0  0  0  0  0  0
   -1.2480   26.7650  -24.3920 C   0  0  0  0  0  0  0  0  0  0  0  0
   -0.1460   27.1240  -23.3920 C   0  0  0  0  0  0  0  0  0  0  0  0
    1.1130   27.1560  -24.0180 O   0  0  0  0  0  0  0  0  0  0  0  0
    1.4650   25.8400  -24.3720 C   0  0  0  0  0  0  0  0  0  0  0  0
    0.5690   25.3170  -25.4980 C   0  0  0  0  0  0  0  0  0  0  0  0
   -3.1920   25.1600  -26.0270 C   0  0  0  0  0  0  0  0  0  0  0  0
   -4.1260   24.6980  -26.9590 C   0  0  0  0  0  0  0  0  0  0  0  0
   -3.7086   21.9218  -30.7267 H   0  0  0  0  0  0  0  0  0  0  0  0
   -2.8389   21.4048  -32.2110 H   0  0  0  0  0  0  0  0  0  0  0  0
   -3.7871   22.9304  -32.2110 H   0  0  0  0  0  0  0  0  0  0  0  0
   -3.8148   19.7164  -33.4461 H   0  0  0  0  0  0  0  0  0  0  0  0
   -8.0884   19.1080  -33.4170 H   0  0  0  0  0  0  0  0  0  0  0  0
   -5.7531   24.0023  -32.3724 H   0  0  0  0  0  0  0  0  0  0  0  0
   -6.9825   24.5688  -31.1993 H   0  0  0  0  0  0  0  0  0  0  0  0
   -5.0580   22.8810  -29.0700 H   0  0  0  0  0  0  0  0  0  0  0  0
   -2.0331   24.0979  -29.5855 H   0  0  0  0  0  0  0  0  0  0  0  0
   -0.3694   24.9355  -27.9443 H   0  0  0  0  0  0  0  0  0  0  0  0
   -1.5363   27.6778  -24.9339 H   0  0  0  0  0  0  0  0  0  0  0  0
   -2.0816   26.3400  -23.8136 H   0  0  0  0  0  0  0  0  0  0  0  0
   -0.3591   28.1139  -22.9622 H   0  0  0  0  0  0  0  0  0  0  0  0
   -0.1255   26.3573  -22.6035 H   0  0  0  0  0  0  0  0  0  0  0  0
    2.5119   25.8259  -24.7093 H   0  0  0  0  0  0  0  0  0  0  0  0
    1.3353   25.1934  -23.4916 H   0  0  0  0  0  0  0  0  0  0  0  0
    0.9646   25.6852  -26.4561 H   0  0  0  0  0  0  0  0  0  0  0  0
    0.5797   24.2189  -25.4337 H   0  0  0  0  0  0  0  0  0  0  0  0
   -3.5308   25.4525  -25.0222 H   0  0  0  0  0  0  0  0  0  0  0  0
   -5.1859   24.6186  -26.6756 H   0  0  0  0  0  0  0  0  0  0  0  0
  1  2  1  0
  2  3  2  0
  3  4  1  0
  4  5  1  0
  4  6  2  0
  6  7  1  0
  7  8  1  0
  7  9  2  0
  9 10  1  0
 10 11  1  0
 11 12  1  0
 12 13  2  0
 12 14  1  0
 14 15  1  0
 15 16  2  0
 16 17  1  0
 17 18  2  0
 18 19  1  0
 19 20  1  0
 20 21  1  0
 21 22  1  0
 22 23  1  0
 23 24  1  0
 18 25  1  0
 25 26  2  0
  9  2  1  0
 26 15  1  0
 24 19  1  0
  1 27  1  0
  1 28  1  0
  1 29  1  0
  3 30  1  0
  6 31  1  0
 11 32  1  0
 11 33  1  0
 14 34  1  0
 16 35  1  0
 17 36  1  0
 20 37  1  0
 20 38  1  0
 21 39  1  0
 21 40  1  0
 23 41  1  0
 23 42  1  0
 24 43  1  0
 24 44  1  0
 25 45  1  0
 26 46  1  0
M  END
>  <UniqueID>  (28) 
27

>  <SMILES>  (28) 
Cc1cc(Br)cc(Br)c1OCC(=O)Nc1ccc(N2CCOCC2)cc1

>  <Energy>  (28) 
63.39298950306045

>  <Genealogy>  (28) 
Cc1cc(Br)cc(Br)c1OCC(=O)Nc1ccc(N2CCOCC2)cc1 (3D coordinates assigned)
Cc1cc(Br)cc(Br)c1OCC(=O)Nc1ccc(N2CCOCC2)cc1 (nonaromatic ring conformer: 63.39298950306045 kcal/mol)

>  <smiles>  (28) 
Cc1cc(Br)cc(Br)c1OCC(=O)Nc1ccc(N2CCOCC2)cc1

>  <score_type>  (28) 
oracle

>  <origin>  (28) 
adg

>  <m_score__min__energy>  (28) 
-9.3599999999999994

>  <m_primary>  (28) 
energy

$$$$
28:0
     RDKit          3D

 39 40  0  0  0  0  0  0  0  0999 V2000
   -2.3550   24.4670  -28.6030 C   0  0  0  0  0  0  0  0  0  0  0  0
   -3.0760   25.0440  -29.6860 O   0  0  0  0  0  0  0  0  0  0  0  0
   -4.2590   24.5130  -30.2220 C   0  0  0  0  0  0  0  0  0  0  0  0
   -5.5200   25.0970  -29.9960 C   0  0  0  0  0  0  0  0  0  0  0  0
   -6.6690   24.5280  -30.5530 C   0  0  0  0  0  0  0  0  0  0  0  0
   -6.5780   23.3720  -31.3420 C   0  0  0  0  0  0  0  0  0  0  0  0
   -7.8260   22.7510  -31.9130 C   0  0  0  0  0  0  0  0  0  0  0  0
   -7.7480   21.2750  -31.8570 N   0  0  0  0  0  0  0  0  0  0  0  0
   -9.0930   20.6750  -31.7050 C   0  0  0  0  0  0  0  0  0  0  0  0
   -9.1250   19.2100  -32.2030 C   0  0  0  0  0  0  0  0  0  0  0  0
   -7.9990   18.3310  -31.6180 C   0  0  0  0  0  0  0  0  0  0  0  0
   -6.7730   18.2740  -32.4540 N   0  0  0  0  0  0  0  0  0  0  0  0
   -5.8380   17.2570  -31.9460 C   0  0  0  0  0  0  0  0  0  0  0  0
   -6.0910   19.5620  -32.7240 C   0  0  0  0  0  0  0  0  0  0  0  0
   -7.0360   20.7410  -33.0440 C   0  0  0  0  0  0  0  0  0  0  0  0
   -5.3210   22.7880  -31.5640 C   0  0  0  0  0  0  0  0  0  0  0  0
   -4.1720   23.3580  -31.0080 C   0  0  0  0  0  0  0  0  0  0  0  0
   -2.7854   24.8114  -27.6511 H   0  0  0  0  0  0  0  0  0  0  0  0
   -2.4224   23.3706  -28.6604 H   0  0  0  0  0  0  0  0  0  0  0  0
   -1.3000   24.7730  -28.6604 H   0  0  0  0  0  0  0  0  0  0  0  0
   -5.6014   26.0041  -29.3791 H   0  0  0  0  0  0  0  0  0  0  0  0
   -7.6507   24.9898  -30.3713 H   0  0  0  0  0  0  0  0  0  0  0  0
   -8.6962   23.0890  -31.3312 H   0  0  0  0  0  0  0  0  0  0  0  0
   -7.9261   23.0603  -32.9639 H   0  0  0  0  0  0  0  0  0  0  0  0
   -9.3751   20.6966  -30.6420 H   0  0  0  0  0  0  0  0  0  0  0  0
   -9.8001   21.2594  -32.3120 H   0  0  0  0  0  0  0  0  0  0  0  0
  -10.0922   18.7684  -31.9211 H   0  0  0  0  0  0  0  0  0  0  0  0
   -8.9779   19.2376  -33.2928 H   0  0  0  0  0  0  0  0  0  0  0  0
   -7.7251   18.7331  -30.6314 H   0  0  0  0  0  0  0  0  0  0  0  0
   -8.3937   17.3056  -31.5665 H   0  0  0  0  0  0  0  0  0  0  0  0
   -5.8473   17.2672  -30.8461 H   0  0  0  0  0  0  0  0  0  0  0  0
   -6.1451   16.2640  -32.3061 H   0  0  0  0  0  0  0  0  0  0  0  0
   -4.8228   17.4798  -32.3061 H   0  0  0  0  0  0  0  0  0  0  0  0
   -5.4997   19.8289  -31.8357 H   0  0  0  0  0  0  0  0  0  0  0  0
   -5.4770   19.4046  -33.6230 H   0  0  0  0  0  0  0  0  0  0  0  0
   -6.4402   21.5533  -33.4859 H   0  0  0  0  0  0  0  0  0  0  0  0
   -7.8032   20.3594  -33.7338 H   0  0  0  0  0  0  0  0  0  0  0  0
   -5.2398   21.8787  -32.1776 H   0  0  0  0  0  0  0  0  0  0  0  0
   -3.1910   22.8948  -31.1898 H   0  0  0  0  0  0  0  0  0  0  0  0
  1  2  1  0
  2  3  1  0
  3  4  2  0
  4  5  1  0
  5  6  2  0
  6  7  1  0
  7  8  1  0
  8  9  1  0
  9 10  1  0
 10 11  1  0
 11 12  1  0
 12 13  1  0
 12 14  1  0
 14 15  1  0
  6 16  1  0
 16 17  2  0
 17  3  1  0
 15  8  1  0
  1 18  1  0
  1 19  1  0
  1 20  1  0
  4 21  1  0
  5 22  1  0
  7 23  1  0
  7 24  1  0
  9 25  1  0
  9 26  1  0
 10 27  1  0
 10 28  1  0
 11 29  1  0
 11 30  1  0
 13 31  1  0
 13 32  1  0
 13 33  1  0
 14 34  1  0
 14 35  1  0
 15 36  1  0
 15 37  1  0
 16 38  1  0
 17 39  1  0
M  END
>  <UniqueID>  (29) 
28

>  <SMILES>  (29) 
COc1ccc(CN2CCCN(C)CC2)cc1

>  <Energy>  (29) 
53.14019533096009

>  <Genealogy>  (29) 
COc1ccc(CN2CCCN(C)CC2)cc1 (3D coordinates assigned)
COc1ccc(CN2CCCN(C)CC2)cc1 (nonaromatic ring conformer: 53.14019533096009 kcal/mol)

>  <smiles>  (29) 
COc1ccc(CN2CCCN(C)CC2)cc1

>  <score_type>  (29) 
oracle

>  <origin>  (29) 
adg

>  <m_score__min__energy>  (29) 
-5.5899999999999999

>  <m_primary>  (29) 
energy

$$$$
29:0
     RDKit          3D

 80 85  0  0  0  0  0  0  0  0999 V2000
   -1.9690   26.5120  -25.0300 C   0  0  0  0  0  0  0  0  0  0  0  0
   -0.8480   25.8950  -24.3030 N   0  0  0  0  0  0  0  0  0  0  0  0
   -0.2210   26.8500  -23.3760 C   0  0  0  0  0  0  0  0  0  0  0  0
    0.1290   25.2280  -25.1930 C   0  0  0  0  0  0  0  0  0  0  0  0
   -0.0050   25.6030  -26.6840 C   0  0  0  0  0  0  0  0  0  0  0  0
   -0.3690   24.4050  -27.4700 N   0  0  0  0  0  0  0  0  0  0  0  0
    0.7140   23.4050  -27.4760 C   0  0  0  0  0  0  0  0  0  0  0  0
    0.2100   22.0920  -28.1160 C   0  0  0  0  0  0  0  0  0  0  0  0
   -1.0070   22.3080  -28.9430 N   0  0  0  0  0  0  0  0  0  0  0  0
   -1.5340   21.0450  -29.5960 C   0  0  0  0  0  0  0  0  0  0  0  0
   -2.9470   21.2580  -30.2190 C   0  0  0  0  0  0  0  0  0  0  0  0
   -3.8210   22.2960  -29.8220 C   0  0  0  0  0  0  0  0  0  0  0  0
   -5.1150   22.3910  -30.3390 C   0  0  0  0  0  0  0  0  0  0  0  0
   -5.5950   21.4320  -31.2400 C   0  0  0  0  0  0  0  0  0  0  0  0
   -6.9460   21.5110  -31.7360 N   0  0  0  0  0  0  0  0  0  0  0  0
   -7.5160   22.8060  -32.1230 C   0  0  0  0  0  0  0  0  0  0  0  0
   -9.0410   22.7620  -31.9890 C   0  0  0  0  0  0  0  0  0  0  0  0
   -9.5760   21.6510  -32.6840 O   0  0  0  0  0  0  0  0  0  0  0  0
   -9.1300   20.4510  -32.0820 C   0  0  0  0  0  0  0  0  0  0  0  0
   -7.6130   20.3020  -32.2280 C   0  0  0  0  0  0  0  0  0  0  0  0
   -4.7510   20.3790  -31.6230 C   0  0  0  0  0  0  0  0  0  0  0  0
   -3.4550   20.2860  -31.1110 C   0  0  0  0  0  0  0  0  0  0  0  0
   -0.6110   20.6370  -30.8230 C   0  0  0  0  0  0  0  0  0  0  0  0
   -0.6050   21.5100  -31.9490 C   0  0  0  0  0  0  0  0  0  0  0  0
    0.2360   21.3240  -33.0420 C   0  0  0  0  0  0  0  0  0  0  0  0
    1.0660   20.2200  -33.0950 C   0  0  0  0  0  0  0  0  0  0  0  0
    0.9970   19.2640  -32.0930 C   0  0  0  0  0  0  0  0  0  0  0  0
    0.1360   19.4260  -30.9870 C   0  0  0  0  0  0  0  0  0  0  0  0
   -0.0110   18.2420  -30.0920 C   0  0  0  0  0  0  0  0  0  0  0  0
    0.3380   18.6300  -28.6750 C   0  0  0  0  0  0  0  0  0  0  0  0
   -0.9190   18.9920  -27.9630 C   0  0  0  0  0  0  0  0  0  0  0  0
   -1.2380   18.2260  -26.8210 C   0  0  0  0  0  0  0  0  0  0  0  0
   -2.3710   18.4960  -26.0680 C   0  0  0  0  0  0  0  0  0  0  0  0
   -3.1880   19.5550  -26.4180 C   0  0  0  0  0  0  0  0  0  0  0  0
   -2.8890   20.3270  -27.5380 C   0  0  0  0  0  0  0  0  0  0  0  0
   -1.7950   20.0360  -28.4060 C   0  0  0  0  0  0  0  0  0  0  0  0
   -0.8020   23.5250  -29.7690 C   0  0  0  0  0  0  0  0  0  0  0  0
   -0.7300   24.7670  -28.8580 C   0  0  0  0  0  0  0  0  0  0  0  0
   -2.6971   26.9128  -24.3094 H   0  0  0  0  0  0  0  0  0  0  0  0
   -1.5908   27.3290  -25.6620 H   0  0  0  0  0  0  0  0  0  0  0  0
   -2.4570   25.7554  -25.6620 H   0  0  0  0  0  0  0  0  0  0  0  0
   -0.4234   26.5418  -22.3396 H   0  0  0  0  0  0  0  0  0  0  0  0
    0.8654   26.8682  -23.5476 H   0  0  0  0  0  0  0  0  0  0  0  0
   -0.6362   27.8541  -23.5476 H   0  0  0  0  0  0  0  0  0  0  0  0
    1.1408   25.5018  -24.8593 H   0  0  0  0  0  0  0  0  0  0  0  0
   -0.0692   24.1483  -25.1225 H   0  0  0  0  0  0  0  0  0  0  0  0
   -0.7875   26.3674  -26.7996 H   0  0  0  0  0  0  0  0  0  0  0  0
    0.9551   25.9982  -27.0472 H   0  0  0  0  0  0  0  0  0  0  0  0
    1.5646   23.7913  -28.0566 H   0  0  0  0  0  0  0  0  0  0  0  0
    1.0311   23.2066  -26.4416 H   0  0  0  0  0  0  0  0  0  0  0  0
    1.0051   21.6799  -28.7547 H   0  0  0  0  0  0  0  0  0  0  0  0
   -0.0490   21.3956  -27.3049 H   0  0  0  0  0  0  0  0  0  0  0  0
   -3.4753   23.0429  -29.0922 H   0  0  0  0  0  0  0  0  0  0  0  0
   -5.7630   23.2265  -30.0358 H   0  0  0  0  0  0  0  0  0  0  0  0
   -7.1143   23.5925  -31.4673 H   0  0  0  0  0  0  0  0  0  0  0  0
   -7.2492   23.0228  -33.1679 H   0  0  0  0  0  0  0  0  0  0  0  0
   -9.3071   22.6835  -30.9246 H   0  0  0  0  0  0  0  0  0  0  0  0
   -9.4591   23.6827  -32.4220 H   0  0  0  0  0  0  0  0  0  0  0  0
   -9.3900   20.4651  -31.0133 H   0  0  0  0  0  0  0  0  0  0  0  0
   -9.6180   19.6020  -32.5830 H   0  0  0  0  0  0  0  0  0  0  0  0
   -7.2734   19.4341  -31.6438 H   0  0  0  0  0  0  0  0  0  0  0  0
   -7.3628   20.1553  -33.2891 H   0  0  0  0  0  0  0  0  0  0  0  0
   -5.1130   19.6203  -32.3325 H   0  0  0  0  0  0  0  0  0  0  0  0
   -2.8173   19.4402  -31.4075 H   0  0  0  0  0  0  0  0  0  0  0  0
   -1.2943   22.3672  -31.9546 H   0  0  0  0  0  0  0  0  0  0  0  0
    0.2402   22.0554  -33.8636 H   0  0  0  0  0  0  0  0  0  0  0  0
    1.7764   20.1006  -33.9263 H   0  0  0  0  0  0  0  0  0  0  0  0
    1.6247   18.3633  -32.1616 H   0  0  0  0  0  0  0  0  0  0  0  0
   -1.0502   17.8832  -30.1277 H   0  0  0  0  0  0  0  0  0  0  0  0
    0.6666   17.4437  -30.4290 H   0  0  0  0  0  0  0  0  0  0  0  0
    0.8222   17.7832  -28.1666 H   0  0  0  0  0  0  0  0  0  0  0  0
    1.0305   19.4847  -28.6771 H   0  0  0  0  0  0  0  0  0  0  0  0
   -0.5758   17.3998  -26.5228 H   0  0  0  0  0  0  0  0  0  0  0  0
   -2.6182   17.8711  -25.1972 H   0  0  0  0  0  0  0  0  0  0  0  0
   -4.0753   19.7881  -25.8111 H   0  0  0  0  0  0  0  0  0  0  0  0
   -3.5229   21.1975  -27.7626 H   0  0  0  0  0  0  0  0  0  0  0  0
    0.1380   23.4301  -30.3324 H   0  0  0  0  0  0  0  0  0  0  0  0
   -1.6434   23.6356  -30.4689 H   0  0  0  0  0  0  0  0  0  0  0  0
    0.0284   25.4575  -29.2554 H   0  0  0  0  0  0  0  0  0  0  0  0
   -1.7230   25.2400  -28.8426 H   0  0  0  0  0  0  0  0  0  0  0  0
  1  2  1  0
  2  3  1  0
  2  4  1  0
  4  5  1  0
  5  6  1  0
  6  7  1  0
  7  8  1  0
  8  9  1  0
  9 10  1  0
 10 11  1  0
 11 12  2  0
 12 13  1  0
 13 14  2  0
 14 15  1  0
 15 16  1  0
 16 17  1  0
 17 18  1  0
 18 19  1  0
 19 20  1  0
 14 21  1  0
 21 22  2  0
 10 23  1  0
 23 24  2  0
 24 25  1  0
 25 26  2  0
 26 27  1  0
 27 28  2  0
 28 29  1  0
 29 30  1  0
 30 31  1  0
 31 32  2  0
 32 33  1  0
 33 34  2  0
 34 35  1  0
 35 36  2  0
  9 37  1  0
 37 38  1  0
 38  6  1  0
 36 10  1  0
 22 11  1  0
 28 23  1  0
 36 31  1  0
 20 15  1  0
  1 39  1  0
  1 40  1  0
  1 41  1  0
  3 42  1  0
  3 43  1  0
  3 44  1  0
  4 45  1  0
  4 46  1  0
  5 47  1  0
  5 48  1  0
  7 49  1  0
  7 50  1  0
  8 51  1  0
  8 52  1  0
 12 53  1  0
 13 54  1  0
 16 55  1  0
 16 56  1  0
 17 57  1  0
 17 58  1  0
 19 59  1  0
 19 60  1  0
 20 61  1  0
 20 62  1  0
 21 63  1  0
 22 64  1  0
 24 65  1  0
 25 66  1  0
 26 67  1  0
 27 68  1  0
 29 69  1  0
 29 70  1  0
 30 71  1  0
 30 72  1  0
 32 73  1  0
 33 74  1  0
 34 75  1  0
 35 76  1  0
 37 77  1  0
 37 78  1  0
 38 79  1  0
 38 80  1  0
M  END
>  <UniqueID>  (30) 
29

>  <SMILES>  (30) 
CN(C)CCN1CCN(C2(c3ccc(N4CCOCC4)cc3)c3ccccc3CCc3ccccc32)CC1

>  <Energy>  (30) 
155.8637091591692

>  <Genealogy>  (30) 
CN(C)CCN1CCN(C2(c3ccc(N4CCOCC4)cc3)c3ccccc3CCc3ccccc32)CC1 (3D coordinates assigned)
CN(C)CCN1CCN(C2(c3ccc(N4CCOCC4)cc3)c3ccccc3CCc3ccccc32)CC1 (nonaromatic ring conformer: 155.8637091591692 kcal/mol)

>  <smiles>  (30) 
CN(C)CCN1CCN(C2(c3ccc(N4CCOCC4)cc3)c3ccccc3CCc3ccccc32)CC1

>  <score_type>  (30) 
oracle

>  <origin>  (30) 
adg

>  <m_score__min__energy>  (30) 
-7.5800000000000001

>  <m_primary>  (30) 
energy

$$$$
30:0
     RDKit          3D

 30 32  0  0  0  0  0  0  0  0999 V2000
   -6.2260   21.7533  -33.7830 H   0  0  0  0  0  0  0  0  0  0  0  0
   -6.4560   21.8900  -32.7160 C   0  0  0  0  0  0  0  0  0  0  0  0
   -7.5300   21.2660  -32.2110 C   0  0  0  0  0  0  0  0  0  0  0  0
   -8.7400   21.8280  -31.6270 C   0  0  0  0  0  0  0  0  0  0  0  0
   -9.0860   23.0370  -31.5960 O   0  0  0  0  0  0  0  0  0  0  0  0
   -9.4970   20.7860  -31.1320 O   0  0  0  0  0  0  0  0  0  0  0  0
   -8.8570   19.5930  -31.3880 N   0  0  0  0  0  0  0  0  0  0  0  0
   -7.7410   19.8190  -32.0170 C   0  0  0  0  0  0  0  0  0  0  0  0
   -6.8550   18.7240  -32.4590 C   0  0  0  0  0  0  0  0  0  0  0  0
   -6.3240   18.7350  -33.7590 C   0  0  0  0  0  0  0  0  0  0  0  0
   -6.5828   19.5518  -34.4489 H   0  0  0  0  0  0  0  0  0  0  0  0
   -5.4680   17.7130  -34.1810 C   0  0  0  0  0  0  0  0  0  0  0  0
   -5.0626   17.7230  -35.2035 H   0  0  0  0  0  0  0  0  0  0  0  0
   -5.1270   16.6790  -33.3050 C   0  0  0  0  0  0  0  0  0  0  0  0
   -4.4604   15.8709  -33.6406 H   0  0  0  0  0  0  0  0  0  0  0  0
   -5.6330   16.6720  -32.0030 C   0  0  0  0  0  0  0  0  0  0  0  0
   -5.3578   15.8621  -31.3114 H   0  0  0  0  0  0  0  0  0  0  0  0
   -6.4890   17.6930  -31.5770 C   0  0  0  0  0  0  0  0  0  0  0  0
   -6.8771   17.6889  -30.5478 H   0  0  0  0  0  0  0  0  0  0  0  0
   -5.5680   22.7500  -31.9130 C   0  0  0  0  0  0  0  0  0  0  0  0
   -6.0190   24.0190  -31.5220 C   0  0  0  0  0  0  0  0  0  0  0  0
   -7.0308   24.3499  -31.7992 H   0  0  0  0  0  0  0  0  0  0  0  0
   -5.1880   24.8660  -30.7810 C   0  0  0  0  0  0  0  0  0  0  0  0
   -5.5527   25.8544  -30.4648 H   0  0  0  0  0  0  0  0  0  0  0  0
   -3.8950   24.4580  -30.4420 C   0  0  0  0  0  0  0  0  0  0  0  0
   -3.0720   25.3000  -29.7040 O   0  0  0  0  0  0  0  0  0  0  0  0
   -3.4280   23.2050  -30.8510 C   0  0  0  0  0  0  0  0  0  0  0  0
   -2.4087   22.8866  -30.5872 H   0  0  0  0  0  0  0  0  0  0  0  0
   -4.2540   22.3550  -31.5950 C   0  0  0  0  0  0  0  0  0  0  0  0
   -3.7580   21.1280  -32.0250 O   0  0  0  0  0  0  0  0  0  0  0  0
  1  2  1  0
  2  3  2  0
  3  4  1  0
  4  5  2  0
  4  6  1  0
  6  7  1  0
  7  8  2  0
  8  9  1  0
  9 10  2  0
 10 11  1  0
 10 12  1  0
 12 13  1  0
 12 14  2  0
 14 15  1  0
 14 16  1  0
 16 17  1  0
 16 18  2  0
 18 19  1  0
  2 20  1  0
 20 21  2  0
 21 22  1  0
 21 23  1  0
 23 24  1  0
 23 25  2  0
 25 26  1  0
 25 27  1  0
 27 28  1  0
 27 29  2  0
 29 30  1  0
  8  3  1  0
 18  9  1  0
 29 20  1  0
M  CHG  2  26  -1  30  -1
M  END
>  <UniqueID>  (31) 
30

>  <SMILES>  (31) 
O=C1ON=C(c2ccccc2)/C1=C/c1ccc([O-])cc1[O-]

>  <Energy>  (31) 
76.12705391864642

>  <Genealogy>  (31) 
O=C1ON=C(c2ccccc2)C1=Cc1ccc([O-])cc1[O-] (protonated)
O=C1ON=C(c2ccccc2)/C1=C/c1ccc([O-])cc1[O-] (cis-trans isomerization)
O=C1ON=C(c2ccccc2)/C1=C/c1ccc([O-])cc1[O-] (3D coordinates assigned)
O=C1ON=C(c2ccccc2)/C1=C/c1ccc([O-])cc1[O-] (nonaromatic ring conformer: 76.12705391864642 kcal/mol)

>  <smiles>  (31) 
O=C1ON=C(c2ccccc2)C1=Cc1ccc(O)cc1O

>  <score_type>  (31) 
oracle

>  <origin>  (31) 
adg

>  <m_score__min__energy>  (31) 
-11.300000000000001

>  <m_primary>  (31) 
energy

$$$$
31:0
     RDKit          3D

 65 69  0  0  0  0  0  0  0  0999 V2000
   -1.9720   25.9170  -25.8050 C   0  0  0  0  0  0  0  0  0  0  0  0
   -1.5950   26.0080  -27.1750 O   0  0  0  0  0  0  0  0  0  0  0  0
   -1.4020   24.9040  -28.0180 C   0  0  0  0  0  0  0  0  0  0  0  0
   -0.2510   24.0970  -27.9540 C   0  0  0  0  0  0  0  0  0  0  0  0
   -0.1040   23.0060  -28.8160 C   0  0  0  0  0  0  0  0  0  0  0  0
   -1.1030   22.7030  -29.7540 C   0  0  0  0  0  0  0  0  0  0  0  0
   -0.9440   21.5470  -30.6600 C   0  0  0  0  0  0  0  0  0  0  0  0
   -1.9260   20.6520  -30.9150 N   0  0  0  0  0  0  0  0  0  0  0  0
   -1.3460   19.7900  -31.7710 C   0  0  0  0  0  0  0  0  0  0  0  0
   -2.0430   18.5890  -32.3430 C   0  0  0  0  0  0  0  0  0  0  0  0
   -2.6130   18.8940  -33.6740 N   0  0  0  0  0  0  0  0  0  0  0  0
   -4.0320   18.4680  -33.7800 C   0  0  0  0  0  0  0  0  0  0  0  0
   -4.9870   19.6020  -34.1950 C   0  0  0  0  0  0  0  0  0  0  0  0
   -4.7820   20.8250  -33.3820 N   0  0  0  0  0  0  0  0  0  0  0  0
   -5.3470   20.7240  -32.0040 C   0  0  0  0  0  0  0  0  0  0  0  0
   -5.5470   22.0900  -31.3660 C   0  0  0  0  0  0  0  0  0  0  0  0
   -5.9330   23.1820  -32.1640 C   0  0  0  0  0  0  0  0  0  0  0  0
   -6.0940   24.4500  -31.5980 C   0  0  0  0  0  0  0  0  0  0  0  0
   -5.8600   24.6430  -30.2350 C   0  0  0  0  0  0  0  0  0  0  0  0
   -5.4620   23.5710  -29.4350 C   0  0  0  0  0  0  0  0  0  0  0  0
   -5.2980   22.3010  -29.9950 C   0  0  0  0  0  0  0  0  0  0  0  0
   -6.6860   20.0090  -31.9770 C   0  0  0  0  0  0  0  0  0  0  0  0
   -6.7440   18.6350  -31.6760 C   0  0  0  0  0  0  0  0  0  0  0  0
   -7.9750   17.9730  -31.6220 C   0  0  0  0  0  0  0  0  0  0  0  0
   -9.1590   18.6750  -31.8590 C   0  0  0  0  0  0  0  0  0  0  0  0
   -9.1150   20.0420  -32.1490 C   0  0  0  0  0  0  0  0  0  0  0  0
   -7.8880   20.7080  -32.2040 C   0  0  0  0  0  0  0  0  0  0  0  0
   -3.3580   21.2700  -33.3880 C   0  0  0  0  0  0  0  0  0  0  0  0
   -2.3900   20.2960  -34.0880 C   0  0  0  0  0  0  0  0  0  0  0  0
   -0.0450   20.1860  -32.0000 C   0  0  0  0  0  0  0  0  0  0  0  0
    0.9690   19.5260  -32.8760 C   0  0  0  0  0  0  0  0  0  0  0  0
    0.1710   21.2720  -31.3030 O   0  0  0  0  0  0  0  0  0  0  0  0
   -2.2510   23.5090  -29.8180 C   0  0  0  0  0  0  0  0  0  0  0  0
   -2.3950   24.6000  -28.9540 C   0  0  0  0  0  0  0  0  0  0  0  0
   -1.0991   26.1277  -25.1697 H   0  0  0  0  0  0  0  0  0  0  0  0
   -2.7648   26.6496  -25.5934 H   0  0  0  0  0  0  0  0  0  0  0  0
   -2.3434   24.9034  -25.5934 H   0  0  0  0  0  0  0  0  0  0  0  0
    0.5374   24.3257  -27.2218 H   0  0  0  0  0  0  0  0  0  0  0  0
    0.7998   22.3816  -28.7586 H   0  0  0  0  0  0  0  0  0  0  0  0
   -1.3202   17.7656  -32.4408 H   0  0  0  0  0  0  0  0  0  0  0  0
   -2.8621   18.3027  -31.6669 H   0  0  0  0  0  0  0  0  0  0  0  0
   -4.0990   17.6654  -34.5292 H   0  0  0  0  0  0  0  0  0  0  0  0
   -4.3439   18.1338  -32.7795 H   0  0  0  0  0  0  0  0  0  0  0  0
   -4.8111   19.8452  -35.2533 H   0  0  0  0  0  0  0  0  0  0  0  0
   -6.0181   19.2547  -34.0331 H   0  0  0  0  0  0  0  0  0  0  0  0
   -4.6042   20.1451  -31.4356 H   0  0  0  0  0  0  0  0  0  0  0  0
   -6.1093   23.0374  -33.2401 H   0  0  0  0  0  0  0  0  0  0  0  0
   -6.4054   25.2969  -32.2272 H   0  0  0  0  0  0  0  0  0  0  0  0
   -5.9895   25.6412  -29.7913 H   0  0  0  0  0  0  0  0  0  0  0  0
   -5.2770   23.7259  -28.3618 H   0  0  0  0  0  0  0  0  0  0  0  0
   -4.9729   21.4619  -29.3624 H   0  0  0  0  0  0  0  0  0  0  0  0
   -5.8153   18.0784  -31.4820 H   0  0  0  0  0  0  0  0  0  0  0  0
   -8.0107   16.8978  -31.3925 H   0  0  0  0  0  0  0  0  0  0  0  0
  -10.1260   18.1524  -31.8175 H   0  0  0  0  0  0  0  0  0  0  0  0
  -10.0481   20.5942  -32.3342 H   0  0  0  0  0  0  0  0  0  0  0  0
   -7.8603   21.7850  -32.4260 H   0  0  0  0  0  0  0  0  0  0  0  0
   -3.3028   22.2401  -33.9037 H   0  0  0  0  0  0  0  0  0  0  0  0
   -3.0417   21.3253  -32.3359 H   0  0  0  0  0  0  0  0  0  0  0  0
   -2.5359   20.3718  -35.1756 H   0  0  0  0  0  0  0  0  0  0  0  0
   -1.3650   20.5740  -33.8016 H   0  0  0  0  0  0  0  0  0  0  0  0
    1.7277   19.0322  -32.2510 H   0  0  0  0  0  0  0  0  0  0  0  0
    0.4731   18.7771  -33.5110 H   0  0  0  0  0  0  0  0  0  0  0  0
    1.4530   20.2826  -33.5110 H   0  0  0  0  0  0  0  0  0  0  0  0
   -3.0400   23.2818  -30.5501 H   0  0  0  0  0  0  0  0  0  0  0  0
   -3.2985   25.2248  -29.0117 H   0  0  0  0  0  0  0  0  0  0  0  0
  1  2  1  0
  2  3  1  0
  3  4  2  0
  4  5  1  0
  5  6  2  0
  6  7  1  0
  7  8  2  0
  8  9  1  0
  9 10  1  0
 10 11  1  0
 11 12  1  0
 12 13  1  0
 13 14  1  0
 14 15  1  0
 15 16  1  0
 16 17  2  0
 17 18  1  0
 18 19  2  0
 19 20  1  0
 20 21  2  0
 15 22  1  0
 22 23  2  0
 23 24  1  0
 24 25  2  0
 25 26  1  0
 26 27  2  0
 14 28  1  0
 28 29  1  0
  9 30  2  0
 30 31  1  0
 30 32  1  0
  6 33  1  0
 33 34  2  0
 34  3  1  0
 32  7  1  0
 29 11  1  0
 21 16  1  0
 27 22  1  0
  1 35  1  0
  1 36  1  0
  1 37  1  0
  4 38  1  0
  5 39  1  0
 10 40  1  0
 10 41  1  0
 12 42  1  0
 12 43  1  0
 13 44  1  0
 13 45  1  0
 15 46  1  0
 17 47  1  0
 18 48  1  0
 19 49  1  0
 20 50  1  0
 21 51  1  0
 23 52  1  0
 24 53  1  0
 25 54  1  0
 26 55  1  0
 27 56  1  0
 28 57  1  0
 28 58  1  0
 29 59  1  0
 29 60  1  0
 31 61  1  0
 31 62  1  0
 31 63  1  0
 33 64  1  0
 34 65  1  0
M  END
>  <UniqueID>  (32) 
31

>  <SMILES>  (32) 
COc1ccc(-c2nc(CN3CCN(C(c4ccccc4)c4ccccc4)CC3)c(C)o2)cc1

>  <Energy>  (32) 
116.68097637537217

>  <Genealogy>  (32) 
COc1ccc(-c2nc(CN3CCN(C(c4ccccc4)c4ccccc4)CC3)c(C)o2)cc1 (3D coordinates assigned)
COc1ccc(-c2nc(CN3CCN(C(c4ccccc4)c4ccccc4)CC3)c(C)o2)cc1 (nonaromatic ring conformer: 116.68097637537217 kcal/mol)

>  <smiles>  (32) 
COc1ccc(-c2nc(CN3CCN(C(c4ccccc4)c4ccccc4)CC3)c(C)o2)cc1

>  <score_type>  (32) 
oracle

>  <origin>  (32) 
adg

>  <m_score__min__energy>  (32) 
-10.18

>  <m_primary>  (32) 
energy

$$$$
32:0
     RDKit          3D

 48 51  0  0  0  0  0  0  0  0999 V2000
   -8.9940   18.1990  -31.6010 C   0  0  0  0  0  0  0  0  0  0  0  0
   -8.3690   19.4830  -31.8860 N   0  0  0  0  0  0  0  0  0  0  0  0
   -8.9860   20.6860  -31.8490 C   0  0  0  0  0  0  0  0  0  0  0  0
   -8.0160   21.6530  -32.0210 C   0  0  0  0  0  0  0  0  0  0  0  0
   -6.8320   20.9800  -32.1700 C   0  0  0  0  0  0  0  0  0  0  0  0
   -7.0650   19.6580  -32.0560 N   0  0  0  0  0  0  0  0  0  0  0  0
   -5.4910   21.6510  -32.1900 C   0  0  1  0  0  0  0  0  0  0  0  0
   -4.6430   21.1250  -33.3580 C   0  0  0  0  0  0  0  0  0  0  0  0
   -5.1580   19.8790  -33.7800 O   0  0  0  0  0  0  0  0  0  0  0  0
   -4.1870   18.8710  -33.6000 C   0  0  0  0  0  0  0  0  0  0  0  0
   -4.8590   17.5290  -33.6970 C   0  0  0  0  0  0  0  0  0  0  0  0
   -4.2000   16.3740  -33.2490 C   0  0  0  0  0  0  0  0  0  0  0  0
   -4.8360   15.1340  -33.3230 C   0  0  0  0  0  0  0  0  0  0  0  0
   -6.1250   15.0570  -33.8500 C   0  0  0  0  0  0  0  0  0  0  0  0
   -6.7500   16.1830  -34.2910 N   0  0  0  0  0  0  0  0  0  0  0  0
   -6.1530   17.4040  -34.2270 C   0  0  0  0  0  0  0  0  0  0  0  0
   -5.6450   23.2030  -32.2720 C   0  0  0  0  0  0  0  0  0  0  0  0
   -6.8340   23.7420  -31.5610 N   0  0  0  0  0  0  0  0  0  0  0  0
   -6.6590   24.0070  -30.1130 C   0  0  0  0  0  0  0  0  0  0  0  0
   -5.2220   24.0000  -29.6580 C   0  0  0  0  0  0  0  0  0  0  0  0
   -4.6940   23.0260  -28.7960 C   0  0  0  0  0  0  0  0  0  0  0  0
   -3.3440   23.2000  -28.5240 C   0  0  0  0  0  0  0  0  0  0  0  0
   -2.8080   24.5480  -29.3720 S   0  0  0  0  0  0  0  0  0  0  0  0
   -4.2760   24.9270  -30.0900 C   0  0  0  0  0  0  0  0  0  0  0  0
   -8.1270   23.1390  -31.9540 C   0  0  0  0  0  0  0  0  0  0  0  0
   -9.0625   18.0582  -30.5122 H   0  0  0  0  0  0  0  0  0  0  0  0
  -10.0033   18.1775  -32.0378 H   0  0  0  0  0  0  0  0  0  0  0  0
   -8.3882   17.3914  -32.0378 H   0  0  0  0  0  0  0  0  0  0  0  0
  -10.0627   20.8616  -31.7078 H   0  0  0  0  0  0  0  0  0  0  0  0
   -6.3490   18.8950  -32.0400 H   0  0  0  0  0  0  0  0  0  0  0  0
   -4.9726   21.4112  -31.2499 H   0  0  0  0  0  0  0  0  0  0  0  0
   -4.6812   21.8408  -34.1924 H   0  0  0  0  0  0  0  0  0  0  0  0
   -3.5994   21.0031  -33.0323 H   0  0  0  0  0  0  0  0  0  0  0  0
   -3.4165   18.9561  -34.3804 H   0  0  0  0  0  0  0  0  0  0  0  0
   -3.7119   18.9811  -32.6140 H   0  0  0  0  0  0  0  0  0  0  0  0
   -3.1817   16.4460  -32.8393 H   0  0  0  0  0  0  0  0  0  0  0  0
   -4.3256   14.2261  -32.9691 H   0  0  0  0  0  0  0  0  0  0  0  0
   -6.6371   14.0853  -33.9093 H   0  0  0  0  0  0  0  0  0  0  0  0
   -6.6853   18.2950  -34.5913 H   0  0  0  0  0  0  0  0  0  0  0  0
   -4.7458   23.6613  -31.8344 H   0  0  0  0  0  0  0  0  0  0  0  0
   -5.7781   23.4488  -33.3359 H   0  0  0  0  0  0  0  0  0  0  0  0
   -7.0884   24.9943  -29.8876 H   0  0  0  0  0  0  0  0  0  0  0  0
   -7.1668   23.1919  -29.5765 H   0  0  0  0  0  0  0  0  0  0  0  0
   -5.2925   22.2039  -28.3764 H   0  0  0  0  0  0  0  0  0  0  0  0
   -2.7311   22.5653  -27.8670 H   0  0  0  0  0  0  0  0  0  0  0  0
   -4.4597   25.7623  -30.7817 H   0  0  0  0  0  0  0  0  0  0  0  0
   -8.8927   23.4110  -31.2125 H   0  0  0  0  0  0  0  0  0  0  0  0
   -8.4070   23.5183  -32.9478 H   0  0  0  0  0  0  0  0  0  0  0  0
  1  2  1  0
  2  3  1  0
  3  4  2  0
  4  5  1  0
  5  6  2  0
  5  7  1  0
  7  8  1  0
  8  9  1  0
  9 10  1  0
 10 11  1  0
 11 12  2  0
 12 13  1  0
 13 14  2  0
 14 15  1  0
 15 16  2  0
  7 17  1  0
 17 18  1  0
 18 19  1  0
 19 20  1  0
 20 21  1  0
 21 22  2  0
 22 23  1  0
 23 24  1  0
 18 25  1  0
  6  2  1  0
 16 11  1  0
 24 20  2  0
 25  4  1  0
  1 26  1  0
  1 27  1  0
  1 28  1  0
  3 29  1  0
  6 30  1  0
  7 31  1  1
  8 32  1  0
  8 33  1  0
 10 34  1  0
 10 35  1  0
 12 36  1  0
 13 37  1  0
 14 38  1  0
 16 39  1  0
 17 40  1  0
 17 41  1  0
 19 42  1  0
 19 43  1  0
 21 44  1  0
 22 45  1  0
 24 46  1  0
 25 47  1  0
 25 48  1  0
M  CHG  1   6   1
M  END
>  <UniqueID>  (33) 
32

>  <SMILES>  (33) 
Cn1cc2c([nH+]1)[C@@H](COCc1cccnc1)CN(Cc1ccsc1)C2

>  <Energy>  (33) 
117.31054186092551

>  <Genealogy>  (33) 
Cn1cc2c([nH+]1)C(COCc1cccnc1)CN(Cc1ccsc1)C2 (protonated)
Cn1cc2c([nH+]1)[C@@H](COCc1cccnc1)CN(Cc1ccsc1)C2 (chirality)
Cn1cc2c([nH+]1)[C@@H](COCc1cccnc1)CN(Cc1ccsc1)C2 (3D coordinates assigned)
Cn1cc2c([nH+]1)[C@@H](COCc1cccnc1)CN(Cc1ccsc1)C2 (nonaromatic ring conformer: 117.31054186092551 kcal/mol)

>  <smiles>  (33) 
Cn1cc2c(n1)C(COCc1cccnc1)CN(Cc1ccsc1)C2

>  <score_type>  (33) 
oracle

>  <origin>  (33) 
adg

>  <m_score__min__energy>  (33) 
-7.3899999999999997

>  <m_primary>  (33) 
energy

$$$$
33:0
     RDKit          3D

 41 41  0  0  0  0  0  0  0  0999 V2000
   -8.8080   20.0870  -32.1120 C   0  0  0  0  0  0  0  0  0  0  0  0
   -7.6320   20.2520  -33.0820 C   0  0  0  0  0  0  0  0  0  0  0  0
   -6.4910   19.3470  -32.7840 N   0  0  0  0  0  0  0  0  0  0  0  0
   -6.7290   18.4660  -31.6050 C   0  0  0  0  0  0  0  0  0  0  0  0
   -6.1020   17.0670  -31.7060 C   0  0  0  0  0  0  0  0  0  0  0  0
   -6.1190   18.6060  -34.0200 C   0  0  0  0  0  0  0  0  0  0  0  0
   -4.6030   18.4300  -34.2080 C   0  0  0  0  0  0  0  0  0  0  0  0
   -3.9130   19.0950  -33.1700 O   0  0  0  0  0  0  0  0  0  0  0  0
   -3.1290   20.1370  -33.7060 C   0  0  0  0  0  0  0  0  0  0  0  0
   -3.8290   21.4700  -33.4530 C   0  0  0  0  0  0  0  0  0  0  0  0
   -4.6620   21.3970  -32.2940 O   0  0  0  0  0  0  0  0  0  0  0  0
   -4.4560   22.0950  -31.0930 C   0  0  0  0  0  0  0  0  0  0  0  0
   -3.3460   21.8530  -30.2570 C   0  0  0  0  0  0  0  0  0  0  0  0
   -3.1860   22.5750  -29.0710 C   0  0  0  0  0  0  0  0  0  0  0  0
   -4.1230   23.5460  -28.7070 C   0  0  0  0  0  0  0  0  0  0  0  0
   -3.8990   24.5290  -27.0850 Br  0  0  0  0  0  0  0  0  0  0  0  0
   -5.2240   23.7950  -29.5310 C   0  0  0  0  0  0  0  0  0  0  0  0
   -5.3900   23.0750  -30.7200 C   0  0  0  0  0  0  0  0  0  0  0  0
   -6.9170   23.4300  -31.8180 Br  0  0  0  0  0  0  0  0  0  0  0  0
   -8.4395   20.1387  -31.0768 H   0  0  0  0  0  0  0  0  0  0  0  0
   -9.5389   20.8914  -32.2816 H   0  0  0  0  0  0  0  0  0  0  0  0
   -9.2893   19.1125  -32.2816 H   0  0  0  0  0  0  0  0  0  0  0  0
   -7.9880   20.0407  -34.1011 H   0  0  0  0  0  0  0  0  0  0  0  0
   -7.2652   21.2836  -32.9760 H   0  0  0  0  0  0  0  0  0  0  0  0
   -5.6750   19.9600  -32.5430 H   0  0  0  0  0  0  0  0  0  0  0  0
   -6.3126   18.9638  -30.7168 H   0  0  0  0  0  0  0  0  0  0  0  0
   -7.8169   18.3132  -31.5485 H   0  0  0  0  0  0  0  0  0  0  0  0
   -5.9245   16.6709  -30.6953 H   0  0  0  0  0  0  0  0  0  0  0  0
   -6.7859   16.3969  -32.2475 H   0  0  0  0  0  0  0  0  0  0  0  0
   -5.1467   17.1316  -32.2475 H   0  0  0  0  0  0  0  0  0  0  0  0
   -6.5810   17.6086  -33.9782 H   0  0  0  0  0  0  0  0  0  0  0  0
   -6.4793   19.2028  -34.8709 H   0  0  0  0  0  0  0  0  0  0  0  0
   -4.3538   17.3589  -34.1848 H   0  0  0  0  0  0  0  0  0  0  0  0
   -4.3043   18.8584  -35.1761 H   0  0  0  0  0  0  0  0  0  0  0  0
   -2.1415   20.1417  -33.2213 H   0  0  0  0  0  0  0  0  0  0  0  0
   -3.0008   19.9853  -34.7879 H   0  0  0  0  0  0  0  0  0  0  0  0
   -3.0704   22.2522  -33.3025 H   0  0  0  0  0  0  0  0  0  0  0  0
   -4.4582   21.7072  -34.3235 H   0  0  0  0  0  0  0  0  0  0  0  0
   -2.6030   21.0927  -30.5397 H   0  0  0  0  0  0  0  0  0  0  0  0
   -2.3199   22.3784  -28.4220 H   0  0  0  0  0  0  0  0  0  0  0  0
   -5.9620   24.5587  -29.2445 H   0  0  0  0  0  0  0  0  0  0  0  0
  1  2  1  0
  2  3  1  0
  3  4  1  0
  4  5  1  0
  3  6  1  0
  6  7  1  0
  7  8  1  0
  8  9  1  0
  9 10  1  0
 10 11  1  0
 11 12  1  0
 12 13  2  0
 13 14  1  0
 14 15  2  0
 15 16  1  0
 15 17  1  0
 17 18  2  0
 18 19  1  0
 18 12  1  0
  1 20  1  0
  1 21  1  0
  1 22  1  0
  2 23  1  0
  2 24  1  0
  3 25  1  0
  4 26  1  0
  4 27  1  0
  5 28  1  0
  5 29  1  0
  5 30  1  0
  6 31  1  0
  6 32  1  0
  7 33  1  0
  7 34  1  0
  9 35  1  0
  9 36  1  0
 10 37  1  0
 10 38  1  0
 13 39  1  0
 14 40  1  0
 17 41  1  0
M  CHG  1   3   1
M  END
>  <UniqueID>  (34) 
33

>  <SMILES>  (34) 
CC[NH+](CC)CCOCCOc1ccc(Br)cc1Br

>  <Energy>  (34) 
40.35383820977338

>  <Genealogy>  (34) 
CC[NH+](CC)CCOCCOc1ccc(Br)cc1Br (protonated)
CC[NH+](CC)CCOCCOc1ccc(Br)cc1Br (3D coordinates assigned)
CC[NH+](CC)CCOCCOc1ccc(Br)cc1Br (optimized conformer: 40.35383820977338 kcal/mol)

>  <smiles>  (34) 
CCN(CC)CCOCCOc1ccc(Br)cc1Br

>  <score_type>  (34) 
oracle

>  <origin>  (34) 
adg

>  <m_score__min__energy>  (34) 
-6.7400000000000002

>  <m_primary>  (34) 
energy

$$$$
34:0
     RDKit          3D

 48 49  0  0  0  0  0  0  0  0999 V2000
   -3.8740   24.1640  -27.1920 C   0  0  0  0  0  0  0  0  0  0  0  0
   -4.5620   23.5120  -28.3890 C   0  0  0  0  0  0  0  0  0  0  0  0
   -3.8000   23.7840  -29.6300 N   0  0  0  0  0  0  0  0  0  0  0  0
   -4.4820   24.8000  -30.4650 C   0  0  0  0  0  0  0  0  0  0  0  0
   -5.8940   25.0480  -29.9450 C   0  0  0  0  0  0  0  0  0  0  0  0
   -2.4050   24.1840  -29.3290 C   0  0  0  0  0  0  0  0  0  0  0  0
   -1.4450   23.0220  -29.6510 C   0  0  0  0  0  0  0  0  0  0  0  0
   -2.1580   21.7240  -29.7850 N   0  0  2  0  0  0  0  0  0  0  0  0
   -1.7080   20.7950  -28.7300 C   0  0  0  0  0  0  0  0  0  0  0  0
   -1.9250   21.1290  -31.1250 C   0  0  0  0  0  0  0  0  0  0  0  0
   -3.2070   20.9790  -31.8940 C   0  0  0  0  0  0  0  0  0  0  0  0
   -3.3380   20.4380  -33.1560 C   0  0  0  0  0  0  0  0  0  0  0  0
   -4.6830   20.4970  -33.4480 C   0  0  0  0  0  0  0  0  0  0  0  0
   -5.2930   21.0730  -32.3430 C   0  0  0  0  0  0  0  0  0  0  0  0
   -6.7440   21.3440  -32.1750 C   0  0  0  0  0  0  0  0  0  0  0  0
   -7.1960   22.6750  -32.0820 C   0  0  0  0  0  0  0  0  0  0  0  0
   -8.5570   22.9590  -31.9380 C   0  0  0  0  0  0  0  0  0  0  0  0
   -9.4860   21.9210  -31.8860 C   0  0  0  0  0  0  0  0  0  0  0  0
   -9.0580   20.5960  -31.9760 C   0  0  0  0  0  0  0  0  0  0  0  0
   -7.6980   20.2970  -32.1200 C   0  0  0  0  0  0  0  0  0  0  0  0
   -7.2460   18.5940  -32.1800 Cl  0  0  0  0  0  0  0  0  0  0  0  0
   -4.3810   21.3450  -31.4360 O   0  0  0  0  0  0  0  0  0  0  0  0
   -4.2989   23.7613  -26.2607 H   0  0  0  0  0  0  0  0  0  0  0  0
   -2.7959   23.9483  -27.2265 H   0  0  0  0  0  0  0  0  0  0  0  0
   -4.0315   25.2521  -27.2265 H   0  0  0  0  0  0  0  0  0  0  0  0
   -4.6177   22.4253  -28.2281 H   0  0  0  0  0  0  0  0  0  0  0  0
   -5.5744   23.9298  -28.4915 H   0  0  0  0  0  0  0  0  0  0  0  0
   -3.9120   25.7402  -30.4311 H   0  0  0  0  0  0  0  0  0  0  0  0
   -4.5403   24.4331  -31.5004 H   0  0  0  0  0  0  0  0  0  0  0  0
   -5.8852   25.0465  -28.8450 H   0  0  0  0  0  0  0  0  0  0  0  0
   -6.2523   26.0228  -30.3074 H   0  0  0  0  0  0  0  0  0  0  0  0
   -6.5630   24.2536  -30.3074 H   0  0  0  0  0  0  0  0  0  0  0  0
   -2.1366   25.0587  -29.9396 H   0  0  0  0  0  0  0  0  0  0  0  0
   -2.3229   24.4363  -28.2615 H   0  0  0  0  0  0  0  0  0  0  0  0
   -0.9282   23.2414  -30.5969 H   0  0  0  0  0  0  0  0  0  0  0  0
   -0.7333   22.9314  -28.8171 H   0  0  0  0  0  0  0  0  0  0  0  0
   -3.1850   21.8830  -29.6470 H   0  0  0  0  0  0  0  0  0  0  0  0
   -1.9194   21.2314  -27.7426 H   0  0  0  0  0  0  0  0  0  0  0  0
   -2.2429   19.8391  -28.8306 H   0  0  0  0  0  0  0  0  0  0  0  0
   -0.6263   20.6222  -28.8306 H   0  0  0  0  0  0  0  0  0  0  0  0
   -1.2432   21.7805  -31.6912 H   0  0  0  0  0  0  0  0  0  0  0  0
   -1.4880   20.1291  -30.9862 H   0  0  0  0  0  0  0  0  0  0  0  0
   -2.5357   20.0420  -33.7959 H   0  0  0  0  0  0  0  0  0  0  0  0
   -5.1743   20.1561  -34.3712 H   0  0  0  0  0  0  0  0  0  0  0  0
   -6.4697   23.5001  -32.1232 H   0  0  0  0  0  0  0  0  0  0  0  0
   -8.8955   24.0031  -31.8656 H   0  0  0  0  0  0  0  0  0  0  0  0
  -10.5568   22.1465  -31.7740 H   0  0  0  0  0  0  0  0  0  0  0  0
   -9.7947   19.7803  -31.9335 H   0  0  0  0  0  0  0  0  0  0  0  0
  1  2  1  0
  2  3  1  0
  3  4  1  0
  4  5  1  0
  3  6  1  0
  6  7  1  0
  7  8  1  0
  8  9  1  0
  8 10  1  0
 10 11  1  0
 11 12  2  0
 12 13  1  0
 13 14  2  0
 14 15  1  0
 15 16  2  0
 16 17  1  0
 17 18  2  0
 18 19  1  0
 19 20  2  0
 20 21  1  0
 14 22  1  0
 22 11  1  0
 20 15  1  0
  1 23  1  0
  1 24  1  0
  1 25  1  0
  2 26  1  0
  2 27  1  0
  4 28  1  0
  4 29  1  0
  5 30  1  0
  5 31  1  0
  5 32  1  0
  6 33  1  0
  6 34  1  0
  7 35  1  0
  7 36  1  0
  8 37  1  1
  9 38  1  0
  9 39  1  0
  9 40  1  0
 10 41  1  0
 10 42  1  0
 12 43  1  0
 13 44  1  0
 16 45  1  0
 17 46  1  0
 18 47  1  0
 19 48  1  0
M  CHG  1   8   1
M  END
>  <UniqueID>  (35) 
34

>  <SMILES>  (35) 
CCN(CC)CC[N@H+](C)Cc1ccc(-c2ccccc2Cl)o1

>  <Energy>  (35) 
77.4555260865162

>  <Genealogy>  (35) 
CCN(CC)CC[NH+](C)Cc1ccc(-c2ccccc2Cl)o1 (protonated)
CCN(CC)CC[N@H+](C)Cc1ccc(-c2ccccc2Cl)o1 (chirality)
CCN(CC)CC[N@H+](C)Cc1ccc(-c2ccccc2Cl)o1 (3D coordinates assigned)
CCN(CC)CC[N@H+](C)Cc1ccc(-c2ccccc2Cl)o1 (optimized conformer: 77.4555260865162 kcal/mol)

>  <smiles>  (35) 
CCN(CC)CCN(C)Cc1ccc(-c2ccccc2Cl)o1

>  <score_type>  (35) 
oracle

>  <origin>  (35) 
adg

>  <m_score__min__energy>  (35) 
-5.7400000000000002

>  <m_primary>  (35) 
energy

$$$$
35:0
     RDKit          3D

 57 60  0  0  0  0  0  0  0  0999 V2000
    0.7140   17.6880  -29.2070 C   0  0  0  0  0  0  0  0  0  0  0  0
    0.2310   18.8840  -29.8120 O   0  0  0  0  0  0  0  0  0  0  0  0
   -0.2890   19.9770  -29.1040 C   0  0  0  0  0  0  0  0  0  0  0  0
   -0.4080   19.9800  -27.7050 C   0  0  0  0  0  0  0  0  0  0  0  0
   -0.9210   21.0960  -27.0460 C   0  0  0  0  0  0  0  0  0  0  0  0
   -1.3320   22.2310  -27.7630 C   0  0  0  0  0  0  0  0  0  0  0  0
   -1.8190   23.3990  -26.9930 C   0  0  0  0  0  0  0  0  0  0  0  0
   -3.1580   23.8140  -27.0950 C   0  0  0  0  0  0  0  0  0  0  0  0
   -3.6040   24.9360  -26.3900 C   0  0  0  0  0  0  0  0  0  0  0  0
   -2.7110   25.6700  -25.6050 C   0  0  0  0  0  0  0  0  0  0  0  0
   -1.3690   25.2890  -25.5320 C   0  0  0  0  0  0  0  0  0  0  0  0
   -0.9210   24.1610  -26.2270 C   0  0  0  0  0  0  0  0  0  0  0  0
   -1.2440   22.2270  -29.1810 C   0  0  0  0  0  0  0  0  0  0  0  0
   -1.7780   23.3570  -30.0460 C   0  0  0  0  0  0  0  0  0  0  0  0
   -3.3060   23.3130  -30.2390 C   0  0  1  0  0  0  0  0  0  0  0  0
   -3.8160   24.6500  -30.5470 N   0  0  0  0  0  0  0  0  0  0  0  0
   -5.1940   24.9740  -30.7690 C   0  0  0  0  0  0  0  0  0  0  0  0
   -6.0170   25.6780  -29.7330 C   0  0  0  0  0  0  0  0  0  0  0  0
   -5.7280   24.6490  -31.8630 O   0  0  0  0  0  0  0  0  0  0  0  0
   -3.7030   22.3280  -31.3110 C   0  0  0  0  0  0  0  0  0  0  0  0
   -4.9620   21.7170  -31.2840 C   0  0  0  0  0  0  0  0  0  0  0  0
   -5.3030   20.8150  -32.3040 C   0  0  0  0  0  0  0  0  0  0  0  0
   -6.6340   20.1540  -32.3120 C   0  0  0  0  0  0  0  0  0  0  0  0
   -7.8120   20.9230  -32.3380 C   0  0  0  0  0  0  0  0  0  0  0  0
   -9.0650   20.3030  -32.3550 C   0  0  0  0  0  0  0  0  0  0  0  0
   -9.1570   18.9100  -32.3400 C   0  0  0  0  0  0  0  0  0  0  0  0
   -7.9970   18.1350  -32.3080 C   0  0  0  0  0  0  0  0  0  0  0  0
   -6.7420   18.7500  -32.2930 C   0  0  0  0  0  0  0  0  0  0  0  0
   -4.3900   20.5440  -33.2830 N   0  0  0  0  0  0  0  0  0  0  0  0
   -3.1630   21.1300  -33.2790 C   0  0  0  0  0  0  0  0  0  0  0  0
   -2.8290   22.0090  -32.3020 N   0  0  0  0  0  0  0  0  0  0  0  0
   -0.7050   21.0980  -29.8260 C   0  0  0  0  0  0  0  0  0  0  0  0
    0.6734   17.7886  -28.1124 H   0  0  0  0  0  0  0  0  0  0  0  0
    0.0880   16.8397  -29.5208 H   0  0  0  0  0  0  0  0  0  0  0  0
    1.7536   17.5123  -29.5208 H   0  0  0  0  0  0  0  0  0  0  0  0
   -0.0951   19.0981  -27.1267 H   0  0  0  0  0  0  0  0  0  0  0  0
   -1.0050   21.0873  -25.9492 H   0  0  0  0  0  0  0  0  0  0  0  0
   -3.8580   23.2537  -27.7322 H   0  0  0  0  0  0  0  0  0  0  0  0
   -4.6589   25.2412  -26.4534 H   0  0  0  0  0  0  0  0  0  0  0  0
   -3.0647   26.5479  -25.0445 H   0  0  0  0  0  0  0  0  0  0  0  0
   -0.6634   25.8772  -24.9269 H   0  0  0  0  0  0  0  0  0  0  0  0
    0.1383   23.8694  -26.1737 H   0  0  0  0  0  0  0  0  0  0  0  0
   -1.5143   24.3136  -29.5712 H   0  0  0  0  0  0  0  0  0  0  0  0
   -1.3226   23.2461  -31.0411 H   0  0  0  0  0  0  0  0  0  0  0  0
   -3.7567   22.9702  -29.2959 H   0  0  0  0  0  0  0  0  0  0  0  0
   -5.6736   25.3842  -28.7301 H   0  0  0  0  0  0  0  0  0  0  0  0
   -5.9069   26.7657  -29.8543 H   0  0  0  0  0  0  0  0  0  0  0  0
   -7.0746   25.4007  -29.8543 H   0  0  0  0  0  0  0  0  0  0  0  0
   -5.6736   21.9404  -30.4755 H   0  0  0  0  0  0  0  0  0  0  0  0
   -7.7466   22.0210  -32.3450 H   0  0  0  0  0  0  0  0  0  0  0  0
   -9.9796   20.9136  -32.3802 H   0  0  0  0  0  0  0  0  0  0  0  0
  -10.1435   18.4236  -32.3534 H   0  0  0  0  0  0  0  0  0  0  0  0
   -8.0705   17.0375  -32.2945 H   0  0  0  0  0  0  0  0  0  0  0  0
   -5.8319   18.1328  -32.2662 H   0  0  0  0  0  0  0  0  0  0  0  0
   -4.6240   19.8940  -34.0660 H   0  0  0  0  0  0  0  0  0  0  0  0
   -2.4386   20.8901  -34.0713 H   0  0  0  0  0  0  0  0  0  0  0  0
   -0.6094   21.0985  -30.9218 H   0  0  0  0  0  0  0  0  0  0  0  0
  1  2  1  0
  2  3  1  0
  3  4  2  0
  4  5  1  0
  5  6  2  0
  6  7  1  0
  7  8  2  0
  8  9  1  0
  9 10  2  0
 10 11  1  0
 11 12  2  0
  6 13  1  0
 13 14  1  0
 14 15  1  0
 15 16  1  0
 16 17  1  0
 17 18  1  0
 17 19  2  0
 15 20  1  0
 20 21  2  0
 21 22  1  0
 22 23  1  0
 23 24  2  0
 24 25  1  0
 25 26  2  0
 26 27  1  0
 27 28  2  0
 22 29  2  0
 29 30  1  0
 30 31  2  0
 13 32  2  0
 32  3  1  0
 12  7  1  0
 31 20  1  0
 28 23  1  0
  1 33  1  0
  1 34  1  0
  1 35  1  0
  4 36  1  0
  5 37  1  0
  8 38  1  0
  9 39  1  0
 10 40  1  0
 11 41  1  0
 12 42  1  0
 14 43  1  0
 14 44  1  0
 15 45  1  1
 18 46  1  0
 18 47  1  0
 18 48  1  0
 21 49  1  0
 24 50  1  0
 25 51  1  0
 26 52  1  0
 27 53  1  0
 28 54  1  0
 29 55  1  0
 30 56  1  0
 32 57  1  0
M  CHG  2  16  -1  29   1
M  END
>  <UniqueID>  (36) 
35

>  <SMILES>  (36) 
COc1ccc(-c2ccccc2)c(C[C@@H]([N-]C(C)=O)c2cc(-c3ccccc3)[nH+]cn2)c1

>  <Energy>  (36) 
65.6004408139292

>  <Genealogy>  (36) 
COc1ccc(-c2ccccc2)c(CC([N-]C(C)=O)c2cc(-c3ccccc3)[nH+]cn2)c1 (protonated)
COc1ccc(-c2ccccc2)c(C[C@@H]([N-]C(C)=O)c2cc(-c3ccccc3)[nH+]cn2)c1 (chirality)
COc1ccc(-c2ccccc2)c(C[C@@H]([N-]C(C)=O)c2cc(-c3ccccc3)[nH+]cn2)c1 (3D coordinates assigned)
COc1ccc(-c2ccccc2)c(C[C@@H]([N-]C(C)=O)c2cc(-c3ccccc3)[nH+]cn2)c1 (optimized conformer: 65.6004408139292 kcal/mol)

>  <smiles>  (36) 
COc1ccc(-c2ccccc2)c(CC(NC(C)=O)c2cc(-c3ccccc3)ncn2)c1

>  <score_type>  (36) 
oracle

>  <origin>  (36) 
adg

>  <m_score__min__energy>  (36) 
-10.77

>  <m_primary>  (36) 
energy

$$$$
36:0
     RDKit          3D

 44 46  0  0  0  0  0  0  0  0999 V2000
   -1.2950   24.9450  -28.2830 C   0  0  0  0  0  0  0  0  0  0  0  0
   -2.7170   24.5140  -28.6240 C   0  0  0  0  0  0  0  0  0  0  0  0
   -3.2150   25.2800  -29.7050 O   0  0  0  0  0  0  0  0  0  0  0  0
   -4.3380   24.6510  -30.2840 C   0  0  0  0  0  0  0  0  0  0  0  0
   -4.3800   23.1930  -29.8370 C   0  0  0  0  0  0  0  0  0  0  0  0
   -5.5070   22.5070  -30.4620 N   0  0  0  0  0  0  0  0  0  0  0  0
   -5.4630   21.7830  -31.6010 C   0  0  0  0  0  0  0  0  0  0  0  0
   -6.7470   21.3490  -31.8670 C   0  0  0  0  0  0  0  0  0  0  0  0
   -7.5290   21.8740  -30.8760 C   0  0  0  0  0  0  0  0  0  0  0  0
   -6.7570   22.5670  -30.0210 N   0  0  0  0  0  0  0  0  0  0  0  0
   -8.9900   21.6060  -30.7430 C   0  0  0  0  0  0  0  0  0  0  0  0
   -9.5500   20.9590  -32.0330 C   0  0  0  0  0  0  0  0  0  0  0  0
   -8.6200   19.9990  -32.6870 N   0  0  0  0  0  0  0  0  0  0  0  0
   -8.6370   18.6240  -32.1420 C   0  0  0  0  0  0  0  0  0  0  0  0
   -7.4200   17.8100  -32.5060 C   0  0  0  0  0  0  0  0  0  0  0  0
   -6.4910   17.4270  -31.5270 C   0  0  0  0  0  0  0  0  0  0  0  0
   -5.3740   16.6780  -31.8980 C   0  0  0  0  0  0  0  0  0  0  0  0
   -5.1970   16.3070  -33.2310 C   0  0  0  0  0  0  0  0  0  0  0  0
   -6.1500   16.6870  -34.1770 C   0  0  0  0  0  0  0  0  0  0  0  0
   -7.2320   17.4170  -33.7980 N   0  0  0  0  0  0  0  0  0  0  0  0
   -7.2770   20.5420  -33.0040 C   0  0  0  0  0  0  0  0  0  0  0  0
   -1.1750   24.9814  -27.1902 H   0  0  0  0  0  0  0  0  0  0  0  0
   -0.5815   24.2228  -28.7064 H   0  0  0  0  0  0  0  0  0  0  0  0
   -1.1025   25.9418  -28.7064 H   0  0  0  0  0  0  0  0  0  0  0  0
   -2.7170   23.4499  -28.9026 H   0  0  0  0  0  0  0  0  0  0  0  0
   -3.3601   24.6729  -27.7458 H   0  0  0  0  0  0  0  0  0  0  0  0
   -5.2555   25.1627  -29.9579 H   0  0  0  0  0  0  0  0  0  0  0  0
   -4.2656   24.7002  -31.3805 H   0  0  0  0  0  0  0  0  0  0  0  0
   -3.4437   22.6957  -30.1305 H   0  0  0  0  0  0  0  0  0  0  0  0
   -4.4981   23.1556  -28.7440 H   0  0  0  0  0  0  0  0  0  0  0  0
   -4.5681   21.5766  -32.2064 H   0  0  0  0  0  0  0  0  0  0  0  0
   -7.0710   23.0680  -29.1600 H   0  0  0  0  0  0  0  0  0  0  0  0
   -9.1559   20.9239  -29.8961 H   0  0  0  0  0  0  0  0  0  0  0  0
   -9.5095   22.5606  -30.5732 H   0  0  0  0  0  0  0  0  0  0  0  0
  -10.4753   20.4224  -31.7762 H   0  0  0  0  0  0  0  0  0  0  0  0
   -9.7164   21.7764  -32.7501 H   0  0  0  0  0  0  0  0  0  0  0  0
   -8.6974   18.6862  -31.0454 H   0  0  0  0  0  0  0  0  0  0  0  0
   -9.5067   18.1151  -32.5832 H   0  0  0  0  0  0  0  0  0  0  0  0
   -6.6420   17.7147  -30.4761 H   0  0  0  0  0  0  0  0  0  0  0  0
   -4.6340   16.3804  -31.1405 H   0  0  0  0  0  0  0  0  0  0  0  0
   -4.3161   15.7215  -33.5331 H   0  0  0  0  0  0  0  0  0  0  0  0
   -6.0254   16.3955  -35.2303 H   0  0  0  0  0  0  0  0  0  0  0  0
   -6.5892   19.7073  -33.2046 H   0  0  0  0  0  0  0  0  0  0  0  0
   -7.3604   21.1920  -33.8875 H   0  0  0  0  0  0  0  0  0  0  0  0
  1  2  1  0
  2  3  1  0
  3  4  1  0
  4  5  1  0
  5  6  1  0
  6  7  1  0
  7  8  2  0
  8  9  1  0
  9 10  2  0
  9 11  1  0
 11 12  1  0
 12 13  1  0
 13 14  1  0
 14 15  1  0
 15 16  2  0
 16 17  1  0
 17 18  2  0
 18 19  1  0
 19 20  2  0
 13 21  1  0
 10  6  1  0
 20 15  1  0
 21  8  1  0
  1 22  1  0
  1 23  1  0
  1 24  1  0
  2 25  1  0
  2 26  1  0
  4 27  1  0
  4 28  1  0
  5 29  1  0
  5 30  1  0
  7 31  1  0
 10 32  1  0
 11 33  1  0
 11 34  1  0
 12 35  1  0
 12 36  1  0
 14 37  1  0
 14 38  1  0
 16 39  1  0
 17 40  1  0
 18 41  1  0
 19 42  1  0
 21 43  1  0
 21 44  1  0
M  CHG  1  10   1
M  END
>  <UniqueID>  (37) 
36

>  <SMILES>  (37) 
CCOCCn1cc2c([nH+]1)CCN(Cc1ccccn1)C2

>  <Energy>  (37) 
82.59049175097427

>  <Genealogy>  (37) 
CCOCCn1cc2c([nH+]1)CCN(Cc1ccccn1)C2 (protonated)
CCOCCn1cc2c([nH+]1)CCN(Cc1ccccn1)C2 (3D coordinates assigned)
CCOCCn1cc2c([nH+]1)CCN(Cc1ccccn1)C2 (nonaromatic ring conformer: 82.59049175097427 kcal/mol)

>  <smiles>  (37) 
CCOCCn1cc2c(n1)CCN(Cc1ccccn1)C2

>  <score_type>  (37) 
oracle

>  <origin>  (37) 
adg

>  <m_score__min__energy>  (37) 
-7.5599999999999996

>  <m_primary>  (37) 
energy

$$$$
37:0
     RDKit          3D

 49 52  0  0  0  0  0  0  0  0999 V2000
   -5.4100   24.8960  -30.0900 C   0  0  0  0  0  0  0  0  0  0  0  0
   -4.0780   24.6240  -30.5160 O   0  0  0  0  0  0  0  0  0  0  0  0
   -3.6520   23.3990  -31.0500 C   0  0  0  0  0  0  0  0  0  0  0  0
   -4.5340   22.6890  -31.8710 C   0  0  0  0  0  0  0  0  0  0  0  0
   -4.1610   21.4620  -32.4210 C   0  0  0  0  0  0  0  0  0  0  0  0
   -2.8970   20.9100  -32.1500 C   0  0  0  0  0  0  0  0  0  0  0  0
   -1.9940   21.6410  -31.3500 C   0  0  0  0  0  0  0  0  0  0  0  0
   -2.3750   22.8660  -30.7910 C   0  0  0  0  0  0  0  0  0  0  0  0
   -0.7130   21.1440  -31.0920 O   0  0  0  0  0  0  0  0  0  0  0  0
   -0.1820   20.0270  -31.7980 C   0  0  0  0  0  0  0  0  0  0  0  0
   -1.2690   18.9750  -32.0160 C   0  0  0  0  0  0  0  0  0  0  0  0
   -2.4730   19.5890  -32.7750 C   0  0  1  0  0  0  0  0  0  0  0  0
   -3.6240   18.6610  -32.8080 N   0  0  0  0  0  0  0  0  0  0  0  0
   -3.7590   17.9140  -34.0690 C   0  0  0  0  0  0  0  0  0  0  0  0
   -4.8390   16.8680  -33.9900 C   0  0  0  0  0  0  0  0  0  0  0  0
   -4.7190   15.5610  -34.4160 C   0  0  0  0  0  0  0  0  0  0  0  0
   -5.9130   14.9610  -34.2730 N   0  0  0  0  0  0  0  0  0  0  0  0
   -6.2070   13.5650  -34.5690 C   0  0  0  0  0  0  0  0  0  0  0  0
   -6.7920   15.8080  -33.7630 N   0  0  0  0  0  0  0  0  0  0  0  0
   -6.1640   16.9870  -33.5730 C   0  0  0  0  0  0  0  0  0  0  0  0
   -6.8550   18.1910  -33.0680 C   0  0  0  0  0  0  0  0  0  0  0  0
   -6.5440   19.4730  -33.5530 C   0  0  0  0  0  0  0  0  0  0  0  0
   -7.2290   20.5940  -33.0750 C   0  0  0  0  0  0  0  0  0  0  0  0
   -8.2210   20.4480  -32.1000 C   0  0  0  0  0  0  0  0  0  0  0  0
   -9.1650   21.9800  -31.4610 Br  0  0  0  0  0  0  0  0  0  0  0  0
   -8.5160   19.1810  -31.5930 C   0  0  0  0  0  0  0  0  0  0  0  0
   -7.8330   18.0580  -32.0670 C   0  0  0  0  0  0  0  0  0  0  0  0
   -5.4490   24.9040  -28.9907 H   0  0  0  0  0  0  0  0  0  0  0  0
   -5.7250   25.8770  -30.4752 H   0  0  0  0  0  0  0  0  0  0  0  0
   -6.0844   24.1170  -30.4752 H   0  0  0  0  0  0  0  0  0  0  0  0
   -5.5309   23.1016  -32.0851 H   0  0  0  0  0  0  0  0  0  0  0  0
   -4.8630   20.9215  -33.0730 H   0  0  0  0  0  0  0  0  0  0  0  0
   -1.6732   23.4152  -30.1460 H   0  0  0  0  0  0  0  0  0  0  0  0
    0.2002   20.3621  -32.7735 H   0  0  0  0  0  0  0  0  0  0  0  0
    0.6332   19.5837  -31.2073 H   0  0  0  0  0  0  0  0  0  0  0  0
   -0.8552   18.1435  -32.6054 H   0  0  0  0  0  0  0  0  0  0  0  0
   -1.6135   18.6107  -31.0369 H   0  0  0  0  0  0  0  0  0  0  0  0
   -2.1433   19.7720  -33.8083 H   0  0  0  0  0  0  0  0  0  0  0  0
   -3.5380   17.9720  -32.0240 H   0  0  0  0  0  0  0  0  0  0  0  0
   -4.0061   18.6199  -34.8756 H   0  0  0  0  0  0  0  0  0  0  0  0
   -2.8047   17.4039  -34.2665 H   0  0  0  0  0  0  0  0  0  0  0  0
   -3.8038   15.0912  -34.8055 H   0  0  0  0  0  0  0  0  0  0  0  0
   -6.3244   13.0075  -33.6280 H   0  0  0  0  0  0  0  0  0  0  0  0
   -7.1381   13.5019  -35.1512 H   0  0  0  0  0  0  0  0  0  0  0  0
   -5.3804   13.1317  -35.1512 H   0  0  0  0  0  0  0  0  0  0  0  0
   -5.7577   19.5949  -34.3125 H   0  0  0  0  0  0  0  0  0  0  0  0
   -6.9872   21.5931  -33.4666 H   0  0  0  0  0  0  0  0  0  0  0  0
   -9.2883   19.0666  -30.8182 H   0  0  0  0  0  0  0  0  0  0  0  0
   -8.0619   17.0643  -31.6546 H   0  0  0  0  0  0  0  0  0  0  0  0
  1  2  1  0
  2  3  1  0
  3  4  2  0
  4  5  1  0
  5  6  2  0
  6  7  1  0
  7  8  2  0
  7  9  1  0
  9 10  1  0
 10 11  1  0
 11 12  1  0
 12 13  1  0
 13 14  1  0
 14 15  1  0
 15 16  2  0
 16 17  1  0
 17 18  1  0
 17 19  1  0
 19 20  2  0
 20 21  1  0
 21 22  2  0
 22 23  1  0
 23 24  2  0
 24 25  1  0
 24 26  1  0
 26 27  2  0
  8  3  1  0
 20 15  1  0
 27 21  1  0
 12  6  1  0
  1 28  1  0
  1 29  1  0
  1 30  1  0
  4 31  1  0
  5 32  1  0
  8 33  1  0
 10 34  1  0
 10 35  1  0
 11 36  1  0
 11 37  1  0
 12 38  1  6
 13 39  1  0
 14 40  1  0
 14 41  1  0
 16 42  1  0
 18 43  1  0
 18 44  1  0
 18 45  1  0
 22 46  1  0
 23 47  1  0
 26 48  1  0
 27 49  1  0
M  END
>  <UniqueID>  (38) 
37

>  <SMILES>  (38) 
COc1ccc2c(c1)OCC[C@H]2NCc1cn(C)nc1-c1ccc(Br)cc1

>  <Energy>  (38) 
84.264223876869

>  <Genealogy>  (38) 
COc1ccc2c(c1)OCC[C@H]2NCc1cn(C)nc1-c1ccc(Br)cc1 (chirality)
COc1ccc2c(c1)OCC[C@H]2NCc1cn(C)nc1-c1ccc(Br)cc1 (3D coordinates assigned)
COc1ccc2c(c1)OCC[C@H]2NCc1cn(C)nc1-c1ccc(Br)cc1 (nonaromatic ring conformer: 84.264223876869 kcal/mol)

>  <smiles>  (38) 
COc1ccc2c(c1)OCCC2NCc1cn(C)nc1-c1ccc(Br)cc1

>  <score_type>  (38) 
oracle

>  <origin>  (38) 
adg

>  <m_score__min__energy>  (38) 
-9.2899999999999991

>  <m_primary>  (38) 
energy

$$$$
38:0
     RDKit          3D

 58 61  0  0  0  0  0  0  0  0999 V2000
    0.6370   19.7380  -31.8060 C   0  0  0  0  0  0  0  0  0  0  0  0
    0.6280   20.3030  -30.4980 O   0  0  0  0  0  0  0  0  0  0  0  0
    0.1360   19.6540  -29.3550 C   0  0  0  0  0  0  0  0  0  0  0  0
    0.6080   18.3860  -28.9580 C   0  0  0  0  0  0  0  0  0  0  0  0
    0.0780   17.7560  -27.8290 C   0  0  0  0  0  0  0  0  0  0  0  0
   -0.9240   18.3790  -27.0840 C   0  0  0  0  0  0  0  0  0  0  0  0
   -1.3970   19.6360  -27.4650 C   0  0  0  0  0  0  0  0  0  0  0  0
   -0.8700   20.2840  -28.5930 C   0  0  0  0  0  0  0  0  0  0  0  0
   -1.3560   21.5880  -28.9490 N   0  0  0  0  0  0  0  0  0  0  0  0
   -1.4420   22.6420  -27.9270 C   0  0  0  0  0  0  0  0  0  0  0  0
   -2.4670   23.7060  -28.3290 C   0  0  0  0  0  0  0  0  0  0  0  0
   -3.5820   23.0370  -29.0190 N   0  0  0  0  0  0  0  0  0  0  0  0
   -4.8510   23.8000  -29.0060 C   0  0  0  0  0  0  0  0  0  0  0  0
   -4.8530   25.0730  -29.8910 C   0  0  1  0  0  0  0  0  0  0  0  0
   -3.5630   25.2940  -30.3990 O   0  0  0  0  0  0  0  0  0  0  0  0
   -5.8310   24.9010  -31.0670 C   0  0  0  0  0  0  0  0  0  0  0  0
   -5.3350   23.9510  -32.0090 O   0  0  0  0  0  0  0  0  0  0  0  0
   -5.8450   22.6570  -32.2100 C   0  0  0  0  0  0  0  0  0  0  0  0
   -5.0590   21.5920  -32.7180 C   0  0  0  0  0  0  0  0  0  0  0  0
   -5.6200   20.3190  -32.8980 C   0  0  0  0  0  0  0  0  0  0  0  0
   -6.9620   20.1220  -32.5710 C   0  0  0  0  0  0  0  0  0  0  0  0
   -7.7300   21.1480  -32.0840 C   0  0  0  0  0  0  0  0  0  0  0  0
   -7.1950   22.4230  -31.8960 C   0  0  0  0  0  0  0  0  0  0  0  0
   -9.1210   20.7220  -31.8130 C   0  0  0  0  0  0  0  0  0  0  0  0
   -9.1370   19.2280  -32.1910 C   0  0  0  0  0  0  0  0  0  0  0  0
   -7.7280   18.8620  -32.6960 C   0  0  0  0  0  0  0  0  0  0  0  0
   -3.1880   22.5300  -30.3490 C   0  0  0  0  0  0  0  0  0  0  0  0
   -1.7960   21.8610  -30.3240 C   0  0  0  0  0  0  0  0  0  0  0  0
    0.6545   18.6407  -31.7313 H   0  0  0  0  0  0  0  0  0  0  0  0
   -0.2663   20.0543  -32.3482 H   0  0  0  0  0  0  0  0  0  0  0  0
    1.5298   20.0829  -32.3482 H   0  0  0  0  0  0  0  0  0  0  0  0
    1.3982   17.8898  -29.5406 H   0  0  0  0  0  0  0  0  0  0  0  0
    0.4516   16.7665  -27.5268 H   0  0  0  0  0  0  0  0  0  0  0  0
   -1.3410   17.8799  -26.1969 H   0  0  0  0  0  0  0  0  0  0  0  0
   -2.1889   20.1224  -26.8766 H   0  0  0  0  0  0  0  0  0  0  0  0
   -1.7451   22.1925  -26.9699 H   0  0  0  0  0  0  0  0  0  0  0  0
   -0.4563   23.1205  -27.8299 H   0  0  0  0  0  0  0  0  0  0  0  0
   -2.8403   24.2206  -27.4313 H   0  0  0  0  0  0  0  0  0  0  0  0
   -2.0013   24.4486  -28.9935 H   0  0  0  0  0  0  0  0  0  0  0  0
   -5.6533   23.1359  -29.3599 H   0  0  0  0  0  0  0  0  0  0  0  0
   -4.9961   24.1422  -27.9707 H   0  0  0  0  0  0  0  0  0  0  0  0
   -5.1677   25.9301  -29.2775 H   0  0  0  0  0  0  0  0  0  0  0  0
   -3.5500   24.9400  -31.3260 H   0  0  0  0  0  0  0  0  0  0  0  0
   -6.8003   24.5525  -30.6809 H   0  0  0  0  0  0  0  0  0  0  0  0
   -5.9444   25.8708  -31.5735 H   0  0  0  0  0  0  0  0  0  0  0  0
   -4.0029   21.7650  -32.9725 H   0  0  0  0  0  0  0  0  0  0  0  0
   -5.0123   19.4902  -33.2902 H   0  0  0  0  0  0  0  0  0  0  0  0
   -7.8236   23.2370  -31.5059 H   0  0  0  0  0  0  0  0  0  0  0  0
   -9.3713   20.8587  -30.7506 H   0  0  0  0  0  0  0  0  0  0  0  0
   -9.8599   21.3085  -32.3786 H   0  0  0  0  0  0  0  0  0  0  0  0
   -9.3894   18.6204  -31.3095 H   0  0  0  0  0  0  0  0  0  0  0  0
   -9.8897   19.0337  -32.9693 H   0  0  0  0  0  0  0  0  0  0  0  0
   -7.2833   18.0712  -32.0740 H   0  0  0  0  0  0  0  0  0  0  0  0
   -7.7358   18.4726  -33.7247 H   0  0  0  0  0  0  0  0  0  0  0  0
   -3.9314   21.7907  -30.6818 H   0  0  0  0  0  0  0  0  0  0  0  0
   -3.1415   23.3856  -31.0387 H   0  0  0  0  0  0  0  0  0  0  0  0
   -1.8450   20.9125  -30.8789 H   0  0  0  0  0  0  0  0  0  0  0  0
   -1.0736   22.5485  -30.7882 H   0  0  0  0  0  0  0  0  0  0  0  0
  1  2  1  0
  2  3  1  0
  3  4  2  0
  4  5  1  0
  5  6  2  0
  6  7  1  0
  7  8  2  0
  8  9  1  0
  9 10  1  0
 10 11  1  0
 11 12  1  0
 12 13  1  0
 13 14  1  0
 14 15  1  0
 14 16  1  0
 16 17  1  0
 17 18  1  0
 18 19  2  0
 19 20  1  0
 20 21  2  0
 21 22  1  0
 22 23  2  0
 22 24  1  0
 24 25  1  0
 25 26  1  0
 12 27  1  0
 27 28  1  0
  8  3  1  0
 28  9  1  0
 23 18  1  0
 26 21  1  0
  1 29  1  0
  1 30  1  0
  1 31  1  0
  4 32  1  0
  5 33  1  0
  6 34  1  0
  7 35  1  0
 10 36  1  0
 10 37  1  0
 11 38  1  0
 11 39  1  0
 13 40  1  0
 13 41  1  0
 14 42  1  1
 15 43  1  0
 16 44  1  0
 16 45  1  0
 19 46  1  0
 20 47  1  0
 23 48  1  0
 24 49  1  0
 24 50  1  0
 25 51  1  0
 25 52  1  0
 26 53  1  0
 26 54  1  0
 27 55  1  0
 27 56  1  0
 28 57  1  0
 28 58  1  0
M  END
>  <UniqueID>  (39) 
38

>  <SMILES>  (39) 
COc1ccccc1N1CCN(C[C@@H](O)COc2ccc3c(c2)CCC3)CC1

>  <Energy>  (39) 
80.5423119440855

>  <Genealogy>  (39) 
COc1ccccc1N1CCN(C[C@@H](O)COc2ccc3c(c2)CCC3)CC1 (chirality)
COc1ccccc1N1CCN(C[C@@H](O)COc2ccc3c(c2)CCC3)CC1 (3D coordinates assigned)
COc1ccccc1N1CCN(C[C@@H](O)COc2ccc3c(c2)CCC3)CC1 (nonaromatic ring conformer: 80.5423119440855 kcal/mol)

>  <smiles>  (39) 
COc1ccccc1N1CCN(CC(O)COc2ccc3c(c2)CCC3)CC1

>  <score_type>  (39) 
oracle

>  <origin>  (39) 
adg

>  <m_score__min__energy>  (39) 
-9.6099999999999994

>  <m_primary>  (39) 
energy

$$$$
39:0
     RDKit          3D

 35 36  0  0  0  0  0  0  0  0999 V2000
   -6.0810   18.6940  -34.3960 C   0  0  0  0  0  0  0  0  0  0  0  0
   -6.9730   19.4550  -33.4920 N   0  0  1  0  0  0  0  0  0  0  0  0
   -7.2800   18.6080  -32.3010 C   0  0  0  0  0  0  0  0  0  0  0  0
   -8.7790   18.6200  -31.9550 C   0  0  0  0  0  0  0  0  0  0  0  0
   -9.4770   19.4380  -32.8540 O   0  0  0  0  0  0  0  0  0  0  0  0
   -6.3990   20.7830  -33.0800 C   0  0  1  0  0  0  0  0  0  0  0  0
   -7.4010   21.6770  -32.3010 C   0  0  0  0  0  0  0  0  0  0  0  0
   -6.8100   23.0620  -32.0230 C   0  0  0  0  0  0  0  0  0  0  0  0
   -5.4240   23.0040  -31.4360 C   0  0  0  0  0  0  0  0  0  0  0  0
   -4.8980   24.1550  -30.8260 C   0  0  0  0  0  0  0  0  0  0  0  0
   -3.5920   24.1580  -30.3280 C   0  0  0  0  0  0  0  0  0  0  0  0
   -3.0840   25.2990  -29.7180 O   0  0  0  0  0  0  0  0  0  0  0  0
   -2.7990   23.0160  -30.4430 C   0  0  0  0  0  0  0  0  0  0  0  0
   -3.3070   21.8700  -31.0610 C   0  0  0  0  0  0  0  0  0  0  0  0
   -4.6130   21.8590  -31.5810 C   0  0  0  0  0  0  0  0  0  0  0  0
   -5.1510   20.5790  -32.1730 C   0  0  0  0  0  0  0  0  0  0  0  0
   -5.3784   18.0945  -33.7986 H   0  0  0  0  0  0  0  0  0  0  0  0
   -6.6839   18.0278  -35.0305 H   0  0  0  0  0  0  0  0  0  0  0  0
   -5.5180   19.3943  -35.0305 H   0  0  0  0  0  0  0  0  0  0  0  0
   -7.8550   19.6360  -34.0290 H   0  0  0  0  0  0  0  0  0  0  0  0
   -6.9728   17.5732  -32.5127 H   0  0  0  0  0  0  0  0  0  0  0  0
   -6.7300   19.0189  -31.4415 H   0  0  0  0  0  0  0  0  0  0  0  0
   -9.1738   17.5950  -32.0146 H   0  0  0  0  0  0  0  0  0  0  0  0
   -8.9089   19.0140  -30.9362 H   0  0  0  0  0  0  0  0  0  0  0  0
   -9.4600   18.9750  -33.7320 H   0  0  0  0  0  0  0  0  0  0  0  0
   -6.1380   21.2910  -34.0201 H   0  0  0  0  0  0  0  0  0  0  0  0
   -8.3179   21.7917  -32.8977 H   0  0  0  0  0  0  0  0  0  0  0  0
   -7.6218   21.1937  -31.3379 H   0  0  0  0  0  0  0  0  0  0  0  0
   -6.7666   23.6209  -32.9694 H   0  0  0  0  0  0  0  0  0  0  0  0
   -7.4596   23.5545  -31.2844 H   0  0  0  0  0  0  0  0  0  0  0  0
   -5.5179   25.0596  -30.7397 H   0  0  0  0  0  0  0  0  0  0  0  0
   -1.7728   23.0175  -30.0469 H   0  0  0  0  0  0  0  0  0  0  0  0
   -2.6801   20.9697  -31.1411 H   0  0  0  0  0  0  0  0  0  0  0  0
   -4.3564   20.1146  -32.7755 H   0  0  0  0  0  0  0  0  0  0  0  0
   -5.4664   19.9444  -31.3317 H   0  0  0  0  0  0  0  0  0  0  0  0
  1  2  1  0
  2  3  1  0
  3  4  1  0
  4  5  1  0
  2  6  1  0
  6  7  1  0
  7  8  1  0
  8  9  1  0
  9 10  2  0
 10 11  1  0
 11 12  1  0
 11 13  2  0
 13 14  1  0
 14 15  2  0
 15 16  1  0
 16  6  1  0
 15  9  1  0
  1 17  1  0
  1 18  1  0
  1 19  1  0
  2 20  1  6
  3 21  1  0
  3 22  1  0
  4 23  1  0
  4 24  1  0
  5 25  1  0
  6 26  1  6
  7 27  1  0
  7 28  1  0
  8 29  1  0
  8 30  1  0
 10 31  1  0
 13 32  1  0
 14 33  1  0
 16 34  1  0
 16 35  1  0
M  CHG  2   2   1  12  -1
M  END
>  <UniqueID>  (40) 
39

>  <SMILES>  (40) 
C[N@@H+](CCO)[C@H]1CCc2cc([O-])ccc2C1

>  <Energy>  (40) 
44.06558317346587

>  <Genealogy>  (40) 
C[NH+](CCO)C1CCc2cc([O-])ccc2C1 (protonated)
C[N@@H+](CCO)[C@H]1CCc2cc([O-])ccc2C1 (chirality)
C[N@@H+](CCO)[C@H]1CCc2cc([O-])ccc2C1 (3D coordinates assigned)
C[N@@H+](CCO)[C@H]1CCc2cc([O-])ccc2C1 (nonaromatic ring conformer: 44.06558317346587 kcal/mol)

>  <smiles>  (40) 
CN(CCO)C1CCc2cc(O)ccc2C1

>  <score_type>  (40) 
oracle

>  <origin>  (40) 
adg

>  <m_score__min__energy>  (40) 
-9.3100000000000005

>  <m_primary>  (40) 
energy

$$$$
40:0
     RDKit          3D

 56 57  0  0  0  0  0  0  0  0999 V2000
   -5.3830   26.0570  -30.4600 C   0  0  0  0  0  0  0  0  0  0  0  0
   -5.1070   24.6840  -30.9110 N   0  0  0  0  0  0  0  0  0  0  0  0
   -4.1150   24.0610  -30.0180 C   0  0  0  0  0  0  0  0  0  0  0  0
   -6.3570   23.8960  -30.9590 C   0  0  0  0  0  0  0  0  0  0  0  0
   -6.5170   23.1810  -32.3100 C   0  0  0  0  0  0  0  0  0  0  0  0
   -5.9950   21.8080  -32.2500 N   0  0  0  0  0  0  0  0  0  0  0  0
   -4.5740   21.5690  -32.2830 C   0  0  0  0  0  0  0  0  0  0  0  0
   -3.9160   21.8180  -33.3280 O   0  0  0  0  0  0  0  0  0  0  0  0
   -3.8550   21.0090  -31.0910 C   0  0  0  0  0  0  0  0  0  0  0  0
   -2.9310   20.0320  -31.5160 O   0  0  0  0  0  0  0  0  0  0  0  0
   -1.6530   20.6180  -31.6830 C   0  0  0  0  0  0  0  0  0  0  0  0
   -1.2060   20.4740  -33.1450 C   0  0  0  0  0  0  0  0  0  0  0  0
   -2.3200   20.0910  -34.0420 N   0  0  0  0  0  0  0  0  0  0  0  0
   -2.2450   18.6940  -34.5060 C   0  0  0  0  0  0  0  0  0  0  0  0
   -3.5270   17.9430  -34.2470 C   0  0  0  0  0  0  0  0  0  0  0  0
   -4.7570   18.4860  -34.6590 C   0  0  0  0  0  0  0  0  0  0  0  0
   -5.9440   17.7770  -34.4540 C   0  0  0  0  0  0  0  0  0  0  0  0
   -5.9100   16.5210  -33.8410 C   0  0  0  0  0  0  0  0  0  0  0  0
   -4.6920   15.9770  -33.4240 C   0  0  0  0  0  0  0  0  0  0  0  0
   -3.5040   16.6850  -33.6230 C   0  0  0  0  0  0  0  0  0  0  0  0
   -6.9140   20.7170  -32.0840 C   0  0  0  0  0  0  0  0  0  0  0  0
   -6.4490   19.4520  -31.6990 C   0  0  0  0  0  0  0  0  0  0  0  0
   -7.3430   18.3830  -31.5740 C   0  0  0  0  0  0  0  0  0  0  0  0
   -8.7020   18.5720  -31.8420 C   0  0  0  0  0  0  0  0  0  0  0  0
   -9.1700   19.8280  -32.2360 C   0  0  0  0  0  0  0  0  0  0  0  0
   -8.2810   20.9020  -32.3490 C   0  0  0  0  0  0  0  0  0  0  0  0
   -5.3891   26.0875  -29.3604 H   0  0  0  0  0  0  0  0  0  0  0  0
   -4.6026   26.7320  -30.8412 H   0  0  0  0  0  0  0  0  0  0  0  0
   -6.3636   26.3780  -30.8412 H   0  0  0  0  0  0  0  0  0  0  0  0
   -4.4005   24.2403  -28.9709 H   0  0  0  0  0  0  0  0  0  0  0  0
   -4.0795   22.9781  -30.2081 H   0  0  0  0  0  0  0  0  0  0  0  0
   -3.1242   24.4993  -30.2081 H   0  0  0  0  0  0  0  0  0  0  0  0
   -6.3373   23.1442  -30.1562 H   0  0  0  0  0  0  0  0  0  0  0  0
   -7.2054   24.5839  -30.8285 H   0  0  0  0  0  0  0  0  0  0  0  0
   -7.5843   23.1479  -32.5742 H   0  0  0  0  0  0  0  0  0  0  0  0
   -5.9468   23.7376  -33.0683 H   0  0  0  0  0  0  0  0  0  0  0  0
   -3.3204   21.8181  -30.5717 H   0  0  0  0  0  0  0  0  0  0  0  0
   -4.5831   20.5515  -30.4050 H   0  0  0  0  0  0  0  0  0  0  0  0
   -1.7023   21.6847  -31.4188 H   0  0  0  0  0  0  0  0  0  0  0  0
   -0.9300   20.1090  -31.0287 H   0  0  0  0  0  0  0  0  0  0  0  0
   -0.7940   21.4358  -33.4846 H   0  0  0  0  0  0  0  0  0  0  0  0
   -0.4519   19.6743  -33.1874 H   0  0  0  0  0  0  0  0  0  0  0  0
   -2.3800   20.7290  -34.8670 H   0  0  0  0  0  0  0  0  0  0  0  0
   -3.2140   20.1940  -33.5080 H   0  0  0  0  0  0  0  0  0  0  0  0
   -2.0429   18.6893  -35.5873 H   0  0  0  0  0  0  0  0  0  0  0  0
   -1.4395   18.1936  -33.9485 H   0  0  0  0  0  0  0  0  0  0  0  0
   -4.7851   19.4726  -35.1445 H   0  0  0  0  0  0  0  0  0  0  0  0
   -6.9043   18.2070  -34.7748 H   0  0  0  0  0  0  0  0  0  0  0  0
   -6.8435   15.9599  -33.6866 H   0  0  0  0  0  0  0  0  0  0  0  0
   -4.6686   14.9902  -32.9385 H   0  0  0  0  0  0  0  0  0  0  0  0
   -2.5476   16.2557  -33.2899 H   0  0  0  0  0  0  0  0  0  0  0  0
   -5.3790   19.2994  -31.4947 H   0  0  0  0  0  0  0  0  0  0  0  0
   -6.9763   17.3931  -31.2646 H   0  0  0  0  0  0  0  0  0  0  0  0
   -9.4037   17.7307  -31.7425 H   0  0  0  0  0  0  0  0  0  0  0  0
  -10.2378   19.9724  -32.4574 H   0  0  0  0  0  0  0  0  0  0  0  0
   -8.6532   21.8936  -32.6460 H   0  0  0  0  0  0  0  0  0  0  0  0
  1  2  1  0
  2  3  1  0
  2  4  1  0
  4  5  1  0
  5  6  1  0
  6  7  1  0
  7  8  2  0
  7  9  1  0
  9 10  1  0
 10 11  1  0
 11 12  1  0
 12 13  1  0
 13 14  1  0
 14 15  1  0
 15 16  2  0
 16 17  1  0
 17 18  2  0
 18 19  1  0
 19 20  2  0
  6 21  1  0
 21 22  2  0
 22 23  1  0
 23 24  2  0
 24 25  1  0
 25 26  2  0
 20 15  1  0
 26 21  1  0
  1 27  1  0
  1 28  1  0
  1 29  1  0
  3 30  1  0
  3 31  1  0
  3 32  1  0
  4 33  1  0
  4 34  1  0
  5 35  1  0
  5 36  1  0
  9 37  1  0
  9 38  1  0
 11 39  1  0
 11 40  1  0
 12 41  1  0
 12 42  1  0
 13 43  1  0
 13 44  1  0
 14 45  1  0
 14 46  1  0
 16 47  1  0
 17 48  1  0
 18 49  1  0
 19 50  1  0
 20 51  1  0
 22 52  1  0
 23 53  1  0
 24 54  1  0
 25 55  1  0
 26 56  1  0
M  CHG  1  13   1
M  END
>  <UniqueID>  (41) 
40

>  <SMILES>  (41) 
CN(C)CCN(C(=O)COCC[NH2+]Cc1ccccc1)c1ccccc1

>  <Energy>  (41) 
56.30328879894867

>  <Genealogy>  (41) 
CN(C)CCN(C(=O)COCC[NH2+]Cc1ccccc1)c1ccccc1 (protonated)
CN(C)CCN(C(=O)COCC[NH2+]Cc1ccccc1)c1ccccc1 (3D coordinates assigned)
CN(C)CCN(C(=O)COCC[NH2+]Cc1ccccc1)c1ccccc1 (optimized conformer: 56.30328879894867 kcal/mol)

>  <smiles>  (41) 
CN(C)CCN(C(=O)COCCNCc1ccccc1)c1ccccc1

>  <score_type>  (41) 
oracle

>  <origin>  (41) 
adg

>  <m_score__min__energy>  (41) 
-6.9800000000000004

>  <m_primary>  (41) 
energy

$$$$
41:0
     RDKit          3D

 28 30  0  0  0  0  0  0  0  0999 V2000
   -0.9104   25.3222  -27.1177 H   0  0  0  0  0  0  0  0  0  0  0  0
   -1.7170   25.0940  -27.8300 C   0  0  0  0  0  0  0  0  0  0  0  0
   -1.6710   25.2910  -29.1290 O   0  0  0  0  0  0  0  0  0  0  0  0
   -2.7780   24.9220  -29.7080 N   0  0  0  0  0  0  0  0  0  0  0  0
   -3.5800   24.4650  -28.7320 C   0  0  0  0  0  0  0  0  0  0  0  0
   -4.7770   24.0160  -28.9580 N   0  0  0  0  0  0  0  0  0  0  0  0
   -5.7040   24.3740  -30.3820 S   0  0  0  0  0  0  0  0  0  0  0  0
   -7.0300   24.9500  -29.9750 O   0  0  0  0  0  0  0  0  0  0  0  0
   -4.9620   25.3880  -31.2080 O   0  0  0  0  0  0  0  0  0  0  0  0
   -5.9810   22.9040  -31.3100 C   0  0  0  0  0  0  0  0  0  0  0  0
   -4.9070   22.2800  -31.9960 C   0  0  0  0  0  0  0  0  0  0  0  0
   -3.9009   22.7224  -31.9494 H   0  0  0  0  0  0  0  0  0  0  0  0
   -5.1160   21.1000  -32.7360 C   0  0  0  0  0  0  0  0  0  0  0  0
   -4.2899   20.6084  -33.2707 H   0  0  0  0  0  0  0  0  0  0  0  0
   -6.4080   20.5780  -32.7660 C   0  0  0  0  0  0  0  0  0  0  0  0
   -7.4430   21.1820  -32.1090 C   0  0  0  0  0  0  0  0  0  0  0  0
   -7.2780   22.3490  -31.3690 C   0  0  0  0  0  0  0  0  0  0  0  0
   -8.1254   22.8209  -30.8500 H   0  0  0  0  0  0  0  0  0  0  0  0
   -8.5310   20.3820  -32.3750 C   0  0  0  0  0  0  0  0  0  0  0  0
   -9.7080   20.5590  -31.9670 O   0  0  0  0  0  0  0  0  0  0  0  0
   -8.1450   19.3780  -33.1400 O   0  0  0  0  0  0  0  0  0  0  0  0
   -6.8670   19.4730  -33.3910 N   0  0  0  0  0  0  0  0  0  0  0  0
   -6.1070   18.5330  -34.2040 C   0  0  0  0  0  0  0  0  0  0  0  0
   -5.5518   17.8463  -33.5481 H   0  0  0  0  0  0  0  0  0  0  0  0
   -6.7961   17.9568  -34.8389 H   0  0  0  0  0  0  0  0  0  0  0  0
   -5.3992   19.0861  -34.8389 H   0  0  0  0  0  0  0  0  0  0  0  0
   -2.9440   24.5540  -27.5090 C   0  0  0  0  0  0  0  0  0  0  0  0
   -3.3246   24.2641  -26.5185 H   0  0  0  0  0  0  0  0  0  0  0  0
  1  2  1  0
  2  3  1  0
  3  4  1  0
  4  5  1  0
  5  6  2  0
  6  7  1  0
  7  8  2  0
  7  9  2  0
  7 10  1  0
 10 11  2  0
 11 12  1  0
 11 13  1  0
 13 14  1  0
 13 15  2  0
 15 16  1  0
 16 17  2  0
 17 18  1  0
 16 19  1  0
 19 20  2  0
 19 21  1  0
 21 22  1  0
 22 23  1  0
 23 24  1  0
 23 25  1  0
 23 26  1  0
  5 27  1  0
 27 28  1  0
 27  2  2  0
 17 10  1  0
 22 15  1  0
M  CHG  1   4  -1
M  END
>  <UniqueID>  (42) 
41

>  <SMILES>  (42) 
Cn1oc(=O)c2cc(S(=O)(=O)/N=c3\cco[n-]3)ccc21

>  <Energy>  (42) 
106.3332529417804

>  <Genealogy>  (42) 
Cn1oc(=O)c2cc(S(=O)(=O)N=c3cco[n-]3)ccc21 (protonated)
Cn1oc(=O)c2cc(S(=O)(=O)/N=c3\cco[n-]3)ccc21 (cis-trans isomerization)
Cn1oc(=O)c2cc(S(=O)(=O)/N=c3\cco[n-]3)ccc21 (3D coordinates assigned)
Cn1oc(=O)c2cc(S(=O)(=O)/N=c3\cco[n-]3)ccc21 (optimized conformer: 106.3332529417804 kcal/mol)

>  <smiles>  (42) 
Cn1oc(=O)c2cc(S(=O)(=O)N=c3cco[nH]3)ccc21

>  <score_type>  (42) 
oracle

>  <origin>  (42) 
adg

>  <m_score__min__energy>  (42) 
-9.8399999999999999

>  <m_primary>  (42) 
energy

$$$$
42:0
     RDKit          3D

 39 42  0  0  0  0  0  0  0  0999 V2000
   -3.1990   24.9930  -26.3730 C   0  0  0  0  0  0  0  0  0  0  0  0
   -4.2240   24.1980  -26.9590 O   0  0  0  0  0  0  0  0  0  0  0  0
   -4.0290   23.2950  -28.0180 C   0  0  0  0  0  0  0  0  0  0  0  0
   -3.2930   22.1090  -27.8500 C   0  0  0  0  0  0  0  0  0  0  0  0
   -3.1150   21.2330  -28.9170 C   0  0  0  0  0  0  0  0  0  0  0  0
   -3.6680   21.5200  -30.1630 C   0  0  0  0  0  0  0  0  0  0  0  0
   -4.4340   22.6860  -30.3570 C   0  0  0  0  0  0  0  0  0  0  0  0
   -4.5900   23.5930  -29.2780 C   0  0  0  0  0  0  0  0  0  0  0  0
   -5.4110   24.8600  -29.4240 C   0  0  0  0  0  0  0  0  0  0  0  0
   -5.9450   25.1170  -30.8480 C   0  0  0  0  0  0  0  0  0  0  0  0
   -6.2200   23.8750  -31.5930 N   0  0  0  0  0  0  0  0  0  0  0  0
   -7.3550   23.1170  -31.0080 C   0  0  0  0  0  0  0  0  0  0  0  0
   -7.5030   21.7290  -31.5880 C   0  0  0  0  0  0  0  0  0  0  0  0
   -8.6570   20.9850  -31.2930 C   0  0  0  0  0  0  0  0  0  0  0  0
   -8.7870   19.6720  -31.7490 C   0  0  0  0  0  0  0  0  0  0  0  0
   -7.7630   19.0860  -32.4950 C   0  0  0  0  0  0  0  0  0  0  0  0
   -6.6060   19.8110  -32.7870 C   0  0  0  0  0  0  0  0  0  0  0  0
   -6.4600   21.1280  -32.3200 C   0  0  0  0  0  0  0  0  0  0  0  0
   -5.2550   21.9280  -32.7170 C   0  0  0  0  0  0  0  0  0  0  0  0
   -4.9850   23.0770  -31.7270 C   0  0  2  0  0  0  0  0  0  0  0  0
   -3.2723   24.9361  -25.2769 H   0  0  0  0  0  0  0  0  0  0  0  0
   -2.2158   24.6189  -26.6946 H   0  0  0  0  0  0  0  0  0  0  0  0
   -3.3167   26.0383  -26.6946 H   0  0  0  0  0  0  0  0  0  0  0  0
   -2.8551   21.8718  -26.8692 H   0  0  0  0  0  0  0  0  0  0  0  0
   -2.5347   20.3093  -28.7756 H   0  0  0  0  0  0  0  0  0  0  0  0
   -3.5049   20.8294  -31.0035 H   0  0  0  0  0  0  0  0  0  0  0  0
   -6.2712   24.7922  -28.7418 H   0  0  0  0  0  0  0  0  0  0  0  0
   -4.7381   25.6973  -29.1870 H   0  0  0  0  0  0  0  0  0  0  0  0
   -6.8780   25.6949  -30.7735 H   0  0  0  0  0  0  0  0  0  0  0  0
   -5.1655   25.6647  -31.3978 H   0  0  0  0  0  0  0  0  0  0  0  0
   -7.1944   23.0279  -29.9234 H   0  0  0  0  0  0  0  0  0  0  0  0
   -8.2756   23.6709  -31.2440 H   0  0  0  0  0  0  0  0  0  0  0  0
   -9.4635   21.4397  -30.6989 H   0  0  0  0  0  0  0  0  0  0  0  0
   -9.6974   19.0986  -31.5202 H   0  0  0  0  0  0  0  0  0  0  0  0
   -7.8677   18.0513  -32.8534 H   0  0  0  0  0  0  0  0  0  0  0  0
   -5.8061   19.3495  -33.3847 H   0  0  0  0  0  0  0  0  0  0  0  0
   -4.3781   21.2643  -32.7411 H   0  0  0  0  0  0  0  0  0  0  0  0
   -5.4442   22.3657  -33.7083 H   0  0  0  0  0  0  0  0  0  0  0  0
   -4.1612   23.6608  -32.1635 H   0  0  0  0  0  0  0  0  0  0  0  0
  1  2  1  0
  2  3  1  0
  3  4  2  0
  4  5  1  0
  5  6  2  0
  6  7  1  0
  7  8  2  0
  8  9  1  0
  9 10  1  0
 10 11  1  0
 11 12  1  0
 12 13  1  0
 13 14  2  0
 14 15  1  0
 15 16  2  0
 16 17  1  0
 17 18  2  0
 18 19  1  0
 19 20  1  0
  8  3  1  0
 20 11  1  0
 20  7  1  0
 18 13  1  0
  1 21  1  0
  1 22  1  0
  1 23  1  0
  4 24  1  0
  5 25  1  0
  6 26  1  0
  9 27  1  0
  9 28  1  0
 10 29  1  0
 10 30  1  0
 12 31  1  0
 12 32  1  0
 14 33  1  0
 15 34  1  0
 16 35  1  0
 17 36  1  0
 19 37  1  0
 19 38  1  0
 20 39  1  6
M  END
>  <UniqueID>  (43) 
42

>  <SMILES>  (43) 
COc1cccc2c1CCN1Cc3ccccc3C[C@H]21

>  <Energy>  (43) 
57.289984874969704

>  <Genealogy>  (43) 
COc1cccc2c1CCN1Cc3ccccc3C[C@H]21 (chirality)
COc1cccc2c1CCN1Cc3ccccc3C[C@H]21 (3D coordinates assigned)
COc1cccc2c1CCN1Cc3ccccc3C[C@H]21 (nonaromatic ring conformer: 57.289984874969704 kcal/mol)

>  <smiles>  (43) 
COc1cccc2c1CCN1Cc3ccccc3CC21

>  <score_type>  (43) 
oracle

>  <origin>  (43) 
adg

>  <m_score__min__energy>  (43) 
-7.6900000000000004

>  <m_primary>  (43) 
energy

$$$$
43:0
     RDKit          3D

 35 37  0  0  0  0  0  0  0  0999 V2000
   -8.3790   19.6480  -31.8000 C   0  0  0  0  0  0  0  0  0  0  0  0
   -7.3280   19.0640  -32.7040 C   0  0  0  0  0  0  0  0  0  0  0  0
   -7.4080   17.7160  -33.0790 C   0  0  0  0  0  0  0  0  0  0  0  0
   -6.4260   17.1560  -33.8960 C   0  0  0  0  0  0  0  0  0  0  0  0
   -5.3680   17.9500  -34.3360 C   0  0  0  0  0  0  0  0  0  0  0  0
   -5.3060   19.2630  -33.9840 N   0  0  0  0  0  0  0  0  0  0  0  0
   -6.2620   19.8450  -33.2070 C   0  0  0  0  0  0  0  0  0  0  0  0
   -6.1480   21.2070  -32.9020 O   0  0  0  0  0  0  0  0  0  0  0  0
   -5.6130   21.7080  -31.7060 C   0  0  0  0  0  0  0  0  0  0  0  0
   -6.4160   22.5250  -30.9040 C   0  0  0  0  0  0  0  0  0  0  0  0
   -5.9230   23.0470  -29.7050 C   0  0  0  0  0  0  0  0  0  0  0  0
   -4.6190   22.7430  -29.2840 C   0  0  0  0  0  0  0  0  0  0  0  0
   -4.0700   23.3390  -28.0170 C   0  0  0  0  0  0  0  0  0  0  0  0
   -2.8110   24.0930  -28.3070 C   0  0  0  0  0  0  0  0  0  0  0  0
   -1.6810   23.9820  -27.5850 N   0  0  0  0  0  0  0  0  0  0  0  0
   -0.8120   24.7750  -28.2470 C   0  0  0  0  0  0  0  0  0  0  0  0
    0.3780   24.9410  -27.8680 O   0  0  0  0  0  0  0  0  0  0  0  0
   -1.3130   25.3720  -29.3500 N   0  0  0  0  0  0  0  0  0  0  0  0
   -2.5780   24.9240  -29.3770 C   0  0  0  0  0  0  0  0  0  0  0  0
   -3.4970   25.2620  -30.3600 O   0  0  0  0  0  0  0  0  0  0  0  0
   -3.8120   21.9220  -30.0870 C   0  0  0  0  0  0  0  0  0  0  0  0
   -4.3070   21.4010  -31.2850 C   0  0  0  0  0  0  0  0  0  0  0  0
   -8.0904   19.4876  -30.7507 H   0  0  0  0  0  0  0  0  0  0  0  0
   -8.4713   20.7268  -31.9941 H   0  0  0  0  0  0  0  0  0  0  0  0
   -9.3438   19.1566  -31.9941 H   0  0  0  0  0  0  0  0  0  0  0  0
   -8.2475   17.0979  -32.7280 H   0  0  0  0  0  0  0  0  0  0  0  0
   -6.4858   16.0978  -34.1904 H   0  0  0  0  0  0  0  0  0  0  0  0
   -4.5813   17.5140  -34.9693 H   0  0  0  0  0  0  0  0  0  0  0  0
   -4.5100   19.8420  -34.3340 H   0  0  0  0  0  0  0  0  0  0  0  0
   -7.4436   22.7586  -31.2193 H   0  0  0  0  0  0  0  0  0  0  0  0
   -6.5596   23.6988  -29.0886 H   0  0  0  0  0  0  0  0  0  0  0  0
   -4.8138   24.0251  -27.5856 H   0  0  0  0  0  0  0  0  0  0  0  0
   -3.8494   22.5302  -27.3048 H   0  0  0  0  0  0  0  0  0  0  0  0
   -2.7846   21.6876  -29.7714 H   0  0  0  0  0  0  0  0  0  0  0  0
   -3.6723   20.7477  -31.9017 H   0  0  0  0  0  0  0  0  0  0  0  0
  1  2  1  0
  2  3  2  0
  3  4  1  0
  4  5  2  0
  5  6  1  0
  6  7  2  0
  7  8  1  0
  8  9  1  0
  9 10  2  0
 10 11  1  0
 11 12  2  0
 12 13  1  0
 13 14  1  0
 14 15  1  0
 15 16  1  0
 16 17  2  0
 16 18  1  0
 18 19  1  0
 19 20  1  0
 12 21  1  0
 21 22  2  0
  7  2  1  0
 22  9  1  0
 19 14  2  0
  1 23  1  0
  1 24  1  0
  1 25  1  0
  3 26  1  0
  4 27  1  0
  5 28  1  0
  6 29  1  0
 10 30  1  0
 11 31  1  0
 13 32  1  0
 13 33  1  0
 21 34  1  0
 22 35  1  0
M  CHG  4   6   1  15  -1  18  -1  20  -1
M  END
>  <UniqueID>  (44) 
43

>  <SMILES>  (44) 
Cc1ccc[nH+]c1Oc1ccc(Cc2[n-]c(=O)[n-]c2[O-])cc1

>  <Energy>  (44) 
73.06422018305146

>  <Genealogy>  (44) 
Cc1ccc[nH+]c1Oc1ccc(Cc2[n-]c(=O)[n-]c2[O-])cc1 (protonated)
Cc1ccc[nH+]c1Oc1ccc(Cc2[n-]c(=O)[n-]c2[O-])cc1 (3D coordinates assigned)
Cc1ccc[nH+]c1Oc1ccc(Cc2[n-]c(=O)[n-]c2[O-])cc1 (optimized conformer: 73.06422018305146 kcal/mol)

>  <smiles>  (44) 
Cc1cccnc1Oc1ccc(Cc2[nH]c(=O)[nH]c2O)cc1

>  <score_type>  (44) 
oracle

>  <origin>  (44) 
adg

>  <m_score__min__energy>  (44) 
-12.800000000000001

>  <m_primary>  (44) 
energy

$$$$
44:0
     RDKit          3D

 41 43  0  0  0  0  0  0  0  0999 V2000
    0.3620   20.3840  -28.1450 C   0  0  0  0  0  0  0  0  0  0  0  0
    0.0630   21.7700  -28.0070 O   0  0  0  0  0  0  0  0  0  0  0  0
   -1.0160   22.4160  -28.6290 C   0  0  0  0  0  0  0  0  0  0  0  0
   -2.1180   21.7060  -29.1410 C   0  0  0  0  0  0  0  0  0  0  0  0
   -3.1750   22.3840  -29.7520 C   0  0  0  0  0  0  0  0  0  0  0  0
   -4.2230   21.6880  -30.2520 N   0  0  0  0  0  0  0  0  0  0  0  0
   -5.2740   22.3080  -30.8480 C   0  0  0  0  0  0  0  0  0  0  0  0
   -6.3540   21.4570  -31.3980 C   0  0  0  0  0  0  0  0  0  0  0  0
   -7.6440   21.5860  -30.8580 C   0  0  0  0  0  0  0  0  0  0  0  0
   -8.7030   20.8330  -31.3660 C   0  0  0  0  0  0  0  0  0  0  0  0
   -8.4880   19.9530  -32.4240 C   0  0  0  0  0  0  0  0  0  0  0  0
   -7.2120   19.8130  -32.9740 C   0  0  0  0  0  0  0  0  0  0  0  0
   -6.1240   20.5480  -32.4630 C   0  0  0  0  0  0  0  0  0  0  0  0
   -4.7460   20.3820  -33.0770 C   0  0  0  0  0  0  0  0  0  0  0  0
   -4.7820   19.5600  -34.1900 F   0  0  0  0  0  0  0  0  0  0  0  0
   -3.8790   19.8150  -32.1600 F   0  0  0  0  0  0  0  0  0  0  0  0
   -4.2600   21.6180  -33.4600 F   0  0  0  0  0  0  0  0  0  0  0  0
   -5.3040   23.6810  -30.9450 N   0  0  0  0  0  0  0  0  0  0  0  0
   -6.4490   24.3610  -31.5790 C   0  0  0  0  0  0  0  0  0  0  0  0
   -4.2410   24.4190  -30.4840 C   0  0  0  0  0  0  0  0  0  0  0  0
   -4.2350   25.6750  -30.6150 O   0  0  0  0  0  0  0  0  0  0  0  0
   -3.1510   23.7810  -29.8620 C   0  0  0  0  0  0  0  0  0  0  0  0
   -2.0510   24.4950  -29.3540 C   0  0  0  0  0  0  0  0  0  0  0  0
   -0.9820   23.8160  -28.7360 C   0  0  0  0  0  0  0  0  0  0  0  0
    0.1310   24.4950  -28.2160 O   0  0  0  0  0  0  0  0  0  0  0  0
    0.4030   24.6570  -26.8280 C   0  0  0  0  0  0  0  0  0  0  0  0
    0.4601   19.9291  -27.1483 H   0  0  0  0  0  0  0  0  0  0  0  0
   -0.4496   19.8870  -28.6966 H   0  0  0  0  0  0  0  0  0  0  0  0
    1.3063   20.2658  -28.6966 H   0  0  0  0  0  0  0  0  0  0  0  0
   -2.1470   20.6094  -29.0593 H   0  0  0  0  0  0  0  0  0  0  0  0
   -7.8208   22.2861  -30.0282 H   0  0  0  0  0  0  0  0  0  0  0  0
   -9.7081   20.9343  -30.9308 H   0  0  0  0  0  0  0  0  0  0  0  0
   -9.3262   19.3662  -32.8278 H   0  0  0  0  0  0  0  0  0  0  0  0
   -7.0547   19.1216  -33.8150 H   0  0  0  0  0  0  0  0  0  0  0  0
   -7.1169   24.7577  -30.8002 H   0  0  0  0  0  0  0  0  0  0  0  0
   -6.0834   25.1885  -32.2048 H   0  0  0  0  0  0  0  0  0  0  0  0
   -7.0006   23.6440  -32.2048 H   0  0  0  0  0  0  0  0  0  0  0  0
   -2.0249   25.5913  -29.4397 H   0  0  0  0  0  0  0  0  0  0  0  0
   -0.3957   24.1813  -26.2399 H   0  0  0  0  0  0  0  0  0  0  0  0
    1.3670   24.1858  -26.5858 H   0  0  0  0  0  0  0  0  0  0  0  0
    0.4478   25.7291  -26.5858 H   0  0  0  0  0  0  0  0  0  0  0  0
  1  2  1  0
  2  3  1  0
  3  4  2  0
  4  5  1  0
  5  6  1  0
  6  7  2  0
  7  8  1  0
  8  9  2  0
  9 10  1  0
 10 11  2  0
 11 12  1  0
 12 13  2  0
 13 14  1  0
 14 15  1  0
 14 16  1  0
 14 17  1  0
  7 18  1  0
 18 19  1  0
 18 20  1  0
 20 21  2  0
 20 22  1  0
 22 23  1  0
 23 24  2  0
 24 25  1  0
 25 26  1  0
 24  3  1  0
 22  5  2  0
 13  8  1  0
  1 27  1  0
  1 28  1  0
  1 29  1  0
  4 30  1  0
  9 31  1  0
 10 32  1  0
 11 33  1  0
 12 34  1  0
 19 35  1  0
 19 36  1  0
 19 37  1  0
 23 38  1  0
 26 39  1  0
 26 40  1  0
 26 41  1  0
M  END
>  <UniqueID>  (45) 
44

>  <SMILES>  (45) 
COc1cc2nc(-c3ccccc3C(F)(F)F)n(C)c(=O)c2cc1OC

>  <Energy>  (45) 
59.970754016277084

>  <Genealogy>  (45) 
COc1cc2nc(-c3ccccc3C(F)(F)F)n(C)c(=O)c2cc1OC (3D coordinates assigned)
COc1cc2nc(-c3ccccc3C(F)(F)F)n(C)c(=O)c2cc1OC (optimized conformer: 59.970754016277084 kcal/mol)

>  <smiles>  (45) 
COc1cc2nc(-c3ccccc3C(F)(F)F)n(C)c(=O)c2cc1OC

>  <score_type>  (45) 
oracle

>  <origin>  (45) 
adg

>  <m_score__min__energy>  (45) 
-7.25

>  <m_primary>  (45) 
energy

$$$$
45:0
     RDKit          3D

 49 51  0  0  0  0  0  0  0  0999 V2000
   -3.9770   18.5530  -33.6020 C   0  0  0  0  0  0  0  0  0  0  0  0
   -4.8250   19.7280  -33.2190 C   0  0  0  0  0  0  0  0  0  0  0  0
   -6.1680   19.5600  -33.0930 N   0  0  0  0  0  0  0  0  0  0  0  0
   -7.0030   20.5820  -32.7720 C   0  0  0  0  0  0  0  0  0  0  0  0
   -8.4700   20.2980  -32.6550 C   0  0  0  0  0  0  0  0  0  0  0  0
   -6.4530   21.8630  -32.5470 C   0  0  0  0  0  0  0  0  0  0  0  0
   -7.2920   23.0800  -32.2550 C   0  0  0  0  0  0  0  0  0  0  0  0
   -7.3670   23.3030  -30.8080 N   0  0  0  0  0  0  0  0  0  0  0  0
   -7.9750   22.2940  -29.9410 C   0  0  0  0  0  0  0  0  0  0  0  0
   -6.6350   24.3890  -30.2260 C   0  0  0  0  0  0  0  0  0  0  0  0
   -7.2590   25.3980  -29.8040 O   0  0  0  0  0  0  0  0  0  0  0  0
   -5.1680   24.3590  -30.1430 C   0  0  0  0  0  0  0  0  0  0  0  0
   -4.3980   23.3670  -29.5670 C   0  0  0  0  0  0  0  0  0  0  0  0
   -3.1080   23.7830  -29.8110 C   0  0  0  0  0  0  0  0  0  0  0  0
   -1.8550   23.0740  -29.4070 C   0  0  0  0  0  0  0  0  0  0  0  0
   -0.8870   24.0090  -28.9340 O   0  0  0  0  0  0  0  0  0  0  0  0
   -0.9530   24.6990  -27.7100 C   0  0  0  0  0  0  0  0  0  0  0  0
   -1.1640   26.0930  -27.6410 C   0  0  0  0  0  0  0  0  0  0  0  0
   -1.2380   26.7350  -26.4010 C   0  0  0  0  0  0  0  0  0  0  0  0
   -1.0990   26.0000  -25.2220 C   0  0  0  0  0  0  0  0  0  0  0  0
   -1.1700   26.6270  -24.0210 F   0  0  0  0  0  0  0  0  0  0  0  0
   -0.8830   24.6220  -25.2780 C   0  0  0  0  0  0  0  0  0  0  0  0
   -0.8070   23.9730  -26.5160 C   0  0  0  0  0  0  0  0  0  0  0  0
   -0.5340   22.2360  -26.5590 Cl  0  0  0  0  0  0  0  0  0  0  0  0
   -3.1410   24.9230  -30.4600 O   0  0  0  0  0  0  0  0  0  0  0  0
   -4.3660   25.2990  -30.6830 N   0  0  0  0  0  0  0  0  0  0  0  0
   -5.1090   22.0270  -32.6740 N   0  0  0  0  0  0  0  0  0  0  0  0
   -4.2770   21.0050  -33.0000 C   0  0  0  0  0  0  0  0  0  0  0  0
   -2.8050   21.2710  -33.1180 C   0  0  0  0  0  0  0  0  0  0  0  0
   -3.6145   18.0507  -32.6930 H   0  0  0  0  0  0  0  0  0  0  0  0
   -4.5754   17.8474  -34.1970 H   0  0  0  0  0  0  0  0  0  0  0  0
   -3.1188   18.8986  -34.1970 H   0  0  0  0  0  0  0  0  0  0  0  0
   -8.7494   20.2439  -31.5924 H   0  0  0  0  0  0  0  0  0  0  0  0
   -9.0393   21.1026  -33.1433 H   0  0  0  0  0  0  0  0  0  0  0  0
   -8.6979   19.3391  -33.1433 H   0  0  0  0  0  0  0  0  0  0  0  0
   -6.8381   23.9591  -32.7358 H   0  0  0  0  0  0  0  0  0  0  0  0
   -8.3069   22.9213  -32.6486 H   0  0  0  0  0  0  0  0  0  0  0  0
   -7.8101   22.5676  -28.8884 H   0  0  0  0  0  0  0  0  0  0  0  0
   -9.0553   22.2413  -30.1413 H   0  0  0  0  0  0  0  0  0  0  0  0
   -7.5168   21.3142  -30.1413 H   0  0  0  0  0  0  0  0  0  0  0  0
   -4.7345   22.4620  -29.0400 H   0  0  0  0  0  0  0  0  0  0  0  0
   -2.0866   22.3555  -28.6069 H   0  0  0  0  0  0  0  0  0  0  0  0
   -1.4452   22.5462  -30.2808 H   0  0  0  0  0  0  0  0  0  0  0  0
   -1.2707   26.6770  -28.5670 H   0  0  0  0  0  0  0  0  0  0  0  0
   -1.4060   27.8211  -26.3543 H   0  0  0  0  0  0  0  0  0  0  0  0
   -0.7723   24.0452  -24.3479 H   0  0  0  0  0  0  0  0  0  0  0  0
   -2.3650   21.3505  -32.1130 H   0  0  0  0  0  0  0  0  0  0  0  0
   -2.3257   20.4449  -33.6638 H   0  0  0  0  0  0  0  0  0  0  0  0
   -2.6451   22.2126  -33.6638 H   0  0  0  0  0  0  0  0  0  0  0  0
  1  2  1  0
  2  3  2  0
  3  4  1  0
  4  5  1  0
  4  6  2  0
  6  7  1  0
  7  8  1  0
  8  9  1  0
  8 10  1  0
 10 11  2  0
 10 12  1  0
 12 13  1  0
 13 14  2  0
 14 15  1  0
 15 16  1  0
 16 17  1  0
 17 18  2  0
 18 19  1  0
 19 20  2  0
 20 21  1  0
 20 22  1  0
 22 23  2  0
 23 24  1  0
 14 25  1  0
 25 26  1  0
  6 27  1  0
 27 28  2  0
 28 29  1  0
 28  2  1  0
 26 12  2  0
 23 17  1  0
  1 30  1  0
  1 31  1  0
  1 32  1  0
  5 33  1  0
  5 34  1  0
  5 35  1  0
  7 36  1  0
  7 37  1  0
  9 38  1  0
  9 39  1  0
  9 40  1  0
 13 41  1  0
 15 42  1  0
 15 43  1  0
 18 44  1  0
 19 45  1  0
 22 46  1  0
 29 47  1  0
 29 48  1  0
 29 49  1  0
M  END
>  <UniqueID>  (46) 
45

>  <SMILES>  (46) 
Cc1nc(C)c(CN(C)C(=O)c2cc(COc3ccc(F)cc3Cl)on2)nc1C

>  <Energy>  (46) 
78.63917908656583

>  <Genealogy>  (46) 
Cc1nc(C)c(CN(C)C(=O)c2cc(COc3ccc(F)cc3Cl)on2)nc1C (3D coordinates assigned)
Cc1nc(C)c(CN(C)C(=O)c2cc(COc3ccc(F)cc3Cl)on2)nc1C (optimized conformer: 78.63917908656583 kcal/mol)

>  <smiles>  (46) 
Cc1nc(C)c(CN(C)C(=O)c2cc(COc3ccc(F)cc3Cl)on2)nc1C

>  <score_type>  (46) 
oracle

>  <origin>  (46) 
adg

>  <m_score__min__energy>  (46) 
-9.5999999999999996

>  <m_primary>  (46) 
energy

$$$$
46:0
     RDKit          3D

 32 33  0  0  0  0  0  0  0  0999 V2000
   -6.1420   25.2940  -29.9390 C   0  0  0  0  0  0  0  0  0  0  0  0
   -5.1150   24.1660  -30.0560 C   0  0  0  0  0  0  0  0  0  0  0  0
   -4.9880   23.6210  -31.4230 N   0  0  0  0  0  0  0  0  0  0  0  0
   -3.9290   22.6380  -31.7030 C   0  0  0  0  0  0  0  0  0  0  0  0
   -4.3850   21.1990  -31.4720 C   0  0  0  0  0  0  0  0  0  0  0  0
   -5.4320   20.8280  -32.4260 N   0  0  0  0  0  0  0  0  0  0  0  0
   -5.1440   19.8270  -33.4530 C   0  0  0  0  0  0  0  0  0  0  0  0
   -6.7910   21.2190  -32.1660 C   0  0  0  0  0  0  0  0  0  0  0  0
   -7.7760   20.2310  -31.9860 C   0  0  0  0  0  0  0  0  0  0  0  0
   -9.1000   20.5900  -31.7330 C   0  0  0  0  0  0  0  0  0  0  0  0
   -9.4590   21.9350  -31.6660 C   0  0  0  0  0  0  0  0  0  0  0  0
   -8.4930   22.9260  -31.8490 C   0  0  0  0  0  0  0  0  0  0  0  0
   -7.1490   22.5840  -32.0840 C   0  0  0  0  0  0  0  0  0  0  0  0
   -6.1400   23.6810  -32.3400 C   0  0  0  0  0  0  0  0  0  0  0  0
   -6.3347   25.5057  -28.8769 H   0  0  0  0  0  0  0  0  0  0  0  0
   -5.7507   26.1983  -30.4280 H   0  0  0  0  0  0  0  0  0  0  0  0
   -7.0789   24.9890  -30.4280 H   0  0  0  0  0  0  0  0  0  0  0  0
   -4.1344   24.5549  -29.7442 H   0  0  0  0  0  0  0  0  0  0  0  0
   -5.4634   23.3447  -29.4125 H   0  0  0  0  0  0  0  0  0  0  0  0
   -3.6185   22.7446  -32.7529 H   0  0  0  0  0  0  0  0  0  0  0  0
   -3.0979   22.8385  -31.0108 H   0  0  0  0  0  0  0  0  0  0  0  0
   -3.5260   20.5235  -31.5979 H   0  0  0  0  0  0  0  0  0  0  0  0
   -4.7900   21.1158  -30.4527 H   0  0  0  0  0  0  0  0  0  0  0  0
   -4.8705   18.8763  -32.9719 H   0  0  0  0  0  0  0  0  0  0  0  0
   -6.0356   19.6776  -34.0797 H   0  0  0  0  0  0  0  0  0  0  0  0
   -4.3093   20.1743  -34.0797 H   0  0  0  0  0  0  0  0  0  0  0  0
   -7.5002   19.1678  -32.0452 H   0  0  0  0  0  0  0  0  0  0  0  0
   -9.8619   19.8103  -31.5861 H   0  0  0  0  0  0  0  0  0  0  0  0
  -10.5041   22.2158  -31.4688 H   0  0  0  0  0  0  0  0  0  0  0  0
   -8.7859   23.9855  -31.8090 H   0  0  0  0  0  0  0  0  0  0  0  0
   -5.7728   23.5871  -33.3726 H   0  0  0  0  0  0  0  0  0  0  0  0
   -6.6466   24.6431  -32.1737 H   0  0  0  0  0  0  0  0  0  0  0  0
  1  2  1  0
  2  3  1  0
  3  4  1  0
  4  5  1  0
  5  6  1  0
  6  7  1  0
  6  8  1  0
  8  9  2  0
  9 10  1  0
 10 11  2  0
 11 12  1  0
 12 13  2  0
 13 14  1  0
 14  3  1  0
 13  8  1  0
  1 15  1  0
  1 16  1  0
  1 17  1  0
  2 18  1  0
  2 19  1  0
  4 20  1  0
  4 21  1  0
  5 22  1  0
  5 23  1  0
  7 24  1  0
  7 25  1  0
  7 26  1  0
  9 27  1  0
 10 28  1  0
 11 29  1  0
 12 30  1  0
 14 31  1  0
 14 32  1  0
M  END
>  <UniqueID>  (47) 
46

>  <SMILES>  (47) 
CCN1CCN(C)c2ccccc2C1

>  <Energy>  (47) 
47.74444554092087

>  <Genealogy>  (47) 
CCN1CCN(C)c2ccccc2C1 (3D coordinates assigned)
CCN1CCN(C)c2ccccc2C1 (nonaromatic ring conformer: 47.74444554092087 kcal/mol)

>  <smiles>  (47) 
CCN1CCN(C)c2ccccc2C1

>  <score_type>  (47) 
oracle

>  <origin>  (47) 
adg

>  <m_score__min__energy>  (47) 
-4.6900000000000004

>  <m_primary>  (47) 
energy

$$$$
