0:0
     RDKit          3D

 58 60  0  0  0  0  0  0  0  0999 V2000
   -1.2510   25.7090  -26.6060 C   0  0  0  0  0  0  0  0  0  0  0  0
   -0.8560   26.3030  -27.9530 C   0  0  0  0  0  0  0  0  0  0  0  0
   -0.9380   25.3200  -28.9670 O   0  0  0  0  0  0  0  0  0  0  0  0
   -0.5980   24.0370  -28.4760 C   0  0  0  0  0  0  0  0  0  0  0  0
   -1.1220   22.9450  -29.4160 C   0  0  0  0  0  0  0  0  0  0  0  0
   -2.5080   22.5820  -29.0490 N   0  0  0  0  0  0  0  0  0  0  0  0
   -3.3180   22.2070  -30.2230 C   0  0  0  0  0  0  0  0  0  0  0  0
   -3.7170   23.4340  -31.0660 C   0  0  0  0  0  0  0  0  0  0  0  0
   -4.0720   24.6280  -30.2530 N   0  0  0  0  0  0  0  0  0  0  0  0
   -5.2080   25.3730  -30.8410 C   0  0  0  0  0  0  0  0  0  0  0  0
   -6.4960   24.5320  -30.8890 C   0  0  0  0  0  0  0  0  0  0  0  0
   -6.6870   23.7940  -32.2220 C   0  0  0  0  0  0  0  0  0  0  0  0
   -7.4480   22.5540  -32.0530 N   0  0  0  0  0  0  0  0  0  0  0  0
   -8.7220   22.4500  -31.5960 C   0  0  0  0  0  0  0  0  0  0  0  0
   -9.1430   21.1650  -31.5280 N   0  0  0  0  0  0  0  0  0  0  0  0
   -8.0870   20.4480  -31.9600 C   0  0  0  0  0  0  0  0  0  0  0  0
   -7.0650   21.2800  -32.2800 C   0  0  0  0  0  0  0  0  0  0  0  0
   -5.8670   20.7610  -32.7580 C   0  0  0  0  0  0  0  0  0  0  0  0
   -4.9090   21.5260  -33.0560 O   0  0  0  0  0  0  0  0  0  0  0  0
   -5.7570   19.3970  -32.8980 N   0  0  0  0  0  0  0  0  0  0  0  0
   -4.5200   18.8170  -33.4490 C   0  0  0  0  0  0  0  0  0  0  0  0
   -6.8290   18.5730  -32.5950 C   0  0  0  0  0  0  0  0  0  0  0  0
   -6.7340   17.3280  -32.7870 O   0  0  0  0  0  0  0  0  0  0  0  0
   -8.0000   19.0970  -32.0900 N   0  0  0  0  0  0  0  0  0  0  0  0
   -9.1460   18.2480  -31.7340 C   0  0  0  0  0  0  0  0  0  0  0  0
   -4.3800   24.2760  -28.8540 C   0  0  0  0  0  0  0  0  0  0  0  0
   -3.1660   23.6040  -28.1920 C   0  0  0  0  0  0  0  0  0  0  0  0
   -0.8385   26.3293  -25.7966 H   0  0  0  0  0  0  0  0  0  0  0  0
   -2.3477   25.6819  -26.5246 H   0  0  0  0  0  0  0  0  0  0  0  0
   -0.8519   24.6872  -26.5246 H   0  0  0  0  0  0  0  0  0  0  0  0
   -1.5355   27.1330  -28.1967 H   0  0  0  0  0  0  0  0  0  0  0  0
    0.1797   26.6686  -27.8925 H   0  0  0  0  0  0  0  0  0  0  0  0
    0.4965   23.9562  -28.4022 H   0  0  0  0  0  0  0  0  0  0  0  0
   -1.0563   23.9028  -27.4851 H   0  0  0  0  0  0  0  0  0  0  0  0
   -1.1050   23.3168  -30.4511 H   0  0  0  0  0  0  0  0  0  0  0  0
   -0.4810   22.0554  -29.3278 H   0  0  0  0  0  0  0  0  0  0  0  0
   -2.7341   21.5189  -30.8519 H   0  0  0  0  0  0  0  0  0  0  0  0
   -4.2404   21.7298  -29.8605 H   0  0  0  0  0  0  0  0  0  0  0  0
   -2.8713   23.6970  -31.7184 H   0  0  0  0  0  0  0  0  0  0  0  0
   -4.6154   23.1543  -31.6358 H   0  0  0  0  0  0  0  0  0  0  0  0
   -5.3943   26.2710  -30.2337 H   0  0  0  0  0  0  0  0  0  0  0  0
   -4.9390   25.6357  -31.8747 H   0  0  0  0  0  0  0  0  0  0  0  0
   -6.4581   23.7879  -30.0797 H   0  0  0  0  0  0  0  0  0  0  0  0
   -7.3430   25.2244  -30.7743 H   0  0  0  0  0  0  0  0  0  0  0  0
   -7.2277   24.4515  -32.9187 H   0  0  0  0  0  0  0  0  0  0  0  0
   -5.6928   23.5342  -32.6145 H   0  0  0  0  0  0  0  0  0  0  0  0
   -9.3426   23.3129  -31.3127 H   0  0  0  0  0  0  0  0  0  0  0  0
  -10.0800   20.8250  -31.2220 H   0  0  0  0  0  0  0  0  0  0  0  0
   -3.8609   18.5080  -32.6243 H   0  0  0  0  0  0  0  0  0  0  0  0
   -4.7690   17.9418  -34.0671 H   0  0  0  0  0  0  0  0  0  0  0  0
   -4.0064   19.5682  -34.0671 H   0  0  0  0  0  0  0  0  0  0  0  0
   -9.2300   18.1857  -30.6390 H   0  0  0  0  0  0  0  0  0  0  0  0
  -10.0674   18.6831  -32.1483 H   0  0  0  0  0  0  0  0  0  0  0  0
   -8.9981   17.2398  -32.1483 H   0  0  0  0  0  0  0  0  0  0  0  0
   -4.6365   25.1899  -28.2981 H   0  0  0  0  0  0  0  0  0  0  0  0
   -5.2279   23.5754  -28.8402 H   0  0  0  0  0  0  0  0  0  0  0  0
   -2.4272   24.3822  -27.9500 H   0  0  0  0  0  0  0  0  0  0  0  0
   -3.5353   23.0832  -27.2962 H   0  0  0  0  0  0  0  0  0  0  0  0
  1  2  1  0
  2  3  1  0
  3  4  1  0
  4  5  1  0
  5  6  1  0
  6  7  1  0
  7  8  1  0
  8  9  1  0
  9 10  1  0
 10 11  1  0
 11 12  1  0
 12 13  1  0
 13 14  1  0
 14 15  2  0
 15 16  1  0
 16 17  2  0
 17 18  1  0
 18 19  2  0
 18 20  1  0
 20 21  1  0
 20 22  1  0
 22 23  2  0
 22 24  1  0
 24 25  1  0
  9 26  1  0
 26 27  1  0
 27  6  1  0
 17 13  1  0
 24 16  1  0
  1 28  1  0
  1 29  1  0
  1 30  1  0
  2 31  1  0
  2 32  1  0
  4 33  1  0
  4 34  1  0
  5 35  1  0
  5 36  1  0
  7 37  1  0
  7 38  1  0
  8 39  1  0
  8 40  1  0
 10 41  1  0
 10 42  1  0
 11 43  1  0
 11 44  1  0
 12 45  1  0
 12 46  1  0
 14 47  1  0
 15 48  1  0
 21 49  1  0
 21 50  1  0
 21 51  1  0
 25 52  1  0
 25 53  1  0
 25 54  1  0
 26 55  1  0
 26 56  1  0
 27 57  1  0
 27 58  1  0
M  CHG  1  15   1
M  END
>  <UniqueID>  (1) 
1

>  <SMILES>  (1) 
CCOCCN1CCN(CCCn2c[nH+]c3c2c(=O)n(C)c(=O)n3C)CC1

>  <Energy>  (1) 
110.47888891699385

>  <Genealogy>  (1) 
CCOCCN1CCN(CCCn2c[nH+]c3c2c(=O)n(C)c(=O)n3C)CC1 (protonated)
CCOCCN1CCN(CCCn2c[nH+]c3c2c(=O)n(C)c(=O)n3C)CC1 (3D coordinates assigned)
CCOCCN1CCN(CCCn2c[nH+]c3c2c(=O)n(C)c(=O)n3C)CC1 (nonaromatic ring conformer: 110.47888891699385 kcal/mol)

>  <smiles>  (1) 
CCOCCN1CCN(CCCn2cnc3c2c(=O)n(C)c(=O)n3C)CC1

>  <score_type>  (1) 
oracle

>  <origin>  (1) 
adg

>  <m_score__min__energy>  (1) 
-7.3399999999999999

>  <m_primary>  (1) 
energy

$$$$
1:0
     RDKit          3D

 46 49  0  0  0  0  0  0  0  0999 V2000
   -1.1750   23.0580  -30.0370 C   0  0  0  0  0  0  0  0  0  0  0  0
   -1.6970   24.3400  -29.7040 O   0  0  0  0  0  0  0  0  0  0  0  0
   -2.2880   24.6660  -28.4720 C   0  0  0  0  0  0  0  0  0  0  0  0
   -1.5920   25.3980  -27.4880 C   0  0  0  0  0  0  0  0  0  0  0  0
   -2.2030   25.7030  -26.2700 C   0  0  0  0  0  0  0  0  0  0  0  0
   -3.5090   25.2840  -26.0180 C   0  0  0  0  0  0  0  0  0  0  0  0
   -4.2110   24.5600  -26.9830 C   0  0  0  0  0  0  0  0  0  0  0  0
   -3.6120   24.2480  -28.2160 C   0  0  0  0  0  0  0  0  0  0  0  0
   -4.3920   23.4780  -29.2620 C   0  0  0  0  0  0  0  0  0  0  0  0
   -4.1940   24.0280  -30.6130 N   0  0  0  0  0  0  0  0  0  0  0  0
   -5.4580   24.3010  -31.3160 C   0  0  0  0  0  0  0  0  0  0  0  0
   -6.0990   23.0010  -31.7760 C   0  0  0  0  0  0  0  0  0  0  0  0
   -7.4310   22.7990  -31.3910 C   0  0  0  0  0  0  0  0  0  0  0  0
   -8.0730   21.5990  -31.6540 C   0  0  0  0  0  0  0  0  0  0  0  0
   -9.2810   21.4600  -31.3190 O   0  0  0  0  0  0  0  0  0  0  0  0
   -7.3670   20.5540  -32.2570 C   0  0  0  0  0  0  0  0  0  0  0  0
   -7.9850   19.2970  -32.4680 C   0  0  0  0  0  0  0  0  0  0  0  0
   -7.2220   18.2730  -33.0070 C   0  0  0  0  0  0  0  0  0  0  0  0
   -5.9190   18.4410  -33.3250 C   0  0  0  0  0  0  0  0  0  0  0  0
   -5.2650   19.6530  -33.1480 C   0  0  0  0  0  0  0  0  0  0  0  0
   -5.9970   20.7640  -32.6310 C   0  0  0  0  0  0  0  0  0  0  0  0
   -5.4190   22.0130  -32.4680 N   0  0  0  0  0  0  0  0  0  0  0  0
   -4.0770   22.2860  -33.0220 C   0  0  0  0  0  0  0  0  0  0  0  0
   -5.4070   17.2550  -33.8150 O   0  0  0  0  0  0  0  0  0  0  0  0
   -6.4610   16.2820  -33.8080 C   0  0  0  0  0  0  0  0  0  0  0  0
   -7.6020   16.9740  -33.2830 O   0  0  0  0  0  0  0  0  0  0  0  0
   -0.9491   22.5032  -29.1144 H   0  0  0  0  0  0  0  0  0  0  0  0
   -1.9181   22.5015  -30.6269 H   0  0  0  0  0  0  0  0  0  0  0  0
   -0.2545   23.1789  -30.6269 H   0  0  0  0  0  0  0  0  0  0  0  0
   -0.5615   25.7308  -27.6811 H   0  0  0  0  0  0  0  0  0  0  0  0
   -1.6532   26.2748  -25.5079 H   0  0  0  0  0  0  0  0  0  0  0  0
   -3.9869   25.5245  -25.0569 H   0  0  0  0  0  0  0  0  0  0  0  0
   -5.2403   24.2312  -26.7773 H   0  0  0  0  0  0  0  0  0  0  0  0
   -4.0590   22.4296  -29.2530 H   0  0  0  0  0  0  0  0  0  0  0  0
   -5.4611   23.5579  -29.0158 H   0  0  0  0  0  0  0  0  0  0  0  0
   -3.6320   24.9100  -30.5600 H   0  0  0  0  0  0  0  0  0  0  0  0
   -6.1461   24.8236  -30.6352 H   0  0  0  0  0  0  0  0  0  0  0  0
   -5.2494   24.9274  -32.1958 H   0  0  0  0  0  0  0  0  0  0  0  0
   -7.9743   23.6032  -30.8733 H   0  0  0  0  0  0  0  0  0  0  0  0
   -9.0426   19.1377  -32.2109 H   0  0  0  0  0  0  0  0  0  0  0  0
   -4.1997   19.7554  -33.4022 H   0  0  0  0  0  0  0  0  0  0  0  0
   -3.3628   22.4313  -32.1981 H   0  0  0  0  0  0  0  0  0  0  0  0
   -3.7554   21.4349  -33.6402 H   0  0  0  0  0  0  0  0  0  0  0  0
   -4.1135   23.1951  -33.6402 H   0  0  0  0  0  0  0  0  0  0  0  0
   -6.6623   15.9229  -34.8280 H   0  0  0  0  0  0  0  0  0  0  0  0
   -6.2023   15.3972  -33.2077 H   0  0  0  0  0  0  0  0  0  0  0  0
  1  2  1  0
  2  3  1  0
  3  4  2  0
  4  5  1  0
  5  6  2  0
  6  7  1  0
  7  8  2  0
  8  9  1  0
  9 10  1  0
 10 11  1  0
 11 12  1  0
 12 13  2  0
 13 14  1  0
 14 15  2  0
 14 16  1  0
 16 17  2  0
 17 18  1  0
 18 19  2  0
 19 20  1  0
 20 21  2  0
 21 22  1  0
 22 23  1  0
 19 24  1  0
 24 25  1  0
 25 26  1  0
  8  3  1  0
 22 12  1  0
 21 16  1  0
 26 18  1  0
  1 27  1  0
  1 28  1  0
  1 29  1  0
  4 30  1  0
  5 31  1  0
  6 32  1  0
  7 33  1  0
  9 34  1  0
  9 35  1  0
 10 36  1  0
 11 37  1  0
 11 38  1  0
 13 39  1  0
 17 40  1  0
 20 41  1  0
 23 42  1  0
 23 43  1  0
 23 44  1  0
 25 45  1  0
 25 46  1  0
M  END
>  <UniqueID>  (2) 
2

>  <SMILES>  (2) 
COc1ccccc1CNCc1cc(=O)c2cc3c(cc2n1C)OCO3

>  <Energy>  (2) 
94.84159672877793

>  <Genealogy>  (2) 
COc1ccccc1CNCc1cc(=O)c2cc3c(cc2n1C)OCO3 (3D coordinates assigned)
COc1ccccc1CNCc1cc(=O)c2cc3c(cc2n1C)OCO3 (nonaromatic ring conformer: 94.84159672877793 kcal/mol)

>  <smiles>  (2) 
COc1ccccc1CNCc1cc(=O)c2cc3c(cc2n1C)OCO3

>  <score_type>  (2) 
oracle

>  <origin>  (2) 
adg

>  <m_score__min__energy>  (2) 
-9.1899999999999995

>  <m_primary>  (2) 
energy

$$$$
2:0
     RDKit          3D

 52 55  0  0  0  0  0  0  0  0999 V2000
   -9.4710   18.8380  -31.9550 O   0  0  0  0  0  0  0  0  0  0  0  0
   -8.9950   19.9470  -32.3330 C   0  0  0  0  0  0  0  0  0  0  0  0
   -9.8620   21.1800  -32.2810 C   0  0  0  0  0  0  0  0  0  0  0  0
   -9.2560   22.2890  -31.5190 N   0  0  0  0  0  0  0  0  0  0  0  0
   -8.3700   21.8680  -30.4050 C   0  0  0  0  0  0  0  0  0  0  0  0
   -7.0750   22.6850  -30.3390 C   0  0  0  0  0  0  0  0  0  0  0  0
   -6.4300   22.6850  -31.6680 N   0  0  0  0  0  0  0  0  0  0  0  0
   -5.0790   23.2820  -31.5860 C   0  0  0  0  0  0  0  0  0  0  0  0
   -4.0150   22.2700  -31.9560 C   0  0  0  0  0  0  0  0  0  0  0  0
   -4.2320   21.4440  -33.0750 C   0  0  0  0  0  0  0  0  0  0  0  0
   -3.2770   20.5040  -33.4630 C   0  0  0  0  0  0  0  0  0  0  0  0
   -2.0850   20.3870  -32.7510 C   0  0  0  0  0  0  0  0  0  0  0  0
   -1.8560   21.1960  -31.6310 C   0  0  0  0  0  0  0  0  0  0  0  0
   -2.8130   22.1300  -31.2190 C   0  0  0  0  0  0  0  0  0  0  0  0
   -2.4680   23.0770  -29.7710 Cl  0  0  0  0  0  0  0  0  0  0  0  0
   -7.2720   23.3700  -32.6930 C   0  0  0  0  0  0  0  0  0  0  0  0
   -8.7850   23.4320  -32.3420 C   0  0  0  0  0  0  0  0  0  0  0  0
   -7.6060   20.0640  -32.7060 N   0  0  0  0  0  0  0  0  0  0  0  0
   -6.7130   18.9450  -32.8390 C   0  0  0  0  0  0  0  0  0  0  0  0
   -6.5370   18.0110  -31.7990 C   0  0  0  0  0  0  0  0  0  0  0  0
   -5.7000   16.9020  -31.9790 C   0  0  0  0  0  0  0  0  0  0  0  0
   -5.0360   16.7170  -33.1900 C   0  0  0  0  0  0  0  0  0  0  0  0
   -5.1890   17.6570  -34.2220 C   0  0  0  0  0  0  0  0  0  0  0  0
   -6.0430   18.7500  -34.0590 C   0  0  0  0  0  0  0  0  0  0  0  0
   -4.4820   17.4820  -35.4170 O   0  0  0  0  0  0  0  0  0  0  0  0
   -3.3990   16.5490  -35.4900 C   0  0  0  0  0  0  0  0  0  0  0  0
   -3.7390   15.2630  -34.7010 C   0  0  0  0  0  0  0  0  0  0  0  0
   -4.2160   15.5970  -33.3930 O   0  0  0  0  0  0  0  0  0  0  0  0
  -10.0439   21.5224  -33.3104 H   0  0  0  0  0  0  0  0  0  0  0  0
  -10.7931   20.9016  -31.7656 H   0  0  0  0  0  0  0  0  0  0  0  0
   -8.9134   21.9924  -29.4567 H   0  0  0  0  0  0  0  0  0  0  0  0
   -8.0923   20.8181  -30.5796 H   0  0  0  0  0  0  0  0  0  0  0  0
   -7.3073   23.7187  -30.0432 H   0  0  0  0  0  0  0  0  0  0  0  0
   -6.3946   22.2384  -29.5990 H   0  0  0  0  0  0  0  0  0  0  0  0
   -5.0201   24.1351  -32.2779 H   0  0  0  0  0  0  0  0  0  0  0  0
   -4.9040   23.6121  -30.5514 H   0  0  0  0  0  0  0  0  0  0  0  0
   -5.1649   21.5408  -33.6498 H   0  0  0  0  0  0  0  0  0  0  0  0
   -3.4650   19.8551  -34.3311 H   0  0  0  0  0  0  0  0  0  0  0  0
   -1.3238   19.6592  -33.0686 H   0  0  0  0  0  0  0  0  0  0  0  0
   -0.9151   21.0963  -31.0700 H   0  0  0  0  0  0  0  0  0  0  0  0
   -6.9031   24.3997  -32.8093 H   0  0  0  0  0  0  0  0  0  0  0  0
   -7.1873   22.7780  -33.6163 H   0  0  0  0  0  0  0  0  0  0  0  0
   -8.9742   24.3616  -31.7852 H   0  0  0  0  0  0  0  0  0  0  0  0
   -9.3367   23.3914  -33.2928 H   0  0  0  0  0  0  0  0  0  0  0  0
   -7.1850   21.0170  -32.7050 H   0  0  0  0  0  0  0  0  0  0  0  0
   -7.0591   18.1531  -30.8413 H   0  0  0  0  0  0  0  0  0  0  0  0
   -5.5668   16.1763  -31.1632 H   0  0  0  0  0  0  0  0  0  0  0  0
   -6.1914   19.4592  -34.8866 H   0  0  0  0  0  0  0  0  0  0  0  0
   -3.2147   16.2898  -36.5430 H   0  0  0  0  0  0  0  0  0  0  0  0
   -2.5019   17.0096  -35.0507 H   0  0  0  0  0  0  0  0  0  0  0  0
   -4.5170   14.7016  -35.2391 H   0  0  0  0  0  0  0  0  0  0  0  0
   -2.8309   14.6495  -34.6061 H   0  0  0  0  0  0  0  0  0  0  0  0
  1  2  2  0
  2  3  1  0
  3  4  1  0
  4  5  1  0
  5  6  1  0
  6  7  1  0
  7  8  1  0
  8  9  1  0
  9 10  2  0
 10 11  1  0
 11 12  2  0
 12 13  1  0
 13 14  2  0
 14 15  1  0
  7 16  1  0
 16 17  1  0
  2 18  1  0
 18 19  1  0
 19 20  2  0
 20 21  1  0
 21 22  2  0
 22 23  1  0
 23 24  2  0
 23 25  1  0
 25 26  1  0
 26 27  1  0
 27 28  1  0
 17  4  1  0
 24 19  1  0
 14  9  1  0
 28 22  1  0
  3 29  1  0
  3 30  1  0
  5 31  1  0
  5 32  1  0
  6 33  1  0
  6 34  1  0
  8 35  1  0
  8 36  1  0
 10 37  1  0
 11 38  1  0
 12 39  1  0
 13 40  1  0
 16 41  1  0
 16 42  1  0
 17 43  1  0
 17 44  1  0
 18 45  1  0
 20 46  1  0
 21 47  1  0
 24 48  1  0
 26 49  1  0
 26 50  1  0
 27 51  1  0
 27 52  1  0
M  END
>  <UniqueID>  (3) 
3

>  <SMILES>  (3) 
O=C(CN1CCN(Cc2ccccc2Cl)CC1)Nc1ccc2c(c1)OCCO2

>  <Energy>  (3) 
73.75787942955134

>  <Genealogy>  (3) 
O=C(CN1CCN(Cc2ccccc2Cl)CC1)Nc1ccc2c(c1)OCCO2 (3D coordinates assigned)
O=C(CN1CCN(Cc2ccccc2Cl)CC1)Nc1ccc2c(c1)OCCO2 (nonaromatic ring conformer: 73.75787942955134 kcal/mol)

>  <smiles>  (3) 
O=C(CN1CCN(Cc2ccccc2Cl)CC1)Nc1ccc2c(c1)OCCO2

>  <score_type>  (3) 
oracle

>  <origin>  (3) 
adg

>  <m_score__min__energy>  (3) 
-8.5500000000000007

>  <m_primary>  (3) 
energy

$$$$
3:0
     RDKit          3D

 36 37  0  0  0  0  0  0  0  0999 V2000
   -2.1850   23.2680  -29.3060 C   0  0  0  0  0  0  0  0  0  0  0  0
   -3.1120   24.4760  -29.1460 C   0  0  0  0  0  0  0  0  0  0  0  0
   -3.6890   24.9210  -30.4240 N   0  0  0  0  0  0  0  0  0  0  0  0
   -5.0600   25.4260  -30.2710 C   0  0  0  0  0  0  0  0  0  0  0  0
   -5.9940   24.7040  -31.2390 C   0  0  0  0  0  0  0  0  0  0  0  0
   -5.2680   23.7090  -31.9330 O   0  0  0  0  0  0  0  0  0  0  0  0
   -5.1080   22.5600  -31.1250 C   0  0  0  0  0  0  0  0  0  0  0  0
   -5.3610   21.2940  -31.9290 C   0  0  0  0  0  0  0  0  0  0  0  0
   -4.2860   20.6180  -32.5530 C   0  0  0  0  0  0  0  0  0  0  0  0
   -2.4600   21.2090  -32.4370 Br  0  0  0  0  0  0  0  0  0  0  0  0
   -4.5210   19.4690  -33.3070 C   0  0  0  0  0  0  0  0  0  0  0  0
   -5.8070   18.9620  -33.4700 C   0  0  0  0  0  0  0  0  0  0  0  0
   -5.9980   17.3740  -34.5350 Br  0  0  0  0  0  0  0  0  0  0  0  0
   -6.9030   19.6150  -32.8710 C   0  0  0  0  0  0  0  0  0  0  0  0
   -8.1760   19.1340  -33.0280 N   0  0  0  0  0  0  0  0  0  0  0  0
   -9.2500   19.7460  -32.4640 C   0  0  0  0  0  0  0  0  0  0  0  0
   -9.0820   20.8940  -31.6990 C   0  0  0  0  0  0  0  0  0  0  0  0
   -7.8050   21.4140  -31.5120 C   0  0  0  0  0  0  0  0  0  0  0  0
   -6.6820   20.7870  -32.0950 C   0  0  0  0  0  0  0  0  0  0  0  0
   -1.8970   22.8927  -28.3129 H   0  0  0  0  0  0  0  0  0  0  0  0
   -2.7085   22.4749  -29.8600 H   0  0  0  0  0  0  0  0  0  0  0  0
   -1.2835   23.5685  -29.8600 H   0  0  0  0  0  0  0  0  0  0  0  0
   -3.9320   24.2028  -28.4656 H   0  0  0  0  0  0  0  0  0  0  0  0
   -2.5110   25.3057  -28.7455 H   0  0  0  0  0  0  0  0  0  0  0  0
   -3.0860   25.6740  -30.8310 H   0  0  0  0  0  0  0  0  0  0  0  0
   -5.3993   25.2517  -29.2393 H   0  0  0  0  0  0  0  0  0  0  0  0
   -5.0744   26.5035  -30.4917 H   0  0  0  0  0  0  0  0  0  0  0  0
   -6.8150   24.2351  -30.6768 H   0  0  0  0  0  0  0  0  0  0  0  0
   -6.4101   25.4256  -31.9575 H   0  0  0  0  0  0  0  0  0  0  0  0
   -4.0816   22.5371  -30.7300 H   0  0  0  0  0  0  0  0  0  0  0  0
   -5.8350   22.6050  -30.3007 H   0  0  0  0  0  0  0  0  0  0  0  0
   -3.6736   18.9531  -33.7823 H   0  0  0  0  0  0  0  0  0  0  0  0
   -8.3630   18.2770  -33.5910 H   0  0  0  0  0  0  0  0  0  0  0  0
  -10.2575   19.3307  -32.6137 H   0  0  0  0  0  0  0  0  0  0  0  0
   -9.9530   21.3884  -31.2442 H   0  0  0  0  0  0  0  0  0  0  0  0
   -7.6691   22.3212  -30.9049 H   0  0  0  0  0  0  0  0  0  0  0  0
  1  2  1  0
  2  3  1  0
  3  4  1  0
  4  5  1  0
  5  6  1  0
  6  7  1  0
  7  8  1  0
  8  9  2  0
  9 10  1  0
  9 11  1  0
 11 12  2  0
 12 13  1  0
 12 14  1  0
 14 15  2  0
 15 16  1  0
 16 17  2  0
 17 18  1  0
 18 19  2  0
 19  8  1  0
 19 14  1  0
  1 20  1  0
  1 21  1  0
  1 22  1  0
  2 23  1  0
  2 24  1  0
  3 25  1  0
  4 26  1  0
  4 27  1  0
  5 28  1  0
  5 29  1  0
  7 30  1  0
  7 31  1  0
 11 32  1  0
 15 33  1  0
 16 34  1  0
 17 35  1  0
 18 36  1  0
M  CHG  1  15   1
M  END
>  <UniqueID>  (4) 
4

>  <SMILES>  (4) 
CCNCCOCc1c(Br)cc(Br)c2[nH+]cccc12

>  <Energy>  (4) 
42.71088129086766

>  <Genealogy>  (4) 
CCNCCOCc1c(Br)cc(Br)c2[nH+]cccc12 (protonated)
CCNCCOCc1c(Br)cc(Br)c2[nH+]cccc12 (3D coordinates assigned)
CCNCCOCc1c(Br)cc(Br)c2[nH+]cccc12 (optimized conformer: 42.71088129086766 kcal/mol)

>  <smiles>  (4) 
CCNCCOCc1c(Br)cc(Br)c2ncccc12

>  <score_type>  (4) 
oracle

>  <origin>  (4) 
adg

>  <m_score__min__energy>  (4) 
-8.0800000000000001

>  <m_primary>  (4) 
energy

$$$$
4:0
     RDKit          3D

 50 52  0  0  0  0  0  0  0  0999 V2000
   -4.2260   24.6020  -26.8010 C   0  0  0  0  0  0  0  0  0  0  0  0
   -3.9090   23.9150  -28.1400 C   0  0  0  0  0  0  0  0  0  0  0  0
   -5.0850   23.7450  -29.0310 N   0  0  0  0  0  0  0  0  0  0  0  0
   -5.3860   25.0030  -29.7650 C   0  0  0  0  0  0  0  0  0  0  0  0
   -6.8730   25.3680  -29.7290 C   0  0  0  0  0  0  0  0  0  0  0  0
   -4.9200   22.5740  -29.9450 C   0  0  0  0  0  0  0  0  0  0  0  0
   -4.4970   23.0030  -31.3670 C   0  0  0  0  0  0  0  0  0  0  0  0
   -5.4910   22.6460  -32.3860 N   0  0  0  0  0  0  0  0  0  0  0  0
   -5.8620   21.2890  -32.6740 C   0  0  0  0  0  0  0  0  0  0  0  0
   -4.8960   20.3490  -33.1050 C   0  0  0  0  0  0  0  0  0  0  0  0
   -3.5830   20.7570  -33.4180 C   0  0  0  0  0  0  0  0  0  0  0  0
   -2.6260   19.8280  -33.8210 C   0  0  0  0  0  0  0  0  0  0  0  0
   -2.9600   18.4830  -33.9300 C   0  0  0  0  0  0  0  0  0  0  0  0
   -4.2560   18.0530  -33.6450 C   0  0  0  0  0  0  0  0  0  0  0  0
   -5.2540   18.9700  -33.2300 C   0  0  0  0  0  0  0  0  0  0  0  0
   -6.5450   18.5570  -32.9520 N   0  0  0  0  0  0  0  0  0  0  0  0
   -6.9260   17.1360  -33.0580 C   0  0  0  0  0  0  0  0  0  0  0  0
   -7.4720   19.4980  -32.5920 C   0  0  0  0  0  0  0  0  0  0  0  0
   -9.1040   19.2530  -32.2440 S   0  0  0  0  0  0  0  0  0  0  0  0
   -9.4620   20.8630  -31.9260 C   0  0  0  0  0  0  0  0  0  0  0  0
   -8.3060   21.6270  -32.0890 C   0  0  0  0  0  0  0  0  0  0  0  0
   -8.3300   23.1200  -31.9320 C   0  0  0  0  0  0  0  0  0  0  0  0
   -7.1760   20.8500  -32.4570 C   0  0  0  0  0  0  0  0  0  0  0  0
   -3.9233   23.9459  -25.9716 H   0  0  0  0  0  0  0  0  0  0  0  0
   -3.6752   25.5520  -26.7369 H   0  0  0  0  0  0  0  0  0  0  0  0
   -5.3062   24.7994  -26.7369 H   0  0  0  0  0  0  0  0  0  0  0  0
   -3.1597   24.5214  -28.6699 H   0  0  0  0  0  0  0  0  0  0  0  0
   -3.5468   22.9047  -27.8987 H   0  0  0  0  0  0  0  0  0  0  0  0
   -5.8900   23.5680  -28.3830 H   0  0  0  0  0  0  0  0  0  0  0  0
   -4.8115   25.8226  -29.3087 H   0  0  0  0  0  0  0  0  0  0  0  0
   -5.1078   24.8476  -30.8178 H   0  0  0  0  0  0  0  0  0  0  0  0
   -7.2053   25.4496  -28.6836 H   0  0  0  0  0  0  0  0  0  0  0  0
   -7.0267   26.3305  -30.2388 H   0  0  0  0  0  0  0  0  0  0  0  0
   -7.4549   24.5860  -30.2388 H   0  0  0  0  0  0  0  0  0  0  0  0
   -4.1492   21.9070  -29.5316 H   0  0  0  0  0  0  0  0  0  0  0  0
   -5.8911   22.0628  -30.0199 H   0  0  0  0  0  0  0  0  0  0  0  0
   -4.3577   24.0941  -31.3785 H   0  0  0  0  0  0  0  0  0  0  0  0
   -3.5656   22.4711  -31.6110 H   0  0  0  0  0  0  0  0  0  0  0  0
   -5.7340   23.3700  -33.0980 H   0  0  0  0  0  0  0  0  0  0  0  0
   -3.3113   21.8203  -33.3432 H   0  0  0  0  0  0  0  0  0  0  0  0
   -1.6033   20.1598  -34.0536 H   0  0  0  0  0  0  0  0  0  0  0  0
   -2.1981   17.7538  -34.2427 H   0  0  0  0  0  0  0  0  0  0  0  0
   -4.5072   16.9866  -33.7438 H   0  0  0  0  0  0  0  0  0  0  0  0
   -7.0400   16.7108  -32.0499 H   0  0  0  0  0  0  0  0  0  0  0  0
   -7.8786   17.0513  -33.6016 H   0  0  0  0  0  0  0  0  0  0  0  0
   -6.1436   16.5862  -33.6016 H   0  0  0  0  0  0  0  0  0  0  0  0
  -10.4490   21.2524  -31.6359 H   0  0  0  0  0  0  0  0  0  0  0  0
   -8.3341   23.3762  -30.8623 H   0  0  0  0  0  0  0  0  0  0  0  0
   -7.4387   23.5533  -32.4094 H   0  0  0  0  0  0  0  0  0  0  0  0
   -9.2348   23.5244  -32.4094 H   0  0  0  0  0  0  0  0  0  0  0  0
  1  2  1  0
  2  3  1  0
  3  4  1  0
  4  5  1  0
  3  6  1  0
  6  7  1  0
  7  8  1  0
  8  9  1  0
  9 10  2  0
 10 11  1  0
 11 12  2  0
 12 13  1  0
 13 14  2  0
 14 15  1  0
 15 16  2  0
 16 17  1  0
 16 18  1  0
 18 19  1  0
 19 20  1  0
 20 21  2  0
 21 22  1  0
 21 23  1  0
 23  9  1  0
 15 10  1  0
 23 18  2  0
  1 24  1  0
  1 25  1  0
  1 26  1  0
  2 27  1  0
  2 28  1  0
  3 29  1  0
  4 30  1  0
  4 31  1  0
  5 32  1  0
  5 33  1  0
  5 34  1  0
  6 35  1  0
  6 36  1  0
  7 37  1  0
  7 38  1  0
  8 39  1  0
 11 40  1  0
 12 41  1  0
 13 42  1  0
 14 43  1  0
 17 44  1  0
 17 45  1  0
 17 46  1  0
 20 47  1  0
 22 48  1  0
 22 49  1  0
 22 50  1  0
M  CHG  2   3   1  16   1
M  END
>  <UniqueID>  (5) 
5

>  <SMILES>  (5) 
CC[NH+](CC)CCNc1c2ccccc2[n+](C)c2scc(C)c12

>  <Energy>  (5) 
102.57285879255167

>  <Genealogy>  (5) 
CC[NH+](CC)CCNc1c2ccccc2[n+](C)c2scc(C)c12 (protonated)
CC[NH+](CC)CCNc1c2ccccc2[n+](C)c2scc(C)c12 (3D coordinates assigned)
CC[NH+](CC)CCNc1c2ccccc2[n+](C)c2scc(C)c12 (optimized conformer: 102.57285879255167 kcal/mol)

>  <smiles>  (5) 
CCN(CC)CCNc1c2ccccc2[n+](C)c2scc(C)c12

>  <score_type>  (5) 
oracle

>  <origin>  (5) 
adg

>  <m_score__min__energy>  (5) 
-7.21

>  <m_primary>  (5) 
energy

$$$$
5:0
     RDKit          3D

 71 73  0  0  0  0  0  0  0  0999 V2000
    0.0220   19.6900  -29.3470 C   0  0  0  0  0  0  0  0  0  0  0  0
   -0.5850   20.3660  -28.1160 C   0  0  0  0  0  0  0  0  0  0  0  0
   -1.9220   19.8430  -27.7550 N   0  0  0  0  0  0  0  0  0  0  0  0
   -2.0910   19.5270  -26.3120 C   0  0  0  0  0  0  0  0  0  0  0  0
   -3.3000   18.6450  -25.9680 C   0  0  0  0  0  0  0  0  0  0  0  0
   -3.0420   20.5300  -28.4400 C   0  0  0  0  0  0  0  0  0  0  0  0
   -3.1100   22.0070  -28.0510 C   0  0  0  0  0  0  0  0  0  0  0  0
   -3.8070   22.7370  -29.0400 O   0  0  0  0  0  0  0  0  0  0  0  0
   -4.6000   23.7530  -28.4550 C   0  0  0  0  0  0  0  0  0  0  0  0
   -4.9910   24.8500  -29.4650 C   0  0  0  0  0  0  0  0  0  0  0  0
   -4.6040   24.5350  -30.8490 N   0  0  0  0  0  0  0  0  0  0  0  0
   -5.7430   24.1960  -31.7190 C   0  0  0  0  0  0  0  0  0  0  0  0
   -5.9230   22.6660  -31.8560 C   0  0  0  0  0  0  0  0  0  0  0  0
   -4.9350   21.7790  -31.1750 N   0  0  0  0  0  0  0  0  0  0  0  0
   -4.5620   20.5410  -31.8470 C   0  0  0  0  0  0  0  0  0  0  0  0
   -5.5810   19.5790  -32.1170 C   0  0  0  0  0  0  0  0  0  0  0  0
   -6.8950   19.7210  -31.5950 C   0  0  0  0  0  0  0  0  0  0  0  0
   -7.8920   18.7920  -31.8790 C   0  0  0  0  0  0  0  0  0  0  0  0
   -7.6240   17.7190  -32.7110 C   0  0  0  0  0  0  0  0  0  0  0  0
   -6.3530   17.5580  -33.2510 C   0  0  0  0  0  0  0  0  0  0  0  0
   -5.2990   18.4590  -32.9420 C   0  0  0  0  0  0  0  0  0  0  0  0
   -4.0410   18.2860  -33.4670 N   0  0  0  0  0  0  0  0  0  0  0  0
   -3.6730   17.0010  -34.1060 C   0  0  0  0  0  0  0  0  0  0  0  0
   -3.1120   19.3000  -33.3930 C   0  0  0  0  0  0  0  0  0  0  0  0
   -2.0000   19.3090  -34.2700 C   0  0  0  0  0  0  0  0  0  0  0  0
   -1.0110   20.2790  -34.1860 C   0  0  0  0  0  0  0  0  0  0  0  0
    0.1630   20.2440  -35.1230 C   0  0  0  0  0  0  0  0  0  0  0  0
   -1.0570   21.2030  -33.1540 C   0  0  0  0  0  0  0  0  0  0  0  0
   -2.1340   21.2400  -32.2550 C   0  0  0  0  0  0  0  0  0  0  0  0
   -1.9210   22.1480  -31.0680 C   0  0  0  0  0  0  0  0  0  0  0  0
   -3.2710   20.3760  -32.4640 C   0  0  0  0  0  0  0  0  0  0  0  0
    0.7250   18.9071  -29.0262 H   0  0  0  0  0  0  0  0  0  0  0  0
   -0.7796   19.2384  -29.9499 H   0  0  0  0  0  0  0  0  0  0  0  0
    0.5570   20.4385  -29.9499 H   0  0  0  0  0  0  0  0  0  0  0  0
    0.0921   20.2095  -27.2633 H   0  0  0  0  0  0  0  0  0  0  0  0
   -0.7090   21.4315  -28.3597 H   0  0  0  0  0  0  0  0  0  0  0  0
   -1.1837   19.0076  -25.9698 H   0  0  0  0  0  0  0  0  0  0  0  0
   -2.2655   20.4898  -25.8094 H   0  0  0  0  0  0  0  0  0  0  0  0
   -3.4010   18.5713  -24.8751 H   0  0  0  0  0  0  0  0  0  0  0  0
   -4.2119   19.0915  -26.3912 H   0  0  0  0  0  0  0  0  0  0  0  0
   -3.1532   17.6403  -26.3912 H   0  0  0  0  0  0  0  0  0  0  0  0
   -2.8982   20.4524  -29.5278 H   0  0  0  0  0  0  0  0  0  0  0  0
   -3.9827   20.0476  -28.1360 H   0  0  0  0  0  0  0  0  0  0  0  0
   -3.6335   22.1063  -27.0887 H   0  0  0  0  0  0  0  0  0  0  0  0
   -2.0879   22.4041  -27.9632 H   0  0  0  0  0  0  0  0  0  0  0  0
   -5.5181   23.2979  -28.0551 H   0  0  0  0  0  0  0  0  0  0  0  0
   -4.0047   24.2264  -27.6603 H   0  0  0  0  0  0  0  0  0  0  0  0
   -6.0823   24.9833  -29.4299 H   0  0  0  0  0  0  0  0  0  0  0  0
   -4.4509   25.7640  -29.1769 H   0  0  0  0  0  0  0  0  0  0  0  0
   -3.9090   23.7520  -30.8480 H   0  0  0  0  0  0  0  0  0  0  0  0
   -6.6599   24.6257  -31.2894 H   0  0  0  0  0  0  0  0  0  0  0  0
   -5.5451   24.6088  -32.7192 H   0  0  0  0  0  0  0  0  0  0  0  0
   -6.9166   22.4167  -31.4552 H   0  0  0  0  0  0  0  0  0  0  0  0
   -5.7759   22.4677  -32.9279 H   0  0  0  0  0  0  0  0  0  0  0  0
   -5.2370   21.5990  -30.1980 H   0  0  0  0  0  0  0  0  0  0  0  0
   -4.0660   22.3290  -30.9870 H   0  0  0  0  0  0  0  0  0  0  0  0
   -7.1292   20.5830  -30.9531 H   0  0  0  0  0  0  0  0  0  0  0  0
   -8.8942   18.9109  -31.4415 H   0  0  0  0  0  0  0  0  0  0  0  0
   -8.4168   16.9933  -32.9451 H   0  0  0  0  0  0  0  0  0  0  0  0
   -6.1595   16.7157  -33.9315 H   0  0  0  0  0  0  0  0  0  0  0  0
   -3.4588   16.2530  -33.3285 H   0  0  0  0  0  0  0  0  0  0  0  0
   -4.5069   16.6507  -34.7320 H   0  0  0  0  0  0  0  0  0  0  0  0
   -2.7801   17.1453  -34.7320 H   0  0  0  0  0  0  0  0  0  0  0  0
   -1.9180   18.5261  -35.0384 H   0  0  0  0  0  0  0  0  0  0  0  0
    1.0960   20.2162  -34.5410 H   0  0  0  0  0  0  0  0  0  0  0  0
    0.0995   19.3473  -35.7570 H   0  0  0  0  0  0  0  0  0  0  0  0
    0.1530   21.1428  -35.7570 H   0  0  0  0  0  0  0  0  0  0  0  0
   -0.2327   21.9219  -33.0372 H   0  0  0  0  0  0  0  0  0  0  0  0
   -2.0555   21.5746  -30.1389 H   0  0  0  0  0  0  0  0  0  0  0  0
   -0.9017   22.5604  -31.1001 H   0  0  0  0  0  0  0  0  0  0  0  0
   -2.6506   22.9706  -31.1001 H   0  0  0  0  0  0  0  0  0  0  0  0
  1  2  1  0
  2  3  1  0
  3  4  1  0
  4  5  1  0
  3  6  1  0
  6  7  1  0
  7  8  1  0
  8  9  1  0
  9 10  1  0
 10 11  1  0
 11 12  1  0
 12 13  1  0
 13 14  1  0
 14 15  1  0
 15 16  2  0
 16 17  1  0
 17 18  2  0
 18 19  1  0
 19 20  2  0
 20 21  1  0
 21 22  2  0
 22 23  1  0
 22 24  1  0
 24 25  2  0
 25 26  1  0
 26 27  1  0
 26 28  2  0
 28 29  1  0
 29 30  1  0
 29 31  2  0
 31 15  1  0
 21 16  1  0
 31 24  1  0
  1 32  1  0
  1 33  1  0
  1 34  1  0
  2 35  1  0
  2 36  1  0
  4 37  1  0
  4 38  1  0
  5 39  1  0
  5 40  1  0
  5 41  1  0
  6 42  1  0
  6 43  1  0
  7 44  1  0
  7 45  1  0
  9 46  1  0
  9 47  1  0
 10 48  1  0
 10 49  1  0
 11 50  1  0
 12 51  1  0
 12 52  1  0
 13 53  1  0
 13 54  1  0
 14 55  1  0
 14 56  1  0
 17 57  1  0
 18 58  1  0
 19 59  1  0
 20 60  1  0
 23 61  1  0
 23 62  1  0
 23 63  1  0
 25 64  1  0
 27 65  1  0
 27 66  1  0
 27 67  1  0
 28 68  1  0
 30 69  1  0
 30 70  1  0
 30 71  1  0
M  CHG  2  14   1  22   1
M  END
>  <UniqueID>  (6) 
6

>  <SMILES>  (6) 
CCN(CC)CCOCCNCC[NH2+]c1c2ccccc2[n+](C)c2cc(C)cc(C)c12

>  <Energy>  (6) 
124.7478766997718

>  <Genealogy>  (6) 
CCN(CC)CCOCCNCC[NH2+]c1c2ccccc2[n+](C)c2cc(C)cc(C)c12 (protonated)
CCN(CC)CCOCCNCC[NH2+]c1c2ccccc2[n+](C)c2cc(C)cc(C)c12 (3D coordinates assigned)
CCN(CC)CCOCCNCC[NH2+]c1c2ccccc2[n+](C)c2cc(C)cc(C)c12 (optimized conformer: 124.7478766997718 kcal/mol)

>  <smiles>  (6) 
CCN(CC)CCOCCNCCNc1c2ccccc2[n+](C)c2cc(C)cc(C)c12

>  <score_type>  (6) 
oracle

>  <origin>  (6) 
adg

>  <m_score__min__energy>  (6) 
-9.5199999999999996

>  <m_primary>  (6) 
energy

$$$$
6:0
     RDKit          3D

 48 50  0  0  0  0  0  0  0  0999 V2000
   -9.1080   18.5960  -31.9360 C   0  0  0  0  0  0  0  0  0  0  0  0
   -7.8030   19.0460  -32.5090 C   0  0  0  0  0  0  0  0  0  0  0  0
   -7.0010   18.2470  -33.2400 N   0  0  0  0  0  0  0  0  0  0  0  0
   -5.9010   18.9280  -33.5190 N   0  0  0  0  0  0  0  0  0  0  0  0
   -4.7870   18.3720  -34.2780 C   0  0  0  0  0  0  0  0  0  0  0  0
   -5.9760   20.1650  -32.9790 C   0  0  0  0  0  0  0  0  0  0  0  0
   -4.8710   21.1810  -33.0100 C   0  0  0  0  0  0  0  0  0  0  0  0
   -7.1830   20.2710  -32.3040 C   0  0  0  0  0  0  0  0  0  0  0  0
   -7.6720   21.4130  -31.4450 C   0  0  0  0  0  0  0  0  0  0  0  0
   -7.4190   22.7230  -32.0620 N   0  0  0  0  0  0  0  0  0  0  0  0
   -7.3740   23.8010  -31.0660 C   0  0  0  0  0  0  0  0  0  0  0  0
   -5.9800   23.9230  -30.5190 C   0  0  0  0  0  0  0  0  0  0  0  0
   -5.4670   22.9500  -29.6510 C   0  0  0  0  0  0  0  0  0  0  0  0
   -4.1580   23.0540  -29.1770 C   0  0  0  0  0  0  0  0  0  0  0  0
   -3.3550   24.1350  -29.5850 C   0  0  0  0  0  0  0  0  0  0  0  0
   -1.9940   24.2820  -29.1190 N   0  0  0  0  0  0  0  0  0  0  0  0
   -1.6000   25.5150  -28.4270 C   0  0  0  0  0  0  0  0  0  0  0  0
   -0.4240   25.2430  -27.4850 C   0  0  0  0  0  0  0  0  0  0  0  0
    0.6240   24.5840  -28.1680 O   0  0  0  0  0  0  0  0  0  0  0  0
    0.1940   23.2970  -28.5620 C   0  0  0  0  0  0  0  0  0  0  0  0
   -0.9290   23.3890  -29.5980 C   0  0  0  0  0  0  0  0  0  0  0  0
   -3.8730   25.0530  -30.4480 N   0  0  0  0  0  0  0  0  0  0  0  0
   -5.1440   24.9720  -30.9220 C   0  0  0  0  0  0  0  0  0  0  0  0
   -9.0523   18.6152  -30.8376 H   0  0  0  0  0  0  0  0  0  0  0  0
   -9.9089   19.2699  -32.2744 H   0  0  0  0  0  0  0  0  0  0  0  0
   -9.3233   17.5717  -32.2744 H   0  0  0  0  0  0  0  0  0  0  0  0
   -4.0239   17.9911  -33.5833 H   0  0  0  0  0  0  0  0  0  0  0  0
   -5.1495   17.5491  -34.9116 H   0  0  0  0  0  0  0  0  0  0  0  0
   -4.3473   19.1563  -34.9116 H   0  0  0  0  0  0  0  0  0  0  0  0
   -4.5854   21.4436  -31.9807 H   0  0  0  0  0  0  0  0  0  0  0  0
   -4.0011   20.7607  -33.5360 H   0  0  0  0  0  0  0  0  0  0  0  0
   -5.2169   22.0830  -33.5360 H   0  0  0  0  0  0  0  0  0  0  0  0
   -8.7548   21.2991  -31.2879 H   0  0  0  0  0  0  0  0  0  0  0  0
   -7.1221   21.3775  -30.4930 H   0  0  0  0  0  0  0  0  0  0  0  0
   -8.1770   22.9320  -32.7530 H   0  0  0  0  0  0  0  0  0  0  0  0
   -7.6658   24.7498  -31.5399 H   0  0  0  0  0  0  0  0  0  0  0  0
   -8.0697   23.5702  -30.2458 H   0  0  0  0  0  0  0  0  0  0  0  0
   -6.0969   22.1026  -29.3425 H   0  0  0  0  0  0  0  0  0  0  0  0
   -3.7568   22.2955  -28.4888 H   0  0  0  0  0  0  0  0  0  0  0  0
   -1.3025   26.2692  -29.1705 H   0  0  0  0  0  0  0  0  0  0  0  0
   -2.4529   25.8828  -27.8377 H   0  0  0  0  0  0  0  0  0  0  0  0
   -0.0511   26.1988  -27.0883 H   0  0  0  0  0  0  0  0  0  0  0  0
   -0.7711   24.5975  -26.6647 H   0  0  0  0  0  0  0  0  0  0  0  0
    1.0434   22.7518  -28.9993 H   0  0  0  0  0  0  0  0  0  0  0  0
   -0.1877   22.7679  -27.6764 H   0  0  0  0  0  0  0  0  0  0  0  0
   -0.5216   23.7833  -30.5406 H   0  0  0  0  0  0  0  0  0  0  0  0
   -1.3496   22.3855  -29.7595 H   0  0  0  0  0  0  0  0  0  0  0  0
   -5.5172   25.7322  -31.6240 H   0  0  0  0  0  0  0  0  0  0  0  0
  1  2  1  0
  2  3  2  0
  3  4  1  0
  4  5  1  0
  4  6  1  0
  6  7  1  0
  6  8  2  0
  8  9  1  0
  9 10  1  0
 10 11  1  0
 11 12  1  0
 12 13  2  0
 13 14  1  0
 14 15  2  0
 15 16  1  0
 16 17  1  0
 17 18  1  0
 18 19  1  0
 19 20  1  0
 20 21  1  0
 15 22  1  0
 22 23  2  0
  8  2  1  0
 23 12  1  0
 21 16  1  0
  1 24  1  0
  1 25  1  0
  1 26  1  0
  5 27  1  0
  5 28  1  0
  5 29  1  0
  7 30  1  0
  7 31  1  0
  7 32  1  0
  9 33  1  0
  9 34  1  0
 10 35  1  0
 11 36  1  0
 11 37  1  0
 13 38  1  0
 14 39  1  0
 17 40  1  0
 17 41  1  0
 18 42  1  0
 18 43  1  0
 20 44  1  0
 20 45  1  0
 21 46  1  0
 21 47  1  0
 23 48  1  0
M  END
>  <UniqueID>  (7) 
7

>  <SMILES>  (7) 
Cc1nn(C)c(C)c1CNCc1ccc(N2CCOCC2)nc1

>  <Energy>  (7) 
79.38152910338665

>  <Genealogy>  (7) 
Cc1nn(C)c(C)c1CNCc1ccc(N2CCOCC2)nc1 (3D coordinates assigned)
Cc1nn(C)c(C)c1CNCc1ccc(N2CCOCC2)nc1 (nonaromatic ring conformer: 79.38152910338665 kcal/mol)

>  <smiles>  (7) 
Cc1nn(C)c(C)c1CNCc1ccc(N2CCOCC2)nc1

>  <score_type>  (7) 
oracle

>  <origin>  (7) 
adg

>  <m_score__min__energy>  (7) 
-8.2799999999999994

>  <m_primary>  (7) 
energy

$$$$
7:0
     RDKit          3D

 43 44  0  0  0  0  0  0  0  0999 V2000
   -2.9210   20.2450  -33.4540 C   0  0  0  0  0  0  0  0  0  0  0  0
   -3.4840   19.0110  -32.7450 C   0  0  0  0  0  0  0  0  0  0  0  0
   -4.2930   18.1380  -33.6230 N   0  0  0  0  0  0  0  0  0  0  0  0
   -3.6170   17.7190  -34.8770 C   0  0  0  0  0  0  0  0  0  0  0  0
   -3.6660   16.2130  -35.1730 C   0  0  0  0  0  0  0  0  0  0  0  0
   -5.0650   17.1030  -32.9000 C   0  0  0  0  0  0  0  0  0  0  0  0
   -6.5440   17.4990  -32.7900 C   0  0  0  0  0  0  0  0  0  0  0  0
   -6.8460   18.6360  -33.6710 N   0  0  0  0  0  0  0  0  0  0  0  0
   -7.0370   19.8300  -32.8860 C   0  0  0  0  0  0  0  0  0  0  0  0
   -6.0040   20.6570  -32.7420 O   0  0  0  0  0  0  0  0  0  0  0  0
   -6.0630   21.7860  -32.0490 C   0  0  0  0  0  0  0  0  0  0  0  0
   -4.9260   22.5960  -31.9510 C   0  0  0  0  0  0  0  0  0  0  0  0
   -4.9720   23.7860  -31.2190 C   0  0  0  0  0  0  0  0  0  0  0  0
   -6.1540   24.1730  -30.5810 C   0  0  0  0  0  0  0  0  0  0  0  0
   -6.2060   25.6670  -29.6640 Cl  0  0  0  0  0  0  0  0  0  0  0  0
   -7.2970   23.3700  -30.6740 C   0  0  0  0  0  0  0  0  0  0  0  0
   -7.2600   22.1700  -31.4100 C   0  0  0  0  0  0  0  0  0  0  0  0
   -8.3810   21.3330  -31.5340 C   0  0  0  0  0  0  0  0  0  0  0  0
   -9.4650   21.6400  -30.9640 O   0  0  0  0  0  0  0  0  0  0  0  0
   -8.2880   20.1510  -32.2960 C   0  0  0  0  0  0  0  0  0  0  0  0
   -9.4770   19.2280  -32.4250 C   0  0  0  0  0  0  0  0  0  0  0  0
   -2.5867   20.9777  -32.7048 H   0  0  0  0  0  0  0  0  0  0  0  0
   -2.0687   19.9493  -34.0834 H   0  0  0  0  0  0  0  0  0  0  0  0
   -3.7029   20.6949  -34.0834 H   0  0  0  0  0  0  0  0  0  0  0  0
   -2.6422   18.4228  -32.3508 H   0  0  0  0  0  0  0  0  0  0  0  0
   -4.1515   19.3740  -31.9495 H   0  0  0  0  0  0  0  0  0  0  0  0
   -4.0963   18.2465  -35.7149 H   0  0  0  0  0  0  0  0  0  0  0  0
   -2.5539   17.9713  -34.7503 H   0  0  0  0  0  0  0  0  0  0  0  0
   -3.6842   15.6536  -34.2260 H   0  0  0  0  0  0  0  0  0  0  0  0
   -4.5721   15.9825  -35.7525 H   0  0  0  0  0  0  0  0  0  0  0  0
   -2.7768   15.9241  -35.7525 H   0  0  0  0  0  0  0  0  0  0  0  0
   -4.9869   16.1501  -33.4439 H   0  0  0  0  0  0  0  0  0  0  0  0
   -4.6522   17.0016  -31.8855 H   0  0  0  0  0  0  0  0  0  0  0  0
   -7.1695   16.6419  -33.0799 H   0  0  0  0  0  0  0  0  0  0  0  0
   -6.7545   17.7921  -31.7509 H   0  0  0  0  0  0  0  0  0  0  0  0
   -7.7330   18.4390  -34.1900 H   0  0  0  0  0  0  0  0  0  0  0  0
   -6.0900   18.7660  -34.3820 H   0  0  0  0  0  0  0  0  0  0  0  0
   -3.9936   22.2955  -32.4513 H   0  0  0  0  0  0  0  0  0  0  0  0
   -4.0758   24.4195  -31.1449 H   0  0  0  0  0  0  0  0  0  0  0  0
   -8.2259   23.6770  -30.1711 H   0  0  0  0  0  0  0  0  0  0  0  0
   -9.8355   18.9497  -31.4230 H   0  0  0  0  0  0  0  0  0  0  0  0
  -10.2814   19.7406  -32.9730 H   0  0  0  0  0  0  0  0  0  0  0  0
   -9.1799   18.3217  -32.9730 H   0  0  0  0  0  0  0  0  0  0  0  0
  1  2  1  0
  2  3  1  0
  3  4  1  0
  4  5  1  0
  3  6  1  0
  6  7  1  0
  7  8  1  0
  8  9  1  0
  9 10  1  0
 10 11  1  0
 11 12  2  0
 12 13  1  0
 13 14  2  0
 14 15  1  0
 14 16  1  0
 16 17  2  0
 17 18  1  0
 18 19  2  0
 18 20  1  0
 20 21  1  0
 20  9  2  0
 17 11  1  0
  1 22  1  0
  1 23  1  0
  1 24  1  0
  2 25  1  0
  2 26  1  0
  4 27  1  0
  4 28  1  0
  5 29  1  0
  5 30  1  0
  5 31  1  0
  6 32  1  0
  6 33  1  0
  7 34  1  0
  7 35  1  0
  8 36  1  0
  8 37  1  0
 12 38  1  0
 13 39  1  0
 16 40  1  0
 21 41  1  0
 21 42  1  0
 21 43  1  0
M  CHG  1   8   1
M  END
>  <UniqueID>  (8) 
8

>  <SMILES>  (8) 
CCN(CC)CC[NH2+]c1oc2ccc(Cl)cc2c(=O)c1C

>  <Energy>  (8) 
53.960384890294215

>  <Genealogy>  (8) 
CCN(CC)CC[NH2+]c1oc2ccc(Cl)cc2c(=O)c1C (protonated)
CCN(CC)CC[NH2+]c1oc2ccc(Cl)cc2c(=O)c1C (3D coordinates assigned)
CCN(CC)CC[NH2+]c1oc2ccc(Cl)cc2c(=O)c1C (optimized conformer: 53.960384890294215 kcal/mol)

>  <smiles>  (8) 
CCN(CC)CCNc1oc2ccc(Cl)cc2c(=O)c1C

>  <score_type>  (8) 
oracle

>  <origin>  (8) 
adg

>  <m_score__min__energy>  (8) 
-7.5899999999999999

>  <m_primary>  (8) 
energy

$$$$
8:0
     RDKit          3D

 42 44  0  0  0  0  0  0  0  0999 V2000
   -6.0820   25.2540  -29.5330 C   0  0  0  0  0  0  0  0  0  0  0  0
   -5.4170   25.6650  -30.8370 C   0  0  0  0  0  0  0  0  0  0  0  0
   -4.0760   25.2270  -30.8300 O   0  0  0  0  0  0  0  0  0  0  0  0
   -3.9100   24.2260  -29.8500 C   0  0  0  0  0  0  0  0  0  0  0  0
   -3.8250   22.8590  -30.5270 C   0  0  0  0  0  0  0  0  0  0  0  0
   -4.5410   22.8550  -31.8060 N   0  0  0  0  0  0  0  0  0  0  0  0
   -5.2390   21.6900  -32.2790 C   0  0  0  0  0  0  0  0  0  0  0  0
   -6.6370   21.6060  -32.1590 C   0  0  0  0  0  0  0  0  0  0  0  0
   -7.3920   22.7020  -31.6940 C   0  0  0  0  0  0  0  0  0  0  0  0
   -8.7780   22.6210  -31.5920 C   0  0  0  0  0  0  0  0  0  0  0  0
   -9.4370   21.4560  -31.9700 C   0  0  0  0  0  0  0  0  0  0  0  0
   -8.7110   20.3570  -32.4310 C   0  0  0  0  0  0  0  0  0  0  0  0
   -7.2950   20.3950  -32.5070 C   0  0  0  0  0  0  0  0  0  0  0  0
   -6.5580   19.2990  -32.9170 N   0  0  0  0  0  0  0  0  0  0  0  0
   -7.1880   17.9640  -32.9910 C   0  0  0  0  0  0  0  0  0  0  0  0
   -5.2230   19.4460  -33.2380 C   0  0  0  0  0  0  0  0  0  0  0  0
   -4.5370   18.4610  -33.9070 N   0  0  0  0  0  0  0  0  0  0  0  0
   -3.2140   18.5740  -34.2050 C   0  0  0  0  0  0  0  0  0  0  0  0
   -2.5110   19.7210  -33.8570 C   0  0  0  0  0  0  0  0  0  0  0  0
   -3.1740   20.7590  -33.2160 C   0  0  0  0  0  0  0  0  0  0  0  0
   -4.5390   20.6400  -32.8940 C   0  0  0  0  0  0  0  0  0  0  0  0
   -5.4857   25.6225  -28.6853 H   0  0  0  0  0  0  0  0  0  0  0  0
   -7.0929   25.6851  -29.4851 H   0  0  0  0  0  0  0  0  0  0  0  0
   -6.1485   24.1571  -29.4851 H   0  0  0  0  0  0  0  0  0  0  0  0
   -5.9499   25.2060  -31.6828 H   0  0  0  0  0  0  0  0  0  0  0  0
   -5.4485   26.7597  -30.9398 H   0  0  0  0  0  0  0  0  0  0  0  0
   -2.9841   24.4144  -29.2868 H   0  0  0  0  0  0  0  0  0  0  0  0
   -4.7678   24.2413  -29.1615 H   0  0  0  0  0  0  0  0  0  0  0  0
   -2.7681   22.6128  -30.7068 H   0  0  0  0  0  0  0  0  0  0  0  0
   -4.2900   22.1133  -29.8654 H   0  0  0  0  0  0  0  0  0  0  0  0
   -4.6150   23.7450  -32.3480 H   0  0  0  0  0  0  0  0  0  0  0  0
   -6.8797   23.6325  -31.4083 H   0  0  0  0  0  0  0  0  0  0  0  0
   -9.3523   23.4789  -31.2122 H   0  0  0  0  0  0  0  0  0  0  0  0
  -10.5337   21.4007  -31.9054 H   0  0  0  0  0  0  0  0  0  0  0  0
   -9.2453   19.4466  -32.7404 H   0  0  0  0  0  0  0  0  0  0  0  0
   -7.3664   17.5859  -31.9736 H   0  0  0  0  0  0  0  0  0  0  0  0
   -8.1455   18.0396  -33.5273 H   0  0  0  0  0  0  0  0  0  0  0  0
   -6.5210   17.2730  -33.5273 H   0  0  0  0  0  0  0  0  0  0  0  0
   -5.0120   17.6030  -34.2600 H   0  0  0  0  0  0  0  0  0  0  0  0
   -2.6982   17.7528  -34.7242 H   0  0  0  0  0  0  0  0  0  0  0  0
   -1.4387   19.8059  -34.0873 H   0  0  0  0  0  0  0  0  0  0  0  0
   -2.6295   21.6794  -32.9584 H   0  0  0  0  0  0  0  0  0  0  0  0
  1  2  1  0
  2  3  1  0
  3  4  1  0
  4  5  1  0
  5  6  1  0
  6  7  1  0
  7  8  2  0
  8  9  1  0
  9 10  2  0
 10 11  1  0
 11 12  2  0
 12 13  1  0
 13 14  2  0
 14 15  1  0
 14 16  1  0
 16 17  2  0
 17 18  1  0
 18 19  2  0
 19 20  1  0
 20 21  2  0
 21  7  1  0
 13  8  1  0
 21 16  1  0
  1 22  1  0
  1 23  1  0
  1 24  1  0
  2 25  1  0
  2 26  1  0
  4 27  1  0
  4 28  1  0
  5 29  1  0
  5 30  1  0
  6 31  1  0
  9 32  1  0
 10 33  1  0
 11 34  1  0
 12 35  1  0
 15 36  1  0
 15 37  1  0
 15 38  1  0
 17 39  1  0
 18 40  1  0
 19 41  1  0
 20 42  1  0
M  CHG  2  14   1  17   1
M  END
>  <UniqueID>  (9) 
9

>  <SMILES>  (9) 
CCOCCNc1c2ccccc2[n+](C)c2[nH+]cccc12

>  <Energy>  (9) 
63.537780057557384

>  <Genealogy>  (9) 
CCOCCNc1c2ccccc2[n+](C)c2[nH+]cccc12 (protonated)
CCOCCNc1c2ccccc2[n+](C)c2[nH+]cccc12 (3D coordinates assigned)
CCOCCNc1c2ccccc2[n+](C)c2[nH+]cccc12 (optimized conformer: 63.537780057557384 kcal/mol)

>  <smiles>  (9) 
CCOCCNc1c2ccccc2[n+](C)c2ncccc12

>  <score_type>  (9) 
oracle

>  <origin>  (9) 
adg

>  <m_score__min__energy>  (9) 
-7.4500000000000002

>  <m_primary>  (9) 
energy

$$$$
9:0
     RDKit          3D

 50 52  0  0  0  0  0  0  0  0999 V2000
   -1.2540   21.7730  -29.7630 C   0  0  0  0  0  0  0  0  0  0  0  0
   -0.4460   21.0660  -30.8520 C   0  0  0  0  0  0  0  0  0  0  0  0
   -0.9880   21.2580  -32.2150 N   0  0  0  0  0  0  0  0  0  0  0  0
   -0.0210   21.0010  -33.3150 C   0  0  0  0  0  0  0  0  0  0  0  0
   -0.6320   20.4700  -34.6200 C   0  0  0  0  0  0  0  0  0  0  0  0
   -2.3710   20.7630  -32.4050 C   0  0  0  0  0  0  0  0  0  0  0  0
   -3.3950   21.9250  -32.4030 C   0  0  0  0  0  0  0  0  0  0  0  0
   -4.5420   21.8280  -33.3550 N   0  0  0  0  0  0  0  0  0  0  0  0
   -5.6250   20.9290  -32.9850 C   0  0  0  0  0  0  0  0  0  0  0  0
   -5.5380   19.5570  -33.3700 C   0  0  0  0  0  0  0  0  0  0  0  0
   -4.3690   19.0250  -33.9750 C   0  0  0  0  0  0  0  0  0  0  0  0
   -4.3070   17.6970  -34.3900 C   0  0  0  0  0  0  0  0  0  0  0  0
   -5.4020   16.8660  -34.2220 C   0  0  0  0  0  0  0  0  0  0  0  0
   -6.5530   17.3480  -33.6070 C   0  0  0  0  0  0  0  0  0  0  0  0
   -6.6330   18.6850  -33.1360 C   0  0  0  0  0  0  0  0  0  0  0  0
   -7.7540   19.1410  -32.4860 N   0  0  0  0  0  0  0  0  0  0  0  0
   -8.7470   18.1730  -31.9640 C   0  0  0  0  0  0  0  0  0  0  0  0
   -7.9400   20.4920  -32.2860 C   0  0  0  0  0  0  0  0  0  0  0  0
   -9.2290   20.9900  -31.9730 C   0  0  0  0  0  0  0  0  0  0  0  0
   -9.4330   22.3230  -31.6660 C   0  0  0  0  0  0  0  0  0  0  0  0
   -8.3600   23.1910  -31.6220 C   0  0  0  0  0  0  0  0  0  0  0  0
   -7.0720   22.7630  -31.9590 C   0  0  0  0  0  0  0  0  0  0  0  0
   -5.7600   24.1180  -31.5690 Br  0  0  0  0  0  0  0  0  0  0  0  0
   -6.8480   21.4120  -32.4060 C   0  0  0  0  0  0  0  0  0  0  0  0
   -0.8919   21.4562  -28.7738 H   0  0  0  0  0  0  0  0  0  0  0  0
   -1.1342   22.8616  -29.8659 H   0  0  0  0  0  0  0  0  0  0  0  0
   -2.3171   21.5098  -29.8659 H   0  0  0  0  0  0  0  0  0  0  0  0
    0.5824   21.4556  -30.8293 H   0  0  0  0  0  0  0  0  0  0  0  0
   -0.4918   19.9882  -30.6371 H   0  0  0  0  0  0  0  0  0  0  0  0
    0.4939   21.9462  -33.5416 H   0  0  0  0  0  0  0  0  0  0  0  0
    0.6488   20.2084  -32.9500 H   0  0  0  0  0  0  0  0  0  0  0  0
   -1.4431   19.7651  -34.3849 H   0  0  0  0  0  0  0  0  0  0  0  0
   -1.0344   21.3102  -35.2049 H   0  0  0  0  0  0  0  0  0  0  0  0
    0.1439   19.9544  -35.2049 H   0  0  0  0  0  0  0  0  0  0  0  0
   -2.4323   20.2342  -33.3676 H   0  0  0  0  0  0  0  0  0  0  0  0
   -2.6135   20.0878  -31.5712 H   0  0  0  0  0  0  0  0  0  0  0  0
   -3.8129   21.9956  -31.3879 H   0  0  0  0  0  0  0  0  0  0  0  0
   -2.8249   22.8048  -32.7359 H   0  0  0  0  0  0  0  0  0  0  0  0
   -4.1770   21.5500  -34.2940 H   0  0  0  0  0  0  0  0  0  0  0  0
   -4.9040   22.7690  -33.6010 H   0  0  0  0  0  0  0  0  0  0  0  0
   -3.4937   19.6755  -34.1190 H   0  0  0  0  0  0  0  0  0  0  0  0
   -3.3875   17.3079  -34.8516 H   0  0  0  0  0  0  0  0  0  0  0  0
   -5.3617   15.8249  -34.5748 H   0  0  0  0  0  0  0  0  0  0  0  0
   -7.4182   16.6801  -33.4832 H   0  0  0  0  0  0  0  0  0  0  0  0
   -8.7311   18.1885  -30.8642 H   0  0  0  0  0  0  0  0  0  0  0  0
   -9.7505   18.4491  -32.3201 H   0  0  0  0  0  0  0  0  0  0  0  0
   -8.4966   17.1628  -32.3201 H   0  0  0  0  0  0  0  0  0  0  0  0
  -10.0866   20.3011  -31.9742 H   0  0  0  0  0  0  0  0  0  0  0  0
  -10.4483   22.6911  -31.4572 H   0  0  0  0  0  0  0  0  0  0  0  0
   -8.5209   24.2356  -31.3171 H   0  0  0  0  0  0  0  0  0  0  0  0
  1  2  1  0
  2  3  1  0
  3  4  1  0
  4  5  1  0
  3  6  1  0
  6  7  1  0
  7  8  1  0
  8  9  1  0
  9 10  2  0
 10 11  1  0
 11 12  2  0
 12 13  1  0
 13 14  2  0
 14 15  1  0
 15 16  2  0
 16 17  1  0
 16 18  1  0
 18 19  2  0
 19 20  1  0
 20 21  2  0
 21 22  1  0
 22 23  1  0
 22 24  2  0
 24  9  1  0
 15 10  1  0
 24 18  1  0
  1 25  1  0
  1 26  1  0
  1 27  1  0
  2 28  1  0
  2 29  1  0
  4 30  1  0
  4 31  1  0
  5 32  1  0
  5 33  1  0
  5 34  1  0
  6 35  1  0
  6 36  1  0
  7 37  1  0
  7 38  1  0
  8 39  1  0
  8 40  1  0
 11 41  1  0
 12 42  1  0
 13 43  1  0
 14 44  1  0
 17 45  1  0
 17 46  1  0
 17 47  1  0
 19 48  1  0
 20 49  1  0
 21 50  1  0
M  CHG  2   8   1  16   1
M  END
>  <UniqueID>  (10) 
10

>  <SMILES>  (10) 
CCN(CC)CC[NH2+]c1c2ccccc2[n+](C)c2cccc(Br)c12

>  <Energy>  (10) 
106.23815806723489

>  <Genealogy>  (10) 
CCN(CC)CC[NH2+]c1c2ccccc2[n+](C)c2cccc(Br)c12 (protonated)
CCN(CC)CC[NH2+]c1c2ccccc2[n+](C)c2cccc(Br)c12 (3D coordinates assigned)
CCN(CC)CC[NH2+]c1c2ccccc2[n+](C)c2cccc(Br)c12 (optimized conformer: 106.23815806723489 kcal/mol)

>  <smiles>  (10) 
CCN(CC)CCNc1c2ccccc2[n+](C)c2cccc(Br)c12

>  <score_type>  (10) 
oracle

>  <origin>  (10) 
adg

>  <m_score__min__energy>  (10) 
-7.7400000000000002

>  <m_primary>  (10) 
energy

$$$$
10:0
     RDKit          3D

 41 44  0  0  0  0  0  0  0  0999 V2000
   -5.8260   14.9050  -33.9220 C   0  0  0  0  0  0  0  0  0  0  0  0
   -6.0720   16.3690  -33.7000 C   0  0  0  0  0  0  0  0  0  0  0  0
   -5.0920   17.3020  -34.0590 C   0  0  0  0  0  0  0  0  0  0  0  0
   -5.3040   18.6730  -33.8270 C   0  0  0  0  0  0  0  0  0  0  0  0
   -4.3520   19.6440  -34.1890 O   0  0  0  0  0  0  0  0  0  0  0  0
   -3.1080   19.8730  -33.5260 C   0  0  0  0  0  0  0  0  0  0  0  0
   -3.1980   21.0780  -32.6380 C   0  0  0  0  0  0  0  0  0  0  0  0
   -4.3510   21.7140  -32.3520 N   0  0  0  0  0  0  0  0  0  0  0  0
   -3.9610   22.6940  -31.5070 C   0  0  0  0  0  0  0  0  0  0  0  0
   -4.8810   23.6730  -30.9230 C   0  0  0  0  0  0  0  0  0  0  0  0
   -6.2300   23.4720  -30.6560 C   0  0  0  0  0  0  0  0  0  0  0  0
   -6.8520   24.5950  -30.0990 C   0  0  0  0  0  0  0  0  0  0  0  0
   -6.0000   25.6790  -29.9270 C   0  0  0  0  0  0  0  0  0  0  0  0
   -4.4690   25.2380  -30.4670 S   0  0  0  0  0  0  0  0  0  0  0  0
   -2.6680   22.6760  -31.2630 O   0  0  0  0  0  0  0  0  0  0  0  0
   -2.1680   21.6770  -31.9450 C   0  0  0  0  0  0  0  0  0  0  0  0
   -0.7230   21.2980  -31.9560 C   0  0  0  0  0  0  0  0  0  0  0  0
   -6.5020   19.0800  -33.2130 C   0  0  0  0  0  0  0  0  0  0  0  0
   -6.7680   20.4390  -32.9560 C   0  0  0  0  0  0  0  0  0  0  0  0
   -7.9650   20.8190  -32.3430 C   0  0  0  0  0  0  0  0  0  0  0  0
   -8.9070   19.8540  -31.9810 C   0  0  0  0  0  0  0  0  0  0  0  0
   -8.6580   18.5020  -32.2300 C   0  0  0  0  0  0  0  0  0  0  0  0
   -7.4600   18.1040  -32.8470 C   0  0  0  0  0  0  0  0  0  0  0  0
   -7.2180   16.7850  -33.0920 N   0  0  0  0  0  0  0  0  0  0  0  0
   -5.7405   14.3961  -32.9505 H   0  0  0  0  0  0  0  0  0  0  0  0
   -6.6643   14.4742  -34.4891 H   0  0  0  0  0  0  0  0  0  0  0  0
   -4.8929   14.7718  -34.4891 H   0  0  0  0  0  0  0  0  0  0  0  0
   -4.1545   16.9623  -34.5234 H   0  0  0  0  0  0  0  0  0  0  0  0
   -2.8556   18.9927  -32.9166 H   0  0  0  0  0  0  0  0  0  0  0  0
   -2.3292   20.0473  -34.2830 H   0  0  0  0  0  0  0  0  0  0  0  0
   -6.7548   22.5273  -30.8614 H   0  0  0  0  0  0  0  0  0  0  0  0
   -7.9166   24.6175  -29.8230 H   0  0  0  0  0  0  0  0  0  0  0  0
   -6.2788   26.6577  -29.5094 H   0  0  0  0  0  0  0  0  0  0  0  0
   -0.3610   21.2030  -30.9216 H   0  0  0  0  0  0  0  0  0  0  0  0
   -0.5999   20.3372  -32.4772 H   0  0  0  0  0  0  0  0  0  0  0  0
   -0.1442   22.0747  -32.4772 H   0  0  0  0  0  0  0  0  0  0  0  0
   -6.0305   21.2045  -33.2390 H   0  0  0  0  0  0  0  0  0  0  0  0
   -8.1658   21.8822  -32.1449 H   0  0  0  0  0  0  0  0  0  0  0  0
   -9.8474   20.1590  -31.4986 H   0  0  0  0  0  0  0  0  0  0  0  0
   -9.4031   17.7458  -31.9418 H   0  0  0  0  0  0  0  0  0  0  0  0
   -7.9300   16.0710  -32.8090 H   0  0  0  0  0  0  0  0  0  0  0  0
  1  2  1  0
  2  3  2  0
  3  4  1  0
  4  5  1  0
  5  6  1  0
  6  7  1  0
  7  8  1  0
  8  9  2  0
  9 10  1  0
 10 11  2  0
 11 12  1  0
 12 13  2  0
 13 14  1  0
  9 15  1  0
 15 16  1  0
 16 17  1  0
  4 18  2  0
 18 19  1  0
 19 20  2  0
 20 21  1  0
 21 22  2  0
 22 23  1  0
 23 24  2  0
 24  2  1  0
 16  7  2  0
 23 18  1  0
 14 10  1  0
  1 25  1  0
  1 26  1  0
  1 27  1  0
  3 28  1  0
  6 29  1  0
  6 30  1  0
 11 31  1  0
 12 32  1  0
 13 33  1  0
 17 34  1  0
 17 35  1  0
 17 36  1  0
 19 37  1  0
 20 38  1  0
 21 39  1  0
 22 40  1  0
 24 41  1  0
M  CHG  1  24   1
M  END
>  <UniqueID>  (11) 
11

>  <SMILES>  (11) 
Cc1cc(OCc2nc(-c3cccs3)oc2C)c2ccccc2[nH+]1

>  <Energy>  (11) 
100.54276535980951

>  <Genealogy>  (11) 
Cc1cc(OCc2nc(-c3cccs3)oc2C)c2ccccc2[nH+]1 (protonated)
Cc1cc(OCc2nc(-c3cccs3)oc2C)c2ccccc2[nH+]1 (3D coordinates assigned)
Cc1cc(OCc2nc(-c3cccs3)oc2C)c2ccccc2[nH+]1 (optimized conformer: 100.54276535980951 kcal/mol)

>  <smiles>  (11) 
Cc1cc(OCc2nc(-c3cccs3)oc2C)c2ccccc2n1

>  <score_type>  (11) 
oracle

>  <origin>  (11) 
adg

>  <m_score__min__energy>  (11) 
-7.7699999999999996

>  <m_primary>  (11) 
energy

$$$$
11:0
     RDKit          3D

 48 50  0  0  0  0  0  0  0  0999 V2000
    0.7850   21.6240  -35.6600 C   0  0  0  0  0  0  0  0  0  0  0  0
    0.1230   20.8900  -34.4910 C   0  0  0  0  0  0  0  0  0  0  0  0
   -1.2300   21.3980  -34.2020 N   0  0  0  0  0  0  0  0  0  0  0  0
   -1.4930   21.4980  -32.7540 C   0  0  0  0  0  0  0  0  0  0  0  0
   -2.9450   21.9180  -32.4740 C   0  0  0  0  0  0  0  0  0  0  0  0
   -3.8630   21.3640  -33.4730 N   0  0  0  0  0  0  0  0  0  0  0  0
   -5.0770   20.6880  -33.1000 C   0  0  0  0  0  0  0  0  0  0  0  0
   -6.1280   21.4280  -32.5230 C   0  0  0  0  0  0  0  0  0  0  0  0
   -5.9690   22.8010  -32.2210 C   0  0  0  0  0  0  0  0  0  0  0  0
   -7.0310   23.5530  -31.7300 C   0  0  0  0  0  0  0  0  0  0  0  0
   -8.2720   22.9610  -31.5390 C   0  0  0  0  0  0  0  0  0  0  0  0
   -8.4520   21.6060  -31.8130 C   0  0  0  0  0  0  0  0  0  0  0  0
   -7.3770   20.8020  -32.2760 C   0  0  0  0  0  0  0  0  0  0  0  0
   -7.5350   19.4510  -32.5170 N   0  0  0  0  0  0  0  0  0  0  0  0
   -8.7380   18.7500  -32.0120 C   0  0  0  0  0  0  0  0  0  0  0  0
   -6.5550   18.7450  -33.1870 C   0  0  0  0  0  0  0  0  0  0  0  0
   -6.8010   17.4420  -33.6850 C   0  0  0  0  0  0  0  0  0  0  0  0
   -5.7870   16.6880  -34.2630 C   0  0  0  0  0  0  0  0  0  0  0  0
   -4.5000   17.1960  -34.3450 C   0  0  0  0  0  0  0  0  0  0  0  0
   -4.2150   18.5000  -33.9040 C   0  0  0  0  0  0  0  0  0  0  0  0
   -2.8950   18.9830  -33.9230 O   0  0  0  0  0  0  0  0  0  0  0  0
   -1.7250   18.1770  -33.8290 C   0  0  0  0  0  0  0  0  0  0  0  0
   -5.2700   19.3200  -33.4050 C   0  0  0  0  0  0  0  0  0  0  0  0
    1.4740   22.3879  -35.2704 H   0  0  0  0  0  0  0  0  0  0  0  0
    1.3453   20.9042  -36.2748 H   0  0  0  0  0  0  0  0  0  0  0  0
    0.0114   22.1073  -36.2748 H   0  0  0  0  0  0  0  0  0  0  0  0
    0.0532   19.8207  -34.7394 H   0  0  0  0  0  0  0  0  0  0  0  0
    0.7417   21.0567  -33.5969 H   0  0  0  0  0  0  0  0  0  0  0  0
   -1.9440   20.7760  -34.6470 H   0  0  0  0  0  0  0  0  0  0  0  0
   -1.3140   22.3410  -34.6440 H   0  0  0  0  0  0  0  0  0  0  0  0
   -1.3078   20.5187  -32.2884 H   0  0  0  0  0  0  0  0  0  0  0  0
   -0.8245   22.2636  -32.3334 H   0  0  0  0  0  0  0  0  0  0  0  0
   -3.2374   21.5538  -31.4781 H   0  0  0  0  0  0  0  0  0  0  0  0
   -3.0035   23.0155  -32.5204 H   0  0  0  0  0  0  0  0  0  0  0  0
   -3.5200   21.2720  -34.4570 H   0  0  0  0  0  0  0  0  0  0  0  0
   -4.9914   23.2807  -32.3768 H   0  0  0  0  0  0  0  0  0  0  0  0
   -6.8875   24.6175  -31.4929 H   0  0  0  0  0  0  0  0  0  0  0  0
   -9.1158   23.5628  -31.1704 H   0  0  0  0  0  0  0  0  0  0  0  0
   -9.4434   21.1520  -31.6681 H   0  0  0  0  0  0  0  0  0  0  0  0
   -8.7303   18.7545  -30.9120 H   0  0  0  0  0  0  0  0  0  0  0  0
   -9.6408   19.2634  -32.3745 H   0  0  0  0  0  0  0  0  0  0  0  0
   -8.7364   17.7114  -32.3745 H   0  0  0  0  0  0  0  0  0  0  0  0
   -7.8139   17.0190  -33.6128 H   0  0  0  0  0  0  0  0  0  0  0  0
   -6.0064   15.6846  -34.6568 H   0  0  0  0  0  0  0  0  0  0  0  0
   -3.6938   16.5727  -34.7592 H   0  0  0  0  0  0  0  0  0  0  0  0
   -1.4801   18.0083  -32.7700 H   0  0  0  0  0  0  0  0  0  0  0  0
   -1.9050   17.2104  -34.3222 H   0  0  0  0  0  0  0  0  0  0  0  0
   -0.8860   18.6896  -34.3222 H   0  0  0  0  0  0  0  0  0  0  0  0
  1  2  1  0
  2  3  1  0
  3  4  1  0
  4  5  1  0
  5  6  1  0
  6  7  1  0
  7  8  2  0
  8  9  1  0
  9 10  2  0
 10 11  1  0
 11 12  2  0
 12 13  1  0
 13 14  2  0
 14 15  1  0
 14 16  1  0
 16 17  2  0
 17 18  1  0
 18 19  2  0
 19 20  1  0
 20 21  1  0
 21 22  1  0
 20 23  2  0
 23  7  1  0
 13  8  1  0
 23 16  1  0
  1 24  1  0
  1 25  1  0
  1 26  1  0
  2 27  1  0
  2 28  1  0
  3 29  1  0
  3 30  1  0
  4 31  1  0
  4 32  1  0
  5 33  1  0
  5 34  1  0
  6 35  1  0
  9 36  1  0
 10 37  1  0
 11 38  1  0
 12 39  1  0
 15 40  1  0
 15 41  1  0
 15 42  1  0
 17 43  1  0
 18 44  1  0
 19 45  1  0
 22 46  1  0
 22 47  1  0
 22 48  1  0
M  CHG  2   3   1  14   1
M  END
>  <UniqueID>  (12) 
12

>  <SMILES>  (12) 
CC[NH2+]CCNc1c2ccccc2[n+](C)c2cccc(OC)c12

>  <Energy>  (12) 
75.68756296857049

>  <Genealogy>  (12) 
CC[NH2+]CCNc1c2ccccc2[n+](C)c2cccc(OC)c12 (protonated)
CC[NH2+]CCNc1c2ccccc2[n+](C)c2cccc(OC)c12 (3D coordinates assigned)
CC[NH2+]CCNc1c2ccccc2[n+](C)c2cccc(OC)c12 (optimized conformer: 75.68756296857049 kcal/mol)

>  <smiles>  (12) 
CCNCCNc1c2ccccc2[n+](C)c2cccc(OC)c12

>  <score_type>  (12) 
oracle

>  <origin>  (12) 
adg

>  <m_score__min__energy>  (12) 
-6.4500000000000002

>  <m_primary>  (12) 
energy

$$$$
12:0
     RDKit          3D

 50 52  0  0  0  0  0  0  0  0999 V2000
   -1.0360   16.7680  -35.2980 C   0  0  0  0  0  0  0  0  0  0  0  0
   -1.9920   17.1200  -34.3030 O   0  0  0  0  0  0  0  0  0  0  0  0
   -2.9570   16.2450  -33.7770 C   0  0  0  0  0  0  0  0  0  0  0  0
   -2.6020   15.1760  -32.9280 C   0  0  0  0  0  0  0  0  0  0  0  0
   -3.5790   14.3140  -32.4270 C   0  0  0  0  0  0  0  0  0  0  0  0
   -4.9180   14.4980  -32.7680 C   0  0  0  0  0  0  0  0  0  0  0  0
   -5.2860   15.5510  -33.6080 C   0  0  0  0  0  0  0  0  0  0  0  0
   -4.3170   16.4390  -34.1070 C   0  0  0  0  0  0  0  0  0  0  0  0
   -4.7520   17.5600  -35.0210 C   0  0  0  0  0  0  0  0  0  0  0  0
   -4.3060   18.8220  -34.5240 O   0  0  0  0  0  0  0  0  0  0  0  0
   -5.0590   19.7020  -33.7250 C   0  0  0  0  0  0  0  0  0  0  0  0
   -6.4170   19.4670  -33.4510 C   0  0  0  0  0  0  0  0  0  0  0  0
   -7.1570   20.3630  -32.6820 C   0  0  0  0  0  0  0  0  0  0  0  0
   -6.5580   21.5270  -32.1730 C   0  0  0  0  0  0  0  0  0  0  0  0
   -7.2760   22.4740  -31.4050 C   0  0  0  0  0  0  0  0  0  0  0  0
   -8.7360   22.2950  -31.0730 C   0  0  0  0  0  0  0  0  0  0  0  0
   -6.6060   23.6130  -30.9430 C   0  0  0  0  0  0  0  0  0  0  0  0
   -5.2570   23.7840  -31.2520 C   0  0  0  0  0  0  0  0  0  0  0  0
   -4.6450   24.8070  -30.8450 O   0  0  0  0  0  0  0  0  0  0  0  0
   -4.6120   22.8770  -31.9730 O   0  0  0  0  0  0  0  0  0  0  0  0
   -5.1880   21.7700  -32.4360 C   0  0  0  0  0  0  0  0  0  0  0  0
   -4.4290   20.8480  -33.1910 C   0  0  0  0  0  0  0  0  0  0  0  0
   -2.9490   21.1070  -33.4570 C   0  0  0  0  0  0  0  0  0  0  0  0
   -2.1080   19.8820  -33.4850 N   0  0  0  0  0  0  0  0  0  0  0  0
   -1.8010   19.3730  -32.1370 C   0  0  0  0  0  0  0  0  0  0  0  0
   -0.8700   20.0610  -34.2640 C   0  0  0  0  0  0  0  0  0  0  0  0
   -0.1098   16.4270  -34.8123 H   0  0  0  0  0  0  0  0  0  0  0  0
   -1.4402   15.9597  -35.9252 H   0  0  0  0  0  0  0  0  0  0  0  0
   -0.8195   17.6454  -35.9252 H   0  0  0  0  0  0  0  0  0  0  0  0
   -1.5469   15.0204  -32.6586 H   0  0  0  0  0  0  0  0  0  0  0  0
   -3.2914   13.4870  -31.7611 H   0  0  0  0  0  0  0  0  0  0  0  0
   -5.6846   13.8138  -32.3754 H   0  0  0  0  0  0  0  0  0  0  0  0
   -6.3428   15.6868  -33.8815 H   0  0  0  0  0  0  0  0  0  0  0  0
   -4.3256   17.3954  -36.0216 H   0  0  0  0  0  0  0  0  0  0  0  0
   -5.8509   17.5688  -35.0695 H   0  0  0  0  0  0  0  0  0  0  0  0
   -6.9024   18.5636  -33.8489 H   0  0  0  0  0  0  0  0  0  0  0  0
   -8.2171   20.1574  -32.4722 H   0  0  0  0  0  0  0  0  0  0  0  0
   -8.8644   22.2793  -29.9806 H   0  0  0  0  0  0  0  0  0  0  0  0
   -9.3136   23.1291  -31.4981 H   0  0  0  0  0  0  0  0  0  0  0  0
   -9.0950   21.3461  -31.4981 H   0  0  0  0  0  0  0  0  0  0  0  0
   -7.1382   24.3654  -30.3424 H   0  0  0  0  0  0  0  0  0  0  0  0
   -2.8571   21.6100  -34.4309 H   0  0  0  0  0  0  0  0  0  0  0  0
   -2.5821   21.7213  -32.6215 H   0  0  0  0  0  0  0  0  0  0  0  0
   -2.6680   19.1410  -33.9700 H   0  0  0  0  0  0  0  0  0  0  0  0
   -2.2147   20.0589  -31.3831 H   0  0  0  0  0  0  0  0  0  0  0  0
   -2.2486   18.3762  -32.0107 H   0  0  0  0  0  0  0  0  0  0  0  0
   -0.7105   19.3039  -32.0107 H   0  0  0  0  0  0  0  0  0  0  0  0
   -0.0194   20.1840  -33.5775 H   0  0  0  0  0  0  0  0  0  0  0  0
   -0.7047   19.1774  -34.8980 H   0  0  0  0  0  0  0  0  0  0  0  0
   -0.9618   20.9552  -34.8980 H   0  0  0  0  0  0  0  0  0  0  0  0
  1  2  1  0
  2  3  1  0
  3  4  2  0
  4  5  1  0
  5  6  2  0
  6  7  1  0
  7  8  2  0
  8  9  1  0
  9 10  1  0
 10 11  1  0
 11 12  2  0
 12 13  1  0
 13 14  2  0
 14 15  1  0
 15 16  1  0
 15 17  2  0
 17 18  1  0
 18 19  2  0
 18 20  1  0
 20 21  1  0
 21 22  2  0
 22 23  1  0
 23 24  1  0
 24 25  1  0
 24 26  1  0
  8  3  1  0
 22 11  1  0
 21 14  1  0
  1 27  1  0
  1 28  1  0
  1 29  1  0
  4 30  1  0
  5 31  1  0
  6 32  1  0
  7 33  1  0
  9 34  1  0
  9 35  1  0
 12 36  1  0
 13 37  1  0
 16 38  1  0
 16 39  1  0
 16 40  1  0
 17 41  1  0
 23 42  1  0
 23 43  1  0
 24 44  1  0
 25 45  1  0
 25 46  1  0
 25 47  1  0
 26 48  1  0
 26 49  1  0
 26 50  1  0
M  CHG  1  24   1
M  END
>  <UniqueID>  (13) 
13

>  <SMILES>  (13) 
COc1ccccc1COc1ccc2c(C)cc(=O)oc2c1C[NH+](C)C

>  <Energy>  (13) 
60.354013777183255

>  <Genealogy>  (13) 
COc1ccccc1COc1ccc2c(C)cc(=O)oc2c1C[NH+](C)C (protonated)
COc1ccccc1COc1ccc2c(C)cc(=O)oc2c1C[NH+](C)C (3D coordinates assigned)
COc1ccccc1COc1ccc2c(C)cc(=O)oc2c1C[NH+](C)C (optimized conformer: 60.354013777183255 kcal/mol)

>  <smiles>  (13) 
COc1ccccc1COc1ccc2c(C)cc(=O)oc2c1CN(C)C

>  <score_type>  (13) 
oracle

>  <origin>  (13) 
adg

>  <m_score__min__energy>  (13) 
-7.96

>  <m_primary>  (13) 
energy

$$$$
13:0
     RDKit          3D

 53 55  0  0  0  0  0  0  0  0999 V2000
   -3.2720   21.9420  -29.5480 C   0  0  0  0  0  0  0  0  0  0  0  0
   -4.2040   22.3270  -28.3930 C   0  0  0  0  0  0  0  0  0  0  0  0
   -4.6650   23.7490  -28.4860 N   0  0  0  0  0  0  0  0  0  0  0  0
   -4.1990   24.5530  -27.3250 C   0  0  0  0  0  0  0  0  0  0  0  0
   -2.6720   24.5500  -27.1810 C   0  0  0  0  0  0  0  0  0  0  0  0
   -4.1880   24.3760  -29.7530 C   0  0  0  0  0  0  0  0  0  0  0  0
   -5.3580   24.6840  -30.7130 C   0  0  0  0  0  0  0  0  0  0  0  0
   -6.1900   23.4200  -31.0220 C   0  0  0  0  0  0  0  0  0  0  0  0
   -5.9170   22.9160  -32.3690 N   0  0  0  0  0  0  0  0  0  0  0  0
   -5.8010   21.5080  -32.6410 C   0  0  0  0  0  0  0  0  0  0  0  0
   -6.9190   20.6690  -32.5000 C   0  0  0  0  0  0  0  0  0  0  0  0
   -8.1360   21.1630  -31.9800 C   0  0  0  0  0  0  0  0  0  0  0  0
   -9.2330   20.3220  -31.8190 C   0  0  0  0  0  0  0  0  0  0  0  0
   -9.1370   18.9780  -32.1640 C   0  0  0  0  0  0  0  0  0  0  0  0
   -7.9530   18.4730  -32.7010 C   0  0  0  0  0  0  0  0  0  0  0  0
   -6.8310   19.3130  -32.9140 C   0  0  0  0  0  0  0  0  0  0  0  0
   -5.6810   18.8500  -33.5260 N   0  0  0  0  0  0  0  0  0  0  0  0
   -5.7020   17.5720  -34.2690 C   0  0  0  0  0  0  0  0  0  0  0  0
   -4.5230   19.5990  -33.4710 C   0  0  0  0  0  0  0  0  0  0  0  0
   -3.2630   19.0520  -33.8220 C   0  0  0  0  0  0  0  0  0  0  0  0
   -2.1020   19.8240  -33.7700 C   0  0  0  0  0  0  0  0  0  0  0  0
   -2.1610   21.1460  -33.3440 C   0  0  0  0  0  0  0  0  0  0  0  0
   -1.0260   21.8840  -33.2720 F   0  0  0  0  0  0  0  0  0  0  0  0
   -3.3790   21.7020  -32.9610 C   0  0  0  0  0  0  0  0  0  0  0  0
   -4.5700   20.9510  -33.0320 C   0  0  0  0  0  0  0  0  0  0  0  0
   -2.3271   21.5517  -29.1421 H   0  0  0  0  0  0  0  0  0  0  0  0
   -3.7531   21.1690  -30.1652 H   0  0  0  0  0  0  0  0  0  0  0  0
   -3.0672   22.8292  -30.1652 H   0  0  0  0  0  0  0  0  0  0  0  0
   -5.0841   21.6675  -28.4135 H   0  0  0  0  0  0  0  0  0  0  0  0
   -3.6412   22.2158  -27.4544 H   0  0  0  0  0  0  0  0  0  0  0  0
   -5.7140   23.7880  -28.4800 H   0  0  0  0  0  0  0  0  0  0  0  0
   -4.5386   25.5910  -27.4562 H   0  0  0  0  0  0  0  0  0  0  0  0
   -4.6205   24.1004  -26.4154 H   0  0  0  0  0  0  0  0  0  0  0  0
   -2.4043   24.5495  -26.1141 H   0  0  0  0  0  0  0  0  0  0  0  0
   -2.2600   23.6510  -27.6628 H   0  0  0  0  0  0  0  0  0  0  0  0
   -2.2565   25.4473  -27.6628 H   0  0  0  0  0  0  0  0  0  0  0  0
   -3.6676   25.3148  -29.5124 H   0  0  0  0  0  0  0  0  0  0  0  0
   -3.5113   23.6674  -30.2530 H   0  0  0  0  0  0  0  0  0  0  0  0
   -6.0119   25.4366  -30.2483 H   0  0  0  0  0  0  0  0  0  0  0  0
   -4.9373   25.0576  -31.6582 H   0  0  0  0  0  0  0  0  0  0  0  0
   -5.9387   22.6385  -30.2899 H   0  0  0  0  0  0  0  0  0  0  0  0
   -7.2561   23.6842  -30.9611 H   0  0  0  0  0  0  0  0  0  0  0  0
   -5.7320   23.6020  -33.1380 H   0  0  0  0  0  0  0  0  0  0  0  0
   -8.2174   22.2235  -31.6994 H   0  0  0  0  0  0  0  0  0  0  0  0
  -10.1768   20.7205  -31.4186 H   0  0  0  0  0  0  0  0  0  0  0  0
   -9.9983   18.3107  -32.0127 H   0  0  0  0  0  0  0  0  0  0  0  0
   -7.8888   17.4067  -32.9633 H   0  0  0  0  0  0  0  0  0  0  0  0
   -5.7158   16.7339  -33.5567 H   0  0  0  0  0  0  0  0  0  0  0  0
   -6.6010   17.5304  -34.9016 H   0  0  0  0  0  0  0  0  0  0  0  0
   -4.8049   17.5009  -34.9016 H   0  0  0  0  0  0  0  0  0  0  0  0
   -3.1997   18.0011  -34.1407 H   0  0  0  0  0  0  0  0  0  0  0  0
   -1.1378   19.3856  -34.0668 H   0  0  0  0  0  0  0  0  0  0  0  0
   -3.4122   22.7400  -32.5986 H   0  0  0  0  0  0  0  0  0  0  0  0
  1  2  1  0
  2  3  1  0
  3  4  1  0
  4  5  1  0
  3  6  1  0
  6  7  1  0
  7  8  1  0
  8  9  1  0
  9 10  1  0
 10 11  2  0
 11 12  1  0
 12 13  2  0
 13 14  1  0
 14 15  2  0
 15 16  1  0
 16 17  2  0
 17 18  1  0
 17 19  1  0
 19 20  2  0
 20 21  1  0
 21 22  2  0
 22 23  1  0
 22 24  1  0
 24 25  2  0
 25 10  1  0
 16 11  1  0
 25 19  1  0
  1 26  1  0
  1 27  1  0
  1 28  1  0
  2 29  1  0
  2 30  1  0
  3 31  1  0
  4 32  1  0
  4 33  1  0
  5 34  1  0
  5 35  1  0
  5 36  1  0
  6 37  1  0
  6 38  1  0
  7 39  1  0
  7 40  1  0
  8 41  1  0
  8 42  1  0
  9 43  1  0
 12 44  1  0
 13 45  1  0
 14 46  1  0
 15 47  1  0
 18 48  1  0
 18 49  1  0
 18 50  1  0
 20 51  1  0
 21 52  1  0
 24 53  1  0
M  CHG  2   3   1  17   1
M  END
>  <UniqueID>  (14) 
14

>  <SMILES>  (14) 
CC[NH+](CC)CCCNc1c2ccccc2[n+](C)c2ccc(F)cc12

>  <Energy>  (14) 
80.50383407818404

>  <Genealogy>  (14) 
CC[NH+](CC)CCCNc1c2ccccc2[n+](C)c2ccc(F)cc12 (protonated)
CC[NH+](CC)CCCNc1c2ccccc2[n+](C)c2ccc(F)cc12 (3D coordinates assigned)
CC[NH+](CC)CCCNc1c2ccccc2[n+](C)c2ccc(F)cc12 (optimized conformer: 80.50383407818404 kcal/mol)

>  <smiles>  (14) 
CCN(CC)CCCNc1c2ccccc2[n+](C)c2ccc(F)cc12

>  <score_type>  (14) 
oracle

>  <origin>  (14) 
adg

>  <m_score__min__energy>  (14) 
-7.0300000000000002

>  <m_primary>  (14) 
energy

$$$$
14:0
     RDKit          3D

 55 58  0  0  0  0  0  0  0  0999 V2000
   -6.1170   25.4790  -29.7060 C   0  0  0  0  0  0  0  0  0  0  0  0
   -5.0930   24.7680  -30.5400 C   0  0  0  0  0  0  0  0  0  0  0  0
   -3.9500   25.2890  -30.6570 O   0  0  0  0  0  0  0  0  0  0  0  0
   -5.3990   23.5260  -31.2210 N   0  0  0  0  0  0  0  0  0  0  0  0
   -6.8150   23.1250  -31.3920 C   0  0  0  0  0  0  0  0  0  0  0  0
   -6.9910   21.6040  -31.2860 C   0  0  0  0  0  0  0  0  0  0  0  0
   -5.9920   20.9300  -32.1670 C   0  0  0  0  0  0  0  0  0  0  0  0
   -4.7750   21.4870  -32.4620 C   0  0  0  0  0  0  0  0  0  0  0  0
   -4.1020   20.5730  -33.2540 C   0  0  0  0  0  0  0  0  0  0  0  0
   -2.7270   20.7140  -33.8500 C   0  0  0  0  0  0  0  0  0  0  0  0
   -1.6720   20.1860  -32.9520 N   0  0  0  0  0  0  0  0  0  0  0  0
   -0.6230   21.2190  -32.7070 C   0  0  0  0  0  0  0  0  0  0  0  0
   -0.7950   21.9170  -31.3520 C   0  0  0  0  0  0  0  0  0  0  0  0
   -0.6950   20.9420  -30.2440 N   0  0  0  0  0  0  0  0  0  0  0  0
   -1.1410   21.4880  -28.9430 C   0  0  0  0  0  0  0  0  0  0  0  0
   -1.7530   20.4540  -28.0260 C   0  0  0  0  0  0  0  0  0  0  0  0
   -1.0260   19.3880  -27.4720 C   0  0  0  0  0  0  0  0  0  0  0  0
   -1.7880   18.5490  -26.6700 C   0  0  0  0  0  0  0  0  0  0  0  0
   -3.3660   19.1210  -26.6710 S   0  0  0  0  0  0  0  0  0  0  0  0
   -3.1010   20.4410  -27.6760 C   0  0  0  0  0  0  0  0  0  0  0  0
   -1.2330   19.5960  -30.5600 C   0  0  0  0  0  0  0  0  0  0  0  0
   -2.2650   19.6470  -31.6960 C   0  0  0  0  0  0  0  0  0  0  0  0
   -4.9490   19.4810  -33.3950 C   0  0  0  0  0  0  0  0  0  0  0  0
   -6.0920   19.6990  -32.7110 N   0  0  0  0  0  0  0  0  0  0  0  0
   -7.2330   18.7950  -32.6350 C   0  0  0  0  0  0  0  0  0  0  0  0
   -4.3290   22.8330  -31.9740 C   0  0  0  0  0  0  0  0  0  0  0  0
   -5.8936   25.3239  -28.6401 H   0  0  0  0  0  0  0  0  0  0  0  0
   -6.0919   26.5550  -29.9331 H   0  0  0  0  0  0  0  0  0  0  0  0
   -7.1164   25.0795  -29.9331 H   0  0  0  0  0  0  0  0  0  0  0  0
   -7.4194   23.6091  -30.6108 H   0  0  0  0  0  0  0  0  0  0  0  0
   -7.1417   23.4390  -32.3944 H   0  0  0  0  0  0  0  0  0  0  0  0
   -6.8349   21.2876  -30.2441 H   0  0  0  0  0  0  0  0  0  0  0  0
   -8.0076   21.3274  -31.6022 H   0  0  0  0  0  0  0  0  0  0  0  0
   -2.6938   20.1602  -34.7999 H   0  0  0  0  0  0  0  0  0  0  0  0
   -2.5339   21.7857  -34.0053 H   0  0  0  0  0  0  0  0  0  0  0  0
   -1.2030   19.3890  -33.4470 H   0  0  0  0  0  0  0  0  0  0  0  0
    0.3636   20.7333  -32.7315 H   0  0  0  0  0  0  0  0  0  0  0  0
   -0.7154   21.9837  -33.4923 H   0  0  0  0  0  0  0  0  0  0  0  0
   -0.0089   22.6776  -31.2355 H   0  0  0  0  0  0  0  0  0  0  0  0
   -1.7891   22.3869  -31.3204 H   0  0  0  0  0  0  0  0  0  0  0  0
   -0.2709   21.9302  -28.4356 H   0  0  0  0  0  0  0  0  0  0  0  0
   -1.9243   22.2298  -29.1580 H   0  0  0  0  0  0  0  0  0  0  0  0
    0.0472   19.2322  -27.6562 H   0  0  0  0  0  0  0  0  0  0  0  0
   -1.4217   17.6643  -26.1287 H   0  0  0  0  0  0  0  0  0  0  0  0
   -3.8598   21.1681  -28.0009 H   0  0  0  0  0  0  0  0  0  0  0  0
   -0.4018   18.9424  -30.8631 H   0  0  0  0  0  0  0  0  0  0  0  0
   -1.7333   19.2078  -29.6606 H   0  0  0  0  0  0  0  0  0  0  0  0
   -2.6381   18.6297  -31.8853 H   0  0  0  0  0  0  0  0  0  0  0  0
   -3.0832   20.3145  -31.3878 H   0  0  0  0  0  0  0  0  0  0  0  0
   -4.7223   18.5752  -33.9765 H   0  0  0  0  0  0  0  0  0  0  0  0
   -7.4776   18.6012  -31.5802 H   0  0  0  0  0  0  0  0  0  0  0  0
   -8.0989   19.2548  -33.1337 H   0  0  0  0  0  0  0  0  0  0  0  0
   -6.9834   17.8468  -33.1337 H   0  0  0  0  0  0  0  0  0  0  0  0
   -3.4574   22.7024  -31.3158 H   0  0  0  0  0  0  0  0  0  0  0  0
   -4.0738   23.4474  -32.8500 H   0  0  0  0  0  0  0  0  0  0  0  0
  1  2  1  0
  2  3  2  0
  2  4  1  0
  4  5  1  0
  5  6  1  0
  6  7  1  0
  7  8  2  0
  8  9  1  0
  9 10  1  0
 10 11  1  0
 11 12  1  0
 12 13  1  0
 13 14  1  0
 14 15  1  0
 15 16  1  0
 16 17  1  0
 17 18  2  0
 18 19  1  0
 19 20  1  0
 14 21  1  0
 21 22  1  0
  9 23  2  0
 23 24  1  0
 24 25  1  0
  8 26  1  0
 26  4  1  0
 24  7  1  0
 22 11  1  0
 20 16  2  0
  1 27  1  0
  1 28  1  0
  1 29  1  0
  5 30  1  0
  5 31  1  0
  6 32  1  0
  6 33  1  0
 10 34  1  0
 10 35  1  0
 11 36  1  0
 12 37  1  0
 12 38  1  0
 13 39  1  0
 13 40  1  0
 15 41  1  0
 15 42  1  0
 17 43  1  0
 18 44  1  0
 20 45  1  0
 21 46  1  0
 21 47  1  0
 22 48  1  0
 22 49  1  0
 23 50  1  0
 25 51  1  0
 25 52  1  0
 25 53  1  0
 26 54  1  0
 26 55  1  0
M  CHG  1  11   1
M  END
>  <UniqueID>  (15) 
15

>  <SMILES>  (15) 
CC(=O)N1CCc2c(c(C[NH+]3CCN(Cc4ccsc4)CC3)cn2C)C1

>  <Energy>  (15) 
122.38009977705751

>  <Genealogy>  (15) 
CC(=O)N1CCc2c(c(C[NH+]3CCN(Cc4ccsc4)CC3)cn2C)C1 (protonated)
CC(=O)N1CCc2c(c(C[NH+]3CCN(Cc4ccsc4)CC3)cn2C)C1 (3D coordinates assigned)
CC(=O)N1CCc2c(c(C[NH+]3CCN(Cc4ccsc4)CC3)cn2C)C1 (nonaromatic ring conformer: 122.38009977705751 kcal/mol)

>  <smiles>  (15) 
CC(=O)N1CCc2c(c(CN3CCN(Cc4ccsc4)CC3)cn2C)C1

>  <score_type>  (15) 
oracle

>  <origin>  (15) 
adg

>  <m_score__min__energy>  (15) 
-7.7800000000000002

>  <m_primary>  (15) 
energy

$$$$
15:0
     RDKit          3D

 51 52  0  0  0  0  0  0  0  0999 V2000
   -2.3060   20.5160  -33.4120 C   0  0  0  0  0  0  0  0  0  0  0  0
   -3.4650   21.5040  -33.4020 C   0  0  0  0  0  0  0  0  0  0  0  0
   -3.4720   22.2530  -32.1380 N   0  0  0  0  0  0  0  0  0  0  0  0
   -3.2990   21.3640  -30.9800 C   0  0  0  0  0  0  0  0  0  0  0  0
   -2.9110   22.1530  -29.7180 C   0  0  0  0  0  0  0  0  0  0  0  0
   -2.7270   23.6570  -29.9790 C   0  0  0  0  0  0  0  0  0  0  0  0
   -3.9590   24.2750  -30.4930 N   0  0  0  0  0  0  0  0  0  0  0  0
   -5.0320   24.3500  -29.4870 C   0  0  0  0  0  0  0  0  0  0  0  0
   -6.3510   24.8730  -30.0810 C   0  0  0  0  0  0  0  0  0  0  0  0
   -6.4550   24.5380  -31.5720 C   0  0  0  0  0  0  0  0  0  0  0  0
   -6.2800   23.0880  -31.7760 N   0  0  0  0  0  0  0  0  0  0  0  0
   -7.4120   22.3030  -31.2620 C   0  0  0  0  0  0  0  0  0  0  0  0
   -7.3420   20.8780  -31.7450 C   0  0  0  0  0  0  0  0  0  0  0  0
   -8.2820   19.9320  -31.3090 C   0  0  0  0  0  0  0  0  0  0  0  0
   -8.2460   18.6220  -31.7930 C   0  0  0  0  0  0  0  0  0  0  0  0
   -7.2700   18.2410  -32.7260 C   0  0  0  0  0  0  0  0  0  0  0  0
   -7.2280   16.9280  -33.2220 C   0  0  0  0  0  0  0  0  0  0  0  0
   -6.2520   16.5620  -34.1550 C   0  0  0  0  0  0  0  0  0  0  0  0
   -5.3170   17.5000  -34.5980 C   0  0  0  0  0  0  0  0  0  0  0  0
   -5.3470   18.8110  -34.1110 C   0  0  0  0  0  0  0  0  0  0  0  0
   -6.3200   19.1910  -33.1730 C   0  0  0  0  0  0  0  0  0  0  0  0
   -6.3630   20.5030  -32.6790 C   0  0  0  0  0  0  0  0  0  0  0  0
   -2.0218   20.2737  -32.3773 H   0  0  0  0  0  0  0  0  0  0  0  0
   -2.6122   19.5968  -33.9329 H   0  0  0  0  0  0  0  0  0  0  0  0
   -1.4469   20.9638  -33.9329 H   0  0  0  0  0  0  0  0  0  0  0  0
   -3.3532   22.2060  -34.2415 H   0  0  0  0  0  0  0  0  0  0  0  0
   -4.4118   20.9530  -33.5020 H   0  0  0  0  0  0  0  0  0  0  0  0
   -4.4090   22.7140  -32.0490 H   0  0  0  0  0  0  0  0  0  0  0  0
   -4.2436   20.8323  -30.7930 H   0  0  0  0  0  0  0  0  0  0  0  0
   -2.4893   20.6548  -31.2067 H   0  0  0  0  0  0  0  0  0  0  0  0
   -3.7035   22.0226  -28.9663 H   0  0  0  0  0  0  0  0  0  0  0  0
   -1.9442   21.7601  -29.3702 H   0  0  0  0  0  0  0  0  0  0  0  0
   -2.4469   24.1506  -29.0367 H   0  0  0  0  0  0  0  0  0  0  0  0
   -1.9398   23.7795  -30.7375 H   0  0  0  0  0  0  0  0  0  0  0  0
   -4.2910   23.7330  -31.3250 H   0  0  0  0  0  0  0  0  0  0  0  0
   -5.2030   23.3441  -29.0760 H   0  0  0  0  0  0  0  0  0  0  0  0
   -4.7121   25.0536  -28.7044 H   0  0  0  0  0  0  0  0  0  0  0  0
   -7.1940   24.4083  -29.5487 H   0  0  0  0  0  0  0  0  0  0  0  0
   -6.3769   25.9666  -29.9658 H   0  0  0  0  0  0  0  0  0  0  0  0
   -7.4440   24.8418  -31.9456 H   0  0  0  0  0  0  0  0  0  0  0  0
   -5.6679   25.0775  -32.1193 H   0  0  0  0  0  0  0  0  0  0  0  0
   -5.4310   22.7860  -31.2430 H   0  0  0  0  0  0  0  0  0  0  0  0
   -7.3866   22.3121  -30.1623 H   0  0  0  0  0  0  0  0  0  0  0  0
   -8.3465   22.7526  -31.6288 H   0  0  0  0  0  0  0  0  0  0  0  0
   -9.0530   20.2240  -30.5807 H   0  0  0  0  0  0  0  0  0  0  0  0
   -8.9851   17.8870  -31.4415 H   0  0  0  0  0  0  0  0  0  0  0  0
   -7.9633   16.1864  -32.8765 H   0  0  0  0  0  0  0  0  0  0  0  0
   -6.2209   15.5324  -34.5408 H   0  0  0  0  0  0  0  0  0  0  0  0
   -4.5534   17.2065  -35.3333 H   0  0  0  0  0  0  0  0  0  0  0  0
   -4.6074   19.5450  -34.4634 H   0  0  0  0  0  0  0  0  0  0  0  0
   -5.6257   21.2423  -33.0252 H   0  0  0  0  0  0  0  0  0  0  0  0
  1  2  1  0
  2  3  1  0
  3  4  1  0
  4  5  1  0
  5  6  1  0
  6  7  1  0
  7  8  1  0
  8  9  1  0
  9 10  1  0
 10 11  1  0
 11 12  1  0
 12 13  1  0
 13 14  2  0
 14 15  1  0
 15 16  2  0
 16 17  1  0
 17 18  2  0
 18 19  1  0
 19 20  2  0
 20 21  1  0
 21 22  2  0
 22 13  1  0
 21 16  1  0
  1 23  1  0
  1 24  1  0
  1 25  1  0
  2 26  1  0
  2 27  1  0
  3 28  1  0
  4 29  1  0
  4 30  1  0
  5 31  1  0
  5 32  1  0
  6 33  1  0
  6 34  1  0
  7 35  1  0
  8 36  1  0
  8 37  1  0
  9 38  1  0
  9 39  1  0
 10 40  1  0
 10 41  1  0
 11 42  1  0
 12 43  1  0
 12 44  1  0
 14 45  1  0
 15 46  1  0
 17 47  1  0
 18 48  1  0
 19 49  1  0
 20 50  1  0
 22 51  1  0
M  END
>  <UniqueID>  (16) 
16

>  <SMILES>  (16) 
CCNCCCNCCCNCc1ccc2ccccc2c1

>  <Energy>  (16) 
43.60925839382421

>  <Genealogy>  (16) 
CCNCCCNCCCNCc1ccc2ccccc2c1 (3D coordinates assigned)
CCNCCCNCCCNCc1ccc2ccccc2c1 (optimized conformer: 43.60925839382421 kcal/mol)

>  <smiles>  (16) 
CCNCCCNCCCNCc1ccc2ccccc2c1

>  <score_type>  (16) 
oracle

>  <origin>  (16) 
adg

>  <m_score__min__energy>  (16) 
-7.1600000000000001

>  <m_primary>  (16) 
energy

$$$$
16:0
     RDKit          3D

 37 38  0  0  0  0  0  0  0  0999 V2000
   -5.5100   17.1500  -32.3230 C   0  0  0  0  0  0  0  0  0  0  0  0
   -6.7870   17.8650  -32.3040 C   0  0  0  0  0  0  0  0  0  0  0  0
   -7.8370   18.4550  -32.2880 C   0  0  0  0  0  0  0  0  0  0  0  0
   -9.1200   19.1670  -32.2670 C   0  0  0  0  0  0  0  0  0  0  0  0
   -8.9380   20.5300  -32.6450 O   0  0  0  0  0  0  0  0  0  0  0  0
   -8.0590   21.4350  -32.0260 C   0  0  0  0  0  0  0  0  0  0  0  0
   -6.8630   21.8670  -32.6310 C   0  0  0  0  0  0  0  0  0  0  0  0
   -6.0220   22.7670  -31.9680 C   0  0  0  0  0  0  0  0  0  0  0  0
   -6.3650   23.2460  -30.6970 C   0  0  0  0  0  0  0  0  0  0  0  0
   -5.3270   24.3950  -29.8550 S   0  0  0  0  0  0  0  0  0  0  0  0
   -4.4160   25.0380  -30.8630 O   0  0  0  0  0  0  0  0  0  0  0  0
   -6.1640   25.4650  -29.2110 O   0  0  0  0  0  0  0  0  0  0  0  0
   -4.3890   23.5380  -28.6500 N   0  0  0  0  0  0  0  0  0  0  0  0
   -3.9730   24.4250  -27.5400 C   0  0  0  0  0  0  0  0  0  0  0  0
   -2.5180   24.9100  -27.6810 C   0  0  0  0  0  0  0  0  0  0  0  0
   -2.1780   25.0520  -29.0410 O   0  0  0  0  0  0  0  0  0  0  0  0
   -2.1060   23.7810  -29.6630 C   0  0  0  0  0  0  0  0  0  0  0  0
   -3.2510   22.8230  -29.2540 C   0  0  0  0  0  0  0  0  0  0  0  0
   -7.5560   22.8220  -30.0970 C   0  0  0  0  0  0  0  0  0  0  0  0
   -8.3960   21.9220  -30.7580 C   0  0  0  0  0  0  0  0  0  0  0  0
   -5.1784   16.9643  -31.2908 H   0  0  0  0  0  0  0  0  0  0  0  0
   -5.6347   16.1905  -32.8463 H   0  0  0  0  0  0  0  0  0  0  0  0
   -4.7572   17.7578  -32.8463 H   0  0  0  0  0  0  0  0  0  0  0  0
   -9.8137   18.6849  -32.9716 H   0  0  0  0  0  0  0  0  0  0  0  0
   -9.5315   19.1312  -31.2475 H   0  0  0  0  0  0  0  0  0  0  0  0
   -6.5889   21.4951  -33.6293 H   0  0  0  0  0  0  0  0  0  0  0  0
   -5.0887   23.0995  -32.4460 H   0  0  0  0  0  0  0  0  0  0  0  0
   -4.6364   25.3023  -27.5228 H   0  0  0  0  0  0  0  0  0  0  0  0
   -4.0415   23.8454  -26.6076 H   0  0  0  0  0  0  0  0  0  0  0  0
   -2.4091   25.8815  -27.1767 H   0  0  0  0  0  0  0  0  0  0  0  0
   -1.8482   24.1686  -27.2209 H   0  0  0  0  0  0  0  0  0  0  0  0
   -2.1460   23.9248  -30.7528 H   0  0  0  0  0  0  0  0  0  0  0  0
   -1.1646   23.3155  -29.3357 H   0  0  0  0  0  0  0  0  0  0  0  0
   -3.6031   22.2899  -30.1494 H   0  0  0  0  0  0  0  0  0  0  0  0
   -2.8539   22.1256  -28.5017 H   0  0  0  0  0  0  0  0  0  0  0  0
   -7.8320   23.1987  -29.1011 H   0  0  0  0  0  0  0  0  0  0  0  0
   -9.3296   21.5937  -30.2779 H   0  0  0  0  0  0  0  0  0  0  0  0
  1  2  1  0
  2  3  3  0
  3  4  1  0
  4  5  1  0
  5  6  1  0
  6  7  2  0
  7  8  1  0
  8  9  2  0
  9 10  1  0
 10 11  2  0
 10 12  2  0
 10 13  1  0
 13 14  1  0
 14 15  1  0
 15 16  1  0
 16 17  1  0
 17 18  1  0
  9 19  1  0
 19 20  2  0
 20  6  1  0
 18 13  1  0
  1 21  1  0
  1 22  1  0
  1 23  1  0
  4 24  1  0
  4 25  1  0
  7 26  1  0
  8 27  1  0
 14 28  1  0
 14 29  1  0
 15 30  1  0
 15 31  1  0
 17 32  1  0
 17 33  1  0
 18 34  1  0
 18 35  1  0
 19 36  1  0
 20 37  1  0
M  END
>  <UniqueID>  (17) 
17

>  <SMILES>  (17) 
CC#CCOc1ccc(S(=O)(=O)N2CCOCC2)cc1

>  <Energy>  (17) 
41.48365890261933

>  <Genealogy>  (17) 
CC#CCOc1ccc(S(=O)(=O)N2CCOCC2)cc1 (3D coordinates assigned)
CC#CCOc1ccc(S(=O)(=O)N2CCOCC2)cc1 (nonaromatic ring conformer: 41.48365890261933 kcal/mol)

>  <smiles>  (17) 
CC#CCOc1ccc(S(=O)(=O)N2CCOCC2)cc1

>  <score_type>  (17) 
oracle

>  <origin>  (17) 
adg

>  <m_score__min__energy>  (17) 
-7.79

>  <m_primary>  (17) 
energy

$$$$
17:0
     RDKit          3D

 50 52  0  0  0  0  0  0  0  0999 V2000
   -0.2728   20.2292  -33.0629 H   0  0  0  0  0  0  0  0  0  0  0  0
   -0.7440   21.0510  -33.6220 C   0  0  0  0  0  0  0  0  0  0  0  0
   -0.0610   21.5560  -34.8240 C   0  0  0  0  0  0  0  0  0  0  0  0
   -0.4310   21.1610  -35.9650 O   0  0  0  0  0  0  0  0  0  0  0  0
    1.0450   22.4060  -34.6810 O   0  0  0  0  0  0  0  0  0  0  0  0
    1.8460   22.8630  -35.7680 C   0  0  0  0  0  0  0  0  0  0  0  0
    1.8594   22.0847  -36.5452 H   0  0  0  0  0  0  0  0  0  0  0  0
    2.8525   23.0657  -35.3732 H   0  0  0  0  0  0  0  0  0  0  0  0
    1.3210   24.1760  -36.3940 C   0  0  0  0  0  0  0  0  0  0  0  0
    0.2709   24.0165  -36.6801 H   0  0  0  0  0  0  0  0  0  0  0  0
    1.9897   24.3899  -37.2408 H   0  0  0  0  0  0  0  0  0  0  0  0
    1.3780   25.3810  -35.5220 N   0  0  0  0  0  0  0  0  0  0  0  0
    0.3200   26.3830  -35.7830 C   0  0  0  0  0  0  0  0  0  0  0  0
    0.7910   27.3116  -36.1376 H   0  0  0  0  0  0  0  0  0  0  0  0
   -0.2297   26.5467  -34.8444 H   0  0  0  0  0  0  0  0  0  0  0  0
   -0.6790   25.9050  -36.8350 C   0  0  0  0  0  0  0  0  0  0  0  0
   -1.5631   25.4820  -36.3356 H   0  0  0  0  0  0  0  0  0  0  0  0
   -0.9843   26.7546  -37.4635 H   0  0  0  0  0  0  0  0  0  0  0  0
   -0.2090   25.1342  -37.4635 H   0  0  0  0  0  0  0  0  0  0  0  0
    2.7200   26.0000  -35.4640 C   0  0  0  0  0  0  0  0  0  0  0  0
    3.2611   25.6079  -34.5903 H   0  0  0  0  0  0  0  0  0  0  0  0
    3.2623   25.7563  -36.3895 H   0  0  0  0  0  0  0  0  0  0  0  0
    2.6090   27.5190  -35.3450 C   0  0  0  0  0  0  0  0  0  0  0  0
    2.5882   27.8030  -34.2825 H   0  0  0  0  0  0  0  0  0  0  0  0
    3.4752   27.9893  -35.8334 H   0  0  0  0  0  0  0  0  0  0  0  0
    1.6837   27.8584  -35.8334 H   0  0  0  0  0  0  0  0  0  0  0  0
   -1.9070   21.5370  -33.1720 C   0  0  0  0  0  0  0  0  0  0  0  0
   -1.8939   22.5235  -32.6854 H   0  0  0  0  0  0  0  0  0  0  0  0
   -3.2110   20.8420  -33.2820 C   0  0  0  0  0  0  0  0  0  0  0  0
   -3.4240   19.5810  -33.8390 C   0  0  0  0  0  0  0  0  0  0  0  0
   -2.7054   18.9794  -34.4149 H   0  0  0  0  0  0  0  0  0  0  0  0
   -4.7220   19.2450  -33.5180 C   0  0  0  0  0  0  0  0  0  0  0  0
   -5.4010   18.0650  -33.8230 C   0  0  0  0  0  0  0  0  0  0  0  0
   -4.9205   17.2675  -34.4088 H   0  0  0  0  0  0  0  0  0  0  0  0
   -6.7180   17.9300  -33.3570 C   0  0  0  0  0  0  0  0  0  0  0  0
   -7.2808   17.0085  -33.5670 H   0  0  0  0  0  0  0  0  0  0  0  0
   -7.3230   18.9680  -32.6220 C   0  0  0  0  0  0  0  0  0  0  0  0
   -9.1180   18.7860  -31.9850 Br  0  0  0  0  0  0  0  0  0  0  0  0
   -6.5920   20.1320  -32.3420 C   0  0  0  0  0  0  0  0  0  0  0  0
   -7.0456   20.9571  -31.7733 H   0  0  0  0  0  0  0  0  0  0  0  0
   -5.3040   20.2190  -32.7910 N   0  0  0  0  0  0  0  0  0  0  0  0
   -4.3870   21.2020  -32.6250 C   0  0  0  0  0  0  0  0  0  0  0  0
   -4.6030   22.4520  -31.8670 C   0  0  0  0  0  0  0  0  0  0  0  0
   -5.8820   23.5240  -32.1070 S   0  0  0  0  0  0  0  0  0  0  0  0
   -5.4150   24.6280  -30.9270 C   0  0  0  0  0  0  0  0  0  0  0  0
   -5.9541   25.5484  -30.6580 H   0  0  0  0  0  0  0  0  0  0  0  0
   -4.2340   24.1810  -30.3500 C   0  0  0  0  0  0  0  0  0  0  0  0
   -3.7058   24.7305  -29.5568 H   0  0  0  0  0  0  0  0  0  0  0  0
   -3.7790   22.9650  -30.8730 C   0  0  0  0  0  0  0  0  0  0  0  0
   -2.8606   22.4654  -30.5311 H   0  0  0  0  0  0  0  0  0  0  0  0
  1  2  1  0
  2  3  1  0
  3  4  2  0
  3  5  1  0
  5  6  1  0
  6  7  1  0
  6  8  1  0
  6  9  1  0
  9 10  1  0
  9 11  1  0
  9 12  1  0
 12 13  1  0
 13 14  1  0
 13 15  1  0
 13 16  1  0
 16 17  1  0
 16 18  1  0
 16 19  1  0
 12 20  1  0
 20 21  1  0
 20 22  1  0
 20 23  1  0
 23 24  1  0
 23 25  1  0
 23 26  1  0
  2 27  2  0
 27 28  1  0
 27 29  1  0
 29 30  1  0
 30 31  1  0
 30 32  2  0
 32 33  1  0
 33 34  1  0
 33 35  2  0
 35 36  1  0
 35 37  1  0
 37 38  1  0
 37 39  2  0
 39 40  1  0
 39 41  1  0
 41 42  1  0
 42 43  1  0
 43 44  1  0
 44 45  1  0
 45 46  1  0
 45 47  2  0
 47 48  1  0
 47 49  1  0
 49 50  1  0
 42 29  2  0
 49 43  2  0
 41 32  1  0
M  END
>  <UniqueID>  (18) 
18

>  <SMILES>  (18) 
CCN(CC)CCOC(=O)/C=C\c1cc2ccc(Br)cn2c1-c1cccs1

>  <Energy>  (18) 
120.96303542516516

>  <Genealogy>  (18) 
CCN(CC)CCOC(=O)/C=C\c1cc2ccc(Br)cn2c1-c1cccs1 (cis-trans isomerization)
CCN(CC)CCOC(=O)/C=C\c1cc2ccc(Br)cn2c1-c1cccs1 (3D coordinates assigned)
CCN(CC)CCOC(=O)/C=C\c1cc2ccc(Br)cn2c1-c1cccs1 (optimized conformer: 120.96303542516516 kcal/mol)

>  <smiles>  (18) 
CCN(CC)CCOC(=O)C=Cc1cc2ccc(Br)cn2c1-c1cccs1

>  <score_type>  (18) 
oracle

>  <origin>  (18) 
adg

>  <m_score__min__energy>  (18) 
-8.8800000000000008

>  <m_primary>  (18) 
energy

$$$$
18:0
     RDKit          3D

 67 70  0  0  0  0  0  0  0  0999 V2000
   -2.7570   20.6230  -27.9160 C   0  0  0  0  0  0  0  0  0  0  0  0
   -1.6320   21.2800  -27.1080 C   0  0  0  0  0  0  0  0  0  0  0  0
   -0.4990   21.7960  -27.9200 N   0  0  0  0  0  0  0  0  0  0  0  0
   -0.0760   20.8640  -29.0080 C   0  0  0  0  0  0  0  0  0  0  0  0
    0.3600   19.4580  -28.5620 C   0  0  0  0  0  0  0  0  0  0  0  0
    0.6010   22.3290  -27.0720 C   0  0  0  0  0  0  0  0  0  0  0  0
    1.0470   23.7470  -27.4850 C   0  0  0  0  0  0  0  0  0  0  0  0
    0.2980   24.2370  -28.5820 O   0  0  0  0  0  0  0  0  0  0  0  0
   -0.5020   25.3350  -28.1920 C   0  0  0  0  0  0  0  0  0  0  0  0
   -1.8400   24.8220  -27.6580 C   0  0  0  0  0  0  0  0  0  0  0  0
   -2.4270   23.8790  -28.5340 O   0  0  0  0  0  0  0  0  0  0  0  0
   -3.8430   23.9290  -28.5000 C   0  0  0  0  0  0  0  0  0  0  0  0
   -4.3670   24.4750  -29.8320 C   0  0  0  0  0  0  0  0  0  0  0  0
   -3.7570   23.8050  -30.9870 N   0  0  0  0  0  0  0  0  0  0  0  0
   -4.1150   22.4840  -31.4390 C   0  0  0  0  0  0  0  0  0  0  0  0
   -3.1290   21.5620  -31.8460 C   0  0  0  0  0  0  0  0  0  0  0  0
   -1.7650   21.9220  -31.8660 C   0  0  0  0  0  0  0  0  0  0  0  0
   -0.7940   21.0070  -32.2670 C   0  0  0  0  0  0  0  0  0  0  0  0
   -1.1630   19.7380  -32.6950 C   0  0  0  0  0  0  0  0  0  0  0  0
   -2.5050   19.3610  -32.7060 C   0  0  0  0  0  0  0  0  0  0  0  0
   -3.5150   20.2460  -32.2540 C   0  0  0  0  0  0  0  0  0  0  0  0
   -4.8450   19.8590  -32.2080 N   0  0  0  0  0  0  0  0  0  0  0  0
   -5.1940   18.4250  -32.2380 C   0  0  0  0  0  0  0  0  0  0  0  0
   -5.8120   20.8150  -31.9790 C   0  0  0  0  0  0  0  0  0  0  0  0
   -5.4480   22.0820  -31.5200 C   0  0  0  0  0  0  0  0  0  0  0  0
   -6.8200   22.9760  -31.1110 S   0  0  0  0  0  0  0  0  0  0  0  0
   -7.9050   21.7990  -31.6050 C   0  0  0  0  0  0  0  0  0  0  0  0
   -9.2940   21.9040  -31.6230 C   0  0  0  0  0  0  0  0  0  0  0  0
  -10.0330   20.8590  -32.1880 C   0  0  0  0  0  0  0  0  0  0  0  0
   -9.3760   19.7540  -32.7500 C   0  0  0  0  0  0  0  0  0  0  0  0
   -7.9740   19.6680  -32.7270 C   0  0  0  0  0  0  0  0  0  0  0  0
   -7.2270   20.6820  -32.0960 C   0  0  0  0  0  0  0  0  0  0  0  0
   -3.4981   20.1902  -27.2279 H   0  0  0  0  0  0  0  0  0  0  0  0
   -3.2430   21.3793  -28.5499 H   0  0  0  0  0  0  0  0  0  0  0  0
   -2.3371   19.8281  -28.5499 H   0  0  0  0  0  0  0  0  0  0  0  0
   -2.0616   22.1225  -26.5461 H   0  0  0  0  0  0  0  0  0  0  0  0
   -1.2158   20.4934  -26.4615 H   0  0  0  0  0  0  0  0  0  0  0  0
   -0.9160   22.6230  -28.4120 H   0  0  0  0  0  0  0  0  0  0  0  0
   -0.9227   20.7495  -29.7008 H   0  0  0  0  0  0  0  0  0  0  0  0
    0.8170   21.3215  -29.4589 H   0  0  0  0  0  0  0  0  0  0  0  0
    0.3749   19.4101  -27.4631 H   0  0  0  0  0  0  0  0  0  0  0  0
   -0.3494   18.7132  -28.9519 H   0  0  0  0  0  0  0  0  0  0  0  0
    1.3663   19.2452  -28.9519 H   0  0  0  0  0  0  0  0  0  0  0  0
    0.2553   22.3603  -26.0282 H   0  0  0  0  0  0  0  0  0  0  0  0
    1.4665   21.6619  -27.1979 H   0  0  0  0  0  0  0  0  0  0  0  0
    0.9113   24.4257  -26.6301 H   0  0  0  0  0  0  0  0  0  0  0  0
    2.1033   23.6976  -27.7880 H   0  0  0  0  0  0  0  0  0  0  0  0
    0.0139   25.9040  -27.4046 H   0  0  0  0  0  0  0  0  0  0  0  0
   -0.6779   25.9887  -29.0590 H   0  0  0  0  0  0  0  0  0  0  0  0
   -1.6744   24.3454  -26.6805 H   0  0  0  0  0  0  0  0  0  0  0  0
   -2.5242   25.6786  -27.5685 H   0  0  0  0  0  0  0  0  0  0  0  0
   -4.2418   22.9170  -28.3363 H   0  0  0  0  0  0  0  0  0  0  0  0
   -4.1670   24.5878  -27.6809 H   0  0  0  0  0  0  0  0  0  0  0  0
   -5.4562   24.3264  -29.8714 H   0  0  0  0  0  0  0  0  0  0  0  0
   -4.1052   25.5421  -29.8848 H   0  0  0  0  0  0  0  0  0  0  0  0
   -3.1260   24.3770  -31.5930 H   0  0  0  0  0  0  0  0  0  0  0  0
   -1.4651   22.9357  -31.5618 H   0  0  0  0  0  0  0  0  0  0  0  0
    0.2686   21.2904  -32.2446 H   0  0  0  0  0  0  0  0  0  0  0  0
   -0.3922   19.0269  -33.0270 H   0  0  0  0  0  0  0  0  0  0  0  0
   -2.7840   18.3616  -33.0710 H   0  0  0  0  0  0  0  0  0  0  0  0
   -5.2857   18.0483  -31.2086 H   0  0  0  0  0  0  0  0  0  0  0  0
   -6.1509   18.2914  -32.7639 H   0  0  0  0  0  0  0  0  0  0  0  0
   -4.4055   17.8667  -32.7639 H   0  0  0  0  0  0  0  0  0  0  0  0
   -9.7976   22.7872  -31.2031 H   0  0  0  0  0  0  0  0  0  0  0  0
  -11.1321   20.9038  -32.1916 H   0  0  0  0  0  0  0  0  0  0  0  0
   -9.9640   18.9477  -33.2128 H   0  0  0  0  0  0  0  0  0  0  0  0
   -7.4633   18.8152  -33.1982 H   0  0  0  0  0  0  0  0  0  0  0  0
  1  2  1  0
  2  3  1  0
  3  4  1  0
  4  5  1  0
  3  6  1  0
  6  7  1  0
  7  8  1  0
  8  9  1  0
  9 10  1  0
 10 11  1  0
 11 12  1  0
 12 13  1  0
 13 14  1  0
 14 15  1  0
 15 16  2  0
 16 17  1  0
 17 18  2  0
 18 19  1  0
 19 20  2  0
 20 21  1  0
 21 22  2  0
 22 23  1  0
 22 24  1  0
 24 25  2  0
 25 26  1  0
 26 27  1  0
 27 28  2  0
 28 29  1  0
 29 30  2  0
 30 31  1  0
 31 32  2  0
 25 15  1  0
 32 27  1  0
 21 16  1  0
 32 24  1  0
  1 33  1  0
  1 34  1  0
  1 35  1  0
  2 36  1  0
  2 37  1  0
  3 38  1  0
  4 39  1  0
  4 40  1  0
  5 41  1  0
  5 42  1  0
  5 43  1  0
  6 44  1  0
  6 45  1  0
  7 46  1  0
  7 47  1  0
  9 48  1  0
  9 49  1  0
 10 50  1  0
 10 51  1  0
 12 52  1  0
 12 53  1  0
 13 54  1  0
 13 55  1  0
 14 56  1  0
 17 57  1  0
 18 58  1  0
 19 59  1  0
 20 60  1  0
 23 61  1  0
 23 62  1  0
 23 63  1  0
 28 64  1  0
 29 65  1  0
 30 66  1  0
 31 67  1  0
M  CHG  2   3   1  22   1
M  END
>  <UniqueID>  (19) 
19

>  <SMILES>  (19) 
CC[NH+](CC)CCOCCOCCNc1c2ccccc2[n+](C)c2c1sc1ccccc12

>  <Energy>  (19) 
134.8502279995934

>  <Genealogy>  (19) 
CC[NH+](CC)CCOCCOCCNc1c2ccccc2[n+](C)c2c1sc1ccccc12 (protonated)
CC[NH+](CC)CCOCCOCCNc1c2ccccc2[n+](C)c2c1sc1ccccc12 (3D coordinates assigned)
CC[NH+](CC)CCOCCOCCNc1c2ccccc2[n+](C)c2c1sc1ccccc12 (optimized conformer: 134.8502279995934 kcal/mol)

>  <smiles>  (19) 
CCN(CC)CCOCCOCCNc1c2ccccc2[n+](C)c2c1sc1ccccc12

>  <score_type>  (19) 
oracle

>  <origin>  (19) 
adg

>  <m_score__min__energy>  (19) 
-9.2100000000000009

>  <m_primary>  (19) 
energy

$$$$
19:0
     RDKit          3D

 51 54  0  0  0  0  0  0  0  0999 V2000
   -6.1180   24.9880  -29.6150 C   0  0  0  0  0  0  0  0  0  0  0  0
   -5.1390   25.7570  -30.4980 C   0  0  0  0  0  0  0  0  0  0  0  0
   -3.9130   24.9820  -30.7370 N   0  0  0  0  0  0  0  0  0  0  0  0
   -3.7080   23.8970  -29.7600 C   0  0  0  0  0  0  0  0  0  0  0  0
   -3.8790   22.5260  -30.4230 C   0  0  0  0  0  0  0  0  0  0  0  0
   -4.5320   22.6400  -31.7300 N   0  0  0  0  0  0  0  0  0  0  0  0
   -5.3880   21.6040  -32.2480 C   0  0  0  0  0  0  0  0  0  0  0  0
   -6.7800   21.7610  -32.1490 C   0  0  0  0  0  0  0  0  0  0  0  0
   -7.3600   23.0330  -31.9430 C   0  0  0  0  0  0  0  0  0  0  0  0
   -8.7450   23.1820  -31.8940 C   0  0  0  0  0  0  0  0  0  0  0  0
   -9.5700   22.0750  -32.0500 C   0  0  0  0  0  0  0  0  0  0  0  0
   -9.0160   20.8050  -32.2130 C   0  0  0  0  0  0  0  0  0  0  0  0
   -7.6120   20.6180  -32.2190 C   0  0  0  0  0  0  0  0  0  0  0  0
   -7.0430   19.3610  -32.2500 N   0  0  0  0  0  0  0  0  0  0  0  0
   -7.8610   18.1770  -31.9040 C   0  0  0  0  0  0  0  0  0  0  0  0
   -5.7050   19.2150  -32.5750 C   0  0  0  0  0  0  0  0  0  0  0  0
   -5.1510   17.9410  -32.8280 C   0  0  0  0  0  0  0  0  0  0  0  0
   -3.7980   17.7650  -33.1200 C   0  0  0  0  0  0  0  0  0  0  0  0
   -3.3160   16.4330  -33.3640 N   0  0  0  0  0  0  0  0  0  0  0  0
   -3.5760   15.5190  -32.5540 O   0  0  0  0  0  0  0  0  0  0  0  0
   -2.8020   16.1040  -34.5970 O   0  0  0  0  0  0  0  0  0  0  0  0
   -2.9640   18.8900  -33.2620 C   0  0  0  0  0  0  0  0  0  0  0  0
   -1.5920   18.7420  -33.5580 C   0  0  0  0  0  0  0  0  0  0  0  0
   -0.8030   19.8530  -33.8420 C   0  0  0  0  0  0  0  0  0  0  0  0
   -1.3690   21.1210  -33.8610 C   0  0  0  0  0  0  0  0  0  0  0  0
   -2.7110   21.2930  -33.5220 C   0  0  0  0  0  0  0  0  0  0  0  0
   -3.5110   20.1950  -33.1230 C   0  0  0  0  0  0  0  0  0  0  0  0
   -4.8580   20.3540  -32.6620 C   0  0  0  0  0  0  0  0  0  0  0  0
   -5.8814   25.1739  -28.5570 H   0  0  0  0  0  0  0  0  0  0  0  0
   -7.1439   25.3242  -29.8258 H   0  0  0  0  0  0  0  0  0  0  0  0
   -6.0343   23.9116  -29.8258 H   0  0  0  0  0  0  0  0  0  0  0  0
   -5.6204   25.9727  -31.4632 H   0  0  0  0  0  0  0  0  0  0  0  0
   -4.8653   26.6894  -29.9826 H   0  0  0  0  0  0  0  0  0  0  0  0
   -3.1060   25.6450  -30.6620 H   0  0  0  0  0  0  0  0  0  0  0  0
   -2.6919   23.9726  -29.3455 H   0  0  0  0  0  0  0  0  0  0  0  0
   -4.4569   23.9972  -28.9606 H   0  0  0  0  0  0  0  0  0  0  0  0
   -2.8881   22.0676  -30.5571 H   0  0  0  0  0  0  0  0  0  0  0  0
   -4.5128   21.9047  -29.7732 H   0  0  0  0  0  0  0  0  0  0  0  0
   -4.4050   23.5210  -32.2760 H   0  0  0  0  0  0  0  0  0  0  0  0
   -6.7125   23.9137  -31.8202 H   0  0  0  0  0  0  0  0  0  0  0  0
   -9.1852   24.1769  -31.7317 H   0  0  0  0  0  0  0  0  0  0  0  0
  -10.6628   22.2002  -32.0450 H   0  0  0  0  0  0  0  0  0  0  0  0
   -9.6791   19.9364  -32.3387 H   0  0  0  0  0  0  0  0  0  0  0  0
   -7.9258   18.0832  -30.8099 H   0  0  0  0  0  0  0  0  0  0  0  0
   -8.8715   18.2945  -32.3225 H   0  0  0  0  0  0  0  0  0  0  0  0
   -7.3936   17.2734  -32.3225 H   0  0  0  0  0  0  0  0  0  0  0  0
   -5.8073   17.0589  -32.7938 H   0  0  0  0  0  0  0  0  0  0  0  0
   -1.1416   17.7385  -33.5643 H   0  0  0  0  0  0  0  0  0  0  0  0
    0.2694   19.7265  -34.0515 H   0  0  0  0  0  0  0  0  0  0  0  0
   -0.7581   21.9910  -34.1438 H   0  0  0  0  0  0  0  0  0  0  0  0
   -3.1552   22.2984  -33.5653 H   0  0  0  0  0  0  0  0  0  0  0  0
  1  2  1  0
  2  3  1  0
  3  4  1  0
  4  5  1  0
  5  6  1  0
  6  7  1  0
  7  8  2  0
  8  9  1  0
  9 10  2  0
 10 11  1  0
 11 12  2  0
 12 13  1  0
 13 14  2  0
 14 15  1  0
 14 16  1  0
 16 17  2  0
 17 18  1  0
 18 19  1  0
 19 20  2  0
 19 21  1  0
 18 22  2  0
 22 23  1  0
 23 24  2  0
 24 25  1  0
 25 26  2  0
 26 27  1  0
 27 28  2  0
 28  7  1  0
 13  8  1  0
 28 16  1  0
 27 22  1  0
  1 29  1  0
  1 30  1  0
  1 31  1  0
  2 32  1  0
  2 33  1  0
  3 34  1  0
  4 35  1  0
  4 36  1  0
  5 37  1  0
  5 38  1  0
  6 39  1  0
  9 40  1  0
 10 41  1  0
 11 42  1  0
 12 43  1  0
 15 44  1  0
 15 45  1  0
 15 46  1  0
 17 47  1  0
 23 48  1  0
 24 49  1  0
 25 50  1  0
 26 51  1  0
M  CHG  3  14   1  19   1  21  -1
M  END
>  <UniqueID>  (20) 
20

>  <SMILES>  (20) 
CCNCCNc1c2ccccc2[n+](C)c2cc([N+](=O)[O-])c3ccccc3c12

>  <Energy>  (20) 
98.14194505140951

>  <Genealogy>  (20) 
CCNCCNc1c2ccccc2[n+](C)c2cc([N+](=O)[O-])c3ccccc3c12 (3D coordinates assigned)
CCNCCNc1c2ccccc2[n+](C)c2cc([N+](=O)[O-])c3ccccc3c12 (optimized conformer: 98.14194505140951 kcal/mol)

>  <smiles>  (20) 
CCNCCNc1c2ccccc2[n+](C)c2cc([N+](=O)[O-])c3ccccc3c12

>  <score_type>  (20) 
oracle

>  <origin>  (20) 
adg

>  <m_score__min__energy>  (20) 
-9.2200000000000006

>  <m_primary>  (20) 
energy

$$$$
20:0
     RDKit          3D

 27 28  0  0  0  0  0  0  0  0999 V2000
   -6.4750   17.5290  -31.8320 C   0  0  0  0  0  0  0  0  0  0  0  0
   -6.1210   17.7620  -33.2970 C   0  0  0  0  0  0  0  0  0  0  0  0
   -6.8500   18.9140  -33.8300 N   0  0  0  0  0  0  0  0  0  0  0  0
   -7.5120   19.8900  -32.9990 C   0  0  0  0  0  0  0  0  0  0  0  0
   -8.8860   19.7610  -32.7300 C   0  0  0  0  0  0  0  0  0  0  0  0
   -9.5600   20.7170  -31.9710 C   0  0  0  0  0  0  0  0  0  0  0  0
   -8.8780   21.8230  -31.4690 C   0  0  0  0  0  0  0  0  0  0  0  0
   -7.5070   21.9760  -31.7100 C   0  0  0  0  0  0  0  0  0  0  0  0
   -6.8240   23.0870  -31.1880 C   0  0  0  0  0  0  0  0  0  0  0  0
   -5.4500   23.2370  -31.4050 C   0  0  0  0  0  0  0  0  0  0  0  0
   -4.7550   24.3760  -30.8640 C   0  0  0  0  0  0  0  0  0  0  0  0
   -4.1970   25.2920  -30.4290 N   0  0  0  0  0  0  0  0  0  0  0  0
   -4.7510   22.2740  -32.1360 C   0  0  0  0  0  0  0  0  0  0  0  0
   -5.4180   21.1650  -32.6630 C   0  0  0  0  0  0  0  0  0  0  0  0
   -6.8060   21.0050  -32.4750 C   0  0  0  0  0  0  0  0  0  0  0  0
   -5.7279   18.0207  -31.1916 H   0  0  0  0  0  0  0  0  0  0  0  0
   -7.4700   17.9493  -31.6239 H   0  0  0  0  0  0  0  0  0  0  0  0
   -6.4824   16.4489  -31.6239 H   0  0  0  0  0  0  0  0  0  0  0  0
   -5.0402   17.9482  -33.3818 H   0  0  0  0  0  0  0  0  0  0  0  0
   -6.4016   16.8687  -33.8744 H   0  0  0  0  0  0  0  0  0  0  0  0
   -6.8780   19.0250  -34.8680 H   0  0  0  0  0  0  0  0  0  0  0  0
   -9.4368   18.8940  -33.1237 H   0  0  0  0  0  0  0  0  0  0  0  0
  -10.6344   20.5973  -31.7679 H   0  0  0  0  0  0  0  0  0  0  0  0
   -9.4185   22.5793  -30.8809 H   0  0  0  0  0  0  0  0  0  0  0  0
   -7.3720   23.8426  -30.6059 H   0  0  0  0  0  0  0  0  0  0  0  0
   -3.6691   22.3892  -32.2979 H   0  0  0  0  0  0  0  0  0  0  0  0
   -4.8546   20.4094  -33.2301 H   0  0  0  0  0  0  0  0  0  0  0  0
  1  2  1  0
  2  3  1  0
  3  4  1  0
  4  5  2  0
  5  6  1  0
  6  7  2  0
  7  8  1  0
  8  9  2  0
  9 10  1  0
 10 11  1  0
 11 12  3  0
 10 13  2  0
 13 14  1  0
 14 15  2  0
 15  4  1  0
 15  8  1  0
  1 16  1  0
  1 17  1  0
  1 18  1  0
  2 19  1  0
  2 20  1  0
  3 21  1  0
  5 22  1  0
  6 23  1  0
  7 24  1  0
  9 25  1  0
 13 26  1  0
 14 27  1  0
M  END
>  <UniqueID>  (21) 
21

>  <SMILES>  (21) 
CCNc1cccc2cc(C#N)ccc12

>  <Energy>  (21) 
30.5863118281432

>  <Genealogy>  (21) 
CCNc1cccc2cc(C#N)ccc12 (3D coordinates assigned)
CCNc1cccc2cc(C#N)ccc12 (optimized conformer: 30.5863118281432 kcal/mol)

>  <smiles>  (21) 
CCNc1cccc2cc(C#N)ccc12

>  <score_type>  (21) 
oracle

>  <origin>  (21) 
adg

>  <m_score__min__energy>  (21) 
-7.1399999999999997

>  <m_primary>  (21) 
energy

$$$$
21:0
     RDKit          3D

 60 63  0  0  0  0  0  0  0  0999 V2000
   -5.5500   24.8760  -30.4360 C   0  0  0  0  0  0  0  0  0  0  0  0
   -4.9770   23.9740  -29.3420 C   0  0  0  0  0  0  0  0  0  0  0  0
   -3.5990   23.5350  -29.6630 N   0  0  0  0  0  0  0  0  0  0  0  0
   -2.6130   24.5440  -29.2250 C   0  0  0  0  0  0  0  0  0  0  0  0
   -3.3080   22.2260  -29.0340 C   0  0  0  0  0  0  0  0  0  0  0  0
   -3.4710   21.0920  -30.0600 C   0  0  0  0  0  0  0  0  0  0  0  0
   -4.4260   21.4690  -31.1190 N   0  0  0  0  0  0  0  0  0  0  0  0
   -4.3070   20.5830  -32.2700 C   0  0  0  0  0  0  0  0  0  0  0  0
   -3.0860   20.4760  -32.9700 C   0  0  0  0  0  0  0  0  0  0  0  0
   -2.1690   21.5460  -33.0180 C   0  0  0  0  0  0  0  0  0  0  0  0
   -0.9780   21.4320  -33.7310 C   0  0  0  0  0  0  0  0  0  0  0  0
   -0.6750   20.2620  -34.4240 C   0  0  0  0  0  0  0  0  0  0  0  0
    0.5270   20.2130  -35.1460 O   0  0  0  0  0  0  0  0  0  0  0  0
    1.3650   21.3360  -35.3980 C   0  0  0  0  0  0  0  0  0  0  0  0
   -1.5770   19.1840  -34.3810 C   0  0  0  0  0  0  0  0  0  0  0  0
   -2.7780   19.2630  -33.6320 C   0  0  0  0  0  0  0  0  0  0  0  0
   -3.6350   18.1870  -33.5170 N   0  0  0  0  0  0  0  0  0  0  0  0
   -3.1580   16.8220  -33.8280 C   0  0  0  0  0  0  0  0  0  0  0  0
   -4.9450   18.3990  -33.1270 C   0  0  0  0  0  0  0  0  0  0  0  0
   -5.9260   17.3870  -33.2530 C   0  0  0  0  0  0  0  0  0  0  0  0
   -7.2490   17.6170  -32.8950 C   0  0  0  0  0  0  0  0  0  0  0  0
   -7.6680   18.8920  -32.5210 C   0  0  0  0  0  0  0  0  0  0  0  0
   -9.0330   19.1390  -32.3080 C   0  0  0  0  0  0  0  0  0  0  0  0
   -9.4870   20.4370  -32.0840 C   0  0  0  0  0  0  0  0  0  0  0  0
   -8.5890   21.5100  -32.0960 C   0  0  0  0  0  0  0  0  0  0  0  0
   -9.0930   22.9180  -31.9700 C   0  0  0  0  0  0  0  0  0  0  0  0
   -7.2240   21.2670  -32.3120 C   0  0  0  0  0  0  0  0  0  0  0  0
   -6.7270   19.9470  -32.4330 C   0  0  0  0  0  0  0  0  0  0  0  0
   -5.3360   19.6630  -32.5990 C   0  0  0  0  0  0  0  0  0  0  0  0
   -6.0852   25.7185  -29.9736 H   0  0  0  0  0  0  0  0  0  0  0  0
   -4.7304   25.2607  -31.0606 H   0  0  0  0  0  0  0  0  0  0  0  0
   -6.2466   24.2976  -31.0606 H   0  0  0  0  0  0  0  0  0  0  0  0
   -4.9626   24.5294  -28.3926 H   0  0  0  0  0  0  0  0  0  0  0  0
   -5.6135   23.0802  -29.2648 H   0  0  0  0  0  0  0  0  0  0  0  0
   -2.5832   24.5745  -28.1258 H   0  0  0  0  0  0  0  0  0  0  0  0
   -1.6184   24.2767  -29.6115 H   0  0  0  0  0  0  0  0  0  0  0  0
   -2.9032   25.5321  -29.6115 H   0  0  0  0  0  0  0  0  0  0  0  0
   -2.2752   22.2270  -28.6555 H   0  0  0  0  0  0  0  0  0  0  0  0
   -4.0131   22.0628  -28.2057 H   0  0  0  0  0  0  0  0  0  0  0  0
   -2.4937   20.8774  -30.5170 H   0  0  0  0  0  0  0  0  0  0  0  0
   -3.8577   20.2029  -29.5404 H   0  0  0  0  0  0  0  0  0  0  0  0
   -4.2870   22.4630  -31.4100 H   0  0  0  0  0  0  0  0  0  0  0  0
   -5.3670   21.3880  -30.6770 H   0  0  0  0  0  0  0  0  0  0  0  0
   -2.3969   22.4816  -32.4862 H   0  0  0  0  0  0  0  0  0  0  0  0
   -0.2699   22.2737  -33.7471 H   0  0  0  0  0  0  0  0  0  0  0  0
    1.6906   21.7723  -34.4422 H   0  0  0  0  0  0  0  0  0  0  0  0
    2.2458   21.0145  -35.9733 H   0  0  0  0  0  0  0  0  0  0  0  0
    0.8061   22.0888  -35.9733 H   0  0  0  0  0  0  0  0  0  0  0  0
   -1.3467   18.2638  -34.9380 H   0  0  0  0  0  0  0  0  0  0  0  0
   -2.9678   16.2777  -32.8912 H   0  0  0  0  0  0  0  0  0  0  0  0
   -3.9236   16.2902  -34.4121 H   0  0  0  0  0  0  0  0  0  0  0  0
   -2.2278   16.8828  -34.4121 H   0  0  0  0  0  0  0  0  0  0  0  0
   -5.6359   16.3997  -33.6416 H   0  0  0  0  0  0  0  0  0  0  0  0
   -7.9704   16.7866  -32.9070 H   0  0  0  0  0  0  0  0  0  0  0  0
   -9.7482   18.3033  -32.3180 H   0  0  0  0  0  0  0  0  0  0  0  0
  -10.5556   20.6190  -31.8970 H   0  0  0  0  0  0  0  0  0  0  0  0
   -9.1868   23.1800  -30.9058 H   0  0  0  0  0  0  0  0  0  0  0  0
   -8.3852   23.6057  -32.4559 H   0  0  0  0  0  0  0  0  0  0  0  0
  -10.0764   23.0003  -32.4559 H   0  0  0  0  0  0  0  0  0  0  0  0
   -6.5288   22.1160  -32.3886 H   0  0  0  0  0  0  0  0  0  0  0  0
  1  2  1  0
  2  3  1  0
  3  4  1  0
  3  5  1  0
  5  6  1  0
  6  7  1  0
  7  8  1  0
  8  9  2  0
  9 10  1  0
 10 11  2  0
 11 12  1  0
 12 13  1  0
 13 14  1  0
 12 15  2  0
 15 16  1  0
 16 17  2  0
 17 18  1  0
 17 19  1  0
 19 20  2  0
 20 21  1  0
 21 22  2  0
 22 23  1  0
 23 24  2  0
 24 25  1  0
 25 26  1  0
 25 27  2  0
 27 28  1  0
 28 29  2  0
 29  8  1  0
 16  9  1  0
 29 19  1  0
 28 22  1  0
  1 30  1  0
  1 31  1  0
  1 32  1  0
  2 33  1  0
  2 34  1  0
  4 35  1  0
  4 36  1  0
  4 37  1  0
  5 38  1  0
  5 39  1  0
  6 40  1  0
  6 41  1  0
  7 42  1  0
  7 43  1  0
 10 44  1  0
 11 45  1  0
 14 46  1  0
 14 47  1  0
 14 48  1  0
 15 49  1  0
 18 50  1  0
 18 51  1  0
 18 52  1  0
 20 53  1  0
 21 54  1  0
 23 55  1  0
 24 56  1  0
 26 57  1  0
 26 58  1  0
 26 59  1  0
 27 60  1  0
M  CHG  2   7   1  17   1
M  END
>  <UniqueID>  (22) 
22

>  <SMILES>  (22) 
CCN(C)CC[NH2+]c1c2ccc(OC)cc2[n+](C)c2ccc3ccc(C)cc3c12

>  <Energy>  (22) 
108.04836308305934

>  <Genealogy>  (22) 
CCN(C)CC[NH2+]c1c2ccc(OC)cc2[n+](C)c2ccc3ccc(C)cc3c12 (protonated)
CCN(C)CC[NH2+]c1c2ccc(OC)cc2[n+](C)c2ccc3ccc(C)cc3c12 (3D coordinates assigned)
CCN(C)CC[NH2+]c1c2ccc(OC)cc2[n+](C)c2ccc3ccc(C)cc3c12 (optimized conformer: 108.04836308305934 kcal/mol)

>  <smiles>  (22) 
CCN(C)CCNc1c2ccc(OC)cc2[n+](C)c2ccc3ccc(C)cc3c12

>  <score_type>  (22) 
oracle

>  <origin>  (22) 
adg

>  <m_score__min__energy>  (22) 
-8.4000000000000004

>  <m_primary>  (22) 
energy

$$$$
22:0
     RDKit          3D

 55 57  0  0  0  0  0  0  0  0999 V2000
   -1.2740   21.4990  -31.7100 C   0  0  0  0  0  0  0  0  0  0  0  0
   -0.5150   21.5370  -30.3840 C   0  0  0  0  0  0  0  0  0  0  0  0
   -1.4060   21.8950  -29.2550 N   0  0  0  0  0  0  0  0  0  0  0  0
   -2.4690   20.8760  -29.0440 C   0  0  0  0  0  0  0  0  0  0  0  0
   -2.8750   20.8360  -27.5750 C   0  0  0  0  0  0  0  0  0  0  0  0
   -0.6140   22.1120  -28.0230 C   0  0  0  0  0  0  0  0  0  0  0  0
    0.3810   23.2690  -28.2030 C   0  0  0  0  0  0  0  0  0  0  0  0
   -0.1870   24.3040  -28.9850 O   0  0  0  0  0  0  0  0  0  0  0  0
   -0.9810   25.1760  -28.2030 C   0  0  0  0  0  0  0  0  0  0  0  0
   -2.4700   24.8410  -28.3280 C   0  0  0  0  0  0  0  0  0  0  0  0
   -2.9020   24.9270  -29.6860 O   0  0  0  0  0  0  0  0  0  0  0  0
   -4.1190   24.4470  -30.2000 C   0  0  0  0  0  0  0  0  0  0  0  0
   -5.3090   25.2020  -30.1790 C   0  0  0  0  0  0  0  0  0  0  0  0
   -6.4900   24.6770  -30.7110 C   0  0  0  0  0  0  0  0  0  0  0  0
   -6.5040   23.3850  -31.2630 C   0  0  0  0  0  0  0  0  0  0  0  0
   -7.6650   22.8130  -31.8050 C   0  0  0  0  0  0  0  0  0  0  0  0
   -8.7570   23.4430  -31.8150 O   0  0  0  0  0  0  0  0  0  0  0  0
   -7.6090   21.5240  -32.3370 C   0  0  0  0  0  0  0  0  0  0  0  0
   -6.3890   20.8240  -32.3210 C   0  0  0  0  0  0  0  0  0  0  0  0
   -6.2690   19.4490  -32.8690 C   0  0  0  0  0  0  0  0  0  0  0  0
   -5.7260   19.2620  -34.1540 C   0  0  0  0  0  0  0  0  0  0  0  0
   -5.6080   17.9770  -34.6950 C   0  0  0  0  0  0  0  0  0  0  0  0
   -6.0390   16.8680  -33.9650 C   0  0  0  0  0  0  0  0  0  0  0  0
   -6.5930   17.0400  -32.6950 C   0  0  0  0  0  0  0  0  0  0  0  0
   -6.7110   18.3210  -32.1480 C   0  0  0  0  0  0  0  0  0  0  0  0
   -5.3100   21.3970  -31.7890 O   0  0  0  0  0  0  0  0  0  0  0  0
   -5.3170   22.6220  -31.2740 C   0  0  0  0  0  0  0  0  0  0  0  0
   -4.1390   23.1560  -30.7400 C   0  0  0  0  0  0  0  0  0  0  0  0
   -2.3548   21.4449  -31.5124 H   0  0  0  0  0  0  0  0  0  0  0  0
   -1.0517   22.4094  -32.2860 H   0  0  0  0  0  0  0  0  0  0  0  0
   -0.9619   20.6154  -32.2860 H   0  0  0  0  0  0  0  0  0  0  0  0
   -0.0789   20.5452  -30.1939 H   0  0  0  0  0  0  0  0  0  0  0  0
    0.2701   22.3038  -30.4590 H   0  0  0  0  0  0  0  0  0  0  0  0
   -3.3457   21.1332  -29.6565 H   0  0  0  0  0  0  0  0  0  0  0  0
   -2.0831   19.8885  -29.3370 H   0  0  0  0  0  0  0  0  0  0  0  0
   -1.9782   20.9244  -26.9442 H   0  0  0  0  0  0  0  0  0  0  0  0
   -3.5579   21.6712  -27.3605 H   0  0  0  0  0  0  0  0  0  0  0  0
   -3.3818   19.8836  -27.3605 H   0  0  0  0  0  0  0  0  0  0  0  0
   -1.2967   22.3507  -27.1942 H   0  0  0  0  0  0  0  0  0  0  0  0
   -0.0479   21.1944  -27.8049 H   0  0  0  0  0  0  0  0  0  0  0  0
    0.6502   23.6701  -27.2147 H   0  0  0  0  0  0  0  0  0  0  0  0
    1.2751   22.8881  -28.7183 H   0  0  0  0  0  0  0  0  0  0  0  0
   -0.6810   25.0841  -27.1487 H   0  0  0  0  0  0  0  0  0  0  0  0
   -0.8261   26.2030  -28.5654 H   0  0  0  0  0  0  0  0  0  0  0  0
   -2.6406   23.8184  -27.9604 H   0  0  0  0  0  0  0  0  0  0  0  0
   -3.0434   25.5659  -27.7315 H   0  0  0  0  0  0  0  0  0  0  0  0
   -5.3082   26.2111  -29.7410 H   0  0  0  0  0  0  0  0  0  0  0  0
   -7.4116   25.2773  -30.6975 H   0  0  0  0  0  0  0  0  0  0  0  0
   -8.5100   21.0600  -32.7646 H   0  0  0  0  0  0  0  0  0  0  0  0
   -5.3919   20.1326  -34.7374 H   0  0  0  0  0  0  0  0  0  0  0  0
   -5.1750   17.8405  -35.6969 H   0  0  0  0  0  0  0  0  0  0  0  0
   -5.9421   15.8582  -34.3905 H   0  0  0  0  0  0  0  0  0  0  0  0
   -6.9374   16.1655  -32.1235 H   0  0  0  0  0  0  0  0  0  0  0  0
   -7.1516   18.4498  -31.1484 H   0  0  0  0  0  0  0  0  0  0  0  0
   -3.2182   22.5542  -30.7447 H   0  0  0  0  0  0  0  0  0  0  0  0
  1  2  1  0
  2  3  1  0
  3  4  1  0
  4  5  1  0
  3  6  1  0
  6  7  1  0
  7  8  1  0
  8  9  1  0
  9 10  1  0
 10 11  1  0
 11 12  1  0
 12 13  2  0
 13 14  1  0
 14 15  2  0
 15 16  1  0
 16 17  2  0
 16 18  1  0
 18 19  2  0
 19 20  1  0
 20 21  2  0
 21 22  1  0
 22 23  2  0
 23 24  1  0
 24 25  2  0
 19 26  1  0
 26 27  1  0
 27 28  2  0
 28 12  1  0
 27 15  1  0
 25 20  1  0
  1 29  1  0
  1 30  1  0
  1 31  1  0
  2 32  1  0
  2 33  1  0
  4 34  1  0
  4 35  1  0
  5 36  1  0
  5 37  1  0
  5 38  1  0
  6 39  1  0
  6 40  1  0
  7 41  1  0
  7 42  1  0
  9 43  1  0
  9 44  1  0
 10 45  1  0
 10 46  1  0
 13 47  1  0
 14 48  1  0
 18 49  1  0
 21 50  1  0
 22 51  1  0
 23 52  1  0
 24 53  1  0
 25 54  1  0
 28 55  1  0
M  END
>  <UniqueID>  (23) 
23

>  <SMILES>  (23) 
CCN(CC)CCOCCOc1ccc2c(=O)cc(-c3ccccc3)oc2c1

>  <Energy>  (23) 
67.10603095677682

>  <Genealogy>  (23) 
CCN(CC)CCOCCOc1ccc2c(=O)cc(-c3ccccc3)oc2c1 (3D coordinates assigned)
CCN(CC)CCOCCOc1ccc2c(=O)cc(-c3ccccc3)oc2c1 (optimized conformer: 67.10603095677682 kcal/mol)

>  <smiles>  (23) 
CCN(CC)CCOCCOc1ccc2c(=O)cc(-c3ccccc3)oc2c1

>  <score_type>  (23) 
oracle

>  <origin>  (23) 
adg

>  <m_score__min__energy>  (23) 
-8.8599999999999994

>  <m_primary>  (23) 
energy

$$$$
23:0
     RDKit          3D

 57 60  0  0  0  0  0  0  0  0999 V2000
   -6.4100   25.4390  -29.7230 C   0  0  0  0  0  0  0  0  0  0  0  0
   -5.2610   24.4960  -30.0800 C   0  0  0  0  0  0  0  0  0  0  0  0
   -5.3820   23.1150  -29.3970 C   0  0  0  0  0  0  0  0  0  0  0  0
   -4.1160   22.3320  -29.4220 N   0  0  2  0  0  0  0  0  0  0  0  0
   -2.9420   23.1470  -29.0130 C   0  0  0  0  0  0  0  0  0  0  0  0
   -3.0410   23.7690  -27.6170 C   0  0  0  0  0  0  0  0  0  0  0  0
   -3.8750   21.5330  -30.6610 C   0  0  0  0  0  0  0  0  0  0  0  0
   -3.3690   22.3280  -31.8890 C   0  0  0  0  0  0  0  0  0  0  0  0
   -4.1140   21.9560  -33.0930 N   0  0  0  0  0  0  0  0  0  0  0  0
   -4.6190   20.6290  -33.2910 C   0  0  0  0  0  0  0  0  0  0  0  0
   -3.7860   19.5660  -33.7120 C   0  0  0  0  0  0  0  0  0  0  0  0
   -2.3910   19.7420  -33.8100 C   0  0  0  0  0  0  0  0  0  0  0  0
   -1.5680   18.6910  -34.2070 C   0  0  0  0  0  0  0  0  0  0  0  0
   -2.1140   17.4430  -34.4900 C   0  0  0  0  0  0  0  0  0  0  0  0
   -3.4870   17.2320  -34.3800 C   0  0  0  0  0  0  0  0  0  0  0  0
   -4.3600   18.2810  -34.0010 C   0  0  0  0  0  0  0  0  0  0  0  0
   -5.7280   18.0820  -33.8850 N   0  0  0  0  0  0  0  0  0  0  0  0
   -6.3550   16.8080  -34.2770 C   0  0  0  0  0  0  0  0  0  0  0  0
   -6.4910   19.0990  -33.3690 C   0  0  0  0  0  0  0  0  0  0  0  0
   -7.8150   19.0470  -33.0770 N   0  0  0  0  0  0  0  0  0  0  0  0
   -8.1200   20.2750  -32.6120 C   0  0  0  0  0  0  0  0  0  0  0  0
   -9.3690   20.7110  -32.1690 C   0  0  0  0  0  0  0  0  0  0  0  0
   -9.4810   22.0330  -31.7050 C   0  0  0  0  0  0  0  0  0  0  0  0
   -8.3530   22.8810  -31.6860 C   0  0  0  0  0  0  0  0  0  0  0  0
   -7.1030   22.4180  -32.1310 C   0  0  0  0  0  0  0  0  0  0  0  0
   -7.0180   21.1030  -32.5980 C   0  0  0  0  0  0  0  0  0  0  0  0
   -5.9650   20.3420  -33.0800 C   0  0  0  0  0  0  0  0  0  0  0  0
   -6.4984   25.5115  -28.6290 H   0  0  0  0  0  0  0  0  0  0  0  0
   -6.2094   26.4363  -30.1416 H   0  0  0  0  0  0  0  0  0  0  0  0
   -7.3490   25.0477  -30.1416 H   0  0  0  0  0  0  0  0  0  0  0  0
   -5.2534   24.3490  -31.1701 H   0  0  0  0  0  0  0  0  0  0  0  0
   -4.3299   24.9603  -29.7230 H   0  0  0  0  0  0  0  0  0  0  0  0
   -5.6766   23.2688  -28.3484 H   0  0  0  0  0  0  0  0  0  0  0  0
   -6.1322   22.5388  -29.9584 H   0  0  0  0  0  0  0  0  0  0  0  0
   -4.1950   21.6270  -28.6530 H   0  0  0  0  0  0  0  0  0  0  0  0
   -2.0527   22.5000  -29.0361 H   0  0  0  0  0  0  0  0  0  0  0  0
   -2.8892   23.9872  -29.7210 H   0  0  0  0  0  0  0  0  0  0  0  0
   -2.9161   22.9843  -26.8563 H   0  0  0  0  0  0  0  0  0  0  0  0
   -2.2520   24.5259  -27.4960 H   0  0  0  0  0  0  0  0  0  0  0  0
   -4.0260   24.2435  -27.4960 H   0  0  0  0  0  0  0  0  0  0  0  0
   -3.1254   20.7632  -30.4254 H   0  0  0  0  0  0  0  0  0  0  0  0
   -4.8562   21.1291  -30.9509 H   0  0  0  0  0  0  0  0  0  0  0  0
   -3.5011   23.4038  -31.7014 H   0  0  0  0  0  0  0  0  0  0  0  0
   -2.3057   22.0941  -32.0463 H   0  0  0  0  0  0  0  0  0  0  0  0
   -4.2450   22.6620  -33.8520 H   0  0  0  0  0  0  0  0  0  0  0  0
   -1.9477   20.7198  -33.5704 H   0  0  0  0  0  0  0  0  0  0  0  0
   -0.4830   18.8480  -34.2971 H   0  0  0  0  0  0  0  0  0  0  0  0
   -1.4576   16.6175  -34.8026 H   0  0  0  0  0  0  0  0  0  0  0  0
   -3.8996   16.2344  -34.5910 H   0  0  0  0  0  0  0  0  0  0  0  0
   -6.6329   16.2433  -33.3749 H   0  0  0  0  0  0  0  0  0  0  0  0
   -7.2560   17.0113  -34.8744 H   0  0  0  0  0  0  0  0  0  0  0  0
   -5.6443   16.2181  -34.8744 H   0  0  0  0  0  0  0  0  0  0  0  0
   -8.4760   18.2430  -33.1480 H   0  0  0  0  0  0  0  0  0  0  0  0
  -10.2405   20.0399  -32.1824 H   0  0  0  0  0  0  0  0  0  0  0  0
  -10.4536   22.4089  -31.3546 H   0  0  0  0  0  0  0  0  0  0  0  0
   -8.4531   23.9134  -31.3197 H   0  0  0  0  0  0  0  0  0  0  0  0
   -6.2178   23.0708  -32.1124 H   0  0  0  0  0  0  0  0  0  0  0  0
  1  2  1  0
  2  3  1  0
  3  4  1  0
  4  5  1  0
  5  6  1  0
  4  7  1  0
  7  8  1  0
  8  9  1  0
  9 10  1  0
 10 11  2  0
 11 12  1  0
 12 13  2  0
 13 14  1  0
 14 15  2  0
 15 16  1  0
 16 17  2  0
 17 18  1  0
 17 19  1  0
 19 20  1  0
 20 21  1  0
 21 22  2  0
 22 23  1  0
 23 24  2  0
 24 25  1  0
 25 26  2  0
 26 27  1  0
 27 10  1  0
 16 11  1  0
 27 19  2  0
 26 21  1  0
  1 28  1  0
  1 29  1  0
  1 30  1  0
  2 31  1  0
  2 32  1  0
  3 33  1  0
  3 34  1  0
  4 35  1  1
  5 36  1  0
  5 37  1  0
  6 38  1  0
  6 39  1  0
  6 40  1  0
  7 41  1  0
  7 42  1  0
  8 43  1  0
  8 44  1  0
  9 45  1  0
 12 46  1  0
 13 47  1  0
 14 48  1  0
 15 49  1  0
 18 50  1  0
 18 51  1  0
 18 52  1  0
 20 53  1  0
 22 54  1  0
 23 55  1  0
 24 56  1  0
 25 57  1  0
M  CHG  2   4   1  17   1
M  END
>  <UniqueID>  (24) 
24

>  <SMILES>  (24) 
CCC[N@H+](CC)CCNc1c2ccccc2[n+](C)c2[nH]c3ccccc3c12

>  <Energy>  (24) 
122.09996124939057

>  <Genealogy>  (24) 
CCC[NH+](CC)CCNc1c2ccccc2[n+](C)c2[nH]c3ccccc3c12 (protonated)
CCC[N@H+](CC)CCNc1c2ccccc2[n+](C)c2[nH]c3ccccc3c12 (chirality)
CCC[N@H+](CC)CCNc1c2ccccc2[n+](C)c2[nH]c3ccccc3c12 (3D coordinates assigned)
CCC[N@H+](CC)CCNc1c2ccccc2[n+](C)c2[nH]c3ccccc3c12 (optimized conformer: 122.09996124939057 kcal/mol)

>  <smiles>  (24) 
CCCN(CC)CCNc1c2ccccc2[n+](C)c2[nH]c3ccccc3c12

>  <score_type>  (24) 
oracle

>  <origin>  (24) 
adg

>  <m_score__min__energy>  (24) 
-7.46

>  <m_primary>  (24) 
energy

$$$$
24:0
     RDKit          3D

 40 43  0  0  0  0  0  0  0  0999 V2000
   -9.7892   22.0133  -31.3374 H   0  0  0  0  0  0  0  0  0  0  0  0
   -8.8100   21.5690  -31.5690 C   0  0  0  0  0  0  0  0  0  0  0  0
   -7.6490   22.1130  -31.0120 C   0  0  0  0  0  0  0  0  0  0  0  0
   -7.7200   22.9838  -30.3437 H   0  0  0  0  0  0  0  0  0  0  0  0
   -6.3870   21.5530  -31.3010 C   0  0  0  0  0  0  0  0  0  0  0  0
   -5.1450   22.1200  -30.7140 C   0  0  0  0  0  0  0  0  0  0  0  0
   -3.8400   21.1990  -30.1200 S   0  0  0  0  0  0  0  0  0  0  0  0
   -2.9190   22.5270  -29.6750 C   0  0  0  0  0  0  0  0  0  0  0  0
   -3.5980   23.6930  -29.9770 C   0  0  0  0  0  0  0  0  0  0  0  0
   -3.0370   24.9090  -29.7080 N   0  0  0  0  0  0  0  0  0  0  0  0
   -1.7920   24.9840  -29.1320 C   0  0  0  0  0  0  0  0  0  0  0  0
   -1.2350   26.1300  -28.8710 N   0  0  0  0  0  0  0  0  0  0  0  0
   -0.8610   26.5930  -27.5340 C   0  0  0  0  0  0  0  0  0  0  0  0
   -0.9975   27.6831  -27.4781 H   0  0  0  0  0  0  0  0  0  0  0  0
    0.1912   26.3300  -27.3504 H   0  0  0  0  0  0  0  0  0  0  0  0
   -1.7260   25.9250  -26.4700 C   0  0  0  0  0  0  0  0  0  0  0  0
   -1.3614   26.2066  -25.4711 H   0  0  0  0  0  0  0  0  0  0  0  0
   -2.7692   26.2542  -26.5858 H   0  0  0  0  0  0  0  0  0  0  0  0
   -1.6713   24.8325  -26.5858 H   0  0  0  0  0  0  0  0  0  0  0  0
   -1.1220   23.7830  -28.8360 C   0  0  0  0  0  0  0  0  0  0  0  0
    0.1030   23.6460  -28.2920 N   0  0  0  0  0  0  0  0  0  0  0  0
    0.3120   22.3360  -28.2160 N   0  0  0  0  0  0  0  0  0  0  0  0
    1.1860   21.8980  -27.8480 H   0  0  0  0  0  0  0  0  0  0  0  0
   -0.7740   21.6930  -28.7010 C   0  0  0  0  0  0  0  0  0  0  0  0
   -0.8680   20.2010  -28.8370 C   0  0  0  0  0  0  0  0  0  0  0  0
   -1.5144   19.9566  -29.6928 H   0  0  0  0  0  0  0  0  0  0  0  0
    0.1427   19.7961  -28.9937 H   0  0  0  0  0  0  0  0  0  0  0  0
   -1.4540   19.5800  -27.5740 C   0  0  0  0  0  0  0  0  0  0  0  0
   -1.0053   20.0555  -26.6894 H   0  0  0  0  0  0  0  0  0  0  0  0
   -2.5430   19.7346  -27.5607 H   0  0  0  0  0  0  0  0  0  0  0  0
   -1.2365   18.5018  -27.5607 H   0  0  0  0  0  0  0  0  0  0  0  0
   -1.6900   22.5930  -29.1070 N   0  0  0  0  0  0  0  0  0  0  0  0
   -4.8470   23.4850  -30.5600 C   0  0  0  0  0  0  0  0  0  0  0  0
   -5.5230   24.2973  -30.8651 H   0  0  0  0  0  0  0  0  0  0  0  0
   -6.3250   20.4350  -32.1550 C   0  0  0  0  0  0  0  0  0  0  0  0
   -5.3506   19.9810  -32.3881 H   0  0  0  0  0  0  0  0  0  0  0  0
   -7.4890   19.8970  -32.7090 C   0  0  0  0  0  0  0  0  0  0  0  0
   -7.4268   19.0246  -33.3761 H   0  0  0  0  0  0  0  0  0  0  0  0
   -8.7310   20.4640  -32.4180 C   0  0  0  0  0  0  0  0  0  0  0  0
   -9.8600   19.9390  -32.9560 F   0  0  0  0  0  0  0  0  0  0  0  0
  1  2  1  0
  2  3  2  0
  3  4  1  0
  3  5  1  0
  5  6  1  0
  6  7  1  0
  7  8  1  0
  8  9  2  0
  9 10  1  0
 10 11  1  0
 11 12  2  0
 12 13  1  0
 13 14  1  0
 13 15  1  0
 13 16  1  0
 16 17  1  0
 16 18  1  0
 16 19  1  0
 11 20  1  0
 20 21  2  0
 21 22  1  0
 22 23  1  0
 22 24  2  0
 24 25  1  0
 25 26  1  0
 25 27  1  0
 25 28  1  0
 28 29  1  0
 28 30  1  0
 28 31  1  0
 24 32  1  0
  9 33  1  0
 33 34  1  0
  5 35  2  0
 35 36  1  0
 35 37  1  0
 37 38  1  0
 37 39  2  0
 39 40  1  0
 39  2  1  0
 33  6  2  0
 32  8  1  0
 32 20  1  0
M  CHG  2  10  -1  22   1
M  END
>  <UniqueID>  (25) 
25

>  <SMILES>  (25) 
CC/N=c1\[n-]c2cc(-c3ccc(F)cc3)sc2n2c(CC)[nH+]nc12

>  <Energy>  (25) 
118.23700264636133

>  <Genealogy>  (25) 
CCN=c1[n-]c2cc(-c3ccc(F)cc3)sc2n2c(CC)[nH+]nc12 (protonated)
CC/N=c1\[n-]c2cc(-c3ccc(F)cc3)sc2n2c(CC)[nH+]nc12 (cis-trans isomerization)
CC/N=c1\[n-]c2cc(-c3ccc(F)cc3)sc2n2c(CC)[nH+]nc12 (3D coordinates assigned)
CC/N=c1\[n-]c2cc(-c3ccc(F)cc3)sc2n2c(CC)[nH+]nc12 (optimized conformer: 118.23700264636133 kcal/mol)

>  <smiles>  (25) 
CCN=c1[nH]c2cc(-c3ccc(F)cc3)sc2n2c(CC)nnc12

>  <score_type>  (25) 
oracle

>  <origin>  (25) 
adg

>  <m_score__min__energy>  (25) 
-8.4499999999999993

>  <m_primary>  (25) 
energy

$$$$
25:0
     RDKit          3D

 50 53  0  0  0  0  0  0  0  0999 V2000
   -6.8390   16.9780  -32.9120 C   0  0  0  0  0  0  0  0  0  0  0  0
   -6.4090   16.8870  -34.3720 C   0  0  0  0  0  0  0  0  0  0  0  0
   -5.5010   17.9380  -34.7000 O   0  0  0  0  0  0  0  0  0  0  0  0
   -4.7810   18.7190  -33.7790 C   0  0  0  0  0  0  0  0  0  0  0  0
   -3.4950   18.3650  -33.3310 C   0  0  0  0  0  0  0  0  0  0  0  0
   -2.8170   19.1710  -32.4150 C   0  0  0  0  0  0  0  0  0  0  0  0
   -3.4050   20.3500  -31.9270 C   0  0  0  0  0  0  0  0  0  0  0  0
   -2.7020   21.2140  -30.9450 C   0  0  0  0  0  0  0  0  0  0  0  0
   -3.0610   22.5580  -30.7520 C   0  0  0  0  0  0  0  0  0  0  0  0
   -2.3690   23.3550  -29.8260 C   0  0  0  0  0  0  0  0  0  0  0  0
   -2.7420   24.7850  -29.7250 C   0  0  0  0  0  0  0  0  0  0  0  0
   -2.1150   25.5470  -28.9400 O   0  0  0  0  0  0  0  0  0  0  0  0
   -3.8270   25.2890  -30.4310 O   0  0  0  0  0  0  0  0  0  0  0  0
   -1.3350   22.7690  -29.0510 C   0  0  0  0  0  0  0  0  0  0  0  0
   -0.6480   23.4650  -28.0330 C   0  0  0  0  0  0  0  0  0  0  0  0
    0.3660   22.8370  -27.3030 C   0  0  0  0  0  0  0  0  0  0  0  0
    0.6990   21.5070  -27.5620 C   0  0  0  0  0  0  0  0  0  0  0  0
    0.0090   20.7920  -28.5430 C   0  0  0  0  0  0  0  0  0  0  0  0
   -1.0090   21.4090  -29.2790 C   0  0  0  0  0  0  0  0  0  0  0  0
   -1.6910   20.6870  -30.2030 N   0  0  0  0  0  0  0  0  0  0  0  0
   -4.6960   20.6930  -32.3620 C   0  0  0  0  0  0  0  0  0  0  0  0
   -5.3860   19.8860  -33.2870 C   0  0  0  0  0  0  0  0  0  0  0  0
   -6.6730   20.2090  -33.7450 O   0  0  0  0  0  0  0  0  0  0  0  0
   -7.7930   20.4660  -32.9030 C   0  0  0  0  0  0  0  0  0  0  0  0
   -7.4920   21.6490  -32.0330 C   0  0  0  0  0  0  0  0  0  0  0  0
   -6.9460   22.8190  -32.5910 C   0  0  0  0  0  0  0  0  0  0  0  0
   -6.6290   23.9070  -31.7720 C   0  0  0  0  0  0  0  0  0  0  0  0
   -6.8440   23.8330  -30.3930 C   0  0  0  0  0  0  0  0  0  0  0  0
   -7.3700   22.6670  -29.8290 C   0  0  0  0  0  0  0  0  0  0  0  0
   -7.6880   21.5760  -30.6440 C   0  0  0  0  0  0  0  0  0  0  0  0
   -5.9709   16.7943  -32.2619 H   0  0  0  0  0  0  0  0  0  0  0  0
   -7.2422   17.9814  -32.7104 H   0  0  0  0  0  0  0  0  0  0  0  0
   -7.6141   16.2240  -32.7104 H   0  0  0  0  0  0  0  0  0  0  0  0
   -5.9163   15.9185  -34.5430 H   0  0  0  0  0  0  0  0  0  0  0  0
   -7.3012   16.9808  -35.0085 H   0  0  0  0  0  0  0  0  0  0  0  0
   -3.0203   17.4461  -33.7055 H   0  0  0  0  0  0  0  0  0  0  0  0
   -1.8130   18.8804  -32.0720 H   0  0  0  0  0  0  0  0  0  0  0  0
   -3.8908   22.9897  -31.3308 H   0  0  0  0  0  0  0  0  0  0  0  0
   -0.9124   24.5097  -27.8122 H   0  0  0  0  0  0  0  0  0  0  0  0
    0.9034   23.3939  -26.5213 H   0  0  0  0  0  0  0  0  0  0  0  0
    1.5056   21.0215  -26.9930 H   0  0  0  0  0  0  0  0  0  0  0  0
    0.2664   19.7405  -28.7380 H   0  0  0  0  0  0  0  0  0  0  0  0
   -5.1745   21.6046  -31.9747 H   0  0  0  0  0  0  0  0  0  0  0  0
   -8.6774   20.6792  -33.5214 H   0  0  0  0  0  0  0  0  0  0  0  0
   -7.9937   19.5857  -32.2747 H   0  0  0  0  0  0  0  0  0  0  0  0
   -6.7679   22.8782  -33.6749 H   0  0  0  0  0  0  0  0  0  0  0  0
   -6.2096   24.8229  -32.2138 H   0  0  0  0  0  0  0  0  0  0  0  0
   -6.5993   24.6923  -29.7514 H   0  0  0  0  0  0  0  0  0  0  0  0
   -7.5339   22.6076  -28.7429 H   0  0  0  0  0  0  0  0  0  0  0  0
   -8.0933   20.6570  -30.1955 H   0  0  0  0  0  0  0  0  0  0  0  0
  1  2  1  0
  2  3  1  0
  3  4  1  0
  4  5  2  0
  5  6  1  0
  6  7  2  0
  7  8  1  0
  8  9  2  0
  9 10  1  0
 10 11  1  0
 11 12  2  0
 11 13  1  0
 10 14  2  0
 14 15  1  0
 15 16  2  0
 16 17  1  0
 17 18  2  0
 18 19  1  0
 19 20  2  0
  7 21  1  0
 21 22  2  0
 22 23  1  0
 23 24  1  0
 24 25  1  0
 25 26  2  0
 26 27  1  0
 27 28  2  0
 28 29  1  0
 29 30  2  0
 22  4  1  0
 30 25  1  0
 20  8  1  0
 19 14  1  0
  1 31  1  0
  1 32  1  0
  1 33  1  0
  2 34  1  0
  2 35  1  0
  5 36  1  0
  6 37  1  0
  9 38  1  0
 15 39  1  0
 16 40  1  0
 17 41  1  0
 18 42  1  0
 21 43  1  0
 24 44  1  0
 24 45  1  0
 26 46  1  0
 27 47  1  0
 28 48  1  0
 29 49  1  0
 30 50  1  0
M  CHG  1  13  -1
M  END
>  <UniqueID>  (26) 
26

>  <SMILES>  (26) 
CCOc1ccc(-c2cc(C(=O)[O-])c3ccccc3n2)cc1OCc1ccccc1

>  <Energy>  (26) 
66.08838370986572

>  <Genealogy>  (26) 
CCOc1ccc(-c2cc(C(=O)[O-])c3ccccc3n2)cc1OCc1ccccc1 (protonated)
CCOc1ccc(-c2cc(C(=O)[O-])c3ccccc3n2)cc1OCc1ccccc1 (3D coordinates assigned)
CCOc1ccc(-c2cc(C(=O)[O-])c3ccccc3n2)cc1OCc1ccccc1 (optimized conformer: 66.08838370986572 kcal/mol)

>  <smiles>  (26) 
CCOc1ccc(-c2cc(C(=O)O)c3ccccc3n2)cc1OCc1ccccc1

>  <score_type>  (26) 
oracle

>  <origin>  (26) 
adg

>  <m_score__min__energy>  (26) 
-10.91

>  <m_primary>  (26) 
energy

$$$$
26:0
     RDKit          3D

 74 77  0  0  0  0  0  0  0  0999 V2000
   -2.4310   15.8840  -33.1270 C   0  0  0  0  0  0  0  0  0  0  0  0
   -2.3500   17.3890  -33.4250 C   0  0  0  0  0  0  0  0  0  0  0  0
   -3.6810   18.0540  -33.4430 N   0  0  0  0  0  0  0  0  0  0  0  0
   -4.7150   17.3060  -34.2150 C   0  0  0  0  0  0  0  0  0  0  0  0
   -5.7330   18.1770  -34.9740 C   0  0  0  0  0  0  0  0  0  0  0  0
   -3.6430   19.5070  -33.7610 C   0  0  0  0  0  0  0  0  0  0  0  0
   -3.2900   20.4300  -32.5820 C   0  0  0  0  0  0  0  0  0  0  0  0
   -4.2390   20.2230  -31.4890 N   0  0  0  0  0  0  0  0  0  0  0  0
   -5.4620   20.9780  -31.4300 C   0  0  0  0  0  0  0  0  0  0  0  0
   -6.6820   20.3690  -31.7740 C   0  0  0  0  0  0  0  0  0  0  0  0
   -6.7520   18.9810  -32.0190 C   0  0  0  0  0  0  0  0  0  0  0  0
   -7.9700   18.3710  -32.3090 C   0  0  0  0  0  0  0  0  0  0  0  0
   -9.1360   19.1260  -32.3420 C   0  0  0  0  0  0  0  0  0  0  0  0
   -9.0910   20.5000  -32.1090 C   0  0  0  0  0  0  0  0  0  0  0  0
   -7.8600   21.1570  -31.8470 C   0  0  0  0  0  0  0  0  0  0  0  0
   -7.7940   22.5230  -31.6510 N   0  0  0  0  0  0  0  0  0  0  0  0
   -8.9380   23.3800  -32.0330 C   0  0  0  0  0  0  0  0  0  0  0  0
   -6.6460   23.0910  -31.1290 C   0  0  0  0  0  0  0  0  0  0  0  0
   -6.6200   24.4340  -30.6790 C   0  0  0  0  0  0  0  0  0  0  0  0
   -5.4390   25.0200  -30.2310 C   0  0  0  0  0  0  0  0  0  0  0  0
   -4.2540   24.2910  -30.1820 C   0  0  0  0  0  0  0  0  0  0  0  0
   -3.0920   24.9630  -29.7660 O   0  0  0  0  0  0  0  0  0  0  0  0
   -2.3670   24.7370  -28.5590 C   0  0  0  0  0  0  0  0  0  0  0  0
   -2.8880   23.5490  -27.7000 C   0  0  0  0  0  0  0  0  0  0  0  0
   -2.1620   22.2320  -27.7470 N   0  0  0  0  0  0  0  0  0  0  0  0
   -1.1460   22.2970  -26.6520 C   0  0  0  0  0  0  0  0  0  0  0  0
   -3.0850   21.0950  -27.4680 C   0  0  0  0  0  0  0  0  0  0  0  0
   -2.3560   19.7270  -27.4890 C   0  0  0  0  0  0  0  0  0  0  0  0
   -1.1450   19.7390  -28.2270 O   0  0  0  0  0  0  0  0  0  0  0  0
   -1.2790   20.5180  -29.3950 C   0  0  0  0  0  0  0  0  0  0  0  0
   -1.4600   22.0160  -29.0530 C   0  0  0  0  0  0  0  0  0  0  0  0
   -4.2720   22.9360  -30.5460 C   0  0  0  0  0  0  0  0  0  0  0  0
   -5.4530   22.3270  -31.0260 C   0  0  0  0  0  0  0  0  0  0  0  0
   -2.4395   15.7257  -32.0385 H   0  0  0  0  0  0  0  0  0  0  0  0
   -3.3526   15.4726  -33.5646 H   0  0  0  0  0  0  0  0  0  0  0  0
   -1.5589   15.3761  -33.5646 H   0  0  0  0  0  0  0  0  0  0  0  0
   -1.7309   17.8661  -32.6510 H   0  0  0  0  0  0  0  0  0  0  0  0
   -1.9142   17.5011  -34.4288 H   0  0  0  0  0  0  0  0  0  0  0  0
   -4.0230   18.0160  -32.4520 H   0  0  0  0  0  0  0  0  0  0  0  0
   -4.1970   16.6718  -34.9495 H   0  0  0  0  0  0  0  0  0  0  0  0
   -5.2959   16.7394  -33.4724 H   0  0  0  0  0  0  0  0  0  0  0  0
   -6.3638   18.7167  -34.2524 H   0  0  0  0  0  0  0  0  0  0  0  0
   -5.1973   18.9007  -35.6059 H   0  0  0  0  0  0  0  0  0  0  0  0
   -6.3651   17.5358  -35.6059 H   0  0  0  0  0  0  0  0  0  0  0  0
   -2.8929   19.6624  -34.5504 H   0  0  0  0  0  0  0  0  0  0  0  0
   -4.6651   19.7785  -34.0638 H   0  0  0  0  0  0  0  0  0  0  0  0
   -2.2730   20.2010  -32.2308 H   0  0  0  0  0  0  0  0  0  0  0  0
   -3.3408   21.4777  -32.9133 H   0  0  0  0  0  0  0  0  0  0  0  0
   -3.9130   19.7130  -30.6370 H   0  0  0  0  0  0  0  0  0  0  0  0
   -5.8351   18.3746  -31.9805 H   0  0  0  0  0  0  0  0  0  0  0  0
   -8.0089   17.2906  -32.5121 H   0  0  0  0  0  0  0  0  0  0  0  0
  -10.0988   18.6376  -32.5529 H   0  0  0  0  0  0  0  0  0  0  0  0
  -10.0232   21.0836  -32.1285 H   0  0  0  0  0  0  0  0  0  0  0  0
   -9.4358   23.7529  -31.1257 H   0  0  0  0  0  0  0  0  0  0  0  0
   -8.5759   24.2309  -32.6286 H   0  0  0  0  0  0  0  0  0  0  0  0
   -9.6528   22.7933  -32.6286 H   0  0  0  0  0  0  0  0  0  0  0  0
   -7.5485   25.0239  -30.6836 H   0  0  0  0  0  0  0  0  0  0  0  0
   -5.4424   26.0726  -29.9117 H   0  0  0  0  0  0  0  0  0  0  0  0
   -1.3181   24.5355  -28.8220 H   0  0  0  0  0  0  0  0  0  0  0  0
   -2.4936   25.6420  -27.9466 H   0  0  0  0  0  0  0  0  0  0  0  0
   -2.8794   23.8829  -26.6519 H   0  0  0  0  0  0  0  0  0  0  0  0
   -3.8701   23.3208  -28.1397 H   0  0  0  0  0  0  0  0  0  0  0  0
   -1.6548   22.2644  -25.6773 H   0  0  0  0  0  0  0  0  0  0  0  0
   -0.4605   21.4409  -26.7366 H   0  0  0  0  0  0  0  0  0  0  0  0
   -0.5752   23.2335  -26.7366 H   0  0  0  0  0  0  0  0  0  0  0  0
   -3.5356   21.2406  -26.4752 H   0  0  0  0  0  0  0  0  0  0  0  0
   -3.8502   21.0809  -28.2581 H   0  0  0  0  0  0  0  0  0  0  0  0
   -2.1283   19.4386  -26.4522 H   0  0  0  0  0  0  0  0  0  0  0  0
   -3.0283   19.0114  -27.9849 H   0  0  0  0  0  0  0  0  0  0  0  0
   -0.3761   20.3977  -30.0117 H   0  0  0  0  0  0  0  0  0  0  0  0
   -2.1708   20.1759  -29.9405 H   0  0  0  0  0  0  0  0  0  0  0  0
   -0.4674   22.4871  -29.0007 H   0  0  0  0  0  0  0  0  0  0  0  0
   -2.0825   22.4633  -29.8419 H   0  0  0  0  0  0  0  0  0  0  0  0
   -3.3526   22.3388  -30.4563 H   0  0  0  0  0  0  0  0  0  0  0  0
  1  2  1  0
  2  3  1  0
  3  4  1  0
  4  5  1  0
  3  6  1  0
  6  7  1  0
  7  8  1  0
  8  9  1  0
  9 10  2  0
 10 11  1  0
 11 12  2  0
 12 13  1  0
 13 14  2  0
 14 15  1  0
 15 16  2  0
 16 17  1  0
 16 18  1  0
 18 19  2  0
 19 20  1  0
 20 21  2  0
 21 22  1  0
 22 23  1  0
 23 24  1  0
 24 25  1  0
 25 26  1  0
 25 27  1  0
 27 28  1  0
 28 29  1  0
 29 30  1  0
 30 31  1  0
 21 32  1  0
 32 33  2  0
 33  9  1  0
 15 10  1  0
 33 18  1  0
 31 25  1  0
  1 34  1  0
  1 35  1  0
  1 36  1  0
  2 37  1  0
  2 38  1  0
  3 39  1  0
  4 40  1  0
  4 41  1  0
  5 42  1  0
  5 43  1  0
  5 44  1  0
  6 45  1  0
  6 46  1  0
  7 47  1  0
  7 48  1  0
  8 49  1  0
 11 50  1  0
 12 51  1  0
 13 52  1  0
 14 53  1  0
 17 54  1  0
 17 55  1  0
 17 56  1  0
 19 57  1  0
 20 58  1  0
 23 59  1  0
 23 60  1  0
 24 61  1  0
 24 62  1  0
 26 63  1  0
 26 64  1  0
 26 65  1  0
 27 66  1  0
 27 67  1  0
 28 68  1  0
 28 69  1  0
 30 70  1  0
 30 71  1  0
 31 72  1  0
 31 73  1  0
 32 74  1  0
M  CHG  3   3   1  16   1  25   1
M  END
>  <UniqueID>  (27) 
27

>  <SMILES>  (27) 
CC[NH+](CC)CCNc1c2ccccc2[n+](C)c2ccc(OCC[N+]3(C)CCOCC3)cc12

>  <Energy>  (27) 
131.08628008976754

>  <Genealogy>  (27) 
CC[NH+](CC)CCNc1c2ccccc2[n+](C)c2ccc(OCC[N+]3(C)CCOCC3)cc12 (protonated)
CC[NH+](CC)CCNc1c2ccccc2[n+](C)c2ccc(OCC[N+]3(C)CCOCC3)cc12 (3D coordinates assigned)
CC[NH+](CC)CCNc1c2ccccc2[n+](C)c2ccc(OCC[N+]3(C)CCOCC3)cc12 (nonaromatic ring conformer: 131.08628008976754 kcal/mol)

>  <smiles>  (27) 
CCN(CC)CCNc1c2ccccc2[n+](C)c2ccc(OCC[N+]3(C)CCOCC3)cc12

>  <score_type>  (27) 
oracle

>  <origin>  (27) 
adg

>  <m_score__min__energy>  (27) 
-7.9000000000000004

>  <m_primary>  (27) 
energy

$$$$
27:0
     RDKit          3D

 46 47  0  0  0  0  0  0  0  0999 V2000
   -6.7790   18.1620  -31.6690 C   0  0  0  0  0  0  0  0  0  0  0  0
   -7.2270   18.6490  -33.0390 C   0  0  0  0  0  0  0  0  0  0  0  0
   -7.8090   19.9290  -32.9070 O   0  0  0  0  0  0  0  0  0  0  0  0
   -9.0670   19.8410  -32.2620 C   0  0  0  0  0  0  0  0  0  0  0  0
   -9.5390   21.2210  -31.7820 C   0  0  0  0  0  0  0  0  0  0  0  0
   -8.3900   22.2250  -31.6280 C   0  0  0  0  0  0  0  0  0  0  0  0
   -7.3750   21.6960  -30.7000 N   0  0  0  0  0  0  0  0  0  0  0  0
   -6.2230   22.5970  -30.5860 C   0  0  0  0  0  0  0  0  0  0  0  0
   -5.0850   22.0790  -31.4340 C   0  0  0  0  0  0  0  0  0  0  0  0
   -5.3640   21.5890  -32.7200 C   0  0  0  0  0  0  0  0  0  0  0  0
   -4.3570   21.1780  -33.5350 N   0  0  0  0  0  0  0  0  0  0  0  0
   -3.0570   21.2340  -33.1480 C   0  0  0  0  0  0  0  0  0  0  0  0
   -2.7220   21.7280  -31.8880 C   0  0  0  0  0  0  0  0  0  0  0  0
   -3.7350   22.1560  -31.0180 C   0  0  0  0  0  0  0  0  0  0  0  0
   -3.3520   22.6820  -29.6920 C   0  0  0  0  0  0  0  0  0  0  0  0
   -2.9470   21.7900  -28.6880 C   0  0  0  0  0  0  0  0  0  0  0  0
   -2.5810   22.2650  -27.4280 C   0  0  0  0  0  0  0  0  0  0  0  0
   -2.6240   23.6350  -27.1590 C   0  0  0  0  0  0  0  0  0  0  0  0
   -3.0370   24.5320  -28.1470 C   0  0  0  0  0  0  0  0  0  0  0  0
   -3.4100   24.0640  -29.4240 C   0  0  0  0  0  0  0  0  0  0  0  0
   -3.8400   24.9340  -30.4390 O   0  0  0  0  0  0  0  0  0  0  0  0
   -5.1290   25.5360  -30.4920 C   0  0  0  0  0  0  0  0  0  0  0  0
   -7.3033   18.7319  -30.8878 H   0  0  0  0  0  0  0  0  0  0  0  0
   -7.0159   17.0929  -31.5644 H   0  0  0  0  0  0  0  0  0  0  0  0
   -5.6939   18.3091  -31.5644 H   0  0  0  0  0  0  0  0  0  0  0  0
   -6.3584   18.7069  -33.7115 H   0  0  0  0  0  0  0  0  0  0  0  0
   -7.9639   17.9484  -33.4586 H   0  0  0  0  0  0  0  0  0  0  0  0
   -9.8055   19.4343  -32.9686 H   0  0  0  0  0  0  0  0  0  0  0  0
   -8.9660   19.1821  -31.3870 H   0  0  0  0  0  0  0  0  0  0  0  0
  -10.2578   21.6198  -32.5129 H   0  0  0  0  0  0  0  0  0  0  0  0
   -9.9951   21.0870  -30.7900 H   0  0  0  0  0  0  0  0  0  0  0  0
   -7.9276   22.4020  -32.6103 H   0  0  0  0  0  0  0  0  0  0  0  0
   -8.7881   23.1683  -31.2258 H   0  0  0  0  0  0  0  0  0  0  0  0
   -7.0350   20.7760  -31.0690 H   0  0  0  0  0  0  0  0  0  0  0  0
   -6.5088   23.6014  -30.9318 H   0  0  0  0  0  0  0  0  0  0  0  0
   -5.9013   22.6455  -29.5352 H   0  0  0  0  0  0  0  0  0  0  0  0
   -6.4054   21.5374  -33.0704 H   0  0  0  0  0  0  0  0  0  0  0  0
   -2.2661   20.8888  -33.8301 H   0  0  0  0  0  0  0  0  0  0  0  0
   -1.6680   21.7817  -31.5778 H   0  0  0  0  0  0  0  0  0  0  0  0
   -2.9178   20.7101  -28.8951 H   0  0  0  0  0  0  0  0  0  0  0  0
   -2.2587   21.5608  -26.6468 H   0  0  0  0  0  0  0  0  0  0  0  0
   -2.3319   24.0085  -26.1665 H   0  0  0  0  0  0  0  0  0  0  0  0
   -3.0715   25.6094  -27.9277 H   0  0  0  0  0  0  0  0  0  0  0  0
   -5.4960   25.7074  -29.4693 H   0  0  0  0  0  0  0  0  0  0  0  0
   -5.0634   26.4967  -31.0238 H   0  0  0  0  0  0  0  0  0  0  0  0
   -5.8236   24.8691  -31.0238 H   0  0  0  0  0  0  0  0  0  0  0  0
  1  2  1  0
  2  3  1  0
  3  4  1  0
  4  5  1  0
  5  6  1  0
  6  7  1  0
  7  8  1  0
  8  9  1  0
  9 10  2  0
 10 11  1  0
 11 12  2  0
 12 13  1  0
 13 14  2  0
 14 15  1  0
 15 16  2  0
 16 17  1  0
 17 18  2  0
 18 19  1  0
 19 20  2  0
 20 21  1  0
 21 22  1  0
 14  9  1  0
 20 15  1  0
  1 23  1  0
  1 24  1  0
  1 25  1  0
  2 26  1  0
  2 27  1  0
  4 28  1  0
  4 29  1  0
  5 30  1  0
  5 31  1  0
  6 32  1  0
  6 33  1  0
  7 34  1  0
  8 35  1  0
  8 36  1  0
 10 37  1  0
 12 38  1  0
 13 39  1  0
 16 40  1  0
 17 41  1  0
 18 42  1  0
 19 43  1  0
 22 44  1  0
 22 45  1  0
 22 46  1  0
M  END
>  <UniqueID>  (28) 
28

>  <SMILES>  (28) 
CCOCCCNCc1cnccc1-c1ccccc1OC

>  <Energy>  (28) 
49.61185620781028

>  <Genealogy>  (28) 
CCOCCCNCc1cnccc1-c1ccccc1OC (3D coordinates assigned)
CCOCCCNCc1cnccc1-c1ccccc1OC (optimized conformer: 49.61185620781028 kcal/mol)

>  <smiles>  (28) 
CCOCCCNCc1cnccc1-c1ccccc1OC

>  <score_type>  (28) 
oracle

>  <origin>  (28) 
adg

>  <m_score__min__energy>  (28) 
-7.3200000000000003

>  <m_primary>  (28) 
energy

$$$$
28:0
     RDKit          3D

 41 42  0  0  0  0  0  0  0  0999 V2000
   -7.6610   22.2720  -30.3960 C   0  0  0  0  0  0  0  0  0  0  0  0
   -7.8750   23.0820  -31.6710 C   0  0  0  0  0  0  0  0  0  0  0  0
   -6.6330   23.4270  -32.2740 O   0  0  0  0  0  0  0  0  0  0  0  0
   -5.3580   23.4340  -31.6780 C   0  0  0  0  0  0  0  0  0  0  0  0
   -4.3330   22.4780  -31.7010 C   0  0  0  0  0  0  0  0  0  0  0  0
   -4.2710   21.0860  -32.2780 C   0  0  0  0  0  0  0  0  0  0  0  0
   -5.1320   20.9700  -33.4670 N   0  0  0  0  0  0  0  0  0  0  0  0
   -5.6410   19.6050  -33.6740 C   0  0  0  0  0  0  0  0  0  0  0  0
   -6.9140   19.3840  -32.9070 C   0  0  0  0  0  0  0  0  0  0  0  0
   -8.0830   20.0990  -33.0920 C   0  0  0  0  0  0  0  0  0  0  0  0
   -9.0040   19.5810  -32.2030 C   0  0  0  0  0  0  0  0  0  0  0  0
   -8.3680   18.5630  -31.5220 C   0  0  0  0  0  0  0  0  0  0  0  0
   -7.0940   18.4510  -31.9460 N   0  0  0  0  0  0  0  0  0  0  0  0
   -6.1710   17.3880  -31.5530 C   0  0  0  0  0  0  0  0  0  0  0  0
   -3.3310   23.0520  -30.9220 C   0  0  0  0  0  0  0  0  0  0  0  0
   -2.0220   22.4310  -30.5550 C   0  0  0  0  0  0  0  0  0  0  0  0
   -3.7360   24.2430  -30.4440 N   0  0  0  0  0  0  0  0  0  0  0  0
   -4.9500   24.4680  -30.9160 N   0  0  0  0  0  0  0  0  0  0  0  0
   -5.7450   25.6390  -30.5680 C   0  0  0  0  0  0  0  0  0  0  0  0
   -7.8310   22.9153  -29.5201 H   0  0  0  0  0  0  0  0  0  0  0  0
   -8.3672   21.4289  -30.3743 H   0  0  0  0  0  0  0  0  0  0  0  0
   -6.6305   21.8878  -30.3743 H   0  0  0  0  0  0  0  0  0  0  0  0
   -8.4654   22.4845  -32.3812 H   0  0  0  0  0  0  0  0  0  0  0  0
   -8.4061   24.0094  -31.4104 H   0  0  0  0  0  0  0  0  0  0  0  0
   -3.2326   20.8601  -32.5621 H   0  0  0  0  0  0  0  0  0  0  0  0
   -4.6253   20.3747  -31.5174 H   0  0  0  0  0  0  0  0  0  0  0  0
   -5.9610   21.5890  -33.3090 H   0  0  0  0  0  0  0  0  0  0  0  0
   -5.8354   19.4521  -34.7458 H   0  0  0  0  0  0  0  0  0  0  0  0
   -4.8860   18.8906  -33.3141 H   0  0  0  0  0  0  0  0  0  0  0  0
   -8.2470   20.9190  -33.8066 H   0  0  0  0  0  0  0  0  0  0  0  0
  -10.0429   19.9149  -32.0645 H   0  0  0  0  0  0  0  0  0  0  0  0
   -8.8327   17.9355  -30.7472 H   0  0  0  0  0  0  0  0  0  0  0  0
   -6.1223   17.3319  -30.4555 H   0  0  0  0  0  0  0  0  0  0  0  0
   -6.5262   16.4272  -31.9539 H   0  0  0  0  0  0  0  0  0  0  0  0
   -5.1699   17.6049  -31.9539 H   0  0  0  0  0  0  0  0  0  0  0  0
   -1.9309   22.3878  -29.4596 H   0  0  0  0  0  0  0  0  0  0  0  0
   -1.9708   21.4126  -30.9676 H   0  0  0  0  0  0  0  0  0  0  0  0
   -1.2009   23.0355  -30.9676 H   0  0  0  0  0  0  0  0  0  0  0  0
   -5.8059   25.7287  -29.4734 H   0  0  0  0  0  0  0  0  0  0  0  0
   -5.2715   26.5405  -30.9840 H   0  0  0  0  0  0  0  0  0  0  0  0
   -6.7576   25.5315  -30.9840 H   0  0  0  0  0  0  0  0  0  0  0  0
  1  2  1  0
  2  3  1  0
  3  4  1  0
  4  5  2  0
  5  6  1  0
  6  7  1  0
  7  8  1  0
  8  9  1  0
  9 10  2  0
 10 11  1  0
 11 12  2  0
 12 13  1  0
 13 14  1  0
  5 15  1  0
 15 16  1  0
 15 17  2  0
 17 18  1  0
 18 19  1  0
 18  4  1  0
 13  9  1  0
  1 20  1  0
  1 21  1  0
  1 22  1  0
  2 23  1  0
  2 24  1  0
  6 25  1  0
  6 26  1  0
  7 27  1  0
  8 28  1  0
  8 29  1  0
 10 30  1  0
 11 31  1  0
 12 32  1  0
 14 33  1  0
 14 34  1  0
 14 35  1  0
 16 36  1  0
 16 37  1  0
 16 38  1  0
 19 39  1  0
 19 40  1  0
 19 41  1  0
M  END
>  <UniqueID>  (29) 
29

>  <SMILES>  (29) 
CCOc1c(CNCc2cccn2C)c(C)nn1C

>  <Energy>  (29) 
92.50677994860226

>  <Genealogy>  (29) 
CCOc1c(CNCc2cccn2C)c(C)nn1C (3D coordinates assigned)
CCOc1c(CNCc2cccn2C)c(C)nn1C (optimized conformer: 92.50677994860226 kcal/mol)

>  <smiles>  (29) 
CCOc1c(CNCc2cccn2C)c(C)nn1C

>  <score_type>  (29) 
oracle

>  <origin>  (29) 
adg

>  <m_score__min__energy>  (29) 
-6.4800000000000004

>  <m_primary>  (29) 
energy

$$$$
29:0
     RDKit          3D

 53 56  0  0  0  0  0  0  0  0999 V2000
   -3.0784   22.2053  -33.3393 H   0  0  0  0  0  0  0  0  0  0  0  0
   -3.4890   21.9470  -32.3520 C   0  0  0  0  0  0  0  0  0  0  0  0
   -2.6130   21.6320  -31.3830 C   0  0  0  0  0  0  0  0  0  0  0  0
   -2.0256   20.7109  -31.5116 H   0  0  0  0  0  0  0  0  0  0  0  0
   -2.3760   22.4240  -30.1590 C   0  0  0  0  0  0  0  0  0  0  0  0
   -2.9120   23.7150  -30.0630 C   0  0  0  0  0  0  0  0  0  0  0  0
   -3.5019   24.1249  -30.8960 H   0  0  0  0  0  0  0  0  0  0  0  0
   -2.7020   24.4860  -28.9150 C   0  0  0  0  0  0  0  0  0  0  0  0
   -3.1156   25.5035  -28.8547 H   0  0  0  0  0  0  0  0  0  0  0  0
   -1.9660   23.9660  -27.8410 C   0  0  0  0  0  0  0  0  0  0  0  0
   -1.7400   24.7360  -26.6900 C   0  0  0  0  0  0  0  0  0  0  0  0
   -2.1405   25.7589  -26.6333 H   0  0  0  0  0  0  0  0  0  0  0  0
   -1.0110   24.2180  -25.6130 C   0  0  0  0  0  0  0  0  0  0  0  0
   -0.8260   25.0450  -24.4910 O   0  0  0  0  0  0  0  0  0  0  0  0
   -1.1830   26.4250  -24.3750 C   0  0  0  0  0  0  0  0  0  0  0  0
   -2.1185   26.5062  -23.8021 H   0  0  0  0  0  0  0  0  0  0  0  0
   -1.3095   26.8373  -25.3869 H   0  0  0  0  0  0  0  0  0  0  0  0
   -0.0840   27.2280  -23.6570 C   0  0  0  0  0  0  0  0  0  0  0  0
   -0.5004   27.6264  -22.7200 H   0  0  0  0  0  0  0  0  0  0  0  0
    0.2351   28.0245  -24.3453 H   0  0  0  0  0  0  0  0  0  0  0  0
    1.1140   26.4310  -23.3330 N   0  0  0  0  0  0  0  0  0  0  0  0
    1.5000   26.7860  -22.4270 H   0  0  0  0  0  0  0  0  0  0  0  0
    0.8580   25.4290  -23.1930 H   0  0  0  0  0  0  0  0  0  0  0  0
    2.1610   26.5620  -24.3600 C   0  0  0  0  0  0  0  0  0  0  0  0
    3.0986   26.8801  -23.8807 H   0  0  0  0  0  0  0  0  0  0  0  0
    1.8372   27.3082  -25.1005 H   0  0  0  0  0  0  0  0  0  0  0  0
    2.3900   25.2310  -25.0740 C   0  0  0  0  0  0  0  0  0  0  0  0
    2.5272   24.4339  -24.3285 H   0  0  0  0  0  0  0  0  0  0  0  0
    1.5187   24.9981  -25.7038 H   0  0  0  0  0  0  0  0  0  0  0  0
    3.2890   25.3027  -25.7038 H   0  0  0  0  0  0  0  0  0  0  0  0
   -0.4950   22.9090  -25.7000 C   0  0  0  0  0  0  0  0  0  0  0  0
    0.0885   22.4949  -24.8645 H   0  0  0  0  0  0  0  0  0  0  0  0
   -0.7200   22.1340  -26.8410 C   0  0  0  0  0  0  0  0  0  0  0  0
   -0.3188   21.1112  -26.8953 H   0  0  0  0  0  0  0  0  0  0  0  0
   -1.4530   22.6520  -27.9150 C   0  0  0  0  0  0  0  0  0  0  0  0
   -1.6770   21.8820  -29.0660 C   0  0  0  0  0  0  0  0  0  0  0  0
   -1.3037   20.8484  -29.1137 H   0  0  0  0  0  0  0  0  0  0  0  0
   -4.9620   21.9750  -32.2000 C   0  0  0  0  0  0  0  0  0  0  0  0
   -5.7050   20.8520  -32.4050 N   0  0  0  0  0  0  0  0  0  0  0  0
   -7.0580   20.8450  -32.2830 C   0  0  0  0  0  0  0  0  0  0  0  0
   -7.7750   19.6590  -32.4750 C   0  0  0  0  0  0  0  0  0  0  0  0
   -7.2443   18.7295  -32.7286 H   0  0  0  0  0  0  0  0  0  0  0  0
   -9.1680   19.6570  -32.3440 C   0  0  0  0  0  0  0  0  0  0  0  0
   -9.7313   18.7243  -32.4947 H   0  0  0  0  0  0  0  0  0  0  0  0
   -9.8470   20.8370  -32.0220 C   0  0  0  0  0  0  0  0  0  0  0  0
  -10.9423   20.8293  -31.9210 H   0  0  0  0  0  0  0  0  0  0  0  0
   -9.1370   22.0270  -31.8280 C   0  0  0  0  0  0  0  0  0  0  0  0
   -9.6737   22.9531  -31.5746 H   0  0  0  0  0  0  0  0  0  0  0  0
   -7.7400   22.0380  -31.9570 C   0  0  0  0  0  0  0  0  0  0  0  0
   -6.9990   23.2100  -31.7670 C   0  0  0  0  0  0  0  0  0  0  0  0
   -7.5105   24.1516  -31.5183 H   0  0  0  0  0  0  0  0  0  0  0  0
   -5.6080   23.1810  -31.8940 C   0  0  0  0  0  0  0  0  0  0  0  0
   -5.0217   24.1012  -31.7544 H   0  0  0  0  0  0  0  0  0  0  0  0
  1  2  1  0
  2  3  2  0
  3  4  1  0
  3  5  1  0
  5  6  2  0
  6  7  1  0
  6  8  1  0
  8  9  1  0
  8 10  2  0
 10 11  1  0
 11 12  1  0
 11 13  2  0
 13 14  1  0
 14 15  1  0
 15 16  1  0
 15 17  1  0
 15 18  1  0
 18 19  1  0
 18 20  1  0
 18 21  1  0
 21 22  1  0
 21 23  1  0
 21 24  1  0
 24 25  1  0
 24 26  1  0
 24 27  1  0
 27 28  1  0
 27 29  1  0
 27 30  1  0
 13 31  1  0
 31 32  1  0
 31 33  2  0
 33 34  1  0
 33 35  1  0
 35 36  2  0
 36 37  1  0
  2 38  1  0
 38 39  2  0
 39 40  1  0
 40 41  2  0
 41 42  1  0
 41 43  1  0
 43 44  1  0
 43 45  2  0
 45 46  1  0
 45 47  1  0
 47 48  1  0
 47 49  2  0
 49 50  1  0
 50 51  1  0
 50 52  2  0
 52 53  1  0
 36  5  1  0
 52 38  1  0
 35 10  1  0
 49 40  1  0
M  CHG  1  21   1
M  END
>  <UniqueID>  (30) 
30

>  <SMILES>  (30) 
CC[NH2+]CCOc1ccc2cc(/C=C\c3ccc4ccccc4n3)ccc2c1

>  <Energy>  (30) 
68.58540547788219

>  <Genealogy>  (30) 
CC[NH2+]CCOc1ccc2cc(C=Cc3ccc4ccccc4n3)ccc2c1 (protonated)
CC[NH2+]CCOc1ccc2cc(/C=C\c3ccc4ccccc4n3)ccc2c1 (cis-trans isomerization)
CC[NH2+]CCOc1ccc2cc(/C=C\c3ccc4ccccc4n3)ccc2c1 (3D coordinates assigned)
CC[NH2+]CCOc1ccc2cc(/C=C\c3ccc4ccccc4n3)ccc2c1 (optimized conformer: 68.58540547788219 kcal/mol)

>  <smiles>  (30) 
CCNCCOc1ccc2cc(C=Cc3ccc4ccccc4n3)ccc2c1

>  <score_type>  (30) 
oracle

>  <origin>  (30) 
adg

>  <m_score__min__energy>  (30) 
-10.16

>  <m_primary>  (30) 
energy

$$$$
30:0
     RDKit          3D

 48 50  0  0  0  0  0  0  0  0999 V2000
   -1.2210   17.8240  -32.8090 C   0  0  0  0  0  0  0  0  0  0  0  0
   -0.8020   18.5790  -34.0670 C   0  0  0  0  0  0  0  0  0  0  0  0
   -1.2770   19.9850  -34.0280 N   0  0  0  0  0  0  0  0  0  0  0  0
   -0.4880   20.8150  -34.9710 C   0  0  0  0  0  0  0  0  0  0  0  0
    0.8300   21.2300  -34.3230 C   0  0  0  0  0  0  0  0  0  0  0  0
   -1.1990   20.5150  -32.6440 C   0  0  0  0  0  0  0  0  0  0  0  0
   -2.4900   21.2280  -32.2040 C   0  0  0  0  0  0  0  0  0  0  0  0
   -3.4770   21.2760  -33.2840 N   0  0  0  0  0  0  0  0  0  0  0  0
   -4.8090   20.7570  -33.1160 C   0  0  0  0  0  0  0  0  0  0  0  0
   -5.8320   21.5680  -32.5710 C   0  0  0  0  0  0  0  0  0  0  0  0
   -5.6110   22.9370  -32.3010 C   0  0  0  0  0  0  0  0  0  0  0  0
   -6.6120   23.7250  -31.7340 C   0  0  0  0  0  0  0  0  0  0  0  0
   -7.8510   23.1690  -31.4320 C   0  0  0  0  0  0  0  0  0  0  0  0
   -8.1060   21.8270  -31.7160 C   0  0  0  0  0  0  0  0  0  0  0  0
   -7.1140   21.0150  -32.3090 C   0  0  0  0  0  0  0  0  0  0  0  0
   -7.3800   19.6660  -32.6310 C   0  0  0  0  0  0  0  0  0  0  0  0
   -8.6720   19.1020  -32.3650 N   0  0  0  0  0  0  0  0  0  0  0  0
   -9.6510   19.4130  -33.0730 O   0  0  0  0  0  0  0  0  0  0  0  0
   -8.8250   18.1740  -31.3610 O   0  0  0  0  0  0  0  0  0  0  0  0
   -6.3760   18.8770  -33.2340 C   0  0  0  0  0  0  0  0  0  0  0  0
   -6.6250   17.5440  -33.6130 C   0  0  0  0  0  0  0  0  0  0  0  0
   -5.6230   16.7840  -34.2080 C   0  0  0  0  0  0  0  0  0  0  0  0
   -4.3760   17.3540  -34.4350 C   0  0  0  0  0  0  0  0  0  0  0  0
   -4.1360   18.6430  -34.0790 N   0  0  0  0  0  0  0  0  0  0  0  0
   -5.0930   19.4230  -33.4850 C   0  0  0  0  0  0  0  0  0  0  0  0
   -0.9068   18.3902  -31.9198 H   0  0  0  0  0  0  0  0  0  0  0  0
   -2.3145   17.7046  -32.8001 H   0  0  0  0  0  0  0  0  0  0  0  0
   -0.7438   16.8329  -32.8001 H   0  0  0  0  0  0  0  0  0  0  0  0
    0.2954   18.5722  -34.1416 H   0  0  0  0  0  0  0  0  0  0  0  0
   -1.2512   18.0819  -34.9394 H   0  0  0  0  0  0  0  0  0  0  0  0
   -0.2794   20.2338  -35.8813 H   0  0  0  0  0  0  0  0  0  0  0  0
   -1.0639   21.7163  -35.2280 H   0  0  0  0  0  0  0  0  0  0  0  0
    0.7266   21.1975  -33.2284 H   0  0  0  0  0  0  0  0  0  0  0  0
    1.6264   20.5391  -34.6368 H   0  0  0  0  0  0  0  0  0  0  0  0
    1.0869   22.2525  -34.6368 H   0  0  0  0  0  0  0  0  0  0  0  0
   -1.0088   19.6771  -31.9571 H   0  0  0  0  0  0  0  0  0  0  0  0
   -0.3866   21.2562  -32.6188 H   0  0  0  0  0  0  0  0  0  0  0  0
   -2.9226   20.6869  -31.3495 H   0  0  0  0  0  0  0  0  0  0  0  0
   -2.2338   22.2614  -31.9274 H   0  0  0  0  0  0  0  0  0  0  0  0
   -3.1680   21.5920  -34.2310 H   0  0  0  0  0  0  0  0  0  0  0  0
   -4.6365   23.3872  -32.5412 H   0  0  0  0  0  0  0  0  0  0  0  0
   -6.4217   24.7881  -31.5251 H   0  0  0  0  0  0  0  0  0  0  0  0
   -8.6319   23.7893  -30.9679 H   0  0  0  0  0  0  0  0  0  0  0  0
   -9.0895   21.3970  -31.4757 H   0  0  0  0  0  0  0  0  0  0  0  0
   -7.6166   17.1013  -33.4378 H   0  0  0  0  0  0  0  0  0  0  0  0
   -5.8162   15.7402  -34.4965 H   0  0  0  0  0  0  0  0  0  0  0  0
   -3.5795   16.7586  -34.9052 H   0  0  0  0  0  0  0  0  0  0  0  0
   -3.1900   19.0230  -34.2900 H   0  0  0  0  0  0  0  0  0  0  0  0
  1  2  1  0
  2  3  1  0
  3  4  1  0
  4  5  1  0
  3  6  1  0
  6  7  1  0
  7  8  1  0
  8  9  1  0
  9 10  2  0
 10 11  1  0
 11 12  2  0
 12 13  1  0
 13 14  2  0
 14 15  1  0
 15 16  2  0
 16 17  1  0
 17 18  2  0
 17 19  1  0
 16 20  1  0
 20 21  2  0
 21 22  1  0
 22 23  2  0
 23 24  1  0
 24 25  2  0
 25  9  1  0
 15 10  1  0
 25 20  1  0
  1 26  1  0
  1 27  1  0
  1 28  1  0
  2 29  1  0
  2 30  1  0
  4 31  1  0
  4 32  1  0
  5 33  1  0
  5 34  1  0
  5 35  1  0
  6 36  1  0
  6 37  1  0
  7 38  1  0
  7 39  1  0
  8 40  1  0
 11 41  1  0
 12 42  1  0
 13 43  1  0
 14 44  1  0
 21 45  1  0
 22 46  1  0
 23 47  1  0
 24 48  1  0
M  CHG  3  17   1  19  -1  24   1
M  END
>  <UniqueID>  (31) 
31

>  <SMILES>  (31) 
CCN(CC)CCNc1c2ccccc2c([N+](=O)[O-])c2ccc[nH+]c12

>  <Energy>  (31) 
71.01489914359966

>  <Genealogy>  (31) 
CCN(CC)CCNc1c2ccccc2c([N+](=O)[O-])c2ccc[nH+]c12 (protonated)
CCN(CC)CCNc1c2ccccc2c([N+](=O)[O-])c2ccc[nH+]c12 (3D coordinates assigned)
CCN(CC)CCNc1c2ccccc2c([N+](=O)[O-])c2ccc[nH+]c12 (optimized conformer: 71.01489914359966 kcal/mol)

>  <smiles>  (31) 
CCN(CC)CCNc1c2ccccc2c([N+](=O)[O-])c2cccnc12

>  <score_type>  (31) 
oracle

>  <origin>  (31) 
adg

>  <m_score__min__energy>  (31) 
-7.1600000000000001

>  <m_primary>  (31) 
energy

$$$$
31:0
     RDKit          3D

 44 45  0  0  0  0  0  0  0  0999 V2000
   -2.7960   20.2550  -27.3830 C   0  0  0  0  0  0  0  0  0  0  0  0
   -2.3120   21.6990  -27.4760 C   0  0  0  0  0  0  0  0  0  0  0  0
   -3.4200   22.5960  -27.4590 O   0  0  0  0  0  0  0  0  0  0  0  0
   -3.2840   23.9870  -27.5300 C   0  0  0  0  0  0  0  0  0  0  0  0
   -3.9650   24.7410  -26.7830 O   0  0  0  0  0  0  0  0  0  0  0  0
   -2.3670   24.5870  -28.5480 C   0  0  0  0  0  0  0  0  0  0  0  0
   -3.1010   24.9320  -29.7240 O   0  0  0  0  0  0  0  0  0  0  0  0
   -4.2520   24.2640  -30.1780 C   0  0  0  0  0  0  0  0  0  0  0  0
   -4.3180   22.8650  -30.3060 C   0  0  0  0  0  0  0  0  0  0  0  0
   -5.4460   22.2750  -30.6900 O   0  0  0  0  0  0  0  0  0  0  0  0
   -6.5540   22.9520  -30.9760 C   0  0  0  0  0  0  0  0  0  0  0  0
   -7.8060   22.1990  -31.3540 C   0  0  0  0  0  0  0  0  0  0  0  0
   -7.5550   20.7960  -31.7500 N   0  0  0  0  0  0  0  0  0  0  0  0
   -6.9530   20.6630  -33.0860 C   0  0  0  0  0  0  0  0  0  0  0  0
   -6.4060   19.2350  -33.2750 C   0  0  0  0  0  0  0  0  0  0  0  0
   -7.1610   18.2090  -32.5150 N   0  0  0  0  0  0  0  0  0  0  0  0
   -6.5050   17.8620  -31.2420 C   0  0  0  0  0  0  0  0  0  0  0  0
   -8.5780   18.5780  -32.3220 C   0  0  0  0  0  0  0  0  0  0  0  0
   -8.7420   19.9290  -31.5910 C   0  0  0  0  0  0  0  0  0  0  0  0
   -6.5520   24.3530  -30.9090 C   0  0  0  0  0  0  0  0  0  0  0  0
   -5.3880   25.0080  -30.5070 C   0  0  0  0  0  0  0  0  0  0  0  0
   -5.3710   26.2650  -30.4280 O   0  0  0  0  0  0  0  0  0  0  0  0
   -2.8922   19.9679  -26.3255 H   0  0  0  0  0  0  0  0  0  0  0  0
   -3.7739   20.1635  -27.8782 H   0  0  0  0  0  0  0  0  0  0  0  0
   -2.0708   19.5926  -27.8782 H   0  0  0  0  0  0  0  0  0  0  0  0
   -1.6557   21.9172  -26.6206 H   0  0  0  0  0  0  0  0  0  0  0  0
   -1.7604   21.8307  -28.4185 H   0  0  0  0  0  0  0  0  0  0  0  0
   -1.9016   25.4920  -28.1305 H   0  0  0  0  0  0  0  0  0  0  0  0
   -1.5894   23.8543  -28.8098 H   0  0  0  0  0  0  0  0  0  0  0  0
   -3.4298   22.2543  -30.0868 H   0  0  0  0  0  0  0  0  0  0  0  0
   -8.4870   22.2002  -30.4902 H   0  0  0  0  0  0  0  0  0  0  0  0
   -8.2384   22.7089  -32.2275 H   0  0  0  0  0  0  0  0  0  0  0  0
   -7.7163   20.8655  -33.8518 H   0  0  0  0  0  0  0  0  0  0  0  0
   -6.1273   21.3831  -33.1844 H   0  0  0  0  0  0  0  0  0  0  0  0
   -6.4540   18.9821  -34.3445 H   0  0  0  0  0  0  0  0  0  0  0  0
   -5.3749   19.2291  -32.8919 H   0  0  0  0  0  0  0  0  0  0  0  0
   -7.1337   18.1946  -30.4029 H   0  0  0  0  0  0  0  0  0  0  0  0
   -6.3657   16.7723  -31.1864 H   0  0  0  0  0  0  0  0  0  0  0  0
   -5.5258   18.3601  -31.1864 H   0  0  0  0  0  0  0  0  0  0  0  0
   -9.0617   18.6489  -33.3074 H   0  0  0  0  0  0  0  0  0  0  0  0
   -9.0442   17.8011  -31.6982 H   0  0  0  0  0  0  0  0  0  0  0  0
   -9.6193   20.4502  -32.0018 H   0  0  0  0  0  0  0  0  0  0  0  0
   -8.8673   19.7203  -30.5183 H   0  0  0  0  0  0  0  0  0  0  0  0
   -7.4541   24.9261  -31.1694 H   0  0  0  0  0  0  0  0  0  0  0  0
  1  2  1  0
  2  3  1  0
  3  4  1  0
  4  5  2  0
  4  6  1  0
  6  7  1  0
  7  8  1  0
  8  9  2  0
  9 10  1  0
 10 11  1  0
 11 12  1  0
 12 13  1  0
 13 14  1  0
 14 15  1  0
 15 16  1  0
 16 17  1  0
 16 18  1  0
 18 19  1  0
 11 20  2  0
 20 21  1  0
 21 22  2  0
 21  8  1  0
 19 13  1  0
  1 23  1  0
  1 24  1  0
  1 25  1  0
  2 26  1  0
  2 27  1  0
  6 28  1  0
  6 29  1  0
  9 30  1  0
 12 31  1  0
 12 32  1  0
 14 33  1  0
 14 34  1  0
 15 35  1  0
 15 36  1  0
 17 37  1  0
 17 38  1  0
 17 39  1  0
 18 40  1  0
 18 41  1  0
 19 42  1  0
 19 43  1  0
 20 44  1  0
M  END
>  <UniqueID>  (32) 
32

>  <SMILES>  (32) 
CCOC(=O)COc1coc(CN2CCN(C)CC2)cc1=O

>  <Energy>  (32) 
50.95823782883104

>  <Genealogy>  (32) 
CCOC(=O)COc1coc(CN2CCN(C)CC2)cc1=O (3D coordinates assigned)
CCOC(=O)COc1coc(CN2CCN(C)CC2)cc1=O (nonaromatic ring conformer: 50.95823782883104 kcal/mol)

>  <smiles>  (32) 
CCOC(=O)COc1coc(CN2CCN(C)CC2)cc1=O

>  <score_type>  (32) 
oracle

>  <origin>  (32) 
adg

>  <m_score__min__energy>  (32) 
-7.5899999999999999

>  <m_primary>  (32) 
energy

$$$$
