0:0
     RDKit          3D

 59 61  0  0  0  0  0  0  0  0999 V2000
   -3.1610   19.4490  -33.8400 C   0  0  0  0  0  0  0  0  0  0  0  0
   -2.8870   20.8860  -33.4010 C   0  0  0  0  0  0  0  0  0  0  0  0
   -1.5840   20.9930  -32.7010 N   0  0  0  0  0  0  0  0  0  0  0  0
   -0.4920   20.2950  -33.4240 C   0  0  0  0  0  0  0  0  0  0  0  0
    0.3700   21.2070  -34.3190 C   0  0  0  0  0  0  0  0  0  0  0  0
   -0.3730   22.3070  -34.7680 O   0  0  0  0  0  0  0  0  0  0  0  0
   -1.6450   20.6040  -31.2720 C   0  0  0  0  0  0  0  0  0  0  0  0
   -2.4420   21.6000  -30.4710 C   0  0  0  0  0  0  0  0  0  0  0  0
   -2.7940   21.3230  -29.1420 C   0  0  0  0  0  0  0  0  0  0  0  0
   -3.5290   22.2490  -28.4000 C   0  0  0  0  0  0  0  0  0  0  0  0
   -3.9050   23.4640  -28.9760 C   0  0  0  0  0  0  0  0  0  0  0  0
   -3.5610   23.7650  -30.2960 C   0  0  0  0  0  0  0  0  0  0  0  0
   -3.9550   25.0120  -30.8050 O   0  0  0  0  0  0  0  0  0  0  0  0
   -5.1450   25.7310  -30.4680 C   0  0  0  0  0  0  0  0  0  0  0  0
   -6.3460   24.7900  -30.3790 C   0  0  0  0  0  0  0  0  0  0  0  0
   -6.6390   24.2610  -31.6660 O   0  0  0  0  0  0  0  0  0  0  0  0
   -6.9270   22.9170  -31.9370 C   0  0  0  0  0  0  0  0  0  0  0  0
   -8.2200   22.3730  -31.8040 C   0  0  0  0  0  0  0  0  0  0  0  0
   -8.4330   21.0080  -32.0210 C   0  0  0  0  0  0  0  0  0  0  0  0
   -7.3630   20.1710  -32.3570 C   0  0  0  0  0  0  0  0  0  0  0  0
   -7.6020   18.8020  -32.5330 O   0  0  0  0  0  0  0  0  0  0  0  0
   -6.6360   17.8660  -32.9280 C   0  0  0  0  0  0  0  0  0  0  0  0
   -6.1750   17.7900  -34.2540 C   0  0  0  0  0  0  0  0  0  0  0  0
   -5.1980   16.8550  -34.6070 C   0  0  0  0  0  0  0  0  0  0  0  0
   -4.6680   15.9980  -33.6380 C   0  0  0  0  0  0  0  0  0  0  0  0
   -5.1130   16.0770  -32.3170 C   0  0  0  0  0  0  0  0  0  0  0  0
   -6.0880   17.0120  -31.9610 C   0  0  0  0  0  0  0  0  0  0  0  0
   -6.0840   20.7240  -32.5430 C   0  0  0  0  0  0  0  0  0  0  0  0
   -5.8760   22.0900  -32.3410 C   0  0  0  0  0  0  0  0  0  0  0  0
   -2.8220   22.8250  -31.0450 C   0  0  0  0  0  0  0  0  0  0  0  0
   -3.2826   18.8112  -32.9521 H   0  0  0  0  0  0  0  0  0  0  0  0
   -4.0811   19.4186  -34.4421 H   0  0  0  0  0  0  0  0  0  0  0  0
   -2.3166   19.0822  -34.4421 H   0  0  0  0  0  0  0  0  0  0  0  0
   -2.8721   21.5358  -34.2885 H   0  0  0  0  0  0  0  0  0  0  0  0
   -3.6821   21.1961  -32.7070 H   0  0  0  0  0  0  0  0  0  0  0  0
    0.1662   19.8238  -32.6792 H   0  0  0  0  0  0  0  0  0  0  0  0
   -0.9758   19.5683  -34.0933 H   0  0  0  0  0  0  0  0  0  0  0  0
    1.2344   21.5667  -33.7415 H   0  0  0  0  0  0  0  0  0  0  0  0
    0.7075   20.6287  -35.1917 H   0  0  0  0  0  0  0  0  0  0  0  0
   -1.3230   22.0870  -34.5950 H   0  0  0  0  0  0  0  0  0  0  0  0
   -2.1192   19.6149  -31.1891 H   0  0  0  0  0  0  0  0  0  0  0  0
   -0.6199   20.5766  -30.8739 H   0  0  0  0  0  0  0  0  0  0  0  0
   -2.4894   20.3713  -28.6821 H   0  0  0  0  0  0  0  0  0  0  0  0
   -3.8120   22.0216  -27.3616 H   0  0  0  0  0  0  0  0  0  0  0  0
   -4.4785   24.1923  -28.3838 H   0  0  0  0  0  0  0  0  0  0  0  0
   -5.0031   26.2263  -29.4961 H   0  0  0  0  0  0  0  0  0  0  0  0
   -5.3399   26.4750  -31.2545 H   0  0  0  0  0  0  0  0  0  0  0  0
   -6.1135   23.9652  -29.6893 H   0  0  0  0  0  0  0  0  0  0  0  0
   -7.2184   25.3481  -30.0082 H   0  0  0  0  0  0  0  0  0  0  0  0
   -9.0635   23.0233  -31.5289 H   0  0  0  0  0  0  0  0  0  0  0  0
   -9.4463   20.5903  -31.9271 H   0  0  0  0  0  0  0  0  0  0  0  0
   -6.5847   18.4689  -35.0164 H   0  0  0  0  0  0  0  0  0  0  0  0
   -4.8461   16.7934  -35.6474 H   0  0  0  0  0  0  0  0  0  0  0  0
   -3.9001   15.2612  -33.9164 H   0  0  0  0  0  0  0  0  0  0  0  0
   -4.6953   15.4020  -31.5555 H   0  0  0  0  0  0  0  0  0  0  0  0
   -6.4273   17.0784  -30.9167 H   0  0  0  0  0  0  0  0  0  0  0  0
   -5.2461   20.0799  -32.8480 H   0  0  0  0  0  0  0  0  0  0  0  0
   -4.8757   22.5187  -32.5014 H   0  0  0  0  0  0  0  0  0  0  0  0
   -2.5418   23.0524  -32.0841 H   0  0  0  0  0  0  0  0  0  0  0  0
  1  2  1  0
  2  3  1  0
  3  4  1  0
  4  5  1  0
  5  6  1  0
  3  7  1  0
  7  8  1  0
  8  9  2  0
  9 10  1  0
 10 11  2  0
 11 12  1  0
 12 13  1  0
 13 14  1  0
 14 15  1  0
 15 16  1  0
 16 17  1  0
 17 18  2  0
 18 19  1  0
 19 20  2  0
 20 21  1  0
 21 22  1  0
 22 23  2  0
 23 24  1  0
 24 25  2  0
 25 26  1  0
 26 27  2  0
 20 28  1  0
 28 29  2  0
 12 30  2  0
 30  8  1  0
 29 17  1  0
 27 22  1  0
  1 31  1  0
  1 32  1  0
  1 33  1  0
  2 34  1  0
  2 35  1  0
  4 36  1  0
  4 37  1  0
  5 38  1  0
  5 39  1  0
  6 40  1  0
  7 41  1  0
  7 42  1  0
  9 43  1  0
 10 44  1  0
 11 45  1  0
 14 46  1  0
 14 47  1  0
 15 48  1  0
 15 49  1  0
 18 50  1  0
 19 51  1  0
 23 52  1  0
 24 53  1  0
 25 54  1  0
 26 55  1  0
 27 56  1  0
 28 57  1  0
 29 58  1  0
 30 59  1  0
M  END
>  <UniqueID>  (1) 
1

>  <SMILES>  (1) 
CCN(CCO)Cc1cccc(OCCOc2ccc(Oc3ccccc3)cc2)c1

>  <Energy>  (1) 
65.01277575264666

>  <Genealogy>  (1) 
CCN(CCO)Cc1cccc(OCCOc2ccc(Oc3ccccc3)cc2)c1 (3D coordinates assigned)
CCN(CCO)Cc1cccc(OCCOc2ccc(Oc3ccccc3)cc2)c1 (optimized conformer: 65.01277575264666 kcal/mol)

>  <smiles>  (1) 
CCN(CCO)Cc1cccc(OCCOc2ccc(Oc3ccccc3)cc2)c1

>  <score_type>  (1) 
oracle

>  <origin>  (1) 
adg

>  <m_score__min__energy>  (1) 
-8.6199999999999992

>  <m_primary>  (1) 
energy

$$$$
1:0
     RDKit          3D

 62 65  0  0  0  0  0  0  0  0999 V2000
   -4.6790   22.4400  -29.7330 C   0  0  0  0  0  0  0  0  0  0  0  0
   -4.0540   22.0490  -31.0520 C   0  0  0  0  0  0  0  0  0  0  0  0
   -4.8510   21.8530  -32.2060 C   0  0  0  0  0  0  0  0  0  0  0  0
   -6.3290   21.9790  -32.1740 C   0  0  0  0  0  0  0  0  0  0  0  0
   -6.8960   23.2330  -31.8940 C   0  0  0  0  0  0  0  0  0  0  0  0
   -8.2810   23.3790  -31.7960 C   0  0  0  0  0  0  0  0  0  0  0  0
   -9.1140   22.2730  -31.9660 C   0  0  0  0  0  0  0  0  0  0  0  0
   -8.5660   21.0180  -32.2420 C   0  0  0  0  0  0  0  0  0  0  0  0
   -7.1760   20.8560  -32.3580 C   0  0  0  0  0  0  0  0  0  0  0  0
   -6.6350   19.5160  -32.6850 C   0  0  0  0  0  0  0  0  0  0  0  0
   -6.5080   18.5430  -31.6820 C   0  0  0  0  0  0  0  0  0  0  0  0
   -5.9810   17.2830  -31.9810 C   0  0  0  0  0  0  0  0  0  0  0  0
   -5.5830   16.9720  -33.2980 C   0  0  0  0  0  0  0  0  0  0  0  0
   -5.0430   15.7260  -33.6560 O   0  0  0  0  0  0  0  0  0  0  0  0
   -3.9870   15.5170  -34.5940 C   0  0  0  0  0  0  0  0  0  0  0  0
   -2.6410   15.9670  -34.0070 C   0  0  0  0  0  0  0  0  0  0  0  0
   -2.4440   17.4240  -34.1670 N   0  0  0  0  0  0  0  0  0  0  0  0
   -2.4740   18.1260  -32.8600 C   0  0  0  0  0  0  0  0  0  0  0  0
   -1.0590   18.4600  -32.3550 C   0  0  0  0  0  0  0  0  0  0  0  0
   -0.3160   19.2860  -33.2420 O   0  0  0  0  0  0  0  0  0  0  0  0
   -0.6780   19.1300  -34.6070 C   0  0  0  0  0  0  0  0  0  0  0  0
   -1.2170   17.7290  -34.9430 C   0  0  0  0  0  0  0  0  0  0  0  0
   -5.7220   17.9430  -34.2960 C   0  0  0  0  0  0  0  0  0  0  0  0
   -6.2460   19.2030  -33.9970 C   0  0  0  0  0  0  0  0  0  0  0  0
   -4.2260   21.5330  -33.4190 C   0  0  0  0  0  0  0  0  0  0  0  0
   -2.8790   21.3970  -33.4850 N   0  0  0  0  0  0  0  0  0  0  0  0
   -2.0900   21.5550  -32.3930 C   0  0  0  0  0  0  0  0  0  0  0  0
   -2.6550   21.8700  -31.1510 C   0  0  0  0  0  0  0  0  0  0  0  0
   -1.8070   22.0040  -29.9980 N   0  0  0  0  0  0  0  0  0  0  0  0
   -1.6680   20.8790  -29.0740 C   0  0  0  0  0  0  0  0  0  0  0  0
   -1.4440   23.3430  -29.5340 C   0  0  0  0  0  0  0  0  0  0  0  0
   -4.0632   22.0547  -28.9069 H   0  0  0  0  0  0  0  0  0  0  0  0
   -4.7381   23.5364  -29.6659 H   0  0  0  0  0  0  0  0  0  0  0  0
   -5.6907   22.0135  -29.6659 H   0  0  0  0  0  0  0  0  0  0  0  0
   -6.2437   24.1071  -31.7508 H   0  0  0  0  0  0  0  0  0  0  0  0
   -8.7158   24.3670  -31.5845 H   0  0  0  0  0  0  0  0  0  0  0  0
  -10.2046   22.3893  -31.8825 H   0  0  0  0  0  0  0  0  0  0  0  0
   -9.2289   20.1495  -32.3695 H   0  0  0  0  0  0  0  0  0  0  0  0
   -6.8250   18.7730  -30.6541 H   0  0  0  0  0  0  0  0  0  0  0  0
   -5.8763   16.5306  -31.1854 H   0  0  0  0  0  0  0  0  0  0  0  0
   -3.9323   14.4470  -34.8434 H   0  0  0  0  0  0  0  0  0  0  0  0
   -4.1943   16.1098  -35.4971 H   0  0  0  0  0  0  0  0  0  0  0  0
   -2.6162   15.7177  -32.9359 H   0  0  0  0  0  0  0  0  0  0  0  0
   -1.8360   15.4469  -34.5469 H   0  0  0  0  0  0  0  0  0  0  0  0
   -3.0417   19.0615  -32.9718 H   0  0  0  0  0  0  0  0  0  0  0  0
   -2.9493   17.4589  -32.1257 H   0  0  0  0  0  0  0  0  0  0  0  0
   -1.1484   18.9795  -31.3895 H   0  0  0  0  0  0  0  0  0  0  0  0
   -0.5147   17.5079  -32.2704 H   0  0  0  0  0  0  0  0  0  0  0  0
   -1.4562   19.8693  -34.8474 H   0  0  0  0  0  0  0  0  0  0  0  0
    0.2352   19.2766  -35.2025 H   0  0  0  0  0  0  0  0  0  0  0  0
   -1.4513   17.6831  -36.0168 H   0  0  0  0  0  0  0  0  0  0  0  0
   -0.4470   16.9884  -34.6811 H   0  0  0  0  0  0  0  0  0  0  0  0
   -5.4154   17.7117  -35.3268 H   0  0  0  0  0  0  0  0  0  0  0  0
   -6.3543   19.9537  -34.7937 H   0  0  0  0  0  0  0  0  0  0  0  0
   -4.8336   21.3911  -34.3249 H   0  0  0  0  0  0  0  0  0  0  0  0
   -1.0003   21.4350  -32.4836 H   0  0  0  0  0  0  0  0  0  0  0  0
   -1.7135   21.2473  -28.0385 H   0  0  0  0  0  0  0  0  0  0  0  0
   -2.4843   20.1616  -29.2443 H   0  0  0  0  0  0  0  0  0  0  0  0
   -0.7016   20.3819  -29.2443 H   0  0  0  0  0  0  0  0  0  0  0  0
   -1.4391   23.3611  -28.4342 H   0  0  0  0  0  0  0  0  0  0  0  0
   -0.4431   23.6024  -29.9095 H   0  0  0  0  0  0  0  0  0  0  0  0
   -2.1768   24.0724  -29.9095 H   0  0  0  0  0  0  0  0  0  0  0  0
  1  2  1  0
  2  3  2  0
  3  4  1  0
  4  5  2  0
  5  6  1  0
  6  7  2  0
  7  8  1  0
  8  9  2  0
  9 10  1  0
 10 11  2  0
 11 12  1  0
 12 13  2  0
 13 14  1  0
 14 15  1  0
 15 16  1  0
 16 17  1  0
 17 18  1  0
 18 19  1  0
 19 20  1  0
 20 21  1  0
 21 22  1  0
 13 23  1  0
 23 24  2  0
  3 25  1  0
 25 26  2  0
 26 27  1  0
 27 28  2  0
 28 29  1  0
 29 30  1  0
 29 31  1  0
 28  2  1  0
  9  4  1  0
 24 10  1  0
 22 17  1  0
  1 32  1  0
  1 33  1  0
  1 34  1  0
  5 35  1  0
  6 36  1  0
  7 37  1  0
  8 38  1  0
 11 39  1  0
 12 40  1  0
 15 41  1  0
 15 42  1  0
 16 43  1  0
 16 44  1  0
 18 45  1  0
 18 46  1  0
 19 47  1  0
 19 48  1  0
 21 49  1  0
 21 50  1  0
 22 51  1  0
 22 52  1  0
 23 53  1  0
 24 54  1  0
 25 55  1  0
 27 56  1  0
 30 57  1  0
 30 58  1  0
 30 59  1  0
 31 60  1  0
 31 61  1  0
 31 62  1  0
M  END
>  <UniqueID>  (2) 
2

>  <SMILES>  (2) 
Cc1c(-c2ccccc2-c2ccc(OCCN3CCOCC3)cc2)cncc1N(C)C

>  <Energy>  (2) 
97.72236508100683

>  <Genealogy>  (2) 
Cc1c(-c2ccccc2-c2ccc(OCCN3CCOCC3)cc2)cncc1N(C)C (3D coordinates assigned)
Cc1c(-c2ccccc2-c2ccc(OCCN3CCOCC3)cc2)cncc1N(C)C (nonaromatic ring conformer: 97.72236508100683 kcal/mol)

>  <smiles>  (2) 
Cc1c(-c2ccccc2-c2ccc(OCCN3CCOCC3)cc2)cncc1N(C)C

>  <score_type>  (2) 
oracle

>  <origin>  (2) 
adg

>  <m_score__min__energy>  (2) 
-9.8200000000000003

>  <m_primary>  (2) 
energy

$$$$
2:0
     RDKit          3D

 52 53  0  0  0  0  0  0  0  0999 V2000
   -6.5010   25.6850  -29.3310 C   0  0  0  0  0  0  0  0  0  0  0  0
   -6.0710   24.6290  -30.3030 C   0  0  0  0  0  0  0  0  0  0  0  0
   -6.9000   24.0380  -31.1520 C   0  0  0  0  0  0  0  0  0  0  0  0
   -6.1690   23.1540  -32.1010 C   0  0  2  0  0  0  0  0  0  0  0  0
   -6.8080   21.7880  -32.3200 C   0  0  0  0  0  0  0  0  0  0  0  0
   -8.1600   21.6520  -31.9600 C   0  0  0  0  0  0  0  0  0  0  0  0
   -8.8260   20.4420  -32.1230 C   0  0  0  0  0  0  0  0  0  0  0  0
   -8.1530   19.3330  -32.6220 C   0  0  0  0  0  0  0  0  0  0  0  0
   -6.7950   19.4160  -32.9800 C   0  0  0  0  0  0  0  0  0  0  0  0
   -6.0740   18.1730  -33.4870 C   0  0  0  0  0  0  0  0  0  0  0  0
   -6.8560   16.8850  -33.1900 C   0  0  0  0  0  0  0  0  0  0  0  0
   -5.7710   18.2970  -34.9830 C   0  0  0  0  0  0  0  0  0  0  0  0
   -6.1350   20.6720  -32.8970 C   0  0  0  0  0  0  0  0  0  0  0  0
   -4.8040   20.8080  -33.4210 N   0  0  0  0  0  0  0  0  0  0  0  0
   -3.7070   19.9690  -32.9340 C   0  0  0  0  0  0  0  0  0  0  0  0
   -2.5140   19.9510  -33.9200 C   0  0  0  0  0  0  0  0  0  0  0  0
   -1.5890   21.1070  -33.8140 N   0  0  0  0  0  0  0  0  0  0  0  0
   -0.3030   20.8680  -34.4870 C   0  0  0  0  0  0  0  0  0  0  0  0
   -1.3830   21.5490  -32.4200 C   0  0  0  0  0  0  0  0  0  0  0  0
   -4.7400   23.0820  -31.5410 C   0  0  0  0  0  0  0  0  0  0  0  0
   -4.6570   24.1960  -30.4920 C   0  0  0  0  0  0  0  0  0  0  0  0
   -6.3525   25.3203  -28.3039 H   0  0  0  0  0  0  0  0  0  0  0  0
   -5.9013   26.5937  -29.4877 H   0  0  0  0  0  0  0  0  0  0  0  0
   -7.5649   25.9163  -29.4877 H   0  0  0  0  0  0  0  0  0  0  0  0
   -7.9905   24.1825  -31.1549 H   0  0  0  0  0  0  0  0  0  0  0  0
   -6.1924   23.5688  -33.1195 H   0  0  0  0  0  0  0  0  0  0  0  0
   -8.6992   22.5154  -31.5432 H   0  0  0  0  0  0  0  0  0  0  0  0
   -9.8901   20.3623  -31.8558 H   0  0  0  0  0  0  0  0  0  0  0  0
   -8.6885   18.3792  -32.7384 H   0  0  0  0  0  0  0  0  0  0  0  0
   -5.1222   18.1026  -32.9401 H   0  0  0  0  0  0  0  0  0  0  0  0
   -6.9386   16.7489  -32.1016 H   0  0  0  0  0  0  0  0  0  0  0  0
   -7.8625   16.9579  -33.6278 H   0  0  0  0  0  0  0  0  0  0  0  0
   -6.3270   16.0257  -33.6278 H   0  0  0  0  0  0  0  0  0  0  0  0
   -4.7608   18.7104  -35.1195 H   0  0  0  0  0  0  0  0  0  0  0  0
   -5.8271   17.3036  -35.4521 H   0  0  0  0  0  0  0  0  0  0  0  0
   -6.5074   18.9661  -35.4521 H   0  0  0  0  0  0  0  0  0  0  0  0
   -4.6470   21.4640  -34.2170 H   0  0  0  0  0  0  0  0  0  0  0  0
   -3.3624   20.3607  -31.9656 H   0  0  0  0  0  0  0  0  0  0  0  0
   -4.0827   18.9400  -32.8339 H   0  0  0  0  0  0  0  0  0  0  0  0
   -1.9349   19.0339  -33.7368 H   0  0  0  0  0  0  0  0  0  0  0  0
   -2.9506   20.0009  -34.9284 H   0  0  0  0  0  0  0  0  0  0  0  0
   -2.0500   21.9040  -34.3150 H   0  0  0  0  0  0  0  0  0  0  0  0
    0.4840   20.7217  -33.7326 H   0  0  0  0  0  0  0  0  0  0  0  0
   -0.3798   19.9687  -35.1158 H   0  0  0  0  0  0  0  0  0  0  0  0
   -0.0516   21.7348  -35.1158 H   0  0  0  0  0  0  0  0  0  0  0  0
   -1.7454   20.7714  -31.7315 H   0  0  0  0  0  0  0  0  0  0  0  0
   -0.3110   21.7230  -32.2451 H   0  0  0  0  0  0  0  0  0  0  0  0
   -1.9392   22.4818  -32.2451 H   0  0  0  0  0  0  0  0  0  0  0  0
   -4.5577   22.1017  -31.0765 H   0  0  0  0  0  0  0  0  0  0  0  0
   -3.9845   23.2069  -32.3307 H   0  0  0  0  0  0  0  0  0  0  0  0
   -4.2371   23.8138  -29.5499 H   0  0  0  0  0  0  0  0  0  0  0  0
   -4.0026   25.0222  -30.8068 H   0  0  0  0  0  0  0  0  0  0  0  0
  1  2  1  0
  2  3  2  0
  3  4  1  0
  4  5  1  0
  5  6  2  0
  6  7  1  0
  7  8  2  0
  8  9  1  0
  9 10  1  0
 10 11  1  0
 10 12  1  0
  9 13  2  0
 13 14  1  0
 14 15  1  0
 15 16  1  0
 16 17  1  0
 17 18  1  0
 17 19  1  0
  4 20  1  0
 20 21  1  0
 21  2  1  0
 13  5  1  0
  1 22  1  0
  1 23  1  0
  1 24  1  0
  3 25  1  0
  4 26  1  6
  6 27  1  0
  7 28  1  0
  8 29  1  0
 10 30  1  0
 11 31  1  0
 11 32  1  0
 11 33  1  0
 12 34  1  0
 12 35  1  0
 12 36  1  0
 14 37  1  0
 15 38  1  0
 15 39  1  0
 16 40  1  0
 16 41  1  0
 17 42  1  0
 18 43  1  0
 18 44  1  0
 18 45  1  0
 19 46  1  0
 19 47  1  0
 19 48  1  0
 20 49  1  0
 20 50  1  0
 21 51  1  0
 21 52  1  0
M  CHG  1  17   1
M  END
>  <UniqueID>  (3) 
3

>  <SMILES>  (3) 
CC1=C[C@H](c2cccc(C(C)C)c2NCC[NH+](C)C)CC1

>  <Energy>  (3) 
61.28527902537661

>  <Genealogy>  (3) 
CC1=CC(c2cccc(C(C)C)c2NCC[NH+](C)C)CC1 (protonated)
CC1=C[C@H](c2cccc(C(C)C)c2NCC[NH+](C)C)CC1 (chirality)
CC1=C[C@H](c2cccc(C(C)C)c2NCC[NH+](C)C)CC1 (3D coordinates assigned)
CC1=C[C@H](c2cccc(C(C)C)c2NCC[NH+](C)C)CC1 (nonaromatic ring conformer: 61.28527902537661 kcal/mol)

>  <smiles>  (3) 
CC1=CC(c2cccc(C(C)C)c2NCCN(C)C)CC1

>  <score_type>  (3) 
oracle

>  <origin>  (3) 
adg

>  <m_score__min__energy>  (3) 
-8.0500000000000007

>  <m_primary>  (3) 
energy

$$$$
3:0
     RDKit          3D

 43 46  0  0  0  0  0  0  0  0999 V2000
   -1.2720   13.1580  -35.0460 C   0  0  0  0  0  0  0  0  0  0  0  0
   -2.2610   13.9640  -35.6790 O   0  0  0  0  0  0  0  0  0  0  0  0
   -2.8800   15.0720  -35.0830 C   0  0  0  0  0  0  0  0  0  0  0  0
   -2.2840   16.3280  -35.2340 C   0  0  0  0  0  0  0  0  0  0  0  0
   -2.8600   17.4650  -34.6590 C   0  0  0  0  0  0  0  0  0  0  0  0
   -4.0520   17.3620  -33.9180 C   0  0  0  0  0  0  0  0  0  0  0  0
   -4.6850   18.5490  -33.2970 C   0  0  0  0  0  0  0  0  0  0  0  0
   -6.0420   18.8010  -33.1690 C   0  0  0  0  0  0  0  0  0  0  0  0
   -6.1410   20.0120  -32.5120 C   0  0  0  0  0  0  0  0  0  0  0  0
   -7.4040   20.6260  -32.0460 C   0  0  0  0  0  0  0  0  0  0  0  0
   -8.5950   20.4070  -32.7580 C   0  0  0  0  0  0  0  0  0  0  0  0
   -9.7960   20.9720  -32.3150 C   0  0  0  0  0  0  0  0  0  0  0  0
   -9.8180   21.7480  -31.1540 C   0  0  0  0  0  0  0  0  0  0  0  0
   -8.6410   21.9550  -30.4290 C   0  0  0  0  0  0  0  0  0  0  0  0
   -7.4400   21.3920  -30.8680 C   0  0  0  0  0  0  0  0  0  0  0  0
   -4.8340   20.4400  -32.2980 C   0  0  0  0  0  0  0  0  0  0  0  0
   -4.3770   21.7010  -31.6790 C   0  0  0  0  0  0  0  0  0  0  0  0
   -5.1540   22.8630  -31.8200 C   0  0  0  0  0  0  0  0  0  0  0  0
   -4.7470   24.0610  -31.2250 C   0  0  0  0  0  0  0  0  0  0  0  0
   -3.5710   24.1060  -30.4710 C   0  0  0  0  0  0  0  0  0  0  0  0
   -3.1670   25.2970  -29.8820 O   0  0  0  0  0  0  0  0  0  0  0  0
   -2.8040   22.9490  -30.3060 C   0  0  0  0  0  0  0  0  0  0  0  0
   -3.2080   21.7490  -30.8990 C   0  0  0  0  0  0  0  0  0  0  0  0
   -4.0010   19.5400  -32.7680 O   0  0  0  0  0  0  0  0  0  0  0  0
   -4.6490   16.0990  -33.7660 C   0  0  0  0  0  0  0  0  0  0  0  0
   -4.0710   14.9640  -34.3420 C   0  0  0  0  0  0  0  0  0  0  0  0
   -1.3747   13.2417  -33.9540 H   0  0  0  0  0  0  0  0  0  0  0  0
   -1.4061   12.1087  -35.3476 H   0  0  0  0  0  0  0  0  0  0  0  0
   -0.2713   13.5011  -35.3476 H   0  0  0  0  0  0  0  0  0  0  0  0
   -1.3523   16.4225  -35.8111 H   0  0  0  0  0  0  0  0  0  0  0  0
   -2.3786   18.4458  -34.7866 H   0  0  0  0  0  0  0  0  0  0  0  0
   -6.8700   18.1669  -33.5188 H   0  0  0  0  0  0  0  0  0  0  0  0
   -8.5834   19.7887  -33.6677 H   0  0  0  0  0  0  0  0  0  0  0  0
  -10.7238   20.8048  -32.8818 H   0  0  0  0  0  0  0  0  0  0  0  0
  -10.7618   22.1964  -30.8101 H   0  0  0  0  0  0  0  0  0  0  0  0
   -8.6603   22.5619  -29.5118 H   0  0  0  0  0  0  0  0  0  0  0  0
   -6.5181   21.5490  -30.2889 H   0  0  0  0  0  0  0  0  0  0  0  0
   -6.0872   22.8301  -32.4014 H   0  0  0  0  0  0  0  0  0  0  0  0
   -5.3536   24.9700  -31.3506 H   0  0  0  0  0  0  0  0  0  0  0  0
   -1.8810   22.9827  -29.7086 H   0  0  0  0  0  0  0  0  0  0  0  0
   -2.6085   20.8381  -30.7547 H   0  0  0  0  0  0  0  0  0  0  0  0
   -5.5801   16.0026  -33.1882 H   0  0  0  0  0  0  0  0  0  0  0  0
   -4.5497   13.9818  -34.2153 H   0  0  0  0  0  0  0  0  0  0  0  0
  1  2  1  0
  2  3  1  0
  3  4  2  0
  4  5  1  0
  5  6  2  0
  6  7  1  0
  7  8  2  0
  8  9  1  0
  9 10  1  0
 10 11  2  0
 11 12  1  0
 12 13  2  0
 13 14  1  0
 14 15  2  0
  9 16  2  0
 16 17  1  0
 17 18  2  0
 18 19  1  0
 19 20  2  0
 20 21  1  0
 20 22  1  0
 22 23  2  0
 16 24  1  0
  6 25  1  0
 25 26  2  0
 26  3  1  0
 24  7  1  0
 15 10  1  0
 23 17  1  0
  1 27  1  0
  1 28  1  0
  1 29  1  0
  4 30  1  0
  5 31  1  0
  8 32  1  0
 11 33  1  0
 12 34  1  0
 13 35  1  0
 14 36  1  0
 15 37  1  0
 18 38  1  0
 19 39  1  0
 22 40  1  0
 23 41  1  0
 25 42  1  0
 26 43  1  0
M  CHG  1  21  -1
M  END
>  <UniqueID>  (4) 
4

>  <SMILES>  (4) 
COc1ccc(-c2cc(-c3ccccc3)c(-c3ccc([O-])cc3)o2)cc1

>  <Energy>  (4) 
82.5491569238511

>  <Genealogy>  (4) 
COc1ccc(-c2cc(-c3ccccc3)c(-c3ccc([O-])cc3)o2)cc1 (protonated)
COc1ccc(-c2cc(-c3ccccc3)c(-c3ccc([O-])cc3)o2)cc1 (3D coordinates assigned)
COc1ccc(-c2cc(-c3ccccc3)c(-c3ccc([O-])cc3)o2)cc1 (optimized conformer: 82.5491569238511 kcal/mol)

>  <smiles>  (4) 
COc1ccc(-c2cc(-c3ccccc3)c(-c3ccc(O)cc3)o2)cc1

>  <score_type>  (4) 
oracle

>  <origin>  (4) 
adg

>  <m_score__min__energy>  (4) 
-10.390000000000001

>  <m_primary>  (4) 
energy

$$$$
4:0
     RDKit          3D

 41 44  0  0  0  0  0  0  0  0999 V2000
   -5.3070   19.1410  -33.9820 C   0  0  0  0  0  0  0  0  0  0  0  0
   -4.0690   19.8950  -33.4920 C   0  0  0  0  0  0  0  0  0  0  0  0
   -4.2580   21.3540  -33.5200 N   0  0  0  0  0  0  0  0  0  0  0  0
   -4.2420   21.9140  -32.1940 C   0  0  0  0  0  0  0  0  0  0  0  0
   -3.1690   22.4020  -31.6230 O   0  0  0  0  0  0  0  0  0  0  0  0
   -3.5470   22.9110  -30.4710 C   0  0  0  0  0  0  0  0  0  0  0  0
   -2.6180   23.5540  -29.5300 C   0  0  0  0  0  0  0  0  0  0  0  0
   -1.2460   23.6950  -29.7160 C   0  0  0  0  0  0  0  0  0  0  0  0
   -0.6880   24.3310  -28.6630 N   0  0  0  0  0  0  0  0  0  0  0  0
   -1.6940   24.5940  -27.8110 C   0  0  0  0  0  0  0  0  0  0  0  0
   -1.6050   25.2410  -26.5780 C   0  0  0  0  0  0  0  0  0  0  0  0
   -2.7880   25.4160  -25.8390 C   0  0  0  0  0  0  0  0  0  0  0  0
   -4.0200   24.9450  -26.3420 C   0  0  0  0  0  0  0  0  0  0  0  0
   -4.0820   24.2960  -27.5880 C   0  0  0  0  0  0  0  0  0  0  0  0
   -2.8910   24.1350  -28.3020 C   0  0  0  0  0  0  0  0  0  0  0  0
   -4.8750   22.7830  -30.2540 N   0  0  0  0  0  0  0  0  0  0  0  0
   -5.3190   22.1370  -31.3500 C   0  0  0  0  0  0  0  0  0  0  0  0
   -6.7400   21.8070  -31.5670 C   0  0  0  0  0  0  0  0  0  0  0  0
   -7.1300   20.4630  -31.6810 C   0  0  0  0  0  0  0  0  0  0  0  0
   -8.4690   20.1320  -31.9130 C   0  0  0  0  0  0  0  0  0  0  0  0
   -9.4250   21.1420  -32.0500 C   0  0  0  0  0  0  0  0  0  0  0  0
   -9.0410   22.4830  -31.9650 C   0  0  0  0  0  0  0  0  0  0  0  0
   -7.7030   22.8170  -31.7320 C   0  0  0  0  0  0  0  0  0  0  0  0
   -5.8873   18.7876  -33.1169 H   0  0  0  0  0  0  0  0  0  0  0  0
   -5.9290   19.8138  -34.5907 H   0  0  0  0  0  0  0  0  0  0  0  0
   -4.9947   18.2796  -34.5907 H   0  0  0  0  0  0  0  0  0  0  0  0
   -3.8521   19.5859  -32.4588 H   0  0  0  0  0  0  0  0  0  0  0  0
   -3.2359   19.6500  -34.1671 H   0  0  0  0  0  0  0  0  0  0  0  0
   -3.4630   21.7800  -34.0490 H   0  0  0  0  0  0  0  0  0  0  0  0
   -5.1380   21.5920  -34.0290 H   0  0  0  0  0  0  0  0  0  0  0  0
   -0.6931   23.3383  -30.5975 H   0  0  0  0  0  0  0  0  0  0  0  0
    0.3210   24.5690  -28.5400 H   0  0  0  0  0  0  0  0  0  0  0  0
   -0.6390   25.6029  -26.1960 H   0  0  0  0  0  0  0  0  0  0  0  0
   -2.7534   25.9228  -24.8633 H   0  0  0  0  0  0  0  0  0  0  0  0
   -4.9391   25.0868  -25.7545 H   0  0  0  0  0  0  0  0  0  0  0  0
   -5.0377   23.9266  -27.9883 H   0  0  0  0  0  0  0  0  0  0  0  0
   -6.3780   19.6657  -31.5873 H   0  0  0  0  0  0  0  0  0  0  0  0
   -8.7696   19.0765  -31.9876 H   0  0  0  0  0  0  0  0  0  0  0  0
  -10.4794   20.8816  -32.2247 H   0  0  0  0  0  0  0  0  0  0  0  0
   -9.7927   23.2776  -32.0816 H   0  0  0  0  0  0  0  0  0  0  0  0
   -7.4034   23.8740  -31.6777 H   0  0  0  0  0  0  0  0  0  0  0  0
  1  2  1  0
  2  3  1  0
  3  4  1  0
  4  5  1  0
  5  6  1  0
  6  7  1  0
  7  8  2  0
  8  9  1  0
  9 10  1  0
 10 11  2  0
 11 12  1  0
 12 13  2  0
 13 14  1  0
 14 15  2  0
  6 16  2  0
 16 17  1  0
 17 18  1  0
 18 19  2  0
 19 20  1  0
 20 21  2  0
 21 22  1  0
 22 23  2  0
 17  4  2  0
 23 18  1  0
 15  7  1  0
 15 10  1  0
  1 24  1  0
  1 25  1  0
  1 26  1  0
  2 27  1  0
  2 28  1  0
  3 29  1  0
  3 30  1  0
  8 31  1  0
  9 32  1  0
 11 33  1  0
 12 34  1  0
 13 35  1  0
 14 36  1  0
 19 37  1  0
 20 38  1  0
 21 39  1  0
 22 40  1  0
 23 41  1  0
M  CHG  1   3   1
M  END
>  <UniqueID>  (5) 
5

>  <SMILES>  (5) 
CC[NH2+]c1oc(-c2c[nH]c3ccccc23)nc1-c1ccccc1

>  <Energy>  (5) 
112.47245660536835

>  <Genealogy>  (5) 
CC[NH2+]c1oc(-c2c[nH]c3ccccc23)nc1-c1ccccc1 (protonated)
CC[NH2+]c1oc(-c2c[nH]c3ccccc23)nc1-c1ccccc1 (3D coordinates assigned)
CC[NH2+]c1oc(-c2c[nH]c3ccccc23)nc1-c1ccccc1 (optimized conformer: 112.47245660536835 kcal/mol)

>  <smiles>  (5) 
CCNc1oc(-c2c[nH]c3ccccc23)nc1-c1ccccc1

>  <score_type>  (5) 
oracle

>  <origin>  (5) 
adg

>  <m_score__min__energy>  (5) 
-7.3399999999999999

>  <m_primary>  (5) 
energy

$$$$
5:0
     RDKit          3D

 46 48  0  0  0  0  0  0  0  0999 V2000
   -0.4880   18.4110  -33.8680 C   0  0  0  0  0  0  0  0  0  0  0  0
   -0.2590   19.5170  -34.9090 C   0  0  0  0  0  0  0  0  0  0  0  0
   -0.5530   20.8810  -34.4140 N   0  0  0  0  0  0  0  0  0  0  0  0
    0.2350   21.9090  -35.1200 C   0  0  0  0  0  0  0  0  0  0  0  0
   -0.4260   20.9940  -32.9440 C   0  0  0  0  0  0  0  0  0  0  0  0
   -1.8080   21.0530  -32.2880 C   0  0  0  0  0  0  0  0  0  0  0  0
   -2.8490   21.2970  -33.2880 N   0  0  0  0  0  0  0  0  0  0  0  0
   -4.2120   20.9110  -33.0460 C   0  0  0  0  0  0  0  0  0  0  0  0
   -4.6970   19.6650  -33.4900 C   0  0  0  0  0  0  0  0  0  0  0  0
   -3.8560   18.7390  -34.1440 C   0  0  0  0  0  0  0  0  0  0  0  0
   -4.3550   17.5090  -34.5720 C   0  0  0  0  0  0  0  0  0  0  0  0
   -5.6910   17.1790  -34.3530 C   0  0  0  0  0  0  0  0  0  0  0  0
   -6.5370   18.0760  -33.6990 C   0  0  0  0  0  0  0  0  0  0  0  0
   -6.0550   19.3240  -33.2560 C   0  0  0  0  0  0  0  0  0  0  0  0
   -6.8830   20.2000  -32.6040 N   0  0  0  0  0  0  0  0  0  0  0  0
   -8.2010   19.8540  -32.3810 O   0  0  0  0  0  0  0  0  0  0  0  0
   -6.4270   21.4150  -32.1700 C   0  0  0  0  0  0  0  0  0  0  0  0
   -7.2760   22.3230  -31.5100 C   0  0  0  0  0  0  0  0  0  0  0  0
   -6.7910   23.5640  -31.0950 C   0  0  0  0  0  0  0  0  0  0  0  0
   -5.4590   23.8990  -31.3390 C   0  0  0  0  0  0  0  0  0  0  0  0
   -4.9740   25.1430  -30.9250 O   0  0  0  0  0  0  0  0  0  0  0  0
   -5.7260   26.0220  -30.0960 C   0  0  0  0  0  0  0  0  0  0  0  0
   -4.6470   23.0120  -31.9770 N   0  0  0  0  0  0  0  0  0  0  0  0
   -5.0840   21.7890  -32.3880 C   0  0  0  0  0  0  0  0  0  0  0  0
   -0.4002   18.8353  -32.8569 H   0  0  0  0  0  0  0  0  0  0  0  0
   -1.4934   17.9850  -34.0008 H   0  0  0  0  0  0  0  0  0  0  0  0
    0.2656   17.6207  -34.0008 H   0  0  0  0  0  0  0  0  0  0  0  0
    0.7945   19.4829  -35.2236 H   0  0  0  0  0  0  0  0  0  0  0  0
   -0.9555   19.3226  -35.7379 H   0  0  0  0  0  0  0  0  0  0  0  0
    0.7328   22.5584  -34.3849 H   0  0  0  0  0  0  0  0  0  0  0  0
    0.9927   21.4212  -35.7508 H   0  0  0  0  0  0  0  0  0  0  0  0
   -0.4329   22.5140  -35.7508 H   0  0  0  0  0  0  0  0  0  0  0  0
    0.1198   20.1196  -32.5598 H   0  0  0  0  0  0  0  0  0  0  0  0
    0.1205   21.9182  -32.7047 H   0  0  0  0  0  0  0  0  0  0  0  0
   -2.0091   20.0960  -31.7844 H   0  0  0  0  0  0  0  0  0  0  0  0
   -1.8178   21.8783  -31.5608 H   0  0  0  0  0  0  0  0  0  0  0  0
   -2.5830   21.5870  -34.2560 H   0  0  0  0  0  0  0  0  0  0  0  0
   -2.7990   18.9894  -34.3174 H   0  0  0  0  0  0  0  0  0  0  0  0
   -3.6915   16.7968  -35.0843 H   0  0  0  0  0  0  0  0  0  0  0  0
   -6.0799   16.2090  -34.6964 H   0  0  0  0  0  0  0  0  0  0  0  0
   -7.5896   17.8064  -33.5278 H   0  0  0  0  0  0  0  0  0  0  0  0
   -8.3255   22.0535  -31.3206 H   0  0  0  0  0  0  0  0  0  0  0  0
   -7.4547   24.2733  -30.5789 H   0  0  0  0  0  0  0  0  0  0  0  0
   -5.5270   25.7894  -29.0394 H   0  0  0  0  0  0  0  0  0  0  0  0
   -5.4336   27.0619  -30.3039 H   0  0  0  0  0  0  0  0  0  0  0  0
   -6.7986   25.8941  -30.3039 H   0  0  0  0  0  0  0  0  0  0  0  0
  1  2  1  0
  2  3  1  0
  3  4  1  0
  3  5  1  0
  5  6  1  0
  6  7  1  0
  7  8  1  0
  8  9  2  0
  9 10  1  0
 10 11  2  0
 11 12  1  0
 12 13  2  0
 13 14  1  0
 14 15  2  0
 15 16  1  0
 15 17  1  0
 17 18  2  0
 18 19  1  0
 19 20  2  0
 20 21  1  0
 21 22  1  0
 20 23  1  0
 23 24  2  0
 24  8  1  0
 14  9  1  0
 24 17  1  0
  1 25  1  0
  1 26  1  0
  1 27  1  0
  2 28  1  0
  2 29  1  0
  4 30  1  0
  4 31  1  0
  4 32  1  0
  5 33  1  0
  5 34  1  0
  6 35  1  0
  6 36  1  0
  7 37  1  0
 10 38  1  0
 11 39  1  0
 12 40  1  0
 13 41  1  0
 18 42  1  0
 19 43  1  0
 22 44  1  0
 22 45  1  0
 22 46  1  0
M  CHG  2  15   1  16  -1
M  END
>  <UniqueID>  (6) 
6

>  <SMILES>  (6) 
CCN(C)CCNc1c2ccccc2[n+]([O-])c2ccc(OC)nc12

>  <Energy>  (6) 
60.12204360246456

>  <Genealogy>  (6) 
CCN(C)CCNc1c2ccccc2[n+]([O-])c2ccc(OC)nc12 (3D coordinates assigned)
CCN(C)CCNc1c2ccccc2[n+]([O-])c2ccc(OC)nc12 (optimized conformer: 60.12204360246456 kcal/mol)

>  <smiles>  (6) 
CCN(C)CCNc1c2ccccc2[n+]([O-])c2ccc(OC)nc12

>  <score_type>  (6) 
oracle

>  <origin>  (6) 
adg

>  <m_score__min__energy>  (6) 
-7.5

>  <m_primary>  (6) 
energy

$$$$
6:0
     RDKit          3D

 46 47  0  0  0  0  0  0  0  0999 V2000
   -3.8720   23.8510  -28.1030 C   0  0  0  0  0  0  0  0  0  0  0  0
   -3.2980   24.5420  -29.3390 C   0  0  0  0  0  0  0  0  0  0  0  0
   -4.2500   24.5120  -30.4700 N   0  0  0  0  0  0  0  0  0  0  0  0
   -5.2920   25.5740  -30.4910 C   0  0  0  0  0  0  0  0  0  0  0  0
   -6.5740   25.2610  -29.7000 C   0  0  0  0  0  0  0  0  0  0  0  0
   -4.7260   23.1690  -30.8810 C   0  0  0  0  0  0  0  0  0  0  0  0
   -5.2000   23.0810  -32.3540 C   0  0  0  0  0  0  0  0  0  0  0  0
   -6.6670   23.1380  -32.4910 N   0  0  0  0  0  0  0  0  0  0  0  0
   -7.2670   21.8280  -32.3700 C   0  0  0  0  0  0  0  0  0  0  0  0
   -8.5010   21.6730  -31.7180 C   0  0  0  0  0  0  0  0  0  0  0  0
   -9.0830   20.4110  -31.5990 C   0  0  0  0  0  0  0  0  0  0  0  0
   -8.4420   19.2890  -32.1280 C   0  0  0  0  0  0  0  0  0  0  0  0
   -7.2070   19.4150  -32.7920 C   0  0  0  0  0  0  0  0  0  0  0  0
   -6.5340   18.2100  -33.3510 C   0  0  0  0  0  0  0  0  0  0  0  0
   -6.9320   16.9610  -33.1520 C   0  0  0  0  0  0  0  0  0  0  0  0
   -6.0540   15.9680  -33.8200 C   0  0  0  0  0  0  0  0  0  0  0  0
   -5.0720   16.8150  -34.6280 C   0  0  0  0  0  0  0  0  0  0  0  0
   -5.2920   18.2580  -34.1760 C   0  0  0  0  0  0  0  0  0  0  0  0
   -6.6210   20.6930  -32.8930 C   0  0  0  0  0  0  0  0  0  0  0  0
   -3.4737   24.3305  -27.1967 H   0  0  0  0  0  0  0  0  0  0  0  0
   -4.9686   23.9364  -28.1113 H   0  0  0  0  0  0  0  0  0  0  0  0
   -3.5869   22.7886  -28.1113 H   0  0  0  0  0  0  0  0  0  0  0  0
   -3.0722   25.5894  -29.0900 H   0  0  0  0  0  0  0  0  0  0  0  0
   -2.3868   24.0052  -29.6416 H   0  0  0  0  0  0  0  0  0  0  0  0
   -4.8505   26.4901  -30.0717 H   0  0  0  0  0  0  0  0  0  0  0  0
   -5.6022   25.6715  -31.5418 H   0  0  0  0  0  0  0  0  0  0  0  0
   -6.3615   25.3129  -28.6220 H   0  0  0  0  0  0  0  0  0  0  0  0
   -7.3515   25.9957  -29.9563 H   0  0  0  0  0  0  0  0  0  0  0  0
   -6.9255   24.2507  -29.9563 H   0  0  0  0  0  0  0  0  0  0  0  0
   -3.9016   22.4542  -30.7416 H   0  0  0  0  0  0  0  0  0  0  0  0
   -5.6015   22.9411  -30.2553 H   0  0  0  0  0  0  0  0  0  0  0  0
   -4.7627   23.9208  -32.9138 H   0  0  0  0  0  0  0  0  0  0  0  0
   -4.8700   22.1087  -32.7486 H   0  0  0  0  0  0  0  0  0  0  0  0
   -6.8990   23.5220  -33.4370 H   0  0  0  0  0  0  0  0  0  0  0  0
   -7.0700   23.8010  -31.7890 H   0  0  0  0  0  0  0  0  0  0  0  0
   -9.0118   22.5523  -31.2985 H   0  0  0  0  0  0  0  0  0  0  0  0
  -10.0500   20.2993  -31.0868 H   0  0  0  0  0  0  0  0  0  0  0  0
   -8.9064   18.2972  -32.0250 H   0  0  0  0  0  0  0  0  0  0  0  0
   -7.8165   16.6902  -32.5567 H   0  0  0  0  0  0  0  0  0  0  0  0
   -5.5213   15.3566  -33.0767 H   0  0  0  0  0  0  0  0  0  0  0  0
   -6.6185   15.2642  -34.4493 H   0  0  0  0  0  0  0  0  0  0  0  0
   -4.0376   16.5029  -34.4213 H   0  0  0  0  0  0  0  0  0  0  0  0
   -5.2362   16.7014  -35.7097 H   0  0  0  0  0  0  0  0  0  0  0  0
   -4.4406   18.6107  -33.5755 H   0  0  0  0  0  0  0  0  0  0  0  0
   -5.3824   18.9514  -35.0251 H   0  0  0  0  0  0  0  0  0  0  0  0
   -5.6449   20.8044  -33.3877 H   0  0  0  0  0  0  0  0  0  0  0  0
  1  2  1  0
  2  3  1  0
  3  4  1  0
  4  5  1  0
  3  6  1  0
  6  7  1  0
  7  8  1  0
  8  9  1  0
  9 10  2  0
 10 11  1  0
 11 12  2  0
 12 13  1  0
 13 14  1  0
 14 15  2  0
 15 16  1  0
 16 17  1  0
 17 18  1  0
 13 19  2  0
 19  9  1  0
 18 14  1  0
  1 20  1  0
  1 21  1  0
  1 22  1  0
  2 23  1  0
  2 24  1  0
  4 25  1  0
  4 26  1  0
  5 27  1  0
  5 28  1  0
  5 29  1  0
  6 30  1  0
  6 31  1  0
  7 32  1  0
  7 33  1  0
  8 34  1  0
  8 35  1  0
 10 36  1  0
 11 37  1  0
 12 38  1  0
 15 39  1  0
 16 40  1  0
 16 41  1  0
 17 42  1  0
 17 43  1  0
 18 44  1  0
 18 45  1  0
 19 46  1  0
M  CHG  1   8   1
M  END
>  <UniqueID>  (7) 
7

>  <SMILES>  (7) 
CCN(CC)CC[NH2+]c1cccc(C2=CCCC2)c1

>  <Energy>  (7) 
61.95449769679443

>  <Genealogy>  (7) 
CCN(CC)CC[NH2+]c1cccc(C2=CCCC2)c1 (protonated)
CCN(CC)CC[NH2+]c1cccc(C2=CCCC2)c1 (3D coordinates assigned)
CCN(CC)CC[NH2+]c1cccc(C2=CCCC2)c1 (nonaromatic ring conformer: 61.95449769679443 kcal/mol)

>  <smiles>  (7) 
CCN(CC)CCNc1cccc(C2=CCCC2)c1

>  <score_type>  (7) 
oracle

>  <origin>  (7) 
adg

>  <m_score__min__energy>  (7) 
-7.0999999999999996

>  <m_primary>  (7) 
energy

$$$$
7:0
     RDKit          3D

 53 56  0  0  0  0  0  0  0  0999 V2000
   -3.5000   22.0150  -29.8910 C   0  0  0  0  0  0  0  0  0  0  0  0
   -3.2390   23.1930  -30.8260 C   0  0  0  0  0  0  0  0  0  0  0  0
   -3.5100   24.4770  -30.1420 N   0  0  0  0  0  0  0  0  0  0  0  0
   -2.6570   24.5850  -28.9440 C   0  0  0  0  0  0  0  0  0  0  0  0
   -4.9420   24.5930  -29.7760 C   0  0  0  0  0  0  0  0  0  0  0  0
   -5.8330   24.6770  -31.0290 C   0  0  0  0  0  0  0  0  0  0  0  0
   -6.4910   23.3270  -31.3830 C   0  0  0  0  0  0  0  0  0  0  0  0
   -6.1220   22.8130  -32.7180 N   0  0  0  0  0  0  0  0  0  0  0  0
   -6.0210   21.3630  -32.7670 C   0  0  0  0  0  0  0  0  0  0  0  0
   -7.1210   20.4900  -32.5250 C   0  0  0  0  0  0  0  0  0  0  0  0
   -8.4220   20.9720  -32.2450 C   0  0  0  0  0  0  0  0  0  0  0  0
   -9.4900   20.0980  -32.0560 C   0  0  0  0  0  0  0  0  0  0  0  0
   -9.2960   18.7270  -32.1390 C   0  0  0  0  0  0  0  0  0  0  0  0
   -8.0270   18.2140  -32.3870 C   0  0  0  0  0  0  0  0  0  0  0  0
   -6.9090   19.0690  -32.5560 C   0  0  0  0  0  0  0  0  0  0  0  0
   -5.6410   18.5470  -32.7550 N   0  0  0  0  0  0  0  0  0  0  0  0
   -5.3540   17.1530  -32.3720 C   0  0  0  0  0  0  0  0  0  0  0  0
   -4.6300   19.3860  -33.1650 C   0  0  0  0  0  0  0  0  0  0  0  0
   -4.7970   20.7680  -33.0930 C   0  0  0  0  0  0  0  0  0  0  0  0
   -3.3410   21.5510  -33.4490 S   0  0  0  0  0  0  0  0  0  0  0  0
   -2.5000   20.1440  -33.7840 C   0  0  0  0  0  0  0  0  0  0  0  0
   -1.1860   20.0480  -34.2350 C   0  0  0  0  0  0  0  0  0  0  0  0
   -0.6900   18.7850  -34.5770 C   0  0  0  0  0  0  0  0  0  0  0  0
   -1.5210   17.6570  -34.4970 C   0  0  0  0  0  0  0  0  0  0  0  0
   -2.8460   17.7740  -34.0470 C   0  0  0  0  0  0  0  0  0  0  0  0
   -3.3290   19.0310  -33.6320 C   0  0  0  0  0  0  0  0  0  0  0  0
   -3.4253   22.3522  -28.8466 H   0  0  0  0  0  0  0  0  0  0  0  0
   -4.5083   21.6162  -30.0763 H   0  0  0  0  0  0  0  0  0  0  0  0
   -2.7545   21.2276  -30.0763 H   0  0  0  0  0  0  0  0  0  0  0  0
   -2.1876   23.1712  -31.1487 H   0  0  0  0  0  0  0  0  0  0  0  0
   -3.9081   23.1084  -31.6950 H   0  0  0  0  0  0  0  0  0  0  0  0
   -3.2808   24.5060  -28.0414 H   0  0  0  0  0  0  0  0  0  0  0  0
   -1.9141   23.7737  -28.9485 H   0  0  0  0  0  0  0  0  0  0  0  0
   -2.1398   25.5558  -28.9485 H   0  0  0  0  0  0  0  0  0  0  0  0
   -5.2341   23.7113  -29.1867 H   0  0  0  0  0  0  0  0  0  0  0  0
   -5.0778   25.5141  -29.1902 H   0  0  0  0  0  0  0  0  0  0  0  0
   -6.6255   25.4182  -30.8483 H   0  0  0  0  0  0  0  0  0  0  0  0
   -5.1912   24.9658  -31.8744 H   0  0  0  0  0  0  0  0  0  0  0  0
   -6.1865   22.5853  -30.6300 H   0  0  0  0  0  0  0  0  0  0  0  0
   -7.5780   23.4950  -31.3948 H   0  0  0  0  0  0  0  0  0  0  0  0
   -5.2730   23.3000  -33.0740 H   0  0  0  0  0  0  0  0  0  0  0  0
   -6.8740   23.1030  -33.3860 H   0  0  0  0  0  0  0  0  0  0  0  0
   -8.5928   22.0564  -32.1754 H   0  0  0  0  0  0  0  0  0  0  0  0
  -10.4921   20.4969  -31.8399 H   0  0  0  0  0  0  0  0  0  0  0  0
  -10.1480   18.0436  -32.0083 H   0  0  0  0  0  0  0  0  0  0  0  0
   -7.8885   17.1248  -32.4532 H   0  0  0  0  0  0  0  0  0  0  0  0
   -5.3369   17.0702  -31.2753 H   0  0  0  0  0  0  0  0  0  0  0  0
   -6.1351   16.4931  -32.7775 H   0  0  0  0  0  0  0  0  0  0  0  0
   -4.3757   16.8553  -32.7775 H   0  0  0  0  0  0  0  0  0  0  0  0
   -0.5531   20.9436  -34.3204 H   0  0  0  0  0  0  0  0  0  0  0  0
    0.3530   18.6762  -34.9091 H   0  0  0  0  0  0  0  0  0  0  0  0
   -1.1305   16.6712  -34.7898 H   0  0  0  0  0  0  0  0  0  0  0  0
   -3.5018   16.8913  -34.0187 H   0  0  0  0  0  0  0  0  0  0  0  0
  1  2  1  0
  2  3  1  0
  3  4  1  0
  3  5  1  0
  5  6  1  0
  6  7  1  0
  7  8  1  0
  8  9  1  0
  9 10  2  0
 10 11  1  0
 11 12  2  0
 12 13  1  0
 13 14  2  0
 14 15  1  0
 15 16  2  0
 16 17  1  0
 16 18  1  0
 18 19  2  0
 19 20  1  0
 20 21  1  0
 21 22  2  0
 22 23  1  0
 23 24  2  0
 24 25  1  0
 25 26  2  0
 19  9  1  0
 26 21  1  0
 15 10  1  0
 26 18  1  0
  1 27  1  0
  1 28  1  0
  1 29  1  0
  2 30  1  0
  2 31  1  0
  4 32  1  0
  4 33  1  0
  4 34  1  0
  5 35  1  0
  5 36  1  0
  6 37  1  0
  6 38  1  0
  7 39  1  0
  7 40  1  0
  8 41  1  0
  8 42  1  0
 11 43  1  0
 12 44  1  0
 13 45  1  0
 14 46  1  0
 17 47  1  0
 17 48  1  0
 17 49  1  0
 22 50  1  0
 23 51  1  0
 24 52  1  0
 25 53  1  0
M  CHG  2   8   1  16   1
M  END
>  <UniqueID>  (8) 
8

>  <SMILES>  (8) 
CCN(C)CCC[NH2+]c1c2ccccc2[n+](C)c2c1sc1ccccc12

>  <Energy>  (8) 
115.2311992018667

>  <Genealogy>  (8) 
CCN(C)CCC[NH2+]c1c2ccccc2[n+](C)c2c1sc1ccccc12 (protonated)
CCN(C)CCC[NH2+]c1c2ccccc2[n+](C)c2c1sc1ccccc12 (3D coordinates assigned)
CCN(C)CCC[NH2+]c1c2ccccc2[n+](C)c2c1sc1ccccc12 (optimized conformer: 115.2311992018667 kcal/mol)

>  <smiles>  (8) 
CCN(C)CCCNc1c2ccccc2[n+](C)c2c1sc1ccccc12

>  <score_type>  (8) 
oracle

>  <origin>  (8) 
adg

>  <m_score__min__energy>  (8) 
-8.6400000000000006

>  <m_primary>  (8) 
energy

$$$$
8:0
     RDKit          3D

 67 70  0  0  0  0  0  0  0  0999 V2000
  -10.3899   21.4124  -31.4640 H   0  0  0  0  0  0  0  0  0  0  0  0
   -9.3720   21.3020  -31.8660 C   0  0  0  0  0  0  0  0  0  0  0  0
   -9.0920   20.1880  -32.5590 C   0  0  0  0  0  0  0  0  0  0  0  0
   -9.9236   19.7016  -33.0900 H   0  0  0  0  0  0  0  0  0  0  0  0
   -7.7580   19.5600  -32.6680 C   0  0  0  0  0  0  0  0  0  0  0  0
   -6.6700   20.3030  -32.7910 O   0  0  0  0  0  0  0  0  0  0  0  0
   -5.4320   19.8200  -32.9110 C   0  0  0  0  0  0  0  0  0  0  0  0
   -5.2190   18.4150  -32.9250 C   0  0  0  0  0  0  0  0  0  0  0  0
   -3.8830   17.9170  -33.0850 C   0  0  0  0  0  0  0  0  0  0  0  0
   -3.6310   16.4900  -33.2580 N   0  0  0  0  0  0  0  0  0  0  0  0
   -2.8570   16.1190  -32.6770 H   0  0  0  0  0  0  0  0  0  0  0  0
   -4.4250   15.9380  -32.8730 H   0  0  0  0  0  0  0  0  0  0  0  0
   -3.3850   16.1260  -34.6670 C   0  0  0  0  0  0  0  0  0  0  0  0
   -2.3026   16.1757  -34.8566 H   0  0  0  0  0  0  0  0  0  0  0  0
   -3.9480   16.8364  -35.2902 H   0  0  0  0  0  0  0  0  0  0  0  0
   -3.8810   14.7090  -35.0270 C   0  0  0  0  0  0  0  0  0  0  0  0
   -3.0131   14.0405  -35.1264 H   0  0  0  0  0  0  0  0  0  0  0  0
   -4.4390   14.7674  -35.9732 H   0  0  0  0  0  0  0  0  0  0  0  0
   -4.7880   14.1710  -33.9820 N   0  0  0  0  0  0  0  0  0  0  0  0
   -5.8560   13.3560  -34.6070 C   0  0  0  0  0  0  0  0  0  0  0  0
   -5.9486   12.4075  -34.0576 H   0  0  0  0  0  0  0  0  0  0  0  0
   -5.5815   13.1775  -35.6571 H   0  0  0  0  0  0  0  0  0  0  0  0
   -7.2040   14.0770  -34.5820 C   0  0  0  0  0  0  0  0  0  0  0  0
   -7.5123   14.2419  -33.5391 H   0  0  0  0  0  0  0  0  0  0  0  0
   -7.1112   15.0459  -35.0945 H   0  0  0  0  0  0  0  0  0  0  0  0
   -7.9584   13.4619  -35.0945 H   0  0  0  0  0  0  0  0  0  0  0  0
   -4.0350   13.3990  -32.9570 C   0  0  0  0  0  0  0  0  0  0  0  0
   -4.1188   12.3245  -33.1770 H   0  0  0  0  0  0  0  0  0  0  0  0
   -2.9788   13.7054  -32.9805 H   0  0  0  0  0  0  0  0  0  0  0  0
   -4.6030   13.6750  -31.5690 C   0  0  0  0  0  0  0  0  0  0  0  0
   -3.8905   13.3288  -30.8058 H   0  0  0  0  0  0  0  0  0  0  0  0
   -4.7716   14.7555  -31.4500 H   0  0  0  0  0  0  0  0  0  0  0  0
   -5.5566   13.1398  -31.4500 H   0  0  0  0  0  0  0  0  0  0  0  0
   -2.8030   18.8590  -33.1120 C   0  0  0  0  0  0  0  0  0  0  0  0
   -1.4380   18.4630  -33.1960 C   0  0  0  0  0  0  0  0  0  0  0  0
   -1.1926   17.3923  -33.2544 H   0  0  0  0  0  0  0  0  0  0  0  0
   -0.4070   19.3970  -33.2060 C   0  0  0  0  0  0  0  0  0  0  0  0
    0.6377   19.0590  -33.2715 H   0  0  0  0  0  0  0  0  0  0  0  0
   -0.6900   20.7470  -33.1340 C   0  0  0  0  0  0  0  0  0  0  0  0
    0.1288   21.4815  -33.1401 H   0  0  0  0  0  0  0  0  0  0  0  0
   -2.0070   21.1770  -33.0540 C   0  0  0  0  0  0  0  0  0  0  0  0
   -2.2182   22.2545  -32.9876 H   0  0  0  0  0  0  0  0  0  0  0  0
   -3.0880   20.2560  -33.0560 C   0  0  0  0  0  0  0  0  0  0  0  0
   -4.3900   20.7030  -33.0210 N   0  0  0  0  0  0  0  0  0  0  0  0
   -4.6840   22.1530  -33.0750 C   0  0  0  0  0  0  0  0  0  0  0  0
   -4.7643   22.5492  -32.0520 H   0  0  0  0  0  0  0  0  0  0  0  0
   -3.8728   22.6721  -33.6066 H   0  0  0  0  0  0  0  0  0  0  0  0
   -5.6333   22.3151  -33.6066 H   0  0  0  0  0  0  0  0  0  0  0  0
   -6.3850   17.5960  -32.7970 C   0  0  0  0  0  0  0  0  0  0  0  0
   -6.3370   16.3400  -32.7750 O   0  0  0  0  0  0  0  0  0  0  0  0
   -7.6430   18.1780  -32.6810 C   0  0  0  0  0  0  0  0  0  0  0  0
   -8.5402   17.5467  -32.6002 H   0  0  0  0  0  0  0  0  0  0  0  0
   -8.4070   22.3920  -31.6050 C   0  0  0  0  0  0  0  0  0  0  0  0
   -8.3644   23.2574  -32.2827 H   0  0  0  0  0  0  0  0  0  0  0  0
   -7.5850   22.3330  -30.5500 C   0  0  0  0  0  0  0  0  0  0  0  0
   -7.8182   21.6023  -29.7615 H   0  0  0  0  0  0  0  0  0  0  0  0
   -6.3780   23.1850  -30.3670 C   0  0  0  0  0  0  0  0  0  0  0  0
   -5.1380   22.6870  -29.9070 C   0  0  0  0  0  0  0  0  0  0  0  0
   -5.0365   21.6209  -29.6559 H   0  0  0  0  0  0  0  0  0  0  0  0
   -4.0390   23.5410  -29.7690 C   0  0  0  0  0  0  0  0  0  0  0  0
   -3.0769   23.1426  -29.4146 H   0  0  0  0  0  0  0  0  0  0  0  0
   -4.1580   24.8960  -30.0790 C   0  0  0  0  0  0  0  0  0  0  0  0
   -3.2907   25.5635  -29.9689 H   0  0  0  0  0  0  0  0  0  0  0  0
   -5.3780   25.4050  -30.5290 C   0  0  0  0  0  0  0  0  0  0  0  0
   -5.4719   26.4737  -30.7719 H   0  0  0  0  0  0  0  0  0  0  0  0
   -6.4810   24.5560  -30.6710 C   0  0  0  0  0  0  0  0  0  0  0  0
   -7.4395   24.9642  -31.0241 H   0  0  0  0  0  0  0  0  0  0  0  0
  1  2  1  0
  2  3  2  0
  3  4  1  0
  3  5  1  0
  5  6  1  0
  6  7  1  0
  7  8  2  0
  8  9  1  0
  9 10  1  0
 10 11  1  0
 10 12  1  0
 10 13  1  0
 13 14  1  0
 13 15  1  0
 13 16  1  0
 16 17  1  0
 16 18  1  0
 16 19  1  0
 19 20  1  0
 20 21  1  0
 20 22  1  0
 20 23  1  0
 23 24  1  0
 23 25  1  0
 23 26  1  0
 19 27  1  0
 27 28  1  0
 27 29  1  0
 27 30  1  0
 30 31  1  0
 30 32  1  0
 30 33  1  0
  9 34  2  0
 34 35  1  0
 35 36  1  0
 35 37  2  0
 37 38  1  0
 37 39  1  0
 39 40  1  0
 39 41  2  0
 41 42  1  0
 41 43  1  0
 43 44  2  0
 44 45  1  0
 45 46  1  0
 45 47  1  0
 45 48  1  0
  8 49  1  0
 49 50  2  0
 49 51  1  0
 51 52  1  0
  2 53  1  0
 53 54  1  0
 53 55  2  0
 55 56  1  0
 55 57  1  0
 57 58  2  0
 58 59  1  0
 58 60  1  0
 60 61  1  0
 60 62  2  0
 62 63  1  0
 62 64  1  0
 64 65  1  0
 64 66  2  0
 66 67  1  0
 51  5  2  0
 66 57  1  0
 44  7  1  0
 43 34  1  0
M  CHG  2  10   1  44   1
M  END
>  <UniqueID>  (9) 
9

>  <SMILES>  (9) 
CCN(CC)CC[NH2+]c1c2ccccc2[n+](C)c2oc(/C=C\C=C\c3ccccc3)cc(=O)c12

>  <Energy>  (9) 
100.31390528591506

>  <Genealogy>  (9) 
CCN(CC)CC[NH2+]c1c2ccccc2[n+](C)c2oc(C=CC=Cc3ccccc3)cc(=O)c12 (protonated)
CCN(CC)CC[NH2+]c1c2ccccc2[n+](C)c2oc(/C=C\C=C\c3ccccc3)cc(=O)c12 (cis-trans isomerization)
CCN(CC)CC[NH2+]c1c2ccccc2[n+](C)c2oc(/C=C\C=C\c3ccccc3)cc(=O)c12 (3D coordinates assigned)
CCN(CC)CC[NH2+]c1c2ccccc2[n+](C)c2oc(/C=C\C=C\c3ccccc3)cc(=O)c12 (optimized conformer: 100.31390528591506 kcal/mol)

>  <smiles>  (9) 
CCN(CC)CCNc1c2ccccc2[n+](C)c2oc(C=CC=Cc3ccccc3)cc(=O)c12

>  <score_type>  (9) 
oracle

>  <origin>  (9) 
adg

>  <m_score__min__energy>  (9) 
-8.6899999999999995

>  <m_primary>  (9) 
energy

$$$$
9:0
     RDKit          3D

 47 49  0  0  0  0  0  0  0  0999 V2000
   -9.4640   20.4240  -32.3370 C   0  0  0  0  0  0  0  0  0  0  0  0
   -8.5410   20.8660  -31.1900 C   0  0  0  0  0  0  0  0  0  0  0  0
   -7.1750   21.3100  -31.5900 N   0  0  1  0  0  0  0  0  0  0  0  0
   -6.7480   20.8620  -32.9400 C   0  0  0  0  0  0  0  0  0  0  0  0
   -6.3820   19.3980  -33.0440 C   0  0  0  0  0  0  0  0  0  0  0  0
   -6.0330   18.8390  -34.2870 C   0  0  0  0  0  0  0  0  0  0  0  0
   -5.7160   17.4810  -34.3860 C   0  0  0  0  0  0  0  0  0  0  0  0
   -5.7590   16.6660  -33.2530 C   0  0  0  0  0  0  0  0  0  0  0  0
   -5.4510   15.3500  -33.3510 F   0  0  0  0  0  0  0  0  0  0  0  0
   -6.1280   17.2070  -32.0170 C   0  0  0  0  0  0  0  0  0  0  0  0
   -6.4460   18.5640  -31.9130 C   0  0  0  0  0  0  0  0  0  0  0  0
   -6.9040   22.7200  -31.3500 C   0  0  0  0  0  0  0  0  0  0  0  0
   -7.6370   23.3840  -30.6310 O   0  0  0  0  0  0  0  0  0  0  0  0
   -5.7550   23.4100  -32.0390 C   0  0  0  0  0  0  0  0  0  0  0  0
   -4.5670   23.3750  -31.1910 N   0  0  0  0  0  0  0  0  0  0  0  0
   -3.9670   24.4730  -30.5230 C   0  0  0  0  0  0  0  0  0  0  0  0
   -4.2090   25.6750  -30.8080 O   0  0  0  0  0  0  0  0  0  0  0  0
   -3.0680   24.0920  -29.4880 N   0  0  0  0  0  0  0  0  0  0  0  0
   -3.0760   22.6280  -29.4270 C   0  0  0  0  0  0  0  0  0  0  0  0
   -3.4910   22.1260  -28.0490 C   0  0  0  0  0  0  0  0  0  0  0  0
   -2.7960   20.7810  -27.8770 C   0  0  0  0  0  0  0  0  0  0  0  0
   -1.6510   20.7350  -28.8920 C   0  0  0  0  0  0  0  0  0  0  0  0
   -1.6870   22.0480  -29.6690 C   0  0  0  0  0  0  0  0  0  0  0  0
   -4.0550   22.2400  -30.5050 C   0  0  0  0  0  0  0  0  0  0  0  0
   -4.4060   21.0580  -30.7690 O   0  0  0  0  0  0  0  0  0  0  0  0
  -10.3821   19.9843  -31.9202 H   0  0  0  0  0  0  0  0  0  0  0  0
   -9.7231   21.2957  -32.9558 H   0  0  0  0  0  0  0  0  0  0  0  0
   -8.9473   19.6756  -32.9558 H   0  0  0  0  0  0  0  0  0  0  0  0
   -9.0284   21.7027  -30.6681 H   0  0  0  0  0  0  0  0  0  0  0  0
   -8.3935   19.9732  -30.5646 H   0  0  0  0  0  0  0  0  0  0  0  0
   -6.5390   20.7820  -30.9470 H   0  0  0  0  0  0  0  0  0  0  0  0
   -7.5730   21.0577  -33.6408 H   0  0  0  0  0  0  0  0  0  0  0  0
   -5.8320   21.4243  -33.1740 H   0  0  0  0  0  0  0  0  0  0  0  0
   -6.0094   19.4735  -35.1853 H   0  0  0  0  0  0  0  0  0  0  0  0
   -5.4320   17.0534  -35.3589 H   0  0  0  0  0  0  0  0  0  0  0  0
   -6.1680   16.5636  -31.1257 H   0  0  0  0  0  0  0  0  0  0  0  0
   -6.7480   18.9821  -30.9414 H   0  0  0  0  0  0  0  0  0  0  0  0
   -5.5395   22.8977  -32.9883 H   0  0  0  0  0  0  0  0  0  0  0  0
   -6.0283   24.4578  -32.2325 H   0  0  0  0  0  0  0  0  0  0  0  0
   -3.1640   22.8297  -27.2694 H   0  0  0  0  0  0  0  0  0  0  0  0
   -4.5836   22.0340  -27.9612 H   0  0  0  0  0  0  0  0  0  0  0  0
   -2.3989   20.6890  -26.8553 H   0  0  0  0  0  0  0  0  0  0  0  0
   -3.4998   19.9519  -28.0418 H   0  0  0  0  0  0  0  0  0  0  0  0
   -0.6882   20.6316  -28.3702 H   0  0  0  0  0  0  0  0  0  0  0  0
   -1.7629   19.8758  -29.5697 H   0  0  0  0  0  0  0  0  0  0  0  0
   -0.9133   22.7358  -29.2972 H   0  0  0  0  0  0  0  0  0  0  0  0
   -1.4909   21.8932  -30.7403 H   0  0  0  0  0  0  0  0  0  0  0  0
  1  2  1  0
  2  3  1  0
  3  4  1  0
  4  5  1  0
  5  6  2  0
  6  7  1  0
  7  8  2  0
  8  9  1  0
  8 10  1  0
 10 11  2  0
  3 12  1  0
 12 13  2  0
 12 14  1  0
 14 15  1  0
 15 16  1  0
 16 17  2  0
 16 18  1  0
 18 19  1  0
 19 20  1  0
 20 21  1  0
 21 22  1  0
 22 23  1  0
 19 24  1  0
 24 25  2  0
 11  5  1  0
 24 15  1  0
 23 19  1  0
  1 26  1  0
  1 27  1  0
  1 28  1  0
  2 29  1  0
  2 30  1  0
  3 31  1  1
  4 32  1  0
  4 33  1  0
  6 34  1  0
  7 35  1  0
 10 36  1  0
 11 37  1  0
 14 38  1  0
 14 39  1  0
 20 40  1  0
 20 41  1  0
 21 42  1  0
 21 43  1  0
 22 44  1  0
 22 45  1  0
 23 46  1  0
 23 47  1  0
M  CHG  2   3   1  18  -1
M  END
>  <UniqueID>  (10) 
10

>  <SMILES>  (10) 
CC[N@@H+](Cc1ccc(F)cc1)C(=O)CN1C(=O)[N-]C2(CCCC2)C1=O

>  <Energy>  (10) 
74.16629839644452

>  <Genealogy>  (10) 
CC[NH+](Cc1ccc(F)cc1)C(=O)CN1C(=O)[N-]C2(CCCC2)C1=O (protonated)
CC[N@@H+](Cc1ccc(F)cc1)C(=O)CN1C(=O)[N-]C2(CCCC2)C1=O (chirality)
CC[N@@H+](Cc1ccc(F)cc1)C(=O)CN1C(=O)[N-]C2(CCCC2)C1=O (3D coordinates assigned)
CC[N@@H+](Cc1ccc(F)cc1)C(=O)CN1C(=O)[N-]C2(CCCC2)C1=O (nonaromatic ring conformer: 74.16629839644452 kcal/mol)

>  <smiles>  (10) 
CCN(Cc1ccc(F)cc1)C(=O)CN1C(=O)NC2(CCCC2)C1=O

>  <score_type>  (10) 
oracle

>  <origin>  (10) 
adg

>  <m_score__min__energy>  (10) 
-8.9399999999999995

>  <m_primary>  (10) 
energy

$$$$
10:0
     RDKit          3D

 48 50  0  0  0  0  0  0  0  0999 V2000
   -3.8800   23.7460  -27.5780 C   0  0  0  0  0  0  0  0  0  0  0  0
   -3.0220   22.6880  -28.2720 C   0  0  0  0  0  0  0  0  0  0  0  0
   -2.0820   23.2880  -29.3290 C   0  0  0  0  0  0  0  0  0  0  0  0
   -1.1950   22.2240  -29.9990 C   0  0  0  0  0  0  0  0  0  0  0  0
   -2.0010   21.2410  -30.8610 C   0  0  0  0  0  0  0  0  0  0  0  0
   -1.7190   21.4090  -32.3650 C   0  0  0  0  0  0  0  0  0  0  0  0
   -2.9870   21.7370  -33.1700 C   0  0  0  0  0  0  0  0  0  0  0  0
   -4.0730   20.6510  -33.0930 C   0  0  0  0  0  0  0  0  0  0  0  0
   -5.3020   21.1660  -32.4830 N   0  0  0  0  0  0  0  0  0  0  0  0
   -6.5270   20.5760  -32.4020 C   0  0  0  0  0  0  0  0  0  0  0  0
   -6.9280   19.3410  -32.9220 C   0  0  0  0  0  0  0  0  0  0  0  0
   -8.2520   18.9220  -32.6900 C   0  0  0  0  0  0  0  0  0  0  0  0
   -9.1450   19.7320  -31.9530 C   0  0  0  0  0  0  0  0  0  0  0  0
   -8.7280   20.9700  -31.4370 C   0  0  0  0  0  0  0  0  0  0  0  0
   -7.4140   21.3600  -31.6810 C   0  0  0  0  0  0  0  0  0  0  0  0
   -6.7000   22.4720  -31.3070 C   0  0  0  0  0  0  0  0  0  0  0  0
   -7.0440   23.5550  -30.5770 N   0  0  0  0  0  0  0  0  0  0  0  0
   -6.1150   24.4990  -30.3420 N   0  0  0  0  0  0  0  0  0  0  0  0
   -6.4710   25.6870  -29.5570 C   0  0  0  0  0  0  0  0  0  0  0  0
   -4.8310   24.3610  -30.8410 C   0  0  0  0  0  0  0  0  0  0  0  0
   -3.9600   25.2470  -30.6270 O   0  0  0  0  0  0  0  0  0  0  0  0
   -4.4910   23.2590  -31.5750 N   0  0  0  0  0  0  0  0  0  0  0  0
   -5.4420   22.3240  -31.7990 C   0  0  0  0  0  0  0  0  0  0  0  0
   -3.7892   23.6341  -26.4875 H   0  0  0  0  0  0  0  0  0  0  0  0
   -3.5365   24.7483  -27.8736 H   0  0  0  0  0  0  0  0  0  0  0  0
   -4.9316   23.6169  -27.8736 H   0  0  0  0  0  0  0  0  0  0  0  0
   -2.4150   22.1734  -27.5126 H   0  0  0  0  0  0  0  0  0  0  0  0
   -3.7021   21.9939  -28.7874 H   0  0  0  0  0  0  0  0  0  0  0  0
   -2.6894   23.7796  -30.1032 H   0  0  0  0  0  0  0  0  0  0  0  0
   -1.4197   24.0039  -28.8202 H   0  0  0  0  0  0  0  0  0  0  0  0
   -0.4583   22.7316  -30.6390 H   0  0  0  0  0  0  0  0  0  0  0  0
   -0.7081   21.6451  -29.2004 H   0  0  0  0  0  0  0  0  0  0  0  0
   -1.7382   20.2146  -30.5651 H   0  0  0  0  0  0  0  0  0  0  0  0
   -3.0685   21.4483  -30.6955 H   0  0  0  0  0  0  0  0  0  0  0  0
   -0.9952   22.2264  -32.4988 H   0  0  0  0  0  0  0  0  0  0  0  0
   -1.3241   20.4530  -32.7393 H   0  0  0  0  0  0  0  0  0  0  0  0
   -3.4089   22.6766  -32.7838 H   0  0  0  0  0  0  0  0  0  0  0  0
   -2.6847   21.8116  -34.2250 H   0  0  0  0  0  0  0  0  0  0  0  0
   -4.2989   20.2981  -34.1101 H   0  0  0  0  0  0  0  0  0  0  0  0
   -3.6955   19.8276  -32.4689 H   0  0  0  0  0  0  0  0  0  0  0  0
   -6.2289   18.7150  -33.4958 H   0  0  0  0  0  0  0  0  0  0  0  0
   -8.5946   17.9547  -33.0863 H   0  0  0  0  0  0  0  0  0  0  0  0
  -10.1763   19.3898  -31.7818 H   0  0  0  0  0  0  0  0  0  0  0  0
   -9.4145   21.6081  -30.8612 H   0  0  0  0  0  0  0  0  0  0  0  0
   -8.0170   23.6450  -30.2050 H   0  0  0  0  0  0  0  0  0  0  0  0
   -6.4007   25.4525  -28.4846 H   0  0  0  0  0  0  0  0  0  0  0  0
   -5.7792   26.5073  -29.7990 H   0  0  0  0  0  0  0  0  0  0  0  0
   -7.4999   25.9916  -29.7990 H   0  0  0  0  0  0  0  0  0  0  0  0
  1  2  1  0
  2  3  1  0
  3  4  1  0
  4  5  1  0
  5  6  1  0
  6  7  1  0
  7  8  1  0
  8  9  1  0
  9 10  1  0
 10 11  2  0
 11 12  1  0
 12 13  2  0
 13 14  1  0
 14 15  2  0
 15 16  1  0
 16 17  2  0
 17 18  1  0
 18 19  1  0
 18 20  1  0
 20 21  2  0
 20 22  1  0
 22 23  2  0
 23  9  1  0
 15 10  1  0
 23 16  1  0
  1 24  1  0
  1 25  1  0
  1 26  1  0
  2 27  1  0
  2 28  1  0
  3 29  1  0
  3 30  1  0
  4 31  1  0
  4 32  1  0
  5 33  1  0
  5 34  1  0
  6 35  1  0
  6 36  1  0
  7 37  1  0
  7 38  1  0
  8 39  1  0
  8 40  1  0
 11 41  1  0
 12 42  1  0
 13 43  1  0
 14 44  1  0
 17 45  1  0
 19 46  1  0
 19 47  1  0
 19 48  1  0
M  CHG  1  17   1
M  END
>  <UniqueID>  (11) 
11

>  <SMILES>  (11) 
CCCCCCCCn1c2ccccc2c2[nH+]n(C)c(=O)nc21

>  <Energy>  (11) 
83.46046952268308

>  <Genealogy>  (11) 
CCCCCCCCn1c2ccccc2c2[nH+]n(C)c(=O)nc21 (protonated)
CCCCCCCCn1c2ccccc2c2[nH+]n(C)c(=O)nc21 (3D coordinates assigned)
CCCCCCCCn1c2ccccc2c2[nH+]n(C)c(=O)nc21 (optimized conformer: 83.46046952268308 kcal/mol)

>  <smiles>  (11) 
CCCCCCCCn1c2ccccc2c2nn(C)c(=O)nc21

>  <score_type>  (11) 
oracle

>  <origin>  (11) 
adg

>  <m_score__min__energy>  (11) 
-8.0099999999999998

>  <m_primary>  (11) 
energy

$$$$
11:0
     RDKit          3D

 58 61  0  0  0  0  0  0  0  0999 V2000
   -1.8480   24.9450  -28.2460 C   0  0  0  0  0  0  0  0  0  0  0  0
   -2.6930   25.2950  -29.3380 O   0  0  0  0  0  0  0  0  0  0  0  0
   -3.7310   24.4890  -29.8260 C   0  0  0  0  0  0  0  0  0  0  0  0
   -5.0510   24.5860  -29.3490 C   0  0  0  0  0  0  0  0  0  0  0  0
   -6.0530   23.7610  -29.8700 C   0  0  0  0  0  0  0  0  0  0  0  0
   -5.7580   22.8270  -30.8800 C   0  0  0  0  0  0  0  0  0  0  0  0
   -6.8050   21.9350  -31.4420 C   0  0  0  0  0  0  0  0  0  0  0  0
   -8.1620   22.1030  -31.1440 C   0  0  0  0  0  0  0  0  0  0  0  0
   -9.0960   21.2420  -31.7090 C   0  0  0  0  0  0  0  0  0  0  0  0
   -8.6670   20.2300  -32.5660 C   0  0  0  0  0  0  0  0  0  0  0  0
   -9.5180   19.4510  -33.0760 O   0  0  0  0  0  0  0  0  0  0  0  0
   -7.3310   20.0990  -32.8440 N   0  0  0  0  0  0  0  0  0  0  0  0
   -6.8250   19.0750  -33.7670 C   0  0  0  0  0  0  0  0  0  0  0  0
   -6.0250   17.9990  -33.0160 C   0  0  0  0  0  0  0  0  0  0  0  0
   -4.6600   18.4980  -32.5090 C   0  0  0  0  0  0  0  0  0  0  0  0
   -3.7790   18.9630  -33.6070 N   0  0  0  0  0  0  0  0  0  0  0  0
   -3.6310   20.4420  -33.6190 C   0  0  0  0  0  0  0  0  0  0  0  0
   -2.3620   20.9520  -32.9000 C   0  0  0  0  0  0  0  0  0  0  0  0
   -1.8660   19.9590  -31.9440 N   0  0  0  0  0  0  0  0  0  0  0  0
   -1.5140   20.3390  -30.6020 C   0  0  0  0  0  0  0  0  0  0  0  0
   -0.1640   20.4540  -30.2290 C   0  0  0  0  0  0  0  0  0  0  0  0
    0.1800   20.8170  -28.9240 C   0  0  0  0  0  0  0  0  0  0  0  0
   -0.8200   21.0610  -27.9790 C   0  0  0  0  0  0  0  0  0  0  0  0
   -2.1650   20.9380  -28.3360 C   0  0  0  0  0  0  0  0  0  0  0  0
   -2.5150   20.5760  -29.6410 C   0  0  0  0  0  0  0  0  0  0  0  0
   -3.8260   20.4240  -29.9570 F   0  0  0  0  0  0  0  0  0  0  0  0
   -1.6150   18.5910  -32.4080 C   0  0  0  0  0  0  0  0  0  0  0  0
   -2.4650   18.2810  -33.6520 C   0  0  0  0  0  0  0  0  0  0  0  0
   -6.4450   20.9350  -32.2930 N   0  0  0  0  0  0  0  0  0  0  0  0
   -4.4340   22.7280  -31.3440 C   0  0  0  0  0  0  0  0  0  0  0  0
   -3.4340   23.5550  -30.8230 C   0  0  0  0  0  0  0  0  0  0  0  0
   -2.3650   25.1592  -27.2990 H   0  0  0  0  0  0  0  0  0  0  0  0
   -1.6069   23.8730  -28.2979 H   0  0  0  0  0  0  0  0  0  0  0  0
   -0.9195   25.5326  -28.2979 H   0  0  0  0  0  0  0  0  0  0  0  0
   -5.2963   25.3145  -28.5622 H   0  0  0  0  0  0  0  0  0  0  0  0
   -7.0808   23.8431  -29.4867 H   0  0  0  0  0  0  0  0  0  0  0  0
   -8.4866   22.9087  -30.4691 H   0  0  0  0  0  0  0  0  0  0  0  0
  -10.1658   21.3586  -31.4813 H   0  0  0  0  0  0  0  0  0  0  0  0
   -7.6757   18.5994  -34.2771 H   0  0  0  0  0  0  0  0  0  0  0  0
   -6.1589   19.5603  -34.4956 H   0  0  0  0  0  0  0  0  0  0  0  0
   -6.6170   17.6634  -32.1518 H   0  0  0  0  0  0  0  0  0  0  0  0
   -5.8298   17.1826  -33.7269 H   0  0  0  0  0  0  0  0  0  0  0  0
   -4.8267   19.3335  -31.8132 H   0  0  0  0  0  0  0  0  0  0  0  0
   -4.1588   17.6525  -32.0152 H   0  0  0  0  0  0  0  0  0  0  0  0
   -3.5939   20.7775  -34.6659 H   0  0  0  0  0  0  0  0  0  0  0  0
   -4.4931   20.8528  -33.0731 H   0  0  0  0  0  0  0  0  0  0  0  0
   -1.5809   21.1529  -33.6480 H   0  0  0  0  0  0  0  0  0  0  0  0
   -2.6153   21.8711  -32.3513 H   0  0  0  0  0  0  0  0  0  0  0  0
    0.6264   20.2572  -30.9683 H   0  0  0  0  0  0  0  0  0  0  0  0
    1.2387   20.9107  -28.6406 H   0  0  0  0  0  0  0  0  0  0  0  0
   -0.5479   21.3502  -26.9532 H   0  0  0  0  0  0  0  0  0  0  0  0
   -2.9505   21.1262  -27.5893 H   0  0  0  0  0  0  0  0  0  0  0  0
   -0.5499   18.4841  -32.6612 H   0  0  0  0  0  0  0  0  0  0  0  0
   -1.8861   17.8876  -31.6069 H   0  0  0  0  0  0  0  0  0  0  0  0
   -1.9208   18.6163  -34.5472 H   0  0  0  0  0  0  0  0  0  0  0  0
   -2.6447   17.1962  -33.6804 H   0  0  0  0  0  0  0  0  0  0  0  0
   -4.1829   21.9936  -32.1235 H   0  0  0  0  0  0  0  0  0  0  0  0
   -2.4045   23.4699  -31.2010 H   0  0  0  0  0  0  0  0  0  0  0  0
  1  2  1  0
  2  3  1  0
  3  4  2  0
  4  5  1  0
  5  6  2  0
  6  7  1  0
  7  8  1  0
  8  9  2  0
  9 10  1  0
 10 11  2  0
 10 12  1  0
 12 13  1  0
 13 14  1  0
 14 15  1  0
 15 16  1  0
 16 17  1  0
 17 18  1  0
 18 19  1  0
 19 20  1  0
 20 21  2  0
 21 22  1  0
 22 23  2  0
 23 24  1  0
 24 25  2  0
 25 26  1  0
 19 27  1  0
 27 28  1  0
 12 29  1  0
  6 30  1  0
 30 31  2  0
 31  3  1  0
 29  7  2  0
 28 16  1  0
 25 20  1  0
  1 32  1  0
  1 33  1  0
  1 34  1  0
  4 35  1  0
  5 36  1  0
  8 37  1  0
  9 38  1  0
 13 39  1  0
 13 40  1  0
 14 41  1  0
 14 42  1  0
 15 43  1  0
 15 44  1  0
 17 45  1  0
 17 46  1  0
 18 47  1  0
 18 48  1  0
 21 49  1  0
 22 50  1  0
 23 51  1  0
 24 52  1  0
 27 53  1  0
 27 54  1  0
 28 55  1  0
 28 56  1  0
 30 57  1  0
 31 58  1  0
M  END
>  <UniqueID>  (12) 
12

>  <SMILES>  (12) 
COc1ccc(-c2ccc(=O)n(CCCN3CCN(c4ccccc4F)CC3)n2)cc1

>  <Energy>  (12) 
76.68855205643243

>  <Genealogy>  (12) 
COc1ccc(-c2ccc(=O)n(CCCN3CCN(c4ccccc4F)CC3)n2)cc1 (3D coordinates assigned)
COc1ccc(-c2ccc(=O)n(CCCN3CCN(c4ccccc4F)CC3)n2)cc1 (nonaromatic ring conformer: 76.68855205643243 kcal/mol)

>  <smiles>  (12) 
COc1ccc(-c2ccc(=O)n(CCCN3CCN(c4ccccc4F)CC3)n2)cc1

>  <score_type>  (12) 
oracle

>  <origin>  (12) 
adg

>  <m_score__min__energy>  (12) 
-9.6899999999999995

>  <m_primary>  (12) 
energy

$$$$
12:0
     RDKit          3D

 63 66  0  0  0  0  0  0  0  0999 V2000
   -4.1890   24.1980  -27.2340 C   0  0  0  0  0  0  0  0  0  0  0  0
   -4.1250   24.1340  -28.7650 C   0  0  0  0  0  0  0  0  0  0  0  0
   -5.2940   23.4490  -29.3790 N   0  0  0  0  0  0  0  0  0  0  0  0
   -6.1690   24.3680  -30.1620 C   0  0  0  0  0  0  0  0  0  0  0  0
   -6.4970   25.6990  -29.4660 C   0  0  0  0  0  0  0  0  0  0  0  0
   -4.8180   22.2740  -30.1540 C   0  0  0  0  0  0  0  0  0  0  0  0
   -4.1250   22.6520  -31.4740 C   0  0  0  0  0  0  0  0  0  0  0  0
   -4.9650   22.2720  -32.6100 N   0  0  0  0  0  0  0  0  0  0  0  0
   -5.2790   20.8910  -32.8650 C   0  0  0  0  0  0  0  0  0  0  0  0
   -6.5610   20.3920  -32.5760 C   0  0  0  0  0  0  0  0  0  0  0  0
   -7.5110   21.1780  -31.8900 C   0  0  0  0  0  0  0  0  0  0  0  0
   -8.7840   20.6800  -31.6210 C   0  0  0  0  0  0  0  0  0  0  0  0
   -9.1270   19.3920  -32.0180 C   0  0  0  0  0  0  0  0  0  0  0  0
   -8.1990   18.5930  -32.6870 C   0  0  0  0  0  0  0  0  0  0  0  0
   -6.9000   19.0780  -32.9820 C   0  0  0  0  0  0  0  0  0  0  0  0
   -5.9770   18.3010  -33.6510 N   0  0  0  0  0  0  0  0  0  0  0  0
   -6.4620   17.1850  -34.4920 C   0  0  0  0  0  0  0  0  0  0  0  0
   -4.6440   18.6690  -33.6630 C   0  0  0  0  0  0  0  0  0  0  0  0
   -3.5890   17.7530  -33.9750 C   0  0  0  0  0  0  0  0  0  0  0  0
   -3.7430   16.2810  -33.8670 C   0  0  0  0  0  0  0  0  0  0  0  0
   -3.5000   15.4560  -34.9770 C   0  0  0  0  0  0  0  0  0  0  0  0
   -3.6430   14.0710  -34.8680 C   0  0  0  0  0  0  0  0  0  0  0  0
   -4.0120   13.4960  -33.6490 C   0  0  0  0  0  0  0  0  0  0  0  0
   -4.2230   14.3050  -32.5220 C   0  0  0  0  0  0  0  0  0  0  0  0
   -4.6590   13.6950  -31.2230 C   0  0  0  0  0  0  0  0  0  0  0  0
   -4.0930   15.6970  -32.6370 C   0  0  0  0  0  0  0  0  0  0  0  0
   -2.2920   18.2370  -34.2040 C   0  0  0  0  0  0  0  0  0  0  0  0
   -2.0010   19.5850  -34.0470 C   0  0  0  0  0  0  0  0  0  0  0  0
   -2.9810   20.4640  -33.6030 C   0  0  0  0  0  0  0  0  0  0  0  0
   -4.2970   20.0180  -33.3710 C   0  0  0  0  0  0  0  0  0  0  0  0
   -3.4722   23.4812  -26.8068 H   0  0  0  0  0  0  0  0  0  0  0  0
   -3.9353   25.2144  -26.8986 H   0  0  0  0  0  0  0  0  0  0  0  0
   -5.2054   23.9442  -26.8986 H   0  0  0  0  0  0  0  0  0  0  0  0
   -4.0791   25.1615  -29.1549 H   0  0  0  0  0  0  0  0  0  0  0  0
   -3.2317   23.5482  -29.0276 H   0  0  0  0  0  0  0  0  0  0  0  0
   -5.8760   23.0760  -28.5900 H   0  0  0  0  0  0  0  0  0  0  0  0
   -5.6630   24.5948  -31.1120 H   0  0  0  0  0  0  0  0  0  0  0  0
   -7.1273   23.8442  -30.2933 H   0  0  0  0  0  0  0  0  0  0  0  0
   -6.4629   25.5606  -28.3753 H   0  0  0  0  0  0  0  0  0  0  0  0
   -5.7593   26.4593  -29.7624 H   0  0  0  0  0  0  0  0  0  0  0  0
   -7.5035   26.0295  -29.7624 H   0  0  0  0  0  0  0  0  0  0  0  0
   -4.1035   21.7133  -29.5334 H   0  0  0  0  0  0  0  0  0  0  0  0
   -5.7039   21.6754  -30.4125 H   0  0  0  0  0  0  0  0  0  0  0  0
   -3.9526   23.7382  -31.4963 H   0  0  0  0  0  0  0  0  0  0  0  0
   -3.1651   22.1191  -31.5420 H   0  0  0  0  0  0  0  0  0  0  0  0
   -5.5300   23.0150  -33.0780 H   0  0  0  0  0  0  0  0  0  0  0  0
   -7.2438   22.1941  -31.5643 H   0  0  0  0  0  0  0  0  0  0  0  0
   -9.5188   21.3063  -31.0939 H   0  0  0  0  0  0  0  0  0  0  0  0
  -10.1330   19.0019  -31.8040 H   0  0  0  0  0  0  0  0  0  0  0  0
   -8.4792   17.5732  -32.9895 H   0  0  0  0  0  0  0  0  0  0  0  0
   -6.8172   16.3676  -33.8473 H   0  0  0  0  0  0  0  0  0  0  0  0
   -7.2884   17.5367  -35.1271 H   0  0  0  0  0  0  0  0  0  0  0  0
   -5.6410   16.8208  -35.1271 H   0  0  0  0  0  0  0  0  0  0  0  0
   -3.1960   15.9020  -35.9355 H   0  0  0  0  0  0  0  0  0  0  0  0
   -3.4646   13.4307  -35.7445 H   0  0  0  0  0  0  0  0  0  0  0  0
   -4.1375   12.4058  -33.5726 H   0  0  0  0  0  0  0  0  0  0  0  0
   -4.2433   14.2766  -30.3870 H   0  0  0  0  0  0  0  0  0  0  0  0
   -5.7574   13.7028  -31.1647 H   0  0  0  0  0  0  0  0  0  0  0  0
   -4.2960   12.6582  -31.1647 H   0  0  0  0  0  0  0  0  0  0  0  0
   -4.2661   16.3361  -31.7586 H   0  0  0  0  0  0  0  0  0  0  0  0
   -1.4976   17.5409  -34.5111 H   0  0  0  0  0  0  0  0  0  0  0  0
   -0.9917   19.9584  -34.2747 H   0  0  0  0  0  0  0  0  0  0  0  0
   -2.7265   21.5202  -33.4307 H   0  0  0  0  0  0  0  0  0  0  0  0
  1  2  1  0
  2  3  1  0
  3  4  1  0
  4  5  1  0
  3  6  1  0
  6  7  1  0
  7  8  1  0
  8  9  1  0
  9 10  2  0
 10 11  1  0
 11 12  2  0
 12 13  1  0
 13 14  2  0
 14 15  1  0
 15 16  2  0
 16 17  1  0
 16 18  1  0
 18 19  2  0
 19 20  1  0
 20 21  2  0
 21 22  1  0
 22 23  2  0
 23 24  1  0
 24 25  1  0
 24 26  2  0
 19 27  1  0
 27 28  2  0
 28 29  1  0
 29 30  2  0
 30  9  1  0
 15 10  1  0
 30 18  1  0
 26 20  1  0
  1 31  1  0
  1 32  1  0
  1 33  1  0
  2 34  1  0
  2 35  1  0
  3 36  1  0
  4 37  1  0
  4 38  1  0
  5 39  1  0
  5 40  1  0
  5 41  1  0
  6 42  1  0
  6 43  1  0
  7 44  1  0
  7 45  1  0
  8 46  1  0
 11 47  1  0
 12 48  1  0
 13 49  1  0
 14 50  1  0
 17 51  1  0
 17 52  1  0
 17 53  1  0
 21 54  1  0
 22 55  1  0
 23 56  1  0
 25 57  1  0
 25 58  1  0
 25 59  1  0
 26 60  1  0
 27 61  1  0
 28 62  1  0
 29 63  1  0
M  CHG  2   3   1  16   1
M  END
>  <UniqueID>  (13) 
13

>  <SMILES>  (13) 
CC[NH+](CC)CCNc1c2ccccc2[n+](C)c2c(-c3cccc(C)c3)cccc12

>  <Energy>  (13) 
106.44486050944404

>  <Genealogy>  (13) 
CC[NH+](CC)CCNc1c2ccccc2[n+](C)c2c(-c3cccc(C)c3)cccc12 (protonated)
CC[NH+](CC)CCNc1c2ccccc2[n+](C)c2c(-c3cccc(C)c3)cccc12 (3D coordinates assigned)
CC[NH+](CC)CCNc1c2ccccc2[n+](C)c2c(-c3cccc(C)c3)cccc12 (optimized conformer: 106.44486050944404 kcal/mol)

>  <smiles>  (13) 
CCN(CC)CCNc1c2ccccc2[n+](C)c2c(-c3cccc(C)c3)cccc12

>  <score_type>  (13) 
oracle

>  <origin>  (13) 
adg

>  <m_score__min__energy>  (13) 
-7.96

>  <m_primary>  (13) 
energy

$$$$
13:0
     RDKit          3D

 43 45  0  0  0  0  0  0  0  0999 V2000
   -6.3840   25.2550  -29.9750 C   0  0  0  0  0  0  0  0  0  0  0  0
   -4.9370   24.8090  -29.8070 C   0  0  0  0  0  0  0  0  0  0  0  0
   -4.3710   24.4410  -31.1110 N   0  0  0  0  0  0  0  0  0  0  0  0
   -4.0440   23.0090  -31.1700 C   0  0  0  0  0  0  0  0  0  0  0  0
   -4.4530   22.4250  -32.5250 C   0  0  0  0  0  0  0  0  0  0  0  0
   -5.4760   21.3430  -32.3450 C   0  0  0  0  0  0  0  0  0  0  0  0
   -5.2450   19.9720  -32.3950 C   0  0  0  0  0  0  0  0  0  0  0  0
   -6.4120   19.3010  -32.2580 N   0  0  0  0  0  0  0  0  0  0  0  0
   -6.6020   17.5780  -32.2420 S   0  0  0  0  0  0  0  0  0  0  0  0
   -7.9840   17.2120  -32.7080 O   0  0  0  0  0  0  0  0  0  0  0  0
   -6.4110   17.0820  -30.8360 O   0  0  0  0  0  0  0  0  0  0  0  0
   -5.4220   16.8440  -33.3200 C   0  0  0  0  0  0  0  0  0  0  0  0
   -4.8680   15.5940  -33.0050 C   0  0  0  0  0  0  0  0  0  0  0  0
   -3.9350   15.0030  -33.8620 C   0  0  0  0  0  0  0  0  0  0  0  0
   -3.5490   15.6580  -35.0350 C   0  0  0  0  0  0  0  0  0  0  0  0
   -4.0940   16.9070  -35.3510 C   0  0  0  0  0  0  0  0  0  0  0  0
   -5.0270   17.5000  -34.4950 C   0  0  0  0  0  0  0  0  0  0  0  0
   -7.3800   20.2300  -32.1320 C   0  0  0  0  0  0  0  0  0  0  0  0
   -8.7540   20.0290  -31.9760 C   0  0  0  0  0  0  0  0  0  0  0  0
   -9.5790   21.1640  -31.8780 C   0  0  0  0  0  0  0  0  0  0  0  0
   -9.0230   22.4600  -31.9410 C   0  0  0  0  0  0  0  0  0  0  0  0
   -7.6360   22.6350  -32.0990 C   0  0  0  0  0  0  0  0  0  0  0  0
   -6.8420   21.4920  -32.1870 C   0  0  0  0  0  0  0  0  0  0  0  0
   -6.8416   25.3960  -28.9847 H   0  0  0  0  0  0  0  0  0  0  0  0
   -6.4131   26.2038  -30.5308 H   0  0  0  0  0  0  0  0  0  0  0  0
   -6.9422   24.4872  -30.5308 H   0  0  0  0  0  0  0  0  0  0  0  0
   -4.3498   25.6323  -29.3741 H   0  0  0  0  0  0  0  0  0  0  0  0
   -4.9032   23.9357  -29.1390 H   0  0  0  0  0  0  0  0  0  0  0  0
   -3.4770   24.9760  -31.2280 H   0  0  0  0  0  0  0  0  0  0  0  0
   -2.9607   22.8783  -31.0308 H   0  0  0  0  0  0  0  0  0  0  0  0
   -4.5927   22.4840  -30.3742 H   0  0  0  0  0  0  0  0  0  0  0  0
   -4.8780   23.2243  -33.1500 H   0  0  0  0  0  0  0  0  0  0  0  0
   -3.5637   21.9959  -33.0098 H   0  0  0  0  0  0  0  0  0  0  0  0
   -4.2589   19.5026  -32.5265 H   0  0  0  0  0  0  0  0  0  0  0  0
   -5.1686   15.0777  -32.0814 H   0  0  0  0  0  0  0  0  0  0  0  0
   -3.5043   14.0219  -33.6131 H   0  0  0  0  0  0  0  0  0  0  0  0
   -2.8164   15.1911  -35.7098 H   0  0  0  0  0  0  0  0  0  0  0  0
   -3.7884   17.4228  -36.2733 H   0  0  0  0  0  0  0  0  0  0  0  0
   -5.4523   18.4835  -34.7437 H   0  0  0  0  0  0  0  0  0  0  0  0
   -9.1773   19.0147  -31.9312 H   0  0  0  0  0  0  0  0  0  0  0  0
  -10.6647   21.0409  -31.7514 H   0  0  0  0  0  0  0  0  0  0  0  0
   -9.6791   23.3397  -31.8660 H   0  0  0  0  0  0  0  0  0  0  0  0
   -7.1925   23.6403  -32.1514 H   0  0  0  0  0  0  0  0  0  0  0  0
  1  2  1  0
  2  3  1  0
  3  4  1  0
  4  5  1  0
  5  6  1  0
  6  7  2  0
  7  8  1  0
  8  9  1  0
  9 10  2  0
  9 11  2  0
  9 12  1  0
 12 13  2  0
 13 14  1  0
 14 15  2  0
 15 16  1  0
 16 17  2  0
  8 18  1  0
 18 19  2  0
 19 20  1  0
 20 21  2  0
 21 22  1  0
 22 23  2  0
 23  6  1  0
 17 12  1  0
 23 18  1  0
  1 24  1  0
  1 25  1  0
  1 26  1  0
  2 27  1  0
  2 28  1  0
  3 29  1  0
  4 30  1  0
  4 31  1  0
  5 32  1  0
  5 33  1  0
  7 34  1  0
 13 35  1  0
 14 36  1  0
 15 37  1  0
 16 38  1  0
 17 39  1  0
 19 40  1  0
 20 41  1  0
 21 42  1  0
 22 43  1  0
M  END
>  <UniqueID>  (14) 
14

>  <SMILES>  (14) 
CCNCCc1cn(S(=O)(=O)c2ccccc2)c2ccccc12

>  <Energy>  (14) 
73.74395810913808

>  <Genealogy>  (14) 
CCNCCc1cn(S(=O)(=O)c2ccccc2)c2ccccc12 (3D coordinates assigned)
CCNCCc1cn(S(=O)(=O)c2ccccc2)c2ccccc12 (optimized conformer: 73.74395810913808 kcal/mol)

>  <smiles>  (14) 
CCNCCc1cn(S(=O)(=O)c2ccccc2)c2ccccc12

>  <score_type>  (14) 
oracle

>  <origin>  (14) 
adg

>  <m_score__min__energy>  (14) 
-8.9700000000000006

>  <m_primary>  (14) 
energy

$$$$
14:0
     RDKit          3D

 41 43  0  0  0  0  0  0  0  0999 V2000
   -4.9350   17.0990  -32.5100 C   0  0  0  0  0  0  0  0  0  0  0  0
   -6.4470   17.2440  -32.6470 C   0  0  0  0  0  0  0  0  0  0  0  0
   -6.8670   18.6750  -32.4380 C   0  0  0  0  0  0  0  0  0  0  0  0
   -8.1830   19.0600  -32.6860 C   0  0  0  0  0  0  0  0  0  0  0  0
   -8.5870   20.3710  -32.4630 C   0  0  0  0  0  0  0  0  0  0  0  0
   -7.6830   21.3450  -31.9740 C   0  0  0  0  0  0  0  0  0  0  0  0
   -6.3360   20.9610  -31.7030 C   0  0  0  0  0  0  0  0  0  0  0  0
   -5.9570   19.6150  -31.9380 C   0  0  0  0  0  0  0  0  0  0  0  0
   -5.4250   21.9410  -31.2050 C   0  0  0  0  0  0  0  0  0  0  0  0
   -4.0740   21.6530  -30.9150 C   0  0  0  0  0  0  0  0  0  0  0  0
   -3.2170   22.6330  -30.4280 C   0  0  0  0  0  0  0  0  0  0  0  0
   -3.6640   23.9440  -30.2110 C   0  0  0  0  0  0  0  0  0  0  0  0
   -2.7900   24.9260  -29.7190 O   0  0  0  0  0  0  0  0  0  0  0  0
   -2.0180   24.8150  -28.5260 C   0  0  0  0  0  0  0  0  0  0  0  0
   -5.0130   24.2690  -30.4940 C   0  0  0  0  0  0  0  0  0  0  0  0
   -5.5430   25.5630  -30.3050 O   0  0  0  0  0  0  0  0  0  0  0  0
   -6.4690   25.9750  -29.3060 C   0  0  0  0  0  0  0  0  0  0  0  0
   -5.8840   23.2640  -30.9910 C   0  0  0  0  0  0  0  0  0  0  0  0
   -7.2200   23.5760  -31.2770 C   0  0  0  0  0  0  0  0  0  0  0  0
   -8.0910   22.6430  -31.7560 N   0  0  0  0  0  0  0  0  0  0  0  0
   -9.4760   23.0730  -32.0270 C   0  0  0  0  0  0  0  0  0  0  0  0
   -4.6642   17.0730  -31.4442 H   0  0  0  0  0  0  0  0  0  0  0  0
   -4.6109   16.1656  -32.9935 H   0  0  0  0  0  0  0  0  0  0  0  0
   -4.4394   17.9537  -32.9935 H   0  0  0  0  0  0  0  0  0  0  0  0
   -6.7506   16.9223  -33.6541 H   0  0  0  0  0  0  0  0  0  0  0  0
   -6.9323   16.6185  -31.8833 H   0  0  0  0  0  0  0  0  0  0  0  0
   -8.9069   18.3214  -33.0608 H   0  0  0  0  0  0  0  0  0  0  0  0
   -9.6286   20.6574  -32.6703 H   0  0  0  0  0  0  0  0  0  0  0  0
   -4.9247   19.3019  -31.7227 H   0  0  0  0  0  0  0  0  0  0  0  0
   -3.6923   20.6342  -31.0774 H   0  0  0  0  0  0  0  0  0  0  0  0
   -2.1702   22.3756  -30.2091 H   0  0  0  0  0  0  0  0  0  0  0  0
   -2.6786   24.9100  -27.6516 H   0  0  0  0  0  0  0  0  0  0  0  0
   -1.5176   23.8357  -28.5028 H   0  0  0  0  0  0  0  0  0  0  0  0
   -1.2620   25.6137  -28.5028 H   0  0  0  0  0  0  0  0  0  0  0  0
   -6.0424   25.7852  -28.3100 H   0  0  0  0  0  0  0  0  0  0  0  0
   -6.6751   27.0497  -29.4179 H   0  0  0  0  0  0  0  0  0  0  0  0
   -7.4053   25.4085  -29.4179 H   0  0  0  0  0  0  0  0  0  0  0  0
   -7.5761   24.6033  -31.1102 H   0  0  0  0  0  0  0  0  0  0  0  0
  -10.0022   23.2364  -31.0749 H   0  0  0  0  0  0  0  0  0  0  0  0
   -9.4629   24.0094  -32.6041 H   0  0  0  0  0  0  0  0  0  0  0  0
   -9.9956   22.2939  -32.6041 H   0  0  0  0  0  0  0  0  0  0  0  0
  1  2  1  0
  2  3  1  0
  3  4  2  0
  4  5  1  0
  5  6  2  0
  6  7  1  0
  7  8  2  0
  7  9  1  0
  9 10  2  0
 10 11  1  0
 11 12  2  0
 12 13  1  0
 13 14  1  0
 12 15  1  0
 15 16  1  0
 16 17  1  0
 15 18  2  0
 18 19  1  0
 19 20  2  0
 20 21  1  0
  8  3  1  0
 18  9  1  0
 20  6  1  0
  1 22  1  0
  1 23  1  0
  1 24  1  0
  2 25  1  0
  2 26  1  0
  4 27  1  0
  5 28  1  0
  8 29  1  0
 10 30  1  0
 11 31  1  0
 14 32  1  0
 14 33  1  0
 14 34  1  0
 17 35  1  0
 17 36  1  0
 17 37  1  0
 19 38  1  0
 21 39  1  0
 21 40  1  0
 21 41  1  0
M  CHG  1  20   1
M  END
>  <UniqueID>  (15) 
15

>  <SMILES>  (15) 
CCc1ccc2c(c1)c1ccc(OC)c(OC)c1c[n+]2C

>  <Energy>  (15) 
59.25320208291122

>  <Genealogy>  (15) 
CCc1ccc2c(c1)c1ccc(OC)c(OC)c1c[n+]2C (3D coordinates assigned)
CCc1ccc2c(c1)c1ccc(OC)c(OC)c1c[n+]2C (optimized conformer: 59.25320208291122 kcal/mol)

>  <smiles>  (15) 
CCc1ccc2c(c1)c1ccc(OC)c(OC)c1c[n+]2C

>  <score_type>  (15) 
oracle

>  <origin>  (15) 
adg

>  <m_score__min__energy>  (15) 
-7.7000000000000002

>  <m_primary>  (15) 
energy

$$$$
15:0
     RDKit          3D

 46 48  0  0  0  0  0  0  0  0999 V2000
   -5.6720   25.5020  -30.1510 C   0  0  0  0  0  0  0  0  0  0  0  0
   -4.9900   24.6470  -31.1350 N   0  0  0  0  0  0  0  0  0  0  0  0
   -5.9900   23.8670  -31.8830 C   0  0  0  0  0  0  0  0  0  0  0  0
   -4.0200   23.7600  -30.4550 C   0  0  0  0  0  0  0  0  0  0  0  0
   -4.1660   22.3030  -30.9190 C   0  0  0  0  0  0  0  0  0  0  0  0
   -3.3020   22.0020  -32.1480 C   0  0  0  0  0  0  0  0  0  0  0  0
   -4.1250   21.4680  -33.2310 N   0  0  0  0  0  0  0  0  0  0  0  0
   -4.5440   20.0910  -33.2440 C   0  0  0  0  0  0  0  0  0  0  0  0
   -3.6590   19.0850  -33.6750 C   0  0  0  0  0  0  0  0  0  0  0  0
   -2.3500   19.4050  -34.0970 C   0  0  0  0  0  0  0  0  0  0  0  0
   -1.4990   18.4200  -34.5910 C   0  0  0  0  0  0  0  0  0  0  0  0
   -1.9390   17.1060  -34.6860 C   0  0  0  0  0  0  0  0  0  0  0  0
   -3.2210   16.7620  -34.2600 C   0  0  0  0  0  0  0  0  0  0  0  0
   -4.0970   17.7340  -33.7100 C   0  0  0  0  0  0  0  0  0  0  0  0
   -5.3520   17.3960  -33.2380 N   0  0  0  0  0  0  0  0  0  0  0  0
   -5.7000   15.9740  -33.0150 C   0  0  0  0  0  0  0  0  0  0  0  0
   -6.2690   18.3860  -32.9360 C   0  0  0  0  0  0  0  0  0  0  0  0
   -7.6330   18.0900  -32.6840 C   0  0  0  0  0  0  0  0  0  0  0  0
   -8.5280   19.0860  -32.2970 C   0  0  0  0  0  0  0  0  0  0  0  0
   -8.0950   20.4010  -32.1580 C   0  0  0  0  0  0  0  0  0  0  0  0
   -9.3210   21.7550  -31.6010 Br  0  0  0  0  0  0  0  0  0  0  0  0
   -6.7730   20.7310  -32.4480 C   0  0  0  0  0  0  0  0  0  0  0  0
   -5.8590   19.7450  -32.8800 C   0  0  0  0  0  0  0  0  0  0  0  0
   -5.4094   25.1728  -29.1348 H   0  0  0  0  0  0  0  0  0  0  0  0
   -5.3561   26.5463  -30.2912 H   0  0  0  0  0  0  0  0  0  0  0  0
   -6.7604   25.4262  -30.2912 H   0  0  0  0  0  0  0  0  0  0  0  0
   -6.6545   23.3487  -31.1760 H   0  0  0  0  0  0  0  0  0  0  0  0
   -6.5837   24.5430  -32.5159 H   0  0  0  0  0  0  0  0  0  0  0  0
   -5.4789   23.1266  -32.5159 H   0  0  0  0  0  0  0  0  0  0  0  0
   -3.0005   24.1062  -30.6804 H   0  0  0  0  0  0  0  0  0  0  0  0
   -4.2173   23.7986  -29.3735 H   0  0  0  0  0  0  0  0  0  0  0  0
   -3.8607   21.6369  -30.0986 H   0  0  0  0  0  0  0  0  0  0  0  0
   -5.2180   22.1384  -31.1950 H   0  0  0  0  0  0  0  0  0  0  0  0
   -2.8162   22.9294  -32.4854 H   0  0  0  0  0  0  0  0  0  0  0  0
   -2.5422   21.2547  -31.8756 H   0  0  0  0  0  0  0  0  0  0  0  0
   -4.6230   22.1470  -33.8490 H   0  0  0  0  0  0  0  0  0  0  0  0
   -1.9983   20.4454  -34.0347 H   0  0  0  0  0  0  0  0  0  0  0  0
   -0.4783   18.6824  -34.9060 H   0  0  0  0  0  0  0  0  0  0  0  0
   -1.2733   16.3338  -35.0990 H   0  0  0  0  0  0  0  0  0  0  0  0
   -3.5595   15.7194  -34.3517 H   0  0  0  0  0  0  0  0  0  0  0  0
   -5.7490   15.7736  -31.9345 H   0  0  0  0  0  0  0  0  0  0  0  0
   -6.6771   15.7596  -33.4724 H   0  0  0  0  0  0  0  0  0  0  0  0
   -4.9323   15.3326  -33.4724 H   0  0  0  0  0  0  0  0  0  0  0  0
   -7.9910   17.0559  -32.7960 H   0  0  0  0  0  0  0  0  0  0  0  0
   -9.5800   18.8316  -32.1008 H   0  0  0  0  0  0  0  0  0  0  0  0
   -6.4369   21.7727  -32.3391 H   0  0  0  0  0  0  0  0  0  0  0  0
  1  2  1  0
  2  3  1  0
  2  4  1  0
  4  5  1  0
  5  6  1  0
  6  7  1  0
  7  8  1  0
  8  9  2  0
  9 10  1  0
 10 11  2  0
 11 12  1  0
 12 13  2  0
 13 14  1  0
 14 15  2  0
 15 16  1  0
 15 17  1  0
 17 18  2  0
 18 19  1  0
 19 20  2  0
 20 21  1  0
 20 22  1  0
 22 23  2  0
 23  8  1  0
 14  9  1  0
 23 17  1  0
  1 24  1  0
  1 25  1  0
  1 26  1  0
  3 27  1  0
  3 28  1  0
  3 29  1  0
  4 30  1  0
  4 31  1  0
  5 32  1  0
  5 33  1  0
  6 34  1  0
  6 35  1  0
  7 36  1  0
 10 37  1  0
 11 38  1  0
 12 39  1  0
 13 40  1  0
 16 41  1  0
 16 42  1  0
 16 43  1  0
 18 44  1  0
 19 45  1  0
 22 46  1  0
M  CHG  1  15   1
M  END
>  <UniqueID>  (16) 
16

>  <SMILES>  (16) 
CN(C)CCCNc1c2ccccc2[n+](C)c2ccc(Br)cc12

>  <Energy>  (16) 
70.42969923256574

>  <Genealogy>  (16) 
CN(C)CCCNc1c2ccccc2[n+](C)c2ccc(Br)cc12 (3D coordinates assigned)
CN(C)CCCNc1c2ccccc2[n+](C)c2ccc(Br)cc12 (optimized conformer: 70.42969923256574 kcal/mol)

>  <smiles>  (16) 
CN(C)CCCNc1c2ccccc2[n+](C)c2ccc(Br)cc12

>  <score_type>  (16) 
oracle

>  <origin>  (16) 
adg

>  <m_score__min__energy>  (16) 
-8.4399999999999995

>  <m_primary>  (16) 
energy

$$$$
16:0
     RDKit          3D

 36 37  0  0  0  0  0  0  0  0999 V2000
   -4.2210   24.9110  -26.3460 C   0  0  0  0  0  0  0  0  0  0  0  0
   -2.7220   25.1910  -26.5210 C   0  0  0  0  0  0  0  0  0  0  0  0
   -2.2520   25.0920  -27.9230 N   0  0  0  0  0  0  0  0  0  0  0  0
   -1.1190   25.9950  -28.1920 C   0  0  0  0  0  0  0  0  0  0  0  0
   -1.9720   23.6960  -28.3290 C   0  0  0  0  0  0  0  0  0  0  0  0
   -2.6030   23.3700  -29.6890 C   0  0  0  0  0  0  0  0  0  0  0  0
   -4.1000   22.3430  -29.4970 S   0  0  0  0  0  0  0  0  0  0  0  0
   -5.2180   23.7140  -29.8030 C   0  0  0  0  0  0  0  0  0  0  0  0
   -5.0590   24.9410  -29.2820 N   0  0  0  0  0  0  0  0  0  0  0  0
   -6.1370   25.6310  -29.6230 N   0  0  0  0  0  0  0  0  0  0  0  0
   -6.9440   24.8570  -30.3340 N   0  0  0  0  0  0  0  0  0  0  0  0
   -6.3910   23.6600  -30.4670 N   0  0  0  0  0  0  0  0  0  0  0  0
   -7.0090   22.5490  -31.1360 C   0  0  0  0  0  0  0  0  0  0  0  0
   -6.3080   21.7990  -32.0950 C   0  0  0  0  0  0  0  0  0  0  0  0
   -6.9270   20.7260  -32.7430 C   0  0  0  0  0  0  0  0  0  0  0  0
   -8.2530   20.3990  -32.4460 C   0  0  0  0  0  0  0  0  0  0  0  0
   -8.9640   21.1520  -31.5080 C   0  0  0  0  0  0  0  0  0  0  0  0
   -8.3480   22.2260  -30.8600 C   0  0  0  0  0  0  0  0  0  0  0  0
   -4.4628   24.8658  -25.2739 H   0  0  0  0  0  0  0  0  0  0  0  0
   -4.8021   25.7161  -26.8194 H   0  0  0  0  0  0  0  0  0  0  0  0
   -4.4723   23.9504  -26.8194 H   0  0  0  0  0  0  0  0  0  0  0  0
   -2.5150   26.2083  -26.1574 H   0  0  0  0  0  0  0  0  0  0  0  0
   -2.1845   24.4204  -25.9490 H   0  0  0  0  0  0  0  0  0  0  0  0
   -0.6890   26.3377  -27.2393 H   0  0  0  0  0  0  0  0  0  0  0  0
   -0.3513   25.4583  -28.7688 H   0  0  0  0  0  0  0  0  0  0  0  0
   -1.4709   26.8631  -28.7688 H   0  0  0  0  0  0  0  0  0  0  0  0
   -0.8832   23.5548  -28.3968 H   0  0  0  0  0  0  0  0  0  0  0  0
   -2.4074   23.0230  -27.5757 H   0  0  0  0  0  0  0  0  0  0  0  0
   -2.8752   24.3096  -30.1921 H   0  0  0  0  0  0  0  0  0  0  0  0
   -1.8701   22.8071  -30.2856 H   0  0  0  0  0  0  0  0  0  0  0  0
   -4.2730   25.2950  -28.6950 H   0  0  0  0  0  0  0  0  0  0  0  0
   -5.2666   22.0574  -32.3373 H   0  0  0  0  0  0  0  0  0  0  0  0
   -6.3698   20.1384  -33.4875 H   0  0  0  0  0  0  0  0  0  0  0  0
   -8.7366   19.5494  -32.9503 H   0  0  0  0  0  0  0  0  0  0  0  0
  -10.0098   20.8991  -31.2794 H   0  0  0  0  0  0  0  0  0  0  0  0
   -8.9149   22.8219  -30.1296 H   0  0  0  0  0  0  0  0  0  0  0  0
  1  2  1  0
  2  3  1  0
  3  4  1  0
  3  5  1  0
  5  6  1  0
  6  7  1  0
  7  8  1  0
  8  9  2  0
  9 10  1  0
 10 11  2  0
 11 12  1  0
 12 13  1  0
 13 14  2  0
 14 15  1  0
 15 16  2  0
 16 17  1  0
 17 18  2  0
 12  8  1  0
 18 13  1  0
  1 19  1  0
  1 20  1  0
  1 21  1  0
  2 22  1  0
  2 23  1  0
  4 24  1  0
  4 25  1  0
  4 26  1  0
  5 27  1  0
  5 28  1  0
  6 29  1  0
  6 30  1  0
  9 31  1  0
 14 32  1  0
 15 33  1  0
 16 34  1  0
 17 35  1  0
 18 36  1  0
M  CHG  1   9   1
M  END
>  <UniqueID>  (17) 
17

>  <SMILES>  (17) 
CCN(C)CCSc1[nH+]nnn1-c1ccccc1

>  <Energy>  (17) 
79.57483892292272

>  <Genealogy>  (17) 
CCN(C)CCSc1[nH+]nnn1-c1ccccc1 (protonated)
CCN(C)CCSc1[nH+]nnn1-c1ccccc1 (3D coordinates assigned)
CCN(C)CCSc1[nH+]nnn1-c1ccccc1 (optimized conformer: 79.57483892292272 kcal/mol)

>  <smiles>  (17) 
CCN(C)CCSc1nnnn1-c1ccccc1

>  <score_type>  (17) 
oracle

>  <origin>  (17) 
adg

>  <m_score__min__energy>  (17) 
-6.8700000000000001

>  <m_primary>  (17) 
energy

$$$$
17:0
     RDKit          3D

 70 72  0  0  0  0  0  0  0  0999 V2000
    0.2410   21.4370  -35.5210 C   0  0  0  0  0  0  0  0  0  0  0  0
   -0.2590   21.3340  -34.0730 C   0  0  0  0  0  0  0  0  0  0  0  0
    0.2210   20.1260  -33.3600 N   0  0  0  0  0  0  0  0  0  0  0  0
    1.6470   19.8580  -33.6270 C   0  0  0  0  0  0  0  0  0  0  0  0
   -0.0980   20.1480  -31.9130 C   0  0  0  0  0  0  0  0  0  0  0  0
   -1.3320   19.2790  -31.6070 C   0  0  0  0  0  0  0  0  0  0  0  0
   -2.2090   19.1310  -32.7830 N   0  0  0  0  0  0  0  0  0  0  0  0
   -3.5810   19.4990  -32.4630 C   0  0  0  0  0  0  0  0  0  0  0  0
   -3.8640   20.8190  -32.0050 C   0  0  0  0  0  0  0  0  0  0  0  0
   -2.8300   21.7420  -31.7070 C   0  0  0  0  0  0  0  0  0  0  0  0
   -3.1130   23.0450  -31.3130 C   0  0  0  0  0  0  0  0  0  0  0  0
   -4.4250   23.4850  -31.2140 C   0  0  0  0  0  0  0  0  0  0  0  0
   -4.6510   24.8200  -30.8440 O   0  0  0  0  0  0  0  0  0  0  0  0
   -5.7850   25.2780  -30.1160 C   0  0  0  0  0  0  0  0  0  0  0  0
   -5.4690   22.5880  -31.4860 C   0  0  0  0  0  0  0  0  0  0  0  0
   -5.2120   21.2380  -31.8460 C   0  0  0  0  0  0  0  0  0  0  0  0
   -6.2440   20.3550  -32.0780 N   0  0  0  0  0  0  0  0  0  0  0  0
   -7.6200   20.6950  -31.6470 C   0  0  0  0  0  0  0  0  0  0  0  0
   -5.9970   19.1370  -32.6750 C   0  0  0  0  0  0  0  0  0  0  0  0
   -7.0510   18.3880  -33.2480 C   0  0  0  0  0  0  0  0  0  0  0  0
   -6.8310   17.1340  -33.7950 C   0  0  0  0  0  0  0  0  0  0  0  0
   -5.5670   16.5450  -33.7250 C   0  0  0  0  0  0  0  0  0  0  0  0
   -5.3180   15.2730  -34.2660 O   0  0  0  0  0  0  0  0  0  0  0  0
   -6.2320   14.1830  -34.2350 C   0  0  0  0  0  0  0  0  0  0  0  0
   -4.5080   17.2470  -33.1190 C   0  0  0  0  0  0  0  0  0  0  0  0
   -3.3110   16.5610  -32.8750 O   0  0  0  0  0  0  0  0  0  0  0  0
   -2.6260   15.8000  -33.8750 C   0  0  0  0  0  0  0  0  0  0  0  0
   -2.1500   16.7230  -34.9950 C   0  0  0  0  0  0  0  0  0  0  0  0
   -0.9810   17.5130  -34.5550 N   0  0  0  0  0  0  0  0  0  0  0  0
   -0.1320   17.8680  -35.7050 C   0  0  0  0  0  0  0  0  0  0  0  0
   -0.1830   16.7620  -33.5690 C   0  0  0  0  0  0  0  0  0  0  0  0
   -4.6720   18.6200  -32.7480 C   0  0  0  0  0  0  0  0  0  0  0  0
    1.3184   21.6589  -35.5220 H   0  0  0  0  0  0  0  0  0  0  0  0
    0.0626   20.4833  -36.0392 H   0  0  0  0  0  0  0  0  0  0  0  0
   -0.2998   22.2426  -36.0392 H   0  0  0  0  0  0  0  0  0  0  0  0
    0.0860   22.2218  -33.5227 H   0  0  0  0  0  0  0  0  0  0  0  0
   -1.3561   21.2664  -34.1164 H   0  0  0  0  0  0  0  0  0  0  0  0
    2.1859   19.7567  -32.6734 H   0  0  0  0  0  0  0  0  0  0  0  0
    1.7433   18.9260  -34.2033 H   0  0  0  0  0  0  0  0  0  0  0  0
    2.0751   20.6914  -34.2033 H   0  0  0  0  0  0  0  0  0  0  0  0
    0.7634   19.7611  -31.3488 H   0  0  0  0  0  0  0  0  0  0  0  0
   -0.3174   21.1848  -31.6181 H   0  0  0  0  0  0  0  0  0  0  0  0
   -0.9940   18.2819  -31.2884 H   0  0  0  0  0  0  0  0  0  0  0  0
   -1.9091   19.7760  -30.8133 H   0  0  0  0  0  0  0  0  0  0  0  0
   -1.8670   19.7150  -33.5750 H   0  0  0  0  0  0  0  0  0  0  0  0
   -2.1470   18.1680  -33.1770 H   0  0  0  0  0  0  0  0  0  0  0  0
   -1.7813   21.4204  -31.7893 H   0  0  0  0  0  0  0  0  0  0  0  0
   -2.2884   23.7339  -31.0774 H   0  0  0  0  0  0  0  0  0  0  0  0
   -5.5853   25.1973  -29.0373 H   0  0  0  0  0  0  0  0  0  0  0  0
   -5.9867   26.3281  -30.3740 H   0  0  0  0  0  0  0  0  0  0  0  0
   -6.6594   24.6625  -30.3740 H   0  0  0  0  0  0  0  0  0  0  0  0
   -6.5097   22.9379  -31.4190 H   0  0  0  0  0  0  0  0  0  0  0  0
   -7.6677   20.7068  -30.5481 H   0  0  0  0  0  0  0  0  0  0  0  0
   -7.8916   21.6873  -32.0364 H   0  0  0  0  0  0  0  0  0  0  0  0
   -8.3225   19.9434  -32.0364 H   0  0  0  0  0  0  0  0  0  0  0  0
   -8.0668   18.8098  -33.2597 H   0  0  0  0  0  0  0  0  0  0  0  0
   -7.6569   16.5995  -34.2872 H   0  0  0  0  0  0  0  0  0  0  0  0
   -6.4530   13.9194  -33.1902 H   0  0  0  0  0  0  0  0  0  0  0  0
   -7.1630   14.4705  -34.7454 H   0  0  0  0  0  0  0  0  0  0  0  0
   -5.7866   13.3164  -34.7454 H   0  0  0  0  0  0  0  0  0  0  0  0
   -1.7580   15.2992  -33.4214 H   0  0  0  0  0  0  0  0  0  0  0  0
   -3.3127   15.0486  -34.2920 H   0  0  0  0  0  0  0  0  0  0  0  0
   -1.8687   16.1165  -35.8685 H   0  0  0  0  0  0  0  0  0  0  0  0
   -2.9659   17.4124  -35.2579 H   0  0  0  0  0  0  0  0  0  0  0  0
    0.8264   18.2688  -35.3433 H   0  0  0  0  0  0  0  0  0  0  0  0
    0.0523   16.9716  -36.3153 H   0  0  0  0  0  0  0  0  0  0  0  0
   -0.6407   18.6288  -36.3153 H   0  0  0  0  0  0  0  0  0  0  0  0
   -0.4897   17.0506  -32.5528 H   0  0  0  0  0  0  0  0  0  0  0  0
   -0.3475   15.6834  -33.7092 H   0  0  0  0  0  0  0  0  0  0  0  0
    0.8836   16.9915  -33.7092 H   0  0  0  0  0  0  0  0  0  0  0  0
  1  2  1  0
  2  3  1  0
  3  4  1  0
  3  5  1  0
  5  6  1  0
  6  7  1  0
  7  8  1  0
  8  9  2  0
  9 10  1  0
 10 11  2  0
 11 12  1  0
 12 13  1  0
 13 14  1  0
 12 15  2  0
 15 16  1  0
 16 17  2  0
 17 18  1  0
 17 19  1  0
 19 20  2  0
 20 21  1  0
 21 22  2  0
 22 23  1  0
 23 24  1  0
 22 25  1  0
 25 26  1  0
 26 27  1  0
 27 28  1  0
 28 29  1  0
 29 30  1  0
 29 31  1  0
 25 32  2  0
 32  8  1  0
 16  9  1  0
 32 19  1  0
  1 33  1  0
  1 34  1  0
  1 35  1  0
  2 36  1  0
  2 37  1  0
  4 38  1  0
  4 39  1  0
  4 40  1  0
  5 41  1  0
  5 42  1  0
  6 43  1  0
  6 44  1  0
  7 45  1  0
  7 46  1  0
 10 47  1  0
 11 48  1  0
 14 49  1  0
 14 50  1  0
 14 51  1  0
 15 52  1  0
 18 53  1  0
 18 54  1  0
 18 55  1  0
 20 56  1  0
 21 57  1  0
 24 58  1  0
 24 59  1  0
 24 60  1  0
 27 61  1  0
 27 62  1  0
 28 63  1  0
 28 64  1  0
 30 65  1  0
 30 66  1  0
 30 67  1  0
 31 68  1  0
 31 69  1  0
 31 70  1  0
M  CHG  2   7   1  17   1
M  END
>  <UniqueID>  (18) 
18

>  <SMILES>  (18) 
CCN(C)CC[NH2+]c1c2ccc(OC)cc2[n+](C)c2ccc(OC)c(OCCN(C)C)c12

>  <Energy>  (18) 
110.93571368689659

>  <Genealogy>  (18) 
CCN(C)CC[NH2+]c1c2ccc(OC)cc2[n+](C)c2ccc(OC)c(OCCN(C)C)c12 (protonated)
CCN(C)CC[NH2+]c1c2ccc(OC)cc2[n+](C)c2ccc(OC)c(OCCN(C)C)c12 (3D coordinates assigned)
CCN(C)CC[NH2+]c1c2ccc(OC)cc2[n+](C)c2ccc(OC)c(OCCN(C)C)c12 (optimized conformer: 110.93571368689659 kcal/mol)

>  <smiles>  (18) 
CCN(C)CCNc1c2ccc(OC)cc2[n+](C)c2ccc(OC)c(OCCN(C)C)c12

>  <score_type>  (18) 
oracle

>  <origin>  (18) 
adg

>  <m_score__min__energy>  (18) 
-5.3899999999999997

>  <m_primary>  (18) 
energy

$$$$
18:0
     RDKit          3D

 55 58  0  0  0  0  0  0  0  0999 V2000
   -2.3940   17.3950  -33.5500 C   0  0  0  0  0  0  0  0  0  0  0  0
   -1.1850   18.0780  -33.2400 O   0  0  0  0  0  0  0  0  0  0  0  0
   -0.6740   19.1650  -33.9680 C   0  0  0  0  0  0  0  0  0  0  0  0
   -0.1310   19.0100  -35.2590 C   0  0  0  0  0  0  0  0  0  0  0  0
    0.3940   20.1110  -35.9400 C   0  0  0  0  0  0  0  0  0  0  0  0
    0.3840   21.3730  -35.3460 C   0  0  0  0  0  0  0  0  0  0  0  0
   -0.1550   21.5410  -34.0690 C   0  0  0  0  0  0  0  0  0  0  0  0
   -0.6950   20.4450  -33.3770 C   0  0  0  0  0  0  0  0  0  0  0  0
   -1.2490   20.6270  -32.0650 N   0  0  0  0  0  0  0  0  0  0  0  0
   -0.3650   20.8190  -30.9090 C   0  0  0  0  0  0  0  0  0  0  0  0
   -0.8680   21.9650  -30.0050 C   0  0  0  0  0  0  0  0  0  0  0  0
   -2.2920   22.3120  -30.2420 N   0  0  0  0  0  0  0  0  0  0  0  0
   -2.8290   23.0400  -29.1080 C   0  0  0  0  0  0  0  0  0  0  0  0
   -3.1580   22.4390  -28.0920 O   0  0  0  0  0  0  0  0  0  0  0  0
   -2.9690   24.5390  -29.1750 C   0  0  0  0  0  0  0  0  0  0  0  0
   -3.4880   24.9560  -30.4750 N   0  0  0  0  0  0  0  0  0  0  0  0
   -4.8790   25.0430  -30.8080 C   0  0  0  0  0  0  0  0  0  0  0  0
   -5.4260   26.1760  -30.8370 O   0  0  0  0  0  0  0  0  0  0  0  0
   -5.6970   23.8460  -31.0830 C   0  0  0  0  0  0  0  0  0  0  0  0
   -6.8730   23.5960  -30.3530 C   0  0  0  0  0  0  0  0  0  0  0  0
   -7.6400   22.4560  -30.6160 C   0  0  0  0  0  0  0  0  0  0  0  0
   -7.2310   21.5550  -31.6010 C   0  0  0  0  0  0  0  0  0  0  0  0
   -6.0360   21.7710  -32.2980 C   0  0  0  0  0  0  0  0  0  0  0  0
   -5.2740   22.9160  -32.0470 C   0  0  0  0  0  0  0  0  0  0  0  0
   -5.6190   20.8280  -33.2430 O   0  0  0  0  0  0  0  0  0  0  0  0
   -6.2310   19.5370  -33.3160 C   0  0  0  0  0  0  0  0  0  0  0  0
   -7.7420   19.6500  -33.0750 C   0  0  0  0  0  0  0  0  0  0  0  0
   -8.0000   20.4260  -31.9030 O   0  0  0  0  0  0  0  0  0  0  0  0
   -3.1100   21.1150  -30.5170 C   0  0  0  0  0  0  0  0  0  0  0  0
   -2.6950   20.4900  -31.8570 C   0  0  0  0  0  0  0  0  0  0  0  0
   -2.9023   17.1078  -32.6177 H   0  0  0  0  0  0  0  0  0  0  0  0
   -3.0490   18.0565  -34.1360 H   0  0  0  0  0  0  0  0  0  0  0  0
   -2.1654   16.4926  -34.1360 H   0  0  0  0  0  0  0  0  0  0  0  0
   -0.1204   18.0173  -35.7328 H   0  0  0  0  0  0  0  0  0  0  0  0
    0.8164   19.9823  -36.9475 H   0  0  0  0  0  0  0  0  0  0  0  0
    0.8012   22.2369  -35.8842 H   0  0  0  0  0  0  0  0  0  0  0  0
   -0.1566   22.5372  -33.6026 H   0  0  0  0  0  0  0  0  0  0  0  0
   -0.3327   19.8882  -30.3237 H   0  0  0  0  0  0  0  0  0  0  0  0
    0.6378   21.0809  -31.2774 H   0  0  0  0  0  0  0  0  0  0  0  0
   -0.7525   21.6588  -28.9548 H   0  0  0  0  0  0  0  0  0  0  0  0
   -0.2694   22.8568  -30.2425 H   0  0  0  0  0  0  0  0  0  0  0  0
   -2.3350   22.9370  -31.0830 H   0  0  0  0  0  0  0  0  0  0  0  0
   -3.6610   24.8717  -28.3873 H   0  0  0  0  0  0  0  0  0  0  0  0
   -1.9768   24.9916  -29.0309 H   0  0  0  0  0  0  0  0  0  0  0  0
   -7.1914   24.3009  -29.5709 H   0  0  0  0  0  0  0  0  0  0  0  0
   -8.5634   22.2699  -30.0479 H   0  0  0  0  0  0  0  0  0  0  0  0
   -4.3420   23.0888  -32.6051 H   0  0  0  0  0  0  0  0  0  0  0  0
   -6.0536   19.1071  -34.3129 H   0  0  0  0  0  0  0  0  0  0  0  0
   -5.7927   18.8888  -32.5429 H   0  0  0  0  0  0  0  0  0  0  0  0
   -8.2127   20.1354  -33.9427 H   0  0  0  0  0  0  0  0  0  0  0  0
   -8.1588   18.6416  -32.9357 H   0  0  0  0  0  0  0  0  0  0  0  0
   -2.9626   20.3805  -29.7116 H   0  0  0  0  0  0  0  0  0  0  0  0
   -4.1695   21.4063  -30.5679 H   0  0  0  0  0  0  0  0  0  0  0  0
   -2.9605   19.4225  -31.8556 H   0  0  0  0  0  0  0  0  0  0  0  0
   -3.2212   21.0120  -32.6698 H   0  0  0  0  0  0  0  0  0  0  0  0
  1  2  1  0
  2  3  1  0
  3  4  2  0
  4  5  1  0
  5  6  2  0
  6  7  1  0
  7  8  2  0
  8  9  1  0
  9 10  1  0
 10 11  1  0
 11 12  1  0
 12 13  1  0
 13 14  2  0
 13 15  1  0
 15 16  1  0
 16 17  1  0
 17 18  2  0
 17 19  1  0
 19 20  2  0
 20 21  1  0
 21 22  2  0
 22 23  1  0
 23 24  2  0
 23 25  1  0
 25 26  1  0
 26 27  1  0
 27 28  1  0
 12 29  1  0
 29 30  1  0
  8  3  1  0
 30  9  1  0
 24 19  1  0
 28 22  1  0
  1 31  1  0
  1 32  1  0
  1 33  1  0
  4 34  1  0
  5 35  1  0
  6 36  1  0
  7 37  1  0
 10 38  1  0
 10 39  1  0
 11 40  1  0
 11 41  1  0
 12 42  1  0
 15 43  1  0
 15 44  1  0
 20 45  1  0
 21 46  1  0
 24 47  1  0
 26 48  1  0
 26 49  1  0
 27 50  1  0
 27 51  1  0
 29 52  1  0
 29 53  1  0
 30 54  1  0
 30 55  1  0
M  CHG  2  12   1  16  -1
M  END
>  <UniqueID>  (19) 
19

>  <SMILES>  (19) 
COc1ccccc1N1CC[NH+](C(=O)C[N-]C(=O)c2ccc3c(c2)OCCO3)CC1

>  <Energy>  (19) 
72.77655810418476

>  <Genealogy>  (19) 
COc1ccccc1N1CC[NH+](C(=O)C[N-]C(=O)c2ccc3c(c2)OCCO3)CC1 (protonated)
COc1ccccc1N1CC[NH+](C(=O)C[N-]C(=O)c2ccc3c(c2)OCCO3)CC1 (3D coordinates assigned)
COc1ccccc1N1CC[NH+](C(=O)C[N-]C(=O)c2ccc3c(c2)OCCO3)CC1 (nonaromatic ring conformer: 72.77655810418476 kcal/mol)

>  <smiles>  (19) 
COc1ccccc1N1CCN(C(=O)CNC(=O)c2ccc3c(c2)OCCO3)CC1

>  <score_type>  (19) 
oracle

>  <origin>  (19) 
adg

>  <m_score__min__energy>  (19) 
-9.8000000000000007

>  <m_primary>  (19) 
energy

$$$$
19:0
     RDKit          3D

 53 56  0  0  0  0  0  0  0  0999 V2000
   -6.3460   25.2710  -29.7690 C   0  0  0  0  0  0  0  0  0  0  0  0
   -5.2380   25.2330  -30.8300 C   0  0  0  0  0  0  0  0  0  0  0  0
   -4.2460   24.1530  -30.6260 N   0  0  0  0  0  0  0  0  0  0  0  0
   -3.1710   24.5430  -29.6980 C   0  0  0  0  0  0  0  0  0  0  0  0
   -4.8670   22.8620  -30.2530 C   0  0  0  0  0  0  0  0  0  0  0  0
   -4.0980   21.6720  -30.8510 C   0  0  0  0  0  0  0  0  0  0  0  0
   -3.3280   21.9970  -32.1520 C   0  0  0  0  0  0  0  0  0  0  0  0
   -4.0860   21.7110  -33.3900 N   0  0  0  0  0  0  0  0  0  0  0  0
   -4.6730   20.3840  -33.3940 C   0  0  0  0  0  0  0  0  0  0  0  0
   -3.9040   19.2360  -33.7960 C   0  0  0  0  0  0  0  0  0  0  0  0
   -2.5380   19.3310  -34.1800 C   0  0  0  0  0  0  0  0  0  0  0  0
   -1.8160   18.2140  -34.5880 C   0  0  0  0  0  0  0  0  0  0  0  0
   -2.4180   16.9690  -34.6250 C   0  0  0  0  0  0  0  0  0  0  0  0
   -3.7420   16.8250  -34.2320 C   0  0  0  0  0  0  0  0  0  0  0  0
   -4.5080   17.9350  -33.7900 C   0  0  0  0  0  0  0  0  0  0  0  0
   -5.8060   17.7680  -33.3600 N   0  0  0  0  0  0  0  0  0  0  0  0
   -6.4030   16.4180  -33.2740 C   0  0  0  0  0  0  0  0  0  0  0  0
   -6.5450   18.8680  -33.0250 C   0  0  0  0  0  0  0  0  0  0  0  0
   -8.1700   18.8530  -32.5690 S   0  0  0  0  0  0  0  0  0  0  0  0
   -8.2860   20.4980  -32.3650 C   0  0  0  0  0  0  0  0  0  0  0  0
   -9.4330   21.1860  -31.9760 C   0  0  0  0  0  0  0  0  0  0  0  0
   -9.3700   22.5730  -31.8560 C   0  0  0  0  0  0  0  0  0  0  0  0
   -8.1720   23.2430  -32.1260 C   0  0  0  0  0  0  0  0  0  0  0  0
   -7.0240   22.5350  -32.5200 C   0  0  0  0  0  0  0  0  0  0  0  0
   -7.0660   21.1240  -32.6460 C   0  0  0  0  0  0  0  0  0  0  0  0
   -6.0420   20.1800  -33.0300 C   0  0  0  0  0  0  0  0  0  0  0  0
   -5.8941   25.2555  -28.7662 H   0  0  0  0  0  0  0  0  0  0  0  0
   -6.9383   26.1900  -29.8901 H   0  0  0  0  0  0  0  0  0  0  0  0
   -6.9999   24.3948  -29.8901 H   0  0  0  0  0  0  0  0  0  0  0  0
   -5.7068   25.0906  -31.8148 H   0  0  0  0  0  0  0  0  0  0  0  0
   -4.6922   26.1850  -30.7545 H   0  0  0  0  0  0  0  0  0  0  0  0
   -3.5177   24.4172  -28.6617 H   0  0  0  0  0  0  0  0  0  0  0  0
   -2.2899   23.9072  -29.8696 H   0  0  0  0  0  0  0  0  0  0  0  0
   -2.9025   25.5958  -29.8696 H   0  0  0  0  0  0  0  0  0  0  0  0
   -4.8704   22.7707  -29.1568 H   0  0  0  0  0  0  0  0  0  0  0  0
   -5.8923   22.8449  -30.6510 H   0  0  0  0  0  0  0  0  0  0  0  0
   -3.3740   21.3190  -30.1019 H   0  0  0  0  0  0  0  0  0  0  0  0
   -4.8495   20.9126  -31.1127 H   0  0  0  0  0  0  0  0  0  0  0  0
   -3.0713   23.0666  -32.1434 H   0  0  0  0  0  0  0  0  0  0  0  0
   -2.4406   21.3472  -32.1661 H   0  0  0  0  0  0  0  0  0  0  0  0
   -4.8500   22.4010  -33.5370 H   0  0  0  0  0  0  0  0  0  0  0  0
   -3.4920   21.9200  -34.2150 H   0  0  0  0  0  0  0  0  0  0  0  0
   -2.0402   20.3115  -34.1538 H   0  0  0  0  0  0  0  0  0  0  0  0
   -0.7616   18.3213  -34.8825 H   0  0  0  0  0  0  0  0  0  0  0  0
   -1.8474   16.0925  -34.9660 H   0  0  0  0  0  0  0  0  0  0  0  0
   -4.2073   15.8288  -34.2640 H   0  0  0  0  0  0  0  0  0  0  0  0
   -6.5266   16.1384  -32.2173 H   0  0  0  0  0  0  0  0  0  0  0  0
   -7.3847   16.4189  -33.7703 H   0  0  0  0  0  0  0  0  0  0  0  0
   -5.7418   15.6924  -33.7703 H   0  0  0  0  0  0  0  0  0  0  0  0
  -10.3685   20.6461  -31.7680 H   0  0  0  0  0  0  0  0  0  0  0  0
  -10.2612   23.1403  -31.5494 H   0  0  0  0  0  0  0  0  0  0  0  0
   -8.1281   24.3378  -32.0286 H   0  0  0  0  0  0  0  0  0  0  0  0
   -6.0905   23.0772  -32.7311 H   0  0  0  0  0  0  0  0  0  0  0  0
  1  2  1  0
  2  3  1  0
  3  4  1  0
  3  5  1  0
  5  6  1  0
  6  7  1  0
  7  8  1  0
  8  9  1  0
  9 10  2  0
 10 11  1  0
 11 12  2  0
 12 13  1  0
 13 14  2  0
 14 15  1  0
 15 16  2  0
 16 17  1  0
 16 18  1  0
 18 19  1  0
 19 20  1  0
 20 21  2  0
 21 22  1  0
 22 23  2  0
 23 24  1  0
 24 25  2  0
 25 26  1  0
 26  9  1  0
 15 10  1  0
 26 18  2  0
 25 20  1  0
  1 27  1  0
  1 28  1  0
  1 29  1  0
  2 30  1  0
  2 31  1  0
  4 32  1  0
  4 33  1  0
  4 34  1  0
  5 35  1  0
  5 36  1  0
  6 37  1  0
  6 38  1  0
  7 39  1  0
  7 40  1  0
  8 41  1  0
  8 42  1  0
 11 43  1  0
 12 44  1  0
 13 45  1  0
 14 46  1  0
 17 47  1  0
 17 48  1  0
 17 49  1  0
 21 50  1  0
 22 51  1  0
 23 52  1  0
 24 53  1  0
M  CHG  2   8   1  16   1
M  END
>  <UniqueID>  (20) 
20

>  <SMILES>  (20) 
CCN(C)CCC[NH2+]c1c2ccccc2[n+](C)c2sc3ccccc3c12

>  <Energy>  (20) 
119.63257795634443

>  <Genealogy>  (20) 
CCN(C)CCC[NH2+]c1c2ccccc2[n+](C)c2sc3ccccc3c12 (protonated)
CCN(C)CCC[NH2+]c1c2ccccc2[n+](C)c2sc3ccccc3c12 (3D coordinates assigned)
CCN(C)CCC[NH2+]c1c2ccccc2[n+](C)c2sc3ccccc3c12 (optimized conformer: 119.63257795634443 kcal/mol)

>  <smiles>  (20) 
CCN(C)CCCNc1c2ccccc2[n+](C)c2sc3ccccc3c12

>  <score_type>  (20) 
oracle

>  <origin>  (20) 
adg

>  <m_score__min__energy>  (20) 
-8.8100000000000005

>  <m_primary>  (20) 
energy

$$$$
20:0
     RDKit          3D

 41 44  0  0  0  0  0  0  0  0999 V2000
   -3.1790   21.9570  -29.6070 C   0  0  0  0  0  0  0  0  0  0  0  0
   -2.8080   23.2370  -30.3580 C   0  0  0  0  0  0  0  0  0  0  0  0
   -3.3190   24.4400  -29.6630 N   0  0  0  0  0  0  0  0  0  0  0  0
   -2.3530   24.9090  -28.6500 C   0  0  0  0  0  0  0  0  0  0  0  0
   -4.6310   24.1580  -29.0310 C   0  0  0  0  0  0  0  0  0  0  0  0
   -5.7720   24.9150  -29.7350 C   0  0  0  0  0  0  0  0  0  0  0  0
   -5.7140   24.8040  -31.2640 C   0  0  0  0  0  0  0  0  0  0  0  0
   -6.0380   23.4520  -31.7010 N   0  0  0  0  0  0  0  0  0  0  0  0
   -7.1320   22.6360  -31.6100 C   0  0  0  0  0  0  0  0  0  0  0  0
   -8.4310   22.4810  -31.1790 C   0  0  0  0  0  0  0  0  0  0  0  0
   -9.1380   21.2510  -31.3690 C   0  0  0  0  0  0  0  0  0  0  0  0
   -8.7340   19.9990  -31.9710 C   0  0  0  0  0  0  0  0  0  0  0  0
   -7.4920   19.6040  -32.5700 C   0  0  0  0  0  0  0  0  0  0  0  0
   -7.2670   18.3100  -33.0970 C   0  0  0  0  0  0  0  0  0  0  0  0
   -6.0070   17.9630  -33.6640 C   0  0  0  0  0  0  0  0  0  0  0  0
   -4.9420   18.8960  -33.7190 C   0  0  0  0  0  0  0  0  0  0  0  0
   -5.1650   20.1720  -33.2040 C   0  0  0  0  0  0  0  0  0  0  0  0
   -4.0940   21.5690  -33.0680 S   0  0  0  0  0  0  0  0  0  0  0  0
   -5.3450   22.4360  -32.3210 C   0  0  0  0  0  0  0  0  0  0  0  0
   -6.4040   21.6830  -32.2380 C   0  0  0  0  0  0  0  0  0  0  0  0
   -6.4170   20.4580  -32.6720 C   0  0  0  0  0  0  0  0  0  0  0  0
   -3.1262   22.1392  -28.5235 H   0  0  0  0  0  0  0  0  0  0  0  0
   -4.2014   21.6557  -29.8787 H   0  0  0  0  0  0  0  0  0  0  0  0
   -2.4762   21.1556  -29.8787 H   0  0  0  0  0  0  0  0  0  0  0  0
   -1.7125   23.3042  -30.4306 H   0  0  0  0  0  0  0  0  0  0  0  0
   -3.2644   23.1956  -31.3580 H   0  0  0  0  0  0  0  0  0  0  0  0
   -2.7533   24.7147  -27.6440 H   0  0  0  0  0  0  0  0  0  0  0  0
   -1.4007   24.3729  -28.7756 H   0  0  0  0  0  0  0  0  0  0  0  0
   -2.1852   25.9889  -28.7756 H   0  0  0  0  0  0  0  0  0  0  0  0
   -4.8303   23.0777  -29.0883 H   0  0  0  0  0  0  0  0  0  0  0  0
   -4.5887   24.4940  -27.9844 H   0  0  0  0  0  0  0  0  0  0  0  0
   -6.7314   24.5019  -29.3901 H   0  0  0  0  0  0  0  0  0  0  0  0
   -5.6663   25.9796  -29.4791 H   0  0  0  0  0  0  0  0  0  0  0  0
   -6.4366   25.5072  -31.7036 H   0  0  0  0  0  0  0  0  0  0  0  0
   -4.6929   25.0446  -31.5949 H   0  0  0  0  0  0  0  0  0  0  0  0
   -8.9358   23.3203  -30.6782 H   0  0  0  0  0  0  0  0  0  0  0  0
  -10.1708   21.2591  -30.9905 H   0  0  0  0  0  0  0  0  0  0  0  0
   -9.5096   19.2190  -31.9690 H   0  0  0  0  0  0  0  0  0  0  0  0
   -8.0744   17.5635  -33.0685 H   0  0  0  0  0  0  0  0  0  0  0  0
   -5.8579   16.9505  -34.0672 H   0  0  0  0  0  0  0  0  0  0  0  0
   -3.9697   18.6220  -34.1544 H   0  0  0  0  0  0  0  0  0  0  0  0
  1  2  1  0
  2  3  1  0
  3  4  1  0
  3  5  1  0
  5  6  1  0
  6  7  1  0
  7  8  1  0
  8  9  1  0
  9 10  2  0
 10 11  1  0
 11 12  2  0
 12 13  1  0
 13 14  1  0
 14 15  2  0
 15 16  1  0
 16 17  2  0
 17 18  1  0
 18 19  1  0
 19 20  2  0
 20 21  1  0
 19  8  1  0
 20  9  1  0
 21 13  2  0
 21 17  1  0
  1 22  1  0
  1 23  1  0
  1 24  1  0
  2 25  1  0
  2 26  1  0
  4 27  1  0
  4 28  1  0
  4 29  1  0
  5 30  1  0
  5 31  1  0
  6 32  1  0
  6 33  1  0
  7 34  1  0
  7 35  1  0
 10 36  1  0
 11 37  1  0
 12 38  1  0
 14 39  1  0
 15 40  1  0
 16 41  1  0
M  END
>  <UniqueID>  (21) 
21

>  <SMILES>  (21) 
CCN(C)CCCn1c2cccc3cccc4sc1c-2c34

>  <Energy>  (21) 
151.00860593404065

>  <Genealogy>  (21) 
CCN(C)CCCn1c2cccc3cccc4sc1c-2c34 (3D coordinates assigned)
CCN(C)CCCn1c2cccc3cccc4sc1c-2c34 (optimized conformer: 151.00860593404065 kcal/mol)

>  <smiles>  (21) 
CCN(C)CCCn1c2cccc3cccc4sc1c-2c34

>  <score_type>  (21) 
oracle

>  <origin>  (21) 
adg

>  <m_score__min__energy>  (21) 
-8.2699999999999996

>  <m_primary>  (21) 
energy

$$$$
21:0
     RDKit          3D

 38 40  0  0  0  0  0  0  0  0999 V2000
   -8.6450   19.0830  -31.7570 C   0  0  0  0  0  0  0  0  0  0  0  0
   -7.6400   18.9640  -32.7090 C   0  0  0  0  0  0  0  0  0  0  0  0
   -7.0410   20.5000  -33.0420 S   0  0  0  0  0  0  0  0  0  0  0  0
   -8.0640   21.3240  -31.9900 C   0  0  0  0  0  0  0  0  0  0  0  0
   -8.0280   22.8020  -31.7240 C   0  0  0  0  0  0  0  0  0  0  0  0
   -6.9630   23.4700  -32.4890 N   0  0  0  0  0  0  0  0  0  0  0  0
   -5.7540   23.5980  -31.7100 C   0  0  0  0  0  0  0  0  0  0  0  0
   -4.9790   22.4700  -31.4000 C   0  0  0  0  0  0  0  0  0  0  0  0
   -3.8340   22.6000  -30.6150 C   0  0  0  0  0  0  0  0  0  0  0  0
   -3.4580   23.8660  -30.1320 C   0  0  0  0  0  0  0  0  0  0  0  0
   -2.2800   24.0410  -29.3130 N   0  0  0  0  0  0  0  0  0  0  0  0
   -1.3750   22.9110  -29.0740 C   0  0  0  0  0  0  0  0  0  0  0  0
    0.0720   23.4160  -28.9580 C   0  0  0  0  0  0  0  0  0  0  0  0
    0.2490   24.5360  -28.0070 N   0  0  0  0  0  0  0  0  0  0  0  0
   -1.0010   25.1090  -27.4860 C   0  0  0  0  0  0  0  0  0  0  0  0
   -2.0470   25.3000  -28.5910 C   0  0  0  0  0  0  0  0  0  0  0  0
   -4.2330   24.9450  -30.4420 N   0  0  0  0  0  0  0  0  0  0  0  0
   -5.3520   24.8440  -31.2060 C   0  0  0  0  0  0  0  0  0  0  0  0
   -8.8800   20.4020  -31.3490 C   0  0  0  0  0  0  0  0  0  0  0  0
   -9.2036   18.2221  -31.3610 H   0  0  0  0  0  0  0  0  0  0  0  0
   -7.2949   18.0252  -33.1669 H   0  0  0  0  0  0  0  0  0  0  0  0
   -8.9971   23.2384  -32.0075 H   0  0  0  0  0  0  0  0  0  0  0  0
   -7.8247   22.9515  -30.6533 H   0  0  0  0  0  0  0  0  0  0  0  0
   -6.7580   22.9020  -33.3440 H   0  0  0  0  0  0  0  0  0  0  0  0
   -7.2920   24.4100  -32.8150 H   0  0  0  0  0  0  0  0  0  0  0  0
   -5.2757   21.4803  -31.7774 H   0  0  0  0  0  0  0  0  0  0  0  0
   -3.2267   21.7150  -30.3743 H   0  0  0  0  0  0  0  0  0  0  0  0
   -1.6611   22.4057  -28.1397 H   0  0  0  0  0  0  0  0  0  0  0  0
   -1.4463   22.2054  -29.9149 H   0  0  0  0  0  0  0  0  0  0  0  0
    0.7040   22.5789  -28.6267 H   0  0  0  0  0  0  0  0  0  0  0  0
    0.3547   23.7964  -29.9507 H   0  0  0  0  0  0  0  0  0  0  0  0
    0.7840   25.2990  -28.4860 H   0  0  0  0  0  0  0  0  0  0  0  0
   -1.4108   24.4325  -26.7216 H   0  0  0  0  0  0  0  0  0  0  0  0
   -0.7714   26.0967  -27.0596 H   0  0  0  0  0  0  0  0  0  0  0  0
   -2.9917   25.6366  -28.1390 H   0  0  0  0  0  0  0  0  0  0  0  0
   -1.6742   26.0509  -29.3032 H   0  0  0  0  0  0  0  0  0  0  0  0
   -5.9451   25.7428  -31.4303 H   0  0  0  0  0  0  0  0  0  0  0  0
   -9.6340   20.6790  -30.5975 H   0  0  0  0  0  0  0  0  0  0  0  0
  1  2  2  0
  2  3  1  0
  3  4  1  0
  4  5  1  0
  5  6  1  0
  6  7  1  0
  7  8  2  0
  8  9  1  0
  9 10  2  0
 10 11  1  0
 11 12  1  0
 12 13  1  0
 13 14  1  0
 14 15  1  0
 15 16  1  0
 10 17  1  0
 17 18  2  0
  4 19  2  0
 19  1  1  0
 18  7  1  0
 16 11  1  0
  1 20  1  0
  2 21  1  0
  5 22  1  0
  5 23  1  0
  6 24  1  0
  6 25  1  0
  8 26  1  0
  9 27  1  0
 12 28  1  0
 12 29  1  0
 13 30  1  0
 13 31  1  0
 14 32  1  0
 15 33  1  0
 15 34  1  0
 16 35  1  0
 16 36  1  0
 18 37  1  0
 19 38  1  0
M  CHG  1   6   1
M  END
>  <UniqueID>  (22) 
22

>  <SMILES>  (22) 
c1csc(C[NH2+]c2ccc(N3CCNCC3)nc2)c1

>  <Energy>  (22) 
71.46977962945115

>  <Genealogy>  (22) 
c1csc(C[NH2+]c2ccc(N3CCNCC3)nc2)c1 (protonated)
c1csc(C[NH2+]c2ccc(N3CCNCC3)nc2)c1 (3D coordinates assigned)
c1csc(C[NH2+]c2ccc(N3CCNCC3)nc2)c1 (nonaromatic ring conformer: 71.46977962945115 kcal/mol)

>  <smiles>  (22) 
c1csc(CNc2ccc(N3CCNCC3)nc2)c1

>  <score_type>  (22) 
oracle

>  <origin>  (22) 
adg

>  <m_score__min__energy>  (22) 
-6.6600000000000001

>  <m_primary>  (22) 
energy

$$$$
22:0
     RDKit          3D

 54 56  0  0  0  0  0  0  0  0999 V2000
   -6.4490   24.7530  -29.7550 C   0  0  0  0  0  0  0  0  0  0  0  0
   -5.5060   25.6920  -30.4980 C   0  0  0  0  0  0  0  0  0  0  0  0
   -4.3250   25.0010  -30.9040 O   0  0  0  0  0  0  0  0  0  0  0  0
   -3.9230   23.7730  -30.3620 C   0  0  0  0  0  0  0  0  0  0  0  0
   -3.3930   23.7300  -29.2170 O   0  0  0  0  0  0  0  0  0  0  0  0
   -4.1150   22.5280  -31.1390 C   0  0  0  0  0  0  0  0  0  0  0  0
   -5.2660   22.3390  -31.9200 C   0  0  0  0  0  0  0  0  0  0  0  0
   -5.4400   21.1640  -32.6570 C   0  0  0  0  0  0  0  0  0  0  0  0
   -4.4630   20.1530  -32.6350 C   0  0  0  0  0  0  0  0  0  0  0  0
   -4.6320   18.9440  -33.4100 N   0  0  0  0  0  0  0  0  0  0  0  0
   -4.0220   17.6490  -33.1740 C   0  0  2  0  0  0  0  0  0  0  0  0
   -3.8340   17.0970  -34.5930 C   0  0  0  0  0  0  0  0  0  0  0  0
   -4.9250   17.7900  -35.4170 C   0  0  0  0  0  0  0  0  0  0  0  0
   -5.6530   18.6890  -34.4070 C   0  0  1  0  0  0  0  0  0  0  0  0
   -6.8180   17.9170  -33.7190 C   0  0  0  0  0  0  0  0  0  0  0  0
   -6.4370   17.2900  -32.4100 N   0  0  2  0  0  0  0  0  0  0  0  0
   -6.7200   18.1880  -31.2460 C   0  0  0  0  0  0  0  0  0  0  0  0
   -8.1750   18.6990  -31.2290 C   0  0  0  0  0  0  0  0  0  0  0  0
   -8.2900   20.0160  -31.8910 N   0  0  0  0  0  0  0  0  0  0  0  0
   -8.3520   21.0910  -30.8880 C   0  0  0  0  0  0  0  0  0  0  0  0
   -9.4860   20.0740  -32.7480 C   0  0  0  0  0  0  0  0  0  0  0  0
   -5.0320   16.7730  -32.3740 C   0  0  0  0  0  0  0  0  0  0  0  0
   -3.3170   20.3420  -31.8420 C   0  0  0  0  0  0  0  0  0  0  0  0
   -3.1430   21.5170  -31.1070 C   0  0  0  0  0  0  0  0  0  0  0  0
   -6.3176   24.8838  -28.6707 H   0  0  0  0  0  0  0  0  0  0  0  0
   -7.4887   24.9852  -30.0290 H   0  0  0  0  0  0  0  0  0  0  0  0
   -6.2213   23.7123  -30.0290 H   0  0  0  0  0  0  0  0  0  0  0  0
   -6.0172   26.0877  -31.3880 H   0  0  0  0  0  0  0  0  0  0  0  0
   -5.2218   26.5143  -29.8249 H   0  0  0  0  0  0  0  0  0  0  0  0
   -6.0377   23.1223  -31.9523 H   0  0  0  0  0  0  0  0  0  0  0  0
   -6.3500   21.0290  -33.2600 H   0  0  0  0  0  0  0  0  0  0  0  0
   -3.0819   17.6783  -32.6036 H   0  0  0  0  0  0  0  0  0  0  0  0
   -2.8352   17.3480  -34.9795 H   0  0  0  0  0  0  0  0  0  0  0  0
   -3.9117   16.0004  -34.6309 H   0  0  0  0  0  0  0  0  0  0  0  0
   -4.4806   18.3913  -36.2238 H   0  0  0  0  0  0  0  0  0  0  0  0
   -5.6019   17.0727  -35.9041 H   0  0  0  0  0  0  0  0  0  0  0  0
   -6.0805   19.5878  -34.8754 H   0  0  0  0  0  0  0  0  0  0  0  0
   -7.6431   18.6219  -33.5392 H   0  0  0  0  0  0  0  0  0  0  0  0
   -7.1047   17.0986  -34.3957 H   0  0  0  0  0  0  0  0  0  0  0  0
   -7.0590   16.4500  -32.3200 H   0  0  0  0  0  0  0  0  0  0  0  0
   -6.5321   17.6298  -30.3170 H   0  0  0  0  0  0  0  0  0  0  0  0
   -6.0609   19.0643  -31.3342 H   0  0  0  0  0  0  0  0  0  0  0  0
   -8.8148   17.9760  -31.7561 H   0  0  0  0  0  0  0  0  0  0  0  0
   -8.4922   18.8083  -30.1814 H   0  0  0  0  0  0  0  0  0  0  0  0
   -8.3267   20.6532  -29.8792 H   0  0  0  0  0  0  0  0  0  0  0  0
   -7.4911   21.7634  -31.0175 H   0  0  0  0  0  0  0  0  0  0  0  0
   -9.2845   21.6600  -31.0175 H   0  0  0  0  0  0  0  0  0  0  0  0
  -10.3867   20.1177  -32.1181 H   0  0  0  0  0  0  0  0  0  0  0  0
   -9.4389   20.9709  -33.3831 H   0  0  0  0  0  0  0  0  0  0  0  0
   -9.5259   19.1767  -33.3831 H   0  0  0  0  0  0  0  0  0  0  0  0
   -4.7030   16.7339  -31.3251 H   0  0  0  0  0  0  0  0  0  0  0  0
   -5.0423   15.7803  -32.8477 H   0  0  0  0  0  0  0  0  0  0  0  0
   -2.5490   19.5556  -31.8001 H   0  0  0  0  0  0  0  0  0  0  0  0
   -2.2366   21.6506  -30.4983 H   0  0  0  0  0  0  0  0  0  0  0  0
  1  2  1  0
  2  3  1  0
  3  4  1  0
  4  5  2  0
  4  6  1  0
  6  7  2  0
  7  8  1  0
  8  9  2  0
  9 10  1  0
 10 11  1  0
 11 12  1  0
 12 13  1  0
 13 14  1  0
 14 15  1  0
 15 16  1  0
 16 17  1  0
 17 18  1  0
 18 19  1  0
 19 20  1  0
 19 21  1  0
 16 22  1  0
  9 23  1  0
 23 24  2  0
 24  6  1  0
 14 10  1  0
 22 11  1  0
  1 25  1  0
  1 26  1  0
  1 27  1  0
  2 28  1  0
  2 29  1  0
  7 30  1  0
  8 31  1  0
 11 32  1  1
 12 33  1  0
 12 34  1  0
 13 35  1  0
 13 36  1  0
 14 37  1  6
 15 38  1  0
 15 39  1  0
 16 40  1  1
 17 41  1  0
 17 42  1  0
 18 43  1  0
 18 44  1  0
 20 45  1  0
 20 46  1  0
 20 47  1  0
 21 48  1  0
 21 49  1  0
 21 50  1  0
 22 51  1  0
 22 52  1  0
 23 53  1  0
 24 54  1  0
M  CHG  1  16   1
M  END
>  <UniqueID>  (23) 
23

>  <SMILES>  (23) 
CCOC(=O)c1ccc(N2[C@@H]3CC[C@H]2C[NH+](CCN(C)C)C3)cc1

>  <Energy>  (23) 
85.92842637029442

>  <Genealogy>  (23) 
CCOC(=O)c1ccc(N2C3CCC2C[NH+](CCN(C)C)C3)cc1 (protonated)
CCOC(=O)c1ccc(N2[C@@H]3CC[C@H]2C[NH+](CCN(C)C)C3)cc1 (chirality)
CCOC(=O)c1ccc(N2[C@@H]3CC[C@H]2C[NH+](CCN(C)C)C3)cc1 (3D coordinates assigned)
CCOC(=O)c1ccc(N2[C@@H]3CC[C@H]2C[NH+](CCN(C)C)C3)cc1 (nonaromatic ring conformer: 85.92842637029442 kcal/mol)

>  <smiles>  (23) 
CCOC(=O)c1ccc(N2C3CCC2CN(CCN(C)C)C3)cc1

>  <score_type>  (23) 
oracle

>  <origin>  (23) 
adg

>  <m_score__min__energy>  (23) 
-7.5599999999999996

>  <m_primary>  (23) 
energy

$$$$
23:0
     RDKit          3D

 59 61  0  0  0  0  0  0  0  0999 V2000
   -3.5750   23.8050  -28.6210 C   0  0  0  0  0  0  0  0  0  0  0  0
   -3.8480   24.8130  -29.7340 C   0  0  0  0  0  0  0  0  0  0  0  0
   -4.6110   24.1960  -30.8410 N   0  0  0  0  0  0  0  0  0  0  0  0
   -5.9570   24.7800  -31.0470 C   0  0  0  0  0  0  0  0  0  0  0  0
   -6.4830   25.3310  -29.7270 C   0  0  0  0  0  0  0  0  0  0  0  0
   -4.5910   22.7140  -30.8280 C   0  0  0  0  0  0  0  0  0  0  0  0
   -3.7980   22.0450  -31.9790 C   0  0  0  0  0  0  0  0  0  0  0  0
   -4.5970   21.8820  -33.2010 N   0  0  0  0  0  0  0  0  0  0  0  0
   -5.4880   20.7520  -33.0630 C   0  0  0  0  0  0  0  0  0  0  0  0
   -5.1640   19.4180  -33.4220 C   0  0  0  0  0  0  0  0  0  0  0  0
   -3.8710   18.8790  -33.9070 C   0  0  0  0  0  0  0  0  0  0  0  0
   -2.8740   19.6380  -34.0580 O   0  0  0  0  0  0  0  0  0  0  0  0
   -3.7140   17.4720  -34.1480 N   0  0  0  0  0  0  0  0  0  0  0  0
   -4.5780   16.7720  -35.1020 C   0  0  0  0  0  0  0  0  0  0  0  0
   -5.0160   15.4000  -34.5400 C   0  0  0  0  0  0  0  0  0  0  0  0
   -4.0920   14.8420  -33.5180 N   0  0  0  0  0  0  0  0  0  0  0  0
   -4.5680   15.0970  -32.1370 C   0  0  0  0  0  0  0  0  0  0  0  0
   -4.5850   13.8190  -31.2970 C   0  0  0  0  0  0  0  0  0  0  0  0
   -2.6910   15.2630  -33.7510 C   0  0  0  0  0  0  0  0  0  0  0  0
   -2.5240   16.7870  -33.6390 C   0  0  0  0  0  0  0  0  0  0  0  0
   -6.5280   18.4400  -33.1720 S   0  0  0  0  0  0  0  0  0  0  0  0
   -7.5200   19.6800  -32.6510 C   0  0  0  0  0  0  0  0  0  0  0  0
   -8.8240   19.5780  -32.2940 N   0  0  0  0  0  0  0  0  0  0  0  0
   -9.5010   20.6950  -31.9070 C   0  0  0  0  0  0  0  0  0  0  0  0
   -8.8580   21.9470  -31.8870 C   0  0  0  0  0  0  0  0  0  0  0  0
   -7.5110   22.0460  -32.2670 C   0  0  0  0  0  0  0  0  0  0  0  0
   -6.8330   20.8810  -32.6470 C   0  0  0  0  0  0  0  0  0  0  0  0
   -3.7071   24.2928  -27.6440 H   0  0  0  0  0  0  0  0  0  0  0  0
   -4.2775   22.9630  -28.7084 H   0  0  0  0  0  0  0  0  0  0  0  0
   -2.5436   23.4326  -28.7084 H   0  0  0  0  0  0  0  0  0  0  0  0
   -4.4279   25.6525  -29.3231 H   0  0  0  0  0  0  0  0  0  0  0  0
   -2.8835   25.1638  -30.1297 H   0  0  0  0  0  0  0  0  0  0  0  0
   -5.8939   25.5939  -31.7842 H   0  0  0  0  0  0  0  0  0  0  0  0
   -6.6405   24.0011  -31.4159 H   0  0  0  0  0  0  0  0  0  0  0  0
   -5.9893   24.8138  -28.8911 H   0  0  0  0  0  0  0  0  0  0  0  0
   -6.2700   26.4086  -29.6686 H   0  0  0  0  0  0  0  0  0  0  0  0
   -7.5693   25.1683  -29.6686 H   0  0  0  0  0  0  0  0  0  0  0  0
   -4.1445   22.3899  -29.8764 H   0  0  0  0  0  0  0  0  0  0  0  0
   -5.6364   22.3978  -30.9593 H   0  0  0  0  0  0  0  0  0  0  0  0
   -2.9227   22.6692  -32.2120 H   0  0  0  0  0  0  0  0  0  0  0  0
   -3.5042   21.0410  -31.6390 H   0  0  0  0  0  0  0  0  0  0  0  0
   -5.1440   22.7460  -33.3990 H   0  0  0  0  0  0  0  0  0  0  0  0
   -3.9690   21.7330  -34.0220 H   0  0  0  0  0  0  0  0  0  0  0  0
   -5.4711   17.3841  -35.2964 H   0  0  0  0  0  0  0  0  0  0  0  0
   -4.0161   16.6089  -36.0335 H   0  0  0  0  0  0  0  0  0  0  0  0
   -6.0095   15.5151  -34.0820 H   0  0  0  0  0  0  0  0  0  0  0  0
   -5.0180   14.6960  -35.3852 H   0  0  0  0  0  0  0  0  0  0  0  0
   -3.8994   15.8282  -31.6593 H   0  0  0  0  0  0  0  0  0  0  0  0
   -5.5970   15.4814  -32.1955 H   0  0  0  0  0  0  0  0  0  0  0  0
   -4.5815   14.0822  -30.2289 H   0  0  0  0  0  0  0  0  0  0  0  0
   -5.4909   13.2398  -31.5290 H   0  0  0  0  0  0  0  0  0  0  0  0
   -3.6948   13.2159  -31.5290 H   0  0  0  0  0  0  0  0  0  0  0  0
   -2.0452   14.7787  -33.0038 H   0  0  0  0  0  0  0  0  0  0  0  0
   -2.4104   14.9635  -34.7716 H   0  0  0  0  0  0  0  0  0  0  0  0
   -2.3739   17.0581  -32.5836 H   0  0  0  0  0  0  0  0  0  0  0  0
   -1.6534   17.0944  -34.2370 H   0  0  0  0  0  0  0  0  0  0  0  0
  -10.5569   20.6181  -31.6082 H   0  0  0  0  0  0  0  0  0  0  0  0
   -9.4102   22.8455  -31.5742 H   0  0  0  0  0  0  0  0  0  0  0  0
   -6.9979   23.0190  -32.2665 H   0  0  0  0  0  0  0  0  0  0  0  0
  1  2  1  0
  2  3  1  0
  3  4  1  0
  4  5  1  0
  3  6  1  0
  6  7  1  0
  7  8  1  0
  8  9  1  0
  9 10  2  0
 10 11  1  0
 11 12  2  0
 11 13  1  0
 13 14  1  0
 14 15  1  0
 15 16  1  0
 16 17  1  0
 17 18  1  0
 16 19  1  0
 19 20  1  0
 10 21  1  0
 21 22  1  0
 22 23  2  0
 23 24  1  0
 24 25  2  0
 25 26  1  0
 26 27  2  0
 27  9  1  0
 20 13  1  0
 27 22  1  0
  1 28  1  0
  1 29  1  0
  1 30  1  0
  2 31  1  0
  2 32  1  0
  4 33  1  0
  4 34  1  0
  5 35  1  0
  5 36  1  0
  5 37  1  0
  6 38  1  0
  6 39  1  0
  7 40  1  0
  7 41  1  0
  8 42  1  0
  8 43  1  0
 14 44  1  0
 14 45  1  0
 15 46  1  0
 15 47  1  0
 17 48  1  0
 17 49  1  0
 18 50  1  0
 18 51  1  0
 18 52  1  0
 19 53  1  0
 19 54  1  0
 20 55  1  0
 20 56  1  0
 24 57  1  0
 25 58  1  0
 26 59  1  0
M  CHG  1   8   1
M  END
>  <UniqueID>  (24) 
24

>  <SMILES>  (24) 
CCN(CC)CC[NH2+]c1c(C(=O)N2CCN(CC)CC2)sc2ncccc12

>  <Energy>  (24) 
107.49308324083502

>  <Genealogy>  (24) 
CCN(CC)CC[NH2+]c1c(C(=O)N2CCN(CC)CC2)sc2ncccc12 (protonated)
CCN(CC)CC[NH2+]c1c(C(=O)N2CCN(CC)CC2)sc2ncccc12 (3D coordinates assigned)
CCN(CC)CC[NH2+]c1c(C(=O)N2CCN(CC)CC2)sc2ncccc12 (nonaromatic ring conformer: 107.49308324083502 kcal/mol)

>  <smiles>  (24) 
CCN(CC)CCNc1c(C(=O)N2CCN(CC)CC2)sc2ncccc12

>  <score_type>  (24) 
oracle

>  <origin>  (24) 
adg

>  <m_score__min__energy>  (24) 
-8.0999999999999996

>  <m_primary>  (24) 
energy

$$$$
24:0
     RDKit          3D

 46 47  0  0  0  0  0  0  0  0999 V2000
   -6.5130   24.0740  -30.8190 C   0  0  0  0  0  0  0  0  0  0  0  0
   -7.3010   23.4280  -31.9550 C   0  0  0  0  0  0  0  0  0  0  0  0
   -6.8690   22.0370  -32.1690 N   0  0  0  0  0  0  0  0  0  0  0  0
   -7.8820   20.9870  -32.3130 C   0  0  0  0  0  0  0  0  0  0  0  0
   -5.4680   21.6770  -32.1650 C   0  0  0  0  0  0  0  0  0  0  0  0
   -4.9660   20.7580  -31.2270 C   0  0  0  0  0  0  0  0  0  0  0  0
   -3.6120   20.4260  -31.2400 C   0  0  0  0  0  0  0  0  0  0  0  0
   -2.7530   21.0160  -32.1750 C   0  0  0  0  0  0  0  0  0  0  0  0
   -1.3010   20.6340  -32.2300 C   0  0  0  0  0  0  0  0  0  0  0  0
   -0.6940   20.8320  -30.9080 N   0  0  0  0  0  0  0  0  0  0  0  0
   -0.7330   22.2400  -30.4810 C   0  0  0  0  0  0  0  0  0  0  0  0
   -0.8080   22.3920  -28.9530 C   0  0  0  0  0  0  0  0  0  0  0  0
   -2.2010   22.5740  -28.5280 N   0  0  0  0  0  0  0  0  0  0  0  0
   -3.0410   23.6020  -28.7870 C   0  0  0  0  0  0  0  0  0  0  0  0
   -2.7330   24.7840  -29.5460 N   0  0  0  0  0  0  0  0  0  0  0  0
   -1.6720   25.4020  -29.3250 O   0  0  0  0  0  0  0  0  0  0  0  0
   -3.6100   25.2930  -30.4730 O   0  0  0  0  0  0  0  0  0  0  0  0
   -4.2610   23.3360  -28.2070 C   0  0  0  0  0  0  0  0  0  0  0  0
   -4.2090   22.1370  -27.5960 N   0  0  0  0  0  0  0  0  0  0  0  0
   -2.9510   21.6980  -27.8170 C   0  0  0  0  0  0  0  0  0  0  0  0
   -2.4530   20.3870  -27.2920 C   0  0  0  0  0  0  0  0  0  0  0  0
   -3.2880   21.9170  -33.1040 C   0  0  0  0  0  0  0  0  0  0  0  0
   -4.6120   22.2310  -33.0770 N   0  0  0  0  0  0  0  0  0  0  0  0
   -6.9207   23.7398  -29.8536 H   0  0  0  0  0  0  0  0  0  0  0  0
   -5.4557   23.7794  -30.8923 H   0  0  0  0  0  0  0  0  0  0  0  0
   -6.5946   25.1685  -30.8923 H   0  0  0  0  0  0  0  0  0  0  0  0
   -8.3714   23.4378  -31.7019 H   0  0  0  0  0  0  0  0  0  0  0  0
   -7.1192   23.9985  -32.8778 H   0  0  0  0  0  0  0  0  0  0  0  0
   -8.2061   20.6511  -31.3169 H   0  0  0  0  0  0  0  0  0  0  0  0
   -8.7464   21.3846  -32.8651 H   0  0  0  0  0  0  0  0  0  0  0  0
   -7.4536   20.1375  -32.8651 H   0  0  0  0  0  0  0  0  0  0  0  0
   -5.6390   20.3026  -30.4856 H   0  0  0  0  0  0  0  0  0  0  0  0
   -3.2179   19.6992  -30.5144 H   0  0  0  0  0  0  0  0  0  0  0  0
   -1.2104   19.5770  -32.5208 H   0  0  0  0  0  0  0  0  0  0  0  0
   -0.7836   21.2626  -32.9696 H   0  0  0  0  0  0  0  0  0  0  0  0
   -1.2020   20.2430  -30.2050 H   0  0  0  0  0  0  0  0  0  0  0  0
    0.1768   22.7427  -30.8409 H   0  0  0  0  0  0  0  0  0  0  0  0
   -1.6412   22.6922  -30.9060 H   0  0  0  0  0  0  0  0  0  0  0  0
   -0.3985   21.4884  -28.4777 H   0  0  0  0  0  0  0  0  0  0  0  0
   -0.2234   23.2737  -28.6515 H   0  0  0  0  0  0  0  0  0  0  0  0
   -5.1390   23.9979  -28.2378 H   0  0  0  0  0  0  0  0  0  0  0  0
   -2.4602   20.4059  -26.1922 H   0  0  0  0  0  0  0  0  0  0  0  0
   -3.1061   19.5771  -27.6491 H   0  0  0  0  0  0  0  0  0  0  0  0
   -1.4269   20.2150  -27.6491 H   0  0  0  0  0  0  0  0  0  0  0  0
   -2.6336   22.3741  -33.8608 H   0  0  0  0  0  0  0  0  0  0  0  0
   -4.9700   22.9000  -33.7940 H   0  0  0  0  0  0  0  0  0  0  0  0
  1  2  1  0
  2  3  1  0
  3  4  1  0
  3  5  1  0
  5  6  2  0
  6  7  1  0
  7  8  2  0
  8  9  1  0
  9 10  1  0
 10 11  1  0
 11 12  1  0
 12 13  1  0
 13 14  1  0
 14 15  1  0
 15 16  2  0
 15 17  1  0
 14 18  2  0
 18 19  1  0
 19 20  2  0
 20 21  1  0
  8 22  1  0
 22 23  2  0
 23  5  1  0
 20 13  1  0
  1 24  1  0
  1 25  1  0
  1 26  1  0
  2 27  1  0
  2 28  1  0
  4 29  1  0
  4 30  1  0
  4 31  1  0
  6 32  1  0
  7 33  1  0
  9 34  1  0
  9 35  1  0
 10 36  1  0
 11 37  1  0
 11 38  1  0
 12 39  1  0
 12 40  1  0
 18 41  1  0
 21 42  1  0
 21 43  1  0
 21 44  1  0
 22 45  1  0
 23 46  1  0
M  CHG  3  15   1  17  -1  23   1
M  END
>  <UniqueID>  (25) 
25

>  <SMILES>  (25) 
CCN(C)c1ccc(CNCCn2c([N+](=O)[O-])cnc2C)c[nH+]1

>  <Energy>  (25) 
73.61037967026232

>  <Genealogy>  (25) 
CCN(C)c1ccc(CNCCn2c([N+](=O)[O-])cnc2C)c[nH+]1 (protonated)
CCN(C)c1ccc(CNCCn2c([N+](=O)[O-])cnc2C)c[nH+]1 (3D coordinates assigned)
CCN(C)c1ccc(CNCCn2c([N+](=O)[O-])cnc2C)c[nH+]1 (optimized conformer: 73.61037967026232 kcal/mol)

>  <smiles>  (25) 
CCN(C)c1ccc(CNCCn2c([N+](=O)[O-])cnc2C)cn1

>  <score_type>  (25) 
oracle

>  <origin>  (25) 
adg

>  <m_score__min__energy>  (25) 
-7.3399999999999999

>  <m_primary>  (25) 
energy

$$$$
25:0
     RDKit          3D

 46 47  0  0  0  0  0  0  0  0999 V2000
   -9.5300   21.7320  -31.6000 C   0  0  0  0  0  0  0  0  0  0  0  0
   -8.3230   20.8360  -31.8650 C   0  0  0  0  0  0  0  0  0  0  0  0
   -7.1200   21.6600  -32.1320 N   0  0  0  0  0  0  0  0  0  0  0  0
   -5.8790   20.8730  -31.9510 C   0  0  0  0  0  0  0  0  0  0  0  0
   -5.5190   20.1490  -33.2450 C   0  0  0  0  0  0  0  0  0  0  0  0
   -7.1090   22.8780  -31.2890 C   0  0  0  0  0  0  0  0  0  0  0  0
   -6.3080   23.9860  -31.9670 C   0  0  0  0  0  0  0  0  0  0  0  0
   -4.9190   23.7670  -31.7550 O   0  0  0  0  0  0  0  0  0  0  0  0
   -4.2570   24.3740  -30.7080 N   0  0  0  0  0  0  0  0  0  0  0  0
   -3.2790   23.8000  -30.0680 C   0  0  0  0  0  0  0  0  0  0  0  0
   -2.6440   22.5710  -30.6100 C   0  0  0  0  0  0  0  0  0  0  0  0
   -1.9690   21.6780  -29.7600 C   0  0  0  0  0  0  0  0  0  0  0  0
   -1.4000   20.5090  -30.2750 C   0  0  0  0  0  0  0  0  0  0  0  0
   -1.4910   20.2260  -31.6420 C   0  0  0  0  0  0  0  0  0  0  0  0
   -0.7140   18.6290  -32.3430 Br  0  0  0  0  0  0  0  0  0  0  0  0
   -2.1520   21.1140  -32.4940 C   0  0  0  0  0  0  0  0  0  0  0  0
   -2.7270   22.2810  -31.9830 C   0  0  0  0  0  0  0  0  0  0  0  0
   -2.7900   24.4090  -28.8020 C   0  0  0  0  0  0  0  0  0  0  0  0
   -3.5740   24.3690  -27.6330 C   0  0  0  0  0  0  0  0  0  0  0  0
   -3.1120   24.9510  -26.4490 C   0  0  0  0  0  0  0  0  0  0  0  0
   -1.8660   25.5840  -26.4170 C   0  0  0  0  0  0  0  0  0  0  0  0
   -1.2400   26.3800  -24.7990 Br  0  0  0  0  0  0  0  0  0  0  0  0
   -1.0820   25.6370  -27.5720 C   0  0  0  0  0  0  0  0  0  0  0  0
   -1.5400   25.0570  -28.7580 C   0  0  0  0  0  0  0  0  0  0  0  0
   -9.6754   21.8399  -30.5150 H   0  0  0  0  0  0  0  0  0  0  0  0
   -9.3569   22.7221  -32.0470 H   0  0  0  0  0  0  0  0  0  0  0  0
  -10.4276   21.2797  -32.0470 H   0  0  0  0  0  0  0  0  0  0  0  0
   -8.1409   20.2025  -30.9844 H   0  0  0  0  0  0  0  0  0  0  0  0
   -8.5293   20.2082  -32.7443 H   0  0  0  0  0  0  0  0  0  0  0  0
   -5.0574   21.5494  -31.6728 H   0  0  0  0  0  0  0  0  0  0  0  0
   -6.0392   20.1290  -31.1568 H   0  0  0  0  0  0  0  0  0  0  0  0
   -5.0409   19.1875  -33.0064 H   0  0  0  0  0  0  0  0  0  0  0  0
   -6.4325   19.9689  -33.8307 H   0  0  0  0  0  0  0  0  0  0  0  0
   -4.8241   20.7687  -33.8307 H   0  0  0  0  0  0  0  0  0  0  0  0
   -8.1426   23.2208  -31.1337 H   0  0  0  0  0  0  0  0  0  0  0  0
   -6.6411   22.6392  -30.3225 H   0  0  0  0  0  0  0  0  0  0  0  0
   -6.5188   23.9823  -33.0466 H   0  0  0  0  0  0  0  0  0  0  0  0
   -6.5944   24.9584  -31.5398 H   0  0  0  0  0  0  0  0  0  0  0  0
   -1.8880   21.8995  -28.6856 H   0  0  0  0  0  0  0  0  0  0  0  0
   -0.8796   19.8102  -29.6035 H   0  0  0  0  0  0  0  0  0  0  0  0
   -2.2201   20.8943  -33.5697 H   0  0  0  0  0  0  0  0  0  0  0  0
   -3.2471   22.9760  -32.6586 H   0  0  0  0  0  0  0  0  0  0  0  0
   -4.5572   23.8761  -27.6516 H   0  0  0  0  0  0  0  0  0  0  0  0
   -3.7304   24.9108  -25.5402 H   0  0  0  0  0  0  0  0  0  0  0  0
   -0.1021   26.1363  -27.5478 H   0  0  0  0  0  0  0  0  0  0  0  0
   -0.9193   25.1069  -29.6648 H   0  0  0  0  0  0  0  0  0  0  0  0
  1  2  1  0
  2  3  1  0
  3  4  1  0
  4  5  1  0
  3  6  1  0
  6  7  1  0
  7  8  1  0
  8  9  1  0
  9 10  2  3
 10 11  1  0
 11 12  2  0
 12 13  1  0
 13 14  2  0
 14 15  1  0
 14 16  1  0
 16 17  2  0
 10 18  1  0
 18 19  2  0
 19 20  1  0
 20 21  2  0
 21 22  1  0
 21 23  1  0
 23 24  2  0
 17 11  1  0
 24 18  1  0
  1 25  1  0
  1 26  1  0
  1 27  1  0
  2 28  1  0
  2 29  1  0
  4 30  1  0
  4 31  1  0
  5 32  1  0
  5 33  1  0
  5 34  1  0
  6 35  1  0
  6 36  1  0
  7 37  1  0
  7 38  1  0
 12 39  1  0
 13 40  1  0
 16 41  1  0
 17 42  1  0
 19 43  1  0
 20 44  1  0
 23 45  1  0
 24 46  1  0
M  END
>  <UniqueID>  (26) 
26

>  <SMILES>  (26) 
CCN(CC)CCON=C(c1ccc(Br)cc1)c1ccc(Br)cc1

>  <Energy>  (26) 
55.781958809567605

>  <Genealogy>  (26) 
CCN(CC)CCON=C(c1ccc(Br)cc1)c1ccc(Br)cc1 (3D coordinates assigned)
CCN(CC)CCON=C(c1ccc(Br)cc1)c1ccc(Br)cc1 (optimized conformer: 55.781958809567605 kcal/mol)

>  <smiles>  (26) 
CCN(CC)CCON=C(c1ccc(Br)cc1)c1ccc(Br)cc1

>  <score_type>  (26) 
oracle

>  <origin>  (26) 
adg

>  <m_score__min__energy>  (26) 
-8.2699999999999996

>  <m_primary>  (26) 
energy

$$$$
26:0
     RDKit          3D

 54 56  0  0  0  0  0  0  0  0999 V2000
   -4.0930   24.5100  -27.0770 C   0  0  0  0  0  0  0  0  0  0  0  0
   -3.9440   23.2660  -27.9450 C   0  0  0  0  0  0  0  0  0  0  0  0
   -3.4910   23.6350  -29.2940 N   0  0  0  0  0  0  0  0  0  0  0  0
   -2.1300   23.2660  -29.7130 C   0  0  0  0  0  0  0  0  0  0  0  0
   -1.0980   24.1410  -29.0120 C   0  0  0  0  0  0  0  0  0  0  0  0
   -1.5450   25.4770  -29.0070 O   0  0  0  0  0  0  0  0  0  0  0  0
   -1.1070   26.1120  -27.8260 C   0  0  0  0  0  0  0  0  0  0  0  0
   -4.3300   24.4010  -30.1900 C   0  0  0  0  0  0  0  0  0  0  0  0
   -3.8710   25.4460  -30.7280 O   0  0  0  0  0  0  0  0  0  0  0  0
   -5.7580   24.0040  -30.4450 C   0  0  0  0  0  0  0  0  0  0  0  0
   -6.1330   23.8020  -32.2190 S   0  0  0  0  0  0  0  0  0  0  0  0
   -5.2270   22.2650  -32.4060 C   0  0  0  0  0  0  0  0  0  0  0  0
   -3.8800   22.3440  -32.5700 N   0  0  0  0  0  0  0  0  0  0  0  0
   -3.1210   21.2440  -32.7910 C   0  0  0  0  0  0  0  0  0  0  0  0
   -1.7360   21.3590  -32.9570 C   0  0  0  0  0  0  0  0  0  0  0  0
   -0.9660   20.2210  -33.1930 C   0  0  0  0  0  0  0  0  0  0  0  0
   -1.5790   18.9640  -33.2810 C   0  0  0  0  0  0  0  0  0  0  0  0
   -2.9620   18.8420  -33.1140 C   0  0  0  0  0  0  0  0  0  0  0  0
   -3.7390   19.9830  -32.8580 C   0  0  0  0  0  0  0  0  0  0  0  0
   -5.0850   19.8920  -32.6700 N   0  0  0  0  0  0  0  0  0  0  0  0
   -5.8540   20.9980  -32.4330 C   0  0  0  0  0  0  0  0  0  0  0  0
   -7.2700   20.8410  -32.1930 N   0  0  0  0  0  0  0  0  0  0  0  0
   -7.9420   21.7250  -31.2270 C   0  0  0  0  0  0  0  0  0  0  0  0
   -9.3110   21.1490  -30.8430 C   0  0  0  0  0  0  0  0  0  0  0  0
  -10.0310   20.8290  -32.0190 O   0  0  0  0  0  0  0  0  0  0  0  0
   -9.4330   19.7370  -32.7220 C   0  0  0  0  0  0  0  0  0  0  0  0
   -7.9110   19.5600  -32.5180 C   0  0  0  0  0  0  0  0  0  0  0  0
   -4.0586   24.2228  -26.0157 H   0  0  0  0  0  0  0  0  0  0  0  0
   -3.2722   25.2093  -27.2944 H   0  0  0  0  0  0  0  0  0  0  0  0
   -5.0557   24.9957  -27.2944 H   0  0  0  0  0  0  0  0  0  0  0  0
   -3.2066   22.5904  -27.4870 H   0  0  0  0  0  0  0  0  0  0  0  0
   -4.9199   22.7641  -28.0206 H   0  0  0  0  0  0  0  0  0  0  0  0
   -1.9455   22.2125  -29.4557 H   0  0  0  0  0  0  0  0  0  0  0  0
   -2.0409   23.4132  -30.7995 H   0  0  0  0  0  0  0  0  0  0  0  0
   -0.9652   23.7943  -27.9765 H   0  0  0  0  0  0  0  0  0  0  0  0
   -0.1378   24.0762  -29.5448 H   0  0  0  0  0  0  0  0  0  0  0  0
   -1.4862   25.5623  -26.9519 H   0  0  0  0  0  0  0  0  0  0  0  0
   -0.0073   26.1245  -27.8026 H   0  0  0  0  0  0  0  0  0  0  0  0
   -1.4860   27.1444  -27.8026 H   0  0  0  0  0  0  0  0  0  0  0  0
   -5.9535   23.0497  -29.9341 H   0  0  0  0  0  0  0  0  0  0  0  0
   -6.3986   24.8122  -30.0622 H   0  0  0  0  0  0  0  0  0  0  0  0
   -1.2553   22.3468  -32.9013 H   0  0  0  0  0  0  0  0  0  0  0  0
    0.1241   20.3100  -33.3103 H   0  0  0  0  0  0  0  0  0  0  0  0
   -0.9702   18.0702  -33.4821 H   0  0  0  0  0  0  0  0  0  0  0  0
   -3.4403   17.8538  -33.1831 H   0  0  0  0  0  0  0  0  0  0  0  0
   -5.5310   18.9520  -32.6840 H   0  0  0  0  0  0  0  0  0  0  0  0
   -7.3201   21.8158  -30.3242 H   0  0  0  0  0  0  0  0  0  0  0  0
   -8.0854   22.7143  -31.6861 H   0  0  0  0  0  0  0  0  0  0  0  0
   -9.1709   20.2402  -30.2393 H   0  0  0  0  0  0  0  0  0  0  0  0
   -9.8725   21.8925  -30.2583 H   0  0  0  0  0  0  0  0  0  0  0  0
   -9.9278   18.8116  -32.3923 H   0  0  0  0  0  0  0  0  0  0  0  0
   -9.5679   19.9593  -33.7908 H   0  0  0  0  0  0  0  0  0  0  0  0
   -7.7386   18.8524  -31.6937 H   0  0  0  0  0  0  0  0  0  0  0  0
   -7.4747   19.1775  -33.4525 H   0  0  0  0  0  0  0  0  0  0  0  0
  1  2  1  0
  2  3  1  0
  3  4  1  0
  4  5  1  0
  5  6  1  0
  6  7  1  0
  3  8  1  0
  8  9  2  0
  8 10  1  0
 10 11  1  0
 11 12  1  0
 12 13  2  0
 13 14  1  0
 14 15  2  0
 15 16  1  0
 16 17  2  0
 17 18  1  0
 18 19  2  0
 19 20  1  0
 20 21  2  0
 21 22  1  0
 22 23  1  0
 23 24  1  0
 24 25  1  0
 25 26  1  0
 26 27  1  0
 21 12  1  0
 27 22  1  0
 19 14  1  0
  1 28  1  0
  1 29  1  0
  1 30  1  0
  2 31  1  0
  2 32  1  0
  4 33  1  0
  4 34  1  0
  5 35  1  0
  5 36  1  0
  7 37  1  0
  7 38  1  0
  7 39  1  0
 10 40  1  0
 10 41  1  0
 15 42  1  0
 16 43  1  0
 17 44  1  0
 18 45  1  0
 20 46  1  0
 23 47  1  0
 23 48  1  0
 24 49  1  0
 24 50  1  0
 26 51  1  0
 26 52  1  0
 27 53  1  0
 27 54  1  0
M  CHG  1  20   1
M  END
>  <UniqueID>  (27) 
27

>  <SMILES>  (27) 
CCN(CCOC)C(=O)CSc1nc2ccccc2[nH+]c1N1CCOCC1

>  <Energy>  (27) 
61.791337466087654

>  <Genealogy>  (27) 
CCN(CCOC)C(=O)CSc1nc2ccccc2[nH+]c1N1CCOCC1 (protonated)
CCN(CCOC)C(=O)CSc1nc2ccccc2[nH+]c1N1CCOCC1 (3D coordinates assigned)
CCN(CCOC)C(=O)CSc1nc2ccccc2[nH+]c1N1CCOCC1 (nonaromatic ring conformer: 61.791337466087654 kcal/mol)

>  <smiles>  (27) 
CCN(CCOC)C(=O)CSc1nc2ccccc2nc1N1CCOCC1

>  <score_type>  (27) 
oracle

>  <origin>  (27) 
adg

>  <m_score__min__energy>  (27) 
-8.2100000000000009

>  <m_primary>  (27) 
energy

$$$$
27:0
     RDKit          3D

 71 75  0  0  0  0  0  0  0  0999 V2000
   -8.3100   22.3280  -31.2260 C   0  0  0  0  0  0  0  0  0  0  0  0
   -7.2900   23.4440  -31.5020 C   0  0  0  0  0  0  0  0  0  0  0  0
   -5.9960   23.3860  -30.6080 C   0  0  2  0  0  0  0  0  0  0  0  0
   -6.3140   22.9870  -29.2960 O   0  0  0  0  0  0  0  0  0  0  0  0
   -5.3960   24.7870  -30.5300 C   0  0  0  0  0  0  0  0  0  0  0  0
   -6.1320   25.7980  -30.3840 O   0  0  0  0  0  0  0  0  0  0  0  0
   -4.0190   24.9870  -30.5960 O   0  0  0  0  0  0  0  0  0  0  0  0
   -3.0920   23.9300  -30.4180 C   0  0  0  0  0  0  0  0  0  0  0  0
   -3.5620   22.6880  -31.1210 C   0  0  0  0  0  0  0  0  0  0  0  0
   -4.9530   22.3970  -31.1850 C   0  0  0  0  0  0  0  0  0  0  0  0
   -5.3420   21.1190  -31.6520 C   0  0  0  0  0  0  0  0  0  0  0  0
   -4.3830   20.2690  -32.2090 C   0  0  0  0  0  0  0  0  0  0  0  0
   -3.0710   20.5690  -32.1110 N   0  0  0  0  0  0  0  0  0  0  0  0
   -2.6250   21.7340  -31.5710 C   0  0  0  0  0  0  0  0  0  0  0  0
   -1.3860   21.9440  -31.4600 O   0  0  0  0  0  0  0  0  0  0  0  0
   -2.2450   19.4410  -32.5400 C   0  0  0  0  0  0  0  0  0  0  0  0
   -3.2680   18.4110  -32.9210 C   0  0  0  0  0  0  0  0  0  0  0  0
   -3.0570   17.1200  -33.4160 C   0  0  0  0  0  0  0  0  0  0  0  0
   -1.7060   16.6140  -33.5470 N   0  0  0  0  0  0  0  0  0  0  0  0
   -0.8870   17.0310  -32.3990 C   0  0  0  0  0  0  0  0  0  0  0  0
    0.4280   17.6720  -32.8680 C   0  0  0  0  0  0  0  0  0  0  0  0
    0.2470   18.3480  -34.1700 N   0  0  0  0  0  0  0  0  0  0  0  0
    0.6520   19.7600  -34.0680 C   0  0  0  0  0  0  0  0  0  0  0  0
    1.0400   17.6910  -35.2250 C   0  0  0  0  0  0  0  0  0  0  0  0
   -4.2110   16.3330  -33.7020 C   0  0  0  0  0  0  0  0  0  0  0  0
   -4.1020   14.9830  -34.1020 C   0  0  0  0  0  0  0  0  0  0  0  0
   -5.2400   14.2140  -34.3910 C   0  0  0  0  0  0  0  0  0  0  0  0
   -5.1510   12.8750  -34.8070 O   0  0  0  0  0  0  0  0  0  0  0  0
   -5.1270   11.7510  -33.9320 C   0  0  0  0  0  0  0  0  0  0  0  0
   -6.5100   14.7770  -34.2580 C   0  0  0  0  0  0  0  0  0  0  0  0
   -7.6260   13.9720  -34.5470 O   0  0  0  0  0  0  0  0  0  0  0  0
   -7.7440   13.1280  -35.6870 C   0  0  0  0  0  0  0  0  0  0  0  0
   -6.6430   16.1120  -33.8410 C   0  0  0  0  0  0  0  0  0  0  0  0
   -5.5130   16.9240  -33.5840 C   0  0  0  0  0  0  0  0  0  0  0  0
   -5.6470   18.2530  -33.2150 N   0  0  0  0  0  0  0  0  0  0  0  0
   -6.9270   18.9700  -33.3640 C   0  0  0  0  0  0  0  0  0  0  0  0
   -4.5360   18.9200  -32.7670 C   0  0  0  0  0  0  0  0  0  0  0  0
   -8.4277   22.1992  -30.1399 H   0  0  0  0  0  0  0  0  0  0  0  0
   -9.2791   22.5989  -31.6703 H   0  0  0  0  0  0  0  0  0  0  0  0
   -7.9532   21.3871  -31.6703 H   0  0  0  0  0  0  0  0  0  0  0  0
   -6.9822   23.3743  -32.5558 H   0  0  0  0  0  0  0  0  0  0  0  0
   -7.7929   24.3921  -31.2607 H   0  0  0  0  0  0  0  0  0  0  0  0
   -6.3990   23.8060  -28.7410 H   0  0  0  0  0  0  0  0  0  0  0  0
   -2.1174   24.2312  -30.8297 H   0  0  0  0  0  0  0  0  0  0  0  0
   -3.0021   23.7155  -29.3429 H   0  0  0  0  0  0  0  0  0  0  0  0
   -6.3912   20.7973  -31.5771 H   0  0  0  0  0  0  0  0  0  0  0  0
   -1.6168   19.7138  -33.4008 H   0  0  0  0  0  0  0  0  0  0  0  0
   -1.5428   19.0947  -31.7674 H   0  0  0  0  0  0  0  0  0  0  0  0
   -1.2710   16.9810  -34.4250 H   0  0  0  0  0  0  0  0  0  0  0  0
   -1.7080   15.5740  -33.6510 H   0  0  0  0  0  0  0  0  0  0  0  0
   -1.4508   17.7620  -31.8009 H   0  0  0  0  0  0  0  0  0  0  0  0
   -0.6494   16.1426  -31.7955 H   0  0  0  0  0  0  0  0  0  0  0  0
    0.7561   18.4098  -32.1210 H   0  0  0  0  0  0  0  0  0  0  0  0
    1.1843   16.8816  -32.9831 H   0  0  0  0  0  0  0  0  0  0  0  0
    0.7330   20.0426  -33.0080 H   0  0  0  0  0  0  0  0  0  0  0  0
    1.6261   19.8985  -34.5599 H   0  0  0  0  0  0  0  0  0  0  0  0
   -0.1006   20.3938  -34.5599 H   0  0  0  0  0  0  0  0  0  0  0  0
    1.8087   17.0541  -34.7630 H   0  0  0  0  0  0  0  0  0  0  0  0
    0.3785   17.0727  -35.8496 H   0  0  0  0  0  0  0  0  0  0  0  0
    1.5245   18.4560  -35.8496 H   0  0  0  0  0  0  0  0  0  0  0  0
   -3.1056   14.5251  -34.1888 H   0  0  0  0  0  0  0  0  0  0  0  0
   -5.1344   12.0985  -32.8884 H   0  0  0  0  0  0  0  0  0  0  0  0
   -6.0120   11.1241  -34.1160 H   0  0  0  0  0  0  0  0  0  0  0  0
   -4.2161   11.1625  -34.1160 H   0  0  0  0  0  0  0  0  0  0  0  0
   -7.8894   12.0879  -35.3597 H   0  0  0  0  0  0  0  0  0  0  0  0
   -8.6064   13.4463  -36.2912 H   0  0  0  0  0  0  0  0  0  0  0  0
   -6.8274   13.1975  -36.2912 H   0  0  0  0  0  0  0  0  0  0  0  0
   -7.6496   16.5362  -33.7112 H   0  0  0  0  0  0  0  0  0  0  0  0
   -7.3367   19.1995  -32.3693 H   0  0  0  0  0  0  0  0  0  0  0  0
   -6.7606   19.9063  -33.9169 H   0  0  0  0  0  0  0  0  0  0  0  0
   -7.6385   18.3391  -33.9169 H   0  0  0  0  0  0  0  0  0  0  0  0
  1  2  1  0
  2  3  1  0
  3  4  1  1
  3  5  1  0
  5  6  2  0
  5  7  1  0
  7  8  1  0
  8  9  1  0
  9 10  2  0
 10 11  1  0
 11 12  2  0
 12 13  1  0
 13 14  1  0
 14 15  2  0
 13 16  1  0
 16 17  1  0
 17 18  2  0
 18 19  1  0
 19 20  1  0
 20 21  1  0
 21 22  1  0
 22 23  1  0
 22 24  1  0
 18 25  1  0
 25 26  2  0
 26 27  1  0
 27 28  1  0
 28 29  1  0
 27 30  2  0
 30 31  1  0
 31 32  1  0
 30 33  1  0
 33 34  2  0
 34 35  1  0
 35 36  1  0
 35 37  2  0
 10  3  1  0
 37 12  1  0
 14  9  1  0
 37 17  1  0
 34 25  1  0
  1 38  1  0
  1 39  1  0
  1 40  1  0
  2 41  1  0
  2 42  1  0
  4 43  1  0
  8 44  1  0
  8 45  1  0
 11 46  1  0
 16 47  1  0
 16 48  1  0
 19 49  1  0
 19 50  1  0
 20 51  1  0
 20 52  1  0
 21 53  1  0
 21 54  1  0
 23 55  1  0
 23 56  1  0
 23 57  1  0
 24 58  1  0
 24 59  1  0
 24 60  1  0
 26 61  1  0
 29 62  1  0
 29 63  1  0
 29 64  1  0
 32 65  1  0
 32 66  1  0
 32 67  1  0
 33 68  1  0
 36 69  1  0
 36 70  1  0
 36 71  1  0
M  CHG  2  19   1  35   1
M  END
>  <UniqueID>  (28) 
28

>  <SMILES>  (28) 
CC[C@]1(O)C(=O)OCc2c1cc1n(c2=O)Cc2c([NH2+]CCN(C)C)c3cc(OC)c(OC)cc3[n+](C)c2-1

>  <Energy>  (28) 
127.00413671077793

>  <Genealogy>  (28) 
CCC1(O)C(=O)OCc2c1cc1n(c2=O)Cc2c([NH2+]CCN(C)C)c3cc(OC)c(OC)cc3[n+](C)c2-1 (protonated)
CC[C@]1(O)C(=O)OCc2c1cc1n(c2=O)Cc2c([NH2+]CCN(C)C)c3cc(OC)c(OC)cc3[n+](C)c2-1 (chirality)
CC[C@]1(O)C(=O)OCc2c1cc1n(c2=O)Cc2c([NH2+]CCN(C)C)c3cc(OC)c(OC)cc3[n+](C)c2-1 (3D coordinates assigned)
CC[C@]1(O)C(=O)OCc2c1cc1n(c2=O)Cc2c([NH2+]CCN(C)C)c3cc(OC)c(OC)cc3[n+](C)c2-1 (nonaromatic ring conformer: 127.00413671077793 kcal/mol)

>  <smiles>  (28) 
CCC1(O)C(=O)OCc2c1cc1n(c2=O)Cc2c(NCCN(C)C)c3cc(OC)c(OC)cc3[n+](C)c2-1

>  <score_type>  (28) 
oracle

>  <origin>  (28) 
adg

>  <m_score__min__energy>  (28) 
-7.1600000000000001

>  <m_primary>  (28) 
energy

$$$$
28:0
     RDKit          3D

 53 55  0  0  0  0  0  0  0  0999 V2000
   -4.0790   20.5980  -33.4000 C   0  0  0  0  0  0  0  0  0  0  0  0
   -5.4290   21.0420  -33.3630 O   0  0  0  0  0  0  0  0  0  0  0  0
   -6.4550   20.2400  -32.8520 C   0  0  0  0  0  0  0  0  0  0  0  0
   -6.6520   18.9340  -33.3500 C   0  0  0  0  0  0  0  0  0  0  0  0
   -5.8140   18.3940  -34.4760 C   0  0  0  0  0  0  0  0  0  0  0  0
   -7.6170   18.1060  -32.7600 C   0  0  0  0  0  0  0  0  0  0  0  0
   -8.3930   18.5740  -31.7020 C   0  0  0  0  0  0  0  0  0  0  0  0
   -8.2380   19.8790  -31.2420 C   0  0  0  0  0  0  0  0  0  0  0  0
   -7.3020   20.7440  -31.8390 C   0  0  0  0  0  0  0  0  0  0  0  0
   -7.1820   22.1790  -31.3440 C   0  0  0  0  0  0  0  0  0  0  0  0
   -5.8070   22.7450  -31.4040 N   0  0  0  0  0  0  0  0  0  0  0  0
   -5.7580   24.1760  -30.9940 C   0  0  0  0  0  0  0  0  0  0  0  0
   -4.3860   24.5870  -30.4610 C   0  0  0  0  0  0  0  0  0  0  0  0
   -4.0700   23.7440  -29.3100 N   0  0  0  0  0  0  0  0  0  0  0  0
   -3.3830   24.2980  -28.1810 C   0  0  0  0  0  0  0  0  0  0  0  0
   -4.1310   24.7480  -27.0840 C   0  0  0  0  0  0  0  0  0  0  0  0
   -3.4960   25.3040  -25.9760 C   0  0  0  0  0  0  0  0  0  0  0  0
   -2.1000   25.4120  -25.9420 C   0  0  0  0  0  0  0  0  0  0  0  0
   -1.4260   26.0510  -24.7650 C   0  0  0  0  0  0  0  0  0  0  0  0
   -1.3460   24.9710  -27.0390 C   0  0  0  0  0  0  0  0  0  0  0  0
   -1.9740   24.3890  -28.1520 C   0  0  0  0  0  0  0  0  0  0  0  0
   -1.1280   23.9090  -29.3010 C   0  0  0  0  0  0  0  0  0  0  0  0
   -4.3840   22.3140  -29.3470 C   0  0  0  0  0  0  0  0  0  0  0  0
   -4.7760   21.8720  -30.7700 C   0  0  0  0  0  0  0  0  0  0  0  0
   -3.7052   20.4750  -32.3728 H   0  0  0  0  0  0  0  0  0  0  0  0
   -4.0242   19.6345  -33.9279 H   0  0  0  0  0  0  0  0  0  0  0  0
   -3.4630   21.3409  -33.9279 H   0  0  0  0  0  0  0  0  0  0  0  0
   -4.9570   17.8417  -34.0631 H   0  0  0  0  0  0  0  0  0  0  0  0
   -6.4225   17.7177  -35.0943 H   0  0  0  0  0  0  0  0  0  0  0  0
   -5.4495   19.2276  -35.0943 H   0  0  0  0  0  0  0  0  0  0  0  0
   -7.7622   17.0819  -33.1342 H   0  0  0  0  0  0  0  0  0  0  0  0
   -9.1310   17.9100  -31.2282 H   0  0  0  0  0  0  0  0  0  0  0  0
   -8.8533   20.2375  -30.4036 H   0  0  0  0  0  0  0  0  0  0  0  0
   -7.8394   22.8100  -31.9602 H   0  0  0  0  0  0  0  0  0  0  0  0
   -7.4662   22.1657  -30.2814 H   0  0  0  0  0  0  0  0  0  0  0  0
   -5.5700   22.7440  -32.4260 H   0  0  0  0  0  0  0  0  0  0  0  0
   -5.9989   24.8011  -31.8665 H   0  0  0  0  0  0  0  0  0  0  0  0
   -6.4868   24.3155  -30.1820 H   0  0  0  0  0  0  0  0  0  0  0  0
   -3.6258   24.4480  -31.2438 H   0  0  0  0  0  0  0  0  0  0  0  0
   -4.3964   25.6461  -30.1639 H   0  0  0  0  0  0  0  0  0  0  0  0
   -5.2275   24.6613  -27.0984 H   0  0  0  0  0  0  0  0  0  0  0  0
   -4.0936   25.6599  -25.1238 H   0  0  0  0  0  0  0  0  0  0  0  0
   -1.8520   25.6471  -23.8347 H   0  0  0  0  0  0  0  0  0  0  0  0
   -0.3478   25.8356  -24.7984 H   0  0  0  0  0  0  0  0  0  0  0  0
   -1.5837   27.1391  -24.7984 H   0  0  0  0  0  0  0  0  0  0  0  0
   -0.2517   25.0821  -27.0275 H   0  0  0  0  0  0  0  0  0  0  0  0
   -0.2335   23.4015  -28.9108 H   0  0  0  0  0  0  0  0  0  0  0  0
   -1.7094   23.2062  -29.9159 H   0  0  0  0  0  0  0  0  0  0  0  0
   -0.8230   24.7686  -29.9159 H   0  0  0  0  0  0  0  0  0  0  0  0
   -3.5011   21.7432  -29.0233 H   0  0  0  0  0  0  0  0  0  0  0  0
   -5.2333   22.1239  -28.6743 H   0  0  0  0  0  0  0  0  0  0  0  0
   -3.8739   21.8858  -31.3993 H   0  0  0  0  0  0  0  0  0  0  0  0
   -5.2125   20.8658  -30.6865 H   0  0  0  0  0  0  0  0  0  0  0  0
  1  2  1  0
  2  3  1  0
  3  4  2  0
  4  5  1  0
  4  6  1  0
  6  7  2  0
  7  8  1  0
  8  9  2  0
  9 10  1  0
 10 11  1  0
 11 12  1  0
 12 13  1  0
 13 14  1  0
 14 15  1  0
 15 16  2  0
 16 17  1  0
 17 18  2  0
 18 19  1  0
 18 20  1  0
 20 21  2  0
 21 22  1  0
 14 23  1  0
 23 24  1  0
  9  3  1  0
 24 11  1  0
 21 15  1  0
  1 25  1  0
  1 26  1  0
  1 27  1  0
  5 28  1  0
  5 29  1  0
  5 30  1  0
  6 31  1  0
  7 32  1  0
  8 33  1  0
 10 34  1  0
 10 35  1  0
 11 36  1  0
 12 37  1  0
 12 38  1  0
 13 39  1  0
 13 40  1  0
 16 41  1  0
 17 42  1  0
 19 43  1  0
 19 44  1  0
 19 45  1  0
 20 46  1  0
 22 47  1  0
 22 48  1  0
 22 49  1  0
 23 50  1  0
 23 51  1  0
 24 52  1  0
 24 53  1  0
M  CHG  1  11   1
M  END
>  <UniqueID>  (29) 
29

>  <SMILES>  (29) 
COc1c(C)cccc1C[NH+]1CCN(c2ccc(C)cc2C)CC1

>  <Energy>  (29) 
74.57207257676053

>  <Genealogy>  (29) 
COc1c(C)cccc1C[NH+]1CCN(c2ccc(C)cc2C)CC1 (protonated)
COc1c(C)cccc1C[NH+]1CCN(c2ccc(C)cc2C)CC1 (3D coordinates assigned)
COc1c(C)cccc1C[NH+]1CCN(c2ccc(C)cc2C)CC1 (nonaromatic ring conformer: 74.57207257676053 kcal/mol)

>  <smiles>  (29) 
COc1c(C)cccc1CN1CCN(c2ccc(C)cc2C)CC1

>  <score_type>  (29) 
oracle

>  <origin>  (29) 
adg

>  <m_score__min__energy>  (29) 
-6.7699999999999996

>  <m_primary>  (29) 
energy

$$$$
29:0
     RDKit          3D

 50 52  0  0  0  0  0  0  0  0999 V2000
   -5.9180   25.6340  -30.0590 C   0  0  0  0  0  0  0  0  0  0  0  0
   -4.7100   25.0830  -30.8180 C   0  0  0  0  0  0  0  0  0  0  0  0
   -4.7770   23.6090  -30.9340 N   0  0  0  0  0  0  0  0  0  0  0  0
   -5.4710   23.0170  -29.7740 C   0  0  0  0  0  0  0  0  0  0  0  0
   -3.4260   23.0180  -31.0840 C   0  0  0  0  0  0  0  0  0  0  0  0
   -3.4410   21.9140  -32.1520 C   0  0  0  0  0  0  0  0  0  0  0  0
   -4.5620   22.0960  -33.0930 N   0  0  0  0  0  0  0  0  0  0  0  0
   -5.6000   21.1060  -32.8680 C   0  0  0  0  0  0  0  0  0  0  0  0
   -6.9080   21.5230  -32.4550 C   0  0  0  0  0  0  0  0  0  0  0  0
   -7.2450   22.8960  -32.3290 C   0  0  0  0  0  0  0  0  0  0  0  0
   -8.5160   23.2960  -31.9250 C   0  0  0  0  0  0  0  0  0  0  0  0
   -9.4880   22.3490  -31.6400 C   0  0  0  0  0  0  0  0  0  0  0  0
   -9.1970   20.9950  -31.7540 C   0  0  0  0  0  0  0  0  0  0  0  0
   -7.9110   20.5480  -32.1580 C   0  0  0  0  0  0  0  0  0  0  0  0
   -7.6300   19.2020  -32.2630 N   0  0  0  0  0  0  0  0  0  0  0  0
   -8.6530   18.1900  -31.9210 C   0  0  0  0  0  0  0  0  0  0  0  0
   -6.3930   18.8150  -32.6990 C   0  0  0  0  0  0  0  0  0  0  0  0
   -5.8750   17.2280  -32.9160 S   0  0  0  0  0  0  0  0  0  0  0  0
   -4.3370   17.6100  -33.4330 C   0  0  0  0  0  0  0  0  0  0  0  0
   -3.3220   16.5740  -33.8110 C   0  0  0  0  0  0  0  0  0  0  0  0
   -4.1850   19.0050  -33.4770 C   0  0  0  0  0  0  0  0  0  0  0  0
   -2.8840   19.6030  -33.9490 C   0  0  0  0  0  0  0  0  0  0  0  0
   -5.3630   19.7060  -33.0280 C   0  0  0  0  0  0  0  0  0  0  0  0
   -5.7393   25.5525  -28.9767 H   0  0  0  0  0  0  0  0  0  0  0  0
   -6.0690   26.6901  -30.3272 H   0  0  0  0  0  0  0  0  0  0  0  0
   -6.8145   25.0557  -30.3272 H   0  0  0  0  0  0  0  0  0  0  0  0
   -4.6895   25.5216  -31.8266 H   0  0  0  0  0  0  0  0  0  0  0  0
   -3.7989   25.3473  -30.2612 H   0  0  0  0  0  0  0  0  0  0  0  0
   -5.0232   23.3990  -28.8447 H   0  0  0  0  0  0  0  0  0  0  0  0
   -6.5364   23.2887  -29.8063 H   0  0  0  0  0  0  0  0  0  0  0  0
   -5.3707   21.9221  -29.8063 H   0  0  0  0  0  0  0  0  0  0  0  0
   -2.7177   23.8040  -31.3849 H   0  0  0  0  0  0  0  0  0  0  0  0
   -3.1186   22.5807  -30.1226 H   0  0  0  0  0  0  0  0  0  0  0  0
   -2.4945   21.9436  -32.7117 H   0  0  0  0  0  0  0  0  0  0  0  0
   -3.5639   20.9440  -31.6480 H   0  0  0  0  0  0  0  0  0  0  0  0
   -4.2180   22.0390  -34.0770 H   0  0  0  0  0  0  0  0  0  0  0  0
   -4.9410   23.0580  -33.0520 H   0  0  0  0  0  0  0  0  0  0  0  0
   -6.4864   23.6598  -32.5552 H   0  0  0  0  0  0  0  0  0  0  0  0
   -8.7498   24.3668  -31.8316 H   0  0  0  0  0  0  0  0  0  0  0  0
  -10.4912   22.6702  -31.3231 H   0  0  0  0  0  0  0  0  0  0  0  0
   -9.9783   20.2547  -31.5268 H   0  0  0  0  0  0  0  0  0  0  0  0
   -8.7361   18.1078  -30.8272 H   0  0  0  0  0  0  0  0  0  0  0  0
   -9.6235   18.4933  -32.3407 H   0  0  0  0  0  0  0  0  0  0  0  0
   -8.3602   17.2163  -32.3407 H   0  0  0  0  0  0  0  0  0  0  0  0
   -2.8906   16.1337  -32.8999 H   0  0  0  0  0  0  0  0  0  0  0  0
   -3.8068   15.7854  -34.4053 H   0  0  0  0  0  0  0  0  0  0  0  0
   -2.5237   17.0425  -34.4053 H   0  0  0  0  0  0  0  0  0  0  0  0
   -2.2726   19.8840  -33.0788 H   0  0  0  0  0  0  0  0  0  0  0  0
   -2.3400   18.8646  -34.5563 H   0  0  0  0  0  0  0  0  0  0  0  0
   -3.0902   20.4967  -34.5563 H   0  0  0  0  0  0  0  0  0  0  0  0
  1  2  1  0
  2  3  1  0
  3  4  1  0
  3  5  1  0
  5  6  1  0
  6  7  1  0
  7  8  1  0
  8  9  2  0
  9 10  1  0
 10 11  2  0
 11 12  1  0
 12 13  2  0
 13 14  1  0
 14 15  2  0
 15 16  1  0
 15 17  1  0
 17 18  1  0
 18 19  1  0
 19 20  1  0
 19 21  2  0
 21 22  1  0
 21 23  1  0
 23  8  1  0
 14  9  1  0
 23 17  2  0
  1 24  1  0
  1 25  1  0
  1 26  1  0
  2 27  1  0
  2 28  1  0
  4 29  1  0
  4 30  1  0
  4 31  1  0
  5 32  1  0
  5 33  1  0
  6 34  1  0
  6 35  1  0
  7 36  1  0
  7 37  1  0
 10 38  1  0
 11 39  1  0
 12 40  1  0
 13 41  1  0
 16 42  1  0
 16 43  1  0
 16 44  1  0
 20 45  1  0
 20 46  1  0
 20 47  1  0
 22 48  1  0
 22 49  1  0
 22 50  1  0
M  CHG  2   7   1  15   1
M  END
>  <UniqueID>  (30) 
30

>  <SMILES>  (30) 
CCN(C)CC[NH2+]c1c2ccccc2[n+](C)c2sc(C)c(C)c12

>  <Energy>  (30) 
103.23730036665502

>  <Genealogy>  (30) 
CCN(C)CC[NH2+]c1c2ccccc2[n+](C)c2sc(C)c(C)c12 (protonated)
CCN(C)CC[NH2+]c1c2ccccc2[n+](C)c2sc(C)c(C)c12 (3D coordinates assigned)
CCN(C)CC[NH2+]c1c2ccccc2[n+](C)c2sc(C)c(C)c12 (optimized conformer: 103.23730036665502 kcal/mol)

>  <smiles>  (30) 
CCN(C)CCNc1c2ccccc2[n+](C)c2sc(C)c(C)c12

>  <score_type>  (30) 
oracle

>  <origin>  (30) 
adg

>  <m_score__min__energy>  (30) 
-7.9699999999999998

>  <m_primary>  (30) 
energy

$$$$
30:0
     RDKit          3D

 53 55  0  0  0  0  0  0  0  0999 V2000
   -0.8320   24.5210  -28.7600 C   0  0  0  0  0  0  0  0  0  0  0  0
   -2.2520   24.1560  -28.8340 N   0  0  0  0  0  0  0  0  0  0  0  0
   -2.4900   22.7490  -29.1980 C   0  0  0  0  0  0  0  0  0  0  0  0
   -4.0180   22.4100  -29.2190 C   0  0  0  0  0  0  0  0  0  0  0  0
   -4.8970   23.6060  -29.1060 N   0  0  0  0  0  0  0  0  0  0  0  0
   -4.8920   24.4470  -30.2970 C   0  0  0  0  0  0  0  0  0  0  0  0
   -3.9430   25.1970  -30.5200 O   0  0  0  0  0  0  0  0  0  0  0  0
   -5.9220   24.2800  -31.3870 C   0  0  0  0  0  0  0  0  0  0  0  0
   -6.9590   23.2650  -31.0390 N   0  0  0  0  0  0  0  0  0  0  0  0
   -8.0490   23.3390  -32.0380 C   0  0  0  0  0  0  0  0  0  0  0  0
   -9.1020   22.2470  -31.8370 C   0  0  0  0  0  0  0  0  0  0  0  0
   -8.4730   20.8390  -31.8800 C   0  0  0  0  0  0  0  0  0  0  0  0
   -8.0060   20.4220  -33.3060 C   0  0  0  0  0  0  0  0  0  0  0  0
   -7.0350   19.2550  -33.2940 C   0  0  0  0  0  0  0  0  0  0  0  0
   -5.7930   19.3370  -33.9490 C   0  0  0  0  0  0  0  0  0  0  0  0
   -4.9080   18.2500  -33.9380 C   0  0  0  0  0  0  0  0  0  0  0  0
   -5.2600   17.0750  -33.2740 C   0  0  0  0  0  0  0  0  0  0  0  0
   -6.4860   16.9840  -32.6150 C   0  0  0  0  0  0  0  0  0  0  0  0
   -7.3700   18.0700  -32.6170 C   0  0  0  0  0  0  0  0  0  0  0  0
   -7.3440   20.7720  -30.8440 C   0  0  0  0  0  0  0  0  0  0  0  0
   -6.3310   21.9250  -31.0140 C   0  0  0  0  0  0  0  0  0  0  0  0
   -4.5580   24.3340  -27.8530 C   0  0  0  0  0  0  0  0  0  0  0  0
   -3.0280   24.5930  -27.6660 C   0  0  0  0  0  0  0  0  0  0  0  0
   -0.5280   24.5991  -27.7057 H   0  0  0  0  0  0  0  0  0  0  0  0
   -0.2284   23.7488  -29.2594 H   0  0  0  0  0  0  0  0  0  0  0  0
   -0.6756   25.4885  -29.2594 H   0  0  0  0  0  0  0  0  0  0  0  0
   -2.0692   22.5626  -30.1971 H   0  0  0  0  0  0  0  0  0  0  0  0
   -2.0064   22.1117  -28.4430 H   0  0  0  0  0  0  0  0  0  0  0  0
   -4.2474   21.8984  -30.1654 H   0  0  0  0  0  0  0  0  0  0  0  0
   -4.2196   21.7783  -28.3413 H   0  0  0  0  0  0  0  0  0  0  0  0
   -5.8910   23.2420  -29.0030 H   0  0  0  0  0  0  0  0  0  0  0  0
   -6.4174   25.2475  -31.5562 H   0  0  0  0  0  0  0  0  0  0  0  0
   -5.4007   23.9307  -32.2904 H   0  0  0  0  0  0  0  0  0  0  0  0
   -8.5382   24.3207  -31.9545 H   0  0  0  0  0  0  0  0  0  0  0  0
   -7.6019   23.1937  -33.0325 H   0  0  0  0  0  0  0  0  0  0  0  0
   -9.5856   22.3926  -30.8598 H   0  0  0  0  0  0  0  0  0  0  0  0
   -9.8361   22.3217  -32.6528 H   0  0  0  0  0  0  0  0  0  0  0  0
   -9.2450   20.1001  -31.6191 H   0  0  0  0  0  0  0  0  0  0  0  0
   -8.8901   20.1365  -33.8950 H   0  0  0  0  0  0  0  0  0  0  0  0
   -7.4808   21.2829  -33.7453 H   0  0  0  0  0  0  0  0  0  0  0  0
   -5.5137   20.2622  -34.4744 H   0  0  0  0  0  0  0  0  0  0  0  0
   -3.9382   18.3235  -34.4518 H   0  0  0  0  0  0  0  0  0  0  0  0
   -4.5696   16.2187  -33.2700 H   0  0  0  0  0  0  0  0  0  0  0  0
   -6.7594   16.0558  -32.0919 H   0  0  0  0  0  0  0  0  0  0  0  0
   -8.3307   17.9952  -32.0864 H   0  0  0  0  0  0  0  0  0  0  0  0
   -7.7826   20.8307  -29.8370 H   0  0  0  0  0  0  0  0  0  0  0  0
   -6.8059   19.8238  -30.9900 H   0  0  0  0  0  0  0  0  0  0  0  0
   -5.6196   21.8897  -30.1757 H   0  0  0  0  0  0  0  0  0  0  0  0
   -5.8379   21.7811  -31.9867 H   0  0  0  0  0  0  0  0  0  0  0  0
   -5.0747   25.3050  -27.8658 H   0  0  0  0  0  0  0  0  0  0  0  0
   -4.8788   23.6963  -27.0161 H   0  0  0  0  0  0  0  0  0  0  0  0
   -2.8656   25.6703  -27.5139 H   0  0  0  0  0  0  0  0  0  0  0  0
   -2.6881   24.0139  -26.7947 H   0  0  0  0  0  0  0  0  0  0  0  0
  1  2  1  0
  2  3  1  0
  3  4  1  0
  4  5  1  0
  5  6  1  0
  6  7  2  0
  6  8  1  0
  8  9  1  0
  9 10  1  0
 10 11  1  0
 11 12  1  0
 12 13  1  0
 13 14  1  0
 14 15  2  0
 15 16  1  0
 16 17  2  0
 17 18  1  0
 18 19  2  0
 12 20  1  0
 20 21  1  0
  5 22  1  0
 22 23  1  0
 23  2  1  0
 21  9  1  0
 19 14  1  0
  1 24  1  0
  1 25  1  0
  1 26  1  0
  3 27  1  0
  3 28  1  0
  4 29  1  0
  4 30  1  0
  5 31  1  0
  8 32  1  0
  8 33  1  0
 10 34  1  0
 10 35  1  0
 11 36  1  0
 11 37  1  0
 12 38  1  0
 13 39  1  0
 13 40  1  0
 15 41  1  0
 16 42  1  0
 17 43  1  0
 18 44  1  0
 19 45  1  0
 20 46  1  0
 20 47  1  0
 21 48  1  0
 21 49  1  0
 22 50  1  0
 22 51  1  0
 23 52  1  0
 23 53  1  0
M  CHG  1   5   1
M  END
>  <UniqueID>  (31) 
31

>  <SMILES>  (31) 
CN1CC[NH+](C(=O)CN2CCC(Cc3ccccc3)CC2)CC1

>  <Energy>  (31) 
74.45319880954875

>  <Genealogy>  (31) 
CN1CC[NH+](C(=O)CN2CCC(Cc3ccccc3)CC2)CC1 (protonated)
CN1CC[NH+](C(=O)CN2CCC(Cc3ccccc3)CC2)CC1 (3D coordinates assigned)
CN1CC[NH+](C(=O)CN2CCC(Cc3ccccc3)CC2)CC1 (nonaromatic ring conformer: 74.45319880954875 kcal/mol)

>  <smiles>  (31) 
CN1CCN(C(=O)CN2CCC(Cc3ccccc3)CC2)CC1

>  <score_type>  (31) 
oracle

>  <origin>  (31) 
adg

>  <m_score__min__energy>  (31) 
-8.3599999999999994

>  <m_primary>  (31) 
energy

$$$$
31:0
     RDKit          3D

 57 60  0  0  0  0  0  0  0  0999 V2000
   -2.1290   15.6020  -34.4810 C   0  0  0  0  0  0  0  0  0  0  0  0
   -3.4770   15.4060  -35.1740 C   0  0  0  0  0  0  0  0  0  0  0  0
   -4.1720   16.6920  -35.3430 N   0  0  0  0  0  0  0  0  0  0  0  0
   -3.5390   17.7350  -34.5180 C   0  0  0  0  0  0  0  0  0  0  0  0
   -4.2910   17.9310  -33.1930 C   0  0  0  0  0  0  0  0  0  0  0  0
   -5.7160   17.5520  -33.3380 N   0  0  0  0  0  0  0  0  0  0  0  0
   -6.3330   17.3220  -32.0180 C   0  0  0  0  0  0  0  0  0  0  0  0
   -6.4700   18.5750  -34.0950 C   0  0  0  0  0  0  0  0  0  0  0  0
   -7.0090   19.6290  -33.1640 C   0  0  0  0  0  0  0  0  0  0  0  0
   -8.3890   19.8710  -33.0780 C   0  0  0  0  0  0  0  0  0  0  0  0
   -8.8750   20.8630  -32.2250 C   0  0  0  0  0  0  0  0  0  0  0  0
   -7.9920   21.6210  -31.4520 C   0  0  0  0  0  0  0  0  0  0  0  0
   -6.6060   21.3960  -31.5250 C   0  0  0  0  0  0  0  0  0  0  0  0
   -5.6620   22.2090  -30.7130 C   0  0  0  0  0  0  0  0  0  0  0  0
   -4.3310   21.7940  -30.5370 C   0  0  0  0  0  0  0  0  0  0  0  0
   -3.4450   22.5560  -29.7700 C   0  0  0  0  0  0  0  0  0  0  0  0
   -3.8720   23.7500  -29.1630 C   0  0  0  0  0  0  0  0  0  0  0  0
   -2.9320   24.5580  -28.3550 C   0  0  0  0  0  0  0  0  0  0  0  0
   -1.9590   25.3330  -28.9060 N   0  0  0  0  0  0  0  0  0  0  0  0
   -1.3630   25.8690  -27.8310 C   0  0  0  0  0  0  0  0  0  0  0  0
   -0.2860   26.7510  -27.8030 C   0  0  0  0  0  0  0  0  0  0  0  0
    0.1730   27.1820  -26.5440 C   0  0  0  0  0  0  0  0  0  0  0  0
    1.2180   28.0430  -26.4650 F   0  0  0  0  0  0  0  0  0  0  0  0
   -0.4500   26.7210  -25.3600 C   0  0  0  0  0  0  0  0  0  0  0  0
   -1.5350   25.8270  -25.4290 C   0  0  0  0  0  0  0  0  0  0  0  0
   -1.9620   25.4260  -26.6930 C   0  0  0  0  0  0  0  0  0  0  0  0
   -2.9640   24.5890  -26.9940 N   0  0  0  0  0  0  0  0  0  0  0  0
   -5.2020   24.1640  -29.3390 C   0  0  0  0  0  0  0  0  0  0  0  0
   -6.0880   23.4020  -30.1050 C   0  0  0  0  0  0  0  0  0  0  0  0
   -6.1240   20.3920  -32.3850 C   0  0  0  0  0  0  0  0  0  0  0  0
   -2.2710   15.5814  -33.3904 H   0  0  0  0  0  0  0  0  0  0  0  0
   -1.4437   14.7941  -34.7769 H   0  0  0  0  0  0  0  0  0  0  0  0
   -1.7021   16.5717  -34.7769 H   0  0  0  0  0  0  0  0  0  0  0  0
   -3.3113   14.9534  -36.1628 H   0  0  0  0  0  0  0  0  0  0  0  0
   -4.1006   14.7486  -34.5504 H   0  0  0  0  0  0  0  0  0  0  0  0
   -5.1720   16.5780  -35.0530 H   0  0  0  0  0  0  0  0  0  0  0  0
   -4.1320   16.9740  -36.3500 H   0  0  0  0  0  0  0  0  0  0  0  0
   -2.5017   17.4400  -34.3011 H   0  0  0  0  0  0  0  0  0  0  0  0
   -3.5654   18.6827  -35.0758 H   0  0  0  0  0  0  0  0  0  0  0  0
   -3.8273   17.3025  -32.4184 H   0  0  0  0  0  0  0  0  0  0  0  0
   -4.2347   18.9920  -32.9082 H   0  0  0  0  0  0  0  0  0  0  0  0
   -5.6168   17.5890  -31.2270 H   0  0  0  0  0  0  0  0  0  0  0  0
   -7.2349   17.9443  -31.9214 H   0  0  0  0  0  0  0  0  0  0  0  0
   -6.6074   16.2612  -31.9214 H   0  0  0  0  0  0  0  0  0  0  0  0
   -5.8013   19.0481  -34.8291 H   0  0  0  0  0  0  0  0  0  0  0  0
   -7.3128   18.0887  -34.6081 H   0  0  0  0  0  0  0  0  0  0  0  0
   -9.0890   19.2774  -33.6843 H   0  0  0  0  0  0  0  0  0  0  0  0
   -9.9573   21.0487  -32.1611 H   0  0  0  0  0  0  0  0  0  0  0  0
   -8.3840   22.3997  -30.7812 H   0  0  0  0  0  0  0  0  0  0  0  0
   -3.9835   20.8619  -31.0066 H   0  0  0  0  0  0  0  0  0  0  0  0
   -2.4060   22.2189  -29.6404 H   0  0  0  0  0  0  0  0  0  0  0  0
    0.1894   27.0988  -28.7320 H   0  0  0  0  0  0  0  0  0  0  0  0
   -0.0844   27.0631  -24.3806 H   0  0  0  0  0  0  0  0  0  0  0  0
   -2.0281   25.4582  -24.5175 H   0  0  0  0  0  0  0  0  0  0  0  0
   -5.5495   25.0963  -28.8698 H   0  0  0  0  0  0  0  0  0  0  0  0
   -7.1273   23.7388  -30.2331 H   0  0  0  0  0  0  0  0  0  0  0  0
   -5.0422   20.2027  -32.4478 H   0  0  0  0  0  0  0  0  0  0  0  0
  1  2  1  0
  2  3  1  0
  3  4  1  0
  4  5  1  0
  5  6  1  0
  6  7  1  0
  6  8  1  0
  8  9  1  0
  9 10  2  0
 10 11  1  0
 11 12  2  0
 12 13  1  0
 13 14  1  0
 14 15  2  0
 15 16  1  0
 16 17  2  0
 17 18  1  0
 18 19  2  0
 19 20  1  0
 20 21  2  0
 21 22  1  0
 22 23  1  0
 22 24  2  0
 24 25  1  0
 25 26  2  0
 26 27  1  0
 17 28  1  0
 28 29  2  0
 13 30  2  0
 30  9  1  0
 29 14  1  0
 27 18  1  0
 26 20  1  0
  1 31  1  0
  1 32  1  0
  1 33  1  0
  2 34  1  0
  2 35  1  0
  3 36  1  0
  3 37  1  0
  4 38  1  0
  4 39  1  0
  5 40  1  0
  5 41  1  0
  7 42  1  0
  7 43  1  0
  7 44  1  0
  8 45  1  0
  8 46  1  0
 10 47  1  0
 11 48  1  0
 12 49  1  0
 15 50  1  0
 16 51  1  0
 21 52  1  0
 24 53  1  0
 25 54  1  0
 28 55  1  0
 29 56  1  0
 30 57  1  0
M  CHG  2   3   1  27  -1
M  END
>  <UniqueID>  (32) 
32

>  <SMILES>  (32) 
CC[NH2+]CCN(C)Cc1cccc(-c2ccc(-c3nc4cc(F)ccc4[n-]3)cc2)c1

>  <Energy>  (32) 
97.64607983864164

>  <Genealogy>  (32) 
CC[NH2+]CCN(C)Cc1cccc(-c2ccc(-c3nc4cc(F)ccc4[n-]3)cc2)c1 (protonated)
CC[NH2+]CCN(C)Cc1cccc(-c2ccc(-c3nc4cc(F)ccc4[n-]3)cc2)c1 (3D coordinates assigned)
CC[NH2+]CCN(C)Cc1cccc(-c2ccc(-c3nc4cc(F)ccc4[n-]3)cc2)c1 (optimized conformer: 97.64607983864164 kcal/mol)

>  <smiles>  (32) 
CCNCCN(C)Cc1cccc(-c2ccc(-c3nc4cc(F)ccc4[nH]3)cc2)c1

>  <score_type>  (32) 
oracle

>  <origin>  (32) 
adg

>  <m_score__min__energy>  (32) 
-8.7799999999999994

>  <m_primary>  (32) 
energy

$$$$
32:0
     RDKit          3D

 50 53  0  0  0  0  0  0  0  0999 V2000
    0.2400   19.8040  -35.5970 C   0  0  0  0  0  0  0  0  0  0  0  0
   -0.3540   21.0050  -34.9860 N   0  0  0  0  0  0  0  0  0  0  0  0
    0.3260   22.2050  -35.5070 C   0  0  0  0  0  0  0  0  0  0  0  0
   -0.2550   20.9310  -33.5110 C   0  0  0  0  0  0  0  0  0  0  0  0
   -1.6450   20.9600  -32.8560 C   0  0  0  0  0  0  0  0  0  0  0  0
   -2.7140   21.0830  -33.8610 N   0  0  0  0  0  0  0  0  0  0  0  0
   -3.9770   20.5970  -33.3240 C   0  0  0  0  0  0  0  0  0  0  0  0
   -4.4750   19.3190  -33.6920 C   0  0  0  0  0  0  0  0  0  0  0  0
   -3.7130   18.4180  -34.4770 C   0  0  0  0  0  0  0  0  0  0  0  0
   -4.2530   17.2120  -34.9150 C   0  0  0  0  0  0  0  0  0  0  0  0
   -5.5570   16.8730  -34.5880 C   0  0  0  0  0  0  0  0  0  0  0  0
   -6.3110   17.7120  -33.7740 C   0  0  0  0  0  0  0  0  0  0  0  0
   -5.7720   18.9220  -33.2610 C   0  0  0  0  0  0  0  0  0  0  0  0
   -6.4840   19.7030  -32.3740 N   0  0  0  0  0  0  0  0  0  0  0  0
   -7.6760   19.1460  -31.6930 C   0  0  0  0  0  0  0  0  0  0  0  0
   -6.0550   20.9810  -32.0690 C   0  0  0  0  0  0  0  0  0  0  0  0
   -6.8870   21.8870  -31.3630 C   0  0  0  0  0  0  0  0  0  0  0  0
   -6.4210   23.1390  -30.9540 C   0  0  0  0  0  0  0  0  0  0  0  0
   -7.2520   24.0110  -30.2300 C   0  0  0  0  0  0  0  0  0  0  0  0
   -6.7680   25.2510  -29.8030 C   0  0  0  0  0  0  0  0  0  0  0  0
   -5.4540   25.6280  -30.0940 C   0  0  0  0  0  0  0  0  0  0  0  0
   -4.6220   24.7700  -30.8180 C   0  0  0  0  0  0  0  0  0  0  0  0
   -5.1030   23.5230  -31.2550 C   0  0  0  0  0  0  0  0  0  0  0  0
   -4.2880   22.6700  -32.0050 C   0  0  0  0  0  0  0  0  0  0  0  0
   -4.7620   21.4190  -32.4710 C   0  0  0  0  0  0  0  0  0  0  0  0
    0.5787   19.1193  -34.8055 H   0  0  0  0  0  0  0  0  0  0  0  0
   -0.5125   19.2996  -36.2209 H   0  0  0  0  0  0  0  0  0  0  0  0
    1.0976   20.0960  -36.2209 H   0  0  0  0  0  0  0  0  0  0  0  0
    0.6758   22.8223  -34.6664 H   0  0  0  0  0  0  0  0  0  0  0  0
    1.1862   21.9012  -36.1217 H   0  0  0  0  0  0  0  0  0  0  0  0
   -0.3766   22.7868  -36.1217 H   0  0  0  0  0  0  0  0  0  0  0  0
    0.2530   19.9959  -33.2324 H   0  0  0  0  0  0  0  0  0  0  0  0
    0.3140   21.8033  -33.1570 H   0  0  0  0  0  0  0  0  0  0  0  0
   -1.7925   20.0286  -32.2897 H   0  0  0  0  0  0  0  0  0  0  0  0
   -1.6945   21.8351  -32.1914 H   0  0  0  0  0  0  0  0  0  0  0  0
   -2.8070   22.0680  -34.1920 H   0  0  0  0  0  0  0  0  0  0  0  0
   -2.4500   20.5750  -34.7340 H   0  0  0  0  0  0  0  0  0  0  0  0
   -2.6777   18.6759  -34.7446 H   0  0  0  0  0  0  0  0  0  0  0  0
   -3.6436   16.5263  -35.5220 H   0  0  0  0  0  0  0  0  0  0  0  0
   -5.9955   15.9403  -34.9724 H   0  0  0  0  0  0  0  0  0  0  0  0
   -7.3449   17.4330  -33.5226 H   0  0  0  0  0  0  0  0  0  0  0  0
   -7.5391   19.2100  -30.6034 H   0  0  0  0  0  0  0  0  0  0  0  0
   -8.5672   19.7209  -31.9850 H   0  0  0  0  0  0  0  0  0  0  0  0
   -7.8067   18.0935  -31.9850 H   0  0  0  0  0  0  0  0  0  0  0  0
   -7.9228   21.5973  -31.1322 H   0  0  0  0  0  0  0  0  0  0  0  0
   -8.2864   23.7169  -29.9986 H   0  0  0  0  0  0  0  0  0  0  0  0
   -7.4221   25.9308  -29.2373 H   0  0  0  0  0  0  0  0  0  0  0  0
   -5.0740   26.6021  -29.7524 H   0  0  0  0  0  0  0  0  0  0  0  0
   -3.5888   25.0706  -31.0465 H   0  0  0  0  0  0  0  0  0  0  0  0
   -3.2576   22.9765  -32.2381 H   0  0  0  0  0  0  0  0  0  0  0  0
  1  2  1  0
  2  3  1  0
  2  4  1  0
  4  5  1  0
  5  6  1  0
  6  7  1  0
  7  8  2  0
  8  9  1  0
  9 10  2  0
 10 11  1  0
 11 12  2  0
 12 13  1  0
 13 14  2  0
 14 15  1  0
 14 16  1  0
 16 17  2  0
 17 18  1  0
 18 19  2  0
 19 20  1  0
 20 21  2  0
 21 22  1  0
 22 23  2  0
 23 24  1  0
 24 25  2  0
 25  7  1  0
 13  8  1  0
 25 16  1  0
 23 18  1  0
  1 26  1  0
  1 27  1  0
  1 28  1  0
  3 29  1  0
  3 30  1  0
  3 31  1  0
  4 32  1  0
  4 33  1  0
  5 34  1  0
  5 35  1  0
  6 36  1  0
  6 37  1  0
  9 38  1  0
 10 39  1  0
 11 40  1  0
 12 41  1  0
 15 42  1  0
 15 43  1  0
 15 44  1  0
 17 45  1  0
 19 46  1  0
 20 47  1  0
 21 48  1  0
 22 49  1  0
 24 50  1  0
M  CHG  2   6   1  14   1
M  END
>  <UniqueID>  (33) 
33

>  <SMILES>  (33) 
CN(C)CC[NH2+]c1c2ccccc2[n+](C)c2cc3ccccc3cc12

>  <Energy>  (33) 
84.30636514492346

>  <Genealogy>  (33) 
CN(C)CC[NH2+]c1c2ccccc2[n+](C)c2cc3ccccc3cc12 (protonated)
CN(C)CC[NH2+]c1c2ccccc2[n+](C)c2cc3ccccc3cc12 (3D coordinates assigned)
CN(C)CC[NH2+]c1c2ccccc2[n+](C)c2cc3ccccc3cc12 (optimized conformer: 84.30636514492346 kcal/mol)

>  <smiles>  (33) 
CN(C)CCNc1c2ccccc2[n+](C)c2cc3ccccc3cc12

>  <score_type>  (33) 
oracle

>  <origin>  (33) 
adg

>  <m_score__min__energy>  (33) 
-7.6500000000000004

>  <m_primary>  (33) 
energy

$$$$
33:0
     RDKit          3D

 47 49  0  0  0  0  0  0  0  0999 V2000
    0.7290   29.0060  -24.4900 C   0  0  0  0  0  0  0  0  0  0  0  0
    1.3840   28.2870  -23.3050 C   0  0  0  0  0  0  0  0  0  0  0  0
    1.1940   26.8170  -23.3540 N   0  0  0  0  0  0  0  0  0  0  0  0
    2.0990   26.1840  -24.3470 C   0  0  0  0  0  0  0  0  0  0  0  0
    2.9110   25.0340  -23.7380 C   0  0  0  0  0  0  0  0  0  0  0  0
   -0.1980   26.5410  -23.6660 C   0  0  0  0  0  0  0  0  0  0  0  0
   -1.1170   27.0930  -22.9980 O   0  0  0  0  0  0  0  0  0  0  0  0
   -0.5760   25.5670  -24.7110 C   0  0  0  0  0  0  0  0  0  0  0  0
   -1.0230   25.8610  -26.0050 C   0  0  0  0  0  0  0  0  0  0  0  0
   -1.2760   24.7050  -26.7550 C   0  0  0  0  0  0  0  0  0  0  0  0
   -1.7230   24.6220  -28.0720 C   0  0  0  0  0  0  0  0  0  0  0  0
   -1.9490   25.6820  -28.7190 O   0  0  0  0  0  0  0  0  0  0  0  0
   -1.9090   23.3810  -28.6480 N   0  0  0  0  0  0  0  0  0  0  0  0
   -2.3660   23.2870  -30.0530 C   0  0  0  0  0  0  0  0  0  0  0  0
   -3.8370   23.6040  -30.1740 C   0  0  0  0  0  0  0  0  0  0  0  0
   -4.7930   22.5720  -30.1870 C   0  0  0  0  0  0  0  0  0  0  0  0
   -6.1530   22.8700  -30.3170 C   0  0  0  0  0  0  0  0  0  0  0  0
   -6.5690   24.1970  -30.4480 C   0  0  0  0  0  0  0  0  0  0  0  0
   -5.6270   25.2290  -30.4530 C   0  0  0  0  0  0  0  0  0  0  0  0
   -4.2660   24.9350  -30.3230 C   0  0  0  0  0  0  0  0  0  0  0  0
   -1.6450   22.2340  -27.9090 C   0  0  0  0  0  0  0  0  0  0  0  0
   -1.8240   20.8530  -28.4770 C   0  0  0  0  0  0  0  0  0  0  0  0
   -1.2050   22.3310  -26.6210 N   0  0  0  0  0  0  0  0  0  0  0  0
   -1.0290   23.5470  -26.0670 C   0  0  0  0  0  0  0  0  0  0  0  0
   -0.4900   23.8840  -24.5170 S   0  0  0  0  0  0  0  0  0  0  0  0
    0.0325   29.7706  -24.1155 H   0  0  0  0  0  0  0  0  0  0  0  0
    1.5062   29.4865  -25.1024 H   0  0  0  0  0  0  0  0  0  0  0  0
    0.1783   28.2768  -25.1024 H   0  0  0  0  0  0  0  0  0  0  0  0
    2.4625   28.5033  -23.3141 H   0  0  0  0  0  0  0  0  0  0  0  0
    0.9042   28.6545  -22.3859 H   0  0  0  0  0  0  0  0  0  0  0  0
    1.4230   26.4110  -22.4180 H   0  0  0  0  0  0  0  0  0  0  0  0
    1.4944   25.7903  -25.1773 H   0  0  0  0  0  0  0  0  0  0  0  0
    2.8068   26.9501  -24.6964 H   0  0  0  0  0  0  0  0  0  0  0  0
    2.8676   25.0955  -22.6406 H   0  0  0  0  0  0  0  0  0  0  0  0
    2.4902   24.0729  -24.0683 H   0  0  0  0  0  0  0  0  0  0  0  0
    3.9575   25.1090  -24.0683 H   0  0  0  0  0  0  0  0  0  0  0  0
   -1.1599   26.8827  -26.3888 H   0  0  0  0  0  0  0  0  0  0  0  0
   -1.7942   24.0008  -30.6642 H   0  0  0  0  0  0  0  0  0  0  0  0
   -2.2030   22.2569  -30.4028 H   0  0  0  0  0  0  0  0  0  0  0  0
   -4.4689   21.5249  -30.0944 H   0  0  0  0  0  0  0  0  0  0  0  0
   -6.8959   22.0587  -30.3161 H   0  0  0  0  0  0  0  0  0  0  0  0
   -7.6395   24.4299  -30.5473 H   0  0  0  0  0  0  0  0  0  0  0  0
   -5.9561   26.2732  -30.5592 H   0  0  0  0  0  0  0  0  0  0  0  0
   -3.5268   25.7495  -30.3374 H   0  0  0  0  0  0  0  0  0  0  0  0
   -1.9180   20.1279  -27.6552 H   0  0  0  0  0  0  0  0  0  0  0  0
   -2.7332   20.8260  -29.0956 H   0  0  0  0  0  0  0  0  0  0  0  0
   -0.9518   20.5951  -29.0956 H   0  0  0  0  0  0  0  0  0  0  0  0
  1  2  1  0
  2  3  1  0
  3  4  1  0
  4  5  1  0
  3  6  1  0
  6  7  2  0
  6  8  1  0
  8  9  2  0
  9 10  1  0
 10 11  1  0
 11 12  2  0
 11 13  1  0
 13 14  1  0
 14 15  1  0
 15 16  2  0
 16 17  1  0
 17 18  2  0
 18 19  1  0
 19 20  2  0
 13 21  1  0
 21 22  1  0
 21 23  2  0
 23 24  1  0
 24 25  1  0
 25  8  1  0
 24 10  2  0
 20 15  1  0
  1 26  1  0
  1 27  1  0
  1 28  1  0
  2 29  1  0
  2 30  1  0
  3 31  1  0
  4 32  1  0
  4 33  1  0
  5 34  1  0
  5 35  1  0
  5 36  1  0
  9 37  1  0
 14 38  1  0
 14 39  1  0
 16 40  1  0
 17 41  1  0
 18 42  1  0
 19 43  1  0
 20 44  1  0
 22 45  1  0
 22 46  1  0
 22 47  1  0
M  CHG  1   3   1
M  END
>  <UniqueID>  (34) 
34

>  <SMILES>  (34) 
CC[NH+](CC)C(=O)c1cc2c(=O)n(Cc3ccccc3)c(C)nc2s1

>  <Energy>  (34) 
86.29314600980679

>  <Genealogy>  (34) 
CC[NH+](CC)C(=O)c1cc2c(=O)n(Cc3ccccc3)c(C)nc2s1 (protonated)
CC[NH+](CC)C(=O)c1cc2c(=O)n(Cc3ccccc3)c(C)nc2s1 (3D coordinates assigned)
CC[NH+](CC)C(=O)c1cc2c(=O)n(Cc3ccccc3)c(C)nc2s1 (optimized conformer: 86.29314600980679 kcal/mol)

>  <smiles>  (34) 
CCN(CC)C(=O)c1cc2c(=O)n(Cc3ccccc3)c(C)nc2s1

>  <score_type>  (34) 
oracle

>  <origin>  (34) 
adg

>  <m_score__min__energy>  (34) 
-7.6900000000000004

>  <m_primary>  (34) 
energy

$$$$
34:0
     RDKit          3D

 28 28  0  0  0  0  0  0  0  0999 V2000
  -10.5787   20.9934  -31.8457 H   0  0  0  0  0  0  0  0  0  0  0  0
   -9.5010   21.1690  -31.9790 C   0  0  0  0  0  0  0  0  0  0  0  0
   -8.9560   22.3610  -31.6160 N   0  0  0  0  0  0  0  0  0  0  0  0
   -7.6260   22.6210  -31.7630 C   0  0  0  0  0  0  0  0  0  0  0  0
   -7.1230   23.7670  -31.4090 N   0  0  0  0  0  0  0  0  0  0  0  0
   -5.7420   24.1890  -31.6460 C   0  0  0  0  0  0  0  0  0  0  0  0
   -5.6712   24.6401  -32.6467 H   0  0  0  0  0  0  0  0  0  0  0  0
   -5.0900   23.3061  -31.5721 H   0  0  0  0  0  0  0  0  0  0  0  0
   -5.2900   25.2160  -30.6010 C   0  0  0  0  0  0  0  0  0  0  0  0
   -5.6716   24.9169  -29.6136 H   0  0  0  0  0  0  0  0  0  0  0  0
   -5.6864   26.2025  -30.8835 H   0  0  0  0  0  0  0  0  0  0  0  0
   -3.8340   25.2970  -30.5460 N   0  0  0  0  0  0  0  0  0  0  0  0
   -3.0540   24.8550  -29.4280 C   0  0  0  0  0  0  0  0  0  0  0  0
   -3.3250   23.7700  -28.8510 O   0  0  0  0  0  0  0  0  0  0  0  0
   -1.9560   25.6410  -28.9610 N   0  0  0  0  0  0  0  0  0  0  0  0
   -1.2350   25.3330  -27.7330 C   0  0  0  0  0  0  0  0  0  0  0  0
   -0.7865   26.2544  -27.3331 H   0  0  0  0  0  0  0  0  0  0  0  0
   -1.9367   24.9102  -26.9989 H   0  0  0  0  0  0  0  0  0  0  0  0
   -0.1340   24.3170  -28.0150 C   0  0  0  0  0  0  0  0  0  0  0  0
   -0.2790   23.2190  -27.1850 F   0  0  0  0  0  0  0  0  0  0  0  0
    1.1000   24.8980  -27.7820 F   0  0  0  0  0  0  0  0  0  0  0  0
   -0.1960   23.9070  -29.3340 F   0  0  0  0  0  0  0  0  0  0  0  0
   -6.7870   21.6390  -32.3060 C   0  0  0  0  0  0  0  0  0  0  0  0
   -5.7122   21.8359  -32.4327 H   0  0  0  0  0  0  0  0  0  0  0  0
   -7.3270   20.4080  -32.6850 C   0  0  0  0  0  0  0  0  0  0  0  0
   -6.6778   19.6293  -33.1119 H   0  0  0  0  0  0  0  0  0  0  0  0
   -8.6920   20.1680  -32.5210 C   0  0  0  0  0  0  0  0  0  0  0  0
   -9.1259   19.2010  -32.8154 H   0  0  0  0  0  0  0  0  0  0  0  0
  1  2  1  0
  2  3  1  0
  3  4  1  0
  4  5  2  0
  5  6  1  0
  6  7  1  0
  6  8  1  0
  6  9  1  0
  9 10  1  0
  9 11  1  0
  9 12  1  0
 12 13  1  0
 13 14  2  0
 13 15  1  0
 15 16  1  0
 16 17  1  0
 16 18  1  0
 16 19  1  0
 19 20  1  0
 19 21  1  0
 19 22  1  0
  4 23  1  0
 23 24  1  0
 23 25  2  0
 25 26  1  0
 25 27  1  0
 27 28  1  0
 27  2  2  0
M  CHG  3   3  -1  12  -1  15  -1
M  END
>  <UniqueID>  (35) 
35

>  <SMILES>  (35) 
O=C([N-]CC/N=c1/cccc[n-]1)[N-]CC(F)(F)F

>  <Energy>  (35) 
17.669565865814302

>  <Genealogy>  (35) 
O=C([N-]CCN=c1cccc[n-]1)[N-]CC(F)(F)F (protonated)
O=C([N-]CC/N=c1/cccc[n-]1)[N-]CC(F)(F)F (cis-trans isomerization)
O=C([N-]CC/N=c1/cccc[n-]1)[N-]CC(F)(F)F (3D coordinates assigned)
O=C([N-]CC/N=c1/cccc[n-]1)[N-]CC(F)(F)F (optimized conformer: 17.669565865814302 kcal/mol)

>  <smiles>  (35) 
O=C(NCCN=c1cccc[nH]1)NCC(F)(F)F

>  <score_type>  (35) 
oracle

>  <origin>  (35) 
adg

>  <m_score__min__energy>  (35) 
-8.5500000000000007

>  <m_primary>  (35) 
energy

$$$$
35:0
     RDKit          3D

 40 41  0  0  0  0  0  0  0  0999 V2000
   -0.7120   20.6480  -33.1880 S   0  0  0  0  0  0  0  0  0  0  0  0
   -2.1770   20.9500  -32.5210 C   0  0  0  0  0  0  0  0  0  0  0  0
   -3.1980   21.5470  -33.3370 N   0  0  0  0  0  0  0  0  0  0  0  0
   -4.6290   21.3550  -33.1030 C   0  0  0  0  0  0  0  0  0  0  0  0
   -4.9820   19.8660  -33.0900 C   0  0  0  0  0  0  0  0  0  0  0  0
   -6.4120   19.6670  -32.6640 C   0  0  0  0  0  0  0  0  0  0  0  0
   -6.8840   18.3810  -32.3520 C   0  0  0  0  0  0  0  0  0  0  0  0
   -8.2220   18.1900  -31.9920 C   0  0  0  0  0  0  0  0  0  0  0  0
   -9.0980   19.2790  -31.9480 C   0  0  0  0  0  0  0  0  0  0  0  0
   -8.6380   20.5590  -32.2710 C   0  0  0  0  0  0  0  0  0  0  0  0
   -7.3020   20.7540  -32.6320 C   0  0  0  0  0  0  0  0  0  0  0  0
   -2.4120   20.5420  -31.1640 N   0  0  0  0  0  0  0  0  0  0  0  0
   -3.0970   21.3520  -30.1520 C   0  0  0  0  0  0  0  0  0  0  0  0
   -3.0320   22.8560  -30.4710 C   0  0  0  0  0  0  0  0  0  0  0  0
   -4.3790   23.5260  -30.3730 C   0  0  0  0  0  0  0  0  0  0  0  0
   -5.5520   22.7630  -30.2470 C   0  0  0  0  0  0  0  0  0  0  0  0
   -6.7930   23.3940  -30.1160 C   0  0  0  0  0  0  0  0  0  0  0  0
   -6.8740   24.7880  -30.1200 C   0  0  0  0  0  0  0  0  0  0  0  0
   -5.7150   25.5560  -30.2640 C   0  0  0  0  0  0  0  0  0  0  0  0
   -4.4730   24.9280  -30.3980 C   0  0  0  0  0  0  0  0  0  0  0  0
   -2.8950   21.9920  -34.2340 H   0  0  0  0  0  0  0  0  0  0  0  0
   -4.8985   21.7981  -32.1329 H   0  0  0  0  0  0  0  0  0  0  0  0
   -5.1879   21.8430  -33.9151 H   0  0  0  0  0  0  0  0  0  0  0  0
   -4.8442   19.4525  -34.1000 H   0  0  0  0  0  0  0  0  0  0  0  0
   -4.3230   19.3503  -32.3760 H   0  0  0  0  0  0  0  0  0  0  0  0
   -6.1989   17.5213  -32.3910 H   0  0  0  0  0  0  0  0  0  0  0  0
   -8.5855   17.1821  -31.7432 H   0  0  0  0  0  0  0  0  0  0  0  0
  -10.1487   19.1286  -31.6593 H   0  0  0  0  0  0  0  0  0  0  0  0
   -9.3289   21.4144  -32.2410 H   0  0  0  0  0  0  0  0  0  0  0  0
   -6.9459   21.7618  -32.8920 H   0  0  0  0  0  0  0  0  0  0  0  0
   -1.8910   19.7030  -30.8190 H   0  0  0  0  0  0  0  0  0  0  0  0
   -4.1522   21.0446  -30.1067 H   0  0  0  0  0  0  0  0  0  0  0  0
   -2.5912   21.1885  -29.1890 H   0  0  0  0  0  0  0  0  0  0  0  0
   -2.3456   23.3382  -29.7594 H   0  0  0  0  0  0  0  0  0  0  0  0
   -2.6804   22.9627  -31.5078 H   0  0  0  0  0  0  0  0  0  0  0  0
   -5.4939   21.6645  -30.2514 H   0  0  0  0  0  0  0  0  0  0  0  0
   -7.7070   22.7912  -30.0096 H   0  0  0  0  0  0  0  0  0  0  0  0
   -7.8506   25.2821  -30.0098 H   0  0  0  0  0  0  0  0  0  0  0  0
   -5.7800   26.6540  -30.2719 H   0  0  0  0  0  0  0  0  0  0  0  0
   -3.5642   25.5348  -30.5237 H   0  0  0  0  0  0  0  0  0  0  0  0
  1  2  2  0
  2  3  1  0
  3  4  1  0
  4  5  1  0
  5  6  1  0
  6  7  2  0
  7  8  1  0
  8  9  2  0
  9 10  1  0
 10 11  2  0
  2 12  1  0
 12 13  1  0
 13 14  1  0
 14 15  1  0
 15 16  2  0
 16 17  1  0
 17 18  2  0
 18 19  1  0
 19 20  2  0
 11  6  1  0
 20 15  1  0
  3 21  1  0
  4 22  1  0
  4 23  1  0
  5 24  1  0
  5 25  1  0
  7 26  1  0
  8 27  1  0
  9 28  1  0
 10 29  1  0
 11 30  1  0
 12 31  1  0
 13 32  1  0
 13 33  1  0
 14 34  1  0
 14 35  1  0
 16 36  1  0
 17 37  1  0
 18 38  1  0
 19 39  1  0
 20 40  1  0
M  END
>  <UniqueID>  (36) 
36

>  <SMILES>  (36) 
S=C(NCCc1ccccc1)NCCc1ccccc1

>  <Energy>  (36) 
35.03473291850553

>  <Genealogy>  (36) 
S=C(NCCc1ccccc1)NCCc1ccccc1 (3D coordinates assigned)
S=C(NCCc1ccccc1)NCCc1ccccc1 (optimized conformer: 35.03473291850553 kcal/mol)

>  <smiles>  (36) 
S=C(NCCc1ccccc1)NCCc1ccccc1

>  <score_type>  (36) 
oracle

>  <origin>  (36) 
adg

>  <m_score__min__energy>  (36) 
-7.2800000000000002

>  <m_primary>  (36) 
energy

$$$$
36:0
     RDKit          3D

 52 54  0  0  0  0  0  0  0  0999 V2000
   -3.0370   20.4660  -33.4890 C   0  0  0  0  0  0  0  0  0  0  0  0
   -4.3650   20.9780  -33.4460 O   0  0  0  0  0  0  0  0  0  0  0  0
   -5.4790   20.2880  -32.9350 C   0  0  0  0  0  0  0  0  0  0  0  0
   -5.6150   18.9020  -33.1260 C   0  0  0  0  0  0  0  0  0  0  0  0
   -6.7440   18.2340  -32.6720 C   0  0  0  0  0  0  0  0  0  0  0  0
   -7.7670   18.9370  -32.0490 C   0  0  0  0  0  0  0  0  0  0  0  0
   -7.6670   20.3260  -31.8380 C   0  0  0  0  0  0  0  0  0  0  0  0
   -8.7330   21.0250  -31.2540 O   0  0  0  0  0  0  0  0  0  0  0  0
   -9.8750   21.5150  -31.9490 C   0  0  0  0  0  0  0  0  0  0  0  0
   -6.4760   21.0130  -32.2270 C   0  0  0  0  0  0  0  0  0  0  0  0
   -6.2540   22.5290  -32.0300 C   0  0  1  0  0  0  0  0  0  0  0  0
   -7.2080   23.3220  -31.1160 C   0  0  0  0  0  0  0  0  0  0  0  0
   -6.4920   24.6540  -30.9190 C   0  0  1  0  0  0  0  0  0  0  0  0
   -6.8060   25.3120  -29.5720 C   0  0  0  0  0  0  0  0  0  0  0  0
   -5.0680   24.2430  -31.0700 C   0  0  0  0  0  0  0  0  0  0  0  0
   -4.1330   24.9960  -30.8360 O   0  0  0  0  0  0  0  0  0  0  0  0
   -4.8750   22.9330  -31.6330 N   0  0  1  0  0  0  0  0  0  0  0  0
   -4.1310   22.0340  -30.7070 C   0  0  0  0  0  0  0  0  0  0  0  0
   -3.3660   22.7320  -29.5990 C   0  0  0  0  0  0  0  0  0  0  0  0
   -2.0290   23.1160  -29.7870 C   0  0  0  0  0  0  0  0  0  0  0  0
   -1.3260   23.7650  -28.7680 C   0  0  0  0  0  0  0  0  0  0  0  0
   -1.9430   24.0150  -27.5280 C   0  0  0  0  0  0  0  0  0  0  0  0
   -1.2910   24.6760  -26.4740 O   0  0  0  0  0  0  0  0  0  0  0  0
   -1.8160   25.7840  -25.7460 C   0  0  0  0  0  0  0  0  0  0  0  0
   -1.5040   26.9680  -26.3900 F   0  0  0  0  0  0  0  0  0  0  0  0
   -1.2510   25.8010  -24.4860 F   0  0  0  0  0  0  0  0  0  0  0  0
   -3.1880   25.6630  -25.6180 F   0  0  0  0  0  0  0  0  0  0  0  0
   -3.2560   23.5820  -27.3230 C   0  0  0  0  0  0  0  0  0  0  0  0
   -3.9560   22.9300  -28.3400 C   0  0  0  0  0  0  0  0  0  0  0  0
   -2.6658   20.3229  -32.4635 H   0  0  0  0  0  0  0  0  0  0  0  0
   -3.0327   19.5018  -34.0184 H   0  0  0  0  0  0  0  0  0  0  0  0
   -2.3866   21.1778  -34.0184 H   0  0  0  0  0  0  0  0  0  0  0  0
   -4.8198   18.3418  -33.6397 H   0  0  0  0  0  0  0  0  0  0  0  0
   -6.8286   17.1455  -32.8060 H   0  0  0  0  0  0  0  0  0  0  0  0
   -8.6681   18.4014  -31.7156 H   0  0  0  0  0  0  0  0  0  0  0  0
  -10.6343   21.8408  -31.2228 H   0  0  0  0  0  0  0  0  0  0  0  0
   -9.5823   22.3668  -32.5806 H   0  0  0  0  0  0  0  0  0  0  0  0
  -10.2906   20.7160  -32.5806 H   0  0  0  0  0  0  0  0  0  0  0  0
   -6.4842   22.8069  -33.0691 H   0  0  0  0  0  0  0  0  0  0  0  0
   -8.1844   23.4690  -31.6007 H   0  0  0  0  0  0  0  0  0  0  0  0
   -7.4186   22.8058  -30.1677 H   0  0  0  0  0  0  0  0  0  0  0  0
   -6.7987   25.4386  -31.6264 H   0  0  0  0  0  0  0  0  0  0  0  0
   -6.4884   24.6464  -28.7559 H   0  0  0  0  0  0  0  0  0  0  0  0
   -6.2670   26.2679  -29.4964 H   0  0  0  0  0  0  0  0  0  0  0  0
   -7.8882   25.4943  -29.4964 H   0  0  0  0  0  0  0  0  0  0  0  0
   -4.2930   23.0600  -32.4940 H   0  0  0  0  0  0  0  0  0  0  0  0
   -4.8565   21.3512  -30.2407 H   0  0  0  0  0  0  0  0  0  0  0  0
   -3.3757   21.5228  -31.3219 H   0  0  0  0  0  0  0  0  0  0  0  0
   -1.5303   22.9044  -30.7443 H   0  0  0  0  0  0  0  0  0  0  0  0
   -0.2861   24.0817  -28.9360 H   0  0  0  0  0  0  0  0  0  0  0  0
   -3.7422   23.7564  -26.3518 H   0  0  0  0  0  0  0  0  0  0  0  0
   -4.9780   22.5684  -28.1536 H   0  0  0  0  0  0  0  0  0  0  0  0
  1  2  1  0
  2  3  1  0
  3  4  2  0
  4  5  1  0
  5  6  2  0
  6  7  1  0
  7  8  1  0
  8  9  1  0
  7 10  2  0
 10 11  1  0
 11 12  1  0
 12 13  1  0
 13 14  1  0
 13 15  1  0
 15 16  2  0
 15 17  1  0
 17 18  1  0
 18 19  1  0
 19 20  2  0
 20 21  1  0
 21 22  2  0
 22 23  1  0
 23 24  1  0
 24 25  1  0
 24 26  1  0
 24 27  1  0
 22 28  1  0
 28 29  2  0
 10  3  1  0
 17 11  1  0
 29 19  1  0
  1 30  1  0
  1 31  1  0
  1 32  1  0
  4 33  1  0
  5 34  1  0
  6 35  1  0
  9 36  1  0
  9 37  1  0
  9 38  1  0
 11 39  1  6
 12 40  1  0
 12 41  1  0
 13 42  1  6
 14 43  1  0
 14 44  1  0
 14 45  1  0
 17 46  1  6
 18 47  1  0
 18 48  1  0
 20 49  1  0
 21 50  1  0
 28 51  1  0
 29 52  1  0
M  CHG  1  17   1
M  END
>  <UniqueID>  (37) 
37

>  <SMILES>  (37) 
COc1cccc(OC)c1[C@H]1C[C@@H](C)C(=O)[NH+]1Cc1ccc(OC(F)(F)F)cc1

>  <Energy>  (37) 
70.62434625933021

>  <Genealogy>  (37) 
COc1cccc(OC)c1C1CC(C)C(=O)[NH+]1Cc1ccc(OC(F)(F)F)cc1 (protonated)
COc1cccc(OC)c1[C@H]1C[C@@H](C)C(=O)[NH+]1Cc1ccc(OC(F)(F)F)cc1 (chirality)
COc1cccc(OC)c1[C@H]1C[C@@H](C)C(=O)[NH+]1Cc1ccc(OC(F)(F)F)cc1 (3D coordinates assigned)
COc1cccc(OC)c1[C@H]1C[C@@H](C)C(=O)[NH+]1Cc1ccc(OC(F)(F)F)cc1 (nonaromatic ring conformer: 70.62434625933021 kcal/mol)

>  <smiles>  (37) 
COc1cccc(OC)c1C1CC(C)C(=O)N1Cc1ccc(OC(F)(F)F)cc1

>  <score_type>  (37) 
oracle

>  <origin>  (37) 
adg

>  <m_score__min__energy>  (37) 
-7.3799999999999999

>  <m_primary>  (37) 
energy

$$$$
37:0
     RDKit          3D

 34 35  0  0  0  0  0  0  0  0999 V2000
   -7.9664   22.8869  -31.4079 H   0  0  0  0  0  0  0  0  0  0  0  0
   -6.9560   22.6330  -31.7610 C   0  0  0  0  0  0  0  0  0  0  0  0
   -6.8520   21.7130  -32.7330 C   0  0  0  0  0  0  0  0  0  0  0  0
   -6.4535   22.0396  -33.7049 H   0  0  0  0  0  0  0  0  0  0  0  0
   -7.2360   20.2880  -32.5900 C   0  0  0  0  0  0  0  0  0  0  0  0
   -6.2960   19.2760  -32.8830 C   0  0  0  0  0  0  0  0  0  0  0  0
   -4.5060   19.7380  -33.4300 Br  0  0  0  0  0  0  0  0  0  0  0  0
   -6.6570   17.9240  -32.7410 C   0  0  0  0  0  0  0  0  0  0  0  0
   -5.4210   16.5020  -33.0990 Br  0  0  0  0  0  0  0  0  0  0  0  0
   -7.9440   17.5860  -32.3220 C   0  0  0  0  0  0  0  0  0  0  0  0
   -8.2194   16.5278  -32.2024 H   0  0  0  0  0  0  0  0  0  0  0  0
   -8.8830   18.5800  -32.0540 C   0  0  0  0  0  0  0  0  0  0  0  0
   -9.8959   18.3003  -31.7288 H   0  0  0  0  0  0  0  0  0  0  0  0
   -8.5460   19.9380  -32.1960 C   0  0  0  0  0  0  0  0  0  0  0  0
   -9.4870   20.9560  -31.9700 O   0  0  0  0  0  0  0  0  0  0  0  0
   -9.7160   21.5820  -30.7120 C   0  0  0  0  0  0  0  0  0  0  0  0
   -9.4602   20.8826  -29.9024 H   0  0  0  0  0  0  0  0  0  0  0  0
   -9.0889   22.4821  -30.6308 H   0  0  0  0  0  0  0  0  0  0  0  0
  -10.7759   21.8650  -30.6308 H   0  0  0  0  0  0  0  0  0  0  0  0
   -5.8150   23.3320  -31.1280 C   0  0  0  0  0  0  0  0  0  0  0  0
   -5.9090   24.6700  -30.7100 C   0  0  0  0  0  0  0  0  0  0  0  0
   -6.8505   25.2220  -30.8472 H   0  0  0  0  0  0  0  0  0  0  0  0
   -4.8100   25.3030  -30.1200 C   0  0  0  0  0  0  0  0  0  0  0  0
   -4.8892   26.3553  -29.8096 H   0  0  0  0  0  0  0  0  0  0  0  0
   -3.6110   24.6100  -29.9210 C   0  0  0  0  0  0  0  0  0  0  0  0
   -2.5380   25.2910  -29.3310 O   0  0  0  0  0  0  0  0  0  0  0  0
   -1.9170   24.9080  -28.1080 C   0  0  0  0  0  0  0  0  0  0  0  0
   -2.5152   25.2769  -27.2618 H   0  0  0  0  0  0  0  0  0  0  0  0
   -1.8495   23.8112  -28.0588 H   0  0  0  0  0  0  0  0  0  0  0  0
   -0.9066   25.3401  -28.0588 H   0  0  0  0  0  0  0  0  0  0  0  0
   -3.5270   23.2600  -30.3120 C   0  0  0  0  0  0  0  0  0  0  0  0
   -2.5930   22.7012  -30.1526 H   0  0  0  0  0  0  0  0  0  0  0  0
   -4.6250   22.6260  -30.9020 C   0  0  0  0  0  0  0  0  0  0  0  0
   -4.5546   21.5669  -31.1905 H   0  0  0  0  0  0  0  0  0  0  0  0
  1  2  1  0
  2  3  2  0
  3  4  1  0
  3  5  1  0
  5  6  2  0
  6  7  1  0
  6  8  1  0
  8  9  1  0
  8 10  2  0
 10 11  1  0
 10 12  1  0
 12 13  1  0
 12 14  2  0
 14 15  1  0
 15 16  1  0
 16 17  1  0
 16 18  1  0
 16 19  1  0
  2 20  1  0
 20 21  2  0
 21 22  1  0
 21 23  1  0
 23 24  1  0
 23 25  2  0
 25 26  1  0
 26 27  1  0
 27 28  1  0
 27 29  1  0
 27 30  1  0
 25 31  1  0
 31 32  1  0
 31 33  2  0
 33 34  1  0
 14  5  1  0
 33 20  1  0
M  END
>  <UniqueID>  (38) 
38

>  <SMILES>  (38) 
COc1ccc(/C=C\c2c(OC)ccc(Br)c2Br)cc1

>  <Energy>  (38) 
45.65498057636464

>  <Genealogy>  (38) 
COc1ccc(/C=C\c2c(OC)ccc(Br)c2Br)cc1 (cis-trans isomerization)
COc1ccc(/C=C\c2c(OC)ccc(Br)c2Br)cc1 (3D coordinates assigned)
COc1ccc(/C=C\c2c(OC)ccc(Br)c2Br)cc1 (optimized conformer: 45.65498057636464 kcal/mol)

>  <smiles>  (38) 
COc1ccc(C=Cc2c(OC)ccc(Br)c2Br)cc1

>  <score_type>  (38) 
oracle

>  <origin>  (38) 
adg

>  <m_score__min__energy>  (38) 
-8.4000000000000004

>  <m_primary>  (38) 
energy

$$$$
38:0
     RDKit          3D

 65 66  0  0  0  0  0  0  0  0999 V2000
   -3.7740   22.0560  -27.8460 C   0  0  0  0  0  0  0  0  0  0  0  0
   -3.0960   21.2190  -28.9490 C   0  0  0  0  0  0  0  0  0  0  0  0
   -1.9120   20.4510  -28.4790 N   0  0  0  0  0  0  0  0  0  0  0  0
   -1.9660   20.2470  -26.9980 C   0  0  0  0  0  0  0  0  0  0  0  0
   -2.7290   18.9740  -26.6150 C   0  0  0  0  0  0  0  0  0  0  0  0
   -0.6710   21.0680  -29.0350 C   0  0  0  0  0  0  0  0  0  0  0  0
   -0.9250   22.1640  -30.1010 C   0  0  0  0  0  0  0  0  0  0  0  0
   -0.5680   23.4780  -29.6310 O   0  0  0  0  0  0  0  0  0  0  0  0
   -0.8790   24.0630  -28.3990 C   0  0  0  0  0  0  0  0  0  0  0  0
   -0.0270   23.8060  -27.2920 C   0  0  0  0  0  0  0  0  0  0  0  0
   -0.3800   24.2340  -25.9910 C   0  0  0  0  0  0  0  0  0  0  0  0
   -1.5840   24.9270  -25.7800 C   0  0  0  0  0  0  0  0  0  0  0  0
   -2.3610   25.3080  -26.9090 C   0  0  0  0  0  0  0  0  0  0  0  0
   -1.9660   24.9170  -28.2110 C   0  0  0  0  0  0  0  0  0  0  0  0
   -2.7330   25.2970  -29.3440 O   0  0  0  0  0  0  0  0  0  0  0  0
   -3.5630   24.4510  -30.1430 C   0  0  0  0  0  0  0  0  0  0  0  0
   -5.0080   24.5660  -29.6380 C   0  0  0  0  0  0  0  0  0  0  0  0
   -6.0420   24.8040  -30.7600 C   0  0  0  0  0  0  0  0  0  0  0  0
   -6.3500   23.5440  -31.5360 C   0  0  0  0  0  0  0  0  0  0  0  0
   -5.3430   22.8360  -32.2200 C   0  0  0  0  0  0  0  0  0  0  0  0
   -5.5700   21.5230  -32.6680 C   0  0  0  0  0  0  0  0  0  0  0  0
   -6.8270   20.8760  -32.4380 C   0  0  0  0  0  0  0  0  0  0  0  0
   -6.9560   19.4210  -32.5820 N   0  0  0  0  0  0  0  0  0  0  0  0
   -6.1530   18.7560  -31.5090 C   0  0  0  0  0  0  0  0  0  0  0  0
   -6.4790   18.9600  -33.9130 C   0  0  0  0  0  0  0  0  0  0  0  0
   -8.3620   18.9490  -32.4080 C   0  0  0  0  0  0  0  0  0  0  0  0
   -7.8690   21.7030  -31.9260 C   0  0  0  0  0  0  0  0  0  0  0  0
   -7.6160   22.9640  -31.4140 C   0  0  0  0  0  0  0  0  0  0  0  0
   -3.4682   21.6785  -26.8591 H   0  0  0  0  0  0  0  0  0  0  0  0
   -3.4709   23.1087  -27.9460 H   0  0  0  0  0  0  0  0  0  0  0  0
   -4.8667   21.9780  -27.9460 H   0  0  0  0  0  0  0  0  0  0  0  0
   -3.8344   20.5079  -29.3477 H   0  0  0  0  0  0  0  0  0  0  0  0
   -2.7368   21.9257  -29.7116 H   0  0  0  0  0  0  0  0  0  0  0  0
   -0.9382   20.1730  -26.6131 H   0  0  0  0  0  0  0  0  0  0  0  0
   -2.4979   21.1039  -26.5588 H   0  0  0  0  0  0  0  0  0  0  0  0
   -2.7783   18.8918  -25.5192 H   0  0  0  0  0  0  0  0  0  0  0  0
   -3.7485   19.0201  -27.0255 H   0  0  0  0  0  0  0  0  0  0  0  0
   -2.2078   18.0966  -27.0255 H   0  0  0  0  0  0  0  0  0  0  0  0
   -0.1089   21.5194  -28.2042 H   0  0  0  0  0  0  0  0  0  0  0  0
   -0.1171   20.2619  -29.5384 H   0  0  0  0  0  0  0  0  0  0  0  0
   -0.3266   21.9335  -30.9947 H   0  0  0  0  0  0  0  0  0  0  0  0
   -2.0013   22.1691  -30.3280 H   0  0  0  0  0  0  0  0  0  0  0  0
    0.9192   23.2673  -27.4485 H   0  0  0  0  0  0  0  0  0  0  0  0
    0.2888   24.0241  -25.1433 H   0  0  0  0  0  0  0  0  0  0  0  0
   -1.9194   25.1703  -24.7610 H   0  0  0  0  0  0  0  0  0  0  0  0
   -3.2720   25.9086  -26.7699 H   0  0  0  0  0  0  0  0  0  0  0  0
   -3.5116   24.7679  -31.1951 H   0  0  0  0  0  0  0  0  0  0  0  0
   -3.2202   23.4085  -30.0682 H   0  0  0  0  0  0  0  0  0  0  0  0
   -5.2691   23.6326  -29.1177 H   0  0  0  0  0  0  0  0  0  0  0  0
   -5.0472   25.4424  -28.9743 H   0  0  0  0  0  0  0  0  0  0  0  0
   -6.9731   25.1777  -30.3090 H   0  0  0  0  0  0  0  0  0  0  0  0
   -5.6132   25.5341  -31.4622 H   0  0  0  0  0  0  0  0  0  0  0  0
   -4.3701   23.3147  -32.4054 H   0  0  0  0  0  0  0  0  0  0  0  0
   -4.7723   20.9858  -33.2019 H   0  0  0  0  0  0  0  0  0  0  0  0
   -6.5291   19.0674  -30.5233 H   0  0  0  0  0  0  0  0  0  0  0  0
   -6.2426   17.6641  -31.6074 H   0  0  0  0  0  0  0  0  0  0  0  0
   -5.0969   19.0476  -31.6074 H   0  0  0  0  0  0  0  0  0  0  0  0
   -5.6940   18.2013  -33.7786 H   0  0  0  0  0  0  0  0  0  0  0  0
   -7.3193   18.5230  -34.4725 H   0  0  0  0  0  0  0  0  0  0  0  0
   -6.0709   19.8147  -34.4725 H   0  0  0  0  0  0  0  0  0  0  0  0
   -8.5927   18.8716  -31.3352 H   0  0  0  0  0  0  0  0  0  0  0  0
   -9.0504   19.6653  -32.8803 H   0  0  0  0  0  0  0  0  0  0  0  0
   -8.4787   17.9624  -32.8803 H   0  0  0  0  0  0  0  0  0  0  0  0
   -8.9033   21.3286  -31.9381 H   0  0  0  0  0  0  0  0  0  0  0  0
   -8.4203   23.5158  -30.9054 H   0  0  0  0  0  0  0  0  0  0  0  0
  1  2  1  0
  2  3  1  0
  3  4  1  0
  4  5  1  0
  3  6  1  0
  6  7  1  0
  7  8  1  0
  8  9  1  0
  9 10  2  0
 10 11  1  0
 11 12  2  0
 12 13  1  0
 13 14  2  0
 14 15  1  0
 15 16  1  0
 16 17  1  0
 17 18  1  0
 18 19  1  0
 19 20  2  0
 20 21  1  0
 21 22  2  0
 22 23  1  0
 23 24  1  0
 23 25  1  0
 23 26  1  0
 22 27  1  0
 27 28  2  0
 14  9  1  0
 28 19  1  0
  1 29  1  0
  1 30  1  0
  1 31  1  0
  2 32  1  0
  2 33  1  0
  4 34  1  0
  4 35  1  0
  5 36  1  0
  5 37  1  0
  5 38  1  0
  6 39  1  0
  6 40  1  0
  7 41  1  0
  7 42  1  0
 10 43  1  0
 11 44  1  0
 12 45  1  0
 13 46  1  0
 16 47  1  0
 16 48  1  0
 17 49  1  0
 17 50  1  0
 18 51  1  0
 18 52  1  0
 20 53  1  0
 21 54  1  0
 24 55  1  0
 24 56  1  0
 24 57  1  0
 25 58  1  0
 25 59  1  0
 25 60  1  0
 26 61  1  0
 26 62  1  0
 26 63  1  0
 27 64  1  0
 28 65  1  0
M  CHG  1  23   1
M  END
>  <UniqueID>  (39) 
39

>  <SMILES>  (39) 
CCN(CC)CCOc1ccccc1OCCCc1ccc([N+](C)(C)C)cc1

>  <Energy>  (39) 
93.09773569023614

>  <Genealogy>  (39) 
CCN(CC)CCOc1ccccc1OCCCc1ccc([N+](C)(C)C)cc1 (3D coordinates assigned)
CCN(CC)CCOc1ccccc1OCCCc1ccc([N+](C)(C)C)cc1 (optimized conformer: 93.09773569023614 kcal/mol)

>  <smiles>  (39) 
CCN(CC)CCOc1ccccc1OCCCc1ccc([N+](C)(C)C)cc1

>  <score_type>  (39) 
oracle

>  <origin>  (39) 
adg

>  <m_score__min__energy>  (39) 
-8.5199999999999996

>  <m_primary>  (39) 
energy

$$$$
39:0
     RDKit          3D

 56 59  0  0  0  0  0  0  0  0999 V2000
   -4.0510   23.7970  -28.4880 C   0  0  0  0  0  0  0  0  0  0  0  0
   -3.4300   24.5030  -29.6960 C   0  0  0  0  0  0  0  0  0  0  0  0
   -4.4140   24.6650  -30.7930 N   0  0  0  0  0  0  0  0  0  0  0  0
   -5.4280   25.6920  -30.4490 C   0  0  0  0  0  0  0  0  0  0  0  0
   -6.7470   25.0450  -30.0270 C   0  0  0  0  0  0  0  0  0  0  0  0
   -5.0500   23.3660  -31.1420 C   0  0  0  0  0  0  0  0  0  0  0  0
   -4.0490   22.4640  -31.8700 C   0  0  0  0  0  0  0  0  0  0  0  0
   -4.6230   21.9010  -33.0920 N   0  0  0  0  0  0  0  0  0  0  0  0
   -5.1530   20.5700  -33.0910 C   0  0  0  0  0  0  0  0  0  0  0  0
   -6.4870   20.3220  -32.6990 C   0  0  0  0  0  0  0  0  0  0  0  0
   -7.2930   21.3610  -32.1920 C   0  0  0  0  0  0  0  0  0  0  0  0
   -8.5970   21.1100  -31.7740 C   0  0  0  0  0  0  0  0  0  0  0  0
   -9.1170   19.8210  -31.8360 C   0  0  0  0  0  0  0  0  0  0  0  0
   -8.3420   18.7720  -32.3320 C   0  0  0  0  0  0  0  0  0  0  0  0
   -7.0230   18.9960  -32.7970 C   0  0  0  0  0  0  0  0  0  0  0  0
   -6.2500   17.9680  -33.3130 N   0  0  0  0  0  0  0  0  0  0  0  0
   -6.8490   16.6810  -33.7040 C   0  0  0  0  0  0  0  0  0  0  0  0
   -4.9140   18.2060  -33.5220 C   0  0  0  0  0  0  0  0  0  0  0  0
   -3.8660   17.3380  -33.8230 C   0  0  0  0  0  0  0  0  0  0  0  0
   -3.7730   15.9390  -33.8770 C   0  0  0  0  0  0  0  0  0  0  0  0
   -2.5240   15.3640  -34.1580 C   0  0  0  0  0  0  0  0  0  0  0  0
   -1.3910   16.1750  -34.3480 C   0  0  0  0  0  0  0  0  0  0  0  0
   -1.4870   17.5690  -34.2400 C   0  0  0  0  0  0  0  0  0  0  0  0
   -2.7420   18.1350  -33.9650 C   0  0  0  0  0  0  0  0  0  0  0  0
   -3.0340   19.4430  -33.7500 N   0  0  0  0  0  0  0  0  0  0  0  0
   -2.0930   20.5640  -33.7090 C   0  0  0  0  0  0  0  0  0  0  0  0
   -4.3630   19.4720  -33.4580 C   0  0  0  0  0  0  0  0  0  0  0  0
   -3.6592   24.2424  -27.5616 H   0  0  0  0  0  0  0  0  0  0  0  0
   -5.1444   23.9138  -28.5172 H   0  0  0  0  0  0  0  0  0  0  0  0
   -3.7956   22.7275  -28.5172 H   0  0  0  0  0  0  0  0  0  0  0  0
   -3.0734   25.4962  -29.3856 H   0  0  0  0  0  0  0  0  0  0  0  0
   -2.5972   23.8872  -30.0663 H   0  0  0  0  0  0  0  0  0  0  0  0
   -5.0487   26.3076  -29.6200 H   0  0  0  0  0  0  0  0  0  0  0  0
   -5.6125   26.3119  -31.3388 H   0  0  0  0  0  0  0  0  0  0  0  0
   -6.8063   25.0159  -28.9290 H   0  0  0  0  0  0  0  0  0  0  0  0
   -7.5875   25.6331  -30.4242 H   0  0  0  0  0  0  0  0  0  0  0  0
   -6.7964   24.0204  -30.4242 H   0  0  0  0  0  0  0  0  0  0  0  0
   -5.3854   22.8669  -30.2209 H   0  0  0  0  0  0  0  0  0  0  0  0
   -5.9093   23.5538  -31.8025 H   0  0  0  0  0  0  0  0  0  0  0  0
   -3.1600   23.0562  -32.1328 H   0  0  0  0  0  0  0  0  0  0  0  0
   -3.7829   21.6333  -31.1998 H   0  0  0  0  0  0  0  0  0  0  0  0
   -4.5880   22.4220  -33.9970 H   0  0  0  0  0  0  0  0  0  0  0  0
   -6.8874   22.3813  -32.1258 H   0  0  0  0  0  0  0  0  0  0  0  0
   -9.2185   21.9339  -31.3933 H   0  0  0  0  0  0  0  0  0  0  0  0
  -10.1440   19.6279  -31.4924 H   0  0  0  0  0  0  0  0  0  0  0  0
   -8.7618   17.7557  -32.3623 H   0  0  0  0  0  0  0  0  0  0  0  0
   -7.1144   16.1108  -32.8015 H   0  0  0  0  0  0  0  0  0  0  0  0
   -7.7543   16.8643  -34.3013 H   0  0  0  0  0  0  0  0  0  0  0  0
   -6.1258   16.1064  -34.3013 H   0  0  0  0  0  0  0  0  0  0  0  0
   -4.6574   15.3084  -33.7033 H   0  0  0  0  0  0  0  0  0  0  0  0
   -2.4306   14.2704  -34.2302 H   0  0  0  0  0  0  0  0  0  0  0  0
   -0.4216   15.7115  -34.5833 H   0  0  0  0  0  0  0  0  0  0  0  0
   -0.5989   18.2054  -34.3678 H   0  0  0  0  0  0  0  0  0  0  0  0
   -1.8760   20.8225  -32.6620 H   0  0  0  0  0  0  0  0  0  0  0  0
   -1.1601   20.2784  -34.2171 H   0  0  0  0  0  0  0  0  0  0  0  0
   -2.5359   21.4333  -34.2171 H   0  0  0  0  0  0  0  0  0  0  0  0
  1  2  1  0
  2  3  1  0
  3  4  1  0
  4  5  1  0
  3  6  1  0
  6  7  1  0
  7  8  1  0
  8  9  1  0
  9 10  2  0
 10 11  1  0
 11 12  2  0
 12 13  1  0
 13 14  2  0
 14 15  1  0
 15 16  2  0
 16 17  1  0
 16 18  1  0
 18 19  1  0
 19 20  2  0
 20 21  1  0
 21 22  2  0
 22 23  1  0
 23 24  2  0
 24 25  1  0
 25 26  1  0
 25 27  1  0
 27  9  1  0
 15 10  1  0
 27 18  2  0
 24 19  1  0
  1 28  1  0
  1 29  1  0
  1 30  1  0
  2 31  1  0
  2 32  1  0
  4 33  1  0
  4 34  1  0
  5 35  1  0
  5 36  1  0
  5 37  1  0
  6 38  1  0
  6 39  1  0
  7 40  1  0
  7 41  1  0
  8 42  1  0
 11 43  1  0
 12 44  1  0
 13 45  1  0
 14 46  1  0
 17 47  1  0
 17 48  1  0
 17 49  1  0
 20 50  1  0
 21 51  1  0
 22 52  1  0
 23 53  1  0
 26 54  1  0
 26 55  1  0
 26 56  1  0
M  CHG  1  16   1
M  END
>  <UniqueID>  (40) 
40

>  <SMILES>  (40) 
CCN(CC)CCNc1c2ccccc2[n+](C)c2c3ccccc3n(C)c12

>  <Energy>  (40) 
122.5410627149175

>  <Genealogy>  (40) 
CCN(CC)CCNc1c2ccccc2[n+](C)c2c3ccccc3n(C)c12 (3D coordinates assigned)
CCN(CC)CCNc1c2ccccc2[n+](C)c2c3ccccc3n(C)c12 (optimized conformer: 122.5410627149175 kcal/mol)

>  <smiles>  (40) 
CCN(CC)CCNc1c2ccccc2[n+](C)c2c3ccccc3n(C)c12

>  <score_type>  (40) 
oracle

>  <origin>  (40) 
adg

>  <m_score__min__energy>  (40) 
-8.9600000000000009

>  <m_primary>  (40) 
energy

$$$$
40:0
     RDKit          3D

 50 51  0  0  0  0  0  0  0  0999 V2000
   -2.6370   20.2810  -33.1290 C   0  0  0  0  0  0  0  0  0  0  0  0
   -4.0210   20.8260  -33.4760 C   0  0  0  0  0  0  0  0  0  0  0  0
   -5.0520   19.7210  -33.4770 C   0  0  0  0  0  0  0  0  0  0  0  0
   -4.7980   18.5560  -34.2250 C   0  0  0  0  0  0  0  0  0  0  0  0
   -5.6970   17.4900  -34.2120 C   0  0  0  0  0  0  0  0  0  0  0  0
   -6.8580   17.5670  -33.4430 C   0  0  0  0  0  0  0  0  0  0  0  0
   -7.1180   18.7060  -32.6770 C   0  0  0  0  0  0  0  0  0  0  0  0
   -6.2180   19.7880  -32.6770 C   0  0  0  0  0  0  0  0  0  0  0  0
   -6.5210   20.9660  -31.9100 N   0  0  0  0  0  0  0  0  0  0  0  0
   -7.8260   21.5610  -31.8650 C   0  0  0  0  0  0  0  0  0  0  0  0
   -8.8160   20.9660  -32.3640 O   0  0  0  0  0  0  0  0  0  0  0  0
   -8.0380   22.8590  -31.1480 C   0  0  0  0  0  0  0  0  0  0  0  0
   -6.8830   23.2000  -30.3870 O   0  0  0  0  0  0  0  0  0  0  0  0
   -5.7770   23.8710  -30.9230 C   0  0  0  0  0  0  0  0  0  0  0  0
   -5.1960   23.4390  -31.9550 O   0  0  0  0  0  0  0  0  0  0  0  0
   -5.3030   25.1300  -30.2750 C   0  0  0  0  0  0  0  0  0  0  0  0
   -3.8710   25.2750  -30.4860 N   0  0  0  0  0  0  0  0  0  0  0  0
   -2.9000   24.6630  -29.6320 C   0  0  0  0  0  0  0  0  0  0  0  0
   -1.8610   25.2950  -29.2990 O   0  0  0  0  0  0  0  0  0  0  0  0
   -3.1530   23.2820  -29.0910 C   0  0  0  0  0  0  0  0  0  0  0  0
   -2.7620   22.2040  -30.1160 C   0  0  0  0  0  0  0  0  0  0  0  0
   -3.1120   20.7850  -29.6180 C   0  0  0  0  0  0  0  0  0  0  0  0
   -3.1080   20.6540  -28.0820 C   0  0  0  0  0  0  0  0  0  0  0  0
   -2.0920   21.6010  -27.4370 C   0  0  0  0  0  0  0  0  0  0  0  0
   -2.4070   23.0790  -27.7490 C   0  0  0  0  0  0  0  0  0  0  0  0
   -2.5240   20.2365  -32.0357 H   0  0  0  0  0  0  0  0  0  0  0  0
   -2.5242   19.2713  -33.5507 H   0  0  0  0  0  0  0  0  0  0  0  0
   -1.8661   20.9427  -33.5507 H   0  0  0  0  0  0  0  0  0  0  0  0
   -4.3064   21.5840  -32.7317 H   0  0  0  0  0  0  0  0  0  0  0  0
   -3.9814   21.2701  -34.4816 H   0  0  0  0  0  0  0  0  0  0  0  0
   -3.8798   18.4856  -34.8267 H   0  0  0  0  0  0  0  0  0  0  0  0
   -5.4905   16.5888  -34.8080 H   0  0  0  0  0  0  0  0  0  0  0  0
   -7.5706   16.7290  -33.4396 H   0  0  0  0  0  0  0  0  0  0  0  0
   -8.0333   18.7576  -32.0691 H   0  0  0  0  0  0  0  0  0  0  0  0
   -5.7590   21.4140  -31.3560 H   0  0  0  0  0  0  0  0  0  0  0  0
   -8.2340   23.6522  -31.8845 H   0  0  0  0  0  0  0  0  0  0  0  0
   -8.8959   22.7549  -30.4675 H   0  0  0  0  0  0  0  0  0  0  0  0
   -5.8276   25.9898  -30.7171 H   0  0  0  0  0  0  0  0  0  0  0  0
   -5.5121   25.0880  -29.1959 H   0  0  0  0  0  0  0  0  0  0  0  0
   -4.2316   23.1795  -28.9007 H   0  0  0  0  0  0  0  0  0  0  0  0
   -3.3008   22.3944  -31.0559 H   0  0  0  0  0  0  0  0  0  0  0  0
   -1.6736   22.2545  -30.2668 H   0  0  0  0  0  0  0  0  0  0  0  0
   -4.1148   20.5239  -29.9871 H   0  0  0  0  0  0  0  0  0  0  0  0
   -2.3362   20.1066  -30.0026 H   0  0  0  0  0  0  0  0  0  0  0  0
   -4.1115   20.8941  -27.7008 H   0  0  0  0  0  0  0  0  0  0  0  0
   -2.8265   19.6219  -27.8259 H   0  0  0  0  0  0  0  0  0  0  0  0
   -2.1117   21.4553  -26.3469 H   0  0  0  0  0  0  0  0  0  0  0  0
   -1.0989   21.3689  -27.8493 H   0  0  0  0  0  0  0  0  0  0  0  0
   -3.0332   23.4801  -26.9385 H   0  0  0  0  0  0  0  0  0  0  0  0
   -1.4441   23.6045  -27.8315 H   0  0  0  0  0  0  0  0  0  0  0  0
  1  2  1  0
  2  3  1  0
  3  4  2  0
  4  5  1  0
  5  6  2  0
  6  7  1  0
  7  8  2  0
  8  9  1  0
  9 10  1  0
 10 11  2  0
 10 12  1  0
 12 13  1  0
 13 14  1  0
 14 15  2  0
 14 16  1  0
 16 17  1  0
 17 18  1  0
 18 19  2  0
 18 20  1  0
 20 21  1  0
 21 22  1  0
 22 23  1  0
 23 24  1  0
 24 25  1  0
  8  3  1  0
 25 20  1  0
  1 26  1  0
  1 27  1  0
  1 28  1  0
  2 29  1  0
  2 30  1  0
  4 31  1  0
  5 32  1  0
  6 33  1  0
  7 34  1  0
  9 35  1  0
 12 36  1  0
 12 37  1  0
 16 38  1  0
 16 39  1  0
 20 40  1  0
 21 41  1  0
 21 42  1  0
 22 43  1  0
 22 44  1  0
 23 45  1  0
 23 46  1  0
 24 47  1  0
 24 48  1  0
 25 49  1  0
 25 50  1  0
M  CHG  1  17  -1
M  END
>  <UniqueID>  (41) 
41

>  <SMILES>  (41) 
CCc1ccccc1NC(=O)COC(=O)C[N-]C(=O)C1CCCCC1

>  <Energy>  (41) 
44.70307056330691

>  <Genealogy>  (41) 
CCc1ccccc1NC(=O)COC(=O)C[N-]C(=O)C1CCCCC1 (protonated)
CCc1ccccc1NC(=O)COC(=O)C[N-]C(=O)C1CCCCC1 (3D coordinates assigned)
CCc1ccccc1NC(=O)COC(=O)C[N-]C(=O)C1CCCCC1 (nonaromatic ring conformer: 44.70307056330691 kcal/mol)

>  <smiles>  (41) 
CCc1ccccc1NC(=O)COC(=O)CNC(=O)C1CCCCC1

>  <score_type>  (41) 
oracle

>  <origin>  (41) 
adg

>  <m_score__min__energy>  (41) 
-10.75

>  <m_primary>  (41) 
energy

$$$$
41:0
     RDKit          3D

 44 46  0  0  0  0  0  0  0  0999 V2000
   -4.3740   24.1820  -28.4840 C   0  0  0  0  0  0  0  0  0  0  0  0
   -4.9500   24.8900  -29.7180 C   0  0  0  0  0  0  0  0  0  0  0  0
   -4.6260   24.2390  -31.0130 N   0  0  0  0  0  0  0  0  0  0  0  0
   -3.6620   23.1380  -30.8460 C   0  0  0  0  0  0  0  0  0  0  0  0
   -5.8000   23.7910  -31.7930 C   0  0  0  0  0  0  0  0  0  0  0  0
   -7.1200   24.0680  -31.0520 C   0  0  0  0  0  0  0  0  0  0  0  0
   -7.5470   22.8820  -30.1740 C   0  0  0  0  0  0  0  0  0  0  0  0
   -8.4800   21.9980  -30.8760 N   0  0  0  0  0  0  0  0  0  0  0  0
   -8.0700   20.7910  -31.5450 C   0  0  0  0  0  0  0  0  0  0  0  0
   -9.0030   19.7340  -31.6930 C   0  0  0  0  0  0  0  0  0  0  0  0
   -8.6460   18.5390  -32.3400 C   0  0  0  0  0  0  0  0  0  0  0  0
   -7.3500   18.4200  -32.8330 C   0  0  0  0  0  0  0  0  0  0  0  0
   -6.4290   19.4430  -32.6950 C   0  0  0  0  0  0  0  0  0  0  0  0
   -6.7590   20.6380  -32.0580 C   0  0  0  0  0  0  0  0  0  0  0  0
   -5.1700   19.0170  -33.3110 C   0  0  0  0  0  0  0  0  0  0  0  0
   -3.9530   19.6870  -33.4300 C   0  0  0  0  0  0  0  0  0  0  0  0
   -2.8940   19.0280  -34.0800 C   0  0  0  0  0  0  0  0  0  0  0  0
   -3.0700   17.7250  -34.5940 C   0  0  0  0  0  0  0  0  0  0  0  0
   -4.3060   17.0660  -34.4630 C   0  0  0  0  0  0  0  0  0  0  0  0
   -5.3410   17.7380  -33.8140 C   0  0  0  0  0  0  0  0  0  0  0  0
   -6.7100   17.3130  -33.5370 C   0  0  0  0  0  0  0  0  0  0  0  0
   -7.2340   16.2100  -33.8440 O   0  0  0  0  0  0  0  0  0  0  0  0
   -4.7626   24.6597  -27.5725 H   0  0  0  0  0  0  0  0  0  0  0  0
   -4.6700   23.1227  -28.4976 H   0  0  0  0  0  0  0  0  0  0  0  0
   -3.2766   24.2563  -28.4976 H   0  0  0  0  0  0  0  0  0  0  0  0
   -6.0447   24.9224  -29.6149 H   0  0  0  0  0  0  0  0  0  0  0  0
   -4.4891   25.8883  -29.7475 H   0  0  0  0  0  0  0  0  0  0  0  0
   -3.4995   22.9524  -29.7740 H   0  0  0  0  0  0  0  0  0  0  0  0
   -4.0590   22.2280  -31.3196 H   0  0  0  0  0  0  0  0  0  0  0  0
   -2.7076   23.4113  -31.3196 H   0  0  0  0  0  0  0  0  0  0  0  0
   -5.8130   24.3249  -32.7546 H   0  0  0  0  0  0  0  0  0  0  0  0
   -5.7150   22.7048  -31.9441 H   0  0  0  0  0  0  0  0  0  0  0  0
   -6.9895   24.9539  -30.4132 H   0  0  0  0  0  0  0  0  0  0  0  0
   -7.9044   24.2327  -31.8054 H   0  0  0  0  0  0  0  0  0  0  0  0
   -6.6529   22.3061  -29.8930 H   0  0  0  0  0  0  0  0  0  0  0  0
   -8.0551   23.2797  -29.2831 H   0  0  0  0  0  0  0  0  0  0  0  0
   -9.4940   22.2540  -30.9070 H   0  0  0  0  0  0  0  0  0  0  0  0
  -10.0219   19.8512  -31.2953 H   0  0  0  0  0  0  0  0  0  0  0  0
   -9.3712   17.7197  -32.4538 H   0  0  0  0  0  0  0  0  0  0  0  0
   -6.0176   21.4442  -31.9560 H   0  0  0  0  0  0  0  0  0  0  0  0
   -3.8247   20.7024  -33.0269 H   0  0  0  0  0  0  0  0  0  0  0  0
   -1.9220   19.5313  -34.1886 H   0  0  0  0  0  0  0  0  0  0  0  0
   -2.2340   17.2210  -35.1010 H   0  0  0  0  0  0  0  0  0  0  0  0
   -4.4515   16.0508  -34.8607 H   0  0  0  0  0  0  0  0  0  0  0  0
  1  2  1  0
  2  3  1  0
  3  4  1  0
  3  5  1  0
  5  6  1  0
  6  7  1  0
  7  8  1  0
  8  9  1  0
  9 10  2  0
 10 11  1  0
 11 12  2  0
 12 13  1  0
 13 14  2  0
 13 15  1  0
 15 16  2  0
 16 17  1  0
 17 18  2  0
 18 19  1  0
 19 20  2  0
 20 21  1  0
 21 22  2  0
 14  9  1  0
 20 15  1  0
 21 12  1  0
  1 23  1  0
  1 24  1  0
  1 25  1  0
  2 26  1  0
  2 27  1  0
  4 28  1  0
  4 29  1  0
  4 30  1  0
  5 31  1  0
  5 32  1  0
  6 33  1  0
  6 34  1  0
  7 35  1  0
  7 36  1  0
  8 37  1  0
 10 38  1  0
 11 39  1  0
 14 40  1  0
 16 41  1  0
 17 42  1  0
 18 43  1  0
 19 44  1  0
M  END
>  <UniqueID>  (42) 
42

>  <SMILES>  (42) 
CCN(C)CCCNc1ccc2c(c1)-c1ccccc1C2=O

>  <Energy>  (42) 
78.32849957594868

>  <Genealogy>  (42) 
CCN(C)CCCNc1ccc2c(c1)-c1ccccc1C2=O (3D coordinates assigned)
CCN(C)CCCNc1ccc2c(c1)-c1ccccc1C2=O (nonaromatic ring conformer: 78.32849957594868 kcal/mol)

>  <smiles>  (42) 
CCN(C)CCCNc1ccc2c(c1)-c1ccccc1C2=O

>  <score_type>  (42) 
oracle

>  <origin>  (42) 
adg

>  <m_score__min__energy>  (42) 
-8.3000000000000007

>  <m_primary>  (42) 
energy

$$$$
42:0
     RDKit          3D

 43 47  0  0  1  0  0  0  0  0999 V2000
    0.3870   20.4320  -33.1140 C   0  0  0  0  0  0  0  0  0  0  0  0
    0.1060   20.7770  -31.8060 C   0  0  0  0  0  0  0  0  0  0  0  0
   -1.1230   21.3180  -31.4440 C   0  0  0  0  0  0  0  0  0  0  0  0
   -2.0930   21.5210  -32.3880 C   0  0  0  0  0  0  0  0  0  0  0  0
   -3.4040   22.0830  -32.0820 C   0  0  0  0  0  0  0  0  0  0  0  0
   -3.5200   23.0680  -31.1740 N   0  0  0  0  0  0  0  0  0  0  0  0
   -4.6740   23.6530  -30.8180 C   0  0  0  0  0  0  0  0  0  0  0  0
   -4.6510   24.6650  -29.8590 C   0  0  0  0  0  0  0  0  0  0  0  0
   -5.8460   25.2320  -29.5290 C   0  0  0  0  0  0  0  0  0  0  0  0
   -7.0210   24.8110  -30.1260 C   0  0  0  0  0  0  0  0  0  0  0  0
   -7.0440   23.8040  -31.0800 C   0  0  0  0  0  0  0  0  0  0  0  0
   -5.8410   23.2360  -31.4100 C   0  0  0  0  0  0  0  0  0  0  0  0
   -5.7220   22.2140  -32.3550 C   0  0  0  0  0  0  0  0  0  0  0  0
   -6.8270   21.8330  -32.9020 N   0  0  0  0  0  0  0  0  0  0  0  0
   -7.4700   20.6470  -32.4850 C   0  0  0  0  0  0  0  0  0  0  0  0
   -8.4840   20.6070  -31.5480 C   0  0  0  0  0  0  0  0  0  0  0  0
   -9.0730   19.4040  -31.1840 C   0  0  0  0  0  0  0  0  0  0  0  0
   -8.6160   18.2300  -31.7880 C   0  0  0  0  0  0  0  0  0  0  0  0
   -7.6040   18.2470  -32.7240 C   0  0  0  0  0  0  0  0  0  0  0  0
   -7.2180   17.0760  -33.2620 N   0  0  0  0  0  0  0  0  0  0  0  0
   -6.2190   17.0690  -34.1910 C   0  0  0  0  0  0  0  0  0  0  0  0
   -5.6070   18.2480  -34.5800 C   0  0  0  0  0  0  0  0  0  0  0  0
   -6.0180   19.4460  -34.0160 C   0  0  0  0  0  0  0  0  0  0  0  0
   -7.0250   19.4600  -33.0780 C   0  0  0  0  0  0  0  0  0  0  0  0
   -4.5380   21.6660  -32.6700 N   0  0  0  0  0  0  0  0  0  0  0  0
   -1.7970   21.1700  -33.6890 C   0  0  0  0  0  0  0  0  0  0  0  0
   -0.5880   20.6370  -34.0560 C   0  0  0  0  0  0  0  0  0  0  0  0
    1.3626   20.0061  -33.3911 H   0  0  0  0  0  0  0  0  0  0  0  0
    0.8724   20.6201  -31.0327 H   0  0  0  0  0  0  0  0  0  0  0  0
   -1.3163   21.5839  -30.3943 H   0  0  0  0  0  0  0  0  0  0  0  0
   -3.7110   24.9911  -29.3899 H   0  0  0  0  0  0  0  0  0  0  0  0
   -5.8765   26.0351  -28.7779 H   0  0  0  0  0  0  0  0  0  0  0  0
   -7.9674   25.2901  -29.8349 H   0  0  0  0  0  0  0  0  0  0  0  0
   -7.9834   23.4768  -31.5495 H   0  0  0  0  0  0  0  0  0  0  0  0
   -8.8298   21.5422  -31.0834 H   0  0  0  0  0  0  0  0  0  0  0  0
   -9.8805   19.3756  -30.4376 H   0  0  0  0  0  0  0  0  0  0  0  0
   -9.0745   17.2695  -31.5102 H   0  0  0  0  0  0  0  0  0  0  0  0
   -5.8963   16.1161  -34.6358 H   0  0  0  0  0  0  0  0  0  0  0  0
   -4.8021   18.2346  -35.3296 H   0  0  0  0  0  0  0  0  0  0  0  0
   -5.5378   20.3881  -34.3191 H   0  0  0  0  0  0  0  0  0  0  0  0
   -4.5230   20.9120  -33.3780 H   0  0  0  0  0  0  0  0  0  0  0  0
   -2.5624   21.3241  -34.4639 H   0  0  0  0  0  0  0  0  0  0  0  0
   -0.4002   20.3736  -35.1074 H   0  0  0  0  0  0  0  0  0  0  0  0
  1  2  2  0
  2  3  1  0
  3  4  2  0
  4  5  1  0
  5  6  2  0
  6  7  1  0
  7  8  2  0
  8  9  1  0
  9 10  2  0
 10 11  1  0
 11 12  2  0
 12 13  1  0
 13 14  2  0
 14 15  1  0
 15 16  2  0
 16 17  1  0
 17 18  2  0
 18 19  1  0
 19 20  2  0
 20 21  1  0
 21 22  2  0
 22 23  1  0
 23 24  2  0
 13 25  1  0
  4 26  1  0
 26 27  2  0
 27  1  1  0
 25  5  1  0
 12  7  1  0
 24 15  1  0
 24 19  1  0
  1 28  1  0
  2 29  1  0
  3 30  1  0
  8 31  1  0
  9 32  1  0
 10 33  1  0
 11 34  1  0
 16 35  1  0
 17 36  1  0
 18 37  1  0
 21 38  1  0
 22 39  1  0
 23 40  1  0
 25 41  1  0
 26 42  1  0
 27 43  1  0
M  END
>  <smiles>  (43) 
c1ccc(-c2nc3ccccc3c(=Nc3cccc4ncccc34)[nH]2)cc1

>  <score_type>  (43) 
oracle

>  <origin>  (43) 
adg

>  <m_score__min__energy>  (43) 
-9.8000000000000007

>  <m_primary>  (43) 
energy

$$$$
