0:0
     RDKit          3D

 48 50  0  0  0  0  0  0  0  0999 V2000
   -6.8850   25.4190  -29.6030 C   0  0  0  0  0  0  0  0  0  0  0  0
   -5.5190   24.9060  -29.9160 C   0  0  0  0  0  0  0  0  0  0  0  0
   -5.0540   23.6360  -29.6500 C   0  0  0  0  0  0  0  0  0  0  0  0
   -3.7400   23.6800  -30.0750 C   0  0  0  0  0  0  0  0  0  0  0  0
   -2.7450   22.5920  -30.0620 C   0  0  0  0  0  0  0  0  0  0  0  0
   -2.2230   22.2680  -31.1630 O   0  0  0  0  0  0  0  0  0  0  0  0
   -2.3220   21.9280  -28.8480 N   0  0  0  0  0  0  0  0  0  0  0  0
   -2.4620   22.5780  -27.5360 C   0  0  0  0  0  0  0  0  0  0  0  0
   -1.4150   22.0610  -26.5320 C   0  0  0  0  0  0  0  0  0  0  0  0
   -0.0960   21.8250  -27.1590 N   0  0  0  0  0  0  0  0  0  0  0  0
    0.8120   22.9940  -27.1790 C   0  0  0  0  0  0  0  0  0  0  0  0
    0.3840   24.1140  -26.2480 C   0  0  0  0  0  0  0  0  0  0  0  0
    0.0260   25.3030  -26.7970 N   0  0  0  0  0  0  0  0  0  0  0  0
   -0.3760   26.3640  -26.0520 C   0  0  0  0  0  0  0  0  0  0  0  0
   -0.7280   27.6470  -26.7470 C   0  0  0  0  0  0  0  0  0  0  0  0
   -0.4360   26.2300  -24.6540 C   0  0  0  0  0  0  0  0  0  0  0  0
   -0.8840   27.3700  -23.7790 C   0  0  0  0  0  0  0  0  0  0  0  0
   -0.0550   25.0490  -24.0880 N   0  0  0  0  0  0  0  0  0  0  0  0
    0.3670   23.9890  -24.8380 C   0  0  0  0  0  0  0  0  0  0  0  0
    0.8240   22.7350  -24.1410 C   0  0  0  0  0  0  0  0  0  0  0  0
   -0.1000   21.0010  -28.3950 C   0  0  0  0  0  0  0  0  0  0  0  0
   -1.5130   20.7070  -28.9160 C   0  0  0  0  0  0  0  0  0  0  0  0
   -3.4930   24.8810  -30.5480 O   0  0  0  0  0  0  0  0  0  0  0  0
   -4.5390   25.6510  -30.4580 N   0  0  0  0  0  0  0  0  0  0  0  0
   -7.0170   25.4686  -28.5121 H   0  0  0  0  0  0  0  0  0  0  0  0
   -7.0067   26.4241  -30.0331 H   0  0  0  0  0  0  0  0  0  0  0  0
   -7.6382   24.7425  -30.0331 H   0  0  0  0  0  0  0  0  0  0  0  0
   -5.5987   22.7899  -29.2057 H   0  0  0  0  0  0  0  0  0  0  0  0
   -2.3323   23.6633  -27.6598 H   0  0  0  0  0  0  0  0  0  0  0  0
   -3.4617   22.3440  -27.1413 H   0  0  0  0  0  0  0  0  0  0  0  0
   -1.2966   22.8057  -25.7311 H   0  0  0  0  0  0  0  0  0  0  0  0
   -1.7753   21.0985  -26.1397 H   0  0  0  0  0  0  0  0  0  0  0  0
    1.8164   22.6590  -26.8807 H   0  0  0  0  0  0  0  0  0  0  0  0
    0.7918   23.3998  -28.2012 H   0  0  0  0  0  0  0  0  0  0  0  0
   -0.9410   28.4235  -25.9976 H   0  0  0  0  0  0  0  0  0  0  0  0
    0.1157   27.9665  -27.3764 H   0  0  0  0  0  0  0  0  0  0  0  0
   -1.6166   27.4912  -27.3764 H   0  0  0  0  0  0  0  0  0  0  0  0
   -0.7726   27.0866  -22.7220 H   0  0  0  0  0  0  0  0  0  0  0  0
   -0.2675   28.2567  -23.9878 H   0  0  0  0  0  0  0  0  0  0  0  0
   -1.9393   27.5997  -23.9878 H   0  0  0  0  0  0  0  0  0  0  0  0
   -0.0800   24.9580  -23.0460 H   0  0  0  0  0  0  0  0  0  0  0  0
    0.7709   22.8807  -23.0520 H   0  0  0  0  0  0  0  0  0  0  0  0
    0.1736   21.8966  -24.4309 H   0  0  0  0  0  0  0  0  0  0  0  0
    1.8613   22.5116  -24.4309 H   0  0  0  0  0  0  0  0  0  0  0  0
    0.4567   21.5389  -29.1765 H   0  0  0  0  0  0  0  0  0  0  0  0
    0.3667   20.0360  -28.1482 H   0  0  0  0  0  0  0  0  0  0  0  0
   -1.4551   20.3630  -29.9592 H   0  0  0  0  0  0  0  0  0  0  0  0
   -1.9768   19.9245  -28.2975 H   0  0  0  0  0  0  0  0  0  0  0  0
  1  2  1  0
  2  3  1  0
  3  4  2  0
  4  5  1  0
  5  6  2  0
  5  7  1  0
  7  8  1  0
  8  9  1  0
  9 10  1  0
 10 11  1  0
 11 12  1  0
 12 13  2  0
 13 14  1  0
 14 15  1  0
 14 16  2  0
 16 17  1  0
 16 18  1  0
 18 19  2  0
 19 20  1  0
 10 21  1  0
 21 22  1  0
  4 23  1  0
 23 24  1  0
 24  2  2  0
 22  7  1  0
 19 12  1  0
  1 25  1  0
  1 26  1  0
  1 27  1  0
  3 28  1  0
  8 29  1  0
  8 30  1  0
  9 31  1  0
  9 32  1  0
 11 33  1  0
 11 34  1  0
 15 35  1  0
 15 36  1  0
 15 37  1  0
 17 38  1  0
 17 39  1  0
 17 40  1  0
 18 41  1  0
 20 42  1  0
 20 43  1  0
 20 44  1  0
 21 45  1  0
 21 46  1  0
 22 47  1  0
 22 48  1  0
M  CHG  1  18   1
M  END
>  <UniqueID>  (1) 
1

>  <SMILES>  (1) 
Cc1cc(C(=O)N2CCN(Cc3nc(C)c(C)[nH+]c3C)CC2)on1

>  <Energy>  (1) 
90.70462468889224

>  <Genealogy>  (1) 
Cc1cc(C(=O)N2CCN(Cc3nc(C)c(C)[nH+]c3C)CC2)on1 (protonated)
Cc1cc(C(=O)N2CCN(Cc3nc(C)c(C)[nH+]c3C)CC2)on1 (3D coordinates assigned)
Cc1cc(C(=O)N2CCN(Cc3nc(C)c(C)[nH+]c3C)CC2)on1 (nonaromatic ring conformer: 90.70462468889224 kcal/mol)

>  <smiles>  (1) 
Cc1cc(C(=O)N2CCN(Cc3nc(C)c(C)nc3C)CC2)on1

>  <score_type>  (1) 
oracle

>  <origin>  (1) 
adg

>  <m_score__min__energy>  (1) 
-8.2799999999999994

>  <m_primary>  (1) 
energy

$$$$
1:0
     RDKit          3D

 49 52  0  0  0  0  0  0  0  0999 V2000
   -9.8620   21.6010  -31.8950 C   0  0  0  0  0  0  0  0  0  0  0  0
   -8.7270   20.6370  -32.0260 C   0  0  0  0  0  0  0  0  0  0  0  0
   -8.9630   19.2600  -32.0320 C   0  0  0  0  0  0  0  0  0  0  0  0
   -7.8850   18.3820  -32.1340 C   0  0  0  0  0  0  0  0  0  0  0  0
   -6.5760   18.8770  -32.2240 C   0  0  0  0  0  0  0  0  0  0  0  0
   -6.3710   20.2740  -32.1740 C   0  0  0  0  0  0  0  0  0  0  0  0
   -7.4510   21.1000  -32.0890 N   0  0  0  0  0  0  0  0  0  0  0  0
   -5.0020   20.9140  -32.2600 C   0  0  0  0  0  0  0  0  0  0  0  0
   -4.1180   20.5630  -33.4880 C   0  0  0  0  0  0  0  0  0  0  0  0
   -3.5870   19.1830  -33.5140 N   0  0  0  0  0  0  0  0  0  0  0  0
   -2.4770   18.9240  -32.5760 C   0  0  0  0  0  0  0  0  0  0  0  0
   -2.0340   20.2120  -31.9530 C   0  0  0  0  0  0  0  0  0  0  0  0
   -2.5610   20.7380  -30.8330 N   0  0  0  0  0  0  0  0  0  0  0  0
   -1.8280   21.8500  -30.6010 C   0  0  0  0  0  0  0  0  0  0  0  0
   -2.0300   22.7830  -29.4660 C   0  0  0  0  0  0  0  0  0  0  0  0
   -3.1420   22.6730  -28.6090 C   0  0  0  0  0  0  0  0  0  0  0  0
   -3.3070   23.5670  -27.5460 C   0  0  0  0  0  0  0  0  0  0  0  0
   -2.3690   24.5780  -27.3280 C   0  0  0  0  0  0  0  0  0  0  0  0
   -1.2630   24.6980  -28.1720 C   0  0  0  0  0  0  0  0  0  0  0  0
   -1.0930   23.8060  -29.2350 C   0  0  0  0  0  0  0  0  0  0  0  0
   -0.8900   22.0130  -31.5110 O   0  0  0  0  0  0  0  0  0  0  0  0
   -0.9900   21.0160  -32.3580 C   0  0  0  0  0  0  0  0  0  0  0  0
   -0.0930   20.8060  -33.5330 C   0  0  0  0  0  0  0  0  0  0  0  0
   -4.6100   18.1120  -33.5850 C   0  0  0  0  0  0  0  0  0  0  0  0
   -5.4200   17.9210  -32.2900 C   0  0  0  0  0  0  0  0  0  0  0  0
  -10.0711   21.7786  -30.8298 H   0  0  0  0  0  0  0  0  0  0  0  0
   -9.5936   22.5514  -32.3794 H   0  0  0  0  0  0  0  0  0  0  0  0
  -10.7565   21.1823  -32.3794 H   0  0  0  0  0  0  0  0  0  0  0  0
   -9.9897   18.8723  -31.9570 H   0  0  0  0  0  0  0  0  0  0  0  0
   -8.0619   17.2964  -32.1439 H   0  0  0  0  0  0  0  0  0  0  0  0
   -5.1483   22.0042  -32.2611 H   0  0  0  0  0  0  0  0  0  0  0  0
   -4.4518   20.5118  -31.3966 H   0  0  0  0  0  0  0  0  0  0  0  0
   -4.7228   20.7110  -34.3948 H   0  0  0  0  0  0  0  0  0  0  0  0
   -3.2408   21.2241  -33.4287 H   0  0  0  0  0  0  0  0  0  0  0  0
   -2.8163   18.2344  -31.7890 H   0  0  0  0  0  0  0  0  0  0  0  0
   -1.6349   18.4741  -33.1223 H   0  0  0  0  0  0  0  0  0  0  0  0
   -3.3520   20.3480  -30.2770 H   0  0  0  0  0  0  0  0  0  0  0  0
   -3.8851   21.8795  -28.7765 H   0  0  0  0  0  0  0  0  0  0  0  0
   -4.1777   23.4734  -26.8803 H   0  0  0  0  0  0  0  0  0  0  0  0
   -2.5012   25.2799  -26.4915 H   0  0  0  0  0  0  0  0  0  0  0  0
   -0.5248   25.4952  -28.0003 H   0  0  0  0  0  0  0  0  0  0  0  0
   -0.2194   23.9051  -29.8960 H   0  0  0  0  0  0  0  0  0  0  0  0
    0.9219   20.5684  -33.1817 H   0  0  0  0  0  0  0  0  0  0  0  0
   -0.4748   19.9729  -34.1415 H   0  0  0  0  0  0  0  0  0  0  0  0
   -0.0653   21.7219  -34.1415 H   0  0  0  0  0  0  0  0  0  0  0  0
   -5.3108   18.3586  -34.3962 H   0  0  0  0  0  0  0  0  0  0  0  0
   -4.0681   17.1706  -33.7586 H   0  0  0  0  0  0  0  0  0  0  0  0
   -5.8044   16.8909  -32.2564 H   0  0  0  0  0  0  0  0  0  0  0  0
   -4.7577   18.1172  -31.4339 H   0  0  0  0  0  0  0  0  0  0  0  0
  1  2  1  0
  2  3  2  0
  3  4  1  0
  4  5  2  0
  5  6  1  0
  6  7  2  0
  6  8  1  0
  8  9  1  0
  9 10  1  0
 10 11  1  0
 11 12  1  0
 12 13  1  0
 13 14  2  0
 14 15  1  0
 15 16  2  0
 16 17  1  0
 17 18  2  0
 18 19  1  0
 19 20  2  0
 14 21  1  0
 21 22  1  0
 22 23  1  0
 10 24  1  0
 24 25  1  0
  7  2  1  0
 22 12  2  0
 25  5  1  0
 20 15  1  0
  1 26  1  0
  1 27  1  0
  1 28  1  0
  3 29  1  0
  4 30  1  0
  8 31  1  0
  8 32  1  0
  9 33  1  0
  9 34  1  0
 11 35  1  0
 11 36  1  0
 13 37  1  0
 16 38  1  0
 17 39  1  0
 18 40  1  0
 19 41  1  0
 20 42  1  0
 23 43  1  0
 23 44  1  0
 23 45  1  0
 24 46  1  0
 24 47  1  0
 25 48  1  0
 25 49  1  0
M  CHG  1  13   1
M  END
>  <UniqueID>  (2) 
2

>  <SMILES>  (2) 
Cc1ccc2c(n1)CCN(Cc1[nH+]c(-c3ccccc3)oc1C)CC2

>  <Energy>  (2) 
97.15852062429002

>  <Genealogy>  (2) 
Cc1ccc2c(n1)CCN(Cc1[nH+]c(-c3ccccc3)oc1C)CC2 (protonated)
Cc1ccc2c(n1)CCN(Cc1[nH+]c(-c3ccccc3)oc1C)CC2 (3D coordinates assigned)
Cc1ccc2c(n1)CCN(Cc1[nH+]c(-c3ccccc3)oc1C)CC2 (nonaromatic ring conformer: 97.15852062429002 kcal/mol)

>  <smiles>  (2) 
Cc1ccc2c(n1)CCN(Cc1nc(-c3ccccc3)oc1C)CC2

>  <score_type>  (2) 
oracle

>  <origin>  (2) 
adg

>  <m_score__min__energy>  (2) 
-7.0099999999999998

>  <m_primary>  (2) 
energy

$$$$
2:0
     RDKit          3D

 43 45  0  0  0  0  0  0  0  0999 V2000
   -3.7300   15.6750  -35.2910 C   0  0  0  0  0  0  0  0  0  0  0  0
   -3.8900   16.9530  -34.5310 C   0  0  0  0  0  0  0  0  0  0  0  0
   -5.1190   17.2830  -33.9520 C   0  0  0  0  0  0  0  0  0  0  0  0
   -5.2660   18.4970  -33.2630 C   0  0  0  0  0  0  0  0  0  0  0  0
   -6.5980   18.8490  -32.7140 C   0  0  0  0  0  0  0  0  0  0  0  0
   -7.4990   17.8420  -32.3320 C   0  0  0  0  0  0  0  0  0  0  0  0
   -8.7480   18.1770  -31.8090 C   0  0  0  0  0  0  0  0  0  0  0  0
   -9.1130   19.5190  -31.6620 C   0  0  0  0  0  0  0  0  0  0  0  0
   -8.2310   20.5420  -32.0530 C   0  0  0  0  0  0  0  0  0  0  0  0
   -8.6010   21.9890  -31.8490 C   0  0  0  0  0  0  0  0  0  0  0  0
   -9.8560   22.2170  -32.3800 F   0  0  0  0  0  0  0  0  0  0  0  0
   -7.6880   22.8210  -32.4720 F   0  0  0  0  0  0  0  0  0  0  0  0
   -8.6180   22.3000  -30.5000 F   0  0  0  0  0  0  0  0  0  0  0  0
   -6.9620   20.1960  -32.5550 C   0  0  0  0  0  0  0  0  0  0  0  0
   -4.1520   19.3650  -33.1510 C   0  0  0  0  0  0  0  0  0  0  0  0
   -4.2040   20.6280  -32.3760 C   0  0  0  0  0  0  0  0  0  0  0  0
   -4.5480   21.8330  -33.0080 C   0  0  0  0  0  0  0  0  0  0  0  0
   -4.6070   23.0230  -32.2760 C   0  0  0  0  0  0  0  0  0  0  0  0
   -4.3210   23.0230  -30.9050 C   0  0  0  0  0  0  0  0  0  0  0  0
   -4.3840   24.5230  -29.9870 S   0  0  0  0  0  0  0  0  0  0  0  0
   -6.0590   24.8340  -29.4780 C   0  0  0  0  0  0  0  0  0  0  0  0
   -3.5020   24.4170  -28.7750 O   0  0  0  0  0  0  0  0  0  0  0  0
   -3.8970   25.6620  -30.8390 O   0  0  0  0  0  0  0  0  0  0  0  0
   -3.9570   21.8260  -30.2740 C   0  0  0  0  0  0  0  0  0  0  0  0
   -3.8970   20.6360  -31.0040 C   0  0  0  0  0  0  0  0  0  0  0  0
   -2.9460   18.9960  -33.7690 C   0  0  0  0  0  0  0  0  0  0  0  0
   -2.8440   17.8160  -34.4330 N   0  0  0  0  0  0  0  0  0  0  0  0
   -3.6253   14.8387  -34.5842 H   0  0  0  0  0  0  0  0  0  0  0  0
   -4.6147   15.5116  -35.9239 H   0  0  0  0  0  0  0  0  0  0  0  0
   -2.8323   15.7347  -35.9239 H   0  0  0  0  0  0  0  0  0  0  0  0
   -5.9704   16.5916  -34.0364 H   0  0  0  0  0  0  0  0  0  0  0  0
   -7.2187   16.7844  -32.4457 H   0  0  0  0  0  0  0  0  0  0  0  0
   -9.4483   17.3828  -31.5111 H   0  0  0  0  0  0  0  0  0  0  0  0
  -10.0952   19.7756  -31.2383 H   0  0  0  0  0  0  0  0  0  0  0  0
   -6.2486   20.9885  -32.8253 H   0  0  0  0  0  0  0  0  0  0  0  0
   -4.7724   21.8414  -34.0848 H   0  0  0  0  0  0  0  0  0  0  0  0
   -4.8791   23.9627  -32.7789 H   0  0  0  0  0  0  0  0  0  0  0  0
   -6.1125   24.8439  -28.3793 H   0  0  0  0  0  0  0  0  0  0  0  0
   -6.3864   25.8083  -29.8699 H   0  0  0  0  0  0  0  0  0  0  0  0
   -6.7143   24.0422  -29.8699 H   0  0  0  0  0  0  0  0  0  0  0  0
   -3.7177   21.8231  -29.2004 H   0  0  0  0  0  0  0  0  0  0  0  0
   -3.6080   19.7005  -30.5026 H   0  0  0  0  0  0  0  0  0  0  0  0
   -2.0771   19.6683  -33.7147 H   0  0  0  0  0  0  0  0  0  0  0  0
  1  2  1  0
  2  3  2  0
  3  4  1  0
  4  5  1  0
  5  6  2  0
  6  7  1  0
  7  8  2  0
  8  9  1  0
  9 10  1  0
 10 11  1  0
 10 12  1  0
 10 13  1  0
  9 14  2  0
  4 15  2  0
 15 16  1  0
 16 17  2  0
 17 18  1  0
 18 19  2  0
 19 20  1  0
 20 21  1  0
 20 22  2  0
 20 23  2  0
 19 24  1  0
 24 25  2  0
 15 26  1  0
 26 27  2  0
 27  2  1  0
 14  5  1  0
 25 16  1  0
  1 28  1  0
  1 29  1  0
  1 30  1  0
  3 31  1  0
  6 32  1  0
  7 33  1  0
  8 34  1  0
 14 35  1  0
 17 36  1  0
 18 37  1  0
 21 38  1  0
 21 39  1  0
 21 40  1  0
 24 41  1  0
 25 42  1  0
 26 43  1  0
M  END
>  <UniqueID>  (3) 
3

>  <SMILES>  (3) 
Cc1cc(-c2cccc(C(F)(F)F)c2)c(-c2ccc(S(C)(=O)=O)cc2)cn1

>  <Energy>  (3) 
55.051467827244046

>  <Genealogy>  (3) 
Cc1cc(-c2cccc(C(F)(F)F)c2)c(-c2ccc(S(C)(=O)=O)cc2)cn1 (3D coordinates assigned)
Cc1cc(-c2cccc(C(F)(F)F)c2)c(-c2ccc(S(C)(=O)=O)cc2)cn1 (optimized conformer: 55.051467827244046 kcal/mol)

>  <smiles>  (3) 
Cc1cc(-c2cccc(C(F)(F)F)c2)c(-c2ccc(S(C)(=O)=O)cc2)cn1

>  <score_type>  (3) 
oracle

>  <origin>  (3) 
adg

>  <m_score__min__energy>  (3) 
-9.4000000000000004

>  <m_primary>  (3) 
energy

$$$$
3:0
     RDKit          3D

 37 40  0  0  0  0  0  0  0  0999 V2000
   -4.0410   21.2390  -30.4800 H   0  0  0  0  0  0  0  0  0  0  0  0
   -4.1200   21.8260  -29.6590 O   0  0  0  0  0  0  0  0  0  0  0  0
   -3.6600   23.1390  -29.6800 C   0  0  0  0  0  0  0  0  0  0  0  0
   -2.5560   23.5570  -29.0380 N   0  0  0  0  0  0  0  0  0  0  0  0
   -2.5170   24.8700  -29.3440 C   0  0  0  0  0  0  0  0  0  0  0  0
   -1.6120   25.6370  -28.9250 O   0  0  0  0  0  0  0  0  0  0  0  0
   -3.5240   25.2980  -30.1350 N   0  0  0  0  0  0  0  0  0  0  0  0
   -4.2520   24.1860  -30.3460 C   0  0  0  0  0  0  0  0  0  0  0  0
   -5.4840   24.0980  -31.1590 C   0  0  0  0  0  0  0  0  0  0  0  0
   -6.0405   25.0304  -31.3348 H   0  0  0  0  0  0  0  0  0  0  0  0
   -5.9790   22.9740  -31.7000 C   0  0  0  0  0  0  0  0  0  0  0  0
   -7.2980   22.5110  -31.7780 C   0  0  0  0  0  0  0  0  0  0  0  0
   -8.1775   23.0388  -31.3806 H   0  0  0  0  0  0  0  0  0  0  0  0
   -7.3300   21.3140  -32.4170 N   0  0  0  0  0  0  0  0  0  0  0  0
   -6.0820   21.0180  -32.7360 N   0  0  0  0  0  0  0  0  0  0  0  0
   -5.6270   19.9180  -33.3850 C   0  0  0  0  0  0  0  0  0  0  0  0
   -6.4670   18.9970  -33.7730 N   0  0  0  0  0  0  0  0  0  0  0  0
   -7.2040   17.9470  -33.0430 C   0  0  0  0  0  0  0  0  0  0  0  0
   -7.1737   17.2454  -33.8896 H   0  0  0  0  0  0  0  0  0  0  0  0
   -6.9530   17.8340  -31.5480 C   0  0  0  0  0  0  0  0  0  0  0  0
   -6.9304   16.8451  -31.0667 H   0  0  0  0  0  0  0  0  0  0  0  0
   -6.1692   18.1854  -30.8609 H   0  0  0  0  0  0  0  0  0  0  0  0
   -8.2760   18.4040  -32.0660 C   0  0  0  0  0  0  0  0  0  0  0  0
   -9.2051   17.8252  -31.9575 H   0  0  0  0  0  0  0  0  0  0  0  0
   -8.8389   19.3355  -31.9064 H   0  0  0  0  0  0  0  0  0  0  0  0
   -4.2840   19.8270  -33.6070 N   0  0  0  0  0  0  0  0  0  0  0  0
   -3.4320   20.8110  -33.1880 C   0  0  0  0  0  0  0  0  0  0  0  0
   -2.0640   20.6780  -33.4340 O   0  0  0  0  0  0  0  0  0  0  0  0
   -1.0710   21.2490  -32.5890 C   0  0  0  0  0  0  0  0  0  0  0  0
   -1.1093   22.3455  -32.6681 H   0  0  0  0  0  0  0  0  0  0  0  0
   -0.0778   20.8921  -32.8993 H   0  0  0  0  0  0  0  0  0  0  0  0
   -1.3290   20.8360  -31.1480 C   0  0  0  0  0  0  0  0  0  0  0  0
   -0.8706   21.5697  -30.4686 H   0  0  0  0  0  0  0  0  0  0  0  0
   -2.4132   20.7957  -30.9666 H   0  0  0  0  0  0  0  0  0  0  0  0
   -0.8897   19.8440  -30.9666 H   0  0  0  0  0  0  0  0  0  0  0  0
   -3.9210   21.9080  -32.5360 N   0  0  0  0  0  0  0  0  0  0  0  0
   -5.2560   21.9810  -32.3250 C   0  0  0  0  0  0  0  0  0  0  0  0
  1  2  1  0
  2  3  1  0
  3  4  1  0
  4  5  1  0
  5  6  2  0
  5  7  1  0
  7  8  1  0
  8  9  1  0
  9 10  1  0
  9 11  2  0
 11 12  1  0
 12 13  1  0
 12 14  2  0
 14 15  1  0
 15 16  1  0
 16 17  2  3
 17 18  1  0
 18 19  1  0
 18 20  1  0
 20 21  1  0
 20 22  1  0
 20 23  1  0
 23 24  1  0
 23 25  1  0
 16 26  1  0
 26 27  2  0
 27 28  1  0
 28 29  1  0
 29 30  1  0
 29 31  1  0
 29 32  1  0
 32 33  1  0
 32 34  1  0
 32 35  1  0
 27 36  1  0
 36 37  2  0
  8  3  2  0
 37 11  1  0
 37 15  1  0
 23 18  1  0
M  CHG  2   4  -1   7  -1
M  END
>  <UniqueID>  (4) 
4

>  <SMILES>  (4) 
CCOc1nc(=NC2CC2)n2nc/c(=C\c3[n-]c(=O)[n-]c3O)c2n1

>  <Energy>  (4) 
379.41457534900894

>  <Genealogy>  (4) 
CCOc1nc(=NC2CC2)n2ncc(=Cc3[n-]c(=O)[n-]c3O)c2n1 (protonated)
CCOc1nc(=NC2CC2)n2nc/c(=C\c3[n-]c(=O)[n-]c3O)c2n1 (cis-trans isomerization)
CCOc1nc(=NC2CC2)n2nc/c(=C\c3[n-]c(=O)[n-]c3O)c2n1 (3D coordinates assigned)
CCOc1nc(=NC2CC2)n2nc/c(=C\c3[n-]c(=O)[n-]c3O)c2n1 (nonaromatic ring conformer: 379.41457534900894 kcal/mol)

>  <smiles>  (4) 
CCOc1nc(=NC2CC2)n2ncc(=Cc3[nH]c(=O)[nH]c3O)c2n1

>  <score_type>  (4) 
oracle

>  <origin>  (4) 
adg

>  <m_score__min__energy>  (4) 
-9.3699999999999992

>  <m_primary>  (4) 
energy

$$$$
4:0
     RDKit          3D

 49 51  0  0  0  0  0  0  0  0999 V2000
   -1.9260   24.7650  -28.5110 C   0  0  0  0  0  0  0  0  0  0  0  0
   -2.6480   24.8820  -29.7320 O   0  0  0  0  0  0  0  0  0  0  0  0
   -3.4640   23.8750  -30.2730 C   0  0  0  0  0  0  0  0  0  0  0  0
   -3.0320   22.5400  -30.3760 C   0  0  0  0  0  0  0  0  0  0  0  0
   -3.8710   21.5650  -30.9160 C   0  0  0  0  0  0  0  0  0  0  0  0
   -5.1610   21.8960  -31.3600 C   0  0  0  0  0  0  0  0  0  0  0  0
   -6.0350   20.8420  -31.9340 C   0  0  0  0  0  0  0  0  0  0  0  0
   -7.2660   20.5020  -31.3470 C   0  0  0  0  0  0  0  0  0  0  0  0
   -8.0470   19.4980  -31.9240 C   0  0  0  0  0  0  0  0  0  0  0  0
   -7.5990   18.8320  -33.0630 C   0  0  0  0  0  0  0  0  0  0  0  0
   -6.3580   19.1720  -33.6100 C   0  0  0  0  0  0  0  0  0  0  0  0
   -5.7270   18.3390  -35.0730 S   0  0  0  0  0  0  0  0  0  0  0  0
   -4.8440   17.0710  -34.1400 C   0  0  0  0  0  0  0  0  0  0  0  0
   -5.6090   16.0080  -33.6320 C   0  0  0  0  0  0  0  0  0  0  0  0
   -5.0060   14.9590  -32.9400 C   0  0  0  0  0  0  0  0  0  0  0  0
   -3.6320   14.9700  -32.7240 C   0  0  0  0  0  0  0  0  0  0  0  0
   -2.8600   16.0420  -33.1730 C   0  0  0  0  0  0  0  0  0  0  0  0
   -3.4440   17.1190  -33.8740 C   0  0  0  0  0  0  0  0  0  0  0  0
   -2.5490   18.3150  -34.1940 C   0  0  0  0  0  0  0  0  0  0  0  0
   -2.5420   19.3880  -33.1010 C   0  0  0  0  0  0  0  0  0  0  0  0
   -1.1280   17.8750  -34.5720 C   0  0  0  0  0  0  0  0  0  0  0  0
   -5.6230   20.1670  -33.0430 N   0  0  0  0  0  0  0  0  0  0  0  0
   -5.5870   23.2340  -31.2700 C   0  0  0  0  0  0  0  0  0  0  0  0
   -4.7450   24.2240  -30.7240 C   0  0  0  0  0  0  0  0  0  0  0  0
   -5.1450   25.5660  -30.6160 O   0  0  0  0  0  0  0  0  0  0  0  0
   -6.1400   26.0430  -29.7170 C   0  0  0  0  0  0  0  0  0  0  0  0
   -2.6182   24.8772  -27.6635 H   0  0  0  0  0  0  0  0  0  0  0  0
   -1.4446   23.7771  -28.4629 H   0  0  0  0  0  0  0  0  0  0  0  0
   -1.1572   25.5503  -28.4629 H   0  0  0  0  0  0  0  0  0  0  0  0
   -2.0258   22.2631  -30.0283 H   0  0  0  0  0  0  0  0  0  0  0  0
   -3.5181   20.5261  -30.9947 H   0  0  0  0  0  0  0  0  0  0  0  0
   -7.6113   21.0220  -30.4412 H   0  0  0  0  0  0  0  0  0  0  0  0
   -9.0172   19.2327  -31.4786 H   0  0  0  0  0  0  0  0  0  0  0  0
   -8.2149   18.0474  -33.5267 H   0  0  0  0  0  0  0  0  0  0  0  0
   -6.6987   16.0034  -33.7823 H   0  0  0  0  0  0  0  0  0  0  0  0
   -5.6158   14.1237  -32.5653 H   0  0  0  0  0  0  0  0  0  0  0  0
   -3.1527   14.1313  -32.1978 H   0  0  0  0  0  0  0  0  0  0  0  0
   -1.7776   16.0479  -32.9773 H   0  0  0  0  0  0  0  0  0  0  0  0
   -2.9979   18.7957  -35.0757 H   0  0  0  0  0  0  0  0  0  0  0  0
   -2.5452   18.9048  -32.1128 H   0  0  0  0  0  0  0  0  0  0  0  0
   -1.6398   20.0090  -33.2026 H   0  0  0  0  0  0  0  0  0  0  0  0
   -3.4360   20.0208  -33.2026 H   0  0  0  0  0  0  0  0  0  0  0  0
   -0.5445   17.6943  -33.6572 H   0  0  0  0  0  0  0  0  0  0  0  0
   -1.1762   16.9497  -35.1649 H   0  0  0  0  0  0  0  0  0  0  0  0
   -0.6449   18.6656  -35.1649 H   0  0  0  0  0  0  0  0  0  0  0  0
   -6.5889   23.5108  -31.6300 H   0  0  0  0  0  0  0  0  0  0  0  0
   -5.8056   25.8827  -28.6814 H   0  0  0  0  0  0  0  0  0  0  0  0
   -6.3034   27.1174  -29.8874 H   0  0  0  0  0  0  0  0  0  0  0  0
   -7.0799   25.4976  -29.8874 H   0  0  0  0  0  0  0  0  0  0  0  0
  1  2  1  0
  2  3  1  0
  3  4  2  0
  4  5  1  0
  5  6  2  0
  6  7  1  0
  7  8  2  0
  8  9  1  0
  9 10  2  0
 10 11  1  0
 11 12  1  0
 12 13  1  0
 13 14  2  0
 14 15  1  0
 15 16  2  0
 16 17  1  0
 17 18  2  0
 18 19  1  0
 19 20  1  0
 19 21  1  0
 11 22  2  0
  6 23  1  0
 23 24  2  0
 24 25  1  0
 25 26  1  0
 24  3  1  0
 22  7  1  0
 18 13  1  0
  1 27  1  0
  1 28  1  0
  1 29  1  0
  4 30  1  0
  5 31  1  0
  8 32  1  0
  9 33  1  0
 10 34  1  0
 14 35  1  0
 15 36  1  0
 16 37  1  0
 17 38  1  0
 19 39  1  0
 20 40  1  0
 20 41  1  0
 20 42  1  0
 21 43  1  0
 21 44  1  0
 21 45  1  0
 23 46  1  0
 26 47  1  0
 26 48  1  0
 26 49  1  0
M  END
>  <UniqueID>  (5) 
5

>  <SMILES>  (5) 
COc1ccc(-c2cccc(Sc3ccccc3C(C)C)n2)cc1OC

>  <Energy>  (5) 
53.527730927363436

>  <Genealogy>  (5) 
COc1ccc(-c2cccc(Sc3ccccc3C(C)C)n2)cc1OC (3D coordinates assigned)
COc1ccc(-c2cccc(Sc3ccccc3C(C)C)n2)cc1OC (optimized conformer: 53.527730927363436 kcal/mol)

>  <smiles>  (5) 
COc1ccc(-c2cccc(Sc3ccccc3C(C)C)n2)cc1OC

>  <score_type>  (5) 
oracle

>  <origin>  (5) 
adg

>  <m_score__min__energy>  (5) 
-9.1999999999999993

>  <m_primary>  (5) 
energy

$$$$
5:0
     RDKit          3D

 37 40  0  0  0  0  0  0  0  0999 V2000
   -5.7130   26.1060  -30.1080 C   0  0  0  0  0  0  0  0  0  0  0  0
   -5.3080   24.7900  -30.6790 C   0  0  0  0  0  0  0  0  0  0  0  0
   -6.1970   23.8190  -31.0190 N   0  0  0  0  0  0  0  0  0  0  0  0
   -5.3700   22.8350  -31.4140 C   0  0  0  0  0  0  0  0  0  0  0  0
   -5.7160   21.5510  -31.8490 C   0  0  0  0  0  0  0  0  0  0  0  0
   -7.1210   21.1000  -31.9430 C   0  0  0  0  0  0  0  0  0  0  0  0
   -8.0740   21.6100  -31.0440 C   0  0  0  0  0  0  0  0  0  0  0  0
   -9.4210   21.2660  -31.1690 C   0  0  0  0  0  0  0  0  0  0  0  0
   -9.8340   20.4180  -32.1980 C   0  0  0  0  0  0  0  0  0  0  0  0
   -8.8980   19.8990  -33.0950 C   0  0  0  0  0  0  0  0  0  0  0  0
   -7.5400   20.2100  -32.9630 C   0  0  0  0  0  0  0  0  0  0  0  0
   -6.6350   19.6280  -33.8650 O   0  0  0  0  0  0  0  0  0  0  0  0
   -6.0180   18.3810  -33.6850 C   0  0  0  0  0  0  0  0  0  0  0  0
   -5.2100   17.8760  -34.7110 C   0  0  0  0  0  0  0  0  0  0  0  0
   -4.5610   16.6470  -34.5590 C   0  0  0  0  0  0  0  0  0  0  0  0
   -4.7250   15.9080  -33.3850 C   0  0  0  0  0  0  0  0  0  0  0  0
   -5.5470   16.3920  -32.3650 C   0  0  0  0  0  0  0  0  0  0  0  0
   -6.2000   17.6200  -32.5140 C   0  0  0  0  0  0  0  0  0  0  0  0
   -4.6950   20.6920  -32.1470 N   0  0  0  0  0  0  0  0  0  0  0  0
   -3.3810   21.0600  -32.0330 C   0  0  0  0  0  0  0  0  0  0  0  0
   -3.0590   22.3500  -31.5890 C   0  0  0  0  0  0  0  0  0  0  0  0
   -4.0870   23.1830  -31.2990 N   0  0  0  0  0  0  0  0  0  0  0  0
   -4.0150   24.4130  -30.8310 N   0  0  0  0  0  0  0  0  0  0  0  0
   -5.6958   26.0500  -29.0096 H   0  0  0  0  0  0  0  0  0  0  0  0
   -5.0126   26.8837  -30.4465 H   0  0  0  0  0  0  0  0  0  0  0  0
   -6.7295   26.3554  -30.4465 H   0  0  0  0  0  0  0  0  0  0  0  0
   -7.7558   22.2852  -30.2360 H   0  0  0  0  0  0  0  0  0  0  0  0
  -10.1580   21.6637  -30.4557 H   0  0  0  0  0  0  0  0  0  0  0  0
  -10.8978   20.1583  -32.3024 H   0  0  0  0  0  0  0  0  0  0  0  0
   -9.2306   19.2409  -33.9113 H   0  0  0  0  0  0  0  0  0  0  0  0
   -5.0852   18.4492  -35.6415 H   0  0  0  0  0  0  0  0  0  0  0  0
   -3.9200   16.2613  -35.3654 H   0  0  0  0  0  0  0  0  0  0  0  0
   -4.2069   14.9452  -33.2640 H   0  0  0  0  0  0  0  0  0  0  0  0
   -5.6811   15.8068  -31.4433 H   0  0  0  0  0  0  0  0  0  0  0  0
   -6.8574   17.9923  -31.7145 H   0  0  0  0  0  0  0  0  0  0  0  0
   -2.5828   20.3475  -32.2883 H   0  0  0  0  0  0  0  0  0  0  0  0
   -2.0131   22.6730  -31.4804 H   0  0  0  0  0  0  0  0  0  0  0  0
  1  2  1  0
  2  3  1  0
  3  4  2  0
  4  5  1  0
  5  6  1  0
  6  7  2  0
  7  8  1  0
  8  9  2  0
  9 10  1  0
 10 11  2  0
 11 12  1  0
 12 13  1  0
 13 14  2  0
 14 15  1  0
 15 16  2  0
 16 17  1  0
 17 18  2  0
  5 19  2  0
 19 20  1  0
 20 21  2  0
 21 22  1  0
 22 23  1  0
 23  2  2  0
 22  4  1  0
 11  6  1  0
 18 13  1  0
  1 24  1  0
  1 25  1  0
  1 26  1  0
  7 27  1  0
  8 28  1  0
  9 29  1  0
 10 30  1  0
 14 31  1  0
 15 32  1  0
 16 33  1  0
 17 34  1  0
 18 35  1  0
 20 36  1  0
 21 37  1  0
M  END
>  <UniqueID>  (6) 
6

>  <SMILES>  (6) 
Cc1nc2c(-c3ccccc3Oc3ccccc3)nccn2n1

>  <Energy>  (6) 
91.95435148916617

>  <Genealogy>  (6) 
Cc1nc2c(-c3ccccc3Oc3ccccc3)nccn2n1 (3D coordinates assigned)
Cc1nc2c(-c3ccccc3Oc3ccccc3)nccn2n1 (optimized conformer: 91.95435148916617 kcal/mol)

>  <smiles>  (6) 
Cc1nc2c(-c3ccccc3Oc3ccccc3)nccn2n1

>  <score_type>  (6) 
oracle

>  <origin>  (6) 
adg

>  <m_score__min__energy>  (6) 
-8.1999999999999993

>  <m_primary>  (6) 
energy

$$$$
6:0
     RDKit          3D

 43 45  0  0  0  0  0  0  0  0999 V2000
   -2.4040   23.4050  -29.7420 C   0  0  0  0  0  0  0  0  0  0  0  0
   -3.2490   24.0710  -30.6750 O   0  0  0  0  0  0  0  0  0  0  0  0
   -4.6490   23.9610  -30.7100 C   0  0  0  0  0  0  0  0  0  0  0  0
   -5.4760   24.9300  -30.1050 C   0  0  0  0  0  0  0  0  0  0  0  0
   -6.8650   24.8200  -30.1750 C   0  0  0  0  0  0  0  0  0  0  0  0
   -7.4490   23.7470  -30.8440 C   0  0  0  0  0  0  0  0  0  0  0  0
   -6.6460   22.7770  -31.4450 C   0  0  0  0  0  0  0  0  0  0  0  0
   -5.2430   22.8660  -31.3810 C   0  0  0  0  0  0  0  0  0  0  0  0
   -4.4180   21.7990  -32.0000 C   0  0  0  0  0  0  0  0  0  0  0  0
   -3.5410   21.9600  -33.0730 C   0  0  0  0  0  0  0  0  0  0  0  0
   -2.9690   20.7610  -33.5160 C   0  0  0  0  0  0  0  0  0  0  0  0
   -3.4040   19.6500  -32.8060 C   0  0  0  0  0  0  0  0  0  0  0  0
   -3.0200   18.2290  -33.0700 C   0  0  0  0  0  0  0  0  0  0  0  0
   -4.0610   17.5750  -33.8810 N   0  0  0  0  0  0  0  0  0  0  0  0
   -4.7620   16.4990  -33.1600 C   0  0  0  0  0  0  0  0  0  0  0  0
   -6.2740   16.4790  -33.4470 C   0  0  0  0  0  0  0  0  0  0  0  0
   -6.9660   17.7710  -33.0950 C   0  0  0  0  0  0  0  0  0  0  0  0
   -7.9210   17.8020  -32.0670 C   0  0  0  0  0  0  0  0  0  0  0  0
   -8.5510   19.0060  -31.7510 C   0  0  0  0  0  0  0  0  0  0  0  0
   -8.2130   20.1700  -32.4440 C   0  0  0  0  0  0  0  0  0  0  0  0
   -7.2360   20.1110  -33.4390 C   0  0  0  0  0  0  0  0  0  0  0  0
   -6.6360   18.9270  -33.7360 N   0  0  0  0  0  0  0  0  0  0  0  0
   -4.4790   20.1570  -31.6170 S   0  0  0  0  0  0  0  0  0  0  0  0
   -2.7201   23.6541  -28.7183 H   0  0  0  0  0  0  0  0  0  0  0  0
   -2.4756   22.3178  -29.8935 H   0  0  0  0  0  0  0  0  0  0  0  0
   -1.3637   23.7286  -29.8935 H   0  0  0  0  0  0  0  0  0  0  0  0
   -5.0222   25.7795  -29.5736 H   0  0  0  0  0  0  0  0  0  0  0  0
   -7.5004   25.5824  -29.7007 H   0  0  0  0  0  0  0  0  0  0  0  0
   -8.5445   23.6642  -30.8986 H   0  0  0  0  0  0  0  0  0  0  0  0
   -7.1144   21.9341  -31.9742 H   0  0  0  0  0  0  0  0  0  0  0  0
   -3.3197   22.9367  -33.5281 H   0  0  0  0  0  0  0  0  0  0  0  0
   -2.2470   20.7050  -34.3440 H   0  0  0  0  0  0  0  0  0  0  0  0
   -2.0638   18.2037  -33.6132 H   0  0  0  0  0  0  0  0  0  0  0  0
   -2.9160   17.6964  -32.1132 H   0  0  0  0  0  0  0  0  0  0  0  0
   -4.7780   18.2980  -34.1240 H   0  0  0  0  0  0  0  0  0  0  0  0
   -4.3330   15.5332  -33.4653 H   0  0  0  0  0  0  0  0  0  0  0  0
   -4.6305   16.6801  -32.0830 H   0  0  0  0  0  0  0  0  0  0  0  0
   -6.4231   16.2842  -34.5193 H   0  0  0  0  0  0  0  0  0  0  0  0
   -6.7143   15.6921  -32.8170 H   0  0  0  0  0  0  0  0  0  0  0  0
   -8.1708   16.8841  -31.5147 H   0  0  0  0  0  0  0  0  0  0  0  0
   -9.3123   19.0382  -30.9577 H   0  0  0  0  0  0  0  0  0  0  0  0
   -8.7108   21.1223  -32.2086 H   0  0  0  0  0  0  0  0  0  0  0  0
   -6.9509   21.0232  -33.9837 H   0  0  0  0  0  0  0  0  0  0  0  0
  1  2  1  0
  2  3  1  0
  3  4  2  0
  4  5  1  0
  5  6  2  0
  6  7  1  0
  7  8  2  0
  8  9  1  0
  9 10  2  0
 10 11  1  0
 11 12  2  0
 12 13  1  0
 13 14  1  0
 14 15  1  0
 15 16  1  0
 16 17  1  0
 17 18  2  0
 18 19  1  0
 19 20  2  0
 20 21  1  0
 21 22  2  0
 12 23  1  0
  8  3  1  0
 23  9  1  0
 22 17  1  0
  1 24  1  0
  1 25  1  0
  1 26  1  0
  4 27  1  0
  5 28  1  0
  6 29  1  0
  7 30  1  0
 10 31  1  0
 11 32  1  0
 13 33  1  0
 13 34  1  0
 14 35  1  0
 15 36  1  0
 15 37  1  0
 16 38  1  0
 16 39  1  0
 18 40  1  0
 19 41  1  0
 20 42  1  0
 21 43  1  0
M  END
>  <UniqueID>  (7) 
7

>  <SMILES>  (7) 
COc1ccccc1-c1ccc(CNCCc2ccccn2)s1

>  <Energy>  (7) 
70.25706527350629

>  <Genealogy>  (7) 
COc1ccccc1-c1ccc(CNCCc2ccccn2)s1 (3D coordinates assigned)
COc1ccccc1-c1ccc(CNCCc2ccccn2)s1 (optimized conformer: 70.25706527350629 kcal/mol)

>  <smiles>  (7) 
COc1ccccc1-c1ccc(CNCCc2ccccn2)s1

>  <score_type>  (7) 
oracle

>  <origin>  (7) 
adg

>  <m_score__min__energy>  (7) 
-8.9299999999999997

>  <m_primary>  (7) 
energy

$$$$
7:0
     RDKit          3D

 47 50  0  0  0  0  0  0  0  0999 V2000
    0.6210   17.2380  -36.1460 C   0  0  0  0  0  0  0  0  0  0  0  0
    0.8760   18.5480  -35.6480 O   0  0  0  0  0  0  0  0  0  0  0  0
   -0.0560   19.3220  -34.9430 C   0  0  0  0  0  0  0  0  0  0  0  0
    0.1140   20.7030  -34.7320 C   0  0  0  0  0  0  0  0  0  0  0  0
   -0.8450   21.4310  -34.0220 C   0  0  0  0  0  0  0  0  0  0  0  0
   -1.9850   20.7960  -33.5010 C   0  0  0  0  0  0  0  0  0  0  0  0
   -2.9670   21.5650  -32.7810 N   0  0  0  0  0  0  0  0  0  0  0  0
   -4.1020   21.9950  -33.3140 N   0  0  0  0  0  0  0  0  0  0  0  0
   -4.7330   22.7010  -32.3500 C   0  0  0  0  0  0  0  0  0  0  0  0
   -4.0290   22.7100  -31.1910 N   0  0  0  0  0  0  0  0  0  0  0  0
   -2.9200   22.0160  -31.5100 C   0  0  0  0  0  0  0  0  0  0  0  0
   -1.9420   21.8580  -30.7310 O   0  0  0  0  0  0  0  0  0  0  0  0
   -4.2830   23.4440  -29.9440 C   0  0  0  0  0  0  0  0  0  0  0  0
   -5.6460   23.0830  -29.3370 C   0  0  0  0  0  0  0  0  0  0  0  0
   -6.8240   23.6460  -30.1480 C   0  0  0  0  0  0  0  0  0  0  0  0
   -6.9730   22.9750  -31.4490 N   0  0  0  0  0  0  0  0  0  0  0  0
   -8.1030   22.1170  -31.7070 C   0  0  0  0  0  0  0  0  0  0  0  0
   -9.2680   22.5990  -31.6610 O   0  0  0  0  0  0  0  0  0  0  0  0
   -7.9300   20.6840  -32.0390 C   0  0  0  0  0  0  0  0  0  0  0  0
   -8.7500   19.7140  -31.4340 C   0  0  0  0  0  0  0  0  0  0  0  0
   -8.5960   18.3600  -31.7510 C   0  0  0  0  0  0  0  0  0  0  0  0
   -7.6320   17.9630  -32.6790 C   0  0  0  0  0  0  0  0  0  0  0  0
   -6.8200   18.9200  -33.2990 C   0  0  0  0  0  0  0  0  0  0  0  0
   -5.6190   18.4210  -34.4760 Cl  0  0  0  0  0  0  0  0  0  0  0  0
   -6.9720   20.2750  -32.9840 C   0  0  0  0  0  0  0  0  0  0  0  0
   -6.0770   23.3340  -32.5500 C   0  0  0  0  0  0  0  0  0  0  0  0
   -2.1580   19.4190  -33.7280 C   0  0  0  0  0  0  0  0  0  0  0  0
   -1.1990   18.6920  -34.4380 C   0  0  0  0  0  0  0  0  0  0  0  0
    0.4861   16.5449  -35.3025 H   0  0  0  0  0  0  0  0  0  0  0  0
   -0.2916   17.2504  -36.7600 H   0  0  0  0  0  0  0  0  0  0  0  0
    1.4716   16.9071  -36.7600 H   0  0  0  0  0  0  0  0  0  0  0  0
    1.0055   21.2117  -35.1276 H   0  0  0  0  0  0  0  0  0  0  0  0
   -0.7059   22.5115  -33.8697 H   0  0  0  0  0  0  0  0  0  0  0  0
   -3.4937   23.1973  -29.2186 H   0  0  0  0  0  0  0  0  0  0  0  0
   -4.2859   24.5195  -30.1750 H   0  0  0  0  0  0  0  0  0  0  0  0
   -5.7358   21.9873  -29.3002 H   0  0  0  0  0  0  0  0  0  0  0  0
   -5.6910   23.5287  -28.3323 H   0  0  0  0  0  0  0  0  0  0  0  0
   -7.7499   23.5086  -29.5702 H   0  0  0  0  0  0  0  0  0  0  0  0
   -6.6255   24.7112  -30.3377 H   0  0  0  0  0  0  0  0  0  0  0  0
   -9.5166   20.0219  -30.7076 H   0  0  0  0  0  0  0  0  0  0  0  0
   -9.2359   17.6069  -31.2679 H   0  0  0  0  0  0  0  0  0  0  0  0
   -7.5102   16.8974  -32.9233 H   0  0  0  0  0  0  0  0  0  0  0  0
   -6.3379   21.0253  -33.4789 H   0  0  0  0  0  0  0  0  0  0  0  0
   -6.5074   22.9811  -33.4988 H   0  0  0  0  0  0  0  0  0  0  0  0
   -5.9590   24.4274  -32.5753 H   0  0  0  0  0  0  0  0  0  0  0  0
   -3.0547   18.9106  -33.3439 H   0  0  0  0  0  0  0  0  0  0  0  0
   -1.3439   17.6139  -34.6016 H   0  0  0  0  0  0  0  0  0  0  0  0
  1  2  1  0
  2  3  1  0
  3  4  2  0
  4  5  1  0
  5  6  2  0
  6  7  1  0
  7  8  1  0
  8  9  2  0
  9 10  1  0
 10 11  1  0
 11 12  2  0
 10 13  1  0
 13 14  1  0
 14 15  1  0
 15 16  1  0
 16 17  1  0
 17 18  2  0
 17 19  1  0
 19 20  2  0
 20 21  1  0
 21 22  2  0
 22 23  1  0
 23 24  1  0
 23 25  2  0
 16 26  1  0
  6 27  1  0
 27 28  2  0
 28  3  1  0
 11  7  1  0
 25 19  1  0
 26  9  1  0
  1 29  1  0
  1 30  1  0
  1 31  1  0
  4 32  1  0
  5 33  1  0
 13 34  1  0
 13 35  1  0
 14 36  1  0
 14 37  1  0
 15 38  1  0
 15 39  1  0
 20 40  1  0
 21 41  1  0
 22 42  1  0
 25 43  1  0
 26 44  1  0
 26 45  1  0
 27 46  1  0
 28 47  1  0
M  END
>  <UniqueID>  (8) 
8

>  <SMILES>  (8) 
COc1ccc(-n2nc3n(c2=O)CCCN(C(=O)c2cccc(Cl)c2)C3)cc1

>  <Energy>  (8) 
97.65842003910039

>  <Genealogy>  (8) 
COc1ccc(-n2nc3n(c2=O)CCCN(C(=O)c2cccc(Cl)c2)C3)cc1 (3D coordinates assigned)
COc1ccc(-n2nc3n(c2=O)CCCN(C(=O)c2cccc(Cl)c2)C3)cc1 (nonaromatic ring conformer: 97.65842003910039 kcal/mol)

>  <smiles>  (8) 
COc1ccc(-n2nc3n(c2=O)CCCN(C(=O)c2cccc(Cl)c2)C3)cc1

>  <score_type>  (8) 
oracle

>  <origin>  (8) 
adg

>  <m_score__min__energy>  (8) 
-6.9400000000000004

>  <m_primary>  (8) 
energy

$$$$
8:0
     RDKit          3D

 40 41  0  0  0  0  0  0  0  0999 V2000
   -6.1180   17.0840  -31.4650 C   0  0  0  0  0  0  0  0  0  0  0  0
   -7.1480   17.4980  -32.5130 C   0  0  0  0  0  0  0  0  0  0  0  0
   -6.7700   16.9940  -33.8520 N   0  0  0  0  0  0  0  0  0  0  0  0
   -6.0180   15.7130  -33.7700 C   0  0  0  0  0  0  0  0  0  0  0  0
   -6.9100   14.5670  -34.2320 C   0  0  0  0  0  0  0  0  0  0  0  0
   -6.0160   18.0240  -34.5990 C   0  0  0  0  0  0  0  0  0  0  0  0
   -6.1310   19.3570  -33.9210 C   0  0  0  0  0  0  0  0  0  0  0  0
   -5.1260   20.0500  -33.2820 C   0  0  0  0  0  0  0  0  0  0  0  0
   -5.6970   21.1570  -32.7570 N   0  0  0  0  0  0  0  0  0  0  0  0
   -5.0660   22.1970  -31.9810 C   0  0  0  0  0  0  0  0  0  0  0  0
   -3.7270   22.0560  -31.5750 C   0  0  0  0  0  0  0  0  0  0  0  0
   -3.1020   23.0550  -30.8230 C   0  0  0  0  0  0  0  0  0  0  0  0
   -3.7970   24.2110  -30.4580 C   0  0  0  0  0  0  0  0  0  0  0  0
   -3.1250   25.1840  -29.7030 O   0  0  0  0  0  0  0  0  0  0  0  0
   -2.3250   24.9040  -28.5590 C   0  0  0  0  0  0  0  0  0  0  0  0
   -5.1390   24.3590  -30.8560 C   0  0  0  0  0  0  0  0  0  0  0  0
   -5.7650   23.3610  -31.6100 C   0  0  0  0  0  0  0  0  0  0  0  0
   -6.9890   21.1350  -33.0570 N   0  0  0  0  0  0  0  0  0  0  0  0
   -7.2710   20.0510  -33.7620 N   0  0  0  0  0  0  0  0  0  0  0  0
   -6.5312   17.2501  -30.4592 H   0  0  0  0  0  0  0  0  0  0  0  0
   -5.8753   16.0185  -31.5903 H   0  0  0  0  0  0  0  0  0  0  0  0
   -5.2054   17.6852  -31.5903 H   0  0  0  0  0  0  0  0  0  0  0  0
   -8.1293   17.0850  -32.2365 H   0  0  0  0  0  0  0  0  0  0  0  0
   -7.1903   18.5966  -32.5498 H   0  0  0  0  0  0  0  0  0  0  0  0
   -5.1290   15.7683  -34.4155 H   0  0  0  0  0  0  0  0  0  0  0  0
   -5.7069   15.5376  -32.7296 H   0  0  0  0  0  0  0  0  0  0  0  0
   -7.3177   14.0432  -33.3549 H   0  0  0  0  0  0  0  0  0  0  0  0
   -7.7368   14.9670  -34.8373 H   0  0  0  0  0  0  0  0  0  0  0  0
   -6.3193   13.8637  -34.8373 H   0  0  0  0  0  0  0  0  0  0  0  0
   -4.9563   17.7328  -34.6468 H   0  0  0  0  0  0  0  0  0  0  0  0
   -6.4344   18.1044  -35.6132 H   0  0  0  0  0  0  0  0  0  0  0  0
   -4.0673   19.7595  -33.2127 H   0  0  0  0  0  0  0  0  0  0  0  0
   -3.1662   21.1511  -31.8518 H   0  0  0  0  0  0  0  0  0  0  0  0
   -2.0532   22.9299  -30.5157 H   0  0  0  0  0  0  0  0  0  0  0  0
   -2.9055   25.1072  -27.6470 H   0  0  0  0  0  0  0  0  0  0  0  0
   -2.0224   23.8465  -28.5731 H   0  0  0  0  0  0  0  0  0  0  0  0
   -1.4290   25.5420  -28.5731 H   0  0  0  0  0  0  0  0  0  0  0  0
   -5.6977   25.2632  -30.5729 H   0  0  0  0  0  0  0  0  0  0  0  0
   -6.8140   23.4871  -31.9161 H   0  0  0  0  0  0  0  0  0  0  0  0
   -8.2220   19.7960  -34.1060 H   0  0  0  0  0  0  0  0  0  0  0  0
  1  2  1  0
  2  3  1  0
  3  4  1  0
  4  5  1  0
  3  6  1  0
  6  7  1  0
  7  8  2  0
  8  9  1  0
  9 10  1  0
 10 11  2  0
 11 12  1  0
 12 13  2  0
 13 14  1  0
 14 15  1  0
 13 16  1  0
 16 17  2  0
  9 18  1  0
 18 19  2  0
 19  7  1  0
 17 10  1  0
  1 20  1  0
  1 21  1  0
  1 22  1  0
  2 23  1  0
  2 24  1  0
  4 25  1  0
  4 26  1  0
  5 27  1  0
  5 28  1  0
  5 29  1  0
  6 30  1  0
  6 31  1  0
  8 32  1  0
 11 33  1  0
 12 34  1  0
 15 35  1  0
 15 36  1  0
 15 37  1  0
 16 38  1  0
 17 39  1  0
 19 40  1  0
M  CHG  1  19   1
M  END
>  <UniqueID>  (9) 
9

>  <SMILES>  (9) 
CCN(CC)Cc1cn(-c2ccc(OC)cc2)n[nH+]1

>  <Energy>  (9) 
75.06573537220427

>  <Genealogy>  (9) 
CCN(CC)Cc1cn(-c2ccc(OC)cc2)n[nH+]1 (protonated)
CCN(CC)Cc1cn(-c2ccc(OC)cc2)n[nH+]1 (3D coordinates assigned)
CCN(CC)Cc1cn(-c2ccc(OC)cc2)n[nH+]1 (optimized conformer: 75.06573537220427 kcal/mol)

>  <smiles>  (9) 
CCN(CC)Cc1cn(-c2ccc(OC)cc2)nn1

>  <score_type>  (9) 
oracle

>  <origin>  (9) 
adg

>  <m_score__min__energy>  (9) 
-6.4900000000000002

>  <m_primary>  (9) 
energy

$$$$
9:0
     RDKit          3D

 31 33  0  0  0  0  0  0  0  0999 V2000
   -4.3100   21.0160  -33.4530 C   0  0  0  0  0  0  0  0  0  0  0  0
   -3.3780   21.3970  -32.3960 N   0  0  0  0  0  0  0  0  0  0  0  0
   -2.1030   20.9900  -32.2670 C   0  0  0  0  0  0  0  0  0  0  0  0
   -1.5130   21.5740  -31.2060 N   0  0  0  0  0  0  0  0  0  0  0  0
   -2.4170   22.3590  -30.6370 N   0  0  0  0  0  0  0  0  0  0  0  0
   -3.5510   22.2370  -31.3550 C   0  0  0  0  0  0  0  0  0  0  0  0
   -4.7900   22.9770  -31.0370 C   0  0  0  0  0  0  0  0  0  0  0  0
   -6.0270   22.3560  -31.2710 C   0  0  0  0  0  0  0  0  0  0  0  0
   -7.2190   23.0240  -30.9840 C   0  0  0  0  0  0  0  0  0  0  0  0
   -7.1870   24.3200  -30.4670 C   0  0  0  0  0  0  0  0  0  0  0  0
   -5.9640   24.9590  -30.2550 C   0  0  0  0  0  0  0  0  0  0  0  0
   -4.7550   24.3070  -30.5620 C   0  0  0  0  0  0  0  0  0  0  0  0
   -3.4890   24.9590  -30.3850 N   0  0  0  0  0  0  0  0  0  0  0  0
   -2.6500   24.9190  -29.2250 C   0  0  0  0  0  0  0  0  0  0  0  0
   -1.6030   25.6180  -29.1580 O   0  0  0  0  0  0  0  0  0  0  0  0
   -3.0150   24.0240  -28.0820 C   0  0  0  0  0  0  0  0  0  0  0  0
   -4.1840   24.5180  -27.2440 C   0  0  0  0  0  0  0  0  0  0  0  0
   -2.7690   24.6160  -26.7020 C   0  0  0  0  0  0  0  0  0  0  0  0
   -5.2392   20.6362  -33.0032 H   0  0  0  0  0  0  0  0  0  0  0  0
   -4.5364   21.8937  -34.0761 H   0  0  0  0  0  0  0  0  0  0  0  0
   -3.8567   20.2310  -34.0761 H   0  0  0  0  0  0  0  0  0  0  0  0
   -1.6070   20.2744  -32.9393 H   0  0  0  0  0  0  0  0  0  0  0  0
   -6.0574   21.3366  -31.6831 H   0  0  0  0  0  0  0  0  0  0  0  0
   -8.1841   22.5284  -31.1655 H   0  0  0  0  0  0  0  0  0  0  0  0
   -8.1267   24.8387  -30.2262 H   0  0  0  0  0  0  0  0  0  0  0  0
   -5.9451   25.9796  -29.8450 H   0  0  0  0  0  0  0  0  0  0  0  0
   -2.7536   23.0797  -28.5819 H   0  0  0  0  0  0  0  0  0  0  0  0
   -4.7245   25.4299  -27.5379 H   0  0  0  0  0  0  0  0  0  0  0  0
   -5.1249   24.0755  -26.8851 H   0  0  0  0  0  0  0  0  0  0  0  0
   -2.2847   25.5987  -26.6036 H   0  0  0  0  0  0  0  0  0  0  0  0
   -2.2608   24.2739  -25.7884 H   0  0  0  0  0  0  0  0  0  0  0  0
  1  2  1  0
  2  3  1  0
  3  4  2  0
  4  5  1  0
  5  6  2  0
  6  7  1  0
  7  8  2  0
  8  9  1  0
  9 10  2  0
 10 11  1  0
 11 12  2  0
 12 13  1  0
 13 14  1  0
 14 15  2  0
 14 16  1  0
 16 17  1  0
 17 18  1  0
  6  2  1  0
 12  7  1  0
 18 16  1  0
  1 19  1  0
  1 20  1  0
  1 21  1  0
  3 22  1  0
  8 23  1  0
  9 24  1  0
 10 25  1  0
 11 26  1  0
 16 27  1  0
 17 28  1  0
 17 29  1  0
 18 30  1  0
 18 31  1  0
M  CHG  1  13  -1
M  END
>  <UniqueID>  (10) 
10

>  <SMILES>  (10) 
Cn1cnnc1-c1ccccc1[N-]C(=O)C1CC1

>  <Energy>  (10) 
338.4204764355795

>  <Genealogy>  (10) 
Cn1cnnc1-c1ccccc1[N-]C(=O)C1CC1 (protonated)
Cn1cnnc1-c1ccccc1[N-]C(=O)C1CC1 (3D coordinates assigned)
Cn1cnnc1-c1ccccc1[N-]C(=O)C1CC1 (nonaromatic ring conformer: 338.4204764355795 kcal/mol)

>  <smiles>  (10) 
Cn1cnnc1-c1ccccc1NC(=O)C1CC1

>  <score_type>  (10) 
oracle

>  <origin>  (10) 
adg

>  <m_score__min__energy>  (10) 
-8.2100000000000009

>  <m_primary>  (10) 
energy

$$$$
10:0
     RDKit          3D

 50 51  0  0  1  0  0  0  0  0999 V2000
   -2.7360   21.1760  -27.9370 C   0  0  0  0  0  0  0  0  0  0  0  0
   -2.1760   20.6840  -29.2310 C   0  0  0  0  0  0  0  0  0  0  0  0
   -1.8380   21.8320  -30.0960 N   0  0  0  0  0  0  0  0  0  0  0  0
   -0.5050   21.6000  -30.5550 C   0  0  0  0  0  0  0  0  0  0  0  0
   -0.2620   20.1280  -30.8450 C   0  0  0  0  0  0  0  0  0  0  0  0
   -2.0460   22.9890  -29.3080 C   0  0  0  0  0  0  0  0  0  0  0  0
   -3.0790   23.9630  -29.7240 C   0  0  0  0  0  0  0  0  0  0  0  0
   -3.8370   23.6180  -30.8540 O   0  0  0  0  0  0  0  0  0  0  0  0
   -5.0810   24.0880  -31.1560 C   0  0  0  0  0  0  0  0  0  0  0  0
   -5.2690   25.3530  -31.2230 O   0  0  0  0  0  0  0  0  0  0  0  0
   -6.2510   23.2590  -31.4220 C   0  0  0  0  0  0  0  0  0  0  0  0
   -7.4900   23.7860  -31.7030 C   0  0  0  0  0  0  0  0  0  0  0  0
   -8.6050   23.0010  -31.9600 C   0  0  0  0  0  0  0  0  0  0  0  0
   -8.5110   21.6310  -31.9430 C   0  0  0  0  0  0  0  0  0  0  0  0
   -7.2770   21.0710  -31.6640 C   0  0  0  0  0  0  0  0  0  0  0  0
   -6.1690   21.8610  -31.4090 C   0  0  0  0  0  0  0  0  0  0  0  0
   -4.9410   21.2210  -31.1290 N   0  0  0  0  0  0  0  0  0  0  0  0
   -4.2300   20.7480  -32.1090 C   0  0  0  0  0  0  0  0  0  0  0  0
   -4.6340   19.6140  -32.7840 C   0  0  0  0  0  0  0  0  0  0  0  0
   -3.8790   19.1020  -33.8350 C   0  0  0  0  0  0  0  0  0  0  0  0
   -4.3440   17.8730  -34.5430 C   0  0  0  0  0  0  0  0  0  0  0  0
   -2.7410   19.7150  -34.2020 N   0  0  0  0  0  0  0  0  0  0  0  0
   -2.3540   20.8350  -33.5260 C   0  0  0  0  0  0  0  0  0  0  0  0
   -1.2490   21.4120  -33.9000 N   0  0  0  0  0  0  0  0  0  0  0  0
   -3.0860   21.3200  -32.5190 N   0  0  0  0  0  0  0  0  0  0  0  0
   -2.1984   20.7037  -27.1016 H   0  0  0  0  0  0  0  0  0  0  0  0
   -2.6183   22.2681  -27.8781 H   0  0  0  0  0  0  0  0  0  0  0  0
   -3.8038   20.9186  -27.8781 H   0  0  0  0  0  0  0  0  0  0  0  0
   -1.2686   20.0937  -29.0358 H   0  0  0  0  0  0  0  0  0  0  0  0
   -2.9242   20.0554  -29.7360 H   0  0  0  0  0  0  0  0  0  0  0  0
   -0.3390   22.1776  -31.4763 H   0  0  0  0  0  0  0  0  0  0  0  0
    0.1913   21.9145  -29.7636 H   0  0  0  0  0  0  0  0  0  0  0  0
   -0.1711   19.5776  -29.8969 H   0  0  0  0  0  0  0  0  0  0  0  0
   -1.1056   19.7242  -31.4240 H   0  0  0  0  0  0  0  0  0  0  0  0
    0.6667   20.0168  -31.4240 H   0  0  0  0  0  0  0  0  0  0  0  0
   -2.3136   22.6470  -28.2973 H   0  0  0  0  0  0  0  0  0  0  0  0
   -1.1029   23.5470  -29.4039 H   0  0  0  0  0  0  0  0  0  0  0  0
   -3.7738   24.0957  -28.8816 H   0  0  0  0  0  0  0  0  0  0  0  0
   -2.5291   24.8732  -30.0052 H   0  0  0  0  0  0  0  0  0  0  0  0
   -7.6022   24.8800  -31.7250 H   0  0  0  0  0  0  0  0  0  0  0  0
   -9.5710   23.4794  -32.1789 H   0  0  0  0  0  0  0  0  0  0  0  0
   -9.3886   20.9992  -32.1447 H   0  0  0  0  0  0  0  0  0  0  0  0
   -7.1742   19.9760  -31.6444 H   0  0  0  0  0  0  0  0  0  0  0  0
   -5.5648   19.1083  -32.4874 H   0  0  0  0  0  0  0  0  0  0  0  0
   -4.6323   17.1110  -33.8039 H   0  0  0  0  0  0  0  0  0  0  0  0
   -5.2112   18.1190  -35.1734 H   0  0  0  0  0  0  0  0  0  0  0  0
   -3.5312   17.4833  -35.1734 H   0  0  0  0  0  0  0  0  0  0  0  0
   -2.1900   19.3170  -34.9910 H   0  0  0  0  0  0  0  0  0  0  0  0
   -1.2440   22.0430  -34.7370 H   0  0  0  0  0  0  0  0  0  0  0  0
   -2.7410   22.1800  -32.0380 H   0  0  0  0  0  0  0  0  0  0  0  0
  1  2  1  0
  2  3  1  0
  3  4  1  0
  4  5  1  0
  3  6  1  0
  6  7  1  0
  7  8  1  0
  8  9  1  0
  9 10  2  0
  9 11  1  0
 11 12  2  0
 12 13  1  0
 13 14  2  0
 14 15  1  0
 15 16  2  0
 16 17  1  0
 17 18  2  0
 18 19  1  0
 19 20  2  0
 20 21  1  0
 20 22  1  0
 22 23  1  0
 23 24  2  3
 23 25  1  0
 16 11  1  0
 25 18  1  0
  1 26  1  0
  1 27  1  0
  1 28  1  0
  2 29  1  0
  2 30  1  0
  4 31  1  0
  4 32  1  0
  5 33  1  0
  5 34  1  0
  5 35  1  0
  6 36  1  0
  6 37  1  0
  7 38  1  0
  7 39  1  0
 12 40  1  0
 13 41  1  0
 14 42  1  0
 15 43  1  0
 19 44  1  0
 21 45  1  0
 21 46  1  0
 21 47  1  0
 22 48  1  0
 24 49  1  0
 25 50  1  0
M  END
>  <smiles>  (11) 
CCN(CC)CCOC(=O)c1ccccc1N=c1cc(C)[nH]c(=N)[nH]1

>  <score_type>  (11) 
oracle

>  <origin>  (11) 
adg

>  <m_score__min__energy>  (11) 
-7.6500000000000004

>  <m_primary>  (11) 
energy

$$$$
11:0
     RDKit          3D

 54 56  0  0  0  0  0  0  0  0999 V2000
   -3.0140   21.1150  -33.2150 C   0  0  0  0  0  0  0  0  0  0  0  0
   -2.0290   21.5780  -32.1410 C   0  0  0  0  0  0  0  0  0  0  0  0
   -2.6330   22.6600  -31.2170 C   0  0  0  0  0  0  0  0  0  0  0  0
   -1.6680   23.0580  -30.0760 C   0  0  0  0  0  0  0  0  0  0  0  0
   -2.2720   24.0970  -29.1290 C   0  0  0  0  0  0  0  0  0  0  0  0
   -3.9800   22.2350  -30.6630 C   0  0  0  0  0  0  0  0  0  0  0  0
   -4.0440   21.1750  -29.9820 O   0  0  0  0  0  0  0  0  0  0  0  0
   -5.1740   23.0150  -30.8580 N   0  0  0  0  0  0  0  0  0  0  0  0
   -6.0740   23.2510  -29.7230 C   0  0  0  0  0  0  0  0  0  0  0  0
   -7.4480   22.6150  -29.9810 C   0  0  0  0  0  0  0  0  0  0  0  0
   -7.9310   22.7570  -31.4520 C   0  0  0  0  0  0  0  0  0  0  0  0
   -7.9480   21.4270  -32.1600 C   0  0  0  0  0  0  0  0  0  0  0  0
   -6.8410   20.6990  -32.4170 N   0  0  0  0  0  0  0  0  0  0  0  0
   -7.3600   19.6020  -33.0120 C   0  0  0  0  0  0  0  0  0  0  0  0
   -6.5350   18.4650  -33.4910 C   0  0  0  0  0  0  0  0  0  0  0  0
   -5.4000   18.7100  -34.2850 C   0  0  0  0  0  0  0  0  0  0  0  0
   -4.6080   17.6530  -34.7400 C   0  0  0  0  0  0  0  0  0  0  0  0
   -4.9290   16.3320  -34.4140 C   0  0  0  0  0  0  0  0  0  0  0  0
   -4.0990   15.3070  -34.8920 O   0  0  0  0  0  0  0  0  0  0  0  0
   -2.8030   15.5130  -35.4460 C   0  0  0  0  0  0  0  0  0  0  0  0
   -6.0640   16.0780  -33.6230 C   0  0  0  0  0  0  0  0  0  0  0  0
   -6.8580   17.1340  -33.1670 C   0  0  0  0  0  0  0  0  0  0  0  0
   -8.7040   19.6790  -33.0950 N   0  0  0  0  0  0  0  0  0  0  0  0
   -9.0360   20.8110  -32.5600 O   0  0  0  0  0  0  0  0  0  0  0  0
   -7.0900   23.7710  -32.2530 C   0  0  0  0  0  0  0  0  0  0  0  0
   -5.5930   23.4200  -32.2080 C   0  0  0  0  0  0  0  0  0  0  0  0
   -3.9094   20.6941  -32.7343 H   0  0  0  0  0  0  0  0  0  0  0  0
   -3.3026   21.9717  -33.8416 H   0  0  0  0  0  0  0  0  0  0  0  0
   -2.5385   20.3461  -33.8416 H   0  0  0  0  0  0  0  0  0  0  0  0
   -1.7404   20.7110  -31.5286 H   0  0  0  0  0  0  0  0  0  0  0  0
   -1.1590   22.0183  -32.6502 H   0  0  0  0  0  0  0  0  0  0  0  0
   -2.7897   23.5524  -31.8408 H   0  0  0  0  0  0  0  0  0  0  0  0
   -1.4171   22.1572  -29.4967 H   0  0  0  0  0  0  0  0  0  0  0  0
   -0.7753   23.5065  -30.5364 H   0  0  0  0  0  0  0  0  0  0  0  0
   -2.0941   23.7911  -28.0875 H   0  0  0  0  0  0  0  0  0  0  0  0
   -1.8016   25.0748  -29.3094 H   0  0  0  0  0  0  0  0  0  0  0  0
   -3.3545   24.1721  -29.3094 H   0  0  0  0  0  0  0  0  0  0  0  0
   -5.6356   22.8090  -28.8161 H   0  0  0  0  0  0  0  0  0  0  0  0
   -6.2041   24.3355  -29.5932 H   0  0  0  0  0  0  0  0  0  0  0  0
   -7.3875   21.5443  -29.7363 H   0  0  0  0  0  0  0  0  0  0  0  0
   -8.1745   23.1471  -29.3492 H   0  0  0  0  0  0  0  0  0  0  0  0
   -8.9600   23.1423  -31.3993 H   0  0  0  0  0  0  0  0  0  0  0  0
   -5.1335   19.7438  -34.5502 H   0  0  0  0  0  0  0  0  0  0  0  0
   -3.7239   17.8620  -35.3603 H   0  0  0  0  0  0  0  0  0  0  0  0
   -2.0710   15.6293  -34.6332 H   0  0  0  0  0  0  0  0  0  0  0  0
   -2.5276   14.6474  -36.0663 H   0  0  0  0  0  0  0  0  0  0  0  0
   -2.8096   16.4214  -36.0663 H   0  0  0  0  0  0  0  0  0  0  0  0
   -6.3282   15.0426  -33.3619 H   0  0  0  0  0  0  0  0  0  0  0  0
   -7.7434   16.9229  -32.5493 H   0  0  0  0  0  0  0  0  0  0  0  0
   -9.3780   18.9920  -33.4960 H   0  0  0  0  0  0  0  0  0  0  0  0
   -7.4270   23.7672  -33.3001 H   0  0  0  0  0  0  0  0  0  0  0  0
   -7.2257   24.7652  -31.8023 H   0  0  0  0  0  0  0  0  0  0  0  0
   -5.3990   22.5920  -32.9057 H   0  0  0  0  0  0  0  0  0  0  0  0
   -5.0203   24.3150  -32.4928 H   0  0  0  0  0  0  0  0  0  0  0  0
  1  2  1  0
  2  3  1  0
  3  4  1  0
  4  5  1  0
  3  6  1  0
  6  7  2  0
  6  8  1  0
  8  9  1  0
  9 10  1  0
 10 11  1  0
 11 12  1  0
 12 13  2  0
 13 14  1  0
 14 15  1  0
 15 16  2  0
 16 17  1  0
 17 18  2  0
 18 19  1  0
 19 20  1  0
 18 21  1  0
 21 22  2  0
 14 23  2  0
 23 24  1  0
 11 25  1  0
 25 26  1  0
 26  8  1  0
 24 12  1  0
 22 15  1  0
  1 27  1  0
  1 28  1  0
  1 29  1  0
  2 30  1  0
  2 31  1  0
  3 32  1  0
  4 33  1  0
  4 34  1  0
  5 35  1  0
  5 36  1  0
  5 37  1  0
  9 38  1  0
  9 39  1  0
 10 40  1  0
 10 41  1  0
 11 42  1  0
 16 43  1  0
 17 44  1  0
 20 45  1  0
 20 46  1  0
 20 47  1  0
 21 48  1  0
 22 49  1  0
 23 50  1  0
 25 51  1  0
 25 52  1  0
 26 53  1  0
 26 54  1  0
M  CHG  1  23   1
M  END
>  <UniqueID>  (12) 
11

>  <SMILES>  (12) 
CCC(CC)C(=O)N1CCC(c2nc(-c3ccc(OC)cc3)[nH+]o2)CC1

>  <Energy>  (12) 
88.2832926214533

>  <Genealogy>  (12) 
CCC(CC)C(=O)N1CCC(c2nc(-c3ccc(OC)cc3)[nH+]o2)CC1 (protonated)
CCC(CC)C(=O)N1CCC(c2nc(-c3ccc(OC)cc3)[nH+]o2)CC1 (3D coordinates assigned)
CCC(CC)C(=O)N1CCC(c2nc(-c3ccc(OC)cc3)[nH+]o2)CC1 (nonaromatic ring conformer: 88.2832926214533 kcal/mol)

>  <smiles>  (12) 
CCC(CC)C(=O)N1CCC(c2nc(-c3ccc(OC)cc3)no2)CC1

>  <score_type>  (12) 
oracle

>  <origin>  (12) 
adg

>  <m_score__min__energy>  (12) 
-7.4500000000000002

>  <m_primary>  (12) 
energy

$$$$
12:0
     RDKit          3D

 50 52  0  0  0  0  0  0  0  0999 V2000
   -6.2890   16.4600  -33.8470 C   0  0  0  0  0  0  0  0  0  0  0  0
   -7.2540   16.9410  -32.9160 O   0  0  0  0  0  0  0  0  0  0  0  0
   -7.5500   18.2980  -32.7140 C   0  0  0  0  0  0  0  0  0  0  0  0
   -6.8200   19.3310  -33.3310 C   0  0  0  0  0  0  0  0  0  0  0  0
   -7.1510   20.6680  -33.0920 C   0  0  0  0  0  0  0  0  0  0  0  0
   -8.2160   20.9930  -32.2390 C   0  0  0  0  0  0  0  0  0  0  0  0
   -8.5380   22.4370  -31.9450 C   0  0  0  0  0  0  0  0  0  0  0  0
   -7.3920   23.3330  -32.1960 N   0  0  0  0  0  0  0  0  0  0  0  0
   -6.4450   23.4120  -31.0520 C   0  0  0  0  0  0  0  0  0  0  0  0
   -5.4210   22.2370  -31.0600 C   0  0  0  0  0  0  0  0  0  0  0  0
   -4.0460   22.6650  -31.5950 C   0  0  0  0  0  0  0  0  0  0  0  0
   -3.4600   23.7860  -30.8200 N   0  0  0  0  0  0  0  0  0  0  0  0
   -2.3520   23.4020  -29.9150 C   0  0  0  0  0  0  0  0  0  0  0  0
   -2.2220   24.2870  -28.6920 C   0  0  0  0  0  0  0  0  0  0  0  0
   -1.2700   25.3210  -28.6530 C   0  0  0  0  0  0  0  0  0  0  0  0
   -1.1480   26.1270  -27.5170 C   0  0  0  0  0  0  0  0  0  0  0  0
   -1.9840   25.9220  -26.4180 C   0  0  0  0  0  0  0  0  0  0  0  0
   -2.9530   24.9160  -26.4570 C   0  0  0  0  0  0  0  0  0  0  0  0
   -3.0790   24.1070  -27.5900 C   0  0  0  0  0  0  0  0  0  0  0  0
   -4.4410   24.7090  -30.2030 C   0  0  0  0  0  0  0  0  0  0  0  0
   -5.7270   24.7870  -31.0300 C   0  0  0  0  0  0  0  0  0  0  0  0
   -8.9440   19.9620  -31.6250 C   0  0  0  0  0  0  0  0  0  0  0  0
   -8.6120   18.6250  -31.8630 C   0  0  0  0  0  0  0  0  0  0  0  0
   -5.4340   16.0338  -33.3017 H   0  0  0  0  0  0  0  0  0  0  0  0
   -6.7446   15.6835  -34.4791 H   0  0  0  0  0  0  0  0  0  0  0  0
   -5.9433   17.2912  -34.4791 H   0  0  0  0  0  0  0  0  0  0  0  0
   -5.9854   19.0853  -34.0042 H   0  0  0  0  0  0  0  0  0  0  0  0
   -6.5732   21.4695  -33.5755 H   0  0  0  0  0  0  0  0  0  0  0  0
   -9.3767   22.7489  -32.5848 H   0  0  0  0  0  0  0  0  0  0  0  0
   -8.7943   22.5123  -30.8779 H   0  0  0  0  0  0  0  0  0  0  0  0
   -6.8970   23.0480  -33.0740 H   0  0  0  0  0  0  0  0  0  0  0  0
   -7.8010   24.2800  -32.3810 H   0  0  0  0  0  0  0  0  0  0  0  0
   -7.0327   23.3155  -30.1272 H   0  0  0  0  0  0  0  0  0  0  0  0
   -5.3005   21.8659  -30.0315 H   0  0  0  0  0  0  0  0  0  0  0  0
   -5.8124   21.4543  -31.7264 H   0  0  0  0  0  0  0  0  0  0  0  0
   -3.3631   21.8043  -31.5420 H   0  0  0  0  0  0  0  0  0  0  0  0
   -4.1822   23.0093  -32.6308 H   0  0  0  0  0  0  0  0  0  0  0  0
   -2.5225   22.3688  -29.5781 H   0  0  0  0  0  0  0  0  0  0  0  0
   -1.4196   23.5114  -30.4883 H   0  0  0  0  0  0  0  0  0  0  0  0
   -0.6176   25.4968  -29.5210 H   0  0  0  0  0  0  0  0  0  0  0  0
   -0.3912   26.9248  -27.4892 H   0  0  0  0  0  0  0  0  0  0  0  0
   -1.8800   26.5518  -25.5222 H   0  0  0  0  0  0  0  0  0  0  0  0
   -3.6179   24.7604  -25.5946 H   0  0  0  0  0  0  0  0  0  0  0  0
   -3.8523   23.3253  -27.6205 H   0  0  0  0  0  0  0  0  0  0  0  0
   -4.6858   24.3489  -29.1928 H   0  0  0  0  0  0  0  0  0  0  0  0
   -3.9940   25.7132  -30.1602 H   0  0  0  0  0  0  0  0  0  0  0  0
   -6.3973   25.5380  -30.5865 H   0  0  0  0  0  0  0  0  0  0  0  0
   -5.4693   25.0695  -32.0614 H   0  0  0  0  0  0  0  0  0  0  0  0
   -9.7799   20.2072  -30.9533 H   0  0  0  0  0  0  0  0  0  0  0  0
   -9.1896   17.8243  -31.3780 H   0  0  0  0  0  0  0  0  0  0  0  0
  1  2  1  0
  2  3  1  0
  3  4  2  0
  4  5  1  0
  5  6  2  0
  6  7  1  0
  7  8  1  0
  8  9  1  0
  9 10  1  0
 10 11  1  0
 11 12  1  0
 12 13  1  0
 13 14  1  0
 14 15  2  0
 15 16  1  0
 16 17  2  0
 17 18  1  0
 18 19  2  0
 12 20  1  0
 20 21  1  0
  6 22  1  0
 22 23  2  0
 23  3  1  0
 21  9  1  0
 19 14  1  0
  1 24  1  0
  1 25  1  0
  1 26  1  0
  4 27  1  0
  5 28  1  0
  7 29  1  0
  7 30  1  0
  8 31  1  0
  8 32  1  0
  9 33  1  0
 10 34  1  0
 10 35  1  0
 11 36  1  0
 11 37  1  0
 13 38  1  0
 13 39  1  0
 15 40  1  0
 16 41  1  0
 17 42  1  0
 18 43  1  0
 19 44  1  0
 20 45  1  0
 20 46  1  0
 21 47  1  0
 21 48  1  0
 22 49  1  0
 23 50  1  0
M  CHG  1   8   1
M  END
>  <UniqueID>  (13) 
12

>  <SMILES>  (13) 
COc1ccc(C[NH2+]C2CCN(Cc3ccccc3)CC2)cc1

>  <Energy>  (13) 
63.58225686951018

>  <Genealogy>  (13) 
COc1ccc(C[NH2+]C2CCN(Cc3ccccc3)CC2)cc1 (protonated)
COc1ccc(C[NH2+]C2CCN(Cc3ccccc3)CC2)cc1 (3D coordinates assigned)
COc1ccc(C[NH2+]C2CCN(Cc3ccccc3)CC2)cc1 (nonaromatic ring conformer: 63.58225686951018 kcal/mol)

>  <smiles>  (13) 
COc1ccc(CNC2CCN(Cc3ccccc3)CC2)cc1

>  <score_type>  (13) 
oracle

>  <origin>  (13) 
adg

>  <m_score__min__energy>  (13) 
-7.7800000000000002

>  <m_primary>  (13) 
energy

$$$$
13:0
     RDKit          3D

 47 48  0  0  0  0  0  0  0  0999 V2000
   -2.7280   20.5720  -28.2480 C   0  0  0  0  0  0  0  0  0  0  0  0
   -3.3370   20.9580  -29.5730 C   0  0  0  0  0  0  0  0  0  0  0  0
   -2.9950   22.3100  -29.9950 N   0  0  0  0  0  0  0  0  0  0  0  0
   -1.8500   22.3670  -30.8310 C   0  0  0  0  0  0  0  0  0  0  0  0
   -1.2880   21.1100  -31.3560 C   0  0  0  0  0  0  0  0  0  0  0  0
   -3.0420   23.1680  -28.8610 C   0  0  0  0  0  0  0  0  0  0  0  0
   -3.5860   24.5420  -29.1100 C   0  0  0  0  0  0  0  0  0  0  0  0
   -3.8320   24.8080  -30.4740 O   0  0  0  0  0  0  0  0  0  0  0  0
   -5.1260   25.2210  -30.6620 C   0  0  0  0  0  0  0  0  0  0  0  0
   -6.1470   24.0750  -30.6650 C   0  0  0  0  0  0  0  0  0  0  0  0
   -5.8820   23.0070  -31.3580 O   0  0  0  0  0  0  0  0  0  0  0  0
   -5.6200   21.9500  -32.0450 C   0  0  0  0  0  0  0  0  0  0  0  0
   -4.4000   21.7860  -32.7170 C   0  0  0  0  0  0  0  0  0  0  0  0
   -4.1150   20.6590  -33.4530 C   0  0  0  0  0  0  0  0  0  0  0  0
   -5.0820   19.6840  -33.5100 C   0  0  0  0  0  0  0  0  0  0  0  0
   -6.3030   19.7720  -32.8790 C   0  0  0  0  0  0  0  0  0  0  0  0
   -7.2240   18.7410  -32.9860 C   0  0  0  0  0  0  0  0  0  0  0  0
   -8.4340   18.8720  -32.3370 C   0  0  0  0  0  0  0  0  0  0  0  0
   -8.7230   19.9960  -31.6000 C   0  0  0  0  0  0  0  0  0  0  0  0
   -7.7900   21.0060  -31.5090 C   0  0  0  0  0  0  0  0  0  0  0  0
   -6.5560   20.9050  -32.1540 C   0  0  0  0  0  0  0  0  0  0  0  0
   -3.3494   20.9659  -27.4302 H   0  0  0  0  0  0  0  0  0  0  0  0
   -2.6761   19.4757  -28.1738 H   0  0  0  0  0  0  0  0  0  0  0  0
   -1.7144   20.9929  -28.1738 H   0  0  0  0  0  0  0  0  0  0  0  0
   -2.9812   20.2531  -30.3389 H   0  0  0  0  0  0  0  0  0  0  0  0
   -4.4296   20.9225  -29.4509 H   0  0  0  0  0  0  0  0  0  0  0  0
   -3.8240   22.6130  -30.5970 H   0  0  0  0  0  0  0  0  0  0  0  0
   -2.1144   22.9895  -31.6985 H   0  0  0  0  0  0  0  0  0  0  0  0
   -1.0598   22.7553  -30.1716 H   0  0  0  0  0  0  0  0  0  0  0  0
   -0.9974   20.4599  -30.5176 H   0  0  0  0  0  0  0  0  0  0  0  0
   -2.0435   20.5993  -31.9712 H   0  0  0  0  0  0  0  0  0  0  0  0
   -0.4036   21.3325  -31.9712 H   0  0  0  0  0  0  0  0  0  0  0  0
   -3.6730   22.6873  -28.0990 H   0  0  0  0  0  0  0  0  0  0  0  0
   -1.9971   23.3105  -28.5483 H   0  0  0  0  0  0  0  0  0  0  0  0
   -4.5314   24.6482  -28.5579 H   0  0  0  0  0  0  0  0  0  0  0  0
   -2.8242   25.2595  -28.7711 H   0  0  0  0  0  0  0  0  0  0  0  0
   -5.3889   25.9178  -29.8524 H   0  0  0  0  0  0  0  0  0  0  0  0
   -5.1709   25.6932  -31.6545 H   0  0  0  0  0  0  0  0  0  0  0  0
   -6.2821   23.7584  -29.6203 H   0  0  0  0  0  0  0  0  0  0  0  0
   -7.0303   24.5041  -31.1608 H   0  0  0  0  0  0  0  0  0  0  0  0
   -3.6462   22.5846  -32.6536 H   0  0  0  0  0  0  0  0  0  0  0  0
   -3.1532   20.5431  -33.9741 H   0  0  0  0  0  0  0  0  0  0  0  0
   -4.8676   18.7778  -34.0955 H   0  0  0  0  0  0  0  0  0  0  0  0
   -6.9951   17.8402  -33.5744 H   0  0  0  0  0  0  0  0  0  0  0  0
   -9.1785   18.0655  -32.4102 H   0  0  0  0  0  0  0  0  0  0  0  0
   -9.6916   20.0884  -31.0869 H   0  0  0  0  0  0  0  0  0  0  0  0
   -8.0210   21.9054  -30.9193 H   0  0  0  0  0  0  0  0  0  0  0  0
  1  2  1  0
  2  3  1  0
  3  4  1  0
  4  5  1  0
  3  6  1  0
  6  7  1  0
  7  8  1  0
  8  9  1  0
  9 10  1  0
 10 11  1  0
 11 12  1  0
 12 13  2  0
 13 14  1  0
 14 15  2  0
 15 16  1  0
 16 17  2  0
 17 18  1  0
 18 19  2  0
 19 20  1  0
 20 21  2  0
 21 12  1  0
 21 16  1  0
  1 22  1  0
  1 23  1  0
  1 24  1  0
  2 25  1  0
  2 26  1  0
  3 27  1  0
  4 28  1  0
  4 29  1  0
  5 30  1  0
  5 31  1  0
  5 32  1  0
  6 33  1  0
  6 34  1  0
  7 35  1  0
  7 36  1  0
  9 37  1  0
  9 38  1  0
 10 39  1  0
 10 40  1  0
 13 41  1  0
 14 42  1  0
 15 43  1  0
 17 44  1  0
 18 45  1  0
 19 46  1  0
 20 47  1  0
M  CHG  1   3   1
M  END
>  <UniqueID>  (14) 
13

>  <SMILES>  (14) 
CC[NH+](CC)CCOCCOc1cccc2ccccc12

>  <Energy>  (14) 
186.84859635709336

>  <Genealogy>  (14) 
CC[NH+](CC)CCOCCOc1cccc2ccccc12 (protonated)
CC[NH+](CC)CCOCCOc1cccc2ccccc12 (3D coordinates assigned)
CC[NH+](CC)CCOCCOc1cccc2ccccc12 (optimized conformer: 186.84859635709336 kcal/mol)

>  <smiles>  (14) 
CCN(CC)CCOCCOc1cccc2ccccc12

>  <score_type>  (14) 
oracle

>  <origin>  (14) 
adg

>  <m_score__min__energy>  (14) 
-6.2599999999999998

>  <m_primary>  (14) 
energy

$$$$
14:0
     RDKit          3D

 42 43  0  0  0  0  0  0  0  0999 V2000
   -1.9700   25.4290  -26.6120 C   0  0  0  0  0  0  0  0  0  0  0  0
   -1.2070   25.9890  -27.7940 C   0  0  0  0  0  0  0  0  0  0  0  0
   -1.8190   25.5510  -28.9680 O   0  0  0  0  0  0  0  0  0  0  0  0
   -1.9660   24.2220  -29.3290 C   0  0  0  0  0  0  0  0  0  0  0  0
   -1.0790   23.3800  -29.0130 O   0  0  0  0  0  0  0  0  0  0  0  0
   -3.1910   23.8480  -30.0870 C   0  0  0  0  0  0  0  0  0  0  0  0
   -3.7090   22.5540  -29.4970 C   0  0  0  0  0  0  0  0  0  0  0  0
   -4.9230   22.0450  -30.2290 C   0  0  0  0  0  0  0  0  0  0  0  0
   -5.5210   23.0840  -31.0110 N   0  0  0  0  0  0  0  0  0  0  0  0
   -6.9940   22.6310  -31.7320 S   0  0  0  0  0  0  0  0  0  0  0  0
   -8.0450   22.6650  -30.6350 O   0  0  0  0  0  0  0  0  0  0  0  0
   -7.3880   23.7070  -32.7190 O   0  0  0  0  0  0  0  0  0  0  0  0
   -6.9580   21.0590  -32.4770 C   0  0  0  0  0  0  0  0  0  0  0  0
   -5.8980   20.4150  -33.0530 C   0  0  0  0  0  0  0  0  0  0  0  0
   -4.5200   20.9010  -33.1860 C   0  0  0  0  0  0  0  0  0  0  0  0
   -6.3670   19.2310  -33.4840 N   0  0  0  0  0  0  0  0  0  0  0  0
   -7.6540   19.1140  -33.2040 N   0  0  0  0  0  0  0  0  0  0  0  0
   -8.0690   20.2400  -32.5700 C   0  0  0  0  0  0  0  0  0  0  0  0
   -9.4550   20.4910  -32.0930 C   0  0  0  0  0  0  0  0  0  0  0  0
   -5.5770   24.3550  -30.3170 C   0  0  0  0  0  0  0  0  0  0  0  0
   -4.2280   24.9380  -30.0600 C   0  0  0  0  0  0  0  0  0  0  0  0
   -1.5021   25.7724  -25.6776 H   0  0  0  0  0  0  0  0  0  0  0  0
   -3.0125   25.7780  -26.6499 H   0  0  0  0  0  0  0  0  0  0  0  0
   -1.9497   24.3298  -26.6499 H   0  0  0  0  0  0  0  0  0  0  0  0
   -1.2212   27.0883  -27.7568 H   0  0  0  0  0  0  0  0  0  0  0  0
   -0.1628   25.6443  -27.7640 H   0  0  0  0  0  0  0  0  0  0  0  0
   -2.9493   23.7079  -31.1509 H   0  0  0  0  0  0  0  0  0  0  0  0
   -2.9153   21.7946  -29.5550 H   0  0  0  0  0  0  0  0  0  0  0  0
   -3.9987   22.7487  -28.4538 H   0  0  0  0  0  0  0  0  0  0  0  0
   -4.6237   21.2211  -30.8935 H   0  0  0  0  0  0  0  0  0  0  0  0
   -5.6580   21.6946  -29.4894 H   0  0  0  0  0  0  0  0  0  0  0  0
   -4.0870   21.0537  -32.1864 H   0  0  0  0  0  0  0  0  0  0  0  0
   -3.9212   20.1598  -33.7356 H   0  0  0  0  0  0  0  0  0  0  0  0
   -4.5187   21.8538  -33.7356 H   0  0  0  0  0  0  0  0  0  0  0  0
   -8.2100   18.2640  -33.4560 H   0  0  0  0  0  0  0  0  0  0  0  0
   -9.4694   20.4936  -30.9931 H   0  0  0  0  0  0  0  0  0  0  0  0
   -9.8004   21.4663  -32.4665 H   0  0  0  0  0  0  0  0  0  0  0  0
  -10.1204   19.6988  -32.4665 H   0  0  0  0  0  0  0  0  0  0  0  0
   -6.1544   25.0635  -30.9290 H   0  0  0  0  0  0  0  0  0  0  0  0
   -6.0501   24.1763  -29.3401 H   0  0  0  0  0  0  0  0  0  0  0  0
   -3.9970   25.6818  -30.8368 H   0  0  0  0  0  0  0  0  0  0  0  0
   -4.2224   25.4218  -29.0721 H   0  0  0  0  0  0  0  0  0  0  0  0
  1  2  1  0
  2  3  1  0
  3  4  1  0
  4  5  2  0
  4  6  1  0
  6  7  1  0
  7  8  1  0
  8  9  1  0
  9 10  1  0
 10 11  2  0
 10 12  2  0
 10 13  1  0
 13 14  1  0
 14 15  1  0
 14 16  2  0
 16 17  1  0
 17 18  1  0
 18 19  1  0
  9 20  1  0
 20 21  1  0
 21  6  1  0
 18 13  2  0
  1 22  1  0
  1 23  1  0
  1 24  1  0
  2 25  1  0
  2 26  1  0
  6 27  1  0
  7 28  1  0
  7 29  1  0
  8 30  1  0
  8 31  1  0
 15 32  1  0
 15 33  1  0
 15 34  1  0
 17 35  1  0
 19 36  1  0
 19 37  1  0
 19 38  1  0
 20 39  1  0
 20 40  1  0
 21 41  1  0
 21 42  1  0
M  END
>  <smiles>  (15) 
CCOC(=O)C1CCN(S(=O)(=O)c2c(C)n[nH]c2C)CC1

>  <score_type>  (15) 
oracle

>  <origin>  (15) 
adg

>  <m_score__min__energy>  (15) 
-8.0999999999999996

>  <m_primary>  (15) 
energy

$$$$
15:0
     RDKit          3D

 38 40  0  0  0  0  0  0  0  0999 V2000
    2.0146   19.6110  -36.1052 H   0  0  0  0  0  0  0  0  0  0  0  0
    1.0540   19.8700  -35.6360 C   0  0  0  0  0  0  0  0  0  0  0  0
   -0.0710   18.7790  -35.0190 S   0  0  0  0  0  0  0  0  0  0  0  0
   -1.1440   19.9900  -34.5400 C   0  0  0  0  0  0  0  0  0  0  0  0
   -2.2980   19.8260  -33.9580 N   0  0  0  0  0  0  0  0  0  0  0  0
   -3.1310   20.8320  -33.3550 C   0  0  0  0  0  0  0  0  0  0  0  0
   -2.6450   21.9380  -32.9960 O   0  0  0  0  0  0  0  0  0  0  0  0
   -4.5750   20.5660  -33.1540 C   0  0  0  0  0  0  0  0  0  0  0  0
   -5.2090   19.5080  -33.8290 C   0  0  0  0  0  0  0  0  0  0  0  0
   -4.6277   18.8684  -34.5095 H   0  0  0  0  0  0  0  0  0  0  0  0
   -6.5710   19.2630  -33.6420 C   0  0  0  0  0  0  0  0  0  0  0  0
   -7.0537   18.4297  -34.1736 H   0  0  0  0  0  0  0  0  0  0  0  0
   -7.3270   20.0700  -32.7830 C   0  0  0  0  0  0  0  0  0  0  0  0
   -8.7260   19.7800  -32.5980 C   0  0  0  0  0  0  0  0  0  0  0  0
   -9.8510   19.5510  -32.4510 N   0  0  0  0  0  0  0  0  0  0  0  0
   -6.7060   21.1380  -32.1080 C   0  0  0  0  0  0  0  0  0  0  0  0
   -7.6330   22.2190  -31.0050 S   0  0  0  0  0  0  0  0  0  0  0  0
   -6.1730   23.1450  -30.5260 C   0  0  0  0  0  0  0  0  0  0  0  0
   -5.3440   22.6720  -29.5040 C   0  0  0  0  0  0  0  0  0  0  0  0
   -5.5830   21.7257  -28.9967 H   0  0  0  0  0  0  0  0  0  0  0  0
   -4.2120   23.4000  -29.1260 C   0  0  0  0  0  0  0  0  0  0  0  0
   -3.5649   23.0230  -28.3203 H   0  0  0  0  0  0  0  0  0  0  0  0
   -3.8950   24.6060  -29.7650 C   0  0  0  0  0  0  0  0  0  0  0  0
   -2.7490   25.2990  -29.3490 O   0  0  0  0  0  0  0  0  0  0  0  0
   -1.9730   24.9550  -28.2050 C   0  0  0  0  0  0  0  0  0  0  0  0
   -2.5347   25.2040  -27.2926 H   0  0  0  0  0  0  0  0  0  0  0  0
   -1.7565   23.8766  -28.2195 H   0  0  0  0  0  0  0  0  0  0  0  0
   -1.0286   25.5188  -28.2195 H   0  0  0  0  0  0  0  0  0  0  0  0
   -4.7310   25.0760  -30.7970 C   0  0  0  0  0  0  0  0  0  0  0  0
   -4.4925   26.0205  -31.3080 H   0  0  0  0  0  0  0  0  0  0  0  0
   -5.8620   24.3470  -31.1740 C   0  0  0  0  0  0  0  0  0  0  0  0
   -6.5097   24.7182  -31.9819 H   0  0  0  0  0  0  0  0  0  0  0  0
   -5.3370   21.3730  -32.2900 C   0  0  0  0  0  0  0  0  0  0  0  0
   -4.8516   22.1994  -31.7502 H   0  0  0  0  0  0  0  0  0  0  0  0
   -0.6580   21.2130  -34.8410 N   0  0  0  0  0  0  0  0  0  0  0  0
   -1.1580   22.1080  -34.6400 H   0  0  0  0  0  0  0  0  0  0  0  0
    0.5570   21.1550  -35.4490 C   0  0  0  0  0  0  0  0  0  0  0  0
    1.1039   22.0545  -35.7680 H   0  0  0  0  0  0  0  0  0  0  0  0
  1  2  1  0
  2  3  1  0
  3  4  1  0
  4  5  2  0
  5  6  1  0
  6  7  2  0
  6  8  1  0
  8  9  2  0
  9 10  1  0
  9 11  1  0
 11 12  1  0
 11 13  2  0
 13 14  1  0
 14 15  3  0
 13 16  1  0
 16 17  1  0
 17 18  1  0
 18 19  2  0
 19 20  1  0
 19 21  1  0
 21 22  1  0
 21 23  2  0
 23 24  1  0
 24 25  1  0
 25 26  1  0
 25 27  1  0
 25 28  1  0
 23 29  1  0
 29 30  1  0
 29 31  2  0
 31 32  1  0
 16 33  2  0
 33 34  1  0
  4 35  1  0
 35 36  1  0
 35 37  1  0
 37 38  1  0
 37  2  2  0
 33  8  1  0
 31 18  1  0
M  END
>  <UniqueID>  (16) 
14

>  <SMILES>  (16) 
COc1ccc(Sc2cc(C(=O)/N=c3/[nH]ccs3)ccc2C#N)cc1

>  <Energy>  (16) 
69.59386523424307

>  <Genealogy>  (16) 
COc1ccc(Sc2cc(C(=O)/N=c3/[nH]ccs3)ccc2C#N)cc1 (cis-trans isomerization)
COc1ccc(Sc2cc(C(=O)/N=c3/[nH]ccs3)ccc2C#N)cc1 (3D coordinates assigned)
COc1ccc(Sc2cc(C(=O)/N=c3/[nH]ccs3)ccc2C#N)cc1 (optimized conformer: 69.59386523424307 kcal/mol)

>  <smiles>  (16) 
COc1ccc(Sc2cc(C(=O)N=c3[nH]ccs3)ccc2C#N)cc1

>  <score_type>  (16) 
oracle

>  <origin>  (16) 
adg

>  <m_score__min__energy>  (16) 
-8.5199999999999996

>  <m_primary>  (16) 
energy

$$$$
16:0
     RDKit          3D

 53 57  0  0  0  0  0  0  0  0999 V2000
   -5.9720   17.3730  -33.5250 C   0  0  0  0  0  0  0  0  0  0  0  0
   -6.0240   18.6710  -34.3200 C   0  0  0  0  0  0  0  0  0  0  0  0
   -5.2610   19.7220  -33.6340 N   0  0  0  0  0  0  0  0  0  0  0  0
   -5.7490   20.6760  -32.7940 C   0  0  0  0  0  0  0  0  0  0  0  0
   -7.1820   20.8570  -32.4760 C   0  0  0  0  0  0  0  0  0  0  0  0
   -8.0370   19.7500  -32.3730 C   0  0  0  0  0  0  0  0  0  0  0  0
   -9.3810   19.9480  -32.0520 C   0  0  0  0  0  0  0  0  0  0  0  0
   -9.8590   21.2410  -31.8370 C   0  0  0  0  0  0  0  0  0  0  0  0
   -8.9810   22.3210  -31.9480 C   0  0  0  0  0  0  0  0  0  0  0  0
   -7.6750   22.1080  -32.2590 N   0  0  0  0  0  0  0  0  0  0  0  0
   -4.6990   21.3960  -32.2130 C   0  0  0  0  0  0  0  0  0  0  0  0
   -4.8030   22.5270  -31.2650 C   0  0  0  0  0  0  0  0  0  0  0  0
   -5.3610   23.7490  -31.6740 C   0  0  0  0  0  0  0  0  0  0  0  0
   -5.4460   24.8210  -30.7790 C   0  0  0  0  0  0  0  0  0  0  0  0
   -4.9710   24.6810  -29.4720 C   0  0  0  0  0  0  0  0  0  0  0  0
   -4.4100   23.4690  -29.0590 C   0  0  0  0  0  0  0  0  0  0  0  0
   -4.3260   22.3950  -29.9500 C   0  0  0  0  0  0  0  0  0  0  0  0
   -3.5410   20.8380  -32.7210 C   0  0  0  0  0  0  0  0  0  0  0  0
   -2.1990   21.1610  -32.5080 C   0  0  0  0  0  0  0  0  0  0  0  0
   -1.2180   20.3940  -33.1660 C   0  0  0  0  0  0  0  0  0  0  0  0
   -1.6000   19.3280  -34.0100 C   0  0  0  0  0  0  0  0  0  0  0  0
   -2.9590   19.0330  -34.2180 C   0  0  0  0  0  0  0  0  0  0  0  0
   -3.9150   19.8220  -33.5670 C   0  0  0  0  0  0  0  0  0  0  0  0
   -0.6240   18.5560  -34.6370 O   0  0  0  0  0  0  0  0  0  0  0  0
    0.7400   18.8310  -34.5160 C   0  0  0  0  0  0  0  0  0  0  0  0
    1.5620   18.0630  -35.0840 O   0  0  0  0  0  0  0  0  0  0  0  0
    1.2390   20.0630  -33.7780 C   0  0  0  0  0  0  0  0  0  0  0  0
    2.3970   19.6710  -32.8440 C   0  0  0  0  0  0  0  0  0  0  0  0
    1.7270   21.0950  -34.8070 C   0  0  0  0  0  0  0  0  0  0  0  0
    0.1730   20.6750  -32.9710 N   0  0  0  0  0  0  0  0  0  0  0  0
   -5.9812   17.6014  -32.4490 H   0  0  0  0  0  0  0  0  0  0  0  0
   -6.8461   16.7541  -33.7759 H   0  0  0  0  0  0  0  0  0  0  0  0
   -5.0512   16.8260  -33.7759 H   0  0  0  0  0  0  0  0  0  0  0  0
   -5.5927   18.5025  -35.3178 H   0  0  0  0  0  0  0  0  0  0  0  0
   -7.0721   18.9923  -34.4108 H   0  0  0  0  0  0  0  0  0  0  0  0
   -7.6516   18.7340  -32.5438 H   0  0  0  0  0  0  0  0  0  0  0  0
  -10.0610   19.0874  -31.9688 H   0  0  0  0  0  0  0  0  0  0  0  0
  -10.9161   21.4078  -31.5828 H   0  0  0  0  0  0  0  0  0  0  0  0
   -9.3466   23.3454  -31.7836 H   0  0  0  0  0  0  0  0  0  0  0  0
   -5.7330   23.8639  -32.7028 H   0  0  0  0  0  0  0  0  0  0  0  0
   -5.8870   25.7748  -31.1042 H   0  0  0  0  0  0  0  0  0  0  0  0
   -5.0386   25.5241  -28.7687 H   0  0  0  0  0  0  0  0  0  0  0  0
   -4.0340   23.3602  -28.0310 H   0  0  0  0  0  0  0  0  0  0  0  0
   -3.8847   21.4429  -29.6203 H   0  0  0  0  0  0  0  0  0  0  0  0
   -1.9160   21.9916  -31.8446 H   0  0  0  0  0  0  0  0  0  0  0  0
   -3.2629   18.2045  -34.8746 H   0  0  0  0  0  0  0  0  0  0  0  0
    2.0766   19.7795  -31.7973 H   0  0  0  0  0  0  0  0  0  0  0  0
    2.6832   18.6259  -33.0335 H   0  0  0  0  0  0  0  0  0  0  0  0
    3.2591   20.3274  -33.0335 H   0  0  0  0  0  0  0  0  0  0  0  0
    2.1403   21.9689  -34.2822 H   0  0  0  0  0  0  0  0  0  0  0  0
    2.5070   20.6434  -35.4377 H   0  0  0  0  0  0  0  0  0  0  0  0
    0.8831   21.4113  -35.4377 H   0  0  0  0  0  0  0  0  0  0  0  0
    0.4340   21.4530  -32.3210 H   0  0  0  0  0  0  0  0  0  0  0  0
  1  2  1  0
  2  3  1  0
  3  4  1  0
  4  5  1  0
  5  6  2  0
  6  7  1  0
  7  8  2  0
  8  9  1  0
  9 10  2  0
  4 11  2  0
 11 12  1  0
 12 13  2  0
 13 14  1  0
 14 15  2  0
 15 16  1  0
 16 17  2  0
 11 18  1  0
 18 19  2  0
 19 20  1  0
 20 21  2  0
 21 22  1  0
 22 23  2  0
 21 24  1  0
 24 25  1  0
 25 26  2  0
 25 27  1  0
 27 28  1  0
 27 29  1  0
 27 30  1  0
 23  3  1  0
 10  5  1  0
 17 12  1  0
 23 18  1  0
 30 20  1  0
  1 31  1  0
  1 32  1  0
  1 33  1  0
  2 34  1  0
  2 35  1  0
  6 36  1  0
  7 37  1  0
  8 38  1  0
  9 39  1  0
 13 40  1  0
 14 41  1  0
 15 42  1  0
 16 43  1  0
 17 44  1  0
 19 45  1  0
 22 46  1  0
 28 47  1  0
 28 48  1  0
 28 49  1  0
 29 50  1  0
 29 51  1  0
 29 52  1  0
 30 53  1  0
M  END
>  <UniqueID>  (17) 
15

>  <SMILES>  (17) 
CCn1c(-c2ccccn2)c(-c2ccccc2)c2cc3c(cc21)OC(=O)C(C)(C)N3

>  <Energy>  (17) 
98.01169189514184

>  <Genealogy>  (17) 
CCn1c(-c2ccccn2)c(-c2ccccc2)c2cc3c(cc21)OC(=O)C(C)(C)N3 (3D coordinates assigned)
CCn1c(-c2ccccn2)c(-c2ccccc2)c2cc3c(cc21)OC(=O)C(C)(C)N3 (nonaromatic ring conformer: 98.01169189514184 kcal/mol)

>  <smiles>  (17) 
CCn1c(-c2ccccn2)c(-c2ccccc2)c2cc3c(cc21)OC(=O)C(C)(C)N3

>  <score_type>  (17) 
oracle

>  <origin>  (17) 
adg

>  <m_score__min__energy>  (17) 
-8.9900000000000002

>  <m_primary>  (17) 
energy

$$$$
17:0
     RDKit          3D

 50 52  0  0  0  0  0  0  0  0999 V2000
   -3.3860   25.6790  -31.5860 H   0  0  0  0  0  0  0  0  0  0  0  0
   -3.9030   25.2830  -30.7700 N   0  0  0  0  0  0  0  0  0  0  0  0
   -3.3080   24.5300  -29.9010 C   0  0  0  0  0  0  0  0  0  0  0  0
   -2.4130   25.0140  -29.0010 N   0  0  0  0  0  0  0  0  0  0  0  0
   -2.0600   23.9090  -28.3190 C   0  0  0  0  0  0  0  0  0  0  0  0
   -1.1550   23.8190  -27.2660 C   0  0  0  0  0  0  0  0  0  0  0  0
   -0.6294   24.7101  -26.8923 H   0  0  0  0  0  0  0  0  0  0  0  0
   -0.9330   22.5530  -26.6940 C   0  0  0  0  0  0  0  0  0  0  0  0
   -0.2216   22.4481  -25.8616 H   0  0  0  0  0  0  0  0  0  0  0  0
   -1.6210   21.4060  -27.1830 C   0  0  0  0  0  0  0  0  0  0  0  0
   -1.4280   20.1280  -26.6370 O   0  0  0  0  0  0  0  0  0  0  0  0
   -2.4690   19.1850  -26.4130 C   0  0  0  0  0  0  0  0  0  0  0  0
   -2.6163   19.0516  -25.3311 H   0  0  0  0  0  0  0  0  0  0  0  0
   -3.4009   19.5527  -26.8673 H   0  0  0  0  0  0  0  0  0  0  0  0
   -2.1949   18.2214  -26.8673 H   0  0  0  0  0  0  0  0  0  0  0  0
   -2.5300   21.5420  -28.2510 C   0  0  0  0  0  0  0  0  0  0  0  0
   -3.0739   20.6708  -28.6450 H   0  0  0  0  0  0  0  0  0  0  0  0
   -2.7210   22.8130  -28.7950 C   0  0  0  0  0  0  0  0  0  0  0  0
   -3.5230   23.1920  -29.8040 N   0  0  0  0  0  0  0  0  0  0  0  0
   -4.3910   22.3500  -30.6350 C   0  0  0  0  0  0  0  0  0  0  0  0
   -4.3621   21.3191  -30.2523 H   0  0  0  0  0  0  0  0  0  0  0  0
   -5.4125   22.7554  -30.5892 H   0  0  0  0  0  0  0  0  0  0  0  0
   -3.9360   22.3510  -32.1040 C   0  0  0  0  0  0  0  0  0  0  0  0
   -4.7727   22.7059  -32.7237 H   0  0  0  0  0  0  0  0  0  0  0  0
   -3.0545   23.0065  -32.1607 H   0  0  0  0  0  0  0  0  0  0  0  0
   -3.4960   20.9730  -32.6310 C   0  0  0  0  0  0  0  0  0  0  0  0
   -3.4695   21.0246  -33.7295 H   0  0  0  0  0  0  0  0  0  0  0  0
   -2.5178   20.7748  -32.1685 H   0  0  0  0  0  0  0  0  0  0  0  0
   -4.3990   19.7790  -32.2330 C   0  0  0  0  0  0  0  0  0  0  0  0
   -3.7564   18.8929  -32.1239 H   0  0  0  0  0  0  0  0  0  0  0  0
   -4.9043   20.0860  -31.3054 H   0  0  0  0  0  0  0  0  0  0  0  0
   -5.4840   19.4380  -33.1850 N   0  0  0  0  0  0  0  0  0  0  0  0
   -5.0690   18.5470  -34.2800 C   0  0  0  0  0  0  0  0  0  0  0  0
   -4.6397   17.6254  -33.8601 H   0  0  0  0  0  0  0  0  0  0  0  0
   -5.9427   18.2956  -34.8992 H   0  0  0  0  0  0  0  0  0  0  0  0
   -4.3143   19.0540  -34.8992 H   0  0  0  0  0  0  0  0  0  0  0  0
   -6.7530   19.0210  -32.5570 C   0  0  0  0  0  0  0  0  0  0  0  0
   -7.2660   18.2995  -33.2099 H   0  0  0  0  0  0  0  0  0  0  0  0
   -6.5449   18.5505  -31.5847 H   0  0  0  0  0  0  0  0  0  0  0  0
   -7.6290   20.2260  -32.3550 C   0  0  0  0  0  0  0  0  0  0  0  0
   -9.0190   20.0680  -32.2150 C   0  0  0  0  0  0  0  0  0  0  0  0
   -9.4656   19.0647  -32.2773 H   0  0  0  0  0  0  0  0  0  0  0  0
   -9.8350   21.1810  -31.9970 C   0  0  0  0  0  0  0  0  0  0  0  0
  -10.9226   21.0524  -31.8936 H   0  0  0  0  0  0  0  0  0  0  0  0
   -9.2720   22.4580  -31.9100 C   0  0  0  0  0  0  0  0  0  0  0  0
   -9.9165   23.3335  -31.7425 H   0  0  0  0  0  0  0  0  0  0  0  0
   -7.8900   22.6210  -32.0360 C   0  0  0  0  0  0  0  0  0  0  0  0
   -7.4470   23.6253  -31.9644 H   0  0  0  0  0  0  0  0  0  0  0  0
   -7.0690   21.5100  -32.2530 C   0  0  0  0  0  0  0  0  0  0  0  0
   -5.9808   21.6421  -32.3441 H   0  0  0  0  0  0  0  0  0  0  0  0
  1  2  1  0
  2  3  2  0
  3  4  1  0
  4  5  1  0
  5  6  2  0
  6  7  1  0
  6  8  1  0
  8  9  1  0
  8 10  2  0
 10 11  1  0
 11 12  1  0
 12 13  1  0
 12 14  1  0
 12 15  1  0
 10 16  1  0
 16 17  1  0
 16 18  2  0
 18 19  1  0
 19 20  1  0
 20 21  1  0
 20 22  1  0
 20 23  1  0
 23 24  1  0
 23 25  1  0
 23 26  1  0
 26 27  1  0
 26 28  1  0
 26 29  1  0
 29 30  1  0
 29 31  1  0
 29 32  1  0
 32 33  1  0
 33 34  1  0
 33 35  1  0
 33 36  1  0
 32 37  1  0
 37 38  1  0
 37 39  1  0
 37 40  1  0
 40 41  2  0
 41 42  1  0
 41 43  1  0
 43 44  1  0
 43 45  2  0
 45 46  1  0
 45 47  1  0
 47 48  1  0
 47 49  2  0
 49 50  1  0
 19  3  1  0
 49 40  1  0
 18  5  1  0
M  CHG  1   4  -1
M  END
>  <UniqueID>  (18) 
16

>  <SMILES>  (18) 
[H]/N=c1\[n-]c2ccc(OC)cc2n1CCCCN(C)Cc1ccccc1

>  <Energy>  (18) 
91.33160038456741

>  <Genealogy>  (18) 
COc1ccc2[n-]c(=N)n(CCCCN(C)Cc3ccccc3)c2c1 (protonated)
[H]/N=c1\[n-]c2ccc(OC)cc2n1CCCCN(C)Cc1ccccc1 (cis-trans isomerization)
[H]/N=c1\[n-]c2ccc(OC)cc2n1CCCCN(C)Cc1ccccc1 (3D coordinates assigned)
[H]/N=c1\[n-]c2ccc(OC)cc2n1CCCCN(C)Cc1ccccc1 (optimized conformer: 91.33160038456741 kcal/mol)

>  <smiles>  (18) 
COc1ccc2[nH]c(=N)n(CCCCN(C)Cc3ccccc3)c2c1

>  <score_type>  (18) 
oracle

>  <origin>  (18) 
adg

>  <m_score__min__energy>  (18) 
-9.9900000000000002

>  <m_primary>  (18) 
energy

$$$$
18:0
     RDKit          3D

 53 55  0  0  0  0  0  0  0  0999 V2000
   -8.1120   22.9570  -31.6370 C   0  0  0  0  0  0  0  0  0  0  0  0
   -6.9180   22.1840  -32.1470 C   0  0  0  0  0  0  0  0  0  0  0  0
   -5.6470   22.8020  -32.2200 C   0  0  0  0  0  0  0  0  0  0  0  0
   -5.4630   24.1520  -31.9020 O   0  0  0  0  0  0  0  0  0  0  0  0
   -4.8750   24.5750  -30.7060 C   0  0  0  0  0  0  0  0  0  0  0  0
   -3.8420   25.2990  -30.7160 O   0  0  0  0  0  0  0  0  0  0  0  0
   -5.4480   24.1160  -29.4010 C   0  0  0  0  0  0  0  0  0  0  0  0
   -4.5140   23.1260  -28.6930 C   0  0  0  0  0  0  0  0  0  0  0  0
   -3.8620   23.7330  -27.4400 C   0  0  0  0  0  0  0  0  0  0  0  0
   -2.4030   23.8700  -27.6390 N   0  0  0  0  0  0  0  0  0  0  0  0
   -1.9710   25.2730  -27.5350 C   0  0  0  0  0  0  0  0  0  0  0  0
   -0.4320   25.3450  -27.4910 C   0  0  0  0  0  0  0  0  0  0  0  0
    0.2290   24.2350  -28.2170 N   0  0  0  0  0  0  0  0  0  0  0  0
    0.6210   23.1340  -27.3190 C   0  0  0  0  0  0  0  0  0  0  0  0
   -0.5750   23.7560  -29.3600 C   0  0  0  0  0  0  0  0  0  0  0  0
   -1.9940   23.3040  -28.9430 C   0  0  0  0  0  0  0  0  0  0  0  0
   -4.5300   22.0670  -32.6180 C   0  0  0  0  0  0  0  0  0  0  0  0
   -4.6570   20.7340  -32.9940 C   0  0  0  0  0  0  0  0  0  0  0  0
   -5.9060   20.1030  -32.9600 C   0  0  0  0  0  0  0  0  0  0  0  0
   -7.0490   20.8210  -32.5360 C   0  0  0  0  0  0  0  0  0  0  0  0
   -8.3930   20.1240  -32.6000 C   0  0  0  0  0  0  0  0  0  0  0  0
   -8.2860   18.6720  -32.1310 C   0  0  0  0  0  0  0  0  0  0  0  0
   -7.1950   17.9420  -32.8650 C   0  0  0  0  0  0  0  0  0  0  0  0
   -7.2610   16.7280  -32.9790 O   0  0  0  0  0  0  0  0  0  0  0  0
   -6.0110   18.6740  -33.4450 C   0  0  0  0  0  0  0  0  0  0  0  0
   -8.1079   22.9543  -30.5370 H   0  0  0  0  0  0  0  0  0  0  0  0
   -8.0605   23.9936  -32.0014 H   0  0  0  0  0  0  0  0  0  0  0  0
   -9.0368   22.4858  -32.0014 H   0  0  0  0  0  0  0  0  0  0  0  0
   -5.6012   24.9900  -28.7509 H   0  0  0  0  0  0  0  0  0  0  0  0
   -6.4014   23.6060  -29.6034 H   0  0  0  0  0  0  0  0  0  0  0  0
   -5.0961   22.2413  -28.3955 H   0  0  0  0  0  0  0  0  0  0  0  0
   -3.7102   22.8604  -29.3955 H   0  0  0  0  0  0  0  0  0  0  0  0
   -4.2973   24.7248  -27.2482 H   0  0  0  0  0  0  0  0  0  0  0  0
   -4.0465   23.0696  -26.5822 H   0  0  0  0  0  0  0  0  0  0  0  0
   -2.3377   25.8334  -28.4076 H   0  0  0  0  0  0  0  0  0  0  0  0
   -2.3810   25.7113  -26.6131 H   0  0  0  0  0  0  0  0  0  0  0  0
   -0.1141   26.2960  -27.9434 H   0  0  0  0  0  0  0  0  0  0  0  0
   -0.1328   25.2669  -26.4354 H   0  0  0  0  0  0  0  0  0  0  0  0
    0.5066   23.4554  -26.2732 H   0  0  0  0  0  0  0  0  0  0  0  0
   -0.0216   22.2612  -27.5068 H   0  0  0  0  0  0  0  0  0  0  0  0
    1.6706   22.8637  -27.5068 H   0  0  0  0  0  0  0  0  0  0  0  0
   -0.6664   24.5716  -30.0925 H   0  0  0  0  0  0  0  0  0  0  0  0
   -0.0597   22.8827  -29.7863 H   0  0  0  0  0  0  0  0  0  0  0  0
   -2.7098   23.6321  -29.7112 H   0  0  0  0  0  0  0  0  0  0  0  0
   -1.9831   22.2084  -28.8457 H   0  0  0  0  0  0  0  0  0  0  0  0
   -3.5399   22.5460  -32.6346 H   0  0  0  0  0  0  0  0  0  0  0  0
   -3.7697   20.1717  -33.3204 H   0  0  0  0  0  0  0  0  0  0  0  0
   -9.1053   20.6581  -31.9540 H   0  0  0  0  0  0  0  0  0  0  0  0
   -8.7381   20.1281  -33.6444 H   0  0  0  0  0  0  0  0  0  0  0  0
   -8.0648   18.6584  -31.0536 H   0  0  0  0  0  0  0  0  0  0  0  0
   -9.2418   18.1682  -32.3372 H   0  0  0  0  0  0  0  0  0  0  0  0
   -5.0934   18.1385  -33.1599 H   0  0  0  0  0  0  0  0  0  0  0  0
   -6.1450   18.7052  -34.5364 H   0  0  0  0  0  0  0  0  0  0  0  0
  1  2  1  0
  2  3  2  0
  3  4  1  0
  4  5  1  0
  5  6  2  0
  5  7  1  0
  7  8  1  0
  8  9  1  0
  9 10  1  0
 10 11  1  0
 11 12  1  0
 12 13  1  0
 13 14  1  0
 13 15  1  0
 15 16  1  0
  3 17  1  0
 17 18  2  0
 18 19  1  0
 19 20  2  0
 20 21  1  0
 21 22  1  0
 22 23  1  0
 23 24  2  0
 23 25  1  0
 20  2  1  0
 16 10  1  0
 25 19  1  0
  1 26  1  0
  1 27  1  0
  1 28  1  0
  7 29  1  0
  7 30  1  0
  8 31  1  0
  8 32  1  0
  9 33  1  0
  9 34  1  0
 11 35  1  0
 11 36  1  0
 12 37  1  0
 12 38  1  0
 14 39  1  0
 14 40  1  0
 14 41  1  0
 15 42  1  0
 15 43  1  0
 16 44  1  0
 16 45  1  0
 17 46  1  0
 18 47  1  0
 21 48  1  0
 21 49  1  0
 22 50  1  0
 22 51  1  0
 25 52  1  0
 25 53  1  0
M  END
>  <UniqueID>  (19) 
17

>  <SMILES>  (19) 
Cc1c(OC(=O)CCCN2CCN(C)CC2)ccc2c1CCC(=O)C2

>  <Energy>  (19) 
70.56984855198422

>  <Genealogy>  (19) 
Cc1c(OC(=O)CCCN2CCN(C)CC2)ccc2c1CCC(=O)C2 (3D coordinates assigned)
Cc1c(OC(=O)CCCN2CCN(C)CC2)ccc2c1CCC(=O)C2 (nonaromatic ring conformer: 70.56984855198422 kcal/mol)

>  <smiles>  (19) 
Cc1c(OC(=O)CCCN2CCN(C)CC2)ccc2c1CCC(=O)C2

>  <score_type>  (19) 
oracle

>  <origin>  (19) 
adg

>  <m_score__min__energy>  (19) 
-9.8699999999999992

>  <m_primary>  (19) 
energy

$$$$
20:0
     RDKit          3D

 59 62  0  0  0  0  0  0  0  0999 V2000
    0.4080   20.1790  -28.3420 C   0  0  0  0  0  0  0  0  0  0  0  0
   -0.5050   21.3280  -27.9020 C   0  0  0  0  0  0  0  0  0  0  0  0
   -1.9020   20.8700  -27.6610 N   0  0  0  0  0  0  0  0  0  0  0  0
   -1.9900   19.9310  -26.5100 C   0  0  0  0  0  0  0  0  0  0  0  0
   -3.1760   18.9930  -26.6990 C   0  0  0  0  0  0  0  0  0  0  0  0
   -2.7890   22.0450  -27.4710 C   0  0  0  0  0  0  0  0  0  0  0  0
   -2.0280   23.3670  -27.6310 C   0  0  0  0  0  0  0  0  0  0  0  0
   -2.9420   24.5320  -28.0130 C   0  0  0  0  0  0  0  0  0  0  0  0
   -2.7820   24.8090  -29.4370 N   0  0  0  0  0  0  0  0  0  0  0  0
   -3.5760   24.1860  -30.4540 C   0  0  0  0  0  0  0  0  0  0  0  0
   -4.6240   24.7530  -30.8680 O   0  0  0  0  0  0  0  0  0  0  0  0
   -3.1860   22.8610  -30.9830 C   0  0  0  0  0  0  0  0  0  0  0  0
   -1.8680   22.3880  -30.8410 C   0  0  0  0  0  0  0  0  0  0  0  0
   -1.4730   21.1890  -31.4430 C   0  0  0  0  0  0  0  0  0  0  0  0
   -2.3910   20.4330  -32.1870 C   0  0  0  0  0  0  0  0  0  0  0  0
   -1.9890   19.2960  -32.8440 N   0  0  0  0  0  0  0  0  0  0  0  0
   -2.8530   18.5770  -33.6240 C   0  0  0  0  0  0  0  0  0  0  0  0
   -2.4030   17.3330  -34.3350 C   0  0  0  0  0  0  0  0  0  0  0  0
   -4.1820   19.0060  -33.6940 C   0  0  0  0  0  0  0  0  0  0  0  0
   -5.1830   18.4130  -34.3700 N   0  0  0  0  0  0  0  0  0  0  0  0
   -6.2740   19.1160  -34.1100 N   0  0  0  0  0  0  0  0  0  0  0  0
   -5.9190   20.1330  -33.2920 C   0  0  0  0  0  0  0  0  0  0  0  0
   -6.9150   20.9760  -32.6070 C   0  0  0  0  0  0  0  0  0  0  0  0
   -6.7930   22.3750  -32.6810 C   0  0  0  0  0  0  0  0  0  0  0  0
   -7.7310   23.1970  -32.0530 C   0  0  0  0  0  0  0  0  0  0  0  0
   -8.7960   22.6290  -31.3460 C   0  0  0  0  0  0  0  0  0  0  0  0
   -8.9260   21.2390  -31.2640 C   0  0  0  0  0  0  0  0  0  0  0  0
   -7.9860   20.4050  -31.8870 C   0  0  0  0  0  0  0  0  0  0  0  0
   -8.1960   18.6590  -31.7810 Cl  0  0  0  0  0  0  0  0  0  0  0  0
   -4.5940   20.0900  -33.0200 N   0  0  0  0  0  0  0  0  0  0  0  0
   -3.7380   20.8640  -32.2860 C   0  0  0  0  0  0  0  0  0  0  0  0
   -4.1130   22.0940  -31.7090 C   0  0  0  0  0  0  0  0  0  0  0  0
    0.8118   19.6708  -27.4539 H   0  0  0  0  0  0  0  0  0  0  0  0
   -0.1693   19.4619  -28.9440 H   0  0  0  0  0  0  0  0  0  0  0  0
    1.2370   20.5794  -28.9440 H   0  0  0  0  0  0  0  0  0  0  0  0
   -0.1078   21.7610  -26.9721 H   0  0  0  0  0  0  0  0  0  0  0  0
   -0.5266   22.0734  -28.7106 H   0  0  0  0  0  0  0  0  0  0  0  0
   -1.0638   19.3408  -26.4485 H   0  0  0  0  0  0  0  0  0  0  0  0
   -2.1255   20.5056  -25.5819 H   0  0  0  0  0  0  0  0  0  0  0  0
   -3.5623   18.6875  -25.7154 H   0  0  0  0  0  0  0  0  0  0  0  0
   -3.9681   19.5116  -27.2590 H   0  0  0  0  0  0  0  0  0  0  0  0
   -2.8538   18.1027  -27.2590 H   0  0  0  0  0  0  0  0  0  0  0  0
   -3.5957   22.0062  -28.2178 H   0  0  0  0  0  0  0  0  0  0  0  0
   -3.1933   22.0056  -26.4487 H   0  0  0  0  0  0  0  0  0  0  0  0
   -1.5333   23.6058  -26.6780 H   0  0  0  0  0  0  0  0  0  0  0  0
   -1.3004   23.2349  -28.4453 H   0  0  0  0  0  0  0  0  0  0  0  0
   -3.9883   24.2648  -27.8038 H   0  0  0  0  0  0  0  0  0  0  0  0
   -2.6751   25.4237  -27.4268 H   0  0  0  0  0  0  0  0  0  0  0  0
   -1.1419   22.9667  -30.2511 H   0  0  0  0  0  0  0  0  0  0  0  0
   -0.4368   20.8369  -31.3325 H   0  0  0  0  0  0  0  0  0  0  0  0
   -0.9910   18.9860  -32.7710 H   0  0  0  0  0  0  0  0  0  0  0  0
   -2.1261   16.5676  -33.5951 H   0  0  0  0  0  0  0  0  0  0  0  0
   -3.2212   16.9546  -34.9653 H   0  0  0  0  0  0  0  0  0  0  0  0
   -1.5321   17.5656  -34.9653 H   0  0  0  0  0  0  0  0  0  0  0  0
   -5.9556   22.8234  -33.2356 H   0  0  0  0  0  0  0  0  0  0  0  0
   -7.6324   24.2909  -32.1142 H   0  0  0  0  0  0  0  0  0  0  0  0
   -9.5342   23.2783  -30.8525 H   0  0  0  0  0  0  0  0  0  0  0  0
   -9.7677   20.7986  -30.7094 H   0  0  0  0  0  0  0  0  0  0  0  0
   -5.1441   22.4581  -31.8285 H   0  0  0  0  0  0  0  0  0  0  0  0
  1  2  1  0
  2  3  1  0
  3  4  1  0
  4  5  1  0
  3  6  1  0
  6  7  1  0
  7  8  1  0
  8  9  1  0
  9 10  1  0
 10 11  2  0
 10 12  1  0
 12 13  2  0
 13 14  1  0
 14 15  2  0
 15 16  1  0
 16 17  2  0
 17 18  1  0
 17 19  1  0
 19 20  2  0
 20 21  1  0
 21 22  2  0
 22 23  1  0
 23 24  2  0
 24 25  1  0
 25 26  2  0
 26 27  1  0
 27 28  2  0
 28 29  1  0
 22 30  1  0
 30 31  1  0
 31 32  2  0
 32 12  1  0
 31 15  1  0
 30 19  1  0
 28 23  1  0
  1 33  1  0
  1 34  1  0
  1 35  1  0
  2 36  1  0
  2 37  1  0
  4 38  1  0
  4 39  1  0
  5 40  1  0
  5 41  1  0
  5 42  1  0
  6 43  1  0
  6 44  1  0
  7 45  1  0
  7 46  1  0
  8 47  1  0
  8 48  1  0
 13 49  1  0
 14 50  1  0
 16 51  1  0
 18 52  1  0
 18 53  1  0
 18 54  1  0
 24 55  1  0
 25 56  1  0
 26 57  1  0
 27 58  1  0
 32 59  1  0
M  CHG  2   9  -1  16   1
M  END
>  <UniqueID>  (20) 
18

>  <SMILES>  (20) 
CCN(CC)CCC[N-]C(=O)c1ccc2[nH+]c(C)c3nnc(-c4ccccc4Cl)n3c2c1

>  <Energy>  (20) 
114.78595630449306

>  <Genealogy>  (20) 
CCN(CC)CCC[N-]C(=O)c1ccc2[nH+]c(C)c3nnc(-c4ccccc4Cl)n3c2c1 (protonated)
CCN(CC)CCC[N-]C(=O)c1ccc2[nH+]c(C)c3nnc(-c4ccccc4Cl)n3c2c1 (3D coordinates assigned)
CCN(CC)CCC[N-]C(=O)c1ccc2[nH+]c(C)c3nnc(-c4ccccc4Cl)n3c2c1 (optimized conformer: 114.78595630449306 kcal/mol)

>  <smiles>  (20) 
CCN(CC)CCCNC(=O)c1ccc2nc(C)c3nnc(-c4ccccc4Cl)n3c2c1

>  <score_type>  (20) 
oracle

>  <origin>  (20) 
adg

>  <m_score__min__energy>  (20) 
-11.02

>  <m_primary>  (20) 
energy

$$$$
21:0
     RDKit          3D

 44 45  0  0  0  0  0  0  0  0999 V2000
   -5.7870   17.8410  -34.5940 C   0  0  0  0  0  0  0  0  0  0  0  0
   -5.6620   19.0260  -33.8120 O   0  0  0  0  0  0  0  0  0  0  0  0
   -6.6630   19.5340  -32.9680 C   0  0  0  0  0  0  0  0  0  0  0  0
   -7.8200   18.7900  -32.6620 C   0  0  0  0  0  0  0  0  0  0  0  0
   -8.7980   19.3170  -31.8160 C   0  0  0  0  0  0  0  0  0  0  0  0
   -8.6380   20.5880  -31.2660 C   0  0  0  0  0  0  0  0  0  0  0  0
   -7.4970   21.3370  -31.5600 C   0  0  0  0  0  0  0  0  0  0  0  0
   -6.5050   20.8240  -32.4120 C   0  0  0  0  0  0  0  0  0  0  0  0
   -5.2790   21.6580  -32.6880 C   0  0  0  0  0  0  0  0  0  0  0  0
   -5.1560   22.7230  -31.6950 N   0  0  0  0  0  0  0  0  0  0  0  0
   -5.8960   23.9490  -31.7820 C   0  0  0  0  0  0  0  0  0  0  0  0
   -6.7180   24.1330  -32.7190 O   0  0  0  0  0  0  0  0  0  0  0  0
   -5.7300   25.0050  -30.7300 C   0  0  0  0  0  0  0  0  0  0  0  0
   -4.7000   24.5840  -29.6770 C   0  0  0  0  0  0  0  0  0  0  0  0
   -3.3400   24.9160  -30.0950 N   0  0  0  0  0  0  0  0  0  0  0  0
   -2.1510   24.8170  -29.2980 C   0  0  0  0  0  0  0  0  0  0  0  0
   -1.5620   25.8780  -28.9650 O   0  0  0  0  0  0  0  0  0  0  0  0
   -1.6030   23.4990  -28.8130 C   0  0  0  0  0  0  0  0  0  0  0  0
   -1.8840   22.4360  -29.7930 N   0  0  0  0  0  0  0  0  0  0  0  0
   -0.9390   22.1400  -30.7360 C   0  0  0  0  0  0  0  0  0  0  0  0
   -1.1610   21.1250  -31.6650 C   0  0  0  0  0  0  0  0  0  0  0  0
   -2.3560   20.4180  -31.6040 C   0  0  0  0  0  0  0  0  0  0  0  0
   -3.2710   20.7200  -30.6500 N   0  0  0  0  0  0  0  0  0  0  0  0
   -3.0500   21.7120  -29.7480 C   0  0  0  0  0  0  0  0  0  0  0  0
   -3.9250   21.9500  -28.8730 O   0  0  0  0  0  0  0  0  0  0  0  0
   -5.8788   16.9703  -33.9281 H   0  0  0  0  0  0  0  0  0  0  0  0
   -6.6825   17.9133  -35.2287 H   0  0  0  0  0  0  0  0  0  0  0  0
   -4.8961   17.7249  -35.2287 H   0  0  0  0  0  0  0  0  0  0  0  0
   -7.9537   17.7867  -33.0927 H   0  0  0  0  0  0  0  0  0  0  0  0
   -9.6971   18.7277  -31.5829 H   0  0  0  0  0  0  0  0  0  0  0  0
   -9.4106   21.0007  -30.6005 H   0  0  0  0  0  0  0  0  0  0  0  0
   -7.3738   22.3378  -31.1205 H   0  0  0  0  0  0  0  0  0  0  0  0
   -4.3865   21.0165  -32.6446 H   0  0  0  0  0  0  0  0  0  0  0  0
   -5.3706   22.1091  -33.6870 H   0  0  0  0  0  0  0  0  0  0  0  0
   -4.5110   22.5760  -30.8860 H   0  0  0  0  0  0  0  0  0  0  0  0
   -5.3937   25.9371  -31.2077 H   0  0  0  0  0  0  0  0  0  0  0  0
   -6.6984   25.1519  -30.2294 H   0  0  0  0  0  0  0  0  0  0  0  0
   -4.9208   25.1041  -28.7332 H   0  0  0  0  0  0  0  0  0  0  0  0
   -4.7647   23.4935  -29.5479 H   0  0  0  0  0  0  0  0  0  0  0  0
   -0.5152   23.5871  -28.6753 H   0  0  0  0  0  0  0  0  0  0  0  0
   -2.0845   23.2413  -27.8581 H   0  0  0  0  0  0  0  0  0  0  0  0
    0.0032   22.7071  -30.7616 H   0  0  0  0  0  0  0  0  0  0  0  0
   -0.4067   20.8886  -32.4300 H   0  0  0  0  0  0  0  0  0  0  0  0
   -2.5591   19.6152  -32.3281 H   0  0  0  0  0  0  0  0  0  0  0  0
  1  2  1  0
  2  3  1  0
  3  4  2  0
  4  5  1  0
  5  6  2  0
  6  7  1  0
  7  8  2  0
  8  9  1  0
  9 10  1  0
 10 11  1  0
 11 12  2  0
 11 13  1  0
 13 14  1  0
 14 15  1  0
 15 16  1  0
 16 17  2  0
 16 18  1  0
 18 19  1  0
 19 20  1  0
 20 21  2  0
 21 22  1  0
 22 23  2  0
 23 24  1  0
 24 25  2  0
  8  3  1  0
 24 19  1  0
  1 26  1  0
  1 27  1  0
  1 28  1  0
  4 29  1  0
  5 30  1  0
  6 31  1  0
  7 32  1  0
  9 33  1  0
  9 34  1  0
 10 35  1  0
 13 36  1  0
 13 37  1  0
 14 38  1  0
 14 39  1  0
 18 40  1  0
 18 41  1  0
 20 42  1  0
 21 43  1  0
 22 44  1  0
M  CHG  1  15  -1
M  END
>  <UniqueID>  (21) 
19

>  <SMILES>  (21) 
COc1ccccc1CNC(=O)CC[N-]C(=O)Cn1cccnc1=O

>  <Energy>  (21) 
39.58281519313923

>  <Genealogy>  (21) 
COc1ccccc1CNC(=O)CC[N-]C(=O)Cn1cccnc1=O (protonated)
COc1ccccc1CNC(=O)CC[N-]C(=O)Cn1cccnc1=O (3D coordinates assigned)
COc1ccccc1CNC(=O)CC[N-]C(=O)Cn1cccnc1=O (optimized conformer: 39.58281519313923 kcal/mol)

>  <smiles>  (21) 
COc1ccccc1CNC(=O)CCNC(=O)Cn1cccnc1=O

>  <score_type>  (21) 
oracle

>  <origin>  (21) 
adg

>  <m_score__min__energy>  (21) 
-9.9000000000000004

>  <m_primary>  (21) 
energy

$$$$
22:0
     RDKit          3D

 38 40  0  0  0  0  0  0  0  0999 V2000
   -5.5240   25.7570  -30.0990 C   0  0  0  0  0  0  0  0  0  0  0  0
   -4.6400   24.9150  -30.8330 O   0  0  0  0  0  0  0  0  0  0  0  0
   -5.0130   23.7000  -31.4250 C   0  0  0  0  0  0  0  0  0  0  0  0
   -4.0790   22.7000  -31.7530 C   0  0  0  0  0  0  0  0  0  0  0  0
   -4.5020   21.5040  -32.3430 C   0  0  0  0  0  0  0  0  0  0  0  0
   -5.8620   21.2880  -32.6170 C   0  0  0  0  0  0  0  0  0  0  0  0
   -6.3030   20.0520  -33.2150 N   0  0  0  0  0  0  0  0  0  0  0  0
   -5.3810   19.2690  -34.0440 C   0  0  0  0  0  0  0  0  0  0  0  0
   -6.0340   17.9600  -34.5160 C   0  0  0  0  0  0  0  0  0  0  0  0
   -6.7580   17.2650  -33.4240 N   0  0  1  0  0  0  0  0  0  0  0  0
   -5.8430   16.7150  -32.4010 C   0  0  0  0  0  0  0  0  0  0  0  0
   -6.1210   17.4360  -31.0960 C   0  0  0  0  0  0  0  0  0  0  0  0
   -7.5580   17.8790  -31.2190 C   0  0  0  0  0  0  0  0  0  0  0  0
   -7.7650   18.1060  -32.7180 C   0  0  1  0  0  0  0  0  0  0  0  0
   -7.6950   19.6100  -33.0850 C   0  0  0  0  0  0  0  0  0  0  0  0
   -6.7910   22.2870  -32.2860 C   0  0  0  0  0  0  0  0  0  0  0  0
   -6.3670   23.4810  -31.6960 C   0  0  0  0  0  0  0  0  0  0  0  0
   -5.3646   25.6052  -29.0213 H   0  0  0  0  0  0  0  0  0  0  0  0
   -5.3256   26.8084  -30.3545 H   0  0  0  0  0  0  0  0  0  0  0  0
   -6.5645   25.5077  -30.3545 H   0  0  0  0  0  0  0  0  0  0  0  0
   -3.0108   22.8594  -31.5445 H   0  0  0  0  0  0  0  0  0  0  0  0
   -3.7641   20.7277  -32.5939 H   0  0  0  0  0  0  0  0  0  0  0  0
   -5.0948   19.8648  -34.9233 H   0  0  0  0  0  0  0  0  0  0  0  0
   -4.4960   19.0192  -33.4404 H   0  0  0  0  0  0  0  0  0  0  0  0
   -6.7465   18.1908  -35.3216 H   0  0  0  0  0  0  0  0  0  0  0  0
   -5.2331   17.2923  -34.8663 H   0  0  0  0  0  0  0  0  0  0  0  0
   -7.2630   16.4590  -33.8660 H   0  0  0  0  0  0  0  0  0  0  0  0
   -6.0230   15.6367  -32.2787 H   0  0  0  0  0  0  0  0  0  0  0  0
   -4.7956   16.8591  -32.7045 H   0  0  0  0  0  0  0  0  0  0  0  0
   -5.9936   16.7570  -30.2400 H   0  0  0  0  0  0  0  0  0  0  0  0
   -5.4333   18.2770  -30.9236 H   0  0  0  0  0  0  0  0  0  0  0  0
   -8.2381   17.0987  -30.8469 H   0  0  0  0  0  0  0  0  0  0  0  0
   -7.7682   18.7822  -30.6274 H   0  0  0  0  0  0  0  0  0  0  0  0
   -8.7737   17.8025  -33.0348 H   0  0  0  0  0  0  0  0  0  0  0  0
   -8.2152   19.7723  -34.0405 H   0  0  0  0  0  0  0  0  0  0  0  0
   -8.1749   20.1904  -32.2832 H   0  0  0  0  0  0  0  0  0  0  0  0
   -7.8599   22.1291  -32.4924 H   0  0  0  0  0  0  0  0  0  0  0  0
   -7.1056   24.2557  -31.4425 H   0  0  0  0  0  0  0  0  0  0  0  0
  1  2  1  0
  2  3  1  0
  3  4  2  0
  4  5  1  0
  5  6  2  0
  6  7  1  0
  7  8  1  0
  8  9  1  0
  9 10  1  0
 10 11  1  0
 11 12  1  0
 12 13  1  0
 13 14  1  0
 14 15  1  0
  6 16  1  0
 16 17  2  0
 17  3  1  0
 15  7  1  0
 14 10  1  0
  1 18  1  0
  1 19  1  0
  1 20  1  0
  4 21  1  0
  5 22  1  0
  8 23  1  0
  8 24  1  0
  9 25  1  0
  9 26  1  0
 10 27  1  6
 11 28  1  0
 11 29  1  0
 12 30  1  0
 12 31  1  0
 13 32  1  0
 13 33  1  0
 14 34  1  6
 15 35  1  0
 15 36  1  0
 16 37  1  0
 17 38  1  0
M  CHG  1  10   1
M  END
>  <UniqueID>  (22) 
20

>  <SMILES>  (22) 
COc1ccc(N2CC[N@H+]3CCC[C@H]3C2)cc1

>  <Energy>  (22) 
50.373216867438096

>  <Genealogy>  (22) 
COc1ccc(N2CC[NH+]3CCCC3C2)cc1 (protonated)
COc1ccc(N2CC[N@H+]3CCC[C@H]3C2)cc1 (chirality)
COc1ccc(N2CC[N@H+]3CCC[C@H]3C2)cc1 (3D coordinates assigned)
COc1ccc(N2CC[N@H+]3CCC[C@H]3C2)cc1 (nonaromatic ring conformer: 50.373216867438096 kcal/mol)

>  <smiles>  (22) 
COc1ccc(N2CCN3CCCC3C2)cc1

>  <score_type>  (22) 
oracle

>  <origin>  (22) 
adg

>  <m_score__min__energy>  (22) 
-6.1500000000000004

>  <m_primary>  (22) 
energy

$$$$
23:0
     RDKit          3D

 37 39  0  0  0  0  0  0  0  0999 V2000
   -4.9920   26.4230  -29.5350 H   0  0  0  0  0  0  0  0  0  0  0  0
   -5.0160   25.9580  -30.4700 N   0  0  0  0  0  0  0  0  0  0  0  0
   -4.5840   24.7500  -30.6510 C   0  0  0  0  0  0  0  0  0  0  0  0
   -5.2670   23.8910  -31.4560 N   0  0  0  0  0  0  0  0  0  0  0  0
   -4.8220   22.6080  -31.6540 C   0  0  0  0  0  0  0  0  0  0  0  0
   -5.5520   21.7120  -32.5200 N   0  0  0  0  0  0  0  0  0  0  0  0
   -4.8350   20.6280  -33.2120 C   0  0  0  0  0  0  0  0  0  0  0  0
   -4.2251   21.0595  -34.0193 H   0  0  0  0  0  0  0  0  0  0  0  0
   -4.1988   20.1088  -32.4801 H   0  0  0  0  0  0  0  0  0  0  0  0
   -5.8080   19.6160  -33.8100 C   0  0  0  0  0  0  0  0  0  0  0  0
   -6.3235   19.0799  -32.9996 H   0  0  0  0  0  0  0  0  0  0  0  0
   -6.5484   20.1418  -34.4308 H   0  0  0  0  0  0  0  0  0  0  0  0
   -5.2535   18.8968  -34.4308 H   0  0  0  0  0  0  0  0  0  0  0  0
   -7.0260   21.7440  -32.5510 C   0  0  0  0  0  0  0  0  0  0  0  0
   -7.3494   22.6827  -33.0245 H   0  0  0  0  0  0  0  0  0  0  0  0
   -7.3693   20.8674  -33.1200 H   0  0  0  0  0  0  0  0  0  0  0  0
   -7.6420   21.6620  -31.1450 C   0  0  0  0  0  0  0  0  0  0  0  0
   -7.2433   20.7712  -30.6377 H   0  0  0  0  0  0  0  0  0  0  0  0
   -7.3769   22.5870  -30.6120 H   0  0  0  0  0  0  0  0  0  0  0  0
   -9.1650   21.5670  -31.1730 C   0  0  0  0  0  0  0  0  0  0  0  0
   -9.5499   21.5430  -30.1428 H   0  0  0  0  0  0  0  0  0  0  0  0
   -9.5773   22.4412  -31.6982 H   0  0  0  0  0  0  0  0  0  0  0  0
   -9.4655   20.6484  -31.6982 H   0  0  0  0  0  0  0  0  0  0  0  0
   -3.6710   22.1890  -31.0410 N   0  0  0  0  0  0  0  0  0  0  0  0
   -3.0100   23.0610  -30.2440 C   0  0  0  0  0  0  0  0  0  0  0  0
   -1.8760   22.8090  -29.5710 N   0  0  0  0  0  0  0  0  0  0  0  0
   -1.6750   24.0080  -28.9590 C   0  0  0  0  0  0  0  0  0  0  0  0
   -0.5350   24.2730  -28.0760 C   0  0  0  0  0  0  0  0  0  0  0  0
    0.6930   24.4600  -28.5000 O   0  0  0  0  0  0  0  0  0  0  0  0
    1.4670   24.6720  -27.4600 C   0  0  0  0  0  0  0  0  0  0  0  0
    2.5498   24.8607  -27.5041 H   0  0  0  0  0  0  0  0  0  0  0  0
    0.7150   24.6220  -26.3030 C   0  0  0  0  0  0  0  0  0  0  0  0
    1.0762   24.7602  -25.2732 H   0  0  0  0  0  0  0  0  0  0  0  0
   -0.5790   24.3640  -26.6990 C   0  0  0  0  0  0  0  0  0  0  0  0
   -1.4626   24.2536  -26.0532 H   0  0  0  0  0  0  0  0  0  0  0  0
   -2.6290   24.9300  -29.2440 N   0  0  0  0  0  0  0  0  0  0  0  0
   -3.4530   24.2990  -30.0560 N   0  0  0  0  0  0  0  0  0  0  0  0
  1  2  1  0
  2  3  2  0
  3  4  1  0
  4  5  2  0
  5  6  1  0
  6  7  1  0
  7  8  1  0
  7  9  1  0
  7 10  1  0
 10 11  1  0
 10 12  1  0
 10 13  1  0
  6 14  1  0
 14 15  1  0
 14 16  1  0
 14 17  1  0
 17 18  1  0
 17 19  1  0
 17 20  1  0
 20 21  1  0
 20 22  1  0
 20 23  1  0
  5 24  1  0
 24 25  1  0
 25 26  2  0
 26 27  1  0
 27 28  1  0
 28 29  1  0
 29 30  1  0
 30 31  1  0
 30 32  2  0
 32 33  1  0
 32 34  1  0
 34 35  1  0
 27 36  2  0
 36 37  1  0
 37  3  1  0
 37 25  1  0
 34 28  2  0
M  CHG  1  24  -1
M  END
>  <UniqueID>  (23) 
21

>  <SMILES>  (23) 
[H]/N=c1/nc(N(CC)CCC)[n-]c2nc(-c3ccco3)nn12

>  <Energy>  (23) 
96.86254096543377

>  <Genealogy>  (23) 
CCCN(CC)c1nc(=N)n2nc(-c3ccco3)nc2[n-]1 (protonated)
[H]/N=c1/nc(N(CC)CCC)[n-]c2nc(-c3ccco3)nn12 (cis-trans isomerization)
[H]/N=c1/nc(N(CC)CCC)[n-]c2nc(-c3ccco3)nn12 (3D coordinates assigned)
[H]/N=c1/nc(N(CC)CCC)[n-]c2nc(-c3ccco3)nn12 (optimized conformer: 96.86254096543377 kcal/mol)

>  <smiles>  (23) 
CCCN(CC)c1nc(=N)n2nc(-c3ccco3)nc2[nH]1

>  <score_type>  (23) 
oracle

>  <origin>  (23) 
adg

>  <m_score__min__energy>  (23) 
-7.3300000000000001

>  <m_primary>  (23) 
energy

$$$$
24:0
     RDKit          3D

 45 48  0  0  0  0  0  0  0  0999 V2000
   -6.5690   16.4390  -33.8000 C   0  0  0  0  0  0  0  0  0  0  0  0
   -7.6100   17.0830  -33.0720 O   0  0  0  0  0  0  0  0  0  0  0  0
   -7.6010   18.4360  -32.7010 C   0  0  0  0  0  0  0  0  0  0  0  0
   -8.8210   19.1040  -32.6060 C   0  0  0  0  0  0  0  0  0  0  0  0
   -8.8670   20.4500  -32.2430 C   0  0  0  0  0  0  0  0  0  0  0  0
   -7.6900   21.1640  -31.9530 C   0  0  0  0  0  0  0  0  0  0  0  0
   -6.4400   20.4920  -32.0510 C   0  0  0  0  0  0  0  0  0  0  0  0
   -6.4130   19.1360  -32.4250 C   0  0  0  0  0  0  0  0  0  0  0  0
   -5.1930   21.1630  -31.7850 N   0  0  0  0  0  0  0  0  0  0  0  0
   -4.0220   20.9950  -32.4330 C   0  0  0  0  0  0  0  0  0  0  0  0
   -3.0390   21.7730  -31.9370 N   0  0  0  0  0  0  0  0  0  0  0  0
   -3.6170   22.4520  -30.9240 C   0  0  0  0  0  0  0  0  0  0  0  0
   -2.8840   23.4600  -30.1380 C   0  0  0  0  0  0  0  0  0  0  0  0
   -3.1970   24.7690  -30.0830 N   0  0  0  0  0  0  0  0  0  0  0  0
   -2.2990   25.2990  -29.3100 O   0  0  0  0  0  0  0  0  0  0  0  0
   -1.4680   24.3710  -28.9040 C   0  0  0  0  0  0  0  0  0  0  0  0
   -0.3000   24.6280  -27.9950 C   0  0  0  0  0  0  0  0  0  0  0  0
   -0.7240   25.5090  -26.8170 C   0  0  0  0  0  0  0  0  0  0  0  0
    0.2970   23.3060  -27.5060 C   0  0  0  0  0  0  0  0  0  0  0  0
   -1.7890   23.1630  -29.4060 N   0  0  0  0  0  0  0  0  0  0  0  0
   -4.9450   22.0590  -30.8160 C   0  0  0  0  0  0  0  0  0  0  0  0
   -6.0060   22.5360  -29.8810 C   0  0  0  0  0  0  0  0  0  0  0  0
   -6.9970   23.2830  -30.6540 N   0  0  0  0  0  0  0  0  0  0  0  0
   -7.1480   24.7280  -30.4500 C   0  0  0  0  0  0  0  0  0  0  0  0
   -7.8200   22.6170  -31.6370 C   0  0  0  0  0  0  0  0  0  0  0  0
   -8.7140   23.2790  -32.2350 O   0  0  0  0  0  0  0  0  0  0  0  0
   -5.8502   15.9943  -33.0961 H   0  0  0  0  0  0  0  0  0  0  0  0
   -6.9989   15.6488  -34.4331 H   0  0  0  0  0  0  0  0  0  0  0  0
   -6.0539   17.1764  -34.4331 H   0  0  0  0  0  0  0  0  0  0  0  0
   -9.7557   18.5647  -32.8192 H   0  0  0  0  0  0  0  0  0  0  0  0
   -9.8390   20.9614  -32.1825 H   0  0  0  0  0  0  0  0  0  0  0  0
   -5.4473   18.6151  -32.5028 H   0  0  0  0  0  0  0  0  0  0  0  0
   -3.8842   20.2995  -33.2740 H   0  0  0  0  0  0  0  0  0  0  0  0
    0.4763   25.1645  -28.5602 H   0  0  0  0  0  0  0  0  0  0  0  0
   -0.4795   25.0009  -25.8725 H   0  0  0  0  0  0  0  0  0  0  0  0
   -0.1893   26.4690  -26.8660 H   0  0  0  0  0  0  0  0  0  0  0  0
   -1.8079   25.6901  -26.8660 H   0  0  0  0  0  0  0  0  0  0  0  0
    0.3036   23.2913  -26.4061 H   0  0  0  0  0  0  0  0  0  0  0  0
   -0.3104   22.4687  -27.8802 H   0  0  0  0  0  0  0  0  0  0  0  0
    1.3267   23.2080  -27.8802 H   0  0  0  0  0  0  0  0  0  0  0  0
   -6.4866   21.6750  -29.3934 H   0  0  0  0  0  0  0  0  0  0  0  0
   -5.5661   23.1802  -29.1055 H   0  0  0  0  0  0  0  0  0  0  0  0
   -7.1708   24.9457  -29.3720 H   0  0  0  0  0  0  0  0  0  0  0  0
   -6.3000   25.2542  -30.9125 H   0  0  0  0  0  0  0  0  0  0  0  0
   -8.0865   25.0675  -30.9125 H   0  0  0  0  0  0  0  0  0  0  0  0
  1  2  1  0
  2  3  1  0
  3  4  2  0
  4  5  1  0
  5  6  2  0
  6  7  1  0
  7  8  2  0
  7  9  1  0
  9 10  1  0
 10 11  2  0
 11 12  1  0
 12 13  1  0
 13 14  2  0
 14 15  1  0
 15 16  1  0
 16 17  1  0
 17 18  1  0
 17 19  1  0
 16 20  2  0
 12 21  2  0
 21 22  1  0
 22 23  1  0
 23 24  1  0
 23 25  1  0
 25 26  2  0
  8  3  1  0
 21  9  1  0
 25  6  1  0
 20 13  1  0
  1 27  1  0
  1 28  1  0
  1 29  1  0
  4 30  1  0
  5 31  1  0
  8 32  1  0
 10 33  1  0
 17 34  1  0
 18 35  1  0
 18 36  1  0
 18 37  1  0
 19 38  1  0
 19 39  1  0
 19 40  1  0
 22 41  1  0
 22 42  1  0
 24 43  1  0
 24 44  1  0
 24 45  1  0
M  END
>  <UniqueID>  (24) 
22

>  <SMILES>  (24) 
COc1ccc2c(c1)-n1cnc(-c3noc(C(C)C)n3)c1CN(C)C2=O

>  <Energy>  (24) 
116.86318274104698

>  <Genealogy>  (24) 
COc1ccc2c(c1)-n1cnc(-c3noc(C(C)C)n3)c1CN(C)C2=O (3D coordinates assigned)
COc1ccc2c(c1)-n1cnc(-c3noc(C(C)C)n3)c1CN(C)C2=O (nonaromatic ring conformer: 116.86318274104698 kcal/mol)

>  <smiles>  (24) 
COc1ccc2c(c1)-n1cnc(-c3noc(C(C)C)n3)c1CN(C)C2=O

>  <score_type>  (24) 
oracle

>  <origin>  (24) 
adg

>  <m_score__min__energy>  (24) 
-8.25

>  <m_primary>  (24) 
energy

$$$$
25:0
     RDKit          3D

 29 31  0  0  0  0  0  0  0  0999 V2000
   -6.4690   24.1230  -30.1400 C   0  0  0  0  0  0  0  0  0  0  0  0
   -7.1750   23.8000  -31.2240 C   0  0  0  0  0  0  0  0  0  0  0  0
   -7.4840   22.4020  -31.6000 C   0  0  0  0  0  0  0  0  0  0  0  0
   -8.7620   21.8920  -31.2580 C   0  0  0  0  0  0  0  0  0  0  0  0
   -9.1120   20.5600  -31.5370 C   0  0  0  0  0  0  0  0  0  0  0  0
   -8.1720   19.7550  -32.1690 C   0  0  0  0  0  0  0  0  0  0  0  0
   -8.3090   18.4910  -32.5150 O   0  0  0  0  0  0  0  0  0  0  0  0
   -7.1830   18.1370  -33.0980 C   0  0  0  0  0  0  0  0  0  0  0  0
   -6.8630   16.8900  -33.6320 C   0  0  0  0  0  0  0  0  0  0  0  0
   -5.5940   16.7290  -34.2170 C   0  0  0  0  0  0  0  0  0  0  0  0
   -4.6800   17.8060  -34.2570 C   0  0  0  0  0  0  0  0  0  0  0  0
   -5.0240   19.0570  -33.7120 C   0  0  0  0  0  0  0  0  0  0  0  0
   -6.2890   19.1870  -33.1370 C   0  0  0  0  0  0  0  0  0  0  0  0
   -6.9320   20.2430  -32.5270 C   0  0  0  0  0  0  0  0  0  0  0  0
   -6.5570   21.5660  -32.2850 C   0  0  0  0  0  0  0  0  0  0  0  0
   -5.3190   22.0340  -32.7320 O   0  0  0  0  0  0  0  0  0  0  0  0
   -4.1400   21.8850  -31.9510 C   0  0  0  0  0  0  0  0  0  0  0  0
   -6.2690   25.1796  -29.9086 H   0  0  0  0  0  0  0  0  0  0  0  0
   -6.0865   23.3328  -29.4771 H   0  0  0  0  0  0  0  0  0  0  0  0
   -7.5452   24.6104  -31.8692 H   0  0  0  0  0  0  0  0  0  0  0  0
   -9.4925   22.5507  -30.7655 H   0  0  0  0  0  0  0  0  0  0  0  0
  -10.1017   20.1658  -31.2630 H   0  0  0  0  0  0  0  0  0  0  0  0
   -7.5808   16.0572  -33.5970 H   0  0  0  0  0  0  0  0  0  0  0  0
   -5.3108   15.7569  -34.6468 H   0  0  0  0  0  0  0  0  0  0  0  0
   -3.6912   17.6653  -34.7181 H   0  0  0  0  0  0  0  0  0  0  0  0
   -4.3208   19.9024  -33.7383 H   0  0  0  0  0  0  0  0  0  0  0  0
   -4.4011   21.9180  -30.8829 H   0  0  0  0  0  0  0  0  0  0  0  0
   -3.6661   20.9198  -32.1830 H   0  0  0  0  0  0  0  0  0  0  0  0
   -3.4408   22.7019  -32.1830 H   0  0  0  0  0  0  0  0  0  0  0  0
  1  2  2  0
  2  3  1  0
  3  4  2  0
  4  5  1  0
  5  6  2  0
  6  7  1  0
  7  8  1  0
  8  9  2  0
  9 10  1  0
 10 11  2  0
 11 12  1  0
 12 13  2  0
 13 14  1  0
 14 15  2  0
 15 16  1  0
 16 17  1  0
 15  3  1  0
 14  6  1  0
 13  8  1  0
  1 18  1  0
  1 19  1  0
  2 20  1  0
  4 21  1  0
  5 22  1  0
  9 23  1  0
 10 24  1  0
 11 25  1  0
 12 26  1  0
 17 27  1  0
 17 28  1  0
 17 29  1  0
M  END
>  <UniqueID>  (25) 
23

>  <SMILES>  (25) 
C=Cc1ccc2oc3ccccc3c2c1OC

>  <Energy>  (25) 
82.33010286382859

>  <Genealogy>  (25) 
C=Cc1ccc2oc3ccccc3c2c1OC (3D coordinates assigned)
C=Cc1ccc2oc3ccccc3c2c1OC (optimized conformer: 82.33010286382859 kcal/mol)

>  <smiles>  (25) 
C=Cc1ccc2oc3ccccc3c2c1OC

>  <score_type>  (25) 
oracle

>  <origin>  (25) 
adg

>  <m_score__min__energy>  (25) 
-6.6699999999999999

>  <m_primary>  (25) 
energy

$$$$
26:0
     RDKit          3D

 56 59  0  0  0  0  0  0  0  0999 V2000
   -2.3330   24.8940  -27.6730 C   0  0  0  0  0  0  0  0  0  0  0  0
   -2.6380   24.9800  -29.0570 O   0  0  0  0  0  0  0  0  0  0  0  0
   -2.6810   23.8810  -29.9320 C   0  0  0  0  0  0  0  0  0  0  0  0
   -1.6930   22.8790  -29.9220 C   0  0  0  0  0  0  0  0  0  0  0  0
   -1.7780   21.7810  -30.7920 C   0  0  0  0  0  0  0  0  0  0  0  0
   -2.8490   21.6810  -31.6950 C   0  0  0  0  0  0  0  0  0  0  0  0
   -3.8140   22.7050  -31.7270 C   0  0  0  0  0  0  0  0  0  0  0  0
   -3.7430   23.7960  -30.8410 C   0  0  0  0  0  0  0  0  0  0  0  0
   -4.7100   24.8150  -30.8360 O   0  0  0  0  0  0  0  0  0  0  0  0
   -5.7740   24.9140  -29.8960 C   0  0  0  0  0  0  0  0  0  0  0  0
   -2.9500   20.5320  -32.6920 C   0  0  2  0  0  0  0  0  0  0  0  0
   -4.3440   19.9260  -32.6830 C   0  0  0  0  0  0  0  0  0  0  0  0
   -5.2540   20.2980  -31.6750 C   0  0  0  0  0  0  0  0  0  0  0  0
   -6.5390   19.7560  -31.6390 C   0  0  0  0  0  0  0  0  0  0  0  0
   -6.9320   18.8280  -32.6030 C   0  0  0  0  0  0  0  0  0  0  0  0
   -6.0420   18.4370  -33.6040 C   0  0  0  0  0  0  0  0  0  0  0  0
   -4.7390   18.9760  -33.6550 C   0  0  0  0  0  0  0  0  0  0  0  0
   -3.8250   18.5960  -34.6550 O   0  0  0  0  0  0  0  0  0  0  0  0
   -3.6240   17.2590  -35.1060 C   0  0  0  0  0  0  0  0  0  0  0  0
   -1.9690   19.4340  -32.4790 N   0  0  0  0  0  0  0  0  0  0  0  0
   -1.2190   19.0080  -33.6810 C   0  0  0  0  0  0  0  0  0  0  0  0
   -0.2530   20.0530  -34.1660 C   0  0  0  0  0  0  0  0  0  0  0  0
   -0.5580   21.3340  -34.5870 C   0  0  0  0  0  0  0  0  0  0  0  0
    0.5770   21.9610  -34.9560 N   0  0  0  0  0  0  0  0  0  0  0  0
    1.5800   21.1150  -34.7670 N   0  0  0  0  0  0  0  0  0  0  0  0
    2.9700   21.4150  -35.0890 C   0  0  0  0  0  0  0  0  0  0  0  0
    1.1170   19.9420  -34.2950 C   0  0  0  0  0  0  0  0  0  0  0  0
   -1.2200   19.3990  -31.2070 C   0  0  0  0  0  0  0  0  0  0  0  0
   -0.6750   20.7700  -30.8180 C   0  0  0  0  0  0  0  0  0  0  0  0
   -3.2272   25.1461  -27.0841 H   0  0  0  0  0  0  0  0  0  0  0  0
   -2.0115   23.8702  -27.4313 H   0  0  0  0  0  0  0  0  0  0  0  0
   -1.5240   25.5991  -27.4313 H   0  0  0  0  0  0  0  0  0  0  0  0
   -0.8454   22.9571  -29.2252 H   0  0  0  0  0  0  0  0  0  0  0  0
   -4.6363   22.6517  -32.4557 H   0  0  0  0  0  0  0  0  0  0  0  0
   -5.3661   24.8760  -28.8751 H   0  0  0  0  0  0  0  0  0  0  0  0
   -6.3059   25.8655  -30.0432 H   0  0  0  0  0  0  0  0  0  0  0  0
   -6.4724   24.0770  -30.0432 H   0  0  0  0  0  0  0  0  0  0  0  0
   -2.7186   20.9950  -33.6626 H   0  0  0  0  0  0  0  0  0  0  0  0
   -4.9483   21.0241  -30.9073 H   0  0  0  0  0  0  0  0  0  0  0  0
   -7.2424   20.0607  -30.8501 H   0  0  0  0  0  0  0  0  0  0  0  0
   -7.9462   18.4032  -32.5742 H   0  0  0  0  0  0  0  0  0  0  0  0
   -6.3587   17.7027  -34.3594 H   0  0  0  0  0  0  0  0  0  0  0  0
   -3.5235   16.5905  -34.2382 H   0  0  0  0  0  0  0  0  0  0  0  0
   -4.4848   16.9438  -35.7139 H   0  0  0  0  0  0  0  0  0  0  0  0
   -2.7085   17.2108  -35.7139 H   0  0  0  0  0  0  0  0  0  0  0  0
   -0.6561   18.0946  -33.4386 H   0  0  0  0  0  0  0  0  0  0  0  0
   -1.9508   18.8355  -34.4840 H   0  0  0  0  0  0  0  0  0  0  0  0
   -1.5666   21.7721  -34.6163 H   0  0  0  0  0  0  0  0  0  0  0  0
    3.5434   21.5388  -34.1585 H   0  0  0  0  0  0  0  0  0  0  0  0
    3.3971   20.5884  -35.6757 H   0  0  0  0  0  0  0  0  0  0  0  0
    3.0181   22.3442  -35.6757 H   0  0  0  0  0  0  0  0  0  0  0  0
    1.7216   19.0549  -34.0553 H   0  0  0  0  0  0  0  0  0  0  0  0
   -1.8918   19.0464  -30.4105 H   0  0  0  0  0  0  0  0  0  0  0  0
   -0.3635   18.7216  -31.3394 H   0  0  0  0  0  0  0  0  0  0  0  0
   -0.2164   20.7080  -29.8201 H   0  0  0  0  0  0  0  0  0  0  0  0
    0.0757   21.0795  -31.5601 H   0  0  0  0  0  0  0  0  0  0  0  0
  1  2  1  0
  2  3  1  0
  3  4  2  0
  4  5  1  0
  5  6  2  0
  6  7  1  0
  7  8  2  0
  8  9  1  0
  9 10  1  0
  6 11  1  0
 11 12  1  0
 12 13  2  0
 13 14  1  0
 14 15  2  0
 15 16  1  0
 16 17  2  0
 17 18  1  0
 18 19  1  0
 11 20  1  0
 20 21  1  0
 21 22  1  0
 22 23  1  0
 23 24  2  0
 24 25  1  0
 25 26  1  0
 25 27  1  0
 20 28  1  0
 28 29  1  0
  8  3  1  0
 17 12  1  0
 27 22  2  0
 29  5  1  0
  1 30  1  0
  1 31  1  0
  1 32  1  0
  4 33  1  0
  7 34  1  0
 10 35  1  0
 10 36  1  0
 10 37  1  0
 11 38  1  6
 13 39  1  0
 14 40  1  0
 15 41  1  0
 16 42  1  0
 19 43  1  0
 19 44  1  0
 19 45  1  0
 21 46  1  0
 21 47  1  0
 23 48  1  0
 26 49  1  0
 26 50  1  0
 26 51  1  0
 27 52  1  0
 28 53  1  0
 28 54  1  0
 29 55  1  0
 29 56  1  0
M  END
>  <UniqueID>  (26) 
24

>  <SMILES>  (26) 
COc1cc2c(cc1OC)[C@H](c1ccccc1OC)N(Cc1cnn(C)c1)CC2

>  <Energy>  (26) 
99.4179492165936

>  <Genealogy>  (26) 
COc1cc2c(cc1OC)[C@H](c1ccccc1OC)N(Cc1cnn(C)c1)CC2 (chirality)
COc1cc2c(cc1OC)[C@H](c1ccccc1OC)N(Cc1cnn(C)c1)CC2 (3D coordinates assigned)
COc1cc2c(cc1OC)[C@H](c1ccccc1OC)N(Cc1cnn(C)c1)CC2 (nonaromatic ring conformer: 99.4179492165936 kcal/mol)

>  <smiles>  (26) 
COc1cc2c(cc1OC)C(c1ccccc1OC)N(Cc1cnn(C)c1)CC2

>  <score_type>  (26) 
oracle

>  <origin>  (26) 
adg

>  <m_score__min__energy>  (26) 
-8.4100000000000001

>  <m_primary>  (26) 
energy

$$$$
27:0
     RDKit          3D

 49 51  0  0  0  0  0  0  0  0999 V2000
   -6.5040   25.2090  -30.2200 O   0  0  0  0  0  0  0  0  0  0  0  0
   -5.8170   24.5150  -31.0170 C   0  0  0  0  0  0  0  0  0  0  0  0
   -4.4270   24.6510  -31.0620 O   0  0  0  0  0  0  0  0  0  0  0  0
   -3.5450   23.7390  -30.4140 C   0  0  0  0  0  0  0  0  0  0  0  0
   -4.3590   22.6370  -29.7380 C   0  0  0  0  0  0  0  0  0  0  0  0
   -3.8770   21.3010  -30.1170 N   0  0  0  0  0  0  0  0  0  0  0  0
   -2.7180   20.7450  -29.4630 C   0  0  0  0  0  0  0  0  0  0  0  0
   -2.7480   20.6220  -28.0620 C   0  0  0  0  0  0  0  0  0  0  0  0
   -1.6650   20.0920  -27.3640 C   0  0  0  0  0  0  0  0  0  0  0  0
   -0.5300   19.6750  -28.0530 C   0  0  0  0  0  0  0  0  0  0  0  0
   -0.4730   19.7930  -29.4410 C   0  0  0  0  0  0  0  0  0  0  0  0
   -1.5450   20.3390  -30.1720 C   0  0  0  0  0  0  0  0  0  0  0  0
   -1.3520   20.3990  -31.6840 C   0  0  0  0  0  0  0  0  0  0  0  0
   -2.3140   21.2950  -32.4690 C   0  0  0  0  0  0  0  0  0  0  0  0
   -3.6850   20.6880  -32.4750 C   0  0  0  0  0  0  0  0  0  0  0  0
   -4.2020   20.0690  -33.6240 C   0  0  0  0  0  0  0  0  0  0  0  0
   -5.4580   19.4360  -33.5890 C   0  0  0  0  0  0  0  0  0  0  0  0
   -6.0030   18.8190  -34.7740 N   0  0  0  0  0  0  0  0  0  0  0  0
   -6.1440   17.3600  -34.6190 C   0  0  0  0  0  0  0  0  0  0  0  0
   -4.7920   16.6410  -34.5300 C   0  0  0  0  0  0  0  0  0  0  0  0
   -3.8420   17.3580  -35.2330 F   0  0  0  0  0  0  0  0  0  0  0  0
   -4.3820   16.5380  -33.2130 F   0  0  0  0  0  0  0  0  0  0  0  0
   -6.1760   19.4110  -32.3810 C   0  0  0  0  0  0  0  0  0  0  0  0
   -5.6560   20.0150  -31.2350 C   0  0  0  0  0  0  0  0  0  0  0  0
   -4.4160   20.6650  -31.2840 C   0  0  0  0  0  0  0  0  0  0  0  0
   -6.4900   23.4990  -31.8820 C   0  0  0  0  0  0  0  0  0  0  0  0
   -5.5530   22.8470  -32.6650 F   0  0  0  0  0  0  0  0  0  0  0  0
   -7.4120   24.1170  -32.7070 F   0  0  0  0  0  0  0  0  0  0  0  0
   -7.1370   22.5750  -31.0850 F   0  0  0  0  0  0  0  0  0  0  0  0
   -2.8688   23.2918  -31.1575 H   0  0  0  0  0  0  0  0  0  0  0  0
   -2.9541   24.2754  -29.6569 H   0  0  0  0  0  0  0  0  0  0  0  0
   -4.2769   22.7503  -28.6469 H   0  0  0  0  0  0  0  0  0  0  0  0
   -5.4053   22.7316  -30.0642 H   0  0  0  0  0  0  0  0  0  0  0  0
   -3.6406   20.9494  -27.5088 H   0  0  0  0  0  0  0  0  0  0  0  0
   -1.7070   20.0031  -26.2684 H   0  0  0  0  0  0  0  0  0  0  0  0
    0.3229   19.2519  -27.5020 H   0  0  0  0  0  0  0  0  0  0  0  0
    0.4266   19.4530  -29.9750 H   0  0  0  0  0  0  0  0  0  0  0  0
   -0.3306   20.7602  -31.8748 H   0  0  0  0  0  0  0  0  0  0  0  0
   -1.5548   19.3782  -32.0402 H   0  0  0  0  0  0  0  0  0  0  0  0
   -2.3563   22.2873  -31.9963 H   0  0  0  0  0  0  0  0  0  0  0  0
   -1.9558   21.3920  -33.5045 H   0  0  0  0  0  0  0  0  0  0  0  0
   -3.6212   20.0789  -34.5581 H   0  0  0  0  0  0  0  0  0  0  0  0
   -6.9280   19.2430  -35.0240 H   0  0  0  0  0  0  0  0  0  0  0  0
   -5.3560   19.0080  -35.5760 H   0  0  0  0  0  0  0  0  0  0  0  0
   -6.7118   17.1570  -33.6990 H   0  0  0  0  0  0  0  0  0  0  0  0
   -6.6645   16.9799  -35.5104 H   0  0  0  0  0  0  0  0  0  0  0  0
   -4.9049   15.6330  -34.9557 H   0  0  0  0  0  0  0  0  0  0  0  0
   -7.1552   18.9116  -32.3383 H   0  0  0  0  0  0  0  0  0  0  0  0
   -6.2209   19.9805  -30.2918 H   0  0  0  0  0  0  0  0  0  0  0  0
  1  2  2  0
  2  3  1  0
  3  4  1  0
  4  5  1  0
  5  6  1  0
  6  7  1  0
  7  8  2  0
  8  9  1  0
  9 10  2  0
 10 11  1  0
 11 12  2  0
 12 13  1  0
 13 14  1  0
 14 15  1  0
 15 16  2  0
 16 17  1  0
 17 18  1  0
 18 19  1  0
 19 20  1  0
 20 21  1  0
 20 22  1  0
 17 23  2  0
 23 24  1  0
 24 25  2  0
  2 26  1  0
 26 27  1  0
 26 28  1  0
 26 29  1  0
 25  6  1  0
 12  7  1  0
 25 15  1  0
  4 30  1  0
  4 31  1  0
  5 32  1  0
  5 33  1  0
  8 34  1  0
  9 35  1  0
 10 36  1  0
 11 37  1  0
 13 38  1  0
 13 39  1  0
 14 40  1  0
 14 41  1  0
 16 42  1  0
 18 43  1  0
 18 44  1  0
 19 45  1  0
 19 46  1  0
 20 47  1  0
 23 48  1  0
 24 49  1  0
M  CHG  1  18   1
M  END
>  <UniqueID>  (27) 
25

>  <SMILES>  (27) 
O=C(OCCN1c2ccccc2CCc2cc([NH2+]CC(F)F)ccc21)C(F)(F)F

>  <Energy>  (27) 
63.28941811479434

>  <Genealogy>  (27) 
O=C(OCCN1c2ccccc2CCc2cc([NH2+]CC(F)F)ccc21)C(F)(F)F (protonated)
O=C(OCCN1c2ccccc2CCc2cc([NH2+]CC(F)F)ccc21)C(F)(F)F (3D coordinates assigned)
O=C(OCCN1c2ccccc2CCc2cc([NH2+]CC(F)F)ccc21)C(F)(F)F (nonaromatic ring conformer: 63.28941811479434 kcal/mol)

>  <smiles>  (27) 
O=C(OCCN1c2ccccc2CCc2cc(NCC(F)F)ccc21)C(F)(F)F

>  <score_type>  (27) 
oracle

>  <origin>  (27) 
adg

>  <m_score__min__energy>  (27) 
-6.3200000000000003

>  <m_primary>  (27) 
energy

$$$$
28:0
     RDKit          3D

 45 47  0  0  0  0  0  0  0  0999 V2000
    1.2270   23.7960  -26.4800 C   0  0  0  0  0  0  0  0  0  0  0  0
   -0.0480   24.4830  -26.0670 C   0  0  0  0  0  0  0  0  0  0  0  0
   -0.0540   25.2820  -24.9160 C   0  0  0  0  0  0  0  0  0  0  0  0
   -1.2340   25.9230  -24.5300 C   0  0  0  0  0  0  0  0  0  0  0  0
   -1.2480   26.6440  -23.4980 O   0  0  0  0  0  0  0  0  0  0  0  0
   -2.3430   25.7770  -25.2450 O   0  0  0  0  0  0  0  0  0  0  0  0
   -2.3970   25.0290  -26.3430 C   0  0  0  0  0  0  0  0  0  0  0  0
   -3.6030   24.9250  -27.0410 C   0  0  0  0  0  0  0  0  0  0  0  0
   -3.6960   24.1370  -28.2000 C   0  0  0  0  0  0  0  0  0  0  0  0
   -4.9330   24.0520  -28.9280 N   0  0  0  0  0  0  0  0  0  0  0  0
   -5.1160   24.5740  -30.2540 C   0  0  0  0  0  0  0  0  0  0  0  0
   -4.2190   25.2750  -30.7980 O   0  0  0  0  0  0  0  0  0  0  0  0
   -6.4090   24.3470  -30.9830 C   0  0  0  0  0  0  0  0  0  0  0  0
   -6.2010   23.4860  -32.2380 C   0  0  0  0  0  0  0  0  0  0  0  0
   -7.2040   22.4030  -32.3330 N   0  0  0  0  0  0  0  0  0  0  0  0
   -8.4300   22.7310  -31.5610 C   0  0  0  0  0  0  0  0  0  0  0  0
   -9.3590   21.5130  -31.3660 C   0  0  0  0  0  0  0  0  0  0  0  0
   -9.0320   20.3920  -32.3520 C   0  0  0  0  0  0  0  0  0  0  0  0
   -7.5680   19.9510  -32.2130 C   0  0  0  0  0  0  0  0  0  0  0  0
   -6.6290   21.1230  -31.8710 C   0  0  0  0  0  0  0  0  0  0  0  0
   -2.5470   23.4760  -28.6740 C   0  0  0  0  0  0  0  0  0  0  0  0
   -2.5990   22.4840  -30.1270 Cl  0  0  0  0  0  0  0  0  0  0  0  0
   -1.3360   23.5760  -27.9780 C   0  0  0  0  0  0  0  0  0  0  0  0
   -1.2460   24.3490  -26.8060 C   0  0  0  0  0  0  0  0  0  0  0  0
    1.7878   23.4938  -25.5832 H   0  0  0  0  0  0  0  0  0  0  0  0
    0.9862   22.9055  -27.0792 H   0  0  0  0  0  0  0  0  0  0  0  0
    1.8383   24.4869  -27.0792 H   0  0  0  0  0  0  0  0  0  0  0  0
    0.8631   25.4037  -24.3209 H   0  0  0  0  0  0  0  0  0  0  0  0
   -4.4895   25.4663  -26.6788 H   0  0  0  0  0  0  0  0  0  0  0  0
   -5.7640   23.6420  -28.4470 H   0  0  0  0  0  0  0  0  0  0  0  0
   -7.1138   23.8356  -30.3109 H   0  0  0  0  0  0  0  0  0  0  0  0
   -6.8065   25.3239  -31.2953 H   0  0  0  0  0  0  0  0  0  0  0  0
   -6.2841   24.1274  -33.1277 H   0  0  0  0  0  0  0  0  0  0  0  0
   -5.2044   23.0247  -32.1751 H   0  0  0  0  0  0  0  0  0  0  0  0
   -8.1318   23.1074  -30.5714 H   0  0  0  0  0  0  0  0  0  0  0  0
   -8.9895   23.4856  -32.1334 H   0  0  0  0  0  0  0  0  0  0  0  0
   -9.2387   21.1329  -30.3408 H   0  0  0  0  0  0  0  0  0  0  0  0
  -10.3944   21.8380  -31.5458 H   0  0  0  0  0  0  0  0  0  0  0  0
   -9.6879   19.5323  -32.1506 H   0  0  0  0  0  0  0  0  0  0  0  0
   -9.1915   20.7652  -33.3744 H   0  0  0  0  0  0  0  0  0  0  0  0
   -7.5004   19.1996  -31.4125 H   0  0  0  0  0  0  0  0  0  0  0  0
   -7.2495   19.5393  -33.1820 H   0  0  0  0  0  0  0  0  0  0  0  0
   -6.4846   21.1642  -30.7813 H   0  0  0  0  0  0  0  0  0  0  0  0
   -5.6654   20.9643  -32.3773 H   0  0  0  0  0  0  0  0  0  0  0  0
   -0.4474   23.0456  -28.3509 H   0  0  0  0  0  0  0  0  0  0  0  0
  1  2  1  0
  2  3  2  0
  3  4  1  0
  4  5  2  0
  4  6  1  0
  6  7  1  0
  7  8  2  0
  8  9  1  0
  9 10  1  0
 10 11  1  0
 11 12  2  0
 11 13  1  0
 13 14  1  0
 14 15  1  0
 15 16  1  0
 16 17  1  0
 17 18  1  0
 18 19  1  0
 19 20  1  0
  9 21  2  0
 21 22  1  0
 21 23  1  0
 23 24  2  0
 24  2  1  0
 24  7  1  0
 20 15  1  0
  1 25  1  0
  1 26  1  0
  1 27  1  0
  3 28  1  0
  8 29  1  0
 10 30  1  0
 13 31  1  0
 13 32  1  0
 14 33  1  0
 14 34  1  0
 16 35  1  0
 16 36  1  0
 17 37  1  0
 17 38  1  0
 18 39  1  0
 18 40  1  0
 19 41  1  0
 19 42  1  0
 20 43  1  0
 20 44  1  0
 23 45  1  0
M  END
>  <UniqueID>  (28) 
26

>  <SMILES>  (28) 
Cc1cc(=O)oc2cc(NC(=O)CCN3CCCCC3)c(Cl)cc12

>  <Energy>  (28) 
56.928004558551415

>  <Genealogy>  (28) 
Cc1cc(=O)oc2cc(NC(=O)CCN3CCCCC3)c(Cl)cc12 (3D coordinates assigned)
Cc1cc(=O)oc2cc(NC(=O)CCN3CCCCC3)c(Cl)cc12 (nonaromatic ring conformer: 56.928004558551415 kcal/mol)

>  <smiles>  (28) 
Cc1cc(=O)oc2cc(NC(=O)CCN3CCCCC3)c(Cl)cc12

>  <score_type>  (28) 
oracle

>  <origin>  (28) 
adg

>  <m_score__min__energy>  (28) 
-9.1400000000000006

>  <m_primary>  (28) 
energy

$$$$
29:0
     RDKit          3D

 31 33  0  0  0  0  0  0  0  0999 V2000
   -3.7550   24.1590  -28.1590 C   0  0  0  0  0  0  0  0  0  0  0  0
   -2.7970   24.5390  -29.2830 C   0  0  0  0  0  0  0  0  0  0  0  0
   -3.5250   25.0490  -30.4420 N   0  0  0  0  0  0  0  0  0  0  0  0
   -4.9460   25.1960  -30.5930 C   0  0  0  0  0  0  0  0  0  0  0  0
   -5.4340   26.3520  -30.4950 O   0  0  0  0  0  0  0  0  0  0  0  0
   -5.8640   24.0650  -30.8510 C   0  0  0  0  0  0  0  0  0  0  0  0
   -7.2540   24.1660  -30.8860 C   0  0  0  0  0  0  0  0  0  0  0  0
   -7.8990   22.9660  -31.2080 C   0  0  0  0  0  0  0  0  0  0  0  0
   -7.0130   21.9260  -31.4600 C   0  0  0  0  0  0  0  0  0  0  0  0
   -7.3640   20.5670  -31.7580 N   0  0  0  0  0  0  0  0  0  0  0  0
   -8.3620   19.9050  -31.1770 N   0  0  0  0  0  0  0  0  0  0  0  0
   -8.4770   18.6650  -31.6470 N   0  0  0  0  0  0  0  0  0  0  0  0
   -7.4980   18.5430  -32.5620 C   0  0  0  0  0  0  0  0  0  0  0  0
   -7.1570   17.4270  -33.3210 C   0  0  0  0  0  0  0  0  0  0  0  0
   -6.0430   17.5400  -34.1740 C   0  0  0  0  0  0  0  0  0  0  0  0
   -5.3000   18.7430  -34.2300 C   0  0  0  0  0  0  0  0  0  0  0  0
   -5.6710   19.8510  -33.4450 C   0  0  0  0  0  0  0  0  0  0  0  0
   -6.8010   19.7150  -32.6340 C   0  0  0  0  0  0  0  0  0  0  0  0
   -5.4410   22.4830  -31.2530 S   0  0  0  0  0  0  0  0  0  0  0  0
   -3.2748   24.3495  -27.1879 H   0  0  0  0  0  0  0  0  0  0  0  0
   -4.6718   24.7616  -28.2392 H   0  0  0  0  0  0  0  0  0  0  0  0
   -4.0095   23.0918  -28.2392 H   0  0  0  0  0  0  0  0  0  0  0  0
   -2.1078   25.3161  -28.9208 H   0  0  0  0  0  0  0  0  0  0  0  0
   -2.2398   23.6406  -29.5870 H   0  0  0  0  0  0  0  0  0  0  0  0
   -7.7939   25.1019  -30.6797 H   0  0  0  0  0  0  0  0  0  0  0  0
   -8.9926   22.8579  -31.2564 H   0  0  0  0  0  0  0  0  0  0  0  0
   -8.9920   20.3060  -30.4480 H   0  0  0  0  0  0  0  0  0  0  0  0
   -7.7354   16.4935  -33.2567 H   0  0  0  0  0  0  0  0  0  0  0  0
   -5.7477   16.6865  -34.8020 H   0  0  0  0  0  0  0  0  0  0  0  0
   -4.4249   18.8129  -34.8928 H   0  0  0  0  0  0  0  0  0  0  0  0
   -5.0941   20.7873  -33.4690 H   0  0  0  0  0  0  0  0  0  0  0  0
  1  2  1  0
  2  3  1  0
  3  4  1  0
  4  5  2  0
  4  6  1  0
  6  7  2  0
  7  8  1  0
  8  9  2  0
  9 10  1  0
 10 11  1  0
 11 12  2  0
 12 13  1  0
 13 14  2  0
 14 15  1  0
 15 16  2  0
 16 17  1  0
 17 18  2  0
  9 19  1  0
 19  6  1  0
 18 10  1  0
 18 13  1  0
  1 20  1  0
  1 21  1  0
  1 22  1  0
  2 23  1  0
  2 24  1  0
  7 25  1  0
  8 26  1  0
 11 27  1  0
 14 28  1  0
 15 29  1  0
 16 30  1  0
 17 31  1  0
M  CHG  2   3  -1  11   1
M  END
>  <UniqueID>  (29) 
27

>  <SMILES>  (29) 
CC[N-]C(=O)c1ccc(-n2[nH+]nc3ccccc32)s1

>  <Energy>  (29) 
108.16466225775011

>  <Genealogy>  (29) 
CC[N-]C(=O)c1ccc(-n2[nH+]nc3ccccc32)s1 (protonated)
CC[N-]C(=O)c1ccc(-n2[nH+]nc3ccccc32)s1 (3D coordinates assigned)
CC[N-]C(=O)c1ccc(-n2[nH+]nc3ccccc32)s1 (optimized conformer: 108.16466225775011 kcal/mol)

>  <smiles>  (29) 
CCNC(=O)c1ccc(-n2nnc3ccccc32)s1

>  <score_type>  (29) 
oracle

>  <origin>  (29) 
adg

>  <m_score__min__energy>  (29) 
-9.6300000000000008

>  <m_primary>  (29) 
energy

$$$$
30:0
     RDKit          3D

 43 44  0  0  0  0  0  0  0  0999 V2000
   -6.1540   23.7430  -32.2080 C   0  0  0  0  0  0  0  0  0  0  0  0
   -6.8000   24.2120  -30.9670 N   0  0  0  0  0  0  0  0  0  0  0  0
   -5.9440   25.1640  -30.2310 C   0  0  0  0  0  0  0  0  0  0  0  0
   -4.5660   24.5990  -30.0640 C   0  0  0  0  0  0  0  0  0  0  0  0
   -3.5730   25.2610  -30.4720 O   0  0  0  0  0  0  0  0  0  0  0  0
   -4.3840   23.2930  -29.5000 N   0  0  0  0  0  0  0  0  0  0  0  0
   -3.1400   22.5460  -29.6540 C   0  0  0  0  0  0  0  0  0  0  0  0
   -3.1130   21.8800  -31.0020 C   0  0  0  0  0  0  0  0  0  0  0  0
   -4.2540   21.2330  -31.4980 C   0  0  0  0  0  0  0  0  0  0  0  0
   -4.2230   20.5840  -32.7430 C   0  0  0  0  0  0  0  0  0  0  0  0
   -5.4460   19.8640  -33.2580 C   0  0  0  0  0  0  0  0  0  0  0  0
   -5.8460   18.8810  -32.3680 F   0  0  0  0  0  0  0  0  0  0  0  0
   -6.4990   20.7480  -33.4250 F   0  0  0  0  0  0  0  0  0  0  0  0
   -5.1520   19.2780  -34.4740 F   0  0  0  0  0  0  0  0  0  0  0  0
   -3.0150   20.5310  -33.4580 C   0  0  0  0  0  0  0  0  0  0  0  0
   -1.8520   21.1380  -32.9530 C   0  0  0  0  0  0  0  0  0  0  0  0
   -0.5700   21.1190  -33.7480 C   0  0  0  0  0  0  0  0  0  0  0  0
   -0.5180   19.9560  -34.4970 F   0  0  0  0  0  0  0  0  0  0  0  0
    0.5310   21.1640  -32.9050 F   0  0  0  0  0  0  0  0  0  0  0  0
   -0.5050   22.2110  -34.6000 F   0  0  0  0  0  0  0  0  0  0  0  0
   -1.9190   21.8340  -31.7350 C   0  0  0  0  0  0  0  0  0  0  0  0
   -7.2400   23.0830  -30.1170 C   0  0  0  0  0  0  0  0  0  0  0  0
   -8.0490   22.0580  -30.8650 C   0  0  0  0  0  0  0  0  0  0  0  0
   -9.1560   22.3160  -31.6510 C   0  0  0  0  0  0  0  0  0  0  0  0
   -9.5540   21.0920  -32.1470 C   0  0  0  0  0  0  0  0  0  0  0  0
   -8.6640   20.1720  -31.6340 C   0  0  0  0  0  0  0  0  0  0  0  0
   -8.6910   18.2950  -31.9690 Br  0  0  0  0  0  0  0  0  0  0  0  0
   -7.7770   20.7730  -30.8750 O   0  0  0  0  0  0  0  0  0  0  0  0
   -5.2877   23.1140  -31.9553 H   0  0  0  0  0  0  0  0  0  0  0  0
   -6.8740   23.1559  -32.7969 H   0  0  0  0  0  0  0  0  0  0  0  0
   -5.8187   24.6095  -32.7969 H   0  0  0  0  0  0  0  0  0  0  0  0
   -5.8840   26.1079  -30.7927 H   0  0  0  0  0  0  0  0  0  0  0  0
   -6.3804   25.3450  -29.2376 H   0  0  0  0  0  0  0  0  0  0  0  0
   -5.2110   22.7930  -29.1040 H   0  0  0  0  0  0  0  0  0  0  0  0
   -2.2867   23.2350  -29.5693 H   0  0  0  0  0  0  0  0  0  0  0  0
   -3.0751   21.7798  -28.8674 H   0  0  0  0  0  0  0  0  0  0  0  0
   -5.1815   21.2338  -30.9066 H   0  0  0  0  0  0  0  0  0  0  0  0
   -2.9787   20.0080  -34.4250 H   0  0  0  0  0  0  0  0  0  0  0  0
   -1.0252   22.3484  -31.3522 H   0  0  0  0  0  0  0  0  0  0  0  0
   -6.3487   22.5898  -29.7019 H   0  0  0  0  0  0  0  0  0  0  0  0
   -7.8864   23.4988  -29.3301 H   0  0  0  0  0  0  0  0  0  0  0  0
   -9.6226   23.2938  -31.8414 H   0  0  0  0  0  0  0  0  0  0  0  0
  -10.4054   20.8912  -32.8139 H   0  0  0  0  0  0  0  0  0  0  0  0
  1  2  1  0
  2  3  1  0
  3  4  1  0
  4  5  2  0
  4  6  1  0
  6  7  1  0
  7  8  1  0
  8  9  2  0
  9 10  1  0
 10 11  1  0
 11 12  1  0
 11 13  1  0
 11 14  1  0
 10 15  2  0
 15 16  1  0
 16 17  1  0
 17 18  1  0
 17 19  1  0
 17 20  1  0
 16 21  2  0
  2 22  1  0
 22 23  1  0
 23 24  2  0
 24 25  1  0
 25 26  2  0
 26 27  1  0
 26 28  1  0
 21  8  1  0
 28 23  1  0
  1 29  1  0
  1 30  1  0
  1 31  1  0
  3 32  1  0
  3 33  1  0
  6 34  1  0
  7 35  1  0
  7 36  1  0
  9 37  1  0
 15 38  1  0
 21 39  1  0
 22 40  1  0
 22 41  1  0
 24 42  1  0
 25 43  1  0
M  END
>  <UniqueID>  (30) 
28

>  <SMILES>  (30) 
CN(CC(=O)NCc1cc(C(F)(F)F)cc(C(F)(F)F)c1)Cc1ccc(Br)o1

>  <Energy>  (30) 
66.9133029411469

>  <Genealogy>  (30) 
CN(CC(=O)NCc1cc(C(F)(F)F)cc(C(F)(F)F)c1)Cc1ccc(Br)o1 (3D coordinates assigned)
CN(CC(=O)NCc1cc(C(F)(F)F)cc(C(F)(F)F)c1)Cc1ccc(Br)o1 (optimized conformer: 66.9133029411469 kcal/mol)

>  <smiles>  (30) 
CN(CC(=O)NCc1cc(C(F)(F)F)cc(C(F)(F)F)c1)Cc1ccc(Br)o1

>  <score_type>  (30) 
oracle

>  <origin>  (30) 
adg

>  <m_score__min__energy>  (30) 
-8.5899999999999999

>  <m_primary>  (30) 
energy

$$$$
31:0
     RDKit          3D

 30 29  0  0  0  0  0  0  0  0999 V2000
   -3.5780   24.1820  -27.4260 C   0  0  0  0  0  0  0  0  0  0  0  0
   -2.5970   24.5310  -28.2610 C   0  0  0  0  0  0  0  0  0  0  0  0
   -2.6480   24.1530  -29.7130 C   0  0  0  0  0  0  0  0  0  0  0  0
   -3.5010   25.0750  -30.4560 N   0  0  0  0  0  0  0  0  0  0  0  0
   -4.9350   25.0570  -30.4690 C   0  0  0  0  0  0  0  0  0  0  0  0
   -5.5480   26.0790  -30.8750 O   0  0  0  0  0  0  0  0  0  0  0  0
   -5.7290   23.8550  -30.0290 C   0  0  0  0  0  0  0  0  0  0  0  0
   -6.7460   23.4790  -31.0390 N   0  0  0  0  0  0  0  0  0  0  0  0
   -6.1050   23.1670  -32.3360 C   0  0  0  0  0  0  0  0  0  0  0  0
   -5.0590   22.0970  -32.1810 C   0  0  0  0  0  0  0  0  0  0  0  0
   -5.0400   21.0200  -32.9690 C   0  0  0  0  0  0  0  0  0  0  0  0
   -7.5920   22.3490  -30.5730 C   0  0  0  0  0  0  0  0  0  0  0  0
   -8.7030   22.0770  -31.5850 C   0  0  0  0  0  0  0  0  0  0  0  0
   -8.7520   20.2020  -32.0790 Br  0  0  0  0  0  0  0  0  0  0  0  0
   -3.5246   24.4672  -26.3650 H   0  0  0  0  0  0  0  0  0  0  0  0
   -4.4399   23.6091  -27.7989 H   0  0  0  0  0  0  0  0  0  0  0  0
   -1.7388   25.1038  -27.8798 H   0  0  0  0  0  0  0  0  0  0  0  0
   -1.6309   24.1857  -30.1307 H   0  0  0  0  0  0  0  0  0  0  0  0
   -3.0636   23.1383  -29.8001 H   0  0  0  0  0  0  0  0  0  0  0  0
   -5.0430   23.0082  -29.8795 H   0  0  0  0  0  0  0  0  0  0  0  0
   -6.2481   24.1071  -29.0925 H   0  0  0  0  0  0  0  0  0  0  0  0
   -6.8735   22.8183  -33.0416 H   0  0  0  0  0  0  0  0  0  0  0  0
   -5.6183   24.0787  -32.7129 H   0  0  0  0  0  0  0  0  0  0  0  0
   -4.2919   22.2048  -31.4000 H   0  0  0  0  0  0  0  0  0  0  0  0
   -4.2633   20.2529  -32.8334 H   0  0  0  0  0  0  0  0  0  0  0  0
   -5.8010   20.8994  -33.7541 H   0  0  0  0  0  0  0  0  0  0  0  0
   -6.9696   21.4485  -30.4643 H   0  0  0  0  0  0  0  0  0  0  0  0
   -8.0421   22.6103  -29.6039 H   0  0  0  0  0  0  0  0  0  0  0  0
   -9.6698   22.3572  -31.1414 H   0  0  0  0  0  0  0  0  0  0  0  0
   -8.5061   22.6719  -32.4890 H   0  0  0  0  0  0  0  0  0  0  0  0
  1  2  2  0
  2  3  1  0
  3  4  1  0
  4  5  1  0
  5  6  2  0
  5  7  1  0
  7  8  1  0
  8  9  1  0
  9 10  1  0
 10 11  2  0
  8 12  1  0
 12 13  1  0
 13 14  1  0
  1 15  1  0
  1 16  1  0
  2 17  1  0
  3 18  1  0
  3 19  1  0
  7 20  1  0
  7 21  1  0
  9 22  1  0
  9 23  1  0
 10 24  1  0
 11 25  1  0
 11 26  1  0
 12 27  1  0
 12 28  1  0
 13 29  1  0
 13 30  1  0
M  CHG  1   4  -1
M  END
>  <UniqueID>  (31) 
29

>  <SMILES>  (31) 
C=CC[N-]C(=O)CN(CC=C)CCBr

>  <Energy>  (31) 
16.946335770996363

>  <Genealogy>  (31) 
C=CC[N-]C(=O)CN(CC=C)CCBr (protonated)
C=CC[N-]C(=O)CN(CC=C)CCBr (3D coordinates assigned)
C=CC[N-]C(=O)CN(CC=C)CCBr (optimized conformer: 16.946335770996363 kcal/mol)

>  <smiles>  (31) 
C=CCNC(=O)CN(CC=C)CCBr

>  <score_type>  (31) 
oracle

>  <origin>  (31) 
adg

>  <m_score__min__energy>  (31) 
-6.8099999999999996

>  <m_primary>  (31) 
energy

$$$$
32:0
     RDKit          3D

 50 53  0  0  0  0  0  0  0  0999 V2000
   -6.6939   24.8287  -29.2148 H   0  0  0  0  0  0  0  0  0  0  0  0
   -6.0510   24.6390  -30.0870 C   0  0  0  0  0  0  0  0  0  0  0  0
   -4.6040   24.8670  -29.9800 C   0  0  0  0  0  0  0  0  0  0  0  0
   -4.0350   25.5950  -30.8390 O   0  0  0  0  0  0  0  0  0  0  0  0
   -3.8370   24.2790  -28.9040 N   0  0  0  0  0  0  0  0  0  0  0  0
   -4.2340   23.0080  -28.3080 C   0  0  0  0  0  0  0  0  0  0  0  0
   -5.3278   22.9023  -28.3576 H   0  0  0  0  0  0  0  0  0  0  0  0
   -3.9173   22.9744  -27.2551 H   0  0  0  0  0  0  0  0  0  0  0  0
   -3.5700   21.8660  -29.0880 C   0  0  0  0  0  0  0  0  0  0  0  0
   -4.1482   21.6938  -30.0078 H   0  0  0  0  0  0  0  0  0  0  0  0
   -3.5606   20.9903  -28.4223 H   0  0  0  0  0  0  0  0  0  0  0  0
   -2.1620   22.1310  -29.4660 N   0  0  0  0  0  0  0  0  0  0  0  0
   -1.3870   21.0430  -30.0610 C   0  0  0  0  0  0  0  0  0  0  0  0
   -1.1860   20.9730  -31.4610 C   0  0  0  0  0  0  0  0  0  0  0  0
   -1.6240   21.7449  -32.1108 H   0  0  0  0  0  0  0  0  0  0  0  0
   -0.4390   19.9370  -32.0290 C   0  0  0  0  0  0  0  0  0  0  0  0
   -0.3047   19.8954  -33.1200 H   0  0  0  0  0  0  0  0  0  0  0  0
    0.1400   18.9510  -31.2190 C   0  0  0  0  0  0  0  0  0  0  0  0
    0.9020   17.8940  -31.7390 O   0  0  0  0  0  0  0  0  0  0  0  0
    0.4250   16.5650  -31.9040 C   0  0  0  0  0  0  0  0  0  0  0  0
    0.2613   16.1089  -30.9165 H   0  0  0  0  0  0  0  0  0  0  0  0
   -0.5230   16.5823  -32.4616 H   0  0  0  0  0  0  0  0  0  0  0  0
    1.1676   15.9755  -32.4616 H   0  0  0  0  0  0  0  0  0  0  0  0
   -0.0480   19.0120  -29.8350 C   0  0  0  0  0  0  0  0  0  0  0  0
    0.4109   18.2491  -29.1890 H   0  0  0  0  0  0  0  0  0  0  0  0
   -0.8120   20.0310  -29.2650 C   0  0  0  0  0  0  0  0  0  0  0  0
   -0.9684   20.0451  -28.1763 H   0  0  0  0  0  0  0  0  0  0  0  0
   -1.6050   23.5130  -29.5320 C   0  0  0  0  0  0  0  0  0  0  0  0
   -1.5638   23.8171  -30.5883 H   0  0  0  0  0  0  0  0  0  0  0  0
   -0.6134   23.4745  -29.0575 H   0  0  0  0  0  0  0  0  0  0  0  0
   -2.4170   24.5610  -28.7630 C   0  0  0  0  0  0  0  0  0  0  0  0
   -2.2005   25.5607  -29.1676 H   0  0  0  0  0  0  0  0  0  0  0  0
   -2.1420   24.5266  -27.6985 H   0  0  0  0  0  0  0  0  0  0  0  0
   -6.5990   24.2060  -31.2230 C   0  0  0  0  0  0  0  0  0  0  0  0
   -7.1885   24.9083  -31.8307 H   0  0  0  0  0  0  0  0  0  0  0  0
   -6.4410   22.8180  -31.6910 C   0  0  0  0  0  0  0  0  0  0  0  0
   -7.4740   21.9480  -31.5370 N   0  0  0  0  0  0  0  0  0  0  0  0
   -7.4050   20.6660  -31.9800 C   0  0  0  0  0  0  0  0  0  0  0  0
   -8.4820   19.7910  -31.8180 C   0  0  0  0  0  0  0  0  0  0  0  0
   -9.4023   20.1321  -31.3214 H   0  0  0  0  0  0  0  0  0  0  0  0
   -8.3830   18.4820  -32.2900 C   0  0  0  0  0  0  0  0  0  0  0  0
   -9.2258   17.7850  -32.1722 H   0  0  0  0  0  0  0  0  0  0  0  0
   -7.2040   18.0630  -32.9140 C   0  0  0  0  0  0  0  0  0  0  0  0
   -7.1214   17.0347  -33.2959 H   0  0  0  0  0  0  0  0  0  0  0  0
   -6.1610   18.9210  -33.0500 N   0  0  0  0  0  0  0  0  0  0  0  0
   -6.2310   20.1980  -32.6010 C   0  0  0  0  0  0  0  0  0  0  0  0
   -5.1430   21.0590  -32.7360 C   0  0  0  0  0  0  0  0  0  0  0  0
   -4.2106   20.7047  -33.1999 H   0  0  0  0  0  0  0  0  0  0  0  0
   -5.2450   22.3750  -32.2780 C   0  0  0  0  0  0  0  0  0  0  0  0
   -4.3913   23.0616  -32.3770 H   0  0  0  0  0  0  0  0  0  0  0  0
  1  2  1  0
  2  3  1  0
  3  4  2  0
  3  5  1  0
  5  6  1  0
  6  7  1  0
  6  8  1  0
  6  9  1  0
  9 10  1  0
  9 11  1  0
  9 12  1  0
 12 13  1  0
 13 14  2  0
 14 15  1  0
 14 16  1  0
 16 17  1  0
 16 18  2  0
 18 19  1  0
 19 20  1  0
 20 21  1  0
 20 22  1  0
 20 23  1  0
 18 24  1  0
 24 25  1  0
 24 26  2  0
 26 27  1  0
 12 28  1  0
 28 29  1  0
 28 30  1  0
 28 31  1  0
 31 32  1  0
 31 33  1  0
  2 34  2  0
 34 35  1  0
 34 36  1  0
 36 37  2  0
 37 38  1  0
 38 39  2  0
 39 40  1  0
 39 41  1  0
 41 42  1  0
 41 43  2  0
 43 44  1  0
 43 45  1  0
 45 46  2  0
 46 47  1  0
 47 48  1  0
 47 49  2  0
 49 50  1  0
 31  5  1  0
 49 36  1  0
 26 13  1  0
 46 38  1  0
M  END
>  <UniqueID>  (32) 
30

>  <SMILES>  (32) 
COc1ccc(N2CCN(C(=O)/C=C/c3ccc4ncccc4n3)CC2)cc1

>  <Energy>  (32) 
73.40568711308988

>  <Genealogy>  (32) 
COc1ccc(N2CCN(C(=O)/C=C/c3ccc4ncccc4n3)CC2)cc1 (cis-trans isomerization)
COc1ccc(N2CCN(C(=O)/C=C/c3ccc4ncccc4n3)CC2)cc1 (3D coordinates assigned)
COc1ccc(N2CCN(C(=O)/C=C/c3ccc4ncccc4n3)CC2)cc1 (nonaromatic ring conformer: 73.40568711308988 kcal/mol)

>  <smiles>  (32) 
COc1ccc(N2CCN(C(=O)C=Cc3ccc4ncccc4n3)CC2)cc1

>  <score_type>  (32) 
oracle

>  <origin>  (32) 
adg

>  <m_score__min__energy>  (32) 
-9.3100000000000005

>  <m_primary>  (32) 
energy

$$$$
33:0
     RDKit          3D

 50 51  0  0  0  0  0  0  0  0999 V2000
   -6.4410   19.4600  -33.4490 C   0  0  0  0  0  0  0  0  0  0  0  0
   -6.7000   19.2310  -31.9600 C   0  0  0  0  0  0  0  0  0  0  0  0
   -7.9970   19.8100  -31.5460 N   0  0  0  0  0  0  0  0  0  0  0  0
   -9.0810   18.8160  -31.6670 C   0  0  0  0  0  0  0  0  0  0  0  0
   -8.3170   21.0210  -32.3400 C   0  0  0  0  0  0  0  0  0  0  0  0
   -8.5450   22.2350  -31.4270 C   0  0  0  0  0  0  0  0  0  0  0  0
   -7.2610   22.9880  -31.1860 C   0  0  0  0  0  0  0  0  0  0  0  0
   -7.2360   24.0840  -30.3130 C   0  0  0  0  0  0  0  0  0  0  0  0
   -6.0370   24.7460  -30.0470 C   0  0  0  0  0  0  0  0  0  0  0  0
   -4.8350   24.3050  -30.6330 C   0  0  0  0  0  0  0  0  0  0  0  0
   -3.6070   24.9360  -30.3790 O   0  0  0  0  0  0  0  0  0  0  0  0
   -2.6890   24.5370  -29.3670 C   0  0  0  0  0  0  0  0  0  0  0  0
   -4.8480   23.1940  -31.4910 C   0  0  0  0  0  0  0  0  0  0  0  0
   -3.6260   22.7640  -32.0340 O   0  0  0  0  0  0  0  0  0  0  0  0
   -3.2980   21.4230  -32.4110 C   0  0  0  0  0  0  0  0  0  0  0  0
   -1.8640   21.3990  -32.9900 C   0  0  0  0  0  0  0  0  0  0  0  0
   -0.7700   21.1150  -31.9390 C   0  0  0  0  0  0  0  0  0  0  0  0
   -1.1770   21.5970  -30.5430 C   0  0  0  0  0  0  0  0  0  0  0  0
   -2.4650   20.9060  -30.0520 C   0  0  0  0  0  0  0  0  0  0  0  0
   -3.4070   20.4810  -31.1970 C   0  0  0  0  0  0  0  0  0  0  0  0
   -6.0680   22.5500  -31.7750 C   0  0  0  0  0  0  0  0  0  0  0  0
   -5.6221   20.1841  -33.5716 H   0  0  0  0  0  0  0  0  0  0  0  0
   -6.1624   18.5075  -33.9234 H   0  0  0  0  0  0  0  0  0  0  0  0
   -7.3522   19.8532  -33.9234 H   0  0  0  0  0  0  0  0  0  0  0  0
   -6.7100   18.1494  -31.7600 H   0  0  0  0  0  0  0  0  0  0  0  0
   -5.9004   19.7245  -31.3880 H   0  0  0  0  0  0  0  0  0  0  0  0
   -9.4130   18.5116  -30.6635 H   0  0  0  0  0  0  0  0  0  0  0  0
   -9.9260   19.2597  -32.2139 H   0  0  0  0  0  0  0  0  0  0  0  0
   -8.7120   17.9358  -32.2139 H   0  0  0  0  0  0  0  0  0  0  0  0
   -7.4805   21.2356  -33.0213 H   0  0  0  0  0  0  0  0  0  0  0  0
   -9.2395   20.8328  -32.9088 H   0  0  0  0  0  0  0  0  0  0  0  0
   -9.2721   22.9096  -31.9027 H   0  0  0  0  0  0  0  0  0  0  0  0
   -8.9235   21.8752  -30.4589 H   0  0  0  0  0  0  0  0  0  0  0  0
   -8.1665   24.4241  -29.8350 H   0  0  0  0  0  0  0  0  0  0  0  0
   -6.0307   25.6174  -29.3757 H   0  0  0  0  0  0  0  0  0  0  0  0
   -3.1288   24.7281  -28.3770 H   0  0  0  0  0  0  0  0  0  0  0  0
   -2.4724   23.4636  -29.4710 H   0  0  0  0  0  0  0  0  0  0  0  0
   -1.7564   25.1110  -29.4710 H   0  0  0  0  0  0  0  0  0  0  0  0
   -4.0066   21.0727  -33.1760 H   0  0  0  0  0  0  0  0  0  0  0  0
   -1.8149   20.6162  -33.7612 H   0  0  0  0  0  0  0  0  0  0  0  0
   -1.6659   22.4028  -33.3940 H   0  0  0  0  0  0  0  0  0  0  0  0
   -0.5867   20.0310  -31.9011 H   0  0  0  0  0  0  0  0  0  0  0  0
    0.1371   21.6616  -32.2363 H   0  0  0  0  0  0  0  0  0  0  0  0
   -0.3625   21.3745  -29.8379 H   0  0  0  0  0  0  0  0  0  0  0  0
   -1.3685   22.6789  -30.5970 H   0  0  0  0  0  0  0  0  0  0  0  0
   -2.1835   20.0089  -29.4810 H   0  0  0  0  0  0  0  0  0  0  0  0
   -3.0109   21.6363  -29.4366 H   0  0  0  0  0  0  0  0  0  0  0  0
   -3.1439   19.4610  -31.5138 H   0  0  0  0  0  0  0  0  0  0  0  0
   -4.4403   20.5262  -30.8225 H   0  0  0  0  0  0  0  0  0  0  0  0
   -6.0841   21.6945  -32.4663 H   0  0  0  0  0  0  0  0  0  0  0  0
  1  2  1  0
  2  3  1  0
  3  4  1  0
  3  5  1  0
  5  6  1  0
  6  7  1  0
  7  8  2  0
  8  9  1  0
  9 10  2  0
 10 11  1  0
 11 12  1  0
 10 13  1  0
 13 14  1  0
 14 15  1  0
 15 16  1  0
 16 17  1  0
 17 18  1  0
 18 19  1  0
 19 20  1  0
 13 21  2  0
 21  7  1  0
 20 15  1  0
  1 22  1  0
  1 23  1  0
  1 24  1  0
  2 25  1  0
  2 26  1  0
  4 27  1  0
  4 28  1  0
  4 29  1  0
  5 30  1  0
  5 31  1  0
  6 32  1  0
  6 33  1  0
  8 34  1  0
  9 35  1  0
 12 36  1  0
 12 37  1  0
 12 38  1  0
 15 39  1  0
 16 40  1  0
 16 41  1  0
 17 42  1  0
 17 43  1  0
 18 44  1  0
 18 45  1  0
 19 46  1  0
 19 47  1  0
 20 48  1  0
 20 49  1  0
 21 50  1  0
M  END
>  <UniqueID>  (33) 
31

>  <SMILES>  (33) 
CCN(C)CCc1ccc(OC)c(OC2CCCCC2)c1

>  <Energy>  (33) 
47.057802649746876

>  <Genealogy>  (33) 
CCN(C)CCc1ccc(OC)c(OC2CCCCC2)c1 (3D coordinates assigned)
CCN(C)CCc1ccc(OC)c(OC2CCCCC2)c1 (nonaromatic ring conformer: 47.057802649746876 kcal/mol)

>  <smiles>  (33) 
CCN(C)CCc1ccc(OC)c(OC2CCCCC2)c1

>  <score_type>  (33) 
oracle

>  <origin>  (33) 
adg

>  <m_score__min__energy>  (33) 
-7.6600000000000001

>  <m_primary>  (33) 
energy

$$$$
34:0
     RDKit          3D

 38 39  0  0  0  0  0  0  0  0999 V2000
   -1.2380   25.8270  -27.7390 C   0  0  0  0  0  0  0  0  0  0  0  0
   -1.9620   25.6700  -28.9550 O   0  0  0  0  0  0  0  0  0  0  0  0
   -2.3950   24.4370  -29.4700 C   0  0  0  0  0  0  0  0  0  0  0  0
   -1.7250   23.2320  -29.1840 C   0  0  0  0  0  0  0  0  0  0  0  0
   -2.1850   22.0260  -29.7130 C   0  0  0  0  0  0  0  0  0  0  0  0
   -3.3160   22.0000  -30.5410 C   0  0  0  0  0  0  0  0  0  0  0  0
   -3.8290   20.6890  -31.0780 C   0  0  0  0  0  0  0  0  0  0  0  0
   -5.1070   20.8760  -31.9040 C   0  0  0  0  0  0  0  0  0  0  0  0
   -4.8420   20.6470  -33.3310 N   0  0  0  0  0  0  0  0  0  0  0  0
   -5.6980   19.5860  -33.8820 C   0  0  0  0  0  0  0  0  0  0  0  0
   -6.9330   19.3740  -33.0530 C   0  0  0  0  0  0  0  0  0  0  0  0
   -8.0670   20.1760  -33.0600 C   0  0  0  0  0  0  0  0  0  0  0  0
   -9.0850   19.6970  -32.2280 C   0  0  0  0  0  0  0  0  0  0  0  0
   -8.7610   18.5150  -31.5750 C   0  0  0  0  0  0  0  0  0  0  0  0
   -7.2070   18.0650  -32.0340 S   0  0  0  0  0  0  0  0  0  0  0  0
   -3.9900   23.1980  -30.8230 C   0  0  0  0  0  0  0  0  0  0  0  0
   -3.5330   24.4200  -30.2910 C   0  0  0  0  0  0  0  0  0  0  0  0
   -4.1840   25.6350  -30.5520 O   0  0  0  0  0  0  0  0  0  0  0  0
   -5.5920   25.8310  -30.4700 C   0  0  0  0  0  0  0  0  0  0  0  0
   -1.9171   25.6797  -26.8863 H   0  0  0  0  0  0  0  0  0  0  0  0
   -0.4284   25.0835  -27.6957 H   0  0  0  0  0  0  0  0  0  0  0  0
   -0.8091   26.8390  -27.6957 H   0  0  0  0  0  0  0  0  0  0  0  0
   -0.8336   23.2417  -28.5396 H   0  0  0  0  0  0  0  0  0  0  0  0
   -1.6571   21.0897  -29.4791 H   0  0  0  0  0  0  0  0  0  0  0  0
   -3.0549   20.2377  -31.7161 H   0  0  0  0  0  0  0  0  0  0  0  0
   -4.0649   20.0372  -30.2239 H   0  0  0  0  0  0  0  0  0  0  0  0
   -5.8678   20.1605  -31.5588 H   0  0  0  0  0  0  0  0  0  0  0  0
   -5.4651   21.9077  -31.7722 H   0  0  0  0  0  0  0  0  0  0  0  0
   -5.0220   21.5320  -33.8620 H   0  0  0  0  0  0  0  0  0  0  0  0
   -5.9986   19.8659  -34.9024 H   0  0  0  0  0  0  0  0  0  0  0  0
   -5.1221   18.6488  -33.8807 H   0  0  0  0  0  0  0  0  0  0  0  0
   -8.1558   21.0945  -33.6588 H   0  0  0  0  0  0  0  0  0  0  0  0
  -10.0508   20.2085  -32.1030 H   0  0  0  0  0  0  0  0  0  0  0  0
   -9.4102   17.9666  -30.8766 H   0  0  0  0  0  0  0  0  0  0  0  0
   -4.8830   23.1830  -31.4651 H   0  0  0  0  0  0  0  0  0  0  0  0
   -5.8954   25.8732  -29.4135 H   0  0  0  0  0  0  0  0  0  0  0  0
   -5.8603   26.7752  -30.9666 H   0  0  0  0  0  0  0  0  0  0  0  0
   -6.1080   24.9960  -30.9666 H   0  0  0  0  0  0  0  0  0  0  0  0
  1  2  1  0
  2  3  1  0
  3  4  2  0
  4  5  1  0
  5  6  2  0
  6  7  1  0
  7  8  1  0
  8  9  1  0
  9 10  1  0
 10 11  1  0
 11 12  2  0
 12 13  1  0
 13 14  2  0
 14 15  1  0
  6 16  1  0
 16 17  2  0
 17 18  1  0
 18 19  1  0
 17  3  1  0
 15 11  1  0
  1 20  1  0
  1 21  1  0
  1 22  1  0
  4 23  1  0
  5 24  1  0
  7 25  1  0
  7 26  1  0
  8 27  1  0
  8 28  1  0
  9 29  1  0
 10 30  1  0
 10 31  1  0
 12 32  1  0
 13 33  1  0
 14 34  1  0
 16 35  1  0
 19 36  1  0
 19 37  1  0
 19 38  1  0
M  END
>  <UniqueID>  (34) 
32

>  <SMILES>  (34) 
COc1ccc(CCNCc2cccs2)cc1OC

>  <Energy>  (34) 
58.6393196099326

>  <Genealogy>  (34) 
COc1ccc(CCNCc2cccs2)cc1OC (3D coordinates assigned)
COc1ccc(CCNCc2cccs2)cc1OC (optimized conformer: 58.6393196099326 kcal/mol)

>  <smiles>  (34) 
COc1ccc(CCNCc2cccs2)cc1OC

>  <score_type>  (34) 
oracle

>  <origin>  (34) 
adg

>  <m_score__min__energy>  (34) 
-7.6200000000000001

>  <m_primary>  (34) 
energy

$$$$
35:0
     RDKit          3D

 39 41  0  0  0  0  0  0  0  0999 V2000
    0.1870   24.1630  -23.6290 H   0  0  0  0  0  0  0  0  0  0  0  0
   -0.0980   23.4170  -24.2520 O   0  0  0  0  0  0  0  0  0  0  0  0
   -0.7200   23.6460  -25.4810 C   0  0  0  0  0  0  0  0  0  0  0  0
   -0.7830   22.5920  -26.3980 C   0  0  0  0  0  0  0  0  0  0  0  0
   -0.3472   21.6161  -26.1380 H   0  0  0  0  0  0  0  0  0  0  0  0
   -1.3940   22.7680  -27.6400 C   0  0  0  0  0  0  0  0  0  0  0  0
   -1.4361   21.9297  -28.3510 H   0  0  0  0  0  0  0  0  0  0  0  0
   -1.9530   24.0010  -27.9880 C   0  0  0  0  0  0  0  0  0  0  0  0
   -2.5550   24.1220  -29.2520 O   0  0  0  0  0  0  0  0  0  0  0  0
   -3.8900   23.7250  -29.5720 C   0  0  0  0  0  0  0  0  0  0  0  0
   -4.4887   23.7051  -28.6494 H   0  0  0  0  0  0  0  0  0  0  0  0
   -3.8539   22.7276  -30.0345 H   0  0  0  0  0  0  0  0  0  0  0  0
   -4.5260   24.6790  -30.5490 C   0  0  0  0  0  0  0  0  0  0  0  0
   -4.2710   25.9090  -30.4580 O   0  0  0  0  0  0  0  0  0  0  0  0
   -5.4170   24.2440  -31.5910 N   0  0  0  0  0  0  0  0  0  0  0  0
   -5.8950   23.0490  -31.7840 C   0  0  0  0  0  0  0  0  0  0  0  0
   -7.1790   22.6880  -31.5340 N   0  0  0  0  0  0  0  0  0  0  0  0
   -7.3690   21.3740  -31.8100 C   0  0  0  0  0  0  0  0  0  0  0  0
   -8.5830   20.7040  -31.6580 C   0  0  0  0  0  0  0  0  0  0  0  0
   -9.4741   21.2363  -31.2938 H   0  0  0  0  0  0  0  0  0  0  0  0
   -8.6480   19.3380  -31.9780 C   0  0  0  0  0  0  0  0  0  0  0  0
   -9.5990   18.7967  -31.8659 H   0  0  0  0  0  0  0  0  0  0  0  0
   -7.4970   18.6490  -32.4450 C   0  0  0  0  0  0  0  0  0  0  0  0
   -7.5220   17.2850  -32.7740 O   0  0  0  0  0  0  0  0  0  0  0  0
   -6.5430   16.6350  -33.5780 C   0  0  0  0  0  0  0  0  0  0  0  0
   -5.8030   16.1437  -32.9291 H   0  0  0  0  0  0  0  0  0  0  0  0
   -7.0316   15.8813  -34.2130 H   0  0  0  0  0  0  0  0  0  0  0  0
   -6.0380   17.3778  -34.2130 H   0  0  0  0  0  0  0  0  0  0  0  0
   -6.2830   19.3440  -32.5890 C   0  0  0  0  0  0  0  0  0  0  0  0
   -5.3799   18.8298  -32.9496 H   0  0  0  0  0  0  0  0  0  0  0  0
   -6.2500   20.6970  -32.2650 C   0  0  0  0  0  0  0  0  0  0  0  0
   -4.9520   21.7590  -32.3380 S   0  0  0  0  0  0  0  0  0  0  0  0
   -1.8950   25.0660  -27.0700 C   0  0  0  0  0  0  0  0  0  0  0  0
   -2.3347   26.0386  -27.3359 H   0  0  0  0  0  0  0  0  0  0  0  0
   -1.2800   24.8990  -25.8150 C   0  0  0  0  0  0  0  0  0  0  0  0
   -1.2290   26.0540  -24.8530 C   0  0  0  0  0  0  0  0  0  0  0  0
   -1.2458   25.6729  -23.8213 H   0  0  0  0  0  0  0  0  0  0  0  0
   -0.3047   26.6273  -25.0171 H   0  0  0  0  0  0  0  0  0  0  0  0
   -2.0992   26.7066  -25.0171 H   0  0  0  0  0  0  0  0  0  0  0  0
  1  2  1  0
  2  3  1  0
  3  4  2  0
  4  5  1  0
  4  6  1  0
  6  7  1  0
  6  8  2  0
  8  9  1  0
  9 10  1  0
 10 11  1  0
 10 12  1  0
 10 13  1  0
 13 14  2  0
 13 15  1  0
 15 16  2  0
 16 17  1  0
 17 18  1  0
 18 19  2  0
 19 20  1  0
 19 21  1  0
 21 22  1  0
 21 23  2  0
 23 24  1  0
 24 25  1  0
 25 26  1  0
 25 27  1  0
 25 28  1  0
 23 29  1  0
 29 30  1  0
 29 31  2  0
 31 32  1  0
  8 33  1  0
 33 34  1  0
 33 35  2  0
 35 36  1  0
 36 37  1  0
 36 38  1  0
 36 39  1  0
 35  3  1  0
 32 16  1  0
 31 18  1  0
M  CHG  1  17  -1
M  END
>  <UniqueID>  (35) 
33

>  <SMILES>  (35) 
COc1ccc2[n-]/c(=N\C(=O)COc3ccc(O)c(C)c3)sc2c1

>  <Energy>  (35) 
79.43527458444002

>  <Genealogy>  (35) 
COc1ccc2[n-]c(=NC(=O)COc3ccc(O)c(C)c3)sc2c1 (protonated)
COc1ccc2[n-]/c(=N\C(=O)COc3ccc(O)c(C)c3)sc2c1 (cis-trans isomerization)
COc1ccc2[n-]/c(=N\C(=O)COc3ccc(O)c(C)c3)sc2c1 (3D coordinates assigned)
COc1ccc2[n-]/c(=N\C(=O)COc3ccc(O)c(C)c3)sc2c1 (optimized conformer: 79.43527458444002 kcal/mol)

>  <smiles>  (35) 
COc1ccc2[nH]c(=NC(=O)COc3ccc(O)c(C)c3)sc2c1

>  <score_type>  (35) 
oracle

>  <origin>  (35) 
adg

>  <m_score__min__energy>  (35) 
-9.1500000000000004

>  <m_primary>  (35) 
energy

$$$$
36:0
     RDKit          3D

 44 46  0  0  0  0  0  0  0  0999 V2000
   -8.4550   19.1880  -32.6470 C   0  0  0  0  0  0  0  0  0  0  0  0
   -7.2070   20.0240  -32.5170 C   0  0  0  0  0  0  0  0  0  0  0  0
   -7.1410   21.0050  -31.5210 C   0  0  0  0  0  0  0  0  0  0  0  0
   -5.9950   21.8000  -31.3980 C   0  0  0  0  0  0  0  0  0  0  0  0
   -5.8920   22.8270  -30.3850 N   0  0  0  0  0  0  0  0  0  0  0  0
   -6.9660   23.8360  -30.2540 C   0  0  0  0  0  0  0  0  0  0  0  0
   -6.4890   25.2840  -30.4760 C   0  0  0  0  0  0  0  0  0  0  0  0
   -5.0840   25.5660  -29.9040 C   0  0  0  0  0  0  0  0  0  0  0  0
   -3.9980   25.0490  -30.7510 N   0  0  0  0  0  0  0  0  0  0  0  0
   -3.5540   23.7070  -30.3450 C   0  0  0  0  0  0  0  0  0  0  0  0
   -4.6540   22.9340  -29.5910 C   0  0  0  0  0  0  0  0  0  0  0  0
   -4.9650   21.5950  -32.2610 N   0  0  0  0  0  0  0  0  0  0  0  0
   -5.0130   20.6660  -33.2160 N   0  0  0  0  0  0  0  0  0  0  0  0
   -6.1020   19.8620  -33.3830 C   0  0  0  0  0  0  0  0  0  0  0  0
   -6.1000   18.8540  -34.5110 C   0  0  0  0  0  0  0  0  0  0  0  0
   -5.3600   17.5990  -34.1210 C   0  0  0  0  0  0  0  0  0  0  0  0
   -4.2770   17.1410  -34.8910 C   0  0  0  0  0  0  0  0  0  0  0  0
   -3.5970   15.9750  -34.5270 C   0  0  0  0  0  0  0  0  0  0  0  0
   -3.9940   15.2560  -33.3970 C   0  0  0  0  0  0  0  0  0  0  0  0
   -5.0760   15.6980  -32.6320 C   0  0  0  0  0  0  0  0  0  0  0  0
   -5.7590   16.8640  -32.9920 C   0  0  0  0  0  0  0  0  0  0  0  0
   -8.8328   18.9349  -31.6454 H   0  0  0  0  0  0  0  0  0  0  0  0
   -9.2212   19.7558  -33.1952 H   0  0  0  0  0  0  0  0  0  0  0  0
   -8.2215   18.2634  -33.1952 H   0  0  0  0  0  0  0  0  0  0  0  0
   -7.9887   21.1513  -30.8354 H   0  0  0  0  0  0  0  0  0  0  0  0
   -7.7463   23.6103  -30.9958 H   0  0  0  0  0  0  0  0  0  0  0  0
   -7.3377   23.7760  -29.2205 H   0  0  0  0  0  0  0  0  0  0  0  0
   -6.4702   25.4820  -31.5579 H   0  0  0  0  0  0  0  0  0  0  0  0
   -7.1922   25.9406  -29.9427 H   0  0  0  0  0  0  0  0  0  0  0  0
   -4.9600   26.6543  -29.8024 H   0  0  0  0  0  0  0  0  0  0  0  0
   -5.0163   25.0497  -28.9351 H   0  0  0  0  0  0  0  0  0  0  0  0
   -3.1830   25.6980  -30.6420 H   0  0  0  0  0  0  0  0  0  0  0  0
   -3.2747   23.1389  -31.2446 H   0  0  0  0  0  0  0  0  0  0  0  0
   -2.6975   23.8256  -29.6650 H   0  0  0  0  0  0  0  0  0  0  0  0
   -4.2870   21.9217  -29.3659 H   0  0  0  0  0  0  0  0  0  0  0  0
   -4.8870   23.4851  -28.6679 H   0  0  0  0  0  0  0  0  0  0  0  0
   -4.1870   20.5670  -33.8480 H   0  0  0  0  0  0  0  0  0  0  0  0
   -7.1391   18.5944  -34.7618 H   0  0  0  0  0  0  0  0  0  0  0  0
   -5.5918   19.3025  -35.3774 H   0  0  0  0  0  0  0  0  0  0  0  0
   -3.9632   17.7022  -35.7835 H   0  0  0  0  0  0  0  0  0  0  0  0
   -2.7479   15.6231  -35.1314 H   0  0  0  0  0  0  0  0  0  0  0  0
   -3.4544   14.3415  -33.1095 H   0  0  0  0  0  0  0  0  0  0  0  0
   -5.3912   15.1282  -31.7454 H   0  0  0  0  0  0  0  0  0  0  0  0
   -6.6123   17.2072  -32.3886 H   0  0  0  0  0  0  0  0  0  0  0  0
  1  2  1  0
  2  3  2  0
  3  4  1  0
  4  5  1  0
  5  6  1  0
  6  7  1  0
  7  8  1  0
  8  9  1  0
  9 10  1  0
 10 11  1  0
  4 12  2  0
 12 13  1  0
 13 14  2  0
 14 15  1  0
 15 16  1  0
 16 17  2  0
 17 18  1  0
 18 19  2  0
 19 20  1  0
 20 21  2  0
 14  2  1  0
 21 16  1  0
 11  5  1  0
  1 22  1  0
  1 23  1  0
  1 24  1  0
  3 25  1  0
  6 26  1  0
  6 27  1  0
  7 28  1  0
  7 29  1  0
  8 30  1  0
  8 31  1  0
  9 32  1  0
 10 33  1  0
 10 34  1  0
 11 35  1  0
 11 36  1  0
 13 37  1  0
 15 38  1  0
 15 39  1  0
 17 40  1  0
 18 41  1  0
 19 42  1  0
 20 43  1  0
 21 44  1  0
M  CHG  1  13   1
M  END
>  <UniqueID>  (36) 
34

>  <SMILES>  (36) 
Cc1cc(N2CCCNCC2)n[nH+]c1Cc1ccccc1

>  <Energy>  (36) 
53.879412011883716

>  <Genealogy>  (36) 
Cc1cc(N2CCCNCC2)n[nH+]c1Cc1ccccc1 (protonated)
Cc1cc(N2CCCNCC2)n[nH+]c1Cc1ccccc1 (3D coordinates assigned)
Cc1cc(N2CCCNCC2)n[nH+]c1Cc1ccccc1 (nonaromatic ring conformer: 53.879412011883716 kcal/mol)

>  <smiles>  (36) 
Cc1cc(N2CCCNCC2)nnc1Cc1ccccc1

>  <score_type>  (36) 
oracle

>  <origin>  (36) 
adg

>  <m_score__min__energy>  (36) 
-6.1799999999999997

>  <m_primary>  (36) 
energy

$$$$
37:0
     RDKit          3D

 35 35  0  0  0  0  0  0  0  0999 V2000
   -5.7610   18.8550  -34.2220 C   0  0  0  0  0  0  0  0  0  0  0  0
   -5.7590   19.1270  -32.7110 C   0  0  0  0  0  0  0  0  0  0  0  0
   -6.6820   20.2090  -32.2830 N   0  0  0  0  0  0  0  0  0  0  0  0
   -8.0880   20.0130  -32.7070 C   0  0  0  0  0  0  0  0  0  0  0  0
   -8.7700   18.8900  -31.9270 C   0  0  0  0  0  0  0  0  0  0  0  0
   -6.1850   21.5460  -32.6710 C   0  0  0  0  0  0  0  0  0  0  0  0
   -6.1750   22.4330  -31.5090 N   0  0  0  0  0  0  0  0  0  0  0  0
   -7.2970   22.7850  -30.7230 C   0  0  0  0  0  0  0  0  0  0  0  0
   -8.4270   22.2460  -30.8580 O   0  0  0  0  0  0  0  0  0  0  0  0
   -7.0080   23.8640  -29.7330 C   0  0  0  0  0  0  0  0  0  0  0  0
   -5.5110   24.2230  -29.9940 C   0  0  0  0  0  0  0  0  0  0  0  0
   -4.6510   23.9730  -28.7440 C   0  0  0  0  0  0  0  0  0  0  0  0
   -5.3630   25.6780  -30.4690 C   0  0  0  0  0  0  0  0  0  0  0  0
   -5.1150   23.2780  -31.0950 C   0  0  0  0  0  0  0  0  0  0  0  0
   -3.9680   23.2400  -31.6130 O   0  0  0  0  0  0  0  0  0  0  0  0
   -5.7690   17.7694  -34.3991 H   0  0  0  0  0  0  0  0  0  0  0  0
   -6.6558   19.3070  -34.6747 H   0  0  0  0  0  0  0  0  0  0  0  0
   -4.8596   19.2938  -34.6747 H   0  0  0  0  0  0  0  0  0  0  0  0
   -6.0507   18.2009  -32.1940 H   0  0  0  0  0  0  0  0  0  0  0  0
   -4.7428   19.4595  -32.4524 H   0  0  0  0  0  0  0  0  0  0  0  0
   -8.6426   20.9483  -32.5410 H   0  0  0  0  0  0  0  0  0  0  0  0
   -8.0862   19.7349  -33.7713 H   0  0  0  0  0  0  0  0  0  0  0  0
   -8.6588   19.0730  -30.8480 H   0  0  0  0  0  0  0  0  0  0  0  0
   -9.8387   18.8605  -32.1857 H   0  0  0  0  0  0  0  0  0  0  0  0
   -8.3034   17.9280  -32.1857 H   0  0  0  0  0  0  0  0  0  0  0  0
   -5.1631   21.4537  -33.0675 H   0  0  0  0  0  0  0  0  0  0  0  0
   -6.8476   21.9677  -33.4411 H   0  0  0  0  0  0  0  0  0  0  0  0
   -7.6553   24.7365  -29.9051 H   0  0  0  0  0  0  0  0  0  0  0  0
   -7.1937   23.5484  -28.6957 H   0  0  0  0  0  0  0  0  0  0  0  0
   -5.2555   24.1487  -27.8419 H   0  0  0  0  0  0  0  0  0  0  0  0
   -4.2919   22.9333  -28.7479 H   0  0  0  0  0  0  0  0  0  0  0  0
   -3.7905   24.6582  -28.7479 H   0  0  0  0  0  0  0  0  0  0  0  0
   -5.2953   26.3437  -29.5959 H   0  0  0  0  0  0  0  0  0  0  0  0
   -4.4504   25.7747  -31.0754 H   0  0  0  0  0  0  0  0  0  0  0  0
   -6.2375   25.9565  -31.0754 H   0  0  0  0  0  0  0  0  0  0  0  0
  1  2  1  0
  2  3  1  0
  3  4  1  0
  4  5  1  0
  3  6  1  0
  6  7  1  0
  7  8  1  0
  8  9  2  0
  8 10  1  0
 10 11  1  0
 11 12  1  0
 11 13  1  0
 11 14  1  0
 14 15  2  0
 14  7  1  0
  1 16  1  0
  1 17  1  0
  1 18  1  0
  2 19  1  0
  2 20  1  0
  4 21  1  0
  4 22  1  0
  5 23  1  0
  5 24  1  0
  5 25  1  0
  6 26  1  0
  6 27  1  0
 10 28  1  0
 10 29  1  0
 12 30  1  0
 12 31  1  0
 12 32  1  0
 13 33  1  0
 13 34  1  0
 13 35  1  0
M  END
>  <UniqueID>  (37) 
35

>  <SMILES>  (37) 
CCN(CC)CN1C(=O)CC(C)(C)C1=O

>  <Energy>  (37) 
40.8679180754024

>  <Genealogy>  (37) 
CCN(CC)CN1C(=O)CC(C)(C)C1=O (3D coordinates assigned)
CCN(CC)CN1C(=O)CC(C)(C)C1=O (nonaromatic ring conformer: 40.8679180754024 kcal/mol)

>  <smiles>  (37) 
CCN(CC)CN1C(=O)CC(C)(C)C1=O

>  <score_type>  (37) 
oracle

>  <origin>  (37) 
adg

>  <m_score__min__energy>  (37) 
-5.5199999999999996

>  <m_primary>  (37) 
energy

$$$$
38:0
     RDKit          3D

 50 52  0  0  0  0  0  0  0  0999 V2000
   -6.1870   25.3230  -29.4870 C   0  0  0  0  0  0  0  0  0  0  0  0
   -5.2970   24.0910  -29.3580 C   0  0  0  0  0  0  0  0  0  0  0  0
   -4.0440   24.2600  -30.1690 C   0  0  0  0  0  0  0  0  0  0  0  0
   -3.8810   25.3150  -30.8380 O   0  0  0  0  0  0  0  0  0  0  0  0
   -3.0540   23.1700  -30.2840 C   0  0  0  0  0  0  0  0  0  0  0  0
   -2.0510   23.0770  -29.3050 C   0  0  0  0  0  0  0  0  0  0  0  0
   -1.0410   22.1060  -29.4000 C   0  0  0  0  0  0  0  0  0  0  0  0
    0.0300   21.9960  -28.3310 C   0  0  0  0  0  0  0  0  0  0  0  0
   -0.1230   20.8200  -27.4450 N   0  0  0  0  0  0  0  0  0  0  0  0
    0.0270   19.5250  -28.1410 C   0  0  0  0  0  0  0  0  0  0  0  0
   -0.4960   18.3810  -27.2580 C   0  0  0  0  0  0  0  0  0  0  0  0
   -1.8730   18.4980  -26.9190 O   0  0  0  0  0  0  0  0  0  0  0  0
   -2.3570   19.8360  -26.9280 C   0  0  0  0  0  0  0  0  0  0  0  0
   -1.2930   20.8750  -26.5390 C   0  0  0  0  0  0  0  0  0  0  0  0
   -1.0090   21.2630  -30.5200 C   0  0  0  0  0  0  0  0  0  0  0  0
   -2.0100   21.3360  -31.4890 C   0  0  0  0  0  0  0  0  0  0  0  0
   -3.0600   22.2490  -31.3610 C   0  0  0  0  0  0  0  0  0  0  0  0
   -4.0860   22.2060  -32.3190 O   0  0  0  0  0  0  0  0  0  0  0  0
   -5.2040   21.3590  -32.2730 C   0  0  0  0  0  0  0  0  0  0  0  0
   -4.9930   20.0190  -32.1520 N   0  0  0  0  0  0  0  0  0  0  0  0
   -6.0170   19.1240  -32.1340 C   0  0  0  0  0  0  0  0  0  0  0  0
   -7.3470   19.5640  -32.1970 C   0  0  0  0  0  0  0  0  0  0  0  0
   -8.4850   18.5760  -32.2310 C   0  0  0  0  0  0  0  0  0  0  0  0
   -9.4810   19.0080  -33.0910 F   0  0  0  0  0  0  0  0  0  0  0  0
   -8.0120   17.3530  -32.6700 F   0  0  0  0  0  0  0  0  0  0  0  0
   -9.0370   18.4200  -30.9720 F   0  0  0  0  0  0  0  0  0  0  0  0
   -7.5890   20.9400  -32.3090 C   0  0  0  0  0  0  0  0  0  0  0  0
   -6.5270   21.8480  -32.3280 C   0  0  0  0  0  0  0  0  0  0  0  0
   -6.9040   23.5680  -32.3400 Cl  0  0  0  0  0  0  0  0  0  0  0  0
   -6.4523   25.6903  -28.4846 H   0  0  0  0  0  0  0  0  0  0  0  0
   -5.6472   26.1096  -30.0347 H   0  0  0  0  0  0  0  0  0  0  0  0
   -7.1033   25.0577  -30.0347 H   0  0  0  0  0  0  0  0  0  0  0  0
   -5.0276   23.9481  -28.3011 H   0  0  0  0  0  0  0  0  0  0  0  0
   -5.8467   23.2143  -29.7311 H   0  0  0  0  0  0  0  0  0  0  0  0
   -2.0568   23.7733  -28.4535 H   0  0  0  0  0  0  0  0  0  0  0  0
    1.0092   21.9299  -28.8278 H   0  0  0  0  0  0  0  0  0  0  0  0
   -0.0624   22.8884  -27.6946 H   0  0  0  0  0  0  0  0  0  0  0  0
   -0.5454   19.5493  -29.0800 H   0  0  0  0  0  0  0  0  0  0  0  0
    1.0927   19.3544  -28.3535 H   0  0  0  0  0  0  0  0  0  0  0  0
   -0.3513   17.4332  -27.7973 H   0  0  0  0  0  0  0  0  0  0  0  0
    0.0695   18.4209  -26.3154 H   0  0  0  0  0  0  0  0  0  0  0  0
   -2.7176   20.0691  -27.9407 H   0  0  0  0  0  0  0  0  0  0  0  0
   -3.1579   19.8957  -26.1763 H   0  0  0  0  0  0  0  0  0  0  0  0
   -1.7385   21.8794  -26.5913 H   0  0  0  0  0  0  0  0  0  0  0  0
   -0.9495   20.6512  -25.5182 H   0  0  0  0  0  0  0  0  0  0  0  0
   -0.1889   20.5390  -30.6354 H   0  0  0  0  0  0  0  0  0  0  0  0
   -1.9723   20.6683  -32.3623 H   0  0  0  0  0  0  0  0  0  0  0  0
   -4.0130   19.6600  -32.1020 H   0  0  0  0  0  0  0  0  0  0  0  0
   -5.8004   18.0475  -32.0696 H   0  0  0  0  0  0  0  0  0  0  0  0
   -8.6230   21.3080  -32.3825 H   0  0  0  0  0  0  0  0  0  0  0  0
  1  2  1  0
  2  3  1  0
  3  4  2  0
  3  5  1  0
  5  6  2  0
  6  7  1  0
  7  8  1  0
  8  9  1  0
  9 10  1  0
 10 11  1  0
 11 12  1  0
 12 13  1  0
 13 14  1  0
  7 15  2  0
 15 16  1  0
 16 17  2  0
 17 18  1  0
 18 19  1  0
 19 20  2  0
 20 21  1  0
 21 22  2  0
 22 23  1  0
 23 24  1  0
 23 25  1  0
 23 26  1  0
 22 27  1  0
 27 28  2  0
 28 29  1  0
 17  5  1  0
 28 19  1  0
 14  9  1  0
  1 30  1  0
  1 31  1  0
  1 32  1  0
  2 33  1  0
  2 34  1  0
  6 35  1  0
  8 36  1  0
  8 37  1  0
 10 38  1  0
 10 39  1  0
 11 40  1  0
 11 41  1  0
 13 42  1  0
 13 43  1  0
 14 44  1  0
 14 45  1  0
 15 46  1  0
 16 47  1  0
 20 48  1  0
 21 49  1  0
 27 50  1  0
M  CHG  1  20   1
M  END
>  <UniqueID>  (38) 
36

>  <SMILES>  (38) 
CCC(=O)c1cc(CN2CCOCC2)ccc1Oc1[nH+]cc(C(F)(F)F)cc1Cl

>  <Energy>  (38) 
79.38178780770579

>  <Genealogy>  (38) 
CCC(=O)c1cc(CN2CCOCC2)ccc1Oc1[nH+]cc(C(F)(F)F)cc1Cl (protonated)
CCC(=O)c1cc(CN2CCOCC2)ccc1Oc1[nH+]cc(C(F)(F)F)cc1Cl (3D coordinates assigned)
CCC(=O)c1cc(CN2CCOCC2)ccc1Oc1[nH+]cc(C(F)(F)F)cc1Cl (nonaromatic ring conformer: 79.38178780770579 kcal/mol)

>  <smiles>  (38) 
CCC(=O)c1cc(CN2CCOCC2)ccc1Oc1ncc(C(F)(F)F)cc1Cl

>  <score_type>  (38) 
oracle

>  <origin>  (38) 
adg

>  <m_score__min__energy>  (38) 
-8.1099999999999994

>  <m_primary>  (38) 
energy

$$$$
39:0
     RDKit          3D

 60 62  0  0  0  0  0  0  0  0999 V2000
   -1.0810   27.9300  -34.3370 C   0  0  0  0  0  0  0  0  0  0  0  0
   -0.2560   28.1020  -35.6080 C   0  0  0  0  0  0  0  0  0  0  0  0
    0.1400   26.7820  -36.1450 N   0  0  0  0  0  0  0  0  0  0  0  0
   -0.5530   26.4740  -37.4190 C   0  0  0  0  0  0  0  0  0  0  0  0
   -1.6660   27.4790  -37.7130 C   0  0  0  0  0  0  0  0  0  0  0  0
    1.6130   26.6070  -36.1950 C   0  0  0  0  0  0  0  0  0  0  0  0
    2.1210   25.7670  -37.3880 C   0  0  0  0  0  0  0  0  0  0  0  0
    2.6630   24.5170  -36.9590 O   0  0  0  0  0  0  0  0  0  0  0  0
    1.9320   23.4580  -36.3960 C   0  0  0  0  0  0  0  0  0  0  0  0
    0.5670   23.5610  -36.0720 C   0  0  0  0  0  0  0  0  0  0  0  0
   -0.1130   22.4710  -35.5200 C   0  0  0  0  0  0  0  0  0  0  0  0
    0.5550   21.2530  -35.2870 C   0  0  0  0  0  0  0  0  0  0  0  0
   -0.1460   20.0820  -34.6980 C   0  0  0  0  0  0  0  0  0  0  0  0
    0.5030   18.8570  -34.4700 C   0  0  0  0  0  0  0  0  0  0  0  0
   -0.1870   17.8240  -33.9180 N   0  0  0  0  0  0  0  0  0  0  0  0
   -1.4960   17.9480  -33.5770 C   0  0  0  0  0  0  0  0  0  0  0  0
   -2.1590   19.1670  -33.7970 C   0  0  0  0  0  0  0  0  0  0  0  0
   -3.5830   19.3710  -33.4270 C   0  0  0  0  0  0  0  0  0  0  0  0
   -4.5650   18.4140  -33.7320 C   0  0  0  0  0  0  0  0  0  0  0  0
   -5.9010   18.6260  -33.3790 C   0  0  0  0  0  0  0  0  0  0  0  0
   -6.2960   19.8040  -32.7140 C   0  0  0  0  0  0  0  0  0  0  0  0
   -7.6820   20.0230  -32.3420 N   0  0  0  0  0  0  0  0  0  0  0  0
   -8.6440   18.9140  -32.3510 C   0  0  0  0  0  0  0  0  0  0  0  0
   -8.1490   21.3610  -31.9540 C   0  0  0  0  0  0  0  0  0  0  0  0
   -5.3070   20.7680  -32.4250 C   0  0  0  0  0  0  0  0  0  0  0  0
   -3.9720   20.5540  -32.7800 C   0  0  0  0  0  0  0  0  0  0  0  0
   -1.4550   20.1960  -34.3440 N   0  0  0  0  0  0  0  0  0  0  0  0
    1.9230   21.1640  -35.5990 C   0  0  0  0  0  0  0  0  0  0  0  0
    2.6010   22.2550  -36.1480 C   0  0  0  0  0  0  0  0  0  0  0  0
   -0.4332   28.0651  -33.4583 H   0  0  0  0  0  0  0  0  0  0  0  0
   -1.8857   28.6797  -34.3180 H   0  0  0  0  0  0  0  0  0  0  0  0
   -1.5191   26.9212  -34.3180 H   0  0  0  0  0  0  0  0  0  0  0  0
   -0.8556   28.6350  -36.3606 H   0  0  0  0  0  0  0  0  0  0  0  0
    0.6503   28.6787  -35.3712 H   0  0  0  0  0  0  0  0  0  0  0  0
    0.1793   26.5026  -38.2393 H   0  0  0  0  0  0  0  0  0  0  0  0
   -1.0063   25.4757  -37.3307 H   0  0  0  0  0  0  0  0  0  0  0  0
   -2.0811   27.8539  -36.7658 H   0  0  0  0  0  0  0  0  0  0  0  0
   -1.2571   28.3199  -38.2924 H   0  0  0  0  0  0  0  0  0  0  0  0
   -2.4609   26.9867  -38.2924 H   0  0  0  0  0  0  0  0  0  0  0  0
    2.0750   27.6034  -36.2556 H   0  0  0  0  0  0  0  0  0  0  0  0
    1.8925   26.0563  -35.2847 H   0  0  0  0  0  0  0  0  0  0  0  0
    1.2817   25.5758  -38.0728 H   0  0  0  0  0  0  0  0  0  0  0  0
    2.9186   26.3327  -37.8918 H   0  0  0  0  0  0  0  0  0  0  0  0
    0.0315   24.5045  -36.2539 H   0  0  0  0  0  0  0  0  0  0  0  0
   -1.1790   22.5655  -35.2655 H   0  0  0  0  0  0  0  0  0  0  0  0
    1.5632   18.7345  -34.7366 H   0  0  0  0  0  0  0  0  0  0  0  0
    0.3050   16.9200  -33.7390 H   0  0  0  0  0  0  0  0  0  0  0  0
   -2.0341   17.0986  -33.1310 H   0  0  0  0  0  0  0  0  0  0  0  0
   -4.2799   17.4885  -34.2538 H   0  0  0  0  0  0  0  0  0  0  0  0
   -6.6543   17.8627  -33.6237 H   0  0  0  0  0  0  0  0  0  0  0  0
   -8.8884   18.6322  -31.3162 H   0  0  0  0  0  0  0  0  0  0  0  0
   -9.5606   19.2280  -32.8718 H   0  0  0  0  0  0  0  0  0  0  0  0
   -8.2037   18.0509  -32.8718 H   0  0  0  0  0  0  0  0  0  0  0  0
   -8.1753   21.4363  -30.8569 H   0  0  0  0  0  0  0  0  0  0  0  0
   -7.4627   22.1202  -32.3573 H   0  0  0  0  0  0  0  0  0  0  0  0
   -9.1586   21.5282  -32.3573 H   0  0  0  0  0  0  0  0  0  0  0  0
   -5.5902   21.6999  -31.9138 H   0  0  0  0  0  0  0  0  0  0  0  0
   -3.2182   21.3213  -32.5497 H   0  0  0  0  0  0  0  0  0  0  0  0
    2.4649   20.2258  -35.4089 H   0  0  0  0  0  0  0  0  0  0  0  0
    3.6710   22.1672  -36.3875 H   0  0  0  0  0  0  0  0  0  0  0  0
  1  2  1  0
  2  3  1  0
  3  4  1  0
  4  5  1  0
  3  6  1  0
  6  7  1  0
  7  8  1  0
  8  9  1  0
  9 10  2  0
 10 11  1  0
 11 12  2  0
 12 13  1  0
 13 14  2  0
 14 15  1  0
 15 16  2  0
 16 17  1  0
 17 18  1  0
 18 19  2  0
 19 20  1  0
 20 21  2  0
 21 22  1  0
 22 23  1  0
 22 24  1  0
 21 25  1  0
 25 26  2  0
 17 27  2  0
 12 28  1  0
 28 29  2  0
 29  9  1  0
 27 13  1  0
 26 18  1  0
  1 30  1  0
  1 31  1  0
  1 32  1  0
  2 33  1  0
  2 34  1  0
  4 35  1  0
  4 36  1  0
  5 37  1  0
  5 38  1  0
  5 39  1  0
  6 40  1  0
  6 41  1  0
  7 42  1  0
  7 43  1  0
 10 44  1  0
 11 45  1  0
 14 46  1  0
 15 47  1  0
 16 48  1  0
 19 49  1  0
 20 50  1  0
 23 51  1  0
 23 52  1  0
 23 53  1  0
 24 54  1  0
 24 55  1  0
 24 56  1  0
 25 57  1  0
 26 58  1  0
 28 59  1  0
 29 60  1  0
M  CHG  1  15   1
M  END
>  <UniqueID>  (39) 
37

>  <SMILES>  (39) 
CCN(CC)CCOc1ccc(-c2c[nH+]cc(-c3ccc(N(C)C)cc3)n2)cc1

>  <Energy>  (39) 
72.4223959539455

>  <Genealogy>  (39) 
CCN(CC)CCOc1ccc(-c2c[nH+]cc(-c3ccc(N(C)C)cc3)n2)cc1 (protonated)
CCN(CC)CCOc1ccc(-c2c[nH+]cc(-c3ccc(N(C)C)cc3)n2)cc1 (3D coordinates assigned)
CCN(CC)CCOc1ccc(-c2c[nH+]cc(-c3ccc(N(C)C)cc3)n2)cc1 (optimized conformer: 72.4223959539455 kcal/mol)

>  <smiles>  (39) 
CCN(CC)CCOc1ccc(-c2cncc(-c3ccc(N(C)C)cc3)n2)cc1

>  <score_type>  (39) 
oracle

>  <origin>  (39) 
adg

>  <m_score__min__energy>  (39) 
-7.8399999999999999

>  <m_primary>  (39) 
energy

$$$$
40:0
     RDKit          3D

 11 10  0  0  0  0  0  0  0  0999 V2000
   -3.9920   24.1710  -27.4970 C   0  0  0  0  0  0  0  0  0  0  0  0
   -4.1960   23.7040  -28.7290 C   0  0  0  0  0  0  0  0  0  0  0  0
   -4.6660   24.5620  -29.8330 C   0  0  0  0  0  0  0  0  0  0  0  0
   -3.8550   25.2940  -30.4650 O   0  0  0  0  0  0  0  0  0  0  0  0
   -6.1170   24.5660  -30.2070 C   0  0  0  0  0  0  0  0  0  0  0  0
   -6.7220   23.4160  -29.7310 F   0  0  0  0  0  0  0  0  0  0  0  0
   -6.2420   24.6090  -31.5830 F   0  0  0  0  0  0  0  0  0  0  0  0
   -6.7570   25.6660  -29.6630 F   0  0  0  0  0  0  0  0  0  0  0  0
   -3.6408   23.4948  -26.7036 H   0  0  0  0  0  0  0  0  0  0  0  0
   -4.1749   25.2325  -27.2739 H   0  0  0  0  0  0  0  0  0  0  0  0
   -4.0068   22.6391  -28.9297 H   0  0  0  0  0  0  0  0  0  0  0  0
  1  2  2  0
  2  3  1  0
  3  4  2  0
  3  5  1  0
  5  6  1  0
  5  7  1  0
  5  8  1  0
  1  9  1  0
  1 10  1  0
  2 11  1  0
M  END
>  <UniqueID>  (40) 
38

>  <SMILES>  (40) 
C=CC(=O)C(F)(F)F

>  <Energy>  (40) 
4.29537913153471

>  <Genealogy>  (40) 
C=CC(=O)C(F)(F)F (3D coordinates assigned)
C=CC(=O)C(F)(F)F (optimized conformer: 4.29537913153471 kcal/mol)

>  <smiles>  (40) 
C=CC(=O)C(F)(F)F

>  <score_type>  (40) 
oracle

>  <origin>  (40) 
adg

>  <m_score__min__energy>  (40) 
-3.0899999999999999

>  <m_primary>  (40) 
energy

$$$$
41:0
     RDKit          3D

 50 52  0  0  0  0  0  0  0  0999 V2000
   -3.2190   23.3300  -30.2480 C   0  0  0  0  0  0  0  0  0  0  0  0
   -3.8640   22.9960  -31.5290 N   0  0  0  0  0  0  0  0  0  0  0  0
   -3.1340   21.9050  -32.2010 C   0  0  0  0  0  0  0  0  0  0  0  0
   -5.3270   22.7730  -31.3670 C   0  0  0  0  0  0  0  0  0  0  0  0
   -6.2030   23.3970  -32.4850 C   0  0  0  0  0  0  0  0  0  0  0  0
   -7.6910   23.5090  -32.0830 C   0  0  0  0  0  0  0  0  0  0  0  0
   -8.0190   22.6120  -30.9640 N   0  0  0  0  0  0  0  0  0  0  0  0
   -9.1410   21.7130  -31.0250 C   0  0  0  0  0  0  0  0  0  0  0  0
   -9.8700   21.5580  -30.0080 O   0  0  0  0  0  0  0  0  0  0  0  0
   -9.4280   20.9000  -32.2580 C   0  0  0  0  0  0  0  0  0  0  0  0
   -8.3170   19.9150  -32.5200 C   0  0  0  0  0  0  0  0  0  0  0  0
   -8.4050   18.5970  -32.0490 C   0  0  0  0  0  0  0  0  0  0  0  0
   -7.4030   17.6700  -32.3500 C   0  0  0  0  0  0  0  0  0  0  0  0
   -6.2860   18.0480  -33.1180 C   0  0  0  0  0  0  0  0  0  0  0  0
   -5.2310   17.0580  -33.4550 C   0  0  0  0  0  0  0  0  0  0  0  0
   -4.4620   17.1990  -34.6260 C   0  0  0  0  0  0  0  0  0  0  0  0
   -3.4760   16.2610  -34.9450 C   0  0  0  0  0  0  0  0  0  0  0  0
   -3.2420   15.1750  -34.1000 C   0  0  0  0  0  0  0  0  0  0  0  0
   -3.9950   15.0240  -32.9330 C   0  0  0  0  0  0  0  0  0  0  0  0
   -4.9840   15.9570  -32.6100 C   0  0  0  0  0  0  0  0  0  0  0  0
   -6.1900   19.3770  -33.5670 C   0  0  0  0  0  0  0  0  0  0  0  0
   -7.1930   20.3010  -33.2680 C   0  0  0  0  0  0  0  0  0  0  0  0
   -7.2340   22.6840  -29.7210 C   0  0  0  0  0  0  0  0  0  0  0  0
   -5.8200   23.2300  -29.9810 C   0  0  0  0  0  0  0  0  0  0  0  0
   -3.8595   22.9983  -29.4175 H   0  0  0  0  0  0  0  0  0  0  0  0
   -2.2448   22.8230  -30.1848 H   0  0  0  0  0  0  0  0  0  0  0  0
   -3.0708   24.4181  -30.1848 H   0  0  0  0  0  0  0  0  0  0  0  0
   -2.6897   21.2410  -31.4449 H   0  0  0  0  0  0  0  0  0  0  0  0
   -3.8304   21.3307  -32.8297 H   0  0  0  0  0  0  0  0  0  0  0  0
   -2.3374   22.3296  -32.8297 H   0  0  0  0  0  0  0  0  0  0  0  0
   -5.4528   21.6839  -31.4572 H   0  0  0  0  0  0  0  0  0  0  0  0
   -5.8222   24.4042  -32.7097 H   0  0  0  0  0  0  0  0  0  0  0  0
   -6.1442   22.7354  -33.3618 H   0  0  0  0  0  0  0  0  0  0  0  0
   -7.9026   24.5459  -31.7830 H   0  0  0  0  0  0  0  0  0  0  0  0
   -8.3040   23.2174  -32.9486 H   0  0  0  0  0  0  0  0  0  0  0  0
  -10.3708   20.3512  -32.1168 H   0  0  0  0  0  0  0  0  0  0  0  0
   -9.5065   21.5804  -33.1188 H   0  0  0  0  0  0  0  0  0  0  0  0
   -9.2677   18.2909  -31.4390 H   0  0  0  0  0  0  0  0  0  0  0  0
   -7.4883   16.6364  -31.9835 H   0  0  0  0  0  0  0  0  0  0  0  0
   -4.6386   18.0541  -35.2951 H   0  0  0  0  0  0  0  0  0  0  0  0
   -2.8832   16.3790  -35.8640 H   0  0  0  0  0  0  0  0  0  0  0  0
   -2.4651   14.4384  -34.3528 H   0  0  0  0  0  0  0  0  0  0  0  0
   -3.8090   14.1687  -32.2668 H   0  0  0  0  0  0  0  0  0  0  0  0
   -5.5738   15.8314  -31.6900 H   0  0  0  0  0  0  0  0  0  0  0  0
   -5.3175   19.6912  -34.1587 H   0  0  0  0  0  0  0  0  0  0  0  0
   -7.1021   21.3389  -33.6209 H   0  0  0  0  0  0  0  0  0  0  0  0
   -7.7488   23.3475  -29.0106 H   0  0  0  0  0  0  0  0  0  0  0  0
   -7.1425   21.6678  -29.3101 H   0  0  0  0  0  0  0  0  0  0  0  0
   -5.8415   24.3292  -29.9459 H   0  0  0  0  0  0  0  0  0  0  0  0
   -5.1365   22.8462  -29.2093 H   0  0  0  0  0  0  0  0  0  0  0  0
  1  2  1  0
  2  3  1  0
  2  4  1  0
  4  5  1  0
  5  6  1  0
  6  7  1  0
  7  8  1  0
  8  9  2  0
  8 10  1  0
 10 11  1  0
 11 12  2  0
 12 13  1  0
 13 14  2  0
 14 15  1  0
 15 16  2  0
 16 17  1  0
 17 18  2  0
 18 19  1  0
 19 20  2  0
 14 21  1  0
 21 22  2  0
  7 23  1  0
 23 24  1  0
 24  4  1  0
 22 11  1  0
 20 15  1  0
  1 25  1  0
  1 26  1  0
  1 27  1  0
  3 28  1  0
  3 29  1  0
  3 30  1  0
  4 31  1  0
  5 32  1  0
  5 33  1  0
  6 34  1  0
  6 35  1  0
 10 36  1  0
 10 37  1  0
 12 38  1  0
 13 39  1  0
 16 40  1  0
 17 41  1  0
 18 42  1  0
 19 43  1  0
 20 44  1  0
 21 45  1  0
 22 46  1  0
 23 47  1  0
 23 48  1  0
 24 49  1  0
 24 50  1  0
M  END
>  <UniqueID>  (41) 
39

>  <SMILES>  (41) 
CN(C)C1CCN(C(=O)Cc2ccc(-c3ccccc3)cc2)CC1

>  <Energy>  (41) 
62.04598136070087

>  <Genealogy>  (41) 
CN(C)C1CCN(C(=O)Cc2ccc(-c3ccccc3)cc2)CC1 (3D coordinates assigned)
CN(C)C1CCN(C(=O)Cc2ccc(-c3ccccc3)cc2)CC1 (nonaromatic ring conformer: 62.04598136070087 kcal/mol)

>  <smiles>  (41) 
CN(C)C1CCN(C(=O)Cc2ccc(-c3ccccc3)cc2)CC1

>  <score_type>  (41) 
oracle

>  <origin>  (41) 
adg

>  <m_score__min__energy>  (41) 
-9.1199999999999992

>  <m_primary>  (41) 
energy

$$$$
42:0
     RDKit          3D

 46 48  0  0  0  0  0  0  0  0999 V2000
   -2.0380   25.6750  -29.7870 H   0  0  0  0  0  0  0  0  0  0  0  0
   -1.5830   26.0680  -28.9710 O   0  0  0  0  0  0  0  0  0  0  0  0
   -1.2580   25.2850  -27.8640 C   0  0  0  0  0  0  0  0  0  0  0  0
   -0.9350   25.9110  -26.6500 C   0  0  0  0  0  0  0  0  0  0  0  0
   -0.9404   27.0090  -26.5838 H   0  0  0  0  0  0  0  0  0  0  0  0
   -0.6070   25.1510  -25.5260 C   0  0  0  0  0  0  0  0  0  0  0  0
   -0.3548   25.6503  -24.5789 H   0  0  0  0  0  0  0  0  0  0  0  0
   -0.5990   23.7570  -25.6040 C   0  0  0  0  0  0  0  0  0  0  0  0
   -0.1500   22.7180  -24.0650 Br  0  0  0  0  0  0  0  0  0  0  0  0
   -0.9180   23.1210  -26.8080 C   0  0  0  0  0  0  0  0  0  0  0  0
   -0.9099   22.0224  -26.8623 H   0  0  0  0  0  0  0  0  0  0  0  0
   -1.2490   23.8720  -27.9500 C   0  0  0  0  0  0  0  0  0  0  0  0
   -1.5810   23.1410  -29.1950 C   0  0  0  0  0  0  0  0  0  0  0  0
   -1.3622   22.0648  -29.2583 H   0  0  0  0  0  0  0  0  0  0  0  0
   -2.1230   23.7360  -30.2130 N   0  0  0  0  0  0  0  0  0  0  0  0
   -3.5380   23.9090  -30.3630 C   0  0  0  0  0  0  0  0  0  0  0  0
   -4.1210   24.9800  -29.7610 N   0  0  0  0  0  0  0  0  0  0  0  0
   -5.4510   25.2260  -29.8800 C   0  0  0  0  0  0  0  0  0  0  0  0
   -5.8926   26.1037  -29.3853 H   0  0  0  0  0  0  0  0  0  0  0  0
   -6.2360   24.3940  -30.6060 N   0  0  0  0  0  0  0  0  0  0  0  0
   -5.7200   23.2940  -31.2120 C   0  0  0  0  0  0  0  0  0  0  0  0
   -6.5590   22.4400  -31.9340 C   0  0  0  0  0  0  0  0  0  0  0  0
   -7.6264   22.6857  -32.0359 H   0  0  0  0  0  0  0  0  0  0  0  0
   -6.0570   21.2740  -32.5300 C   0  0  0  0  0  0  0  0  0  0  0  0
   -6.9550   20.4210  -33.2680 N   0  0  0  0  0  0  0  0  0  0  0  0
   -6.7130   20.1820  -34.2560 H   0  0  0  0  0  0  0  0  0  0  0  0
   -8.1840   19.8400  -32.7250 C   0  0  0  0  0  0  0  0  0  0  0  0
   -9.0220   20.0704  -33.3993 H   0  0  0  0  0  0  0  0  0  0  0  0
   -8.3700   20.2681  -31.7289 H   0  0  0  0  0  0  0  0  0  0  0  0
   -8.0460   18.3180  -32.5930 C   0  0  0  0  0  0  0  0  0  0  0  0
   -8.8306   17.8305  -33.1903 H   0  0  0  0  0  0  0  0  0  0  0  0
   -8.1491   18.0427  -31.5330 H   0  0  0  0  0  0  0  0  0  0  0  0
   -6.7210   17.8730  -33.0750 N   0  0  0  0  0  0  0  0  0  0  0  0
   -5.8060   17.6200  -31.9460 C   0  0  0  0  0  0  0  0  0  0  0  0
   -6.3436   17.7687  -30.9979 H   0  0  0  0  0  0  0  0  0  0  0  0
   -5.4354   16.5857  -31.9991 H   0  0  0  0  0  0  0  0  0  0  0  0
   -4.9567   18.3170  -31.9991 H   0  0  0  0  0  0  0  0  0  0  0  0
   -6.8550   16.6440  -33.8750 C   0  0  0  0  0  0  0  0  0  0  0  0
   -6.9494   15.7779  -33.2035 H   0  0  0  0  0  0  0  0  0  0  0  0
   -7.7507   16.7154  -34.5095 H   0  0  0  0  0  0  0  0  0  0  0  0
   -5.9650   16.5207  -34.5095 H   0  0  0  0  0  0  0  0  0  0  0  0
   -4.6890   20.9730  -32.3890 C   0  0  0  0  0  0  0  0  0  0  0  0
   -4.2821   20.0603  -32.8487 H   0  0  0  0  0  0  0  0  0  0  0  0
   -3.8430   21.8220  -31.6710 C   0  0  0  0  0  0  0  0  0  0  0  0
   -2.7798   21.5645  -31.5561 H   0  0  0  0  0  0  0  0  0  0  0  0
   -4.3420   23.0040  -31.0940 C   0  0  0  0  0  0  0  0  0  0  0  0
  1  2  1  0
  2  3  1  0
  3  4  2  0
  4  5  1  0
  4  6  1  0
  6  7  1  0
  6  8  2  0
  8  9  1  0
  8 10  1  0
 10 11  1  0
 10 12  2  0
 12 13  1  0
 13 14  1  0
 13 15  2  0
 15 16  1  0
 16 17  2  0
 17 18  1  0
 18 19  1  0
 18 20  2  0
 20 21  1  0
 21 22  2  0
 22 23  1  0
 22 24  1  0
 24 25  1  0
 25 26  1  0
 25 27  1  0
 27 28  1  0
 27 29  1  0
 27 30  1  0
 30 31  1  0
 30 32  1  0
 30 33  1  0
 33 34  1  0
 34 35  1  0
 34 36  1  0
 34 37  1  0
 33 38  1  0
 38 39  1  0
 38 40  1  0
 38 41  1  0
 24 42  2  0
 42 43  1  0
 42 44  1  0
 44 45  1  0
 44 46  2  0
 12  3  1  0
 46 16  1  0
 46 21  1  0
M  END
>  <UniqueID>  (42) 
40

>  <SMILES>  (42) 
CN(C)CCNc1ccc2c(/N=C/c3cc(Br)ccc3O)ncnc2c1

>  <Energy>  (42) 
59.34669552112229

>  <Genealogy>  (42) 
CN(C)CCNc1ccc2c(/N=C/c3cc(Br)ccc3O)ncnc2c1 (cis-trans isomerization)
CN(C)CCNc1ccc2c(/N=C/c3cc(Br)ccc3O)ncnc2c1 (3D coordinates assigned)
CN(C)CCNc1ccc2c(/N=C/c3cc(Br)ccc3O)ncnc2c1 (optimized conformer: 59.34669552112229 kcal/mol)

>  <smiles>  (42) 
CN(C)CCNc1ccc2c(N=Cc3cc(Br)ccc3O)ncnc2c1

>  <score_type>  (42) 
oracle

>  <origin>  (42) 
adg

>  <m_score__min__energy>  (42) 
-9.4499999999999993

>  <m_primary>  (42) 
energy

$$$$
43:0
     RDKit          3D

 33 34  0  0  0  0  0  0  0  0999 V2000
   -9.1420   22.9170  -31.9870 C   0  0  0  0  0  0  0  0  0  0  0  0
   -8.5870   21.7940  -31.3080 O   0  0  0  0  0  0  0  0  0  0  0  0
   -8.0300   20.6710  -31.9430 C   0  0  0  0  0  0  0  0  0  0  0  0
   -8.6640   19.4150  -31.9070 C   0  0  0  0  0  0  0  0  0  0  0  0
   -8.0890   18.3110  -32.5350 C   0  0  0  0  0  0  0  0  0  0  0  0
   -6.8700   18.4300  -33.2200 C   0  0  0  0  0  0  0  0  0  0  0  0
   -6.2680   17.2370  -33.8770 C   0  0  0  0  0  0  0  0  0  0  0  0
   -4.9480   17.3030  -34.5860 C   0  0  0  0  0  0  0  0  0  0  0  0
   -6.8770   16.1330  -33.8500 O   0  0  0  0  0  0  0  0  0  0  0  0
   -6.2400   19.6870  -33.2640 C   0  0  0  0  0  0  0  0  0  0  0  0
   -6.8040   20.8100  -32.6260 C   0  0  0  0  0  0  0  0  0  0  0  0
   -6.1480   22.0970  -32.6590 N   0  0  0  0  0  0  0  0  0  0  0  0
   -5.0790   22.5070  -31.7460 C   0  0  0  0  0  0  0  0  0  0  0  0
   -5.4420   23.7830  -31.0510 C   0  0  0  0  0  0  0  0  0  0  0  0
   -6.4810   23.9480  -30.1570 C   0  0  0  0  0  0  0  0  0  0  0  0
   -6.4300   25.2700  -29.7710 C   0  0  0  0  0  0  0  0  0  0  0  0
   -5.3670   25.8270  -30.4550 C   0  0  0  0  0  0  0  0  0  0  0  0
   -4.8000   24.9160  -31.2110 O   0  0  0  0  0  0  0  0  0  0  0  0
   -9.5038   23.6490  -31.2500 H   0  0  0  0  0  0  0  0  0  0  0  0
   -8.3702   23.3824  -32.6176 H   0  0  0  0  0  0  0  0  0  0  0  0
   -9.9805   22.5865  -32.6176 H   0  0  0  0  0  0  0  0  0  0  0  0
   -9.6222   19.3033  -31.3784 H   0  0  0  0  0  0  0  0  0  0  0  0
   -8.5964   17.3359  -32.4931 H   0  0  0  0  0  0  0  0  0  0  0  0
   -4.1356   17.3436  -33.8454 H   0  0  0  0  0  0  0  0  0  0  0  0
   -4.8253   16.4099  -35.2163 H   0  0  0  0  0  0  0  0  0  0  0  0
   -4.9150   18.2039  -35.2163 H   0  0  0  0  0  0  0  0  0  0  0  0
   -5.2893   19.7955  -33.8066 H   0  0  0  0  0  0  0  0  0  0  0  0
   -6.4610   22.8090  -33.3560 H   0  0  0  0  0  0  0  0  0  0  0  0
   -4.9219   21.7183  -30.9955 H   0  0  0  0  0  0  0  0  0  0  0  0
   -4.1584   22.6679  -32.3262 H   0  0  0  0  0  0  0  0  0  0  0  0
   -7.1989   23.1845  -29.8229 H   0  0  0  0  0  0  0  0  0  0  0  0
   -7.0999   25.7785  -29.0620 H   0  0  0  0  0  0  0  0  0  0  0  0
   -5.0443   26.8758  -30.3778 H   0  0  0  0  0  0  0  0  0  0  0  0
  1  2  1  0
  2  3  1  0
  3  4  2  0
  4  5  1  0
  5  6  2  0
  6  7  1  0
  7  8  1  0
  7  9  2  0
  6 10  1  0
 10 11  2  0
 11 12  1  0
 12 13  1  0
 13 14  1  0
 14 15  2  0
 15 16  1  0
 16 17  2  0
 17 18  1  0
 11  3  1  0
 18 14  1  0
  1 19  1  0
  1 20  1  0
  1 21  1  0
  4 22  1  0
  5 23  1  0
  8 24  1  0
  8 25  1  0
  8 26  1  0
 10 27  1  0
 12 28  1  0
 13 29  1  0
 13 30  1  0
 15 31  1  0
 16 32  1  0
 17 33  1  0
M  END
>  <UniqueID>  (43) 
41

>  <SMILES>  (43) 
COc1ccc(C(C)=O)cc1NCc1ccco1

>  <Energy>  (43) 
57.80956803737271

>  <Genealogy>  (43) 
COc1ccc(C(C)=O)cc1NCc1ccco1 (3D coordinates assigned)
COc1ccc(C(C)=O)cc1NCc1ccco1 (optimized conformer: 57.80956803737271 kcal/mol)

>  <smiles>  (43) 
COc1ccc(C(C)=O)cc1NCc1ccco1

>  <score_type>  (43) 
oracle

>  <origin>  (43) 
adg

>  <m_score__min__energy>  (43) 
-7.1200000000000001

>  <m_primary>  (43) 
energy

$$$$
44:0
     RDKit          3D

 44 46  0  0  0  0  0  0  0  0999 V2000
   -3.1240   21.6060  -27.6610 O   0  0  0  0  0  0  0  0  0  0  0  0
   -2.8020   22.7580  -28.0600 C   0  0  0  0  0  0  0  0  0  0  0  0
   -3.5370   23.3580  -29.0890 C   0  0  0  0  0  0  0  0  0  0  0  0
   -3.1870   24.6410  -29.5450 C   0  0  0  0  0  0  0  0  0  0  0  0
   -3.9110   25.3030  -30.5970 N   0  0  0  0  0  0  0  0  0  0  0  0
   -5.2760   25.8160  -30.4810 C   0  0  0  0  0  0  0  0  0  0  0  0
   -6.1440   24.8540  -29.6630 C   0  0  0  0  0  0  0  0  0  0  0  0
   -6.8730   23.8530  -30.5770 C   0  0  0  0  0  0  0  0  0  0  0  0
   -5.9730   22.7740  -31.0450 N   0  0  0  0  0  0  0  0  0  0  0  0
   -6.3510   22.2290  -32.3640 C   0  0  0  0  0  0  0  0  0  0  0  0
   -6.9150   20.8280  -32.2680 C   0  0  0  0  0  0  0  0  0  0  0  0
   -6.0680   19.7280  -32.4940 C   0  0  0  0  0  0  0  0  0  0  0  0
   -6.5520   18.4230  -32.3720 C   0  0  0  0  0  0  0  0  0  0  0  0
   -7.8850   18.2010  -32.0280 C   0  0  0  0  0  0  0  0  0  0  0  0
   -8.7390   19.2820  -31.8060 C   0  0  0  0  0  0  0  0  0  0  0  0
   -8.2660   20.5950  -31.9220 C   0  0  0  0  0  0  0  0  0  0  0  0
   -9.3940   21.9160  -31.6360 Cl  0  0  0  0  0  0  0  0  0  0  0  0
   -2.1380   25.2890  -28.9680 N   0  0  0  0  0  0  0  0  0  0  0  0
   -1.4030   24.7370  -27.9660 C   0  0  0  0  0  0  0  0  0  0  0  0
   -0.3320   25.4490  -27.4130 C   0  0  0  0  0  0  0  0  0  0  0  0
    0.4270   24.8850  -26.3840 C   0  0  0  0  0  0  0  0  0  0  0  0
    0.1220   23.6090  -25.9040 C   0  0  0  0  0  0  0  0  0  0  0  0
   -0.9470   22.8890  -26.4480 C   0  0  0  0  0  0  0  0  0  0  0  0
   -1.7190   23.4460  -27.4850 C   0  0  0  0  0  0  0  0  0  0  0  0
   -4.3876   22.8263  -29.5404 H   0  0  0  0  0  0  0  0  0  0  0  0
   -3.4260   25.4300  -31.5150 H   0  0  0  0  0  0  0  0  0  0  0  0
   -5.2531   26.7960  -29.9820 H   0  0  0  0  0  0  0  0  0  0  0  0
   -5.7060   25.9132  -31.4888 H   0  0  0  0  0  0  0  0  0  0  0  0
   -5.5030   24.2995  -28.9618 H   0  0  0  0  0  0  0  0  0  0  0  0
   -6.8969   25.4410  -29.1166 H   0  0  0  0  0  0  0  0  0  0  0  0
   -7.7065   23.4030  -30.0178 H   0  0  0  0  0  0  0  0  0  0  0  0
   -7.2362   24.4000  -31.4595 H   0  0  0  0  0  0  0  0  0  0  0  0
   -4.9750   23.0880  -31.0570 H   0  0  0  0  0  0  0  0  0  0  0  0
   -6.0310   21.9850  -30.3600 H   0  0  0  0  0  0  0  0  0  0  0  0
   -7.1105   22.8857  -32.8133 H   0  0  0  0  0  0  0  0  0  0  0  0
   -5.4419   22.1835  -32.9817 H   0  0  0  0  0  0  0  0  0  0  0  0
   -5.0163   19.8965  -32.7689 H   0  0  0  0  0  0  0  0  0  0  0  0
   -5.8806   17.5695  -32.5476 H   0  0  0  0  0  0  0  0  0  0  0  0
   -8.2637   17.1727  -31.9315 H   0  0  0  0  0  0  0  0  0  0  0  0
   -9.7905   19.1016  -31.5381 H   0  0  0  0  0  0  0  0  0  0  0  0
   -0.0876   26.4535  -27.7888 H   0  0  0  0  0  0  0  0  0  0  0  0
    1.2671   25.4475  -25.9507 H   0  0  0  0  0  0  0  0  0  0  0  0
    0.7244   23.1689  -25.0956 H   0  0  0  0  0  0  0  0  0  0  0  0
   -1.1847   21.8857  -26.0647 H   0  0  0  0  0  0  0  0  0  0  0  0
  1  2  2  0
  2  3  1  0
  3  4  2  0
  4  5  1  0
  5  6  1  0
  6  7  1  0
  7  8  1  0
  8  9  1  0
  9 10  1  0
 10 11  1  0
 11 12  2  0
 12 13  1  0
 13 14  2  0
 14 15  1  0
 15 16  2  0
 16 17  1  0
  4 18  1  0
 18 19  1  0
 19 20  2  0
 20 21  1  0
 21 22  2  0
 22 23  1  0
 23 24  2  0
 24  2  1  0
 16 11  1  0
 24 19  1  0
  3 25  1  0
  5 26  1  0
  6 27  1  0
  6 28  1  0
  7 29  1  0
  7 30  1  0
  8 31  1  0
  8 32  1  0
  9 33  1  0
  9 34  1  0
 10 35  1  0
 10 36  1  0
 12 37  1  0
 13 38  1  0
 14 39  1  0
 15 40  1  0
 20 41  1  0
 21 42  1  0
 22 43  1  0
 23 44  1  0
M  CHG  2   9   1  18  -1
M  END
>  <UniqueID>  (44) 
42

>  <SMILES>  (44) 
O=c1cc(NCCC[NH2+]Cc2ccccc2Cl)[n-]c2ccccc12

>  <Energy>  (44) 
49.012077875356205

>  <Genealogy>  (44) 
O=c1cc(NCCC[NH2+]Cc2ccccc2Cl)[n-]c2ccccc12 (protonated)
O=c1cc(NCCC[NH2+]Cc2ccccc2Cl)[n-]c2ccccc12 (3D coordinates assigned)
O=c1cc(NCCC[NH2+]Cc2ccccc2Cl)[n-]c2ccccc12 (optimized conformer: 49.012077875356205 kcal/mol)

>  <smiles>  (44) 
O=c1cc(NCCCNCc2ccccc2Cl)[nH]c2ccccc12

>  <score_type>  (44) 
oracle

>  <origin>  (44) 
adg

>  <m_score__min__energy>  (44) 
-10.289999999999999

>  <m_primary>  (44) 
energy

$$$$
45:0
     RDKit          3D

 51 54  0  0  0  0  0  0  0  0999 V2000
   -5.7100   19.7420  -33.5050 C   0  0  0  0  0  0  0  0  0  0  0  0
   -5.0440   20.4280  -32.4500 O   0  0  0  0  0  0  0  0  0  0  0  0
   -5.5950   21.4990  -31.7290 C   0  0  0  0  0  0  0  0  0  0  0  0
   -6.9230   21.4910  -31.2650 C   0  0  0  0  0  0  0  0  0  0  0  0
   -7.4230   22.5810  -30.5500 C   0  0  0  0  0  0  0  0  0  0  0  0
   -6.6100   23.6870  -30.2920 C   0  0  0  0  0  0  0  0  0  0  0  0
   -5.2800   23.7140  -30.7500 C   0  0  0  0  0  0  0  0  0  0  0  0
   -4.4130   24.8830  -30.4700 C   0  0  0  0  0  0  0  0  0  0  0  0
   -4.8380   26.0520  -30.6800 O   0  0  0  0  0  0  0  0  0  0  0  0
   -3.0870   24.6880  -29.9660 N   0  0  0  0  0  0  0  0  0  0  0  0
   -2.7060   24.8880  -28.5700 C   0  0  1  0  0  0  0  0  0  0  0  0
   -3.7970   24.3140  -27.6610 C   0  0  0  0  0  0  0  0  0  0  0  0
   -3.8840   22.7770  -27.7760 C   0  0  0  0  0  0  0  0  0  0  0  0
   -2.5610   22.0840  -27.8470 N   0  0  1  0  0  0  0  0  0  0  0  0
   -2.3470   21.4600  -29.1800 C   0  0  0  0  0  0  0  0  0  0  0  0
   -1.3420   20.3330  -29.1400 C   0  0  0  0  0  0  0  0  0  0  0  0
   -0.4550   20.1290  -30.2300 C   0  0  0  0  0  0  0  0  0  0  0  0
    0.4730   19.0730  -30.2070 C   0  0  0  0  0  0  0  0  0  0  0  0
    0.4890   18.2450  -29.0900 C   0  0  0  0  0  0  0  0  0  0  0  0
   -0.3550   18.4340  -28.0440 C   0  0  0  0  0  0  0  0  0  0  0  0
   -1.2870   19.4660  -28.0240 C   0  0  0  0  0  0  0  0  0  0  0  0
   -0.1170   17.4690  -27.0830 O   0  0  0  0  0  0  0  0  0  0  0  0
    0.9400   16.6230  -27.5550 C   0  0  0  0  0  0  0  0  0  0  0  0
    1.2980   17.1540  -28.8390 O   0  0  0  0  0  0  0  0  0  0  0  0
   -1.4340   22.9560  -27.4320 C   0  0  0  0  0  0  0  0  0  0  0  0
   -1.3320   24.2410  -28.2760 C   0  0  0  0  0  0  0  0  0  0  0  0
   -4.7840   22.6100  -31.4670 C   0  0  0  0  0  0  0  0  0  0  0  0
   -6.4168   19.0140  -33.0803 H   0  0  0  0  0  0  0  0  0  0  0  0
   -6.2583   20.4666  -34.1249 H   0  0  0  0  0  0  0  0  0  0  0  0
   -4.9695   19.2154  -34.1249 H   0  0  0  0  0  0  0  0  0  0  0  0
   -7.5691   20.6238  -31.4660 H   0  0  0  0  0  0  0  0  0  0  0  0
   -8.4618   22.5687  -30.1883 H   0  0  0  0  0  0  0  0  0  0  0  0
   -7.0117   24.5415  -29.7277 H   0  0  0  0  0  0  0  0  0  0  0  0
   -2.6077   25.9653  -28.3706 H   0  0  0  0  0  0  0  0  0  0  0  0
   -4.7658   24.7486  -27.9483 H   0  0  0  0  0  0  0  0  0  0  0  0
   -3.5452   24.5668  -26.6205 H   0  0  0  0  0  0  0  0  0  0  0  0
   -4.4493   22.5322  -28.6874 H   0  0  0  0  0  0  0  0  0  0  0  0
   -4.3738   22.4221  -26.8573 H   0  0  0  0  0  0  0  0  0  0  0  0
   -2.5970   21.3010  -27.1500 H   0  0  0  0  0  0  0  0  0  0  0  0
   -3.3072   21.0630  -29.5412 H   0  0  0  0  0  0  0  0  0  0  0  0
   -1.9502   22.2361  -29.8510 H   0  0  0  0  0  0  0  0  0  0  0  0
   -0.4942   20.8023  -31.0990 H   0  0  0  0  0  0  0  0  0  0  0  0
    1.1646   18.9071  -31.0462 H   0  0  0  0  0  0  0  0  0  0  0  0
   -1.9612   19.6038  -27.1659 H   0  0  0  0  0  0  0  0  0  0  0  0
    1.7991   16.6590  -26.8690 H   0  0  0  0  0  0  0  0  0  0  0  0
    0.6288   15.5697  -27.6165 H   0  0  0  0  0  0  0  0  0  0  0  0
   -0.4957   22.3914  -27.5364 H   0  0  0  0  0  0  0  0  0  0  0  0
   -1.6146   23.2575  -26.3897 H   0  0  0  0  0  0  0  0  0  0  0  0
   -0.8504   23.9931  -29.2334 H   0  0  0  0  0  0  0  0  0  0  0  0
   -0.7461   24.9681  -27.6946 H   0  0  0  0  0  0  0  0  0  0  0  0
   -3.7446   22.6196  -31.8268 H   0  0  0  0  0  0  0  0  0  0  0  0
  1  2  1  0
  2  3  1  0
  3  4  2  0
  4  5  1  0
  5  6  2  0
  6  7  1  0
  7  8  1  0
  8  9  2  0
  8 10  1  0
 10 11  1  0
 11 12  1  0
 12 13  1  0
 13 14  1  0
 14 15  1  0
 15 16  1  0
 16 17  2  0
 17 18  1  0
 18 19  2  0
 19 20  1  0
 20 21  2  0
 20 22  1  0
 22 23  1  0
 23 24  1  0
 14 25  1  0
 25 26  1  0
  7 27  2  0
 27  3  1  0
 26 11  1  0
 21 16  1  0
 24 19  1  0
  1 28  1  0
  1 29  1  0
  1 30  1  0
  4 31  1  0
  5 32  1  0
  6 33  1  0
 11 34  1  1
 12 35  1  0
 12 36  1  0
 13 37  1  0
 13 38  1  0
 14 39  1  1
 15 40  1  0
 15 41  1  0
 17 42  1  0
 18 43  1  0
 21 44  1  0
 23 45  1  0
 23 46  1  0
 25 47  1  0
 25 48  1  0
 26 49  1  0
 26 50  1  0
 27 51  1  0
M  CHG  2  10  -1  14   1
M  END
>  <UniqueID>  (45) 
43

>  <SMILES>  (45) 
COc1cccc(C(=O)[N-]C2CC[NH+](Cc3ccc4c(c3)OCO4)CC2)c1

>  <Energy>  (45) 
90.06632669621074

>  <Genealogy>  (45) 
COc1cccc(C(=O)[N-]C2CC[NH+](Cc3ccc4c(c3)OCO4)CC2)c1 (protonated)
COc1cccc(C(=O)[N-]C2CC[NH+](Cc3ccc4c(c3)OCO4)CC2)c1 (3D coordinates assigned)
COc1cccc(C(=O)[N-]C2CC[NH+](Cc3ccc4c(c3)OCO4)CC2)c1 (nonaromatic ring conformer: 90.06632669621074 kcal/mol)

>  <smiles>  (45) 
COc1cccc(C(=O)NC2CCN(Cc3ccc4c(c3)OCO4)CC2)c1

>  <score_type>  (45) 
oracle

>  <origin>  (45) 
adg

>  <m_score__min__energy>  (45) 
-8.6699999999999999

>  <m_primary>  (45) 
energy

$$$$
46:0
     RDKit          3D

 45 45  0  0  0  0  0  0  0  0999 V2000
   -3.8010   24.1480  -28.8260 C   0  0  0  0  0  0  0  0  0  0  0  0
   -3.7160   23.7950  -30.3100 C   0  0  0  0  0  0  0  0  0  0  0  0
   -4.6870   24.5750  -31.1120 N   0  0  0  0  0  0  0  0  0  0  0  0
   -5.4750   25.5150  -30.2700 C   0  0  0  0  0  0  0  0  0  0  0  0
   -6.8510   24.9250  -29.9780 C   0  0  0  0  0  0  0  0  0  0  0  0
   -5.5680   23.6680  -31.8840 C   0  0  0  0  0  0  0  0  0  0  0  0
   -4.9710   22.2490  -31.9870 C   0  0  0  0  0  0  0  0  0  0  0  0
   -4.5460   21.8960  -33.3590 N   0  0  0  0  0  0  0  0  0  0  0  0
   -3.4580   20.8980  -33.4100 C   0  0  0  0  0  0  0  0  0  0  0  0
   -3.9790   19.4580  -33.5020 C   0  0  0  0  0  0  0  0  0  0  0  0
   -5.2920   19.4490  -34.0570 O   0  0  0  0  0  0  0  0  0  0  0  0
   -6.4720   19.2870  -33.3150 C   0  0  0  0  0  0  0  0  0  0  0  0
   -7.3440   20.3640  -33.0550 C   0  0  0  0  0  0  0  0  0  0  0  0
   -8.5110   20.1650  -32.3130 C   0  0  0  0  0  0  0  0  0  0  0  0
   -8.8210   18.8960  -31.8220 C   0  0  0  0  0  0  0  0  0  0  0  0
   -7.9650   17.8210  -32.0710 C   0  0  0  0  0  0  0  0  0  0  0  0
   -6.7890   18.0070  -32.8160 C   0  0  0  0  0  0  0  0  0  0  0  0
   -5.8730   16.8460  -33.0810 C   0  0  0  0  0  0  0  0  0  0  0  0
   -3.5856   23.2533  -28.2234 H   0  0  0  0  0  0  0  0  0  0  0  0
   -3.0661   24.9327  -28.5931 H   0  0  0  0  0  0  0  0  0  0  0  0
   -4.8125   24.5122  -28.5931 H   0  0  0  0  0  0  0  0  0  0  0  0
   -2.6996   24.0112  -30.6708 H   0  0  0  0  0  0  0  0  0  0  0  0
   -3.9543   22.7272  -30.4241 H   0  0  0  0  0  0  0  0  0  0  0  0
   -4.9441   25.6878  -29.3222 H   0  0  0  0  0  0  0  0  0  0  0  0
   -5.5968   26.4667  -30.8081 H   0  0  0  0  0  0  0  0  0  0  0  0
   -6.9993   24.8614  -28.8899 H   0  0  0  0  0  0  0  0  0  0  0  0
   -7.6269   25.5695  -30.4168 H   0  0  0  0  0  0  0  0  0  0  0  0
   -6.9191   23.9186  -30.4168 H   0  0  0  0  0  0  0  0  0  0  0  0
   -6.5458   23.6086  -31.3836 H   0  0  0  0  0  0  0  0  0  0  0  0
   -5.6718   24.0726  -32.9016 H   0  0  0  0  0  0  0  0  0  0  0  0
   -4.0961   22.1884  -31.3231 H   0  0  0  0  0  0  0  0  0  0  0  0
   -5.7596   21.5397  -31.6954 H   0  0  0  0  0  0  0  0  0  0  0  0
   -4.2390   22.7680  -33.8500 H   0  0  0  0  0  0  0  0  0  0  0  0
   -5.3620   21.5280  -33.9020 H   0  0  0  0  0  0  0  0  0  0  0  0
   -2.8334   21.1032  -34.2919 H   0  0  0  0  0  0  0  0  0  0  0  0
   -2.8839   20.9845  -32.4757 H   0  0  0  0  0  0  0  0  0  0  0  0
   -3.3081   18.8682  -34.1440 H   0  0  0  0  0  0  0  0  0  0  0  0
   -4.0104   19.0203  -32.4933 H   0  0  0  0  0  0  0  0  0  0  0  0
   -7.1041   21.3667  -33.4385 H   0  0  0  0  0  0  0  0  0  0  0  0
   -9.1867   21.0102  -32.1155 H   0  0  0  0  0  0  0  0  0  0  0  0
   -9.7406   18.7423  -31.2382 H   0  0  0  0  0  0  0  0  0  0  0  0
   -8.2133   16.8227  -31.6813 H   0  0  0  0  0  0  0  0  0  0  0  0
   -5.5361   16.4190  -32.1248 H   0  0  0  0  0  0  0  0  0  0  0  0
   -6.4112   16.0781  -33.6561 H   0  0  0  0  0  0  0  0  0  0  0  0
   -5.0010   17.1908  -33.6561 H   0  0  0  0  0  0  0  0  0  0  0  0
  1  2  1  0
  2  3  1  0
  3  4  1  0
  4  5  1  0
  3  6  1  0
  6  7  1  0
  7  8  1  0
  8  9  1  0
  9 10  1  0
 10 11  1  0
 11 12  1  0
 12 13  2  0
 13 14  1  0
 14 15  2  0
 15 16  1  0
 16 17  2  0
 17 18  1  0
 17 12  1  0
  1 19  1  0
  1 20  1  0
  1 21  1  0
  2 22  1  0
  2 23  1  0
  4 24  1  0
  4 25  1  0
  5 26  1  0
  5 27  1  0
  5 28  1  0
  6 29  1  0
  6 30  1  0
  7 31  1  0
  7 32  1  0
  8 33  1  0
  8 34  1  0
  9 35  1  0
  9 36  1  0
 10 37  1  0
 10 38  1  0
 13 39  1  0
 14 40  1  0
 15 41  1  0
 16 42  1  0
 18 43  1  0
 18 44  1  0
 18 45  1  0
M  CHG  1   8   1
M  END
>  <UniqueID>  (46) 
44

>  <SMILES>  (46) 
CCN(CC)CC[NH2+]CCOc1ccccc1C

>  <Energy>  (46) 
41.01855455497987

>  <Genealogy>  (46) 
CCN(CC)CC[NH2+]CCOc1ccccc1C (protonated)
CCN(CC)CC[NH2+]CCOc1ccccc1C (3D coordinates assigned)
CCN(CC)CC[NH2+]CCOc1ccccc1C (optimized conformer: 41.01855455497987 kcal/mol)

>  <smiles>  (46) 
CCN(CC)CCNCCOc1ccccc1C

>  <score_type>  (46) 
oracle

>  <origin>  (46) 
adg

>  <m_score__min__energy>  (46) 
-5.9299999999999997

>  <m_primary>  (46) 
energy

$$$$
