0:0
     RDKit          3D

 49 50  0  0  0  0  0  0  0  0999 V2000
   -8.9400   21.2380  -31.6830 C   0  0  0  0  0  0  0  0  0  0  0  0
   -8.9640   19.9220  -32.3930 C   0  0  0  0  0  0  0  0  0  0  0  0
   -7.7050   19.4810  -33.0220 C   0  0  0  0  0  0  0  0  0  0  0  0
   -6.6510   20.4040  -33.2100 N   0  0  0  0  0  0  0  0  0  0  0  0
   -5.5770   20.7400  -32.3780 C   0  0  0  0  0  0  0  0  0  0  0  0
   -5.3970   20.2560  -31.2570 O   0  0  0  0  0  0  0  0  0  0  0  0
   -4.6050   21.7030  -32.8200 N   0  0  0  0  0  0  0  0  0  0  0  0
   -3.5080   21.9980  -31.8880 C   0  0  0  0  0  0  0  0  0  0  0  0
   -3.9860   23.0110  -30.9440 C   0  0  0  0  0  0  0  0  0  0  0  0
   -4.7140   24.1130  -31.2510 N   0  0  0  0  0  0  0  0  0  0  0  0
   -4.9760   24.8100  -30.1700 N   0  0  0  0  0  0  0  0  0  0  0  0
   -5.7220   26.0410  -30.0760 C   0  0  0  0  0  0  0  0  0  0  0  0
   -4.4300   24.1840  -29.1310 C   0  0  0  0  0  0  0  0  0  0  0  0
   -3.7860   23.0270  -29.5800 C   0  0  0  0  0  0  0  0  0  0  0  0
   -3.0950   22.1480  -28.6090 C   0  0  0  0  0  0  0  0  0  0  0  0
   -2.4670   22.8830  -27.4600 C   0  0  0  0  0  0  0  0  0  0  0  0
   -3.0050   24.1650  -27.2780 N   0  0  0  0  0  0  0  0  0  0  0  0
   -2.2650   25.1680  -26.6350 C   0  0  0  0  0  0  0  0  0  0  0  0
   -1.2360   25.8580  -27.4550 C   0  0  0  0  0  0  0  0  0  0  0  0
   -1.4260   25.6120  -28.7920 O   0  0  0  0  0  0  0  0  0  0  0  0
   -0.7620   24.5410  -29.3210 C   0  0  0  0  0  0  0  0  0  0  0  0
   -4.3430   24.4150  -27.6500 C   0  0  0  0  0  0  0  0  0  0  0  0
   -8.9431   21.0684  -30.5962 H   0  0  0  0  0  0  0  0  0  0  0  0
   -8.0316   21.7904  -31.9653 H   0  0  0  0  0  0  0  0  0  0  0  0
   -9.8276   21.8232  -31.9653 H   0  0  0  0  0  0  0  0  0  0  0  0
   -9.2566   19.1547  -31.6612 H   0  0  0  0  0  0  0  0  0  0  0  0
   -9.6690   20.0582  -33.2263 H   0  0  0  0  0  0  0  0  0  0  0  0
   -7.3069   18.6659  -32.3998 H   0  0  0  0  0  0  0  0  0  0  0  0
   -8.0084   19.2289  -34.0488 H   0  0  0  0  0  0  0  0  0  0  0  0
   -6.6730   20.9410  -34.1510 H   0  0  0  0  0  0  0  0  0  0  0  0
   -4.6720   22.1690  -33.7520 H   0  0  0  0  0  0  0  0  0  0  0  0
   -3.2220   21.0851  -31.3450 H   0  0  0  0  0  0  0  0  0  0  0  0
   -2.6268   22.3656  -32.4342 H   0  0  0  0  0  0  0  0  0  0  0  0
   -5.8766   26.2961  -29.0172 H   0  0  0  0  0  0  0  0  0  0  0  0
   -5.1610   26.8483  -30.5695 H   0  0  0  0  0  0  0  0  0  0  0  0
   -6.6973   25.9173  -30.5695 H   0  0  0  0  0  0  0  0  0  0  0  0
   -3.8287   21.4353  -28.2043 H   0  0  0  0  0  0  0  0  0  0  0  0
   -2.2786   21.6514  -29.1538 H   0  0  0  0  0  0  0  0  0  0  0  0
   -2.6267   22.3007  -26.5405 H   0  0  0  0  0  0  0  0  0  0  0  0
   -1.3971   23.0011  -27.6865 H   0  0  0  0  0  0  0  0  0  0  0  0
   -2.9736   25.9294  -26.2771 H   0  0  0  0  0  0  0  0  0  0  0  0
   -1.7074   24.6543  -25.8380 H   0  0  0  0  0  0  0  0  0  0  0  0
   -1.3004   26.9414  -27.2759 H   0  0  0  0  0  0  0  0  0  0  0  0
   -0.2450   25.4778  -27.1662 H   0  0  0  0  0  0  0  0  0  0  0  0
   -0.3723   23.9125  -28.5067 H   0  0  0  0  0  0  0  0  0  0  0  0
   -1.4530   23.9510  -29.9411 H   0  0  0  0  0  0  0  0  0  0  0  0
    0.0737   24.8975  -29.9411 H   0  0  0  0  0  0  0  0  0  0  0  0
   -5.0186   23.7283  -27.1190 H   0  0  0  0  0  0  0  0  0  0  0  0
   -4.6399   25.4423  -27.3919 H   0  0  0  0  0  0  0  0  0  0  0  0
  1  2  1  0
  2  3  1  0
  3  4  1  0
  4  5  1  0
  5  6  2  0
  5  7  1  0
  7  8  1  0
  8  9  1  0
  9 10  2  0
 10 11  1  0
 11 12  1  0
 11 13  1  0
 13 14  2  0
 14 15  1  0
 15 16  1  0
 16 17  1  0
 17 18  1  0
 18 19  1  0
 19 20  1  0
 20 21  1  0
 17 22  1  0
 14  9  1  0
 22 13  1  0
  1 23  1  0
  1 24  1  0
  1 25  1  0
  2 26  1  0
  2 27  1  0
  3 28  1  0
  3 29  1  0
  4 30  1  0
  7 31  1  0
  8 32  1  0
  8 33  1  0
 12 34  1  0
 12 35  1  0
 12 36  1  0
 15 37  1  0
 15 38  1  0
 16 39  1  0
 16 40  1  0
 18 41  1  0
 18 42  1  0
 19 43  1  0
 19 44  1  0
 21 45  1  0
 21 46  1  0
 21 47  1  0
 22 48  1  0
 22 49  1  0
M  END
>  <smiles>  (1) 
CCCNC(=O)NCc1nn(C)c2c1CCN(CCOC)C2

>  <score_type>  (1) 
oracle

>  <origin>  (1) 
adg

>  <m_score__min__energy>  (1) 
-7.5599999999999996

>  <m_primary>  (1) 
energy

$$$$
1:0
     RDKit          3D

 77 78  0  0  0  0  0  0  0  0999 V2000
   -1.3250   24.0510  -29.0120 C   0  0  0  0  0  0  0  0  0  0  0  0
   -1.3850   23.0130  -30.0800 C   0  0  0  0  0  0  0  0  0  0  0  0
   -2.6410   22.9730  -30.8180 N   0  0  0  0  0  0  0  0  0  0  0  0
   -3.7450   22.6840  -29.9320 C   0  0  0  0  0  0  0  0  0  0  0  0
   -4.6450   23.8960  -29.7640 C   0  0  0  0  0  0  0  0  0  0  0  0
   -4.5900   24.7160  -30.9510 N   0  0  0  0  0  0  0  0  0  0  0  0
   -5.3710   25.9240  -30.7670 C   0  0  0  0  0  0  0  0  0  0  0  0
   -2.4720   21.9770  -31.8830 C   0  0  0  0  0  0  0  0  0  0  0  0
   -1.4270   21.0010  -31.5380 C   0  0  0  0  0  0  0  0  0  0  0  0
   -1.0690   19.9450  -32.3700 N   0  0  0  0  0  0  0  0  0  0  0  0
   -2.2260   19.1520  -32.7320 C   0  0  0  0  0  0  0  0  0  0  0  0
   -2.3940   18.9980  -34.2430 C   0  0  0  0  0  0  0  0  0  0  0  0
   -3.5800   18.3240  -34.4750 N   0  0  0  0  0  0  0  0  0  0  0  0
   -3.6900   16.9970  -34.9480 C   0  0  0  0  0  0  0  0  0  0  0  0
   -4.8310   16.3840  -34.0990 C   0  0  0  0  0  0  0  0  0  0  0  0
   -5.9540   17.3250  -34.0850 N   0  0  0  0  0  0  0  0  0  0  0  0
   -6.5410   17.3140  -32.7700 C   0  0  0  0  0  0  0  0  0  0  0  0
   -7.2730   18.5410  -32.4580 C   0  0  0  0  0  0  0  0  0  0  0  0
   -8.6220   18.6050  -32.1480 C   0  0  0  0  0  0  0  0  0  0  0  0
   -9.1980   19.7490  -31.9260 O   0  0  0  0  0  0  0  0  0  0  0  0
   -8.5100   20.8710  -31.9920 C   0  0  0  0  0  0  0  0  0  0  0  0
   -9.1510   22.0630  -31.7580 C   0  0  0  0  0  0  0  0  0  0  0  0
   -8.4170   23.2450  -31.8350 C   0  0  0  0  0  0  0  0  0  0  0  0
   -7.0830   23.2630  -32.1330 C   0  0  0  0  0  0  0  0  0  0  0  0
   -6.4340   22.0750  -32.3680 C   0  0  0  0  0  0  0  0  0  0  0  0
   -7.1690   20.9200  -32.2890 C   0  0  0  0  0  0  0  0  0  0  0  0
   -6.5300   19.7310  -32.5280 C   0  0  0  0  0  0  0  0  0  0  0  0
   -5.2990   19.7070  -32.8060 O   0  0  0  0  0  0  0  0  0  0  0  0
   -0.2530   20.0750  -33.4920 C   0  0  0  0  0  0  0  0  0  0  0  0
    0.6520   21.2120  -33.7380 C   0  0  0  0  0  0  0  0  0  0  0  0
    0.4920   21.9550  -34.9270 N   0  0  0  0  0  0  0  0  0  0  0  0
    1.7530   22.5330  -35.3440 C   0  0  0  0  0  0  0  0  0  0  0  0
   -0.0260   21.2040  -36.0220 C   0  0  0  0  0  0  0  0  0  0  0  0
   -1.3531   23.5645  -28.0258 H   0  0  0  0  0  0  0  0  0  0  0  0
   -0.3922   24.6255  -29.1110 H   0  0  0  0  0  0  0  0  0  0  0  0
   -2.1854   24.7291  -29.1110 H   0  0  0  0  0  0  0  0  0  0  0  0
   -0.5729   23.2097  -30.7954 H   0  0  0  0  0  0  0  0  0  0  0  0
   -1.2894   22.0405  -29.5749 H   0  0  0  0  0  0  0  0  0  0  0  0
   -4.3340   21.8548  -30.3510 H   0  0  0  0  0  0  0  0  0  0  0  0
   -3.3392   22.4117  -28.9465 H   0  0  0  0  0  0  0  0  0  0  0  0
   -5.6800   23.5619  -29.5989 H   0  0  0  0  0  0  0  0  0  0  0  0
   -4.3026   24.4849  -28.9003 H   0  0  0  0  0  0  0  0  0  0  0  0
   -3.6050   24.9290  -31.1870 H   0  0  0  0  0  0  0  0  0  0  0  0
   -5.4970   26.1189  -29.6918 H   0  0  0  0  0  0  0  0  0  0  0  0
   -4.8499   26.7723  -31.2348 H   0  0  0  0  0  0  0  0  0  0  0  0
   -6.3584   25.7970  -31.2348 H   0  0  0  0  0  0  0  0  0  0  0  0
   -3.4238   21.4460  -32.0319 H   0  0  0  0  0  0  0  0  0  0  0  0
   -2.1708   22.4989  -32.8032 H   0  0  0  0  0  0  0  0  0  0  0  0
   -0.5086   21.5849  -31.3781 H   0  0  0  0  0  0  0  0  0  0  0  0
   -1.8944   20.4681  -30.6968 H   0  0  0  0  0  0  0  0  0  0  0  0
   -2.1186   18.1516  -32.2873 H   0  0  0  0  0  0  0  0  0  0  0  0
   -3.1160   19.6758  -32.3532 H   0  0  0  0  0  0  0  0  0  0  0  0
   -2.4292   19.9897  -34.7176 H   0  0  0  0  0  0  0  0  0  0  0  0
   -1.5472   18.4380  -34.6665 H   0  0  0  0  0  0  0  0  0  0  0  0
   -4.3660   18.5560  -33.8300 H   0  0  0  0  0  0  0  0  0  0  0  0
   -3.9491   16.9841  -36.0170 H   0  0  0  0  0  0  0  0  0  0  0  0
   -2.7478   16.4370  -34.8544 H   0  0  0  0  0  0  0  0  0  0  0  0
   -5.1517   15.4294  -34.5416 H   0  0  0  0  0  0  0  0  0  0  0  0
   -4.4807   16.1984  -33.0729 H   0  0  0  0  0  0  0  0  0  0  0  0
   -5.6920   18.2700  -34.3760 H   0  0  0  0  0  0  0  0  0  0  0  0
   -7.2372   16.4648  -32.7045 H   0  0  0  0  0  0  0  0  0  0  0  0
   -5.7185   17.2294  -32.0445 H   0  0  0  0  0  0  0  0  0  0  0  0
   -9.2116   17.6782  -32.0892 H   0  0  0  0  0  0  0  0  0  0  0  0
  -10.2235   22.0842  -31.5144 H   0  0  0  0  0  0  0  0  0  0  0  0
   -8.9305   24.1998  -31.6489 H   0  0  0  0  0  0  0  0  0  0  0  0
   -6.5363   24.2162  -32.1840 H   0  0  0  0  0  0  0  0  0  0  0  0
   -5.3615   22.0512  -32.6112 H   0  0  0  0  0  0  0  0  0  0  0  0
    0.3874   19.1806  -33.4973 H   0  0  0  0  0  0  0  0  0  0  0  0
   -1.0076   20.2418  -34.2748 H   0  0  0  0  0  0  0  0  0  0  0  0
    0.5293   21.9122  -32.8986 H   0  0  0  0  0  0  0  0  0  0  0  0
    1.6443   20.7488  -33.8415 H   0  0  0  0  0  0  0  0  0  0  0  0
    2.3436   22.8037  -34.4564 H   0  0  0  0  0  0  0  0  0  0  0  0
    2.3107   21.8007  -35.9462 H   0  0  0  0  0  0  0  0  0  0  0  0
    1.5623   23.4336  -35.9462 H   0  0  0  0  0  0  0  0  0  0  0  0
   -0.6117   20.3549  -35.6398 H   0  0  0  0  0  0  0  0  0  0  0  0
   -0.6724   21.8487  -36.6356 H   0  0  0  0  0  0  0  0  0  0  0  0
    0.8063   20.8288  -36.6356 H   0  0  0  0  0  0  0  0  0  0  0  0
  1  2  1  0
  2  3  1  0
  3  4  1  0
  4  5  1  0
  5  6  1  0
  6  7  1  0
  3  8  1  0
  8  9  1  0
  9 10  1  0
 10 11  1  0
 11 12  1  0
 12 13  1  0
 13 14  1  0
 14 15  1  0
 15 16  1  0
 16 17  1  0
 17 18  1  0
 18 19  2  0
 19 20  1  0
 20 21  1  0
 21 22  2  0
 22 23  1  0
 23 24  2  0
 24 25  1  0
 25 26  2  0
 26 27  1  0
 27 28  2  0
 10 29  1  0
 29 30  1  0
 30 31  1  0
 31 32  1  0
 31 33  1  0
 27 18  1  0
 26 21  1  0
  1 34  1  0
  1 35  1  0
  1 36  1  0
  2 37  1  0
  2 38  1  0
  4 39  1  0
  4 40  1  0
  5 41  1  0
  5 42  1  0
  6 43  1  0
  7 44  1  0
  7 45  1  0
  7 46  1  0
  8 47  1  0
  8 48  1  0
  9 49  1  0
  9 50  1  0
 11 51  1  0
 11 52  1  0
 12 53  1  0
 12 54  1  0
 13 55  1  0
 14 56  1  0
 14 57  1  0
 15 58  1  0
 15 59  1  0
 16 60  1  0
 17 61  1  0
 17 62  1  0
 19 63  1  0
 22 64  1  0
 23 65  1  0
 24 66  1  0
 25 67  1  0
 29 68  1  0
 29 69  1  0
 30 70  1  0
 30 71  1  0
 32 72  1  0
 32 73  1  0
 32 74  1  0
 33 75  1  0
 33 76  1  0
 33 77  1  0
M  END
>  <smiles>  (2) 
CCN(CCNC)CCN(CCNCCNCc1coc2ccccc2c1=O)CCN(C)C

>  <score_type>  (2) 
oracle

>  <origin>  (2) 
adg

>  <m_score__min__energy>  (2) 
-8.4499999999999993

>  <m_primary>  (2) 
energy

$$$$
3:0
     RDKit          3D

 29 30  0  0  0  0  0  0  0  0999 V2000
   -8.6860   18.6750  -31.8970 C   0  0  0  0  0  0  0  0  0  0  0  0
   -9.1000   20.1510  -31.9530 C   0  0  0  0  0  0  0  0  0  0  0  0
   -7.9360   20.9190  -31.6540 N   0  0  0  0  0  0  0  0  0  0  0  0
   -6.9380   20.6070  -32.6780 C   0  0  0  0  0  0  0  0  0  0  0  0
   -8.1150   22.3410  -31.6520 C   0  0  0  0  0  0  0  0  0  0  0  0
   -6.8530   23.0750  -31.3810 C   0  0  0  0  0  0  0  0  0  0  0  0
   -6.0940   23.8500  -32.2310 C   0  0  0  0  0  0  0  0  0  0  0  0
   -5.0440   24.3270  -31.6000 O   0  0  0  0  0  0  0  0  0  0  0  0
   -5.0930   23.8860  -30.3560 C   0  0  0  0  0  0  0  0  0  0  0  0
   -4.1330   24.1570  -29.2860 C   0  0  0  0  0  0  0  0  0  0  0  0
   -4.1970   23.7010  -27.9700 C   0  0  0  0  0  0  0  0  0  0  0  0
   -3.0870   24.1860  -27.2790 C   0  0  0  0  0  0  0  0  0  0  0  0
   -2.3970   24.9220  -28.2310 C   0  0  0  0  0  0  0  0  0  0  0  0
   -0.7610   25.8360  -27.8410 Br  0  0  0  0  0  0  0  0  0  0  0  0
   -3.0470   24.8670  -29.3560 O   0  0  0  0  0  0  0  0  0  0  0  0
   -6.1850   23.1210  -30.1970 N   0  0  0  0  0  0  0  0  0  0  0  0
   -8.5973   18.3586  -30.8472 H   0  0  0  0  0  0  0  0  0  0  0  0
   -9.4467   18.0614  -32.4018 H   0  0  0  0  0  0  0  0  0  0  0  0
   -7.7172   18.5465  -32.4018 H   0  0  0  0  0  0  0  0  0  0  0  0
   -9.4711   20.4020  -32.9576 H   0  0  0  0  0  0  0  0  0  0  0  0
   -9.9061   20.3615  -31.2347 H   0  0  0  0  0  0  0  0  0  0  0  0
   -5.9954   20.3123  -32.1936 H   0  0  0  0  0  0  0  0  0  0  0  0
   -7.3022   19.7799  -33.3050 H   0  0  0  0  0  0  0  0  0  0  0  0
   -6.7663   21.4943  -33.3050 H   0  0  0  0  0  0  0  0  0  0  0  0
   -8.4975   22.6493  -32.6362 H   0  0  0  0  0  0  0  0  0  0  0  0
   -8.8228   22.5866  -30.8466 H   0  0  0  0  0  0  0  0  0  0  0  0
   -6.3328   24.0422  -33.2874 H   0  0  0  0  0  0  0  0  0  0  0  0
   -4.9896   23.0657  -27.5479 H   0  0  0  0  0  0  0  0  0  0  0  0
   -2.8206   24.0228  -26.2243 H   0  0  0  0  0  0  0  0  0  0  0  0
  1  2  1  0
  2  3  1  0
  3  4  1  0
  3  5  1  0
  5  6  1  0
  6  7  2  0
  7  8  1  0
  8  9  1  0
  9 10  1  0
 10 11  2  0
 11 12  1  0
 12 13  2  0
 13 14  1  0
 13 15  1  0
  9 16  2  0
 16  6  1  0
 15 10  1  0
  1 17  1  0
  1 18  1  0
  1 19  1  0
  2 20  1  0
  2 21  1  0
  4 22  1  0
  4 23  1  0
  4 24  1  0
  5 25  1  0
  5 26  1  0
  7 27  1  0
 11 28  1  0
 12 29  1  0
M  END
>  <smiles>  (3) 
CCN(C)Cc1coc(-c2ccc(Br)o2)n1

>  <score_type>  (3) 
oracle

>  <origin>  (3) 
adg

>  <m_score__min__energy>  (3) 
-6.4400000000000004

>  <m_primary>  (3) 
energy

$$$$
4:0
     RDKit          3D

 34 36  0  0  0  0  0  0  0  0999 V2000
   -5.2440   25.7070  -30.5130 C   0  0  0  0  0  0  0  0  0  0  0  0
   -3.8930   25.2790  -30.4850 O   0  0  0  0  0  0  0  0  0  0  0  0
   -3.5720   24.1860  -29.7150 C   0  0  0  0  0  0  0  0  0  0  0  0
   -3.2890   24.2970  -28.3710 C   0  0  0  0  0  0  0  0  0  0  0  0
   -2.9640   23.2270  -27.5640 C   0  0  0  0  0  0  0  0  0  0  0  0
   -2.9310   21.9800  -28.1830 C   0  0  0  0  0  0  0  0  0  0  0  0
   -3.2070   21.8610  -29.5040 C   0  0  0  0  0  0  0  0  0  0  0  0
   -3.5360   22.9550  -30.3130 C   0  0  0  0  0  0  0  0  0  0  0  0
   -3.7910   22.6710  -31.7290 C   0  0  0  0  0  0  0  0  0  0  0  0
   -5.0260   21.9340  -31.8980 N   0  0  0  0  0  0  0  0  0  0  0  0
   -5.2930   20.6140  -32.2870 C   0  0  0  0  0  0  0  0  0  0  0  0
   -4.3540   19.7920  -32.5830 O   0  0  0  0  0  0  0  0  0  0  0  0
   -6.6800   20.2780  -32.3250 C   0  0  0  0  0  0  0  0  0  0  0  0
   -7.2870   19.0540  -32.6610 C   0  0  0  0  0  0  0  0  0  0  0  0
   -8.6590   18.9220  -32.6320 C   0  0  0  0  0  0  0  0  0  0  0  0
   -9.4830   19.9650  -32.2770 C   0  0  0  0  0  0  0  0  0  0  0  0
   -8.9090   21.1710  -31.9440 C   0  0  0  0  0  0  0  0  0  0  0  0
   -7.5190   21.2840  -31.9800 C   0  0  0  0  0  0  0  0  0  0  0  0
   -6.5730   22.7120  -31.6100 S   0  0  0  0  0  0  0  0  0  0  0  0
   -6.8150   23.8470  -32.5210 O   0  0  0  0  0  0  0  0  0  0  0  0
   -6.6580   23.0900  -30.1510 O   0  0  0  0  0  0  0  0  0  0  0  0
   -5.6130   25.8239  -29.4834 H   0  0  0  0  0  0  0  0  0  0  0  0
   -5.3125   26.6708  -31.0387 H   0  0  0  0  0  0  0  0  0  0  0  0
   -5.8550   24.9584  -31.0387 H   0  0  0  0  0  0  0  0  0  0  0  0
   -3.3244   25.2975  -27.9152 H   0  0  0  0  0  0  0  0  0  0  0  0
   -2.7436   23.3513  -26.4935 H   0  0  0  0  0  0  0  0  0  0  0  0
   -2.6790   21.0851  -27.5951 H   0  0  0  0  0  0  0  0  0  0  0  0
   -3.1710   20.8610  -29.9608 H   0  0  0  0  0  0  0  0  0  0  0  0
   -3.8612   23.6210  -32.2791 H   0  0  0  0  0  0  0  0  0  0  0  0
   -2.9631   22.0599  -32.1177 H   0  0  0  0  0  0  0  0  0  0  0  0
   -6.6621   18.1958  -32.9490 H   0  0  0  0  0  0  0  0  0  0  0  0
   -9.1081   17.9544  -32.9006 H   0  0  0  0  0  0  0  0  0  0  0  0
  -10.5755   19.8381  -32.2597 H   0  0  0  0  0  0  0  0  0  0  0  0
   -9.5341   22.0288  -31.6552 H   0  0  0  0  0  0  0  0  0  0  0  0
  1  2  1  0
  2  3  1  0
  3  4  2  0
  4  5  1  0
  5  6  2  0
  6  7  1  0
  7  8  2  0
  8  9  1  0
  9 10  1  0
 10 11  1  0
 11 12  2  0
 11 13  1  0
 13 14  2  0
 14 15  1  0
 15 16  2  0
 16 17  1  0
 17 18  2  0
 18 19  1  0
 19 20  2  0
 19 21  2  0
  8  3  1  0
 19 10  1  0
 18 13  1  0
  1 22  1  0
  1 23  1  0
  1 24  1  0
  4 25  1  0
  5 26  1  0
  6 27  1  0
  7 28  1  0
  9 29  1  0
  9 30  1  0
 14 31  1  0
 15 32  1  0
 16 33  1  0
 17 34  1  0
M  END
>  <smiles>  (4) 
COc1ccccc1CN1C(=O)c2ccccc2S1(=O)=O

>  <score_type>  (4) 
oracle

>  <origin>  (4) 
adg

>  <m_score__min__energy>  (4) 
-8.5999999999999996

>  <m_primary>  (4) 
energy

$$$$
5:0
     RDKit          3D

 33 34  0  0  0  0  0  0  0  0999 V2000
   -3.6100   24.6140  -30.5990 N   0  0  0  0  0  0  0  0  0  0  0  0
   -4.7500   25.5070  -30.4670 C   0  0  0  0  0  0  0  0  0  0  0  0
   -5.7400   24.9530  -29.4430 C   0  0  0  0  0  0  0  0  0  0  0  0
   -7.1180   24.8340  -30.1170 C   0  0  0  0  0  0  0  0  0  0  0  0
   -7.4040   23.6100  -30.5640 N   0  0  0  0  0  0  0  0  0  0  0  0
   -7.7000   22.3310  -31.0330 C   0  0  0  0  0  0  0  0  0  0  0  0
   -8.8130   21.5620  -30.9560 C   0  0  0  0  0  0  0  0  0  0  0  0
   -8.9340   20.2910  -31.5100 C   0  0  0  0  0  0  0  0  0  0  0  0
   -7.8490   19.8010  -32.1720 C   0  0  0  0  0  0  0  0  0  0  0  0
   -7.9160   18.5630  -32.7330 C   0  0  0  0  0  0  0  0  0  0  0  0
   -6.8600   17.9770  -33.4270 C   0  0  0  0  0  0  0  0  0  0  0  0
   -5.6790   18.6850  -33.5590 C   0  0  0  0  0  0  0  0  0  0  0  0
   -5.6070   19.9670  -32.9820 C   0  0  0  0  0  0  0  0  0  0  0  0
   -6.6760   20.5070  -32.3040 C   0  0  0  0  0  0  0  0  0  0  0  0
   -6.6120   21.7410  -31.7440 C   0  0  0  0  0  0  0  0  0  0  0  0
   -5.3870   22.4700  -31.8910 N   0  0  0  0  0  0  0  0  0  0  0  0
   -5.3520   23.4450  -32.6470 O   0  0  0  0  0  0  0  0  0  0  0  0
   -4.2350   22.1340  -31.2210 O   0  0  0  0  0  0  0  0  0  0  0  0
   -3.6210   24.1850  -31.5740 H   0  0  0  0  0  0  0  0  0  0  0  0
   -3.7260   23.8120  -29.9410 H   0  0  0  0  0  0  0  0  0  0  0  0
   -4.4002   26.4959  -30.1358 H   0  0  0  0  0  0  0  0  0  0  0  0
   -5.2528   25.5929  -31.4416 H   0  0  0  0  0  0  0  0  0  0  0  0
   -5.4063   23.9620  -29.1017 H   0  0  0  0  0  0  0  0  0  0  0  0
   -5.8006   25.6241  -28.5735 H   0  0  0  0  0  0  0  0  0  0  0  0
   -7.8864   25.1221  -29.3845 H   0  0  0  0  0  0  0  0  0  0  0  0
   -7.0982   25.4950  -30.9960 H   0  0  0  0  0  0  0  0  0  0  0  0
   -7.0860   23.9970  -31.8150 H   0  0  0  0  0  0  0  0  0  0  0  0
   -9.6812   21.9707  -30.4183 H   0  0  0  0  0  0  0  0  0  0  0  0
   -9.8629   19.7090  -31.4176 H   0  0  0  0  0  0  0  0  0  0  0  0
   -8.8530   17.9955  -32.6332 H   0  0  0  0  0  0  0  0  0  0  0  0
   -6.9631   16.9716  -33.8613 H   0  0  0  0  0  0  0  0  0  0  0  0
   -4.8209   18.2586  -34.0992 H   0  0  0  0  0  0  0  0  0  0  0  0
   -4.6780   20.5486  -33.0749 H   0  0  0  0  0  0  0  0  0  0  0  0
  1  2  1  0
  2  3  1  0
  3  4  1  0
  4  5  1  0
  5  6  1  0
  6  7  2  0
  7  8  1  0
  8  9  2  0
  9 10  1  0
 10 11  2  0
 11 12  1  0
 12 13  2  0
 13 14  1  0
 14 15  2  0
 15 16  1  0
 16 17  2  0
 16 18  1  0
 15  6  1  0
 14  9  1  0
  1 19  1  0
  1 20  1  0
  2 21  1  0
  2 22  1  0
  3 23  1  0
  3 24  1  0
  4 25  1  0
  4 26  1  0
  5 27  1  0
  7 28  1  0
  8 29  1  0
 10 30  1  0
 11 31  1  0
 12 32  1  0
 13 33  1  0
M  CHG  2  16   1  18  -1
M  END
>  <smiles>  (5) 
NCCCNc1ccc2ccccc2c1[N+](=O)[O-]

>  <score_type>  (5) 
oracle

>  <origin>  (5) 
adg

>  <m_score__min__energy>  (5) 
-7.1500000000000004

>  <m_primary>  (5) 
energy

$$$$
6:0
     RDKit          3D

 75 78  0  0  0  0  0  0  0  0999 V2000
    0.5770   22.3460  -27.3810 C   0  0  0  0  0  0  0  0  0  0  0  0
   -0.5510   22.7190  -26.4610 C   0  0  0  0  0  0  0  0  0  0  0  0
   -0.8600   24.1060  -26.4500 N   0  0  0  0  0  0  0  0  0  0  0  0
   -0.7580   24.7870  -25.2040 C   0  0  0  0  0  0  0  0  0  0  0  0
   -0.1190   24.7580  -27.4920 C   0  0  0  0  0  0  0  0  0  0  0  0
   -0.8720   25.8570  -28.1510 C   0  0  0  0  0  0  0  0  0  0  0  0
   -1.9340   25.6600  -28.8820 O   0  0  0  0  0  0  0  0  0  0  0  0
   -2.9480   24.8150  -28.7620 C   0  0  0  0  0  0  0  0  0  0  0  0
   -2.9900   23.7800  -29.8520 C   0  0  0  0  0  0  0  0  0  0  0  0
   -2.0940   22.7460  -29.7000 C   0  0  0  0  0  0  0  0  0  0  0  0
   -2.1140   21.6330  -30.5580 C   0  0  0  0  0  0  0  0  0  0  0  0
   -1.1540   20.6010  -30.2440 C   0  0  0  0  0  0  0  0  0  0  0  0
   -0.1130   20.3590  -31.1430 C   0  0  0  0  0  0  0  0  0  0  0  0
    0.8580   19.4250  -30.9340 C   0  0  0  0  0  0  0  0  0  0  0  0
    0.7840   18.6900  -29.7600 C   0  0  0  0  0  0  0  0  0  0  0  0
   -0.2250   18.8840  -28.8280 C   0  0  0  0  0  0  0  0  0  0  0  0
   -0.2590   18.1360  -27.6510 C   0  0  0  0  0  0  0  0  0  0  0  0
   -1.2550   18.3540  -26.7250 C   0  0  0  0  0  0  0  0  0  0  0  0
   -2.1950   19.3120  -26.9900 C   0  0  0  0  0  0  0  0  0  0  0  0
   -2.1550   20.0500  -28.1640 C   0  0  0  0  0  0  0  0  0  0  0  0
   -1.1710   19.8350  -29.0870 C   0  0  0  0  0  0  0  0  0  0  0  0
   -3.0560   21.6390  -31.5360 C   0  0  0  0  0  0  0  0  0  0  0  0
   -3.9600   22.6950  -31.6780 C   0  0  0  0  0  0  0  0  0  0  0  0
   -3.9590   23.7950  -30.8520 C   0  0  0  0  0  0  0  0  0  0  0  0
   -4.7830   24.8570  -30.9130 O   0  0  0  0  0  0  0  0  0  0  0  0
   -6.0910   24.9790  -30.5790 C   0  0  0  0  0  0  0  0  0  0  0  0
   -6.7810   23.6850  -30.0980 C   0  0  0  0  0  0  0  0  0  0  0  0
   -7.3150   23.0430  -31.3170 C   0  0  0  0  0  0  0  0  0  0  0  0
   -7.6340   21.6180  -31.3680 C   0  0  0  0  0  0  0  0  0  0  0  0
   -7.8230   20.9260  -32.5690 N   0  0  0  0  0  0  0  0  0  0  0  0
   -6.8360   20.0540  -33.0780 C   0  0  0  0  0  0  0  0  0  0  0  0
   -6.5220   18.9130  -32.1140 C   0  0  0  0  0  0  0  0  0  0  0  0
   -7.6910   18.1480  -32.0340 O   0  0  0  0  0  0  0  0  0  0  0  0
   -8.7380   18.9150  -31.5930 C   0  0  0  0  0  0  0  0  0  0  0  0
   -9.0580   20.1060  -32.4550 C   0  0  0  0  0  0  0  0  0  0  0  0
    1.4551   22.0556  -26.7855 H   0  0  0  0  0  0  0  0  0  0  0  0
    0.2688   21.5019  -28.0155 H   0  0  0  0  0  0  0  0  0  0  0  0
    0.8328   23.2074  -28.0155 H   0  0  0  0  0  0  0  0  0  0  0  0
   -1.4495   22.1680  -26.7759 H   0  0  0  0  0  0  0  0  0  0  0  0
   -0.2268   22.4595  -25.4424 H   0  0  0  0  0  0  0  0  0  0  0  0
   -0.8662   24.0647  -24.3814 H   0  0  0  0  0  0  0  0  0  0  0  0
    0.2237   25.2782  -25.1339 H   0  0  0  0  0  0  0  0  0  0  0  0
   -1.5527   25.5443  -25.1339 H   0  0  0  0  0  0  0  0  0  0  0  0
    0.8003   25.1769  -27.0568 H   0  0  0  0  0  0  0  0  0  0  0  0
    0.0935   24.0019  -28.2621 H   0  0  0  0  0  0  0  0  0  0  0  0
   -1.1836   26.5355  -27.3432 H   0  0  0  0  0  0  0  0  0  0  0  0
   -0.1475   26.1924  -28.9077 H   0  0  0  0  0  0  0  0  0  0  0  0
   -2.8608   24.2997  -27.7941 H   0  0  0  0  0  0  0  0  0  0  0  0
   -3.8742   25.4040  -28.8352 H   0  0  0  0  0  0  0  0  0  0  0  0
   -1.3487   22.7917  -28.8922 H   0  0  0  0  0  0  0  0  0  0  0  0
   -0.0745   20.9530  -32.0680 H   0  0  0  0  0  0  0  0  0  0  0  0
    1.6644   19.2616  -31.6641 H   0  0  0  0  0  0  0  0  0  0  0  0
    1.5514   17.9274  -29.5613 H   0  0  0  0  0  0  0  0  0  0  0  0
    0.5097   17.3721  -27.4624 H   0  0  0  0  0  0  0  0  0  0  0  0
   -1.2938   17.7708  -25.7931 H   0  0  0  0  0  0  0  0  0  0  0  0
   -2.9960   19.5003  -26.2599 H   0  0  0  0  0  0  0  0  0  0  0  0
   -2.9224   20.8150  -28.3534 H   0  0  0  0  0  0  0  0  0  0  0  0
   -3.1088   20.7908  -32.2344 H   0  0  0  0  0  0  0  0  0  0  0  0
   -4.7051   22.6445  -32.4857 H   0  0  0  0  0  0  0  0  0  0  0  0
   -6.1660   25.7225  -29.7718 H   0  0  0  0  0  0  0  0  0  0  0  0
   -6.6111   25.2711  -31.5032 H   0  0  0  0  0  0  0  0  0  0  0  0
   -6.0547   23.0239  -29.6025 H   0  0  0  0  0  0  0  0  0  0  0  0
   -7.5757   23.8949  -29.3670 H   0  0  0  0  0  0  0  0  0  0  0  0
   -8.2458   23.5754  -31.5622 H   0  0  0  0  0  0  0  0  0  0  0  0
   -6.4605   23.1120  -32.0063 H   0  0  0  0  0  0  0  0  0  0  0  0
   -6.8129   21.1039  -30.8469 H   0  0  0  0  0  0  0  0  0  0  0  0
   -8.6474   21.6019  -30.9406 H   0  0  0  0  0  0  0  0  0  0  0  0
   -7.1949   19.6278  -34.0264 H   0  0  0  0  0  0  0  0  0  0  0  0
   -5.9141   20.6360  -33.2241 H   0  0  0  0  0  0  0  0  0  0  0  0
   -5.6913   18.3037  -32.4995 H   0  0  0  0  0  0  0  0  0  0  0  0
   -6.2168   19.2899  -31.1267 H   0  0  0  0  0  0  0  0  0  0  0  0
   -9.6329   18.2770  -31.5458 H   0  0  0  0  0  0  0  0  0  0  0  0
   -8.4363   19.3151  -30.6137 H   0  0  0  0  0  0  0  0  0  0  0  0
   -9.3789   19.7712  -33.4525 H   0  0  0  0  0  0  0  0  0  0  0  0
   -9.8727   20.6961  -32.0100 H   0  0  0  0  0  0  0  0  0  0  0  0
  1  2  1  0
  2  3  1  0
  3  4  1  0
  3  5  1  0
  5  6  1  0
  6  7  1  0
  7  8  1  0
  8  9  1  0
  9 10  2  0
 10 11  1  0
 11 12  1  0
 12 13  2  0
 13 14  1  0
 14 15  2  0
 15 16  1  0
 16 17  2  0
 17 18  1  0
 18 19  2  0
 19 20  1  0
 20 21  2  0
 11 22  2  0
 22 23  1  0
 23 24  2  0
 24 25  1  0
 25 26  1  0
 26 27  1  0
 27 28  1  0
 28 29  1  0
 29 30  1  0
 30 31  1  0
 31 32  1  0
 32 33  1  0
 33 34  1  0
 34 35  1  0
 24  9  1  0
 35 30  1  0
 21 12  1  0
 21 16  1  0
  1 36  1  0
  1 37  1  0
  1 38  1  0
  2 39  1  0
  2 40  1  0
  4 41  1  0
  4 42  1  0
  4 43  1  0
  5 44  1  0
  5 45  1  0
  6 46  1  0
  6 47  1  0
  8 48  1  0
  8 49  1  0
 10 50  1  0
 13 51  1  0
 14 52  1  0
 15 53  1  0
 17 54  1  0
 18 55  1  0
 19 56  1  0
 20 57  1  0
 22 58  1  0
 23 59  1  0
 26 60  1  0
 26 61  1  0
 27 62  1  0
 27 63  1  0
 28 64  1  0
 28 65  1  0
 29 66  1  0
 29 67  1  0
 31 68  1  0
 31 69  1  0
 32 70  1  0
 32 71  1  0
 34 72  1  0
 34 73  1  0
 35 74  1  0
 35 75  1  0
M  END
>  <smiles>  (6) 
CCN(C)CCOCc1cc(-c2cccc3ccccc23)ccc1OCCCCN1CCOCC1

>  <score_type>  (6) 
oracle

>  <origin>  (6) 
adg

>  <m_score__min__energy>  (6) 
-10.15

>  <m_primary>  (6) 
energy

$$$$
7:0
     RDKit          3D

 56 59  0  0  1  0  0  0  0  0999 V2000
   -1.9080   25.0500  -27.9490 C   0  0  0  0  0  0  0  0  0  0  0  0
   -2.3770   25.1190  -29.2780 O   0  0  0  0  0  0  0  0  0  0  0  0
   -2.6100   23.9250  -29.9470 C   0  0  0  0  0  0  0  0  0  0  0  0
   -1.7460   22.8430  -29.7570 C   0  0  0  0  0  0  0  0  0  0  0  0
   -2.0330   21.7060  -30.4410 C   0  0  0  0  0  0  0  0  0  0  0  0
   -3.1250   21.5740  -31.3040 C   0  0  0  0  0  0  0  0  0  0  0  0
   -3.9740   22.6370  -31.4920 C   0  0  0  0  0  0  0  0  0  0  0  0
   -3.6920   23.8040  -30.7980 C   0  0  0  0  0  0  0  0  0  0  0  0
   -4.5080   24.9120  -30.9430 O   0  0  0  0  0  0  0  0  0  0  0  0
   -5.5620   25.0990  -30.0400 C   0  0  0  0  0  0  0  0  0  0  0  0
   -3.2800   20.2500  -31.9490 C   0  0  1  0  0  0  0  0  0  0  0  0
   -4.3790   20.2610  -32.9910 C   0  0  0  0  0  0  0  0  0  0  0  0
   -4.6940   18.8650  -33.3550 C   0  0  0  0  0  0  0  0  0  0  0  0
   -3.9380   18.3060  -34.3840 C   0  0  0  0  0  0  0  0  0  0  0  0
   -4.1740   17.0350  -34.8630 C   0  0  0  0  0  0  0  0  0  0  0  0
   -5.2020   16.3310  -34.2730 C   0  0  0  0  0  0  0  0  0  0  0  0
   -5.9580   16.8770  -33.2510 C   0  0  0  0  0  0  0  0  0  0  0  0
   -5.7340   18.1490  -32.7570 C   0  0  0  0  0  0  0  0  0  0  0  0
   -6.4860   18.7020  -31.6370 C   0  0  0  0  0  0  0  0  0  0  0  0
   -7.6890   19.2140  -31.7230 C   0  0  0  0  0  0  0  0  0  0  0  0
   -7.9810   20.6380  -31.8170 C   0  0  0  0  0  0  0  0  0  0  0  0
   -6.9370   21.5730  -31.8680 C   0  0  0  0  0  0  0  0  0  0  0  0
   -7.1800   22.9270  -31.9570 C   0  0  0  0  0  0  0  0  0  0  0  0
   -8.4650   23.4260  -32.0020 C   0  0  0  0  0  0  0  0  0  0  0  0
   -9.4920   22.5170  -31.9520 C   0  0  0  0  0  0  0  0  0  0  0  0
   -9.2480   21.1620  -31.8630 C   0  0  0  0  0  0  0  0  0  0  0  0
   -2.0590   19.7990  -32.5080 N   0  0  0  0  0  0  0  0  0  0  0  0
   -0.8570   20.1760  -31.8320 C   0  0  0  0  0  0  0  0  0  0  0  0
   -1.1900   20.4510  -30.3670 C   0  0  0  0  0  0  0  0  0  0  0  0
   -2.7525   25.1742  -27.2552 H   0  0  0  0  0  0  0  0  0  0  0  0
   -1.4337   24.0724  -27.7779 H   0  0  0  0  0  0  0  0  0  0  0  0
   -1.1722   25.8496  -27.7779 H   0  0  0  0  0  0  0  0  0  0  0  0
   -0.8765   22.9094  -29.0865 H   0  0  0  0  0  0  0  0  0  0  0  0
   -4.8413   22.5657  -32.1648 H   0  0  0  0  0  0  0  0  0  0  0  0
   -5.1795   25.0311  -29.0109 H   0  0  0  0  0  0  0  0  0  0  0  0
   -6.0103   26.0907  -30.1999 H   0  0  0  0  0  0  0  0  0  0  0  0
   -6.3241   24.3220  -30.1999 H   0  0  0  0  0  0  0  0  0  0  0  0
   -3.5733   19.5404  -31.1613 H   0  0  0  0  0  0  0  0  0  0  0  0
   -5.2753   20.7484  -32.5798 H   0  0  0  0  0  0  0  0  0  0  0  0
   -4.0489   20.8171  -33.8809 H   0  0  0  0  0  0  0  0  0  0  0  0
   -3.1255   18.8991  -34.8290 H   0  0  0  0  0  0  0  0  0  0  0  0
   -3.5716   16.6037  -35.6761 H   0  0  0  0  0  0  0  0  0  0  0  0
   -5.4262   15.3124  -34.6226 H   0  0  0  0  0  0  0  0  0  0  0  0
   -6.7690   16.2757  -32.8143 H   0  0  0  0  0  0  0  0  0  0  0  0
   -6.0080   18.6884  -30.6464 H   0  0  0  0  0  0  0  0  0  0  0  0
   -8.5406   18.5177  -31.7243 H   0  0  0  0  0  0  0  0  0  0  0  0
   -5.8968   21.2166  -31.8361 H   0  0  0  0  0  0  0  0  0  0  0  0
   -6.3304   23.6248  -31.9929 H   0  0  0  0  0  0  0  0  0  0  0  0
   -8.6584   24.5064  -32.0749 H   0  0  0  0  0  0  0  0  0  0  0  0
  -10.5312   22.8762  -31.9835 H   0  0  0  0  0  0  0  0  0  0  0  0
  -10.1049   20.4732  -31.8275 H   0  0  0  0  0  0  0  0  0  0  0  0
   -2.0460   18.7350  -32.6360 H   0  0  0  0  0  0  0  0  0  0  0  0
   -0.1224   19.3599  -31.8986 H   0  0  0  0  0  0  0  0  0  0  0  0
   -0.4302   21.0770  -32.2968 H   0  0  0  0  0  0  0  0  0  0  0  0
   -1.7582   19.6181  -29.9273 H   0  0  0  0  0  0  0  0  0  0  0  0
   -0.2983   20.5637  -29.7329 H   0  0  0  0  0  0  0  0  0  0  0  0
  1  2  1  0
  2  3  1  0
  3  4  2  0
  4  5  1  0
  5  6  2  0
  6  7  1  0
  7  8  2  0
  8  9  1  0
  9 10  1  0
  6 11  1  0
 11 12  1  0
 12 13  1  0
 13 14  2  0
 14 15  1  0
 15 16  2  0
 16 17  1  0
 17 18  2  0
 18 19  1  0
 19 20  2  0
 20 21  1  0
 21 22  2  0
 22 23  1  0
 23 24  2  0
 24 25  1  0
 25 26  2  0
 11 27  1  0
 27 28  1  0
 28 29  1  0
  8  3  1  0
 18 13  1  0
 26 21  1  0
 29  5  1  0
  1 30  1  0
  1 31  1  0
  1 32  1  0
  4 33  1  0
  7 34  1  0
 10 35  1  0
 10 36  1  0
 10 37  1  0
 11 38  1  1
 12 39  1  0
 12 40  1  0
 14 41  1  0
 15 42  1  0
 16 43  1  0
 17 44  1  0
 19 45  1  0
 20 46  1  0
 22 47  1  0
 23 48  1  0
 24 49  1  0
 25 50  1  0
 26 51  1  0
 27 52  1  0
 28 53  1  0
 28 54  1  0
 29 55  1  0
 29 56  1  0
M  END
>  <smiles>  (7) 
COc1cc2c(cc1OC)C(Cc1ccccc1C=Cc1ccccc1)NCC2

>  <score_type>  (7) 
oracle

>  <origin>  (7) 
adg

>  <m_score__min__energy>  (7) 
-10.460000000000001

>  <m_primary>  (7) 
energy

$$$$
8:0
     RDKit          3D

 55 57  0  0  0  0  0  0  0  0999 V2000
   -6.3980   26.0120  -29.3860 C   0  0  0  0  0  0  0  0  0  0  0  0
   -5.4480   25.0600  -30.0240 C   0  0  0  0  0  0  0  0  0  0  0  0
   -4.5910   25.4820  -30.8440 O   0  0  0  0  0  0  0  0  0  0  0  0
   -5.4960   23.6830  -29.7180 N   0  0  0  0  0  0  0  0  0  0  0  0
   -4.5950   22.7580  -30.3190 C   0  0  0  0  0  0  0  0  0  0  0  0
   -4.5160   22.6410  -31.6940 C   0  0  0  0  0  0  0  0  0  0  0  0
   -3.6530   21.7550  -32.3200 C   0  0  0  0  0  0  0  0  0  0  0  0
   -2.8520   20.9680  -31.4980 C   0  0  0  0  0  0  0  0  0  0  0  0
   -1.9270   20.0210  -32.0130 N   0  0  0  0  0  0  0  0  0  0  0  0
   -0.5540   20.4010  -32.0330 C   0  0  0  0  0  0  0  0  0  0  0  0
   -0.2600   21.5480  -31.5930 O   0  0  0  0  0  0  0  0  0  0  0  0
    0.5220   19.5070  -32.5460 C   0  0  0  0  0  0  0  0  0  0  0  0
    0.4390   18.1730  -31.9880 N   0  0  0  0  0  0  0  0  0  0  0  0
    1.2360   17.8430  -30.8200 C   0  0  0  0  0  0  0  0  0  0  0  0
   -0.3880   17.1490  -32.5230 C   0  0  0  0  0  0  0  0  0  0  0  0
   -0.5180   16.0140  -31.9680 O   0  0  0  0  0  0  0  0  0  0  0  0
   -1.1160   17.4550  -33.7830 C   0  0  0  0  0  0  0  0  0  0  0  0
   -2.5190   17.4440  -33.5900 O   0  0  0  0  0  0  0  0  0  0  0  0
   -3.4060   18.2680  -34.2260 C   0  0  0  0  0  0  0  0  0  0  0  0
   -3.1300   19.5110  -34.2800 O   0  0  0  0  0  0  0  0  0  0  0  0
   -4.6620   17.8330  -34.8590 C   0  0  0  0  0  0  0  0  0  0  0  0
   -5.7780   17.7610  -33.9690 N   0  0  0  0  0  0  0  0  0  0  0  0
   -6.3470   16.5850  -33.5880 C   0  0  0  0  0  0  0  0  0  0  0  0
   -7.3650   16.8020  -32.7590 N   0  0  0  0  0  0  0  0  0  0  0  0
   -7.4840   18.1350  -32.5800 C   0  0  0  0  0  0  0  0  0  0  0  0
   -8.3340   18.9270  -31.8490 C   0  0  0  0  0  0  0  0  0  0  0  0
   -8.2180   20.3110  -31.8550 C   0  0  0  0  0  0  0  0  0  0  0  0
   -7.2020   20.8740  -32.6330 C   0  0  0  0  0  0  0  0  0  0  0  0
   -6.3450   20.0830  -33.3690 C   0  0  0  0  0  0  0  0  0  0  0  0
   -6.4860   18.7100  -33.3420 C   0  0  0  0  0  0  0  0  0  0  0  0
   -2.9290   21.0820  -30.1210 C   0  0  0  0  0  0  0  0  0  0  0  0
   -3.7850   21.9620  -29.4990 C   0  0  0  0  0  0  0  0  0  0  0  0
   -6.3180   25.9319  -28.2918 H   0  0  0  0  0  0  0  0  0  0  0  0
   -6.1532   27.0382  -29.6973 H   0  0  0  0  0  0  0  0  0  0  0  0
   -7.4247   25.7694  -29.6973 H   0  0  0  0  0  0  0  0  0  0  0  0
   -6.2190   23.3620  -29.0330 H   0  0  0  0  0  0  0  0  0  0  0  0
   -5.1636   23.2762  -32.3162 H   0  0  0  0  0  0  0  0  0  0  0  0
   -3.6036   21.6776  -33.4162 H   0  0  0  0  0  0  0  0  0  0  0  0
   -2.2040   19.0780  -32.3700 H   0  0  0  0  0  0  0  0  0  0  0  0
    0.4340   19.4391  -33.6404 H   0  0  0  0  0  0  0  0  0  0  0  0
    1.4891   19.9378  -32.2474 H   0  0  0  0  0  0  0  0  0  0  0  0
    0.6665   18.0788  -29.9089 H   0  0  0  0  0  0  0  0  0  0  0  0
    1.4791   16.7703  -30.8331 H   0  0  0  0  0  0  0  0  0  0  0  0
    2.1662   18.4299  -30.8331 H   0  0  0  0  0  0  0  0  0  0  0  0
   -0.8122   18.4508  -34.1380 H   0  0  0  0  0  0  0  0  0  0  0  0
   -0.8642   16.6807  -34.5227 H   0  0  0  0  0  0  0  0  0  0  0  0
   -4.9072   18.5444  -35.6613 H   0  0  0  0  0  0  0  0  0  0  0  0
   -4.4895   16.8116  -35.2292 H   0  0  0  0  0  0  0  0  0  0  0  0
   -6.0114   15.5914  -33.9198 H   0  0  0  0  0  0  0  0  0  0  0  0
   -9.1238   18.4556  -31.2457 H   0  0  0  0  0  0  0  0  0  0  0  0
   -8.9016   20.9421  -31.2681 H   0  0  0  0  0  0  0  0  0  0  0  0
   -7.0841   21.9674  -32.6585 H   0  0  0  0  0  0  0  0  0  0  0  0
   -5.5518   20.5445  -33.9755 H   0  0  0  0  0  0  0  0  0  0  0  0
   -2.2816   20.4452  -29.5002 H   0  0  0  0  0  0  0  0  0  0  0  0
   -3.8312   22.0372  -28.4025 H   0  0  0  0  0  0  0  0  0  0  0  0
  1  2  1  0
  2  3  2  0
  2  4  1  0
  4  5  1  0
  5  6  2  0
  6  7  1  0
  7  8  2  0
  8  9  1  0
  9 10  1  0
 10 11  2  0
 10 12  1  0
 12 13  1  0
 13 14  1  0
 13 15  1  0
 15 16  2  0
 15 17  1  0
 17 18  1  0
 18 19  1  0
 19 20  2  0
 19 21  1  0
 21 22  1  0
 22 23  1  0
 23 24  2  0
 24 25  1  0
 25 26  2  0
 26 27  1  0
 27 28  2  0
 28 29  1  0
 29 30  2  0
  8 31  1  0
 31 32  2  0
 32  5  1  0
 30 22  1  0
 30 25  1  0
  1 33  1  0
  1 34  1  0
  1 35  1  0
  4 36  1  0
  6 37  1  0
  7 38  1  0
  9 39  1  0
 12 40  1  0
 12 41  1  0
 14 42  1  0
 14 43  1  0
 14 44  1  0
 17 45  1  0
 17 46  1  0
 21 47  1  0
 21 48  1  0
 23 49  1  0
 26 50  1  0
 27 51  1  0
 28 52  1  0
 29 53  1  0
 31 54  1  0
 32 55  1  0
M  END
>  <smiles>  (8) 
CC(=O)Nc1ccc(NC(=O)CN(C)C(=O)COC(=O)Cn2cnc3ccccc32)cc1

>  <score_type>  (8) 
oracle

>  <origin>  (8) 
adg

>  <m_score__min__energy>  (8) 
-8.6699999999999999

>  <m_primary>  (8) 
energy

$$$$
9:0
     RDKit          3D

 45 48  0  0  0  0  0  0  0  0999 V2000
   -0.6880   21.0650  -30.9490 F   0  0  0  0  0  0  0  0  0  0  0  0
   -1.8110   21.8250  -30.9610 C   0  0  0  0  0  0  0  0  0  0  0  0
   -2.7810   21.5520  -31.9070 C   0  0  0  0  0  0  0  0  0  0  0  0
   -3.9110   22.3340  -31.9030 C   0  0  0  0  0  0  0  0  0  0  0  0
   -4.0670   23.3630  -30.9740 C   0  0  0  0  0  0  0  0  0  0  0  0
   -5.3240   24.1390  -31.0630 C   0  0  0  0  0  0  0  0  0  0  0  0
   -6.4770   23.3030  -31.1650 N   0  0  0  0  0  0  0  0  0  0  0  0
   -7.2270   23.4100  -32.3600 C   0  0  0  0  0  0  0  0  0  0  0  0
   -8.6970   23.1350  -32.2090 C   0  0  0  0  0  0  0  0  0  0  0  0
   -9.0370   22.1030  -31.2820 N   0  0  0  0  0  0  0  0  0  0  0  0
   -9.4680   20.8750  -31.8870 C   0  0  0  0  0  0  0  0  0  0  0  0
   -8.3690   20.0060  -32.3550 C   0  0  0  0  0  0  0  0  0  0  0  0
   -8.5010   18.7040  -32.7140 N   0  0  0  0  0  0  0  0  0  0  0  0
   -7.2890   18.2250  -33.0910 C   0  0  0  0  0  0  0  0  0  0  0  0
   -6.8140   17.0130  -33.5400 C   0  0  0  0  0  0  0  0  0  0  0  0
   -5.4880   16.7910  -33.8630 C   0  0  0  0  0  0  0  0  0  0  0  0
   -4.6040   17.8480  -33.7210 C   0  0  0  0  0  0  0  0  0  0  0  0
   -5.0760   19.0640  -33.2720 C   0  0  0  0  0  0  0  0  0  0  0  0
   -6.4040   19.2690  -32.9540 C   0  0  0  0  0  0  0  0  0  0  0  0
   -7.0830   20.3590  -32.5010 N   0  0  0  0  0  0  0  0  0  0  0  0
   -8.1360   21.9300  -30.1900 C   0  0  0  0  0  0  0  0  0  0  0  0
   -7.2470   23.1470  -29.9710 C   0  0  0  0  0  0  0  0  0  0  0  0
   -3.0900   23.6340  -30.0250 C   0  0  0  0  0  0  0  0  0  0  0  0
   -1.9500   22.8400  -30.0340 C   0  0  0  0  0  0  0  0  0  0  0  0
   -2.6531   20.7386  -32.6364 H   0  0  0  0  0  0  0  0  0  0  0  0
   -4.7034   22.1460  -32.6424 H   0  0  0  0  0  0  0  0  0  0  0  0
   -5.4186   24.7618  -30.1613 H   0  0  0  0  0  0  0  0  0  0  0  0
   -5.2742   24.7522  -31.9749 H   0  0  0  0  0  0  0  0  0  0  0  0
   -7.1083   24.4324  -32.7480 H   0  0  0  0  0  0  0  0  0  0  0  0
   -6.8363   22.6391  -33.0406 H   0  0  0  0  0  0  0  0  0  0  0  0
   -9.1831   24.0637  -31.8756 H   0  0  0  0  0  0  0  0  0  0  0  0
   -9.0412   22.7830  -33.1927 H   0  0  0  0  0  0  0  0  0  0  0  0
  -10.0576   20.3150  -31.1462 H   0  0  0  0  0  0  0  0  0  0  0  0
  -10.0502   21.1519  -32.7783 H   0  0  0  0  0  0  0  0  0  0  0  0
   -7.5246   16.1802  -33.6470 H   0  0  0  0  0  0  0  0  0  0  0  0
   -5.1467   15.8083  -34.2206 H   0  0  0  0  0  0  0  0  0  0  0  0
   -3.5388   17.7193  -33.9633 H   0  0  0  0  0  0  0  0  0  0  0  0
   -4.3694   19.9000  -33.1634 H   0  0  0  0  0  0  0  0  0  0  0  0
   -6.6140   21.2610  -32.3270 H   0  0  0  0  0  0  0  0  0  0  0  0
   -8.7201   21.7503  -29.2754 H   0  0  0  0  0  0  0  0  0  0  0  0
   -7.4833   21.0767  -30.4263 H   0  0  0  0  0  0  0  0  0  0  0  0
   -7.8627   24.0415  -29.7955 H   0  0  0  0  0  0  0  0  0  0  0  0
   -6.5987   23.0149  -29.0922 H   0  0  0  0  0  0  0  0  0  0  0  0
   -3.2140   24.4465  -29.2939 H   0  0  0  0  0  0  0  0  0  0  0  0
   -1.1526   23.0207  -29.2981 H   0  0  0  0  0  0  0  0  0  0  0  0
  1  2  1  0
  2  3  2  0
  3  4  1  0
  4  5  2  0
  5  6  1  0
  6  7  1  0
  7  8  1  0
  8  9  1  0
  9 10  1  0
 10 11  1  0
 11 12  1  0
 12 13  2  0
 13 14  1  0
 14 15  2  0
 15 16  1  0
 16 17  2  0
 17 18  1  0
 18 19  2  0
 19 20  1  0
 10 21  1  0
 21 22  1  0
  5 23  1  0
 23 24  2  0
 24  2  1  0
 22  7  1  0
 20 12  1  0
 19 14  1  0
  3 25  1  0
  4 26  1  0
  6 27  1  0
  6 28  1  0
  8 29  1  0
  8 30  1  0
  9 31  1  0
  9 32  1  0
 11 33  1  0
 11 34  1  0
 15 35  1  0
 16 36  1  0
 17 37  1  0
 18 38  1  0
 20 39  1  0
 21 40  1  0
 21 41  1  0
 22 42  1  0
 22 43  1  0
 23 44  1  0
 24 45  1  0
M  END
>  <smiles>  (9) 
Fc1ccc(CN2CCN(Cc3nc4ccccc4[nH]3)CC2)cc1

>  <score_type>  (9) 
oracle

>  <origin>  (9) 
adg

>  <m_score__min__energy>  (9) 
-9.0600000000000005

>  <m_primary>  (9) 
energy

$$$$
10:0
     RDKit          3D

 25 26  0  0  0  0  0  0  0  0999 V2000
   -4.5930   24.0980  -28.8690 C   0  0  0  0  0  0  0  0  0  0  0  0
   -4.8520   24.9480  -30.1180 C   0  0  0  0  0  0  0  0  0  0  0  0
   -4.6560   24.1160  -31.2180 O   0  0  0  0  0  0  0  0  0  0  0  0
   -5.4570   23.0420  -31.5810 C   0  0  0  0  0  0  0  0  0  0  0  0
   -4.8160   21.9310  -31.9660 C   0  0  0  0  0  0  0  0  0  0  0  0
   -2.8900   21.9220  -31.9810 Br  0  0  0  0  0  0  0  0  0  0  0  0
   -5.5650   20.7290  -32.3740 C   0  0  0  0  0  0  0  0  0  0  0  0
   -4.9510   19.6700  -32.7410 O   0  0  0  0  0  0  0  0  0  0  0  0
   -7.0250   20.7860  -32.3460 C   0  0  0  0  0  0  0  0  0  0  0  0
   -7.7420   19.6550  -32.7290 C   0  0  0  0  0  0  0  0  0  0  0  0
   -9.1220   19.6760  -32.7140 C   0  0  0  0  0  0  0  0  0  0  0  0
   -9.7950   20.8300  -32.3150 C   0  0  0  0  0  0  0  0  0  0  0  0
   -9.1000   21.9740  -31.9270 C   0  0  0  0  0  0  0  0  0  0  0  0
   -7.7160   21.9140  -31.9550 C   0  0  0  0  0  0  0  0  0  0  0  0
   -6.9150   23.0890  -31.5570 C   0  0  0  0  0  0  0  0  0  0  0  0
   -7.4990   24.1360  -31.1950 O   0  0  0  0  0  0  0  0  0  0  0  0
   -4.7774   24.7030  -27.9690 H   0  0  0  0  0  0  0  0  0  0  0  0
   -5.2670   23.2287  -28.8708 H   0  0  0  0  0  0  0  0  0  0  0  0
   -3.5487   23.7523  -28.8708 H   0  0  0  0  0  0  0  0  0  0  0  0
   -5.8841   25.3285  -30.1099 H   0  0  0  0  0  0  0  0  0  0  0  0
   -4.1758   25.8149  -30.1530 H   0  0  0  0  0  0  0  0  0  0  0  0
   -7.2088   18.7456  -33.0432 H   0  0  0  0  0  0  0  0  0  0  0  0
   -9.6899   18.7838  -33.0163 H   0  0  0  0  0  0  0  0  0  0  0  0
  -10.8949   20.8377  -32.3063 H   0  0  0  0  0  0  0  0  0  0  0  0
   -9.6279   22.8861  -31.6118 H   0  0  0  0  0  0  0  0  0  0  0  0
  1  2  1  0
  2  3  1  0
  3  4  1  0
  4  5  2  0
  5  6  1  0
  5  7  1  0
  7  8  2  0
  7  9  1  0
  9 10  2  0
 10 11  1  0
 11 12  2  0
 12 13  1  0
 13 14  2  0
 14 15  1  0
 15 16  2  0
 15  4  1  0
 14  9  1  0
  1 17  1  0
  1 18  1  0
  1 19  1  0
  2 20  1  0
  2 21  1  0
 10 22  1  0
 11 23  1  0
 12 24  1  0
 13 25  1  0
M  END
>  <smiles>  (10) 
CCOC1=C(Br)C(=O)c2ccccc2C1=O

>  <score_type>  (10) 
oracle

>  <origin>  (10) 
adg

>  <m_score__min__energy>  (10) 
-7.0599999999999996

>  <m_primary>  (10) 
energy

$$$$
11:0
     RDKit          3D

 53 57  0  0  0  0  0  0  0  0999 V2000
   -5.1450   18.6420  -34.0100 C   0  0  0  0  0  0  0  0  0  0  0  0
   -5.0540   19.7970  -33.0670 C   0  0  0  0  0  0  0  0  0  0  0  0
   -6.4040   20.2070  -32.6560 C   0  0  0  0  0  0  0  0  0  0  0  0
   -7.5590   19.6280  -33.1240 C   0  0  0  0  0  0  0  0  0  0  0  0
   -8.8010   20.0530  -32.7000 C   0  0  0  0  0  0  0  0  0  0  0  0
   -8.9520   21.0900  -31.7720 C   0  0  0  0  0  0  0  0  0  0  0  0
   -7.7720   21.6590  -31.3120 C   0  0  0  0  0  0  0  0  0  0  0  0
   -7.8980   22.6980  -30.3850 C   0  0  0  0  0  0  0  0  0  0  0  0
   -6.7670   23.3130  -29.8830 C   0  0  0  0  0  0  0  0  0  0  0  0
   -5.5120   22.8820  -30.3150 C   0  0  0  0  0  0  0  0  0  0  0  0
   -4.2700   23.4730  -29.8340 C   0  0  0  0  0  0  0  0  0  0  0  0
   -3.7670   24.6210  -30.3670 N   0  0  0  0  0  0  0  0  0  0  0  0
   -2.6530   24.8730  -29.6990 N   0  0  0  0  0  0  0  0  0  0  0  0
   -2.4410   23.9230  -28.7670 C   0  0  0  0  0  0  0  0  0  0  0  0
   -1.2690   23.9590  -27.8530 C   0  0  0  0  0  0  0  0  0  0  0  0
   -1.2250   25.2410  -27.1150 C   0  0  0  0  0  0  0  0  0  0  0  0
   -0.5910   26.3020  -27.7700 C   0  0  0  0  0  0  0  0  0  0  0  0
   -0.4880   27.5520  -27.1710 C   0  0  0  0  0  0  0  0  0  0  0  0
   -1.0110   27.7690  -25.9140 C   0  0  0  0  0  0  0  0  0  0  0  0
   -0.8640   29.3440  -25.1890 Cl  0  0  0  0  0  0  0  0  0  0  0  0
   -1.6460   26.7050  -25.2580 C   0  0  0  0  0  0  0  0  0  0  0  0
   -1.7450   25.4540  -25.8650 C   0  0  0  0  0  0  0  0  0  0  0  0
    0.0530   23.5600  -28.3830 C   0  0  0  0  0  0  0  0  0  0  0  0
    0.1770   22.5690  -27.2370 C   0  0  0  0  0  0  0  0  0  0  0  0
   -1.2450   22.8330  -26.8390 C   0  0  0  0  0  0  0  0  0  0  0  0
   -3.4480   23.0410  -28.8450 N   0  0  0  0  0  0  0  0  0  0  0  0
   -3.6500   21.8680  -28.0510 C   0  0  0  0  0  0  0  0  0  0  0  0
   -5.4330   21.8590  -31.2270 C   0  0  0  0  0  0  0  0  0  0  0  0
   -6.5320   21.2270  -31.7440 C   0  0  0  0  0  0  0  0  0  0  0  0
   -5.2188   17.7059  -33.4371 H   0  0  0  0  0  0  0  0  0  0  0  0
   -6.0370   18.7554  -34.6436 H   0  0  0  0  0  0  0  0  0  0  0  0
   -4.2463   18.6143  -34.6436 H   0  0  0  0  0  0  0  0  0  0  0  0
   -4.4758   19.5001  -32.1796 H   0  0  0  0  0  0  0  0  0  0  0  0
   -4.5540   20.6387  -33.5684 H   0  0  0  0  0  0  0  0  0  0  0  0
   -7.4917   18.8071  -33.8531 H   0  0  0  0  0  0  0  0  0  0  0  0
   -9.6993   19.5625  -33.1031 H   0  0  0  0  0  0  0  0  0  0  0  0
   -9.9401   21.4315  -31.4298 H   0  0  0  0  0  0  0  0  0  0  0  0
   -8.8953   23.0252  -30.0560 H   0  0  0  0  0  0  0  0  0  0  0  0
   -6.8547   24.1311  -29.1529 H   0  0  0  0  0  0  0  0  0  0  0  0
   -0.1680   26.1449  -28.7732 H   0  0  0  0  0  0  0  0  0  0  0  0
    0.0140   28.3734  -27.7033 H   0  0  0  0  0  0  0  0  0  0  0  0
   -2.0701   26.8588  -24.2548 H   0  0  0  0  0  0  0  0  0  0  0  0
   -2.2454   24.6298  -25.3355 H   0  0  0  0  0  0  0  0  0  0  0  0
    0.0214   23.0982  -29.3809 H   0  0  0  0  0  0  0  0  0  0  0  0
    0.8370   24.3076  -28.5741 H   0  0  0  0  0  0  0  0  0  0  0  0
    0.3667   21.5344  -27.5589 H   0  0  0  0  0  0  0  0  0  0  0  0
    0.9862   22.6753  -26.4995 H   0  0  0  0  0  0  0  0  0  0  0  0
   -1.9401   22.0086  -27.0563 H   0  0  0  0  0  0  0  0  0  0  0  0
   -1.5237   23.0023  -25.7884 H   0  0  0  0  0  0  0  0  0  0  0  0
   -3.6041   22.1346  -26.9848 H   0  0  0  0  0  0  0  0  0  0  0  0
   -4.6357   21.4362  -28.2789 H   0  0  0  0  0  0  0  0  0  0  0  0
   -2.8655   21.1314  -28.2789 H   0  0  0  0  0  0  0  0  0  0  0  0
   -4.4370   21.5307  -31.5590 H   0  0  0  0  0  0  0  0  0  0  0  0
  1  2  1  0
  2  3  1  0
  3  4  2  0
  4  5  1  0
  5  6  2  0
  6  7  1  0
  7  8  2  0
  8  9  1  0
  9 10  2  0
 10 11  1  0
 11 12  2  0
 12 13  1  0
 13 14  2  0
 14 15  1  0
 15 16  1  0
 16 17  2  0
 17 18  1  0
 18 19  2  0
 19 20  1  0
 19 21  1  0
 21 22  2  0
 15 23  1  0
 23 24  1  0
 24 25  1  0
 14 26  1  0
 26 27  1  0
 10 28  1  0
 28 29  2  0
 29  3  1  0
 29  7  1  0
 26 11  1  0
 25 15  1  0
 22 16  1  0
  1 30  1  0
  1 31  1  0
  1 32  1  0
  2 33  1  0
  2 34  1  0
  4 35  1  0
  5 36  1  0
  6 37  1  0
  8 38  1  0
  9 39  1  0
 17 40  1  0
 18 41  1  0
 21 42  1  0
 22 43  1  0
 23 44  1  0
 23 45  1  0
 24 46  1  0
 24 47  1  0
 25 48  1  0
 25 49  1  0
 27 50  1  0
 27 51  1  0
 27 52  1  0
 28 53  1  0
M  END
>  <smiles>  (11) 
CCc1cccc2ccc(-c3nnc(C4(c5ccc(Cl)cc5)CCC4)n3C)cc12

>  <score_type>  (11) 
oracle

>  <origin>  (11) 
adg

>  <m_score__min__energy>  (11) 
-10.609999999999999

>  <m_primary>  (11) 
energy

$$$$
12:0
     RDKit          3D

 49 52  0  0  0  0  0  0  0  0999 V2000
   -5.2440   24.9640  -30.7500 C   0  0  0  0  0  0  0  0  0  0  0  0
   -3.8380   24.6440  -30.4660 N   0  0  0  0  0  0  0  0  0  0  0  0
   -3.7450   24.5340  -29.0130 C   0  0  0  0  0  0  0  0  0  0  0  0
   -3.5030   23.4020  -31.1340 C   0  0  0  0  0  0  0  0  0  0  0  0
   -4.6770   22.4990  -31.3730 C   0  0  0  0  0  0  0  0  0  0  0  0
   -4.6940   22.1000  -32.7890 N   0  0  0  0  0  0  0  0  0  0  0  0
   -4.6060   20.7190  -33.0440 C   0  0  0  0  0  0  0  0  0  0  0  0
   -3.3050   20.2990  -33.4060 C   0  0  0  0  0  0  0  0  0  0  0  0
   -2.2540   21.2000  -33.4240 C   0  0  0  0  0  0  0  0  0  0  0  0
   -0.9640   20.8590  -33.7620 C   0  0  0  0  0  0  0  0  0  0  0  0
   -0.7280   19.5460  -34.0980 C   0  0  0  0  0  0  0  0  0  0  0  0
   -1.7750   18.6490  -34.0780 C   0  0  0  0  0  0  0  0  0  0  0  0
   -3.0700   18.9950  -33.7370 C   0  0  0  0  0  0  0  0  0  0  0  0
   -4.0540   18.0430  -33.7400 N   0  0  0  0  0  0  0  0  0  0  0  0
   -3.6480   16.7300  -34.1030 C   0  0  0  0  0  0  0  0  0  0  0  0
   -5.2870   18.4440  -33.3950 C   0  0  0  0  0  0  0  0  0  0  0  0
   -6.2780   17.4870  -33.3990 C   0  0  0  0  0  0  0  0  0  0  0  0
   -7.5760   17.8040  -33.0560 C   0  0  0  0  0  0  0  0  0  0  0  0
   -7.8200   19.1170  -32.7130 C   0  0  0  0  0  0  0  0  0  0  0  0
   -9.1470   19.3820  -32.3480 C   0  0  0  0  0  0  0  0  0  0  0  0
   -9.4750   20.6520  -31.9670 C   0  0  0  0  0  0  0  0  0  0  0  0
   -8.5570   21.6540  -31.9340 C   0  0  0  0  0  0  0  0  0  0  0  0
   -7.2420   21.3460  -32.3080 C   0  0  0  0  0  0  0  0  0  0  0  0
   -6.8480   20.0950  -32.7020 C   0  0  0  0  0  0  0  0  0  0  0  0
   -5.5770   19.7760  -33.0450 C   0  0  0  0  0  0  0  0  0  0  0  0
   -5.7902   25.0883  -29.8033 H   0  0  0  0  0  0  0  0  0  0  0  0
   -5.2978   25.8974  -31.3296 H   0  0  0  0  0  0  0  0  0  0  0  0
   -5.6964   24.1459  -31.3296 H   0  0  0  0  0  0  0  0  0  0  0  0
   -4.3880   25.2945  -28.5458 H   0  0  0  0  0  0  0  0  0  0  0  0
   -4.0744   23.5324  -28.6993 H   0  0  0  0  0  0  0  0  0  0  0  0
   -2.7026   24.6922  -28.6993 H   0  0  0  0  0  0  0  0  0  0  0  0
   -3.0498   23.6442  -32.1066 H   0  0  0  0  0  0  0  0  0  0  0  0
   -2.8157   22.8592  -30.4684 H   0  0  0  0  0  0  0  0  0  0  0  0
   -4.5894   21.6045  -30.7388 H   0  0  0  0  0  0  0  0  0  0  0  0
   -5.6091   23.0277  -31.1247 H   0  0  0  0  0  0  0  0  0  0  0  0
   -4.8150   22.8340  -33.5570 H   0  0  0  0  0  0  0  0  0  0  0  0
   -2.4612   22.2458  -33.1533 H   0  0  0  0  0  0  0  0  0  0  0  0
   -0.1557   21.6051  -33.7634 H   0  0  0  0  0  0  0  0  0  0  0  0
    0.2830   19.2160  -34.3790 H   0  0  0  0  0  0  0  0  0  0  0  0
   -1.5694   17.6026  -34.3476 H   0  0  0  0  0  0  0  0  0  0  0  0
   -3.4650   16.1383  -33.1939 H   0  0  0  0  0  0  0  0  0  0  0  0
   -4.4405   16.2525  -34.6980 H   0  0  0  0  0  0  0  0  0  0  0  0
   -2.7243   16.7831  -34.6980 H   0  0  0  0  0  0  0  0  0  0  0  0
   -6.0301   16.4529  -33.6804 H   0  0  0  0  0  0  0  0  0  0  0  0
   -8.3752   17.0482  -33.0561 H   0  0  0  0  0  0  0  0  0  0  0  0
   -9.9062   18.5862  -32.3679 H   0  0  0  0  0  0  0  0  0  0  0  0
  -10.5136   20.8706  -31.6781 H   0  0  0  0  0  0  0  0  0  0  0  0
   -8.8367   22.6718  -31.6243 H   0  0  0  0  0  0  0  0  0  0  0  0
   -6.4897   22.1481  -32.2839 H   0  0  0  0  0  0  0  0  0  0  0  0
  1  2  1  0
  2  3  1  0
  2  4  1  0
  4  5  1  0
  5  6  1  0
  6  7  1  0
  7  8  2  0
  8  9  1  0
  9 10  2  0
 10 11  1  0
 11 12  2  0
 12 13  1  0
 13 14  2  0
 14 15  1  0
 14 16  1  0
 16 17  2  0
 17 18  1  0
 18 19  2  0
 19 20  1  0
 20 21  2  0
 21 22  1  0
 22 23  2  0
 23 24  1  0
 24 25  2  0
 25  7  1  0
 13  8  1  0
 25 16  1  0
 24 19  1  0
  1 26  1  0
  1 27  1  0
  1 28  1  0
  3 29  1  0
  3 30  1  0
  3 31  1  0
  4 32  1  0
  4 33  1  0
  5 34  1  0
  5 35  1  0
  6 36  1  0
  9 37  1  0
 10 38  1  0
 11 39  1  0
 12 40  1  0
 15 41  1  0
 15 42  1  0
 15 43  1  0
 17 44  1  0
 18 45  1  0
 20 46  1  0
 21 47  1  0
 22 48  1  0
 23 49  1  0
M  CHG  1  14   1
M  END
>  <smiles>  (12) 
CN(C)CCNc1c2ccccc2[n+](C)c2ccc3ccccc3c12

>  <score_type>  (12) 
oracle

>  <origin>  (12) 
adg

>  <m_score__min__energy>  (12) 
-9.5899999999999999

>  <m_primary>  (12) 
energy

$$$$
13:0
     RDKit          3D

 37 38  0  0  0  0  0  0  0  0999 V2000
   -2.9930   24.1530  -27.9730 C   0  0  0  0  0  0  0  0  0  0  0  0
   -2.3790   24.5170  -29.3030 C   0  0  0  0  0  0  0  0  0  0  0  0
   -3.3050   24.9070  -30.2440 O   0  0  0  0  0  0  0  0  0  0  0  0
   -4.6270   24.6030  -30.3960 C   0  0  0  0  0  0  0  0  0  0  0  0
   -5.6940   25.2920  -29.8950 C   0  0  0  0  0  0  0  0  0  0  0  0
   -7.0160   24.9250  -30.0900 C   0  0  0  0  0  0  0  0  0  0  0  0
   -7.2970   23.8020  -30.8290 C   0  0  0  0  0  0  0  0  0  0  0  0
   -6.2430   23.0800  -31.3500 C   0  0  0  0  0  0  0  0  0  0  0  0
   -4.9290   23.4580  -31.1490 C   0  0  0  0  0  0  0  0  0  0  0  0
   -3.8410   22.6550  -31.7330 C   0  0  0  0  0  0  0  0  0  0  0  0
   -4.1000   22.0820  -33.0020 N   0  0  0  0  0  0  0  0  0  0  0  0
   -4.2760   20.6850  -32.8660 C   0  0  0  0  0  0  0  0  0  0  0  0
   -5.3610   20.0400  -33.6290 C   0  0  0  0  0  0  0  0  0  0  0  0
   -6.4900   19.5150  -32.8670 C   0  0  0  0  0  0  0  0  0  0  0  0
   -6.7740   18.3690  -32.2170 C   0  0  0  0  0  0  0  0  0  0  0  0
   -7.9510   18.1990  -31.6090 C   0  0  0  0  0  0  0  0  0  0  0  0
   -8.8870   19.2010  -31.6460 C   0  0  0  0  0  0  0  0  0  0  0  0
   -7.9810   20.5180  -32.6520 S   0  0  0  0  0  0  0  0  0  0  0  0
   -2.3561   24.5306  -27.1595 H   0  0  0  0  0  0  0  0  0  0  0  0
   -3.9932   24.6042  -27.8951 H   0  0  0  0  0  0  0  0  0  0  0  0
   -3.0772   23.0590  -27.8951 H   0  0  0  0  0  0  0  0  0  0  0  0
   -1.6718   25.3447  -29.1457 H   0  0  0  0  0  0  0  0  0  0  0  0
   -1.8832   23.6145  -29.6898 H   0  0  0  0  0  0  0  0  0  0  0  0
   -5.4917   26.1945  -29.2996 H   0  0  0  0  0  0  0  0  0  0  0  0
   -7.8302   25.5256  -29.6583 H   0  0  0  0  0  0  0  0  0  0  0  0
   -8.3365   23.4860  -31.0012 H   0  0  0  0  0  0  0  0  0  0  0  0
   -6.4546   22.1776  -31.9424 H   0  0  0  0  0  0  0  0  0  0  0  0
   -2.9594   23.3054  -31.8318 H   0  0  0  0  0  0  0  0  0  0  0  0
   -3.7016   21.8052  -31.0486 H   0  0  0  0  0  0  0  0  0  0  0  0
   -4.6270   22.5990  -33.6870 H   0  0  0  0  0  0  0  0  0  0  0  0
   -3.3338   20.2066  -33.1717 H   0  0  0  0  0  0  0  0  0  0  0  0
   -4.5657   20.5488  -31.8136 H   0  0  0  0  0  0  0  0  0  0  0  0
   -5.7562   20.7841  -34.3362 H   0  0  0  0  0  0  0  0  0  0  0  0
   -4.8963   19.1574  -34.0929 H   0  0  0  0  0  0  0  0  0  0  0  0
   -6.0263   17.5628  -32.1868 H   0  0  0  0  0  0  0  0  0  0  0  0
   -8.1689   17.2591  -31.0807 H   0  0  0  0  0  0  0  0  0  0  0  0
   -9.8953   19.2298  -31.2073 H   0  0  0  0  0  0  0  0  0  0  0  0
  1  2  1  0
  2  3  1  0
  3  4  1  0
  4  5  2  0
  5  6  1  0
  6  7  2  0
  7  8  1  0
  8  9  2  0
  9 10  1  0
 10 11  1  0
 11 12  1  0
 12 13  1  0
 13 14  1  0
 14 15  2  0
 15 16  1  0
 16 17  2  0
 17 18  1  0
  9  4  1  0
 18 14  1  0
  1 19  1  0
  1 20  1  0
  1 21  1  0
  2 22  1  0
  2 23  1  0
  5 24  1  0
  6 25  1  0
  7 26  1  0
  8 27  1  0
 10 28  1  0
 10 29  1  0
 11 30  1  0
 12 31  1  0
 12 32  1  0
 13 33  1  0
 13 34  1  0
 15 35  1  0
 16 36  1  0
 17 37  1  0
M  END
>  <smiles>  (13) 
CCOc1ccccc1CNCCc1cccs1

>  <score_type>  (13) 
oracle

>  <origin>  (13) 
adg

>  <m_score__min__energy>  (13) 
-7.54

>  <m_primary>  (13) 
energy

$$$$
14:0
     RDKit          3D

 24 25  0  0  0  0  0  0  0  0999 V2000
   -3.4130   23.8590  -29.4400 C   0  0  0  0  0  0  0  0  0  0  0  0
   -3.7980   24.7400  -30.4680 O   0  0  0  0  0  0  0  0  0  0  0  0
   -5.1270   24.8980  -30.8300 C   0  0  0  0  0  0  0  0  0  0  0  0
   -5.6970   26.0410  -30.8470 O   0  0  0  0  0  0  0  0  0  0  0  0
   -5.9620   23.7650  -31.2140 C   0  0  0  0  0  0  0  0  0  0  0  0
   -7.2690   23.6620  -30.9350 N   0  0  0  0  0  0  0  0  0  0  0  0
   -7.7530   22.5120  -31.4180 N   0  0  0  0  0  0  0  0  0  0  0  0
   -8.9980   22.0030  -31.3690 C   0  0  0  0  0  0  0  0  0  0  0  0
   -9.2050   20.7750  -31.9640 C   0  0  0  0  0  0  0  0  0  0  0  0
   -8.1960   20.0710  -32.5940 C   0  0  0  0  0  0  0  0  0  0  0  0
   -6.9240   20.6150  -32.6310 C   0  0  0  0  0  0  0  0  0  0  0  0
   -6.7320   21.8540  -32.0250 C   0  0  0  0  0  0  0  0  0  0  0  0
   -5.5880   22.6270  -31.9100 C   0  0  0  0  0  0  0  0  0  0  0  0
   -4.2450   22.3040  -32.4230 C   0  0  0  0  0  0  0  0  0  0  0  0
   -3.6160   24.3236  -28.4638 H   0  0  0  0  0  0  0  0  0  0  0  0
   -3.9840   22.9228  -29.5264 H   0  0  0  0  0  0  0  0  0  0  0  0
   -2.3381   23.6421  -29.5264 H   0  0  0  0  0  0  0  0  0  0  0  0
   -9.8180   22.5442  -30.8744 H   0  0  0  0  0  0  0  0  0  0  0  0
  -10.2143   20.3386  -31.9357 H   0  0  0  0  0  0  0  0  0  0  0  0
   -8.4006   19.0949  -33.0581 H   0  0  0  0  0  0  0  0  0  0  0  0
   -6.0934   20.0869  -33.1221 H   0  0  0  0  0  0  0  0  0  0  0  0
   -3.5597   22.1392  -31.5784 H   0  0  0  0  0  0  0  0  0  0  0  0
   -4.2964   21.3926  -33.0368 H   0  0  0  0  0  0  0  0  0  0  0  0
   -3.8763   23.1391  -33.0368 H   0  0  0  0  0  0  0  0  0  0  0  0
  1  2  1  0
  2  3  1  0
  3  4  2  0
  3  5  1  0
  5  6  2  0
  6  7  1  0
  7  8  1  0
  8  9  2  0
  9 10  1  0
 10 11  2  0
 11 12  1  0
 12 13  2  0
 13 14  1  0
 13  5  1  0
 12  7  1  0
  1 15  1  0
  1 16  1  0
  1 17  1  0
  8 18  1  0
  9 19  1  0
 10 20  1  0
 11 21  1  0
 14 22  1  0
 14 23  1  0
 14 24  1  0
M  END
>  <smiles>  (14) 
COC(=O)c1nn2ccccc2c1C

>  <score_type>  (14) 
oracle

>  <origin>  (14) 
adg

>  <m_score__min__energy>  (14) 
-6.3200000000000003

>  <m_primary>  (14) 
energy

$$$$
15:0
     RDKit          3D

 48 50  0  0  1  0  0  0  0  0999 V2000
   -9.1410   18.3740  -31.5940 C   0  0  0  0  0  0  0  0  0  0  0  0
   -7.9570   19.0740  -32.1200 C   0  0  0  0  0  0  0  0  0  0  0  0
   -7.6680   20.3910  -31.8530 C   0  0  0  0  0  0  0  0  0  0  0  0
   -6.5310   21.0150  -32.3740 C   0  0  0  0  0  0  0  0  0  0  0  0
   -5.6470   20.3490  -33.1770 C   0  0  0  0  0  0  0  0  0  0  0  0
   -4.5120   20.8230  -33.7480 O   0  0  0  0  0  0  0  0  0  0  0  0
   -3.3430   21.0480  -33.1050 C   0  0  0  0  0  0  0  0  0  0  0  0
   -3.1430   21.3070  -31.8100 N   0  0  0  0  0  0  0  0  0  0  0  0
   -1.9810   21.5220  -31.2120 C   0  0  0  0  0  0  0  0  0  0  0  0
   -1.8960   21.7660  -29.9470 N   0  0  0  0  0  0  0  0  0  0  0  0
   -3.1130   21.8580  -29.1270 C   0  0  0  0  0  0  0  0  0  0  0  0
   -3.8440   23.0360  -29.6330 C   0  0  0  0  0  0  0  0  0  0  0  0
   -5.2180   22.9750  -29.7280 C   0  0  0  0  0  0  0  0  0  0  0  0
   -5.9490   24.0660  -30.2000 C   0  0  0  0  0  0  0  0  0  0  0  0
   -5.2300   25.1950  -30.5610 C   0  0  0  0  0  0  0  0  0  0  0  0
   -3.8900   25.2590  -30.4670 N   0  0  0  0  0  0  0  0  0  0  0  0
   -3.1790   24.1910  -30.0060 C   0  0  0  0  0  0  0  0  0  0  0  0
   -0.8680   21.4750  -31.9980 N   0  0  0  0  0  0  0  0  0  0  0  0
   -0.9890   21.2150  -33.3320 C   0  0  0  0  0  0  0  0  0  0  0  0
    0.2050   21.1760  -34.1160 N   0  0  0  0  0  0  0  0  0  0  0  0
    0.2720   21.9330  -35.3640 C   0  0  0  0  0  0  0  0  0  0  0  0
    1.3240   20.3760  -33.6400 C   0  0  0  0  0  0  0  0  0  0  0  0
   -2.2030   21.0070  -33.8700 N   0  0  0  0  0  0  0  0  0  0  0  0
   -5.9640   19.0030  -33.4370 C   0  0  0  0  0  0  0  0  0  0  0  0
   -5.0570   18.1790  -34.3090 C   0  0  0  0  0  0  0  0  0  0  0  0
   -7.0700   18.3930  -32.9300 C   0  0  0  0  0  0  0  0  0  0  0  0
   -9.1169   18.3882  -30.4944 H   0  0  0  0  0  0  0  0  0  0  0  0
  -10.0523   18.8786  -31.9474 H   0  0  0  0  0  0  0  0  0  0  0  0
   -9.1382   17.3323  -31.9474 H   0  0  0  0  0  0  0  0  0  0  0  0
   -8.3498   20.9694  -31.2122 H   0  0  0  0  0  0  0  0  0  0  0  0
   -6.3421   22.0711  -32.1313 H   0  0  0  0  0  0  0  0  0  0  0  0
   -3.7226   20.9495  -29.2412 H   0  0  0  0  0  0  0  0  0  0  0  0
   -2.8767   21.9542  -28.0570 H   0  0  0  0  0  0  0  0  0  0  0  0
   -5.7438   22.0564  -29.4285 H   0  0  0  0  0  0  0  0  0  0  0  0
   -7.0454   24.0317  -30.2819 H   0  0  0  0  0  0  0  0  0  0  0  0
   -5.7764   26.0718  -30.9387 H   0  0  0  0  0  0  0  0  0  0  0  0
   -2.0830   24.2470  -29.9309 H   0  0  0  0  0  0  0  0  0  0  0  0
    0.3669   23.0053  -35.1378 H   0  0  0  0  0  0  0  0  0  0  0  0
    1.1444   21.6026  -35.9469 H   0  0  0  0  0  0  0  0  0  0  0  0
   -0.6449   21.7610  -35.9469 H   0  0  0  0  0  0  0  0  0  0  0  0
    1.3300   20.3717  -32.5400 H   0  0  0  0  0  0  0  0  0  0  0  0
    1.2215   19.3452  -34.0101 H   0  0  0  0  0  0  0  0  0  0  0  0
    2.2662   20.8065  -34.0101 H   0  0  0  0  0  0  0  0  0  0  0  0
   -2.2540   20.8110  -34.8980 H   0  0  0  0  0  0  0  0  0  0  0  0
   -4.3908   17.5738  -33.6766 H   0  0  0  0  0  0  0  0  0  0  0  0
   -5.6623   17.5155  -34.9441 H   0  0  0  0  0  0  0  0  0  0  0  0
   -4.4545   18.8450  -34.9441 H   0  0  0  0  0  0  0  0  0  0  0  0
   -7.2610   17.3367  -33.1702 H   0  0  0  0  0  0  0  0  0  0  0  0
  1  2  1  0
  2  3  2  0
  3  4  1  0
  4  5  2  0
  5  6  1  0
  6  7  1  0
  7  8  2  0
  8  9  1  0
  9 10  2  0
 10 11  1  0
 11 12  1  0
 12 13  2  0
 13 14  1  0
 14 15  2  0
 15 16  1  0
 16 17  2  0
  9 18  1  0
 18 19  2  0
 19 20  1  0
 20 21  1  0
 20 22  1  0
 19 23  1  0
  5 24  1  0
 24 25  1  0
 24 26  2  0
 26  2  1  0
 23  7  1  0
 17 12  1  0
  1 27  1  0
  1 28  1  0
  1 29  1  0
  3 30  1  0
  4 31  1  0
 11 32  1  0
 11 33  1  0
 13 34  1  0
 14 35  1  0
 15 36  1  0
 17 37  1  0
 21 38  1  0
 21 39  1  0
 21 40  1  0
 22 41  1  0
 22 42  1  0
 22 43  1  0
 23 44  1  0
 25 45  1  0
 25 46  1  0
 25 47  1  0
 26 48  1  0
M  END
>  <smiles>  (15) 
Cc1ccc(Oc2nc(=NCc3cccnc3)nc(N(C)C)[nH]2)c(C)c1

>  <score_type>  (15) 
oracle

>  <origin>  (15) 
adg

>  <m_score__min__energy>  (15) 
-8.4199999999999999

>  <m_primary>  (15) 
energy

$$$$
16:0
     RDKit          3D

 51 52  0  0  1  0  0  0  0  0999 V2000
   -1.6180   26.4200  -24.9650 C   0  0  0  0  0  0  0  0  0  0  0  0
   -1.3050   25.2220  -25.8700 C   0  0  0  0  0  0  0  0  0  0  0  0
   -2.5240   25.0270  -26.7400 C   0  0  0  0  0  0  0  0  0  0  0  0
   -2.2020   24.9440  -28.2170 C   0  0  0  0  0  0  0  0  0  0  0  0
   -3.0320   23.9900  -28.7910 N   0  0  0  0  0  0  0  0  0  0  0  0
   -2.5360   22.8110  -29.3500 C   0  0  0  0  0  0  0  0  0  0  0  0
   -3.2740   21.5830  -28.9190 C   0  0  0  0  0  0  0  0  0  0  0  0
   -2.7290   21.1230  -27.5720 C   0  0  0  0  0  0  0  0  0  0  0  0
   -1.2640   21.4630  -27.4600 C   0  0  0  0  0  0  0  0  0  0  0  0
   -4.4440   24.1820  -28.8050 C   0  0  0  0  0  0  0  0  0  0  0  0
   -4.9680   24.6790  -30.1490 C   0  0  1  0  0  0  0  0  0  0  0  0
   -3.8590   25.2560  -30.8120 O   0  0  0  0  0  0  0  0  0  0  0  0
   -5.4680   23.5220  -30.9100 C   0  0  0  0  0  0  0  0  0  0  0  0
   -4.7360   22.7460  -31.7680 C   0  0  0  0  0  0  0  0  0  0  0  0
   -5.3520   21.7010  -32.4200 C   0  0  0  0  0  0  0  0  0  0  0  0
   -6.6830   21.3790  -32.2630 C   0  0  0  0  0  0  0  0  0  0  0  0
   -7.3000   20.3380  -32.9170 C   0  0  0  0  0  0  0  0  0  0  0  0
   -8.6520   20.0340  -32.7450 C   0  0  0  0  0  0  0  0  0  0  0  0
   -9.3900   20.8380  -31.8630 C   0  0  0  0  0  0  0  0  0  0  0  0
   -8.7700   21.8860  -31.2050 C   0  0  0  0  0  0  0  0  0  0  0  0
   -7.4200   22.1590  -31.4020 C   0  0  0  0  0  0  0  0  0  0  0  0
   -6.8160   23.2020  -30.7450 C   0  0  0  0  0  0  0  0  0  0  0  0
   -1.5381   26.1143  -23.9114 H   0  0  0  0  0  0  0  0  0  0  0  0
   -0.9012   27.2295  -25.1673 H   0  0  0  0  0  0  0  0  0  0  0  0
   -2.6392   26.7754  -25.1673 H   0  0  0  0  0  0  0  0  0  0  0  0
   -0.4220   25.4328  -26.4912 H   0  0  0  0  0  0  0  0  0  0  0  0
   -1.0821   24.3200  -25.2812 H   0  0  0  0  0  0  0  0  0  0  0  0
   -3.0216   24.0934  -26.4387 H   0  0  0  0  0  0  0  0  0  0  0  0
   -3.1687   25.9068  -26.5973 H   0  0  0  0  0  0  0  0  0  0  0  0
   -2.3752   25.9214  -28.6910 H   0  0  0  0  0  0  0  0  0  0  0  0
   -1.1477   24.6647  -28.3601 H   0  0  0  0  0  0  0  0  0  0  0  0
   -2.6042   22.8905  -30.4450 H   0  0  0  0  0  0  0  0  0  0  0  0
   -1.4988   22.7015  -29.0004 H   0  0  0  0  0  0  0  0  0  0  0  0
   -4.3459   21.8111  -28.8246 H   0  0  0  0  0  0  0  0  0  0  0  0
   -3.1385   20.7869  -29.6659 H   0  0  0  0  0  0  0  0  0  0  0  0
   -3.2817   21.6265  -26.7652 H   0  0  0  0  0  0  0  0  0  0  0  0
   -2.8522   20.0332  -27.4879 H   0  0  0  0  0  0  0  0  0  0  0  0
   -0.9828   21.5283  -26.3985 H   0  0  0  0  0  0  0  0  0  0  0  0
   -0.6673   20.6795  -27.9499 H   0  0  0  0  0  0  0  0  0  0  0  0
   -1.0733   22.4293  -27.9499 H   0  0  0  0  0  0  0  0  0  0  0  0
   -4.9299   23.2228  -28.5730 H   0  0  0  0  0  0  0  0  0  0  0  0
   -4.6771   24.9539  -28.0568 H   0  0  0  0  0  0  0  0  0  0  0  0
   -5.7842   25.4084  -30.0407 H   0  0  0  0  0  0  0  0  0  0  0  0
   -3.1130   24.6060  -30.8660 H   0  0  0  0  0  0  0  0  0  0  0  0
   -3.6689   22.9546  -31.9346 H   0  0  0  0  0  0  0  0  0  0  0  0
   -4.7474   21.0884  -33.1050 H   0  0  0  0  0  0  0  0  0  0  0  0
   -6.7037   19.7194  -33.6039 H   0  0  0  0  0  0  0  0  0  0  0  0
   -9.1210   19.1956  -33.2809 H   0  0  0  0  0  0  0  0  0  0  0  0
  -10.4582   20.6360  -31.6950 H   0  0  0  0  0  0  0  0  0  0  0  0
   -9.3539   22.5131  -30.5152 H   0  0  0  0  0  0  0  0  0  0  0  0
   -7.4212   23.8122  -30.0584 H   0  0  0  0  0  0  0  0  0  0  0  0
  1  2  1  0
  2  3  1  0
  3  4  1  0
  4  5  1  0
  5  6  1  0
  6  7  1  0
  7  8  1  0
  8  9  1  0
  5 10  1  0
 10 11  1  0
 11 12  1  0
 11 13  1  0
 13 14  2  0
 14 15  1  0
 15 16  2  0
 16 17  1  0
 17 18  2  0
 18 19  1  0
 19 20  2  0
 20 21  1  0
 21 22  2  0
 22 13  1  0
 21 16  1  0
  1 23  1  0
  1 24  1  0
  1 25  1  0
  2 26  1  0
  2 27  1  0
  3 28  1  0
  3 29  1  0
  4 30  1  0
  4 31  1  0
  6 32  1  0
  6 33  1  0
  7 34  1  0
  7 35  1  0
  8 36  1  0
  8 37  1  0
  9 38  1  0
  9 39  1  0
  9 40  1  0
 10 41  1  0
 10 42  1  0
 11 43  1  1
 12 44  1  0
 14 45  1  0
 15 46  1  0
 17 47  1  0
 18 48  1  0
 19 49  1  0
 20 50  1  0
 22 51  1  0
M  END
>  <smiles>  (16) 
CCCCN(CCCC)CC(O)c1ccc2ccccc2c1

>  <score_type>  (16) 
oracle

>  <origin>  (16) 
adg

>  <m_score__min__energy>  (16) 
-8.4800000000000004

>  <m_primary>  (16) 
energy

$$$$
17:0
     RDKit          3D

 47 51  0  0  1  0  0  0  0  0999 V2000
   -1.9340   25.1990  -27.5920 C   0  0  0  0  0  0  0  0  0  0  0  0
   -2.3160   25.4240  -28.9310 O   0  0  0  0  0  0  0  0  0  0  0  0
   -2.9000   24.4640  -29.7140 C   0  0  0  0  0  0  0  0  0  0  0  0
   -4.1980   24.5370  -30.1990 C   0  0  0  0  0  0  0  0  0  0  0  0
   -4.6980   23.5160  -30.9830 C   0  0  0  0  0  0  0  0  0  0  0  0
   -3.9450   22.4090  -31.3080 C   0  0  0  0  0  0  0  0  0  0  0  0
   -4.5550   21.3840  -32.1410 C   0  0  0  0  0  0  0  0  0  0  0  0
   -5.9010   21.3330  -32.4310 C   0  0  0  0  0  0  0  0  0  0  0  0
   -6.4360   20.3380  -33.2290 C   0  0  0  0  0  0  0  0  0  0  0  0
   -7.6980   20.3400  -33.4640 N   0  0  0  0  0  0  0  0  0  0  0  0
   -8.6320   19.5040  -32.7280 C   0  0  0  0  0  0  0  0  0  0  0  0
   -8.1410   18.6080  -31.6520 C   0  0  0  0  0  0  0  0  0  0  0  0
   -8.7310   19.8880  -31.2510 C   0  0  0  0  0  0  0  0  0  0  0  0
   -5.5850   19.4160  -33.7150 N   0  0  0  0  0  0  0  0  0  0  0  0
   -5.8650   18.3790  -34.4940 N   0  0  0  0  0  0  0  0  0  0  0  0
   -4.7450   17.6890  -34.7670 C   0  0  0  0  0  0  0  0  0  0  0  0
   -3.7270   18.3600  -34.1050 C   0  0  0  0  0  0  0  0  0  0  0  0
   -2.4440   18.0080  -34.1120 C   0  0  0  0  0  0  0  0  0  0  0  0
   -1.4660   19.0790  -34.2720 C   0  0  0  0  0  0  0  0  0  0  0  0
   -1.6840   20.3950  -34.4620 N   0  0  0  0  0  0  0  0  0  0  0  0
   -0.5120   21.0560  -34.5630 C   0  0  0  0  0  0  0  0  0  0  0  0
   -0.4400   22.2970  -34.7440 O   0  0  0  0  0  0  0  0  0  0  0  0
    0.4620   20.1420  -34.4350 N   0  0  0  0  0  0  0  0  0  0  0  0
   -0.0890   18.9080  -34.2530 C   0  0  0  0  0  0  0  0  0  0  0  0
    0.6280   17.7250  -34.0840 O   0  0  0  0  0  0  0  0  0  0  0  0
   -4.2540   19.4400  -33.4470 C   0  0  0  0  0  0  0  0  0  0  0  0
   -3.7560   20.4330  -32.6580 N   0  0  0  0  0  0  0  0  0  0  0  0
   -2.6570   22.3390  -30.8270 C   0  0  0  0  0  0  0  0  0  0  0  0
   -2.1410   23.3530  -30.0400 C   0  0  0  0  0  0  0  0  0  0  0  0
   -2.6830   25.6402  -26.9179 H   0  0  0  0  0  0  0  0  0  0  0  0
   -1.8664   24.1168  -27.4069 H   0  0  0  0  0  0  0  0  0  0  0  0
   -0.9547   25.6646  -27.4069 H   0  0  0  0  0  0  0  0  0  0  0  0
   -4.8276   25.4066  -29.9594 H   0  0  0  0  0  0  0  0  0  0  0  0
   -5.7290   23.5888  -31.3595 H   0  0  0  0  0  0  0  0  0  0  0  0
   -6.5676   22.1039  -32.0170 H   0  0  0  0  0  0  0  0  0  0  0  0
   -9.2942   19.3420  -33.5913 H   0  0  0  0  0  0  0  0  0  0  0  0
   -8.6775   17.6719  -31.4378 H   0  0  0  0  0  0  0  0  0  0  0  0
   -7.1789   18.1146  -31.4497 H   0  0  0  0  0  0  0  0  0  0  0  0
   -9.7108   19.9116  -30.7515 H   0  0  0  0  0  0  0  0  0  0  0  0
   -8.4028   20.7433  -30.6421 H   0  0  0  0  0  0  0  0  0  0  0  0
   -4.6543   16.7834  -35.3848 H   0  0  0  0  0  0  0  0  0  0  0  0
   -2.1348   16.9581  -34.0022 H   0  0  0  0  0  0  0  0  0  0  0  0
   -2.6380   20.8230  -34.5210 H   0  0  0  0  0  0  0  0  0  0  0  0
    1.4870   20.3500  -34.4700 H   0  0  0  0  0  0  0  0  0  0  0  0
    0.4280   16.9270  -34.6930 H   0  0  0  0  0  0  0  0  0  0  0  0
   -2.0316   21.4676  -31.0710 H   0  0  0  0  0  0  0  0  0  0  0  0
   -1.1093   23.2751  -29.6666 H   0  0  0  0  0  0  0  0  0  0  0  0
  1  2  1  0
  2  3  1  0
  3  4  2  0
  4  5  1  0
  5  6  2  0
  6  7  1  0
  7  8  2  0
  8  9  1  0
  9 10  2  0
 10 11  1  0
 11 12  1  0
 12 13  1  0
  9 14  1  0
 14 15  1  0
 15 16  2  0
 16 17  1  0
 17 18  2  0
 18 19  1  0
 19 20  1  0
 20 21  1  0
 21 22  2  0
 21 23  1  0
 23 24  1  0
 24 25  1  0
 17 26  1  0
 26 27  2  0
  6 28  1  0
 28 29  2  0
 29  3  1  0
 27  7  1  0
 13 11  1  0
 26 14  1  0
 24 19  2  0
  1 30  1  0
  1 31  1  0
  1 32  1  0
  4 33  1  0
  5 34  1  0
  8 35  1  0
 11 36  1  0
 12 37  1  0
 12 38  1  0
 13 39  1  0
 13 40  1  0
 16 41  1  0
 18 42  1  0
 20 43  1  0
 23 44  1  0
 25 45  1  0
 28 46  1  0
 29 47  1  0
M  END
>  <smiles>  (17) 
COc1ccc(-c2cc(=NC3CC3)n3ncc(=Cc4[nH]c(=O)[nH]c4O)c3n2)cc1

>  <score_type>  (17) 
oracle

>  <origin>  (17) 
adg

>  <m_score__min__energy>  (17) 
-9.0800000000000001

>  <m_primary>  (17) 
energy

$$$$
18:0
     RDKit          3D

 43 45  0  0  0  0  0  0  0  0999 V2000
   -2.9170   25.2800  -26.2440 C   0  0  0  0  0  0  0  0  0  0  0  0
   -1.7030   25.9600  -26.5870 N   0  0  0  0  0  0  0  0  0  0  0  0
   -1.3490   27.0400  -25.7230 C   0  0  0  0  0  0  0  0  0  0  0  0
   -0.6680   25.0330  -26.8970 C   0  0  0  0  0  0  0  0  0  0  0  0
   -0.4950   24.7550  -28.3770 C   0  0  0  0  0  0  0  0  0  0  0  0
   -1.6310   25.2990  -29.0090 O   0  0  0  0  0  0  0  0  0  0  0  0
   -2.6410   24.4920  -29.4910 C   0  0  0  0  0  0  0  0  0  0  0  0
   -2.3020   23.1520  -29.7080 C   0  0  0  0  0  0  0  0  0  0  0  0
   -3.2100   22.2340  -30.1870 C   0  0  0  0  0  0  0  0  0  0  0  0
   -4.4990   22.6650  -30.4570 C   0  0  0  0  0  0  0  0  0  0  0  0
   -5.3740   21.7130  -30.9360 C   0  0  0  0  0  0  0  0  0  0  0  0
   -6.6690   22.0910  -31.2240 C   0  0  0  0  0  0  0  0  0  0  0  0
   -7.5850   21.0760  -31.7350 C   0  0  0  0  0  0  0  0  0  0  0  0
   -8.9430   21.3150  -31.8700 C   0  0  0  0  0  0  0  0  0  0  0  0
   -9.7220   20.2910  -32.3590 C   0  0  0  0  0  0  0  0  0  0  0  0
   -9.2030   19.0590  -32.7120 C   0  0  0  0  0  0  0  0  0  0  0  0
   -7.8450   18.8260  -32.5750 C   0  0  0  0  0  0  0  0  0  0  0  0
   -7.1320   17.2740  -33.0080 Cl  0  0  0  0  0  0  0  0  0  0  0  0
   -7.0290   19.8460  -32.0810 C   0  0  0  0  0  0  0  0  0  0  0  0
   -7.0360   23.4040  -31.0200 C   0  0  0  0  0  0  0  0  0  0  0  0
   -6.1500   24.3490  -30.5390 C   0  0  0  0  0  0  0  0  0  0  0  0
   -4.8340   23.9790  -30.2440 C   0  0  0  0  0  0  0  0  0  0  0  0
   -3.9190   24.9100  -29.7600 C   0  0  0  0  0  0  0  0  0  0  0  0
   -3.0110   25.2273  -25.1493 H   0  0  0  0  0  0  0  0  0  0  0  0
   -3.7748   25.8290  -26.6597 H   0  0  0  0  0  0  0  0  0  0  0  0
   -2.8970   24.2618  -26.6597 H   0  0  0  0  0  0  0  0  0  0  0  0
   -1.4536   26.7210  -24.6755 H   0  0  0  0  0  0  0  0  0  0  0  0
   -0.3069   27.3358  -25.9139 H   0  0  0  0  0  0  0  0  0  0  0  0
   -2.0138   27.8953  -25.9139 H   0  0  0  0  0  0  0  0  0  0  0  0
    0.2801   25.4346  -26.5098 H   0  0  0  0  0  0  0  0  0  0  0  0
   -0.9534   24.0784  -26.4309 H   0  0  0  0  0  0  0  0  0  0  0  0
    0.4193   25.2378  -28.7524 H   0  0  0  0  0  0  0  0  0  0  0  0
   -0.3998   23.6774  -28.5765 H   0  0  0  0  0  0  0  0  0  0  0  0
   -1.2762   22.8208  -29.4887 H   0  0  0  0  0  0  0  0  0  0  0  0
   -2.9195   21.1858  -30.3510 H   0  0  0  0  0  0  0  0  0  0  0  0
   -5.0461   20.6737  -31.0854 H   0  0  0  0  0  0  0  0  0  0  0  0
   -9.3819   22.2860  -31.5968 H   0  0  0  0  0  0  0  0  0  0  0  0
  -10.8029   20.4599  -32.4738 H   0  0  0  0  0  0  0  0  0  0  0  0
   -9.8642   18.2696  -33.0989 H   0  0  0  0  0  0  0  0  0  0  0  0
   -5.9480   19.6786  -31.9651 H   0  0  0  0  0  0  0  0  0  0  0  0
   -8.0679   23.7095  -31.2476 H   0  0  0  0  0  0  0  0  0  0  0  0
   -6.4784   25.3880  -30.3888 H   0  0  0  0  0  0  0  0  0  0  0  0
   -4.2145   25.9570  -29.5971 H   0  0  0  0  0  0  0  0  0  0  0  0
  1  2  1  0
  2  3  1  0
  2  4  1  0
  4  5  1  0
  5  6  1  0
  6  7  1  0
  7  8  2  0
  8  9  1  0
  9 10  2  0
 10 11  1  0
 11 12  2  0
 12 13  1  0
 13 14  2  0
 14 15  1  0
 15 16  2  0
 16 17  1  0
 17 18  1  0
 17 19  2  0
 12 20  1  0
 20 21  2  0
 21 22  1  0
 22 23  2  0
 23  7  1  0
 22 10  1  0
 19 13  1  0
  1 24  1  0
  1 25  1  0
  1 26  1  0
  3 27  1  0
  3 28  1  0
  3 29  1  0
  4 30  1  0
  4 31  1  0
  5 32  1  0
  5 33  1  0
  8 34  1  0
  9 35  1  0
 11 36  1  0
 14 37  1  0
 15 38  1  0
 16 39  1  0
 19 40  1  0
 20 41  1  0
 21 42  1  0
 23 43  1  0
M  END
>  <smiles>  (18) 
CN(C)CCOc1ccc2cc(-c3cccc(Cl)c3)ccc2c1

>  <score_type>  (18) 
oracle

>  <origin>  (18) 
adg

>  <m_score__min__energy>  (18) 
-8.7100000000000009

>  <m_primary>  (18) 
energy

$$$$
19:0
     RDKit          3D

 45 47  0  0  0  0  0  0  0  0999 V2000
   -5.2670   19.6820  -33.7620 C   0  0  0  0  0  0  0  0  0  0  0  0
   -5.1300   18.9190  -32.4600 C   0  0  0  0  0  0  0  0  0  0  0  0
   -6.0120   19.4530  -31.4960 O   0  0  0  0  0  0  0  0  0  0  0  0
   -7.3060   19.8710  -31.7770 C   0  0  0  0  0  0  0  0  0  0  0  0
   -8.1690   18.9970  -32.4240 C   0  0  0  0  0  0  0  0  0  0  0  0
   -9.4690   19.4330  -32.7000 C   0  0  0  0  0  0  0  0  0  0  0  0
   -9.8630   20.7020  -32.3310 C   0  0  0  0  0  0  0  0  0  0  0  0
   -9.0160   21.5910  -31.6840 C   0  0  0  0  0  0  0  0  0  0  0  0
   -7.7320   21.1570  -31.4130 C   0  0  0  0  0  0  0  0  0  0  0  0
   -6.7210   21.9950  -30.7260 C   0  0  0  0  0  0  0  0  0  0  0  0
   -6.2470   23.0800  -31.4820 N   0  0  0  0  0  0  0  0  0  0  0  0
   -4.9530   23.0270  -32.0410 C   0  0  0  0  0  0  0  0  0  0  0  0
   -3.9320   23.0370  -30.9220 C   0  0  0  0  0  0  0  0  0  0  0  0
   -4.1700   24.2140  -30.1100 N   0  0  0  0  0  0  0  0  0  0  0  0
   -3.2900   24.5420  -29.0290 C   0  0  0  0  0  0  0  0  0  0  0  0
   -3.6500   24.3950  -27.7100 C   0  0  0  0  0  0  0  0  0  0  0  0
   -2.7960   24.7110  -26.6570 C   0  0  0  0  0  0  0  0  0  0  0  0
   -1.5410   25.1900  -26.9870 C   0  0  0  0  0  0  0  0  0  0  0  0
   -1.1760   25.3400  -28.3110 C   0  0  0  0  0  0  0  0  0  0  0  0
   -2.0550   25.0130  -29.2750 N   0  0  0  0  0  0  0  0  0  0  0  0
   -5.2980   25.0820  -30.3780 C   0  0  0  0  0  0  0  0  0  0  0  0
   -6.4950   24.3810  -30.9230 C   0  0  0  0  0  0  0  0  0  0  0  0
   -5.4576   20.7437  -33.5465 H   0  0  0  0  0  0  0  0  0  0  0  0
   -4.3374   19.5868  -34.3423 H   0  0  0  0  0  0  0  0  0  0  0  0
   -6.1054   19.2694  -34.3423 H   0  0  0  0  0  0  0  0  0  0  0  0
   -5.3735   17.8599  -32.6304 H   0  0  0  0  0  0  0  0  0  0  0  0
   -4.0963   19.0084  -32.0945 H   0  0  0  0  0  0  0  0  0  0  0  0
   -7.8390   17.9880  -32.7121 H   0  0  0  0  0  0  0  0  0  0  0  0
  -10.1768   18.7639  -33.2112 H   0  0  0  0  0  0  0  0  0  0  0  0
  -10.8903   21.0227  -32.5587 H   0  0  0  0  0  0  0  0  0  0  0  0
   -9.3525   22.5987  -31.3988 H   0  0  0  0  0  0  0  0  0  0  0  0
   -7.1728   22.3907  -29.8044 H   0  0  0  0  0  0  0  0  0  0  0  0
   -5.8540   21.3447  -30.5379 H   0  0  0  0  0  0  0  0  0  0  0  0
   -4.8438   22.1055  -32.6317 H   0  0  0  0  0  0  0  0  0  0  0  0
   -4.7951   23.8964  -32.6961 H   0  0  0  0  0  0  0  0  0  0  0  0
   -4.0422   22.1311  -30.3078 H   0  0  0  0  0  0  0  0  0  0  0  0
   -2.9125   23.0568  -31.3346 H   0  0  0  0  0  0  0  0  0  0  0  0
   -4.6545   24.0118  -27.4773 H   0  0  0  0  0  0  0  0  0  0  0  0
   -3.1055   24.5853  -25.6089 H   0  0  0  0  0  0  0  0  0  0  0  0
   -0.8294   25.4531  -26.1905 H   0  0  0  0  0  0  0  0  0  0  0  0
   -0.1785   25.7223  -28.5736 H   0  0  0  0  0  0  0  0  0  0  0  0
   -5.5855   25.5739  -29.4370 H   0  0  0  0  0  0  0  0  0  0  0  0
   -4.9712   25.7942  -31.1500 H   0  0  0  0  0  0  0  0  0  0  0  0
   -7.2222   24.2661  -30.1057 H   0  0  0  0  0  0  0  0  0  0  0  0
   -6.8582   25.0035  -31.7541 H   0  0  0  0  0  0  0  0  0  0  0  0
  1  2  1  0
  2  3  1  0
  3  4  1  0
  4  5  2  0
  5  6  1  0
  6  7  2  0
  7  8  1  0
  8  9  2  0
  9 10  1  0
 10 11  1  0
 11 12  1  0
 12 13  1  0
 13 14  1  0
 14 15  1  0
 15 16  2  0
 16 17  1  0
 17 18  2  0
 18 19  1  0
 19 20  2  0
 14 21  1  0
 21 22  1  0
  9  4  1  0
 22 11  1  0
 20 15  1  0
  1 23  1  0
  1 24  1  0
  1 25  1  0
  2 26  1  0
  2 27  1  0
  5 28  1  0
  6 29  1  0
  7 30  1  0
  8 31  1  0
 10 32  1  0
 10 33  1  0
 12 34  1  0
 12 35  1  0
 13 36  1  0
 13 37  1  0
 16 38  1  0
 17 39  1  0
 18 40  1  0
 19 41  1  0
 21 42  1  0
 21 43  1  0
 22 44  1  0
 22 45  1  0
M  END
>  <smiles>  (19) 
CCOc1ccccc1CN1CCN(c2ccccn2)CC1

>  <score_type>  (19) 
oracle

>  <origin>  (19) 
adg

>  <m_score__min__energy>  (19) 
-7.7599999999999998

>  <m_primary>  (19) 
energy

$$$$
20:0
     RDKit          3D

 51 54  0  0  0  0  0  0  0  0999 V2000
   -0.5020   24.3350  -25.2340 C   0  0  0  0  0  0  0  0  0  0  0  0
    0.7050   23.4310  -25.3760 C   0  0  0  0  0  0  0  0  0  0  0  0
    0.5170   22.4330  -26.3760 O   0  0  0  0  0  0  0  0  0  0  0  0
   -0.7220   21.8460  -26.5020 C   0  0  0  0  0  0  0  0  0  0  0  0
   -1.2450   21.3050  -25.4880 O   0  0  0  0  0  0  0  0  0  0  0  0
   -1.3490   21.8830  -27.7750 N   0  0  0  0  0  0  0  0  0  0  0  0
   -0.7510   22.5040  -28.9420 C   0  0  0  0  0  0  0  0  0  0  0  0
   -1.7060   23.6410  -29.3220 C   0  0  0  0  0  0  0  0  0  0  0  0
   -2.9880   23.0080  -29.6330 N   0  0  0  0  0  0  0  0  0  0  0  0
   -3.9070   23.8200  -30.3790 C   0  0  0  0  0  0  0  0  0  0  0  0
   -3.4940   24.9760  -30.6720 O   0  0  0  0  0  0  0  0  0  0  0  0
   -5.2230   23.3340  -30.7650 C   0  0  0  0  0  0  0  0  0  0  0  0
   -6.4010   23.9280  -30.3660 C   0  0  0  0  0  0  0  0  0  0  0  0
   -7.6140   23.3880  -30.7910 C   0  0  0  0  0  0  0  0  0  0  0  0
   -7.6390   22.2570  -31.6100 C   0  0  0  0  0  0  0  0  0  0  0  0
   -6.4460   21.6660  -32.0080 C   0  0  0  0  0  0  0  0  0  0  0  0
   -6.4300   20.5440  -32.8190 C   0  0  0  0  0  0  0  0  0  0  0  0
   -5.2470   19.9540  -33.2160 C   0  0  0  0  0  0  0  0  0  0  0  0
   -5.2370   18.8360  -34.0250 C   0  0  0  0  0  0  0  0  0  0  0  0
   -4.0290   18.2770  -34.3980 C   0  0  0  0  0  0  0  0  0  0  0  0
   -4.0580   17.0800  -35.2660 C   0  0  0  0  0  0  0  0  0  0  0  0
   -2.8290   18.8460  -33.9540 C   0  0  0  0  0  0  0  0  0  0  0  0
   -2.8280   19.9660  -33.1420 C   0  0  0  0  0  0  0  0  0  0  0  0
   -4.0580   20.5200  -32.7730 C   0  0  0  0  0  0  0  0  0  0  0  0
   -4.0660   21.6210  -31.9770 N   0  0  0  0  0  0  0  0  0  0  0  0
   -5.2370   22.2010  -31.5880 C   0  0  0  0  0  0  0  0  0  0  0  0
   -3.3170   21.6660  -29.2250 C   0  0  0  0  0  0  0  0  0  0  0  0
   -2.6510   21.2730  -27.9280 C   0  0  0  0  0  0  0  0  0  0  0  0
   -0.7164   24.4955  -24.1671 H   0  0  0  0  0  0  0  0  0  0  0  0
   -0.2947   25.3019  -25.7159 H   0  0  0  0  0  0  0  0  0  0  0  0
   -1.3715   23.8641  -25.7159 H   0  0  0  0  0  0  0  0  0  0  0  0
    1.5767   24.0444  -25.6476 H   0  0  0  0  0  0  0  0  0  0  0  0
    0.8584   22.9198  -24.4142 H   0  0  0  0  0  0  0  0  0  0  0  0
    0.2458   22.9014  -28.7000 H   0  0  0  0  0  0  0  0  0  0  0  0
   -0.6141   21.7878  -29.7656 H   0  0  0  0  0  0  0  0  0  0  0  0
   -1.8200   24.3408  -28.4810 H   0  0  0  0  0  0  0  0  0  0  0  0
   -1.3243   24.2169  -30.1779 H   0  0  0  0  0  0  0  0  0  0  0  0
   -6.3842   24.8179  -29.7196 H   0  0  0  0  0  0  0  0  0  0  0  0
   -8.5590   23.8565  -30.4788 H   0  0  0  0  0  0  0  0  0  0  0  0
   -8.6002   21.8353  -31.9390 H   0  0  0  0  0  0  0  0  0  0  0  0
   -7.3840   20.1119  -33.1554 H   0  0  0  0  0  0  0  0  0  0  0  0
   -6.1829   18.3932  -34.3703 H   0  0  0  0  0  0  0  0  0  0  0  0
   -4.0799   16.1747  -34.6415 H   0  0  0  0  0  0  0  0  0  0  0  0
   -4.9557   17.1092  -35.9010 H   0  0  0  0  0  0  0  0  0  0  0  0
   -3.1599   17.0657  -35.9010 H   0  0  0  0  0  0  0  0  0  0  0  0
   -1.8720   18.3953  -34.2557 H   0  0  0  0  0  0  0  0  0  0  0  0
   -1.8832   20.4098  -32.7951 H   0  0  0  0  0  0  0  0  0  0  0  0
   -4.4072   21.5941  -29.0970 H   0  0  0  0  0  0  0  0  0  0  0  0
   -2.9539   20.9821  -30.0063 H   0  0  0  0  0  0  0  0  0  0  0  0
   -3.2909   21.5896  -27.0912 H   0  0  0  0  0  0  0  0  0  0  0  0
   -2.5134   20.1817  -27.9366 H   0  0  0  0  0  0  0  0  0  0  0  0
  1  2  1  0
  2  3  1  0
  3  4  1  0
  4  5  2  0
  4  6  1  0
  6  7  1  0
  7  8  1  0
  8  9  1  0
  9 10  1  0
 10 11  2  0
 10 12  1  0
 12 13  2  0
 13 14  1  0
 14 15  2  0
 15 16  1  0
 16 17  2  0
 17 18  1  0
 18 19  2  0
 19 20  1  0
 20 21  1  0
 20 22  2  0
 22 23  1  0
 23 24  2  0
 24 25  1  0
 25 26  2  0
  9 27  1  0
 27 28  1  0
 28  6  1  0
 26 12  1  0
 26 16  1  0
 24 18  1  0
  1 29  1  0
  1 30  1  0
  1 31  1  0
  2 32  1  0
  2 33  1  0
  7 34  1  0
  7 35  1  0
  8 36  1  0
  8 37  1  0
 13 38  1  0
 14 39  1  0
 15 40  1  0
 17 41  1  0
 19 42  1  0
 21 43  1  0
 21 44  1  0
 21 45  1  0
 22 46  1  0
 23 47  1  0
 27 48  1  0
 27 49  1  0
 28 50  1  0
 28 51  1  0
M  END
>  <smiles>  (20) 
CCOC(=O)N1CCN(C(=O)c2cccc3cc4cc(C)ccc4nc23)CC1

>  <score_type>  (20) 
oracle

>  <origin>  (20) 
adg

>  <m_score__min__energy>  (20) 
-8.9800000000000004

>  <m_primary>  (20) 
energy

$$$$
21:0
     RDKit          3D

 63 67  0  0  1  0  0  0  0  0999 V2000
   -4.9250   22.9320  -29.6450 C   0  0  0  0  0  0  0  0  0  0  0  0
   -5.0280   23.3180  -31.0790 C   0  0  1  0  0  0  0  0  0  0  0  0
   -3.9910   22.6750  -31.9530 C   0  0  0  0  0  0  0  0  0  0  0  0
   -4.3490   21.2020  -32.0180 C   0  0  0  0  0  0  0  0  0  0  0  0
   -5.6670   21.0790  -32.7440 C   0  0  1  0  0  0  0  0  0  0  0  0
   -6.0510   19.6910  -33.0260 C   0  0  0  0  0  0  0  0  0  0  0  0
   -5.2360   18.9480  -33.8560 C   0  0  0  0  0  0  0  0  0  0  0  0
   -5.5500   17.6210  -34.1630 C   0  0  0  0  0  0  0  0  0  0  0  0
   -6.6610   16.9900  -33.6680 C   0  0  0  0  0  0  0  0  0  0  0  0
   -7.0620   15.7170  -33.8980 O   0  0  0  0  0  0  0  0  0  0  0  0
   -6.3420   14.6750  -34.4060 C   0  0  0  0  0  0  0  0  0  0  0  0
   -5.5180   13.8540  -33.4750 C   0  0  0  0  0  0  0  0  0  0  0  0
   -4.9510   14.6260  -32.3860 N   0  0  0  0  0  0  0  0  0  0  0  0
   -4.6230   13.7070  -31.3310 C   0  0  0  0  0  0  0  0  0  0  0  0
   -3.4100   12.8630  -31.6450 C   0  0  0  0  0  0  0  0  0  0  0  0
   -2.3250   13.5940  -32.0700 O   0  0  0  0  0  0  0  0  0  0  0  0
   -2.6240   14.4010  -33.1540 C   0  0  0  0  0  0  0  0  0  0  0  0
   -3.7540   15.3200  -32.7780 C   0  0  0  0  0  0  0  0  0  0  0  0
   -7.4700   17.7680  -32.8270 C   0  0  0  0  0  0  0  0  0  0  0  0
   -7.1720   19.0690  -32.5200 C   0  0  0  0  0  0  0  0  0  0  0  0
   -8.1020   19.8260  -31.6070 C   0  0  0  0  0  0  0  0  0  0  0  0
   -7.2950   20.9510  -30.9440 C   0  0  0  0  0  0  0  0  0  0  0  0
   -6.8000   21.8050  -32.0640 C   0  0  1  0  0  0  0  0  0  0  0  0
   -6.3700   23.1610  -31.7100 C   0  0  1  0  0  0  0  0  0  0  0  0
   -7.2280   23.9420  -30.7710 C   0  0  0  0  0  0  0  0  0  0  0  0
   -6.3520   25.1710  -30.5180 C   0  0  0  0  0  0  0  0  0  0  0  0
   -4.9800   24.8530  -31.1240 C   0  0  1  0  0  0  0  0  0  0  0  0
   -3.9600   25.3470  -30.3380 O   0  0  0  0  0  0  0  0  0  0  0  0
   -5.1572   23.8022  -29.0135 H   0  0  0  0  0  0  0  0  0  0  0  0
   -5.6386   22.1227  -29.4309 H   0  0  0  0  0  0  0  0  0  0  0  0
   -3.9031   22.5858  -29.4309 H   0  0  0  0  0  0  0  0  0  0  0  0
   -4.0126   23.1178  -32.9597 H   0  0  0  0  0  0  0  0  0  0  0  0
   -2.9781   22.8247  -31.5509 H   0  0  0  0  0  0  0  0  0  0  0  0
   -3.5686   20.6509  -32.5633 H   0  0  0  0  0  0  0  0  0  0  0  0
   -4.4276   20.7806  -31.0050 H   0  0  0  0  0  0  0  0  0  0  0  0
   -5.4845   21.5776  -33.7074 H   0  0  0  0  0  0  0  0  0  0  0  0
   -4.3298   19.4050  -34.2803 H   0  0  0  0  0  0  0  0  0  0  0  0
   -4.8778   17.0604  -34.8292 H   0  0  0  0  0  0  0  0  0  0  0  0
   -7.0563   13.9943  -34.8923 H   0  0  0  0  0  0  0  0  0  0  0  0
   -5.6030   15.1562  -35.0635 H   0  0  0  0  0  0  0  0  0  0  0  0
   -6.1534   13.0631  -33.0498 H   0  0  0  0  0  0  0  0  0  0  0  0
   -4.6799   13.4412  -34.0557 H   0  0  0  0  0  0  0  0  0  0  0  0
   -4.4237   14.2812  -30.4142 H   0  0  0  0  0  0  0  0  0  0  0  0
   -5.4776   13.0254  -31.2083 H   0  0  0  0  0  0  0  0  0  0  0  0
   -3.1243   12.3131  -30.7361 H   0  0  0  0  0  0  0  0  0  0  0  0
   -3.6894   12.1914  -32.4701 H   0  0  0  0  0  0  0  0  0  0  0  0
   -1.7397   14.9953  -33.4274 H   0  0  0  0  0  0  0  0  0  0  0  0
   -2.9181   13.7793  -34.0125 H   0  0  0  0  0  0  0  0  0  0  0  0
   -3.4258   15.9500  -31.9381 H   0  0  0  0  0  0  0  0  0  0  0  0
   -4.0009   15.9120  -33.6716 H   0  0  0  0  0  0  0  0  0  0  0  0
   -8.3770   17.3168  -32.3983 H   0  0  0  0  0  0  0  0  0  0  0  0
   -8.9319   20.2535  -32.1889 H   0  0  0  0  0  0  0  0  0  0  0  0
   -8.5233   19.1543  -30.8446 H   0  0  0  0  0  0  0  0  0  0  0  0
   -7.9362   21.5369  -30.2690 H   0  0  0  0  0  0  0  0  0  0  0  0
   -6.4668   20.5547  -30.3381 H   0  0  0  0  0  0  0  0  0  0  0  0
   -7.6677   21.9614  -32.7218 H   0  0  0  0  0  0  0  0  0  0  0  0
   -6.4104   23.5385  -32.7424 H   0  0  0  0  0  0  0  0  0  0  0  0
   -8.1858   24.2187  -31.2359 H   0  0  0  0  0  0  0  0  0  0  0  0
   -7.5124   23.3956  -29.8596 H   0  0  0  0  0  0  0  0  0  0  0  0
   -6.7876   26.0560  -31.0048 H   0  0  0  0  0  0  0  0  0  0  0  0
   -6.2732   25.3916  -29.4432 H   0  0  0  0  0  0  0  0  0  0  0  0
   -4.7936   25.2862  -32.1178 H   0  0  0  0  0  0  0  0  0  0  0  0
   -4.3520   25.6350  -29.4730 H   0  0  0  0  0  0  0  0  0  0  0  0
  2  1  1  1
  2  3  1  0
  3  4  1  0
  4  5  1  0
  5  6  1  0
  6  7  2  0
  7  8  1  0
  8  9  2  0
  9 10  1  0
 10 11  1  0
 11 12  1  0
 12 13  1  0
 13 14  1  0
 14 15  1  0
 15 16  1  0
 16 17  1  0
 17 18  1  0
  9 19  1  0
 19 20  2  0
 20 21  1  0
 21 22  1  0
 22 23  1  0
 23 24  1  0
 24 25  1  0
 25 26  1  0
 26 27  1  0
 27 28  1  0
 24  2  1  0
 27  2  1  0
 23  5  1  0
 20  6  1  0
 18 13  1  0
  1 29  1  0
  1 30  1  0
  1 31  1  0
  3 32  1  0
  3 33  1  0
  4 34  1  0
  4 35  1  0
  5 36  1  6
  7 37  1  0
  8 38  1  0
 11 39  1  0
 11 40  1  0
 12 41  1  0
 12 42  1  0
 14 43  1  0
 14 44  1  0
 15 45  1  0
 15 46  1  0
 17 47  1  0
 17 48  1  0
 18 49  1  0
 18 50  1  0
 19 51  1  0
 21 52  1  0
 21 53  1  0
 22 54  1  0
 22 55  1  0
 23 56  1  6
 24 57  1  6
 25 58  1  0
 25 59  1  0
 26 60  1  0
 26 61  1  0
 27 62  1  6
 28 63  1  0
M  END
>  <smiles>  (21) 
CC12CCC3c4ccc(OCCN5CCOCC5)cc4CCC3C1CCC2O

>  <score_type>  (21) 
oracle

>  <origin>  (21) 
adg

>  <m_score__min__energy>  (21) 
-10.449999999999999

>  <m_primary>  (21) 
energy

$$$$
22:0
     RDKit          3D

 45 47  0  0  0  0  0  0  0  0999 V2000
    2.6770   25.1280  -27.5700 C   0  0  0  0  0  0  0  0  0  0  0  0
    1.2900   25.4610  -27.0710 C   0  0  0  0  0  0  0  0  0  0  0  0
    0.2600   24.9070  -27.8380 N   0  0  0  0  0  0  0  0  0  0  0  0
    0.4160   23.6160  -28.3920 C   0  0  0  0  0  0  0  0  0  0  0  0
    0.3250   22.5740  -27.3060 C   0  0  0  0  0  0  0  0  0  0  0  0
   -1.0340   25.4370  -27.8120 C   0  0  0  0  0  0  0  0  0  0  0  0
   -2.1880   24.6020  -28.2280 C   0  0  0  0  0  0  0  0  0  0  0  0
   -2.6970   24.9580  -29.5450 N   0  0  0  0  0  0  0  0  0  0  0  0
   -3.8750   24.3550  -30.0640 C   0  0  0  0  0  0  0  0  0  0  0  0
   -5.0330   25.0810  -30.2270 C   0  0  0  0  0  0  0  0  0  0  0  0
   -6.1930   24.4860  -30.7100 C   0  0  0  0  0  0  0  0  0  0  0  0
   -6.2340   23.1320  -31.0490 C   0  0  0  0  0  0  0  0  0  0  0  0
   -7.4060   22.6110  -31.5090 C   0  0  0  0  0  0  0  0  0  0  0  0
   -8.3970   23.4260  -31.6040 O   0  0  0  0  0  0  0  0  0  0  0  0
   -7.6430   21.3230  -31.8820 C   0  0  0  0  0  0  0  0  0  0  0  0
   -8.9090   20.9720  -32.3290 C   0  0  0  0  0  0  0  0  0  0  0  0
   -9.2290   19.6850  -32.7240 C   0  0  0  0  0  0  0  0  0  0  0  0
   -8.2770   18.6860  -32.6850 C   0  0  0  0  0  0  0  0  0  0  0  0
   -7.0120   19.0040  -32.2460 C   0  0  0  0  0  0  0  0  0  0  0  0
   -6.7120   20.3050  -31.8520 C   0  0  0  0  0  0  0  0  0  0  0  0
   -5.1400   20.7650  -31.2920 S   0  0  0  0  0  0  0  0  0  0  0  0
   -5.0580   22.4380  -30.8750 C   0  0  0  0  0  0  0  0  0  0  0  0
   -3.8950   23.0200  -30.3950 C   0  0  0  0  0  0  0  0  0  0  0  0
    3.3465   24.9673  -26.7122 H   0  0  0  0  0  0  0  0  0  0  0  0
    2.6374   24.2138  -28.1805 H   0  0  0  0  0  0  0  0  0  0  0  0
    3.0567   25.9605  -28.1805 H   0  0  0  0  0  0  0  0  0  0  0  0
    1.1940   25.0864  -26.0412 H   0  0  0  0  0  0  0  0  0  0  0  0
    1.1826   26.5538  -27.1367 H   0  0  0  0  0  0  0  0  0  0  0  0
   -0.3772   23.4396  -29.1334 H   0  0  0  0  0  0  0  0  0  0  0  0
    1.4014   23.5476  -28.8761 H   0  0  0  0  0  0  0  0  0  0  0  0
    0.3679   23.0647  -26.3225 H   0  0  0  0  0  0  0  0  0  0  0  0
   -0.6244   22.0267  -27.4016 H   0  0  0  0  0  0  0  0  0  0  0  0
    1.1651   21.8704  -27.4016 H   0  0  0  0  0  0  0  0  0  0  0  0
   -1.2272   25.7515  -26.7758 H   0  0  0  0  0  0  0  0  0  0  0  0
   -1.0004   26.2220  -28.5818 H   0  0  0  0  0  0  0  0  0  0  0  0
   -1.8710   23.5488  -28.2467 H   0  0  0  0  0  0  0  0  0  0  0  0
   -2.9978   24.7719  -27.5032 H   0  0  0  0  0  0  0  0  0  0  0  0
   -2.1680   25.6670  -30.0930 H   0  0  0  0  0  0  0  0  0  0  0  0
   -5.0408   26.1507  -29.9706 H   0  0  0  0  0  0  0  0  0  0  0  0
   -7.1004   25.0966  -30.8279 H   0  0  0  0  0  0  0  0  0  0  0  0
   -9.6885   21.7470  -32.3710 H   0  0  0  0  0  0  0  0  0  0  0  0
  -10.2476   19.4567  -33.0710 H   0  0  0  0  0  0  0  0  0  0  0  0
   -8.5236   17.6605  -32.9973 H   0  0  0  0  0  0  0  0  0  0  0  0
   -6.2346   18.2268  -32.2063 H   0  0  0  0  0  0  0  0  0  0  0  0
   -2.9854   22.4125  -30.2785 H   0  0  0  0  0  0  0  0  0  0  0  0
  1  2  1  0
  2  3  1  0
  3  4  1  0
  4  5  1  0
  3  6  1  0
  6  7  1  0
  7  8  1  0
  8  9  1  0
  9 10  2  0
 10 11  1  0
 11 12  2  0
 12 13  1  0
 13 14  2  0
 13 15  1  0
 15 16  2  0
 16 17  1  0
 17 18  2  0
 18 19  1  0
 19 20  2  0
 20 21  1  0
 21 22  1  0
 22 23  2  0
 23  9  1  0
 22 12  1  0
 20 15  1  0
  1 24  1  0
  1 25  1  0
  1 26  1  0
  2 27  1  0
  2 28  1  0
  4 29  1  0
  4 30  1  0
  5 31  1  0
  5 32  1  0
  5 33  1  0
  6 34  1  0
  6 35  1  0
  7 36  1  0
  7 37  1  0
  8 38  1  0
 10 39  1  0
 11 40  1  0
 16 41  1  0
 17 42  1  0
 18 43  1  0
 19 44  1  0
 23 45  1  0
M  END
>  <smiles>  (22) 
CCN(CC)CCNc1ccc2c(=O)c3ccccc3sc2c1

>  <score_type>  (22) 
oracle

>  <origin>  (22) 
adg

>  <m_score__min__energy>  (22) 
-8.5199999999999996

>  <m_primary>  (22) 
energy

$$$$
23:0
     RDKit          3D

 36 37  0  0  0  0  0  0  0  0999 V2000
   -3.5550   23.0410  -27.8680 C   0  0  0  0  0  0  0  0  0  0  0  0
   -4.5620   24.0550  -28.3690 C   0  0  0  0  0  0  0  0  0  0  0  0
   -5.4420   23.4280  -29.4690 C   0  0  0  0  0  0  0  0  0  0  0  0
   -4.9940   24.0250  -31.0550 S   0  0  0  0  0  0  0  0  0  0  0  0
   -5.2420   25.4940  -31.2180 O   0  0  0  0  0  0  0  0  0  0  0  0
   -3.5020   23.7720  -31.2140 O   0  0  0  0  0  0  0  0  0  0  0  0
   -5.7640   23.0980  -32.2690 N   0  0  0  0  0  0  0  0  0  0  0  0
   -6.9170   22.3120  -32.1280 C   0  0  0  0  0  0  0  0  0  0  0  0
   -8.0920   22.7180  -31.5340 C   0  0  0  0  0  0  0  0  0  0  0  0
   -9.2110   21.9110  -31.4310 C   0  0  0  0  0  0  0  0  0  0  0  0
   -9.1860   20.6300  -31.9390 C   0  0  0  0  0  0  0  0  0  0  0  0
   -8.0220   20.2050  -32.5390 C   0  0  0  0  0  0  0  0  0  0  0  0
   -8.0170   18.9390  -33.0330 F   0  0  0  0  0  0  0  0  0  0  0  0
   -6.8930   21.0300  -32.6370 C   0  0  0  0  0  0  0  0  0  0  0  0
   -5.4770   20.3130  -33.4510 S   0  0  0  0  0  0  0  0  0  0  0  0
   -3.9950   20.7120  -32.5470 C   0  0  0  0  0  0  0  0  0  0  0  0
   -3.8570   20.5560  -31.1890 C   0  0  0  0  0  0  0  0  0  0  0  0
   -2.6710   20.8930  -30.5280 C   0  0  0  0  0  0  0  0  0  0  0  0
   -1.6230   21.3950  -31.2810 C   0  0  0  0  0  0  0  0  0  0  0  0
   -1.7670   21.5520  -32.6630 C   0  0  0  0  0  0  0  0  0  0  0  0
   -2.9400   21.2040  -33.2190 N   0  0  0  0  0  0  0  0  0  0  0  0
   -3.5530   23.0389  -26.7680 H   0  0  0  0  0  0  0  0  0  0  0  0
   -3.8276   22.0409  -28.2360 H   0  0  0  0  0  0  0  0  0  0  0  0
   -2.5530   23.3066  -28.2360 H   0  0  0  0  0  0  0  0  0  0  0  0
   -5.1997   24.3783  -27.5330 H   0  0  0  0  0  0  0  0  0  0  0  0
   -4.0254   24.9198  -28.7862 H   0  0  0  0  0  0  0  0  0  0  0  0
   -5.3179   22.3352  -29.4486 H   0  0  0  0  0  0  0  0  0  0  0  0
   -6.4896   23.7026  -29.2762 H   0  0  0  0  0  0  0  0  0  0  0  0
   -5.3260   23.1230  -33.2320 H   0  0  0  0  0  0  0  0  0  0  0  0
   -8.1430   23.7360  -31.1204 H   0  0  0  0  0  0  0  0  0  0  0  0
  -10.1207   22.2917  -30.9437 H   0  0  0  0  0  0  0  0  0  0  0  0
  -10.0640   19.9712  -31.8677 H   0  0  0  0  0  0  0  0  0  0  0  0
   -4.7003   20.1561  -30.6068 H   0  0  0  0  0  0  0  0  0  0  0  0
   -2.5737   20.7628  -29.4401 H   0  0  0  0  0  0  0  0  0  0  0  0
   -0.6770   21.6704  -30.7919 H   0  0  0  0  0  0  0  0  0  0  0  0
   -0.9447   21.9485  -33.2767 H   0  0  0  0  0  0  0  0  0  0  0  0
  1  2  1  0
  2  3  1  0
  3  4  1  0
  4  5  2  0
  4  6  2  0
  4  7  1  0
  7  8  1  0
  8  9  2  0
  9 10  1  0
 10 11  2  0
 11 12  1  0
 12 13  1  0
 12 14  2  0
 14 15  1  0
 15 16  1  0
 16 17  2  0
 17 18  1  0
 18 19  2  0
 19 20  1  0
 20 21  2  0
 14  8  1  0
 21 16  1  0
  1 22  1  0
  1 23  1  0
  1 24  1  0
  2 25  1  0
  2 26  1  0
  3 27  1  0
  3 28  1  0
  7 29  1  0
  9 30  1  0
 10 31  1  0
 11 32  1  0
 17 33  1  0
 18 34  1  0
 19 35  1  0
 20 36  1  0
M  END
>  <smiles>  (23) 
CCCS(=O)(=O)Nc1cccc(F)c1Sc1ccccn1

>  <score_type>  (23) 
oracle

>  <origin>  (23) 
adg

>  <m_score__min__energy>  (23) 
-7.71

>  <m_primary>  (23) 
energy

$$$$
24:0
     RDKit          3D

 57 59  0  0  0  0  0  0  0  0999 V2000
   -5.0980   25.3780  -30.8430 C   0  0  0  0  0  0  0  0  0  0  0  0
   -3.7850   24.9310  -30.4710 N   0  0  0  0  0  0  0  0  0  0  0  0
   -3.6640   24.5460  -29.1030 C   0  0  0  0  0  0  0  0  0  0  0  0
   -3.9240   23.1110  -28.7650 C   0  0  0  0  0  0  0  0  0  0  0  0
   -2.9340   22.1070  -29.2330 C   0  0  0  0  0  0  0  0  0  0  0  0
   -2.6030   22.2940  -30.6130 O   0  0  0  0  0  0  0  0  0  0  0  0
   -2.5970   21.2970  -31.5510 C   0  0  0  0  0  0  0  0  0  0  0  0
   -1.8470   20.1420  -31.4740 C   0  0  0  0  0  0  0  0  0  0  0  0
   -1.8780   19.1630  -32.4530 C   0  0  0  0  0  0  0  0  0  0  0  0
   -2.7020   19.3790  -33.5380 C   0  0  0  0  0  0  0  0  0  0  0  0
   -2.7260   18.3150  -34.5760 C   0  0  0  0  0  0  0  0  0  0  0  0
   -3.8810   17.4860  -34.3400 N   0  0  0  0  0  0  0  0  0  0  0  0
   -3.7370   16.8760  -33.0390 C   0  0  0  0  0  0  0  0  0  0  0  0
   -4.9180   15.9950  -32.7920 C   0  0  0  0  0  0  0  0  0  0  0  0
   -6.0950   16.8210  -32.7590 N   0  0  0  0  0  0  0  0  0  0  0  0
   -6.1760   17.6980  -31.6320 C   0  0  0  0  0  0  0  0  0  0  0  0
   -7.2120   18.7230  -31.8590 C   0  0  0  0  0  0  0  0  0  0  0  0
   -8.5430   18.4430  -32.0910 C   0  0  0  0  0  0  0  0  0  0  0  0
   -9.4240   19.4860  -32.2860 C   0  0  0  0  0  0  0  0  0  0  0  0
   -9.0470   20.8090  -32.2640 C   0  0  0  0  0  0  0  0  0  0  0  0
   -7.7140   21.0730  -32.0320 C   0  0  0  0  0  0  0  0  0  0  0  0
   -7.1160   22.8980  -31.9920 Br  0  0  0  0  0  0  0  0  0  0  0  0
   -6.8030   20.0480  -31.8310 C   0  0  0  0  0  0  0  0  0  0  0  0
   -6.3120   17.5190  -34.0090 C   0  0  0  0  0  0  0  0  0  0  0  0
   -5.0880   18.2440  -34.4860 C   0  0  0  0  0  0  0  0  0  0  0  0
   -3.4630   20.5140  -33.6510 C   0  0  0  0  0  0  0  0  0  0  0  0
   -3.4200   21.4790  -32.6670 C   0  0  0  0  0  0  0  0  0  0  0  0
   -4.1710   22.6010  -32.7780 F   0  0  0  0  0  0  0  0  0  0  0  0
   -5.6876   25.5787  -29.9363 H   0  0  0  0  0  0  0  0  0  0  0  0
   -5.0166   26.2991  -31.4388 H   0  0  0  0  0  0  0  0  0  0  0  0
   -5.5955   24.5986  -31.4388 H   0  0  0  0  0  0  0  0  0  0  0  0
   -3.3380   24.2900  -31.1350 H   0  0  0  0  0  0  0  0  0  0  0  0
   -2.6373   24.7791  -28.7843 H   0  0  0  0  0  0  0  0  0  0  0  0
   -4.4556   25.1052  -28.5826 H   0  0  0  0  0  0  0  0  0  0  0  0
   -3.9778   23.0349  -27.6690 H   0  0  0  0  0  0  0  0  0  0  0  0
   -4.8522   22.8604  -29.2995 H   0  0  0  0  0  0  0  0  0  0  0  0
   -2.0184   22.2015  -28.6307 H   0  0  0  0  0  0  0  0  0  0  0  0
   -3.3790   21.1075  -29.1193 H   0  0  0  0  0  0  0  0  0  0  0  0
   -1.1975   19.9923  -30.5989 H   0  0  0  0  0  0  0  0  0  0  0  0
   -1.2701   18.2501  -32.3688 H   0  0  0  0  0  0  0  0  0  0  0  0
   -2.7915   18.7702  -35.5752 H   0  0  0  0  0  0  0  0  0  0  0  0
   -1.8072   17.7122  -34.5255 H   0  0  0  0  0  0  0  0  0  0  0  0
   -2.8152   16.2765  -33.0108 H   0  0  0  0  0  0  0  0  0  0  0  0
   -3.6800   17.6540  -32.2635 H   0  0  0  0  0  0  0  0  0  0  0  0
   -5.0055   15.2540  -33.6003 H   0  0  0  0  0  0  0  0  0  0  0  0
   -4.8012   15.4613  -31.8373 H   0  0  0  0  0  0  0  0  0  0  0  0
   -6.4320   17.1148  -30.7351 H   0  0  0  0  0  0  0  0  0  0  0  0
   -5.2042   18.1940  -31.4920 H   0  0  0  0  0  0  0  0  0  0  0  0
   -8.8967   17.4018  -32.1200 H   0  0  0  0  0  0  0  0  0  0  0  0
  -10.4823   19.2479  -32.4685 H   0  0  0  0  0  0  0  0  0  0  0  0
   -9.7750   21.6180  -32.4240 H   0  0  0  0  0  0  0  0  0  0  0  0
   -5.7452   20.2877  -31.6475 H   0  0  0  0  0  0  0  0  0  0  0  0
   -6.6082   16.7866  -34.7745 H   0  0  0  0  0  0  0  0  0  0  0  0
   -7.0982   18.2694  -33.8390 H   0  0  0  0  0  0  0  0  0  0  0  0
   -5.2200   18.4867  -35.5507 H   0  0  0  0  0  0  0  0  0  0  0  0
   -4.9819   19.1441  -33.8627 H   0  0  0  0  0  0  0  0  0  0  0  0
   -4.1099   20.6552  -34.5294 H   0  0  0  0  0  0  0  0  0  0  0  0
  1  2  1  0
  2  3  1  0
  3  4  1  0
  4  5  1  0
  5  6  1  0
  6  7  1  0
  7  8  2  0
  8  9  1  0
  9 10  2  0
 10 11  1  0
 11 12  1  0
 12 13  1  0
 13 14  1  0
 14 15  1  0
 15 16  1  0
 16 17  1  0
 17 18  2  0
 18 19  1  0
 19 20  2  0
 20 21  1  0
 21 22  1  0
 21 23  2  0
 15 24  1  0
 24 25  1  0
 10 26  1  0
 26 27  2  0
 27 28  1  0
 27  7  1  0
 25 12  1  0
 23 17  1  0
  1 29  1  0
  1 30  1  0
  1 31  1  0
  2 32  1  0
  3 33  1  0
  3 34  1  0
  4 35  1  0
  4 36  1  0
  5 37  1  0
  5 38  1  0
  8 39  1  0
  9 40  1  0
 11 41  1  0
 11 42  1  0
 13 43  1  0
 13 44  1  0
 14 45  1  0
 14 46  1  0
 16 47  1  0
 16 48  1  0
 18 49  1  0
 19 50  1  0
 20 51  1  0
 23 52  1  0
 24 53  1  0
 24 54  1  0
 25 55  1  0
 25 56  1  0
 26 57  1  0
M  END
>  <smiles>  (24) 
CNCCCOc1ccc(CN2CCN(Cc3cccc(Br)c3)CC2)cc1F

>  <score_type>  (24) 
oracle

>  <origin>  (24) 
adg

>  <m_score__min__energy>  (24) 
-9.2699999999999996

>  <m_primary>  (24) 
energy

$$$$
25:0
     RDKit          3D

 53 56  0  0  0  0  0  0  0  0999 V2000
   -2.8240   20.3860  -31.0480 C   0  0  0  0  0  0  0  0  0  0  0  0
   -3.0120   20.0630  -32.4110 O   0  0  0  0  0  0  0  0  0  0  0  0
   -1.9640   20.2070  -33.2880 C   0  0  0  0  0  0  0  0  0  0  0  0
   -1.2510   21.3970  -33.4120 C   0  0  0  0  0  0  0  0  0  0  0  0
   -0.1920   21.5000  -34.3180 C   0  0  0  0  0  0  0  0  0  0  0  0
    0.1100   20.3790  -35.0730 C   0  0  0  0  0  0  0  0  0  0  0  0
   -0.5890   19.2090  -34.9530 C   0  0  0  0  0  0  0  0  0  0  0  0
   -1.6220   19.1130  -34.0670 C   0  0  0  0  0  0  0  0  0  0  0  0
   -2.3730   17.8880  -33.9170 N   0  0  0  0  0  0  0  0  0  0  0  0
   -2.0560   17.0830  -32.7690 C   0  0  0  0  0  0  0  0  0  0  0  0
   -2.2400   15.5870  -33.0860 C   0  0  0  0  0  0  0  0  0  0  0  0
   -3.4660   15.5040  -33.7920 N   0  0  0  0  0  0  0  0  0  0  0  0
   -4.6530   15.2940  -33.0710 C   0  0  0  0  0  0  0  0  0  0  0  0
   -5.8760   15.9670  -33.6220 C   0  0  0  0  0  0  0  0  0  0  0  0
   -5.9940   17.3900  -33.3190 C   0  0  0  0  0  0  0  0  0  0  0  0
   -6.4080   18.3700  -34.1910 C   0  0  0  0  0  0  0  0  0  0  0  0
   -6.4820   19.6900  -33.7860 C   0  0  0  0  0  0  0  0  0  0  0  0
   -6.1530   20.0870  -32.5090 C   0  0  0  0  0  0  0  0  0  0  0  0
   -6.2360   21.5180  -32.1010 C   0  0  0  0  0  0  0  0  0  0  0  0
   -7.4920   22.1070  -31.9770 C   0  0  0  0  0  0  0  0  0  0  0  0
   -7.2010   23.7970  -31.4820 S   0  0  0  0  0  0  0  0  0  0  0  0
   -5.3700   23.5300  -31.4940 C   0  0  0  0  0  0  0  0  0  0  0  0
   -4.5380   24.4520  -31.2030 O   0  0  0  0  0  0  0  0  0  0  0  0
   -5.1920   22.2420  -31.8570 N   0  0  0  0  0  0  0  0  0  0  0  0
   -5.7410   19.1170  -31.6330 C   0  0  0  0  0  0  0  0  0  0  0  0
   -5.6610   17.7960  -32.0210 C   0  0  0  0  0  0  0  0  0  0  0  0
   -3.5180   16.1110  -35.0630 C   0  0  0  0  0  0  0  0  0  0  0  0
   -3.3520   17.6020  -34.9100 C   0  0  0  0  0  0  0  0  0  0  0  0
   -3.2784   19.6054  -30.4201 H   0  0  0  0  0  0  0  0  0  0  0  0
   -1.7474   20.4502  -30.8315 H   0  0  0  0  0  0  0  0  0  0  0  0
   -3.2999   21.3538  -30.8315 H   0  0  0  0  0  0  0  0  0  0  0  0
   -1.5238   22.2633  -32.7914 H   0  0  0  0  0  0  0  0  0  0  0  0
    0.3788   22.4340  -34.4271 H   0  0  0  0  0  0  0  0  0  0  0  0
    0.9397   20.4310  -35.7933 H   0  0  0  0  0  0  0  0  0  0  0  0
   -0.3170   18.3423  -35.5733 H   0  0  0  0  0  0  0  0  0  0  0  0
   -1.0109   17.2646  -32.4780 H   0  0  0  0  0  0  0  0  0  0  0  0
   -2.7339   17.3565  -31.9470 H   0  0  0  0  0  0  0  0  0  0  0  0
   -1.4108   15.2200  -33.7087 H   0  0  0  0  0  0  0  0  0  0  0  0
   -2.2487   14.9719  -32.1741 H   0  0  0  0  0  0  0  0  0  0  0  0
   -4.8457   14.2113  -33.0449 H   0  0  0  0  0  0  0  0  0  0  0  0
   -4.4853   15.7409  -32.0800 H   0  0  0  0  0  0  0  0  0  0  0  0
   -5.8635   15.8522  -34.7159 H   0  0  0  0  0  0  0  0  0  0  0  0
   -6.7356   15.4803  -33.1380 H   0  0  0  0  0  0  0  0  0  0  0  0
   -6.6831   18.1007  -35.2214 H   0  0  0  0  0  0  0  0  0  0  0  0
   -6.8152   20.4493  -34.5088 H   0  0  0  0  0  0  0  0  0  0  0  0
   -8.4668   21.6274  -32.1494 H   0  0  0  0  0  0  0  0  0  0  0  0
   -4.1850   21.8840  -31.9240 H   0  0  0  0  0  0  0  0  0  0  0  0
   -5.4698   19.3964  -30.6042 H   0  0  0  0  0  0  0  0  0  0  0  0
   -5.3272   17.0424  -31.2925 H   0  0  0  0  0  0  0  0  0  0  0  0
   -2.7087   15.7139  -35.6933 H   0  0  0  0  0  0  0  0  0  0  0  0
   -4.4875   15.8946  -35.5355 H   0  0  0  0  0  0  0  0  0  0  0  0
   -3.0320   18.0325  -35.8704 H   0  0  0  0  0  0  0  0  0  0  0  0
   -4.3131   18.0407  -34.6036 H   0  0  0  0  0  0  0  0  0  0  0  0
  1  2  1  0
  2  3  1  0
  3  4  2  0
  4  5  1  0
  5  6  2  0
  6  7  1  0
  7  8  2  0
  8  9  1  0
  9 10  1  0
 10 11  1  0
 11 12  1  0
 12 13  1  0
 13 14  1  0
 14 15  1  0
 15 16  2  0
 16 17  1  0
 17 18  2  0
 18 19  1  0
 19 20  2  0
 20 21  1  0
 21 22  1  0
 22 23  2  0
 22 24  1  0
 18 25  1  0
 25 26  2  0
 12 27  1  0
 27 28  1  0
  8  3  1  0
 28  9  1  0
 26 15  1  0
 24 19  1  0
  1 29  1  0
  1 30  1  0
  1 31  1  0
  4 32  1  0
  5 33  1  0
  6 34  1  0
  7 35  1  0
 10 36  1  0
 10 37  1  0
 11 38  1  0
 11 39  1  0
 13 40  1  0
 13 41  1  0
 14 42  1  0
 14 43  1  0
 16 44  1  0
 17 45  1  0
 20 46  1  0
 24 47  1  0
 25 48  1  0
 26 49  1  0
 27 50  1  0
 27 51  1  0
 28 52  1  0
 28 53  1  0
M  END
>  <smiles>  (25) 
COc1ccccc1N1CCN(CCc2ccc(-c3csc(=O)[nH]3)cc2)CC1

>  <score_type>  (25) 
oracle

>  <origin>  (25) 
adg

>  <m_score__min__energy>  (25) 
-9.1699999999999999

>  <m_primary>  (25) 
energy

$$$$
26:0
     RDKit          3D

 38 40  0  0  0  0  0  0  0  0999 V2000
   -1.3600   23.4130  -29.8500 C   0  0  0  0  0  0  0  0  0  0  0  0
   -1.4050   24.2650  -28.6170 C   0  0  0  0  0  0  0  0  0  0  0  0
   -0.2630   24.8460  -28.2040 N   0  0  0  0  0  0  0  0  0  0  0  0
   -0.2800   25.6170  -27.0990 C   0  0  0  0  0  0  0  0  0  0  0  0
    0.8920   26.1950  -26.7000 C   0  0  0  0  0  0  0  0  0  0  0  0
    0.8890   26.9960  -25.5560 C   0  0  0  0  0  0  0  0  0  0  0  0
   -0.3130   27.1720  -24.8680 C   0  0  0  0  0  0  0  0  0  0  0  0
   -1.4750   26.5840  -25.2830 C   0  0  0  0  0  0  0  0  0  0  0  0
   -1.4600   25.7970  -26.4110 C   0  0  0  0  0  0  0  0  0  0  0  0
   -2.6340   25.1830  -26.8600 C   0  0  0  0  0  0  0  0  0  0  0  0
   -3.7270   25.3230  -26.2620 O   0  0  0  0  0  0  0  0  0  0  0  0
   -2.5800   24.4180  -27.9720 N   0  0  0  0  0  0  0  0  0  0  0  0
   -3.7090   23.7650  -28.4910 N   0  0  0  0  0  0  0  0  0  0  0  0
   -4.3160   24.0940  -29.7120 C   0  0  0  0  0  0  0  0  0  0  0  0
   -3.8710   25.0290  -30.4480 O   0  0  0  0  0  0  0  0  0  0  0  0
   -5.4960   23.3190  -30.1260 C   0  0  0  0  0  0  0  0  0  0  0  0
   -6.1860   22.6570  -29.3060 O   0  0  0  0  0  0  0  0  0  0  0  0
   -5.9250   23.2760  -31.4870 N   0  0  0  0  0  0  0  0  0  0  0  0
   -7.0910   22.4800  -31.7470 C   0  0  0  0  0  0  0  0  0  0  0  0
   -8.3590   23.0090  -31.7380 C   0  0  0  0  0  0  0  0  0  0  0  0
   -9.4130   22.1590  -31.9990 C   0  0  0  0  0  0  0  0  0  0  0  0
   -9.2170   20.8000  -32.2670 C   0  0  0  0  0  0  0  0  0  0  0  0
   -7.9380   20.2810  -32.2730 C   0  0  0  0  0  0  0  0  0  0  0  0
   -7.6070   18.4240  -32.6360 Br  0  0  0  0  0  0  0  0  0  0  0  0
   -6.8580   21.1320  -32.0100 C   0  0  0  0  0  0  0  0  0  0  0  0
   -1.3040   22.3530  -29.5614 H   0  0  0  0  0  0  0  0  0  0  0  0
   -2.2684   23.5831  -30.4466 H   0  0  0  0  0  0  0  0  0  0  0  0
   -0.4746   23.6778  -30.4466 H   0  0  0  0  0  0  0  0  0  0  0  0
    1.8195   26.0326  -27.2686 H   0  0  0  0  0  0  0  0  0  0  0  0
    1.8134   27.4777  -25.2047 H   0  0  0  0  0  0  0  0  0  0  0  0
   -0.3253   27.8018  -23.9662 H   0  0  0  0  0  0  0  0  0  0  0  0
   -2.4090   26.7380  -24.7228 H   0  0  0  0  0  0  0  0  0  0  0  0
   -4.1040   22.9810  -27.9020 H   0  0  0  0  0  0  0  0  0  0  0  0
   -5.4130   23.7920  -32.2170 H   0  0  0  0  0  0  0  0  0  0  0  0
   -8.5279   24.0758  -31.5294 H   0  0  0  0  0  0  0  0  0  0  0  0
  -10.4369   22.5609  -31.9964 H   0  0  0  0  0  0  0  0  0  0  0  0
  -10.0786   20.1477  -32.4721 H   0  0  0  0  0  0  0  0  0  0  0  0
   -5.8309   20.7383  -32.0110 H   0  0  0  0  0  0  0  0  0  0  0  0
  1  2  1  0
  2  3  2  0
  3  4  1  0
  4  5  2  0
  5  6  1  0
  6  7  2  0
  7  8  1  0
  8  9  2  0
  9 10  1  0
 10 11  2  0
 10 12  1  0
 12 13  1  0
 13 14  1  0
 14 15  2  0
 14 16  1  0
 16 17  2  0
 16 18  1  0
 18 19  1  0
 19 20  2  0
 20 21  1  0
 21 22  2  0
 22 23  1  0
 23 24  1  0
 23 25  2  0
 12  2  1  0
 25 19  1  0
  9  4  1  0
  1 26  1  0
  1 27  1  0
  1 28  1  0
  5 29  1  0
  6 30  1  0
  7 31  1  0
  8 32  1  0
 13 33  1  0
 18 34  1  0
 20 35  1  0
 21 36  1  0
 22 37  1  0
 25 38  1  0
M  END
>  <smiles>  (26) 
Cc1nc2ccccc2c(=O)n1NC(=O)C(=O)Nc1cccc(Br)c1

>  <score_type>  (26) 
oracle

>  <origin>  (26) 
adg

>  <m_score__min__energy>  (26) 
-9.3200000000000003

>  <m_primary>  (26) 
energy

$$$$
27:0
     RDKit          3D

 37 38  0  0  1  0  0  0  0  0999 V2000
   -6.4640   26.0490  -28.9670 C   0  0  0  0  0  0  0  0  0  0  0  0
   -5.9650   25.7880  -30.2760 O   0  0  0  0  0  0  0  0  0  0  0  0
   -5.8840   24.4970  -30.7400 C   0  0  0  0  0  0  0  0  0  0  0  0
   -7.0290   23.8130  -31.0960 C   0  0  0  0  0  0  0  0  0  0  0  0
   -6.9840   22.4970  -31.5720 C   0  0  0  0  0  0  0  0  0  0  0  0
   -8.1990   21.7870  -31.9450 C   0  0  0  0  0  0  0  0  0  0  0  0
   -8.6050   20.6650  -31.4000 C   0  0  0  0  0  0  0  0  0  0  0  0
   -8.4840   19.4270  -32.1550 C   0  0  0  0  0  0  0  0  0  0  0  0
   -9.4860   18.6820  -32.3070 O   0  0  0  0  0  0  0  0  0  0  0  0
   -7.2080   19.0830  -32.7140 C   0  0  0  0  0  0  0  0  0  0  0  0
   -6.4910   19.4850  -33.7720 C   0  0  0  0  0  0  0  0  0  0  0  0
   -5.2920   18.9410  -34.0250 C   0  0  0  0  0  0  0  0  0  0  0  0
   -4.8400   17.9680  -33.1610 C   0  0  0  0  0  0  0  0  0  0  0  0
   -6.1870   17.7950  -31.9000 S   0  0  0  0  0  0  0  0  0  0  0  0
   -5.7220   21.9460  -31.6570 C   0  0  0  0  0  0  0  0  0  0  0  0
   -4.5730   22.6270  -31.3010 C   0  0  0  0  0  0  0  0  0  0  0  0
   -3.3030   22.0520  -31.3940 O   0  0  0  0  0  0  0  0  0  0  0  0
   -2.9770   21.3650  -32.5870 C   0  0  0  0  0  0  0  0  0  0  0  0
   -4.6410   23.9100  -30.8390 C   0  0  0  0  0  0  0  0  0  0  0  0
   -3.5050   24.6050  -30.4800 O   0  0  0  0  0  0  0  0  0  0  0  0
   -2.6950   24.2380  -29.3600 C   0  0  0  0  0  0  0  0  0  0  0  0
   -5.7482   25.6746  -28.2203 H   0  0  0  0  0  0  0  0  0  0  0  0
   -6.5982   27.1328  -28.8351 H   0  0  0  0  0  0  0  0  0  0  0  0
   -7.4308   25.5411  -28.8351 H   0  0  0  0  0  0  0  0  0  0  0  0
   -8.0031   24.3154  -31.0032 H   0  0  0  0  0  0  0  0  0  0  0  0
   -8.8211   22.2226  -32.7408 H   0  0  0  0  0  0  0  0  0  0  0  0
   -9.0312   20.6601  -30.3859 H   0  0  0  0  0  0  0  0  0  0  0  0
   -6.8884   20.2660  -34.4370 H   0  0  0  0  0  0  0  0  0  0  0  0
   -4.6918   19.2597  -34.8900 H   0  0  0  0  0  0  0  0  0  0  0  0
   -3.8898   17.4159  -33.2089 H   0  0  0  0  0  0  0  0  0  0  0  0
   -5.6254   20.9143  -32.0261 H   0  0  0  0  0  0  0  0  0  0  0  0
   -2.5176   20.3968  -32.3388 H   0  0  0  0  0  0  0  0  0  0  0  0
   -3.8914   21.1970  -33.1749 H   0  0  0  0  0  0  0  0  0  0  0  0
   -2.2685   21.9670  -33.1749 H   0  0  0  0  0  0  0  0  0  0  0  0
   -3.2271   24.4791  -28.4280 H   0  0  0  0  0  0  0  0  0  0  0  0
   -2.4881   23.1582  -29.3953 H   0  0  0  0  0  0  0  0  0  0  0  0
   -1.7467   24.7944  -29.3953 H   0  0  0  0  0  0  0  0  0  0  0  0
  1  2  1  0
  2  3  1  0
  3  4  2  0
  4  5  1  0
  5  6  1  0
  6  7  2  0
  7  8  1  0
  8  9  2  0
  8 10  1  0
 10 11  2  0
 11 12  1  0
 12 13  2  0
 13 14  1  0
  5 15  2  0
 15 16  1  0
 16 17  1  0
 17 18  1  0
 16 19  2  0
 19 20  1  0
 20 21  1  0
 19  3  1  0
 14 10  1  0
  1 22  1  0
  1 23  1  0
  1 24  1  0
  4 25  1  0
  6 26  1  0
  7 27  1  0
 11 28  1  0
 12 29  1  0
 13 30  1  0
 15 31  1  0
 18 32  1  0
 18 33  1  0
 18 34  1  0
 21 35  1  0
 21 36  1  0
 21 37  1  0
M  END
>  <smiles>  (27) 
COc1cc(C=CC(=O)c2cccs2)cc(OC)c1OC

>  <score_type>  (27) 
oracle

>  <origin>  (27) 
adg

>  <m_score__min__energy>  (27) 
-7.4699999999999998

>  <m_primary>  (27) 
energy

$$$$
28:0
     RDKit          3D

 46 48  0  0  0  0  0  0  0  0999 V2000
   -5.6200   18.1100  -34.9350 C   0  0  0  0  0  0  0  0  0  0  0  0
   -4.5920   17.6810  -33.9100 C   0  0  0  0  0  0  0  0  0  0  0  0
   -3.4880   18.6160  -33.8480 N   0  0  0  0  0  0  0  0  0  0  0  0
   -2.5430   18.1130  -32.8720 C   0  0  0  0  0  0  0  0  0  0  0  0
   -3.9020   19.9170  -33.4450 C   0  0  0  0  0  0  0  0  0  0  0  0
   -4.0480   20.1050  -31.9480 C   0  0  0  0  0  0  0  0  0  0  0  0
   -4.7820   21.2860  -31.6190 N   0  0  0  0  0  0  0  0  0  0  0  0
   -4.2080   22.4460  -31.2010 C   0  0  0  0  0  0  0  0  0  0  0  0
   -2.7400   22.7100  -31.0060 C   0  0  0  0  0  0  0  0  0  0  0  0
   -5.1510   23.4130  -30.9590 C   0  0  0  0  0  0  0  0  0  0  0  0
   -4.9370   24.7910  -30.4980 C   0  0  0  0  0  0  0  0  0  0  0  0
   -5.9780   25.4190  -29.6580 C   0  0  0  0  0  0  0  0  0  0  0  0
   -3.8730   25.3740  -30.8420 O   0  0  0  0  0  0  0  0  0  0  0  0
   -6.3630   22.8380  -31.2350 C   0  0  0  0  0  0  0  0  0  0  0  0
   -7.6210   23.3890  -31.1530 C   0  0  0  0  0  0  0  0  0  0  0  0
   -8.6700   22.6130  -31.4840 N   0  0  0  0  0  0  0  0  0  0  0  0
   -8.4580   21.3350  -31.8840 C   0  0  0  0  0  0  0  0  0  0  0  0
   -9.6100   20.6210  -32.2110 C   0  0  0  0  0  0  0  0  0  0  0  0
   -9.4300   19.3330  -32.6260 C   0  0  0  0  0  0  0  0  0  0  0  0
   -8.1910   18.7500  -32.7240 C   0  0  0  0  0  0  0  0  0  0  0  0
   -7.0510   19.4960  -32.3850 C   0  0  0  0  0  0  0  0  0  0  0  0
   -7.1980   20.7800  -31.9680 C   0  0  0  0  0  0  0  0  0  0  0  0
   -6.1030   21.5470  -31.6340 C   0  0  0  0  0  0  0  0  0  0  0  0
   -6.5171   18.4844  -34.4201 H   0  0  0  0  0  0  0  0  0  0  0  0
   -5.1991   18.9076  -35.5649 H   0  0  0  0  0  0  0  0  0  0  0  0
   -5.8909   17.2498  -35.5649 H   0  0  0  0  0  0  0  0  0  0  0  0
   -5.0722   17.6276  -32.9218 H   0  0  0  0  0  0  0  0  0  0  0  0
   -4.1975   16.6975  -34.2050 H   0  0  0  0  0  0  0  0  0  0  0  0
   -2.9206   18.3140  -31.8586 H   0  0  0  0  0  0  0  0  0  0  0  0
   -2.4174   17.0287  -33.0082 H   0  0  0  0  0  0  0  0  0  0  0  0
   -1.5734   18.6144  -33.0082 H   0  0  0  0  0  0  0  0  0  0  0  0
   -3.1579   20.6406  -33.8093 H   0  0  0  0  0  0  0  0  0  0  0  0
   -4.9034   20.0689  -33.8742 H   0  0  0  0  0  0  0  0  0  0  0  0
   -4.5747   19.2336  -31.5317 H   0  0  0  0  0  0  0  0  0  0  0  0
   -3.0391   20.2059  -31.5214 H   0  0  0  0  0  0  0  0  0  0  0  0
   -2.5145   22.7506  -29.9301 H   0  0  0  0  0  0  0  0  0  0  0  0
   -2.1570   21.9023  -31.4726 H   0  0  0  0  0  0  0  0  0  0  0  0
   -2.4750   23.6702  -31.4726 H   0  0  0  0  0  0  0  0  0  0  0  0
   -5.7315   25.2703  -28.5963 H   0  0  0  0  0  0  0  0  0  0  0  0
   -6.0248   26.4961  -29.8762 H   0  0  0  0  0  0  0  0  0  0  0  0
   -6.9526   24.9580  -29.8762 H   0  0  0  0  0  0  0  0  0  0  0  0
   -7.7649   24.4298  -30.8275 H   0  0  0  0  0  0  0  0  0  0  0  0
  -10.6108   21.0716  -32.1384 H   0  0  0  0  0  0  0  0  0  0  0  0
  -10.3152   18.7371  -32.8932 H   0  0  0  0  0  0  0  0  0  0  0  0
   -8.0924   17.7088  -33.0647 H   0  0  0  0  0  0  0  0  0  0  0  0
   -6.0500   19.0455  -32.4564 H   0  0  0  0  0  0  0  0  0  0  0  0
  1  2  1  0
  2  3  1  0
  3  4  1  0
  3  5  1  0
  5  6  1  0
  6  7  1  0
  7  8  1  0
  8  9  1  0
  8 10  2  0
 10 11  1  0
 11 12  1  0
 11 13  2  0
 10 14  1  0
 14 15  2  0
 15 16  1  0
 16 17  2  0
 17 18  1  0
 18 19  2  0
 19 20  1  0
 20 21  2  0
 21 22  1  0
 22 23  2  0
 23  7  1  0
 23 14  1  0
 22 17  1  0
  1 24  1  0
  1 25  1  0
  1 26  1  0
  2 27  1  0
  2 28  1  0
  4 29  1  0
  4 30  1  0
  4 31  1  0
  5 32  1  0
  5 33  1  0
  6 34  1  0
  6 35  1  0
  9 36  1  0
  9 37  1  0
  9 38  1  0
 12 39  1  0
 12 40  1  0
 12 41  1  0
 15 42  1  0
 18 43  1  0
 19 44  1  0
 20 45  1  0
 21 46  1  0
M  END
>  <smiles>  (28) 
CCN(C)CCn1c(C)c(C(C)=O)c2cnc3ccccc3c21

>  <score_type>  (28) 
oracle

>  <origin>  (28) 
adg

>  <m_score__min__energy>  (28) 
-8.9900000000000002

>  <m_primary>  (28) 
energy

$$$$
29:0
     RDKit          3D

 58 62  0  0  1  0  0  0  0  0999 V2000
    0.3360   17.1470  -27.4270 C   0  0  0  0  0  0  0  0  0  0  0  0
    0.2360   18.3700  -28.3220 C   0  0  0  0  0  0  0  0  0  0  0  0
   -0.8940   19.2140  -27.9530 N   0  0  0  0  0  0  0  0  0  0  0  0
   -1.8490   18.9660  -27.0320 C   0  0  0  0  0  0  0  0  0  0  0  0
   -2.7170   20.0190  -27.0030 N   0  0  0  0  0  0  0  0  0  0  0  0
   -2.3180   20.9370  -27.9010 C   0  0  0  0  0  0  0  0  0  0  0  0
   -2.7900   22.1820  -28.3110 C   0  0  0  0  0  0  0  0  0  0  0  0
   -2.1010   22.8820  -29.3030 C   0  0  0  0  0  0  0  0  0  0  0  0
   -2.6050   24.1870  -29.7250 C   0  0  1  0  0  0  0  0  0  0  0  0
   -4.0930   24.3030  -29.8350 C   0  0  0  0  0  0  0  0  0  0  0  0
   -4.6080   24.1800  -31.1210 O   0  0  0  0  0  0  0  0  0  0  0  0
   -5.3580   23.1040  -31.5690 C   0  0  0  0  0  0  0  0  0  0  0  0
   -4.7070   22.1130  -32.2810 C   0  0  0  0  0  0  0  0  0  0  0  0
   -5.4390   21.0340  -32.7340 C   0  0  0  0  0  0  0  0  0  0  0  0
   -6.8050   20.9880  -32.4550 C   0  0  0  0  0  0  0  0  0  0  0  0
   -7.4580   19.9080  -32.9270 N   0  0  0  0  0  0  0  0  0  0  0  0
   -8.7610   19.8020  -32.6960 C   0  0  0  0  0  0  0  0  0  0  0  0
   -9.5020   20.7460  -31.9900 C   0  0  0  0  0  0  0  0  0  0  0  0
   -8.8020   21.8580  -31.5120 C   0  0  0  0  0  0  0  0  0  0  0  0
   -7.4380   21.9850  -31.7430 C   0  0  0  0  0  0  0  0  0  0  0  0
   -6.7080   23.0680  -31.2880 C   0  0  0  0  0  0  0  0  0  0  0  0
   -2.1200   25.2980  -28.9660 N   0  0  0  0  0  0  0  0  0  0  0  0
   -1.5860   25.2590  -27.8290 C   0  0  0  0  0  0  0  0  0  0  0  0
   -2.4740   25.2760  -26.6300 C   0  0  0  0  0  0  0  0  0  0  0  0
   -1.5910   25.1410  -25.4020 C   0  0  0  0  0  0  0  0  0  0  0  0
   -0.6140   26.3190  -25.3990 C   0  0  0  0  0  0  0  0  0  0  0  0
    0.2060   26.3460  -26.6590 C   0  0  0  0  0  0  0  0  0  0  0  0
   -0.1290   25.1960  -27.6010 C   0  0  0  0  0  0  0  0  0  0  0  0
   -0.9570   22.3040  -29.8530 C   0  0  0  0  0  0  0  0  0  0  0  0
   -0.5060   21.0950  -29.4510 N   0  0  0  0  0  0  0  0  0  0  0  0
   -1.1780   20.4320  -28.4940 C   0  0  0  0  0  0  0  0  0  0  0  0
    0.3103   17.4609  -26.3730 H   0  0  0  0  0  0  0  0  0  0  0  0
   -0.5101   16.4740  -27.6299 H   0  0  0  0  0  0  0  0  0  0  0  0
    1.2802   16.6204  -27.6299 H   0  0  0  0  0  0  0  0  0  0  0  0
    1.1631   18.9551  -28.2318 H   0  0  0  0  0  0  0  0  0  0  0  0
    0.0865   18.0279  -29.3567 H   0  0  0  0  0  0  0  0  0  0  0  0
   -1.9167   18.0632  -26.4072 H   0  0  0  0  0  0  0  0  0  0  0  0
   -3.6966   22.6092  -27.8576 H   0  0  0  0  0  0  0  0  0  0  0  0
   -2.1831   24.2398  -30.7395 H   0  0  0  0  0  0  0  0  0  0  0  0
   -4.5417   23.5144  -29.2130 H   0  0  0  0  0  0  0  0  0  0  0  0
   -4.3425   25.3223  -29.5051 H   0  0  0  0  0  0  0  0  0  0  0  0
   -3.6278   22.1833  -32.4822 H   0  0  0  0  0  0  0  0  0  0  0  0
   -4.9550   20.2268  -33.3034 H   0  0  0  0  0  0  0  0  0  0  0  0
   -9.2857   18.9169  -33.0850 H   0  0  0  0  0  0  0  0  0  0  0  0
  -10.5814   20.6234  -31.8174 H   0  0  0  0  0  0  0  0  0  0  0  0
   -9.3353   22.6381  -30.9489 H   0  0  0  0  0  0  0  0  0  0  0  0
   -7.1897   23.8767  -30.7189 H   0  0  0  0  0  0  0  0  0  0  0  0
   -3.0308   26.2238  -26.5891 H   0  0  0  0  0  0  0  0  0  0  0  0
   -3.2003   24.4512  -26.6758 H   0  0  0  0  0  0  0  0  0  0  0  0
   -2.2087   25.1644  -24.4921 H   0  0  0  0  0  0  0  0  0  0  0  0
   -1.0438   24.1870  -25.4242 H   0  0  0  0  0  0  0  0  0  0  0  0
   -1.1829   27.2572  -25.3205 H   0  0  0  0  0  0  0  0  0  0  0  0
    0.0663   26.2062  -24.5420 H   0  0  0  0  0  0  0  0  0  0  0  0
    0.0179   27.2956  -27.1815 H   0  0  0  0  0  0  0  0  0  0  0  0
    1.2627   26.2437  -26.3710 H   0  0  0  0  0  0  0  0  0  0  0  0
    0.4109   25.3131  -28.5522 H   0  0  0  0  0  0  0  0  0  0  0  0
    0.1672   24.2277  -27.1713 H   0  0  0  0  0  0  0  0  0  0  0  0
   -0.4067   22.8471  -30.6355 H   0  0  0  0  0  0  0  0  0  0  0  0
  1  2  1  0
  2  3  1  0
  3  4  1  0
  4  5  2  0
  5  6  1  0
  6  7  2  0
  7  8  1  0
  8  9  1  0
  9 10  1  0
 10 11  1  0
 11 12  1  0
 12 13  2  0
 13 14  1  0
 14 15  2  0
 15 16  1  0
 16 17  2  0
 17 18  1  0
 18 19  2  0
 19 20  1  0
 20 21  2  0
  9 22  1  0
 22 23  2  3
 23 24  1  0
 24 25  1  0
 25 26  1  0
 26 27  1  0
 27 28  1  0
  8 29  2  0
 29 30  1  0
 30 31  2  0
 31  3  1  0
 31  6  1  0
 21 12  1  0
 28 23  1  0
 20 15  1  0
  1 32  1  0
  1 33  1  0
  1 34  1  0
  2 35  1  0
  2 36  1  0
  4 37  1  0
  7 38  1  0
  9 39  1  6
 10 40  1  0
 10 41  1  0
 13 42  1  0
 14 43  1  0
 17 44  1  0
 18 45  1  0
 19 46  1  0
 21 47  1  0
 24 48  1  0
 24 49  1  0
 25 50  1  0
 25 51  1  0
 26 52  1  0
 26 53  1  0
 27 54  1  0
 27 55  1  0
 28 56  1  0
 28 57  1  0
 29 58  1  0
M  END
>  <smiles>  (29) 
CCn1cnc2cc(C(COc3ccc4ncccc4c3)N=C3CCCCC3)cnc21

>  <score_type>  (29) 
oracle

>  <origin>  (29) 
adg

>  <m_score__min__energy>  (29) 
-10.27

>  <m_primary>  (29) 
energy

$$$$
30:0
     RDKit          3D

 75 79  0  0  1  0  0  0  0  0999 V2000
    4.3100   25.0980  -23.2830 C   0  0  0  0  0  0  0  0  0  0  0  0
    2.9310   25.3350  -23.8750 C   0  0  2  0  0  0  0  0  0  0  0  0
    2.7940   24.6320  -25.2190 C   0  0  0  0  0  0  0  0  0  0  0  0
    2.2180   25.5450  -26.2660 C   0  0  0  0  0  0  0  0  0  0  0  0
    3.2070   26.6670  -26.5440 C   0  0  0  0  0  0  0  0  0  0  0  0
    3.5660   27.2430  -25.1890 C   0  0  0  0  0  0  0  0  0  0  0  0
    2.8080   26.7390  -24.1250 N   0  0  0  0  0  0  0  0  0  0  0  0
    2.1820   27.5390  -23.1890 C   0  0  0  0  0  0  0  0  0  0  0  0
    0.7150   27.5460  -23.0290 C   0  0  0  0  0  0  0  0  0  0  0  0
   -0.0730   26.9230  -24.1060 C   0  0  0  0  0  0  0  0  0  0  0  0
   -0.5050   25.5980  -24.0690 C   0  0  0  0  0  0  0  0  0  0  0  0
   -1.2420   25.0490  -25.0970 C   0  0  0  0  0  0  0  0  0  0  0  0
   -1.5900   25.7860  -26.2170 C   0  0  0  0  0  0  0  0  0  0  0  0
   -2.3620   25.1330  -27.2460 C   0  0  0  0  0  0  0  0  0  0  0  0
   -3.5690   24.5460  -26.8900 C   0  0  0  0  0  0  0  0  0  0  0  0
   -4.3310   23.9100  -27.8630 C   0  0  0  0  0  0  0  0  0  0  0  0
   -3.9380   23.8360  -29.1800 C   0  0  0  0  0  0  0  0  0  0  0  0
   -4.6990   23.1900  -30.1930 N   0  0  0  0  0  0  0  0  0  0  0  0
   -4.1440   22.5520  -31.3360 C   0  0  0  0  0  0  0  0  0  0  0  0
   -4.9850   22.5090  -32.5590 C   0  0  0  0  0  0  0  0  0  0  0  0
   -6.4680   22.5980  -32.3440 C   0  0  0  0  0  0  0  0  0  0  0  0
   -7.0290   21.4320  -31.7340 N   0  0  0  0  0  0  0  0  0  0  0  0
   -8.4490   21.5730  -31.6480 C   0  0  0  0  0  0  0  0  0  0  0  0
   -9.1800   20.4360  -32.3360 C   0  0  0  0  0  0  0  0  0  0  0  0
   -8.7540   19.1550  -31.6580 C   0  0  0  0  0  0  0  0  0  0  0  0
   -7.2540   19.0070  -31.7600 C   0  0  0  0  0  0  0  0  0  0  0  0
   -6.5640   20.2170  -32.3300 C   0  0  0  0  0  0  0  0  0  0  0  0
   -6.6720   23.7530  -31.3520 C   0  0  0  0  0  0  0  0  0  0  0  0
   -6.1550   23.1800  -30.0480 C   0  0  0  0  0  0  0  0  0  0  0  0
   -2.7520   24.4260  -29.4790 N   0  0  0  0  0  0  0  0  0  0  0  0
   -1.9830   25.0510  -28.5690 C   0  0  0  0  0  0  0  0  0  0  0  0
   -1.1720   27.0870  -26.2650 C   0  0  0  0  0  0  0  0  0  0  0  0
   -0.4320   27.6390  -25.2300 C   0  0  0  0  0  0  0  0  0  0  0  0
    4.2445   25.1093  -22.1850 H   0  0  0  0  0  0  0  0  0  0  0  0
    4.6898   24.1214  -23.6177 H   0  0  0  0  0  0  0  0  0  0  0  0
    4.9941   25.8917  -23.6177 H   0  0  0  0  0  0  0  0  0  0  0  0
    2.1680   24.9562  -23.1790 H   0  0  0  0  0  0  0  0  0  0  0  0
    3.7878   24.2941  -25.5479 H   0  0  0  0  0  0  0  0  0  0  0  0
    2.1106   23.7794  -25.0928 H   0  0  0  0  0  0  0  0  0  0  0  0
    2.0353   24.9772  -27.1902 H   0  0  0  0  0  0  0  0  0  0  0  0
    1.2677   25.9678  -25.9079 H   0  0  0  0  0  0  0  0  0  0  0  0
    4.1044   26.2723  -27.0428 H   0  0  0  0  0  0  0  0  0  0  0  0
    2.7776   27.4310  -27.2088 H   0  0  0  0  0  0  0  0  0  0  0  0
    4.6253   27.0220  -24.9913 H   0  0  0  0  0  0  0  0  0  0  0  0
    3.3543   28.3212  -25.2411 H   0  0  0  0  0  0  0  0  0  0  0  0
    2.5980   27.2541  -22.2114 H   0  0  0  0  0  0  0  0  0  0  0  0
    2.3792   28.5494  -23.5764 H   0  0  0  0  0  0  0  0  0  0  0  0
    0.4795   27.0154  -22.0946 H   0  0  0  0  0  0  0  0  0  0  0  0
    0.4291   28.6081  -23.0403 H   0  0  0  0  0  0  0  0  0  0  0  0
   -0.2517   24.9752  -23.1984 H   0  0  0  0  0  0  0  0  0  0  0  0
   -1.5618   23.9989  -25.0258 H   0  0  0  0  0  0  0  0  0  0  0  0
   -3.9188   24.5840  -25.8478 H   0  0  0  0  0  0  0  0  0  0  0  0
   -5.2850   23.4479  -27.5691 H   0  0  0  0  0  0  0  0  0  0  0  0
   -3.2134   23.0799  -31.5916 H   0  0  0  0  0  0  0  0  0  0  0  0
   -4.0145   21.5002  -31.0413 H   0  0  0  0  0  0  0  0  0  0  0  0
   -4.6874   23.3509  -33.2013 H   0  0  0  0  0  0  0  0  0  0  0  0
   -4.8098   21.5182  -33.0035 H   0  0  0  0  0  0  0  0  0  0  0  0
   -6.9552   22.7269  -33.3217 H   0  0  0  0  0  0  0  0  0  0  0  0
   -8.7397   21.5907  -30.5873 H   0  0  0  0  0  0  0  0  0  0  0  0
   -8.7269   22.5090  -32.1547 H   0  0  0  0  0  0  0  0  0  0  0  0
  -10.2670   20.5718  -32.2360 H   0  0  0  0  0  0  0  0  0  0  0  0
   -8.9379   20.4089  -33.4087 H   0  0  0  0  0  0  0  0  0  0  0  0
   -9.0484   19.1852  -30.5986 H   0  0  0  0  0  0  0  0  0  0  0  0
   -9.2414   18.3000  -32.1493 H   0  0  0  0  0  0  0  0  0  0  0  0
   -6.8540   18.8217  -30.7522 H   0  0  0  0  0  0  0  0  0  0  0  0
   -7.0595   18.1718  -32.4489 H   0  0  0  0  0  0  0  0  0  0  0  0
   -5.4824   20.1256  -32.1515 H   0  0  0  0  0  0  0  0  0  0  0  0
   -6.7886   20.2597  -33.4060 H   0  0  0  0  0  0  0  0  0  0  0  0
   -6.0922   24.6384  -31.6519 H   0  0  0  0  0  0  0  0  0  0  0  0
   -7.7166   24.0923  -31.2917 H   0  0  0  0  0  0  0  0  0  0  0  0
   -6.4651   23.8062  -29.1985 H   0  0  0  0  0  0  0  0  0  0  0  0
   -6.5480   22.1718  -29.8500 H   0  0  0  0  0  0  0  0  0  0  0  0
   -1.0331   25.5056  -28.8869 H   0  0  0  0  0  0  0  0  0  0  0  0
   -1.4266   27.7056  -27.1382 H   0  0  0  0  0  0  0  0  0  0  0  0
   -0.1184   28.6904  -25.3081 H   0  0  0  0  0  0  0  0  0  0  0  0
  1  2  1  0
  2  3  1  0
  3  4  1  0
  4  5  1  0
  5  6  1  0
  6  7  1  0
  7  8  1  0
  8  9  1  0
  9 10  1  0
 10 11  2  0
 11 12  1  0
 12 13  2  0
 13 14  1  0
 14 15  2  0
 15 16  1  0
 16 17  2  0
 17 18  1  0
 18 19  1  0
 19 20  1  0
 20 21  1  0
 21 22  1  0
 22 23  1  0
 23 24  1  0
 24 25  1  0
 25 26  1  0
 26 27  1  0
 21 28  1  0
 28 29  1  0
 17 30  1  0
 30 31  2  0
 13 32  1  0
 32 33  2  0
  7  2  1  0
 33 10  1  0
 31 14  1  0
 29 18  1  0
 27 22  1  0
  1 34  1  0
  1 35  1  0
  1 36  1  0
  2 37  1  1
  3 38  1  0
  3 39  1  0
  4 40  1  0
  4 41  1  0
  5 42  1  0
  5 43  1  0
  6 44  1  0
  6 45  1  0
  8 46  1  0
  8 47  1  0
  9 48  1  0
  9 49  1  0
 11 50  1  0
 12 51  1  0
 15 52  1  0
 16 53  1  0
 19 54  1  0
 19 55  1  0
 20 56  1  0
 20 57  1  0
 21 58  1  0
 23 59  1  0
 23 60  1  0
 24 61  1  0
 24 62  1  0
 25 63  1  0
 25 64  1  0
 26 65  1  0
 26 66  1  0
 27 67  1  0
 27 68  1  0
 28 69  1  0
 28 70  1  0
 29 71  1  0
 29 72  1  0
 31 73  1  0
 32 74  1  0
 33 75  1  0
M  END
>  <smiles>  (30) 
CC1CCCCN1CCc1ccc(-c2ccc(N3CCC(N4CCCCC4)CC3)nc2)cc1

>  <score_type>  (30) 
oracle

>  <origin>  (30) 
adg

>  <m_score__min__energy>  (30) 
-9.7300000000000004

>  <m_primary>  (30) 
energy

$$$$
31:0
     RDKit          3D

 41 44  0  0  1  0  0  0  0  0999 V2000
   -3.8620   25.6690  -30.8060 O   0  0  0  0  0  0  0  0  0  0  0  0
   -4.4200   24.1520  -30.4630 S   0  0  0  0  0  0  0  0  0  0  0  0
   -6.1530   24.0200  -30.3250 C   0  0  0  0  0  0  0  0  0  0  0  0
   -6.8810   23.8170  -31.6200 C   0  0  0  0  0  0  0  0  0  0  0  0
   -7.5880   22.5410  -31.7420 C   0  0  0  0  0  0  0  0  0  0  0  0
   -6.8580   21.3460  -31.7400 C   0  0  0  0  0  0  0  0  0  0  0  0
   -7.5170   20.1220  -31.8540 C   0  0  0  0  0  0  0  0  0  0  0  0
   -8.8930   20.1270  -31.9680 C   0  0  0  0  0  0  0  0  0  0  0  0
   -9.6370   21.3000  -31.9710 C   0  0  0  0  0  0  0  0  0  0  0  0
   -8.9820   22.5140  -31.8580 C   0  0  0  0  0  0  0  0  0  0  0  0
   -3.6510   22.8730  -31.3270 C   0  0  0  0  0  0  0  0  0  0  0  0
   -4.2250   22.4490  -32.4670 N   0  0  0  0  0  0  0  0  0  0  0  0
   -3.7520   21.4930  -33.2700 C   0  0  0  0  0  0  0  0  0  0  0  0
   -2.5970   20.9100  -32.8950 N   0  0  0  0  0  0  0  0  0  0  0  0
   -1.9900   21.3000  -31.7670 C   0  0  0  0  0  0  0  0  0  0  0  0
   -0.4450   20.7090  -31.0530 S   0  0  0  0  0  0  0  0  0  0  0  0
   -0.5200   21.8210  -29.6510 C   0  0  0  0  0  0  0  0  0  0  0  0
   -1.7130   22.5570  -29.8290 C   0  0  0  0  0  0  0  0  0  0  0  0
   -2.0490   23.5290  -28.7450 C   0  0  0  0  0  0  0  0  0  0  0  0
   -1.3080   24.6750  -28.5600 C   0  0  0  0  0  0  0  0  0  0  0  0
   -1.6130   25.5620  -27.5450 C   0  0  0  0  0  0  0  0  0  0  0  0
   -2.6930   25.2510  -26.7240 C   0  0  0  0  0  0  0  0  0  0  0  0
   -3.4360   24.0840  -26.9240 C   0  0  0  0  0  0  0  0  0  0  0  0
   -3.1230   23.2080  -27.9380 C   0  0  0  0  0  0  0  0  0  0  0  0
   -2.4350   22.2730  -30.9090 C   0  0  0  0  0  0  0  0  0  0  0  0
   -6.3785   23.1656  -29.6699 H   0  0  0  0  0  0  0  0  0  0  0  0
   -6.5025   24.9833  -29.9251 H   0  0  0  0  0  0  0  0  0  0  0  0
   -7.6181   24.6265  -31.7270 H   0  0  0  0  0  0  0  0  0  0  0  0
   -6.1122   23.8174  -32.4067 H   0  0  0  0  0  0  0  0  0  0  0  0
   -5.7622   21.3727  -31.6483 H   0  0  0  0  0  0  0  0  0  0  0  0
   -6.9547   19.1766  -31.8531 H   0  0  0  0  0  0  0  0  0  0  0  0
   -9.4199   19.1658  -32.0599 H   0  0  0  0  0  0  0  0  0  0  0  0
  -10.7327   21.2645  -32.0620 H   0  0  0  0  0  0  0  0  0  0  0  0
   -9.5547   23.4532  -31.8594 H   0  0  0  0  0  0  0  0  0  0  0  0
   -4.2779   21.1969  -34.1897 H   0  0  0  0  0  0  0  0  0  0  0  0
    0.2056   21.9114  -28.8292 H   0  0  0  0  0  0  0  0  0  0  0  0
   -0.4615   24.8874  -29.2295 H   0  0  0  0  0  0  0  0  0  0  0  0
   -1.0247   26.4787  -27.3918 H   0  0  0  0  0  0  0  0  0  0  0  0
   -2.9659   25.9336  -25.9057 H   0  0  0  0  0  0  0  0  0  0  0  0
   -4.2846   23.8623  -26.2601 H   0  0  0  0  0  0  0  0  0  0  0  0
   -3.7050   22.2886  -28.0995 H   0  0  0  0  0  0  0  0  0  0  0  0
  2  1  1  6
  2  3  1  0
  3  4  1  0
  4  5  1  0
  5  6  2  0
  6  7  1  0
  7  8  2  0
  8  9  1  0
  9 10  2  0
  2 11  1  0
 11 12  2  0
 12 13  1  0
 13 14  2  0
 14 15  1  0
 15 16  1  0
 16 17  1  0
 17 18  2  0
 18 19  1  0
 19 20  2  0
 20 21  1  0
 21 22  2  0
 22 23  1  0
 23 24  2  0
 18 25  1  0
 10  5  1  0
 25 11  1  0
 25 15  2  0
 24 19  1  0
  3 26  1  0
  3 27  1  0
  4 28  1  0
  4 29  1  0
  6 30  1  0
  7 31  1  0
  8 32  1  0
  9 33  1  0
 10 34  1  0
 13 35  1  0
 17 36  1  0
 20 37  1  0
 21 38  1  0
 22 39  1  0
 23 40  1  0
 24 41  1  0
M  CHG  2   1  -1   2   1
M  END
>  <smiles>  (31) 
[O-][S+](CCc1ccccc1)c1ncnc2scc(-c3ccccc3)c12

>  <score_type>  (31) 
oracle

>  <origin>  (31) 
adg

>  <m_score__min__energy>  (31) 
-10.369999999999999

>  <m_primary>  (31) 
energy

$$$$
32:0
     RDKit          3D

 72 75  0  0  1  0  0  0  0  0999 V2000
   -0.9160   23.3730  -29.7070 C   0  0  0  0  0  0  0  0  0  0  0  0
   -1.2990   22.2090  -30.5350 C   0  0  0  0  0  0  0  0  0  0  0  0
   -2.3800   21.4020  -30.1580 N   0  0  0  0  0  0  0  0  0  0  0  0
   -2.1150   20.4280  -29.1030 C   0  0  0  0  0  0  0  0  0  0  0  0
   -2.6850   20.9200  -27.8150 C   0  0  0  0  0  0  0  0  0  0  0  0
   -3.2880   20.9020  -31.1090 C   0  0  0  0  0  0  0  0  0  0  0  0
   -3.1640   21.2010  -32.5390 C   0  0  0  0  0  0  0  0  0  0  0  0
   -4.2810   21.6500  -33.2840 N   0  0  0  0  0  0  0  0  0  0  0  0
   -5.5470   20.9990  -33.0030 C   0  0  0  0  0  0  0  0  0  0  0  0
   -5.8080   19.6270  -33.1150 C   0  0  0  0  0  0  0  0  0  0  0  0
   -4.9980   18.5890  -33.4850 C   0  0  0  0  0  0  0  0  0  0  0  0
   -5.5600   17.3050  -33.4960 C   0  0  0  0  0  0  0  0  0  0  0  0
   -6.8700   17.1960  -33.1350 C   0  0  0  0  0  0  0  0  0  0  0  0
   -7.7010   18.2190  -32.7590 C   0  0  0  0  0  0  0  0  0  0  0  0
   -7.1260   19.5000  -32.7540 C   0  0  0  0  0  0  0  0  0  0  0  0
   -7.6510   20.6990  -32.4380 N   0  0  0  0  0  0  0  0  0  0  0  0
   -9.0240   20.9590  -32.0030 C   0  0  0  0  0  0  0  0  0  0  0  0
   -6.6910   21.6220  -32.5870 N   0  0  0  0  0  0  0  0  0  0  0  0
   -6.8130   23.0140  -32.3170 C   0  0  0  0  0  0  0  0  0  0  0  0
   -6.0830   23.5090  -31.1320 C   0  0  0  0  0  0  0  0  0  0  0  0
   -5.7310   24.8240  -30.9210 C   0  0  0  0  0  0  0  0  0  0  0  0
   -5.0640   25.1830  -29.7410 C   0  0  0  0  0  0  0  0  0  0  0  0
   -4.7720   24.2260  -28.8170 C   0  0  0  0  0  0  0  0  0  0  0  0
   -4.1310   24.4840  -27.5490 N   0  0  0  0  0  0  0  0  0  0  0  0
   -2.8290   24.5340  -27.5270 C   0  0  0  0  0  0  0  0  0  0  0  0
   -2.0240   25.5390  -26.8790 C   0  0  0  0  0  0  0  0  0  0  0  0
   -2.0600   25.5330  -25.4750 C   0  0  0  0  0  0  0  0  0  0  0  0
   -1.3070   26.4180  -24.7450 C   0  0  0  0  0  0  0  0  0  0  0  0
   -0.5180   27.3090  -25.4290 C   0  0  0  0  0  0  0  0  0  0  0  0
   -0.4520   27.3500  -26.8250 C   0  0  0  0  0  0  0  0  0  0  0  0
    0.3800   28.2880  -27.4690 O   0  0  0  0  0  0  0  0  0  0  0  0
    0.0370   29.6670  -27.3860 C   0  0  0  0  0  0  0  0  0  0  0  0
   -1.2210   26.4470  -27.5110 C   0  0  0  0  0  0  0  0  0  0  0  0
   -1.2210   26.4190  -28.9070 O   0  0  0  0  0  0  0  0  0  0  0  0
   -5.1110   22.8750  -28.9920 C   0  0  0  0  0  0  0  0  0  0  0  0
   -5.7620   22.5830  -30.1660 C   0  0  0  0  0  0  0  0  0  0  0  0
   -1.0025   23.1100  -28.6424 H   0  0  0  0  0  0  0  0  0  0  0  0
    0.1228   23.6566  -29.9314 H   0  0  0  0  0  0  0  0  0  0  0  0
   -1.5834   24.2181  -29.9314 H   0  0  0  0  0  0  0  0  0  0  0  0
   -1.5277   22.5960  -31.5390 H   0  0  0  0  0  0  0  0  0  0  0  0
   -0.4356   21.5348  -30.4348 H   0  0  0  0  0  0  0  0  0  0  0  0
   -2.5807   19.4669  -29.3663 H   0  0  0  0  0  0  0  0  0  0  0  0
   -1.0288   20.2925  -28.9944 H   0  0  0  0  0  0  0  0  0  0  0  0
   -2.1473   20.4559  -26.9751 H   0  0  0  0  0  0  0  0  0  0  0  0
   -2.5771   22.0133  -27.7602 H   0  0  0  0  0  0  0  0  0  0  0  0
   -3.7508   20.6535  -27.7602 H   0  0  0  0  0  0  0  0  0  0  0  0
   -3.2533   19.8061  -31.0202 H   0  0  0  0  0  0  0  0  0  0  0  0
   -4.2139   21.4331  -30.8432 H   0  0  0  0  0  0  0  0  0  0  0  0
   -2.3918   21.9789  -32.6313 H   0  0  0  0  0  0  0  0  0  0  0  0
   -2.9576   20.2139  -32.9784 H   0  0  0  0  0  0  0  0  0  0  0  0
   -4.3310   22.3710  -34.0190 H   0  0  0  0  0  0  0  0  0  0  0  0
   -3.9468   18.7553  -33.7630 H   0  0  0  0  0  0  0  0  0  0  0  0
   -4.9692   16.4229  -33.7837 H   0  0  0  0  0  0  0  0  0  0  0  0
   -7.3038   16.1852  -33.1466 H   0  0  0  0  0  0  0  0  0  0  0  0
   -8.7509   18.0475  -32.4791 H   0  0  0  0  0  0  0  0  0  0  0  0
   -9.0651   20.9668  -30.9038 H   0  0  0  0  0  0  0  0  0  0  0  0
   -9.3523   21.9353  -32.3891 H   0  0  0  0  0  0  0  0  0  0  0  0
   -9.6865   20.1704  -32.3891 H   0  0  0  0  0  0  0  0  0  0  0  0
   -6.4400   23.5614  -33.1952 H   0  0  0  0  0  0  0  0  0  0  0  0
   -7.8784   23.1826  -32.1014 H   0  0  0  0  0  0  0  0  0  0  0  0
   -5.9719   25.5885  -31.6743 H   0  0  0  0  0  0  0  0  0  0  0  0
   -4.7786   26.2303  -29.5628 H   0  0  0  0  0  0  0  0  0  0  0  0
   -2.2922   23.7315  -28.0540 H   0  0  0  0  0  0  0  0  0  0  0  0
   -2.7015   24.8080  -24.9527 H   0  0  0  0  0  0  0  0  0  0  0  0
   -1.3348   26.4135  -23.6454 H   0  0  0  0  0  0  0  0  0  0  0  0
    0.0895   28.0226  -24.8531 H   0  0  0  0  0  0  0  0  0  0  0  0
   -0.0368   29.9635  -26.3293 H   0  0  0  0  0  0  0  0  0  0  0  0
    0.8129   30.2684  -27.8823 H   0  0  0  0  0  0  0  0  0  0  0  0
   -0.9302   29.8348  -27.8823 H   0  0  0  0  0  0  0  0  0  0  0  0
   -0.5230   26.9450  -29.4240 H   0  0  0  0  0  0  0  0  0  0  0  0
   -4.8725   22.1055  -28.2430 H   0  0  0  0  0  0  0  0  0  0  0  0
   -6.0465   21.5359  -30.3464 H   0  0  0  0  0  0  0  0  0  0  0  0
  1  2  1  0
  2  3  1  0
  3  4  1  0
  4  5  1  0
  3  6  1  0
  6  7  1  0
  7  8  1  0
  8  9  1  0
  9 10  2  0
 10 11  1  0
 11 12  2  0
 12 13  1  0
 13 14  2  0
 14 15  1  0
 15 16  2  0
 16 17  1  0
 16 18  1  0
 18 19  1  0
 19 20  1  0
 20 21  2  0
 21 22  1  0
 22 23  2  0
 23 24  1  0
 24 25  2  0
 25 26  1  0
 26 27  2  0
 27 28  1  0
 28 29  2  0
 29 30  1  0
 30 31  1  0
 31 32  1  0
 30 33  2  0
 33 34  1  0
 23 35  1  0
 35 36  2  0
 18  9  1  0
 36 20  1  0
 15 10  1  0
 33 26  1  0
  1 37  1  0
  1 38  1  0
  1 39  1  0
  2 40  1  0
  2 41  1  0
  4 42  1  0
  4 43  1  0
  5 44  1  0
  5 45  1  0
  5 46  1  0
  6 47  1  0
  6 48  1  0
  7 49  1  0
  7 50  1  0
  8 51  1  0
 11 52  1  0
 12 53  1  0
 13 54  1  0
 14 55  1  0
 17 56  1  0
 17 57  1  0
 17 58  1  0
 19 59  1  0
 19 60  1  0
 21 61  1  0
 22 62  1  0
 25 63  1  0
 27 64  1  0
 28 65  1  0
 29 66  1  0
 32 67  1  0
 32 68  1  0
 32 69  1  0
 34 70  1  0
 35 71  1  0
 36 72  1  0
M  CHG  1  16   1
M  END
>  <smiles>  (32) 
CCN(CC)CCNc1c2ccccc2[n+](C)n1Cc1ccc(N=Cc2cccc(OC)c2O)cc1

>  <score_type>  (32) 
oracle

>  <origin>  (32) 
adg

>  <m_score__min__energy>  (32) 
-10.279999999999999

>  <m_primary>  (32) 
energy

$$$$
33:0
     RDKit          3D

 50 52  0  0  0  0  0  0  0  0999 V2000
   -6.6080   16.1720  -33.8430 C   0  0  0  0  0  0  0  0  0  0  0  0
   -5.9810   17.4290  -33.5810 O   0  0  0  0  0  0  0  0  0  0  0  0
   -6.7400   18.4710  -33.0640 C   0  0  0  0  0  0  0  0  0  0  0  0
   -7.9840   18.2830  -32.4950 C   0  0  0  0  0  0  0  0  0  0  0  0
   -8.7050   19.3480  -31.9930 C   0  0  0  0  0  0  0  0  0  0  0  0
   -8.1440   20.6110  -32.0750 C   0  0  0  0  0  0  0  0  0  0  0  0
   -8.8690   21.8000  -31.5530 C   0  0  0  0  0  0  0  0  0  0  0  0
   -8.5420   23.0500  -32.2970 C   0  0  0  0  0  0  0  0  0  0  0  0
   -7.2400   23.5190  -31.8770 N   0  0  0  0  0  0  0  0  0  0  0  0
   -6.7830   23.4920  -30.5340 C   0  0  0  0  0  0  0  0  0  0  0  0
   -7.4840   23.0530  -29.6030 O   0  0  0  0  0  0  0  0  0  0  0  0
   -5.4520   23.9880  -30.1980 C   0  0  0  0  0  0  0  0  0  0  0  0
   -4.7910   23.8190  -28.9760 C   0  0  0  0  0  0  0  0  0  0  0  0
   -3.5690   24.4380  -29.0830 C   0  0  0  0  0  0  0  0  0  0  0  0
   -2.4870   24.5710  -28.1220 C   0  0  0  0  0  0  0  0  0  0  0  0
   -2.7920   24.9420  -26.8290 C   0  0  0  0  0  0  0  0  0  0  0  0
   -1.8290   25.0950  -25.8440 C   0  0  0  0  0  0  0  0  0  0  0  0
   -0.5040   24.8750  -26.1350 C   0  0  0  0  0  0  0  0  0  0  0  0
   -0.1900   24.5050  -27.4230 C   0  0  0  0  0  0  0  0  0  0  0  0
   -1.1620   24.3520  -28.4140 C   0  0  0  0  0  0  0  0  0  0  0  0
   -0.7880   23.9790  -29.6840 O   0  0  0  0  0  0  0  0  0  0  0  0
   -0.8700   22.6320  -30.0900 C   0  0  0  0  0  0  0  0  0  0  0  0
   -3.5150   24.9400  -30.2900 O   0  0  0  0  0  0  0  0  0  0  0  0
   -4.6010   24.6850  -30.9500 N   0  0  0  0  0  0  0  0  0  0  0  0
   -6.8970   20.8340  -32.6400 C   0  0  0  0  0  0  0  0  0  0  0  0
   -6.1910   19.7450  -33.1380 C   0  0  0  0  0  0  0  0  0  0  0  0
   -4.9350   19.9290  -33.7130 O   0  0  0  0  0  0  0  0  0  0  0  0
   -4.0680   20.8670  -33.0840 C   0  0  0  0  0  0  0  0  0  0  0  0
   -6.8538   15.6793  -32.8907 H   0  0  0  0  0  0  0  0  0  0  0  0
   -7.5302   16.3354  -34.4200 H   0  0  0  0  0  0  0  0  0  0  0  0
   -5.9227   15.5336  -34.4200 H   0  0  0  0  0  0  0  0  0  0  0  0
   -8.4071   17.2691  -32.4408 H   0  0  0  0  0  0  0  0  0  0  0  0
   -9.6965   19.1974  -31.5410 H   0  0  0  0  0  0  0  0  0  0  0  0
   -9.9504   21.6156  -31.6342 H   0  0  0  0  0  0  0  0  0  0  0  0
   -8.5566   21.9456  -30.5084 H   0  0  0  0  0  0  0  0  0  0  0  0
   -8.5292   22.8438  -33.3774 H   0  0  0  0  0  0  0  0  0  0  0  0
   -9.3005   23.8182  -32.0859 H   0  0  0  0  0  0  0  0  0  0  0  0
   -6.5530   23.9150  -32.5870 H   0  0  0  0  0  0  0  0  0  0  0  0
   -5.1781   23.2888  -28.0934 H   0  0  0  0  0  0  0  0  0  0  0  0
   -3.8450   25.1243  -26.5683 H   0  0  0  0  0  0  0  0  0  0  0  0
   -2.1258   25.3930  -24.8276 H   0  0  0  0  0  0  0  0  0  0  0  0
    0.2758   24.9902  -25.3678 H   0  0  0  0  0  0  0  0  0  0  0  0
    0.8638   24.3234  -27.6809 H   0  0  0  0  0  0  0  0  0  0  0  0
   -0.9095   21.9833  -29.2025 H   0  0  0  0  0  0  0  0  0  0  0  0
   -1.7787   22.4852  -30.6922 H   0  0  0  0  0  0  0  0  0  0  0  0
    0.0142   22.3761  -30.6922 H   0  0  0  0  0  0  0  0  0  0  0  0
   -6.4765   21.8491  -32.6928 H   0  0  0  0  0  0  0  0  0  0  0  0
   -4.1557   20.7721  -31.9916 H   0  0  0  0  0  0  0  0  0  0  0  0
   -3.0297   20.6672  -33.3872 H   0  0  0  0  0  0  0  0  0  0  0  0
   -4.3488   21.8864  -33.3872 H   0  0  0  0  0  0  0  0  0  0  0  0
  1  2  1  0
  2  3  1  0
  3  4  2  0
  4  5  1  0
  5  6  2  0
  6  7  1  0
  7  8  1  0
  8  9  1  0
  9 10  1  0
 10 11  2  0
 10 12  1  0
 12 13  1  0
 13 14  2  0
 14 15  1  0
 15 16  2  0
 16 17  1  0
 17 18  2  0
 18 19  1  0
 19 20  2  0
 20 21  1  0
 21 22  1  0
 14 23  1  0
 23 24  1  0
  6 25  1  0
 25 26  2  0
 26 27  1  0
 27 28  1  0
 26  3  1  0
 24 12  2  0
 20 15  1  0
  1 29  1  0
  1 30  1  0
  1 31  1  0
  4 32  1  0
  5 33  1  0
  7 34  1  0
  7 35  1  0
  8 36  1  0
  8 37  1  0
  9 38  1  0
 13 39  1  0
 16 40  1  0
 17 41  1  0
 18 42  1  0
 19 43  1  0
 22 44  1  0
 22 45  1  0
 22 46  1  0
 25 47  1  0
 28 48  1  0
 28 49  1  0
 28 50  1  0
M  END
>  <smiles>  (33) 
COc1ccc(CCNC(=O)c2cc(-c3ccccc3OC)on2)cc1OC

>  <score_type>  (33) 
oracle

>  <origin>  (33) 
adg

>  <m_score__min__energy>  (33) 
-9.9399999999999995

>  <m_primary>  (33) 
energy

$$$$
34:0
     RDKit          3D

 38 39  0  0  1  0  0  0  0  0999 V2000
   -0.4300   22.2630  -25.3830 C   0  0  0  0  0  0  0  0  0  0  0  0
   -0.8060   21.7250  -26.6180 O   0  0  0  0  0  0  0  0  0  0  0  0
   -1.6590   22.4100  -27.4370 C   0  0  0  0  0  0  0  0  0  0  0  0
   -1.3970   23.6820  -27.8130 C   0  0  0  0  0  0  0  0  0  0  0  0
   -2.2190   24.3940  -28.6250 C   0  0  0  0  0  0  0  0  0  0  0  0
   -1.8540   25.6820  -28.9430 O   0  0  0  0  0  0  0  0  0  0  0  0
   -0.9490   26.4370  -28.2110 C   0  0  0  0  0  0  0  0  0  0  0  0
   -3.3690   23.8140  -29.0920 C   0  0  0  0  0  0  0  0  0  0  0  0
   -4.3270   24.4650  -29.9660 C   0  0  0  0  0  0  0  0  0  0  0  0
   -3.8320   25.2630  -30.8040 O   0  0  0  0  0  0  0  0  0  0  0  0
   -5.7560   24.2560  -29.9280 C   0  0  0  0  0  0  0  0  0  0  0  0
   -6.4930   23.9920  -30.9730 C   0  0  0  0  0  0  0  0  0  0  0  0
   -7.1240   22.7800  -31.3650 C   0  0  0  0  0  0  0  0  0  0  0  0
   -6.2440   21.7190  -31.7010 C   0  0  0  0  0  0  0  0  0  0  0  0
   -6.7060   20.4620  -31.9870 C   0  0  0  0  0  0  0  0  0  0  0  0
   -8.0500   20.1680  -31.9600 C   0  0  0  0  0  0  0  0  0  0  0  0
   -8.6630   18.5740  -32.3210 Cl  0  0  0  0  0  0  0  0  0  0  0  0
   -8.8840   21.1650  -31.6410 N   0  0  0  0  0  0  0  0  0  0  0  0
   -8.4360   22.4280  -31.3510 C   0  0  0  0  0  0  0  0  0  0  0  0
   -3.6290   22.4940  -28.6960 C   0  0  0  0  0  0  0  0  0  0  0  0
   -2.7950   21.7870  -27.8780 C   0  0  0  0  0  0  0  0  0  0  0  0
   -3.1120   20.3820  -27.4810 C   0  0  0  0  0  0  0  0  0  0  0  0
   -0.8560   21.6534  -24.5725 H   0  0  0  0  0  0  0  0  0  0  0  0
    0.6671   22.2649  -25.3026 H   0  0  0  0  0  0  0  0  0  0  0  0
   -0.8053   23.2939  -25.3026 H   0  0  0  0  0  0  0  0  0  0  0  0
   -0.4776   24.1606  -27.4448 H   0  0  0  0  0  0  0  0  0  0  0  0
   -1.1300   26.2860  -27.1365 H   0  0  0  0  0  0  0  0  0  0  0  0
    0.0756   26.1221  -28.4580 H   0  0  0  0  0  0  0  0  0  0  0  0
   -1.0751   27.5015  -28.4580 H   0  0  0  0  0  0  0  0  0  0  0  0
   -6.2577   24.3240  -28.9514 H   0  0  0  0  0  0  0  0  0  0  0  0
   -6.6501   24.8395  -31.6565 H   0  0  0  0  0  0  0  0  0  0  0  0
   -5.1614   21.9113  -31.7326 H   0  0  0  0  0  0  0  0  0  0  0  0
   -5.9871   19.6701  -32.2439 H   0  0  0  0  0  0  0  0  0  0  0  0
   -9.1787   23.1974  -31.0932 H   0  0  0  0  0  0  0  0  0  0  0  0
   -4.5453   22.0066  -29.0605 H   0  0  0  0  0  0  0  0  0  0  0  0
   -3.1291   20.3060  -26.3838 H   0  0  0  0  0  0  0  0  0  0  0  0
   -4.0962   20.1004  -27.8835 H   0  0  0  0  0  0  0  0  0  0  0  0
   -2.3440   19.7051  -27.8835 H   0  0  0  0  0  0  0  0  0  0  0  0
  1  2  1  0
  2  3  1  0
  3  4  2  0
  4  5  1  0
  5  6  1  0
  6  7  1  0
  5  8  2  0
  8  9  1  0
  9 10  2  0
  9 11  1  0
 11 12  2  0
 12 13  1  0
 13 14  2  0
 14 15  1  0
 15 16  2  0
 16 17  1  0
 16 18  1  0
 18 19  2  0
  8 20  1  0
 20 21  2  0
 21 22  1  0
 21  3  1  0
 19 13  1  0
  1 23  1  0
  1 24  1  0
  1 25  1  0
  4 26  1  0
  7 27  1  0
  7 28  1  0
  7 29  1  0
 11 30  1  0
 12 31  1  0
 14 32  1  0
 15 33  1  0
 19 34  1  0
 20 35  1  0
 22 36  1  0
 22 37  1  0
 22 38  1  0
M  END
>  <smiles>  (34) 
COc1cc(OC)c(C(=O)C=Cc2ccc(Cl)nc2)cc1C

>  <score_type>  (34) 
oracle

>  <origin>  (34) 
adg

>  <m_score__min__energy>  (34) 
-8.5600000000000005

>  <m_primary>  (34) 
energy

$$$$
35:0
     RDKit          3D

 63 64  0  0  0  0  0  0  0  0999 V2000
   -0.0470   18.8610  -28.9680 C   0  0  0  0  0  0  0  0  0  0  0  0
   -0.5030   19.2090  -27.6040 C   0  0  0  0  0  0  0  0  0  0  0  0
   -1.8930   19.5600  -27.4500 N   0  0  0  0  0  0  0  0  0  0  0  0
   -2.4350   18.9910  -26.2770 C   0  0  0  0  0  0  0  0  0  0  0  0
   -3.8760   18.5920  -26.3240 C   0  0  0  0  0  0  0  0  0  0  0  0
   -1.9070   21.0030  -27.4720 C   0  0  0  0  0  0  0  0  0  0  0  0
   -3.0030   21.6120  -28.2530 C   0  0  0  0  0  0  0  0  0  0  0  0
   -2.9460   21.1280  -29.5830 O   0  0  0  0  0  0  0  0  0  0  0  0
   -2.2500   21.7750  -30.5940 C   0  0  0  0  0  0  0  0  0  0  0  0
   -2.2550   23.0430  -30.7220 O   0  0  0  0  0  0  0  0  0  0  0  0
   -1.4370   21.0410  -31.6110 C   0  0  0  0  0  0  0  0  0  0  0  0
   -2.0300   19.7230  -32.0070 C   0  0  0  0  0  0  0  0  0  0  0  0
   -2.8450   19.9730  -33.2560 C   0  0  0  0  0  0  0  0  0  0  0  0
   -4.1730   20.3870  -32.8430 N   0  0  0  0  0  0  0  0  0  0  0  0
   -4.3530   21.8190  -32.9930 C   0  0  0  0  0  0  0  0  0  0  0  0
   -5.5420   22.3220  -32.2680 C   0  0  0  0  0  0  0  0  0  0  0  0
   -5.3560   23.4570  -31.4840 C   0  0  0  0  0  0  0  0  0  0  0  0
   -6.3860   24.0230  -30.7630 C   0  0  0  0  0  0  0  0  0  0  0  0
   -6.0820   25.4470  -29.8020 Cl  0  0  0  0  0  0  0  0  0  0  0  0
   -7.6130   23.4230  -30.8460 C   0  0  0  0  0  0  0  0  0  0  0  0
   -7.7980   22.2950  -31.6260 C   0  0  0  0  0  0  0  0  0  0  0  0
   -6.7940   21.7030  -32.3570 C   0  0  0  0  0  0  0  0  0  0  0  0
   -6.8920   20.6070  -33.1390 O   0  0  0  0  0  0  0  0  0  0  0  0
   -7.4990   19.3860  -33.0210 C   0  0  0  0  0  0  0  0  0  0  0  0
   -6.5710   18.2400  -33.0550 C   0  0  0  0  0  0  0  0  0  0  0  0
   -6.2920   17.4040  -32.0050 C   0  0  0  0  0  0  0  0  0  0  0  0
   -5.4390   16.3350  -32.0610 C   0  0  0  0  0  0  0  0  0  0  0  0
   -4.7910   16.0480  -33.2550 C   0  0  0  0  0  0  0  0  0  0  0  0
   -5.0500   16.8650  -34.3220 C   0  0  0  0  0  0  0  0  0  0  0  0
   -5.9190   17.9500  -34.2560 C   0  0  0  0  0  0  0  0  0  0  0  0
   -6.1080   18.7010  -35.3740 F   0  0  0  0  0  0  0  0  0  0  0  0
    0.8260   18.1948  -28.9040 H   0  0  0  0  0  0  0  0  0  0  0  0
   -0.8589   18.3508  -29.5070 H   0  0  0  0  0  0  0  0  0  0  0  0
    0.2309   19.7787  -29.5070 H   0  0  0  0  0  0  0  0  0  0  0  0
   -0.3056   18.3420  -26.9564 H   0  0  0  0  0  0  0  0  0  0  0  0
    0.0536   20.1202  -27.3396 H   0  0  0  0  0  0  0  0  0  0  0  0
   -1.8480   18.0909  -26.0420 H   0  0  0  0  0  0  0  0  0  0  0  0
   -2.3815   19.7872  -25.5199 H   0  0  0  0  0  0  0  0  0  0  0  0
   -4.2606   18.4855  -25.2989 H   0  0  0  0  0  0  0  0  0  0  0  0
   -4.4532   19.3641  -26.8538 H   0  0  0  0  0  0  0  0  0  0  0  0
   -3.9738   17.6330  -26.8538 H   0  0  0  0  0  0  0  0  0  0  0  0
   -1.9913   21.3579  -26.4342 H   0  0  0  0  0  0  0  0  0  0  0  0
   -0.9739   21.3086  -27.9679 H   0  0  0  0  0  0  0  0  0  0  0  0
   -3.9701   21.3423  -27.8036 H   0  0  0  0  0  0  0  0  0  0  0  0
   -2.8967   22.7069  -28.2512 H   0  0  0  0  0  0  0  0  0  0  0  0
   -1.3523   21.6696  -32.5097 H   0  0  0  0  0  0  0  0  0  0  0  0
   -0.4574   20.8332  -31.1558 H   0  0  0  0  0  0  0  0  0  0  0  0
   -1.2320   18.9948  -32.2141 H   0  0  0  0  0  0  0  0  0  0  0  0
   -2.6556   19.3116  -31.2012 H   0  0  0  0  0  0  0  0  0  0  0  0
   -2.3756   20.7660  -33.8567 H   0  0  0  0  0  0  0  0  0  0  0  0
   -2.8997   19.0608  -33.8683 H   0  0  0  0  0  0  0  0  0  0  0  0
   -4.8570   19.8470  -33.4340 H   0  0  0  0  0  0  0  0  0  0  0  0
   -3.4602   22.3292  -32.6024 H   0  0  0  0  0  0  0  0  0  0  0  0
   -4.5027   22.0259  -34.0629 H   0  0  0  0  0  0  0  0  0  0  0  0
   -4.3574   23.9161  -31.4383 H   0  0  0  0  0  0  0  0  0  0  0  0
   -8.4621   23.8421  -30.2862 H   0  0  0  0  0  0  0  0  0  0  0  0
   -8.8021   21.8475  -31.6636 H   0  0  0  0  0  0  0  0  0  0  0  0
   -8.0409   19.3619  -32.0641 H   0  0  0  0  0  0  0  0  0  0  0  0
   -8.1628   19.2792  -33.8916 H   0  0  0  0  0  0  0  0  0  0  0  0
   -6.7908   17.6074  -31.0459 H   0  0  0  0  0  0  0  0  0  0  0  0
   -5.2690   15.7110  -31.1712 H   0  0  0  0  0  0  0  0  0  0  0  0
   -4.0975   15.1984  -33.3399 H   0  0  0  0  0  0  0  0  0  0  0  0
   -4.5473   16.6540  -35.2774 H   0  0  0  0  0  0  0  0  0  0  0  0
  1  2  1  0
  2  3  1  0
  3  4  1  0
  4  5  1  0
  3  6  1  0
  6  7  1  0
  7  8  1  0
  8  9  1  0
  9 10  2  0
  9 11  1  0
 11 12  1  0
 12 13  1  0
 13 14  1  0
 14 15  1  0
 15 16  1  0
 16 17  2  0
 17 18  1  0
 18 19  1  0
 18 20  2  0
 20 21  1  0
 21 22  2  0
 22 23  1  0
 23 24  1  0
 24 25  1  0
 25 26  2  0
 26 27  1  0
 27 28  2  0
 28 29  1  0
 29 30  2  0
 30 31  1  0
 22 16  1  0
 30 25  1  0
  1 32  1  0
  1 33  1  0
  1 34  1  0
  2 35  1  0
  2 36  1  0
  4 37  1  0
  4 38  1  0
  5 39  1  0
  5 40  1  0
  5 41  1  0
  6 42  1  0
  6 43  1  0
  7 44  1  0
  7 45  1  0
 11 46  1  0
 11 47  1  0
 12 48  1  0
 12 49  1  0
 13 50  1  0
 13 51  1  0
 14 52  1  0
 15 53  1  0
 15 54  1  0
 17 55  1  0
 20 56  1  0
 21 57  1  0
 24 58  1  0
 24 59  1  0
 26 60  1  0
 27 61  1  0
 28 62  1  0
 29 63  1  0
M  END
>  <smiles>  (35) 
CCN(CC)CCOC(=O)CCCNCc1cc(Cl)ccc1OCc1ccccc1F

>  <score_type>  (35) 
oracle

>  <origin>  (35) 
adg

>  <m_score__min__energy>  (35) 
-8.2899999999999991

>  <m_primary>  (35) 
energy

$$$$
36:0
     RDKit          3D

 41 42  0  0  0  0  0  0  0  0999 V2000
   -5.7170   18.5670  -34.5190 C   0  0  0  0  0  0  0  0  0  0  0  0
   -6.2060   17.4590  -33.5870 C   0  0  0  0  0  0  0  0  0  0  0  0
   -6.7860   17.9940  -32.4220 O   0  0  0  0  0  0  0  0  0  0  0  0
   -7.7820   18.9010  -32.7240 C   0  0  0  0  0  0  0  0  0  0  0  0
   -7.5070   20.2410  -32.1050 C   0  0  0  0  0  0  0  0  0  0  0  0
   -6.2890   20.7420  -31.7540 N   0  0  0  0  0  0  0  0  0  0  0  0
   -6.4450   21.9760  -31.2270 C   0  0  0  0  0  0  0  0  0  0  0  0
   -5.3940   22.8570  -30.7270 C   0  0  0  0  0  0  0  0  0  0  0  0
   -4.0940   22.4120  -30.7170 C   0  0  0  0  0  0  0  0  0  0  0  0
   -3.1160   23.2550  -30.2450 C   0  0  0  0  0  0  0  0  0  0  0  0
   -3.4030   24.5420  -29.7760 C   0  0  0  0  0  0  0  0  0  0  0  0
   -2.3550   25.2940  -29.3290 O   0  0  0  0  0  0  0  0  0  0  0  0
   -1.6750   25.1930  -28.1180 C   0  0  0  0  0  0  0  0  0  0  0  0
   -0.4880   24.2540  -28.1840 C   0  0  0  0  0  0  0  0  0  0  0  0
   -2.6500   24.5960  -27.0950 C   0  0  0  0  0  0  0  0  0  0  0  0
   -4.7160   24.9230  -29.8130 C   0  0  0  0  0  0  0  0  0  0  0  0
   -5.7400   24.1150  -30.2780 C   0  0  0  0  0  0  0  0  0  0  0  0
   -7.7410   22.2400  -31.2490 O   0  0  0  0  0  0  0  0  0  0  0  0
   -8.3960   21.2300  -31.7640 C   0  0  0  0  0  0  0  0  0  0  0  0
   -9.8760   21.0890  -31.9840 C   0  0  0  0  0  0  0  0  0  0  0  0
   -5.3443   19.4115  -33.9207 H   0  0  0  0  0  0  0  0  0  0  0  0
   -4.9057   18.1809  -35.1536 H   0  0  0  0  0  0  0  0  0  0  0  0
   -6.5490   18.9062  -35.1536 H   0  0  0  0  0  0  0  0  0  0  0  0
   -6.9557   16.8511  -34.1146 H   0  0  0  0  0  0  0  0  0  0  0  0
   -5.3429   16.8426  -33.2953 H   0  0  0  0  0  0  0  0  0  0  0  0
   -7.8420   19.0166  -33.8163 H   0  0  0  0  0  0  0  0  0  0  0  0
   -8.7316   18.5206  -32.3197 H   0  0  0  0  0  0  0  0  0  0  0  0
   -3.8416   21.4042  -31.0784 H   0  0  0  0  0  0  0  0  0  0  0  0
   -2.0728   22.9062  -30.2356 H   0  0  0  0  0  0  0  0  0  0  0  0
   -1.3103   26.1966  -27.8539 H   0  0  0  0  0  0  0  0  0  0  0  0
   -0.1653   23.9987  -27.1639 H   0  0  0  0  0  0  0  0  0  0  0  0
   -0.7756   23.3364  -28.7180 H   0  0  0  0  0  0  0  0  0  0  0  0
    0.3388   24.7451  -28.7180 H   0  0  0  0  0  0  0  0  0  0  0  0
   -2.2932   24.8144  -26.0776 H   0  0  0  0  0  0  0  0  0  0  0  0
   -3.6469   25.0387  -27.2369 H   0  0  0  0  0  0  0  0  0  0  0  0
   -2.7089   23.5068  -27.2369 H   0  0  0  0  0  0  0  0  0  0  0  0
   -4.9736   25.9298  -29.4524 H   0  0  0  0  0  0  0  0  0  0  0  0
   -6.7841   24.4611  -30.2889 H   0  0  0  0  0  0  0  0  0  0  0  0
  -10.3882   21.0402  -31.0118 H   0  0  0  0  0  0  0  0  0  0  0  0
  -10.2467   21.9559  -32.5506 H   0  0  0  0  0  0  0  0  0  0  0  0
  -10.0763   20.1677  -32.5506 H   0  0  0  0  0  0  0  0  0  0  0  0
  1  2  1  0
  2  3  1  0
  3  4  1  0
  4  5  1  0
  5  6  1  0
  6  7  2  0
  7  8  1  0
  8  9  2  0
  9 10  1  0
 10 11  2  0
 11 12  1  0
 12 13  1  0
 13 14  1  0
 13 15  1  0
 11 16  1  0
 16 17  2  0
  7 18  1  0
 18 19  1  0
 19 20  1  0
 19  5  2  0
 17  8  1  0
  1 21  1  0
  1 22  1  0
  1 23  1  0
  2 24  1  0
  2 25  1  0
  4 26  1  0
  4 27  1  0
  9 28  1  0
 10 29  1  0
 13 30  1  0
 14 31  1  0
 14 32  1  0
 14 33  1  0
 15 34  1  0
 15 35  1  0
 15 36  1  0
 16 37  1  0
 17 38  1  0
 20 39  1  0
 20 40  1  0
 20 41  1  0
M  END
>  <smiles>  (36) 
CCOCc1nc(-c2ccc(OC(C)C)cc2)oc1C

>  <score_type>  (36) 
oracle

>  <origin>  (36) 
adg

>  <m_score__min__energy>  (36) 
-6.8700000000000001

>  <m_primary>  (36) 
energy

$$$$
37:0
     RDKit          3D

 39 40  0  0  1  0  0  0  0  0999 V2000
   -6.9800   17.3160  -32.4030 C   0  0  0  0  0  0  0  0  0  0  0  0
   -7.6320   18.6050  -32.0410 C   0  0  2  0  0  0  0  0  0  0  0  0
   -8.8980   18.7940  -32.7190 N   0  0  0  0  0  0  0  0  0  0  0  0
   -9.5320   20.0470  -32.4860 C   0  0  0  0  0  0  0  0  0  0  0  0
   -8.8060   20.9210  -31.4780 C   0  0  0  0  0  0  0  0  0  0  0  0
   -7.4050   21.0290  -31.9560 C   0  0  0  0  0  0  0  0  0  0  0  0
   -6.7600   22.2190  -32.0920 C   0  0  0  0  0  0  0  0  0  0  0  0
   -7.3930   23.5310  -31.8290 C   0  0  0  0  0  0  0  0  0  0  0  0
   -6.4750   24.5520  -31.2230 C   0  0  0  0  0  0  0  0  0  0  0  0
   -6.4400   24.2790  -29.7160 C   0  0  0  0  0  0  0  0  0  0  0  0
   -5.2260   24.8370  -29.1760 N   0  0  0  0  0  0  0  0  0  0  0  0
   -3.9440   24.6820  -29.7620 C   0  0  0  0  0  0  0  0  0  0  0  0
   -2.7560   25.2410  -29.2160 N   0  0  0  0  0  0  0  0  0  0  0  0
   -3.7960   24.0160  -30.8350 O   0  0  0  0  0  0  0  0  0  0  0  0
   -5.4300   22.1820  -32.5290 C   0  0  0  0  0  0  0  0  0  0  0  0
   -4.8040   20.9700  -32.8090 C   0  0  0  0  0  0  0  0  0  0  0  0
   -5.4900   19.7840  -32.6610 C   0  0  0  0  0  0  0  0  0  0  0  0
   -6.7770   19.8080  -32.2390 C   0  0  0  0  0  0  0  0  0  0  0  0
   -6.7057   16.7737  -31.4861 H   0  0  0  0  0  0  0  0  0  0  0  0
   -7.6778   16.7057  -32.9951 H   0  0  0  0  0  0  0  0  0  0  0  0
   -6.0749   17.5165  -32.9951 H   0  0  0  0  0  0  0  0  0  0  0  0
   -7.8088   18.5117  -30.9593 H   0  0  0  0  0  0  0  0  0  0  0  0
   -8.7500   18.6390  -33.7390 H   0  0  0  0  0  0  0  0  0  0  0  0
   -9.5877   20.5908  -33.4406 H   0  0  0  0  0  0  0  0  0  0  0  0
  -10.5259   19.8312  -32.0671 H   0  0  0  0  0  0  0  0  0  0  0  0
   -9.2710   21.9168  -31.4321 H   0  0  0  0  0  0  0  0  0  0  0  0
   -8.8523   20.4898  -30.4671 H   0  0  0  0  0  0  0  0  0  0  0  0
   -7.7685   23.9292  -32.7832 H   0  0  0  0  0  0  0  0  0  0  0  0
   -8.1922   23.3523  -31.0946 H   0  0  0  0  0  0  0  0  0  0  0  0
   -5.4656   24.4535  -31.6490 H   0  0  0  0  0  0  0  0  0  0  0  0
   -6.8290   25.5726  -31.4305 H   0  0  0  0  0  0  0  0  0  0  0  0
   -7.3102   24.7485  -29.2340 H   0  0  0  0  0  0  0  0  0  0  0  0
   -6.4711   23.1954  -29.5295 H   0  0  0  0  0  0  0  0  0  0  0  0
   -5.2690   25.3960  -28.2930 H   0  0  0  0  0  0  0  0  0  0  0  0
   -2.6660   25.1820  -28.1680 H   0  0  0  0  0  0  0  0  0  0  0  0
   -2.0050   25.6850  -29.7850 H   0  0  0  0  0  0  0  0  0  0  0  0
   -4.8727   23.1223  -32.6526 H   0  0  0  0  0  0  0  0  0  0  0  0
   -3.7581   20.9593  -33.1496 H   0  0  0  0  0  0  0  0  0  0  0  0
   -4.9968   18.8263  -32.8836 H   0  0  0  0  0  0  0  0  0  0  0  0
  1  2  1  0
  2  3  1  0
  3  4  1  0
  4  5  1  0
  5  6  1  0
  6  7  2  0
  7  8  1  0
  8  9  1  0
  9 10  1  0
 10 11  1  0
 11 12  1  0
 12 13  1  0
 12 14  2  0
  7 15  1  0
 15 16  2  0
 16 17  1  0
 17 18  2  0
 18  2  1  0
 18  6  1  0
  1 19  1  0
  1 20  1  0
  1 21  1  0
  2 22  1  1
  3 23  1  0
  4 24  1  0
  4 25  1  0
  5 26  1  0
  5 27  1  0
  8 28  1  0
  8 29  1  0
  9 30  1  0
  9 31  1  0
 10 32  1  0
 10 33  1  0
 11 34  1  0
 13 35  1  0
 13 36  1  0
 15 37  1  0
 16 38  1  0
 17 39  1  0
M  END
>  <smiles>  (37) 
CC1NCCc2c(CCCNC(N)=O)cccc21

>  <score_type>  (37) 
oracle

>  <origin>  (37) 
adg

>  <m_score__min__energy>  (37) 
-8.75

>  <m_primary>  (37) 
energy

$$$$
38:0
     RDKit          3D

 56 59  0  0  0  0  0  0  0  0999 V2000
   -1.7270   17.6690  -33.6770 C   0  0  0  0  0  0  0  0  0  0  0  0
   -2.8290   18.2920  -33.0750 O   0  0  0  0  0  0  0  0  0  0  0  0
   -4.1510   17.9850  -33.3200 C   0  0  0  0  0  0  0  0  0  0  0  0
   -4.5540   17.1760  -34.3840 C   0  0  0  0  0  0  0  0  0  0  0  0
   -5.8970   16.9040  -34.5770 C   0  0  0  0  0  0  0  0  0  0  0  0
   -6.8660   17.4280  -33.7220 C   0  0  0  0  0  0  0  0  0  0  0  0
   -6.4670   18.2260  -32.6710 C   0  0  0  0  0  0  0  0  0  0  0  0
   -7.4130   18.8360  -31.7000 C   0  0  0  0  0  0  0  0  0  0  0  0
   -8.1650   19.9370  -32.2250 N   0  0  0  0  0  0  0  0  0  0  0  0
   -7.2140   20.7320  -33.0190 C   0  0  0  0  0  0  0  0  0  0  0  0
   -6.5900   21.7410  -32.0850 C   0  0  0  0  0  0  0  0  0  0  0  0
   -7.6080   22.8760  -31.9460 C   0  0  0  0  0  0  0  0  0  0  0  0
   -7.1710   23.8360  -30.8590 C   0  0  0  0  0  0  0  0  0  0  0  0
   -5.8870   23.3660  -30.3540 N   0  0  0  0  0  0  0  0  0  0  0  0
   -4.7070   24.1540  -30.4260 C   0  0  0  0  0  0  0  0  0  0  0  0
   -4.6700   25.3070  -30.9230 O   0  0  0  0  0  0  0  0  0  0  0  0
   -3.4750   23.5790  -29.8920 C   0  0  0  0  0  0  0  0  0  0  0  0
   -2.9640   23.9000  -28.6590 C   0  0  0  0  0  0  0  0  0  0  0  0
   -1.7870   23.2810  -28.2760 C   0  0  0  0  0  0  0  0  0  0  0  0
   -1.0930   23.6560  -26.7140 Cl  0  0  0  0  0  0  0  0  0  0  0  0
   -1.1340   22.3960  -29.0440 N   0  0  0  0  0  0  0  0  0  0  0  0
   -1.6140   22.0640  -30.2560 C   0  0  0  0  0  0  0  0  0  0  0  0
   -0.9250   21.1510  -31.0280 C   0  0  0  0  0  0  0  0  0  0  0  0
   -1.4070   20.8040  -32.2680 C   0  0  0  0  0  0  0  0  0  0  0  0
   -2.5750   21.3720  -32.7330 C   0  0  0  0  0  0  0  0  0  0  0  0
   -3.2440   22.2880  -31.9320 C   0  0  0  0  0  0  0  0  0  0  0  0
   -2.7950   22.6600  -30.6860 C   0  0  0  0  0  0  0  0  0  0  0  0
   -8.9270   22.2160  -31.6500 C   0  0  0  0  0  0  0  0  0  0  0  0
   -8.7580   20.7720  -31.2110 C   0  0  0  0  0  0  0  0  0  0  0  0
   -5.1100   18.5010  -32.4760 C   0  0  0  0  0  0  0  0  0  0  0  0
   -1.0510   17.2869  -32.8979 H   0  0  0  0  0  0  0  0  0  0  0  0
   -2.0746   16.8338  -34.3028 H   0  0  0  0  0  0  0  0  0  0  0  0
   -1.1906   18.3975  -34.3028 H   0  0  0  0  0  0  0  0  0  0  0  0
   -3.8037   16.7546  -35.0692 H   0  0  0  0  0  0  0  0  0  0  0  0
   -6.2049   16.2648  -35.4176 H   0  0  0  0  0  0  0  0  0  0  0  0
   -7.9316   17.2082  -33.8835 H   0  0  0  0  0  0  0  0  0  0  0  0
   -8.1205   18.0596  -31.3734 H   0  0  0  0  0  0  0  0  0  0  0  0
   -6.8053   19.2337  -30.8738 H   0  0  0  0  0  0  0  0  0  0  0  0
   -6.4369   20.0784  -33.4420 H   0  0  0  0  0  0  0  0  0  0  0  0
   -7.7250   21.2347  -33.8534 H   0  0  0  0  0  0  0  0  0  0  0  0
   -6.3926   21.2829  -31.1046 H   0  0  0  0  0  0  0  0  0  0  0  0
   -5.6288   22.1083  -32.4738 H   0  0  0  0  0  0  0  0  0  0  0  0
   -7.6931   23.4822  -32.8600 H   0  0  0  0  0  0  0  0  0  0  0  0
   -7.0642   24.8495  -31.2729 H   0  0  0  0  0  0  0  0  0  0  0  0
   -7.9164   23.8737  -30.0509 H   0  0  0  0  0  0  0  0  0  0  0  0
   -5.8250   22.4050  -29.9180 H   0  0  0  0  0  0  0  0  0  0  0  0
   -3.4705   24.6213  -28.0009 H   0  0  0  0  0  0  0  0  0  0  0  0
    0.0066   20.7024  -30.6526 H   0  0  0  0  0  0  0  0  0  0  0  0
   -0.8630   20.0757  -32.8874 H   0  0  0  0  0  0  0  0  0  0  0  0
   -2.9705   21.1033  -33.7236 H   0  0  0  0  0  0  0  0  0  0  0  0
   -4.1745   22.7362  -32.3107 H   0  0  0  0  0  0  0  0  0  0  0  0
   -9.4305   22.7742  -30.8469 H   0  0  0  0  0  0  0  0  0  0  0  0
   -9.5232   22.2212  -32.5744 H   0  0  0  0  0  0  0  0  0  0  0  0
   -8.1140   20.7505  -30.3195 H   0  0  0  0  0  0  0  0  0  0  0  0
   -9.7621   20.3730  -31.0044 H   0  0  0  0  0  0  0  0  0  0  0  0
   -4.8030   19.1399  -31.6348 H   0  0  0  0  0  0  0  0  0  0  0  0
  1  2  1  0
  2  3  1  0
  3  4  2  0
  4  5  1  0
  5  6  2  0
  6  7  1  0
  7  8  1  0
  8  9  1  0
  9 10  1  0
 10 11  1  0
 11 12  1  0
 12 13  1  0
 13 14  1  0
 14 15  1  0
 15 16  2  0
 15 17  1  0
 17 18  2  0
 18 19  1  0
 19 20  1  0
 19 21  2  0
 21 22  1  0
 22 23  2  0
 23 24  1  0
 24 25  2  0
 25 26  1  0
 26 27  2  0
 12 28  1  0
 28 29  1  0
  7 30  2  0
 30  3  1  0
 29  9  1  0
 27 17  1  0
 27 22  1  0
  1 31  1  0
  1 32  1  0
  1 33  1  0
  4 34  1  0
  5 35  1  0
  6 36  1  0
  8 37  1  0
  8 38  1  0
 10 39  1  0
 10 40  1  0
 11 41  1  0
 11 42  1  0
 12 43  1  0
 13 44  1  0
 13 45  1  0
 14 46  1  0
 18 47  1  0
 23 48  1  0
 24 49  1  0
 25 50  1  0
 26 51  1  0
 28 52  1  0
 28 53  1  0
 29 54  1  0
 29 55  1  0
 30 56  1  0
M  END
>  <smiles>  (38) 
COc1cccc(CN2CCC(CNC(=O)c3cc(Cl)nc4ccccc34)CC2)c1

>  <score_type>  (38) 
oracle

>  <origin>  (38) 
adg

>  <m_score__min__energy>  (38) 
-10.890000000000001

>  <m_primary>  (38) 
energy

$$$$
39:0
     RDKit          3D

 52 54  0  0  0  0  0  0  0  0999 V2000
   -0.8000   24.8910  -28.4250 C   0  0  0  0  0  0  0  0  0  0  0  0
   -2.2910   24.8380  -28.4590 C   0  0  0  0  0  0  0  0  0  0  0  0
   -2.8200   24.9060  -29.7530 O   0  0  0  0  0  0  0  0  0  0  0  0
   -4.0330   24.3720  -30.0970 C   0  0  0  0  0  0  0  0  0  0  0  0
   -5.1060   25.1680  -30.3960 C   0  0  0  0  0  0  0  0  0  0  0  0
   -6.3420   24.6450  -30.7480 C   0  0  0  0  0  0  0  0  0  0  0  0
   -6.4520   23.2760  -30.7880 C   0  0  0  0  0  0  0  0  0  0  0  0
   -5.3590   22.4720  -30.4830 C   0  0  0  0  0  0  0  0  0  0  0  0
   -4.1300   22.9670  -30.1330 C   0  0  0  0  0  0  0  0  0  0  0  0
   -3.0160   22.2720  -29.8250 O   0  0  0  0  0  0  0  0  0  0  0  0
   -1.7560   22.1790  -30.3860 C   0  0  0  0  0  0  0  0  0  0  0  0
   -1.4880   20.9380  -31.1850 C   0  0  0  0  0  0  0  0  0  0  0  0
   -1.7720   21.0930  -32.6010 N   0  0  0  0  0  0  0  0  0  0  0  0
   -1.9810   19.8140  -33.1830 C   0  0  0  0  0  0  0  0  0  0  0  0
   -3.2370   19.1320  -32.7230 C   0  0  0  0  0  0  0  0  0  0  0  0
   -4.3410   20.0590  -32.9500 N   0  0  0  0  0  0  0  0  0  0  0  0
   -5.6410   19.5730  -32.6430 C   0  0  0  0  0  0  0  0  0  0  0  0
   -5.7700   18.3420  -32.0320 C   0  0  0  0  0  0  0  0  0  0  0  0
   -7.0330   17.8260  -31.7160 C   0  0  0  0  0  0  0  0  0  0  0  0
   -8.1840   18.5250  -32.0010 C   0  0  0  0  0  0  0  0  0  0  0  0
   -9.4900   18.0530  -31.7050 N   0  0  0  0  0  0  0  0  0  0  0  0
   -8.0560   19.7540  -32.6110 C   0  0  0  0  0  0  0  0  0  0  0  0
   -6.8030   20.2560  -32.9200 C   0  0  0  0  0  0  0  0  0  0  0  0
   -4.0590   21.3710  -33.4520 C   0  0  0  0  0  0  0  0  0  0  0  0
   -2.8670   22.0100  -32.7840 C   0  0  0  0  0  0  0  0  0  0  0  0
   -0.4573   24.9032  -27.3798 H   0  0  0  0  0  0  0  0  0  0  0  0
   -0.3899   24.0069  -28.9351 H   0  0  0  0  0  0  0  0  0  0  0  0
   -0.4538   25.8020  -28.9351 H   0  0  0  0  0  0  0  0  0  0  0  0
   -2.6170   23.8939  -27.9982 H   0  0  0  0  0  0  0  0  0  0  0  0
   -2.6599   25.7173  -27.9106 H   0  0  0  0  0  0  0  0  0  0  0  0
   -4.9839   26.2605  -30.3558 H   0  0  0  0  0  0  0  0  0  0  0  0
   -7.1957   25.2972  -30.9845 H   0  0  0  0  0  0  0  0  0  0  0  0
   -7.4110   22.8128  -31.0631 H   0  0  0  0  0  0  0  0  0  0  0  0
   -5.4879   21.3804  -30.5249 H   0  0  0  0  0  0  0  0  0  0  0  0
   -1.6174   23.0448  -31.0503 H   0  0  0  0  0  0  0  0  0  0  0  0
   -1.0535   22.1477  -29.5401 H   0  0  0  0  0  0  0  0  0  0  0  0
   -0.4273   20.6705  -31.0690 H   0  0  0  0  0  0  0  0  0  0  0  0
   -2.1579   20.1537  -30.8026 H   0  0  0  0  0  0  0  0  0  0  0  0
   -2.0332   19.9352  -34.2751 H   0  0  0  0  0  0  0  0  0  0  0  0
   -1.1400   19.1792  -32.8672 H   0  0  0  0  0  0  0  0  0  0  0  0
   -3.3964   18.2083  -33.2986 H   0  0  0  0  0  0  0  0  0  0  0  0
   -3.1669   18.8623  -31.6589 H   0  0  0  0  0  0  0  0  0  0  0  0
   -4.8692   17.7588  -31.7902 H   0  0  0  0  0  0  0  0  0  0  0  0
   -7.1067   16.8419  -31.2301 H   0  0  0  0  0  0  0  0  0  0  0  0
  -10.2370   18.1700  -32.4240 H   0  0  0  0  0  0  0  0  0  0  0  0
   -9.7170   17.5890  -30.7790 H   0  0  0  0  0  0  0  0  0  0  0  0
   -8.9547   20.3399  -32.8540 H   0  0  0  0  0  0  0  0  0  0  0  0
   -6.7338   21.2402  -33.4064 H   0  0  0  0  0  0  0  0  0  0  0  0
   -3.8598   21.2988  -34.5314 H   0  0  0  0  0  0  0  0  0  0  0  0
   -4.9348   22.0017  -33.2393 H   0  0  0  0  0  0  0  0  0  0  0  0
   -2.5227   22.8487  -33.4069 H   0  0  0  0  0  0  0  0  0  0  0  0
   -3.1871   22.3468  -31.7870 H   0  0  0  0  0  0  0  0  0  0  0  0
  1  2  1  0
  2  3  1  0
  3  4  1  0
  4  5  2  0
  5  6  1  0
  6  7  2  0
  7  8  1  0
  8  9  2  0
  9 10  1  0
 10 11  1  0
 11 12  1  0
 12 13  1  0
 13 14  1  0
 14 15  1  0
 15 16  1  0
 16 17  1  0
 17 18  2  0
 18 19  1  0
 19 20  2  0
 20 21  1  0
 20 22  1  0
 22 23  2  0
 16 24  1  0
 24 25  1  0
  9  4  1  0
 25 13  1  0
 23 17  1  0
  1 26  1  0
  1 27  1  0
  1 28  1  0
  2 29  1  0
  2 30  1  0
  5 31  1  0
  6 32  1  0
  7 33  1  0
  8 34  1  0
 11 35  1  0
 11 36  1  0
 12 37  1  0
 12 38  1  0
 14 39  1  0
 14 40  1  0
 15 41  1  0
 15 42  1  0
 18 43  1  0
 19 44  1  0
 21 45  1  0
 21 46  1  0
 22 47  1  0
 23 48  1  0
 24 49  1  0
 24 50  1  0
 25 51  1  0
 25 52  1  0
M  END
>  <smiles>  (39) 
CCOc1ccccc1OCCN1CCN(c2ccc(N)cc2)CC1

>  <score_type>  (39) 
oracle

>  <origin>  (39) 
adg

>  <m_score__min__energy>  (39) 
-8.6500000000000004

>  <m_primary>  (39) 
energy

$$$$
40:0
     RDKit          3D

 37 39  0  0  1  0  0  0  0  0999 V2000
   -2.5600   24.9260  -29.6830 O   0  0  0  0  0  0  0  0  0  0  0  0
   -3.5210   24.2570  -30.1270 C   0  0  0  0  0  0  0  0  0  0  0  0
   -3.5630   22.7640  -29.9280 C   0  0  0  0  0  0  0  0  0  0  0  0
   -3.1120   22.0220  -31.1160 C   0  0  0  0  0  0  0  0  0  0  0  0
   -1.7300   21.9400  -31.3180 C   0  0  0  0  0  0  0  0  0  0  0  0
   -1.2300   21.2520  -32.4240 C   0  0  0  0  0  0  0  0  0  0  0  0
   -2.1310   20.6630  -33.3040 C   0  0  0  0  0  0  0  0  0  0  0  0
   -3.4970   20.7500  -33.0960 C   0  0  0  0  0  0  0  0  0  0  0  0
   -4.0080   21.4360  -31.9920 C   0  0  0  0  0  0  0  0  0  0  0  0
   -4.6210   24.8140  -30.8310 N   0  0  0  0  0  0  0  0  0  0  0  0
   -5.7360   24.1310  -30.7860 C   0  0  0  0  0  0  0  0  0  0  0  0
   -6.5720   23.8190  -29.8280 N   0  0  0  0  0  0  0  0  0  0  0  0
   -7.5930   23.1090  -30.1770 N   0  0  0  0  0  0  0  0  0  0  0  0
   -7.9100   22.6880  -31.2060 C   0  0  0  0  0  0  0  0  0  0  0  0
   -8.9370   21.8870  -31.9730 C   0  0  0  0  0  0  0  0  0  0  0  0
   -8.3880   20.5230  -32.2190 C   0  0  0  0  0  0  0  0  0  0  0  0
   -8.8770   19.3960  -31.6090 C   0  0  0  0  0  0  0  0  0  0  0  0
   -8.2980   18.1820  -31.9070 C   0  0  0  0  0  0  0  0  0  0  0  0
   -7.2460   18.0640  -32.7940 C   0  0  0  0  0  0  0  0  0  0  0  0
   -6.6650   16.8850  -33.0970 F   0  0  0  0  0  0  0  0  0  0  0  0
   -6.7450   19.2100  -33.4160 C   0  0  0  0  0  0  0  0  0  0  0  0
   -5.7070   19.1290  -34.2960 F   0  0  0  0  0  0  0  0  0  0  0  0
   -7.3310   20.4190  -33.1110 C   0  0  0  0  0  0  0  0  0  0  0  0
   -6.4670   23.3500  -32.2930 S   0  0  0  0  0  0  0  0  0  0  0  0
   -2.9113   22.5030  -29.0812 H   0  0  0  0  0  0  0  0  0  0  0  0
   -4.6090   22.4826  -29.7366 H   0  0  0  0  0  0  0  0  0  0  0  0
   -1.0395   22.4167  -30.6067 H   0  0  0  0  0  0  0  0  0  0  0  0
   -0.1461   21.1772  -32.5961 H   0  0  0  0  0  0  0  0  0  0  0  0
   -1.7518   20.1182  -34.1811 H   0  0  0  0  0  0  0  0  0  0  0  0
   -4.1872   20.2737  -33.8079 H   0  0  0  0  0  0  0  0  0  0  0  0
   -5.0926   21.5083  -31.8238 H   0  0  0  0  0  0  0  0  0  0  0  0
   -6.4220   24.1320  -28.8150 H   0  0  0  0  0  0  0  0  0  0  0  0
   -9.8639   21.8131  -31.3853 H   0  0  0  0  0  0  0  0  0  0  0  0
   -9.1609   22.3807  -32.9302 H   0  0  0  0  0  0  0  0  0  0  0  0
   -9.7133   19.4601  -30.8973 H   0  0  0  0  0  0  0  0  0  0  0  0
   -8.6872   17.2749  -31.4215 H   0  0  0  0  0  0  0  0  0  0  0  0
   -6.9480   21.3318  -33.5907 H   0  0  0  0  0  0  0  0  0  0  0  0
  1  2  2  0
  2  3  1  0
  3  4  1  0
  4  5  2  0
  5  6  1  0
  6  7  2  0
  7  8  1  0
  8  9  2  0
  2 10  1  0
 10 11  2  0
 11 12  1  0
 12 13  1  0
 13 14  2  0
 14 15  1  0
 15 16  1  0
 16 17  2  0
 17 18  1  0
 18 19  2  0
 19 20  1  0
 19 21  1  0
 21 22  1  0
 21 23  2  0
 14 24  1  0
  9  4  1  0
 24 11  1  0
 23 16  1  0
  3 25  1  0
  3 26  1  0
  5 27  1  0
  6 28  1  0
  7 29  1  0
  8 30  1  0
  9 31  1  0
 12 32  1  0
 15 33  1  0
 15 34  1  0
 17 35  1  0
 18 36  1  0
 23 37  1  0
M  END
>  <smiles>  (40) 
O=C(Cc1ccccc1)N=c1[nH]nc(Cc2ccc(F)c(F)c2)s1

>  <score_type>  (40) 
oracle

>  <origin>  (40) 
adg

>  <m_score__min__energy>  (40) 
-9.0500000000000007

>  <m_primary>  (40) 
energy

$$$$
41:0
     RDKit          3D

 49 52  0  0  0  0  0  0  0  0999 V2000
    0.2900   24.8320  -36.2440 C   0  0  0  0  0  0  0  0  0  0  0  0
    1.5630   24.0550  -35.9990 C   0  0  0  0  0  0  0  0  0  0  0  0
    1.3830   22.8090  -35.3420 N   0  0  0  0  0  0  0  0  0  0  0  0
    2.5750   22.0880  -35.0530 C   0  0  0  0  0  0  0  0  0  0  0  0
    3.8500   22.6990  -35.5440 C   0  0  0  0  0  0  0  0  0  0  0  0
    0.2540   22.0230  -35.6920 C   0  0  0  0  0  0  0  0  0  0  0  0
   -0.0070   20.8130  -34.8640 C   0  0  0  0  0  0  0  0  0  0  0  0
   -0.8150   21.1350  -33.6760 N   0  0  0  0  0  0  0  0  0  0  0  0
   -2.1590   20.6910  -33.5750 C   0  0  0  0  0  0  0  0  0  0  0  0
   -2.4830   19.4320  -34.0260 C   0  0  0  0  0  0  0  0  0  0  0  0
   -3.8000   19.0230  -33.9170 C   0  0  0  0  0  0  0  0  0  0  0  0
   -4.7570   19.8610  -33.3700 C   0  0  0  0  0  0  0  0  0  0  0  0
   -4.4110   21.1290  -32.9180 C   0  0  0  0  0  0  0  0  0  0  0  0
   -3.0910   21.5420  -33.0270 C   0  0  0  0  0  0  0  0  0  0  0  0
   -5.3950   22.0330  -32.3350 C   0  0  0  0  0  0  0  0  0  0  0  0
   -5.0310   23.2540  -31.9090 N   0  0  0  0  0  0  0  0  0  0  0  0
   -5.9150   24.1350  -31.3580 C   0  0  0  0  0  0  0  0  0  0  0  0
   -7.2470   23.8010  -31.2110 C   0  0  0  0  0  0  0  0  0  0  0  0
   -7.6470   22.5320  -31.6500 C   0  0  0  0  0  0  0  0  0  0  0  0
   -8.9480   22.0990  -31.5500 C   0  0  0  0  0  0  0  0  0  0  0  0
   -9.3750   20.8530  -31.9740 C   0  0  0  0  0  0  0  0  0  0  0  0
   -8.4540   19.9740  -32.5330 C   0  0  0  0  0  0  0  0  0  0  0  0
   -7.1520   20.3830  -32.6420 C   0  0  0  0  0  0  0  0  0  0  0  0
   -6.7250   21.6480  -32.2110 C   0  0  0  0  0  0  0  0  0  0  0  0
   -6.1640   19.4580  -33.2360 C   0  0  0  0  0  0  0  0  0  0  0  0
   -6.5110   18.3190  -33.6340 O   0  0  0  0  0  0  0  0  0  0  0  0
   -0.1623   25.1081  -35.2801 H   0  0  0  0  0  0  0  0  0  0  0  0
    0.5208   25.7433  -36.8151 H   0  0  0  0  0  0  0  0  0  0  0  0
   -0.4150   24.2101  -36.8151 H   0  0  0  0  0  0  0  0  0  0  0  0
    2.0395   23.8633  -36.9717 H   0  0  0  0  0  0  0  0  0  0  0  0
    2.1786   24.6726  -35.3284 H   0  0  0  0  0  0  0  0  0  0  0  0
    2.6499   21.9868  -33.9602 H   0  0  0  0  0  0  0  0  0  0  0  0
    2.4796   21.1325  -35.5896 H   0  0  0  0  0  0  0  0  0  0  0  0
    4.4692   22.9957  -34.6846 H   0  0  0  0  0  0  0  0  0  0  0  0
    4.3971   21.9652  -36.1541 H   0  0  0  0  0  0  0  0  0  0  0  0
    3.6208   23.5851  -36.1541 H   0  0  0  0  0  0  0  0  0  0  0  0
   -0.6340   22.6688  -35.6259 H   0  0  0  0  0  0  0  0  0  0  0  0
    0.4726   21.6395  -36.6995 H   0  0  0  0  0  0  0  0  0  0  0  0
   -0.5466   20.0728  -35.4731 H   0  0  0  0  0  0  0  0  0  0  0  0
    0.9597   20.4121  -34.5251 H   0  0  0  0  0  0  0  0  0  0  0  0
   -0.3560   21.7000  -32.9130 H   0  0  0  0  0  0  0  0  0  0  0  0
   -1.7182   18.7711  -34.4599 H   0  0  0  0  0  0  0  0  0  0  0  0
   -4.0900   18.0218  -34.2685 H   0  0  0  0  0  0  0  0  0  0  0  0
   -2.7920   22.5415  -32.6782 H   0  0  0  0  0  0  0  0  0  0  0  0
   -5.5627   25.1231  -31.0269 H   0  0  0  0  0  0  0  0  0  0  0  0
   -7.9664   24.5044  -30.7663 H   0  0  0  0  0  0  0  0  0  0  0  0
   -9.6902   22.7805  -31.1087 H   0  0  0  0  0  0  0  0  0  0  0  0
  -10.4305   20.5613  -31.8701 H   0  0  0  0  0  0  0  0  0  0  0  0
   -8.7633   18.9765  -32.8785 H   0  0  0  0  0  0  0  0  0  0  0  0
  1  2  1  0
  2  3  1  0
  3  4  1  0
  4  5  1  0
  3  6  1  0
  6  7  1  0
  7  8  1  0
  8  9  1  0
  9 10  2  0
 10 11  1  0
 11 12  2  0
 12 13  1  0
 13 14  2  0
 13 15  1  0
 15 16  2  0
 16 17  1  0
 17 18  2  0
 18 19  1  0
 19 20  2  0
 20 21  1  0
 21 22  2  0
 22 23  1  0
 23 24  2  0
 23 25  1  0
 25 26  2  0
 14  9  1  0
 24 15  1  0
 25 12  1  0
 24 19  1  0
  1 27  1  0
  1 28  1  0
  1 29  1  0
  2 30  1  0
  2 31  1  0
  4 32  1  0
  4 33  1  0
  5 34  1  0
  5 35  1  0
  5 36  1  0
  6 37  1  0
  6 38  1  0
  7 39  1  0
  7 40  1  0
  8 41  1  0
 10 42  1  0
 11 43  1  0
 14 44  1  0
 17 45  1  0
 18 46  1  0
 20 47  1  0
 21 48  1  0
 22 49  1  0
M  END
>  <smiles>  (41) 
CCN(CC)CCNc1ccc2c(c1)-c1nccc3cccc(c13)C2=O

>  <score_type>  (41) 
oracle

>  <origin>  (41) 
adg

>  <m_score__min__energy>  (41) 
-9.1099999999999994

>  <m_primary>  (41) 
energy

$$$$
42:0
     RDKit          3D

 50 52  0  0  1  0  0  0  0  0999 V2000
   -1.8880   25.7340  -25.9060 C   0  0  0  0  0  0  0  0  0  0  0  0
   -3.1800   25.0420  -26.2660 C   0  0  0  0  0  0  0  0  0  0  0  0
   -2.9380   24.2210  -27.3930 O   0  0  0  0  0  0  0  0  0  0  0  0
   -3.4530   24.5110  -28.6420 C   0  0  0  0  0  0  0  0  0  0  0  0
   -2.7550   24.9120  -29.5840 O   0  0  0  0  0  0  0  0  0  0  0  0
   -4.8570   24.3330  -28.8310 N   0  0  0  0  0  0  0  0  0  0  0  0
   -5.5030   24.6070  -30.0950 C   0  0  2  0  0  0  0  0  0  0  0  0
   -5.4020   26.0720  -30.4650 C   0  0  0  0  0  0  0  0  0  0  0  0
   -6.9810   24.2340  -29.9630 C   0  0  0  0  0  0  0  0  0  0  0  0
   -7.1950   22.9990  -30.7360 C   0  0  0  0  0  0  0  0  0  0  0  0
   -6.1760   22.5310  -31.5620 C   0  0  0  0  0  0  0  0  0  0  0  0
   -6.3190   21.3820  -32.3080 C   0  0  0  0  0  0  0  0  0  0  0  0
   -7.5030   20.6590  -32.2490 C   0  0  0  0  0  0  0  0  0  0  0  0
   -7.6160   19.4140  -33.0770 C   0  0  2  0  0  0  0  0  0  0  0  0
   -7.8460   18.2720  -32.1350 C   0  0  0  0  0  0  0  0  0  0  0  0
   -7.3750   17.0250  -32.5970 O   0  0  0  0  0  0  0  0  0  0  0  0
   -6.0930   16.9280  -33.1700 C   0  0  0  0  0  0  0  0  0  0  0  0
   -5.3210   15.7910  -33.0360 C   0  0  0  0  0  0  0  0  0  0  0  0
   -4.0590   15.7770  -33.6360 C   0  0  0  0  0  0  0  0  0  0  0  0
   -3.6090   16.8770  -34.3420 C   0  0  0  0  0  0  0  0  0  0  0  0
   -4.4250   18.0090  -34.4520 C   0  0  0  0  0  0  0  0  0  0  0  0
   -5.6730   18.0450  -33.8680 C   0  0  0  0  0  0  0  0  0  0  0  0
   -6.4800   19.2600  -34.0200 C   0  0  0  0  0  0  0  0  0  0  0  0
   -8.5330   21.0970  -31.4380 C   0  0  0  0  0  0  0  0  0  0  0  0
   -8.3500   22.2510  -30.7090 C   0  0  0  0  0  0  0  0  0  0  0  0
   -1.7922   25.7853  -24.8114 H   0  0  0  0  0  0  0  0  0  0  0  0
   -1.0410   25.1688  -26.3221 H   0  0  0  0  0  0  0  0  0  0  0  0
   -1.8891   26.7523  -26.3221 H   0  0  0  0  0  0  0  0  0  0  0  0
   -3.5209   24.4253  -25.4214 H   0  0  0  0  0  0  0  0  0  0  0  0
   -3.9596   25.7837  -26.4943 H   0  0  0  0  0  0  0  0  0  0  0  0
   -5.4720   23.9950  -28.0510 H   0  0  0  0  0  0  0  0  0  0  0  0
   -5.0060   24.0204  -30.8817 H   0  0  0  0  0  0  0  0  0  0  0  0
   -5.3601   26.6795  -29.5489 H   0  0  0  0  0  0  0  0  0  0  0  0
   -4.4902   26.2385  -31.0574 H   0  0  0  0  0  0  0  0  0  0  0  0
   -6.2823   26.3621  -31.0574 H   0  0  0  0  0  0  0  0  0  0  0  0
   -7.2328   24.0640  -28.9058 H   0  0  0  0  0  0  0  0  0  0  0  0
   -7.6211   25.0446  -30.3415 H   0  0  0  0  0  0  0  0  0  0  0  0
   -5.2325   23.0936  -31.6201 H   0  0  0  0  0  0  0  0  0  0  0  0
   -5.4954   21.0372  -32.9504 H   0  0  0  0  0  0  0  0  0  0  0  0
   -8.4767   19.4587  -33.7605 H   0  0  0  0  0  0  0  0  0  0  0  0
   -7.3368   18.5012  -31.1873 H   0  0  0  0  0  0  0  0  0  0  0  0
   -8.9361   18.1725  -32.0264 H   0  0  0  0  0  0  0  0  0  0  0  0
   -5.6890   14.9207  -32.4728 H   0  0  0  0  0  0  0  0  0  0  0  0
   -3.4203   14.8859  -33.5460 H   0  0  0  0  0  0  0  0  0  0  0  0
   -2.6157   16.8628  -34.8145 H   0  0  0  0  0  0  0  0  0  0  0  0
   -4.0646   18.8836  -35.0134 H   0  0  0  0  0  0  0  0  0  0  0  0
   -5.8133   20.1247  -33.8865 H   0  0  0  0  0  0  0  0  0  0  0  0
   -6.9343   19.1888  -35.0193 H   0  0  0  0  0  0  0  0  0  0  0  0
   -9.4775   20.5365  -31.3762 H   0  0  0  0  0  0  0  0  0  0  0  0
   -9.1750   22.5949  -30.0678 H   0  0  0  0  0  0  0  0  0  0  0  0
  1  2  1  0
  2  3  1  0
  3  4  1  0
  4  5  2  0
  4  6  1  0
  6  7  1  0
  7  8  1  0
  7  9  1  0
  9 10  1  0
 10 11  2  0
 11 12  1  0
 12 13  2  0
 13 14  1  0
 14 15  1  0
 15 16  1  0
 16 17  1  0
 17 18  2  0
 18 19  1  0
 19 20  2  0
 20 21  1  0
 21 22  2  0
 22 23  1  0
 13 24  1  0
 24 25  2  0
 25 10  1  0
 23 14  1  0
 22 17  1  0
  1 26  1  0
  1 27  1  0
  1 28  1  0
  2 29  1  0
  2 30  1  0
  6 31  1  0
  7 32  1  6
  8 33  1  0
  8 34  1  0
  8 35  1  0
  9 36  1  0
  9 37  1  0
 11 38  1  0
 12 39  1  0
 14 40  1  6
 15 41  1  0
 15 42  1  0
 18 43  1  0
 19 44  1  0
 20 45  1  0
 21 46  1  0
 23 47  1  0
 23 48  1  0
 24 49  1  0
 25 50  1  0
M  END
>  <smiles>  (42) 
CCOC(=O)NC(C)Cc1ccc(C2COc3ccccc3C2)cc1

>  <score_type>  (42) 
oracle

>  <origin>  (42) 
adg

>  <m_score__min__energy>  (42) 
-9.2699999999999996

>  <m_primary>  (42) 
energy

$$$$
43:0
     RDKit          3D

 36 38  0  0  0  0  0  0  0  0999 V2000
   -5.3290   25.3270  -30.5500 C   0  0  0  0  0  0  0  0  0  0  0  0
   -5.3460   24.3670  -31.5590 O   0  0  0  0  0  0  0  0  0  0  0  0
   -6.2370   23.3340  -31.7130 C   0  0  0  0  0  0  0  0  0  0  0  0
   -7.5660   23.3900  -31.3410 C   0  0  0  0  0  0  0  0  0  0  0  0
   -8.4360   22.3240  -31.5130 C   0  0  0  0  0  0  0  0  0  0  0  0
   -7.9960   21.1420  -32.0740 C   0  0  0  0  0  0  0  0  0  0  0  0
   -9.1210   19.6390  -32.3430 Br  0  0  0  0  0  0  0  0  0  0  0  0
   -6.6710   21.0690  -32.4510 C   0  0  0  0  0  0  0  0  0  0  0  0
   -5.8020   22.1490  -32.2740 C   0  0  0  0  0  0  0  0  0  0  0  0
   -4.4630   21.9380  -32.7070 N   0  0  0  0  0  0  0  0  0  0  0  0
   -3.3790   21.9390  -31.7850 C   0  0  0  0  0  0  0  0  0  0  0  0
   -3.6150   22.1310  -30.5610 O   0  0  0  0  0  0  0  0  0  0  0  0
   -1.9660   21.7230  -32.2010 C   0  0  0  0  0  0  0  0  0  0  0  0
   -2.0080   20.8670  -33.8000 S   0  0  0  0  0  0  0  0  0  0  0  0
   -3.2090   19.5490  -33.7500 C   0  0  0  0  0  0  0  0  0  0  0  0
   -2.9500   18.2510  -33.4670 N   0  0  0  0  0  0  0  0  0  0  0  0
   -4.0980   17.5450  -33.5220 C   0  0  0  0  0  0  0  0  0  0  0  0
   -4.4170   16.2080  -33.3250 C   0  0  0  0  0  0  0  0  0  0  0  0
   -5.7440   15.8150  -33.4670 C   0  0  0  0  0  0  0  0  0  0  0  0
   -6.7240   16.7330  -33.7960 C   0  0  0  0  0  0  0  0  0  0  0  0
   -6.3980   18.0700  -33.9910 C   0  0  0  0  0  0  0  0  0  0  0  0
   -5.0800   18.4510  -33.8480 C   0  0  0  0  0  0  0  0  0  0  0  0
   -4.5000   19.6200  -33.9720 O   0  0  0  0  0  0  0  0  0  0  0  0
   -5.3378   24.8285  -29.5695 H   0  0  0  0  0  0  0  0  0  0  0  0
   -4.4199   25.9394  -30.6418 H   0  0  0  0  0  0  0  0  0  0  0  0
   -6.2159   25.9712  -30.6418 H   0  0  0  0  0  0  0  0  0  0  0  0
   -7.9496   24.3172  -30.8903 H   0  0  0  0  0  0  0  0  0  0  0  0
   -9.4859   22.4211  -31.1997 H   0  0  0  0  0  0  0  0  0  0  0  0
   -6.2901   20.1402  -32.9008 H   0  0  0  0  0  0  0  0  0  0  0  0
   -4.2700   21.7780  -33.7390 H   0  0  0  0  0  0  0  0  0  0  0  0
   -1.4505   22.6893  -32.3034 H   0  0  0  0  0  0  0  0  0  0  0  0
   -1.4230   21.1282  -31.4517 H   0  0  0  0  0  0  0  0  0  0  0  0
   -3.6385   15.4765  -33.0627 H   0  0  0  0  0  0  0  0  0  0  0  0
   -6.0170   14.7602  -33.3155 H   0  0  0  0  0  0  0  0  0  0  0  0
   -7.7679   16.4033  -33.9041 H   0  0  0  0  0  0  0  0  0  0  0  0
   -7.1721   18.8063  -34.2530 H   0  0  0  0  0  0  0  0  0  0  0  0
  1  2  1  0
  2  3  1  0
  3  4  2  0
  4  5  1  0
  5  6  2  0
  6  7  1  0
  6  8  1  0
  8  9  2  0
  9 10  1  0
 10 11  1  0
 11 12  2  0
 11 13  1  0
 13 14  1  0
 14 15  1  0
 15 16  2  0
 16 17  1  0
 17 18  2  0
 18 19  1  0
 19 20  2  0
 20 21  1  0
 21 22  2  0
 22 23  1  0
  9  3  1  0
 23 15  1  0
 22 17  1  0
  1 24  1  0
  1 25  1  0
  1 26  1  0
  4 27  1  0
  5 28  1  0
  8 29  1  0
 10 30  1  0
 13 31  1  0
 13 32  1  0
 18 33  1  0
 19 34  1  0
 20 35  1  0
 21 36  1  0
M  END
>  <smiles>  (43) 
COc1ccc(Br)cc1NC(=O)CSc1nc2ccccc2o1

>  <score_type>  (43) 
oracle

>  <origin>  (43) 
adg

>  <m_score__min__energy>  (43) 
-8.4299999999999997

>  <m_primary>  (43) 
energy

$$$$
44:0
     RDKit          3D

 51 53  0  0  1  0  0  0  0  0999 V2000
   -7.6580   18.3670  -32.3540 C   0  0  0  0  0  0  0  0  0  0  0  0
   -8.7210   19.1400  -31.5650 C   0  0  0  0  0  0  0  0  0  0  0  0
   -9.0940   20.2860  -32.2220 O   0  0  0  0  0  0  0  0  0  0  0  0
   -9.3840   21.3680  -31.3980 C   0  0  0  0  0  0  0  0  0  0  0  0
   -8.5150   22.5240  -31.8210 C   0  0  0  0  0  0  0  0  0  0  0  0
   -7.1230   22.3090  -31.6150 N   0  0  0  0  0  0  0  0  0  0  0  0
   -6.3830   21.6750  -32.6240 C   0  0  0  0  0  0  0  0  0  0  0  0
   -5.2520   20.8900  -31.9410 C   0  0  0  0  0  0  0  0  0  0  0  0
   -4.5790   21.6490  -30.9630 N   0  0  0  0  0  0  0  0  0  0  0  0
   -3.2110   21.9510  -31.1690 C   0  0  0  0  0  0  0  0  0  0  0  0
   -2.6600   22.7600  -30.0510 C   0  0  0  0  0  0  0  0  0  0  0  0
   -2.2160   23.8300  -29.8410 N   0  0  0  0  0  0  0  0  0  0  0  0
   -1.7620   24.3670  -28.7270 C   0  0  0  0  0  0  0  0  0  0  0  0
   -1.2340   25.6290  -28.4630 C   0  0  0  0  0  0  0  0  0  0  0  0
   -0.8320   25.9320  -27.2020 C   0  0  0  0  0  0  0  0  0  0  0  0
   -0.8940   25.0910  -26.1150 C   0  0  0  0  0  0  0  0  0  0  0  0
   -1.4170   23.8240  -26.3500 C   0  0  0  0  0  0  0  0  0  0  0  0
   -1.8270   23.5150  -27.6340 C   0  0  0  0  0  0  0  0  0  0  0  0
   -2.5530   21.9760  -28.3170 S   0  0  0  0  0  0  0  0  0  0  0  0
   -5.3230   22.4680  -30.0920 C   0  0  0  0  0  0  0  0  0  0  0  0
   -6.4620   23.2210  -30.7660 C   0  0  1  0  0  0  0  0  0  0  0  0
   -5.8730   24.4400  -31.3830 C   0  0  0  0  0  0  0  0  0  0  0  0
   -5.2380   25.4050  -30.4280 C   0  0  0  0  0  0  0  0  0  0  0  0
   -3.9020   25.6750  -30.7220 O   0  0  0  0  0  0  0  0  0  0  0  0
   -6.9720   17.8682  -31.6535 H   0  0  0  0  0  0  0  0  0  0  0  0
   -8.1478   17.6127  -32.9873 H   0  0  0  0  0  0  0  0  0  0  0  0
   -7.0914   19.0655  -32.9873 H   0  0  0  0  0  0  0  0  0  0  0  0
   -9.6051   18.4992  -31.4320 H   0  0  0  0  0  0  0  0  0  0  0  0
   -8.2944   19.4213  -30.5909 H   0  0  0  0  0  0  0  0  0  0  0  0
  -10.4445   21.6414  -31.5009 H   0  0  0  0  0  0  0  0  0  0  0  0
   -9.1895   21.1095  -30.3466 H   0  0  0  0  0  0  0  0  0  0  0  0
   -8.6815   22.7076  -32.8927 H   0  0  0  0  0  0  0  0  0  0  0  0
   -8.8002   23.3819  -31.1943 H   0  0  0  0  0  0  0  0  0  0  0  0
   -7.0297   20.9876  -33.1889 H   0  0  0  0  0  0  0  0  0  0  0  0
   -5.9725   22.4146  -33.3272 H   0  0  0  0  0  0  0  0  0  0  0  0
   -5.6820   19.9987  -31.4608 H   0  0  0  0  0  0  0  0  0  0  0  0
   -4.5191   20.6201  -32.7156 H   0  0  0  0  0  0  0  0  0  0  0  0
   -2.6444   21.0112  -31.2438 H   0  0  0  0  0  0  0  0  0  0  0  0
   -3.1214   22.5358  -32.0964 H   0  0  0  0  0  0  0  0  0  0  0  0
   -1.1437   26.3727  -29.2684 H   0  0  0  0  0  0  0  0  0  0  0  0
   -0.4206   26.9384  -27.0348 H   0  0  0  0  0  0  0  0  0  0  0  0
   -0.5498   25.4027  -25.1178 H   0  0  0  0  0  0  0  0  0  0  0  0
   -1.5022   23.0880  -25.5370 H   0  0  0  0  0  0  0  0  0  0  0  0
   -5.7491   21.8333  -29.3011 H   0  0  0  0  0  0  0  0  0  0  0  0
   -4.6293   23.2269  -29.7010 H   0  0  0  0  0  0  0  0  0  0  0  0
   -7.2498   23.5964  -30.0964 H   0  0  0  0  0  0  0  0  0  0  0  0
   -5.1042   24.1185  -32.1010 H   0  0  0  0  0  0  0  0  0  0  0  0
   -6.7127   24.9805  -31.8442 H   0  0  0  0  0  0  0  0  0  0  0  0
   -5.8004   26.3498  -30.4611 H   0  0  0  0  0  0  0  0  0  0  0  0
   -5.2644   24.9410  -29.4310 H   0  0  0  0  0  0  0  0  0  0  0  0
   -3.4840   24.9250  -31.2240 H   0  0  0  0  0  0  0  0  0  0  0  0
  1  2  1  0
  2  3  1  0
  3  4  1  0
  4  5  1  0
  5  6  1  0
  6  7  1  0
  7  8  1  0
  8  9  1  0
  9 10  1  0
 10 11  1  0
 11 12  2  0
 12 13  1  0
 13 14  2  0
 14 15  1  0
 15 16  2  0
 16 17  1  0
 17 18  2  0
 18 19  1  0
  9 20  1  0
 20 21  1  0
 21 22  1  0
 22 23  1  0
 23 24  1  0
 21  6  1  0
 19 11  1  0
 18 13  1  0
  1 25  1  0
  1 26  1  0
  1 27  1  0
  2 28  1  0
  2 29  1  0
  4 30  1  0
  4 31  1  0
  5 32  1  0
  5 33  1  0
  7 34  1  0
  7 35  1  0
  8 36  1  0
  8 37  1  0
 10 38  1  0
 10 39  1  0
 14 40  1  0
 15 41  1  0
 16 42  1  0
 17 43  1  0
 20 44  1  0
 20 45  1  0
 21 46  1  1
 22 47  1  0
 22 48  1  0
 23 49  1  0
 23 50  1  0
 24 51  1  0
M  END
>  <smiles>  (44) 
CCOCCN1CCN(Cc2nc3ccccc3s2)CC1CCO

>  <score_type>  (44) 
oracle

>  <origin>  (44) 
adg

>  <m_score__min__energy>  (44) 
-8.3499999999999996

>  <m_primary>  (44) 
energy

$$$$
45:0
     RDKit          3D

 49 51  0  0  1  0  0  0  0  0999 V2000
   -0.9360   22.7740  -29.4030 C   0  0  0  0  0  0  0  0  0  0  0  0
   -1.6190   21.3980  -29.3240 C   0  0  0  0  0  0  0  0  0  0  0  0
   -2.8420   21.6000  -28.5920 N   0  0  0  0  0  0  0  0  0  0  0  0
   -2.7930   20.7300  -27.4230 C   0  0  0  0  0  0  0  0  0  0  0  0
   -1.7330   19.6870  -27.6410 C   0  0  0  0  0  0  0  0  0  0  0  0
   -3.1930   22.9280  -28.2730 C   0  0  0  0  0  0  0  0  0  0  0  0
   -4.5040   23.4710  -28.6750 C   0  0  0  0  0  0  0  0  0  0  0  0
   -4.6330   24.0750  -30.3280 S   0  0  0  0  0  0  0  0  0  0  0  0
   -3.4910   25.2980  -30.5190 O   0  0  0  0  0  0  0  0  0  0  0  0
   -4.2250   22.7800  -31.4420 C   0  0  0  0  0  0  0  0  0  0  0  0
   -2.9860   22.6150  -31.9390 N   0  0  0  0  0  0  0  0  0  0  0  0
   -2.6750   21.6240  -32.7960 C   0  0  0  0  0  0  0  0  0  0  0  0
   -3.6140   20.7510  -33.1870 N   0  0  0  0  0  0  0  0  0  0  0  0
   -4.8550   20.8600  -32.7310 C   0  0  0  0  0  0  0  0  0  0  0  0
   -5.1830   21.8730  -31.8550 C   0  0  0  0  0  0  0  0  0  0  0  0
   -6.4750   21.7480  -31.5630 N   0  0  0  0  0  0  0  0  0  0  0  0
   -6.9680   20.6810  -32.2350 C   0  0  0  0  0  0  0  0  0  0  0  0
   -5.9600   20.1270  -32.9620 N   0  0  0  0  0  0  0  0  0  0  0  0
   -6.1560   18.9690  -33.7960 C   0  0  2  0  0  0  0  0  0  0  0  0
   -6.7680   17.8790  -32.9430 C   0  0  0  0  0  0  0  0  0  0  0  0
   -6.9230   16.6290  -33.7600 C   0  0  0  0  0  0  0  0  0  0  0  0
   -5.5810   16.2640  -34.3550 C   0  0  0  0  0  0  0  0  0  0  0  0
   -5.0250   17.4360  -35.0960 C   0  0  0  0  0  0  0  0  0  0  0  0
   -4.9320   18.5510  -34.2860 O   0  0  0  0  0  0  0  0  0  0  0  0
   -0.7495   23.1497  -28.3861 H   0  0  0  0  0  0  0  0  0  0  0  0
    0.0195   22.6788  -29.9397 H   0  0  0  0  0  0  0  0  0  0  0  0
   -1.5895   23.4775  -29.9397 H   0  0  0  0  0  0  0  0  0  0  0  0
   -1.8367   21.0214  -30.3343 H   0  0  0  0  0  0  0  0  0  0  0  0
   -0.9732   20.6569  -28.8303 H   0  0  0  0  0  0  0  0  0  0  0  0
   -2.5494   21.3240  -26.5298 H   0  0  0  0  0  0  0  0  0  0  0  0
   -3.7697   20.2459  -27.2756 H   0  0  0  0  0  0  0  0  0  0  0  0
   -1.3672   19.3271  -26.6681 H   0  0  0  0  0  0  0  0  0  0  0  0
   -2.1579   18.8451  -28.2072 H   0  0  0  0  0  0  0  0  0  0  0  0
   -0.8981   20.1255  -28.2072 H   0  0  0  0  0  0  0  0  0  0  0  0
   -3.1380   23.0145  -27.1778 H   0  0  0  0  0  0  0  0  0  0  0  0
   -2.4848   23.5220  -28.8693 H   0  0  0  0  0  0  0  0  0  0  0  0
   -5.2489   22.6709  -28.5525 H   0  0  0  0  0  0  0  0  0  0  0  0
   -4.6655   24.3482  -28.0312 H   0  0  0  0  0  0  0  0  0  0  0  0
   -1.6471   21.5306  -33.1764 H   0  0  0  0  0  0  0  0  0  0  0  0
   -8.0074   20.3227  -32.1993 H   0  0  0  0  0  0  0  0  0  0  0  0
   -6.8181   19.2037  -34.6425 H   0  0  0  0  0  0  0  0  0  0  0  0
   -6.1129   17.6756  -32.0830 H   0  0  0  0  0  0  0  0  0  0  0  0
   -7.7550   18.2062  -32.5841 H   0  0  0  0  0  0  0  0  0  0  0  0
   -7.2775   15.8094  -33.1176 H   0  0  0  0  0  0  0  0  0  0  0  0
   -7.6543   16.7973  -34.5643 H   0  0  0  0  0  0  0  0  0  0  0  0
   -4.8888   15.9787  -33.5491 H   0  0  0  0  0  0  0  0  0  0  0  0
   -5.7069   15.4198  -35.0489 H   0  0  0  0  0  0  0  0  0  0  0  0
   -4.0219   17.1802  -35.4681 H   0  0  0  0  0  0  0  0  0  0  0  0
   -5.7043   17.6708  -35.9287 H   0  0  0  0  0  0  0  0  0  0  0  0
  1  2  1  0
  2  3  1  0
  3  4  1  0
  4  5  1  0
  3  6  1  0
  6  7  1  0
  7  8  1  0
  8  9  1  1
  8 10  1  0
 10 11  2  0
 11 12  1  0
 12 13  2  0
 13 14  1  0
 14 15  2  0
 15 16  1  0
 16 17  2  0
 17 18  1  0
 18 19  1  0
 19 20  1  0
 20 21  1  0
 21 22  1  0
 22 23  1  0
 23 24  1  0
 15 10  1  0
 24 19  1  0
 18 14  1  0
  1 25  1  0
  1 26  1  0
  1 27  1  0
  2 28  1  0
  2 29  1  0
  4 30  1  0
  4 31  1  0
  5 32  1  0
  5 33  1  0
  5 34  1  0
  6 35  1  0
  6 36  1  0
  7 37  1  0
  7 38  1  0
 12 39  1  0
 17 40  1  0
 19 41  1  6
 20 42  1  0
 20 43  1  0
 21 44  1  0
 21 45  1  0
 22 46  1  0
 22 47  1  0
 23 48  1  0
 23 49  1  0
M  CHG  2   8   1   9  -1
M  END
>  <smiles>  (45) 
CCN(CC)CC[S+]([O-])c1ncnc2c1ncn2C1CCCCO1

>  <score_type>  (45) 
oracle

>  <origin>  (45) 
adg

>  <m_score__min__energy>  (45) 
-8.9600000000000009

>  <m_primary>  (45) 
energy

$$$$
