0:0
     RDKit          3D

 33 33  0  0  0  0  0  0  0  0999 V2000
   -6.3360   25.6480  -29.3500 C   0  0  0  0  0  0  0  0  0  0  0  0
   -5.6070   25.7350  -30.6760 C   0  0  0  0  0  0  0  0  0  0  0  0
   -4.2760   25.3130  -30.5270 O   0  0  0  0  0  0  0  0  0  0  0  0
   -4.1270   24.1530  -31.2020 N   0  0  0  0  0  0  0  0  0  0  0  0
   -4.2340   23.0600  -30.2420 C   0  0  0  0  0  0  0  0  0  0  0  0
   -4.5840   21.7940  -30.9890 C   0  0  0  0  0  0  0  0  0  0  0  0
   -5.3350   22.1220  -32.2840 C   0  0  0  0  0  0  0  0  0  0  0  0
   -6.5910   21.3290  -32.3090 C   0  0  0  0  0  0  0  0  0  0  0  0
   -7.7470   21.9630  -31.9030 C   0  0  0  0  0  0  0  0  0  0  0  0
   -7.7990   23.3710  -31.4520 C   0  0  0  0  0  0  0  0  0  0  0  0
   -8.9460   21.2580  -31.9110 C   0  0  0  0  0  0  0  0  0  0  0  0
   -9.0160   19.9330  -32.3140 C   0  0  0  0  0  0  0  0  0  0  0  0
   -7.8360   19.3350  -32.7130 C   0  0  0  0  0  0  0  0  0  0  0  0
   -6.6230   20.0070  -32.7200 C   0  0  0  0  0  0  0  0  0  0  0  0
   -5.1350   19.2180  -33.2340 Cl  0  0  0  0  0  0  0  0  0  0  0  0
   -5.6114   25.7345  -28.5269 H   0  0  0  0  0  0  0  0  0  0  0  0
   -7.0692   26.4650  -29.2804 H   0  0  0  0  0  0  0  0  0  0  0  0
   -6.8564   24.6814  -29.2804 H   0  0  0  0  0  0  0  0  0  0  0  0
   -6.1121   25.0911  -31.4111 H   0  0  0  0  0  0  0  0  0  0  0  0
   -5.6156   26.7791  -31.0221 H   0  0  0  0  0  0  0  0  0  0  0  0
   -3.1470   24.1880  -31.5920 H   0  0  0  0  0  0  0  0  0  0  0  0
   -3.2741   22.9293  -29.7209 H   0  0  0  0  0  0  0  0  0  0  0  0
   -5.0143   23.2865  -29.5005 H   0  0  0  0  0  0  0  0  0  0  0  0
   -3.6590   21.2519  -31.2349 H   0  0  0  0  0  0  0  0  0  0  0  0
   -5.2307   21.1733  -30.3514 H   0  0  0  0  0  0  0  0  0  0  0  0
   -5.5724   23.1956  -32.3145 H   0  0  0  0  0  0  0  0  0  0  0  0
   -4.7126   21.8733  -33.1562 H   0  0  0  0  0  0  0  0  0  0  0  0
   -7.8002   23.4040  -30.3525 H   0  0  0  0  0  0  0  0  0  0  0  0
   -6.9202   23.9111  -31.8341 H   0  0  0  0  0  0  0  0  0  0  0  0
   -8.7153   23.8448  -31.8341 H   0  0  0  0  0  0  0  0  0  0  0  0
   -9.8662   21.7667  -31.5880 H   0  0  0  0  0  0  0  0  0  0  0  0
   -9.9684   19.3826  -32.3159 H   0  0  0  0  0  0  0  0  0  0  0  0
   -7.8597   18.2844  -33.0379 H   0  0  0  0  0  0  0  0  0  0  0  0
  1  2  1  0
  2  3  1  0
  3  4  1  0
  4  5  1  0
  5  6  1  0
  6  7  1  0
  7  8  1  0
  8  9  2  0
  9 10  1  0
  9 11  1  0
 11 12  2  0
 12 13  1  0
 13 14  2  0
 14 15  1  0
 14  8  1  0
  1 16  1  0
  1 17  1  0
  1 18  1  0
  2 19  1  0
  2 20  1  0
  4 21  1  0
  5 22  1  0
  5 23  1  0
  6 24  1  0
  6 25  1  0
  7 26  1  0
  7 27  1  0
 10 28  1  0
 10 29  1  0
 10 30  1  0
 11 31  1  0
 12 32  1  0
 13 33  1  0
M  END
>  <smiles>  (1) 
CCONCCCc1c(C)cccc1Cl

>  <score_type>  (1) 
oracle

>  <origin>  (1) 
adg

>  <m_score__min__energy>  (1) 
-7.3799999999999999

>  <m_primary>  (1) 
energy

$$$$
1:0
     RDKit          3D

 78 82  0  0  0  0  0  0  0  0999 V2000
   -2.4300   19.0990  -26.6480 C   0  0  0  0  0  0  0  0  0  0  0  0
   -2.8910   20.2930  -27.5010 C   0  0  0  0  0  0  0  0  0  0  0  0
   -1.9660   20.6030  -28.5550 N   0  0  0  0  0  0  0  0  0  0  0  0
   -0.6110   20.2660  -28.2880 C   0  0  0  0  0  0  0  0  0  0  0  0
    0.2130   21.5290  -27.8370 C   0  0  0  0  0  0  0  0  0  0  0  0
   -0.5440   22.7080  -28.3660 N   0  0  0  0  0  0  0  0  0  0  0  0
   -0.5450   23.9520  -27.6210 C   0  0  0  0  0  0  0  0  0  0  0  0
    0.4990   24.3990  -26.9720 C   0  0  0  0  0  0  0  0  0  0  0  0
    1.7730   24.0890  -27.4750 C   0  0  0  0  0  0  0  0  0  0  0  0
    2.8800   24.5780  -26.8950 C   0  0  0  0  0  0  0  0  0  0  0  0
    2.7170   25.3990  -25.7920 C   0  0  0  0  0  0  0  0  0  0  0  0
    1.4900   25.7250  -25.2840 C   0  0  0  0  0  0  0  0  0  0  0  0
    0.3780   25.2230  -25.8820 C   0  0  0  0  0  0  0  0  0  0  0  0
   -0.8690   25.5960  -25.4580 N   0  0  0  0  0  0  0  0  0  0  0  0
   -0.8980   26.4240  -24.2980 C   0  0  0  0  0  0  0  0  0  0  0  0
   -1.9140   25.1390  -26.1450 C   0  0  0  0  0  0  0  0  0  0  0  0
   -3.1800   25.5120  -25.6180 C   0  0  0  0  0  0  0  0  0  0  0  0
   -4.1790   24.9430  -26.3720 C   0  0  0  0  0  0  0  0  0  0  0  0
   -4.0980   24.1830  -27.4080 C   0  0  0  0  0  0  0  0  0  0  0  0
   -2.6190   23.7010  -28.0970 C   0  0  0  0  0  0  0  0  0  0  0  0
   -3.2960   23.0180  -29.0180 N   0  0  0  0  0  0  0  0  0  0  0  0
   -3.6200   23.6240  -30.3370 C   0  0  0  0  0  0  0  0  0  0  0  0
   -5.0800   23.7380  -30.5250 C   0  0  0  0  0  0  0  0  0  0  0  0
   -5.7250   23.5010  -31.8310 C   0  0  0  0  0  0  0  0  0  0  0  0
   -5.9210   22.1410  -32.2410 N   0  0  0  0  0  0  0  0  0  0  0  0
   -4.7940   21.4850  -32.6680 C   0  0  0  0  0  0  0  0  0  0  0  0
   -4.7660   20.1910  -33.1010 C   0  0  0  0  0  0  0  0  0  0  0  0
   -5.9500   19.4460  -33.1250 C   0  0  0  0  0  0  0  0  0  0  0  0
   -5.8520   18.1110  -33.5400 N   0  0  0  0  0  0  0  0  0  0  0  0
   -5.7010   17.7380  -34.9580 C   0  0  0  0  0  0  0  0  0  0  0  0
   -5.9080   17.0440  -32.5320 C   0  0  0  0  0  0  0  0  0  0  0  0
   -7.0760   20.0970  -32.7010 C   0  0  0  0  0  0  0  0  0  0  0  0
   -8.2560   19.3930  -32.7220 C   0  0  0  0  0  0  0  0  0  0  0  0
   -9.4710   19.9690  -32.3190 C   0  0  0  0  0  0  0  0  0  0  0  0
   -9.4250   21.3000  -31.8880 C   0  0  0  0  0  0  0  0  0  0  0  0
   -8.2250   21.9850  -31.8750 C   0  0  0  0  0  0  0  0  0  0  0  0
   -7.0380   21.4270  -32.2680 C   0  0  0  0  0  0  0  0  0  0  0  0
   -1.9660   24.3610  -27.2010 C   0  0  0  0  0  0  0  0  0  0  0  0
   -2.5273   19.3509  -25.5817 H   0  0  0  0  0  0  0  0  0  0  0  0
   -3.0544   18.2226  -26.8762 H   0  0  0  0  0  0  0  0  0  0  0  0
   -1.3787   18.8696  -26.8762 H   0  0  0  0  0  0  0  0  0  0  0  0
   -3.8672   20.0522  -27.9473 H   0  0  0  0  0  0  0  0  0  0  0  0
   -2.9545   21.1712  -26.8417 H   0  0  0  0  0  0  0  0  0  0  0  0
   -2.2690   20.0970  -29.4170 H   0  0  0  0  0  0  0  0  0  0  0  0
   -0.5800   19.5129  -27.4868 H   0  0  0  0  0  0  0  0  0  0  0  0
   -0.1628   19.8699  -29.2112 H   0  0  0  0  0  0  0  0  0  0  0  0
    0.2781   21.5743  -26.7399 H   0  0  0  0  0  0  0  0  0  0  0  0
    1.2447   21.5013  -28.2175 H   0  0  0  0  0  0  0  0  0  0  0  0
   -0.9950   22.4660  -29.2200 H   0  0  0  0  0  0  0  0  0  0  0  0
    1.8647   23.4368  -28.3560 H   0  0  0  0  0  0  0  0  0  0  0  0
    3.8807   24.3354  -27.2819 H   0  0  0  0  0  0  0  0  0  0  0  0
    3.6139   25.8069  -25.3029 H   0  0  0  0  0  0  0  0  0  0  0  0
    1.4047   26.3824  -24.4062 H   0  0  0  0  0  0  0  0  0  0  0  0
   -0.8759   25.7936  -23.3969 H   0  0  0  0  0  0  0  0  0  0  0  0
   -0.0226   27.0901  -24.3010 H   0  0  0  0  0  0  0  0  0  0  0  0
   -1.8178   27.0273  -24.3010 H   0  0  0  0  0  0  0  0  0  0  0  0
   -3.3367   26.1572  -24.7410 H   0  0  0  0  0  0  0  0  0  0  0  0
   -5.2024   25.1717  -26.0398 H   0  0  0  0  0  0  0  0  0  0  0  0
   -5.0308   23.8279  -27.8704 H   0  0  0  0  0  0  0  0  0  0  0  0
   -3.6010   21.9810  -29.0180 H   0  0  0  0  0  0  0  0  0  0  0  0
   -3.1713   24.6268  -30.3916 H   0  0  0  0  0  0  0  0  0  0  0  0
   -3.2153   22.9759  -31.1283 H   0  0  0  0  0  0  0  0  0  0  0  0
   -5.5366   23.0247  -29.8231 H   0  0  0  0  0  0  0  0  0  0  0  0
   -5.2462   24.8156  -30.3797 H   0  0  0  0  0  0  0  0  0  0  0  0
   -6.7144   23.9807  -31.8005 H   0  0  0  0  0  0  0  0  0  0  0  0
   -5.0207   23.9145  -32.5678 H   0  0  0  0  0  0  0  0  0  0  0  0
   -3.8454   22.0418  -32.6608 H   0  0  0  0  0  0  0  0  0  0  0  0
   -3.8192   19.7370  -33.4288 H   0  0  0  0  0  0  0  0  0  0  0  0
   -5.2891   16.7204  -35.0276 H   0  0  0  0  0  0  0  0  0  0  0  0
   -6.6831   17.7706  -35.4523 H   0  0  0  0  0  0  0  0  0  0  0  0
   -5.0181   18.4446  -35.4523 H   0  0  0  0  0  0  0  0  0  0  0  0
   -5.8847   17.4884  -31.5260 H   0  0  0  0  0  0  0  0  0  0  0  0
   -6.8375   16.4694  -32.6576 H   0  0  0  0  0  0  0  0  0  0  0  0
   -5.0437   16.3752  -32.6576 H   0  0  0  0  0  0  0  0  0  0  0  0
   -8.2482   18.3477  -33.0646 H   0  0  0  0  0  0  0  0  0  0  0  0
  -10.4134   19.4020  -32.3408 H   0  0  0  0  0  0  0  0  0  0  0  0
  -10.3467   21.8020  -31.5587 H   0  0  0  0  0  0  0  0  0  0  0  0
   -8.2232   23.0302  -31.5320 H   0  0  0  0  0  0  0  0  0  0  0  0
  1  2  1  0
  2  3  1  0
  3  4  1  0
  4  5  1  0
  5  6  1  0
  6  7  1  0
  7  8  2  0
  8  9  1  0
  9 10  2  0
 10 11  1  0
 11 12  2  0
 12 13  1  0
 13 14  2  0
 14 15  1  0
 14 16  1  0
 16 17  2  0
 17 18  1  0
 18 19  2  0
 19 20  1  0
 20 21  1  0
 21 22  1  0
 22 23  1  0
 23 24  1  0
 24 25  1  0
 25 26  2  0
 26 27  1  0
 27 28  2  0
 28 29  1  0
 29 30  1  0
 29 31  1  0
 28 32  1  0
 32 33  2  0
 33 34  1  0
 34 35  2  0
 35 36  1  0
 36 37  2  0
 20 38  2  0
 38  7  1  0
 13  8  1  0
 38 16  1  0
 37 25  1  0
 37 32  1  0
  1 39  1  0
  1 40  1  0
  1 41  1  0
  2 42  1  0
  2 43  1  0
  3 44  1  0
  4 45  1  0
  4 46  1  0
  5 47  1  0
  5 48  1  0
  6 49  1  0
  9 50  1  0
 10 51  1  0
 11 52  1  0
 12 53  1  0
 15 54  1  0
 15 55  1  0
 15 56  1  0
 17 57  1  0
 18 58  1  0
 19 59  1  0
 21 60  1  0
 22 61  1  0
 22 62  1  0
 23 63  1  0
 23 64  1  0
 24 65  1  0
 24 66  1  0
 26 67  1  0
 27 68  1  0
 30 69  1  0
 30 70  1  0
 30 71  1  0
 31 72  1  0
 31 73  1  0
 31 74  1  0
 33 75  1  0
 34 76  1  0
 35 77  1  0
 36 78  1  0
M  CHG  2  14   1  25   1
M  END
>  <smiles>  (2) 
CCNCCNc1c2ccccc2[n+](C)c2cccc(NCCC[n+]3ccc(N(C)C)c4ccccc43)c12

>  <score_type>  (2) 
oracle

>  <origin>  (2) 
adg

>  <m_score__min__energy>  (2) 
-10.59

>  <m_primary>  (2) 
energy

$$$$
2:0
     RDKit          3D

 53 55  0  0  0  0  0  0  0  0999 V2000
   -3.5660   21.8040  -27.7100 C   0  0  0  0  0  0  0  0  0  0  0  0
   -4.5830   22.8030  -28.2280 C   0  0  0  0  0  0  0  0  0  0  0  0
   -4.3880   23.1660  -29.5630 O   0  0  0  0  0  0  0  0  0  0  0  0
   -5.2030   24.0220  -30.3000 C   0  0  0  0  0  0  0  0  0  0  0  0
   -4.6370   24.9500  -30.9360 O   0  0  0  0  0  0  0  0  0  0  0  0
   -6.6830   23.8680  -30.3450 C   0  0  0  0  0  0  0  0  0  0  0  0
   -7.2010   23.7900  -31.7610 C   0  0  0  0  0  0  0  0  0  0  0  0
   -7.8880   22.5000  -31.9340 C   0  0  0  0  0  0  0  0  0  0  0  0
   -9.2860   22.4080  -31.8200 C   0  0  0  0  0  0  0  0  0  0  0  0
   -9.6910   21.1050  -31.9680 C   0  0  0  0  0  0  0  0  0  0  0  0
   -8.5020   20.3980  -32.1770 C   0  0  0  0  0  0  0  0  0  0  0  0
   -8.3910   19.0420  -32.3800 C   0  0  0  0  0  0  0  0  0  0  0  0
   -7.1480   18.4930  -32.5740 C   0  0  0  0  0  0  0  0  0  0  0  0
   -6.0760   19.3900  -32.5480 C   0  0  0  0  0  0  0  0  0  0  0  0
   -4.8350   18.8070  -32.7650 C   0  0  0  0  0  0  0  0  0  0  0  0
   -3.7510   19.6460  -32.7690 C   0  0  0  0  0  0  0  0  0  0  0  0
   -3.8680   20.9900  -32.5710 C   0  0  0  0  0  0  0  0  0  0  0  0
   -2.6410   21.9050  -32.5930 C   0  0  0  0  0  0  0  0  0  0  0  0
   -2.5530   22.4870  -31.3350 N   0  0  0  0  0  0  0  0  0  0  0  0
   -1.6660   22.1320  -30.3370 C   0  0  0  0  0  0  0  0  0  0  0  0
   -0.8350   23.1370  -29.6280 C   0  0  0  0  0  0  0  0  0  0  0  0
   -1.5710   24.1220  -28.8140 C   0  0  0  0  0  0  0  0  0  0  0  0
   -2.4970   24.9240  -29.6600 N   0  0  0  0  0  0  0  0  0  0  0  0
   -5.1350   21.5470  -32.3530 C   0  0  0  0  0  0  0  0  0  0  0  0
   -6.2460   20.7400  -32.3410 C   0  0  0  0  0  0  0  0  0  0  0  0
   -7.4690   21.2550  -32.1510 N   0  0  0  0  0  0  0  0  0  0  0  0
   -3.5728   21.8107  -26.6100 H   0  0  0  0  0  0  0  0  0  0  0  0
   -3.8232   20.7977  -28.0721 H   0  0  0  0  0  0  0  0  0  0  0  0
   -2.5644   22.0791  -28.0721 H   0  0  0  0  0  0  0  0  0  0  0  0
   -5.5849   22.3592  -28.1322 H   0  0  0  0  0  0  0  0  0  0  0  0
   -4.4682   23.7174  -27.6275 H   0  0  0  0  0  0  0  0  0  0  0  0
   -6.9603   22.9453  -29.8141 H   0  0  0  0  0  0  0  0  0  0  0  0
   -7.1311   24.7519  -29.8676 H   0  0  0  0  0  0  0  0  0  0  0  0
   -7.9062   24.6140  -31.9445 H   0  0  0  0  0  0  0  0  0  0  0  0
   -6.3671   23.8726  -32.4736 H   0  0  0  0  0  0  0  0  0  0  0  0
   -9.9592   23.2587  -31.6382 H   0  0  0  0  0  0  0  0  0  0  0  0
  -10.7160   20.7075  -31.9308 H   0  0  0  0  0  0  0  0  0  0  0  0
   -9.2878   18.4051  -32.3868 H   0  0  0  0  0  0  0  0  0  0  0  0
   -7.0044   17.4150  -32.7395 H   0  0  0  0  0  0  0  0  0  0  0  0
   -4.7268   17.7242  -32.9259 H   0  0  0  0  0  0  0  0  0  0  0  0
   -2.7511   19.2198  -32.9380 H   0  0  0  0  0  0  0  0  0  0  0  0
   -1.7346   21.3183  -32.8033 H   0  0  0  0  0  0  0  0  0  0  0  0
   -2.7333   22.6709  -33.3771 H   0  0  0  0  0  0  0  0  0  0  0  0
   -3.1290   23.3400  -31.1900 H   0  0  0  0  0  0  0  0  0  0  0  0
   -2.2604   21.6234  -29.5637 H   0  0  0  0  0  0  0  0  0  0  0  0
   -0.9098   21.5591  -30.8937 H   0  0  0  0  0  0  0  0  0  0  0  0
   -0.1469   22.5960  -28.9618 H   0  0  0  0  0  0  0  0  0  0  0  0
   -0.3328   23.7175  -30.4159 H   0  0  0  0  0  0  0  0  0  0  0  0
   -2.1530   23.5916  -28.0459 H   0  0  0  0  0  0  0  0  0  0  0  0
   -0.8454   24.8024  -28.3444 H   0  0  0  0  0  0  0  0  0  0  0  0
   -2.7660   24.3340  -30.4930 H   0  0  0  0  0  0  0  0  0  0  0  0
   -3.3810   25.0290  -29.1140 H   0  0  0  0  0  0  0  0  0  0  0  0
   -5.2397   22.6300  -32.1916 H   0  0  0  0  0  0  0  0  0  0  0  0
  1  2  1  0
  2  3  1  0
  3  4  1  0
  4  5  2  0
  4  6  1  0
  6  7  1  0
  7  8  1  0
  8  9  2  0
  9 10  1  0
 10 11  2  0
 11 12  1  0
 12 13  2  0
 13 14  1  0
 14 15  2  0
 15 16  1  0
 16 17  2  0
 17 18  1  0
 18 19  1  0
 19 20  1  0
 20 21  1  0
 21 22  1  0
 22 23  1  0
 17 24  1  0
 24 25  2  0
 25 26  1  0
 26  8  1  0
 26 11  1  0
 25 14  1  0
  1 27  1  0
  1 28  1  0
  1 29  1  0
  2 30  1  0
  2 31  1  0
  6 32  1  0
  6 33  1  0
  7 34  1  0
  7 35  1  0
  9 36  1  0
 10 37  1  0
 12 38  1  0
 13 39  1  0
 15 40  1  0
 16 41  1  0
 18 42  1  0
 18 43  1  0
 19 44  1  0
 20 45  1  0
 20 46  1  0
 21 47  1  0
 21 48  1  0
 22 49  1  0
 22 50  1  0
 23 51  1  0
 23 52  1  0
 24 53  1  0
M  END
>  <smiles>  (3) 
CCOC(=O)CCc1ccc2ccc3ccc(CNCCCN)cc3n12

>  <score_type>  (3) 
oracle

>  <origin>  (3) 
adg

>  <m_score__min__energy>  (3) 
-8.0399999999999991

>  <m_primary>  (3) 
energy

$$$$
3:0
     RDKit          3D

 46 48  0  0  1  0  0  0  0  0999 V2000
   -2.5040   24.9090  -26.9430 C   0  0  0  0  0  0  0  0  0  0  0  0
   -1.5220   25.4770  -27.9330 C   0  0  0  0  0  0  0  0  0  0  0  0
   -1.9580   25.2940  -29.2380 O   0  0  0  0  0  0  0  0  0  0  0  0
   -2.4060   23.9860  -29.3900 C   0  0  0  0  0  0  0  0  0  0  0  0
   -3.6910   23.9970  -30.2230 C   0  0  0  0  0  0  0  0  0  0  0  0
   -4.0090   25.2660  -30.6410 O   0  0  0  0  0  0  0  0  0  0  0  0
   -5.3250   25.6360  -30.4580 C   0  0  0  0  0  0  0  0  0  0  0  0
   -6.1420   24.5000  -29.9520 C   0  0  0  0  0  0  0  0  0  0  0  0
   -7.2370   24.1700  -30.8860 N   0  0  0  0  0  0  0  0  0  0  0  0
   -7.3690   22.8360  -31.2720 C   0  0  0  0  0  0  0  0  0  0  0  0
   -6.8680   22.0150  -32.0420 N   0  0  0  0  0  0  0  0  0  0  0  0
   -7.2120   20.7740  -32.1970 C   0  0  0  0  0  0  0  0  0  0  0  0
   -6.6720   19.8040  -33.0580 C   0  0  0  0  0  0  0  0  0  0  0  0
   -5.6920   20.0820  -33.8530 N   0  0  0  0  0  0  0  0  0  0  0  0
   -4.3820   20.2670  -33.3250 C   0  0  0  0  0  0  0  0  0  0  0  0
   -3.4870   19.2670  -33.1050 C   0  0  0  0  0  0  0  0  0  0  0  0
   -2.2290   19.5810  -32.5810 C   0  0  0  0  0  0  0  0  0  0  0  0
   -1.8850   20.8920  -32.2820 C   0  0  0  0  0  0  0  0  0  0  0  0
   -0.6600   21.2120  -31.7700 F   0  0  0  0  0  0  0  0  0  0  0  0
   -2.7840   21.8970  -32.5020 C   0  0  0  0  0  0  0  0  0  0  0  0
   -4.0270   21.5880  -33.0210 C   0  0  0  0  0  0  0  0  0  0  0  0
   -7.1800   18.5740  -33.0600 N   0  0  0  0  0  0  0  0  0  0  0  0
   -8.1990   18.1410  -32.2900 C   0  0  0  0  0  0  0  0  0  0  0  0
   -8.7290   19.0660  -31.4530 N   0  0  0  0  0  0  0  0  0  0  0  0
   -8.2540   20.3390  -31.4080 C   0  0  0  0  0  0  0  0  0  0  0  0
   -8.6940   21.7320  -30.4760 S   0  0  0  0  0  0  0  0  0  0  0  0
   -2.1529   25.1121  -25.9205 H   0  0  0  0  0  0  0  0  0  0  0  0
   -3.4880   25.3774  -27.0926 H   0  0  0  0  0  0  0  0  0  0  0  0
   -2.5886   23.8225  -27.0926 H   0  0  0  0  0  0  0  0  0  0  0  0
   -1.4036   26.5539  -27.7425 H   0  0  0  0  0  0  0  0  0  0  0  0
   -0.5630   24.9522  -27.8107 H   0  0  0  0  0  0  0  0  0  0  0  0
   -1.6377   23.3896  -29.9038 H   0  0  0  0  0  0  0  0  0  0  0  0
   -2.6046   23.5424  -28.4032 H   0  0  0  0  0  0  0  0  0  0  0  0
   -3.5507   23.3548  -31.1050 H   0  0  0  0  0  0  0  0  0  0  0  0
   -4.5131   23.6246  -29.5942 H   0  0  0  0  0  0  0  0  0  0  0  0
   -5.3675   26.4597  -29.7302 H   0  0  0  0  0  0  0  0  0  0  0  0
   -5.7344   25.9520  -31.4288 H   0  0  0  0  0  0  0  0  0  0  0  0
   -5.4950   23.6185  -29.8323 H   0  0  0  0  0  0  0  0  0  0  0  0
   -6.5837   24.7918  -28.9878 H   0  0  0  0  0  0  0  0  0  0  0  0
   -7.8900   24.8970  -31.2490 H   0  0  0  0  0  0  0  0  0  0  0  0
   -3.7493   18.2241  -33.3363 H   0  0  0  0  0  0  0  0  0  0  0  0
   -1.5006   18.7762  -32.4030 H   0  0  0  0  0  0  0  0  0  0  0  0
   -2.5216   22.9395  -32.2688 H   0  0  0  0  0  0  0  0  0  0  0  0
   -4.7524   22.3955  -33.1991 H   0  0  0  0  0  0  0  0  0  0  0  0
   -8.5742   17.1081  -32.3379 H   0  0  0  0  0  0  0  0  0  0  0  0
   -9.5240   18.8350  -30.8130 H   0  0  0  0  0  0  0  0  0  0  0  0
  1  2  1  0
  2  3  1  0
  3  4  1  0
  4  5  1  0
  5  6  1  0
  6  7  1  0
  7  8  1  0
  8  9  1  0
  9 10  1  0
 10 11  2  0
 11 12  1  0
 12 13  1  0
 13 14  2  0
 14 15  1  0
 15 16  2  0
 16 17  1  0
 17 18  2  0
 18 19  1  0
 18 20  1  0
 20 21  2  0
 13 22  1  0
 22 23  2  0
 23 24  1  0
 24 25  1  0
 25 26  1  0
 26 10  1  0
 25 12  2  0
 21 15  1  0
  1 27  1  0
  1 28  1  0
  1 29  1  0
  2 30  1  0
  2 31  1  0
  4 32  1  0
  4 33  1  0
  5 34  1  0
  5 35  1  0
  7 36  1  0
  7 37  1  0
  8 38  1  0
  8 39  1  0
  9 40  1  0
 16 41  1  0
 17 42  1  0
 20 43  1  0
 21 44  1  0
 23 45  1  0
 24 46  1  0
M  END
>  <smiles>  (4) 
CCOCCOCCNc1nc2c(=Nc3ccc(F)cc3)nc[nH]c2s1

>  <score_type>  (4) 
oracle

>  <origin>  (4) 
adg

>  <m_score__min__energy>  (4) 
-7.8399999999999999

>  <m_primary>  (4) 
energy

$$$$
4:0
     RDKit          3D

 50 52  0  0  1  0  0  0  0  0999 V2000
   -3.5600   18.9550  -33.4430 C   0  0  0  0  0  0  0  0  0  0  0  0
   -4.1630   18.1720  -34.5580 C   0  0  0  0  0  0  0  0  0  0  0  0
   -5.4290   17.6780  -34.3210 O   0  0  0  0  0  0  0  0  0  0  0  0
   -5.5480   16.8270  -33.2530 C   0  0  0  0  0  0  0  0  0  0  0  0
   -7.0130   17.0520  -32.7400 C   0  0  0  0  0  0  0  0  0  0  0  0
   -6.9300   17.9120  -31.7130 O   0  0  0  0  0  0  0  0  0  0  0  0
   -6.4140   19.1320  -31.8590 C   0  0  0  0  0  0  0  0  0  0  0  0
   -6.8860   20.0790  -32.9000 C   0  0  1  0  0  0  0  0  0  0  0  0
   -8.4000   20.0060  -33.0630 C   0  0  0  0  0  0  0  0  0  0  0  0
   -9.1140   20.2140  -31.7590 C   0  0  0  0  0  0  0  0  0  0  0  0
   -8.7050   21.5090  -31.1100 C   0  0  0  0  0  0  0  0  0  0  0  0
   -7.8120   22.3030  -32.0260 C   0  0  0  0  0  0  0  0  0  0  0  0
   -6.6860   21.4840  -32.3970 N   0  0  0  0  0  0  0  0  0  0  0  0
   -5.3380   21.9340  -32.3170 C   0  0  0  0  0  0  0  0  0  0  0  0
   -4.5640   21.9750  -33.3080 O   0  0  0  0  0  0  0  0  0  0  0  0
   -4.8500   22.3650  -31.0110 C   0  0  0  0  0  0  0  0  0  0  0  0
   -3.9640   21.5470  -30.3480 C   0  0  0  0  0  0  0  0  0  0  0  0
   -3.5090   21.9730  -29.1060 C   0  0  0  0  0  0  0  0  0  0  0  0
   -3.9170   23.1670  -28.5420 C   0  0  0  0  0  0  0  0  0  0  0  0
   -4.8080   23.9680  -29.2330 C   0  0  0  0  0  0  0  0  0  0  0  0
   -5.3680   25.1530  -28.9420 N   0  0  0  0  0  0  0  0  0  0  0  0
   -6.1890   25.5410  -29.9510 C   0  0  0  0  0  0  0  0  0  0  0  0
   -6.1450   24.5550  -30.9240 C   0  0  0  0  0  0  0  0  0  0  0  0
   -5.2810   23.5730  -30.4720 C   0  0  0  0  0  0  0  0  0  0  0  0
   -3.8852   18.5328  -32.4807 H   0  0  0  0  0  0  0  0  0  0  0  0
   -2.4632   18.9071  -33.5126 H   0  0  0  0  0  0  0  0  0  0  0  0
   -3.8864   20.0031  -33.5126 H   0  0  0  0  0  0  0  0  0  0  0  0
   -4.2142   18.8251  -35.4416 H   0  0  0  0  0  0  0  0  0  0  0  0
   -3.5164   17.2924  -34.6930 H   0  0  0  0  0  0  0  0  0  0  0  0
   -5.4014   15.7833  -33.5681 H   0  0  0  0  0  0  0  0  0  0  0  0
   -4.7955   17.0215  -32.4746 H   0  0  0  0  0  0  0  0  0  0  0  0
   -7.6352   17.4765  -33.5416 H   0  0  0  0  0  0  0  0  0  0  0  0
   -7.4749   16.1037  -32.4280 H   0  0  0  0  0  0  0  0  0  0  0  0
   -6.5577   19.6417  -30.8949 H   0  0  0  0  0  0  0  0  0  0  0  0
   -5.3951   18.9054  -32.2061 H   0  0  0  0  0  0  0  0  0  0  0  0
   -6.3453   19.8325  -33.8257 H   0  0  0  0  0  0  0  0  0  0  0  0
   -8.7194   20.7845  -33.7715 H   0  0  0  0  0  0  0  0  0  0  0  0
   -8.6549   19.0027  -33.4350 H   0  0  0  0  0  0  0  0  0  0  0  0
  -10.1982   20.2328  -31.9436 H   0  0  0  0  0  0  0  0  0  0  0  0
   -8.8477   19.3883  -31.0827 H   0  0  0  0  0  0  0  0  0  0  0  0
   -9.6050   22.0990  -30.8820 H   0  0  0  0  0  0  0  0  0  0  0  0
   -8.1532   21.2832  -30.1856 H   0  0  0  0  0  0  0  0  0  0  0  0
   -8.3712   22.5939  -32.9275 H   0  0  0  0  0  0  0  0  0  0  0  0
   -7.4623   23.2115  -31.5138 H   0  0  0  0  0  0  0  0  0  0  0  0
   -3.6293   20.5940  -30.7837 H   0  0  0  0  0  0  0  0  0  0  0  0
   -2.8004   21.3387  -28.5532 H   0  0  0  0  0  0  0  0  0  0  0  0
   -3.5381   23.4761  -27.5567 H   0  0  0  0  0  0  0  0  0  0  0  0
   -5.1700   25.6630  -28.0550 H   0  0  0  0  0  0  0  0  0  0  0  0
   -6.7805   26.4676  -29.9893 H   0  0  0  0  0  0  0  0  0  0  0  0
   -6.6941   24.5533  -31.8772 H   0  0  0  0  0  0  0  0  0  0  0  0
  1  2  1  0
  2  3  1  0
  3  4  1  0
  4  5  1  0
  5  6  1  0
  6  7  1  0
  7  8  1  0
  8  9  1  0
  9 10  1  0
 10 11  1  0
 11 12  1  0
 12 13  1  0
 13 14  1  0
 14 15  2  0
 14 16  1  0
 16 17  2  0
 17 18  1  0
 18 19  2  0
 19 20  1  0
 20 21  1  0
 21 22  1  0
 22 23  2  0
 23 24  1  0
 13  8  1  0
 24 16  1  0
 24 20  2  0
  1 25  1  0
  1 26  1  0
  1 27  1  0
  2 28  1  0
  2 29  1  0
  4 30  1  0
  4 31  1  0
  5 32  1  0
  5 33  1  0
  7 34  1  0
  7 35  1  0
  8 36  1  6
  9 37  1  0
  9 38  1  0
 10 39  1  0
 10 40  1  0
 11 41  1  0
 11 42  1  0
 12 43  1  0
 12 44  1  0
 17 45  1  0
 18 46  1  0
 19 47  1  0
 21 48  1  0
 22 49  1  0
 23 50  1  0
M  END
>  <smiles>  (5) 
CCOCCOCC1CCCCN1C(=O)c1cccc2[nH]ccc12

>  <score_type>  (5) 
oracle

>  <origin>  (5) 
adg

>  <m_score__min__energy>  (5) 
-7.9100000000000001

>  <m_primary>  (5) 
energy

$$$$
5:0
     RDKit          3D

 50 52  0  0  0  0  0  0  0  0999 V2000
   -5.6850   25.7530  -30.1280 C   0  0  0  0  0  0  0  0  0  0  0  0
   -5.0700   24.9220  -31.0870 O   0  0  0  0  0  0  0  0  0  0  0  0
   -5.5750   23.7210  -31.5070 C   0  0  0  0  0  0  0  0  0  0  0  0
   -6.8710   23.3230  -31.3770 C   0  0  0  0  0  0  0  0  0  0  0  0
   -7.3030   22.0850  -31.8310 C   0  0  0  0  0  0  0  0  0  0  0  0
   -6.4490   21.1880  -32.4400 C   0  0  0  0  0  0  0  0  0  0  0  0
   -5.1310   21.5960  -32.5710 C   0  0  0  0  0  0  0  0  0  0  0  0
   -4.6930   22.8350  -32.1170 C   0  0  0  0  0  0  0  0  0  0  0  0
   -4.1970   20.7700  -33.1600 C   0  0  0  0  0  0  0  0  0  0  0  0
   -2.8530   21.2110  -33.2820 N   0  0  0  0  0  0  0  0  0  0  0  0
   -1.9910   21.2570  -32.0770 C   0  0  0  0  0  0  0  0  0  0  0  0
   -0.7180   20.5880  -32.4250 C   0  0  0  0  0  0  0  0  0  0  0  0
    0.1540   21.1850  -33.4500 C   0  0  0  0  0  0  0  0  0  0  0  0
   -0.3940   21.2440  -34.7740 N   0  0  0  0  0  0  0  0  0  0  0  0
   -0.1250   19.9190  -35.4280 C   0  0  0  0  0  0  0  0  0  0  0  0
    0.2900   22.2140  -35.6430 C   0  0  0  0  0  0  0  0  0  0  0  0
   -4.6430   19.5430  -33.6000 C   0  0  0  0  0  0  0  0  0  0  0  0
   -3.6970   18.7170  -34.1840 C   0  0  0  0  0  0  0  0  0  0  0  0
   -4.0580   17.4690  -34.6450 C   0  0  0  0  0  0  0  0  0  0  0  0
   -5.3670   17.0770  -34.5090 C   0  0  0  0  0  0  0  0  0  0  0  0
   -6.3080   17.9180  -33.9180 C   0  0  0  0  0  0  0  0  0  0  0  0
   -5.9660   19.1780  -33.4480 C   0  0  0  0  0  0  0  0  0  0  0  0
   -6.8880   19.9860  -32.8710 N   0  0  0  0  0  0  0  0  0  0  0  0
   -8.2710   19.5860  -32.7420 C   0  0  0  0  0  0  0  0  0  0  0  0
   -5.4253   25.4021  -29.1183 H   0  0  0  0  0  0  0  0  0  0  0  0
   -5.3328   26.7868  -30.2588 H   0  0  0  0  0  0  0  0  0  0  0  0
   -6.7766   25.7183  -30.2588 H   0  0  0  0  0  0  0  0  0  0  0  0
   -7.5941   24.0007  -30.8996 H   0  0  0  0  0  0  0  0  0  0  0  0
   -8.3601   21.8097  -31.7014 H   0  0  0  0  0  0  0  0  0  0  0  0
   -3.6373   23.1178  -32.2416 H   0  0  0  0  0  0  0  0  0  0  0  0
   -2.4950   21.4950  -34.2180 H   0  0  0  0  0  0  0  0  0  0  0  0
   -1.8015   22.3015  -31.7886 H   0  0  0  0  0  0  0  0  0  0  0  0
   -2.4779   20.7537  -31.2287 H   0  0  0  0  0  0  0  0  0  0  0  0
   -0.1268   20.5223  -31.4997 H   0  0  0  0  0  0  0  0  0  0  0  0
   -1.0387   19.6381  -32.8776 H   0  0  0  0  0  0  0  0  0  0  0  0
    0.3907   22.2123  -33.1359 H   0  0  0  0  0  0  0  0  0  0  0  0
    1.0323   20.5262  -33.5177 H   0  0  0  0  0  0  0  0  0  0  0  0
    0.0305   19.1530  -34.6541 H   0  0  0  0  0  0  0  0  0  0  0  0
   -0.9844   19.6381  -36.0545 H   0  0  0  0  0  0  0  0  0  0  0  0
    0.7759   19.9955  -36.0545 H   0  0  0  0  0  0  0  0  0  0  0  0
    0.8136   22.9565  -35.0228 H   0  0  0  0  0  0  0  0  0  0  0  0
    1.0180   21.6878  -36.2780 H   0  0  0  0  0  0  0  0  0  0  0  0
   -0.4500   22.7230  -36.2780 H   0  0  0  0  0  0  0  0  0  0  0  0
   -2.6555   19.0575  -34.2802 H   0  0  0  0  0  0  0  0  0  0  0  0
   -3.3158   16.8036  -35.1103 H   0  0  0  0  0  0  0  0  0  0  0  0
   -5.6770   16.0858  -34.8714 H   0  0  0  0  0  0  0  0  0  0  0  0
   -7.3484   17.5742  -33.8216 H   0  0  0  0  0  0  0  0  0  0  0  0
   -8.5329   19.5102  -31.6763 H   0  0  0  0  0  0  0  0  0  0  0  0
   -8.9158   20.3345  -33.2258 H   0  0  0  0  0  0  0  0  0  0  0  0
   -8.4167   18.6089  -33.2258 H   0  0  0  0  0  0  0  0  0  0  0  0
  1  2  1  0
  2  3  1  0
  3  4  2  0
  4  5  1  0
  5  6  2  0
  6  7  1  0
  7  8  2  0
  7  9  1  0
  9 10  1  0
 10 11  1  0
 11 12  1  0
 12 13  1  0
 13 14  1  0
 14 15  1  0
 14 16  1  0
  9 17  2  0
 17 18  1  0
 18 19  2  0
 19 20  1  0
 20 21  2  0
 21 22  1  0
 22 23  2  0
 23 24  1  0
  8  3  1  0
 22 17  1  0
 23  6  1  0
  1 25  1  0
  1 26  1  0
  1 27  1  0
  4 28  1  0
  5 29  1  0
  8 30  1  0
 10 31  1  0
 11 32  1  0
 11 33  1  0
 12 34  1  0
 12 35  1  0
 13 36  1  0
 13 37  1  0
 15 38  1  0
 15 39  1  0
 15 40  1  0
 16 41  1  0
 16 42  1  0
 16 43  1  0
 18 44  1  0
 19 45  1  0
 20 46  1  0
 21 47  1  0
 24 48  1  0
 24 49  1  0
 24 50  1  0
M  CHG  1  23   1
M  END
>  <smiles>  (6) 
COc1ccc2c(c1)c(NCCCN(C)C)c1ccccc1[n+]2C

>  <score_type>  (6) 
oracle

>  <origin>  (6) 
adg

>  <m_score__min__energy>  (6) 
-8.3499999999999996

>  <m_primary>  (6) 
energy

$$$$
6:0
     RDKit          3D

 75 74  0  0  1  0  0  0  0  0999 V2000
   -9.4480   21.5720  -31.4900 C   0  0  0  0  0  0  0  0  0  0  0  0
   -8.3670   20.9380  -32.3330 C   0  0  0  0  0  0  0  0  0  0  0  0
   -8.9100   19.7200  -32.9200 N   0  0  0  0  0  0  0  0  0  0  0  0
   -8.7040   18.5840  -32.0820 C   0  0  0  0  0  0  0  0  0  0  0  0
   -7.2710   18.1730  -31.9610 C   0  0  0  0  0  0  0  0  0  0  0  0
   -6.7480   17.7990  -33.3600 C   0  0  0  0  0  0  0  0  0  0  0  0
   -6.4540   19.0160  -34.0130 N   0  0  0  0  0  0  0  0  0  0  0  0
   -5.3150   19.7620  -33.6450 C   0  0  0  0  0  0  0  0  0  0  0  0
   -4.2060   18.9980  -32.9730 C   0  0  0  0  0  0  0  0  0  0  0  0
   -3.1040   18.7580  -33.8300 N   0  0  0  0  0  0  0  0  0  0  0  0
   -3.1570   17.4220  -34.4700 C   0  0  0  0  0  0  0  0  0  0  0  0
   -1.8060   17.0460  -34.9620 C   0  0  0  0  0  0  0  0  0  0  0  0
   -0.7960   17.9700  -34.8220 N   0  0  0  0  0  0  0  0  0  0  0  0
    0.2050   18.1780  -35.7130 C   0  0  0  0  0  0  0  0  0  0  0  0
    1.6490   17.8570  -35.4670 C   0  0  0  0  0  0  0  0  0  0  0  0
    1.7880   18.1680  -33.9210 C   0  0  0  0  0  0  0  0  0  0  0  0
    1.1390   19.4170  -33.7270 N   0  0  0  0  0  0  0  0  0  0  0  0
    1.6970   20.6090  -34.1650 C   0  0  0  0  0  0  0  0  0  0  0  0
    0.9320   21.1710  -35.4040 C   0  0  0  0  0  0  0  0  0  0  0  0
   -0.4730   21.1770  -34.9870 C   0  0  0  0  0  0  0  0  0  0  0  0
   -1.0040   20.7500  -33.7960 N   0  0  0  0  0  0  0  0  0  0  0  0
   -1.8880   21.4880  -33.0120 C   0  0  0  0  0  0  0  0  0  0  0  0
   -1.6640   21.3820  -31.5490 C   0  0  0  0  0  0  0  0  0  0  0  0
   -0.8760   20.1180  -31.2300 C   0  0  0  0  0  0  0  0  0  0  0  0
   -1.3370   19.0760  -31.8110 N   0  0  0  0  0  0  0  0  0  0  0  0
   -0.5280   18.1020  -32.2980 O   0  0  0  0  0  0  0  0  0  0  0  0
   -0.1140   17.0140  -31.4810 C   0  0  0  0  0  0  0  0  0  0  0  0
   -0.2640   15.7070  -32.2070 C   0  0  0  0  0  0  0  0  0  0  0  0
   -9.2111   21.4331  -30.4248 H   0  0  0  0  0  0  0  0  0  0  0  0
   -9.5057   22.6471  -31.7156 H   0  0  0  0  0  0  0  0  0  0  0  0
  -10.4145   21.0976  -31.7156 H   0  0  0  0  0  0  0  0  0  0  0  0
   -8.0599   21.6316  -33.1296 H   0  0  0  0  0  0  0  0  0  0  0  0
   -7.4876   20.7051  -31.7147 H   0  0  0  0  0  0  0  0  0  0  0  0
   -8.5280   19.6580  -33.8640 H   0  0  0  0  0  0  0  0  0  0  0  0
   -9.0823   18.8217  -31.0768 H   0  0  0  0  0  0  0  0  0  0  0  0
   -9.2396   17.7429  -32.5464 H   0  0  0  0  0  0  0  0  0  0  0  0
   -6.6793   19.0066  -31.5547 H   0  0  0  0  0  0  0  0  0  0  0  0
   -7.1831   17.3107  -31.2838 H   0  0  0  0  0  0  0  0  0  0  0  0
   -5.8402   17.1836  -33.2750 H   0  0  0  0  0  0  0  0  0  0  0  0
   -7.4918   17.2143  -33.9212 H   0  0  0  0  0  0  0  0  0  0  0  0
   -7.2710   19.5660  -34.3340 H   0  0  0  0  0  0  0  0  0  0  0  0
   -4.9032   20.2171  -34.5578 H   0  0  0  0  0  0  0  0  0  0  0  0
   -5.6681   20.4861  -32.8960 H   0  0  0  0  0  0  0  0  0  0  0  0
   -3.8564   19.5770  -32.1055 H   0  0  0  0  0  0  0  0  0  0  0  0
   -4.6120   18.0199  -32.6756 H   0  0  0  0  0  0  0  0  0  0  0  0
   -2.1820   18.9450  -33.4290 H   0  0  0  0  0  0  0  0  0  0  0  0
   -3.4981   16.6781  -33.7349 H   0  0  0  0  0  0  0  0  0  0  0  0
   -3.8570   17.4528  -35.3180 H   0  0  0  0  0  0  0  0  0  0  0  0
   -1.4994   16.1390  -34.4204 H   0  0  0  0  0  0  0  0  0  0  0  0
   -1.9278   16.9286  -36.0489 H   0  0  0  0  0  0  0  0  0  0  0  0
   -0.8090   18.5240  -33.9320 H   0  0  0  0  0  0  0  0  0  0  0  0
   -0.0752   17.6056  -36.6096 H   0  0  0  0  0  0  0  0  0  0  0  0
    0.2421   19.2773  -35.7204 H   0  0  0  0  0  0  0  0  0  0  0  0
    1.8678   16.8012  -35.6849 H   0  0  0  0  0  0  0  0  0  0  0  0
    2.3467   18.4238  -36.1010 H   0  0  0  0  0  0  0  0  0  0  0  0
    1.2986   17.3835  -33.3252 H   0  0  0  0  0  0  0  0  0  0  0  0
    2.8407   18.2006  -33.6035 H   0  0  0  0  0  0  0  0  0  0  0  0
    0.1370   19.3760  -33.4680 H   0  0  0  0  0  0  0  0  0  0  0  0
    1.6512   21.3469  -33.3505 H   0  0  0  0  0  0  0  0  0  0  0  0
    2.7398   20.4175  -34.4580 H   0  0  0  0  0  0  0  0  0  0  0  0
    1.2722   22.1893  -35.6435 H   0  0  0  0  0  0  0  0  0  0  0  0
    1.0998   20.5709  -36.3105 H   0  0  0  0  0  0  0  0  0  0  0  0
   -0.7826   22.2294  -35.0680 H   0  0  0  0  0  0  0  0  0  0  0  0
   -0.8403   20.3653  -35.6321 H   0  0  0  0  0  0  0  0  0  0  0  0
   -1.1180   19.7420  -33.6770 H   0  0  0  0  0  0  0  0  0  0  0  0
   -1.7946   22.5466  -33.2961 H   0  0  0  0  0  0  0  0  0  0  0  0
   -2.8888   21.0727  -33.2016 H   0  0  0  0  0  0  0  0  0  0  0  0
   -1.0989   22.2600  -31.2030 H   0  0  0  0  0  0  0  0  0  0  0  0
   -2.6372   21.3379  -31.0382 H   0  0  0  0  0  0  0  0  0  0  0  0
    0.0013   20.1029  -30.5666 H   0  0  0  0  0  0  0  0  0  0  0  0
    0.9417   17.1529  -31.2050 H   0  0  0  0  0  0  0  0  0  0  0  0
   -0.7477   16.9901  -30.5822 H   0  0  0  0  0  0  0  0  0  0  0  0
   -0.3577   14.8903  -31.4762 H   0  0  0  0  0  0  0  0  0  0  0  0
   -1.1643   15.7394  -32.8382 H   0  0  0  0  0  0  0  0  0  0  0  0
    0.6203   15.5346  -32.8382 H   0  0  0  0  0  0  0  0  0  0  0  0
  1  2  1  0
  2  3  1  0
  3  4  1  0
  4  5  1  0
  5  6  1  0
  6  7  1  0
  7  8  1  0
  8  9  1  0
  9 10  1  0
 10 11  1  0
 11 12  1  0
 12 13  1  0
 13 14  1  0
 14 15  1  0
 15 16  1  0
 16 17  1  0
 17 18  1  0
 18 19  1  0
 19 20  1  0
 20 21  1  0
 21 22  1  0
 22 23  1  0
 23 24  1  0
 24 25  2  0
 25 26  1  0
 26 27  1  0
 27 28  1  0
  1 29  1  0
  1 30  1  0
  1 31  1  0
  2 32  1  0
  2 33  1  0
  3 34  1  0
  4 35  1  0
  4 36  1  0
  5 37  1  0
  5 38  1  0
  6 39  1  0
  6 40  1  0
  7 41  1  0
  8 42  1  0
  8 43  1  0
  9 44  1  0
  9 45  1  0
 10 46  1  0
 11 47  1  0
 11 48  1  0
 12 49  1  0
 12 50  1  0
 13 51  1  0
 14 52  1  0
 14 53  1  0
 15 54  1  0
 15 55  1  0
 16 56  1  0
 16 57  1  0
 17 58  1  0
 18 59  1  0
 18 60  1  0
 19 61  1  0
 19 62  1  0
 20 63  1  0
 20 64  1  0
 21 65  1  0
 22 66  1  0
 22 67  1  0
 23 68  1  0
 23 69  1  0
 24 70  1  0
 27 71  1  0
 27 72  1  0
 28 73  1  0
 28 74  1  0
 28 75  1  0
M  END
>  <smiles>  (7) 
CCNCCCNCCNCCNCCCNCCCNCCC=NOCC

>  <score_type>  (7) 
oracle

>  <origin>  (7) 
adg

>  <m_score__min__energy>  (7) 
-4.0199999999999996

>  <m_primary>  (7) 
energy

$$$$
7:0
     RDKit          3D

 42 45  0  0  0  0  0  0  0  0999 V2000
   -6.1030   18.9220  -34.9860 C   0  0  0  0  0  0  0  0  0  0  0  0
   -6.0820   18.3950  -33.6480 N   0  0  0  0  0  0  0  0  0  0  0  0
   -5.1810   17.4970  -33.1320 C   0  0  0  0  0  0  0  0  0  0  0  0
   -3.8360   16.8220  -34.0640 S   0  0  0  0  0  0  0  0  0  0  0  0
   -2.2610   17.3520  -33.3910 C   0  0  0  0  0  0  0  0  0  0  0  0
   -2.3060   18.8480  -33.2170 C   0  0  0  0  0  0  0  0  0  0  0  0
   -1.5680   19.6240  -33.8540 O   0  0  0  0  0  0  0  0  0  0  0  0
   -3.2410   19.3500  -32.2880 N   0  0  0  0  0  0  0  0  0  0  0  0
   -3.5010   20.6840  -31.9660 C   0  0  0  0  0  0  0  0  0  0  0  0
   -2.5120   21.4030  -31.2820 C   0  0  0  0  0  0  0  0  0  0  0  0
   -2.6880   22.7040  -30.8820 C   0  0  0  0  0  0  0  0  0  0  0  0
   -3.8520   23.3690  -31.1390 C   0  0  0  0  0  0  0  0  0  0  0  0
   -4.8560   22.6980  -31.8110 C   0  0  0  0  0  0  0  0  0  0  0  0
   -4.6620   21.3730  -32.2120 C   0  0  0  0  0  0  0  0  0  0  0  0
   -6.0220   23.3840  -32.0530 O   0  0  0  0  0  0  0  0  0  0  0  0
   -6.4690   24.4310  -31.2470 C   0  0  0  0  0  0  0  0  0  0  0  0
   -5.4200   25.0250  -30.3380 C   0  0  0  0  0  0  0  0  0  0  0  0
   -4.1100   24.6840  -30.7680 O   0  0  0  0  0  0  0  0  0  0  0  0
   -5.5400   17.2870  -31.8530 N   0  0  0  0  0  0  0  0  0  0  0  0
   -6.6040   18.0180  -31.5920 N   0  0  0  0  0  0  0  0  0  0  0  0
   -6.9770   18.7320  -32.7000 C   0  0  0  0  0  0  0  0  0  0  0  0
   -8.1170   19.6600  -32.7270 C   0  0  0  0  0  0  0  0  0  0  0  0
   -9.0780   19.7120  -31.5780 C   0  0  0  0  0  0  0  0  0  0  0  0
   -8.2170   20.9020  -31.9970 C   0  0  0  0  0  0  0  0  0  0  0  0
   -6.1468   20.0204  -34.9468 H   0  0  0  0  0  0  0  0  0  0  0  0
   -5.1917   18.6101  -35.5173 H   0  0  0  0  0  0  0  0  0  0  0  0
   -6.9866   18.5386  -35.5173 H   0  0  0  0  0  0  0  0  0  0  0  0
   -2.0896   16.8684  -32.4180 H   0  0  0  0  0  0  0  0  0  0  0  0
   -1.4425   17.0718  -34.0704 H   0  0  0  0  0  0  0  0  0  0  0  0
   -3.8210   18.6140  -31.7760 H   0  0  0  0  0  0  0  0  0  0  0  0
   -1.5572   20.9054  -31.0568 H   0  0  0  0  0  0  0  0  0  0  0  0
   -1.8777   23.2193  -30.3455 H   0  0  0  0  0  0  0  0  0  0  0  0
   -5.4748   20.8607  -32.7477 H   0  0  0  0  0  0  0  0  0  0  0  0
   -6.8456   25.2301  -31.9024 H   0  0  0  0  0  0  0  0  0  0  0  0
   -7.2424   24.0065  -30.5900 H   0  0  0  0  0  0  0  0  0  0  0  0
   -5.5236   26.1201  -30.3392 H   0  0  0  0  0  0  0  0  0  0  0  0
   -5.5690   24.6206  -29.3260 H   0  0  0  0  0  0  0  0  0  0  0  0
   -8.1712   19.4402  -33.8034 H   0  0  0  0  0  0  0  0  0  0  0  0
  -10.1632   19.7175  -31.7578 H   0  0  0  0  0  0  0  0  0  0  0  0
   -9.2453   19.1377  -30.6549 H   0  0  0  0  0  0  0  0  0  0  0  0
   -8.6851   21.7790  -32.4679 H   0  0  0  0  0  0  0  0  0  0  0  0
   -7.4996   21.5585  -31.4829 H   0  0  0  0  0  0  0  0  0  0  0  0
  1  2  1  0
  2  3  1  0
  3  4  1  0
  4  5  1  0
  5  6  1  0
  6  7  2  0
  6  8  1  0
  8  9  1  0
  9 10  2  0
 10 11  1  0
 11 12  2  0
 12 13  1  0
 13 14  2  0
 13 15  1  0
 15 16  1  0
 16 17  1  0
 17 18  1  0
  3 19  2  0
 19 20  1  0
 20 21  2  0
 21 22  1  0
 22 23  1  0
 23 24  1  0
 21  2  1  0
 24 22  1  0
 14  9  1  0
 18 12  1  0
  1 25  1  0
  1 26  1  0
  1 27  1  0
  5 28  1  0
  5 29  1  0
  8 30  1  0
 10 31  1  0
 11 32  1  0
 14 33  1  0
 16 34  1  0
 16 35  1  0
 17 36  1  0
 17 37  1  0
 22 38  1  0
 23 39  1  0
 23 40  1  0
 24 41  1  0
 24 42  1  0
M  END
>  <smiles>  (8) 
Cn1c(SCC(=O)Nc2ccc3c(c2)OCCO3)nnc1C1CC1

>  <score_type>  (8) 
oracle

>  <origin>  (8) 
adg

>  <m_score__min__energy>  (8) 
-8.5800000000000001

>  <m_primary>  (8) 
energy

$$$$
9:0
     RDKit          3D

 86 90  0  0  0  0  0  0  0  0999 V2000
   -2.4820   19.6170  -26.8150 C   0  0  0  0  0  0  0  0  0  0  0  0
   -3.0710   20.7760  -27.5900 C   0  0  0  0  0  0  0  0  0  0  0  0
   -2.5940   20.7150  -28.9540 N   0  0  0  0  0  0  0  0  0  0  0  0
   -1.2780   20.1060  -28.9360 C   0  0  0  0  0  0  0  0  0  0  0  0
   -0.4770   20.4090  -30.1910 C   0  0  0  0  0  0  0  0  0  0  0  0
   -0.9800   21.5890  -30.7230 O   0  0  0  0  0  0  0  0  0  0  0  0
   -1.1940   21.5380  -32.0700 C   0  0  0  0  0  0  0  0  0  0  0  0
   -2.5930   21.3500  -32.5280 C   0  0  0  0  0  0  0  0  0  0  0  0
   -3.4900   20.5850  -31.7400 N   0  0  0  0  0  0  0  0  0  0  0  0
   -4.8880   20.4910  -31.9070 C   0  0  0  0  0  0  0  0  0  0  0  0
   -5.5630   19.4190  -32.4280 C   0  0  0  0  0  0  0  0  0  0  0  0
   -4.8840   18.3350  -32.9180 C   0  0  0  0  0  0  0  0  0  0  0  0
   -5.4790   17.2270  -33.4700 C   0  0  0  0  0  0  0  0  0  0  0  0
   -6.8630   17.1730  -33.5510 C   0  0  0  0  0  0  0  0  0  0  0  0
   -7.5850   18.2560  -33.0640 C   0  0  0  0  0  0  0  0  0  0  0  0
   -6.9540   19.3640  -32.5120 C   0  0  0  0  0  0  0  0  0  0  0  0
   -7.6960   20.3740  -32.0820 N   0  0  0  0  0  0  0  0  0  0  0  0
   -9.1430   20.2840  -32.1830 C   0  0  0  0  0  0  0  0  0  0  0  0
   -7.0820   21.4530  -31.5630 C   0  0  0  0  0  0  0  0  0  0  0  0
   -7.6580   22.5740  -31.0860 N   0  0  0  0  0  0  0  0  0  0  0  0
   -6.6770   23.3950  -30.6770 C   0  0  0  0  0  0  0  0  0  0  0  0
   -6.7600   24.6480  -30.1240 C   0  0  0  0  0  0  0  0  0  0  0  0
   -5.5720   25.2800  -29.7970 C   0  0  0  0  0  0  0  0  0  0  0  0
   -4.3350   24.7280  -29.9920 C   0  0  0  0  0  0  0  0  0  0  0  0
   -3.1280   25.2810  -29.7020 O   0  0  0  0  0  0  0  0  0  0  0  0
   -2.0470   24.8220  -28.9630 C   0  0  0  0  0  0  0  0  0  0  0  0
   -2.3540   24.2240  -27.6290 C   0  0  0  0  0  0  0  0  0  0  0  0
   -1.4870   24.6650  -26.5580 N   0  0  0  0  0  0  0  0  0  0  0  0
   -0.8740   23.5430  -25.8680 C   0  0  0  0  0  0  0  0  0  0  0  0
   -2.2740   25.3730  -25.5760 C   0  0  0  0  0  0  0  0  0  0  0  0
   -1.7570   26.7930  -25.3580 C   0  0  0  0  0  0  0  0  0  0  0  0
   -0.3920   26.8060  -24.9120 N   0  0  0  0  0  0  0  0  0  0  0  0
    0.0940   28.1820  -25.0360 C   0  0  0  0  0  0  0  0  0  0  0  0
   -0.3180   26.4720  -23.4980 C   0  0  0  0  0  0  0  0  0  0  0  0
    0.3700   25.9130  -25.7480 C   0  0  0  0  0  0  0  0  0  0  0  0
   -0.4030   25.5140  -26.9920 C   0  0  0  0  0  0  0  0  0  0  0  0
   -4.3200   23.4460  -30.5600 C   0  0  0  0  0  0  0  0  0  0  0  0
   -5.4660   22.7770  -30.9010 C   0  0  0  0  0  0  0  0  0  0  0  0
   -5.6970   21.5480  -31.4610 C   0  0  0  0  0  0  0  0  0  0  0  0
   -2.5799   19.8096  -25.7364 H   0  0  0  0  0  0  0  0  0  0  0  0
   -3.0197   18.6926  -27.0727 H   0  0  0  0  0  0  0  0  0  0  0  0
   -1.4183   19.5064  -27.0727 H   0  0  0  0  0  0  0  0  0  0  0  0
   -4.1689   20.7083  -27.5789 H   0  0  0  0  0  0  0  0  0  0  0  0
   -2.7657   21.7272  -27.1295 H   0  0  0  0  0  0  0  0  0  0  0  0
   -2.6030   21.6060  -29.4580 H   0  0  0  0  0  0  0  0  0  0  0  0
   -0.7253   20.4871  -28.0647 H   0  0  0  0  0  0  0  0  0  0  0  0
   -1.4159   19.0159  -28.8838 H   0  0  0  0  0  0  0  0  0  0  0  0
    0.5866   20.5323  -29.9389 H   0  0  0  0  0  0  0  0  0  0  0  0
   -0.5606   19.5863  -30.9163 H   0  0  0  0  0  0  0  0  0  0  0  0
   -0.8296   22.4831  -32.4989 H   0  0  0  0  0  0  0  0  0  0  0  0
   -0.6617   20.6366  -32.4076 H   0  0  0  0  0  0  0  0  0  0  0  0
   -3.0332   22.3528  -32.6309 H   0  0  0  0  0  0  0  0  0  0  0  0
   -2.4856   20.7552  -33.4471 H   0  0  0  0  0  0  0  0  0  0  0  0
   -3.0950   20.0120  -30.9280 H   0  0  0  0  0  0  0  0  0  0  0  0
   -3.7854   18.3531  -32.8658 H   0  0  0  0  0  0  0  0  0  0  0  0
   -4.8662   16.3932  -33.8431 H   0  0  0  0  0  0  0  0  0  0  0  0
   -7.3725   16.3009  -33.9867 H   0  0  0  0  0  0  0  0  0  0  0  0
   -8.6835   18.2355  -33.1169 H   0  0  0  0  0  0  0  0  0  0  0  0
   -9.5800   20.2568  -31.1739 H   0  0  0  0  0  0  0  0  0  0  0  0
   -9.5279   21.1599  -32.7258 H   0  0  0  0  0  0  0  0  0  0  0  0
   -9.4164   19.3671  -32.7258 H   0  0  0  0  0  0  0  0  0  0  0  0
   -8.6870   22.7810  -31.0360 H   0  0  0  0  0  0  0  0  0  0  0  0
   -7.7321   25.1315  -29.9473 H   0  0  0  0  0  0  0  0  0  0  0  0
   -5.6258   26.2855  -29.3542 H   0  0  0  0  0  0  0  0  0  0  0  0
   -1.5345   24.0552  -29.5624 H   0  0  0  0  0  0  0  0  0  0  0  0
   -1.4425   25.7155  -28.7480 H   0  0  0  0  0  0  0  0  0  0  0  0
   -3.3884   24.4884  -27.3642 H   0  0  0  0  0  0  0  0  0  0  0  0
   -2.1985   23.1397  -27.7299 H   0  0  0  0  0  0  0  0  0  0  0  0
   -0.9554   23.6921  -24.7812 H   0  0  0  0  0  0  0  0  0  0  0  0
   -1.3894   22.6131  -26.1502 H   0  0  0  0  0  0  0  0  0  0  0  0
    0.1870   23.4743  -26.1502 H   0  0  0  0  0  0  0  0  0  0  0  0
   -3.3168   25.4222  -25.9225 H   0  0  0  0  0  0  0  0  0  0  0  0
   -2.2019   24.8306  -24.6217 H   0  0  0  0  0  0  0  0  0  0  0  0
   -1.8259   27.3456  -26.3066 H   0  0  0  0  0  0  0  0  0  0  0  0
   -2.3738   27.2631  -24.5779 H   0  0  0  0  0  0  0  0  0  0  0  0
    0.2449   28.6093  -24.0337 H   0  0  0  0  0  0  0  0  0  0  0  0
    1.0479   28.1860  -25.5837 H   0  0  0  0  0  0  0  0  0  0  0  0
   -0.6458   28.7842  -25.5837 H   0  0  0  0  0  0  0  0  0  0  0  0
   -0.5174   27.3720  -22.8977 H   0  0  0  0  0  0  0  0  0  0  0  0
   -1.0672   25.7015  -23.2635 H   0  0  0  0  0  0  0  0  0  0  0  0
    0.6866   26.0900  -23.2635 H   0  0  0  0  0  0  0  0  0  0  0  0
    1.3002   26.4155  -26.0519 H   0  0  0  0  0  0  0  0  0  0  0  0
    0.5854   25.0019  -25.1705 H   0  0  0  0  0  0  0  0  0  0  0  0
   -0.8007   26.4087  -27.4934 H   0  0  0  0  0  0  0  0  0  0  0  0
    0.2465   24.9884  -27.7074 H   0  0  0  0  0  0  0  0  0  0  0  0
   -3.3503   22.9584  -30.7388 H   0  0  0  0  0  0  0  0  0  0  0  0
  1  2  1  0
  2  3  1  0
  3  4  1  0
  4  5  1  0
  5  6  1  0
  6  7  1  0
  7  8  1  0
  8  9  1  0
  9 10  1  0
 10 11  2  0
 11 12  1  0
 12 13  2  0
 13 14  1  0
 14 15  2  0
 15 16  1  0
 16 17  2  0
 17 18  1  0
 17 19  1  0
 19 20  1  0
 20 21  1  0
 21 22  2  0
 22 23  1  0
 23 24  2  0
 24 25  1  0
 25 26  1  0
 26 27  1  0
 27 28  1  0
 28 29  1  0
 28 30  1  0
 30 31  1  0
 31 32  1  0
 32 33  1  0
 32 34  1  0
 32 35  1  0
 35 36  1  0
 24 37  1  0
 37 38  2  0
 38 39  1  0
 39 10  1  0
 16 11  1  0
 39 19  2  0
 38 21  1  0
 36 28  1  0
  1 40  1  0
  1 41  1  0
  1 42  1  0
  2 43  1  0
  2 44  1  0
  3 45  1  0
  4 46  1  0
  4 47  1  0
  5 48  1  0
  5 49  1  0
  7 50  1  0
  7 51  1  0
  8 52  1  0
  8 53  1  0
  9 54  1  0
 12 55  1  0
 13 56  1  0
 14 57  1  0
 15 58  1  0
 18 59  1  0
 18 60  1  0
 18 61  1  0
 20 62  1  0
 22 63  1  0
 23 64  1  0
 26 65  1  0
 26 66  1  0
 27 67  1  0
 27 68  1  0
 29 69  1  0
 29 70  1  0
 29 71  1  0
 30 72  1  0
 30 73  1  0
 31 74  1  0
 31 75  1  0
 33 76  1  0
 33 77  1  0
 33 78  1  0
 34 79  1  0
 34 80  1  0
 34 81  1  0
 35 82  1  0
 35 83  1  0
 36 84  1  0
 36 85  1  0
 37 86  1  0
M  CHG  3  17   1  28   1  32   1
M  END
>  <smiles>  (9) 
CCNCCOCCNc1c2ccccc2[n+](C)c2[nH]c3ccc(OCC[N+]4(C)CC[N+](C)(C)CC4)cc3c12

>  <score_type>  (9) 
oracle

>  <origin>  (9) 
adg

>  <m_score__min__energy>  (9) 
-9.3499999999999996

>  <m_primary>  (9) 
energy

$$$$
10:0
     RDKit          3D

 45 47  0  0  1  0  0  0  0  0999 V2000
   -2.2100   21.5420  -28.0000 C   0  0  0  0  0  0  0  0  0  0  0  0
   -3.5690   22.1350  -28.3600 C   0  0  0  0  0  0  0  0  0  0  0  0
   -3.4850   23.4650  -28.9040 N   0  0  0  0  0  0  0  0  0  0  0  0
   -3.1890   24.5310  -27.9180 C   0  0  0  0  0  0  0  0  0  0  0  0
   -4.1570   24.5490  -26.7870 C   0  0  0  0  0  0  0  0  0  0  0  0
   -3.6510   23.8490  -30.2500 C   0  0  0  0  0  0  0  0  0  0  0  0
   -3.5290   25.1250  -30.4680 O   0  0  0  0  0  0  0  0  0  0  0  0
   -3.9330   23.0290  -31.4110 C   0  0  1  0  0  0  0  0  0  0  0  0
   -2.9570   21.9200  -31.6550 C   0  0  0  0  0  0  0  0  0  0  0  0
   -3.2580   21.3710  -33.0610 C   0  0  0  0  0  0  0  0  0  0  0  0
   -4.5120   20.5350  -32.8930 C   0  0  0  0  0  0  0  0  0  0  0  0
   -5.5900   21.3200  -32.2490 C   0  0  0  0  0  0  0  0  0  0  0  0
   -5.2960   22.5040  -31.5600 C   0  0  0  0  0  0  0  0  0  0  0  0
   -6.4890   22.9690  -31.1320 N   0  0  0  0  0  0  0  0  0  0  0  0
   -6.8060   24.1700  -30.3850 C   0  0  0  0  0  0  0  0  0  0  0  0
   -7.4880   22.1230  -31.5270 C   0  0  0  0  0  0  0  0  0  0  0  0
   -8.8660   22.1300  -31.3550 C   0  0  0  0  0  0  0  0  0  0  0  0
   -9.6480   21.1220  -31.8750 C   0  0  0  0  0  0  0  0  0  0  0  0
   -9.1000   20.0790  -32.5780 C   0  0  0  0  0  0  0  0  0  0  0  0
   -9.8490   19.0770  -33.0990 F   0  0  0  0  0  0  0  0  0  0  0  0
   -7.7210   20.0760  -32.7490 C   0  0  0  0  0  0  0  0  0  0  0  0
   -6.9470   21.0910  -32.2230 C   0  0  0  0  0  0  0  0  0  0  0  0
   -2.1077   21.4974  -26.9057 H   0  0  0  0  0  0  0  0  0  0  0  0
   -2.1305   20.5274  -28.4174 H   0  0  0  0  0  0  0  0  0  0  0  0
   -1.4121   22.1738  -28.4174 H   0  0  0  0  0  0  0  0  0  0  0  0
   -4.0479   21.4828  -29.1052 H   0  0  0  0  0  0  0  0  0  0  0  0
   -4.1522   22.2003  -27.4296 H   0  0  0  0  0  0  0  0  0  0  0  0
   -2.1788   24.3673  -27.5146 H   0  0  0  0  0  0  0  0  0  0  0  0
   -3.2662   25.4971  -28.4383 H   0  0  0  0  0  0  0  0  0  0  0  0
   -3.6077   24.5388  -25.8340 H   0  0  0  0  0  0  0  0  0  0  0  0
   -4.7726   25.4587  -26.8457 H   0  0  0  0  0  0  0  0  0  0  0  0
   -4.8060   23.6628  -26.8457 H   0  0  0  0  0  0  0  0  0  0  0  0
   -3.8145   23.7991  -32.1875 H   0  0  0  0  0  0  0  0  0  0  0  0
   -1.9272   22.3039  -31.6099 H   0  0  0  0  0  0  0  0  0  0  0  0
   -3.0524   21.1326  -30.8928 H   0  0  0  0  0  0  0  0  0  0  0  0
   -3.4338   22.1946  -33.7686 H   0  0  0  0  0  0  0  0  0  0  0  0
   -2.4199   20.7840  -33.4646 H   0  0  0  0  0  0  0  0  0  0  0  0
   -4.8546   20.1973  -33.8822 H   0  0  0  0  0  0  0  0  0  0  0  0
   -4.2754   19.6726  -32.2524 H   0  0  0  0  0  0  0  0  0  0  0  0
   -6.7498   23.9570  -29.3073 H   0  0  0  0  0  0  0  0  0  0  0  0
   -6.0860   24.9614  -30.6404 H   0  0  0  0  0  0  0  0  0  0  0  0
   -7.8228   24.5030  -30.6404 H   0  0  0  0  0  0  0  0  0  0  0  0
   -9.3392   22.9510  -30.7964 H   0  0  0  0  0  0  0  0  0  0  0  0
  -10.7370   21.1541  -31.7230 H   0  0  0  0  0  0  0  0  0  0  0  0
   -7.2423   19.2584  -33.3079 H   0  0  0  0  0  0  0  0  0  0  0  0
  1  2  1  0
  2  3  1  0
  3  4  1  0
  4  5  1  0
  3  6  1  0
  6  7  2  0
  6  8  1  0
  8  9  1  0
  9 10  1  0
 10 11  1  0
 11 12  1  0
 12 13  2  0
 13 14  1  0
 14 15  1  0
 14 16  1  0
 16 17  2  0
 17 18  1  0
 18 19  2  0
 19 20  1  0
 19 21  1  0
 21 22  2  0
 13  8  1  0
 22 16  1  0
 22 12  1  0
  1 23  1  0
  1 24  1  0
  1 25  1  0
  2 26  1  0
  2 27  1  0
  4 28  1  0
  4 29  1  0
  5 30  1  0
  5 31  1  0
  5 32  1  0
  8 33  1  6
  9 34  1  0
  9 35  1  0
 10 36  1  0
 10 37  1  0
 11 38  1  0
 11 39  1  0
 15 40  1  0
 15 41  1  0
 15 42  1  0
 17 43  1  0
 18 44  1  0
 21 45  1  0
M  END
>  <smiles>  (10) 
CCN(CC)C(=O)C1CCCc2c1n(C)c1ccc(F)cc21

>  <score_type>  (10) 
oracle

>  <origin>  (10) 
adg

>  <m_score__min__energy>  (10) 
-8.5800000000000001

>  <m_primary>  (10) 
energy

$$$$
11:0
     RDKit          3D

 57 59  0  0  0  0  0  0  0  0999 V2000
   -6.1280   25.2650  -29.7510 C   0  0  0  0  0  0  0  0  0  0  0  0
   -5.0970   25.2820  -30.8420 C   0  0  0  0  0  0  0  0  0  0  0  0
   -3.8310   24.9130  -30.4390 O   0  0  0  0  0  0  0  0  0  0  0  0
   -3.7440   24.4820  -29.1310 C   0  0  0  0  0  0  0  0  0  0  0  0
   -3.0570   23.1360  -29.0140 C   0  0  0  0  0  0  0  0  0  0  0  0
   -2.1010   22.9120  -30.0530 N   0  0  0  0  0  0  0  0  0  0  0  0
   -2.1560   21.6290  -30.6820 C   0  0  0  0  0  0  0  0  0  0  0  0
   -2.4750   21.6790  -32.1610 C   0  0  0  0  0  0  0  0  0  0  0  0
   -3.8250   22.2210  -32.4180 C   0  0  0  0  0  0  0  0  0  0  0  0
   -4.6260   21.5780  -33.4010 N   0  0  0  0  0  0  0  0  0  0  0  0
   -5.7180   20.7780  -33.0000 C   0  0  0  0  0  0  0  0  0  0  0  0
   -5.5910   19.3990  -33.2200 C   0  0  0  0  0  0  0  0  0  0  0  0
   -6.6230   18.5660  -32.8440 C   0  0  0  0  0  0  0  0  0  0  0  0
   -7.7530   19.0630  -32.2670 N   0  0  0  0  0  0  0  0  0  0  0  0
   -8.8520   18.2140  -31.8600 C   0  0  0  0  0  0  0  0  0  0  0  0
   -7.8860   20.3830  -32.0520 C   0  0  0  0  0  0  0  0  0  0  0  0
   -9.0430   20.8880  -31.4750 C   0  0  0  0  0  0  0  0  0  0  0  0
   -9.1910   22.2400  -31.2590 C   0  0  0  0  0  0  0  0  0  0  0  0
   -8.1680   23.1000  -31.6290 C   0  0  0  0  0  0  0  0  0  0  0  0
   -7.0210   22.5930  -32.2030 C   0  0  0  0  0  0  0  0  0  0  0  0
   -6.8680   21.2510  -32.4180 C   0  0  0  0  0  0  0  0  0  0  0  0
   -6.5930   17.0920  -33.0340 C   0  0  0  0  0  0  0  0  0  0  0  0
   -5.3290   16.5930  -33.6530 C   0  0  0  0  0  0  0  0  0  0  0  0
   -4.7080   17.6040  -34.5950 C   0  0  0  0  0  0  0  0  0  0  0  0
   -4.3420   18.8730  -33.8620 C   0  0  0  0  0  0  0  0  0  0  0  0
   -5.6262   25.2733  -28.7722 H   0  0  0  0  0  0  0  0  0  0  0  0
   -6.7714   26.1527  -29.8407 H   0  0  0  0  0  0  0  0  0  0  0  0
   -6.7418   24.3566  -29.8407 H   0  0  0  0  0  0  0  0  0  0  0  0
   -5.4216   24.5889  -31.6321 H   0  0  0  0  0  0  0  0  0  0  0  0
   -5.0239   26.3240  -31.1868 H   0  0  0  0  0  0  0  0  0  0  0  0
   -3.1728   25.2224  -28.5517 H   0  0  0  0  0  0  0  0  0  0  0  0
   -4.7677   24.3724  -28.7437 H   0  0  0  0  0  0  0  0  0  0  0  0
   -2.5403   23.0878  -28.0441 H   0  0  0  0  0  0  0  0  0  0  0  0
   -3.8310   22.3593  -29.1018 H   0  0  0  0  0  0  0  0  0  0  0  0
   -2.0570   23.6610  -30.7510 H   0  0  0  0  0  0  0  0  0  0  0  0
   -1.1787   21.1402  -30.5557 H   0  0  0  0  0  0  0  0  0  0  0  0
   -2.9741   21.0740  -30.1996 H   0  0  0  0  0  0  0  0  0  0  0  0
   -1.7340   22.3188  -32.6627 H   0  0  0  0  0  0  0  0  0  0  0  0
   -2.4418   20.6509  -32.5507 H   0  0  0  0  0  0  0  0  0  0  0  0
   -4.3790   22.1830  -31.4685 H   0  0  0  0  0  0  0  0  0  0  0  0
   -3.6445   23.2267  -32.8253 H   0  0  0  0  0  0  0  0  0  0  0  0
   -4.4650   21.6520  -34.4490 H   0  0  0  0  0  0  0  0  0  0  0  0
   -8.8996   18.1772  -30.7616 H   0  0  0  0  0  0  0  0  0  0  0  0
   -9.7949   18.6205  -32.2545 H   0  0  0  0  0  0  0  0  0  0  0  0
   -8.6968   17.1990  -32.2545 H   0  0  0  0  0  0  0  0  0  0  0  0
   -9.8514   20.2000  -31.1868 H   0  0  0  0  0  0  0  0  0  0  0  0
  -10.1095   22.6330  -30.7986 H   0  0  0  0  0  0  0  0  0  0  0  0
   -8.2710   24.1829  -31.4652 H   0  0  0  0  0  0  0  0  0  0  0  0
   -6.2136   23.2813  -32.4935 H   0  0  0  0  0  0  0  0  0  0  0  0
   -6.7114   16.6125  -32.0511 H   0  0  0  0  0  0  0  0  0  0  0  0
   -7.4111   16.8398  -33.7248 H   0  0  0  0  0  0  0  0  0  0  0  0
   -4.6090   16.3674  -32.8526 H   0  0  0  0  0  0  0  0  0  0  0  0
   -5.5747   15.6954  -34.2395 H   0  0  0  0  0  0  0  0  0  0  0  0
   -3.8000   17.1709  -35.0399 H   0  0  0  0  0  0  0  0  0  0  0  0
   -5.4407   17.8501  -35.3776 H   0  0  0  0  0  0  0  0  0  0  0  0
   -3.5862   18.6575  -33.0923 H   0  0  0  0  0  0  0  0  0  0  0  0
   -3.9220   19.6146  -34.5574 H   0  0  0  0  0  0  0  0  0  0  0  0
  1  2  1  0
  2  3  1  0
  3  4  1  0
  4  5  1  0
  5  6  1  0
  6  7  1  0
  7  8  1  0
  8  9  1  0
  9 10  1  0
 10 11  1  0
 11 12  2  0
 12 13  1  0
 13 14  2  0
 14 15  1  0
 14 16  1  0
 16 17  2  0
 17 18  1  0
 18 19  2  0
 19 20  1  0
 20 21  2  0
 13 22  1  0
 22 23  1  0
 23 24  1  0
 24 25  1  0
 21 11  1  0
 25 12  1  0
 21 16  1  0
  1 26  1  0
  1 27  1  0
  1 28  1  0
  2 29  1  0
  2 30  1  0
  4 31  1  0
  4 32  1  0
  5 33  1  0
  5 34  1  0
  6 35  1  0
  7 36  1  0
  7 37  1  0
  8 38  1  0
  8 39  1  0
  9 40  1  0
  9 41  1  0
 10 42  1  0
 15 43  1  0
 15 44  1  0
 15 45  1  0
 17 46  1  0
 18 47  1  0
 19 48  1  0
 20 49  1  0
 22 50  1  0
 22 51  1  0
 23 52  1  0
 23 53  1  0
 24 54  1  0
 24 55  1  0
 25 56  1  0
 25 57  1  0
M  CHG  1  14   1
M  END
>  <smiles>  (11) 
CCOCCNCCCNc1c2c([n+](C)c3ccccc13)CCCC2

>  <score_type>  (11) 
oracle

>  <origin>  (11) 
adg

>  <m_score__min__energy>  (11) 
-9.0999999999999996

>  <m_primary>  (11) 
energy

$$$$
12:0
     RDKit          3D

 70 73  0  0  0  0  0  0  0  0999 V2000
   -6.4560   24.6640  -30.0340 C   0  0  0  0  0  0  0  0  0  0  0  0
   -5.6550   25.7590  -30.7100 C   0  0  0  0  0  0  0  0  0  0  0  0
   -4.2200   25.5310  -30.4770 N   0  0  0  0  0  0  0  0  0  0  0  0
   -4.0910   24.4270  -29.5440 C   0  0  0  0  0  0  0  0  0  0  0  0
   -2.9550   23.4980  -29.9480 C   0  0  0  0  0  0  0  0  0  0  0  0
   -3.1500   22.9800  -31.3560 C   0  0  0  0  0  0  0  0  0  0  0  0
   -4.4940   22.2910  -31.4560 C   0  0  0  0  0  0  0  0  0  0  0  0
   -4.7130   21.8780  -32.8680 N   0  0  0  0  0  0  0  0  0  0  0  0
   -5.1580   20.5540  -33.0370 C   0  0  0  0  0  0  0  0  0  0  0  0
   -6.5040   20.3410  -32.7040 C   0  0  0  0  0  0  0  0  0  0  0  0
   -7.2820   21.4200  -32.2890 C   0  0  0  0  0  0  0  0  0  0  0  0
   -8.6080   21.3100  -31.9460 C   0  0  0  0  0  0  0  0  0  0  0  0
   -9.1830   20.0680  -32.0210 C   0  0  0  0  0  0  0  0  0  0  0  0
   -8.4150   18.9770  -32.4350 C   0  0  0  0  0  0  0  0  0  0  0  0
   -7.1010   19.1090  -32.7710 C   0  0  0  0  0  0  0  0  0  0  0  0
   -6.3560   18.0680  -33.1740 N   0  0  0  0  0  0  0  0  0  0  0  0
   -6.8790   16.7390  -33.2700 C   0  0  0  0  0  0  0  0  0  0  0  0
   -5.0530   18.2480  -33.5040 C   0  0  0  0  0  0  0  0  0  0  0  0
   -4.3480   17.1380  -33.9140 C   0  0  0  0  0  0  0  0  0  0  0  0
   -3.0250   17.2670  -34.2630 C   0  0  0  0  0  0  0  0  0  0  0  0
   -2.4320   18.5100  -34.1980 C   0  0  0  0  0  0  0  0  0  0  0  0
   -3.1030   19.6560  -33.7930 C   0  0  0  0  0  0  0  0  0  0  0  0
   -2.4110   20.8780  -33.8000 N   0  0  0  0  0  0  0  0  0  0  0  0
   -1.0060   20.8960  -33.3240 C   0  0  0  0  0  0  0  0  0  0  0  0
   -0.9440   20.9770  -31.8390 C   0  0  0  0  0  0  0  0  0  0  0  0
   -0.4190   19.7070  -31.2100 C   0  0  0  0  0  0  0  0  0  0  0  0
   -0.8230   19.6660  -29.8200 N   0  0  0  0  0  0  0  0  0  0  0  0
   -1.8060   20.4590  -29.3370 C   0  0  0  0  0  0  0  0  0  0  0  0
   -2.1750   20.4040  -28.0090 C   0  0  0  0  0  0  0  0  0  0  0  0
   -1.5370   19.5220  -27.1380 C   0  0  0  0  0  0  0  0  0  0  0  0
   -0.5290   18.7100  -27.6420 C   0  0  0  0  0  0  0  0  0  0  0  0
   -0.2150   18.8220  -28.9780 C   0  0  0  0  0  0  0  0  0  0  0  0
   -4.4260   19.4830  -33.4460 C   0  0  0  0  0  0  0  0  0  0  0  0
   -6.3767   24.7724  -28.9422 H   0  0  0  0  0  0  0  0  0  0  0  0
   -7.5112   24.7427  -30.3346 H   0  0  0  0  0  0  0  0  0  0  0  0
   -6.0614   23.6822  -30.3346 H   0  0  0  0  0  0  0  0  0  0  0  0
   -5.8575   25.7474  -31.7911 H   0  0  0  0  0  0  0  0  0  0  0  0
   -5.9438   26.7354  -30.2937 H   0  0  0  0  0  0  0  0  0  0  0  0
   -3.8950   26.4160  -30.0320 H   0  0  0  0  0  0  0  0  0  0  0  0
   -3.8879   24.8272  -28.5397 H   0  0  0  0  0  0  0  0  0  0  0  0
   -5.0298   23.8537  -29.5492 H   0  0  0  0  0  0  0  0  0  0  0  0
   -2.0045   24.0492  -29.8963 H   0  0  0  0  0  0  0  0  0  0  0  0
   -2.9426   22.6408  -29.2588 H   0  0  0  0  0  0  0  0  0  0  0  0
   -3.1148   23.8206  -32.0646 H   0  0  0  0  0  0  0  0  0  0  0  0
   -2.3509   22.2640  -31.5983 H   0  0  0  0  0  0  0  0  0  0  0  0
   -4.5051   21.4045  -30.8049 H   0  0  0  0  0  0  0  0  0  0  0  0
   -5.2923   22.9776  -31.1377 H   0  0  0  0  0  0  0  0  0  0  0  0
   -4.5710   22.5670  -33.6530 H   0  0  0  0  0  0  0  0  0  0  0  0
   -6.8098   22.4119  -32.2331 H   0  0  0  0  0  0  0  0  0  0  0  0
   -9.1874   22.1874  -31.6227 H   0  0  0  0  0  0  0  0  0  0  0  0
  -10.2421   19.9313  -31.7570 H   0  0  0  0  0  0  0  0  0  0  0  0
   -8.8841   17.9836  -32.4913 H   0  0  0  0  0  0  0  0  0  0  0  0
   -7.0384   16.3339  -32.2598 H   0  0  0  0  0  0  0  0  0  0  0  0
   -7.8360   16.7598  -33.8120 H   0  0  0  0  0  0  0  0  0  0  0  0
   -6.1645   16.1020  -33.8120 H   0  0  0  0  0  0  0  0  0  0  0  0
   -4.8403   16.1555  -33.9617 H   0  0  0  0  0  0  0  0  0  0  0  0
   -2.4468   16.3901  -34.5899 H   0  0  0  0  0  0  0  0  0  0  0  0
   -1.3729   18.5983  -34.4816 H   0  0  0  0  0  0  0  0  0  0  0  0
   -2.6990   21.8050  -34.1080 H   0  0  0  0  0  0  0  0  0  0  0  0
   -0.5028   19.9755  -33.6548 H   0  0  0  0  0  0  0  0  0  0  0  0
   -0.5065   21.7819  -33.7432 H   0  0  0  0  0  0  0  0  0  0  0  0
   -0.2814   21.8092  -31.5587 H   0  0  0  0  0  0  0  0  0  0  0  0
   -1.9686   21.1330  -31.4704 H   0  0  0  0  0  0  0  0  0  0  0  0
   -0.8315   18.8356  -31.7396 H   0  0  0  0  0  0  0  0  0  0  0  0
    0.6787   19.6853  -31.2782 H   0  0  0  0  0  0  0  0  0  0  0  0
   -2.3191   21.1585  -30.0133 H   0  0  0  0  0  0  0  0  0  0  0  0
   -2.9761   21.0589  -27.6356 H   0  0  0  0  0  0  0  0  0  0  0  0
   -1.8248   19.4704  -26.0776 H   0  0  0  0  0  0  0  0  0  0  0  0
    0.0027   17.9985  -26.9930 H   0  0  0  0  0  0  0  0  0  0  0  0
    0.5835   18.1792  -29.3771 H   0  0  0  0  0  0  0  0  0  0  0  0
  1  2  1  0
  2  3  1  0
  3  4  1  0
  4  5  1  0
  5  6  1  0
  6  7  1  0
  7  8  1  0
  8  9  1  0
  9 10  2  0
 10 11  1  0
 11 12  2  0
 12 13  1  0
 13 14  2  0
 14 15  1  0
 15 16  2  0
 16 17  1  0
 16 18  1  0
 18 19  2  0
 19 20  1  0
 20 21  2  0
 21 22  1  0
 22 23  1  0
 23 24  1  0
 24 25  1  0
 25 26  1  0
 26 27  1  0
 27 28  2  0
 28 29  1  0
 29 30  2  0
 30 31  1  0
 31 32  2  0
 22 33  2  0
 33  9  1  0
 15 10  1  0
 33 18  1  0
 32 27  1  0
  1 34  1  0
  1 35  1  0
  1 36  1  0
  2 37  1  0
  2 38  1  0
  3 39  1  0
  4 40  1  0
  4 41  1  0
  5 42  1  0
  5 43  1  0
  6 44  1  0
  6 45  1  0
  7 46  1  0
  7 47  1  0
  8 48  1  0
 11 49  1  0
 12 50  1  0
 13 51  1  0
 14 52  1  0
 17 53  1  0
 17 54  1  0
 17 55  1  0
 19 56  1  0
 20 57  1  0
 21 58  1  0
 23 59  1  0
 24 60  1  0
 24 61  1  0
 25 62  1  0
 25 63  1  0
 26 64  1  0
 26 65  1  0
 28 66  1  0
 29 67  1  0
 30 68  1  0
 31 69  1  0
 32 70  1  0
M  CHG  2  16   1  27   1
M  END
>  <smiles>  (12) 
CCNCCCCNc1c2ccccc2[n+](C)c2cccc(NCCC[n+]3ccccc3)c12

>  <score_type>  (12) 
oracle

>  <origin>  (12) 
adg

>  <m_score__min__energy>  (12) 
-9.9600000000000009

>  <m_primary>  (12) 
energy

$$$$
13:0
     RDKit          3D

 42 44  0  0  0  0  0  0  0  0999 V2000
   -5.2390   25.3400  -30.8320 C   0  0  0  0  0  0  0  0  0  0  0  0
   -3.8580   25.0910  -30.6040 O   0  0  0  0  0  0  0  0  0  0  0  0
   -3.4670   24.1820  -29.6440 C   0  0  0  0  0  0  0  0  0  0  0  0
   -3.3210   24.5280  -28.3140 C   0  0  0  0  0  0  0  0  0  0  0  0
   -2.9270   23.6110  -27.3460 C   0  0  0  0  0  0  0  0  0  0  0  0
   -2.6700   22.3070  -27.7180 C   0  0  0  0  0  0  0  0  0  0  0  0
   -2.8060   21.9230  -29.0480 C   0  0  0  0  0  0  0  0  0  0  0  0
   -3.2000   22.8660  -29.9750 C   0  0  0  0  0  0  0  0  0  0  0  0
   -3.3400   22.4590  -31.3520 N   0  0  0  0  0  0  0  0  0  0  0  0
   -2.3040   21.7240  -32.0090 C   0  0  0  0  0  0  0  0  0  0  0  0
   -1.2650   21.4270  -31.3940 O   0  0  0  0  0  0  0  0  0  0  0  0
   -2.5560   21.3550  -33.4380 C   0  0  0  0  0  0  0  0  0  0  0  0
   -3.4120   19.7810  -33.5020 S   0  0  0  0  0  0  0  0  0  0  0  0
   -5.1160   20.0110  -33.0310 C   0  0  0  0  0  0  0  0  0  0  0  0
   -5.5260   21.2630  -32.6980 N   0  0  0  0  0  0  0  0  0  0  0  0
   -6.7950   21.4350  -32.3460 C   0  0  0  0  0  0  0  0  0  0  0  0
   -7.2360   22.6950  -32.0030 C   0  0  0  0  0  0  0  0  0  0  0  0
   -8.5450   22.8830  -31.6390 C   0  0  0  0  0  0  0  0  0  0  0  0
   -9.4610   21.8620  -31.5970 C   0  0  0  0  0  0  0  0  0  0  0  0
   -9.0270   20.5930  -31.9410 C   0  0  0  0  0  0  0  0  0  0  0  0
   -7.7270   20.4060  -32.3020 C   0  0  0  0  0  0  0  0  0  0  0  0
   -7.2510   19.1500  -32.6530 C   0  0  0  0  0  0  0  0  0  0  0  0
   -8.0470   18.1720  -32.6340 O   0  0  0  0  0  0  0  0  0  0  0  0
   -5.9670   18.9580  -33.0110 N   0  0  0  0  0  0  0  0  0  0  0  0
   -5.5420   17.6210  -33.3650 C   0  0  0  0  0  0  0  0  0  0  0  0
   -5.7589   25.4337  -29.8671 H   0  0  0  0  0  0  0  0  0  0  0  0
   -5.3540   26.2734  -31.4026 H   0  0  0  0  0  0  0  0  0  0  0  0
   -5.6727   24.5056  -31.4026 H   0  0  0  0  0  0  0  0  0  0  0  0
   -3.5237   25.5657  -28.0105 H   0  0  0  0  0  0  0  0  0  0  0  0
   -2.8214   23.9212  -26.2959 H   0  0  0  0  0  0  0  0  0  0  0  0
   -2.3575   21.5711  -26.9625 H   0  0  0  0  0  0  0  0  0  0  0  0
   -2.6031   20.8864  -29.3552 H   0  0  0  0  0  0  0  0  0  0  0  0
   -4.2290   22.7250  -31.8430 H   0  0  0  0  0  0  0  0  0  0  0  0
   -3.1754   22.1296  -33.9137 H   0  0  0  0  0  0  0  0  0  0  0  0
   -1.5978   21.2751  -33.9722 H   0  0  0  0  0  0  0  0  0  0  0  0
   -6.5405   23.5470  -32.0211 H   0  0  0  0  0  0  0  0  0  0  0  0
   -8.8751   23.8969  -31.3688 H   0  0  0  0  0  0  0  0  0  0  0  0
  -10.5042   22.0455  -31.3002 H   0  0  0  0  0  0  0  0  0  0  0  0
   -9.7257   19.7436  -31.9229 H   0  0  0  0  0  0  0  0  0  0  0  0
   -5.3574   17.0404  -32.4491 H   0  0  0  0  0  0  0  0  0  0  0  0
   -6.3287   17.1310  -33.9575 H   0  0  0  0  0  0  0  0  0  0  0  0
   -4.6168   17.6752  -33.9575 H   0  0  0  0  0  0  0  0  0  0  0  0
  1  2  1  0
  2  3  1  0
  3  4  2  0
  4  5  1  0
  5  6  2  0
  6  7  1  0
  7  8  2  0
  8  9  1  0
  9 10  1  0
 10 11  2  0
 10 12  1  0
 12 13  1  0
 13 14  1  0
 14 15  2  0
 15 16  1  0
 16 17  2  0
 17 18  1  0
 18 19  2  0
 19 20  1  0
 20 21  2  0
 21 22  1  0
 22 23  2  0
 22 24  1  0
 24 25  1  0
  8  3  1  0
 24 14  1  0
 21 16  1  0
  1 26  1  0
  1 27  1  0
  1 28  1  0
  4 29  1  0
  5 30  1  0
  6 31  1  0
  7 32  1  0
  9 33  1  0
 12 34  1  0
 12 35  1  0
 17 36  1  0
 18 37  1  0
 19 38  1  0
 20 39  1  0
 25 40  1  0
 25 41  1  0
 25 42  1  0
M  END
>  <smiles>  (13) 
COc1ccccc1NC(=O)CSc1nc2ccccc2c(=O)n1C

>  <score_type>  (13) 
oracle

>  <origin>  (13) 
adg

>  <m_score__min__energy>  (13) 
-9.2200000000000006

>  <m_primary>  (13) 
energy

$$$$
14:0
     RDKit          3D

 35 36  0  0  0  0  0  0  0  0999 V2000
   -6.3370   24.9930  -29.7390 C   0  0  0  0  0  0  0  0  0  0  0  0
   -5.3370   25.3030  -30.7970 C   0  0  0  0  0  0  0  0  0  0  0  0
   -4.2630   24.4320  -30.8730 O   0  0  0  0  0  0  0  0  0  0  0  0
   -4.5930   23.1030  -30.9070 C   0  0  0  0  0  0  0  0  0  0  0  0
   -4.6720   22.6710  -32.3690 C   0  0  0  0  0  0  0  0  0  0  0  0
   -5.5720   21.5560  -32.5480 N   0  0  0  0  0  0  0  0  0  0  0  0
   -5.3030   20.3070  -32.9690 C   0  0  0  0  0  0  0  0  0  0  0  0
   -3.6900   19.6930  -33.4390 S   0  0  0  0  0  0  0  0  0  0  0  0
   -3.7610   18.0200  -34.1090 C   0  0  0  0  0  0  0  0  0  0  0  0
   -4.9930   17.8020  -34.9580 C   0  0  0  0  0  0  0  0  0  0  0  0
   -6.4510   19.5920  -32.9790 N   0  0  0  0  0  0  0  0  0  0  0  0
   -7.4640   20.3510  -32.5730 C   0  0  0  0  0  0  0  0  0  0  0  0
   -8.8280   20.1530  -32.3900 C   0  0  0  0  0  0  0  0  0  0  0  0
   -9.6490   21.1820  -31.9360 C   0  0  0  0  0  0  0  0  0  0  0  0
   -9.0960   22.4380  -31.6590 C   0  0  0  0  0  0  0  0  0  0  0  0
   -7.7310   22.6410  -31.8400 C   0  0  0  0  0  0  0  0  0  0  0  0
   -6.9130   21.6050  -32.2960 C   0  0  0  0  0  0  0  0  0  0  0  0
   -5.8792   25.1349  -28.7489 H   0  0  0  0  0  0  0  0  0  0  0  0
   -7.2013   25.6654  -29.8431 H   0  0  0  0  0  0  0  0  0  0  0  0
   -6.6695   23.9496  -29.8431 H   0  0  0  0  0  0  0  0  0  0  0  0
   -5.8545   25.2891  -31.7676 H   0  0  0  0  0  0  0  0  0  0  0  0
   -4.9136   26.2840  -30.5356 H   0  0  0  0  0  0  0  0  0  0  0  0
   -3.8239   22.5144  -30.3854 H   0  0  0  0  0  0  0  0  0  0  0  0
   -5.5593   22.9375  -30.4081 H   0  0  0  0  0  0  0  0  0  0  0  0
   -5.0296   23.5184  -32.9724 H   0  0  0  0  0  0  0  0  0  0  0  0
   -3.6677   22.3560  -32.6885 H   0  0  0  0  0  0  0  0  0  0  0  0
   -2.8681   17.8470  -34.7277 H   0  0  0  0  0  0  0  0  0  0  0  0
   -3.8017   17.3169  -33.2640 H   0  0  0  0  0  0  0  0  0  0  0  0
   -5.8652   17.6477  -34.3057 H   0  0  0  0  0  0  0  0  0  0  0  0
   -5.1615   18.6843  -35.5930 H   0  0  0  0  0  0  0  0  0  0  0  0
   -4.8486   16.9155  -35.5930 H   0  0  0  0  0  0  0  0  0  0  0  0
   -9.2657   19.1675  -32.6074 H   0  0  0  0  0  0  0  0  0  0  0  0
  -10.7262   21.0090  -31.7958 H   0  0  0  0  0  0  0  0  0  0  0  0
   -9.7355   23.2583  -31.3010 H   0  0  0  0  0  0  0  0  0  0  0  0
   -7.2927   23.6261  -31.6220 H   0  0  0  0  0  0  0  0  0  0  0  0
  1  2  1  0
  2  3  1  0
  3  4  1  0
  4  5  1  0
  5  6  1  0
  6  7  1  0
  7  8  1  0
  8  9  1  0
  9 10  1  0
  7 11  2  0
 11 12  1  0
 12 13  2  0
 13 14  1  0
 14 15  2  0
 15 16  1  0
 16 17  2  0
 17  6  1  0
 17 12  1  0
  1 18  1  0
  1 19  1  0
  1 20  1  0
  2 21  1  0
  2 22  1  0
  4 23  1  0
  4 24  1  0
  5 25  1  0
  5 26  1  0
  9 27  1  0
  9 28  1  0
 10 29  1  0
 10 30  1  0
 10 31  1  0
 13 32  1  0
 14 33  1  0
 15 34  1  0
 16 35  1  0
M  END
>  <smiles>  (14) 
CCOCCn1c(SCC)nc2ccccc21

>  <score_type>  (14) 
oracle

>  <origin>  (14) 
adg

>  <m_score__min__energy>  (14) 
-6.6200000000000001

>  <m_primary>  (14) 
energy

$$$$
15:0
     RDKit          3D

 49 51  0  0  0  0  0  0  0  0999 V2000
   -1.2120   26.0360  -28.9650 O   0  0  0  0  0  0  0  0  0  0  0  0
   -0.6850   24.9790  -28.5650 N   0  0  0  0  0  0  0  0  0  0  0  0
    0.6050   24.9300  -28.0980 O   0  0  0  0  0  0  0  0  0  0  0  0
   -1.4350   23.7670  -28.5870 C   0  0  0  0  0  0  0  0  0  0  0  0
   -0.9620   22.6390  -27.9070 C   0  0  0  0  0  0  0  0  0  0  0  0
   -1.7190   21.4980  -27.9560 C   0  0  0  0  0  0  0  0  0  0  0  0
   -2.9140   21.4100  -28.6390 C   0  0  0  0  0  0  0  0  0  0  0  0
   -3.3860   22.5390  -29.3190 C   0  0  0  0  0  0  0  0  0  0  0  0
   -4.6610   22.4630  -30.0530 C   0  0  0  0  0  0  0  0  0  0  0  0
   -4.5300   22.3590  -31.5210 C   0  0  0  0  0  0  0  0  0  0  0  0
   -5.8750   22.4580  -32.1760 C   0  0  0  0  0  0  0  0  0  0  0  0
   -6.9800   22.7880  -31.3840 N   0  0  0  0  0  0  0  0  0  0  0  0
   -8.0260   23.4050  -32.1560 C   0  0  0  0  0  0  0  0  0  0  0  0
   -9.3620   22.7470  -31.9800 C   0  0  0  0  0  0  0  0  0  0  0  0
   -9.2260   21.4680  -31.3600 N   0  0  0  0  0  0  0  0  0  0  0  0
   -9.4690   20.3870  -32.3360 C   0  0  0  0  0  0  0  0  0  0  0  0
   -8.2150   19.6020  -32.4660 C   0  0  0  0  0  0  0  0  0  0  0  0
   -7.2540   19.8880  -33.4140 C   0  0  0  0  0  0  0  0  0  0  0  0
   -6.1220   19.0990  -33.4560 C   0  0  0  0  0  0  0  0  0  0  0  0
   -5.9120   18.0470  -32.5970 C   0  0  0  0  0  0  0  0  0  0  0  0
   -6.8740   17.7820  -31.6680 N   0  0  0  0  0  0  0  0  0  0  0  0
   -7.9930   18.5410  -31.6070 C   0  0  0  0  0  0  0  0  0  0  0  0
   -6.8250   23.5120  -30.1840 C   0  0  0  0  0  0  0  0  0  0  0  0
   -5.4080   23.7720  -29.7690 C   0  0  0  0  0  0  0  0  0  0  0  0
   -2.6200   23.7090  -29.2740 C   0  0  0  0  0  0  0  0  0  0  0  0
   -0.0132   22.6675  -27.3512 H   0  0  0  0  0  0  0  0  0  0  0  0
   -1.3552   20.6069  -27.4235 H   0  0  0  0  0  0  0  0  0  0  0  0
   -3.4856   20.4702  -28.6492 H   0  0  0  0  0  0  0  0  0  0  0  0
   -5.1720   21.5499  -29.7137 H   0  0  0  0  0  0  0  0  0  0  0  0
   -3.8886   23.1747  -31.8860 H   0  0  0  0  0  0  0  0  0  0  0  0
   -4.0834   21.3852  -31.7704 H   0  0  0  0  0  0  0  0  0  0  0  0
   -5.7981   23.2241  -32.9616 H   0  0  0  0  0  0  0  0  0  0  0  0
   -6.0845   21.4336  -32.5175 H   0  0  0  0  0  0  0  0  0  0  0  0
   -8.1123   24.4575  -31.8482 H   0  0  0  0  0  0  0  0  0  0  0  0
   -7.7507   23.3036  -33.2162 H   0  0  0  0  0  0  0  0  0  0  0  0
   -9.9974   23.3864  -31.3495 H   0  0  0  0  0  0  0  0  0  0  0  0
   -9.8172   22.6085  -32.9718 H   0  0  0  0  0  0  0  0  0  0  0  0
   -8.2030   21.3110  -31.0830 H   0  0  0  0  0  0  0  0  0  0  0  0
  -10.2820   19.7372  -31.9799 H   0  0  0  0  0  0  0  0  0  0  0  0
   -9.7618   20.8071  -33.3095 H   0  0  0  0  0  0  0  0  0  0  0  0
   -7.3865   20.7229  -34.1179 H   0  0  0  0  0  0  0  0  0  0  0  0
   -5.3537   19.3223  -34.2108 H   0  0  0  0  0  0  0  0  0  0  0  0
   -4.9975   17.4386  -32.6570 H   0  0  0  0  0  0  0  0  0  0  0  0
   -8.7529   18.3056  -30.8472 H   0  0  0  0  0  0  0  0  0  0  0  0
   -7.3266   24.4833  -30.3063 H   0  0  0  0  0  0  0  0  0  0  0  0
   -7.2627   22.8854  -29.3929 H   0  0  0  0  0  0  0  0  0  0  0  0
   -4.9788   24.5968  -30.3568 H   0  0  0  0  0  0  0  0  0  0  0  0
   -5.3360   24.0661  -28.7115 H   0  0  0  0  0  0  0  0  0  0  0  0
   -2.9775   24.6047  -29.8031 H   0  0  0  0  0  0  0  0  0  0  0  0
  1  2  2  0
  2  3  1  0
  2  4  1  0
  4  5  2  0
  5  6  1  0
  6  7  2  0
  7  8  1  0
  8  9  1  0
  9 10  1  0
 10 11  1  0
 11 12  1  0
 12 13  1  0
 13 14  1  0
 14 15  1  0
 15 16  1  0
 16 17  1  0
 17 18  2  0
 18 19  1  0
 19 20  2  0
 20 21  1  0
 21 22  2  0
 12 23  1  0
 23 24  1  0
  8 25  2  0
 25  4  1  0
 24  9  1  0
 22 17  1  0
  5 26  1  0
  6 27  1  0
  7 28  1  0
  9 29  1  0
 10 30  1  0
 10 31  1  0
 11 32  1  0
 11 33  1  0
 13 34  1  0
 13 35  1  0
 14 36  1  0
 14 37  1  0
 15 38  1  0
 16 39  1  0
 16 40  1  0
 18 41  1  0
 19 42  1  0
 20 43  1  0
 22 44  1  0
 23 45  1  0
 23 46  1  0
 24 47  1  0
 24 48  1  0
 25 49  1  0
M  CHG  2   2   1   3  -1
M  END
>  <smiles>  (15) 
O=[N+]([O-])c1cccc(C2CCN(CCNCc3cccnc3)CC2)c1

>  <score_type>  (15) 
oracle

>  <origin>  (15) 
adg

>  <m_score__min__energy>  (15) 
-8.6699999999999999

>  <m_primary>  (15) 
energy

$$$$
17:0
     RDKit          3D

 39 40  0  0  0  0  0  0  0  0999 V2000
   -1.6550   23.4780  -29.3150 C   0  0  0  0  0  0  0  0  0  0  0  0
   -3.0670   24.0090  -29.1590 C   0  0  0  0  0  0  0  0  0  0  0  0
   -3.8590   23.5820  -30.2880 N   0  0  0  0  0  0  0  0  0  0  0  0
   -3.4270   22.6510  -31.1690 C   0  0  0  0  0  0  0  0  0  0  0  0
   -4.4170   22.5040  -32.0800 N   0  0  0  0  0  0  0  0  0  0  0  0
   -5.4490   23.3310  -31.7710 C   0  0  0  0  0  0  0  0  0  0  0  0
   -6.6550   23.4300  -32.5250 N   0  0  0  0  0  0  0  0  0  0  0  0
   -7.9340   23.2900  -31.9140 C   0  0  0  0  0  0  0  0  0  0  0  0
   -7.9970   22.3090  -30.7890 C   0  0  0  0  0  0  0  0  0  0  0  0
   -9.0910   21.3120  -30.8810 C   0  0  0  0  0  0  0  0  0  0  0  0
   -9.1740   20.8290  -32.3200 C   0  0  0  0  0  0  0  0  0  0  0  0
   -8.1230   19.8280  -32.6250 C   0  0  0  0  0  0  0  0  0  0  0  0
   -8.1790   18.5560  -32.1040 C   0  0  0  0  0  0  0  0  0  0  0  0
   -7.2010   17.6200  -32.3860 C   0  0  0  0  0  0  0  0  0  0  0  0
   -6.1260   17.9160  -33.2010 C   0  0  0  0  0  0  0  0  0  0  0  0
   -6.0580   19.1770  -33.7250 C   0  0  0  0  0  0  0  0  0  0  0  0
   -7.0340   20.1090  -33.4440 C   0  0  0  0  0  0  0  0  0  0  0  0
   -5.0900   24.0150  -30.6290 C   0  0  0  0  0  0  0  0  0  0  0  0
   -6.1380   25.3170  -29.7220 Br  0  0  0  0  0  0  0  0  0  0  0  0
   -1.2138   23.3121  -28.3211 H   0  0  0  0  0  0  0  0  0  0  0  0
   -1.6797   22.5277  -29.8685 H   0  0  0  0  0  0  0  0  0  0  0  0
   -1.0474   24.2091  -29.8685 H   0  0  0  0  0  0  0  0  0  0  0  0
   -3.5076   23.6170  -28.2305 H   0  0  0  0  0  0  0  0  0  0  0  0
   -3.0471   25.1079  -29.1143 H   0  0  0  0  0  0  0  0  0  0  0  0
   -2.4640   22.1198  -31.1490 H   0  0  0  0  0  0  0  0  0  0  0  0
   -6.5750   23.6060  -33.5410 H   0  0  0  0  0  0  0  0  0  0  0  0
   -8.2349   24.2739  -31.5249 H   0  0  0  0  0  0  0  0  0  0  0  0
   -8.6049   22.9027  -32.6950 H   0  0  0  0  0  0  0  0  0  0  0  0
   -7.0418   21.7643  -30.7586 H   0  0  0  0  0  0  0  0  0  0  0  0
   -8.1962   22.8978  -29.8814 H   0  0  0  0  0  0  0  0  0  0  0  0
   -8.8779   20.4629  -30.2150 H   0  0  0  0  0  0  0  0  0  0  0  0
  -10.0456   21.7664  -30.5772 H   0  0  0  0  0  0  0  0  0  0  0  0
  -10.1606   20.3717  -32.4860 H   0  0  0  0  0  0  0  0  0  0  0  0
   -9.0242   21.6952  -32.9812 H   0  0  0  0  0  0  0  0  0  0  0  0
   -9.0186   18.2779  -31.4500 H   0  0  0  0  0  0  0  0  0  0  0  0
   -7.2813   16.6134  -31.9498 H   0  0  0  0  0  0  0  0  0  0  0  0
   -5.3529   17.1648  -33.4205 H   0  0  0  0  0  0  0  0  0  0  0  0
   -5.2158   19.4506  -34.3775 H   0  0  0  0  0  0  0  0  0  0  0  0
   -6.9485   21.1135  -33.8842 H   0  0  0  0  0  0  0  0  0  0  0  0
  1  2  1  0
  2  3  1  0
  3  4  1  0
  4  5  2  0
  5  6  1  0
  6  7  1  0
  7  8  1  0
  8  9  1  0
  9 10  1  0
 10 11  1  0
 11 12  1  0
 12 13  2  0
 13 14  1  0
 14 15  2  0
 15 16  1  0
 16 17  2  0
  6 18  2  0
 18 19  1  0
 18  3  1  0
 17 12  1  0
  1 20  1  0
  1 21  1  0
  1 22  1  0
  2 23  1  0
  2 24  1  0
  4 25  1  0
  7 26  1  0
  8 27  1  0
  8 28  1  0
  9 29  1  0
  9 30  1  0
 10 31  1  0
 10 32  1  0
 11 33  1  0
 11 34  1  0
 13 35  1  0
 14 36  1  0
 15 37  1  0
 16 38  1  0
 17 39  1  0
M  END
>  <smiles>  (16) 
CCn1cnc(NCCCCc2ccccc2)c1Br

>  <score_type>  (16) 
oracle

>  <origin>  (16) 
adg

>  <m_score__min__energy>  (16) 
-7.5800000000000001

>  <m_primary>  (16) 
energy

$$$$
18:0
     RDKit          3D

 40 41  0  0  1  0  0  0  0  0999 V2000
   -4.2840   24.5430  -28.1130 C   0  0  0  0  0  0  0  0  0  0  0  0
   -3.8420   23.2420  -28.7100 C   0  0  0  0  0  0  0  0  0  0  0  0
   -3.4870   22.2360  -27.8470 C   0  0  0  0  0  0  0  0  0  0  0  0
   -3.0700   21.0090  -28.3150 C   0  0  0  0  0  0  0  0  0  0  0  0
   -2.5800   19.6160  -27.1130 Br  0  0  0  0  0  0  0  0  0  0  0  0
   -3.0270   20.8470  -29.6830 C   0  0  0  0  0  0  0  0  0  0  0  0
   -3.3870   21.8690  -30.5600 C   0  0  0  0  0  0  0  0  0  0  0  0
   -3.1800   21.5030  -32.4140 Br  0  0  0  0  0  0  0  0  0  0  0  0
   -3.8050   23.0890  -30.1050 C   0  0  0  0  0  0  0  0  0  0  0  0
   -4.1800   24.1660  -30.8430 O   0  0  0  0  0  0  0  0  0  0  0  0
   -5.4050   24.6470  -31.1670 C   0  0  0  0  0  0  0  0  0  0  0  0
   -6.6280   23.8780  -30.8930 C   0  0  0  0  0  0  0  0  0  0  0  0
   -7.2460   23.7820  -29.8360 O   0  0  0  0  0  0  0  0  0  0  0  0
   -7.1620   23.1500  -32.0130 N   0  0  0  0  0  0  0  0  0  0  0  0
   -8.3470   22.3460  -31.9290 C   0  0  0  0  0  0  0  0  0  0  0  0
   -8.0180   21.0510  -31.3310 C   0  0  0  0  0  0  0  0  0  0  0  0
   -8.2660   19.8650  -31.8010 C   0  0  0  0  0  0  0  0  0  0  0  0
   -7.4240   19.0150  -32.6000 C   0  0  0  0  0  0  0  0  0  0  0  0
   -7.2630   17.6670  -32.5080 C   0  0  0  0  0  0  0  0  0  0  0  0
   -6.3280   16.9450  -33.2640 C   0  0  0  0  0  0  0  0  0  0  0  0
   -5.5130   17.5970  -34.1630 C   0  0  0  0  0  0  0  0  0  0  0  0
   -5.6780   18.9610  -34.2590 C   0  0  0  0  0  0  0  0  0  0  0  0
   -6.5920   19.6690  -33.5190 C   0  0  0  0  0  0  0  0  0  0  0  0
   -4.2592   24.4701  -27.0157 H   0  0  0  0  0  0  0  0  0  0  0  0
   -3.6082   25.3460  -28.4425 H   0  0  0  0  0  0  0  0  0  0  0  0
   -5.3091   24.7682  -28.4425 H   0  0  0  0  0  0  0  0  0  0  0  0
   -3.5362   22.4122  -26.7623 H   0  0  0  0  0  0  0  0  0  0  0  0
   -2.6985   19.8816  -30.0955 H   0  0  0  0  0  0  0  0  0  0  0  0
   -5.5138   25.6036  -30.6349 H   0  0  0  0  0  0  0  0  0  0  0  0
   -5.3726   24.6570  -32.2665 H   0  0  0  0  0  0  0  0  0  0  0  0
   -6.6870   23.1840  -32.9620 H   0  0  0  0  0  0  0  0  0  0  0  0
   -9.0941   22.8585  -31.3052 H   0  0  0  0  0  0  0  0  0  0  0  0
   -8.7560   22.1900  -32.9382 H   0  0  0  0  0  0  0  0  0  0  0  0
   -7.4959   21.0861  -30.3634 H   0  0  0  0  0  0  0  0  0  0  0  0
   -9.2561   19.4545  -31.5539 H   0  0  0  0  0  0  0  0  0  0  0  0
   -7.9005   17.1137  -31.8027 H   0  0  0  0  0  0  0  0  0  0  0  0
   -6.2453   15.8553  -33.1387 H   0  0  0  0  0  0  0  0  0  0  0  0
   -4.7713   17.0580  -34.7707 H   0  0  0  0  0  0  0  0  0  0  0  0
   -5.0427   19.5131  -34.9673 H   0  0  0  0  0  0  0  0  0  0  0  0
   -6.6721   20.7584  -33.6483 H   0  0  0  0  0  0  0  0  0  0  0  0
  1  2  1  0
  2  3  2  0
  3  4  1  0
  4  5  1  0
  4  6  2  0
  6  7  1  0
  7  8  1  0
  7  9  2  0
  9 10  1  0
 10 11  1  0
 11 12  1  0
 12 13  2  0
 12 14  1  0
 14 15  1  0
 15 16  1  0
 16 17  2  0
 17 18  1  0
 18 19  2  0
 19 20  1  0
 20 21  2  0
 21 22  1  0
 22 23  2  0
  9  2  1  0
 23 18  1  0
  1 24  1  0
  1 25  1  0
  1 26  1  0
  3 27  1  0
  6 28  1  0
 11 29  1  0
 11 30  1  0
 14 31  1  0
 15 32  1  0
 15 33  1  0
 16 34  1  0
 17 35  1  0
 19 36  1  0
 20 37  1  0
 21 38  1  0
 22 39  1  0
 23 40  1  0
M  END
>  <smiles>  (17) 
Cc1cc(Br)cc(Br)c1OCC(=O)NCC=Cc1ccccc1

>  <score_type>  (17) 
oracle

>  <origin>  (17) 
adg

>  <m_score__min__energy>  (17) 
-9.3599999999999994

>  <m_primary>  (17) 
energy

$$$$
19:0
     RDKit          3D

 50 51  0  0  0  0  0  0  0  0999 V2000
   -4.8190   17.4460  -34.9880 C   0  0  0  0  0  0  0  0  0  0  0  0
   -5.9840   17.7120  -34.0510 C   0  0  0  0  0  0  0  0  0  0  0  0
   -5.8340   19.0250  -33.4770 N   0  0  0  0  0  0  0  0  0  0  0  0
   -4.6710   19.6720  -33.6080 C   0  0  0  0  0  0  0  0  0  0  0  0
   -4.4450   20.9410  -33.0840 C   0  0  0  0  0  0  0  0  0  0  0  0
   -5.4440   21.6080  -32.3860 C   0  0  0  0  0  0  0  0  0  0  0  0
   -5.2090   22.8900  -31.8240 N   0  0  0  0  0  0  0  0  0  0  0  0
   -6.1440   23.9950  -31.9330 C   0  0  0  0  0  0  0  0  0  0  0  0
   -6.2590   24.7020  -30.5980 C   0  0  0  0  0  0  0  0  0  0  0  0
   -5.1020   25.6840  -30.4650 C   0  0  0  0  0  0  0  0  0  0  0  0
   -3.8560   25.0740  -30.5160 O   0  0  0  0  0  0  0  0  0  0  0  0
   -3.5470   24.2880  -29.4320 C   0  0  0  0  0  0  0  0  0  0  0  0
   -2.3090   23.4390  -29.6790 C   0  0  0  0  0  0  0  0  0  0  0  0
   -2.6130   22.3180  -30.5490 N   0  0  0  0  0  0  0  0  0  0  0  0
   -1.4250   21.7720  -31.1810 C   0  0  0  0  0  0  0  0  0  0  0  0
   -3.1710   21.2640  -29.7100 C   0  0  0  0  0  0  0  0  0  0  0  0
   -6.6410   20.9280  -32.2580 C   0  0  0  0  0  0  0  0  0  0  0  0
   -7.6910   21.5110  -31.5810 C   0  0  0  0  0  0  0  0  0  0  0  0
   -8.9030   20.8280  -31.4500 C   0  0  0  0  0  0  0  0  0  0  0  0
   -9.1070   19.5740  -31.9740 C   0  0  0  0  0  0  0  0  0  0  0  0
   -8.0370   19.0070  -32.6500 C   0  0  0  0  0  0  0  0  0  0  0  0
   -6.8260   19.6550  -32.7980 C   0  0  0  0  0  0  0  0  0  0  0  0
   -3.9138   17.2393  -34.3981 H   0  0  0  0  0  0  0  0  0  0  0  0
   -5.0496   16.5774  -35.6223 H   0  0  0  0  0  0  0  0  0  0  0  0
   -4.6497   18.3286  -35.6223 H   0  0  0  0  0  0  0  0  0  0  0  0
   -6.9283   17.6608  -34.6129 H   0  0  0  0  0  0  0  0  0  0  0  0
   -5.9981   16.9564  -33.2517 H   0  0  0  0  0  0  0  0  0  0  0  0
   -3.8549   19.1779  -34.1556 H   0  0  0  0  0  0  0  0  0  0  0  0
   -3.4652   21.4211  -33.2238 H   0  0  0  0  0  0  0  0  0  0  0  0
   -4.3310   23.0890  -31.2970 H   0  0  0  0  0  0  0  0  0  0  0  0
   -5.7840   24.7047  -32.6925 H   0  0  0  0  0  0  0  0  0  0  0  0
   -7.1313   23.6085  -32.2261 H   0  0  0  0  0  0  0  0  0  0  0  0
   -7.2139   25.2458  -30.5480 H   0  0  0  0  0  0  0  0  0  0  0  0
   -6.2233   23.9673  -29.7801 H   0  0  0  0  0  0  0  0  0  0  0  0
   -5.1674   26.4139  -31.2854 H   0  0  0  0  0  0  0  0  0  0  0  0
   -5.1912   26.1612  -29.4779 H   0  0  0  0  0  0  0  0  0  0  0  0
   -3.3650   24.9371  -28.5628 H   0  0  0  0  0  0  0  0  0  0  0  0
   -4.3940   23.6098  -29.2512 H   0  0  0  0  0  0  0  0  0  0  0  0
   -1.5344   24.0611  -30.1511 H   0  0  0  0  0  0  0  0  0  0  0  0
   -1.9537   23.0479  -28.7142 H   0  0  0  0  0  0  0  0  0  0  0  0
   -0.7149   21.4457  -30.4068 H   0  0  0  0  0  0  0  0  0  0  0  0
   -1.7052   20.9123  -31.8074 H   0  0  0  0  0  0  0  0  0  0  0  0
   -0.9550   22.5445  -31.8074 H   0  0  0  0  0  0  0  0  0  0  0  0
   -3.0321   21.5263  -28.6508 H   0  0  0  0  0  0  0  0  0  0  0  0
   -4.2447   21.1555  -29.9231 H   0  0  0  0  0  0  0  0  0  0  0  0
   -2.6571   20.3150  -29.9231 H   0  0  0  0  0  0  0  0  0  0  0  0
   -7.5747   22.5137  -31.1440 H   0  0  0  0  0  0  0  0  0  0  0  0
   -9.7266   21.3134  -30.9058 H   0  0  0  0  0  0  0  0  0  0  0  0
  -10.0670   19.0485  -31.8632 H   0  0  0  0  0  0  0  0  0  0  0  0
   -8.1571   18.0037  -33.0846 H   0  0  0  0  0  0  0  0  0  0  0  0
  1  2  1  0
  2  3  1  0
  3  4  2  0
  4  5  1  0
  5  6  2  0
  6  7  1  0
  7  8  1  0
  8  9  1  0
  9 10  1  0
 10 11  1  0
 11 12  1  0
 12 13  1  0
 13 14  1  0
 14 15  1  0
 14 16  1  0
  6 17  1  0
 17 18  2  0
 18 19  1  0
 19 20  2  0
 20 21  1  0
 21 22  2  0
 22  3  1  0
 22 17  1  0
  1 23  1  0
  1 24  1  0
  1 25  1  0
  2 26  1  0
  2 27  1  0
  4 28  1  0
  5 29  1  0
  7 30  1  0
  8 31  1  0
  8 32  1  0
  9 33  1  0
  9 34  1  0
 10 35  1  0
 10 36  1  0
 12 37  1  0
 12 38  1  0
 13 39  1  0
 13 40  1  0
 15 41  1  0
 15 42  1  0
 15 43  1  0
 16 44  1  0
 16 45  1  0
 16 46  1  0
 18 47  1  0
 19 48  1  0
 20 49  1  0
 21 50  1  0
M  CHG  1   3   1
M  END
>  <smiles>  (18) 
CC[n+]1ccc(NCCCOCCN(C)C)c2ccccc21

>  <score_type>  (18) 
oracle

>  <origin>  (18) 
adg

>  <m_score__min__energy>  (18) 
-7.8700000000000001

>  <m_primary>  (18) 
energy

$$$$
20:0
     RDKit          3D

 32 34  0  0  0  0  0  0  0  0999 V2000
   -2.9360   21.5050  -30.0850 C   0  0  0  0  0  0  0  0  0  0  0  0
   -3.6960   22.6650  -30.5700 N   0  0  0  0  0  0  0  0  0  0  0  0
   -4.4450   22.6680  -31.7060 C   0  0  0  0  0  0  0  0  0  0  0  0
   -4.6110   21.2270  -32.7780 S   0  0  0  0  0  0  0  0  0  0  0  0
   -5.6940   19.9980  -32.0050 C   0  0  0  0  0  0  0  0  0  0  0  0
   -7.1130   20.3820  -32.0040 C   0  0  0  0  0  0  0  0  0  0  0  0
   -7.4460   21.6650  -31.6380 C   0  0  0  0  0  0  0  0  0  0  0  0
   -8.7560   22.0940  -31.6070 C   0  0  0  0  0  0  0  0  0  0  0  0
   -9.7320   21.1810  -31.9580 C   0  0  0  0  0  0  0  0  0  0  0  0
   -9.3870   19.8930  -32.3250 C   0  0  0  0  0  0  0  0  0  0  0  0
   -8.0710   19.4520  -32.3610 C   0  0  0  0  0  0  0  0  0  0  0  0
   -7.7440   18.1770  -32.7240 F   0  0  0  0  0  0  0  0  0  0  0  0
   -5.0130   23.8800  -31.8750 N   0  0  0  0  0  0  0  0  0  0  0  0
   -4.6070   24.6000  -30.8440 N   0  0  0  0  0  0  0  0  0  0  0  0
   -3.8050   23.8690  -30.0430 C   0  0  0  0  0  0  0  0  0  0  0  0
   -3.1900   24.3720  -28.8370 C   0  0  0  0  0  0  0  0  0  0  0  0
   -3.7260   24.3630  -27.5060 C   0  0  0  0  0  0  0  0  0  0  0  0
   -2.9780   24.8780  -26.5560 C   0  0  0  0  0  0  0  0  0  0  0  0
   -1.7340   25.4010  -26.8440 C   0  0  0  0  0  0  0  0  0  0  0  0
   -1.5890   25.1400  -28.6650 S   0  0  0  0  0  0  0  0  0  0  0  0
   -2.9339   21.5019  -28.9850 H   0  0  0  0  0  0  0  0  0  0  0  0
   -3.4038   20.5801  -30.4534 H   0  0  0  0  0  0  0  0  0  0  0  0
   -1.9012   21.5645  -30.4534 H   0  0  0  0  0  0  0  0  0  0  0  0
   -5.5907   19.0498  -32.5529 H   0  0  0  0  0  0  0  0  0  0  0  0
   -5.3829   19.9096  -30.9536 H   0  0  0  0  0  0  0  0  0  0  0  0
   -6.6459   22.3678  -31.3626 H   0  0  0  0  0  0  0  0  0  0  0  0
   -9.0140   23.1225  -31.3144 H   0  0  0  0  0  0  0  0  0  0  0  0
  -10.7903   21.4806  -31.9454 H   0  0  0  0  0  0  0  0  0  0  0  0
  -10.1872   19.1899  -32.5993 H   0  0  0  0  0  0  0  0  0  0  0  0
   -4.7196   23.9434  -27.2902 H   0  0  0  0  0  0  0  0  0  0  0  0
   -3.3476   24.8923  -25.5201 H   0  0  0  0  0  0  0  0  0  0  0  0
   -1.0077   25.8603  -26.1573 H   0  0  0  0  0  0  0  0  0  0  0  0
  1  2  1  0
  2  3  1  0
  3  4  1  0
  4  5  1  0
  5  6  1  0
  6  7  2  0
  7  8  1  0
  8  9  2  0
  9 10  1  0
 10 11  2  0
 11 12  1  0
  3 13  2  0
 13 14  1  0
 14 15  2  0
 15 16  1  0
 16 17  2  0
 17 18  1  0
 18 19  2  0
 19 20  1  0
 15  2  1  0
 20 16  1  0
 11  6  1  0
  1 21  1  0
  1 22  1  0
  1 23  1  0
  5 24  1  0
  5 25  1  0
  7 26  1  0
  8 27  1  0
  9 28  1  0
 10 29  1  0
 17 30  1  0
 18 31  1  0
 19 32  1  0
M  END
>  <smiles>  (19) 
Cn1c(SCc2ccccc2F)nnc1-c1cccs1

>  <score_type>  (19) 
oracle

>  <origin>  (19) 
adg

>  <m_score__min__energy>  (19) 
-7.8799999999999999

>  <m_primary>  (19) 
energy

$$$$
24:0
     RDKit          3D

 62 66  0  0  1  0  0  0  0  0999 V2000
    0.6660   21.8460  -35.3060 C   0  0  0  0  0  0  0  0  0  0  0  0
    0.0520   21.6170  -34.0720 O   0  0  0  0  0  0  0  0  0  0  0  0
   -1.1210   20.8960  -33.9210 C   0  0  0  0  0  0  0  0  0  0  0  0
   -2.3010   21.4380  -33.4580 C   0  0  0  0  0  0  0  0  0  0  0  0
   -3.4480   20.6490  -33.3300 C   0  0  0  0  0  0  0  0  0  0  0  0
   -3.4340   19.2990  -33.6650 C   0  0  0  0  0  0  0  0  0  0  0  0
   -4.6160   18.5240  -33.5230 N   0  0  0  0  0  0  0  0  0  0  0  0
   -4.5300   17.1120  -33.0780 C   0  0  0  0  0  0  0  0  0  0  0  0
   -5.9610   16.7300  -32.7360 C   0  0  0  0  0  0  0  0  0  0  0  0
   -6.4960   18.0820  -32.4330 C   0  0  2  0  0  0  0  0  0  0  0  0
   -7.9340   18.3270  -32.7100 C   0  0  0  0  0  0  0  0  0  0  0  0
   -7.9300   19.7550  -32.9790 N   0  0  0  0  0  0  0  0  0  0  0  0
   -8.1970   20.4460  -31.7270 C   0  0  0  0  0  0  0  0  0  0  0  0
   -9.0480   21.6570  -31.9620 C   0  0  0  0  0  0  0  0  0  0  0  0
   -8.3730   22.9100  -31.5590 C   0  0  0  0  0  0  0  0  0  0  0  0
   -6.9470   23.4650  -32.4330 S   0  0  0  0  0  0  0  0  0  0  0  0
   -5.5250   23.8990  -31.5040 C   0  0  0  0  0  0  0  0  0  0  0  0
   -4.9220   25.0580  -31.2130 N   0  0  0  0  0  0  0  0  0  0  0  0
   -3.8500   24.8900  -30.4620 N   0  0  0  0  0  0  0  0  0  0  0  0
   -3.7290   23.5710  -30.2420 C   0  0  0  0  0  0  0  0  0  0  0  0
   -2.6750   22.9210  -29.4520 C   0  0  0  0  0  0  0  0  0  0  0  0
   -2.8340   22.6080  -28.1180 C   0  0  0  0  0  0  0  0  0  0  0  0
   -1.7690   21.9890  -27.4570 C   0  0  0  0  0  0  0  0  0  0  0  0
   -0.5900   21.7100  -28.1590 C   0  0  0  0  0  0  0  0  0  0  0  0
   -0.4630   22.0270  -29.4600 N   0  0  0  0  0  0  0  0  0  0  0  0
   -1.4870   22.6300  -30.1240 C   0  0  0  0  0  0  0  0  0  0  0  0
   -4.7440   22.9610  -30.8720 N   0  0  0  0  0  0  0  0  0  0  0  0
   -4.9470   21.5240  -30.8590 C   0  0  0  0  0  0  0  0  0  0  0  0
   -6.5820   20.0880  -33.4720 C   0  0  0  0  0  0  0  0  0  0  0  0
   -5.9860   18.7770  -33.7160 C   0  0  1  0  0  0  0  0  0  0  0  0
   -2.2360   18.8000  -34.1220 C   0  0  0  0  0  0  0  0  0  0  0  0
   -1.0910   19.5590  -34.2560 C   0  0  0  0  0  0  0  0  0  0  0  0
    1.6853   22.2262  -35.1434 H   0  0  0  0  0  0  0  0  0  0  0  0
    0.7119   20.9045  -35.8730 H   0  0  0  0  0  0  0  0  0  0  0  0
    0.0842   22.5876  -35.8730 H   0  0  0  0  0  0  0  0  0  0  0  0
   -2.3405   22.5032  -33.1862 H   0  0  0  0  0  0  0  0  0  0  0  0
   -4.3779   21.1038  -32.9578 H   0  0  0  0  0  0  0  0  0  0  0  0
   -4.1398   16.4737  -33.8845 H   0  0  0  0  0  0  0  0  0  0  0  0
   -3.8487   16.9845  -32.2239 H   0  0  0  0  0  0  0  0  0  0  0  0
   -6.4780   16.2631  -33.5873 H   0  0  0  0  0  0  0  0  0  0  0  0
   -6.0732   15.9860  -31.9336 H   0  0  0  0  0  0  0  0  0  0  0  0
   -6.2580   18.3348  -31.3892 H   0  0  0  0  0  0  0  0  0  0  0  0
   -8.2799   17.7534  -33.5825 H   0  0  0  0  0  0  0  0  0  0  0  0
   -8.6089   18.0226  -31.8964 H   0  0  0  0  0  0  0  0  0  0  0  0
   -8.7215   19.7633  -31.0424 H   0  0  0  0  0  0  0  0  0  0  0  0
   -7.2403   20.7655  -31.2881 H   0  0  0  0  0  0  0  0  0  0  0  0
   -9.2902   21.7155  -33.0334 H   0  0  0  0  0  0  0  0  0  0  0  0
   -9.9546   21.5530  -31.3477 H   0  0  0  0  0  0  0  0  0  0  0  0
   -9.1223   23.7119  -31.6327 H   0  0  0  0  0  0  0  0  0  0  0  0
   -7.9800   22.6743  -30.5590 H   0  0  0  0  0  0  0  0  0  0  0  0
   -3.7710   22.8386  -27.5900 H   0  0  0  0  0  0  0  0  0  0  0  0
   -1.8565   21.7231  -26.3932 H   0  0  0  0  0  0  0  0  0  0  0  0
    0.2471   21.2230  -27.6373 H   0  0  0  0  0  0  0  0  0  0  0  0
   -1.3783   22.8873  -31.1879 H   0  0  0  0  0  0  0  0  0  0  0  0
   -4.9970   21.1702  -29.8187 H   0  0  0  0  0  0  0  0  0  0  0  0
   -5.8883   21.2820  -31.3742 H   0  0  0  0  0  0  0  0  0  0  0  0
   -4.1096   21.0307  -31.3742 H   0  0  0  0  0  0  0  0  0  0  0  0
   -6.6350   20.6767  -34.3997 H   0  0  0  0  0  0  0  0  0  0  0  0
   -6.0028   20.7021  -32.7667 H   0  0  0  0  0  0  0  0  0  0  0  0
   -6.2044   18.5291  -34.7652 H   0  0  0  0  0  0  0  0  0  0  0  0
   -2.1880   17.7358  -34.3961 H   0  0  0  0  0  0  0  0  0  0  0  0
   -0.1623   19.1009  -34.6270 H   0  0  0  0  0  0  0  0  0  0  0  0
  1  2  1  0
  2  3  1  0
  3  4  2  0
  4  5  1  0
  5  6  2  0
  6  7  1  0
  7  8  1  0
  8  9  1  0
  9 10  1  0
 10 11  1  0
 11 12  1  0
 12 13  1  0
 13 14  1  0
 14 15  1  0
 15 16  1  0
 16 17  1  0
 17 18  2  0
 18 19  1  0
 19 20  2  0
 20 21  1  0
 21 22  2  0
 22 23  1  0
 23 24  2  0
 24 25  1  0
 25 26  2  0
 20 27  1  0
 27 28  1  0
 12 29  1  0
 29 30  1  0
  6 31  1  0
 31 32  2  0
 32  3  1  0
 30  7  1  0
 30 10  1  0
 27 17  1  0
 26 21  1  0
  1 33  1  0
  1 34  1  0
  1 35  1  0
  4 36  1  0
  5 37  1  0
  8 38  1  0
  8 39  1  0
  9 40  1  0
  9 41  1  0
 10 42  1  1
 11 43  1  0
 11 44  1  0
 13 45  1  0
 13 46  1  0
 14 47  1  0
 14 48  1  0
 15 49  1  0
 15 50  1  0
 22 51  1  0
 23 52  1  0
 24 53  1  0
 26 54  1  0
 28 55  1  0
 28 56  1  0
 28 57  1  0
 29 58  1  0
 29 59  1  0
 30 60  1  6
 31 61  1  0
 32 62  1  0
M  END
>  <smiles>  (20) 
COc1ccc(N2CCC3CN(CCCSc4nnc(-c5cccnc5)n4C)CC32)cc1

>  <score_type>  (20) 
oracle

>  <origin>  (20) 
adg

>  <m_score__min__energy>  (20) 
-10.82

>  <m_primary>  (20) 
energy

$$$$
25:0
     RDKit          3D

 36 37  0  0  0  0  0  0  0  0999 V2000
   -2.7830   24.9100  -26.8710 C   0  0  0  0  0  0  0  0  0  0  0  0
   -1.5050   25.0000  -27.7390 C   0  0  0  0  0  0  0  0  0  0  0  0
   -1.7570   24.1590  -28.9090 C   0  0  0  0  0  0  0  0  0  0  0  0
   -3.1120   24.1000  -29.4650 C   0  0  0  0  0  0  0  0  0  0  0  0
   -3.4880   24.9130  -30.5070 N   0  0  0  0  0  0  0  0  0  0  0  0
   -4.7440   24.6450  -30.7980 N   0  0  0  0  0  0  0  0  0  0  0  0
   -5.1710   23.6970  -29.9790 C   0  0  0  0  0  0  0  0  0  0  0  0
   -6.8030   22.9730  -29.9580 S   0  0  0  0  0  0  0  0  0  0  0  0
   -7.4780   23.0370  -31.6290 C   0  0  0  0  0  0  0  0  0  0  0  0
   -8.4910   21.9660  -31.8160 C   0  0  0  0  0  0  0  0  0  0  0  0
   -9.7310   22.1770  -31.7250 O   0  0  0  0  0  0  0  0  0  0  0  0
   -8.0460   20.6090  -32.1200 C   0  0  0  0  0  0  0  0  0  0  0  0
   -6.9340   20.4060  -32.9200 C   0  0  0  0  0  0  0  0  0  0  0  0
   -6.5140   19.1010  -33.2050 C   0  0  0  0  0  0  0  0  0  0  0  0
   -7.1870   18.0130  -32.7040 C   0  0  0  0  0  0  0  0  0  0  0  0
   -6.7470   16.7570  -33.0050 F   0  0  0  0  0  0  0  0  0  0  0  0
   -8.2930   18.2160  -31.9080 C   0  0  0  0  0  0  0  0  0  0  0  0
   -8.7180   19.5130  -31.6200 C   0  0  0  0  0  0  0  0  0  0  0  0
   -4.1770   23.3430  -29.1440 N   0  0  0  0  0  0  0  0  0  0  0  0
   -4.2220   22.3600  -28.1140 C   0  0  0  0  0  0  0  0  0  0  0  0
   -2.5055   24.9295  -25.8067 H   0  0  0  0  0  0  0  0  0  0  0  0
   -3.4390   25.7642  -27.0946 H   0  0  0  0  0  0  0  0  0  0  0  0
   -3.3128   23.9723  -27.0946 H   0  0  0  0  0  0  0  0  0  0  0  0
   -1.3238   26.0403  -28.0471 H   0  0  0  0  0  0  0  0  0  0  0  0
   -0.6153   24.6662  -27.1849 H   0  0  0  0  0  0  0  0  0  0  0  0
   -1.0950   24.5167  -29.7113 H   0  0  0  0  0  0  0  0  0  0  0  0
   -1.5785   23.1375  -28.5421 H   0  0  0  0  0  0  0  0  0  0  0  0
   -7.9509   24.0166  -31.7923 H   0  0  0  0  0  0  0  0  0  0  0  0
   -6.6617   22.8883  -32.3512 H   0  0  0  0  0  0  0  0  0  0  0  0
   -6.3834   21.2657  -33.3295 H   0  0  0  0  0  0  0  0  0  0  0  0
   -5.6302   18.9442  -33.8408 H   0  0  0  0  0  0  0  0  0  0  0  0
   -8.8414   17.3545  -31.4992 H   0  0  0  0  0  0  0  0  0  0  0  0
   -9.6028   19.6642  -30.9842 H   0  0  0  0  0  0  0  0  0  0  0  0
   -4.1993   22.8561  -27.1325 H   0  0  0  0  0  0  0  0  0  0  0  0
   -5.1479   21.7735  -28.2071 H   0  0  0  0  0  0  0  0  0  0  0  0
   -3.3535   21.6914  -28.2071 H   0  0  0  0  0  0  0  0  0  0  0  0
  1  2  1  0
  2  3  1  0
  3  4  1  0
  4  5  2  0
  5  6  1  0
  6  7  2  0
  7  8  1  0
  8  9  1  0
  9 10  1  0
 10 11  2  0
 10 12  1  0
 12 13  2  0
 13 14  1  0
 14 15  2  0
 15 16  1  0
 15 17  1  0
 17 18  2  0
  7 19  1  0
 19 20  1  0
 19  4  1  0
 18 12  1  0
  1 21  1  0
  1 22  1  0
  1 23  1  0
  2 24  1  0
  2 25  1  0
  3 26  1  0
  3 27  1  0
  9 28  1  0
  9 29  1  0
 13 30  1  0
 14 31  1  0
 17 32  1  0
 18 33  1  0
 20 34  1  0
 20 35  1  0
 20 36  1  0
M  END
>  <smiles>  (21) 
CCCc1nnc(SCC(=O)c2ccc(F)cc2)n1C

>  <score_type>  (21) 
oracle

>  <origin>  (21) 
adg

>  <m_score__min__energy>  (21) 
-7.9500000000000002

>  <m_primary>  (21) 
energy

$$$$
26:0
     RDKit          3D

 84 87  0  0  0  0  0  0  0  0999 V2000
   -0.8110   22.0860  -25.7100 C   0  0  0  0  0  0  0  0  0  0  0  0
   -0.6010   23.5530  -25.9890 C   0  0  0  0  0  0  0  0  0  0  0  0
   -1.7010   24.2460  -26.3520 O   0  0  0  0  0  0  0  0  0  0  0  0
   -1.6680   25.5760  -26.5720 C   0  0  0  0  0  0  0  0  0  0  0  0
   -1.0690   26.0430  -27.8510 C   0  0  0  0  0  0  0  0  0  0  0  0
   -1.6210   25.6780  -29.0280 O   0  0  0  0  0  0  0  0  0  0  0  0
   -1.7650   24.3560  -29.3130 C   0  0  0  0  0  0  0  0  0  0  0  0
   -3.2260   23.9470  -29.4710 C   0  0  0  0  0  0  0  0  0  0  0  0
   -3.5440   23.7750  -30.8390 O   0  0  0  0  0  0  0  0  0  0  0  0
   -4.6310   22.9940  -31.2020 C   0  0  0  0  0  0  0  0  0  0  0  0
   -4.5970   21.6150  -31.2140 C   0  0  0  0  0  0  0  0  0  0  0  0
   -5.6650   20.8420  -31.5710 C   0  0  0  0  0  0  0  0  0  0  0  0
   -6.8300   21.5250  -31.9340 C   0  0  0  0  0  0  0  0  0  0  0  0
   -6.8990   22.9040  -31.9330 C   0  0  0  0  0  0  0  0  0  0  0  0
   -5.7840   23.6590  -31.5620 C   0  0  0  0  0  0  0  0  0  0  0  0
   -5.8270   25.0250  -31.5520 O   0  0  0  0  0  0  0  0  0  0  0  0
   -5.7530   25.8430  -30.4270 C   0  0  0  0  0  0  0  0  0  0  0  0
   -8.0580   20.7950  -32.3420 C   0  0  0  0  0  0  0  0  0  0  0  0
   -7.5990   19.4560  -32.8860 C   0  0  0  0  0  0  0  0  0  0  0  0
   -6.7870   18.7290  -31.9810 N   0  0  0  0  0  0  0  0  0  0  0  0
   -6.6220   17.3580  -32.3180 C   0  0  0  0  0  0  0  0  0  0  0  0
   -6.8190   17.0860  -33.7780 C   0  0  0  0  0  0  0  0  0  0  0  0
   -5.5330   16.7230  -34.4410 C   0  0  0  0  0  0  0  0  0  0  0  0
   -4.9890   17.8060  -35.3170 C   0  0  0  0  0  0  0  0  0  0  0  0
   -4.3130   18.8460  -34.5360 N   0  0  0  0  0  0  0  0  0  0  0  0
   -3.1310   18.5750  -33.8020 C   0  0  0  0  0  0  0  0  0  0  0  0
   -2.5980   17.4210  -33.7830 O   0  0  0  0  0  0  0  0  0  0  0  0
   -2.4910   19.6400  -33.0380 C   0  0  0  0  0  0  0  0  0  0  0  0
   -1.7870   19.5390  -31.8390 C   0  0  0  0  0  0  0  0  0  0  0  0
   -1.3540   20.7740  -31.4720 N   0  0  0  0  0  0  0  0  0  0  0  0
   -0.5890   21.1240  -30.2970 C   0  0  0  0  0  0  0  0  0  0  0  0
   -1.2940   20.5190  -29.1240 C   0  0  0  0  0  0  0  0  0  0  0  0
   -0.6500   19.4840  -28.4610 C   0  0  0  0  0  0  0  0  0  0  0  0
   -1.2180   18.8550  -27.3630 C   0  0  0  0  0  0  0  0  0  0  0  0
   -2.4670   19.3170  -26.9630 C   0  0  0  0  0  0  0  0  0  0  0  0
   -3.0890   18.6420  -25.7770 C   0  0  0  0  0  0  0  0  0  0  0  0
   -3.1150   20.3490  -27.6200 C   0  0  0  0  0  0  0  0  0  0  0  0
   -2.5260   20.9640  -28.7190 C   0  0  0  0  0  0  0  0  0  0  0  0
   -1.7760   21.6030  -32.4090 N   0  0  0  0  0  0  0  0  0  0  0  0
   -2.4490   20.9510  -33.3410 N   0  0  0  0  0  0  0  0  0  0  0  0
   -5.5790   19.3660  -31.5660 C   0  0  0  0  0  0  0  0  0  0  0  0
   -0.8349   21.9192  -24.6230 H   0  0  0  0  0  0  0  0  0  0  0  0
   -1.7647   21.7616  -26.1518 H   0  0  0  0  0  0  0  0  0  0  0  0
    0.0134   21.5071  -26.1518 H   0  0  0  0  0  0  0  0  0  0  0  0
   -0.1968   24.0155  -25.0764 H   0  0  0  0  0  0  0  0  0  0  0  0
    0.0786   23.5982  -26.8527 H   0  0  0  0  0  0  0  0  0  0  0  0
   -2.7050   25.9416  -26.5403 H   0  0  0  0  0  0  0  0  0  0  0  0
   -1.0062   25.9746  -25.7890 H   0  0  0  0  0  0  0  0  0  0  0  0
   -1.0785   27.1426  -27.8233 H   0  0  0  0  0  0  0  0  0  0  0  0
   -0.0878   25.5460  -27.8670 H   0  0  0  0  0  0  0  0  0  0  0  0
   -1.2344   24.1379  -30.2515 H   0  0  0  0  0  0  0  0  0  0  0  0
   -1.3481   23.7855  -28.4699 H   0  0  0  0  0  0  0  0  0  0  0  0
   -3.3974   23.0007  -28.9371 H   0  0  0  0  0  0  0  0  0  0  0  0
   -3.8656   24.7379  -29.0523 H   0  0  0  0  0  0  0  0  0  0  0  0
   -3.6631   21.1128  -30.9214 H   0  0  0  0  0  0  0  0  0  0  0  0
   -7.8322   23.4081  -32.2244 H   0  0  0  0  0  0  0  0  0  0  0  0
   -5.8090   25.2241  -29.5193 H   0  0  0  0  0  0  0  0  0  0  0  0
   -4.8013   26.3945  -30.4366 H   0  0  0  0  0  0  0  0  0  0  0  0
   -6.5903   26.5564  -30.4366 H   0  0  0  0  0  0  0  0  0  0  0  0
   -8.7185   20.6472  -31.4749 H   0  0  0  0  0  0  0  0  0  0  0  0
   -8.6250   21.3591  -33.0971 H   0  0  0  0  0  0  0  0  0  0  0  0
   -8.4878   18.8515  -33.1198 H   0  0  0  0  0  0  0  0  0  0  0  0
   -6.9884   19.6602  -33.7779 H   0  0  0  0  0  0  0  0  0  0  0  0
   -5.6043   17.0483  -32.0380 H   0  0  0  0  0  0  0  0  0  0  0  0
   -7.3892   16.7902  -31.7712 H   0  0  0  0  0  0  0  0  0  0  0  0
   -7.5294   16.2543  -33.8947 H   0  0  0  0  0  0  0  0  0  0  0  0
   -7.2075   17.9996  -34.2516 H   0  0  0  0  0  0  0  0  0  0  0  0
   -4.7900   16.4992  -33.6614 H   0  0  0  0  0  0  0  0  0  0  0  0
   -5.7343   15.8548  -35.0857 H   0  0  0  0  0  0  0  0  0  0  0  0
   -4.2694   17.3658  -36.0230 H   0  0  0  0  0  0  0  0  0  0  0  0
   -5.8309   18.2707  -35.8511 H   0  0  0  0  0  0  0  0  0  0  0  0
   -4.6780   19.8310  -34.4900 H   0  0  0  0  0  0  0  0  0  0  0  0
   -1.6102   18.6086  -31.2794 H   0  0  0  0  0  0  0  0  0  0  0  0
    0.4310   20.7196  -30.3752 H   0  0  0  0  0  0  0  0  0  0  0  0
   -0.5101   22.2158  -30.1890 H   0  0  0  0  0  0  0  0  0  0  0  0
    0.3374   19.1535  -28.8157 H   0  0  0  0  0  0  0  0  0  0  0  0
   -0.7078   18.0347  -26.8369 H   0  0  0  0  0  0  0  0  0  0  0  0
   -2.6853   19.0801  -24.8523 H   0  0  0  0  0  0  0  0  0  0  0  0
   -4.1794   18.7840  -25.8044 H   0  0  0  0  0  0  0  0  0  0  0  0
   -2.8585   17.5668  -25.8044 H   0  0  0  0  0  0  0  0  0  0  0  0
   -4.1024   20.6846  -27.2702 H   0  0  0  0  0  0  0  0  0  0  0  0
   -3.0337   21.7838  -29.2483 H   0  0  0  0  0  0  0  0  0  0  0  0
   -5.3419   19.0335  -30.5446 H   0  0  0  0  0  0  0  0  0  0  0  0
   -4.7971   19.0826  -32.2859 H   0  0  0  0  0  0  0  0  0  0  0  0
  1  2  1  0
  2  3  1  0
  3  4  1  0
  4  5  1  0
  5  6  1  0
  6  7  1  0
  7  8  1  0
  8  9  1  0
  9 10  1  0
 10 11  2  0
 11 12  1  0
 12 13  2  0
 13 14  1  0
 14 15  2  0
 15 16  1  0
 16 17  1  0
 13 18  1  0
 18 19  1  0
 19 20  1  0
 20 21  1  0
 21 22  1  0
 22 23  1  0
 23 24  1  0
 24 25  1  0
 25 26  1  0
 26 27  2  0
 26 28  1  0
 28 29  2  0
 29 30  1  0
 30 31  1  0
 31 32  1  0
 32 33  2  0
 33 34  1  0
 34 35  2  0
 35 36  1  0
 35 37  1  0
 37 38  2  0
 30 39  1  0
 39 40  2  0
 20 41  1  0
 15 10  1  0
 40 28  1  0
 41 12  1  0
 38 32  1  0
  1 42  1  0
  1 43  1  0
  1 44  1  0
  2 45  1  0
  2 46  1  0
  4 47  1  0
  4 48  1  0
  5 49  1  0
  5 50  1  0
  7 51  1  0
  7 52  1  0
  8 53  1  0
  8 54  1  0
 11 55  1  0
 14 56  1  0
 17 57  1  0
 17 58  1  0
 17 59  1  0
 18 60  1  0
 18 61  1  0
 19 62  1  0
 19 63  1  0
 21 64  1  0
 21 65  1  0
 22 66  1  0
 22 67  1  0
 23 68  1  0
 23 69  1  0
 24 70  1  0
 24 71  1  0
 25 72  1  0
 29 73  1  0
 31 74  1  0
 31 75  1  0
 33 76  1  0
 34 77  1  0
 36 78  1  0
 36 79  1  0
 36 80  1  0
 37 81  1  0
 38 82  1  0
 41 83  1  0
 41 84  1  0
M  END
>  <smiles>  (22) 
CCOCCOCCOc1cc2c(cc1OC)CCN(CCCCNC(=O)c1cn(Cc3ccc(C)cc3)nn1)C2

>  <score_type>  (22) 
oracle

>  <origin>  (22) 
adg

>  <m_score__min__energy>  (22) 
-11.41

>  <m_primary>  (22) 
energy

$$$$
27:0
     RDKit          3D

 60 62  0  0  0  0  0  0  0  0999 V2000
   -0.9840   26.3390  -26.6280 C   0  0  0  0  0  0  0  0  0  0  0  0
   -0.8740   26.4300  -28.1190 C   0  0  0  0  0  0  0  0  0  0  0  0
   -1.7550   25.6630  -28.8310 O   0  0  0  0  0  0  0  0  0  0  0  0
   -2.4290   24.7100  -28.1130 C   0  0  0  0  0  0  0  0  0  0  0  0
   -2.7490   23.4520  -28.9110 C   0  0  0  0  0  0  0  0  0  0  0  0
   -2.0910   23.4380  -30.1800 N   0  0  0  0  0  0  0  0  0  0  0  0
   -1.7560   22.1270  -30.6840 C   0  0  0  0  0  0  0  0  0  0  0  0
   -2.9870   21.4640  -31.1930 C   0  0  0  0  0  0  0  0  0  0  0  0
   -3.0630   21.5070  -32.7300 C   0  0  0  0  0  0  0  0  0  0  0  0
   -4.3890   21.7430  -33.2090 N   0  0  0  0  0  0  0  0  0  0  0  0
   -5.5020   20.9320  -32.9540 C   0  0  0  0  0  0  0  0  0  0  0  0
   -5.3960   19.5840  -33.3260 C   0  0  0  0  0  0  0  0  0  0  0  0
   -4.2220   19.1380  -33.9030 C   0  0  0  0  0  0  0  0  0  0  0  0
   -4.0920   17.8060  -34.2780 C   0  0  0  0  0  0  0  0  0  0  0  0
   -5.1530   16.9890  -34.0510 C   0  0  0  0  0  0  0  0  0  0  0  0
   -6.3420   17.4380  -33.4660 C   0  0  0  0  0  0  0  0  0  0  0  0
   -6.4810   18.7540  -33.0930 C   0  0  0  0  0  0  0  0  0  0  0  0
   -7.6170   19.1540  -32.5380 N   0  0  0  0  0  0  0  0  0  0  0  0
   -8.7680   18.3350  -32.2820 C   0  0  0  0  0  0  0  0  0  0  0  0
   -7.7070   20.4580  -32.1830 C   0  0  0  0  0  0  0  0  0  0  0  0
   -8.8800   20.9340  -31.5850 C   0  0  0  0  0  0  0  0  0  0  0  0
   -9.0270   22.2440  -31.1960 C   0  0  0  0  0  0  0  0  0  0  0  0
   -7.9700   23.1140  -31.4070 C   0  0  0  0  0  0  0  0  0  0  0  0
   -6.7940   22.7020  -31.9900 C   0  0  0  0  0  0  0  0  0  0  0  0
   -5.7190   23.5350  -32.2150 O   0  0  0  0  0  0  0  0  0  0  0  0
   -5.0550   24.1170  -31.1180 C   0  0  0  0  0  0  0  0  0  0  0  0
   -5.7510   25.3110  -30.5360 C   0  0  0  0  0  0  0  0  0  0  0  0
   -6.6800   21.3590  -32.3750 C   0  0  0  0  0  0  0  0  0  0  0  0
   -0.2155   26.9748  -26.1642 H   0  0  0  0  0  0  0  0  0  0  0  0
   -1.9812   26.6797  -26.3124 H   0  0  0  0  0  0  0  0  0  0  0  0
   -0.8362   25.2957  -26.3124 H   0  0  0  0  0  0  0  0  0  0  0  0
   -1.0335   27.4801  -28.4053 H   0  0  0  0  0  0  0  0  0  0  0  0
    0.1255   26.0439  -28.3679 H   0  0  0  0  0  0  0  0  0  0  0  0
   -1.8109   24.4249  -27.2489 H   0  0  0  0  0  0  0  0  0  0  0  0
   -3.3903   25.1536  -27.8144 H   0  0  0  0  0  0  0  0  0  0  0  0
   -2.4247   22.5737  -28.3336 H   0  0  0  0  0  0  0  0  0  0  0  0
   -3.8339   23.4325  -29.0918 H   0  0  0  0  0  0  0  0  0  0  0  0
   -1.2630   24.0830  -30.1240 H   0  0  0  0  0  0  0  0  0  0  0  0
   -1.0263   22.2235  -31.5015 H   0  0  0  0  0  0  0  0  0  0  0  0
   -1.3207   21.5223  -29.8747 H   0  0  0  0  0  0  0  0  0  0  0  0
   -2.9878   20.4139  -30.8653 H   0  0  0  0  0  0  0  0  0  0  0  0
   -3.8578   22.0030  -30.7915 H   0  0  0  0  0  0  0  0  0  0  0  0
   -2.4088   22.3136  -33.0925 H   0  0  0  0  0  0  0  0  0  0  0  0
   -2.7429   20.5243  -33.1067 H   0  0  0  0  0  0  0  0  0  0  0  0
   -4.5450   22.6060  -33.8110 H   0  0  0  0  0  0  0  0  0  0  0  0
   -3.3894   19.8382  -34.0657 H   0  0  0  0  0  0  0  0  0  0  0  0
   -3.1676   17.4289  -34.7398 H   0  0  0  0  0  0  0  0  0  0  0  0
   -5.0742   15.9303  -34.3391 H   0  0  0  0  0  0  0  0  0  0  0  0
   -7.1710   16.7335  -33.3034 H   0  0  0  0  0  0  0  0  0  0  0  0
   -8.9113   18.2330  -31.1961 H   0  0  0  0  0  0  0  0  0  0  0  0
   -9.6580   18.8040  -32.7269 H   0  0  0  0  0  0  0  0  0  0  0  0
   -8.6166   17.3404  -32.7269 H   0  0  0  0  0  0  0  0  0  0  0  0
   -9.7133   20.2350  -31.4207 H   0  0  0  0  0  0  0  0  0  0  0  0
   -9.9600   22.5926  -30.7291 H   0  0  0  0  0  0  0  0  0  0  0  0
   -8.0739   24.1650  -31.0994 H   0  0  0  0  0  0  0  0  0  0  0  0
   -4.9602   23.3557  -30.3297 H   0  0  0  0  0  0  0  0  0  0  0  0
   -4.0825   24.4709  -31.4909 H   0  0  0  0  0  0  0  0  0  0  0  0
   -5.7185   25.2552  -29.4379 H   0  0  0  0  0  0  0  0  0  0  0  0
   -5.2466   26.2291  -30.8716 H   0  0  0  0  0  0  0  0  0  0  0  0
   -6.7985   25.3245  -30.8716 H   0  0  0  0  0  0  0  0  0  0  0  0
  1  2  1  0
  2  3  1  0
  3  4  1  0
  4  5  1  0
  5  6  1  0
  6  7  1  0
  7  8  1  0
  8  9  1  0
  9 10  1  0
 10 11  1  0
 11 12  2  0
 12 13  1  0
 13 14  2  0
 14 15  1  0
 15 16  2  0
 16 17  1  0
 17 18  2  0
 18 19  1  0
 18 20  1  0
 20 21  2  0
 21 22  1  0
 22 23  2  0
 23 24  1  0
 24 25  1  0
 25 26  1  0
 26 27  1  0
 24 28  2  0
 28 11  1  0
 17 12  1  0
 28 20  1  0
  1 29  1  0
  1 30  1  0
  1 31  1  0
  2 32  1  0
  2 33  1  0
  4 34  1  0
  4 35  1  0
  5 36  1  0
  5 37  1  0
  6 38  1  0
  7 39  1  0
  7 40  1  0
  8 41  1  0
  8 42  1  0
  9 43  1  0
  9 44  1  0
 10 45  1  0
 13 46  1  0
 14 47  1  0
 15 48  1  0
 16 49  1  0
 19 50  1  0
 19 51  1  0
 19 52  1  0
 21 53  1  0
 22 54  1  0
 23 55  1  0
 26 56  1  0
 26 57  1  0
 27 58  1  0
 27 59  1  0
 27 60  1  0
M  CHG  1  18   1
M  END
>  <smiles>  (23) 
CCOCCNCCCNc1c2ccccc2[n+](C)c2cccc(OCC)c12

>  <score_type>  (23) 
oracle

>  <origin>  (23) 
adg

>  <m_score__min__energy>  (23) 
-9.2899999999999991

>  <m_primary>  (23) 
energy

$$$$
