0:0
     RDKit          3D

 51 53  0  0  0  0  0  0  0  0999 V2000
   -0.5810   23.8360  -29.1850 C   0  0  0  0  0  0  0  0  0  0  0  0
   -1.5900   24.8880  -28.9680 N   0  0  0  0  0  0  0  0  0  0  0  0
   -1.2590   25.6370  -27.7450 C   0  0  0  0  0  0  0  0  0  0  0  0
   -2.9510   24.3150  -28.8520 C   0  0  0  0  0  0  0  0  0  0  0  0
   -3.5940   24.0930  -30.2290 C   0  0  0  0  0  0  0  0  0  0  0  0
   -4.2440   25.3260  -30.6990 N   0  0  0  0  0  0  0  0  0  0  0  0
   -5.6910   25.1550  -30.9020 C   0  0  0  0  0  0  0  0  0  0  0  0
   -6.1030   23.6780  -30.9840 C   0  0  0  0  0  0  0  0  0  0  0  0
   -5.9130   23.1800  -32.3450 N   0  0  0  0  0  0  0  0  0  0  0  0
   -5.9050   21.7680  -32.6200 C   0  0  0  0  0  0  0  0  0  0  0  0
   -7.0990   21.0280  -32.5430 C   0  0  0  0  0  0  0  0  0  0  0  0
   -8.2950   21.6310  -32.0990 C   0  0  0  0  0  0  0  0  0  0  0  0
   -9.4660   20.8870  -31.9800 C   0  0  0  0  0  0  0  0  0  0  0  0
   -9.4620   19.5300  -32.2790 C   0  0  0  0  0  0  0  0  0  0  0  0
   -8.2910   18.9110  -32.7170 C   0  0  0  0  0  0  0  0  0  0  0  0
   -7.0910   19.6490  -32.8840 C   0  0  0  0  0  0  0  0  0  0  0  0
   -5.9310   19.0550  -33.3450 N   0  0  0  0  0  0  0  0  0  0  0  0
   -5.9840   17.7140  -33.9700 C   0  0  0  0  0  0  0  0  0  0  0  0
   -4.7250   19.7220  -33.2420 C   0  0  0  0  0  0  0  0  0  0  0  0
   -3.4860   19.0610  -33.4450 C   0  0  0  0  0  0  0  0  0  0  0  0
   -2.2810   19.7600  -33.4000 C   0  0  0  0  0  0  0  0  0  0  0  0
   -2.2730   21.1250  -33.1390 C   0  0  0  0  0  0  0  0  0  0  0  0
   -3.4680   21.7940  -32.8920 C   0  0  0  0  0  0  0  0  0  0  0  0
   -4.7000   21.1050  -32.9130 C   0  0  0  0  0  0  0  0  0  0  0  0
   -0.2243   23.4641  -28.2132 H   0  0  0  0  0  0  0  0  0  0  0  0
   -1.0310   23.0077  -29.7519 H   0  0  0  0  0  0  0  0  0  0  0  0
    0.2654   24.2511  -29.7519 H   0  0  0  0  0  0  0  0  0  0  0  0
   -1.5249   25.0354  -26.8633 H   0  0  0  0  0  0  0  0  0  0  0  0
   -0.1809   25.8547  -27.7288 H   0  0  0  0  0  0  0  0  0  0  0  0
   -1.8239   26.5807  -27.7288 H   0  0  0  0  0  0  0  0  0  0  0  0
   -2.8878   23.3497  -28.3284 H   0  0  0  0  0  0  0  0  0  0  0  0
   -3.5759   25.0269  -28.2929 H   0  0  0  0  0  0  0  0  0  0  0  0
   -2.8161   23.7971  -30.9483 H   0  0  0  0  0  0  0  0  0  0  0  0
   -4.3528   23.3011  -30.1438 H   0  0  0  0  0  0  0  0  0  0  0  0
   -3.7990   25.6270  -31.5980 H   0  0  0  0  0  0  0  0  0  0  0  0
   -6.2230   25.6234  -30.0608 H   0  0  0  0  0  0  0  0  0  0  0  0
   -5.9523   25.6285  -31.8599 H   0  0  0  0  0  0  0  0  0  0  0  0
   -5.4848   23.0885  -30.2909 H   0  0  0  0  0  0  0  0  0  0  0  0
   -7.1642   23.5838  -30.7103 H   0  0  0  0  0  0  0  0  0  0  0  0
   -6.0480   23.8470  -33.1380 H   0  0  0  0  0  0  0  0  0  0  0  0
   -8.3024   22.7010  -31.8440 H   0  0  0  0  0  0  0  0  0  0  0  0
  -10.3951   21.3740  -31.6490 H   0  0  0  0  0  0  0  0  0  0  0  0
  -10.3852   18.9419  -32.1700 H   0  0  0  0  0  0  0  0  0  0  0  0
   -8.2983   17.8331  -32.9364 H   0  0  0  0  0  0  0  0  0  0  0  0
   -6.0144   16.9444  -33.1847 H   0  0  0  0  0  0  0  0  0  0  0  0
   -6.8859   17.6361  -34.5949 H   0  0  0  0  0  0  0  0  0  0  0  0
   -5.0910   17.5651  -34.5949 H   0  0  0  0  0  0  0  0  0  0  0  0
   -3.4763   17.9787  -33.6412 H   0  0  0  0  0  0  0  0  0  0  0  0
   -1.3329   19.2293  -33.5717 H   0  0  0  0  0  0  0  0  0  0  0  0
   -1.3215   21.6769  -33.1277 H   0  0  0  0  0  0  0  0  0  0  0  0
   -3.4524   22.8728  -32.6778 H   0  0  0  0  0  0  0  0  0  0  0  0
  1  2  1  0
  2  3  1  0
  2  4  1  0
  4  5  1  0
  5  6  1  0
  6  7  1  0
  7  8  1  0
  8  9  1  0
  9 10  1  0
 10 11  2  0
 11 12  1  0
 12 13  2  0
 13 14  1  0
 14 15  2  0
 15 16  1  0
 16 17  2  0
 17 18  1  0
 17 19  1  0
 19 20  2  0
 20 21  1  0
 21 22  2  0
 22 23  1  0
 23 24  2  0
 24 10  1  0
 16 11  1  0
 24 19  1  0
  1 25  1  0
  1 26  1  0
  1 27  1  0
  3 28  1  0
  3 29  1  0
  3 30  1  0
  4 31  1  0
  4 32  1  0
  5 33  1  0
  5 34  1  0
  6 35  1  0
  7 36  1  0
  7 37  1  0
  8 38  1  0
  8 39  1  0
  9 40  1  0
 12 41  1  0
 13 42  1  0
 14 43  1  0
 15 44  1  0
 18 45  1  0
 18 46  1  0
 18 47  1  0
 20 48  1  0
 21 49  1  0
 22 50  1  0
 23 51  1  0
M  CHG  1  17   1
M  END
>  <UniqueID>  (1) 
1

>  <SMILES>  (1) 
CN(C)CCNCCNc1c2ccccc2[n+](C)c2ccccc12

>  <Energy>  (1) 
76.56051337929436

>  <Genealogy>  (1) 
CN(C)CCNCCNc1c2ccccc2[n+](C)c2ccccc12 (3D coordinates assigned)
CN(C)CCNCCNc1c2ccccc2[n+](C)c2ccccc12 (optimized conformer: 76.56051337929436 kcal/mol)

>  <smiles>  (1) 
CN(C)CCNCCNc1c2ccccc2[n+](C)c2ccccc12

>  <score_type>  (1) 
oracle

>  <origin>  (1) 
adg

>  <m_score__min__energy>  (1) 
-9.1300000000000008

>  <m_primary>  (1) 
energy

$$$$
1:0
     RDKit          3D

 62 64  0  0  0  0  0  0  0  0999 V2000
   -6.4700   25.6740  -29.6260 C   0  0  0  0  0  0  0  0  0  0  0  0
   -5.5330   25.5460  -30.8260 C   0  0  0  0  0  0  0  0  0  0  0  0
   -4.6510   24.3600  -30.7160 N   0  0  0  0  0  0  0  0  0  0  0  0
   -3.4850   24.5600  -29.8170 C   0  0  0  0  0  0  0  0  0  0  0  0
   -3.4210   23.5800  -28.6380 C   0  0  0  0  0  0  0  0  0  0  0  0
   -5.4140   23.1430  -30.3630 C   0  0  0  0  0  0  0  0  0  0  0  0
   -6.2400   22.6250  -31.5510 C   0  0  0  0  0  0  0  0  0  0  0  0
   -5.4070   22.3150  -32.7200 N   0  0  0  0  0  0  0  0  0  0  0  0
   -4.8820   21.0030  -32.9780 C   0  0  0  0  0  0  0  0  0  0  0  0
   -5.7310   19.9270  -33.2950 C   0  0  0  0  0  0  0  0  0  0  0  0
   -5.1730   18.6670  -33.6220 C   0  0  0  0  0  0  0  0  0  0  0  0
   -3.8020   18.5150  -33.7560 N   0  0  0  0  0  0  0  0  0  0  0  0
   -3.2650   17.2300  -34.2420 C   0  0  0  0  0  0  0  0  0  0  0  0
   -2.9750   19.5520  -33.3640 C   0  0  0  0  0  0  0  0  0  0  0  0
   -3.5090   20.7530  -32.9420 C   0  0  0  0  0  0  0  0  0  0  0  0
   -2.4640   21.5730  -32.3730 C   0  0  0  0  0  0  0  0  0  0  0  0
   -2.6460   22.6520  -31.7510 O   0  0  0  0  0  0  0  0  0  0  0  0
   -1.1550   20.8880  -32.4580 C   0  0  0  0  0  0  0  0  0  0  0  0
   -1.4410   19.5830  -33.2780 C   0  0  1  0  0  0  0  0  0  0  0  0
   -0.8790   18.3670  -32.4990 C   0  0  0  0  0  0  0  0  0  0  0  0
   -0.8290   19.7390  -34.7070 C   0  0  0  0  0  0  0  0  0  0  0  0
   -0.1100   21.0730  -34.9400 C   0  0  0  0  0  0  0  0  0  0  0  0
   -6.1550   17.5260  -33.8470 C   0  0  0  0  0  0  0  0  0  0  0  0
   -7.2760   17.5480  -32.7930 C   0  0  0  0  0  0  0  0  0  0  0  0
   -7.9260   18.9360  -32.5870 C   0  0  0  0  0  0  0  0  0  0  0  0
   -7.2370   20.0690  -33.3580 C   0  0  0  0  0  0  0  0  0  0  0  0
   -5.8878   25.5945  -28.6961 H   0  0  0  0  0  0  0  0  0  0  0  0
   -6.9768   26.6497  -29.6590 H   0  0  0  0  0  0  0  0  0  0  0  0
   -7.2200   24.8700  -29.6590 H   0  0  0  0  0  0  0  0  0  0  0  0
   -6.1373   25.4559  -31.7407 H   0  0  0  0  0  0  0  0  0  0  0  0
   -4.8959   26.4422  -30.8575 H   0  0  0  0  0  0  0  0  0  0  0  0
   -2.5672   24.4434  -30.4121 H   0  0  0  0  0  0  0  0  0  0  0  0
   -3.5895   25.5661  -29.3849 H   0  0  0  0  0  0  0  0  0  0  0  0
   -3.4576   24.1410  -27.6925 H   0  0  0  0  0  0  0  0  0  0  0  0
   -4.2760   22.8897  -28.6882 H   0  0  0  0  0  0  0  0  0  0  0  0
   -2.4835   23.0068  -28.6882 H   0  0  0  0  0  0  0  0  0  0  0  0
   -4.7091   22.3587  -30.0500 H   0  0  0  0  0  0  0  0  0  0  0  0
   -6.1078   23.3977  -29.5483 H   0  0  0  0  0  0  0  0  0  0  0  0
   -6.7687   21.7113  -31.2418 H   0  0  0  0  0  0  0  0  0  0  0  0
   -6.9433   23.4192  -31.8418 H   0  0  0  0  0  0  0  0  0  0  0  0
   -5.0750   23.1130  -33.3060 H   0  0  0  0  0  0  0  0  0  0  0  0
   -2.9998   16.5953  -33.3836 H   0  0  0  0  0  0  0  0  0  0  0  0
   -4.0261   16.7219  -34.8524 H   0  0  0  0  0  0  0  0  0  0  0  0
   -2.3687   17.4145  -34.8524 H   0  0  0  0  0  0  0  0  0  0  0  0
   -0.4198   21.5196  -32.9781 H   0  0  0  0  0  0  0  0  0  0  0  0
   -0.7334   20.6716  -31.4653 H   0  0  0  0  0  0  0  0  0  0  0  0
   -0.9647   18.5525  -31.4182 H   0  0  0  0  0  0  0  0  0  0  0  0
   -1.4519   17.4658  -32.7629 H   0  0  0  0  0  0  0  0  0  0  0  0
    0.1786   18.2194  -32.7629 H   0  0  0  0  0  0  0  0  0  0  0  0
   -0.1056   18.9252  -34.8633 H   0  0  0  0  0  0  0  0  0  0  0  0
   -1.6690   19.7043  -35.4164 H   0  0  0  0  0  0  0  0  0  0  0  0
    0.1367   21.5308  -33.9707 H   0  0  0  0  0  0  0  0  0  0  0  0
    0.8152   20.8965  -35.5082 H   0  0  0  0  0  0  0  0  0  0  0  0
   -0.7661   21.7488  -35.5082 H   0  0  0  0  0  0  0  0  0  0  0  0
   -6.6001   17.6265  -34.8479 H   0  0  0  0  0  0  0  0  0  0  0  0
   -5.6115   16.5735  -33.7611 H   0  0  0  0  0  0  0  0  0  0  0  0
   -8.0598   16.8435  -33.1084 H   0  0  0  0  0  0  0  0  0  0  0  0
   -6.8136   17.2703  -31.8343 H   0  0  0  0  0  0  0  0  0  0  0  0
   -8.9735   18.8798  -32.9179 H   0  0  0  0  0  0  0  0  0  0  0  0
   -7.8315   19.1758  -31.5176 H   0  0  0  0  0  0  0  0  0  0  0  0
   -7.5582   20.0364  -34.4096 H   0  0  0  0  0  0  0  0  0  0  0  0
   -7.5192   21.0284  -32.8998 H   0  0  0  0  0  0  0  0  0  0  0  0
  1  2  1  0
  2  3  1  0
  3  4  1  0
  4  5  1  0
  3  6  1  0
  6  7  1  0
  7  8  1  0
  8  9  1  0
  9 10  2  0
 10 11  1  0
 11 12  2  0
 12 13  1  0
 12 14  1  0
 14 15  2  0
 15 16  1  0
 16 17  2  0
 16 18  1  0
 18 19  1  0
 19 20  1  1
 19 21  1  0
 21 22  1  0
 11 23  1  0
 23 24  1  0
 24 25  1  0
 25 26  1  0
 15  9  1  0
 26 10  1  0
 19 14  1  0
  1 27  1  0
  1 28  1  0
  1 29  1  0
  2 30  1  0
  2 31  1  0
  4 32  1  0
  4 33  1  0
  5 34  1  0
  5 35  1  0
  5 36  1  0
  6 37  1  0
  6 38  1  0
  7 39  1  0
  7 40  1  0
  8 41  1  0
 13 42  1  0
 13 43  1  0
 13 44  1  0
 18 45  1  0
 18 46  1  0
 20 47  1  0
 20 48  1  0
 20 49  1  0
 21 50  1  0
 21 51  1  0
 22 52  1  0
 22 53  1  0
 22 54  1  0
 23 55  1  0
 23 56  1  0
 24 57  1  0
 24 58  1  0
 25 59  1  0
 25 60  1  0
 26 61  1  0
 26 62  1  0
M  CHG  1  12   1
M  END
>  <UniqueID>  (2) 
2

>  <SMILES>  (2) 
CCN(CC)CCNc1c2c([n+](C)c3c1C(=O)C[C@]3(C)CC)CCCC2

>  <Energy>  (2) 
94.89454463098505

>  <Genealogy>  (2) 
CCN(CC)CCNc1c2c([n+](C)c3c1C(=O)C[C@]3(C)CC)CCCC2 (chirality)
CCN(CC)CCNc1c2c([n+](C)c3c1C(=O)C[C@]3(C)CC)CCCC2 (3D coordinates assigned)
CCN(CC)CCNc1c2c([n+](C)c3c1C(=O)C[C@]3(C)CC)CCCC2 (nonaromatic ring conformer: 94.89454463098505 kcal/mol)

>  <smiles>  (2) 
CCN(CC)CCNc1c2c([n+](C)c3c1C(=O)CC3(C)CC)CCCC2

>  <score_type>  (2) 
oracle

>  <origin>  (2) 
adg

>  <m_score__min__energy>  (2) 
-8.8300000000000001

>  <m_primary>  (2) 
energy

$$$$
2:0
     RDKit          3D

 51 53  0  0  0  0  0  0  0  0999 V2000
   -3.9440   22.5140  -29.5120 C   0  0  0  0  0  0  0  0  0  0  0  0
   -3.8280   23.7530  -30.4130 C   0  0  0  0  0  0  0  0  0  0  0  0
   -5.1240   24.2460  -30.9370 N   0  0  0  0  0  0  0  0  0  0  0  0
   -5.2530   25.7100  -30.8000 C   0  0  0  0  0  0  0  0  0  0  0  0
   -6.2740   23.5200  -30.3540 C   0  0  0  0  0  0  0  0  0  0  0  0
   -7.1370   22.8270  -31.4250 C   0  0  0  0  0  0  0  0  0  0  0  0
   -6.4360   22.6230  -32.7110 N   0  0  0  0  0  0  0  0  0  0  0  0
   -6.0160   21.2390  -32.8950 C   0  0  0  0  0  0  0  0  0  0  0  0
   -6.9780   20.1940  -32.8390 C   0  0  0  0  0  0  0  0  0  0  0  0
   -6.5780   18.8590  -33.0450 C   0  0  0  0  0  0  0  0  0  0  0  0
   -5.2900   18.5630  -33.4240 N   0  0  0  0  0  0  0  0  0  0  0  0
   -4.9730   17.2200  -33.9550 C   0  0  0  0  0  0  0  0  0  0  0  0
   -4.3040   19.5220  -33.3230 C   0  0  0  0  0  0  0  0  0  0  0  0
   -2.9330   19.1750  -33.4320 C   0  0  0  0  0  0  0  0  0  0  0  0
   -1.9350   20.1450  -33.3840 C   0  0  0  0  0  0  0  0  0  0  0  0
   -0.1000   19.6410  -33.5390 Br  0  0  0  0  0  0  0  0  0  0  0  0
   -2.2750   21.4790  -33.2200 C   0  0  0  0  0  0  0  0  0  0  0  0
   -3.6090   21.8500  -33.0750 C   0  0  0  0  0  0  0  0  0  0  0  0
   -4.6490   20.8870  -33.0910 C   0  0  0  0  0  0  0  0  0  0  0  0
   -7.6320   17.7770  -32.8580 C   0  0  0  0  0  0  0  0  0  0  0  0
   -8.4940   18.0760  -31.6280 C   0  0  0  0  0  0  0  0  0  0  0  0
   -9.1040   19.4920  -31.6400 C   0  0  0  0  0  0  0  0  0  0  0  0
   -8.4720   20.4420  -32.6710 C   0  0  0  0  0  0  0  0  0  0  0  0
   -3.9150   22.8239  -28.4569 H   0  0  0  0  0  0  0  0  0  0  0  0
   -4.8943   21.9992  -29.7170 H   0  0  0  0  0  0  0  0  0  0  0  0
   -3.1058   21.8318  -29.7170 H   0  0  0  0  0  0  0  0  0  0  0  0
   -3.3616   24.5610  -29.8303 H   0  0  0  0  0  0  0  0  0  0  0  0
   -3.2270   23.4550  -31.2848 H   0  0  0  0  0  0  0  0  0  0  0  0
   -5.2766   25.9778  -29.7334 H   0  0  0  0  0  0  0  0  0  0  0  0
   -4.3946   26.2005  -31.2823 H   0  0  0  0  0  0  0  0  0  0  0  0
   -6.1839   26.0428  -31.2823 H   0  0  0  0  0  0  0  0  0  0  0  0
   -5.8940   22.7569  -29.6589 H   0  0  0  0  0  0  0  0  0  0  0  0
   -6.9080   24.2563  -29.8383 H   0  0  0  0  0  0  0  0  0  0  0  0
   -7.4477   21.8449  -31.0389 H   0  0  0  0  0  0  0  0  0  0  0  0
   -7.9929   23.4881  -31.6261 H   0  0  0  0  0  0  0  0  0  0  0  0
   -7.0740   22.8870  -33.4950 H   0  0  0  0  0  0  0  0  0  0  0  0
   -5.6630   23.3100  -32.8280 H   0  0  0  0  0  0  0  0  0  0  0  0
   -4.8088   16.5245  -33.1188 H   0  0  0  0  0  0  0  0  0  0  0  0
   -5.8113   16.8619  -34.5706 H   0  0  0  0  0  0  0  0  0  0  0  0
   -4.0630   17.2745  -34.5706 H   0  0  0  0  0  0  0  0  0  0  0  0
   -2.6525   18.1187  -33.5569 H   0  0  0  0  0  0  0  0  0  0  0  0
   -1.4878   22.2472  -33.2044 H   0  0  0  0  0  0  0  0  0  0  0  0
   -3.8612   22.9128  -32.9453 H   0  0  0  0  0  0  0  0  0  0  0  0
   -8.2745   17.7393  -33.7500 H   0  0  0  0  0  0  0  0  0  0  0  0
   -7.1280   16.8101  -32.7131 H   0  0  0  0  0  0  0  0  0  0  0  0
   -9.3135   17.3432  -31.5895 H   0  0  0  0  0  0  0  0  0  0  0  0
   -7.8382   18.0114  -30.7472 H   0  0  0  0  0  0  0  0  0  0  0  0
  -10.1771   19.4034  -31.8649 H   0  0  0  0  0  0  0  0  0  0  0  0
   -8.9108   19.9278  -30.6486 H   0  0  0  0  0  0  0  0  0  0  0  0
   -8.9677   20.2925  -33.6416 H   0  0  0  0  0  0  0  0  0  0  0  0
   -8.6057   21.4721  -32.3089 H   0  0  0  0  0  0  0  0  0  0  0  0
  1  2  1  0
  2  3  1  0
  3  4  1  0
  3  5  1  0
  5  6  1  0
  6  7  1  0
  7  8  1  0
  8  9  2  0
  9 10  1  0
 10 11  2  0
 11 12  1  0
 11 13  1  0
 13 14  2  0
 14 15  1  0
 15 16  1  0
 15 17  2  0
 17 18  1  0
 18 19  2  0
 10 20  1  0
 20 21  1  0
 21 22  1  0
 22 23  1  0
 19  8  1  0
 23  9  1  0
 19 13  1  0
  1 24  1  0
  1 25  1  0
  1 26  1  0
  2 27  1  0
  2 28  1  0
  4 29  1  0
  4 30  1  0
  4 31  1  0
  5 32  1  0
  5 33  1  0
  6 34  1  0
  6 35  1  0
  7 36  1  0
  7 37  1  0
 12 38  1  0
 12 39  1  0
 12 40  1  0
 14 41  1  0
 17 42  1  0
 18 43  1  0
 20 44  1  0
 20 45  1  0
 21 46  1  0
 21 47  1  0
 22 48  1  0
 22 49  1  0
 23 50  1  0
 23 51  1  0
M  CHG  2   7   1  11   1
M  END
>  <UniqueID>  (3) 
3

>  <SMILES>  (3) 
CCN(C)CC[NH2+]c1c2c([n+](C)c3cc(Br)ccc13)CCCC2

>  <Energy>  (3) 
80.59363063399617

>  <Genealogy>  (3) 
CCN(C)CC[NH2+]c1c2c([n+](C)c3cc(Br)ccc13)CCCC2 (protonated)
CCN(C)CC[NH2+]c1c2c([n+](C)c3cc(Br)ccc13)CCCC2 (3D coordinates assigned)
CCN(C)CC[NH2+]c1c2c([n+](C)c3cc(Br)ccc13)CCCC2 (nonaromatic ring conformer: 80.59363063399617 kcal/mol)

>  <smiles>  (3) 
CCN(C)CCNc1c2c([n+](C)c3cc(Br)ccc13)CCCC2

>  <score_type>  (3) 
oracle

>  <origin>  (3) 
adg

>  <m_score__min__energy>  (3) 
-7.9199999999999999

>  <m_primary>  (3) 
energy

$$$$
3:0
     RDKit          3D

 39 40  0  0  0  0  0  0  0  0999 V2000
   -3.7890   20.8750  -31.7030 C   0  0  0  0  0  0  0  0  0  0  0  0
   -3.8970   21.7970  -32.9190 C   0  0  0  0  0  0  0  0  0  0  0  0
   -4.6750   23.0130  -32.6350 N   0  0  0  0  0  0  0  0  0  0  0  0
   -4.7840   23.3160  -31.1950 C   0  0  0  0  0  0  0  0  0  0  0  0
   -6.2450   23.4840  -30.7480 C   0  0  0  0  0  0  0  0  0  0  0  0
   -7.1160   23.3400  -31.8550 O   0  0  0  0  0  0  0  0  0  0  0  0
   -8.2490   22.5450  -31.5380 C   0  0  1  0  0  0  0  0  0  0  0  0
   -9.4680   23.0500  -32.3160 C   0  0  0  0  0  0  0  0  0  0  0  0
   -7.9640   21.1070  -31.9110 C   0  0  0  0  0  0  0  0  0  0  0  0
   -8.6920   20.0630  -31.3150 C   0  0  0  0  0  0  0  0  0  0  0  0
   -8.4490   18.7340  -31.6680 C   0  0  0  0  0  0  0  0  0  0  0  0
   -7.4790   18.4250  -32.6310 C   0  0  0  0  0  0  0  0  0  0  0  0
   -7.2280   17.0930  -32.9930 C   0  0  0  0  0  0  0  0  0  0  0  0
   -6.2590   16.7980  -33.9580 C   0  0  0  0  0  0  0  0  0  0  0  0
   -5.5370   17.8280  -34.5670 C   0  0  0  0  0  0  0  0  0  0  0  0
   -5.7780   19.1590  -34.2160 C   0  0  0  0  0  0  0  0  0  0  0  0
   -6.7460   19.4680  -33.2470 C   0  0  0  0  0  0  0  0  0  0  0  0
   -6.9970   20.8010  -32.8860 C   0  0  0  0  0  0  0  0  0  0  0  0
   -3.8590   21.4728  -30.7822 H   0  0  0  0  0  0  0  0  0  0  0  0
   -4.6072   20.1402  -31.7262 H   0  0  0  0  0  0  0  0  0  0  0  0
   -2.8231   20.3491  -31.7262 H   0  0  0  0  0  0  0  0  0  0  0  0
   -2.8837   22.0909  -33.2303 H   0  0  0  0  0  0  0  0  0  0  0  0
   -4.4189   21.2435  -33.7136 H   0  0  0  0  0  0  0  0  0  0  0  0
   -5.6130   22.9510  -33.0960 H   0  0  0  0  0  0  0  0  0  0  0  0
   -4.3310   22.4922  -30.6240 H   0  0  0  0  0  0  0  0  0  0  0  0
   -4.2615   24.2658  -31.0084 H   0  0  0  0  0  0  0  0  0  0  0  0
   -6.4848   22.7185  -29.9953 H   0  0  0  0  0  0  0  0  0  0  0  0
   -6.3750   24.4881  -30.3180 H   0  0  0  0  0  0  0  0  0  0  0  0
   -8.4590   22.6123  -30.4603 H   0  0  0  0  0  0  0  0  0  0  0  0
  -10.2464   23.3725  -31.6089 H   0  0  0  0  0  0  0  0  0  0  0  0
   -9.1727   23.8998  -32.9489 H   0  0  0  0  0  0  0  0  0  0  0  0
   -9.8602   22.2403  -32.9489 H   0  0  0  0  0  0  0  0  0  0  0  0
   -9.4607   20.2950  -30.5631 H   0  0  0  0  0  0  0  0  0  0  0  0
   -9.0213   17.9264  -31.1882 H   0  0  0  0  0  0  0  0  0  0  0  0
   -7.7943   16.2789  -32.5171 H   0  0  0  0  0  0  0  0  0  0  0  0
   -6.0648   15.7522  -34.2382 H   0  0  0  0  0  0  0  0  0  0  0  0
   -4.7764   17.5902  -35.3252 H   0  0  0  0  0  0  0  0  0  0  0  0
   -5.2083   19.9661  -34.6997 H   0  0  0  0  0  0  0  0  0  0  0  0
   -6.4333   21.6127  -33.3691 H   0  0  0  0  0  0  0  0  0  0  0  0
  1  2  1  0
  2  3  1  0
  3  4  1  0
  4  5  1  0
  5  6  1  0
  6  7  1  0
  7  8  1  0
  7  9  1  0
  9 10  2  0
 10 11  1  0
 11 12  2  0
 12 13  1  0
 13 14  2  0
 14 15  1  0
 15 16  2  0
 16 17  1  0
 17 18  2  0
 18  9  1  0
 17 12  1  0
  1 19  1  0
  1 20  1  0
  1 21  1  0
  2 22  1  0
  2 23  1  0
  3 24  1  0
  4 25  1  0
  4 26  1  0
  5 27  1  0
  5 28  1  0
  7 29  1  1
  8 30  1  0
  8 31  1  0
  8 32  1  0
 10 33  1  0
 11 34  1  0
 13 35  1  0
 14 36  1  0
 15 37  1  0
 16 38  1  0
 18 39  1  0
M  END
>  <UniqueID>  (4) 
4

>  <SMILES>  (4) 
CCNCCO[C@@H](C)c1ccc2ccccc2c1

>  <Energy>  (4) 
42.26018750023653

>  <Genealogy>  (4) 
CCNCCO[C@@H](C)c1ccc2ccccc2c1 (chirality)
CCNCCO[C@@H](C)c1ccc2ccccc2c1 (3D coordinates assigned)
CCNCCO[C@@H](C)c1ccc2ccccc2c1 (optimized conformer: 42.26018750023653 kcal/mol)

>  <smiles>  (4) 
CCNCCOC(C)c1ccc2ccccc2c1

>  <score_type>  (4) 
oracle

>  <origin>  (4) 
adg

>  <m_score__min__energy>  (4) 
-8.0700000000000003

>  <m_primary>  (4) 
energy

$$$$
4:0
     RDKit          3D

 67 69  0  0  0  0  0  0  0  0999 V2000
    0.2590   27.5430  -23.3590 C   0  0  0  0  0  0  0  0  0  0  0  0
   -0.6930   26.3900  -23.7120 C   0  0  0  0  0  0  0  0  0  0  0  0
    0.0130   25.1770  -24.1980 N   0  0  2  0  0  0  0  0  0  0  0  0
    1.2480   25.5920  -24.8920 C   0  0  0  0  0  0  0  0  0  0  0  0
   -0.8640   24.3760  -25.0900 C   0  0  0  0  0  0  0  0  0  0  0  0
   -1.5130   25.2120  -26.2150 C   0  0  0  0  0  0  0  0  0  0  0  0
   -2.4700   24.4010  -27.1100 C   0  0  0  0  0  0  0  0  0  0  0  0
   -2.0130   24.2670  -28.5730 C   0  0  0  0  0  0  0  0  0  0  0  0
   -2.7570   23.2000  -29.2870 N   0  0  0  0  0  0  0  0  0  0  0  0
   -3.0610   22.1050  -28.3410 C   0  0  0  0  0  0  0  0  0  0  0  0
   -1.9730   22.6870  -30.4350 C   0  0  0  0  0  0  0  0  0  0  0  0
   -2.5210   21.3440  -30.9660 C   0  0  0  0  0  0  0  0  0  0  0  0
   -2.3620   21.1630  -32.4830 C   0  0  0  0  0  0  0  0  0  0  0  0
   -3.5220   21.6740  -33.2210 N   0  0  0  0  0  0  0  0  0  0  0  0
   -4.8670   21.3680  -32.8060 C   0  0  0  0  0  0  0  0  0  0  0  0
   -5.5980   22.2820  -32.0270 C   0  0  0  0  0  0  0  0  0  0  0  0
   -5.0000   23.4710  -31.5550 C   0  0  0  0  0  0  0  0  0  0  0  0
   -5.7210   24.3640  -30.7650 C   0  0  0  0  0  0  0  0  0  0  0  0
   -7.0320   24.0770  -30.4090 C   0  0  0  0  0  0  0  0  0  0  0  0
   -7.6390   22.9030  -30.8510 C   0  0  0  0  0  0  0  0  0  0  0  0
   -6.9490   21.9900  -31.6890 C   0  0  0  0  0  0  0  0  0  0  0  0
   -7.5470   20.8340  -32.1560 N   0  0  0  0  0  0  0  0  0  0  0  0
   -9.0140   20.6570  -32.0440 C   0  0  0  0  0  0  0  0  0  0  0  0
   -6.7750   19.8440  -32.7380 C   0  0  0  0  0  0  0  0  0  0  0  0
   -7.2810   18.5390  -32.9740 C   0  0  0  0  0  0  0  0  0  0  0  0
   -6.4990   17.5640  -33.5950 C   0  0  0  0  0  0  0  0  0  0  0  0
   -5.1950   17.8530  -33.9780 C   0  0  0  0  0  0  0  0  0  0  0  0
   -4.6600   19.1130  -33.7250 C   0  0  0  0  0  0  0  0  0  0  0  0
   -5.4270   20.1130  -33.0980 C   0  0  0  0  0  0  0  0  0  0  0  0
    0.3345   27.6344  -22.2654 H   0  0  0  0  0  0  0  0  0  0  0  0
    1.2546   27.3382  -23.7794 H   0  0  0  0  0  0  0  0  0  0  0  0
   -0.1305   28.4819  -23.7794 H   0  0  0  0  0  0  0  0  0  0  0  0
   -1.2679   26.1234  -22.8129 H   0  0  0  0  0  0  0  0  0  0  0  0
   -1.3420   26.7399  -24.5283 H   0  0  0  0  0  0  0  0  0  0  0  0
    0.2870   24.5960  -23.3690 H   0  0  0  0  0  0  0  0  0  0  0  0
    2.0169   25.8504  -24.1490 H   0  0  0  0  0  0  0  0  0  0  0  0
    1.6098   24.7661  -25.5220 H   0  0  0  0  0  0  0  0  0  0  0  0
    1.0376   26.4688  -25.5220 H   0  0  0  0  0  0  0  0  0  0  0  0
   -0.2609   23.5793  -25.5499 H   0  0  0  0  0  0  0  0  0  0  0  0
   -1.6787   23.9721  -24.4710 H   0  0  0  0  0  0  0  0  0  0  0  0
   -2.0801   26.0345  -25.7546 H   0  0  0  0  0  0  0  0  0  0  0  0
   -0.6985   25.5756  -26.8587 H   0  0  0  0  0  0  0  0  0  0  0  0
   -2.5646   23.3907  -26.6854 H   0  0  0  0  0  0  0  0  0  0  0  0
   -3.4230   24.9500  -27.1282 H   0  0  0  0  0  0  0  0  0  0  0  0
   -2.1817   25.2243  -29.0878 H   0  0  0  0  0  0  0  0  0  0  0  0
   -0.9459   23.9998  -28.5749 H   0  0  0  0  0  0  0  0  0  0  0  0
   -2.9589   22.4728  -27.3094 H   0  0  0  0  0  0  0  0  0  0  0  0
   -4.0905   21.7541  -28.5049 H   0  0  0  0  0  0  0  0  0  0  0  0
   -2.3597   21.2735  -28.5049 H   0  0  0  0  0  0  0  0  0  0  0  0
   -2.0075   23.4288  -31.2466 H   0  0  0  0  0  0  0  0  0  0  0  0
   -0.9426   22.5169  -30.0896 H   0  0  0  0  0  0  0  0  0  0  0  0
   -1.9841   20.5271  -30.4616 H   0  0  0  0  0  0  0  0  0  0  0  0
   -3.6005   21.3337  -30.7547 H   0  0  0  0  0  0  0  0  0  0  0  0
   -1.4637   21.7052  -32.8133 H   0  0  0  0  0  0  0  0  0  0  0  0
   -2.2747   20.0861  -32.6898 H   0  0  0  0  0  0  0  0  0  0  0  0
   -3.3830   21.9480  -34.2180 H   0  0  0  0  0  0  0  0  0  0  0  0
   -3.9544   23.6944  -31.8136 H   0  0  0  0  0  0  0  0  0  0  0  0
   -5.2509   25.2978  -30.4228 H   0  0  0  0  0  0  0  0  0  0  0  0
   -7.5938   24.7792  -29.7755 H   0  0  0  0  0  0  0  0  0  0  0  0
   -8.6717   22.6804  -30.5445 H   0  0  0  0  0  0  0  0  0  0  0  0
   -9.2992   20.6226  -30.9822 H   0  0  0  0  0  0  0  0  0  0  0  0
   -9.5235   21.5002  -32.5333 H   0  0  0  0  0  0  0  0  0  0  0  0
   -9.3083   19.7168  -32.5333 H   0  0  0  0  0  0  0  0  0  0  0  0
   -8.3066   18.2920  -32.6622 H   0  0  0  0  0  0  0  0  0  0  0  0
   -6.9163   16.5635  -33.7818 H   0  0  0  0  0  0  0  0  0  0  0  0
   -4.5861   17.0870  -34.4806 H   0  0  0  0  0  0  0  0  0  0  0  0
   -3.6227   19.3304  -34.0194 H   0  0  0  0  0  0  0  0  0  0  0  0
  1  2  1  0
  2  3  1  0
  3  4  1  0
  3  5  1  0
  5  6  1  0
  6  7  1  0
  7  8  1  0
  8  9  1  0
  9 10  1  0
  9 11  1  0
 11 12  1  0
 12 13  1  0
 13 14  1  0
 14 15  1  0
 15 16  2  0
 16 17  1  0
 17 18  2  0
 18 19  1  0
 19 20  2  0
 20 21  1  0
 21 22  2  0
 22 23  1  0
 22 24  1  0
 24 25  2  0
 25 26  1  0
 26 27  2  0
 27 28  1  0
 28 29  2  0
 29 15  1  0
 21 16  1  0
 29 24  1  0
  1 30  1  0
  1 31  1  0
  1 32  1  0
  2 33  1  0
  2 34  1  0
  3 35  1  1
  4 36  1  0
  4 37  1  0
  4 38  1  0
  5 39  1  0
  5 40  1  0
  6 41  1  0
  6 42  1  0
  7 43  1  0
  7 44  1  0
  8 45  1  0
  8 46  1  0
 10 47  1  0
 10 48  1  0
 10 49  1  0
 11 50  1  0
 11 51  1  0
 12 52  1  0
 12 53  1  0
 13 54  1  0
 13 55  1  0
 14 56  1  0
 17 57  1  0
 18 58  1  0
 19 59  1  0
 20 60  1  0
 23 61  1  0
 23 62  1  0
 23 63  1  0
 25 64  1  0
 26 65  1  0
 27 66  1  0
 28 67  1  0
M  CHG  2   3   1  22   1
M  END
>  <UniqueID>  (5) 
5

>  <SMILES>  (5) 
CC[N@H+](C)CCCCN(C)CCCNc1c2ccccc2[n+](C)c2ccccc12

>  <Energy>  (5) 
90.80257269916606

>  <Genealogy>  (5) 
CC[NH+](C)CCCCN(C)CCCNc1c2ccccc2[n+](C)c2ccccc12 (protonated)
CC[N@H+](C)CCCCN(C)CCCNc1c2ccccc2[n+](C)c2ccccc12 (chirality)
CC[N@H+](C)CCCCN(C)CCCNc1c2ccccc2[n+](C)c2ccccc12 (3D coordinates assigned)
CC[N@H+](C)CCCCN(C)CCCNc1c2ccccc2[n+](C)c2ccccc12 (optimized conformer: 90.80257269916606 kcal/mol)

>  <smiles>  (5) 
CCN(C)CCCCN(C)CCCNc1c2ccccc2[n+](C)c2ccccc12

>  <score_type>  (5) 
oracle

>  <origin>  (5) 
adg

>  <m_score__min__energy>  (5) 
-8.7100000000000009

>  <m_primary>  (5) 
energy

$$$$
5:0
     RDKit          3D

 57 59  0  0  0  0  0  0  0  0999 V2000
   -1.7770   23.4140  -29.2580 C   0  0  0  0  0  0  0  0  0  0  0  0
   -2.1660   24.5500  -28.3160 C   0  0  0  0  0  0  0  0  0  0  0  0
   -3.2320   24.0890  -27.3050 C   0  0  0  0  0  0  0  0  0  0  0  0
   -4.5810   24.5680  -27.6580 N   0  0  0  0  0  0  0  0  0  0  0  0
   -4.9880   24.1410  -29.0100 C   0  0  0  0  0  0  0  0  0  0  0  0
   -5.8400   25.2120  -29.7140 C   0  0  0  0  0  0  0  0  0  0  0  0
   -6.0930   24.8820  -31.1960 C   0  0  0  0  0  0  0  0  0  0  0  0
   -6.6520   23.4670  -31.3830 C   0  0  0  0  0  0  0  0  0  0  0  0
   -6.0770   22.8270  -32.5680 N   0  0  0  0  0  0  0  0  0  0  0  0
   -5.8820   21.4040  -32.6280 C   0  0  0  0  0  0  0  0  0  0  0  0
   -6.9780   20.5360  -32.5000 C   0  0  0  0  0  0  0  0  0  0  0  0
   -6.7900   19.1480  -32.6290 C   0  0  0  0  0  0  0  0  0  0  0  0
   -5.5220   18.6180  -32.7320 N   0  0  0  0  0  0  0  0  0  0  0  0
   -5.3280   17.1620  -32.5700 C   0  0  0  0  0  0  0  0  0  0  0  0
   -4.4420   19.4530  -32.9520 C   0  0  0  0  0  0  0  0  0  0  0  0
   -3.1650   18.9470  -33.3050 C   0  0  0  0  0  0  0  0  0  0  0  0
   -2.0770   19.8010  -33.4880 C   0  0  0  0  0  0  0  0  0  0  0  0
   -2.2320   21.1740  -33.3370 C   0  0  0  0  0  0  0  0  0  0  0  0
   -3.4810   21.7040  -33.0300 C   0  0  0  0  0  0  0  0  0  0  0  0
   -4.6020   20.8650  -32.8600 C   0  0  0  0  0  0  0  0  0  0  0  0
   -8.0580   18.3120  -32.7220 C   0  0  0  0  0  0  0  0  0  0  0  0
   -9.0120   18.6280  -31.5600 C   0  0  0  0  0  0  0  0  0  0  0  0
   -9.0870   20.1330  -31.2040 C   0  0  0  0  0  0  0  0  0  0  0  0
   -8.3790   21.0450  -32.2190 C   0  0  0  0  0  0  0  0  0  0  0  0
   -1.4762   22.5355  -28.6684 H   0  0  0  0  0  0  0  0  0  0  0  0
   -2.6369   23.1529  -29.8923 H   0  0  0  0  0  0  0  0  0  0  0  0
   -0.9375   23.7348  -29.8923 H   0  0  0  0  0  0  0  0  0  0  0  0
   -1.2726   24.8852  -27.7688 H   0  0  0  0  0  0  0  0  0  0  0  0
   -2.5836   25.3734  -28.9141 H   0  0  0  0  0  0  0  0  0  0  0  0
   -3.2426   22.9894  -27.2786 H   0  0  0  0  0  0  0  0  0  0  0  0
   -2.9706   24.5115  -26.3236 H   0  0  0  0  0  0  0  0  0  0  0  0
   -4.6210   25.6110  -27.5830 H   0  0  0  0  0  0  0  0  0  0  0  0
   -5.2480   24.1680  -26.9590 H   0  0  0  0  0  0  0  0  0  0  0  0
   -4.0860   23.9519  -29.6105 H   0  0  0  0  0  0  0  0  0  0  0  0
   -5.5958   23.2293  -28.9127 H   0  0  0  0  0  0  0  0  0  0  0  0
   -6.8089   25.2871  -29.1987 H   0  0  0  0  0  0  0  0  0  0  0  0
   -5.2858   26.1613  -29.6724 H   0  0  0  0  0  0  0  0  0  0  0  0
   -6.8151   25.6055  -31.6025 H   0  0  0  0  0  0  0  0  0  0  0  0
   -5.1305   24.9393  -31.7255 H   0  0  0  0  0  0  0  0  0  0  0  0
   -6.4093   22.8643  -30.4954 H   0  0  0  0  0  0  0  0  0  0  0  0
   -7.7417   23.5359  -31.5164 H   0  0  0  0  0  0  0  0  0  0  0  0
   -6.0270   23.3760  -33.4550 H   0  0  0  0  0  0  0  0  0  0  0  0
   -5.2949   16.9134  -31.4990 H   0  0  0  0  0  0  0  0  0  0  0  0
   -6.1626   16.6258  -33.0452 H   0  0  0  0  0  0  0  0  0  0  0  0
   -4.3821   16.8630  -33.0452 H   0  0  0  0  0  0  0  0  0  0  0  0
   -3.0301   17.8633  -33.4367 H   0  0  0  0  0  0  0  0  0  0  0  0
   -1.0931   19.3863  -33.7527 H   0  0  0  0  0  0  0  0  0  0  0  0
   -1.3666   21.8418  -33.4603 H   0  0  0  0  0  0  0  0  0  0  0  0
   -3.5960   22.7923  -32.9183 H   0  0  0  0  0  0  0  0  0  0  0  0
   -8.5647   18.5316  -33.6733 H   0  0  0  0  0  0  0  0  0  0  0  0
   -7.7814   17.2486  -32.6692 H   0  0  0  0  0  0  0  0  0  0  0  0
  -10.0204   18.2865  -31.8366 H   0  0  0  0  0  0  0  0  0  0  0  0
   -8.6197   18.1084  -30.6733 H   0  0  0  0  0  0  0  0  0  0  0  0
  -10.1462   20.4256  -31.1542 H   0  0  0  0  0  0  0  0  0  0  0  0
   -8.5700   20.2615  -30.2416 H   0  0  0  0  0  0  0  0  0  0  0  0
   -8.9543   21.0592  -33.1565 H   0  0  0  0  0  0  0  0  0  0  0  0
   -8.3126   22.0603  -31.8009 H   0  0  0  0  0  0  0  0  0  0  0  0
  1  2  1  0
  2  3  1  0
  3  4  1  0
  4  5  1  0
  5  6  1  0
  6  7  1  0
  7  8  1  0
  8  9  1  0
  9 10  1  0
 10 11  2  0
 11 12  1  0
 12 13  2  0
 13 14  1  0
 13 15  1  0
 15 16  2  0
 16 17  1  0
 17 18  2  0
 18 19  1  0
 19 20  2  0
 12 21  1  0
 21 22  1  0
 22 23  1  0
 23 24  1  0
 20 10  1  0
 24 11  1  0
 20 15  1  0
  1 25  1  0
  1 26  1  0
  1 27  1  0
  2 28  1  0
  2 29  1  0
  3 30  1  0
  3 31  1  0
  4 32  1  0
  4 33  1  0
  5 34  1  0
  5 35  1  0
  6 36  1  0
  6 37  1  0
  7 38  1  0
  7 39  1  0
  8 40  1  0
  8 41  1  0
  9 42  1  0
 14 43  1  0
 14 44  1  0
 14 45  1  0
 16 46  1  0
 17 47  1  0
 18 48  1  0
 19 49  1  0
 21 50  1  0
 21 51  1  0
 22 52  1  0
 22 53  1  0
 23 54  1  0
 23 55  1  0
 24 56  1  0
 24 57  1  0
M  CHG  2   4   1  13   1
M  END
>  <UniqueID>  (6) 
6

>  <SMILES>  (6) 
CCC[NH2+]CCCCNc1c2c([n+](C)c3ccccc13)CCCC2

>  <Energy>  (6) 
73.97392658840076

>  <Genealogy>  (6) 
CCC[NH2+]CCCCNc1c2c([n+](C)c3ccccc13)CCCC2 (protonated)
CCC[NH2+]CCCCNc1c2c([n+](C)c3ccccc13)CCCC2 (3D coordinates assigned)
CCC[NH2+]CCCCNc1c2c([n+](C)c3ccccc13)CCCC2 (nonaromatic ring conformer: 73.97392658840076 kcal/mol)

>  <smiles>  (6) 
CCCNCCCCNc1c2c([n+](C)c3ccccc13)CCCC2

>  <score_type>  (6) 
oracle

>  <origin>  (6) 
adg

>  <m_score__min__energy>  (6) 
-7.9299999999999997

>  <m_primary>  (6) 
energy

$$$$
6:0
     RDKit          3D

 64 66  0  0  0  0  0  0  0  0999 V2000
   -0.4950   26.7880  -23.1830 C   0  0  0  0  0  0  0  0  0  0  0  0
   -1.2910   26.7520  -24.5000 C   0  0  0  0  0  0  0  0  0  0  0  0
   -0.4930   26.4010  -25.7180 N   0  0  0  0  0  0  0  0  0  0  0  0
    0.9220   26.1350  -25.3420 C   0  0  0  0  0  0  0  0  0  0  0  0
   -0.5180   27.5100  -26.7090 C   0  0  0  0  0  0  0  0  0  0  0  0
   -1.0180   25.1380  -26.3360 C   0  0  0  0  0  0  0  0  0  0  0  0
   -2.1610   25.3020  -27.3740 C   0  0  0  0  0  0  0  0  0  0  0  0
   -1.6590   25.4510  -28.6880 O   0  0  0  0  0  0  0  0  0  0  0  0
   -1.5700   24.2060  -29.3480 C   0  0  0  0  0  0  0  0  0  0  0  0
   -2.9690   23.7910  -29.8020 C   0  0  0  0  0  0  0  0  0  0  0  0
   -3.6300   24.8700  -30.4430 O   0  0  0  0  0  0  0  0  0  0  0  0
   -4.9660   24.9910  -29.9870 C   0  0  0  0  0  0  0  0  0  0  0  0
   -5.8410   23.8800  -30.5770 C   0  0  0  0  0  0  0  0  0  0  0  0
   -5.3140   23.4140  -31.8630 N   0  0  0  0  0  0  0  0  0  0  0  0
   -5.5540   22.0790  -32.3510 C   0  0  0  0  0  0  0  0  0  0  0  0
   -6.8500   21.5340  -32.3380 C   0  0  0  0  0  0  0  0  0  0  0  0
   -7.9620   22.3180  -31.9660 C   0  0  0  0  0  0  0  0  0  0  0  0
   -9.2290   21.7510  -31.8610 C   0  0  0  0  0  0  0  0  0  0  0  0
   -9.4120   20.4010  -32.1330 C   0  0  0  0  0  0  0  0  0  0  0  0
   -8.3380   19.6200  -32.5600 C   0  0  0  0  0  0  0  0  0  0  0  0
   -7.0440   20.1790  -32.7210 C   0  0  0  0  0  0  0  0  0  0  0  0
   -5.9910   19.4420  -33.2300 N   0  0  0  0  0  0  0  0  0  0  0  0
   -6.2470   18.1490  -33.9020 C   0  0  0  0  0  0  0  0  0  0  0  0
   -4.7000   19.9320  -33.1490 C   0  0  0  0  0  0  0  0  0  0  0  0
   -3.5730   19.1180  -33.4330 C   0  0  0  0  0  0  0  0  0  0  0  0
   -2.2800   19.6370  -33.3900 C   0  0  0  0  0  0  0  0  0  0  0  0
   -2.0710   20.9690  -33.0550 C   0  0  0  0  0  0  0  0  0  0  0  0
   -3.1530   21.7830  -32.7310 C   0  0  0  0  0  0  0  0  0  0  0  0
   -4.4710   21.2770  -32.7520 C   0  0  0  0  0  0  0  0  0  0  0  0
   -1.1918   26.7565  -22.3324 H   0  0  0  0  0  0  0  0  0  0  0  0
    0.1784   25.9194  -23.1377 H   0  0  0  0  0  0  0  0  0  0  0  0
    0.0972   27.7138  -23.1377 H   0  0  0  0  0  0  0  0  0  0  0  0
   -2.0933   26.0072  -24.3925 H   0  0  0  0  0  0  0  0  0  0  0  0
   -1.6604   27.7755  -24.6615 H   0  0  0  0  0  0  0  0  0  0  0  0
    1.0131   26.1179  -24.2459 H   0  0  0  0  0  0  0  0  0  0  0  0
    1.2335   25.1626  -25.7511 H   0  0  0  0  0  0  0  0  0  0  0  0
    1.5654   26.9279  -25.7511 H   0  0  0  0  0  0  0  0  0  0  0  0
   -0.5397   28.4741  -26.1799 H   0  0  0  0  0  0  0  0  0  0  0  0
    0.3815   27.4582  -27.3400 H   0  0  0  0  0  0  0  0  0  0  0  0
   -1.4143   27.4177  -27.3400 H   0  0  0  0  0  0  0  0  0  0  0  0
   -0.1779   24.6371  -26.8393 H   0  0  0  0  0  0  0  0  0  0  0  0
   -1.4569   24.5661  -25.5052 H   0  0  0  0  0  0  0  0  0  0  0  0
   -2.8055   24.4113  -27.3378 H   0  0  0  0  0  0  0  0  0  0  0  0
   -2.7272   26.2099  -27.1190 H   0  0  0  0  0  0  0  0  0  0  0  0
   -0.9089   24.2970  -30.2224 H   0  0  0  0  0  0  0  0  0  0  0  0
   -1.1574   23.4485  -28.6653 H   0  0  0  0  0  0  0  0  0  0  0  0
   -2.8853   22.9498  -30.5058 H   0  0  0  0  0  0  0  0  0  0  0  0
   -3.5532   23.4937  -28.9187 H   0  0  0  0  0  0  0  0  0  0  0  0
   -4.9812   24.9185  -28.8895 H   0  0  0  0  0  0  0  0  0  0  0  0
   -5.3638   25.9644  -30.3100 H   0  0  0  0  0  0  0  0  0  0  0  0
   -5.8694   23.0346  -29.8738 H   0  0  0  0  0  0  0  0  0  0  0  0
   -6.8511   24.2835  -30.7411 H   0  0  0  0  0  0  0  0  0  0  0  0
   -4.6220   24.0130  -32.3650 H   0  0  0  0  0  0  0  0  0  0  0  0
   -7.8265   23.3893  -31.7565 H   0  0  0  0  0  0  0  0  0  0  0  0
  -10.0861   22.3725  -31.5624 H   0  0  0  0  0  0  0  0  0  0  0  0
  -10.4064   19.9468  -32.0113 H   0  0  0  0  0  0  0  0  0  0  0  0
   -8.4970   18.5531  -32.7755 H   0  0  0  0  0  0  0  0  0  0  0  0
   -6.4019   17.3665  -33.1446 H   0  0  0  0  0  0  0  0  0  0  0  0
   -7.1457   18.2340  -34.5305 H   0  0  0  0  0  0  0  0  0  0  0  0
   -5.3837   17.8852  -34.5305 H   0  0  0  0  0  0  0  0  0  0  0  0
   -3.7222   18.0593  -33.6915 H   0  0  0  0  0  0  0  0  0  0  0  0
   -1.4217   18.9894  -33.6222 H   0  0  0  0  0  0  0  0  0  0  0  0
   -1.0509   21.3804  -33.0458 H   0  0  0  0  0  0  0  0  0  0  0  0
   -2.9789   22.8335  -32.4552 H   0  0  0  0  0  0  0  0  0  0  0  0
  1  2  1  0
  2  3  1  0
  3  4  1  0
  3  5  1  0
  3  6  1  0
  6  7  1  0
  7  8  1  0
  8  9  1  0
  9 10  1  0
 10 11  1  0
 11 12  1  0
 12 13  1  0
 13 14  1  0
 14 15  1  0
 15 16  2  0
 16 17  1  0
 17 18  2  0
 18 19  1  0
 19 20  2  0
 20 21  1  0
 21 22  2  0
 22 23  1  0
 22 24  1  0
 24 25  2  0
 25 26  1  0
 26 27  2  0
 27 28  1  0
 28 29  2  0
 29 15  1  0
 21 16  1  0
 29 24  1  0
  1 30  1  0
  1 31  1  0
  1 32  1  0
  2 33  1  0
  2 34  1  0
  4 35  1  0
  4 36  1  0
  4 37  1  0
  5 38  1  0
  5 39  1  0
  5 40  1  0
  6 41  1  0
  6 42  1  0
  7 43  1  0
  7 44  1  0
  9 45  1  0
  9 46  1  0
 10 47  1  0
 10 48  1  0
 12 49  1  0
 12 50  1  0
 13 51  1  0
 13 52  1  0
 14 53  1  0
 17 54  1  0
 18 55  1  0
 19 56  1  0
 20 57  1  0
 23 58  1  0
 23 59  1  0
 23 60  1  0
 25 61  1  0
 26 62  1  0
 27 63  1  0
 28 64  1  0
M  CHG  2   3   1  22   1
M  END
>  <UniqueID>  (7) 
7

>  <SMILES>  (7) 
CC[N+](C)(C)CCOCCOCCNc1c2ccccc2[n+](C)c2ccccc12

>  <Energy>  (7) 
98.33455344356008

>  <Genealogy>  (7) 
CC[N+](C)(C)CCOCCOCCNc1c2ccccc2[n+](C)c2ccccc12 (3D coordinates assigned)
CC[N+](C)(C)CCOCCOCCNc1c2ccccc2[n+](C)c2ccccc12 (optimized conformer: 98.33455344356008 kcal/mol)

>  <smiles>  (7) 
CC[N+](C)(C)CCOCCOCCNc1c2ccccc2[n+](C)c2ccccc12

>  <score_type>  (7) 
oracle

>  <origin>  (7) 
adg

>  <m_score__min__energy>  (7) 
-8.8499999999999996

>  <m_primary>  (7) 
energy

$$$$
7:0
     RDKit          3D

 60 62  0  0  0  0  0  0  0  0999 V2000
   -2.1040   25.6040  -26.0470 C   0  0  0  0  0  0  0  0  0  0  0  0
   -1.6410   26.1550  -27.2590 O   0  0  0  0  0  0  0  0  0  0  0  0
   -0.2620   25.8880  -27.4260 C   0  0  0  0  0  0  0  0  0  0  0  0
   -0.0810   24.5840  -28.1400 C   0  0  0  0  0  0  0  0  0  0  0  0
    1.0820   24.1360  -28.3310 O   0  0  0  0  0  0  0  0  0  0  0  0
   -1.2190   23.8730  -28.6430 N   0  0  0  0  0  0  0  0  0  0  0  0
   -1.0710   22.6230  -29.3860 C   0  0  0  0  0  0  0  0  0  0  0  0
   -2.2040   21.6540  -29.0610 C   0  0  0  0  0  0  0  0  0  0  0  0
   -3.0110   22.2120  -28.0430 O   0  0  0  0  0  0  0  0  0  0  0  0
   -4.2590   22.6270  -28.5670 C   0  0  0  0  0  0  0  0  0  0  0  0
   -4.3550   24.1550  -28.5480 C   0  0  0  0  0  0  0  0  0  0  0  0
   -3.8680   24.6910  -29.7660 O   0  0  0  0  0  0  0  0  0  0  0  0
   -4.0050   23.7500  -30.8110 C   0  0  0  0  0  0  0  0  0  0  0  0
   -5.4550   23.7370  -31.2880 C   0  0  0  0  0  0  0  0  0  0  0  0
   -5.5630   23.1020  -32.6000 N   0  0  0  0  0  0  0  0  0  0  0  0
   -5.5900   21.6710  -32.7180 C   0  0  0  0  0  0  0  0  0  0  0  0
   -6.7930   20.9740  -32.5170 C   0  0  0  0  0  0  0  0  0  0  0  0
   -7.9760   21.6640  -32.1780 C   0  0  0  0  0  0  0  0  0  0  0  0
   -9.1550   20.9680  -31.9190 C   0  0  0  0  0  0  0  0  0  0  0  0
   -9.1710   19.5800  -31.9840 C   0  0  0  0  0  0  0  0  0  0  0  0
   -8.0180   18.8780  -32.3320 C   0  0  0  0  0  0  0  0  0  0  0  0
   -6.8110   19.5590  -32.6420 C   0  0  0  0  0  0  0  0  0  0  0  0
   -5.6720   18.8820  -33.0370 N   0  0  0  0  0  0  0  0  0  0  0  0
   -5.7600   17.4590  -33.4370 C   0  0  0  0  0  0  0  0  0  0  0  0
   -4.4590   19.5420  -33.0910 C   0  0  0  0  0  0  0  0  0  0  0  0
   -3.2330   18.8430  -33.2470 C   0  0  0  0  0  0  0  0  0  0  0  0
   -2.0240   19.5280  -33.3650 C   0  0  0  0  0  0  0  0  0  0  0  0
   -1.9990   20.9170  -33.3210 C   0  0  0  0  0  0  0  0  0  0  0  0
   -3.1790   21.6300  -33.1260 C   0  0  0  0  0  0  0  0  0  0  0  0
   -4.4100   20.9580  -32.9790 C   0  0  0  0  0  0  0  0  0  0  0  0
   -1.6508   26.1434  -25.2022 H   0  0  0  0  0  0  0  0  0  0  0  0
   -3.1989   25.6971  -25.9965 H   0  0  0  0  0  0  0  0  0  0  0  0
   -1.8237   24.5415  -25.9965 H   0  0  0  0  0  0  0  0  0  0  0  0
    0.1973   26.6945  -28.0164 H   0  0  0  0  0  0  0  0  0  0  0  0
    0.2194   25.8315  -26.4385 H   0  0  0  0  0  0  0  0  0  0  0  0
   -2.1720   24.2530  -28.4460 H   0  0  0  0  0  0  0  0  0  0  0  0
   -1.0835   22.8420  -30.4639 H   0  0  0  0  0  0  0  0  0  0  0  0
   -0.1178   22.1557  -29.0978 H   0  0  0  0  0  0  0  0  0  0  0  0
   -2.8124   21.4830  -29.9614 H   0  0  0  0  0  0  0  0  0  0  0  0
   -1.7860   20.6955  -28.7195 H   0  0  0  0  0  0  0  0  0  0  0  0
   -4.3560   22.2691  -29.6026 H   0  0  0  0  0  0  0  0  0  0  0  0
   -5.0666   22.2075  -27.9491 H   0  0  0  0  0  0  0  0  0  0  0  0
   -5.4059   24.4514  -28.4150 H   0  0  0  0  0  0  0  0  0  0  0  0
   -3.7475   24.5425  -27.7169 H   0  0  0  0  0  0  0  0  0  0  0  0
   -3.3455   24.0289  -31.6460 H   0  0  0  0  0  0  0  0  0  0  0  0
   -3.7269   22.7501  -30.4466 H   0  0  0  0  0  0  0  0  0  0  0  0
   -6.0676   23.1783  -30.5652 H   0  0  0  0  0  0  0  0  0  0  0  0
   -5.8097   24.7752  -31.3680 H   0  0  0  0  0  0  0  0  0  0  0  0
   -5.7730   23.6710  -33.4540 H   0  0  0  0  0  0  0  0  0  0  0  0
   -7.9675   22.7623  -32.1176 H   0  0  0  0  0  0  0  0  0  0  0  0
  -10.0731   21.5173  -31.6631 H   0  0  0  0  0  0  0  0  0  0  0  0
  -10.0983   19.0324  -31.7597 H   0  0  0  0  0  0  0  0  0  0  0  0
   -8.0435   17.7789  -32.3670 H   0  0  0  0  0  0  0  0  0  0  0  0
   -5.7991   16.8270  -32.5375 H   0  0  0  0  0  0  0  0  0  0  0  0
   -6.6696   17.3019  -34.0353 H   0  0  0  0  0  0  0  0  0  0  0  0
   -4.8767   17.1910  -34.0353 H   0  0  0  0  0  0  0  0  0  0  0  0
   -3.2369   17.7434  -33.2752 H   0  0  0  0  0  0  0  0  0  0  0  0
   -1.0866   18.9669  -33.4934 H   0  0  0  0  0  0  0  0  0  0  0  0
   -1.0461   21.4535  -33.4403 H   0  0  0  0  0  0  0  0  0  0  0  0
   -3.1507   22.7289  -33.0862 H   0  0  0  0  0  0  0  0  0  0  0  0
  1  2  1  0
  2  3  1  0
  3  4  1  0
  4  5  2  0
  4  6  1  0
  6  7  1  0
  7  8  1  0
  8  9  1  0
  9 10  1  0
 10 11  1  0
 11 12  1  0
 12 13  1  0
 13 14  1  0
 14 15  1  0
 15 16  1  0
 16 17  2  0
 17 18  1  0
 18 19  2  0
 19 20  1  0
 20 21  2  0
 21 22  1  0
 22 23  2  0
 23 24  1  0
 23 25  1  0
 25 26  2  0
 26 27  1  0
 27 28  2  0
 28 29  1  0
 29 30  2  0
 30 16  1  0
 22 17  1  0
 30 25  1  0
  1 31  1  0
  1 32  1  0
  1 33  1  0
  3 34  1  0
  3 35  1  0
  6 36  1  0
  7 37  1  0
  7 38  1  0
  8 39  1  0
  8 40  1  0
 10 41  1  0
 10 42  1  0
 11 43  1  0
 11 44  1  0
 13 45  1  0
 13 46  1  0
 14 47  1  0
 14 48  1  0
 15 49  1  0
 18 50  1  0
 19 51  1  0
 20 52  1  0
 21 53  1  0
 24 54  1  0
 24 55  1  0
 24 56  1  0
 26 57  1  0
 27 58  1  0
 28 59  1  0
 29 60  1  0
M  CHG  1  23   1
M  END
>  <UniqueID>  (8) 
8

>  <SMILES>  (8) 
COCC(=O)NCCOCCOCCNc1c2ccccc2[n+](C)c2ccccc12

>  <Energy>  (8) 
84.61569570810114

>  <Genealogy>  (8) 
COCC(=O)NCCOCCOCCNc1c2ccccc2[n+](C)c2ccccc12 (3D coordinates assigned)
COCC(=O)NCCOCCOCCNc1c2ccccc2[n+](C)c2ccccc12 (optimized conformer: 84.61569570810114 kcal/mol)

>  <smiles>  (8) 
COCC(=O)NCCOCCOCCNc1c2ccccc2[n+](C)c2ccccc12

>  <score_type>  (8) 
oracle

>  <origin>  (8) 
adg

>  <m_score__min__energy>  (8) 
-8.7400000000000002

>  <m_primary>  (8) 
energy

$$$$
8:0
     RDKit          3D

 58 60  0  0  0  0  0  0  0  0999 V2000
    0.6190   24.3520  -36.0710 C   0  0  0  0  0  0  0  0  0  0  0  0
    0.7220   22.8310  -36.0970 C   0  0  0  0  0  0  0  0  0  0  0  0
    0.1100   22.2660  -34.8870 N   0  0  0  0  0  0  0  0  0  0  0  0
    0.7160   20.9690  -34.5500 C   0  0  0  0  0  0  0  0  0  0  0  0
    0.2180   20.4810  -33.1830 C   0  0  0  0  0  0  0  0  0  0  0  0
   -0.9400   21.3280  -32.6160 C   0  0  0  0  0  0  0  0  0  0  0  0
   -2.1320   21.2790  -33.4850 N   0  0  0  0  0  0  0  0  0  0  0  0
   -2.4000   19.9210  -34.0050 C   0  0  0  0  0  0  0  0  0  0  0  0
   -3.8290   19.4320  -33.6700 C   0  0  0  0  0  0  0  0  0  0  0  0
   -4.2820   19.7750  -32.3110 N   0  0  0  0  0  0  0  0  0  0  0  0
   -5.4240   20.5980  -32.0250 C   0  0  0  0  0  0  0  0  0  0  0  0
   -5.2240   21.9090  -31.5530 C   0  0  0  0  0  0  0  0  0  0  0  0
   -6.3340   22.7770  -31.4210 C   0  0  0  0  0  0  0  0  0  0  0  0
   -7.5820   22.3600  -31.8340 N   0  0  0  0  0  0  0  0  0  0  0  0
   -8.6770   23.3460  -31.9670 C   0  0  0  0  0  0  0  0  0  0  0  0
   -7.8250   21.0200  -32.0690 C   0  0  0  0  0  0  0  0  0  0  0  0
   -9.1490   20.5270  -32.1820 C   0  0  0  0  0  0  0  0  0  0  0  0
   -9.4040   19.1850  -32.4250 C   0  0  0  0  0  0  0  0  0  0  0  0
   -8.3530   18.2870  -32.5340 C   0  0  0  0  0  0  0  0  0  0  0  0
   -7.0310   18.7070  -32.3780 C   0  0  0  0  0  0  0  0  0  0  0  0
   -5.7560   17.2590  -32.3220 Br  0  0  0  0  0  0  0  0  0  0  0  0
   -6.7410   20.0940  -32.1660 C   0  0  0  0  0  0  0  0  0  0  0  0
   -6.1290   24.1930  -30.8890 C   0  0  0  0  0  0  0  0  0  0  0  0
   -4.8770   24.3390  -30.0300 C   0  0  0  0  0  0  0  0  0  0  0  0
   -3.6760   23.7960  -30.7850 C   0  0  0  0  0  0  0  0  0  0  0  0
   -3.8470   22.3000  -31.0420 C   0  0  0  0  0  0  0  0  0  0  0  0
    0.5954   24.7001  -35.0278 H   0  0  0  0  0  0  0  0  0  0  0  0
    1.4897   24.7873  -36.5832 H   0  0  0  0  0  0  0  0  0  0  0  0
   -0.3025   24.6659  -36.5832 H   0  0  0  0  0  0  0  0  0  0  0  0
    0.1985   22.4454  -36.9843 H   0  0  0  0  0  0  0  0  0  0  0  0
    1.7825   22.5412  -36.1347 H   0  0  0  0  0  0  0  0  0  0  0  0
   -0.9070   22.1080  -35.0840 H   0  0  0  0  0  0  0  0  0  0  0  0
    0.4430   20.2313  -35.3190 H   0  0  0  0  0  0  0  0  0  0  0  0
    1.8088   21.0874  -34.5085 H   0  0  0  0  0  0  0  0  0  0  0  0
   -0.1285   19.4423  -33.2884 H   0  0  0  0  0  0  0  0  0  0  0  0
    1.0595   20.5686  -32.4801 H   0  0  0  0  0  0  0  0  0  0  0  0
   -1.2087   20.9431  -31.6212 H   0  0  0  0  0  0  0  0  0  0  0  0
   -0.6022   22.3732  -32.5578 H   0  0  0  0  0  0  0  0  0  0  0  0
   -1.9540   21.9440  -34.2780 H   0  0  0  0  0  0  0  0  0  0  0  0
   -2.2773   19.9308  -35.0981 H   0  0  0  0  0  0  0  0  0  0  0  0
   -1.6890   19.2321  -33.5255 H   0  0  0  0  0  0  0  0  0  0  0  0
   -4.5262   19.8847  -34.3904 H   0  0  0  0  0  0  0  0  0  0  0  0
   -3.8088   18.3337  -33.7284 H   0  0  0  0  0  0  0  0  0  0  0  0
   -3.5810   19.6610  -31.5420 H   0  0  0  0  0  0  0  0  0  0  0  0
   -9.0177   23.6527  -30.9671 H   0  0  0  0  0  0  0  0  0  0  0  0
   -8.3127   24.2266  -32.5164 H   0  0  0  0  0  0  0  0  0  0  0  0
   -9.5147   22.8917  -32.5164 H   0  0  0  0  0  0  0  0  0  0  0  0
   -9.9933   21.2239  -32.0746 H   0  0  0  0  0  0  0  0  0  0  0  0
  -10.4408   18.8331  -32.5313 H   0  0  0  0  0  0  0  0  0  0  0  0
   -8.5641   17.2286  -32.7464 H   0  0  0  0  0  0  0  0  0  0  0  0
   -6.0473   24.8792  -31.7449 H   0  0  0  0  0  0  0  0  0  0  0  0
   -6.9924   24.4292  -30.2496 H   0  0  0  0  0  0  0  0  0  0  0  0
   -4.7139   25.4018  -29.7980 H   0  0  0  0  0  0  0  0  0  0  0  0
   -5.0071   23.7743  -29.0950 H   0  0  0  0  0  0  0  0  0  0  0  0
   -3.5834   24.3217  -31.7468 H   0  0  0  0  0  0  0  0  0  0  0  0
   -2.7704   23.9553  -30.1813 H   0  0  0  0  0  0  0  0  0  0  0  0
   -3.1012   21.9909  -31.7891 H   0  0  0  0  0  0  0  0  0  0  0  0
   -3.7143   21.7957  -30.0734 H   0  0  0  0  0  0  0  0  0  0  0  0
  1  2  1  0
  2  3  1  0
  3  4  1  0
  4  5  1  0
  5  6  1  0
  6  7  1  0
  7  8  1  0
  8  9  1  0
  9 10  1  0
 10 11  1  0
 11 12  2  0
 12 13  1  0
 13 14  2  0
 14 15  1  0
 14 16  1  0
 16 17  2  0
 17 18  1  0
 18 19  2  0
 19 20  1  0
 20 21  1  0
 20 22  2  0
 13 23  1  0
 23 24  1  0
 24 25  1  0
 25 26  1  0
 22 11  1  0
 26 12  1  0
 22 16  1  0
  1 27  1  0
  1 28  1  0
  1 29  1  0
  2 30  1  0
  2 31  1  0
  3 32  1  0
  4 33  1  0
  4 34  1  0
  5 35  1  0
  5 36  1  0
  6 37  1  0
  6 38  1  0
  7 39  1  0
  8 40  1  0
  8 41  1  0
  9 42  1  0
  9 43  1  0
 10 44  1  0
 15 45  1  0
 15 46  1  0
 15 47  1  0
 17 48  1  0
 18 49  1  0
 19 50  1  0
 23 51  1  0
 23 52  1  0
 24 53  1  0
 24 54  1  0
 25 55  1  0
 25 56  1  0
 26 57  1  0
 26 58  1  0
M  CHG  1  14   1
M  END
>  <UniqueID>  (9) 
9

>  <SMILES>  (9) 
CCNCCCNCCNc1c2c([n+](C)c3cccc(Br)c13)CCCC2

>  <Energy>  (9) 
78.5247856542335

>  <Genealogy>  (9) 
CCNCCCNCCNc1c2c([n+](C)c3cccc(Br)c13)CCCC2 (3D coordinates assigned)
CCNCCCNCCNc1c2c([n+](C)c3cccc(Br)c13)CCCC2 (nonaromatic ring conformer: 78.5247856542335 kcal/mol)

>  <smiles>  (9) 
CCNCCCNCCNc1c2c([n+](C)c3cccc(Br)c13)CCCC2

>  <score_type>  (9) 
oracle

>  <origin>  (9) 
adg

>  <m_score__min__energy>  (9) 
-9.0600000000000005

>  <m_primary>  (9) 
energy

$$$$
9:0
     RDKit          3D

 34 36  0  0  0  0  0  0  0  0999 V2000
   -4.2660   22.4690  -31.5480 C   0  0  0  0  0  0  0  0  0  0  0  0
   -4.9250   23.6920  -31.0940 N   0  0  0  0  0  0  0  0  0  0  0  0
   -6.1330   24.1720  -31.4500 C   0  0  0  0  0  0  0  0  0  0  0  0
   -7.2700   23.3860  -32.6000 S   0  0  0  0  0  0  0  0  0  0  0  0
   -8.1210   22.3650  -31.3410 C   0  0  0  0  0  0  0  0  0  0  0  0
   -8.7200   21.1220  -31.9470 C   0  0  0  0  0  0  0  0  0  0  0  0
   -9.9770   21.0300  -31.9900 O   0  0  0  0  0  0  0  0  0  0  0  0
   -7.8930   19.9740  -32.4050 C   0  0  0  0  0  0  0  0  0  0  0  0
   -6.8840   20.1880  -33.3640 C   0  0  0  0  0  0  0  0  0  0  0  0
   -6.1400   19.1150  -33.8630 C   0  0  0  0  0  0  0  0  0  0  0  0
   -6.3830   17.8190  -33.4050 C   0  0  0  0  0  0  0  0  0  0  0  0
   -7.3610   17.5950  -32.4350 C   0  0  0  0  0  0  0  0  0  0  0  0
   -8.1090   18.6640  -31.9310 C   0  0  0  0  0  0  0  0  0  0  0  0
   -6.4400   25.2940  -30.7730 N   0  0  0  0  0  0  0  0  0  0  0  0
   -5.4290   25.5370  -29.9510 N   0  0  0  0  0  0  0  0  0  0  0  0
   -4.5210   24.5590  -30.1410 C   0  0  0  0  0  0  0  0  0  0  0  0
   -3.3000   24.4290  -29.3270 C   0  0  0  0  0  0  0  0  0  0  0  0
   -3.0180   23.3830  -28.4690 C   0  0  0  0  0  0  0  0  0  0  0  0
   -1.7740   23.6600  -27.9450 C   0  0  0  0  0  0  0  0  0  0  0  0
   -1.3750   24.8530  -28.5120 C   0  0  0  0  0  0  0  0  0  0  0  0
   -2.3040   25.2860  -29.3310 O   0  0  0  0  0  0  0  0  0  0  0  0
   -3.9479   21.8786  -30.6761 H   0  0  0  0  0  0  0  0  0  0  0  0
   -4.9677   21.8779  -32.1548 H   0  0  0  0  0  0  0  0  0  0  0  0
   -3.3864   22.7300  -32.1548 H   0  0  0  0  0  0  0  0  0  0  0  0
   -7.3945   22.0713  -30.5690 H   0  0  0  0  0  0  0  0  0  0  0  0
   -8.9358   22.9629  -30.9066 H   0  0  0  0  0  0  0  0  0  0  0  0
   -6.6798   21.2075  -33.7231 H   0  0  0  0  0  0  0  0  0  0  0  0
   -5.3607   19.2924  -34.6188 H   0  0  0  0  0  0  0  0  0  0  0  0
   -5.8041   16.9750  -33.8083 H   0  0  0  0  0  0  0  0  0  0  0  0
   -7.5441   16.5751  -32.0659 H   0  0  0  0  0  0  0  0  0  0  0  0
   -8.8713   18.4813  -31.1593 H   0  0  0  0  0  0  0  0  0  0  0  0
   -3.6533   22.5120  -28.2502 H   0  0  0  0  0  0  0  0  0  0  0  0
   -1.2121   23.0523  -27.2205 H   0  0  0  0  0  0  0  0  0  0  0  0
   -0.4223   25.3637  -28.3082 H   0  0  0  0  0  0  0  0  0  0  0  0
  1  2  1  0
  2  3  1  0
  3  4  1  0
  4  5  1  0
  5  6  1  0
  6  7  2  0
  6  8  1  0
  8  9  2  0
  9 10  1  0
 10 11  2  0
 11 12  1  0
 12 13  2  0
  3 14  2  0
 14 15  1  0
 15 16  2  0
 16 17  1  0
 17 18  2  0
 18 19  1  0
 19 20  2  0
 20 21  1  0
 16  2  1  0
 21 17  1  0
 13  8  1  0
  1 22  1  0
  1 23  1  0
  1 24  1  0
  5 25  1  0
  5 26  1  0
  9 27  1  0
 10 28  1  0
 11 29  1  0
 12 30  1  0
 13 31  1  0
 18 32  1  0
 19 33  1  0
 20 34  1  0
M  END
>  <UniqueID>  (10) 
10

>  <SMILES>  (10) 
Cn1c(SCC(=O)c2ccccc2)nnc1-c1ccco1

>  <Energy>  (10) 
93.44567328097237

>  <Genealogy>  (10) 
Cn1c(SCC(=O)c2ccccc2)nnc1-c1ccco1 (3D coordinates assigned)
Cn1c(SCC(=O)c2ccccc2)nnc1-c1ccco1 (optimized conformer: 93.44567328097237 kcal/mol)

>  <smiles>  (10) 
Cn1c(SCC(=O)c2ccccc2)nnc1-c1ccco1

>  <score_type>  (10) 
oracle

>  <origin>  (10) 
adg

>  <m_score__min__energy>  (10) 
-8.8300000000000001

>  <m_primary>  (10) 
energy

$$$$
10:0
     RDKit          3D

 52 54  0  0  0  0  0  0  0  0999 V2000
   -6.3590   25.5660  -29.6830 C   0  0  0  0  0  0  0  0  0  0  0  0
   -5.3450   25.7100  -30.8210 C   0  0  0  0  0  0  0  0  0  0  0  0
   -4.0070   25.2270  -30.4400 N   0  0  0  0  0  0  0  0  0  0  0  0
   -4.0560   24.1330  -29.4550 C   0  0  0  0  0  0  0  0  0  0  0  0
   -3.8650   22.7840  -30.1530 C   0  0  0  0  0  0  0  0  0  0  0  0
   -3.2110   22.9390  -31.4000 O   0  0  0  0  0  0  0  0  0  0  0  0
   -2.2610   21.9140  -31.6190 C   0  0  0  0  0  0  0  0  0  0  0  0
   -2.7720   20.9360  -32.6860 C   0  0  0  0  0  0  0  0  0  0  0  0
   -3.8890   21.4850  -33.4780 N   0  0  0  0  0  0  0  0  0  0  0  0
   -5.1380   20.7850  -33.2210 C   0  0  0  0  0  0  0  0  0  0  0  0
   -6.2110   21.4780  -32.6380 C   0  0  0  0  0  0  0  0  0  0  0  0
   -7.3920   20.8500  -32.3370 C   0  0  0  0  0  0  0  0  0  0  0  0
   -7.5940   19.5180  -32.5910 N   0  0  0  0  0  0  0  0  0  0  0  0
   -8.8860   18.8880  -32.2510 C   0  0  0  0  0  0  0  0  0  0  0  0
   -6.5780   18.7800  -33.1740 C   0  0  0  0  0  0  0  0  0  0  0  0
   -6.7450   17.4010  -33.4560 C   0  0  0  0  0  0  0  0  0  0  0  0
   -5.7300   16.6590  -34.0520 C   0  0  0  0  0  0  0  0  0  0  0  0
   -4.5270   17.2630  -34.3870 C   0  0  0  0  0  0  0  0  0  0  0  0
   -4.3240   18.6160  -34.1270 C   0  0  0  0  0  0  0  0  0  0  0  0
   -5.3290   19.4010  -33.5110 C   0  0  0  0  0  0  0  0  0  0  0  0
   -8.3790   21.7960  -31.7430 C   0  0  0  0  0  0  0  0  0  0  0  0
   -7.6360   23.1350  -31.6590 C   0  0  0  0  0  0  0  0  0  0  0  0
   -6.2670   22.9330  -32.3170 C   0  0  0  0  0  0  0  0  0  0  0  0
   -5.8386   25.6399  -28.7167 H   0  0  0  0  0  0  0  0  0  0  0  0
   -7.1097   26.3665  -29.7573 H   0  0  0  0  0  0  0  0  0  0  0  0
   -6.8572   24.5881  -29.7573 H   0  0  0  0  0  0  0  0  0  0  0  0
   -5.6982   25.1288  -31.6855 H   0  0  0  0  0  0  0  0  0  0  0  0
   -5.2607   26.7795  -31.0641 H   0  0  0  0  0  0  0  0  0  0  0  0
   -3.4930   24.9070  -31.2940 H   0  0  0  0  0  0  0  0  0  0  0  0
   -3.2556   24.2752  -28.7140 H   0  0  0  0  0  0  0  0  0  0  0  0
   -5.0362   24.1432  -28.9558 H   0  0  0  0  0  0  0  0  0  0  0  0
   -3.2589   22.1298  -29.5091 H   0  0  0  0  0  0  0  0  0  0  0  0
   -4.8562   22.3421  -30.3328 H   0  0  0  0  0  0  0  0  0  0  0  0
   -1.3156   22.3616  -31.9595 H   0  0  0  0  0  0  0  0  0  0  0  0
   -2.1004   21.3668  -30.6784 H   0  0  0  0  0  0  0  0  0  0  0  0
   -1.9430   20.6953  -33.3678 H   0  0  0  0  0  0  0  0  0  0  0  0
   -3.1445   20.0422  -32.1642 H   0  0  0  0  0  0  0  0  0  0  0  0
   -4.0040   22.4900  -33.2120 H   0  0  0  0  0  0  0  0  0  0  0  0
   -3.6460   21.5220  -34.4910 H   0  0  0  0  0  0  0  0  0  0  0  0
   -8.9921   18.8362  -31.1574 H   0  0  0  0  0  0  0  0  0  0  0  0
   -9.7077   19.4866  -32.6712 H   0  0  0  0  0  0  0  0  0  0  0  0
   -8.9204   17.8720  -32.6712 H   0  0  0  0  0  0  0  0  0  0  0  0
   -7.6944   16.9084  -33.1990 H   0  0  0  0  0  0  0  0  0  0  0  0
   -5.8821   15.5893  -34.2583 H   0  0  0  0  0  0  0  0  0  0  0  0
   -3.7299   16.6707  -34.8601 H   0  0  0  0  0  0  0  0  0  0  0  0
   -3.3674   19.0826  -34.4046 H   0  0  0  0  0  0  0  0  0  0  0  0
   -9.2665   21.8849  -32.3867 H   0  0  0  0  0  0  0  0  0  0  0  0
   -8.7386   21.4581  -30.7599 H   0  0  0  0  0  0  0  0  0  0  0  0
   -8.2002   23.9137  -32.1932 H   0  0  0  0  0  0  0  0  0  0  0  0
   -7.5239   23.4555  -30.6127 H   0  0  0  0  0  0  0  0  0  0  0  0
   -6.1846   23.5357  -33.2335 H   0  0  0  0  0  0  0  0  0  0  0  0
   -5.4407   23.2463  -31.6620 H   0  0  0  0  0  0  0  0  0  0  0  0
  1  2  1  0
  2  3  1  0
  3  4  1  0
  4  5  1  0
  5  6  1  0
  6  7  1  0
  7  8  1  0
  8  9  1  0
  9 10  1  0
 10 11  2  0
 11 12  1  0
 12 13  2  0
 13 14  1  0
 13 15  1  0
 15 16  2  0
 16 17  1  0
 17 18  2  0
 18 19  1  0
 19 20  2  0
 12 21  1  0
 21 22  1  0
 22 23  1  0
 20 10  1  0
 23 11  1  0
 20 15  1  0
  1 24  1  0
  1 25  1  0
  1 26  1  0
  2 27  1  0
  2 28  1  0
  3 29  1  0
  4 30  1  0
  4 31  1  0
  5 32  1  0
  5 33  1  0
  7 34  1  0
  7 35  1  0
  8 36  1  0
  8 37  1  0
  9 38  1  0
  9 39  1  0
 14 40  1  0
 14 41  1  0
 14 42  1  0
 16 43  1  0
 17 44  1  0
 18 45  1  0
 19 46  1  0
 21 47  1  0
 21 48  1  0
 22 49  1  0
 22 50  1  0
 23 51  1  0
 23 52  1  0
M  CHG  2   9   1  13   1
M  END
>  <UniqueID>  (11) 
11

>  <SMILES>  (11) 
CCNCCOCC[NH2+]c1c2c([n+](C)c3ccccc13)CCC2

>  <Energy>  (11) 
73.87596684360285

>  <Genealogy>  (11) 
CCNCCOCC[NH2+]c1c2c([n+](C)c3ccccc13)CCC2 (protonated)
CCNCCOCC[NH2+]c1c2c([n+](C)c3ccccc13)CCC2 (3D coordinates assigned)
CCNCCOCC[NH2+]c1c2c([n+](C)c3ccccc13)CCC2 (nonaromatic ring conformer: 73.87596684360285 kcal/mol)

>  <smiles>  (11) 
CCNCCOCCNc1c2c([n+](C)c3ccccc13)CCC2

>  <score_type>  (11) 
oracle

>  <origin>  (11) 
adg

>  <m_score__min__energy>  (11) 
-8.3300000000000001

>  <m_primary>  (11) 
energy

$$$$
11:0
     RDKit          3D

 44 45  0  0  0  0  0  0  0  0999 V2000
   -6.8600   17.4050  -33.1600 C   0  0  0  0  0  0  0  0  0  0  0  0
   -7.3060   18.2210  -31.9470 C   0  0  0  0  0  0  0  0  0  0  0  0
   -8.8170   18.4970  -31.9410 C   0  0  0  0  0  0  0  0  0  0  0  0
   -9.1550   19.9380  -32.3580 C   0  0  0  0  0  0  0  0  0  0  0  0
   -9.1190   20.9100  -31.1740 C   0  0  0  0  0  0  0  0  0  0  0  0
   -8.8620   22.6360  -31.7310 S   0  0  0  0  0  0  0  0  0  0  0  0
   -7.0690   22.4990  -31.8700 C   0  0  0  0  0  0  0  0  0  0  0  0
   -6.5690   21.4410  -32.5580 N   0  0  0  0  0  0  0  0  0  0  0  0
   -5.2370   21.2420  -32.6870 C   0  0  0  0  0  0  0  0  0  0  0  0
   -4.7650   20.1350  -33.3980 C   0  0  0  0  0  0  0  0  0  0  0  0
   -3.3820   19.9120  -33.5320 C   0  0  0  0  0  0  0  0  0  0  0  0
   -2.8710   18.8110  -34.2360 O   0  0  0  0  0  0  0  0  0  0  0  0
   -3.4900   17.5290  -34.2900 C   0  0  0  0  0  0  0  0  0  0  0  0
   -2.4740   20.8080  -32.9470 C   0  0  0  0  0  0  0  0  0  0  0  0
   -1.1010   20.5560  -33.0990 O   0  0  0  0  0  0  0  0  0  0  0  0
   -0.3820   20.6980  -34.3210 C   0  0  0  0  0  0  0  0  0  0  0  0
   -2.9540   21.9230  -32.2300 C   0  0  0  0  0  0  0  0  0  0  0  0
   -4.3370   22.1430  -32.0990 C   0  0  0  0  0  0  0  0  0  0  0  0
   -4.8610   23.2410  -31.3910 C   0  0  0  0  0  0  0  0  0  0  0  0
   -4.0730   24.0600  -30.8420 O   0  0  0  0  0  0  0  0  0  0  0  0
   -6.2220   23.4170  -31.2960 N   0  0  0  0  0  0  0  0  0  0  0  0
   -6.7830   24.5570  -30.5520 C   0  0  0  0  0  0  0  0  0  0  0  0
   -6.3583   16.4870  -32.8200 H   0  0  0  0  0  0  0  0  0  0  0  0
   -7.7385   17.1396  -33.7665 H   0  0  0  0  0  0  0  0  0  0  0  0
   -6.1623   18.0011  -33.7665 H   0  0  0  0  0  0  0  0  0  0  0  0
   -7.0462   17.6650  -31.0341 H   0  0  0  0  0  0  0  0  0  0  0  0
   -6.7912   19.1920  -31.9924 H   0  0  0  0  0  0  0  0  0  0  0  0
   -9.3049   17.8035  -32.6418 H   0  0  0  0  0  0  0  0  0  0  0  0
   -9.1784   18.3538  -30.9120 H   0  0  0  0  0  0  0  0  0  0  0  0
   -8.4237   20.2693  -33.1100 H   0  0  0  0  0  0  0  0  0  0  0  0
  -10.1775   19.9397  -32.7637 H   0  0  0  0  0  0  0  0  0  0  0  0
  -10.0737   20.8479  -30.6312 H   0  0  0  0  0  0  0  0  0  0  0  0
   -8.2791   20.6289  -30.5217 H   0  0  0  0  0  0  0  0  0  0  0  0
   -5.4787   19.4341  -33.8554 H   0  0  0  0  0  0  0  0  0  0  0  0
   -3.6664   17.1636  -33.2676 H   0  0  0  0  0  0  0  0  0  0  0  0
   -4.4496   17.6073  -34.8221 H   0  0  0  0  0  0  0  0  0  0  0  0
   -2.8320   16.8262  -34.8221 H   0  0  0  0  0  0  0  0  0  0  0  0
    0.6756   20.9069  -34.1020 H   0  0  0  0  0  0  0  0  0  0  0  0
   -0.4592   19.7673  -34.9022 H   0  0  0  0  0  0  0  0  0  0  0  0
   -0.8073   21.5295  -34.9022 H   0  0  0  0  0  0  0  0  0  0  0  0
   -2.2427   22.6250  -31.7703 H   0  0  0  0  0  0  0  0  0  0  0  0
   -6.6913   24.3707  -29.4718 H   0  0  0  0  0  0  0  0  0  0  0  0
   -6.2325   25.4726  -30.8142 H   0  0  0  0  0  0  0  0  0  0  0  0
   -7.8443   24.6794  -30.8142 H   0  0  0  0  0  0  0  0  0  0  0  0
  1  2  1  0
  2  3  1  0
  3  4  1  0
  4  5  1  0
  5  6  1  0
  6  7  1  0
  7  8  2  0
  8  9  1  0
  9 10  2  0
 10 11  1  0
 11 12  1  0
 12 13  1  0
 11 14  2  0
 14 15  1  0
 15 16  1  0
 14 17  1  0
 17 18  2  0
 18 19  1  0
 19 20  2  0
 19 21  1  0
 21 22  1  0
 21  7  1  0
 18  9  1  0
  1 23  1  0
  1 24  1  0
  1 25  1  0
  2 26  1  0
  2 27  1  0
  3 28  1  0
  3 29  1  0
  4 30  1  0
  4 31  1  0
  5 32  1  0
  5 33  1  0
 10 34  1  0
 13 35  1  0
 13 36  1  0
 13 37  1  0
 16 38  1  0
 16 39  1  0
 16 40  1  0
 17 41  1  0
 22 42  1  0
 22 43  1  0
 22 44  1  0
M  END
>  <UniqueID>  (12) 
12

>  <SMILES>  (12) 
CCCCCSc1nc2cc(OC)c(OC)cc2c(=O)n1C

>  <Energy>  (12) 
40.18096642827367

>  <Genealogy>  (12) 
CCCCCSc1nc2cc(OC)c(OC)cc2c(=O)n1C (3D coordinates assigned)
CCCCCSc1nc2cc(OC)c(OC)cc2c(=O)n1C (optimized conformer: 40.18096642827367 kcal/mol)

>  <smiles>  (12) 
CCCCCSc1nc2cc(OC)c(OC)cc2c(=O)n1C

>  <score_type>  (12) 
oracle

>  <origin>  (12) 
adg

>  <m_score__min__energy>  (12) 
-7.4500000000000002

>  <m_primary>  (12) 
energy

$$$$
12:0
     RDKit          3D

 61 63  0  0  0  0  0  0  0  0999 V2000
   -8.7200   20.8250  -31.9410 C   0  0  0  0  0  0  0  0  0  0  0  0
   -8.6250   22.3130  -31.6260 C   0  0  0  0  0  0  0  0  0  0  0  0
   -7.2380   22.8690  -31.9830 C   0  0  0  0  0  0  0  0  0  0  0  0
   -6.0970   21.9260  -31.5720 C   0  0  0  0  0  0  0  0  0  0  0  0
   -4.9880   21.8410  -32.6320 C   0  0  0  0  0  0  0  0  0  0  0  0
   -4.4790   20.4010  -32.7820 C   0  0  0  0  0  0  0  0  0  0  0  0
   -3.0240   20.3270  -33.2740 C   0  0  0  0  0  0  0  0  0  0  0  0
   -1.9960   20.4270  -32.1410 C   0  0  0  0  0  0  0  0  0  0  0  0
   -2.6600   20.4850  -30.8810 O   0  0  0  0  0  0  0  0  0  0  0  0
   -2.8640   21.6680  -30.1600 C   0  0  0  0  0  0  0  0  0  0  0  0
   -3.7620   21.6590  -29.1630 C   0  0  0  0  0  0  0  0  0  0  0  0
   -4.0880   22.9240  -28.4070 C   0  0  2  0  0  0  0  0  0  0  0  0
   -4.8640   23.9010  -29.3670 C   0  0  1  0  0  0  0  0  0  0  0  0
   -5.6700   24.7970  -28.6250 O   0  0  0  0  0  0  0  0  0  0  0  0
   -6.4910   25.5460  -29.4950 C   0  0  0  0  0  0  0  0  0  0  0  0
   -3.7380   24.6800  -30.0200 C   0  0  0  0  0  0  0  0  0  0  0  0
   -3.8810   25.5510  -30.8620 O   0  0  0  0  0  0  0  0  0  0  0  0
   -2.4300   24.1400  -29.5570 C   0  0  1  0  0  0  0  0  0  0  0  0
   -2.0380   22.9170  -30.4460 C   0  0  0  0  0  0  0  0  0  0  0  0
   -1.3130   24.9800  -29.3460 O   0  0  0  0  0  0  0  0  0  0  0  0
   -0.6700   24.5360  -28.1850 C   0  0  0  0  0  0  0  0  0  0  0  0
    0.4580   24.9670  -27.8270 O   0  0  0  0  0  0  0  0  0  0  0  0
   -1.4910   23.5480  -27.3880 C   0  0  2  0  0  0  0  0  0  0  0  0
   -0.8750   22.1250  -27.3710 C   0  0  0  0  0  0  0  0  0  0  0  0
   -1.5290   21.2080  -26.3250 C   0  0  0  0  0  0  0  0  0  0  0  0
   -1.9680   19.8660  -26.9030 C   0  0  0  0  0  0  0  0  0  0  0  0
   -2.8210   23.7450  -28.1470 C   0  0  2  0  0  0  0  0  0  0  0  0
   -8.7565   20.2531  -31.0021 H   0  0  0  0  0  0  0  0  0  0  0  0
   -9.6323   20.6312  -32.5241 H   0  0  0  0  0  0  0  0  0  0  0  0
   -7.8397   20.5167  -32.5241 H   0  0  0  0  0  0  0  0  0  0  0  0
   -9.3880   22.8521  -32.2067 H   0  0  0  0  0  0  0  0  0  0  0  0
   -8.7888   22.4518  -30.5472 H   0  0  0  0  0  0  0  0  0  0  0  0
   -7.1909   23.0251  -33.0709 H   0  0  0  0  0  0  0  0  0  0  0  0
   -7.1056   23.8109  -31.4305 H   0  0  0  0  0  0  0  0  0  0  0  0
   -5.6584   22.2928  -30.6323 H   0  0  0  0  0  0  0  0  0  0  0  0
   -6.5236   20.9188  -31.4556 H   0  0  0  0  0  0  0  0  0  0  0  0
   -5.3869   22.1839  -33.5981 H   0  0  0  0  0  0  0  0  0  0  0  0
   -4.1494   22.4775  -32.3133 H   0  0  0  0  0  0  0  0  0  0  0  0
   -4.5442   19.9023  -31.8037 H   0  0  0  0  0  0  0  0  0  0  0  0
   -5.1076   19.9065  -33.5372 H   0  0  0  0  0  0  0  0  0  0  0  0
   -2.8792   19.3682  -33.7934 H   0  0  0  0  0  0  0  0  0  0  0  0
   -2.8605   21.1873  -33.9397 H   0  0  0  0  0  0  0  0  0  0  0  0
   -1.3398   19.5445  -32.1662 H   0  0  0  0  0  0  0  0  0  0  0  0
   -1.3992   21.3411  -32.2759 H   0  0  0  0  0  0  0  0  0  0  0  0
   -4.2662   20.7192  -28.8937 H   0  0  0  0  0  0  0  0  0  0  0  0
   -4.6209   22.6156  -27.4955 H   0  0  0  0  0  0  0  0  0  0  0  0
   -5.5284   23.3761  -30.0692 H   0  0  0  0  0  0  0  0  0  0  0  0
   -7.1766   26.1714  -28.9044 H   0  0  0  0  0  0  0  0  0  0  0  0
   -5.8628   26.1887  -30.1293 H   0  0  0  0  0  0  0  0  0  0  0  0
   -7.0735   24.8616  -30.1293 H   0  0  0  0  0  0  0  0  0  0  0  0
   -2.1794   23.1939  -31.5011 H   0  0  0  0  0  0  0  0  0  0  0  0
   -0.9906   22.6721  -30.2158 H   0  0  0  0  0  0  0  0  0  0  0  0
   -1.5761   23.6952  -26.3012 H   0  0  0  0  0  0  0  0  0  0  0  0
   -1.0051   21.6733  -28.3655 H   0  0  0  0  0  0  0  0  0  0  0  0
    0.1878   22.2262  -27.1061 H   0  0  0  0  0  0  0  0  0  0  0  0
   -0.8041   21.0225  -25.5187 H   0  0  0  0  0  0  0  0  0  0  0  0
   -2.4304   21.7190  -25.9558 H   0  0  0  0  0  0  0  0  0  0  0  0
   -2.1957   19.1701  -26.0821 H   0  0  0  0  0  0  0  0  0  0  0  0
   -2.8661   20.0094  -27.5218 H   0  0  0  0  0  0  0  0  0  0  0  0
   -1.1588   19.4509  -27.5218 H   0  0  0  0  0  0  0  0  0  0  0  0
   -3.2301   24.3087  -27.2956 H   0  0  0  0  0  0  0  0  0  0  0  0
  1  2  1  0
  2  3  1  0
  3  4  1  0
  4  5  1  0
  5  6  1  0
  6  7  1  0
  7  8  1  0
  8  9  1  0
  9 10  1  0
 10 11  2  0
 11 12  1  0
 12 13  1  0
 13 14  1  0
 14 15  1  0
 13 16  1  0
 16 17  2  0
 16 18  1  0
 18 19  1  0
 18 20  1  1
 20 21  1  0
 21 22  2  0
 21 23  1  0
 23 24  1  0
 24 25  1  0
 25 26  1  0
 23 27  1  0
 19 10  1  0
 27 12  1  0
 27 18  1  0
  1 28  1  0
  1 29  1  0
  1 30  1  0
  2 31  1  0
  2 32  1  0
  3 33  1  0
  3 34  1  0
  4 35  1  0
  4 36  1  0
  5 37  1  0
  5 38  1  0
  6 39  1  0
  6 40  1  0
  7 41  1  0
  7 42  1  0
  8 43  1  0
  8 44  1  0
 11 45  1  0
 12 46  1  1
 13 47  1  6
 15 48  1  0
 15 49  1  0
 15 50  1  0
 19 51  1  0
 19 52  1  0
 23 53  1  1
 24 54  1  0
 24 55  1  0
 25 56  1  0
 25 57  1  0
 26 58  1  0
 26 59  1  0
 26 60  1  0
 27 61  1  1
M  END
>  <UniqueID>  (13) 
13

>  <SMILES>  (13) 
CCCCCCCCOC1=C[C@H]2C3C(CCC)C(=O)OC3(C1)C(=O)[C@@H]2OC

>  <Energy>  (13) 
105.36211119583227

>  <Genealogy>  (13) 
CCCCCCCCOC1=C[C@H]2C3C(CCC)C(=O)OC3(C1)C(=O)[C@@H]2OC (chirality)
CCCCCCCCOC1=C[C@H]2C3C(CCC)C(=O)OC3(C1)C(=O)[C@@H]2OC (3D coordinates assigned)
CCCCCCCCOC1=C[C@H]2C3C(CCC)C(=O)OC3(C1)C(=O)[C@@H]2OC (nonaromatic ring conformer: 105.36211119583227 kcal/mol)

>  <smiles>  (13) 
CCCCCCCCOC1=CC2C(OC)C(=O)C3(C1)OC(=O)C(CCC)C23

>  <score_type>  (13) 
oracle

>  <origin>  (13) 
adg

>  <m_score__min__energy>  (13) 
-8.4700000000000006

>  <m_primary>  (13) 
energy

$$$$
13:0
     RDKit          3D

 57 60  0  0  0  0  0  0  0  0999 V2000
    0.3610   27.4830  -23.2740 C   0  0  0  0  0  0  0  0  0  0  0  0
   -0.6810   27.3570  -24.3990 C   0  0  0  0  0  0  0  0  0  0  0  0
   -0.7610   26.0180  -25.0570 N   0  0  1  0  0  0  0  0  0  0  0  0
   -0.4890   24.9100  -24.1000 C   0  0  0  0  0  0  0  0  0  0  0  0
   -0.4810   23.5440  -24.8350 C   0  0  0  0  0  0  0  0  0  0  0  0
   -0.7890   23.7240  -26.2810 N   0  0  1  0  0  0  0  0  0  0  0  0
   -0.8900   22.4200  -27.0170 C   0  0  0  0  0  0  0  0  0  0  0  0
   -0.6180   22.4350  -28.5450 C   0  0  0  0  0  0  0  0  0  0  0  0
   -1.8490   22.5940  -29.4000 C   0  0  0  0  0  0  0  0  0  0  0  0
   -2.3820   23.8690  -29.6430 C   0  0  0  0  0  0  0  0  0  0  0  0
   -3.5180   24.0340  -30.4580 C   0  0  0  0  0  0  0  0  0  0  0  0
   -4.0540   25.3070  -30.7260 O   0  0  0  0  0  0  0  0  0  0  0  0
   -5.3700   25.7220  -30.3770 C   0  0  0  0  0  0  0  0  0  0  0  0
   -4.1350   22.8970  -31.0190 C   0  0  0  0  0  0  0  0  0  0  0  0
   -5.2630   23.0130  -31.8450 C   0  0  0  0  0  0  0  0  0  0  0  0
   -5.8480   21.8670  -32.3840 C   0  0  0  0  0  0  0  0  0  0  0  0
   -5.3450   20.6280  -32.1050 N   0  0  0  0  0  0  0  0  0  0  0  0
   -5.9540   19.4430  -32.7130 C   0  0  0  0  0  0  0  0  0  0  0  0
   -4.2340   20.4880  -31.3200 C   0  0  0  0  0  0  0  0  0  0  0  0
   -3.6120   21.6120  -30.7570 C   0  0  0  0  0  0  0  0  0  0  0  0
   -2.4790   21.4670  -29.9450 C   0  0  0  0  0  0  0  0  0  0  0  0
   -2.1080   24.4160  -26.4010 C   0  0  0  0  0  0  0  0  0  0  0  0
   -2.0880   25.7880  -25.6830 C   0  0  0  0  0  0  0  0  0  0  0  0
    0.2410   24.6170  -26.8770 C   0  0  0  0  0  0  0  0  0  0  0  0
    0.2680   25.9760  -26.1360 C   0  0  0  0  0  0  0  0  0  0  0  0
   -0.1435   27.4220  -22.2984 H   0  0  0  0  0  0  0  0  0  0  0  0
    1.0936   26.6669  -23.3596 H   0  0  0  0  0  0  0  0  0  0  0  0
    0.8779   28.4502  -23.3596 H   0  0  0  0  0  0  0  0  0  0  0  0
   -1.6691   27.5841  -23.9723 H   0  0  0  0  0  0  0  0  0  0  0  0
   -0.3636   28.0597  -25.1836 H   0  0  0  0  0  0  0  0  0  0  0  0
    0.4912   25.0724  -23.6280 H   0  0  0  0  0  0  0  0  0  0  0  0
   -1.2812   24.8977  -23.3369 H   0  0  0  0  0  0  0  0  0  0  0  0
    0.5128   23.0839  -24.7318 H   0  0  0  0  0  0  0  0  0  0  0  0
   -1.2490   22.8963  -24.3872 H   0  0  0  0  0  0  0  0  0  0  0  0
   -0.1672   21.7276  -26.5607 H   0  0  0  0  0  0  0  0  0  0  0  0
   -1.9463   22.1275  -26.9239 H   0  0  0  0  0  0  0  0  0  0  0  0
    0.0623   23.2712  -28.7642 H   0  0  0  0  0  0  0  0  0  0  0  0
   -0.1895   21.4532  -28.7950 H   0  0  0  0  0  0  0  0  0  0  0  0
   -1.9059   24.7514  -29.1907 H   0  0  0  0  0  0  0  0  0  0  0  0
   -5.4665   25.7524  -29.2817 H   0  0  0  0  0  0  0  0  0  0  0  0
   -5.5602   26.7237  -30.7898 H   0  0  0  0  0  0  0  0  0  0  0  0
   -6.1004   25.0106  -30.7898 H   0  0  0  0  0  0  0  0  0  0  0  0
   -5.6848   24.0044  -32.0669 H   0  0  0  0  0  0  0  0  0  0  0  0
   -6.7247   21.9622  -33.0415 H   0  0  0  0  0  0  0  0  0  0  0  0
   -6.3033   18.7634  -31.9217 H   0  0  0  0  0  0  0  0  0  0  0  0
   -6.8069   19.7483  -33.3370 H   0  0  0  0  0  0  0  0  0  0  0  0
   -5.2092   18.9272  -33.3370 H   0  0  0  0  0  0  0  0  0  0  0  0
   -3.8246   19.4852  -31.1284 H   0  0  0  0  0  0  0  0  0  0  0  0
   -2.0820   20.4630  -29.7343 H   0  0  0  0  0  0  0  0  0  0  0  0
   -2.3360   24.5716  -27.4658 H   0  0  0  0  0  0  0  0  0  0  0  0
   -2.8760   23.7864  -25.9278 H   0  0  0  0  0  0  0  0  0  0  0  0
   -2.2878   26.5845  -26.4149 H   0  0  0  0  0  0  0  0  0  0  0  0
   -2.8611   25.7958  -24.9005 H   0  0  0  0  0  0  0  0  0  0  0  0
    1.2280   24.1386  -26.7937 H   0  0  0  0  0  0  0  0  0  0  0  0
   -0.0054   24.7912  -27.9348 H   0  0  0  0  0  0  0  0  0  0  0  0
    1.2628   26.1227  -25.6901 H   0  0  0  0  0  0  0  0  0  0  0  0
    0.0484   26.7741  -26.8604 H   0  0  0  0  0  0  0  0  0  0  0  0
  1  2  1  0
  3  2  1  1
  3  4  1  0
  4  5  1  0
  5  6  1  0
  6  7  1  6
  7  8  1  0
  8  9  1  0
  9 10  2  0
 10 11  1  0
 11 12  1  0
 12 13  1  0
 11 14  2  0
 14 15  1  0
 15 16  2  0
 16 17  1  0
 17 18  1  0
 17 19  2  0
 19 20  1  0
 20 21  2  0
  6 22  1  0
 22 23  1  0
  6 24  1  0
 24 25  1  0
 23  3  1  0
 25  3  1  0
 21  9  1  0
 20 14  1  0
  1 26  1  0
  1 27  1  0
  1 28  1  0
  2 29  1  0
  2 30  1  0
  4 31  1  0
  4 32  1  0
  5 33  1  0
  5 34  1  0
  7 35  1  0
  7 36  1  0
  8 37  1  0
  8 38  1  0
 10 39  1  0
 13 40  1  0
 13 41  1  0
 13 42  1  0
 15 43  1  0
 16 44  1  0
 18 45  1  0
 18 46  1  0
 18 47  1  0
 19 48  1  0
 21 49  1  0
 22 50  1  0
 22 51  1  0
 23 52  1  0
 23 53  1  0
 24 54  1  0
 24 55  1  0
 25 56  1  0
 25 57  1  0
M  CHG  3   3   1   6   1  17   1
M  END
>  <UniqueID>  (14) 
14

>  <SMILES>  (14) 
CC[N+]12CC[N+](CCc3cc(OC)c4cc[n+](C)cc4c3)(CC1)CC2

>  <Energy>  (14) 
91.7372776240393

>  <Genealogy>  (14) 
CC[N+]12CC[N+](CCc3cc(OC)c4cc[n+](C)cc4c3)(CC1)CC2 (3D coordinates assigned)
CC[N+]12CC[N+](CCc3cc(OC)c4cc[n+](C)cc4c3)(CC1)CC2 (nonaromatic ring conformer: 91.7372776240393 kcal/mol)

>  <smiles>  (14) 
CC[N+]12CC[N+](CCc3cc(OC)c4cc[n+](C)cc4c3)(CC1)CC2

>  <score_type>  (14) 
oracle

>  <origin>  (14) 
adg

>  <m_score__min__energy>  (14) 
-6.0599999999999996

>  <m_primary>  (14) 
energy

$$$$
14:0
     RDKit          3D

 34 35  0  0  0  0  0  0  0  0999 V2000
   -2.7420   20.3230  -27.4650 C   0  0  0  0  0  0  0  0  0  0  0  0
   -1.5390   21.0150  -28.1100 C   0  0  0  0  0  0  0  0  0  0  0  0
   -1.8750   22.3360  -28.6770 N   0  0  0  0  0  0  0  0  0  0  0  0
   -1.0940   23.4640  -28.1290 C   0  0  0  0  0  0  0  0  0  0  0  0
   -1.8790   24.7860  -28.0500 C   0  0  0  0  0  0  0  0  0  0  0  0
   -2.5190   25.0930  -29.3300 N   0  0  0  0  0  0  0  0  0  0  0  0
   -3.6830   24.4130  -29.8260 C   0  0  0  0  0  0  0  0  0  0  0  0
   -4.9700   24.9590  -29.6920 C   0  0  0  0  0  0  0  0  0  0  0  0
   -6.0760   24.2640  -30.1920 C   0  0  0  0  0  0  0  0  0  0  0  0
   -7.2280   24.7610  -30.0610 O   0  0  0  0  0  0  0  0  0  0  0  0
   -5.8910   23.0290  -30.8380 C   0  0  0  0  0  0  0  0  0  0  0  0
   -6.9700   22.2880  -31.3580 C   0  0  0  0  0  0  0  0  0  0  0  0
   -6.7380   21.0670  -32.0000 C   0  0  0  0  0  0  0  0  0  0  0  0
   -8.2050   20.0660  -32.7030 Br  0  0  0  0  0  0  0  0  0  0  0  0
   -5.4340   20.5760  -32.1290 C   0  0  0  0  0  0  0  0  0  0  0  0
   -4.3570   21.3040  -31.6180 C   0  0  0  0  0  0  0  0  0  0  0  0
   -4.5770   22.5260  -30.9730 C   0  0  0  0  0  0  0  0  0  0  0  0
   -3.5250   23.2270  -30.4730 N   0  0  0  0  0  0  0  0  0  0  0  0
   -2.6513   20.3751  -26.3700 H   0  0  0  0  0  0  0  0  0  0  0  0
   -3.6675   20.8268  -27.7807 H   0  0  0  0  0  0  0  0  0  0  0  0
   -2.7718   19.2697  -27.7807 H   0  0  0  0  0  0  0  0  0  0  0  0
   -0.7591   21.1486  -27.3459 H   0  0  0  0  0  0  0  0  0  0  0  0
   -1.1946   20.3773  -28.9375 H   0  0  0  0  0  0  0  0  0  0  0  0
   -2.8940   22.5150  -28.5280 H   0  0  0  0  0  0  0  0  0  0  0  0
   -1.7230   22.3050  -29.7120 H   0  0  0  0  0  0  0  0  0  0  0  0
   -0.7637   23.1961  -27.1145 H   0  0  0  0  0  0  0  0  0  0  0  0
   -0.2520   23.6332  -28.8163 H   0  0  0  0  0  0  0  0  0  0  0  0
   -2.6525   24.6992  -27.2727 H   0  0  0  0  0  0  0  0  0  0  0  0
   -1.1767   25.5967  -27.8058 H   0  0  0  0  0  0  0  0  0  0  0  0
   -1.9680   25.6620  -30.0120 H   0  0  0  0  0  0  0  0  0  0  0  0
   -5.1078   25.9307  -29.1951 H   0  0  0  0  0  0  0  0  0  0  0  0
   -7.9968   22.6700  -31.2591 H   0  0  0  0  0  0  0  0  0  0  0  0
   -5.2568   19.6149  -32.6338 H   0  0  0  0  0  0  0  0  0  0  0  0
   -3.3332   20.9156  -31.7229 H   0  0  0  0  0  0  0  0  0  0  0  0
  1  2  1  0
  2  3  1  0
  3  4  1  0
  4  5  1  0
  5  6  1  0
  6  7  1  0
  7  8  2  0
  8  9  1  0
  9 10  2  0
  9 11  1  0
 11 12  2  0
 12 13  1  0
 13 14  1  0
 13 15  2  0
 15 16  1  0
 16 17  2  0
 17 18  1  0
 18  7  1  0
 17 11  1  0
  1 19  1  0
  1 20  1  0
  1 21  1  0
  2 22  1  0
  2 23  1  0
  3 24  1  0
  3 25  1  0
  4 26  1  0
  4 27  1  0
  5 28  1  0
  5 29  1  0
  6 30  1  0
  8 31  1  0
 12 32  1  0
 15 33  1  0
 16 34  1  0
M  CHG  2   3   1  18  -1
M  END
>  <UniqueID>  (15) 
15

>  <SMILES>  (15) 
CC[NH2+]CCNc1cc(=O)c2cc(Br)ccc2[n-]1

>  <Energy>  (15) 
37.92706459579674

>  <Genealogy>  (15) 
CC[NH2+]CCNc1cc(=O)c2cc(Br)ccc2[n-]1 (protonated)
CC[NH2+]CCNc1cc(=O)c2cc(Br)ccc2[n-]1 (3D coordinates assigned)
CC[NH2+]CCNc1cc(=O)c2cc(Br)ccc2[n-]1 (optimized conformer: 37.92706459579674 kcal/mol)

>  <smiles>  (15) 
CCNCCNc1cc(=O)c2cc(Br)ccc2[nH]1

>  <score_type>  (15) 
oracle

>  <origin>  (15) 
adg

>  <m_score__min__energy>  (15) 
-7.2400000000000002

>  <m_primary>  (15) 
energy

$$$$
15:0
     RDKit          3D

 45 48  0  0  0  0  0  0  0  0999 V2000
   -6.1370   14.2230  -34.2130 C   0  0  0  0  0  0  0  0  0  0  0  0
   -5.7950   15.6510  -33.9230 C   0  0  0  0  0  0  0  0  0  0  0  0
   -4.4620   16.0530  -33.8320 C   0  0  0  0  0  0  0  0  0  0  0  0
   -4.1600   17.3880  -33.5600 C   0  0  0  0  0  0  0  0  0  0  0  0
   -5.1950   18.3340  -33.3780 C   0  0  0  0  0  0  0  0  0  0  0  0
   -6.5320   17.8720  -33.4800 C   0  0  0  0  0  0  0  0  0  0  0  0
   -6.7860   16.5620  -33.7460 N   0  0  0  0  0  0  0  0  0  0  0  0
   -7.5720   18.7300  -33.3140 N   0  0  0  0  0  0  0  0  0  0  0  0
   -7.3810   20.0450  -33.0480 C   0  0  0  0  0  0  0  0  0  0  0  0
   -6.0860   20.5690  -32.9330 C   0  0  0  0  0  0  0  0  0  0  0  0
   -5.8830   21.9360  -32.6580 C   0  0  0  0  0  0  0  0  0  0  0  0
   -6.9810   22.7920  -32.4900 O   0  0  0  0  0  0  0  0  0  0  0  0
   -7.7910   22.8230  -31.3170 C   0  0  0  0  0  0  0  0  0  0  0  0
   -6.9350   22.5960  -30.0640 C   0  0  0  0  0  0  0  0  0  0  0  0
   -6.3010   23.8520  -29.6070 N   0  0  0  0  0  0  0  0  0  0  0  0
   -4.9440   23.6080  -29.0560 C   0  0  0  0  0  0  0  0  0  0  0  0
   -3.8420   23.9550  -30.0740 C   0  0  0  0  0  0  0  0  0  0  0  0
   -3.8660   25.3090  -30.5020 O   0  0  0  0  0  0  0  0  0  0  0  0
   -5.1590   25.8970  -30.4650 C   0  0  0  0  0  0  0  0  0  0  0  0
   -6.2990   24.8860  -30.6700 C   0  0  0  0  0  0  0  0  0  0  0  0
   -4.6160   22.4200  -32.5490 N   0  0  0  0  0  0  0  0  0  0  0  0
   -3.5270   21.6280  -32.7010 C   0  0  0  0  0  0  0  0  0  0  0  0
   -3.6770   20.2700  -32.9760 C   0  0  0  0  0  0  0  0  0  0  0  0
   -4.9680   19.7100  -33.0980 C   0  0  0  0  0  0  0  0  0  0  0  0
   -6.2676   13.6778  -33.2666 H   0  0  0  0  0  0  0  0  0  0  0  0
   -7.0708   14.1801  -34.7928 H   0  0  0  0  0  0  0  0  0  0  0  0
   -5.3239   13.7617  -34.7928 H   0  0  0  0  0  0  0  0  0  0  0  0
   -3.6531   15.3212  -33.9740 H   0  0  0  0  0  0  0  0  0  0  0  0
   -3.1097   17.7065  -33.4867 H   0  0  0  0  0  0  0  0  0  0  0  0
   -8.5510   18.3730  -33.3950 H   0  0  0  0  0  0  0  0  0  0  0  0
   -8.2501   20.7072  -32.9212 H   0  0  0  0  0  0  0  0  0  0  0  0
   -8.2852   23.8031  -31.2446 H   0  0  0  0  0  0  0  0  0  0  0  0
   -8.5423   22.0223  -31.3833 H   0  0  0  0  0  0  0  0  0  0  0  0
   -7.5753   22.2052  -29.2594 H   0  0  0  0  0  0  0  0  0  0  0  0
   -6.1396   21.8785  -30.3141 H   0  0  0  0  0  0  0  0  0  0  0  0
   -4.8075   24.2287  -28.1582 H   0  0  0  0  0  0  0  0  0  0  0  0
   -4.8608   22.5382  -28.8138 H   0  0  0  0  0  0  0  0  0  0  0  0
   -2.8650   23.7547  -29.6099 H   0  0  0  0  0  0  0  0  0  0  0  0
   -4.0192   23.3333  -30.9640 H   0  0  0  0  0  0  0  0  0  0  0  0
   -5.2939   26.3799  -29.4859 H   0  0  0  0  0  0  0  0  0  0  0  0
   -5.2112   26.6160  -31.2958 H   0  0  0  0  0  0  0  0  0  0  0  0
   -7.2599   25.4210  -30.6510 H   0  0  0  0  0  0  0  0  0  0  0  0
   -6.1500   24.3870  -31.6389 H   0  0  0  0  0  0  0  0  0  0  0  0
   -2.5194   22.0592  -32.6068 H   0  0  0  0  0  0  0  0  0  0  0  0
   -2.7885   19.6332  -33.0983 H   0  0  0  0  0  0  0  0  0  0  0  0
  1  2  1  0
  2  3  2  0
  3  4  1  0
  4  5  2  0
  5  6  1  0
  6  7  2  0
  6  8  1  0
  8  9  2  0
  9 10  1  0
 10 11  2  0
 11 12  1  0
 12 13  1  0
 13 14  1  0
 14 15  1  0
 15 16  1  0
 16 17  1  0
 17 18  1  0
 18 19  1  0
 19 20  1  0
 11 21  1  0
 21 22  2  0
 22 23  1  0
 23 24  2  0
  7  2  1  0
 24 10  1  0
 24  5  1  0
 20 15  1  0
  1 25  1  0
  1 26  1  0
  1 27  1  0
  3 28  1  0
  4 29  1  0
  8 30  1  0
  9 31  1  0
 13 32  1  0
 13 33  1  0
 14 34  1  0
 14 35  1  0
 16 36  1  0
 16 37  1  0
 17 38  1  0
 17 39  1  0
 19 40  1  0
 19 41  1  0
 20 42  1  0
 20 43  1  0
 22 44  1  0
 23 45  1  0
M  CHG  1   8   1
M  END
>  <UniqueID>  (16) 
16

>  <SMILES>  (16) 
Cc1ccc2c(n1)[nH+]cc1c(OCCN3CCOCC3)nccc12

>  <Energy>  (16) 
71.21148753355

>  <Genealogy>  (16) 
Cc1ccc2c(n1)[nH+]cc1c(OCCN3CCOCC3)nccc12 (protonated)
Cc1ccc2c(n1)[nH+]cc1c(OCCN3CCOCC3)nccc12 (3D coordinates assigned)
Cc1ccc2c(n1)[nH+]cc1c(OCCN3CCOCC3)nccc12 (nonaromatic ring conformer: 71.21148753355 kcal/mol)

>  <smiles>  (16) 
Cc1ccc2c(ncc3c(OCCN4CCOCC4)nccc32)n1

>  <score_type>  (16) 
oracle

>  <origin>  (16) 
adg

>  <m_score__min__energy>  (16) 
-8.0099999999999998

>  <m_primary>  (16) 
energy

$$$$
16:0
     RDKit          3D

 53 55  0  0  0  0  0  0  0  0999 V2000
   -2.7460   25.2850  -26.2050 C   0  0  0  0  0  0  0  0  0  0  0  0
   -4.2390   24.9830  -26.3200 C   0  0  0  0  0  0  0  0  0  0  0  0
   -4.5770   24.5300  -27.6800 N   0  0  0  0  0  0  0  0  0  0  0  0
   -3.8380   23.3140  -28.0680 C   0  0  0  0  0  0  0  0  0  0  0  0
   -4.2110   22.7680  -29.4620 C   0  0  0  0  0  0  0  0  0  0  0  0
   -4.2310   23.8470  -30.5660 C   0  0  0  0  0  0  0  0  0  0  0  0
   -5.5960   23.9350  -31.2650 C   0  0  0  0  0  0  0  0  0  0  0  0
   -5.5960   23.1990  -32.5320 N   0  0  0  0  0  0  0  0  0  0  0  0
   -5.7190   21.7650  -32.5930 C   0  0  0  0  0  0  0  0  0  0  0  0
   -4.6010   20.9800  -32.9200 C   0  0  0  0  0  0  0  0  0  0  0  0
   -3.3410   21.5830  -33.1280 C   0  0  0  0  0  0  0  0  0  0  0  0
   -2.2400   20.8230  -33.5090 C   0  0  0  0  0  0  0  0  0  0  0  0
   -2.3730   19.4540  -33.6920 C   0  0  0  0  0  0  0  0  0  0  0  0
   -3.6020   18.8310  -33.4760 C   0  0  0  0  0  0  0  0  0  0  0  0
   -4.7440   19.5720  -33.0620 C   0  0  0  0  0  0  0  0  0  0  0  0
   -5.9670   18.9640  -32.8180 N   0  0  0  0  0  0  0  0  0  0  0  0
   -6.0660   17.4830  -32.7830 C   0  0  0  0  0  0  0  0  0  0  0  0
   -6.4070   16.9230  -34.1630 C   0  0  0  0  0  0  0  0  0  0  0  0
   -7.0880   19.7400  -32.5600 C   0  0  0  0  0  0  0  0  0  0  0  0
   -8.3890   19.1760  -32.4640 C   0  0  0  0  0  0  0  0  0  0  0  0
   -9.4920   19.9570  -32.1190 C   0  0  0  0  0  0  0  0  0  0  0  0
   -9.3370   21.3110  -31.8580 C   0  0  0  0  0  0  0  0  0  0  0  0
   -8.0850   21.9040  -31.9870 C   0  0  0  0  0  0  0  0  0  0  0  0
   -6.9630   21.1460  -32.3860 C   0  0  0  0  0  0  0  0  0  0  0  0
   -2.4642   25.3420  -25.1432 H   0  0  0  0  0  0  0  0  0  0  0  0
   -2.1713   24.4849  -26.6945 H   0  0  0  0  0  0  0  0  0  0  0  0
   -2.5274   26.2455  -26.6945 H   0  0  0  0  0  0  0  0  0  0  0  0
   -4.5039   24.1941  -25.6007 H   0  0  0  0  0  0  0  0  0  0  0  0
   -4.8027   25.9026  -26.1040 H   0  0  0  0  0  0  0  0  0  0  0  0
   -5.5980   24.2980  -27.7050 H   0  0  0  0  0  0  0  0  0  0  0  0
   -4.4120   25.2980  -28.3710 H   0  0  0  0  0  0  0  0  0  0  0  0
   -2.7630   23.5473  -28.0647 H   0  0  0  0  0  0  0  0  0  0  0  0
   -4.1058   22.5342  -27.3399 H   0  0  0  0  0  0  0  0  0  0  0  0
   -3.4763   21.9986  -29.7416 H   0  0  0  0  0  0  0  0  0  0  0  0
   -5.2320   22.3657  -29.3871 H   0  0  0  0  0  0  0  0  0  0  0  0
   -4.0015   24.8225  -30.1124 H   0  0  0  0  0  0  0  0  0  0  0  0
   -3.4810   23.5713  -31.3220 H   0  0  0  0  0  0  0  0  0  0  0  0
   -6.3649   23.5091  -30.6037 H   0  0  0  0  0  0  0  0  0  0  0  0
   -5.8079   24.9930  -31.4791 H   0  0  0  0  0  0  0  0  0  0  0  0
   -5.6500   23.7390  -33.4240 H   0  0  0  0  0  0  0  0  0  0  0  0
   -3.2287   22.6681  -32.9868 H   0  0  0  0  0  0  0  0  0  0  0  0
   -1.2646   21.3070  -33.6651 H   0  0  0  0  0  0  0  0  0  0  0  0
   -1.5050   18.8572  -34.0089 H   0  0  0  0  0  0  0  0  0  0  0  0
   -3.6902   17.7452  -33.6287 H   0  0  0  0  0  0  0  0  0  0  0  0
   -5.1028   17.0660  -32.4538 H   0  0  0  0  0  0  0  0  0  0  0  0
   -6.8674   17.2023  -32.0837 H   0  0  0  0  0  0  0  0  0  0  0  0
   -6.9760   15.9885  -34.0491 H   0  0  0  0  0  0  0  0  0  0  0  0
   -7.0124   17.6558  -34.7167 H   0  0  0  0  0  0  0  0  0  0  0  0
   -5.4781   16.7215  -34.7167 H   0  0  0  0  0  0  0  0  0  0  0  0
   -8.5287   18.1037  -32.6655 H   0  0  0  0  0  0  0  0  0  0  0  0
  -10.4893   19.4975  -32.0535 H   0  0  0  0  0  0  0  0  0  0  0  0
  -10.2031   21.9149  -31.5494 H   0  0  0  0  0  0  0  0  0  0  0  0
   -7.9680   22.9771  -31.7754 H   0  0  0  0  0  0  0  0  0  0  0  0
  1  2  1  0
  2  3  1  0
  3  4  1  0
  4  5  1  0
  5  6  1  0
  6  7  1  0
  7  8  1  0
  8  9  1  0
  9 10  2  0
 10 11  1  0
 11 12  2  0
 12 13  1  0
 13 14  2  0
 14 15  1  0
 15 16  2  0
 16 17  1  0
 17 18  1  0
 16 19  1  0
 19 20  2  0
 20 21  1  0
 21 22  2  0
 22 23  1  0
 23 24  2  0
 24  9  1  0
 15 10  1  0
 24 19  1  0
  1 25  1  0
  1 26  1  0
  1 27  1  0
  2 28  1  0
  2 29  1  0
  3 30  1  0
  3 31  1  0
  4 32  1  0
  4 33  1  0
  5 34  1  0
  5 35  1  0
  6 36  1  0
  6 37  1  0
  7 38  1  0
  7 39  1  0
  8 40  1  0
 11 41  1  0
 12 42  1  0
 13 43  1  0
 14 44  1  0
 17 45  1  0
 17 46  1  0
 18 47  1  0
 18 48  1  0
 18 49  1  0
 20 50  1  0
 21 51  1  0
 22 52  1  0
 23 53  1  0
M  CHG  2   3   1  16   1
M  END
>  <UniqueID>  (17) 
17

>  <SMILES>  (17) 
CC[NH2+]CCCCNc1c2ccccc2[n+](CC)c2ccccc12

>  <Energy>  (17) 
74.26945438808005

>  <Genealogy>  (17) 
CC[NH2+]CCCCNc1c2ccccc2[n+](CC)c2ccccc12 (protonated)
CC[NH2+]CCCCNc1c2ccccc2[n+](CC)c2ccccc12 (3D coordinates assigned)
CC[NH2+]CCCCNc1c2ccccc2[n+](CC)c2ccccc12 (optimized conformer: 74.26945438808005 kcal/mol)

>  <smiles>  (17) 
CCNCCCCNc1c2ccccc2[n+](CC)c2ccccc12

>  <score_type>  (17) 
oracle

>  <origin>  (17) 
adg

>  <m_score__min__energy>  (17) 
-7.7599999999999998

>  <m_primary>  (17) 
energy

$$$$
17:0
     RDKit          3D

 48 49  0  0  0  0  0  0  0  0999 V2000
   -1.4290   21.4020  -31.7320 C   0  0  0  0  0  0  0  0  0  0  0  0
   -2.6660   21.2460  -32.6300 C   0  0  0  0  0  0  0  0  0  0  0  0
   -3.9590   21.1970  -31.8920 N   0  0  0  0  0  0  0  0  0  0  0  0
   -4.4240   19.8160  -31.5910 C   0  0  0  0  0  0  0  0  0  0  0  0
   -5.8680   19.5530  -32.0350 C   0  0  0  0  0  0  0  0  0  0  0  0
   -5.0090   21.9740  -32.6020 C   0  0  0  0  0  0  0  0  0  0  0  0
   -5.0200   23.3720  -32.1400 N   0  0  0  0  0  0  0  0  0  0  0  0
   -6.3160   23.7260  -31.5460 C   0  0  0  0  0  0  0  0  0  0  0  0
   -6.1190   24.2830  -30.1280 C   0  0  0  0  0  0  0  0  0  0  0  0
   -5.2590   25.5590  -30.0960 C   0  0  0  0  0  0  0  0  0  0  0  0
   -3.8640   25.2930  -30.4500 N   0  0  0  0  0  0  0  0  0  0  0  0
   -2.9800   24.4290  -29.7180 C   0  0  0  0  0  0  0  0  0  0  0  0
   -1.7200   24.8610  -29.2670 C   0  0  0  0  0  0  0  0  0  0  0  0
   -0.9080   23.9890  -28.5330 C   0  0  0  0  0  0  0  0  0  0  0  0
    0.2190   24.3880  -28.1270 O   0  0  0  0  0  0  0  0  0  0  0  0
   -1.3550   22.6840  -28.2530 C   0  0  0  0  0  0  0  0  0  0  0  0
   -0.5840   21.7730  -27.5090 C   0  0  0  0  0  0  0  0  0  0  0  0
   -1.0690   20.4850  -27.2580 C   0  0  0  0  0  0  0  0  0  0  0  0
   -2.3210   20.0960  -27.7450 C   0  0  0  0  0  0  0  0  0  0  0  0
   -3.0950   20.9920  -28.4860 C   0  0  0  0  0  0  0  0  0  0  0  0
   -2.6220   22.2850  -28.7390 C   0  0  0  0  0  0  0  0  0  0  0  0
   -3.3850   23.1580  -29.4500 N   0  0  0  0  0  0  0  0  0  0  0  0
   -1.7352   21.3634  -30.6762 H   0  0  0  0  0  0  0  0  0  0  0  0
   -0.7208   20.5861  -31.9385 H   0  0  0  0  0  0  0  0  0  0  0  0
   -0.9455   22.3682  -31.9385 H   0  0  0  0  0  0  0  0  0  0  0  0
   -2.6977   22.0992  -33.3235 H   0  0  0  0  0  0  0  0  0  0  0  0
   -2.5610   20.2794  -33.1445 H   0  0  0  0  0  0  0  0  0  0  0  0
   -3.7870   21.6760  -30.9730 H   0  0  0  0  0  0  0  0  0  0  0  0
   -3.7642   19.1045  -32.1091 H   0  0  0  0  0  0  0  0  0  0  0  0
   -4.3908   19.6914  -30.4986 H   0  0  0  0  0  0  0  0  0  0  0  0
   -6.5087   19.4363  -31.1485 H   0  0  0  0  0  0  0  0  0  0  0  0
   -6.2265   20.4006  -32.6375 H   0  0  0  0  0  0  0  0  0  0  0  0
   -5.9046   18.6334  -32.6375 H   0  0  0  0  0  0  0  0  0  0  0  0
   -4.8064   21.9520  -33.6830 H   0  0  0  0  0  0  0  0  0  0  0  0
   -5.9893   21.5224  -32.3896 H   0  0  0  0  0  0  0  0  0  0  0  0
   -4.2980   23.4730  -31.3890 H   0  0  0  0  0  0  0  0  0  0  0  0
   -6.8052   24.4881  -32.1704 H   0  0  0  0  0  0  0  0  0  0  0  0
   -6.9428   22.8237  -31.4918 H   0  0  0  0  0  0  0  0  0  0  0  0
   -7.1064   24.5153  -29.7026 H   0  0  0  0  0  0  0  0  0  0  0  0
   -5.5899   23.5155  -29.5441 H   0  0  0  0  0  0  0  0  0  0  0  0
   -5.6741   26.2843  -30.8113 H   0  0  0  0  0  0  0  0  0  0  0  0
   -5.2781   25.9541  -29.0696 H   0  0  0  0  0  0  0  0  0  0  0  0
   -3.5120   25.6960  -31.3490 H   0  0  0  0  0  0  0  0  0  0  0  0
   -1.3738   25.8809  -29.4904 H   0  0  0  0  0  0  0  0  0  0  0  0
    0.4016   22.0736  -27.1240 H   0  0  0  0  0  0  0  0  0  0  0  0
   -0.4632   19.7754  -26.6753 H   0  0  0  0  0  0  0  0  0  0  0  0
   -2.6971   19.0820  -27.5440 H   0  0  0  0  0  0  0  0  0  0  0  0
   -4.0774   20.6812  -28.8712 H   0  0  0  0  0  0  0  0  0  0  0  0
  1  2  1  0
  2  3  1  0
  3  4  1  0
  4  5  1  0
  3  6  1  0
  6  7  1  0
  7  8  1  0
  8  9  1  0
  9 10  1  0
 10 11  1  0
 11 12  1  0
 12 13  2  0
 13 14  1  0
 14 15  2  0
 14 16  1  0
 16 17  2  0
 17 18  1  0
 18 19  2  0
 19 20  1  0
 20 21  2  0
 21 22  1  0
 22 12  1  0
 21 16  1  0
  1 23  1  0
  1 24  1  0
  1 25  1  0
  2 26  1  0
  2 27  1  0
  3 28  1  0
  4 29  1  0
  4 30  1  0
  5 31  1  0
  5 32  1  0
  5 33  1  0
  6 34  1  0
  6 35  1  0
  7 36  1  0
  8 37  1  0
  8 38  1  0
  9 39  1  0
  9 40  1  0
 10 41  1  0
 10 42  1  0
 11 43  1  0
 13 44  1  0
 17 45  1  0
 18 46  1  0
 19 47  1  0
 20 48  1  0
M  CHG  2   3   1  22  -1
M  END
>  <UniqueID>  (18) 
18

>  <SMILES>  (18) 
CC[NH+](CC)CNCCCNc1cc(=O)c2ccccc2[n-]1

>  <Energy>  (18) 
47.79836868515059

>  <Genealogy>  (18) 
CC[NH+](CC)CNCCCNc1cc(=O)c2ccccc2[n-]1 (protonated)
CC[NH+](CC)CNCCCNc1cc(=O)c2ccccc2[n-]1 (3D coordinates assigned)
CC[NH+](CC)CNCCCNc1cc(=O)c2ccccc2[n-]1 (optimized conformer: 47.79836868515059 kcal/mol)

>  <smiles>  (18) 
CCN(CC)CNCCCNc1cc(=O)c2ccccc2[nH]1

>  <score_type>  (18) 
oracle

>  <origin>  (18) 
adg

>  <m_score__min__energy>  (18) 
-8.1500000000000004

>  <m_primary>  (18) 
energy

$$$$
18:0
     RDKit          3D

 50 52  0  0  0  0  0  0  0  0999 V2000
   -3.3710   22.8180  -29.4120 C   0  0  0  0  0  0  0  0  0  0  0  0
   -3.3670   24.1900  -30.0880 C   0  0  0  0  0  0  0  0  0  0  0  0
   -4.5880   24.4300  -30.8940 N   0  0  0  0  0  0  0  0  0  0  0  0
   -5.3720   25.6210  -30.4670 C   0  0  0  0  0  0  0  0  0  0  0  0
   -6.6910   25.3090  -29.7440 C   0  0  0  0  0  0  0  0  0  0  0  0
   -5.4010   23.1950  -30.9950 C   0  0  0  0  0  0  0  0  0  0  0  0
   -5.5030   22.7430  -32.3850 N   0  0  0  0  0  0  0  0  0  0  0  0
   -5.3550   21.3520  -32.7070 C   0  0  0  0  0  0  0  0  0  0  0  0
   -4.0690   20.8580  -33.0040 C   0  0  0  0  0  0  0  0  0  0  0  0
   -2.9220   21.6660  -32.8340 C   0  0  0  0  0  0  0  0  0  0  0  0
   -1.6520   21.1740  -33.1210 C   0  0  0  0  0  0  0  0  0  0  0  0
   -1.4960   19.8650  -33.5600 C   0  0  0  0  0  0  0  0  0  0  0  0
   -2.6110   19.0440  -33.7220 C   0  0  0  0  0  0  0  0  0  0  0  0
   -3.9200   19.5280  -33.4670 C   0  0  0  0  0  0  0  0  0  0  0  0
   -5.0320   18.7320  -33.6410 N   0  0  0  0  0  0  0  0  0  0  0  0
   -4.9210   17.4720  -34.4100 C   0  0  0  0  0  0  0  0  0  0  0  0
   -6.2480   19.1150  -33.1080 C   0  0  0  0  0  0  0  0  0  0  0  0
   -7.2960   18.1760  -32.9580 C   0  0  0  0  0  0  0  0  0  0  0  0
   -8.5360   18.5510  -32.4610 C   0  0  0  0  0  0  0  0  0  0  0  0
   -8.7710   19.8650  -32.1010 C   0  0  0  0  0  0  0  0  0  0  0  0
   -7.7660   20.8320  -32.2080 C   0  0  0  0  0  0  0  0  0  0  0  0
   -8.2520   22.4910  -31.6950 S   0  0  0  0  0  0  0  0  0  0  0  0
   -9.7790   21.9220  -30.8830 C   0  0  0  0  0  0  0  0  0  0  0  0
   -6.4610   20.4610  -32.6770 C   0  0  0  0  0  0  0  0  0  0  0  0
   -3.3706   22.9475  -28.3196 H   0  0  0  0  0  0  0  0  0  0  0  0
   -4.2708   22.2625  -29.7151 H   0  0  0  0  0  0  0  0  0  0  0  0
   -2.4745   22.2573  -29.7151 H   0  0  0  0  0  0  0  0  0  0  0  0
   -3.2992   24.9657  -29.3111 H   0  0  0  0  0  0  0  0  0  0  0  0
   -2.5046   24.2238  -30.7700 H   0  0  0  0  0  0  0  0  0  0  0  0
   -4.7441   26.2166  -29.7881 H   0  0  0  0  0  0  0  0  0  0  0  0
   -5.6472   26.1530  -31.3896 H   0  0  0  0  0  0  0  0  0  0  0  0
   -6.5308   25.3469  -28.6564 H   0  0  0  0  0  0  0  0  0  0  0  0
   -7.4501   26.0524  -30.0290 H   0  0  0  0  0  0  0  0  0  0  0  0
   -7.0366   24.3043  -30.0290 H   0  0  0  0  0  0  0  0  0  0  0  0
   -4.9291   22.4040  -30.3937 H   0  0  0  0  0  0  0  0  0  0  0  0
   -6.4132   23.4116  -30.6228 H   0  0  0  0  0  0  0  0  0  0  0  0
   -6.0260   23.3200  -33.0790 H   0  0  0  0  0  0  0  0  0  0  0  0
   -3.0345   22.6979  -32.4699 H   0  0  0  0  0  0  0  0  0  0  0  0
   -0.7713   21.8219  -33.0002 H   0  0  0  0  0  0  0  0  0  0  0  0
   -0.4910   19.4758  -33.7801 H   0  0  0  0  0  0  0  0  0  0  0  0
   -2.4736   18.0040  -34.0529 H   0  0  0  0  0  0  0  0  0  0  0  0
   -4.8462   16.6232  -33.7143 H   0  0  0  0  0  0  0  0  0  0  0  0
   -5.8118   17.3494  -35.0436 H   0  0  0  0  0  0  0  0  0  0  0  0
   -4.0225   17.5071  -35.0436 H   0  0  0  0  0  0  0  0  0  0  0  0
   -7.1240   17.1271  -33.2413 H   0  0  0  0  0  0  0  0  0  0  0  0
   -9.3337   17.8013  -32.3532 H   0  0  0  0  0  0  0  0  0  0  0  0
   -9.7633   20.1544  -31.7247 H   0  0  0  0  0  0  0  0  0  0  0  0
   -9.6531   21.9689  -29.7912 H   0  0  0  0  0  0  0  0  0  0  0  0
  -10.6168   22.5683  -31.1836 H   0  0  0  0  0  0  0  0  0  0  0  0
   -9.9896   20.8850  -31.1836 H   0  0  0  0  0  0  0  0  0  0  0  0
  1  2  1  0
  2  3  1  0
  3  4  1  0
  4  5  1  0
  3  6  1  0
  6  7  1  0
  7  8  1  0
  8  9  2  0
  9 10  1  0
 10 11  2  0
 11 12  1  0
 12 13  2  0
 13 14  1  0
 14 15  2  0
 15 16  1  0
 15 17  1  0
 17 18  2  0
 18 19  1  0
 19 20  2  0
 20 21  1  0
 21 22  1  0
 22 23  1  0
 21 24  2  0
 24  8  1  0
 14  9  1  0
 24 17  1  0
  1 25  1  0
  1 26  1  0
  1 27  1  0
  2 28  1  0
  2 29  1  0
  4 30  1  0
  4 31  1  0
  5 32  1  0
  5 33  1  0
  5 34  1  0
  6 35  1  0
  6 36  1  0
  7 37  1  0
 10 38  1  0
 11 39  1  0
 12 40  1  0
 13 41  1  0
 16 42  1  0
 16 43  1  0
 16 44  1  0
 18 45  1  0
 19 46  1  0
 20 47  1  0
 23 48  1  0
 23 49  1  0
 23 50  1  0
M  CHG  1  15   1
M  END
>  <UniqueID>  (19) 
19

>  <SMILES>  (19) 
CCN(CC)CNc1c2ccccc2[n+](C)c2cccc(SC)c12

>  <Energy>  (19) 
84.43667787808413

>  <Genealogy>  (19) 
CCN(CC)CNc1c2ccccc2[n+](C)c2cccc(SC)c12 (3D coordinates assigned)
CCN(CC)CNc1c2ccccc2[n+](C)c2cccc(SC)c12 (optimized conformer: 84.43667787808413 kcal/mol)

>  <smiles>  (19) 
CCN(CC)CNc1c2ccccc2[n+](C)c2cccc(SC)c12

>  <score_type>  (19) 
oracle

>  <origin>  (19) 
adg

>  <m_score__min__energy>  (19) 
-8.8100000000000005

>  <m_primary>  (19) 
energy

$$$$
19:0
     RDKit          3D

 48 50  0  0  0  0  0  0  0  0999 V2000
   -6.0176   24.3017  -32.1657 H   0  0  0  0  0  0  0  0  0  0  0  0
   -5.3360   23.4740  -31.9200 C   0  0  0  0  0  0  0  0  0  0  0  0
   -4.1940   23.7550  -31.3600 N   0  0  0  0  0  0  0  0  0  0  0  0
   -3.9960   24.7740  -30.4460 O   0  0  0  0  0  0  0  0  0  0  0  0
   -4.0690   24.5570  -29.0390 C   0  0  0  0  0  0  0  0  0  0  0  0
   -4.7862   23.7499  -28.8288 H   0  0  0  0  0  0  0  0  0  0  0  0
   -4.4012   25.4801  -28.5415 H   0  0  0  0  0  0  0  0  0  0  0  0
   -2.6880   24.1620  -28.5140 C   0  0  0  0  0  0  0  0  0  0  0  0
   -2.4386   23.1548  -28.8792 H   0  0  0  0  0  0  0  0  0  0  0  0
   -2.7130   24.1773  -27.4144 H   0  0  0  0  0  0  0  0  0  0  0  0
   -1.6610   25.1080  -28.9730 N   0  0  0  0  0  0  0  0  0  0  0  0
   -2.0820   25.6730  -29.7470 H   0  0  0  0  0  0  0  0  0  0  0  0
   -1.2180   26.0330  -27.9100 C   0  0  0  0  0  0  0  0  0  0  0  0
   -1.6615   27.0253  -28.0790 H   0  0  0  0  0  0  0  0  0  0  0  0
   -0.1211   26.1142  -27.9278 H   0  0  0  0  0  0  0  0  0  0  0  0
   -1.6690   25.4970  -26.5470 C   0  0  0  0  0  0  0  0  0  0  0  0
   -1.0313   24.6452  -26.2682 H   0  0  0  0  0  0  0  0  0  0  0  0
   -2.7210   25.1859  -26.6272 H   0  0  0  0  0  0  0  0  0  0  0  0
   -1.5650   26.5720  -25.4650 C   0  0  0  0  0  0  0  0  0  0  0  0
   -1.6107   26.0992  -24.4728 H   0  0  0  0  0  0  0  0  0  0  0  0
   -0.6107   27.1086  -25.5718 H   0  0  0  0  0  0  0  0  0  0  0  0
   -2.3987   27.2816  -25.5718 H   0  0  0  0  0  0  0  0  0  0  0  0
   -5.7600   22.0880  -32.2420 C   0  0  0  0  0  0  0  0  0  0  0  0
   -7.1110   21.6950  -32.1080 C   0  0  0  0  0  0  0  0  0  0  0  0
   -8.1020   22.6040  -31.6680 C   0  0  0  0  0  0  0  0  0  0  0  0
   -7.8096   23.6205  -31.3658 H   0  0  0  0  0  0  0  0  0  0  0  0
   -9.4430   22.2300  -31.6120 C   0  0  0  0  0  0  0  0  0  0  0  0
  -10.2002   22.9491  -31.2663 H   0  0  0  0  0  0  0  0  0  0  0  0
   -9.8240   20.9510  -31.9920 C   0  0  0  0  0  0  0  0  0  0  0  0
  -10.8868   20.6676  -31.9761 H   0  0  0  0  0  0  0  0  0  0  0  0
   -8.8630   20.0240  -32.3940 C   0  0  0  0  0  0  0  0  0  0  0  0
   -9.1794   19.0148  -32.6965 H   0  0  0  0  0  0  0  0  0  0  0  0
   -7.4840   20.3590  -32.4200 C   0  0  0  0  0  0  0  0  0  0  0  0
   -6.5180   19.4260  -32.7480 N   0  0  0  0  0  0  0  0  0  0  0  0
   -6.8580   17.9850  -32.7670 C   0  0  0  0  0  0  0  0  0  0  0  0
   -6.9452   17.6152  -31.7347 H   0  0  0  0  0  0  0  0  0  0  0  0
   -7.8148   17.8409  -33.2902 H   0  0  0  0  0  0  0  0  0  0  0  0
   -6.0665   17.4284  -33.2902 H   0  0  0  0  0  0  0  0  0  0  0  0
   -5.2270   19.8330  -33.0310 C   0  0  0  0  0  0  0  0  0  0  0  0
   -4.2870   18.9580  -33.6360 C   0  0  0  0  0  0  0  0  0  0  0  0
   -4.5972   17.9389  -33.9104 H   0  0  0  0  0  0  0  0  0  0  0  0
   -2.9780   19.3660  -33.8890 C   0  0  0  0  0  0  0  0  0  0  0  0
   -2.2641   18.6666  -34.3486 H   0  0  0  0  0  0  0  0  0  0  0  0
   -2.5740   20.6530  -33.5620 C   0  0  0  0  0  0  0  0  0  0  0  0
   -1.5357   20.9656  -33.7470 H   0  0  0  0  0  0  0  0  0  0  0  0
   -3.4800   21.5500  -33.0000 C   0  0  0  0  0  0  0  0  0  0  0  0
   -3.1526   22.5711  -32.7546 H   0  0  0  0  0  0  0  0  0  0  0  0
   -4.8170   21.1630  -32.7410 C   0  0  0  0  0  0  0  0  0  0  0  0
  1  2  1  0
  2  3  2  0
  3  4  1  0
  4  5  1  0
  5  6  1  0
  5  7  1  0
  5  8  1  0
  8  9  1  0
  8 10  1  0
  8 11  1  0
 11 12  1  0
 11 13  1  0
 13 14  1  0
 13 15  1  0
 13 16  1  0
 16 17  1  0
 16 18  1  0
 16 19  1  0
 19 20  1  0
 19 21  1  0
 19 22  1  0
  2 23  1  0
 23 24  2  0
 24 25  1  0
 25 26  1  0
 25 27  2  0
 27 28  1  0
 27 29  1  0
 29 30  1  0
 29 31  2  0
 31 32  1  0
 31 33  1  0
 33 34  2  0
 34 35  1  0
 35 36  1  0
 35 37  1  0
 35 38  1  0
 34 39  1  0
 39 40  2  0
 40 41  1  0
 40 42  1  0
 42 43  1  0
 42 44  2  0
 44 45  1  0
 44 46  1  0
 46 47  1  0
 46 48  2  0
 48 23  1  0
 33 24  1  0
 48 39  1  0
M  CHG  1  34   1
M  END
>  <UniqueID>  (20) 
20

>  <SMILES>  (20) 
CCCNCCO/N=C\c1c2ccccc2[n+](C)c2ccccc12

>  <Energy>  (20) 
79.54302641272375

>  <Genealogy>  (20) 
CCCNCCO/N=C\c1c2ccccc2[n+](C)c2ccccc12 (cis-trans isomerization)
CCCNCCO/N=C\c1c2ccccc2[n+](C)c2ccccc12 (3D coordinates assigned)
CCCNCCO/N=C\c1c2ccccc2[n+](C)c2ccccc12 (optimized conformer: 79.54302641272375 kcal/mol)

>  <smiles>  (20) 
CCCNCCON=Cc1c2ccccc2[n+](C)c2ccccc12

>  <score_type>  (20) 
oracle

>  <origin>  (20) 
adg

>  <m_score__min__energy>  (20) 
-9.2899999999999991

>  <m_primary>  (20) 
energy

$$$$
20:0
     RDKit          3D

 63 67  0  0  1  0  0  0  0  0999 V2000
   -2.4190   25.1720  -28.9430 F   0  0  0  0  0  0  0  0  0  0  0  0
   -2.8160   24.1580  -29.7340 C   0  0  0  0  0  0  0  0  0  0  0  0
   -2.0010   23.0990  -30.0260 C   0  0  0  0  0  0  0  0  0  0  0  0
   -2.3370   22.0310  -30.8190 C   0  0  0  0  0  0  0  0  0  0  0  0
   -1.4840   20.9420  -31.1020 N   0  0  0  0  0  0  0  0  0  0  0  0
   -1.6980   19.9040  -32.0580 C   0  0  0  0  0  0  0  0  0  0  0  0
   -0.6430   18.8500  -32.1230 C   0  0  0  0  0  0  0  0  0  0  0  0
    0.4450   19.0660  -31.2040 N   0  0  0  0  0  0  0  0  0  0  0  0
    0.3300   18.3220  -29.9600 C   0  0  0  0  0  0  0  0  0  0  0  0
    0.7720   19.1910  -28.8090 C   0  0  0  0  0  0  0  0  0  0  0  0
   -0.2530   19.4760  -27.8360 N   0  0  0  0  0  0  0  0  0  0  0  0
   -1.0610   18.4430  -27.1950 C   0  0  0  0  0  0  0  0  0  0  0  0
   -2.3760   18.9430  -26.6970 C   0  0  0  0  0  0  0  0  0  0  0  0
   -2.8320   20.2490  -27.2550 C   0  0  0  0  0  0  0  0  0  0  0  0
   -1.7650   21.2730  -27.1730 C   0  0  0  0  0  0  0  0  0  0  0  0
   -1.9890   22.5690  -26.8350 C   0  0  0  0  0  0  0  0  0  0  0  0
   -0.9000   23.4460  -26.8110 C   0  0  0  0  0  0  0  0  0  0  0  0
    0.3810   23.0440  -27.1200 C   0  0  0  0  0  0  0  0  0  0  0  0
    0.6000   21.7040  -27.4680 C   0  0  0  0  0  0  0  0  0  0  0  0
   -0.4750   20.8310  -27.4920 C   0  0  0  0  0  0  0  0  0  0  0  0
   -3.6510   22.0920  -31.3520 C   0  0  0  0  0  0  0  0  0  0  0  0
   -4.4690   23.1530  -31.0640 C   0  0  0  0  0  0  0  0  0  0  0  0
   -5.7350   23.2350  -31.5760 C   0  0  0  0  0  0  0  0  0  0  0  0
   -6.1720   22.3670  -32.3360 N   0  0  0  0  0  0  0  0  0  0  0  0
   -6.8920   21.2160  -32.2330 C   0  0  0  0  0  0  0  0  0  0  0  0
   -8.2540   21.3240  -31.8370 C   0  0  0  0  0  0  0  0  0  0  0  0
   -9.0250   20.1830  -31.8350 C   0  0  0  0  0  0  0  0  0  0  0  0
   -8.5160   18.9410  -32.2050 C   0  0  0  0  0  0  0  0  0  0  0  0
   -7.1960   18.8260  -32.5900 C   0  0  0  0  0  0  0  0  0  0  0  0
   -6.5180   17.1040  -33.0950 Br  0  0  0  0  0  0  0  0  0  0  0  0
   -6.3960   19.9480  -32.6030 C   0  0  0  0  0  0  0  0  0  0  0  0
   -6.5480   24.2930  -31.2930 N   0  0  0  0  0  0  0  0  0  0  0  0
   -6.1160   25.3020  -30.4870 C   0  0  0  0  0  0  0  0  0  0  0  0
   -4.8810   25.2390  -29.9790 N   0  0  0  0  0  0  0  0  0  0  0  0
   -4.0740   24.1960  -30.2550 C   0  0  0  0  0  0  0  0  0  0  0  0
   -0.9918   23.1041  -29.5884 H   0  0  0  0  0  0  0  0  0  0  0  0
   -0.5900   20.8870  -30.5430 H   0  0  0  0  0  0  0  0  0  0  0  0
   -2.6512   19.4122  -31.8139 H   0  0  0  0  0  0  0  0  0  0  0  0
   -1.6866   20.3976  -33.0410 H   0  0  0  0  0  0  0  0  0  0  0  0
   -1.1062   17.8795  -31.8916 H   0  0  0  0  0  0  0  0  0  0  0  0
   -0.2191   18.8798  -33.1376 H   0  0  0  0  0  0  0  0  0  0  0  0
    0.6670   20.0560  -31.0870 H   0  0  0  0  0  0  0  0  0  0  0  0
   -0.7168   18.0195  -29.8096 H   0  0  0  0  0  0  0  0  0  0  0  0
    0.9680   17.4273  -30.0087 H   0  0  0  0  0  0  0  0  0  0  0  0
    1.5998   18.6814  -28.2942 H   0  0  0  0  0  0  0  0  0  0  0  0
    1.0610   20.1584  -29.2456 H   0  0  0  0  0  0  0  0  0  0  0  0
   -1.2466   17.6420  -27.9257 H   0  0  0  0  0  0  0  0  0  0  0  0
   -0.4972   18.0857  -26.3206 H   0  0  0  0  0  0  0  0  0  0  0  0
   -3.1378   18.1880  -26.9415 H   0  0  0  0  0  0  0  0  0  0  0  0
   -2.2402   19.1121  -25.6186 H   0  0  0  0  0  0  0  0  0  0  0  0
   -3.1138   20.1092  -28.3091 H   0  0  0  0  0  0  0  0  0  0  0  0
   -3.6922   20.5968  -26.6642 H   0  0  0  0  0  0  0  0  0  0  0  0
   -3.0014   22.9201  -26.5864 H   0  0  0  0  0  0  0  0  0  0  0  0
   -1.0728   24.4967  -26.5349 H   0  0  0  0  0  0  0  0  0  0  0  0
    1.2153   23.7604  -27.0941 H   0  0  0  0  0  0  0  0  0  0  0  0
    1.6112   21.3508  -27.7185 H   0  0  0  0  0  0  0  0  0  0  0  0
   -4.0153   21.2819  -32.0008 H   0  0  0  0  0  0  0  0  0  0  0  0
   -8.6802   22.2936  -31.5401 H   0  0  0  0  0  0  0  0  0  0  0  0
  -10.0795   20.2553  -31.5305 H   0  0  0  0  0  0  0  0  0  0  0  0
   -9.1650   18.0530  -32.1904 H   0  0  0  0  0  0  0  0  0  0  0  0
   -5.3439   19.8526  -32.9097 H   0  0  0  0  0  0  0  0  0  0  0  0
   -6.7722   26.1546  -30.2578 H   0  0  0  0  0  0  0  0  0  0  0  0
   -4.5750   26.0250  -29.3640 H   0  0  0  0  0  0  0  0  0  0  0  0
  1  2  1  0
  2  3  2  0
  3  4  1  0
  4  5  1  0
  5  6  1  0
  6  7  1  0
  7  8  1  0
  8  9  1  0
  9 10  1  0
 10 11  1  0
 11 12  1  0
 12 13  1  0
 13 14  1  0
 14 15  1  0
 15 16  2  0
 16 17  1  0
 17 18  2  0
 18 19  1  0
 19 20  2  0
  4 21  2  0
 21 22  1  0
 22 23  1  0
 23 24  2  0
 24 25  1  0
 25 26  2  0
 26 27  1  0
 27 28  2  0
 28 29  1  0
 29 30  1  0
 29 31  2  0
 23 32  1  0
 32 33  2  0
 33 34  1  0
 34 35  1  0
 35  2  1  0
 20 11  1  0
 35 22  2  0
 20 15  1  0
 31 25  1  0
  3 36  1  0
  5 37  1  0
  6 38  1  0
  6 39  1  0
  7 40  1  0
  7 41  1  0
  8 42  1  0
  9 43  1  0
  9 44  1  0
 10 45  1  0
 10 46  1  0
 12 47  1  0
 12 48  1  0
 13 49  1  0
 13 50  1  0
 14 51  1  0
 14 52  1  0
 16 53  1  0
 17 54  1  0
 18 55  1  0
 19 56  1  0
 21 57  1  0
 26 58  1  0
 27 59  1  0
 28 60  1  0
 31 61  1  0
 33 62  1  0
 34 63  1  0
M  END
>  <smiles>  (21) 
Fc1cc(NCCNCCN2CCCc3ccccc32)cc2c(=Nc3cccc(Br)c3)nc[nH]c12

>  <score_type>  (21) 
oracle

>  <origin>  (21) 
adg

>  <m_score__min__energy>  (21) 
-10.76

>  <m_primary>  (21) 
energy

$$$$
21:0
     RDKit          3D

 64 67  0  0  0  0  0  0  0  0999 V2000
   -0.4670   19.2300  -30.6340 C   0  0  0  0  0  0  0  0  0  0  0  0
    0.0680   20.3530  -31.5110 C   0  0  0  0  0  0  0  0  0  0  0  0
   -1.0190   21.2970  -31.8270 N   0  0  0  0  0  0  0  0  0  0  0  0
   -1.5040   21.1740  -33.2090 C   0  0  0  0  0  0  0  0  0  0  0  0
   -3.0130   20.9220  -33.2200 C   0  0  0  0  0  0  0  0  0  0  0  0
   -3.5420   20.8570  -31.8570 N   0  0  0  0  0  0  0  0  0  0  0  0
   -4.9320   21.1050  -31.6110 C   0  0  0  0  0  0  0  0  0  0  0  0
   -5.8670   20.1060  -31.9430 C   0  0  0  0  0  0  0  0  0  0  0  0
   -5.4380   18.8390  -32.4000 C   0  0  0  0  0  0  0  0  0  0  0  0
   -6.3620   17.8770  -32.8020 C   0  0  0  0  0  0  0  0  0  0  0  0
   -7.7210   18.1580  -32.7620 C   0  0  0  0  0  0  0  0  0  0  0  0
   -8.1670   19.3890  -32.2800 C   0  0  0  0  0  0  0  0  0  0  0  0
   -7.2530   20.3720  -31.8200 C   0  0  0  0  0  0  0  0  0  0  0  0
   -7.6840   21.5680  -31.2810 N   0  0  0  0  0  0  0  0  0  0  0  0
   -9.0990   21.7140  -30.8680 C   0  0  0  0  0  0  0  0  0  0  0  0
   -6.7880   22.6010  -31.0690 C   0  0  0  0  0  0  0  0  0  0  0  0
   -7.2420   23.9070  -30.7620 C   0  0  0  0  0  0  0  0  0  0  0  0
   -6.3540   24.9240  -30.4350 C   0  0  0  0  0  0  0  0  0  0  0  0
   -4.9930   24.6760  -30.4060 C   0  0  0  0  0  0  0  0  0  0  0  0
   -4.4840   23.4160  -30.7490 C   0  0  0  0  0  0  0  0  0  0  0  0
   -3.0690   23.2050  -30.6020 N   0  0  0  0  0  0  0  0  0  0  0  0
   -2.2820   23.8030  -29.5190 C   0  0  0  0  0  0  0  0  0  0  0  0
   -1.1140   22.8990  -29.0900 C   0  0  0  0  0  0  0  0  0  0  0  0
   -1.5630   21.7230  -28.2570 C   0  0  0  0  0  0  0  0  0  0  0  0
   -0.9030   21.3980  -27.0640 C   0  0  0  0  0  0  0  0  0  0  0  0
   -1.3860   20.3610  -26.2660 C   0  0  0  0  0  0  0  0  0  0  0  0
   -2.4920   19.6500  -26.6470 N   0  0  0  0  0  0  0  0  0  0  0  0
   -2.9850   18.5530  -25.8110 C   0  0  0  0  0  0  0  0  0  0  0  0
   -3.1140   19.9150  -27.8320 C   0  0  0  0  0  0  0  0  0  0  0  0
   -2.6640   20.9500  -28.6530 C   0  0  0  0  0  0  0  0  0  0  0  0
   -5.3790   22.3730  -31.1580 C   0  0  0  0  0  0  0  0  0  0  0  0
   -0.3389   19.4990  -29.5751 H   0  0  0  0  0  0  0  0  0  0  0  0
   -1.5352   19.0760  -30.8465 H   0  0  0  0  0  0  0  0  0  0  0  0
    0.0864   18.3034  -30.8465 H   0  0  0  0  0  0  0  0  0  0  0  0
    0.8697   20.8839  -30.9767 H   0  0  0  0  0  0  0  0  0  0  0  0
    0.4649   19.9284  -32.4449 H   0  0  0  0  0  0  0  0  0  0  0  0
   -0.6640   22.2730  -31.6920 H   0  0  0  0  0  0  0  0  0  0  0  0
   -1.2872   22.1045  -33.7541 H   0  0  0  0  0  0  0  0  0  0  0  0
   -0.9956   20.3273  -33.6933 H   0  0  0  0  0  0  0  0  0  0  0  0
   -3.5108   21.7404  -33.7608 H   0  0  0  0  0  0  0  0  0  0  0  0
   -3.2048   19.9599  -33.7175 H   0  0  0  0  0  0  0  0  0  0  0  0
   -2.9540   20.5110  -31.0670 H   0  0  0  0  0  0  0  0  0  0  0  0
   -4.3628   18.6101  -32.4386 H   0  0  0  0  0  0  0  0  0  0  0  0
   -6.0144   16.8936  -33.1515 H   0  0  0  0  0  0  0  0  0  0  0  0
   -8.4472   17.4090  -33.1108 H   0  0  0  0  0  0  0  0  0  0  0  0
   -9.2461   19.6012  -32.2562 H   0  0  0  0  0  0  0  0  0  0  0  0
   -9.1616   21.7205  -29.7698 H   0  0  0  0  0  0  0  0  0  0  0  0
   -9.5009   22.6584  -31.2637 H   0  0  0  0  0  0  0  0  0  0  0  0
   -9.6853   20.8716  -31.2637 H   0  0  0  0  0  0  0  0  0  0  0  0
   -8.3209   24.1206  -30.7829 H   0  0  0  0  0  0  0  0  0  0  0  0
   -6.7337   25.9289  -30.1985 H   0  0  0  0  0  0  0  0  0  0  0  0
   -4.3013   25.4784  -30.1098 H   0  0  0  0  0  0  0  0  0  0  0  0
   -2.5410   22.7930  -31.4010 H   0  0  0  0  0  0  0  0  0  0  0  0
   -1.8778   24.7663  -29.8636 H   0  0  0  0  0  0  0  0  0  0  0  0
   -2.9445   23.9376  -28.6513 H   0  0  0  0  0  0  0  0  0  0  0  0
   -0.6125   22.5198  -29.9927 H   0  0  0  0  0  0  0  0  0  0  0  0
   -0.4352   23.5044  -28.4714 H   0  0  0  0  0  0  0  0  0  0  0  0
   -0.0074   21.9587  -26.7582 H   0  0  0  0  0  0  0  0  0  0  0  0
   -0.8747   20.1128  -25.3242 H   0  0  0  0  0  0  0  0  0  0  0  0
   -2.8658   18.8183  -24.7502 H   0  0  0  0  0  0  0  0  0  0  0  0
   -4.0490   18.3766  -26.0275 H   0  0  0  0  0  0  0  0  0  0  0  0
   -2.4105   17.6403  -26.0275 H   0  0  0  0  0  0  0  0  0  0  0  0
   -3.9771   19.3080  -28.1428 H   0  0  0  0  0  0  0  0  0  0  0  0
   -3.1708   21.1586  -29.6067 H   0  0  0  0  0  0  0  0  0  0  0  0
  1  2  1  0
  2  3  1  0
  3  4  1  0
  4  5  1  0
  5  6  1  0
  6  7  1  0
  7  8  2  0
  8  9  1  0
  9 10  2  0
 10 11  1  0
 11 12  2  0
 12 13  1  0
 13 14  2  0
 14 15  1  0
 14 16  1  0
 16 17  2  0
 17 18  1  0
 18 19  2  0
 19 20  1  0
 20 21  1  0
 21 22  1  0
 22 23  1  0
 23 24  1  0
 24 25  2  0
 25 26  1  0
 26 27  2  0
 27 28  1  0
 27 29  1  0
 29 30  2  0
 20 31  2  0
 31  7  1  0
 13  8  1  0
 31 16  1  0
 30 24  1  0
  1 32  1  0
  1 33  1  0
  1 34  1  0
  2 35  1  0
  2 36  1  0
  3 37  1  0
  4 38  1  0
  4 39  1  0
  5 40  1  0
  5 41  1  0
  6 42  1  0
  9 43  1  0
 10 44  1  0
 11 45  1  0
 12 46  1  0
 15 47  1  0
 15 48  1  0
 15 49  1  0
 17 50  1  0
 18 51  1  0
 19 52  1  0
 21 53  1  0
 22 54  1  0
 22 55  1  0
 23 56  1  0
 23 57  1  0
 25 58  1  0
 26 59  1  0
 28 60  1  0
 28 61  1  0
 28 62  1  0
 29 63  1  0
 30 64  1  0
M  CHG  2  14   1  27   1
M  END
>  <UniqueID>  (22) 
21

>  <SMILES>  (22) 
CCNCCNc1c2ccccc2[n+](C)c2cccc(NCCc3cc[n+](C)cc3)c12

>  <Energy>  (22) 
93.42494215986497

>  <Genealogy>  (22) 
CCNCCNc1c2ccccc2[n+](C)c2cccc(NCCc3cc[n+](C)cc3)c12 (3D coordinates assigned)
CCNCCNc1c2ccccc2[n+](C)c2cccc(NCCc3cc[n+](C)cc3)c12 (optimized conformer: 93.42494215986497 kcal/mol)

>  <smiles>  (22) 
CCNCCNc1c2ccccc2[n+](C)c2cccc(NCCc3cc[n+](C)cc3)c12

>  <score_type>  (22) 
oracle

>  <origin>  (22) 
adg

>  <m_score__min__energy>  (22) 
-9.1400000000000006

>  <m_primary>  (22) 
energy

$$$$
22:0
     RDKit          3D

 68 71  0  0  0  0  0  0  0  0999 V2000
   -0.2460   19.0270  -30.1520 C   0  0  0  0  0  0  0  0  0  0  0  0
   -0.6150   19.9670  -31.3080 C   0  0  0  0  0  0  0  0  0  0  0  0
   -1.3040   21.2140  -30.8870 N   0  0  0  0  0  0  0  0  0  0  0  0
   -0.4550   22.1760  -30.1470 C   0  0  0  0  0  0  0  0  0  0  0  0
   -0.4250   21.8750  -28.6480 C   0  0  0  0  0  0  0  0  0  0  0  0
   -2.0450   21.8610  -31.9950 C   0  0  0  0  0  0  0  0  0  0  0  0
   -3.1780   20.9470  -32.4900 C   0  0  0  0  0  0  0  0  0  0  0  0
   -3.8700   20.2790  -31.3680 N   0  0  0  0  0  0  0  0  0  0  0  0
   -5.2280   20.7940  -31.2170 C   0  0  0  0  0  0  0  0  0  0  0  0
   -6.3360   19.9900  -31.5960 C   0  0  0  0  0  0  0  0  0  0  0  0
   -6.2130   18.5870  -31.7350 C   0  0  0  0  0  0  0  0  0  0  0  0
   -7.2830   17.8110  -32.1730 C   0  0  0  0  0  0  0  0  0  0  0  0
   -8.4900   18.4100  -32.4990 C   0  0  0  0  0  0  0  0  0  0  0  0
   -8.6460   19.7870  -32.3550 C   0  0  0  0  0  0  0  0  0  0  0  0
   -7.5960   20.6010  -31.8560 C   0  0  0  0  0  0  0  0  0  0  0  0
   -7.7640   21.9580  -31.6700 N   0  0  0  0  0  0  0  0  0  0  0  0
   -9.1190   22.5550  -31.7420 C   0  0  0  0  0  0  0  0  0  0  0  0
   -6.6830   22.7550  -31.3480 C   0  0  0  0  0  0  0  0  0  0  0  0
   -6.7600   24.1680  -31.4180 C   0  0  0  0  0  0  0  0  0  0  0  0
   -5.7190   24.9680  -30.9540 C   0  0  0  0  0  0  0  0  0  0  0  0
   -4.6210   24.3860  -30.3360 C   0  0  0  0  0  0  0  0  0  0  0  0
   -4.5070   22.9950  -30.2650 C   0  0  0  0  0  0  0  0  0  0  0  0
   -3.5580   22.4540  -29.3310 N   0  0  0  0  0  0  0  0  0  0  0  0
   -3.8420   22.4100  -27.8980 C   0  0  0  0  0  0  0  0  0  0  0  0
   -4.1850   23.8090  -27.3770 C   0  0  0  0  0  0  0  0  0  0  0  0
   -2.9450   24.6540  -27.2350 C   0  0  0  0  0  0  0  0  0  0  0  0
   -2.6540   25.2720  -26.0050 C   0  0  0  0  0  0  0  0  0  0  0  0
   -1.4910   26.0360  -25.8550 C   0  0  0  0  0  0  0  0  0  0  0  0
   -0.6070   26.1830  -26.9330 C   0  0  0  0  0  0  0  0  0  0  0  0
   -0.8820   25.5590  -28.1560 C   0  0  0  0  0  0  0  0  0  0  0  0
   -2.0460   24.7950  -28.3090 C   0  0  0  0  0  0  0  0  0  0  0  0
   -5.4570   22.1700  -30.9370 C   0  0  0  0  0  0  0  0  0  0  0  0
   -0.4433   19.5295  -29.1936 H   0  0  0  0  0  0  0  0  0  0  0  0
   -0.8512   18.1107  -30.2170 H   0  0  0  0  0  0  0  0  0  0  0  0
    0.8209   18.7671  -30.2170 H   0  0  0  0  0  0  0  0  0  0  0  0
    0.3101   20.2455  -31.8340 H   0  0  0  0  0  0  0  0  0  0  0  0
   -1.3218   19.4174  -31.9470 H   0  0  0  0  0  0  0  0  0  0  0  0
    0.5705   22.1216  -30.5412 H   0  0  0  0  0  0  0  0  0  0  0  0
   -0.8800   23.1813  -30.2842 H   0  0  0  0  0  0  0  0  0  0  0  0
   -0.5186   22.8144  -28.0834 H   0  0  0  0  0  0  0  0  0  0  0  0
   -1.2611   21.2080  -28.3911 H   0  0  0  0  0  0  0  0  0  0  0  0
    0.5263   21.3861  -28.3911 H   0  0  0  0  0  0  0  0  0  0  0  0
   -2.4741   22.8091  -31.6387 H   0  0  0  0  0  0  0  0  0  0  0  0
   -1.3498   22.0486  -32.8266 H   0  0  0  0  0  0  0  0  0  0  0  0
   -3.9067   21.5529  -33.0485 H   0  0  0  0  0  0  0  0  0  0  0  0
   -2.7369   20.1706  -33.1323 H   0  0  0  0  0  0  0  0  0  0  0  0
   -3.8860   19.2430  -31.4940 H   0  0  0  0  0  0  0  0  0  0  0  0
   -3.2810   20.4510  -30.5310 H   0  0  0  0  0  0  0  0  0  0  0  0
   -5.2561   18.1014  -31.4930 H   0  0  0  0  0  0  0  0  0  0  0  0
   -7.1703   16.7203  -32.2605 H   0  0  0  0  0  0  0  0  0  0  0  0
   -9.3247   17.7980  -32.8714 H   0  0  0  0  0  0  0  0  0  0  0  0
   -9.6027   20.2528  -32.6338 H   0  0  0  0  0  0  0  0  0  0  0  0
   -9.5002   22.7230  -30.7239 H   0  0  0  0  0  0  0  0  0  0  0  0
   -9.0690   23.5144  -32.2777 H   0  0  0  0  0  0  0  0  0  0  0  0
   -9.7932   21.8706  -32.2777 H   0  0  0  0  0  0  0  0  0  0  0  0
   -7.6565   24.6406  -31.8457 H   0  0  0  0  0  0  0  0  0  0  0  0
   -5.7668   26.0600  -31.0771 H   0  0  0  0  0  0  0  0  0  0  0  0
   -3.8369   25.0225  -29.9001 H   0  0  0  0  0  0  0  0  0  0  0  0
   -2.5730   22.3040  -29.6500 H   0  0  0  0  0  0  0  0  0  0  0  0
   -4.6938   21.7376  -27.7180 H   0  0  0  0  0  0  0  0  0  0  0  0
   -2.9505   22.0417  -27.3693 H   0  0  0  0  0  0  0  0  0  0  0  0
   -4.8732   24.2966  -28.0831 H   0  0  0  0  0  0  0  0  0  0  0  0
   -4.6543   23.7080  -26.3873 H   0  0  0  0  0  0  0  0  0  0  0  0
   -3.3443   25.1541  -25.1567 H   0  0  0  0  0  0  0  0  0  0  0  0
   -1.2708   26.5206  -24.8923 H   0  0  0  0  0  0  0  0  0  0  0  0
    0.3037   26.7892  -26.8180 H   0  0  0  0  0  0  0  0  0  0  0  0
   -0.1828   25.6690  -28.9980 H   0  0  0  0  0  0  0  0  0  0  0  0
   -2.2580   24.3042  -29.2703 H   0  0  0  0  0  0  0  0  0  0  0  0
  1  2  1  0
  2  3  1  0
  3  4  1  0
  4  5  1  0
  3  6  1  0
  6  7  1  0
  7  8  1  0
  8  9  1  0
  9 10  2  0
 10 11  1  0
 11 12  2  0
 12 13  1  0
 13 14  2  0
 14 15  1  0
 15 16  2  0
 16 17  1  0
 16 18  1  0
 18 19  2  0
 19 20  1  0
 20 21  2  0
 21 22  1  0
 22 23  1  0
 23 24  1  0
 24 25  1  0
 25 26  1  0
 26 27  2  0
 27 28  1  0
 28 29  2  0
 29 30  1  0
 30 31  2  0
 22 32  2  0
 32  9  1  0
 15 10  1  0
 32 18  1  0
 31 26  1  0
  1 33  1  0
  1 34  1  0
  1 35  1  0
  2 36  1  0
  2 37  1  0
  4 38  1  0
  4 39  1  0
  5 40  1  0
  5 41  1  0
  5 42  1  0
  6 43  1  0
  6 44  1  0
  7 45  1  0
  7 46  1  0
  8 47  1  0
  8 48  1  0
 11 49  1  0
 12 50  1  0
 13 51  1  0
 14 52  1  0
 17 53  1  0
 17 54  1  0
 17 55  1  0
 19 56  1  0
 20 57  1  0
 21 58  1  0
 23 59  1  0
 24 60  1  0
 24 61  1  0
 25 62  1  0
 25 63  1  0
 27 64  1  0
 28 65  1  0
 29 66  1  0
 30 67  1  0
 31 68  1  0
M  CHG  2   8   1  16   1
M  END
>  <UniqueID>  (23) 
22

>  <SMILES>  (23) 
CCN(CC)CC[NH2+]c1c2ccccc2[n+](C)c2cccc(NCCc3ccccc3)c12

>  <Energy>  (23) 
113.98111057436581

>  <Genealogy>  (23) 
CCN(CC)CC[NH2+]c1c2ccccc2[n+](C)c2cccc(NCCc3ccccc3)c12 (protonated)
CCN(CC)CC[NH2+]c1c2ccccc2[n+](C)c2cccc(NCCc3ccccc3)c12 (3D coordinates assigned)
CCN(CC)CC[NH2+]c1c2ccccc2[n+](C)c2cccc(NCCc3ccccc3)c12 (optimized conformer: 113.98111057436581 kcal/mol)

>  <smiles>  (23) 
CCN(CC)CCNc1c2ccccc2[n+](C)c2cccc(NCCc3ccccc3)c12

>  <score_type>  (23) 
oracle

>  <origin>  (23) 
adg

>  <m_score__min__energy>  (23) 
-8.3399999999999999

>  <m_primary>  (23) 
energy

$$$$
23:0
     RDKit          3D

 48 50  0  0  0  0  0  0  0  0999 V2000
   -2.3590   20.9500  -32.8320 C   0  0  0  0  0  0  0  0  0  0  0  0
   -3.8350   20.9750  -32.5950 C   0  0  0  0  0  0  0  0  0  0  0  0
   -4.5210   22.2090  -32.5210 C   0  0  0  0  0  0  0  0  0  0  0  0
   -5.9150   22.2330  -32.3310 C   0  0  0  0  0  0  0  0  0  0  0  0
   -6.7850   23.8080  -32.3340 S   0  0  0  0  0  0  0  0  0  0  0  0
   -6.7260   24.0320  -30.5200 C   0  0  0  0  0  0  0  0  0  0  0  0
   -5.3240   24.2660  -30.0500 C   0  0  0  0  0  0  0  0  0  0  0  0
   -4.4470   24.6380  -30.8770 O   0  0  0  0  0  0  0  0  0  0  0  0
   -4.9930   24.1060  -28.6630 N   0  0  0  0  0  0  0  0  0  0  0  0
   -3.6340   24.2610  -28.1500 C   0  0  0  0  0  0  0  0  0  0  0  0
   -2.7770   23.1300  -28.6410 C   0  0  0  0  0  0  0  0  0  0  0  0
   -1.6180   23.3940  -29.3900 C   0  0  0  0  0  0  0  0  0  0  0  0
   -0.8440   22.3400  -29.8870 C   0  0  0  0  0  0  0  0  0  0  0  0
   -1.2270   21.0170  -29.6470 C   0  0  0  0  0  0  0  0  0  0  0  0
   -0.4790   19.9960  -30.1340 F   0  0  0  0  0  0  0  0  0  0  0  0
   -2.3860   20.7460  -28.9130 C   0  0  0  0  0  0  0  0  0  0  0  0
   -3.1630   21.7970  -28.4160 C   0  0  0  0  0  0  0  0  0  0  0  0
   -6.5690   21.0000  -32.1860 C   0  0  0  0  0  0  0  0  0  0  0  0
   -7.8880   20.6430  -31.9250 C   0  0  0  0  0  0  0  0  0  0  0  0
   -9.0380   21.5580  -31.6210 C   0  0  0  0  0  0  0  0  0  0  0  0
   -7.9090   19.2430  -31.9240 C   0  0  0  0  0  0  0  0  0  0  0  0
   -9.1150   18.3950  -31.6370 C   0  0  0  0  0  0  0  0  0  0  0  0
   -6.6600   18.7520  -32.1300 N   0  0  0  0  0  0  0  0  0  0  0  0
   -6.2530   17.3470  -32.1550 C   0  0  0  0  0  0  0  0  0  0  0  0
   -5.8650   19.8260  -32.2850 C   0  0  0  0  0  0  0  0  0  0  0  0
   -4.5230   19.8010  -32.4840 N   0  0  0  0  0  0  0  0  0  0  0  0
   -1.8327   20.9411  -31.8661 H   0  0  0  0  0  0  0  0  0  0  0  0
   -2.0944   20.0472  -33.4021 H   0  0  0  0  0  0  0  0  0  0  0  0
   -2.0640   21.8433  -33.4021 H   0  0  0  0  0  0  0  0  0  0  0  0
   -3.9635   23.1529  -32.6122 H   0  0  0  0  0  0  0  0  0  0  0  0
   -7.3462   24.8978  -30.2448 H   0  0  0  0  0  0  0  0  0  0  0  0
   -7.1057   23.1165  -30.0429 H   0  0  0  0  0  0  0  0  0  0  0  0
   -5.7350   23.7850  -28.0010 H   0  0  0  0  0  0  0  0  0  0  0  0
   -3.2167   25.2159  -28.5022 H   0  0  0  0  0  0  0  0  0  0  0  0
   -3.6559   24.2514  -27.0503 H   0  0  0  0  0  0  0  0  0  0  0  0
   -1.3179   24.4339  -29.5864 H   0  0  0  0  0  0  0  0  0  0  0  0
    0.0663   22.5522  -30.4669 H   0  0  0  0  0  0  0  0  0  0  0  0
   -2.6869   19.7046  -28.7263 H   0  0  0  0  0  0  0  0  0  0  0  0
   -4.0792   21.5801  -27.8472 H   0  0  0  0  0  0  0  0  0  0  0  0
   -9.1546   21.6508  -30.5311 H   0  0  0  0  0  0  0  0  0  0  0  0
   -8.8420   22.5498  -32.0545 H   0  0  0  0  0  0  0  0  0  0  0  0
   -9.9604   21.1441  -32.0545 H   0  0  0  0  0  0  0  0  0  0  0  0
   -9.2473   18.3020  -30.5490 H   0  0  0  0  0  0  0  0  0  0  0  0
  -10.0071   18.8657  -32.0759 H   0  0  0  0  0  0  0  0  0  0  0  0
   -8.9739   17.3963  -32.0759 H   0  0  0  0  0  0  0  0  0  0  0  0
   -6.1461   16.9778  -31.1243 H   0  0  0  0  0  0  0  0  0  0  0  0
   -7.0161   16.7535  -32.6797 H   0  0  0  0  0  0  0  0  0  0  0  0
   -5.2908   17.2533  -32.6797 H   0  0  0  0  0  0  0  0  0  0  0  0
  1  2  1  0
  2  3  2  0
  3  4  1  0
  4  5  1  0
  5  6  1  0
  6  7  1  0
  7  8  2  0
  7  9  1  0
  9 10  1  0
 10 11  1  0
 11 12  2  0
 12 13  1  0
 13 14  2  0
 14 15  1  0
 14 16  1  0
 16 17  2  0
  4 18  2  0
 18 19  1  0
 19 20  1  0
 19 21  2  0
 21 22  1  0
 21 23  1  0
 23 24  1  0
 23 25  1  0
 25 26  2  0
 26  2  1  0
 17 11  1  0
 25 18  1  0
  1 27  1  0
  1 28  1  0
  1 29  1  0
  3 30  1  0
  6 31  1  0
  6 32  1  0
  9 33  1  0
 10 34  1  0
 10 35  1  0
 12 36  1  0
 13 37  1  0
 16 38  1  0
 17 39  1  0
 20 40  1  0
 20 41  1  0
 20 42  1  0
 22 43  1  0
 22 44  1  0
 22 45  1  0
 24 46  1  0
 24 47  1  0
 24 48  1  0
M  END
>  <UniqueID>  (24) 
23

>  <SMILES>  (24) 
Cc1cc(SCC(=O)NCc2ccc(F)cc2)c2c(C)c(C)n(C)c2n1

>  <Energy>  (24) 
75.8859934524059

>  <Genealogy>  (24) 
Cc1cc(SCC(=O)NCc2ccc(F)cc2)c2c(C)c(C)n(C)c2n1 (3D coordinates assigned)
Cc1cc(SCC(=O)NCc2ccc(F)cc2)c2c(C)c(C)n(C)c2n1 (optimized conformer: 75.8859934524059 kcal/mol)

>  <smiles>  (24) 
Cc1cc(SCC(=O)NCc2ccc(F)cc2)c2c(C)c(C)n(C)c2n1

>  <score_type>  (24) 
oracle

>  <origin>  (24) 
adg

>  <m_score__min__energy>  (24) 
-9.5099999999999998

>  <m_primary>  (24) 
energy

$$$$
24:0
     RDKit          3D

 47 50  0  0  0  0  0  0  0  0999 V2000
   -2.7130   20.6670  -28.2590 Br  0  0  0  0  0  0  0  0  0  0  0  0
   -2.2040   22.5150  -28.2090 C   0  0  0  0  0  0  0  0  0  0  0  0
   -2.0370   23.1120  -26.9530 C   0  0  0  0  0  0  0  0  0  0  0  0
   -1.7180   24.4670  -26.8520 C   0  0  0  0  0  0  0  0  0  0  0  0
   -1.5710   25.2360  -28.0060 C   0  0  0  0  0  0  0  0  0  0  0  0
   -1.7360   24.6520  -29.2640 C   0  0  0  0  0  0  0  0  0  0  0  0
   -2.0490   23.2840  -29.3840 C   0  0  0  0  0  0  0  0  0  0  0  0
   -2.1960   22.6740  -30.6800 N   0  0  0  0  0  0  0  0  0  0  0  0
   -1.1360   21.8680  -31.2950 C   0  0  0  0  0  0  0  0  0  0  0  0
   -1.6150   21.1930  -32.5850 C   0  0  0  0  0  0  0  0  0  0  0  0
   -2.7920   21.8860  -33.1280 N   0  0  0  0  0  0  0  0  0  0  0  0
   -3.9990   21.0480  -33.0620 C   0  0  0  0  0  0  0  0  0  0  0  0
   -4.6300   21.0880  -31.6600 C   0  0  0  0  0  0  0  0  0  0  0  0
   -6.0650   21.4030  -31.7130 N   0  0  0  0  0  0  0  0  0  0  0  0
   -6.7210   22.5450  -31.3520 C   0  0  0  0  0  0  0  0  0  0  0  0
   -6.0870   23.8100  -30.9480 C   0  0  0  0  0  0  0  0  0  0  0  0
   -6.6290   24.8290  -30.1980 C   0  0  0  0  0  0  0  0  0  0  0  0
   -5.6850   25.7700  -30.0010 N   0  0  0  0  0  0  0  0  0  0  0  0
   -4.6040   25.2780  -30.6430 C   0  0  0  0  0  0  0  0  0  0  0  0
   -4.8370   24.1110  -31.1970 O   0  0  0  0  0  0  0  0  0  0  0  0
   -8.0730   22.4230  -31.3890 N   0  0  0  0  0  0  0  0  0  0  0  0
   -8.2580   21.1620  -31.8140 C   0  0  0  0  0  0  0  0  0  0  0  0
   -9.4690   20.5110  -32.0320 C   0  0  0  0  0  0  0  0  0  0  0  0
   -9.4250   19.1770  -32.4770 C   0  0  0  0  0  0  0  0  0  0  0  0
   -8.1840   18.5350  -32.6910 C   0  0  0  0  0  0  0  0  0  0  0  0
   -6.9780   19.2220  -32.4600 C   0  0  0  0  0  0  0  0  0  0  0  0
   -7.0590   20.5450  -32.0160 C   0  0  0  0  0  0  0  0  0  0  0  0
   -2.1580   22.5093  -26.0408 H   0  0  0  0  0  0  0  0  0  0  0  0
   -1.5826   24.9281  -25.8625 H   0  0  0  0  0  0  0  0  0  0  0  0
   -1.3245   26.3050  -27.9253 H   0  0  0  0  0  0  0  0  0  0  0  0
   -1.6204   25.2661  -30.1693 H   0  0  0  0  0  0  0  0  0  0  0  0
   -3.0540   22.8790  -31.2360 H   0  0  0  0  0  0  0  0  0  0  0  0
   -0.2823   22.5207  -31.5297 H   0  0  0  0  0  0  0  0  0  0  0  0
   -0.8459   21.0813  -30.5830 H   0  0  0  0  0  0  0  0  0  0  0  0
   -0.8051   21.2199  -33.3288 H   0  0  0  0  0  0  0  0  0  0  0  0
   -1.8906   20.1525  -32.3583 H   0  0  0  0  0  0  0  0  0  0  0  0
   -2.5980   22.0880  -34.1370 H   0  0  0  0  0  0  0  0  0  0  0  0
   -4.7315   21.4161  -33.7954 H   0  0  0  0  0  0  0  0  0  0  0  0
   -3.7137   20.0094  -33.2852 H   0  0  0  0  0  0  0  0  0  0  0  0
   -4.4991   20.1055  -31.1830 H   0  0  0  0  0  0  0  0  0  0  0  0
   -4.1286   21.8791  -31.0832 H   0  0  0  0  0  0  0  0  0  0  0  0
   -7.6619   24.8686  -29.8217 H   0  0  0  0  0  0  0  0  0  0  0  0
   -3.6357   25.7973  -30.6959 H   0  0  0  0  0  0  0  0  0  0  0  0
  -10.4280   21.0223  -31.8621 H   0  0  0  0  0  0  0  0  0  0  0  0
  -10.3620   18.6304  -32.6595 H   0  0  0  0  0  0  0  0  0  0  0  0
   -8.1609   17.4922  -33.0402 H   0  0  0  0  0  0  0  0  0  0  0  0
   -6.0053   18.7349  -32.6231 H   0  0  0  0  0  0  0  0  0  0  0  0
  1  2  1  0
  2  3  2  0
  3  4  1  0
  4  5  2  0
  5  6  1  0
  6  7  2  0
  7  8  1  0
  8  9  1  0
  9 10  1  0
 10 11  1  0
 11 12  1  0
 12 13  1  0
 13 14  1  0
 14 15  1  0
 15 16  1  0
 16 17  2  0
 17 18  1  0
 18 19  2  0
 19 20  1  0
 15 21  2  0
 21 22  1  0
 22 23  2  0
 23 24  1  0
 24 25  2  0
 25 26  1  0
 26 27  2  0
  7  2  1  0
 27 14  1  0
 20 16  1  0
 27 22  1  0
  3 28  1  0
  4 29  1  0
  5 30  1  0
  6 31  1  0
  8 32  1  0
  9 33  1  0
  9 34  1  0
 10 35  1  0
 10 36  1  0
 11 37  1  0
 12 38  1  0
 12 39  1  0
 13 40  1  0
 13 41  1  0
 17 42  1  0
 19 43  1  0
 23 44  1  0
 24 45  1  0
 25 46  1  0
 26 47  1  0
M  END
>  <UniqueID>  (25) 
24

>  <SMILES>  (25) 
Brc1ccccc1NCCNCCn1c(-c2cnco2)nc2ccccc21

>  <Energy>  (25) 
118.68997745323738

>  <Genealogy>  (25) 
Brc1ccccc1NCCNCCn1c(-c2cnco2)nc2ccccc21 (3D coordinates assigned)
Brc1ccccc1NCCNCCn1c(-c2cnco2)nc2ccccc21 (optimized conformer: 118.68997745323738 kcal/mol)

>  <smiles>  (25) 
Brc1ccccc1NCCNCCn1c(-c2cnco2)nc2ccccc21

>  <score_type>  (25) 
oracle

>  <origin>  (25) 
adg

>  <m_score__min__energy>  (25) 
-8.4700000000000006

>  <m_primary>  (25) 
energy

$$$$
25:0
     RDKit          3D

 66 65  0  0  0  0  0  0  0  0999 V2000
   -2.6510   19.6330  -27.0510 C   0  0  0  0  0  0  0  0  0  0  0  0
   -2.2680   20.9870  -27.6340 C   0  0  0  0  0  0  0  0  0  0  0  0
   -3.3220   21.4560  -28.5420 N   0  0  0  0  0  0  0  0  0  0  0  0
   -3.9230   22.7170  -28.0740 C   0  0  0  0  0  0  0  0  0  0  0  0
   -3.0980   23.9130  -28.5580 C   0  0  0  0  0  0  0  0  0  0  0  0
   -3.2470   24.1180  -30.0330 C   0  0  0  0  0  0  0  0  0  0  0  0
   -2.7580   23.2770  -30.8360 O   0  0  0  0  0  0  0  0  0  0  0  0
   -3.8720   25.2750  -30.5030 O   0  0  0  0  0  0  0  0  0  0  0  0
   -5.2570   25.3240  -30.8340 C   0  0  0  0  0  0  0  0  0  0  0  0
   -6.0960   25.0620  -29.5850 C   0  0  0  0  0  0  0  0  0  0  0  0
   -6.9730   23.8130  -29.7440 C   0  0  0  0  0  0  0  0  0  0  0  0
   -6.8430   23.2280  -31.1580 C   0  0  0  0  0  0  0  0  0  0  0  0
   -8.1480   22.5920  -31.6620 C   0  0  0  0  0  0  0  0  0  0  0  0
   -7.9750   21.2090  -32.3200 C   0  0  0  0  0  0  0  0  0  0  0  0
   -8.7010   20.0680  -31.5710 C   0  0  0  0  0  0  0  0  0  0  0  0
   -8.6430   18.7100  -32.3080 C   0  0  0  0  0  0  0  0  0  0  0  0
   -7.2580   18.0350  -32.2610 C   0  0  0  0  0  0  0  0  0  0  0  0
   -6.4770   18.0780  -33.5860 C   0  0  0  0  0  0  0  0  0  0  0  0
   -5.3360   19.0960  -33.5690 C   0  0  0  0  0  0  0  0  0  0  0  0
   -5.1970   19.6240  -32.2550 O   0  0  0  0  0  0  0  0  0  0  0  0
   -4.5360   20.8280  -31.9920 C   0  0  0  0  0  0  0  0  0  0  0  0
   -4.5350   21.3230  -30.8330 O   0  0  0  0  0  0  0  0  0  0  0  0
   -3.8050   21.5240  -33.0980 C   0  0  0  0  0  0  0  0  0  0  0  0
   -2.3160   21.1500  -33.1240 C   0  0  0  0  0  0  0  0  0  0  0  0
   -1.9150   20.1200  -32.0570 C   0  0  0  0  0  0  0  0  0  0  0  0
   -2.0230   20.6880  -30.7150 N   0  0  0  0  0  0  0  0  0  0  0  0
   -2.6352   19.6890  -25.9525 H   0  0  0  0  0  0  0  0  0  0  0  0
   -3.6615   19.3605  -27.3897 H   0  0  0  0  0  0  0  0  0  0  0  0
   -1.9330   18.8716  -27.3897 H   0  0  0  0  0  0  0  0  0  0  0  0
   -2.1404   21.7129  -26.8174 H   0  0  0  0  0  0  0  0  0  0  0  0
   -1.3260   20.8873  -28.1932 H   0  0  0  0  0  0  0  0  0  0  0  0
   -2.8820   21.6260  -29.4770 H   0  0  0  0  0  0  0  0  0  0  0  0
   -4.9465   22.7992  -28.4685 H   0  0  0  0  0  0  0  0  0  0  0  0
   -3.9409   22.7173  -26.9741 H   0  0  0  0  0  0  0  0  0  0  0  0
   -3.4391   24.8184  -28.0346 H   0  0  0  0  0  0  0  0  0  0  0  0
   -2.0382   23.7129  -28.3416 H   0  0  0  0  0  0  0  0  0  0  0  0
   -5.5015   26.3181  -31.2365 H   0  0  0  0  0  0  0  0  0  0  0  0
   -5.4780   24.5546  -31.5884 H   0  0  0  0  0  0  0  0  0  0  0  0
   -5.4230   24.9185  -28.7268 H   0  0  0  0  0  0  0  0  0  0  0  0
   -6.7562   25.9275  -29.4268 H   0  0  0  0  0  0  0  0  0  0  0  0
   -6.6578   23.0560  -29.0108 H   0  0  0  0  0  0  0  0  0  0  0  0
   -8.0224   24.0970  -29.5764 H   0  0  0  0  0  0  0  0  0  0  0  0
   -6.5566   24.0358  -31.8475 H   0  0  0  0  0  0  0  0  0  0  0  0
   -6.0816   22.4350  -31.1195 H   0  0  0  0  0  0  0  0  0  0  0  0
   -8.8292   22.4817  -30.8054 H   0  0  0  0  0  0  0  0  0  0  0  0
   -8.5404   23.2614  -32.4416 H   0  0  0  0  0  0  0  0  0  0  0  0
   -8.3726   21.2598  -33.3443 H   0  0  0  0  0  0  0  0  0  0  0  0
   -6.9004   20.9750  -32.2974 H   0  0  0  0  0  0  0  0  0  0  0  0
   -8.2333   19.9478  -30.5827 H   0  0  0  0  0  0  0  0  0  0  0  0
   -9.7614   20.3518  -31.4997 H   0  0  0  0  0  0  0  0  0  0  0  0
   -9.3749   18.0323  -31.8443 H   0  0  0  0  0  0  0  0  0  0  0  0
   -8.8659   18.9102  -33.3664 H   0  0  0  0  0  0  0  0  0  0  0  0
   -6.6561   18.5410  -31.4918 H   0  0  0  0  0  0  0  0  0  0  0  0
   -7.4374   16.9724  -32.0402 H   0  0  0  0  0  0  0  0  0  0  0  0
   -6.0550   17.0804  -33.7777 H   0  0  0  0  0  0  0  0  0  0  0  0
   -7.1804   18.3823  -34.3751 H   0  0  0  0  0  0  0  0  0  0  0  0
   -4.3992   18.6031  -33.8680 H   0  0  0  0  0  0  0  0  0  0  0  0
   -5.5592   19.9117  -34.2724 H   0  0  0  0  0  0  0  0  0  0  0  0
   -4.2598   21.2404  -34.0586 H   0  0  0  0  0  0  0  0  0  0  0  0
   -3.8814   22.6081  -32.9280 H   0  0  0  0  0  0  0  0  0  0  0  0
   -2.0808   20.7326  -34.1142 H   0  0  0  0  0  0  0  0  0  0  0  0
   -1.7517   22.0694  -32.9088 H   0  0  0  0  0  0  0  0  0  0  0  0
   -2.5792   19.2464  -32.1325 H   0  0  0  0  0  0  0  0  0  0  0  0
   -0.8695   19.8249  -32.2298 H   0  0  0  0  0  0  0  0  0  0  0  0
   -2.3660   21.6740  -30.8010 H   0  0  0  0  0  0  0  0  0  0  0  0
   -2.7740   20.1650  -30.2070 H   0  0  0  0  0  0  0  0  0  0  0  0
  1  2  1  0
  2  3  1  0
  3  4  1  0
  4  5  1  0
  5  6  1  0
  6  7  2  0
  6  8  1  0
  8  9  1  0
  9 10  1  0
 10 11  1  0
 11 12  1  0
 12 13  1  0
 13 14  1  0
 14 15  1  0
 15 16  1  0
 16 17  1  0
 17 18  1  0
 18 19  1  0
 19 20  1  0
 20 21  1  0
 21 22  2  0
 21 23  1  0
 23 24  1  0
 24 25  1  0
 25 26  1  0
  1 27  1  0
  1 28  1  0
  1 29  1  0
  2 30  1  0
  2 31  1  0
  3 32  1  0
  4 33  1  0
  4 34  1  0
  5 35  1  0
  5 36  1  0
  9 37  1  0
  9 38  1  0
 10 39  1  0
 10 40  1  0
 11 41  1  0
 11 42  1  0
 12 43  1  0
 12 44  1  0
 13 45  1  0
 13 46  1  0
 14 47  1  0
 14 48  1  0
 15 49  1  0
 15 50  1  0
 16 51  1  0
 16 52  1  0
 17 53  1  0
 17 54  1  0
 18 55  1  0
 18 56  1  0
 19 57  1  0
 19 58  1  0
 23 59  1  0
 23 60  1  0
 24 61  1  0
 24 62  1  0
 25 63  1  0
 25 64  1  0
 26 65  1  0
 26 66  1  0
M  END
>  <UniqueID>  (26) 
25

>  <SMILES>  (26) 
CCNCCC(=O)OCCCCCCCCCCCOC(=O)CCCN

>  <Energy>  (26) 
28.242921947876265

>  <Genealogy>  (26) 
CCNCCC(=O)OCCCCCCCCCCCOC(=O)CCCN (3D coordinates assigned)
CCNCCC(=O)OCCCCCCCCCCCOC(=O)CCCN (optimized conformer: 28.242921947876265 kcal/mol)

>  <smiles>  (26) 
CCNCCC(=O)OCCCCCCCCCCCOC(=O)CCCN

>  <score_type>  (26) 
oracle

>  <origin>  (26) 
adg

>  <m_score__min__energy>  (26) 
-6.3300000000000001

>  <m_primary>  (26) 
energy

$$$$
26:0
     RDKit          3D

 54 56  0  0  0  0  0  0  0  0999 V2000
    0.2580   24.7180  -36.1310 C   0  0  0  0  0  0  0  0  0  0  0  0
    0.9300   23.3500  -36.1830 C   0  0  0  0  0  0  0  0  0  0  0  0
    0.2600   22.4070  -35.2750 N   0  0  0  0  0  0  0  0  0  0  0  0
    0.1030   21.0850  -35.8960 C   0  0  0  0  0  0  0  0  0  0  0  0
   -0.1100   19.9980  -34.8320 C   0  0  0  0  0  0  0  0  0  0  0  0
    0.0330   20.5340  -33.4020 C   0  0  0  0  0  0  0  0  0  0  0  0
   -1.0800   21.4320  -33.0670 N   0  0  0  0  0  0  0  0  0  0  0  0
   -2.3170   20.6810  -32.8020 C   0  0  0  0  0  0  0  0  0  0  0  0
   -3.4460   21.6250  -32.3540 C   0  0  0  0  0  0  0  0  0  0  0  0
   -4.5870   21.5600  -33.2680 N   0  0  0  0  0  0  0  0  0  0  0  0
   -5.7370   20.7400  -32.9900 C   0  0  0  0  0  0  0  0  0  0  0  0
   -6.9240   21.3180  -32.5020 C   0  0  0  0  0  0  0  0  0  0  0  0
   -7.0750   22.7200  -32.4390 C   0  0  0  0  0  0  0  0  0  0  0  0
   -8.2590   23.2890  -31.9770 C   0  0  0  0  0  0  0  0  0  0  0  0
   -9.3200   22.4770  -31.5970 C   0  0  0  0  0  0  0  0  0  0  0  0
   -9.2020   21.0890  -31.6670 C   0  0  0  0  0  0  0  0  0  0  0  0
   -7.9960   20.4780  -32.0990 C   0  0  0  0  0  0  0  0  0  0  0  0
   -7.8560   19.1040  -32.1480 N   0  0  0  0  0  0  0  0  0  0  0  0
   -8.8270   18.2350  -31.4470 C   0  0  0  0  0  0  0  0  0  0  0  0
   -6.7920   18.5430  -32.8300 C   0  0  0  0  0  0  0  0  0  0  0  0
   -6.7550   17.1610  -33.1430 C   0  0  0  0  0  0  0  0  0  0  0  0
   -5.6430   16.5930  -33.7680 C   0  0  0  0  0  0  0  0  0  0  0  0
   -5.6200   14.7250  -34.1650 Br  0  0  0  0  0  0  0  0  0  0  0  0
   -4.5520   17.3860  -34.1040 C   0  0  0  0  0  0  0  0  0  0  0  0
   -4.5760   18.7540  -33.8460 C   0  0  0  0  0  0  0  0  0  0  0  0
   -5.6980   19.3540  -33.2350 C   0  0  0  0  0  0  0  0  0  0  0  0
    0.1120   25.0152  -35.0820 H   0  0  0  0  0  0  0  0  0  0  0  0
    0.8948   25.4588  -36.6367 H   0  0  0  0  0  0  0  0  0  0  0  0
   -0.7175   24.6668  -36.6367 H   0  0  0  0  0  0  0  0  0  0  0  0
    0.8778   22.9608  -37.2105 H   0  0  0  0  0  0  0  0  0  0  0  0
    1.9786   23.4589  -35.8690 H   0  0  0  0  0  0  0  0  0  0  0  0
   -0.7000   22.7810  -35.0860 H   0  0  0  0  0  0  0  0  0  0  0  0
   -0.7669   21.1049  -36.5689 H   0  0  0  0  0  0  0  0  0  0  0  0
    1.0196   20.8507  -36.4572 H   0  0  0  0  0  0  0  0  0  0  0  0
   -1.1208   19.5810  -34.9522 H   0  0  0  0  0  0  0  0  0  0  0  0
    0.6658   19.2322  -34.9791 H   0  0  0  0  0  0  0  0  0  0  0  0
    0.0379   19.6881  -32.6988 H   0  0  0  0  0  0  0  0  0  0  0  0
    0.9746   21.0980  -33.3298 H   0  0  0  0  0  0  0  0  0  0  0  0
   -1.2490   22.0480  -33.8980 H   0  0  0  0  0  0  0  0  0  0  0  0
   -2.6260   20.1601  -33.7203 H   0  0  0  0  0  0  0  0  0  0  0  0
   -2.1234   19.9571  -31.9967 H   0  0  0  0  0  0  0  0  0  0  0  0
   -3.7772   21.3346  -31.3461 H   0  0  0  0  0  0  0  0  0  0  0  0
   -3.0587   22.6546  -32.3546 H   0  0  0  0  0  0  0  0  0  0  0  0
   -4.4930   22.0050  -34.2100 H   0  0  0  0  0  0  0  0  0  0  0  0
   -6.2477   23.3707  -32.7586 H   0  0  0  0  0  0  0  0  0  0  0  0
   -8.3542   24.3830  -31.9129 H   0  0  0  0  0  0  0  0  0  0  0  0
  -10.2565   22.9302  -31.2397 H   0  0  0  0  0  0  0  0  0  0  0  0
  -10.0571   20.4580  -31.3829 H   0  0  0  0  0  0  0  0  0  0  0  0
   -8.7015   18.3473  -30.3600 H   0  0  0  0  0  0  0  0  0  0  0  0
   -9.8496   18.5251  -31.7299 H   0  0  0  0  0  0  0  0  0  0  0  0
   -8.6517   17.1866  -31.7299 H   0  0  0  0  0  0  0  0  0  0  0  0
   -7.6164   16.5256  -32.8894 H   0  0  0  0  0  0  0  0  0  0  0  0
   -3.6677   16.9318  -34.5748 H   0  0  0  0  0  0  0  0  0  0  0  0
   -3.7105   19.3744  -34.1216 H   0  0  0  0  0  0  0  0  0  0  0  0
  1  2  1  0
  2  3  1  0
  3  4  1  0
  4  5  1  0
  5  6  1  0
  6  7  1  0
  7  8  1  0
  8  9  1  0
  9 10  1  0
 10 11  1  0
 11 12  2  0
 12 13  1  0
 13 14  2  0
 14 15  1  0
 15 16  2  0
 16 17  1  0
 17 18  2  0
 18 19  1  0
 18 20  1  0
 20 21  2  0
 21 22  1  0
 22 23  1  0
 22 24  2  0
 24 25  1  0
 25 26  2  0
 26 11  1  0
 17 12  1  0
 26 20  1  0
  1 27  1  0
  1 28  1  0
  1 29  1  0
  2 30  1  0
  2 31  1  0
  3 32  1  0
  4 33  1  0
  4 34  1  0
  5 35  1  0
  5 36  1  0
  6 37  1  0
  6 38  1  0
  7 39  1  0
  8 40  1  0
  8 41  1  0
  9 42  1  0
  9 43  1  0
 10 44  1  0
 13 45  1  0
 14 46  1  0
 15 47  1  0
 16 48  1  0
 19 49  1  0
 19 50  1  0
 19 51  1  0
 21 52  1  0
 24 53  1  0
 25 54  1  0
M  CHG  1  18   1
M  END
>  <UniqueID>  (27) 
26

>  <SMILES>  (27) 
CCNCCCNCCNc1c2ccccc2[n+](C)c2cc(Br)ccc12

>  <Energy>  (27) 
70.06662642274969

>  <Genealogy>  (27) 
CCNCCCNCCNc1c2ccccc2[n+](C)c2cc(Br)ccc12 (3D coordinates assigned)
CCNCCCNCCNc1c2ccccc2[n+](C)c2cc(Br)ccc12 (optimized conformer: 70.06662642274969 kcal/mol)

>  <smiles>  (27) 
CCNCCCNCCNc1c2ccccc2[n+](C)c2cc(Br)ccc12

>  <score_type>  (27) 
oracle

>  <origin>  (27) 
adg

>  <m_score__min__energy>  (27) 
-8.9600000000000009

>  <m_primary>  (27) 
energy

$$$$
